310932101
  -OEChem-07211613022D

 20 18  0     0  0  0  0  0  0999 V2000
    5.3977   -1.4849    0.0000 S   0  0  0  0  0  0  0  0  0  0  0  0
    6.6470   -2.2156    0.0000 F   0  0  0  0  0  0  0  0  0  0  0  0
    6.6470   -0.7543    0.0000 F   0  0  0  0  0  0  0  0  0  0  0  0
    7.0713   -1.4849    0.0000 F   0  0  0  0  0  0  0  0  0  0  0  0
    4.5963   -1.4849    0.0000 O   0  5  0  0  0  0  0  0  0  0  0  0
    5.3977   -0.5657    0.0000 O   0  0  0  0  0  0  0  0  0  0  0  0
    5.3977   -2.3099    0.0000 O   0  0  0  0  0  0  0  0  0  0  0  0
    1.2492   -1.4378    0.0000 N   0  3  0  0  0  0  0  0  0  0  0  0
    6.2463   -1.4849    0.0000 C   0  0  0  0  0  0  0  0  0  0  0  0
    0.4243   -1.4378    0.0000 C   0  0  0  0  0  0  0  0  0  0  0  0
    1.6735   -0.7071    0.0000 C   0  0  0  0  0  0  0  0  0  0  0  0
    1.6735   -2.1685    0.0000 C   0  0  0  0  0  0  0  0  0  0  0  0
    0.8250   -2.1685    0.0000 C   0  0  0  0  0  0  0  0  0  0  0  0
    0.0000   -2.1685    0.0000 C   0  0  0  0  0  0  0  0  0  0  0  0
    1.2492    0.0000    0.0000 C   0  0  0  0  0  0  0  0  0  0  0  0
    2.4985   -2.1685    0.0000 C   0  0  0  0  0  0  0  0  0  0  0  0
    1.2492   -2.8756    0.0000 C   0  0  0  0  0  0  0  0  0  0  0  0
    0.4243   -2.8756    0.0000 C   0  0  0  0  0  0  0  0  0  0  0  0
    0.4243    0.0000    0.0000 C   0  0  0  0  0  0  0  0  0  0  0  0
    2.9228   -1.4378    0.0000 C   0  0  0  0  0  0  0  0  0  0  0  0
  1  5  1  0  0  0  0
  1  6  2  0  0  0  0
  1  7  2  0  0  0  0
  1  9  1  0  0  0  0
  2  9  1  0  0  0  0
  3  9  1  0  0  0  0
  4  9  1  0  0  0  0
  8 10  1  0  0  0  0
  8 11  1  0  0  0  0
  8 12  1  0  0  0  0
  8 13  1  0  0  0  0
 10 14  1  0  0  0  0
 11 15  1  0  0  0  0
 12 16  1  0  0  0  0
 13 17  2  0  0  0  0
 14 18  2  0  0  0  0
 15 19  2  0  0  0  0
 16 20  2  0  0  0  0
M  CHG  2   5  -1   8   1
M  END
> <PUBCHEM_COMPOUND_ID_TYPE>
0

> <PUBCHEM_TOTAL_CHARGE>
0

> <PUBCHEM_SUBSTANCE_ID>
310932101

> <PUBCHEM_SUBSTANCE_VERSION>
1

> <PUBCHEM_EXT_DATASOURCE_NAME>
4488

> <PUBCHEM_EXT_DATASOURCE_REGID>
SCHEMBL16109449

> <PUBCHEM_SUBSTANCE_COMMENT>
InChI=1S/C11H18N.CHF3O3S/c1-5-9-12(8-4,10-6-2)11-7-3;2-1(3,4)8(5,6)7/h5-8H,1-4,9-11H2;(H,5,6,7)/q+1;/p-1
InChIKey=WRNQTKYNADCTOA-UHFFFAOYSA-M

> <PUBCHEM_SUBSTANCE_SYNONYM>
SCHEMBL16109449

> <PUBCHEM_XREF_EXT_ID>
SCHEMBL16109449

> <PUBCHEM_EXT_DATASOURCE_URL>
https://www.surechembl.org/

> <PUBCHEM_EXT_SUBSTANCE_URL>
https://www.surechembl.org/chemical/SCHEMBL16109449

> <PUBCHEM_CID_ASSOCIATIONS>
117600720  1
62406  2
89288692  2

> <PUBCHEM_COORDINATE_TYPE>
1
3

$$$$
