310932687
  -OEChem-07211613022D

 26 26  0     0  0  0  0  0  0999 V2000
    0.0000   -3.7155    0.0000 K   0  3  0  0  0  0  0  0  0  0  0  0
    7.1338   -2.6009    0.0000 O   0  5  0  0  0  0  0  0  0  0  0  0
    8.2856   -1.4119    0.0000 O   0  0  0  0  0  0  0  0  0  0  0  0
    9.6604   -1.8578    0.0000 O   0  0  0  0  0  0  0  0  0  0  0  0
    4.3471   -5.4990    0.0000 O   0  0  0  0  0  0  0  0  0  0  0  0
    2.3036   -6.9480    0.0000 O   0  0  0  0  0  0  0  0  0  0  0  0
    7.8026   -3.9013    0.0000 N   0  0  0  0  0  0  0  0  0  0  0  0
    8.5828   -4.1614    0.0000 N   0  0  0  0  0  0  0  0  0  0  0  0
    7.2081   -5.2017    0.0000 N   0  0  0  0  0  0  0  0  0  0  0  0
    5.2017   -6.6507    0.0000 N   0  0  0  0  0  0  0  0  0  0  0  0
    7.8026   -3.0839    0.0000 C   0  0  0  0  0  0  0  0  0  0  0  0
    8.5828   -2.8238    0.0000 C   0  0  0  0  0  0  0  0  0  0  0  0
    7.1338   -4.3843    0.0000 C   0  0  0  0  0  0  0  0  0  0  0  0
    9.0659   -3.4926    0.0000 C   0  0  0  0  0  0  0  0  0  0  0  0
    8.8429   -2.0435    0.0000 C   0  0  0  0  0  0  0  0  0  0  0  0
    6.3535   -4.0127    0.0000 C   0  0  0  0  0  0  0  0  0  0  0  0
    5.7962   -5.3503    0.0000 C   0  0  0  0  0  0  0  0  0  0  0  0
    6.5393   -5.7219    0.0000 C   0  0  0  0  0  0  0  0  0  0  0  0
    5.6847   -4.5329    0.0000 C   0  0  0  0  0  0  0  0  0  0  0  0
    5.1274   -5.8333    0.0000 C   0  0  0  0  0  0  0  0  0  0  0  0
    8.5457   -0.6316    0.0000 C   0  0  0  0  0  0  0  0  0  0  0  0
    4.5329   -7.1710    0.0000 C   0  0  0  0  0  0  0  0  0  0  0  0
    8.0255    0.0000    0.0000 C   0  0  0  0  0  0  0  0  0  0  0  0
    3.7526   -6.7994    0.0000 C   0  0  0  0  0  0  0  0  0  0  0  0
    3.0839   -7.2824    0.0000 C   0  0  0  0  0  0  0  0  0  0  0  0
    1.6720   -7.4310    0.0000 C   0  0  0  0  0  0  0  0  0  0  0  0
  2 11  1  0  0  0  0
  3 15  1  0  0  0  0
  3 21  1  0  0  0  0
  4 15  2  0  0  0  0
  5 20  2  0  0  0  0
  6 25  1  0  0  0  0
  6 26  1  0  0  0  0
  7  8  1  0  0  0  0
  7 11  1  0  0  0  0
  7 13  1  0  0  0  0
  8 14  2  0  0  0  0
  9 13  1  0  0  0  0
  9 18  2  0  0  0  0
 10 20  1  0  0  0  0
 10 22  1  0  0  0  0
 11 12  2  0  0  0  0
 12 14  1  0  0  0  0
 12 15  1  0  0  0  0
 13 16  2  0  0  0  0
 16 19  1  0  0  0  0
 17 18  1  0  0  0  0
 17 19  2  0  0  0  0
 17 20  1  0  0  0  0
 21 23  1  0  0  0  0
 22 24  1  0  0  0  0
 24 25  1  0  0  0  0
M  CHG  2   1   1   2  -1
M  END
> <PUBCHEM_COMPOUND_ID_TYPE>
0

> <PUBCHEM_TOTAL_CHARGE>
0

> <PUBCHEM_SUBSTANCE_ID>
310932687

> <PUBCHEM_SUBSTANCE_VERSION>
1

> <PUBCHEM_EXT_DATASOURCE_NAME>
4488

> <PUBCHEM_EXT_DATASOURCE_REGID>
SCHEMBL16110068

> <PUBCHEM_SUBSTANCE_COMMENT>
InChI=1S/C16H20N4O5.K/c1-3-25-16(23)12-10-19-20(15(12)22)13-6-5-11(9-18-13)14(21)17-7-4-8-24-2;/h5-6,9-10,22H,3-4,7-8H2,1-2H3,(H,17,21);/q;+1/p-1
InChIKey=QMIMUKCZDWXXRQ-UHFFFAOYSA-M

> <PUBCHEM_SUBSTANCE_SYNONYM>
SCHEMBL16110068

> <PUBCHEM_XREF_EXT_ID>
SCHEMBL16110068

> <PUBCHEM_EXT_DATASOURCE_URL>
https://www.surechembl.org/

> <PUBCHEM_EXT_SUBSTANCE_URL>
https://www.surechembl.org/chemical/SCHEMBL16110068

> <PUBCHEM_CID_ASSOCIATIONS>
117601199  1
5462222  2
117600618  2

> <PUBCHEM_COORDINATE_TYPE>
1
3

$$$$
