310938019
  -OEChem-07211613022D

 55 54  0     1  0  0  0  0  0999 V2000
    0.0000    0.0000    0.0000 Br  0  5  0  0  0  0  0  0  0  0  0  0
    1.0018    0.0000    0.0000 Br  0  5  0  0  0  0  0  0  0  0  0  0
    1.8611   -6.3916    0.0000 O   0  0  0  0  0  0  0  0  0  0  0  0
   -0.9620   -5.9471    0.0000 O   0  0  0  0  0  0  0  0  0  0  0  0
    0.6718   -4.7578    0.0000 O   0  0  0  0  0  0  0  0  0  0  0  0
   -0.8841   -6.6826    0.0000 O   0  0  0  0  0  0  0  0  0  0  0  0
    3.0160   -8.2438    0.0000 N   0  3  0  0  0  0  0  0  0  0  0  0
   -1.9886   -3.2799    0.0000 N   0  3  0  0  0  0  0  0  0  0  0  0
    0.4495   -6.1693    0.0000 C   0  0  0  0  0  0  0  0  0  0  0  0
    1.0911   -6.6879    0.0000 C   0  0  0  0  0  0  0  0  0  0  0  0
   -0.1921   -5.6507    0.0000 C   0  0  0  0  0  0  0  0  0  0  0  0
    2.5027   -6.9102    0.0000 C   0  0  0  0  0  0  0  0  0  0  0  0
    0.9681   -5.5277    0.0000 C   0  0  0  0  0  0  0  0  0  0  0  0
   -0.0691   -6.8109    0.0000 C   0  0  0  0  0  0  0  0  0  0  0  0
    2.3744   -7.7251    0.0000 C   0  0  0  0  0  0  0  0  0  0  0  0
   -1.6036   -5.4284    0.0000 C   0  0  3  0  0  0  0  0  0  0  0  0
    3.2726   -6.6138    0.0000 C   0  0  0  0  0  0  0  0  0  0  0  0
    3.7859   -7.9474    0.0000 C   0  0  0  0  0  0  0  0  0  0  0  0
    3.9142   -7.1325    0.0000 C   0  0  0  0  0  0  0  0  0  0  0  0
   -1.4753   -4.6135    0.0000 C   0  0  0  0  0  0  0  0  0  0  0  0
    2.8877   -9.0587    0.0000 C   0  0  0  0  0  0  0  0  0  0  0  0
   -2.3736   -5.7248    0.0000 C   0  0  0  0  0  0  0  0  0  0  0  0
   -2.1169   -4.0949    0.0000 C   0  0  0  0  0  0  0  0  0  0  0  0
    3.5293   -9.5773    0.0000 C   0  0  0  0  0  0  0  0  0  0  0  0
   -3.0152   -5.2062    0.0000 C   0  0  0  0  0  0  0  0  0  0  0  0
   -2.6302   -2.7613    0.0000 C   0  0  0  0  0  0  0  0  0  0  0  0
   -1.2187   -2.9836    0.0000 C   0  0  0  0  0  0  0  0  0  0  0  0
   -2.5019   -1.9463    0.0000 C   0  0  0  0  0  0  0  0  0  0  0  0
   -1.0904   -2.1686    0.0000 C   0  0  0  0  0  0  0  0  0  0  0  0
    3.4009  -10.3923    0.0000 C   0  0  0  0  0  0  0  0  0  0  0  0
   -3.7851   -5.5025    0.0000 C   0  0  0  0  0  0  0  0  0  0  0  0
   -1.7320   -1.6500    0.0000 C   0  0  0  0  0  0  0  0  0  0  0  0
    4.0426  -10.9109    0.0000 C   0  0  0  0  0  0  0  0  0  0  0  0
   -4.4267   -4.9839    0.0000 C   0  0  0  0  0  0  0  0  0  0  0  0
    3.9142  -11.7259    0.0000 C   0  0  0  0  0  0  0  0  0  0  0  0
   -5.1967   -5.2803    0.0000 C   0  0  0  0  0  0  0  0  0  0  0  0
    4.5558  -12.2445    0.0000 C   0  0  0  0  0  0  0  0  0  0  0  0
   -5.8383   -4.7617    0.0000 C   0  0  0  0  0  0  0  0  0  0  0  0
    4.4275  -13.0594    0.0000 C   0  0  0  0  0  0  0  0  0  0  0  0
   -6.6082   -5.0580    0.0000 C   0  0  0  0  0  0  0  0  0  0  0  0
    5.0691  -13.5780    0.0000 C   0  0  0  0  0  0  0  0  0  0  0  0
   -7.2498   -4.5394    0.0000 C   0  0  0  0  0  0  0  0  0  0  0  0
    4.9408  -14.3930    0.0000 C   0  0  0  0  0  0  0  0  0  0  0  0
   -8.0198   -4.8357    0.0000 C   0  0  0  0  0  0  0  0  0  0  0  0
    5.5824  -14.9116    0.0000 C   0  0  0  0  0  0  0  0  0  0  0  0
   -8.6614   -4.3171    0.0000 C   0  0  0  0  0  0  0  0  0  0  0  0
    5.4541  -15.7266    0.0000 C   0  0  0  0  0  0  0  0  0  0  0  0
   -9.4313   -4.6135    0.0000 C   0  0  0  0  0  0  0  0  0  0  0  0
    6.0957  -16.2452    0.0000 C   0  0  0  0  0  0  0  0  0  0  0  0
    5.9674  -17.0601    0.0000 C   0  0  0  0  0  0  0  0  0  0  0  0
  -10.0729   -4.0949    0.0000 C   0  0  0  0  0  0  0  0  0  0  0  0
    6.6090  -17.5787    0.0000 C   0  0  0  0  0  0  0  0  0  0  0  0
    6.4807  -18.3937    0.0000 C   0  0  0  0  0  0  0  0  0  0  0  0
  -10.8429   -4.3912    0.0000 C   0  0  0  0  0  0  0  0  0  0  0  0
    7.1223  -18.9123    0.0000 C   0  0  0  0  0  0  0  0  0  0  0  0
  3 10  1  0  0  0  0
  3 12  1  0  0  0  0
  4 11  1  0  0  0  0
  4 16  1  0  0  0  0
  5 13  1  0  0  0  0
  6 14  1  0  0  0  0
  7 15  2  0  0  0  0
  7 18  1  0  0  0  0
  7 21  1  0  0  0  0
  8 23  1  0  0  0  0
  8 26  2  0  0  0  0
  8 27  1  0  0  0  0
  9 10  1  0  0  0  0
  9 11  1  0  0  0  0
  9 13  1  0  0  0  0
  9 14  1  0  0  0  0
 12 15  1  0  0  0  0
 12 17  2  0  0  0  0
 16 20  1  0  0  0  0
 16 22  1  0  0  0  0
 17 19  1  0  0  0  0
 18 19  2  0  0  0  0
 20 23  1  0  0  0  0
 21 24  1  0  0  0  0
 22 25  1  0  0  0  0
 24 30  1  0  0  0  0
 25 31  1  0  0  0  0
 26 28  1  0  0  0  0
 27 29  2  0  0  0  0
 28 32  2  0  0  0  0
 29 32  1  0  0  0  0
 30 33  1  0  0  0  0
 31 34  1  0  0  0  0
 33 35  1  0  0  0  0
 34 36  1  0  0  0  0
 35 37  1  0  0  0  0
 36 38  1  0  0  0  0
 37 39  1  0  0  0  0
 38 40  1  0  0  0  0
 39 41  1  0  0  0  0
 40 42  1  0  0  0  0
 41 43  1  0  0  0  0
 42 44  1  0  0  0  0
 43 45  1  0  0  0  0
 44 46  1  0  0  0  0
 45 47  1  0  0  0  0
 46 48  1  0  0  0  0
 47 49  1  0  0  0  0
 48 51  1  0  0  0  0
 49 50  1  0  0  0  0
 50 52  1  0  0  0  0
 51 54  1  0  0  0  0
 52 53  1  0  0  0  0
 53 55  1  0  0  0  0
M  CHG  4   1  -1   2  -1   7   1   8   1
M  END
> <PUBCHEM_COMPOUND_ID_TYPE>
0

> <PUBCHEM_TOTAL_CHARGE>
0

> <PUBCHEM_SUBSTANCE_ID>
310938019

> <PUBCHEM_SUBSTANCE_VERSION>
1

> <PUBCHEM_EXT_DATASOURCE_NAME>
4488

> <PUBCHEM_EXT_DATASOURCE_REGID>
SCHEMBL16115859

> <PUBCHEM_SUBSTANCE_COMMENT>
InChI=1S/C47H84N2O4.2BrH/c1-3-5-7-9-11-13-15-16-17-19-21-23-25-28-37-49-38-31-33-46(40-49)53-44-47(41-50,42-51)43-52-45(34-39-48-35-29-26-30-36-48)32-27-24-22-20-18-14-12-10-8-6-4-2;;/h26,29-31,33,35-36,38,40,45,50-51H,3-25,27-28,32,34,37,39,41-44H2,1-2H3;2*1H/q+2;;/p-2
InChIKey=OKVLEOXUDQLOTF-UHFFFAOYSA-L

> <PUBCHEM_SUBSTANCE_SYNONYM>
SCHEMBL16115859

> <PUBCHEM_XREF_EXT_ID>
SCHEMBL16115859

> <PUBCHEM_EXT_DATASOURCE_URL>
https://www.surechembl.org/

> <PUBCHEM_EXT_SUBSTANCE_URL>
https://www.surechembl.org/chemical/SCHEMBL16115859

> <PUBCHEM_CID_ASSOCIATIONS>
117605611  1
260  2
117605612  2

> <PUBCHEM_COORDINATE_TYPE>
1
3

$$$$
