310930298
  -OEChem-07211613022D

 15 13  0     0  0  0  0  0  0999 V2000
    2.1435    0.4125    0.0000 S   0  0  0  0  0  0  0  0  0  0  0  0
   -2.1435    0.4125    0.0000 S   0  0  0  0  0  0  0  0  0  0  0  0
   -0.7145    1.2375    0.0000 S   0  0  0  0  0  0  0  0  0  0  0  0
    3.5724    0.4125    0.0000 Na  0  3  0  0  0  0  0  0  0  0  0  0
    2.8579    0.8250    0.0000 O   0  5  0  0  0  0  0  0  0  0  0  0
    2.5560   -0.3020    0.0000 O   0  0  0  0  0  0  0  0  0  0  0  0
    1.7309    1.1270    0.0000 O   0  0  0  0  0  0  0  0  0  0  0  0
   -1.4290    0.0000    0.0000 N   0  0  0  0  0  0  0  0  0  0  0  0
   -2.8579    0.0000    0.0000 N   0  0  0  0  0  0  0  0  0  0  0  0
    1.4290    0.0000    0.0000 C   0  0  0  0  0  0  0  0  0  0  0  0
   -0.7145    0.4125    0.0000 C   0  0  0  0  0  0  0  0  0  0  0  0
    0.7145    0.4125    0.0000 C   0  0  0  0  0  0  0  0  0  0  0  0
    0.0000    0.0000    0.0000 C   0  0  0  0  0  0  0  0  0  0  0  0
   -3.5724    0.4125    0.0000 C   0  0  0  0  0  0  0  0  0  0  0  0
   -2.8579   -0.8250    0.0000 C   0  0  0  0  0  0  0  0  0  0  0  0
  1  5  1  0  0  0  0
  1  6  2  0  0  0  0
  1  7  2  0  0  0  0
  1 10  1  0  0  0  0
  2  8  1  0  0  0  0
  2  9  1  0  0  0  0
  3 11  2  0  0  0  0
  8 11  1  0  0  0  0
  9 14  1  0  0  0  0
  9 15  1  0  0  0  0
 10 12  1  0  0  0  0
 11 13  1  0  0  0  0
 12 13  1  0  0  0  0
M  CHG  2   4   1   5  -1
M  END
> <PUBCHEM_COMPOUND_ID_TYPE>
0

> <PUBCHEM_TOTAL_CHARGE>
0

> <PUBCHEM_SUBSTANCE_ID>
310930298

> <PUBCHEM_SUBSTANCE_VERSION>
1

> <PUBCHEM_EXT_DATASOURCE_NAME>
4488

> <PUBCHEM_EXT_DATASOURCE_REGID>
SCHEMBL16107576

> <PUBCHEM_SUBSTANCE_COMMENT>
InChI=1S/C6H14N2O3S3.Na/c1-8(2)13-7-6(12)4-3-5-14(9,10)11;/h3-5H2,1-2H3,(H,7,12)(H,9,10,11);/q;+1/p-1
InChIKey=VFCFPDFRLRPPNQ-UHFFFAOYSA-M

> <PUBCHEM_SUBSTANCE_SYNONYM>
SCHEMBL16107576

> <PUBCHEM_XREF_EXT_ID>
SCHEMBL16107576

> <PUBCHEM_EXT_DATASOURCE_URL>
https://www.surechembl.org/

> <PUBCHEM_EXT_SUBSTANCE_URL>
https://www.surechembl.org/chemical/SCHEMBL16107576

> <PUBCHEM_CID_ASSOCIATIONS>
117599477  1
5360545  2
87662296  2

> <PUBCHEM_COORDINATE_TYPE>
1
3

$$$$
