310938174
  -OEChem-07211613022D

 26 24  0     0  0  0  0  0  0999 V2000
    3.6829    0.0000    0.0000 O   0  0  0  0  0  0  0  0  0  0  0  0
    5.1119    0.0000    0.0000 O   0  5  0  0  0  0  0  0  0  0  0  0
    4.3975    1.2375    0.0000 O   0  0  0  0  0  0  0  0  0  0  0  0
    0.7145    0.4125    0.0000 N   0  3  0  0  0  0  0  0  0  0  0  0
    0.0000    0.0000    0.0000 C   0  0  0  0  0  0  0  0  0  0  0  0
   -0.7145    0.4125    0.0000 C   0  0  0  0  0  0  0  0  0  0  0  0
    1.4290    0.8250    0.0000 C   0  0  0  0  0  0  0  0  0  0  0  0
    0.7145    1.2375    0.0000 C   0  0  0  0  0  0  0  0  0  0  0  0
    1.4290    0.0000    0.0000 C   0  0  0  0  0  0  0  0  0  0  0  0
   -1.4290    0.0000    0.0000 C   0  0  0  0  0  0  0  0  0  0  0  0
   -2.1435    0.4125    0.0000 C   0  0  0  0  0  0  0  0  0  0  0  0
   -2.8579    0.0000    0.0000 C   0  0  0  0  0  0  0  0  0  0  0  0
   -3.5724    0.4125    0.0000 C   0  0  0  0  0  0  0  0  0  0  0  0
   -4.2869    0.0000    0.0000 C   0  0  0  0  0  0  0  0  0  0  0  0
   -5.0014    0.4125    0.0000 C   0  0  0  0  0  0  0  0  0  0  0  0
   -5.7159    0.0000    0.0000 C   0  0  0  0  0  0  0  0  0  0  0  0
   -6.4304    0.4125    0.0000 C   0  0  0  0  0  0  0  0  0  0  0  0
   -7.1449    0.0000    0.0000 C   0  0  0  0  0  0  0  0  0  0  0  0
   -7.8594    0.4125    0.0000 C   0  0  0  0  0  0  0  0  0  0  0  0
    4.3975    0.4125    0.0000 C   0  0  0  0  0  0  0  0  0  0  0  0
   -8.5738    0.0000    0.0000 C   0  0  0  0  0  0  0  0  0  0  0  0
   -9.2883    0.4125    0.0000 C   0  0  0  0  0  0  0  0  0  0  0  0
    2.9685    0.4125    0.0000 C   0  0  0  0  0  0  0  0  0  0  0  0
  -10.0028    0.0000    0.0000 C   0  0  0  0  0  0  0  0  0  0  0  0
    2.2540    0.0000    0.0000 C   0  0  0  0  0  0  0  0  0  0  0  0
  -10.7173    0.4125    0.0000 C   0  0  0  0  0  0  0  0  0  0  0  0
  1 20  1  0  0  0  0
  1 23  1  0  0  0  0
  2 20  1  0  0  0  0
  3 20  2  0  0  0  0
  4  5  1  0  0  0  0
  4  7  1  0  0  0  0
  4  8  1  0  0  0  0
  4  9  1  0  0  0  0
  5  6  1  0  0  0  0
  6 10  1  0  0  0  0
 10 11  1  0  0  0  0
 11 12  1  0  0  0  0
 12 13  1  0  0  0  0
 13 14  1  0  0  0  0
 14 15  1  0  0  0  0
 15 16  1  0  0  0  0
 16 17  1  0  0  0  0
 17 18  1  0  0  0  0
 18 19  1  0  0  0  0
 19 21  1  0  0  0  0
 21 22  1  0  0  0  0
 22 24  1  0  0  0  0
 23 25  1  0  0  0  0
 24 26  1  0  0  0  0
M  CHG  2   2  -1   4   1
M  END
> <PUBCHEM_COMPOUND_ID_TYPE>
0

> <PUBCHEM_TOTAL_CHARGE>
0

> <PUBCHEM_SUBSTANCE_ID>
310938174

> <PUBCHEM_SUBSTANCE_VERSION>
1

> <PUBCHEM_EXT_DATASOURCE_NAME>
4488

> <PUBCHEM_EXT_DATASOURCE_REGID>
SCHEMBL16116027

> <PUBCHEM_SUBSTANCE_COMMENT>
InChI=1S/C19H42N.C3H6O3/c1-5-6-7-8-9-10-11-12-13-14-15-16-17-18-19-20(2,3)4;1-2-6-3(4)5/h5-19H2,1-4H3;2H2,1H3,(H,4,5)/q+1;/p-1
InChIKey=VNIDFQSINSDNPC-UHFFFAOYSA-M

> <PUBCHEM_SUBSTANCE_SYNONYM>
SCHEMBL16116027

> <PUBCHEM_XREF_EXT_ID>
SCHEMBL16116027

> <PUBCHEM_EXT_DATASOURCE_URL>
https://www.surechembl.org/

> <PUBCHEM_EXT_SUBSTANCE_URL>
https://www.surechembl.org/chemical/SCHEMBL16116027

> <PUBCHEM_CID_ASSOCIATIONS>
117605715  1
2681  2
105349  2

> <PUBCHEM_COORDINATE_TYPE>
1
3

$$$$
