310938369
  -OEChem-07211613022D

 21 21  0     0  0  0  0  0  0999 V2000
    3.9540    0.0000    0.0000 Br  0  5  0  0  0  0  0  0  0  0  0  0
    1.0003    0.8662    0.0000 O   0  0  0  0  0  0  0  0  0  0  0  0
    1.7147   -0.3713    0.0000 O   0  0  0  0  0  0  0  0  0  0  0  0
   -2.5721    2.1038    0.0000 N   0  3  0  0  0  0  0  0  0  0  0  0
   -0.4287    0.8663    0.0000 C   0  0  0  0  0  0  0  0  0  0  0  0
   -0.4287    1.6913    0.0000 C   0  0  0  0  0  0  0  0  0  0  0  0
   -1.1432    2.1038    0.0000 C   0  0  0  0  0  0  0  0  0  0  0  0
    0.2858    0.4537    0.0000 C   0  0  0  0  0  0  0  0  0  0  0  0
   -1.8576    1.6913    0.0000 C   0  0  0  0  0  0  0  0  0  0  0  0
   -1.1432    0.4538    0.0000 C   0  0  0  0  0  0  0  0  0  0  0  0
    0.2858   -0.3713    0.0000 C   0  0  0  0  0  0  0  0  0  0  0  0
   -1.8576    0.8663    0.0000 C   0  0  0  0  0  0  0  0  0  0  0  0
    1.0003   -0.7838    0.0000 C   0  0  0  0  0  0  0  0  0  0  0  0
    1.0003   -1.6088    0.0000 C   0  0  0  0  0  0  0  0  0  0  0  0
    0.2858    2.1037    0.0000 C   0  0  0  0  0  0  0  0  0  0  0  0
   -1.1432    2.9288    0.0000 C   0  0  0  0  0  0  0  0  0  0  0  0
    1.7147   -2.0213    0.0000 C   0  0  0  0  0  0  0  0  0  0  0  0
    0.2858   -2.0213    0.0000 C   0  0  0  0  0  0  0  0  0  0  0  0
    1.7147   -2.8463    0.0000 C   0  0  0  0  0  0  0  0  0  0  0  0
    0.2858   -2.8463    0.0000 C   0  0  0  0  0  0  0  0  0  0  0  0
    1.0003   -3.2588    0.0000 C   0  0  0  0  0  0  0  0  0  0  0  0
  2  8  2  0  0  0  0
  3 13  2  0  0  0  0
  4  9  1  0  0  0  0
  5  6  2  0  0  0  0
  5  8  1  0  0  0  0
  5 10  1  0  0  0  0
  6  7  1  0  0  0  0
  6 15  1  0  0  0  0
  7  9  2  0  0  0  0
  7 16  1  0  0  0  0
  8 11  1  0  0  0  0
  9 12  1  0  0  0  0
 10 12  2  0  0  0  0
 11 13  1  0  0  0  0
 13 14  1  0  0  0  0
 14 17  2  0  0  0  0
 14 18  1  0  0  0  0
 17 19  1  0  0  0  0
 18 20  2  0  0  0  0
 19 21  2  0  0  0  0
 20 21  1  0  0  0  0
M  CHG  2   1  -1   4   1
M  END
> <PUBCHEM_COMPOUND_ID_TYPE>
0

> <PUBCHEM_TOTAL_CHARGE>
0

> <PUBCHEM_SUBSTANCE_ID>
310938369

> <PUBCHEM_SUBSTANCE_VERSION>
1

> <PUBCHEM_EXT_DATASOURCE_NAME>
4488

> <PUBCHEM_EXT_DATASOURCE_REGID>
SCHEMBL16116254

> <PUBCHEM_SUBSTANCE_COMMENT>
InChI=1S/C17H17NO2.BrH/c1-11-12(2)15(18)9-8-14(11)17(20)10-16(19)13-6-4-3-5-7-13;/h3-9H,10,18H2,1-2H3;1H
InChIKey=LEODPKRTPZEIMV-UHFFFAOYSA-N

> <PUBCHEM_SUBSTANCE_SYNONYM>
SCHEMBL16116254

> <PUBCHEM_XREF_EXT_ID>
SCHEMBL16116254

> <PUBCHEM_EXT_DATASOURCE_URL>
https://www.surechembl.org/

> <PUBCHEM_EXT_SUBSTANCE_URL>
https://www.surechembl.org/chemical/SCHEMBL16116254

> <PUBCHEM_CID_ASSOCIATIONS>
117605850  1
260  2
117605851  2

> <PUBCHEM_COORDINATE_TYPE>
1
3

$$$$
