310930163
  -OEChem-07211613022D

 21 20  0     0  0  0  0  0  0999 V2000
    4.5493   -2.8793    0.0000 Cl  0  5  0  0  0  0  0  0  0  0  0  0
    1.2381   -1.4396    0.0000 P   0  3  0  0  0  0  0  0  0  0  0  0
    0.4031   -1.4396    0.0000 O   0  0  0  0  0  0  0  0  0  0  0  0
    1.6412   -0.7198    0.0000 O   0  0  0  0  0  0  0  0  0  0  0  0
    1.6412   -2.1595    0.0000 O   0  0  0  0  0  0  0  0  0  0  0  0
    2.4762   -5.0389    0.0000 O   0  0  0  0  0  0  0  0  0  0  0  0
    1.2381   -5.7587    0.0000 O   0  0  0  0  0  0  0  0  0  0  0  0
    1.2381   -2.8793    0.0000 C   0  0  0  0  0  0  0  0  0  0  0  0
    0.8350   -2.1595    0.0000 C   0  0  0  0  0  0  0  0  0  0  0  0
    1.2381   -4.3190    0.0000 C   0  0  0  0  0  0  0  0  0  0  0  0
    0.8350   -3.5992    0.0000 C   0  0  0  0  0  0  0  0  0  0  0  0
    2.0731   -4.3190    0.0000 C   0  0  0  0  0  0  0  0  0  0  0  0
    2.0731   -2.8793    0.0000 C   0  0  0  0  0  0  0  0  0  0  0  0
    2.4762   -3.5992    0.0000 C   0  0  0  0  0  0  0  0  0  0  0  0
    0.8350   -5.0389    0.0000 C   0  0  0  0  0  0  0  0  0  0  0  0
    0.0000   -2.1595    0.0000 C   0  0  0  0  0  0  0  0  0  0  0  0
    1.2381    0.0000    0.0000 C   0  0  0  0  0  0  0  0  0  0  0  0
    2.4762   -2.1595    0.0000 C   0  0  0  0  0  0  0  0  0  0  0  0
    0.4031   -2.8793    0.0000 C   0  0  0  0  0  0  0  0  0  0  0  0
    0.4031    0.0000    0.0000 C   0  0  0  0  0  0  0  0  0  0  0  0
    2.9081   -1.4396    0.0000 C   0  0  0  0  0  0  0  0  0  0  0  0
  2  3  1  0  0  0  0
  2  4  1  0  0  0  0
  2  5  1  0  0  0  0
  2  9  1  0  0  0  0
  3 16  1  0  0  0  0
  4 17  1  0  0  0  0
  5 18  1  0  0  0  0
  6 12  1  0  0  0  0
  7 15  2  0  0  0  0
  8  9  1  0  0  0  0
  8 11  2  0  0  0  0
  8 13  1  0  0  0  0
 10 11  1  0  0  0  0
 10 12  2  0  0  0  0
 10 15  1  0  0  0  0
 12 14  1  0  0  0  0
 13 14  2  0  0  0  0
 16 19  1  0  0  0  0
 17 20  1  0  0  0  0
 18 21  1  0  0  0  0
M  CHG  2   1  -1   2   1
M  END
> <PUBCHEM_COMPOUND_ID_TYPE>
0

> <PUBCHEM_TOTAL_CHARGE>
0

> <PUBCHEM_SUBSTANCE_ID>
310930163

> <PUBCHEM_SUBSTANCE_VERSION>
1

> <PUBCHEM_EXT_DATASOURCE_NAME>
4488

> <PUBCHEM_EXT_DATASOURCE_REGID>
SCHEMBL16107423

> <PUBCHEM_SUBSTANCE_COMMENT>
InChI=1S/C14H21O5P.ClH/c1-4-17-20(18-5-2,19-6-3)11-12-7-8-14(16)13(9-12)10-15;/h7-10H,4-6,11H2,1-3H3;1H
InChIKey=QWHGVJMAQFVLBQ-UHFFFAOYSA-N

> <PUBCHEM_SUBSTANCE_SYNONYM>
SCHEMBL16107423

> <PUBCHEM_XREF_EXT_ID>
SCHEMBL16107423

> <PUBCHEM_EXT_DATASOURCE_URL>
https://www.surechembl.org/

> <PUBCHEM_EXT_SUBSTANCE_URL>
https://www.surechembl.org/chemical/SCHEMBL16107423

> <PUBCHEM_CID_ASSOCIATIONS>
117599383  1
313  2
117599384  2

> <PUBCHEM_COORDINATE_TYPE>
1
3

$$$$
