310930340
  -OEChem-07211613022D

 24 24  0     1  0  0  0  0  0999 V2000
    2.8286    4.0031    0.0000 S   0  0  0  0  0  0  0  0  0  0  0  0
    2.8286    3.1781    0.0000 O   0  0  0  0  0  0  0  0  0  0  0  0
    2.8286    4.8281    0.0000 O   0  5  0  0  0  0  0  0  0  0  0  0
    2.0036    4.0031    0.0000 O   0  0  0  0  0  0  0  0  0  0  0  0
    3.6536    4.0031    0.0000 O   0  0  0  0  0  0  0  0  0  0  0  0
    4.2575    1.5281    0.0000 N   0  0  3  0  0  0  0  0  0  0  0  0
    5.3845   -4.2790    0.0000 N   0  0  0  0  0  0  0  0  0  0  0  0
    5.6394   -3.4943    0.0000 N   0  0  0  0  0  0  0  0  0  0  0  0
    4.9720   -2.1844    0.0000 N   0  0  0  0  0  0  0  0  0  0  0  0
    4.2575   -1.7719    0.0000 N   0  0  0  0  0  0  0  0  0  0  0  0
    4.3045   -3.4943    0.0000 N   0  0  0  0  0  0  0  0  0  0  0  0
    4.2575    0.7031    0.0000 C   0  0  0  0  0  0  0  0  0  0  0  0
    4.2575   -0.9469    0.0000 C   0  0  0  0  0  0  0  0  0  0  0  0
    4.9720   -3.0094    0.0000 C   0  0  0  0  0  0  0  0  0  0  0  0
    4.9720    0.2906    0.0000 C   0  0  0  0  0  0  0  0  0  0  0  0
    3.5430    0.2906    0.0000 C   0  0  0  0  0  0  0  0  0  0  0  0
    4.9720   -0.5344    0.0000 C   0  0  0  0  0  0  0  0  0  0  0  0
    3.5430   -0.5344    0.0000 C   0  0  0  0  0  0  0  0  0  0  0  0
    4.5595   -4.2790    0.0000 C   0  0  0  0  0  0  0  0  0  0  0  0
    3.5430    1.9406    0.0000 C   0  0  0  0  0  0  0  0  0  0  0  0
    3.5430    2.7656    0.0000 C   0  0  0  0  0  0  0  0  0  0  0  0
    4.9720    1.9406    0.0000 C   0  0  0  0  0  0  0  0  0  0  0  0
    5.8694   -4.9464    0.0000 C   0  0  0  0  0  0  0  0  0  0  0  0
    0.0000    0.0000    0.0000 H   0  3  0  0  0  0  0  0  0  0  0  0
  1  2  1  0  0  0  0
  1  3  1  0  0  0  0
  1  4  2  0  0  0  0
  1  5  2  0  0  0  0
  2 21  1  0  0  0  0
  6 12  1  0  0  0  0
  6 20  1  0  0  0  0
  6 22  1  0  0  0  0
  7  8  1  0  0  0  0
  7 19  1  0  0  0  0
  7 23  1  0  0  0  0
  8 14  2  0  0  0  0
  9 10  2  0  0  0  0
  9 14  1  0  0  0  0
 10 13  1  0  0  0  0
 11 14  1  0  0  0  0
 11 19  2  0  0  0  0
 12 15  2  0  0  0  0
 12 16  1  0  0  0  0
 13 17  2  0  0  0  0
 13 18  1  0  0  0  0
 15 17  1  0  0  0  0
 16 18  2  0  0  0  0
 20 21  1  0  0  0  0
M  CHG  2   3  -1  24   1
M  END
> <PUBCHEM_COMPOUND_ID_TYPE>
0

> <PUBCHEM_TOTAL_CHARGE>
0

> <PUBCHEM_SUBSTANCE_ID>
310930340

> <PUBCHEM_SUBSTANCE_VERSION>
1

> <PUBCHEM_EXT_DATASOURCE_NAME>
4488

> <PUBCHEM_EXT_DATASOURCE_REGID>
SCHEMBL16107624

> <PUBCHEM_SUBSTANCE_COMMENT>
InChI=1S/C12H16N6O4S/c1-17(7-8-22-23(19,20)21)11-5-3-10(4-6-11)14-15-12-13-9-18(2)16-12/h3-6,9H,7-8H2,1-2H3,(H,19,20,21)/b15-14+
InChIKey=JGEQKMZXKSTTCE-CCEZHUSRSA-N

> <PUBCHEM_SUBSTANCE_SYNONYM>
SCHEMBL16107624

> <PUBCHEM_XREF_EXT_ID>
SCHEMBL16107624

> <PUBCHEM_EXT_DATASOURCE_URL>
https://www.surechembl.org/

> <PUBCHEM_EXT_SUBSTANCE_URL>
https://www.surechembl.org/chemical/SCHEMBL16107624

> <PUBCHEM_CID_ASSOCIATIONS>
117599507  1
783  2
89570347  2

> <PUBCHEM_COORDINATE_TYPE>
1
3

> <PUBCHEM_BONDANNOTATIONS>
10  13  3

$$$$
