310930011
  -OEChem-07211613022D

 17 16  0     1  0  0  0  0  0999 V2000
    2.8286    2.1914    0.0000 S   0  0  0  0  0  0  0  0  0  0  0  0
    2.8286    1.3664    0.0000 O   0  0  0  0  0  0  0  0  0  0  0  0
    2.8286    3.0164    0.0000 O   0  5  0  0  0  0  0  0  0  0  0  0
    2.0036    2.1914    0.0000 O   0  0  0  0  0  0  0  0  0  0  0  0
    3.6536    2.1914    0.0000 O   0  0  0  0  0  0  0  0  0  0  0  0
    4.2575   -0.2836    0.0000 N   0  0  3  0  0  0  0  0  0  0  0  0
    4.2575   -1.1086    0.0000 C   0  0  0  0  0  0  0  0  0  0  0  0
    3.5430    0.1289    0.0000 C   0  0  0  0  0  0  0  0  0  0  0  0
    3.5430    0.9539    0.0000 C   0  0  0  0  0  0  0  0  0  0  0  0
    4.9720   -1.5211    0.0000 C   0  0  0  0  0  0  0  0  0  0  0  0
    3.5430   -1.5211    0.0000 C   0  0  0  0  0  0  0  0  0  0  0  0
    4.9720    0.1289    0.0000 C   0  0  0  0  0  0  0  0  0  0  0  0
    4.9720   -2.3461    0.0000 C   0  0  0  0  0  0  0  0  0  0  0  0
    3.5430   -2.3461    0.0000 C   0  0  0  0  0  0  0  0  0  0  0  0
    4.2575   -2.7586    0.0000 C   0  0  0  0  0  0  0  0  0  0  0  0
    5.6865   -0.2836    0.0000 C   0  0  0  0  0  0  0  0  0  0  0  0
    0.0000    0.0000    0.0000 H   0  3  0  0  0  0  0  0  0  0  0  0
  1  2  1  0  0  0  0
  1  3  1  0  0  0  0
  1  4  2  0  0  0  0
  1  5  2  0  0  0  0
  2  9  1  0  0  0  0
  6  7  1  0  0  0  0
  6  8  1  0  0  0  0
  6 12  1  0  0  0  0
  7 10  2  0  0  0  0
  7 11  1  0  0  0  0
  8  9  1  0  0  0  0
 10 13  1  0  0  0  0
 11 14  2  0  0  0  0
 12 16  1  0  0  0  0
 13 15  2  0  0  0  0
 14 15  1  0  0  0  0
M  CHG  2   3  -1  17   1
M  END
> <PUBCHEM_COMPOUND_ID_TYPE>
0

> <PUBCHEM_TOTAL_CHARGE>
0

> <PUBCHEM_SUBSTANCE_ID>
310930011

> <PUBCHEM_SUBSTANCE_VERSION>
1

> <PUBCHEM_EXT_DATASOURCE_NAME>
4488

> <PUBCHEM_EXT_DATASOURCE_REGID>
SCHEMBL16107250

> <PUBCHEM_SUBSTANCE_COMMENT>
InChI=1S/C10H15NO4S/c1-2-11(8-9-15-16(12,13)14)10-6-4-3-5-7-10/h3-7H,2,8-9H2,1H3,(H,12,13,14)
InChIKey=SUJRFOWZRHUCMH-UHFFFAOYSA-N

> <PUBCHEM_SUBSTANCE_SYNONYM>
SCHEMBL16107250

> <PUBCHEM_XREF_EXT_ID>
SCHEMBL16107250

> <PUBCHEM_EXT_DATASOURCE_URL>
https://www.surechembl.org/

> <PUBCHEM_EXT_SUBSTANCE_URL>
https://www.surechembl.org/chemical/SCHEMBL16107250

> <PUBCHEM_CID_ASSOCIATIONS>
117599259  1
783  2
23569747  2

> <PUBCHEM_COORDINATE_TYPE>
1
3

$$$$
