310930397
  -OEChem-07211613022D

 27 27  0     1  0  0  0  0  0999 V2000
    2.8286    3.6095    0.0000 S   0  0  0  0  0  0  0  0  0  0  0  0
    2.8286    2.7845    0.0000 O   0  0  0  0  0  0  0  0  0  0  0  0
    6.4009   -0.1030    0.0000 O   0  5  0  0  0  0  0  0  0  0  0  0
    5.6865    1.1345    0.0000 O   0  0  0  0  0  0  0  0  0  0  0  0
    4.3045   -3.8879    0.0000 O   0  0  0  0  0  0  0  0  0  0  0  0
    2.8286    4.4345    0.0000 O   0  5  0  0  0  0  0  0  0  0  0  0
    2.0036    3.6095    0.0000 O   0  0  0  0  0  0  0  0  0  0  0  0
    3.6536    3.6095    0.0000 O   0  0  0  0  0  0  0  0  0  0  0  0
    4.2575    1.1345    0.0000 N   0  0  3  0  0  0  0  0  0  0  0  0
    5.6865    0.3095    0.0000 N   0  3  0  0  0  0  0  0  0  0  0  0
    4.2575   -2.1655    0.0000 N   0  0  0  0  0  0  0  0  0  0  0  0
    4.9720   -2.5780    0.0000 N   0  0  0  0  0  0  0  0  0  0  0  0
    4.5595   -4.6726    0.0000 N   0  0  0  0  0  0  0  0  0  0  0  0
    4.2575    0.3095    0.0000 C   0  0  0  0  0  0  0  0  0  0  0  0
    4.9720   -0.1030    0.0000 C   0  0  0  0  0  0  0  0  0  0  0  0
    4.2575   -1.3405    0.0000 C   0  0  0  0  0  0  0  0  0  0  0  0
    4.9720   -0.9280    0.0000 C   0  0  0  0  0  0  0  0  0  0  0  0
    3.5430   -0.1030    0.0000 C   0  0  0  0  0  0  0  0  0  0  0  0
    3.5430   -0.9280    0.0000 C   0  0  0  0  0  0  0  0  0  0  0  0
    3.5430    1.5470    0.0000 C   0  0  0  0  0  0  0  0  0  0  0  0
    4.9720    1.5470    0.0000 C   0  0  0  0  0  0  0  0  0  0  0  0
    4.9720   -3.4030    0.0000 C   0  0  0  0  0  0  0  0  0  0  0  0
    3.5430    2.3720    0.0000 C   0  0  0  0  0  0  0  0  0  0  0  0
    5.6394   -3.8879    0.0000 C   0  0  0  0  0  0  0  0  0  0  0  0
    4.9720    2.3720    0.0000 C   0  0  0  0  0  0  0  0  0  0  0  0
    5.3845   -4.6726    0.0000 C   0  0  0  0  0  0  0  0  0  0  0  0
    0.0000    0.0000    0.0000 H   0  3  0  0  0  0  0  0  0  0  0  0
  1  2  1  0  0  0  0
  1  6  1  0  0  0  0
  1  7  2  0  0  0  0
  1  8  2  0  0  0  0
  2 23  1  0  0  0  0
  3 10  1  0  0  0  0
  4 10  2  0  0  0  0
  5 13  1  0  0  0  0
  5 22  1  0  0  0  0
  9 14  1  0  0  0  0
  9 20  1  0  0  0  0
  9 21  1  0  0  0  0
 10 15  1  0  0  0  0
 11 12  2  0  0  0  0
 11 16  1  0  0  0  0
 12 22  1  0  0  0  0
 13 26  2  0  0  0  0
 14 15  2  0  0  0  0
 14 18  1  0  0  0  0
 15 17  1  0  0  0  0
 16 17  2  0  0  0  0
 16 19  1  0  0  0  0
 18 19  2  0  0  0  0
 20 23  1  0  0  0  0
 21 25  1  0  0  0  0
 22 24  2  0  0  0  0
 24 26  1  0  0  0  0
M  CHG  4   3  -1   6  -1  10   1  27   1
M  END
> <PUBCHEM_COMPOUND_ID_TYPE>
0

> <PUBCHEM_TOTAL_CHARGE>
0

> <PUBCHEM_SUBSTANCE_ID>
310930397

> <PUBCHEM_SUBSTANCE_VERSION>
1

> <PUBCHEM_EXT_DATASOURCE_NAME>
4488

> <PUBCHEM_EXT_DATASOURCE_REGID>
SCHEMBL16107683

> <PUBCHEM_SUBSTANCE_COMMENT>
InChI=1S/C13H15N5O7S/c1-2-17(7-8-24-26(21,22)23)11-4-3-10(9-12(11)18(19)20)15-16-13-5-6-14-25-13/h3-6,9H,2,7-8H2,1H3,(H,21,22,23)/b16-15+
InChIKey=PYEKUPWCKCZCAT-FOCLMDBBSA-N

> <PUBCHEM_SUBSTANCE_SYNONYM>
SCHEMBL16107683

> <PUBCHEM_XREF_EXT_ID>
SCHEMBL16107683

> <PUBCHEM_EXT_DATASOURCE_URL>
https://www.surechembl.org/

> <PUBCHEM_EXT_SUBSTANCE_URL>
https://www.surechembl.org/chemical/SCHEMBL16107683

> <PUBCHEM_CID_ASSOCIATIONS>
117599545  1
783  2
89559124  2

> <PUBCHEM_COORDINATE_TYPE>
1
3

> <PUBCHEM_BONDANNOTATIONS>
11  16  3

$$$$
