310937081
  -OEChem-07211613022D

 29 31  0     1  0  0  0  0  0999 V2000
    2.1730   -2.1730    0.0000 O   0  5  0  0  0  0  0  0  0  0  0  0
    2.1730   -3.6020    0.0000 O   0  0  0  0  0  0  0  0  0  0  0  0
   -0.3020   -3.6020    0.0000 N   0  0  0  0  0  0  0  0  0  0  0  0
    0.9355   -2.8875    0.0000 N   0  0  0  0  0  0  0  0  0  0  0  0
   -0.7145   -4.3164    0.0000 N   0  3  0  0  0  0  0  0  0  0  0  0
   -1.1270   -5.0309    0.0000 N   0  5  0  0  0  0  0  0  0  0  0  0
   -0.3020   -2.1730    0.0000 C   0  0  3  0  0  0  0  0  0  0  0  0
   -0.7145   -2.8875    0.0000 C   0  0  3  0  0  0  0  0  0  0  0  0
   -0.7145   -1.4586    0.0000 C   0  0  0  0  0  0  0  0  0  0  0  0
   -1.5395   -2.8875    0.0000 C   0  0  0  0  0  0  0  0  0  0  0  0
    0.5230   -2.1730    0.0000 C   0  0  0  0  0  0  0  0  0  0  0  0
   -0.3020   -0.7441    0.0000 C   0  0  0  0  0  0  0  0  0  0  0  0
   -1.5395   -1.4586    0.0000 C   0  0  0  0  0  0  0  0  0  0  0  0
   -0.7145   -0.0296    0.0000 C   0  0  0  0  0  0  0  0  0  0  0  0
   -1.5395   -0.0296    0.0000 C   0  0  0  0  0  0  0  0  0  0  0  0
   -1.9520   -2.1730    0.0000 C   0  0  0  0  0  0  0  0  0  0  0  0
   -1.9520   -3.6020    0.0000 C   0  0  0  0  0  0  0  0  0  0  0  0
   -1.9520   -0.7441    0.0000 C   0  0  0  0  0  0  0  0  0  0  0  0
   -0.3020    0.6849    0.0000 C   0  0  0  0  0  0  0  0  0  0  0  0
    1.7605   -2.8875    0.0000 C   0  0  0  0  0  0  0  0  0  0  0  0
   -2.7770   -2.1730    0.0000 C   0  0  0  0  0  0  0  0  0  0  0  0
   -2.7770   -3.6020    0.0000 C   0  0  0  0  0  0  0  0  0  0  0  0
   -1.9520    0.6849    0.0000 C   0  0  0  0  0  0  0  0  0  0  0  0
   -3.1895   -2.8875    0.0000 C   0  0  0  0  0  0  0  0  0  0  0  0
    0.5230   -3.6020    0.0000 C   0  0  0  0  0  0  0  0  0  0  0  0
   -0.7145    1.3993    0.0000 C   0  0  0  0  0  0  0  0  0  0  0  0
   -1.5395    1.3993    0.0000 C   0  0  0  0  0  0  0  0  0  0  0  0
    0.3300   -2.7033    0.0000 H   0  0  0  0  0  0  0  0  0  0  0  0
    0.0608   -2.6053    0.0000 H   0  0  0  0  0  0  0  0  0  0  0  0
  1 20  1  0  0  0  0
  2 20  2  0  0  0  0
  3  5  2  0  0  0  0
  8  3  1  6  0  0  0
  4 11  1  0  0  0  0
  4 20  1  0  0  0  0
  4 25  1  0  0  0  0
  5  6  2  0  0  0  0
  7  8  1  0  0  0  0
  7  9  1  6  0  0  0
  7 11  1  0  0  0  0
  7 28  1  6  0  0  0
  8 10  1  0  0  0  0
  8 29  1  1  0  0  0
  9 12  2  0  0  0  0
  9 13  1  0  0  0  0
 10 16  2  0  0  0  0
 10 17  1  0  0  0  0
 12 14  1  0  0  0  0
 13 18  2  0  0  0  0
 14 15  1  0  0  0  0
 14 19  2  0  0  0  0
 15 18  1  0  0  0  0
 15 23  2  0  0  0  0
 16 21  1  0  0  0  0
 17 22  2  0  0  0  0
 19 26  1  0  0  0  0
 21 24  2  0  0  0  0
 22 24  1  0  0  0  0
 23 27  1  0  0  0  0
 26 27  2  0  0  0  0
M  CHG  3   1  -1   5   1   6  -1
M  END
> <PUBCHEM_COMPOUND_ID_TYPE>
0

> <PUBCHEM_TOTAL_CHARGE>
-1

> <PUBCHEM_SUBSTANCE_ID>
310937081

> <PUBCHEM_SUBSTANCE_VERSION>
1

> <PUBCHEM_EXT_DATASOURCE_NAME>
4488

> <PUBCHEM_EXT_DATASOURCE_REGID>
SCHEMBL16114794

> <PUBCHEM_SUBSTANCE_COMMENT>
InChI=1S/C21H20N4O2/c1-25(21(26)27)14-19(20(23-24-22)16-8-3-2-4-9-16)18-12-11-15-7-5-6-10-17(15)13-18/h2-13,19-20H,14H2,1H3,(H,26,27)/p-1/t19-,20-/m1/s1
InChIKey=ROHCPWKIXAGPGK-WOJBJXKFSA-M

> <PUBCHEM_SUBSTANCE_SYNONYM>
SCHEMBL16114794

> <PUBCHEM_XREF_EXT_ID>
SCHEMBL16114794

> <PUBCHEM_EXT_DATASOURCE_URL>
https://www.surechembl.org/

> <PUBCHEM_EXT_SUBSTANCE_URL>
https://www.surechembl.org/chemical/SCHEMBL16114794

> <PUBCHEM_CID_ASSOCIATIONS>
117604919  1
117604916  2

> <PUBCHEM_COORDINATE_TYPE>
1
3

> <PUBCHEM_BONDANNOTATIONS>
8  3  6
7  28  6
7  9  6
8  29  5

$$$$
