310948731
  -OEChem-07211613022D

 28 31  0     1  0  0  0  0  0999 V2000
    2.4873   -2.2017    0.0000 S   0  0  0  0  0  0  0  0  0  0  0  0
   -2.5057   -1.7043    0.0000 O   0  0  0  0  0  0  0  0  0  0  0  0
    3.2243   -2.6070    0.0000 O   0  0  0  0  0  0  0  0  0  0  0  0
    2.2846   -2.9940    0.0000 O   0  0  0  0  0  0  0  0  0  0  0  0
   -0.9949    0.6356    0.0000 N   0  0  0  0  0  0  0  0  0  0  0  0
   -0.5159   -0.0276    0.0000 N   0  0  0  0  0  0  0  0  0  0  0  0
   -0.7369   -1.5016    0.0000 N   0  0  0  0  0  0  0  0  0  0  0  0
   -3.2243   -0.4514    0.0000 N   0  0  0  0  0  0  0  0  0  0  0  0
    1.1792    0.3593    0.0000 N   0  0  0  0  0  0  0  0  0  0  0  0
   -1.7872   -0.4329    0.0000 C   0  0  0  0  0  0  0  0  0  0  0  0
   -1.7872    0.3961    0.0000 C   0  0  0  0  0  0  0  0  0  0  0  0
   -0.9949   -0.7093    0.0000 C   0  0  0  0  0  0  0  0  0  0  0  0
   -0.7369    1.4463    0.0000 C   0  0  3  0  0  0  0  0  0  0  0  0
   -2.5057   -0.8383    0.0000 C   0  0  0  0  0  0  0  0  0  0  0  0
   -2.5057    0.8015    0.0000 C   0  0  0  0  0  0  0  0  0  0  0  0
    0.0553    1.6121    0.0000 C   0  0  3  0  0  0  0  0  0  0  0  0
    0.0737   -1.6674    0.0000 C   0  0  0  0  0  0  0  0  0  0  0  0
   -3.2058    0.3961    0.0000 C   0  0  0  0  0  0  0  0  0  0  0  0
   -1.2897    2.0544    0.0000 C   0  0  0  0  0  0  0  0  0  0  0  0
    0.3132    2.4044    0.0000 C   0  0  0  0  0  0  0  0  0  0  0  0
    0.3316   -2.4412    0.0000 C   0  0  0  0  0  0  0  0  0  0  0  0
    0.6448   -1.0594    0.0000 C   0  0  0  0  0  0  0  0  0  0  0  0
    0.6264    1.0041    0.0000 C   0  0  0  0  0  0  0  0  0  0  0  0
   -1.0317    2.8281    0.0000 C   0  0  0  0  0  0  0  0  0  0  0  0
   -0.2211    2.9940    0.0000 C   0  0  0  0  0  0  0  0  0  0  0  0
    1.6766   -1.9991    0.0000 C   0  0  0  0  0  0  0  0  0  0  0  0
    1.1423   -2.6070    0.0000 C   0  0  0  0  0  0  0  0  0  0  0  0
    1.4187   -1.2252    0.0000 C   0  0  0  0  0  0  0  0  0  0  0  0
  1  3  2  0  0  0  0
  1  4  2  0  0  0  0
  1 26  1  0  0  0  0
  2 14  2  0  0  0  0
  5  6  1  0  0  0  0
  5 11  1  0  0  0  0
 13  5  1  6  0  0  0
  6 12  2  0  0  0  0
  7 12  1  0  0  0  0
  7 17  1  0  0  0  0
  8 14  1  0  0  0  0
  8 18  1  0  0  0  0
  9 23  3  0  0  0  0
 10 11  2  0  0  0  0
 10 12  1  0  0  0  0
 10 14  1  0  0  0  0
 11 15  1  0  0  0  0
 13 16  1  0  0  0  0
 13 19  1  0  0  0  0
 15 18  2  0  0  0  0
 16 20  1  0  0  0  0
 16 23  1  1  0  0  0
 17 21  2  0  0  0  0
 17 22  1  0  0  0  0
 19 24  1  0  0  0  0
 20 25  1  0  0  0  0
 21 27  1  0  0  0  0
 22 28  2  0  0  0  0
 24 25  1  0  0  0  0
 26 27  2  0  0  0  0
 26 28  1  0  0  0  0
M  END
> <PUBCHEM_COMPOUND_ID_TYPE>
0

> <PUBCHEM_TOTAL_CHARGE>
0

> <PUBCHEM_SUBSTANCE_ID>
310948731

> <PUBCHEM_SUBSTANCE_VERSION>
1

> <PUBCHEM_EXT_DATASOURCE_NAME>
4488

> <PUBCHEM_EXT_DATASOURCE_REGID>
SCHEMBL16126915

> <PUBCHEM_SUBSTANCE_COMMENT>
InChI=1S/C19H19N5O3S/c20-11-12-3-1-2-4-15(12)24-16-9-10-21-19(25)17(16)18(23-24)22-13-5-7-14(8-6-13)28(26)27/h5-10,12,15,28H,1-4H2,(H,21,25)(H,22,23)/t12-,15+/m0/s1
InChIKey=MMHAHNXUNIHYKC-SWLSCSKDSA-N

> <PUBCHEM_SUBSTANCE_SYNONYM>
SCHEMBL16126915

> <PUBCHEM_XREF_EXT_ID>
SCHEMBL16126915

> <PUBCHEM_EXT_DATASOURCE_URL>
https://www.surechembl.org/

> <PUBCHEM_EXT_SUBSTANCE_URL>
https://www.surechembl.org/chemical/SCHEMBL16126915

> <PUBCHEM_CID_ASSOCIATIONS>
117614272  1
117614273  2

> <PUBCHEM_COORDINATE_TYPE>
1
3

> <PUBCHEM_BONDANNOTATIONS>
16  23  5
13  5  6

$$$$
