310931405
  -OEChem-07211613022D

 26 25  0     1  0  0  0  0  0999 V2000
    8.2305   -1.8436    0.0000 S   0  0  0  0  0  0  0  0  0  0  0  0
    9.4815   -2.5350    0.0000 F   0  0  0  0  0  0  0  0  0  0  0  0
    9.4815   -1.1193    0.0000 F   0  0  0  0  0  0  0  0  0  0  0  0
    9.8766   -1.8436    0.0000 F   0  0  0  0  0  0  0  0  0  0  0  0
    7.4404   -1.8436    0.0000 O   0  5  0  0  0  0  0  0  0  0  0  0
    8.2305   -0.9218    0.0000 O   0  0  0  0  0  0  0  0  0  0  0  0
    8.2305   -2.6338    0.0000 O   0  0  0  0  0  0  0  0  0  0  0  0
    0.8560   -0.6913    0.0000 O   0  0  0  0  0  0  0  0  0  0  0  0
    3.2922   -2.1399    0.0000 N   0  3  0  0  0  0  0  0  0  0  0  0
    2.0741   -1.4157    0.0000 N   0  0  0  0  0  0  0  0  0  0  0  0
    9.0535   -1.8436    0.0000 C   0  0  0  0  0  0  0  0  0  0  0  0
    2.5021   -2.1399    0.0000 C   0  0  3  0  0  0  0  0  0  0  0  0
    4.1153   -2.1399    0.0000 C   0  0  0  0  0  0  0  0  0  0  0  0
    4.5432   -1.4157    0.0000 C   0  0  0  0  0  0  0  0  0  0  0  0
    2.0741   -2.8642    0.0000 C   0  0  0  0  0  0  0  0  0  0  0  0
    3.7202   -2.8642    0.0000 C   0  0  0  0  0  0  0  0  0  0  0  0
    3.7202   -1.4157    0.0000 C   0  0  0  0  0  0  0  0  0  0  0  0
    1.2510   -1.4157    0.0000 C   0  0  0  0  0  0  0  0  0  0  0  0
    5.3663   -1.4157    0.0000 C   0  0  0  0  0  0  0  0  0  0  0  0
    4.1482   -0.6913    0.0000 C   0  0  0  0  0  0  0  0  0  0  0  0
    5.7943   -0.6913    0.0000 C   0  0  0  0  0  0  0  0  0  0  0  0
    4.5432    0.0000    0.0000 C   0  0  0  0  0  0  0  0  0  0  0  0
    5.3663    0.0000    0.0000 C   0  0  0  0  0  0  0  0  0  0  0  0
    0.8560   -2.1399    0.0000 C   0  0  0  0  0  0  0  0  0  0  0  0
    2.5021   -3.5556    0.0000 C   0  0  0  0  0  0  0  0  0  0  0  0
    0.0000   -2.1070    0.0000 C   0  0  0  0  0  0  0  0  0  0  0  0
  1  5  1  0  0  0  0
  1  6  2  0  0  0  0
  1  7  2  0  0  0  0
  1 11  1  0  0  0  0
  2 11  1  0  0  0  0
  3 11  1  0  0  0  0
  4 11  1  0  0  0  0
  8 18  2  0  0  0  0
  9 12  1  0  0  0  0
  9 13  1  0  0  0  0
  9 16  1  0  0  0  0
  9 17  1  0  0  0  0
 10 12  1  0  0  0  0
 10 18  1  0  0  0  0
 12 15  1  0  0  0  0
 13 14  1  0  0  0  0
 14 19  2  0  0  0  0
 14 20  1  0  0  0  0
 15 25  1  0  0  0  0
 18 24  1  0  0  0  0
 19 21  1  0  0  0  0
 20 22  2  0  0  0  0
 21 23  2  0  0  0  0
 22 23  1  0  0  0  0
 24 26  2  0  0  0  0
M  CHG  2   5  -1   9   1
M  END
> <PUBCHEM_COMPOUND_ID_TYPE>
0

> <PUBCHEM_TOTAL_CHARGE>
0

> <PUBCHEM_SUBSTANCE_ID>
310931405

> <PUBCHEM_SUBSTANCE_VERSION>
1

> <PUBCHEM_EXT_DATASOURCE_NAME>
4488

> <PUBCHEM_EXT_DATASOURCE_REGID>
SCHEMBL16108729

> <PUBCHEM_SUBSTANCE_COMMENT>
InChI=1S/C15H22N2O.CHF3O3S/c1-5-14(16-15(18)6-2)17(3,4)12-13-10-8-7-9-11-13;2-1(3,4)8(5,6)7/h6-11,14H,2,5,12H2,1,3-4H3;(H,5,6,7)
InChIKey=NNUYRKBEDHCJKQ-UHFFFAOYSA-N

> <PUBCHEM_SUBSTANCE_SYNONYM>
SCHEMBL16108729

> <PUBCHEM_XREF_EXT_ID>
SCHEMBL16108729

> <PUBCHEM_EXT_DATASOURCE_URL>
https://www.surechembl.org/

> <PUBCHEM_EXT_SUBSTANCE_URL>
https://www.surechembl.org/chemical/SCHEMBL16108729

> <PUBCHEM_CID_ASSOCIATIONS>
117600189  1
62406  2
87978165  2

> <PUBCHEM_COORDINATE_TYPE>
1
3

$$$$
