310938098
  -OEChem-07211613022D

  9  7  0     1  0  0  0  0  0999 V2000
    3.3808   -0.5230    0.0000 Cl  0  5  0  0  0  0  0  0  0  0  0  0
    2.8577    1.4289    0.0000 O   0  0  0  0  0  0  0  0  0  0  0  0
    2.5558   -0.5230    0.0000 N   0  3  0  0  0  0  0  0  0  0  0  0
    3.5722    0.1915    0.0000 N   0  0  0  0  0  0  0  0  0  0  0  0
    2.1433    0.1915    0.0000 C   0  0  3  0  0  0  0  0  0  0  0  0
    2.8577    0.6039    0.0000 C   0  0  0  0  0  0  0  0  0  0  0  0
    1.4289    0.6039    0.0000 C   0  0  0  0  0  0  0  0  0  0  0  0
    1.7308   -0.5230    0.0000 C   0  0  0  0  0  0  0  0  0  0  0  0
    0.7144    0.1915    0.0000 C   0  0  0  0  0  0  0  0  0  0  0  0
  2  6  2  0  0  0  0
  3  5  1  0  0  0  0
  4  6  1  0  0  0  0
  5  6  1  0  0  0  0
  5  7  1  0  0  0  0
  5  8  1  0  0  0  0
  7  9  1  0  0  0  0
M  CHG  2   1  -1   3   1
M  END
> <PUBCHEM_COMPOUND_ID_TYPE>
0

> <PUBCHEM_TOTAL_CHARGE>
0

> <PUBCHEM_SUBSTANCE_ID>
310938098

> <PUBCHEM_SUBSTANCE_VERSION>
1

> <PUBCHEM_EXT_DATASOURCE_NAME>
4488

> <PUBCHEM_EXT_DATASOURCE_REGID>
SCHEMBL16115944

> <PUBCHEM_SUBSTANCE_COMMENT>
InChI=1S/C5H12N2O.ClH/c1-3-5(2,7)4(6)8;/h3,7H2,1-2H3,(H2,6,8);1H
InChIKey=ZDJHPGWBCWUHDX-UHFFFAOYSA-N

> <PUBCHEM_SUBSTANCE_SYNONYM>
SCHEMBL16115944

> <PUBCHEM_XREF_EXT_ID>
SCHEMBL16115944

> <PUBCHEM_EXT_DATASOURCE_URL>
https://www.surechembl.org/

> <PUBCHEM_EXT_SUBSTANCE_URL>
https://www.surechembl.org/chemical/SCHEMBL16115944

> <PUBCHEM_CID_ASSOCIATIONS>
117605660  1
313  2
14367036  2

> <PUBCHEM_COORDINATE_TYPE>
1
3

$$$$
