310929229
  -OEChem-07211613022D

 70 74  0     0  0  0  0  0  0999 V2000
   48.5840    6.6000    0.0000 S   0  0  0  0  0  0  0  0  0  0  0  0
   42.8683    0.0000    0.0000 O   0  0  0  0  0  0  0  0  0  0  0  0
   47.8696    3.7125    0.0000 O   0  0  0  0  0  0  0  0  0  0  0  0
   45.0117    2.8875    0.0000 O   0  0  0  0  0  0  0  0  0  0  0  0
   37.1525    0.0000    0.0000 O   0  0  0  0  0  0  0  0  0  0  0  0
   38.5814    2.4750    0.0000 O   0  0  0  0  0  0  0  0  0  0  0  0
   48.5840    7.4250    0.0000 O   0  0  0  0  0  0  0  0  0  0  0  0
   49.2985    6.1875    0.0000 O   0  0  0  0  0  0  0  0  0  0  0  0
   35.0091    0.4125    0.0000 O   0  0  0  0  0  0  0  0  0  0  0  0
   32.8657    0.0000    0.0000 O   0  0  0  0  0  0  0  0  0  0  0  0
   30.7223    0.4125    0.0000 O   0  0  0  0  0  0  0  0  0  0  0  0
   28.5788    0.0000    0.0000 O   0  0  0  0  0  0  0  0  0  0  0  0
   26.4354    0.4125    0.0000 O   0  0  0  0  0  0  0  0  0  0  0  0
   24.2920    0.0000    0.0000 O   0  0  0  0  0  0  0  0  0  0  0  0
   22.1486    0.4125    0.0000 O   0  0  0  0  0  0  0  0  0  0  0  0
   45.7261    1.6500    0.0000 N   0  0  0  0  0  0  0  0  0  0  0  0
   46.4406    2.8875    0.0000 N   0  0  0  0  0  0  0  0  0  0  0  0
   47.8696    6.1875    0.0000 N   0  0  0  0  0  0  0  0  0  0  0  0
   40.0104    0.0000    0.0000 N   0  0  0  0  0  0  0  0  0  0  0  0
   40.7248    1.2375    0.0000 N   0  0  0  0  0  0  0  0  0  0  0  0
   45.0117    0.4125    0.0000 C   0  0  0  0  0  0  0  0  0  0  0  0
   44.2972    0.0000    0.0000 C   0  0  0  0  0  0  0  0  0  0  0  0
   45.0117    1.2375    0.0000 C   0  0  0  0  0  0  0  0  0  0  0  0
   43.5827    0.4125    0.0000 C   0  0  0  0  0  0  0  0  0  0  0  0
   46.4406    3.7125    0.0000 C   0  0  0  0  0  0  0  0  0  0  0  0
   47.1551    4.1250    0.0000 C   0  0  0  0  0  0  0  0  0  0  0  0
   45.7261    4.9500    0.0000 C   0  0  0  0  0  0  0  0  0  0  0  0
   47.1551    4.9500    0.0000 C   0  0  0  0  0  0  0  0  0  0  0  0
   45.7261    4.1250    0.0000 C   0  0  0  0  0  0  0  0  0  0  0  0
   45.0117    5.3625    0.0000 C   0  0  0  0  0  0  0  0  0  0  0  0
   46.4406    5.3625    0.0000 C   0  0  0  0  0  0  0  0  0  0  0  0
   44.2972    1.6500    0.0000 C   0  0  0  0  0  0  0  0  0  0  0  0
   43.5827    1.2375    0.0000 C   0  0  0  0  0  0  0  0  0  0  0  0
   45.7261    2.4750    0.0000 C   0  0  0  0  0  0  0  0  0  0  0  0
   45.7261    0.0000    0.0000 C   0  0  0  0  0  0  0  0  0  0  0  0
   44.2972   -0.8250    0.0000 C   0  0  0  0  0  0  0  0  0  0  0  0
   42.1538    0.4125    0.0000 C   0  0  0  0  0  0  0  0  0  0  0  0
   47.8696    5.3625    0.0000 C   0  0  0  0  0  0  0  0  0  0  0  0
   45.7261   -0.8250    0.0000 C   0  0  0  0  0  0  0  0  0  0  0  0
   45.0117   -1.2375    0.0000 C   0  0  0  0  0  0  0  0  0  0  0  0
   41.4393    0.0000    0.0000 C   0  0  0  0  0  0  0  0  0  0  0  0
   40.7248    0.4125    0.0000 C   0  0  0  0  0  0  0  0  0  0  0  0
   44.2972    5.7750    0.0000 C   0  0  0  0  0  0  0  0  0  0  0  0
   45.4242    6.0770    0.0000 C   0  0  0  0  0  0  0  0  0  0  0  0
   44.5992    4.6480    0.0000 C   0  0  0  0  0  0  0  0  0  0  0  0
   42.1538    1.2375    0.0000 C   0  0  0  0  0  0  0  0  0  0  0  0
   39.2959    0.4125    0.0000 C   0  0  0  0  0  0  0  0  0  0  0  0
   41.4393    1.6500    0.0000 C   0  0  0  0  0  0  0  0  0  0  0  0
   47.8696    2.8875    0.0000 C   0  0  0  0  0  0  0  0  0  0  0  0
   38.5814    0.0000    0.0000 C   0  0  0  0  0  0  0  0  0  0  0  0
   39.2959    1.2375    0.0000 C   0  0  0  0  0  0  0  0  0  0  0  0
   37.8670    0.4125    0.0000 C   0  0  0  0  0  0  0  0  0  0  0  0
   38.5814    1.6500    0.0000 C   0  0  0  0  0  0  0  0  0  0  0  0
   37.8670    1.2375    0.0000 C   0  0  0  0  0  0  0  0  0  0  0  0
   36.4380    0.4125    0.0000 C   0  0  0  0  0  0  0  0  0  0  0  0
   39.2959    2.8875    0.0000 C   0  0  0  0  0  0  0  0  0  0  0  0
   35.7235    0.0000    0.0000 C   0  0  0  0  0  0  0  0  0  0  0  0
   34.2946    0.0000    0.0000 C   0  0  0  0  0  0  0  0  0  0  0  0
   33.5801    0.4125    0.0000 C   0  0  0  0  0  0  0  0  0  0  0  0
   32.1512    0.4125    0.0000 C   0  0  0  0  0  0  0  0  0  0  0  0
   31.4367    0.0000    0.0000 C   0  0  0  0  0  0  0  0  0  0  0  0
   30.0078    0.0000    0.0000 C   0  0  0  0  0  0  0  0  0  0  0  0
   29.2933    0.4125    0.0000 C   0  0  0  0  0  0  0  0  0  0  0  0
   27.8644    0.4125    0.0000 C   0  0  0  0  0  0  0  0  0  0  0  0
   27.1499    0.0000    0.0000 C   0  0  0  0  0  0  0  0  0  0  0  0
   25.7210    0.0000    0.0000 C   0  0  0  0  0  0  0  0  0  0  0  0
   25.0065    0.4125    0.0000 C   0  0  0  0  0  0  0  0  0  0  0  0
   23.5775    0.4125    0.0000 C   0  0  0  0  0  0  0  0  0  0  0  0
   22.8631    0.0000    0.0000 C   0  0  0  0  0  0  0  0  0  0  0  0
   21.4341    0.0000    0.0000 C   0  0  0  0  0  0  0  0  0  0  0  0
  1  7  2  0  0  0  0
  1  8  2  0  0  0  0
  1 18  1  0  0  0  0
  2 24  1  0  0  0  0
  2 37  1  0  0  0  0
  3 26  1  0  0  0  0
  3 49  1  0  0  0  0
  4 34  2  0  0  0  0
  5 52  1  0  0  0  0
  5 55  1  0  0  0  0
  6 53  1  0  0  0  0
  6 56  1  0  0  0  0
  9 57  1  0  0  0  0
  9 58  1  0  0  0  0
 10 59  1  0  0  0  0
 10 60  1  0  0  0  0
 11 61  1  0  0  0  0
 11 62  1  0  0  0  0
 12 63  1  0  0  0  0
 12 64  1  0  0  0  0
 13 65  1  0  0  0  0
 13 66  1  0  0  0  0
 14 67  1  0  0  0  0
 14 68  1  0  0  0  0
 15 69  1  0  0  0  0
 15 70  1  0  0  0  0
 16 23  1  0  0  0  0
 16 34  1  0  0  0  0
 17 25  1  0  0  0  0
 17 34  1  0  0  0  0
 18 38  1  0  0  0  0
 19 42  1  0  0  0  0
 19 47  1  0  0  0  0
 20 42  2  0  0  0  0
 20 48  1  0  0  0  0
 21 22  1  0  0  0  0
 21 23  1  0  0  0  0
 21 35  2  0  0  0  0
 22 24  1  0  0  0  0
 22 36  2  0  0  0  0
 23 32  2  0  0  0  0
 24 33  2  0  0  0  0
 25 26  1  0  0  0  0
 25 29  2  0  0  0  0
 26 28  2  0  0  0  0
 27 29  1  0  0  0  0
 27 30  1  0  0  0  0
 27 31  2  0  0  0  0
 28 31  1  0  0  0  0
 28 38  1  0  0  0  0
 30 43  1  0  0  0  0
 30 44  1  0  0  0  0
 30 45  1  0  0  0  0
 32 33  1  0  0  0  0
 35 39  1  0  0  0  0
 36 40  1  0  0  0  0
 37 41  2  0  0  0  0
 37 46  1  0  0  0  0
 39 40  2  0  0  0  0
 41 42  1  0  0  0  0
 46 48  2  0  0  0  0
 47 50  2  0  0  0  0
 47 51  1  0  0  0  0
 50 52  1  0  0  0  0
 51 53  2  0  0  0  0
 52 54  2  0  0  0  0
 53 54  1  0  0  0  0
 55 57  1  0  0  0  0
 58 59  1  0  0  0  0
 60 61  1  0  0  0  0
 62 63  1  0  0  0  0
 64 65  1  0  0  0  0
 66 67  1  0  0  0  0
 68 69  1  0  0  0  0
M  END
> <PUBCHEM_COMPOUND_ID_TYPE>
0

> <PUBCHEM_TOTAL_CHARGE>
0

> <PUBCHEM_SUBSTANCE_ID>
310929229

> <PUBCHEM_SUBSTANCE_VERSION>
1

> <PUBCHEM_EXT_DATASOURCE_NAME>
4488

> <PUBCHEM_EXT_DATASOURCE_REGID>
SCHEMBL16106392

> <PUBCHEM_SUBSTANCE_COMMENT>
InChI=1S/C50H67N5O14S/c1-50(2,3)37-29-36(35-52-70(57)58)48(61-6)45(30-37)55-49(56)54-44-11-12-46(43-10-8-7-9-42(43)44)69-39-13-14-51-47(34-39)53-38-31-40(60-5)33-41(32-38)68-28-27-67-26-25-66-24-23-65-22-21-64-20-19-63-18-17-62-16-15-59-4/h7-14,29-34,70H,15-28,35H2,1-6H3,(H,51,53)(H,52,57,58)(H2,54,55,56)
InChIKey=GRBIFTMSGFNRQO-UHFFFAOYSA-N

> <PUBCHEM_SUBSTANCE_SYNONYM>
SCHEMBL16106392

> <PUBCHEM_XREF_EXT_ID>
SCHEMBL16106392

> <PUBCHEM_EXT_DATASOURCE_URL>
https://www.surechembl.org/

> <PUBCHEM_EXT_SUBSTANCE_URL>
https://www.surechembl.org/chemical/SCHEMBL16106392

> <PUBCHEM_CID_ASSOCIATIONS>
117598669  1
117598670  2

> <PUBCHEM_COORDINATE_TYPE>
1
3

$$$$
