310932105
  -OEChem-07211613022D

 20 18  0     1  0  0  0  0  0999 V2000
    6.5963   -1.4841    0.0000 S   0  0  0  0  0  0  0  0  0  0  0  0
    7.8606   -2.1987    0.0000 F   0  0  0  0  0  0  0  0  0  0  0  0
    7.8606   -0.7695    0.0000 F   0  0  0  0  0  0  0  0  0  0  0  0
    8.2454   -1.4841    0.0000 F   0  0  0  0  0  0  0  0  0  0  0  0
    5.7993   -1.4841    0.0000 O   0  5  0  0  0  0  0  0  0  0  0  0
    6.5963   -0.5772    0.0000 O   0  0  0  0  0  0  0  0  0  0  0  0
    6.5963   -2.2813    0.0000 O   0  0  0  0  0  0  0  0  0  0  0  0
    0.8520    0.0000    0.0000 O   0  0  0  0  0  0  0  0  0  0  0  0
    3.3256   -1.4292    0.0000 N   0  3  0  0  0  0  0  0  0  0  0  0
    2.0888   -0.7146    0.0000 N   0  0  0  0  0  0  0  0  0  0  0  0
    7.4208   -1.4841    0.0000 C   0  0  0  0  0  0  0  0  0  0  0  0
    2.5011   -1.4292    0.0000 C   0  0  3  0  0  0  0  0  0  0  0  0
    1.2643   -0.7146    0.0000 C   0  0  0  0  0  0  0  0  0  0  0  0
    2.0888   -2.1438    0.0000 C   0  0  0  0  0  0  0  0  0  0  0  0
    3.7379   -2.1438    0.0000 C   0  0  0  0  0  0  0  0  0  0  0  0
    3.7379   -0.7146    0.0000 C   0  0  0  0  0  0  0  0  0  0  0  0
    4.1502   -1.4292    0.0000 C   0  0  0  0  0  0  0  0  0  0  0  0
    0.8520   -1.4292    0.0000 C   0  0  0  0  0  0  0  0  0  0  0  0
    2.5011   -2.8584    0.0000 C   0  0  0  0  0  0  0  0  0  0  0  0
    0.0000   -1.4017    0.0000 C   0  0  0  0  0  0  0  0  0  0  0  0
  1  5  1  0  0  0  0
  1  6  2  0  0  0  0
  1  7  2  0  0  0  0
  1 11  1  0  0  0  0
  2 11  1  0  0  0  0
  3 11  1  0  0  0  0
  4 11  1  0  0  0  0
  8 13  2  0  0  0  0
  9 12  1  0  0  0  0
  9 15  1  0  0  0  0
  9 16  1  0  0  0  0
  9 17  1  0  0  0  0
 10 12  1  0  0  0  0
 10 13  1  0  0  0  0
 12 14  1  0  0  0  0
 13 18  1  0  0  0  0
 14 19  1  0  0  0  0
 18 20  2  0  0  0  0
M  CHG  2   5  -1   9   1
M  END
> <PUBCHEM_COMPOUND_ID_TYPE>
0

> <PUBCHEM_TOTAL_CHARGE>
0

> <PUBCHEM_SUBSTANCE_ID>
310932105

> <PUBCHEM_SUBSTANCE_VERSION>
1

> <PUBCHEM_EXT_DATASOURCE_NAME>
4488

> <PUBCHEM_EXT_DATASOURCE_REGID>
SCHEMBL16109453

> <PUBCHEM_SUBSTANCE_COMMENT>
InChI=1S/C9H18N2O.CHF3O3S/c1-6-8(11(3,4)5)10-9(12)7-2;2-1(3,4)8(5,6)7/h7-8H,2,6H2,1,3-5H3;(H,5,6,7)
InChIKey=KKPKALFGDFXVDX-UHFFFAOYSA-N

> <PUBCHEM_SUBSTANCE_SYNONYM>
SCHEMBL16109453

> <PUBCHEM_XREF_EXT_ID>
SCHEMBL16109453

> <PUBCHEM_EXT_DATASOURCE_URL>
https://www.surechembl.org/

> <PUBCHEM_EXT_SUBSTANCE_URL>
https://www.surechembl.org/chemical/SCHEMBL16109453

> <PUBCHEM_CID_ASSOCIATIONS>
117600724  1
62406  2
11160060  2

> <PUBCHEM_COORDINATE_TYPE>
1
3

$$$$
