310931410
  -OEChem-07211613022D

 26 25  0     1  0  0  0  0  0999 V2000
    5.0359    0.4125    0.0000 S   0  0  0  0  0  0  0  0  0  0  0  0
    5.0359   -1.2375    0.0000 F   0  0  0  0  0  0  0  0  0  0  0  0
    4.2109   -0.4125    0.0000 F   0  0  0  0  0  0  0  0  0  0  0  0
    5.8609   -0.4125    0.0000 F   0  0  0  0  0  0  0  0  0  0  0  0
    4.2109    0.4125    0.0000 O   0  5  0  0  0  0  0  0  0  0  0  0
    5.0359    1.2375    0.0000 O   0  0  0  0  0  0  0  0  0  0  0  0
    5.8609    0.4125    0.0000 O   0  0  0  0  0  0  0  0  0  0  0  0
   -1.1000   -1.5083    0.0000 O   0  0  0  0  0  0  0  0  0  0  0  0
   -1.1000   -0.0794    0.0000 N   0  0  0  0  0  0  0  0  0  0  0  0
    2.0895    0.3331    0.0000 N   0  3  0  0  0  0  0  0  0  0  0  0
    0.9625    0.6351    0.0000 C   0  0  0  0  0  0  0  0  0  0  0  0
    0.1375    0.6351    0.0000 C   0  0  0  0  0  0  0  0  0  0  0  0
    5.0359   -0.4125    0.0000 C   0  0  0  0  0  0  0  0  0  0  0  0
    1.3750   -0.0794    0.0000 C   0  0  0  0  0  0  0  0  0  0  0  0
   -0.2750   -0.0794    0.0000 C   0  0  3  0  0  0  0  0  0  0  0  0
    1.3750    1.3496    0.0000 C   0  0  0  0  0  0  0  0  0  0  0  0
   -0.2750    1.3496    0.0000 C   0  0  0  0  0  0  0  0  0  0  0  0
    0.9625    2.0640    0.0000 C   0  0  0  0  0  0  0  0  0  0  0  0
    0.1375    2.0640    0.0000 C   0  0  0  0  0  0  0  0  0  0  0  0
    0.1375   -0.7939    0.0000 C   0  0  0  0  0  0  0  0  0  0  0  0
    1.7875   -0.7939    0.0000 C   0  0  0  0  0  0  0  0  0  0  0  0
    0.6605   -0.4919    0.0000 C   0  0  0  0  0  0  0  0  0  0  0  0
   -1.5125   -0.7939    0.0000 C   0  0  0  0  0  0  0  0  0  0  0  0
   -0.2750   -1.5083    0.0000 C   0  0  0  0  0  0  0  0  0  0  0  0
   -2.3375   -0.7939    0.0000 C   0  0  0  0  0  0  0  0  0  0  0  0
   -2.7500   -1.5083    0.0000 C   0  0  0  0  0  0  0  0  0  0  0  0
  1  5  1  0  0  0  0
  1  6  2  0  0  0  0
  1  7  2  0  0  0  0
  1 13  1  0  0  0  0
  2 13  1  0  0  0  0
  3 13  1  0  0  0  0
  4 13  1  0  0  0  0
  8 23  2  0  0  0  0
  9 15  1  0  0  0  0
  9 23  1  0  0  0  0
 10 14  1  0  0  0  0
 11 12  2  0  0  0  0
 11 14  1  0  0  0  0
 11 16  1  0  0  0  0
 12 15  1  0  0  0  0
 12 17  1  0  0  0  0
 14 21  1  0  0  0  0
 14 22  1  0  0  0  0
 15 20  1  0  0  0  0
 16 18  2  0  0  0  0
 17 19  2  0  0  0  0
 18 19  1  0  0  0  0
 20 24  1  0  0  0  0
 23 25  1  0  0  0  0
 25 26  2  0  0  0  0
M  CHG  2   5  -1  10   1
M  END
> <PUBCHEM_COMPOUND_ID_TYPE>
0

> <PUBCHEM_TOTAL_CHARGE>
0

> <PUBCHEM_SUBSTANCE_ID>
310931410

> <PUBCHEM_SUBSTANCE_VERSION>
1

> <PUBCHEM_EXT_DATASOURCE_NAME>
4488

> <PUBCHEM_EXT_DATASOURCE_REGID>
SCHEMBL16108734

> <PUBCHEM_SUBSTANCE_COMMENT>
InChI=1S/C15H22N2O.CHF3O3S/c1-5-13(17-14(18)6-2)11-9-7-8-10-12(11)15(3,4)16;2-1(3,4)8(5,6)7/h6-10,13H,2,5,16H2,1,3-4H3,(H,17,18);(H,5,6,7)
InChIKey=MQHRIFYCJHJBPD-UHFFFAOYSA-N

> <PUBCHEM_SUBSTANCE_SYNONYM>
SCHEMBL16108734

> <PUBCHEM_XREF_EXT_ID>
SCHEMBL16108734

> <PUBCHEM_EXT_DATASOURCE_URL>
https://www.surechembl.org/

> <PUBCHEM_EXT_SUBSTANCE_URL>
https://www.surechembl.org/chemical/SCHEMBL16108734

> <PUBCHEM_CID_ASSOCIATIONS>
117600193  1
62406  2
88080876  2

> <PUBCHEM_COORDINATE_TYPE>
1
3

$$$$
