310933575
  -OEChem-07211613022D

 14 14  0     0  0  0  0  0  0999 V2000
   -0.0997    0.6294    0.0000 S   0  0  0  0  0  0  0  0  0  0  0  0
    1.1619   -2.4163    0.0000 O   0  5  0  0  0  0  0  0  0  0  0  0
    1.3113   -0.9952    0.0000 O   0  0  0  0  0  0  0  0  0  0  0  0
   -0.4790   -2.2438    0.0000 N   0  0  0  0  0  0  0  0  0  0  0  0
   -0.1435   -2.9975    0.0000 N   0  3  0  0  0  0  0  0  0  0  0  0
    0.1921   -3.7512    0.0000 N   0  5  0  0  0  0  0  0  0  0  0  0
    0.1553   -0.1553    0.0000 C   0  0  0  0  0  0  0  0  0  0  0  0
    0.0059   -1.5764    0.0000 C   0  0  0  0  0  0  0  0  0  0  0  0
   -0.3297   -0.8227    0.0000 C   0  0  0  0  0  0  0  0  0  0  0  0
    0.5678    1.1143    0.0000 C   0  0  0  0  0  0  0  0  0  0  0  0
    0.9803   -0.1553    0.0000 C   0  0  0  0  0  0  0  0  0  0  0  0
    0.8264   -1.6626    0.0000 C   0  0  0  0  0  0  0  0  0  0  0  0
    1.2352    0.6294    0.0000 C   0  0  0  0  0  0  0  0  0  0  0  0
    0.5678    1.9393    0.0000 C   0  0  0  0  0  0  0  0  0  0  0  0
  1  7  1  0  0  0  0
  1 10  1  0  0  0  0
  2 12  1  0  0  0  0
  3 12  2  0  0  0  0
  4  5  2  0  0  0  0
  4  8  1  0  0  0  0
  5  6  2  0  0  0  0
  7  9  1  0  0  0  0
  7 11  2  0  0  0  0
  8  9  2  0  0  0  0
  8 12  1  0  0  0  0
 10 13  2  0  0  0  0
 10 14  1  0  0  0  0
 11 13  1  0  0  0  0
M  CHG  3   2  -1   5   1   6  -1
M  END
> <PUBCHEM_COMPOUND_ID_TYPE>
0

> <PUBCHEM_TOTAL_CHARGE>
-1

> <PUBCHEM_SUBSTANCE_ID>
310933575

> <PUBCHEM_SUBSTANCE_VERSION>
1

> <PUBCHEM_EXT_DATASOURCE_NAME>
4488

> <PUBCHEM_EXT_DATASOURCE_REGID>
SCHEMBL16111002

> <PUBCHEM_SUBSTANCE_COMMENT>
InChI=1S/C8H7N3O2S/c1-5-2-3-6(14-5)4-7(8(12)13)10-11-9/h2-4H,1H3,(H,12,13)/p-1/b7-4+
InChIKey=QSSXFWAXOAKIKK-QPJJXVBHSA-M

> <PUBCHEM_SUBSTANCE_SYNONYM>
SCHEMBL16111002

> <PUBCHEM_XREF_EXT_ID>
SCHEMBL16111002

> <PUBCHEM_EXT_DATASOURCE_URL>
https://www.surechembl.org/

> <PUBCHEM_EXT_SUBSTANCE_URL>
https://www.surechembl.org/chemical/SCHEMBL16111002

> <PUBCHEM_CID_ASSOCIATIONS>
117601958  1
117601959  2

> <PUBCHEM_COORDINATE_TYPE>
1
3

$$$$
