310938528
  -OEChem-07211613022D

 16 16  0     0  0  0  0  0  0999 V2000
   -2.1434    1.2375    0.0000 Cl  0  0  0  0  0  0  0  0  0  0  0  0
    3.3256    2.0963    0.0000 O   0  5  0  0  0  0  0  0  0  0  0  0
    3.1762    0.6752    0.0000 O   0  0  0  0  0  0  0  0  0  0  0  0
    1.6077    2.2295    0.0000 N   0  0  0  0  0  0  0  0  0  0  0  0
   -1.4290    0.0000    0.0000 N   0  0  0  0  0  0  0  0  0  0  0  0
    0.7145    1.2375    0.0000 C   0  0  0  0  0  0  0  0  0  0  0  0
    0.0000    0.8250    0.0000 C   0  0  0  0  0  0  0  0  0  0  0  0
    2.0202    1.5151    0.0000 C   0  0  0  0  0  0  0  0  0  0  0  0
    1.4682    0.9020    0.0000 C   0  0  0  0  0  0  0  0  0  0  0  0
    0.8007    2.0580    0.0000 C   0  0  0  0  0  0  0  0  0  0  0  0
   -0.7145    1.2375    0.0000 C   0  0  0  0  0  0  0  0  0  0  0  0
    2.8407    1.4288    0.0000 C   0  0  0  0  0  0  0  0  0  0  0  0
    0.0000    0.0000    0.0000 C   0  0  0  0  0  0  0  0  0  0  0  0
   -1.4290    0.8250    0.0000 C   0  0  0  0  0  0  0  0  0  0  0  0
   -0.7145   -0.4125    0.0000 C   0  0  0  0  0  0  0  0  0  0  0  0
    4.1461    2.0100    0.0000 Li  0  3  0  0  0  0  0  0  0  0  0  0
  1 14  1  0  0  0  0
  2 12  1  0  0  0  0
  3 12  2  0  0  0  0
  4  8  1  0  0  0  0
  4 10  1  0  0  0  0
  5 14  2  0  0  0  0
  5 15  1  0  0  0  0
  6  7  1  0  0  0  0
  6  9  1  0  0  0  0
  6 10  2  0  0  0  0
  7 11  2  0  0  0  0
  7 13  1  0  0  0  0
  8  9  2  0  0  0  0
  8 12  1  0  0  0  0
 11 14  1  0  0  0  0
 13 15  2  0  0  0  0
M  CHG  2   2  -1  16   1
M  END
> <PUBCHEM_COMPOUND_ID_TYPE>
0

> <PUBCHEM_TOTAL_CHARGE>
0

> <PUBCHEM_SUBSTANCE_ID>
310938528

> <PUBCHEM_SUBSTANCE_VERSION>
1

> <PUBCHEM_EXT_DATASOURCE_NAME>
4488

> <PUBCHEM_EXT_DATASOURCE_REGID>
SCHEMBL16116436

> <PUBCHEM_SUBSTANCE_COMMENT>
InChI=1S/C10H7ClN2O2.Li/c11-9-4-6(1-2-12-9)7-3-8(10(14)15)13-5-7;/h1-5,13H,(H,14,15);/q;+1/p-1
InChIKey=NRDBIYZGOUVFJT-UHFFFAOYSA-M

> <PUBCHEM_SUBSTANCE_SYNONYM>
SCHEMBL16116436

> <PUBCHEM_XREF_EXT_ID>
SCHEMBL16116436

> <PUBCHEM_EXT_DATASOURCE_URL>
https://www.surechembl.org/

> <PUBCHEM_EXT_SUBSTANCE_URL>
https://www.surechembl.org/chemical/SCHEMBL16116436

> <PUBCHEM_CID_ASSOCIATIONS>
117605977  1
3028194  2
89220411  2

> <PUBCHEM_COORDINATE_TYPE>
1
3

$$$$
