310930546
  -OEChem-07211613022D

 19 18  0     0  0  0  0  0  0999 V2000
    4.0317   -1.1311    0.0000 S   0  0  0  0  0  0  0  0  0  0  0  0
    3.3202   -2.3716    0.0000 F   0  0  0  0  0  0  0  0  0  0  0  0
    4.0317   -2.7912    0.0000 F   0  0  0  0  0  0  0  0  0  0  0  0
    4.7431   -3.2107    0.0000 F   0  0  0  0  0  0  0  0  0  0  0  0
    5.4728   -1.9520    0.0000 F   0  0  0  0  0  0  0  0  0  0  0  0
    4.0317   -0.3284    0.0000 O   0  5  0  0  0  0  0  0  0  0  0  0
    4.9438   -1.1311    0.0000 O   0  0  0  0  0  0  0  0  0  0  0  0
    3.2290   -1.1311    0.0000 O   0  0  0  0  0  0  0  0  0  0  0  0
    1.0946   -1.4047    0.0000 N   0  0  0  0  0  0  0  0  0  0  0  0
    1.0946   -2.7547    0.0000 N   0  3  0  0  0  0  0  0  0  0  0  0
    4.0317   -1.9520    0.0000 C   0  0  0  0  0  0  0  0  0  0  0  0
    4.7431   -2.3716    0.0000 C   0  0  0  0  0  0  0  0  0  0  0  0
    1.5689   -2.0797    0.0000 C   0  0  0  0  0  0  0  0  0  0  0  0
    0.3101   -1.6783    0.0000 C   0  0  0  0  0  0  0  0  0  0  0  0
    0.3101   -2.4993    0.0000 C   0  0  0  0  0  0  0  0  0  0  0  0
    1.3499   -0.6202    0.0000 C   0  0  0  0  0  0  0  0  0  0  0  0
    1.3499   -3.5391    0.0000 C   0  0  0  0  0  0  0  0  0  0  0  0
    0.8027    0.0000    0.0000 C   0  0  0  0  0  0  0  0  0  0  0  0
    0.0000   -0.1642    0.0000 C   0  0  0  0  0  0  0  0  0  0  0  0
  1  6  1  0  0  0  0
  1  7  2  0  0  0  0
  1  8  2  0  0  0  0
  1 11  1  0  0  0  0
  2 11  1  0  0  0  0
  3 11  1  0  0  0  0
  4 12  1  0  0  0  0
  5 12  1  0  0  0  0
  9 13  1  0  0  0  0
  9 14  1  0  0  0  0
  9 16  1  0  0  0  0
 10 13  2  0  0  0  0
 10 15  1  0  0  0  0
 10 17  1  0  0  0  0
 11 12  1  0  0  0  0
 14 15  2  0  0  0  0
 16 18  1  0  0  0  0
 18 19  1  0  0  0  0
M  CHG  2   6  -1  10   1
M  END
> <PUBCHEM_COMPOUND_ID_TYPE>
0

> <PUBCHEM_TOTAL_CHARGE>
0

> <PUBCHEM_SUBSTANCE_ID>
310930546

> <PUBCHEM_SUBSTANCE_VERSION>
1

> <PUBCHEM_EXT_DATASOURCE_NAME>
4488

> <PUBCHEM_EXT_DATASOURCE_REGID>
SCHEMBL16107838

> <PUBCHEM_SUBSTANCE_COMMENT>
InChI=1S/C7H13N2.C2H2F4O3S/c1-3-4-9-6-5-8(2)7-9;3-1(4)2(5,6)10(7,8)9/h5-7H,3-4H2,1-2H3;1H,(H,7,8,9)/q+1;/p-1
InChIKey=YQKFANTXIPEYKT-UHFFFAOYSA-M

> <PUBCHEM_SUBSTANCE_SYNONYM>
SCHEMBL16107838

> <PUBCHEM_XREF_EXT_ID>
SCHEMBL16107838

> <PUBCHEM_EXT_DATASOURCE_URL>
https://www.surechembl.org/

> <PUBCHEM_EXT_SUBSTANCE_URL>
https://www.surechembl.org/chemical/SCHEMBL16107838

> <PUBCHEM_CID_ASSOCIATIONS>
117599642  1
5245884  2
10176391  2

> <PUBCHEM_COORDINATE_TYPE>
1
3

$$$$
