310947058
  -OEChem-07211613022D

 19 20  0     0  0  0  0  0  0999 V2000
    1.9789    1.9609    0.0000 S   0  0  0  0  0  0  0  0  0  0  0  0
    1.2560    2.3766    0.0000 O   0  0  0  0  0  0  0  0  0  0  0  0
    2.3947    2.6838    0.0000 O   0  0  0  0  0  0  0  0  0  0  0  0
    0.3163   -0.9127    0.0000 N   0  0  0  0  0  0  0  0  0  0  0  0
   -1.0030   -0.2440    0.0000 N   0  0  0  0  0  0  0  0  0  0  0  0
   -1.7982   -0.4970    0.0000 N   0  0  0  0  0  0  0  0  0  0  0  0
   -0.5151   -0.8946    0.0000 C   0  0  0  0  0  0  0  0  0  0  0  0
   -1.0030   -1.5814    0.0000 C   0  0  0  0  0  0  0  0  0  0  0  0
   -1.7982   -1.3103    0.0000 C   0  0  0  0  0  0  0  0  0  0  0  0
    0.7319   -0.1897    0.0000 C   0  0  0  0  0  0  0  0  0  0  0  0
    1.5452    1.2560    0.0000 C   0  0  0  0  0  0  0  0  0  0  0  0
    1.5633   -0.1717    0.0000 C   0  0  0  0  0  0  0  0  0  0  0  0
    0.3344    0.5331    0.0000 C   0  0  0  0  0  0  0  0  0  0  0  0
    1.9609    0.5512    0.0000 C   0  0  0  0  0  0  0  0  0  0  0  0
    0.7319    1.2380    0.0000 C   0  0  0  0  0  0  0  0  0  0  0  0
   -2.3947   -1.8705    0.0000 C   0  0  0  0  0  0  0  0  0  0  0  0
   -0.8404   -2.3404    0.0000 C   0  0  0  0  0  0  0  0  0  0  0  0
   -2.2319   -2.6838    0.0000 C   0  0  0  0  0  0  0  0  0  0  0  0
   -0.3344   -2.3585    0.0000 C   0  0  0  0  0  0  0  0  0  0  0  0
  1  2  2  0  0  0  0
  1  3  2  0  0  0  0
  1 11  1  0  0  0  0
  4  7  1  0  0  0  0
  4 10  1  0  0  0  0
  5  6  1  0  0  0  0
  5  7  2  0  0  0  0
  6  9  1  0  0  0  0
  7  8  1  0  0  0  0
  8  9  2  0  0  0  0
  8 17  1  0  0  0  0
  9 16  1  0  0  0  0
 10 12  2  0  0  0  0
 10 13  1  0  0  0  0
 11 14  2  0  0  0  0
 11 15  1  0  0  0  0
 12 14  1  0  0  0  0
 13 15  2  0  0  0  0
 16 18  2  0  0  0  0
 18 19  1  0  0  0  0
M  END
> <PUBCHEM_COMPOUND_ID_TYPE>
0

> <PUBCHEM_TOTAL_CHARGE>
0

> <PUBCHEM_SUBSTANCE_ID>
310947058

> <PUBCHEM_SUBSTANCE_VERSION>
1

> <PUBCHEM_EXT_DATASOURCE_NAME>
4488

> <PUBCHEM_EXT_DATASOURCE_REGID>
SCHEMBL16125212

> <PUBCHEM_SUBSTANCE_COMMENT>
InChI=1S/C13H15N3O2S/c1-3-4-12-9(2)13(16-15-12)14-10-5-7-11(8-6-10)19(17)18/h3-8,19H,1-2H3,(H2,14,15,16)/b4-3-
InChIKey=LZJHMFPXDFNXLO-ARJAWSKDSA-N

> <PUBCHEM_SUBSTANCE_SYNONYM>
SCHEMBL16125212

> <PUBCHEM_XREF_EXT_ID>
SCHEMBL16125212

> <PUBCHEM_EXT_DATASOURCE_URL>
https://www.surechembl.org/

> <PUBCHEM_EXT_SUBSTANCE_URL>
https://www.surechembl.org/chemical/SCHEMBL16125212

> <PUBCHEM_CID_ASSOCIATIONS>
117612909  1
117612910  2

> <PUBCHEM_COORDINATE_TYPE>
1
3

> <PUBCHEM_BONDANNOTATIONS>
18  19  3

$$$$
