310933197
  -OEChem-07211613022D

 34 36  0     0  0  0  0  0  0999 V2000
    3.5505   -2.4699    0.0000 S   0  0  0  0  0  0  0  0  0  0  0  0
   10.1883   -2.7015    0.0000 F   0  0  0  0  0  0  0  0  0  0  0  0
    9.4550   -3.9364    0.0000 F   0  0  0  0  0  0  0  0  0  0  0  0
    9.4550   -3.1260    0.0000 F   0  0  0  0  0  0  0  0  0  0  0  0
   11.5776   -3.5505    0.0000 O   0  5  0  0  0  0  0  0  0  0  0  0
   10.8830   -4.7854    0.0000 O   0  0  0  0  0  0  0  0  0  0  0  0
    6.2133   -4.5153    0.0000 N   0  0  0  0  0  0  0  0  0  0  0  0
    5.7502   -3.8592    0.0000 N   0  0  0  0  0  0  0  0  0  0  0  0
    3.5505   -4.9398    0.0000 N   0  3  0  0  0  0  0  0  0  0  0  0
    2.8558   -3.7048    0.0000 N   0  0  0  0  0  0  0  0  0  0  0  0
    6.4835   -7.4868    0.0000 N   0  0  0  0  0  0  0  0  0  0  0  0
    2.1611   -2.4699    0.0000 N   0  0  0  0  0  0  0  0  0  0  0  0
    4.9784   -4.9398    0.0000 C   0  0  0  0  0  0  0  0  0  0  0  0
    5.7502   -5.1714    0.0000 C   0  0  0  0  0  0  0  0  0  0  0  0
    4.9784   -4.0908    0.0000 C   0  0  0  0  0  0  0  0  0  0  0  0
    5.9818   -5.9432    0.0000 C   0  0  0  0  0  0  0  0  0  0  0  0
    4.2451   -3.7048    0.0000 C   0  0  0  0  0  0  0  0  0  0  0  0
    4.2451   -5.3257    0.0000 C   0  0  0  0  0  0  0  0  0  0  0  0
    3.5505   -4.0908    0.0000 C   0  0  0  0  0  0  0  0  0  0  0  0
    6.7922   -6.0975    0.0000 C   0  0  0  0  0  0  0  0  0  0  0  0
    5.4415   -6.5606    0.0000 C   0  0  0  0  0  0  0  0  0  0  0  0
    7.0237   -6.9080    0.0000 C   0  0  0  0  0  0  0  0  0  0  0  0
    5.6730   -7.3325    0.0000 C   0  0  0  0  0  0  0  0  0  0  0  0
    2.8558   -2.8944    0.0000 C   0  0  0  0  0  0  0  0  0  0  0  0
    7.8342   -7.1010    0.0000 C   0  0  0  0  0  0  0  0  0  0  0  0
   10.1883   -3.5505    0.0000 C   0  0  0  0  0  0  0  0  0  0  0  0
    2.1611   -1.6209    0.0000 C   0  0  0  0  0  0  0  0  0  0  0  0
    1.4279   -1.2349    0.0000 C   0  0  0  0  0  0  0  0  0  0  0  0
   10.8830   -3.9364    0.0000 C   0  0  0  0  0  0  0  0  0  0  0  0
    1.4665   -0.4245    0.0000 C   0  0  0  0  0  0  0  0  0  0  0  0
    0.7333   -1.6209    0.0000 C   0  0  0  0  0  0  0  0  0  0  0  0
    0.7333    0.0000    0.0000 C   0  0  0  0  0  0  0  0  0  0  0  0
    0.0000   -1.2349    0.0000 C   0  0  0  0  0  0  0  0  0  0  0  0
    0.0386   -0.3859    0.0000 C   0  0  0  0  0  0  0  0  0  0  0  0
  1 24  2  0  0  0  0
  2 26  1  0  0  0  0
  3 26  1  0  0  0  0
  4 26  1  0  0  0  0
  5 29  1  0  0  0  0
  6 29  2  0  0  0  0
  7  8  1  0  0  0  0
  7 14  2  0  0  0  0
  8 15  1  0  0  0  0
  9 18  1  0  0  0  0
  9 19  2  0  0  0  0
 10 19  1  0  0  0  0
 10 24  1  0  0  0  0
 11 22  1  0  0  0  0
 11 23  2  0  0  0  0
 12 24  1  0  0  0  0
 12 27  1  0  0  0  0
 13 14  1  0  0  0  0
 13 15  1  0  0  0  0
 13 18  2  0  0  0  0
 14 16  1  0  0  0  0
 15 17  2  0  0  0  0
 16 20  1  0  0  0  0
 16 21  2  0  0  0  0
 17 19  1  0  0  0  0
 20 22  2  0  0  0  0
 21 23  1  0  0  0  0
 22 25  1  0  0  0  0
 26 29  1  0  0  0  0
 27 28  1  0  0  0  0
 28 30  2  0  0  0  0
 28 31  1  0  0  0  0
 30 32  1  0  0  0  0
 31 33  2  0  0  0  0
 32 34  2  0  0  0  0
 33 34  1  0  0  0  0
M  CHG  2   5  -1   9   1
M  END
> <PUBCHEM_COMPOUND_ID_TYPE>
0

> <PUBCHEM_TOTAL_CHARGE>
0

> <PUBCHEM_SUBSTANCE_ID>
310933197

> <PUBCHEM_SUBSTANCE_VERSION>
1

> <PUBCHEM_EXT_DATASOURCE_NAME>
4488

> <PUBCHEM_EXT_DATASOURCE_REGID>
SCHEMBL16110606

> <PUBCHEM_SUBSTANCE_COMMENT>
InChI=1S/C20H18N6S.C2HF3O2/c1-13-9-15(7-8-21-13)19-16-12-22-18(10-17(16)25-26-19)24-20(27)23-11-14-5-3-2-4-6-14;3-2(4,5)1(6)7/h2-10,12H,11H2,1H3,(H,25,26)(H2,22,23,24,27);(H,6,7)
InChIKey=YRLBPWWQMSSJDA-UHFFFAOYSA-N

> <PUBCHEM_SUBSTANCE_SYNONYM>
SCHEMBL16110606

> <PUBCHEM_XREF_EXT_ID>
SCHEMBL16110606

> <PUBCHEM_EXT_DATASOURCE_URL>
https://www.surechembl.org/

> <PUBCHEM_EXT_SUBSTANCE_URL>
https://www.surechembl.org/chemical/SCHEMBL16110606

> <PUBCHEM_CID_ASSOCIATIONS>
117601638  1
6422  2
71555090  2

> <PUBCHEM_COORDINATE_TYPE>
1
3

$$$$
