310929215
  -OEChem-07211613022D

 62 67  0     0  0  0  0  0  0999 V2000
   -8.5737    6.6000    0.0000 S   0  0  0  0  0  0  0  0  0  0  0  0
    0.0000    4.9500    0.0000 O   0  0  0  0  0  0  0  0  0  0  0  0
   -5.7158    7.4250    0.0000 O   0  0  0  0  0  0  0  0  0  0  0  0
   -3.5724    5.3625    0.0000 O   0  0  0  0  0  0  0  0  0  0  0  0
    5.7158    4.9500    0.0000 O   0  0  0  0  0  0  0  0  0  0  0  0
    4.2868    7.4250    0.0000 O   0  0  0  0  0  0  0  0  0  0  0  0
   -9.2881    6.1875    0.0000 O   0  0  0  0  0  0  0  0  0  0  0  0
   -8.5737    7.4250    0.0000 O   0  0  0  0  0  0  0  0  0  0  0  0
    7.8592    5.3625    0.0000 O   0  0  0  0  0  0  0  0  0  0  0  0
   10.0026    4.9500    0.0000 O   0  0  0  0  0  0  0  0  0  0  0  0
   13.5749    6.1875    0.0000 O   0  0  0  0  0  0  0  0  0  0  0  0
   -2.8579    6.6000    0.0000 N   0  0  0  0  0  0  0  0  0  0  0  0
   -4.2868    6.6000    0.0000 N   0  0  0  0  0  0  0  0  0  0  0  0
    1.4289    4.9500    0.0000 N   0  0  0  0  0  0  0  0  0  0  0  0
    2.8579    4.9500    0.0000 N   0  0  0  0  0  0  0  0  0  0  0  0
   -7.8592    6.1875    0.0000 N   0  0  0  0  0  0  0  0  0  0  0  0
    2.1434    6.1875    0.0000 N   0  0  0  0  0  0  0  0  0  0  0  0
   12.1460    5.3625    0.0000 N   0  0  0  0  0  0  0  0  0  0  0  0
   -1.4289    6.6000    0.0000 C   0  0  0  0  0  0  0  0  0  0  0  0
   -0.7145    6.1875    0.0000 C   0  0  0  0  0  0  0  0  0  0  0  0
   -2.1434    6.1875    0.0000 C   0  0  0  0  0  0  0  0  0  0  0  0
   -0.7145    5.3625    0.0000 C   0  0  0  0  0  0  0  0  0  0  0  0
   -5.0013    6.1875    0.0000 C   0  0  0  0  0  0  0  0  0  0  0  0
   -5.7158    6.6000    0.0000 C   0  0  0  0  0  0  0  0  0  0  0  0
   -5.7158    4.9500    0.0000 C   0  0  0  0  0  0  0  0  0  0  0  0
   -6.4302    6.1875    0.0000 C   0  0  0  0  0  0  0  0  0  0  0  0
   -5.0013    5.3625    0.0000 C   0  0  0  0  0  0  0  0  0  0  0  0
   -5.7158    4.1250    0.0000 C   0  0  0  0  0  0  0  0  0  0  0  0
   -6.4302    5.3625    0.0000 C   0  0  0  0  0  0  0  0  0  0  0  0
   -2.1434    5.3625    0.0000 C   0  0  0  0  0  0  0  0  0  0  0  0
   -1.4289    4.9500    0.0000 C   0  0  0  0  0  0  0  0  0  0  0  0
   -3.5724    6.1875    0.0000 C   0  0  0  0  0  0  0  0  0  0  0  0
   -1.4289    7.4250    0.0000 C   0  0  0  0  0  0  0  0  0  0  0  0
    0.0000    6.6000    0.0000 C   0  0  0  0  0  0  0  0  0  0  0  0
    0.7145    5.3625    0.0000 C   0  0  0  0  0  0  0  0  0  0  0  0
   -7.1447    6.6000    0.0000 C   0  0  0  0  0  0  0  0  0  0  0  0
   -0.7145    7.8375    0.0000 C   0  0  0  0  0  0  0  0  0  0  0  0
    0.0000    7.4250    0.0000 C   0  0  0  0  0  0  0  0  0  0  0  0
    2.1434    5.3625    0.0000 C   0  0  0  0  0  0  0  0  0  0  0  0
    0.7145    6.1875    0.0000 C   0  0  0  0  0  0  0  0  0  0  0  0
   -5.7158    3.3000    0.0000 C   0  0  0  0  0  0  0  0  0  0  0  0
   -6.5408    4.1250    0.0000 C   0  0  0  0  0  0  0  0  0  0  0  0
   -4.8908    4.1250    0.0000 C   0  0  0  0  0  0  0  0  0  0  0  0
    3.5724    5.3625    0.0000 C   0  0  0  0  0  0  0  0  0  0  0  0
    1.4289    6.6000    0.0000 C   0  0  0  0  0  0  0  0  0  0  0  0
   -5.0013    7.8375    0.0000 C   0  0  0  0  0  0  0  0  0  0  0  0
    4.2868    4.9500    0.0000 C   0  0  0  0  0  0  0  0  0  0  0  0
    3.5724    6.1875    0.0000 C   0  0  0  0  0  0  0  0  0  0  0  0
    5.0013    5.3625    0.0000 C   0  0  0  0  0  0  0  0  0  0  0  0
    4.2868    6.6000    0.0000 C   0  0  0  0  0  0  0  0  0  0  0  0
    5.0013    6.1875    0.0000 C   0  0  0  0  0  0  0  0  0  0  0  0
    6.4302    5.3625    0.0000 C   0  0  0  0  0  0  0  0  0  0  0  0
    3.5724    7.8375    0.0000 C   0  0  0  0  0  0  0  0  0  0  0  0
    7.1447    4.9500    0.0000 C   0  0  0  0  0  0  0  0  0  0  0  0
    8.5737    4.9500    0.0000 C   0  0  0  0  0  0  0  0  0  0  0  0
    9.2881    5.3625    0.0000 C   0  0  0  0  0  0  0  0  0  0  0  0
   11.4315    4.9500    0.0000 C   0  0  0  0  0  0  0  0  0  0  0  0
   12.1460    6.1875    0.0000 C   0  0  0  0  0  0  0  0  0  0  0  0
   12.8605    4.9500    0.0000 C   0  0  0  0  0  0  0  0  0  0  0  0
   10.7171    5.3625    0.0000 C   0  0  0  0  0  0  0  0  0  0  0  0
   12.8605    6.6000    0.0000 C   0  0  0  0  0  0  0  0  0  0  0  0
   13.5749    5.3625    0.0000 C   0  0  0  0  0  0  0  0  0  0  0  0
  1  7  2  0  0  0  0
  1  8  2  0  0  0  0
  1 16  1  0  0  0  0
  2 22  1  0  0  0  0
  2 35  1  0  0  0  0
  3 24  1  0  0  0  0
  3 46  1  0  0  0  0
  4 32  2  0  0  0  0
  5 49  1  0  0  0  0
  5 52  1  0  0  0  0
  6 50  1  0  0  0  0
  6 53  1  0  0  0  0
  9 54  1  0  0  0  0
  9 55  1  0  0  0  0
 10 56  1  0  0  0  0
 10 60  1  0  0  0  0
 11 61  1  0  0  0  0
 11 62  1  0  0  0  0
 12 21  1  0  0  0  0
 12 32  1  0  0  0  0
 13 23  1  0  0  0  0
 13 32  1  0  0  0  0
 14 35  1  0  0  0  0
 14 39  2  0  0  0  0
 15 39  1  0  0  0  0
 15 44  1  0  0  0  0
 16 36  1  0  0  0  0
 17 39  1  0  0  0  0
 17 45  2  0  0  0  0
 18 57  1  0  0  0  0
 18 58  1  0  0  0  0
 18 59  1  0  0  0  0
 19 20  1  0  0  0  0
 19 21  1  0  0  0  0
 19 33  2  0  0  0  0
 20 22  1  0  0  0  0
 20 34  2  0  0  0  0
 21 30  2  0  0  0  0
 22 31  2  0  0  0  0
 23 24  1  0  0  0  0
 23 27  2  0  0  0  0
 24 26  2  0  0  0  0
 25 27  1  0  0  0  0
 25 28  1  0  0  0  0
 25 29  2  0  0  0  0
 26 29  1  0  0  0  0
 26 36  1  0  0  0  0
 28 41  1  0  0  0  0
 28 42  1  0  0  0  0
 28 43  1  0  0  0  0
 30 31  1  0  0  0  0
 33 37  1  0  0  0  0
 34 38  1  0  0  0  0
 35 40  2  0  0  0  0
 37 38  2  0  0  0  0
 40 45  1  0  0  0  0
 44 47  1  0  0  0  0
 44 48  2  0  0  0  0
 47 49  2  0  0  0  0
 48 50  1  0  0  0  0
 49 51  1  0  0  0  0
 50 51  2  0  0  0  0
 52 54  1  0  0  0  0
 55 56  1  0  0  0  0
 57 60  1  0  0  0  0
 58 61  1  0  0  0  0
 59 62  1  0  0  0  0
M  END
> <PUBCHEM_COMPOUND_ID_TYPE>
0

> <PUBCHEM_TOTAL_CHARGE>
0

> <PUBCHEM_SUBSTANCE_ID>
310929215

> <PUBCHEM_SUBSTANCE_VERSION>
1

> <PUBCHEM_EXT_DATASOURCE_NAME>
4488

> <PUBCHEM_EXT_DATASOURCE_REGID>
SCHEMBL16106378

> <PUBCHEM_SUBSTANCE_COMMENT>
InChI=1S/C44H55N7O10S/c1-44(2,3)31-24-30(29-46-62(53)54)41(56-5)38(25-31)49-43(52)48-37-10-11-39(36-9-7-6-8-35(36)37)61-40-12-13-45-42(50-40)47-32-26-33(55-4)28-34(27-32)60-23-22-59-21-20-58-19-16-51-14-17-57-18-15-51/h6-13,24-28,62H,14-23,29H2,1-5H3,(H,45,47,50)(H,46,53,54)(H2,48,49,52)
InChIKey=QWHSFOTWQFVZRQ-UHFFFAOYSA-N

> <PUBCHEM_SUBSTANCE_SYNONYM>
SCHEMBL16106378

> <PUBCHEM_XREF_EXT_ID>
SCHEMBL16106378

> <PUBCHEM_EXT_DATASOURCE_URL>
https://www.surechembl.org/

> <PUBCHEM_EXT_SUBSTANCE_URL>
https://www.surechembl.org/chemical/SCHEMBL16106378

> <PUBCHEM_CID_ASSOCIATIONS>
117598659  1
117598660  2

> <PUBCHEM_COORDINATE_TYPE>
1
3

$$$$
