310934733
  -OEChem-07211613022D

 18 17  0     0  0  0  0  0  0999 V2000
    1.0927    3.0088    0.0000 Cl  0  0  0  0  0  0  0  0  0  0  0  0
   -1.0507    0.9463    0.0000 O   0  0  0  0  0  0  0  0  0  0  0  0
   -0.3362   -1.9412    0.0000 O   0  0  0  0  0  0  0  0  0  0  0  0
   -1.7652   -0.2912    0.0000 O   0  5  0  0  0  0  0  0  0  0  0  0
   -1.7652   -1.9412    0.0000 O   0  0  0  0  0  0  0  0  0  0  0  0
    1.8072    0.9463    0.0000 N   0  0  0  0  0  0  0  0  0  0  0  0
    0.3782    0.9463    0.0000 C   0  0  0  0  0  0  0  0  0  0  0  0
   -0.3362    0.5338    0.0000 C   0  0  0  0  0  0  0  0  0  0  0  0
   -1.0507   -0.7037    0.0000 C   0  0  0  0  0  0  0  0  0  0  0  0
   -0.3362   -0.2912    0.0000 C   0  0  0  0  0  0  0  0  0  0  0  0
    0.3782    1.7713    0.0000 C   0  0  0  0  0  0  0  0  0  0  0  0
    1.0927    2.1838    0.0000 C   0  0  0  0  0  0  0  0  0  0  0  0
    1.0927    0.5338    0.0000 C   0  0  0  0  0  0  0  0  0  0  0  0
   -1.0507   -1.5287    0.0000 C   0  0  0  0  0  0  0  0  0  0  0  0
    1.8072    1.7713    0.0000 C   0  0  0  0  0  0  0  0  0  0  0  0
   -0.3362   -2.7662    0.0000 C   0  0  0  0  0  0  0  0  0  0  0  0
    0.3782   -3.1787    0.0000 C   0  0  0  0  0  0  0  0  0  0  0  0
    4.0465    0.0000    0.0000 Li  0  3  0  0  0  0  0  0  0  0  0  0
  1 12  1  0  0  0  0
  2  8  2  0  0  0  0
  3 14  1  0  0  0  0
  3 16  1  0  0  0  0
  4  9  1  0  0  0  0
  5 14  2  0  0  0  0
  6 13  2  0  0  0  0
  6 15  1  0  0  0  0
  7  8  1  0  0  0  0
  7 11  2  0  0  0  0
  7 13  1  0  0  0  0
  8 10  1  0  0  0  0
  9 10  2  0  0  0  0
  9 14  1  0  0  0  0
 11 12  1  0  0  0  0
 12 15  2  0  0  0  0
 16 17  1  0  0  0  0
M  CHG  2   4  -1  18   1
M  END
> <PUBCHEM_COMPOUND_ID_TYPE>
0

> <PUBCHEM_TOTAL_CHARGE>
0

> <PUBCHEM_SUBSTANCE_ID>
310934733

> <PUBCHEM_SUBSTANCE_VERSION>
1

> <PUBCHEM_EXT_DATASOURCE_NAME>
4488

> <PUBCHEM_EXT_DATASOURCE_REGID>
SCHEMBL16112234

> <PUBCHEM_SUBSTANCE_COMMENT>
InChI=1S/C11H10ClNO4.Li/c1-2-17-11(16)10(15)4-9(14)7-3-8(12)6-13-5-7;/h3-6,15H,2H2,1H3;/q;+1/p-1
InChIKey=PEDVNJAKWBPIEP-UHFFFAOYSA-M

> <PUBCHEM_SUBSTANCE_SYNONYM>
SCHEMBL16112234

> <PUBCHEM_XREF_EXT_ID>
SCHEMBL16112234

> <PUBCHEM_EXT_DATASOURCE_URL>
https://www.surechembl.org/

> <PUBCHEM_EXT_SUBSTANCE_URL>
https://www.surechembl.org/chemical/SCHEMBL16112234

> <PUBCHEM_CID_ASSOCIATIONS>
117602886  1
3028194  2
117602887  2

> <PUBCHEM_COORDINATE_TYPE>
1
3

> <PUBCHEM_BONDANNOTATIONS>
10  8  3

$$$$
