310933576
  -OEChem-07211613022D

 14 14  0     0  0  0  0  0  0999 V2000
    1.2352    0.6294    0.0000 S   0  0  0  0  0  0  0  0  0  0  0  0
   -0.0264   -2.4163    0.0000 O   0  5  0  0  0  0  0  0  0  0  0  0
   -0.1758   -0.9952    0.0000 O   0  0  0  0  0  0  0  0  0  0  0  0
    1.6145   -2.2438    0.0000 N   0  0  0  0  0  0  0  0  0  0  0  0
    1.2790   -2.9975    0.0000 N   0  3  0  0  0  0  0  0  0  0  0  0
    0.9434   -3.7512    0.0000 N   0  0  0  0  0  0  0  0  0  0  0  0
    0.9803   -0.1553    0.0000 C   0  0  0  0  0  0  0  0  0  0  0  0
    1.1296   -1.5764    0.0000 C   0  0  0  0  0  0  0  0  0  0  0  0
    1.4652   -0.8227    0.0000 C   0  0  0  0  0  0  0  0  0  0  0  0
    0.5678    1.1143    0.0000 C   0  0  0  0  0  0  0  0  0  0  0  0
    0.1553   -0.1553    0.0000 C   0  0  0  0  0  0  0  0  0  0  0  0
    0.3091   -1.6626    0.0000 C   0  0  0  0  0  0  0  0  0  0  0  0
   -0.0997    0.6294    0.0000 C   0  0  0  0  0  0  0  0  0  0  0  0
    0.5678    1.9393    0.0000 C   0  0  0  0  0  0  0  0  0  0  0  0
  1  7  1  0  0  0  0
  1 10  1  0  0  0  0
  2 12  1  0  0  0  0
  3 12  2  0  0  0  0
  4  5  2  0  0  0  0
  4  8  1  0  0  0  0
  5  6  2  0  0  0  0
  7  9  1  0  0  0  0
  7 11  2  0  0  0  0
  8  9  2  0  0  0  0
  8 12  1  0  0  0  0
 10 13  2  0  0  0  0
 10 14  1  0  0  0  0
 11 13  1  0  0  0  0
M  CHG  2   2  -1   5   1
M  END
> <PUBCHEM_COMPOUND_ID_TYPE>
0

> <PUBCHEM_TOTAL_CHARGE>
0

> <PUBCHEM_SUBSTANCE_ID>
310933576

> <PUBCHEM_SUBSTANCE_VERSION>
1

> <PUBCHEM_EXT_DATASOURCE_NAME>
4488

> <PUBCHEM_EXT_DATASOURCE_REGID>
SCHEMBL16111003

> <PUBCHEM_SUBSTANCE_COMMENT>
InChI=1S/C8H7N3O2S/c1-5-2-3-6(14-5)4-7(8(12)13)10-11-9/h2-4,9H,1H3
InChIKey=UTACZRJGEROTTA-UHFFFAOYSA-N

> <PUBCHEM_SUBSTANCE_SYNONYM>
SCHEMBL16111003

> <PUBCHEM_XREF_EXT_ID>
SCHEMBL16111003

> <PUBCHEM_EXT_DATASOURCE_URL>
https://www.surechembl.org/

> <PUBCHEM_EXT_SUBSTANCE_URL>
https://www.surechembl.org/chemical/SCHEMBL16111003

> <PUBCHEM_CID_ASSOCIATIONS>
117601960  1
117601961  2

> <PUBCHEM_COORDINATE_TYPE>
1
3

> <PUBCHEM_BONDANNOTATIONS>
9  7  3

$$$$
