310930052
  -OEChem-07211613022D

 23 23  0     1  0  0  0  0  0999 V2000
    2.8286    3.7782    0.0000 S   0  0  0  0  0  0  0  0  0  0  0  0
    4.3045   -3.7192    0.0000 S   0  0  0  0  0  0  0  0  0  0  0  0
    2.8286    2.9532    0.0000 O   0  0  0  0  0  0  0  0  0  0  0  0
    2.8286    4.6032    0.0000 O   0  5  0  0  0  0  0  0  0  0  0  0
    2.0036    3.7782    0.0000 O   0  0  0  0  0  0  0  0  0  0  0  0
    3.6536    3.7782    0.0000 O   0  0  0  0  0  0  0  0  0  0  0  0
    4.2575    1.3032    0.0000 N   0  0  3  0  0  0  0  0  0  0  0  0
    4.2575   -1.9968    0.0000 N   0  0  0  0  0  0  0  0  0  0  0  0
    4.9720   -2.4093    0.0000 N   0  0  0  0  0  0  0  0  0  0  0  0
    5.6394   -3.7192    0.0000 N   0  0  0  0  0  0  0  0  0  0  0  0
    4.5595   -4.5038    0.0000 N   0  0  0  0  0  0  0  0  0  0  0  0
    4.2575    0.4782    0.0000 C   0  0  0  0  0  0  0  0  0  0  0  0
    4.2575   -1.1718    0.0000 C   0  0  0  0  0  0  0  0  0  0  0  0
    4.9720    0.0657    0.0000 C   0  0  0  0  0  0  0  0  0  0  0  0
    3.5430    0.0657    0.0000 C   0  0  0  0  0  0  0  0  0  0  0  0
    4.9720   -3.2343    0.0000 C   0  0  0  0  0  0  0  0  0  0  0  0
    4.9720   -0.7593    0.0000 C   0  0  0  0  0  0  0  0  0  0  0  0
    3.5430   -0.7593    0.0000 C   0  0  0  0  0  0  0  0  0  0  0  0
    3.5430    1.7157    0.0000 C   0  0  0  0  0  0  0  0  0  0  0  0
    3.5430    2.5407    0.0000 C   0  0  0  0  0  0  0  0  0  0  0  0
    5.3845   -4.5038    0.0000 C   0  0  0  0  0  0  0  0  0  0  0  0
    4.9720    1.7157    0.0000 C   0  0  0  0  0  0  0  0  0  0  0  0
    0.0000    0.0000    0.0000 H   0  3  0  0  0  0  0  0  0  0  0  0
  1  3  1  0  0  0  0
  1  4  1  0  0  0  0
  1  5  2  0  0  0  0
  1  6  2  0  0  0  0
  2 11  1  0  0  0  0
  2 16  1  0  0  0  0
  3 20  1  0  0  0  0
  7 12  1  0  0  0  0
  7 19  1  0  0  0  0
  7 22  1  0  0  0  0
  8  9  2  0  0  0  0
  8 13  1  0  0  0  0
  9 16  1  0  0  0  0
 10 16  2  0  0  0  0
 10 21  1  0  0  0  0
 11 21  2  0  0  0  0
 12 14  2  0  0  0  0
 12 15  1  0  0  0  0
 13 17  2  0  0  0  0
 13 18  1  0  0  0  0
 14 17  1  0  0  0  0
 15 18  2  0  0  0  0
 19 20  1  0  0  0  0
M  CHG  2   4  -1  23   1
M  END
> <PUBCHEM_COMPOUND_ID_TYPE>
0

> <PUBCHEM_TOTAL_CHARGE>
0

> <PUBCHEM_SUBSTANCE_ID>
310930052

> <PUBCHEM_SUBSTANCE_VERSION>
1

> <PUBCHEM_EXT_DATASOURCE_NAME>
4488

> <PUBCHEM_EXT_DATASOURCE_REGID>
SCHEMBL16107292

> <PUBCHEM_SUBSTANCE_COMMENT>
InChI=1S/C11H13N5O4S2/c1-16(6-7-20-22(17,18)19)10-4-2-9(3-5-10)14-15-11-12-8-13-21-11/h2-5,8H,6-7H2,1H3,(H,17,18,19)/b15-14+
InChIKey=XBBCZDFJFBLMJG-CCEZHUSRSA-N

> <PUBCHEM_SUBSTANCE_SYNONYM>
SCHEMBL16107292

> <PUBCHEM_XREF_EXT_ID>
SCHEMBL16107292

> <PUBCHEM_EXT_DATASOURCE_URL>
https://www.surechembl.org/

> <PUBCHEM_EXT_SUBSTANCE_URL>
https://www.surechembl.org/chemical/SCHEMBL16107292

> <PUBCHEM_CID_ASSOCIATIONS>
117599296  1
783  2
89559114  2

> <PUBCHEM_COORDINATE_TYPE>
1
3

> <PUBCHEM_BONDANNOTATIONS>
8  13  3

$$$$
