310930496
  -OEChem-07211613022D

 21 20  0     0  0  0  0  0  0999 V2000
    3.7015   -2.1270    0.0000 S   0  0  0  0  0  0  0  0  0  0  0  0
    2.9833   -3.3700    0.0000 F   0  0  0  0  0  0  0  0  0  0  0  0
    3.7015   -3.7844    0.0000 F   0  0  0  0  0  0  0  0  0  0  0  0
    4.4197   -4.1987    0.0000 F   0  0  0  0  0  0  0  0  0  0  0  0
    5.1379   -2.9557    0.0000 F   0  0  0  0  0  0  0  0  0  0  0  0
    3.7015   -1.3259    0.0000 O   0  5  0  0  0  0  0  0  0  0  0  0
    4.6131   -2.1270    0.0000 O   0  0  0  0  0  0  0  0  0  0  0  0
    2.9005   -2.1270    0.0000 O   0  0  0  0  0  0  0  0  0  0  0  0
    0.7735   -2.7347    0.0000 N   0  3  0  0  0  0  0  0  0  0  0  0
    0.7735   -1.3811    0.0000 N   0  0  0  0  0  0  0  0  0  0  0  0
    3.7015   -2.9557    0.0000 C   0  0  0  0  0  0  0  0  0  0  0  0
    4.4197   -3.3700    0.0000 C   0  0  0  0  0  0  0  0  0  0  0  0
    1.2431   -2.0718    0.0000 C   0  0  0  0  0  0  0  0  0  0  0  0
    0.0000   -2.4861    0.0000 C   0  0  0  0  0  0  0  0  0  0  0  0
    0.0000   -1.6574    0.0000 C   0  0  0  0  0  0  0  0  0  0  0  0
    1.0221   -3.5081    0.0000 C   0  0  0  0  0  0  0  0  0  0  0  0
    1.0221   -0.6077    0.0000 C   0  0  0  0  0  0  0  0  0  0  0  0
    0.4696   -4.1435    0.0000 C   0  0  0  0  0  0  0  0  0  0  0  0
    0.4696    0.0000    0.0000 C   0  0  0  0  0  0  0  0  0  0  0  0
    0.7458   -4.9169    0.0000 C   0  0  0  0  0  0  0  0  0  0  0  0
    0.1934   -5.5247    0.0000 C   0  0  0  0  0  0  0  0  0  0  0  0
  1  6  1  0  0  0  0
  1  7  2  0  0  0  0
  1  8  2  0  0  0  0
  1 11  1  0  0  0  0
  2 11  1  0  0  0  0
  3 11  1  0  0  0  0
  4 12  1  0  0  0  0
  5 12  1  0  0  0  0
  9 13  2  0  0  0  0
  9 14  1  0  0  0  0
  9 16  1  0  0  0  0
 10 13  1  0  0  0  0
 10 15  1  0  0  0  0
 10 17  1  0  0  0  0
 11 12  1  0  0  0  0
 14 15  2  0  0  0  0
 16 18  1  0  0  0  0
 17 19  1  0  0  0  0
 18 20  1  0  0  0  0
 20 21  1  0  0  0  0
M  CHG  2   6  -1   9   1
M  END
> <PUBCHEM_COMPOUND_ID_TYPE>
0

> <PUBCHEM_TOTAL_CHARGE>
0

> <PUBCHEM_SUBSTANCE_ID>
310930496

> <PUBCHEM_SUBSTANCE_VERSION>
1

> <PUBCHEM_EXT_DATASOURCE_NAME>
4488

> <PUBCHEM_EXT_DATASOURCE_REGID>
SCHEMBL16107787

> <PUBCHEM_SUBSTANCE_COMMENT>
InChI=1S/C9H17N2.C2H2F4O3S/c1-3-5-6-11-8-7-10(4-2)9-11;3-1(4)2(5,6)10(7,8)9/h7-9H,3-6H2,1-2H3;1H,(H,7,8,9)/q+1;/p-1
InChIKey=FQGYRRKPYOTOLY-UHFFFAOYSA-M

> <PUBCHEM_SUBSTANCE_SYNONYM>
SCHEMBL16107787

> <PUBCHEM_XREF_EXT_ID>
SCHEMBL16107787

> <PUBCHEM_EXT_DATASOURCE_URL>
https://www.surechembl.org/

> <PUBCHEM_EXT_SUBSTANCE_URL>
https://www.surechembl.org/chemical/SCHEMBL16107787

> <PUBCHEM_CID_ASSOCIATIONS>
117599608  1
10176391  2
10313448  2

> <PUBCHEM_COORDINATE_TYPE>
1
3

$$$$
