310934152
  -OEChem-07211613022D

 17 16  0     0  0  0  0  0  0999 V2000
    4.8760    0.4258    0.0000 O   0  5  0  0  0  0  0  0  0  0  0  0
    4.1615    1.6633    0.0000 O   0  0  0  0  0  0  0  0  0  0  0  0
    1.0406    0.9059    0.0000 N   0  3  0  0  0  0  0  0  0  0  0  0
   -0.2943    0.9059    0.0000 N   0  0  0  0  0  0  0  0  0  0  0  0
    1.8252    1.1608    0.0000 C   0  0  0  0  0  0  0  0  0  0  0  0
   -1.0789    1.1608    0.0000 C   0  0  0  0  0  0  0  0  0  0  0  0
    0.3731    1.3908    0.0000 C   0  0  0  0  0  0  0  0  0  0  0  0
    0.7856    0.1212    0.0000 C   0  0  0  0  0  0  0  0  0  0  0  0
   -0.0394    0.1212    0.0000 C   0  0  0  0  0  0  0  0  0  0  0  0
    2.0387    1.9577    0.0000 C   0  0  0  0  0  0  0  0  0  0  0  0
    2.6221    1.3743    0.0000 C   0  0  0  0  0  0  0  0  0  0  0  0
    2.4085    0.5774    0.0000 C   0  0  0  0  0  0  0  0  0  0  0  0
   -1.8636    1.4158    0.0000 C   0  0  0  0  0  0  0  0  0  0  0  0
   -1.2505    1.9677    0.0000 C   0  0  0  0  0  0  0  0  0  0  0  0
   -1.6920    0.6087    0.0000 C   0  0  0  0  0  0  0  0  0  0  0  0
    4.1615    0.8383    0.0000 C   0  0  0  0  0  0  0  0  0  0  0  0
    3.4471    0.4258    0.0000 C   0  0  0  0  0  0  0  0  0  0  0  0
  1 16  1  0  0  0  0
  2 16  2  0  0  0  0
  3  5  1  0  0  0  0
  3  7  2  0  0  0  0
  3  8  1  0  0  0  0
  4  6  1  0  0  0  0
  4  7  1  0  0  0  0
  4  9  1  0  0  0  0
  5 10  1  0  0  0  0
  5 11  1  0  0  0  0
  5 12  1  0  0  0  0
  6 13  1  0  0  0  0
  6 14  1  0  0  0  0
  6 15  1  0  0  0  0
  8  9  1  0  0  0  0
 16 17  1  0  0  0  0
M  CHG  2   1  -1   3   1
M  END
> <PUBCHEM_COMPOUND_ID_TYPE>
0

> <PUBCHEM_TOTAL_CHARGE>
0

> <PUBCHEM_SUBSTANCE_ID>
310934152

> <PUBCHEM_SUBSTANCE_VERSION>
1

> <PUBCHEM_EXT_DATASOURCE_NAME>
4488

> <PUBCHEM_EXT_DATASOURCE_REGID>
SCHEMBL16111602

> <PUBCHEM_SUBSTANCE_COMMENT>
InChI=1S/C11H23N2.C2H4O2/c1-10(2,3)12-7-8-13(9-12)11(4,5)6;1-2(3)4/h9H,7-8H2,1-6H3;1H3,(H,3,4)/q+1;/p-1
InChIKey=IIXYUMASXKZDLS-UHFFFAOYSA-M

> <PUBCHEM_SUBSTANCE_SYNONYM>
SCHEMBL16111602

> <PUBCHEM_XREF_EXT_ID>
SCHEMBL16111602

> <PUBCHEM_EXT_DATASOURCE_URL>
https://www.surechembl.org/

> <PUBCHEM_EXT_SUBSTANCE_URL>
https://www.surechembl.org/chemical/SCHEMBL16111602

> <PUBCHEM_CID_ASSOCIATIONS>
117602428  1
176  2
499190  2

> <PUBCHEM_COORDINATE_TYPE>
1
3

$$$$
