310929913
  -OEChem-07211613022D

 30 29  0     0  0  0  0  0  0999 V2000
    0.0000    0.0000    0.0000 Gd  0  0  0  0  0  0  0  0  0  0  0  0
    5.2518   -0.2686    0.0000 O   0  0  0  0  0  0  0  0  0  0  0  0
    5.4653    1.2680    0.0000 O   0  0  0  0  0  0  0  0  0  0  0  0
    4.4549    2.2784    0.0000 O   0  0  0  0  0  0  0  0  0  0  0  0
    2.4913    0.4711    0.0000 O   0  0  0  0  0  0  0  0  0  0  0  0
    4.0109   -1.2523    0.0000 O   0  0  0  0  0  0  0  0  0  0  0  0
    2.1214    1.8514    0.0000 O   0  0  0  0  0  0  0  0  0  0  0  0
    3.1318   -1.0655    0.0000 O   0  0  0  0  0  0  0  0  0  0  0  0
    3.9240   -1.8005    0.0000 O   0  0  0  0  0  0  0  0  0  0  0  0
    5.2785    0.3890    0.0000 O   0  0  0  0  0  0  0  0  0  0  0  0
    5.0955   -1.2790    0.0000 O   0  0  0  0  0  0  0  0  0  0  0  0
    6.6320    1.2680    0.0000 O   0  0  0  0  0  0  0  0  0  0  0  0
    4.0850    0.8982    0.0000 C   0  0  0  0  0  0  0  0  0  0  0  0
    4.6684    0.3148    0.0000 C   0  0  0  0  0  0  0  0  0  0  0  0
    4.6684    1.4815    0.0000 C   0  0  0  0  0  0  0  0  0  0  0  0
    3.5017    1.4815    0.0000 C   0  0  0  0  0  0  0  0  0  0  0  0
    3.5017    0.3148    0.0000 C   0  0  0  0  0  0  0  0  0  0  0  0
    4.0850   -0.2686    0.0000 C   0  0  0  0  0  0  0  0  0  0  0  0
    5.2518    0.8982    0.0000 C   0  0  0  0  0  0  0  0  0  0  0  0
    2.7048    1.2680    0.0000 C   0  0  0  0  0  0  0  0  0  0  0  0
    3.7152   -0.4821    0.0000 C   0  0  0  0  0  0  0  0  0  0  0  0
    4.2986   -1.0655    0.0000 C   0  0  0  0  0  0  0  0  0  0  0  0
    6.0487    0.6846    0.0000 C   0  0  0  0  0  0  0  0  0  0  0  0
    6.0487   -0.0550    0.0000 C   0  0  0  0  0  0  0  0  0  0  0  0
    6.6320   -0.6384    0.0000 C   0  0  0  0  0  0  0  0  0  0  0  0
    7.4289   -0.4249    0.0000 C   0  0  0  0  0  0  0  0  0  0  0  0
    6.4185   -1.4353    0.0000 C   0  0  0  0  0  0  0  0  0  0  0  0
    8.0123   -1.0082    0.0000 C   0  0  0  0  0  0  0  0  0  0  0  0
    7.0019   -2.0187    0.0000 C   0  0  0  0  0  0  0  0  0  0  0  0
    7.7987   -1.8051    0.0000 C   0  0  0  0  0  0  0  0  0  0  0  0
  2 14  1  0  0  0  0
  2 24  1  0  0  0  0
  3 15  2  0  0  0  0
  4 15  1  0  0  0  0
  5 20  2  0  0  0  0
  6 21  2  0  0  0  0
  7 20  1  0  0  0  0
  8 21  1  0  0  0  0
  9 22  2  0  0  0  0
 10 23  2  0  0  0  0
 11 22  1  0  0  0  0
 12 23  1  0  0  0  0
 13 14  1  0  0  0  0
 13 15  1  0  0  0  0
 13 16  1  0  0  0  0
 13 17  1  0  0  0  0
 14 18  1  0  0  0  0
 14 19  1  0  0  0  0
 16 20  1  0  0  0  0
 17 21  1  0  0  0  0
 18 22  1  0  0  0  0
 19 23  1  0  0  0  0
 24 25  1  0  0  0  0
 25 26  2  0  0  0  0
 25 27  1  0  0  0  0
 26 28  1  0  0  0  0
 27 29  2  0  0  0  0
 28 30  2  0  0  0  0
 29 30  1  0  0  0  0
M  END
> <PUBCHEM_COMPOUND_ID_TYPE>
0

> <PUBCHEM_TOTAL_CHARGE>
0

> <PUBCHEM_SUBSTANCE_ID>
310929913

> <PUBCHEM_SUBSTANCE_VERSION>
1

> <PUBCHEM_EXT_DATASOURCE_NAME>
4488

> <PUBCHEM_EXT_DATASOURCE_REGID>
SCHEMBL16107130

> <PUBCHEM_SUBSTANCE_COMMENT>
InChI=1S/C18H20O11.Gd/c19-12(20)6-17(16(27)28,7-13(21)22)18(8-14(23)24,9-15(25)26)29-10-11-4-2-1-3-5-11;/h1-5H,6-10H2,(H,19,20)(H,21,22)(H,23,24)(H,25,26)(H,27,28);
InChIKey=GUZPWTXYUMHLOO-UHFFFAOYSA-N

> <PUBCHEM_SUBSTANCE_SYNONYM>
SCHEMBL16107130

> <PUBCHEM_XREF_EXT_ID>
SCHEMBL16107130

> <PUBCHEM_EXT_DATASOURCE_URL>
https://www.surechembl.org/

> <PUBCHEM_EXT_SUBSTANCE_URL>
https://www.surechembl.org/chemical/SCHEMBL16107130

> <PUBCHEM_CID_ASSOCIATIONS>
117599174  1
23982  2
117599175  2

> <PUBCHEM_COORDINATE_TYPE>
1
3

$$$$
