310929770
  -OEChem-07211613022D

 68 75  0     1  0  0  0  0  0999 V2000
    5.4762   -0.8941    0.0000 S   0  0  0  0  0  0  0  0  0  0  0  0
    5.0292   -2.5146    0.0000 O   0  0  0  0  0  0  0  0  0  0  0  0
    5.6997   -1.6764    0.0000 O   0  0  0  0  0  0  0  0  0  0  0  0
    5.3085   -0.1118    0.0000 O   0  0  0  0  0  0  0  0  0  0  0  0
    4.9732   -3.1293    0.0000 O   0  0  0  0  0  0  0  0  0  0  0  0
    6.0349   -5.4762    0.0000 O   0  0  0  0  0  0  0  0  0  0  0  0
    2.1793   -3.8557    0.0000 O   0  0  0  0  0  0  0  0  0  0  0  0
    6.9849   -8.3260    0.0000 O   0  0  0  0  0  0  0  0  0  0  0  0
    1.5646   -7.3761    0.0000 O   0  0  0  0  0  0  0  0  0  0  0  0
    0.6705   -6.5379    0.0000 O   0  0  0  0  0  0  0  0  0  0  0  0
    9.1083  -11.1759    0.0000 O   0  0  0  0  0  0  0  0  0  0  0  0
   12.1258   -6.2026    0.0000 O   0  5  0  0  0  0  0  0  0  0  0  0
   11.3994   -4.9732    0.0000 O   0  0  0  0  0  0  0  0  0  0  0  0
    3.5763   -2.9057    0.0000 N   0  0  0  0  0  0  0  0  0  0  0  0
    4.6939   -1.1176    0.0000 N   0  0  0  0  0  0  0  0  0  0  0  0
    3.3528   -4.1910    0.0000 N   0  0  0  0  0  0  0  0  0  0  0  0
    6.9849   -5.8673    0.0000 N   0  0  0  0  0  0  0  0  0  0  0  0
    1.5646   -5.7556    0.0000 N   0  0  0  0  0  0  0  0  0  0  0  0
    9.1083   -9.5554    0.0000 N   0  3  0  0  0  0  0  0  0  0  0  0
    3.6880   -2.1234    0.0000 C   0  0  3  0  0  0  0  0  0  0  0  0
    3.0175   -1.6764    0.0000 C   0  0  3  0  0  0  0  0  0  0  0  0
    3.6880   -1.2852    0.0000 C   0  0  0  0  0  0  0  0  0  0  0  0
    4.4703   -1.8999    0.0000 C   0  0  0  0  0  0  0  0  0  0  0  0
    6.2585   -0.7264    0.0000 C   0  0  0  0  0  0  0  0  0  0  0  0
    4.1910   -3.4086    0.0000 C   0  0  0  0  0  0  0  0  0  0  0  0
    2.1793   -1.7322    0.0000 C   0  0  0  0  0  0  0  0  0  0  0  0
    6.8731   -0.1677    0.0000 C   0  0  0  0  0  0  0  0  0  0  0  0
    7.0408   -0.8941    0.0000 C   0  0  0  0  0  0  0  0  0  0  0  0
    4.1351   -4.2468    0.0000 C   0  0  3  0  0  0  0  0  0  0  0  0
    5.8673    0.0000    0.0000 C   0  0  0  0  0  0  0  0  0  0  0  0
    4.9174   -4.4145    0.0000 C   0  0  0  0  0  0  0  0  0  0  0  0
    5.5879   -4.8056    0.0000 C   0  0  3  0  0  0  0  0  0  0  0  0
    4.6380   -3.8557    0.0000 C   0  0  0  0  0  0  0  0  0  0  0  0
    2.6263   -4.5821    0.0000 C   0  0  0  0  0  0  0  0  0  0  0  0
    1.7881   -2.4028    0.0000 C   0  0  0  0  0  0  0  0  0  0  0  0
    2.0116   -5.0850    0.0000 C   0  0  3  0  0  0  0  0  0  0  0  0
    6.2585   -6.3144    0.0000 C   0  0  0  0  0  0  0  0  0  0  0  0
    6.2585   -7.0408    0.0000 C   0  0  0  0  0  0  0  0  0  0  0  0
    6.9849   -7.4878    0.0000 C   0  0  0  0  0  0  0  0  0  0  0  0
    7.6555   -7.0408    0.0000 C   0  0  0  0  0  0  0  0  0  0  0  0
    7.6555   -6.3144    0.0000 C   0  0  0  0  0  0  0  0  0  0  0  0
    1.3411   -4.5821    0.0000 C   0  0  0  0  0  0  0  0  0  0  0  0
    5.9791   -7.8790    0.0000 C   0  0  0  0  0  0  0  0  0  0  0  0
    1.5087   -6.5379    0.0000 C   0  0  0  0  0  0  0  0  0  0  0  0
    8.3819   -7.5437    0.0000 C   0  0  0  0  0  0  0  0  0  0  0  0
    8.3819   -5.8673    0.0000 C   0  0  0  0  0  0  0  0  0  0  0  0
    0.5588   -4.8056    0.0000 C   0  0  0  0  0  0  0  0  0  0  0  0
    1.5087   -3.7439    0.0000 C   0  0  0  0  0  0  0  0  0  0  0  0
    1.8999   -8.0466    0.0000 C   0  0  3  0  0  0  0  0  0  0  0  0
    2.5146   -8.6054    0.0000 C   0  0  3  0  0  0  0  0  0  0  0  0
    9.1083   -7.0967    0.0000 C   0  0  0  0  0  0  0  0  0  0  0  0
    9.1083   -6.3702    0.0000 C   0  0  0  0  0  0  0  0  0  0  0  0
    1.7322   -8.8848    0.0000 C   0  0  0  0  0  0  0  0  0  0  0  0
    5.4762   -8.4937    0.0000 C   0  0  0  0  0  0  0  0  0  0  0  0
    0.0000   -4.3027    0.0000 C   0  0  0  0  0  0  0  0  0  0  0  0
    0.8941   -3.2410    0.0000 C   0  0  0  0  0  0  0  0  0  0  0  0
    7.7113   -8.7172    0.0000 C   0  0  0  0  0  0  0  0  0  0  0  0
    3.2410   -8.9965    0.0000 C   0  0  0  0  0  0  0  0  0  0  0  0
    0.1118   -3.4645    0.0000 C   0  0  0  0  0  0  0  0  0  0  0  0
    4.8056   -8.8290    0.0000 C   0  0  0  0  0  0  0  0  0  0  0  0
    4.0233   -8.9965    0.0000 C   0  0  0  0  0  0  0  0  0  0  0  0
    8.3819   -8.3260    0.0000 C   0  0  0  0  0  0  0  0  0  0  0  0
    9.1083   -8.7172    0.0000 C   0  0  0  0  0  0  0  0  0  0  0  0
    9.7789   -9.9465    0.0000 C   0  0  0  0  0  0  0  0  0  0  0  0
    8.3819   -9.9465    0.0000 C   0  0  0  0  0  0  0  0  0  0  0  0
    8.3819  -10.7847    0.0000 C   0  0  0  0  0  0  0  0  0  0  0  0
    9.7789  -10.7847    0.0000 C   0  0  0  0  0  0  0  0  0  0  0  0
   11.3994   -5.8114    0.0000 C   0  0  0  0  0  0  0  0  0  0  0  0
  1  3  2  0  0  0  0
  1  4  2  0  0  0  0
  1 15  1  0  0  0  0
  1 24  1  0  0  0  0
  2 23  2  0  0  0  0
  5 25  2  0  0  0  0
  6 32  1  0  0  0  0
  6 37  1  0  0  0  0
  7 34  2  0  0  0  0
  8 39  1  0  0  0  0
  8 57  1  0  0  0  0
  9 44  1  0  0  0  0
  9 49  1  0  0  0  0
 10 44  2  0  0  0  0
 11 66  1  0  0  0  0
 11 67  1  0  0  0  0
 12 68  1  0  0  0  0
 13 68  2  0  0  0  0
 20 14  1  1  0  0  0
 14 25  1  0  0  0  0
 15 23  1  0  0  0  0
 16 29  1  0  0  0  0
 16 33  1  0  0  0  0
 16 34  1  0  0  0  0
 17 37  1  0  0  0  0
 17 41  2  0  0  0  0
 18 36  1  0  0  0  0
 18 44  1  0  0  0  0
 19 63  1  0  0  0  0
 19 64  1  0  0  0  0
 19 65  1  0  0  0  0
 20 21  1  0  0  0  0
 20 22  1  0  0  0  0
 20 23  1  6  0  0  0
 21 22  1  0  0  0  0
 21 26  1  6  0  0  0
 24 27  1  0  0  0  0
 24 28  1  0  0  0  0
 24 30  1  0  0  0  0
 29 25  1  6  0  0  0
 26 35  2  0  0  0  0
 27 28  1  0  0  0  0
 29 31  1  0  0  0  0
 32 31  1  1  0  0  0
 32 33  1  0  0  0  0
 36 34  1  1  0  0  0
 36 42  1  0  0  0  0
 37 38  2  0  0  0  0
 38 39  1  0  0  0  0
 38 43  1  0  0  0  0
 39 40  2  0  0  0  0
 40 41  1  0  0  0  0
 40 45  1  0  0  0  0
 41 46  1  0  0  0  0
 42 47  1  0  0  0  0
 42 48  1  0  0  0  0
 43 54  1  0  0  0  0
 45 51  2  0  0  0  0
 46 52  2  0  0  0  0
 47 55  1  0  0  0  0
 48 56  1  0  0  0  0
 49 50  1  0  0  0  0
 49 53  1  1  0  0  0
 50 53  1  6  0  0  0
 50 58  1  0  0  0  0
 51 52  1  0  0  0  0
 54 60  1  0  0  0  0
 55 59  1  0  0  0  0
 56 59  1  0  0  0  0
 57 62  1  0  0  0  0
 58 61  1  0  0  0  0
 60 61  1  0  0  0  0
 62 63  1  0  0  0  0
 64 67  1  0  0  0  0
 65 66  1  0  0  0  0
M  CHG  2  12  -1  19   1
M  END
> <PUBCHEM_COMPOUND_ID_TYPE>
0

> <PUBCHEM_TOTAL_CHARGE>
0

> <PUBCHEM_SUBSTANCE_ID>
310929770

> <PUBCHEM_SUBSTANCE_VERSION>
1

> <PUBCHEM_EXT_DATASOURCE_NAME>
4488

> <PUBCHEM_EXT_DATASOURCE_REGID>
SCHEMBL16106968

> <PUBCHEM_SUBSTANCE_COMMENT>
InChI=1S/C48H66N6O10S.CH2O2/c1-3-33-29-48(33,45(57)52-65(59,60)47(2)19-20-47)51-42(55)38-28-34-30-54(38)44(56)40(31-13-6-4-7-14-31)50-46(58)64-39-27-32(39)15-8-5-9-17-36-41(62-24-12-21-53-22-25-61-26-23-53)35-16-10-11-18-37(35)49-43(36)63-34;2-1-3/h3,10-11,16,18,31-34,38-40H,1,4-9,12-15,17,19-30H2,2H3,(H,50,58)(H,51,55)(H,52,57);1H,(H,2,3)/t32-,33-,34-,38+,39-,40+,48-;/m1./s1
InChIKey=DNUSTXVMQJKZMX-BUSOSZJLSA-N

> <PUBCHEM_SUBSTANCE_SYNONYM>
SCHEMBL16106968

> <PUBCHEM_XREF_EXT_ID>
SCHEMBL16106968

> <PUBCHEM_EXT_DATASOURCE_URL>
https://www.surechembl.org/

> <PUBCHEM_EXT_SUBSTANCE_URL>
https://www.surechembl.org/chemical/SCHEMBL16106968

> <PUBCHEM_CID_ASSOCIATIONS>
117599056  1
284  2
76321666  2

> <PUBCHEM_COORDINATE_TYPE>
1
3

> <PUBCHEM_BONDANNOTATIONS>
20  14  5
20  23  6
21  26  6
29  25  6
32  31  5
36  34  5
49  53  5
50  53  6

$$$$
