310931977
  -OEChem-07211613022D

 17 16  0     0  0  0  0  0  0999 V2000
    4.7616   -0.8245    0.0000 F   0  0  0  0  0  0  0  0  0  0  0  0
    4.0401   -2.0613    0.0000 F   0  0  0  0  0  0  0  0  0  0  0  0
    4.0401   -1.2367    0.0000 F   0  0  0  0  0  0  0  0  0  0  0  0
    6.1838   -1.6491    0.0000 O   0  5  0  0  0  0  0  0  0  0  0  0
    5.4830   -2.8858    0.0000 O   0  0  0  0  0  0  0  0  0  0  0  0
    0.7833   -2.7415    0.0000 N   0  3  0  0  0  0  0  0  0  0  0  0
    0.7833   -1.4017    0.0000 N   0  0  0  0  0  0  0  0  0  0  0  0
    4.7616   -1.6491    0.0000 C   0  0  0  0  0  0  0  0  0  0  0  0
    5.4830   -2.0613    0.0000 C   0  0  0  0  0  0  0  0  0  0  0  0
    1.2574   -2.0613    0.0000 C   0  0  0  0  0  0  0  0  0  0  0  0
    0.0000   -2.4735    0.0000 C   0  0  0  0  0  0  0  0  0  0  0  0
    0.0000   -1.6697    0.0000 C   0  0  0  0  0  0  0  0  0  0  0  0
    1.0307   -3.5248    0.0000 C   0  0  0  0  0  0  0  0  0  0  0  0
    1.0307   -0.6184    0.0000 C   0  0  0  0  0  0  0  0  0  0  0  0
    1.8345   -3.7103    0.0000 C   0  0  0  0  0  0  0  0  0  0  0  0
    0.4947    0.0000    0.0000 C   0  0  0  0  0  0  0  0  0  0  0  0
    2.3911   -3.0920    0.0000 C   0  0  0  0  0  0  0  0  0  0  0  0
  1  8  1  0  0  0  0
  2  8  1  0  0  0  0
  3  8  1  0  0  0  0
  4  9  1  0  0  0  0
  5  9  2  0  0  0  0
  6 10  2  0  0  0  0
  6 11  1  0  0  0  0
  6 13  1  0  0  0  0
  7 10  1  0  0  0  0
  7 12  1  0  0  0  0
  7 14  1  0  0  0  0
  8  9  1  0  0  0  0
 11 12  2  0  0  0  0
 13 15  1  0  0  0  0
 14 16  2  0  0  0  0
 15 17  2  0  0  0  0
M  CHG  2   4  -1   6   1
M  END
> <PUBCHEM_COMPOUND_ID_TYPE>
0

> <PUBCHEM_TOTAL_CHARGE>
0

> <PUBCHEM_SUBSTANCE_ID>
310931977

> <PUBCHEM_SUBSTANCE_VERSION>
1

> <PUBCHEM_EXT_DATASOURCE_NAME>
4488

> <PUBCHEM_EXT_DATASOURCE_REGID>
SCHEMBL16109316

> <PUBCHEM_SUBSTANCE_COMMENT>
InChI=1S/C8H11N2.C2HF3O2/c1-3-5-10-7-6-9(4-2)8-10;3-2(4,5)1(6)7/h3-4,6-8H,1-2,5H2;(H,6,7)/q+1;/p-1
InChIKey=YIVQLUHFNUIYSO-UHFFFAOYSA-M

> <PUBCHEM_SUBSTANCE_SYNONYM>
SCHEMBL16109316

> <PUBCHEM_XREF_EXT_ID>
SCHEMBL16109316

> <PUBCHEM_EXT_DATASOURCE_URL>
https://www.surechembl.org/

> <PUBCHEM_EXT_SUBSTANCE_URL>
https://www.surechembl.org/chemical/SCHEMBL16109316

> <PUBCHEM_CID_ASSOCIATIONS>
117600622  1
6422  2
59538260  2

> <PUBCHEM_COORDINATE_TYPE>
1
3

$$$$
