310929446
  -OEChem-07211613022D

 67 74  0     1  0  0  0  0  0999 V2000
    2.6505  -10.7174    0.0000 S   0  0  0  0  0  0  0  0  0  0  0  0
    3.4572   -9.2769    0.0000 O   0  0  0  0  0  0  0  0  0  0  0  0
    2.5929   -9.9107    0.0000 O   0  0  0  0  0  0  0  0  0  0  0  0
    2.5929  -11.5241    0.0000 O   0  0  0  0  0  0  0  0  0  0  0  0
    3.6877   -8.7007    0.0000 O   0  0  0  0  0  0  0  0  0  0  0  0
    3.2844   -6.1654    0.0000 O   0  0  0  0  0  0  0  0  0  0  0  0
    6.5687   -8.7007    0.0000 O   0  0  0  0  0  0  0  0  0  0  0  0
    3.1115   -3.1691    0.0000 O   0  0  0  0  0  0  0  0  0  0  0  0
    8.1245   -5.4739    0.0000 O   0  0  0  0  0  0  0  0  0  0  0  0
    8.7583   -6.5111    0.0000 O   0  0  0  0  0  0  0  0  0  0  0  0
   11.1783   -6.3959    0.0000 O   0  5  0  0  0  0  0  0  0  0  0  0
   10.4293   -5.1282    0.0000 O   0  0  0  0  0  0  0  0  0  0  0  0
    4.9553   -9.2769    0.0000 N   0  0  0  0  0  0  0  0  0  0  0  0
    3.3996  -10.7174    0.0000 N   0  0  0  0  0  0  0  0  0  0  0  0
    5.5315   -8.0669    0.0000 N   0  0  0  0  0  0  0  0  0  0  0  0
    2.4201   -5.5315    0.0000 N   0  0  0  0  0  0  0  0  0  0  0  0
    7.6635   -7.0873    0.0000 N   0  0  0  0  0  0  0  0  0  0  0  0
    1.3829   -1.3829    0.0000 N   0  3  0  0  0  0  0  0  0  0  0  0
    4.6672  -10.0259    0.0000 C   0  0  3  0  0  0  0  0  0  0  0  0
    5.2435  -10.6022    0.0000 C   0  0  3  0  0  0  0  0  0  0  0  0
    4.4368  -10.8326    0.0000 C   0  0  0  0  0  0  0  0  0  0  0  0
    3.8605  -10.0259    0.0000 C   0  0  0  0  0  0  0  0  0  0  0  0
    1.7862  -10.6598    0.0000 C   0  0  0  0  0  0  0  0  0  0  0  0
    4.4944   -8.5854    0.0000 C   0  0  0  0  0  0  0  0  0  0  0  0
    5.9925  -10.7750    0.0000 C   0  0  0  0  0  0  0  0  0  0  0  0
    1.0948  -11.1207    0.0000 C   0  0  0  0  0  0  0  0  0  0  0  0
    1.0948  -10.3140    0.0000 C   0  0  0  0  0  0  0  0  0  0  0  0
    4.7825   -7.8364    0.0000 C   0  0  3  0  0  0  0  0  0  0  0  0
    2.0167  -11.5241    0.0000 C   0  0  0  0  0  0  0  0  0  0  0  0
    4.0334   -7.4330    0.0000 C   0  0  0  0  0  0  0  0  0  0  0  0
    3.5148   -6.9145    0.0000 C   0  0  3  0  0  0  0  0  0  0  0  0
    4.2063   -8.0669    0.0000 C   0  0  0  0  0  0  0  0  0  0  0  0
    6.3382   -7.8940    0.0000 C   0  0  0  0  0  0  0  0  0  0  0  0
    6.5687  -10.1988    0.0000 C   0  0  0  0  0  0  0  0  0  0  0  0
    7.0873   -7.5482    0.0000 C   0  0  3  0  0  0  0  0  0  0  0  0
    3.2268   -5.3011    0.0000 C   0  0  0  0  0  0  0  0  0  0  0  0
    3.4572   -4.6096    0.0000 C   0  0  0  0  0  0  0  0  0  0  0  0
    2.8810   -3.9182    0.0000 C   0  0  0  0  0  0  0  0  0  0  0  0
    2.1319   -4.2063    0.0000 C   0  0  0  0  0  0  0  0  0  0  0  0
    1.9015   -4.8977    0.0000 C   0  0  0  0  0  0  0  0  0  0  0  0
    7.5482   -8.2397    0.0000 C   0  0  0  0  0  0  0  0  0  0  0  0
    3.9758   -3.8605    0.0000 C   0  0  0  0  0  0  0  0  0  0  0  0
    7.9516   -6.2806    0.0000 C   0  0  0  0  0  0  0  0  0  0  0  0
    1.5558   -3.5148    0.0000 C   0  0  0  0  0  0  0  0  0  0  0  0
    1.0948   -5.1282    0.0000 C   0  0  0  0  0  0  0  0  0  0  0  0
    8.3549   -8.2397    0.0000 C   0  0  0  0  0  0  0  0  0  0  0  0
    7.2025   -8.9888    0.0000 C   0  0  0  0  0  0  0  0  0  0  0  0
    7.9516   -4.7249    0.0000 C   0  0  3  0  0  0  0  0  0  0  0  0
    7.4330   -4.0334    0.0000 C   0  0  3  0  0  0  0  0  0  0  0  0
    0.6915   -3.8029    0.0000 C   0  0  0  0  0  0  0  0  0  0  0  0
    8.3549   -3.9758    0.0000 C   0  0  0  0  0  0  0  0  0  0  0  0
    0.5186   -4.4944    0.0000 C   0  0  0  0  0  0  0  0  0  0  0  0
    4.5520   -3.3996    0.0000 C   0  0  0  0  0  0  0  0  0  0  0  0
    8.8159   -8.8735    0.0000 C   0  0  0  0  0  0  0  0  0  0  0  0
    7.6635   -9.6802    0.0000 C   0  0  0  0  0  0  0  0  0  0  0  0
    2.5353   -2.5929    0.0000 C   0  0  0  0  0  0  0  0  0  0  0  0
    6.8568   -3.4572    0.0000 C   0  0  0  0  0  0  0  0  0  0  0  0
    8.4702   -9.6226    0.0000 C   0  0  0  0  0  0  0  0  0  0  0  0
    5.3011   -3.2268    0.0000 C   0  0  0  0  0  0  0  0  0  0  0  0
    6.1654   -3.2844    0.0000 C   0  0  0  0  0  0  0  0  0  0  0  0
    1.7286   -2.7658    0.0000 C   0  0  0  0  0  0  0  0  0  0  0  0
    1.1524   -2.1895    0.0000 C   0  0  0  0  0  0  0  0  0  0  0  0
    0.8067   -0.8643    0.0000 C   0  0  0  0  0  0  0  0  0  0  0  0
    0.0000   -0.8643    0.0000 C   0  0  0  0  0  0  0  0  0  0  0  0
    0.8067    0.0000    0.0000 C   0  0  0  0  0  0  0  0  0  0  0  0
    0.0000    0.0000    0.0000 C   0  0  0  0  0  0  0  0  0  0  0  0
   10.4293   -5.9349    0.0000 C   0  0  0  0  0  0  0  0  0  0  0  0
  1  3  2  0  0  0  0
  1  4  2  0  0  0  0
  1 14  1  0  0  0  0
  1 23  1  0  0  0  0
  2 22  2  0  0  0  0
  5 24  2  0  0  0  0
  6 31  1  0  0  0  0
  6 36  1  0  0  0  0
  7 33  2  0  0  0  0
  8 38  1  0  0  0  0
  8 56  1  0  0  0  0
  9 43  1  0  0  0  0
  9 48  1  0  0  0  0
 10 43  2  0  0  0  0
 11 67  1  0  0  0  0
 12 67  2  0  0  0  0
 19 13  1  1  0  0  0
 13 24  1  0  0  0  0
 14 22  1  0  0  0  0
 15 28  1  0  0  0  0
 15 32  1  0  0  0  0
 15 33  1  0  0  0  0
 16 36  1  0  0  0  0
 16 40  2  0  0  0  0
 17 35  1  0  0  0  0
 17 43  1  0  0  0  0
 18 62  1  0  0  0  0
 18 63  1  0  0  0  0
 19 20  1  0  0  0  0
 19 21  1  0  0  0  0
 19 22  1  6  0  0  0
 20 21  1  0  0  0  0
 20 25  1  6  0  0  0
 23 26  1  0  0  0  0
 23 27  1  0  0  0  0
 23 29  1  0  0  0  0
 28 24  1  6  0  0  0
 25 34  2  0  0  0  0
 26 27  1  0  0  0  0
 28 30  1  0  0  0  0
 31 30  1  1  0  0  0
 31 32  1  0  0  0  0
 35 33  1  1  0  0  0
 35 41  1  0  0  0  0
 36 37  2  0  0  0  0
 37 38  1  0  0  0  0
 37 42  1  0  0  0  0
 38 39  2  0  0  0  0
 39 40  1  0  0  0  0
 39 44  1  0  0  0  0
 40 45  1  0  0  0  0
 41 46  1  0  0  0  0
 41 47  1  0  0  0  0
 42 53  1  0  0  0  0
 44 50  2  0  0  0  0
 45 52  2  0  0  0  0
 46 54  1  0  0  0  0
 47 55  1  0  0  0  0
 48 49  1  0  0  0  0
 48 51  1  1  0  0  0
 49 51  1  6  0  0  0
 49 57  1  0  0  0  0
 50 52  1  0  0  0  0
 53 59  1  0  0  0  0
 54 58  1  0  0  0  0
 55 58  1  0  0  0  0
 56 61  1  0  0  0  0
 57 60  1  0  0  0  0
 59 60  1  0  0  0  0
 61 62  1  0  0  0  0
 63 64  1  0  0  0  0
 63 65  1  0  0  0  0
 64 66  1  0  0  0  0
 65 66  1  0  0  0  0
M  CHG  2  11  -1  18   1
M  END
> <PUBCHEM_COMPOUND_ID_TYPE>
0

> <PUBCHEM_TOTAL_CHARGE>
0

> <PUBCHEM_SUBSTANCE_ID>
310929446

> <PUBCHEM_SUBSTANCE_VERSION>
1

> <PUBCHEM_EXT_DATASOURCE_NAME>
4488

> <PUBCHEM_EXT_DATASOURCE_REGID>
SCHEMBL16106620

> <PUBCHEM_SUBSTANCE_COMMENT>
InChI=1S/C48H66N6O9S.CH2O2/c1-3-32-28-48(32,45(57)53-64(59,60)47(2)22-23-47)52-42(55)38-27-34-29-54(38)44(56)40(30-14-6-4-7-15-30)51-46(58)63-39-26-31(39)16-8-5-9-20-36-41(61-25-13-24-49-33-17-12-18-33)35-19-10-11-21-37(35)50-43(36)62-34;2-1-3/h3,10-11,19,21,30-34,38-40,49H,1,4-9,12-18,20,22-29H2,2H3,(H,51,58)(H,52,55)(H,53,57);1H,(H,2,3)/t31-,32-,34-,38+,39-,40+,48-;/m1./s1
InChIKey=YORGLBJQPWFHCE-HQTCIAOKSA-N

> <PUBCHEM_SUBSTANCE_SYNONYM>
SCHEMBL16106620

> <PUBCHEM_XREF_EXT_ID>
SCHEMBL16106620

> <PUBCHEM_EXT_DATASOURCE_URL>
https://www.surechembl.org/

> <PUBCHEM_EXT_SUBSTANCE_URL>
https://www.surechembl.org/chemical/SCHEMBL16106620

> <PUBCHEM_CID_ASSOCIATIONS>
117598793  1
284  2
76325274  2

> <PUBCHEM_COORDINATE_TYPE>
1
3

> <PUBCHEM_BONDANNOTATIONS>
19  13  5
19  22  6
20  25  6
28  24  6
31  30  5
35  33  5
48  51  5
49  51  6

$$$$
