310938099
  -OEChem-07211613022D

  9  7  0     0  0  0  0  0  0999 V2000
    0.0000    0.0000    0.0000 Cl  0  5  0  0  0  0  0  0  0  0  0  0
    2.1288   -0.8038    0.0000 O   0  0  0  0  0  0  0  0  0  0  0  0
    3.6682    1.0377    0.0000 N   0  3  0  0  0  0  0  0  0  0  0  0
    3.3663   -1.5183    0.0000 N   0  0  0  0  0  0  0  0  0  0  0  0
    2.9538    0.6252    0.0000 C   0  0  0  0  0  0  0  0  0  0  0  0
    3.3663   -0.0893    0.0000 C   0  0  0  0  0  0  0  0  0  0  0  0
    2.9538   -0.8038    0.0000 C   0  0  0  0  0  0  0  0  0  0  0  0
    2.5413    1.3396    0.0000 C   0  0  0  0  0  0  0  0  0  0  0  0
    2.2393    0.2127    0.0000 C   0  0  0  0  0  0  0  0  0  0  0  0
  2  7  2  0  0  0  0
  3  5  1  0  0  0  0
  4  7  1  0  0  0  0
  5  6  1  0  0  0  0
  5  8  1  0  0  0  0
  5  9  1  0  0  0  0
  6  7  1  0  0  0  0
M  CHG  2   1  -1   3   1
M  END
> <PUBCHEM_COMPOUND_ID_TYPE>
0

> <PUBCHEM_TOTAL_CHARGE>
0

> <PUBCHEM_SUBSTANCE_ID>
310938099

> <PUBCHEM_SUBSTANCE_VERSION>
1

> <PUBCHEM_EXT_DATASOURCE_NAME>
4488

> <PUBCHEM_EXT_DATASOURCE_REGID>
SCHEMBL16115945

> <PUBCHEM_SUBSTANCE_COMMENT>
InChI=1S/C5H12N2O.ClH/c1-5(2,7)3-4(6)8;/h3,7H2,1-2H3,(H2,6,8);1H
InChIKey=HTBRPHAJYMZOMW-UHFFFAOYSA-N

> <PUBCHEM_SUBSTANCE_SYNONYM>
SCHEMBL16115945

> <PUBCHEM_XREF_EXT_ID>
SCHEMBL16115945

> <PUBCHEM_EXT_DATASOURCE_URL>
https://www.surechembl.org/

> <PUBCHEM_EXT_SUBSTANCE_URL>
https://www.surechembl.org/chemical/SCHEMBL16115945

> <PUBCHEM_CID_ASSOCIATIONS>
117605661  1
313  2
15405193  2

> <PUBCHEM_COORDINATE_TYPE>
1
3

$$$$
