310932104
  -OEChem-07211613022D

 46 48  0     0  0  0  0  0  0999 V2000
    0.0000   -3.3110    0.0000 Cl  0  0  0  0  0  0  0  0  0  0  0  0
    0.0000   -4.9665    0.0000 Cl  0  0  0  0  0  0  0  0  0  0  0  0
    6.8905   -8.9487    0.0000 Cl  0  0  0  0  0  0  0  0  0  0  0  0
    8.3670   -8.0985    0.0000 Cl  0  0  0  0  0  0  0  0  0  0  0  0
    5.3244   -0.7607    0.0000 S   0  0  0  0  0  0  0  0  0  0  0  0
    2.0582   -5.6376    0.0000 S   0  0  0  0  0  0  0  0  0  0  0  0
    6.0851   -1.0291    0.0000 O   0  0  0  0  0  0  0  0  0  0  0  0
    4.5191   -0.4922    0.0000 O   0  0  0  0  0  0  0  0  0  0  0  0
    5.5482    0.0000    0.0000 O   0  0  0  0  0  0  0  0  0  0  0  0
    1.8792   -4.8323    0.0000 O   0  0  0  0  0  0  0  0  0  0  0  0
    2.1925   -6.4430    0.0000 O   0  0  0  0  0  0  0  0  0  0  0  0
    1.2528   -5.8167    0.0000 O   0  0  0  0  0  0  0  0  0  0  0  0
   10.0226   -4.4744    0.0000 O   0  5  0  0  0  0  0  0  0  0  0  0
    2.9083   -3.4900    0.0000 N   0  0  0  0  0  0  0  0  0  0  0  0
    2.9083   -4.7876    0.0000 N   0  3  0  0  0  0  0  0  0  0  0  0
    5.5930   -6.3535    0.0000 N   0  0  0  0  0  0  0  0  0  0  0  0
    6.7115   -5.6824    0.0000 N   0  0  0  0  0  0  0  0  0  0  0  0
    2.1477   -3.7137    0.0000 C   0  0  0  0  0  0  0  0  0  0  0  0
    2.1477   -4.5639    0.0000 C   0  0  0  0  0  0  0  0  0  0  0  0
    6.1746   -6.8905    0.0000 C   0  0  0  0  0  0  0  0  0  0  0  0
    6.8905   -6.4430    0.0000 C   0  0  0  0  0  0  0  0  0  0  0  0
    3.4005   -4.1612    0.0000 C   0  0  0  0  0  0  0  0  0  0  0  0
    5.9062   -5.5930    0.0000 C   0  0  0  0  0  0  0  0  0  0  0  0
    1.3871   -3.3110    0.0000 C   0  0  0  0  0  0  0  0  0  0  0  0
    1.3871   -4.9665    0.0000 C   0  0  0  0  0  0  0  0  0  0  0  0
    6.1746   -7.7406    0.0000 C   0  0  0  0  0  0  0  0  0  0  0  0
    7.6512   -6.8905    0.0000 C   0  0  0  0  0  0  0  0  0  0  0  0
    4.2507   -4.1612    0.0000 C   0  0  0  0  0  0  0  0  0  0  0  0
    5.5035   -4.8771    0.0000 C   0  0  0  0  0  0  0  0  0  0  0  0
    0.7159   -3.7137    0.0000 C   0  0  0  0  0  0  0  0  0  0  0  0
    0.7159   -4.5639    0.0000 C   0  0  0  0  0  0  0  0  0  0  0  0
    6.8905   -8.1433    0.0000 C   0  0  0  0  0  0  0  0  0  0  0  0
    7.6512   -7.6958    0.0000 C   0  0  0  0  0  0  0  0  0  0  0  0
    3.1768   -2.6846    0.0000 C   0  0  0  0  0  0  0  0  0  0  0  0
    4.7876   -6.4878    0.0000 C   0  0  0  0  0  0  0  0  0  0  0  0
    3.1768   -5.5930    0.0000 C   0  0  0  0  0  0  0  0  0  0  0  0
    7.2485   -5.0560    0.0000 C   0  0  0  0  0  0  0  0  0  0  0  0
    4.6533   -4.8771    0.0000 C   0  0  0  0  0  0  0  0  0  0  0  0
    3.9821   -2.5057    0.0000 C   0  0  0  0  0  0  0  0  0  0  0  0
    4.2059   -5.9062    0.0000 C   0  0  0  0  0  0  0  0  0  0  0  0
    3.9821   -5.7719    0.0000 C   0  0  0  0  0  0  0  0  0  0  0  0
    7.0247   -4.2507    0.0000 C   0  0  0  0  0  0  0  0  0  0  0  0
    4.2507   -1.7450    0.0000 C   0  0  0  0  0  0  0  0  0  0  0  0
    3.4005   -6.0851    0.0000 C   0  0  0  0  0  0  0  0  0  0  0  0
    5.0560   -1.5660    0.0000 C   0  0  0  0  0  0  0  0  0  0  0  0
    2.8636   -5.4587    0.0000 C   0  0  0  0  0  0  0  0  0  0  0  0
  1 30  1  0  0  0  0
  2 31  1  0  0  0  0
  3 32  1  0  0  0  0
  4 33  1  0  0  0  0
  5  7  2  0  0  0  0
  5  8  2  0  0  0  0
  5  9  1  0  0  0  0
  5 45  1  0  0  0  0
  6 10  2  0  0  0  0
  6 11  2  0  0  0  0
  6 12  1  0  0  0  0
  6 46  1  0  0  0  0
 14 18  1  0  0  0  0
 14 22  1  0  0  0  0
 14 34  1  0  0  0  0
 15 19  1  0  0  0  0
 15 22  2  0  0  0  0
 15 36  1  0  0  0  0
 16 20  1  0  0  0  0
 16 23  1  0  0  0  0
 16 35  1  0  0  0  0
 17 21  1  0  0  0  0
 17 23  1  0  0  0  0
 17 37  1  0  0  0  0
 18 19  2  0  0  0  0
 18 24  1  0  0  0  0
 19 25  1  0  0  0  0
 20 21  2  0  0  0  0
 20 26  1  0  0  0  0
 21 27  1  0  0  0  0
 22 28  1  0  0  0  0
 23 29  2  0  0  0  0
 24 30  2  0  0  0  0
 25 31  2  0  0  0  0
 26 32  2  0  0  0  0
 27 33  2  0  0  0  0
 28 38  2  0  0  0  0
 29 38  1  0  0  0  0
 30 31  1  0  0  0  0
 32 33  1  0  0  0  0
 34 39  1  0  0  0  0
 35 40  1  0  0  0  0
 36 41  1  0  0  0  0
 37 42  1  0  0  0  0
 39 43  1  0  0  0  0
 40 44  1  0  0  0  0
 43 45  1  0  0  0  0
 44 46  1  0  0  0  0
M  CHG  2  13  -1  15   1
M  END
> <PUBCHEM_COMPOUND_ID_TYPE>
0

> <PUBCHEM_TOTAL_CHARGE>
0

> <PUBCHEM_SUBSTANCE_ID>
310932104

> <PUBCHEM_SUBSTANCE_VERSION>
1

> <PUBCHEM_EXT_DATASOURCE_NAME>
4488

> <PUBCHEM_EXT_DATASOURCE_REGID>
SCHEMBL16109452

> <PUBCHEM_SUBSTANCE_COMMENT>
InChI=1S/C29H34Cl4N4O6S2.H2O/c1-3-34-24-16-20(30)22(32)18-26(24)36(12-5-7-14-44(38,39)40)28(34)10-9-11-29-35(4-2)25-17-21(31)23(33)19-27(25)37(29)13-6-8-15-45(41,42)43;/h9-11,16-19H,3-8,12-15H2,1-2H3,(H-,38,39,40,41,42,43);1H2
InChIKey=UGEUHACVKHDVHU-UHFFFAOYSA-N

> <PUBCHEM_SUBSTANCE_SYNONYM>
SCHEMBL16109452

> <PUBCHEM_XREF_EXT_ID>
SCHEMBL16109452

> <PUBCHEM_EXT_DATASOURCE_URL>
https://www.surechembl.org/

> <PUBCHEM_EXT_SUBSTANCE_URL>
https://www.surechembl.org/chemical/SCHEMBL16109452

> <PUBCHEM_CID_ASSOCIATIONS>
119081018  1
962  2
103773  2

> <PUBCHEM_COORDINATE_TYPE>
1
3

$$$$
