310937970
  -OEChem-07211613022D

 46 46  0     0  0  0  0  0  0999 V2000
   22.3568   -3.6060    0.0000 Br  0  5  0  0  0  0  0  0  0  0  0  0
   24.0396   -3.6060    0.0000 Br  0  5  0  0  0  0  0  0  0  0  0  0
   12.0198   -3.6060    0.0000 O   0  0  0  0  0  0  0  0  0  0  0  0
    8.6543   -3.5258    0.0000 O   0  0  0  0  0  0  0  0  0  0  0  0
    7.4523   -2.8046    0.0000 N   0  3  0  0  0  0  0  0  0  0  0  0
   13.2218   -4.3271    0.0000 N   0  3  0  0  0  0  0  0  0  0  0  0
    8.2536   -2.8046    0.0000 C   0  0  0  0  0  0  0  0  0  0  0  0
   12.4204   -4.3271    0.0000 C   0  0  0  0  0  0  0  0  0  0  0  0
   11.1383   -3.6060    0.0000 C   0  0  0  0  0  0  0  0  0  0  0  0
    9.4555   -3.5258    0.0000 C   0  0  0  0  0  0  0  0  0  0  0  0
    9.8562   -4.2470    0.0000 C   0  0  0  0  0  0  0  0  0  0  0  0
   10.7377   -4.3271    0.0000 C   0  0  0  0  0  0  0  0  0  0  0  0
   10.7377   -2.8848    0.0000 C   0  0  0  0  0  0  0  0  0  0  0  0
    9.9364   -2.8046    0.0000 C   0  0  0  0  0  0  0  0  0  0  0  0
    8.6543   -2.0834    0.0000 C   0  0  0  0  0  0  0  0  0  0  0  0
   11.9397   -5.0483    0.0000 C   0  0  0  0  0  0  0  0  0  0  0  0
    6.9715   -2.0834    0.0000 C   0  0  0  0  0  0  0  0  0  0  0  0
   13.6224   -5.0483    0.0000 C   0  0  0  0  0  0  0  0  0  0  0  0
    7.0516   -3.5258    0.0000 C   0  0  0  0  0  0  0  0  0  0  0  0
   13.6224   -3.6060    0.0000 C   0  0  0  0  0  0  0  0  0  0  0  0
    8.2536   -1.3623    0.0000 C   0  0  0  0  0  0  0  0  0  0  0  0
   12.3403   -5.7695    0.0000 C   0  0  0  0  0  0  0  0  0  0  0  0
    7.4523   -1.3623    0.0000 C   0  0  0  0  0  0  0  0  0  0  0  0
   13.2218   -5.7695    0.0000 C   0  0  0  0  0  0  0  0  0  0  0  0
    6.1702   -3.5258    0.0000 C   0  0  0  0  0  0  0  0  0  0  0  0
   14.4238   -3.6060    0.0000 C   0  0  0  0  0  0  0  0  0  0  0  0
    5.7695   -4.2470    0.0000 C   0  0  0  0  0  0  0  0  0  0  0  0
   14.9045   -2.8848    0.0000 C   0  0  0  0  0  0  0  0  0  0  0  0
    4.9682   -4.3271    0.0000 C   0  0  0  0  0  0  0  0  0  0  0  0
   15.7059   -2.8848    0.0000 C   0  0  0  0  0  0  0  0  0  0  0  0
    4.5675   -5.0483    0.0000 C   0  0  0  0  0  0  0  0  0  0  0  0
   16.1065   -2.1635    0.0000 C   0  0  0  0  0  0  0  0  0  0  0  0
    3.6860   -5.0483    0.0000 C   0  0  0  0  0  0  0  0  0  0  0  0
   16.9880   -2.1635    0.0000 C   0  0  0  0  0  0  0  0  0  0  0  0
    3.2854   -5.7695    0.0000 C   0  0  0  0  0  0  0  0  0  0  0  0
   17.3886   -1.4423    0.0000 C   0  0  0  0  0  0  0  0  0  0  0  0
    2.4841   -5.7695    0.0000 C   0  0  0  0  0  0  0  0  0  0  0  0
   18.1899   -1.4423    0.0000 C   0  0  0  0  0  0  0  0  0  0  0  0
    2.0834   -6.4907    0.0000 C   0  0  0  0  0  0  0  0  0  0  0  0
   18.5906   -0.7212    0.0000 C   0  0  0  0  0  0  0  0  0  0  0  0
    1.2020   -6.4907    0.0000 C   0  0  0  0  0  0  0  0  0  0  0  0
   19.4721   -0.7212    0.0000 C   0  0  0  0  0  0  0  0  0  0  0  0
    0.8013   -7.2118    0.0000 C   0  0  0  0  0  0  0  0  0  0  0  0
   19.8727    0.0000    0.0000 C   0  0  0  0  0  0  0  0  0  0  0  0
    0.0000   -7.2118    0.0000 C   0  0  0  0  0  0  0  0  0  0  0  0
   20.6740    0.0000    0.0000 C   0  0  0  0  0  0  0  0  0  0  0  0
  3  8  1  0  0  0  0
  3  9  1  0  0  0  0
  4  7  1  0  0  0  0
  4 10  1  0  0  0  0
  5  7  1  0  0  0  0
  5 17  2  0  0  0  0
  5 19  1  0  0  0  0
  6  8  1  0  0  0  0
  6 18  2  0  0  0  0
  6 20  1  0  0  0  0
  7 15  2  0  0  0  0
  8 16  2  0  0  0  0
  9 12  2  0  0  0  0
  9 13  1  0  0  0  0
 10 11  2  0  0  0  0
 10 14  1  0  0  0  0
 11 12  1  0  0  0  0
 13 14  2  0  0  0  0
 15 21  1  0  0  0  0
 16 22  1  0  0  0  0
 17 23  1  0  0  0  0
 18 24  1  0  0  0  0
 19 25  1  0  0  0  0
 20 26  1  0  0  0  0
 21 23  2  0  0  0  0
 22 24  2  0  0  0  0
 25 27  1  0  0  0  0
 26 28  1  0  0  0  0
 27 29  1  0  0  0  0
 28 30  1  0  0  0  0
 29 31  1  0  0  0  0
 30 32  1  0  0  0  0
 31 33  1  0  0  0  0
 32 34  1  0  0  0  0
 33 35  1  0  0  0  0
 34 36  1  0  0  0  0
 35 37  1  0  0  0  0
 36 38  1  0  0  0  0
 37 39  1  0  0  0  0
 38 40  1  0  0  0  0
 39 41  1  0  0  0  0
 40 42  1  0  0  0  0
 41 43  1  0  0  0  0
 42 44  1  0  0  0  0
 43 45  1  0  0  0  0
 44 46  1  0  0  0  0
M  CHG  4   1  -1   2  -1   5   1   6   1
M  END
> <PUBCHEM_COMPOUND_ID_TYPE>
0

> <PUBCHEM_TOTAL_CHARGE>
0

> <PUBCHEM_SUBSTANCE_ID>
310937970

> <PUBCHEM_SUBSTANCE_VERSION>
1

> <PUBCHEM_EXT_DATASOURCE_NAME>
4488

> <PUBCHEM_EXT_DATASOURCE_REGID>
SCHEMBL16115802

> <PUBCHEM_SUBSTANCE_COMMENT>
InChI=1S/C40H62N2O2.2BrH/c1-3-5-7-9-11-13-15-17-19-23-33-41-35-25-21-27-39(41)43-37-29-31-38(32-30-37)44-40-28-22-26-36-42(40)34-24-20-18-16-14-12-10-8-6-4-2;;/h21-22,25-32,35-36H,3-20,23-24,33-34H2,1-2H3;2*1H/q+2;;/p-2
InChIKey=YDCZZWNVBXWCMK-UHFFFAOYSA-L

> <PUBCHEM_SUBSTANCE_SYNONYM>
SCHEMBL16115802

> <PUBCHEM_XREF_EXT_ID>
SCHEMBL16115802

> <PUBCHEM_EXT_DATASOURCE_URL>
https://www.surechembl.org/

> <PUBCHEM_EXT_SUBSTANCE_URL>
https://www.surechembl.org/chemical/SCHEMBL16115802

> <PUBCHEM_CID_ASSOCIATIONS>
117605570  1
260  2
117605571  2

> <PUBCHEM_COORDINATE_TYPE>
1
3

$$$$
