310931890
  -OEChem-07211613022D

 20 21  0     1  0  0  0  0  0999 V2000
   -1.4289    0.0000    0.0000 O   0  0  0  0  0  0  0  0  0  0  0  0
    0.7145   -1.2375    0.0000 O   0  0  0  0  0  0  0  0  0  0  0  0
   -2.7796   -2.0195    0.0000 O   0  5  0  0  0  0  0  0  0  0  0  0
   -2.3381   -0.6605    0.0000 O   0  0  0  0  0  0  0  0  0  0  0  0
    2.8579    0.0000    0.0000 O   0  5  0  0  0  0  0  0  0  0  0  0
    2.1434   -1.2375    0.0000 O   0  0  0  0  0  0  0  0  0  0  0  0
   -0.7145   -1.2375    0.0000 N   0  0  0  0  0  0  0  0  0  0  0  0
    2.1434   -0.4125    0.0000 N   0  3  0  0  0  0  0  0  0  0  0  0
    0.0000    0.0000    0.0000 C   0  0  0  0  0  0  0  0  0  0  0  0
   -0.7145   -0.4125    0.0000 C   0  0  0  0  0  0  0  0  0  0  0  0
    0.7145   -0.4125    0.0000 C   0  0  0  0  0  0  0  0  0  0  0  0
   -1.3819   -1.7224    0.0000 C   0  0  3  0  0  0  0  0  0  0  0  0
    1.4289    0.0000    0.0000 C   0  0  0  0  0  0  0  0  0  0  0  0
    0.0000    0.8250    0.0000 C   0  0  0  0  0  0  0  0  0  0  0  0
   -0.0470   -1.7224    0.0000 C   0  0  0  0  0  0  0  0  0  0  0  0
   -1.1270   -2.5070    0.0000 C   0  0  0  0  0  0  0  0  0  0  0  0
   -2.1665   -1.4675    0.0000 C   0  0  0  0  0  0  0  0  0  0  0  0
    1.4289    0.8250    0.0000 C   0  0  0  0  0  0  0  0  0  0  0  0
   -0.3020   -2.5070    0.0000 C   0  0  0  0  0  0  0  0  0  0  0  0
    0.7145    1.2375    0.0000 C   0  0  0  0  0  0  0  0  0  0  0  0
  1 10  2  0  0  0  0
  2 11  1  0  0  0  0
  3 17  1  0  0  0  0
  4 17  2  0  0  0  0
  5  8  1  0  0  0  0
  6  8  2  0  0  0  0
  7 10  1  0  0  0  0
  7 12  1  0  0  0  0
  7 15  1  0  0  0  0
  8 13  1  0  0  0  0
  9 10  1  0  0  0  0
  9 11  2  0  0  0  0
  9 14  1  0  0  0  0
 11 13  1  0  0  0  0
 12 16  1  0  0  0  0
 12 17  1  6  0  0  0
 13 18  2  0  0  0  0
 14 20  2  0  0  0  0
 15 19  1  0  0  0  0
 16 19  1  0  0  0  0
 18 20  1  0  0  0  0
M  CHG  3   3  -1   5  -1   8   1
M  END
> <PUBCHEM_COMPOUND_ID_TYPE>
0

> <PUBCHEM_TOTAL_CHARGE>
-1

> <PUBCHEM_SUBSTANCE_ID>
310931890

> <PUBCHEM_SUBSTANCE_VERSION>
1

> <PUBCHEM_EXT_DATASOURCE_NAME>
4488

> <PUBCHEM_EXT_DATASOURCE_REGID>
SCHEMBL16109225

> <PUBCHEM_SUBSTANCE_COMMENT>
InChI=1S/C12H12N2O6/c15-10-7(3-1-4-8(10)14(19)20)11(16)13-6-2-5-9(13)12(17)18/h1,3-4,9,15H,2,5-6H2,(H,17,18)/p-1/t9-/m1/s1
InChIKey=DSMKNCMQGVBGMI-SECBINFHSA-M

> <PUBCHEM_SUBSTANCE_SYNONYM>
SCHEMBL16109225

> <PUBCHEM_XREF_EXT_ID>
SCHEMBL16109225

> <PUBCHEM_EXT_DATASOURCE_URL>
https://www.surechembl.org/

> <PUBCHEM_EXT_SUBSTANCE_URL>
https://www.surechembl.org/chemical/SCHEMBL16109225

> <PUBCHEM_CID_ASSOCIATIONS>
117600548  1
89525475  2

> <PUBCHEM_COORDINATE_TYPE>
1
3

> <PUBCHEM_BONDANNOTATIONS>
12  17  6

$$$$
