310929024
  -OEChem-07211613022D

 23 22  0     0  0  0  0  0  0999 V2000
    0.3572   -2.3645    0.0000 S   0  0  0  0  0  0  0  0  0  0  0  0
    1.0718   -1.9520    0.0000 O   0  5  0  0  0  0  0  0  0  0  0  0
    0.7697   -3.0790    0.0000 O   0  0  0  0  0  0  0  0  0  0  0  0
   -0.0553   -1.6500    0.0000 O   0  0  0  0  0  0  0  0  0  0  0  0
   -0.7145   -0.8250    0.0000 O   0  0  0  0  0  0  0  0  0  0  0  0
   -1.4290    0.4125    0.0000 O   0  0  0  0  0  0  0  0  0  0  0  0
    1.4290   -0.4125    0.0000 N   0  3  0  0  0  0  0  0  0  0  0  0
   -0.3572   -2.7770    0.0000 C   0  0  0  0  0  0  0  0  0  0  0  0
   -1.0718   -2.3645    0.0000 C   0  0  0  0  0  0  0  0  0  0  0  0
   -0.3572   -3.6020    0.0000 C   0  0  0  0  0  0  0  0  0  0  0  0
   -1.7862   -3.6020    0.0000 C   0  0  0  0  0  0  0  0  0  0  0  0
   -1.7862   -2.7770    0.0000 C   0  0  0  0  0  0  0  0  0  0  0  0
   -1.0718   -4.0145    0.0000 C   0  0  0  0  0  0  0  0  0  0  0  0
   -2.5007   -4.0145    0.0000 C   0  0  0  0  0  0  0  0  0  0  0  0
    0.7145   -0.8250    0.0000 C   0  0  0  0  0  0  0  0  0  0  0  0
    0.0000   -0.4125    0.0000 C   0  0  0  0  0  0  0  0  0  0  0  0
   -1.4290   -0.4125    0.0000 C   0  0  0  0  0  0  0  0  0  0  0  0
    2.1435    0.0000    0.0000 C   0  0  0  0  0  0  0  0  0  0  0  0
    1.4290    0.4125    0.0000 C   0  0  0  0  0  0  0  0  0  0  0  0
    2.1435   -0.8250    0.0000 C   0  0  0  0  0  0  0  0  0  0  0  0
   -2.1435   -0.8250    0.0000 C   0  0  0  0  0  0  0  0  0  0  0  0
   -2.8579   -0.4125    0.0000 C   0  0  0  0  0  0  0  0  0  0  0  0
   -3.5724   -0.8250    0.0000 C   0  0  0  0  0  0  0  0  0  0  0  0
  1  2  1  0  0  0  0
  1  3  2  0  0  0  0
  1  4  2  0  0  0  0
  1  8  1  0  0  0  0
  5 16  1  0  0  0  0
  5 17  1  0  0  0  0
  6 17  2  0  0  0  0
  7 15  1  0  0  0  0
  7 18  1  0  0  0  0
  7 19  1  0  0  0  0
  7 20  1  0  0  0  0
  8  9  2  0  0  0  0
  8 10  1  0  0  0  0
  9 12  1  0  0  0  0
 10 13  2  0  0  0  0
 11 12  2  0  0  0  0
 11 13  1  0  0  0  0
 11 14  1  0  0  0  0
 15 16  1  0  0  0  0
 17 21  1  0  0  0  0
 21 22  1  0  0  0  0
 22 23  1  0  0  0  0
M  CHG  2   2  -1   7   1
M  END
> <PUBCHEM_COMPOUND_ID_TYPE>
0

> <PUBCHEM_TOTAL_CHARGE>
0

> <PUBCHEM_SUBSTANCE_ID>
310929024

> <PUBCHEM_SUBSTANCE_VERSION>
1

> <PUBCHEM_EXT_DATASOURCE_NAME>
4488

> <PUBCHEM_EXT_DATASOURCE_REGID>
SCHEMBL16106182

> <PUBCHEM_SUBSTANCE_COMMENT>
InChI=1S/C9H20NO2.C7H8O3S/c1-5-6-9(11)12-8-7-10(2,3)4;1-6-2-4-7(5-3-6)11(8,9)10/h5-8H2,1-4H3;2-5H,1H3,(H,8,9,10)/q+1;/p-1
InChIKey=DZSWXVDFVYXLHS-UHFFFAOYSA-M

> <PUBCHEM_SUBSTANCE_SYNONYM>
SCHEMBL16106182

> <PUBCHEM_XREF_EXT_ID>
SCHEMBL16106182

> <PUBCHEM_EXT_DATASOURCE_URL>
https://www.surechembl.org/

> <PUBCHEM_EXT_SUBSTANCE_URL>
https://www.surechembl.org/chemical/SCHEMBL16106182

> <PUBCHEM_CID_ASSOCIATIONS>
24189112  1
6101  2
17233  2

> <PUBCHEM_COORDINATE_TYPE>
1
3

$$$$
