310930567
  -OEChem-07211613022D

 24 22  0     0  0  0  0  0  0999 V2000
    7.4536   -1.5085    0.0000 S   0  0  0  0  0  0  0  0  0  0  0  0
    2.4845   -1.4493    0.0000 P   0  3  0  0  0  0  0  0  0  0  0  0
    6.7142   -2.7508    0.0000 F   0  0  0  0  0  0  0  0  0  0  0  0
    7.4536   -3.1944    0.0000 F   0  0  0  0  0  0  0  0  0  0  0  0
    8.1635   -3.5789    0.0000 F   0  0  0  0  0  0  0  0  0  0  0  0
    8.8734   -2.3367    0.0000 F   0  0  0  0  0  0  0  0  0  0  0  0
    7.4536   -0.7099    0.0000 O   0  5  0  0  0  0  0  0  0  0  0  0
    8.3410   -1.5085    0.0000 O   0  0  0  0  0  0  0  0  0  0  0  0
    6.6255   -1.5085    0.0000 O   0  0  0  0  0  0  0  0  0  0  0  0
    7.4536   -2.3367    0.0000 C   0  0  0  0  0  0  0  0  0  0  0  0
    8.1635   -2.7508    0.0000 C   0  0  0  0  0  0  0  0  0  0  0  0
    1.6859   -1.4493    0.0000 C   0  0  0  0  0  0  0  0  0  0  0  0
    2.8986   -2.1592    0.0000 C   0  0  0  0  0  0  0  0  0  0  0  0
    2.8986   -0.7394    0.0000 C   0  0  0  0  0  0  0  0  0  0  0  0
    2.1000   -2.1592    0.0000 C   0  0  0  0  0  0  0  0  0  0  0  0
    1.2423   -0.7394    0.0000 C   0  0  0  0  0  0  0  0  0  0  0  0
    2.4845   -2.8986    0.0000 C   0  0  0  0  0  0  0  0  0  0  0  0
    3.7268   -0.7099    0.0000 C   0  0  0  0  0  0  0  0  0  0  0  0
    0.4141   -0.7394    0.0000 C   0  0  0  0  0  0  0  0  0  0  0  0
    2.8986   -3.6085    0.0000 C   0  0  0  0  0  0  0  0  0  0  0  0
    4.1409    0.0000    0.0000 C   0  0  0  0  0  0  0  0  0  0  0  0
    0.0000   -0.0296    0.0000 C   0  0  0  0  0  0  0  0  0  0  0  0
    2.4845   -4.3184    0.0000 C   0  0  0  0  0  0  0  0  0  0  0  0
    4.9691    0.0000    0.0000 C   0  0  0  0  0  0  0  0  0  0  0  0
  1  7  1  0  0  0  0
  1  8  2  0  0  0  0
  1  9  2  0  0  0  0
  1 10  1  0  0  0  0
  2 12  1  0  0  0  0
  2 13  1  0  0  0  0
  2 14  1  0  0  0  0
  2 15  1  0  0  0  0
  3 10  1  0  0  0  0
  4 10  1  0  0  0  0
  5 11  1  0  0  0  0
  6 11  1  0  0  0  0
 10 11  1  0  0  0  0
 12 16  1  0  0  0  0
 13 17  1  0  0  0  0
 14 18  1  0  0  0  0
 16 19  1  0  0  0  0
 17 20  1  0  0  0  0
 18 21  1  0  0  0  0
 19 22  1  0  0  0  0
 20 23  1  0  0  0  0
 21 24  1  0  0  0  0
M  CHG  2   2   1   7  -1
M  END
> <PUBCHEM_COMPOUND_ID_TYPE>
0

> <PUBCHEM_TOTAL_CHARGE>
0

> <PUBCHEM_SUBSTANCE_ID>
310930567

> <PUBCHEM_SUBSTANCE_VERSION>
1

> <PUBCHEM_EXT_DATASOURCE_NAME>
4488

> <PUBCHEM_EXT_DATASOURCE_REGID>
SCHEMBL16107862

> <PUBCHEM_SUBSTANCE_COMMENT>
InChI=1S/C13H30P.C2H2F4O3S/c1-5-8-11-14(4,12-9-6-2)13-10-7-3;3-1(4)2(5,6)10(7,8)9/h5-13H2,1-4H3;1H,(H,7,8,9)/q+1;/p-1
InChIKey=RQHLFXLKYNOAOB-UHFFFAOYSA-M

> <PUBCHEM_SUBSTANCE_SYNONYM>
SCHEMBL16107862

> <PUBCHEM_XREF_EXT_ID>
SCHEMBL16107862

> <PUBCHEM_EXT_DATASOURCE_URL>
https://www.surechembl.org/

> <PUBCHEM_EXT_SUBSTANCE_URL>
https://www.surechembl.org/chemical/SCHEMBL16107862

> <PUBCHEM_CID_ASSOCIATIONS>
117599655  1
2760115  2
10176391  2

> <PUBCHEM_COORDINATE_TYPE>
1
3

$$$$
