310936453
  -OEChem-07211613022D

 64 71  0     0  0  0  0  0  0999 V2000
    1.4289   -6.6000    0.0000 Cl  0  0  0  0  0  0  0  0  0  0  0  0
    4.2868    3.3000    0.0000 S   0  0  0  0  0  0  0  0  0  0  0  0
    2.1434    1.2375    0.0000 O   0  0  0  0  0  0  0  0  0  0  0  0
    3.4618    3.3000    0.0000 O   0  0  0  0  0  0  0  0  0  0  0  0
    3.6194    2.8151    0.0000 O   0  0  0  0  0  0  0  0  0  0  0  0
    2.8579    2.4750    0.0000 O   0  0  0  0  0  0  0  0  0  0  0  0
    7.5868    1.8711    0.0000 O   0  5  0  0  0  0  0  0  0  0  0  0
    6.3493    1.1566    0.0000 O   0  0  0  0  0  0  0  0  0  0  0  0
    6.1875    5.6033    0.0000 O   0  0  0  0  0  0  0  0  0  0  0  0
    8.8712    5.3553    0.0000 O   0  5  0  0  0  0  0  0  0  0  0  0
    8.7715    3.9299    0.0000 O   0  0  0  0  0  0  0  0  0  0  0  0
    4.2868    2.4750    0.0000 N   0  0  0  0  0  0  0  0  0  0  0  0
    3.5724   -1.2375    0.0000 N   0  0  0  0  0  0  0  0  0  0  0  0
    7.5868    3.3000    0.0000 N   0  0  0  0  0  0  0  0  0  0  0  0
    6.7618    1.8711    0.0000 N   0  3  0  0  0  0  0  0  0  0  0  0
    3.5724   -2.8875    0.0000 N   0  0  0  0  0  0  0  0  0  0  0  0
    0.7145   -0.4125    0.0000 N   0  0  0  0  0  0  0  0  0  0  0  0
   -0.7846   -0.2549    0.0000 N   0  0  0  0  0  0  0  0  0  0  0  0
    5.1118    3.3000    0.0000 C   0  0  0  0  0  0  0  0  0  0  0  0
    3.5724    1.2375    0.0000 C   0  0  0  0  0  0  0  0  0  0  0  0
    2.8579    0.8250    0.0000 C   0  0  0  0  0  0  0  0  0  0  0  0
    3.5724    2.0625    0.0000 C   0  0  0  0  0  0  0  0  0  0  0  0
    6.3493    2.5855    0.0000 C   0  0  0  0  0  0  0  0  0  0  0  0
    6.7618    3.3000    0.0000 C   0  0  0  0  0  0  0  0  0  0  0  0
    3.5724   -0.4125    0.0000 C   0  0  0  0  0  0  0  0  0  0  0  0
    5.5243    2.5855    0.0000 C   0  0  0  0  0  0  0  0  0  0  0  0
    2.8579    0.0000    0.0000 C   0  0  0  0  0  0  0  0  0  0  0  0
    5.5243    4.0145    0.0000 C   0  0  0  0  0  0  0  0  0  0  0  0
    4.2868    0.8250    0.0000 C   0  0  0  0  0  0  0  0  0  0  0  0
    7.5868    4.7289    0.0000 C   0  0  0  0  0  0  0  0  0  0  0  0
    6.3493    4.0145    0.0000 C   0  0  0  0  0  0  0  0  0  0  0  0
    4.2868    0.0000    0.0000 C   0  0  0  0  0  0  0  0  0  0  0  0
    1.4289    0.8250    0.0000 C   0  0  0  0  0  0  0  0  0  0  0  0
    4.2868   -4.9500    0.0000 C   0  0  0  0  0  0  0  0  0  0  0  0
    4.2868   -4.1250    0.0000 C   0  0  0  0  0  0  0  0  0  0  0  0
    7.9993    4.0145    0.0000 C   0  0  0  0  0  0  0  0  0  0  0  0
    5.7158   -4.9500    0.0000 C   0  0  0  0  0  0  0  0  0  0  0  0
    0.0000    0.8250    0.0000 C   0  0  0  0  0  0  0  0  0  0  0  0
    3.5724   -5.3625    0.0000 C   0  0  0  0  0  0  0  0  0  0  0  0
    0.0000    0.0000    0.0000 C   0  0  0  0  0  0  0  0  0  0  0  0
    5.0013   -5.3625    0.0000 C   0  0  0  0  0  0  0  0  0  0  0  0
    0.7145    1.2375    0.0000 C   0  0  0  0  0  0  0  0  0  0  0  0
    4.2868   -1.6500    0.0000 C   0  0  0  0  0  0  0  0  0  0  0  0
    2.8579   -1.6500    0.0000 C   0  0  0  0  0  0  0  0  0  0  0  0
    3.5724   -3.7125    0.0000 C   0  0  0  0  0  0  0  0  0  0  0  0
    8.4098    4.6714    0.0000 C   0  0  0  0  0  0  0  0  0  0  0  0
    1.4289    0.0000    0.0000 C   0  0  0  0  0  0  0  0  0  0  0  0
    5.0013   -3.7125    0.0000 C   0  0  0  0  0  0  0  0  0  0  0  0
    7.6156    5.5534    0.0000 C   0  0  0  0  0  0  0  0  0  0  0  0
    6.8584    4.3416    0.0000 C   0  0  0  0  0  0  0  0  0  0  0  0
    4.2868   -2.4750    0.0000 C   0  0  0  0  0  0  0  0  0  0  0  0
    2.8579   -2.4750    0.0000 C   0  0  0  0  0  0  0  0  0  0  0  0
    5.7158   -4.1250    0.0000 C   0  0  0  0  0  0  0  0  0  0  0  0
   -0.7846    1.0799    0.0000 C   0  0  0  0  0  0  0  0  0  0  0  0
    3.5724   -6.1875    0.0000 C   0  0  0  0  0  0  0  0  0  0  0  0
    2.8579   -4.9500    0.0000 C   0  0  0  0  0  0  0  0  0  0  0  0
   -1.2695    0.4125    0.0000 C   0  0  0  0  0  0  0  0  0  0  0  0
    6.9160    5.9906    0.0000 C   0  0  0  0  0  0  0  0  0  0  0  0
    6.1588    4.7788    0.0000 C   0  0  0  0  0  0  0  0  0  0  0  0
    6.5403   -4.9788    0.0000 C   0  0  0  0  0  0  0  0  0  0  0  0
    6.1530   -5.6496    0.0000 C   0  0  0  0  0  0  0  0  0  0  0  0
    2.8579   -6.6000    0.0000 C   0  0  0  0  0  0  0  0  0  0  0  0
    2.1434   -5.3625    0.0000 C   0  0  0  0  0  0  0  0  0  0  0  0
    2.1434   -6.1875    0.0000 C   0  0  0  0  0  0  0  0  0  0  0  0
  1 64  1  0  0  0  0
  2  4  2  0  0  0  0
  2  5  2  0  0  0  0
  2 12  1  0  0  0  0
  2 19  1  0  0  0  0
  3 21  1  0  0  0  0
  3 33  1  0  0  0  0
  6 22  2  0  0  0  0
  7 15  1  0  0  0  0
  8 15  2  0  0  0  0
  9 58  1  0  0  0  0
  9 59  1  0  0  0  0
 10 46  1  0  0  0  0
 11 46  2  0  0  0  0
 12 22  1  0  0  0  0
 13 25  1  0  0  0  0
 13 43  1  0  0  0  0
 13 44  1  0  0  0  0
 14 24  1  0  0  0  0
 14 36  1  0  0  0  0
 15 23  1  0  0  0  0
 16 45  1  0  0  0  0
 16 51  1  0  0  0  0
 16 52  1  0  0  0  0
 17 40  2  0  0  0  0
 17 47  1  0  0  0  0
 18 40  1  0  0  0  0
 18 57  1  0  0  0  0
 19 26  2  0  0  0  0
 19 28  1  0  0  0  0
 20 21  2  0  0  0  0
 20 22  1  0  0  0  0
 20 29  1  0  0  0  0
 21 27  1  0  0  0  0
 23 24  2  0  0  0  0
 23 26  1  0  0  0  0
 24 31  1  0  0  0  0
 25 27  2  0  0  0  0
 25 32  1  0  0  0  0
 28 31  2  0  0  0  0
 29 32  2  0  0  0  0
 30 36  1  0  0  0  0
 30 46  1  0  0  0  0
 30 49  1  0  0  0  0
 30 50  1  0  0  0  0
 33 42  1  0  0  0  0
 33 47  2  0  0  0  0
 34 35  2  0  0  0  0
 34 39  1  0  0  0  0
 34 41  1  0  0  0  0
 35 45  1  0  0  0  0
 35 48  1  0  0  0  0
 37 41  1  0  0  0  0
 37 53  1  0  0  0  0
 37 60  1  0  0  0  0
 37 61  1  0  0  0  0
 38 40  1  0  0  0  0
 38 42  2  0  0  0  0
 38 54  1  0  0  0  0
 39 55  2  0  0  0  0
 39 56  1  0  0  0  0
 43 51  1  0  0  0  0
 44 52  1  0  0  0  0
 48 53  1  0  0  0  0
 49 58  1  0  0  0  0
 50 59  1  0  0  0  0
 54 57  2  0  0  0  0
 55 62  1  0  0  0  0
 56 63  2  0  0  0  0
 62 64  2  0  0  0  0
 63 64  1  0  0  0  0
M  CHG  3   7  -1  10  -1  15   1
M  END
> <PUBCHEM_COMPOUND_ID_TYPE>
0

> <PUBCHEM_TOTAL_CHARGE>
-1

> <PUBCHEM_SUBSTANCE_ID>
310936453

> <PUBCHEM_SUBSTANCE_VERSION>
1

> <PUBCHEM_EXT_DATASOURCE_NAME>
4488

> <PUBCHEM_EXT_DATASOURCE_REGID>
SCHEMBL16114095

> <PUBCHEM_SUBSTANCE_COMMENT>
InChI=1S/C46H50ClN7O9S/c1-45(2)13-11-32(38(26-45)30-3-5-33(47)6-4-30)28-52-17-19-53(20-18-52)34-7-9-37(41(24-34)63-35-23-31-12-16-48-42(31)49-27-35)43(55)51-64(60,61)36-8-10-39(40(25-36)54(58)59)50-29-46(44(56)57)14-21-62-22-15-46/h3-10,12,16,23-25,27,50H,11,13-15,17-22,26,28-29H2,1-2H3,(H,48,49)(H,51,55)(H,56,57)/p-1
InChIKey=OXWPOKDIAWCIOR-UHFFFAOYSA-M

> <PUBCHEM_SUBSTANCE_SYNONYM>
SCHEMBL16114095

> <PUBCHEM_XREF_EXT_ID>
SCHEMBL16114095

> <PUBCHEM_EXT_DATASOURCE_URL>
https://www.surechembl.org/

> <PUBCHEM_EXT_SUBSTANCE_URL>
https://www.surechembl.org/chemical/SCHEMBL16114095

> <PUBCHEM_CID_ASSOCIATIONS>
117604385  1
117604383  2

> <PUBCHEM_COORDINATE_TYPE>
1
3

$$$$
