310930633
  -OEChem-07211613022D

 26 25  0     1  0  0  0  0  0999 V2000
    7.3659   -0.9207    0.0000 S   0  0  0  0  0  0  0  0  0  0  0  0
    3.5724   -2.2540    0.0000 O   0  0  0  0  0  0  0  0  0  0  0  0
    1.4290   -1.8415    0.0000 O   0  0  0  0  0  0  0  0  0  0  0  0
   -0.7145   -2.2540    0.0000 O   0  0  0  0  0  0  0  0  0  0  0  0
    8.1910   -0.9207    0.0000 O   0  5  0  0  0  0  0  0  0  0  0  0
    7.3659   -1.7457    0.0000 O   0  0  0  0  0  0  0  0  0  0  0  0
    7.3659   -0.0957    0.0000 O   0  0  0  0  0  0  0  0  0  0  0  0
   -2.8579   -1.8415    0.0000 O   0  0  0  0  0  0  0  0  0  0  0  0
    2.8579   -1.0165    0.0000 N   0  3  0  0  0  0  0  0  0  0  0  0
    2.8579   -1.8415    0.0000 C   0  0  3  0  0  0  0  0  0  0  0  0
    2.0329   -1.0165    0.0000 C   0  0  0  0  0  0  0  0  0  0  0  0
    3.2704   -0.3020    0.0000 C   0  0  0  0  0  0  0  0  0  0  0  0
    3.5724   -1.4290    0.0000 C   0  0  0  0  0  0  0  0  0  0  0  0
    2.1435   -2.2540    0.0000 C   0  0  0  0  0  0  0  0  0  0  0  0
    1.6204   -0.3020    0.0000 C   0  0  0  0  0  0  0  0  0  0  0  0
    2.8579    0.4125    0.0000 C   0  0  0  0  0  0  0  0  0  0  0  0
    2.0329    0.4125    0.0000 C   0  0  0  0  0  0  0  0  0  0  0  0
    4.2869   -1.0165    0.0000 C   0  0  0  0  0  0  0  0  0  0  0  0
    4.2869   -1.8415    0.0000 C   0  0  0  0  0  0  0  0  0  0  0  0
    5.0014   -1.4290    0.0000 C   0  0  0  0  0  0  0  0  0  0  0  0
    0.7145   -2.2540    0.0000 C   0  0  0  0  0  0  0  0  0  0  0  0
    0.0000   -1.8415    0.0000 C   0  0  0  0  0  0  0  0  0  0  0  0
    5.7159   -1.0165    0.0000 C   0  0  0  0  0  0  0  0  0  0  0  0
   -1.4290   -1.8415    0.0000 C   0  0  0  0  0  0  0  0  0  0  0  0
    6.5409   -0.9207    0.0000 C   0  0  0  0  0  0  0  0  0  0  0  0
   -2.1435   -2.2540    0.0000 C   0  0  0  0  0  0  0  0  0  0  0  0
  1  5  1  0  0  0  0
  1  6  2  0  0  0  0
  1  7  2  0  0  0  0
  1 25  1  0  0  0  0
  2 10  1  0  0  0  0
  2 19  1  0  0  0  0
  3 14  1  0  0  0  0
  3 21  1  0  0  0  0
  4 22  1  0  0  0  0
  4 24  1  0  0  0  0
  8 26  1  0  0  0  0
  9 10  1  0  0  0  0
  9 11  1  0  0  0  0
  9 12  1  0  0  0  0
  9 13  1  0  0  0  0
 10 14  1  0  0  0  0
 11 15  1  0  0  0  0
 12 16  1  0  0  0  0
 13 18  1  0  0  0  0
 15 17  1  0  0  0  0
 16 17  1  0  0  0  0
 18 20  1  0  0  0  0
 20 23  1  0  0  0  0
 21 22  1  0  0  0  0
 24 26  1  0  0  0  0
M  CHG  2   5  -1   9   1
M  END
> <PUBCHEM_COMPOUND_ID_TYPE>
0

> <PUBCHEM_TOTAL_CHARGE>
0

> <PUBCHEM_SUBSTANCE_ID>
310930633

> <PUBCHEM_SUBSTANCE_VERSION>
1

> <PUBCHEM_EXT_DATASOURCE_NAME>
4488

> <PUBCHEM_EXT_DATASOURCE_REGID>
SCHEMBL16107930

> <PUBCHEM_SUBSTANCE_COMMENT>
InChI=1S/C16H34NO4.CH4O3S/c1-3-4-8-17(9-6-5-7-10-17)16(19-2)15-21-14-13-20-12-11-18;1-5(2,3)4/h16,18H,3-15H2,1-2H3;1H3,(H,2,3,4)/q+1;/p-1
InChIKey=CGDAKGCNPCEPLL-UHFFFAOYSA-M

> <PUBCHEM_SUBSTANCE_SYNONYM>
SCHEMBL16107930

> <PUBCHEM_XREF_EXT_ID>
SCHEMBL16107930

> <PUBCHEM_EXT_DATASOURCE_URL>
https://www.surechembl.org/

> <PUBCHEM_EXT_SUBSTANCE_URL>
https://www.surechembl.org/chemical/SCHEMBL16107930

> <PUBCHEM_CID_ASSOCIATIONS>
117599697  1
6395  2
117599698  2

> <PUBCHEM_COORDINATE_TYPE>
1
3

$$$$
