310929026
  -OEChem-07211613022D

 18 15  0     1  0  0  0  0  0999 V2000
    4.5431   -1.0864    0.0000 Cl  0  5  0  0  0  0  0  0  0  0  0  0
    8.6582    0.0000    0.0000 O   0  0  0  0  0  0  0  0  0  0  0  0
    7.0122   -1.4485    0.0000 O   0  0  0  0  0  0  0  0  0  0  0  0
    8.2302   -2.1728    0.0000 O   0  0  0  0  0  0  0  0  0  0  0  0
    6.1891    0.0000    0.0000 O   0  0  0  0  0  0  0  0  0  0  0  0
    9.8762   -0.7243    0.0000 O   0  0  0  0  0  0  0  0  0  0  0  0
    2.8641   -0.6914    0.0000 O   0  0  0  0  0  0  0  0  0  0  0  0
    0.7243   -1.0864    0.0000 N   0  3  0  0  0  0  0  0  0  0  0  0
    8.2302   -0.7243    0.0000 C   0  0  0  0  0  0  0  0  0  0  0  0
    7.4072   -0.7243    0.0000 C   0  0  3  0  0  0  0  0  0  0  0  0
    8.6582   -1.4485    0.0000 C   0  0  3  0  0  0  0  0  0  0  0  0
    7.0122    0.0000    0.0000 C   0  0  0  0  0  0  0  0  0  0  0  0
    9.4812   -1.4485    0.0000 C   0  0  0  0  0  0  0  0  0  0  0  0
    1.4156   -0.6914    0.0000 C   0  0  0  0  0  0  0  0  0  0  0  0
    0.0000   -1.5143    0.0000 C   0  0  0  0  0  0  0  0  0  0  0  0
    0.2963   -0.3621    0.0000 C   0  0  0  0  0  0  0  0  0  0  0  0
    1.1522   -1.8107    0.0000 C   0  0  0  0  0  0  0  0  0  0  0  0
    2.1728   -1.0864    0.0000 C   0  0  0  0  0  0  0  0  0  0  0  0
  9  2  1  1  0  0  0
 10  3  1  1  0  0  0
 11  4  1  1  0  0  0
  5 12  1  0  0  0  0
  6 13  1  0  0  0  0
  7 18  1  0  0  0  0
  8 14  1  0  0  0  0
  8 15  1  0  0  0  0
  8 16  1  0  0  0  0
  8 17  1  0  0  0  0
  9 10  1  0  0  0  0
  9 11  1  0  0  0  0
 10 12  1  0  0  0  0
 11 13  1  0  0  0  0
 14 18  1  0  0  0  0
M  CHG  2   1  -1   8   1
M  END
> <PUBCHEM_COMPOUND_ID_TYPE>
0

> <PUBCHEM_TOTAL_CHARGE>
0

> <PUBCHEM_SUBSTANCE_ID>
310929026

> <PUBCHEM_SUBSTANCE_VERSION>
1

> <PUBCHEM_EXT_DATASOURCE_NAME>
4488

> <PUBCHEM_EXT_DATASOURCE_REGID>
SCHEMBL16106185

> <PUBCHEM_SUBSTANCE_COMMENT>
InChI=1S/C5H14NO.C5H12O5.ClH/c1-6(2,3)4-5-7;6-1-3(8)5(10)4(9)2-7;/h7H,4-5H2,1-3H3;3-10H,1-2H2;1H/q+1;;/p-1/t;3-,4+,5+;
InChIKey=ZGSFEESARAWUNV-HMNVGSEDSA-M

> <PUBCHEM_SUBSTANCE_SYNONYM>
SCHEMBL16106185

> <PUBCHEM_XREF_EXT_ID>
SCHEMBL16106185

> <PUBCHEM_EXT_DATASOURCE_URL>
https://www.surechembl.org/

> <PUBCHEM_EXT_SUBSTANCE_URL>
https://www.surechembl.org/chemical/SCHEMBL16106185

> <PUBCHEM_CID_ASSOCIATIONS>
117598546  1
305  2
313  2
6912  2

> <PUBCHEM_COORDINATE_TYPE>
1
3

> <PUBCHEM_BONDANNOTATIONS>
9  2  5
10  3  5
11  4  5

$$$$
