310929089
  -OEChem-07211613022D

 63 68  0     0  0  0  0  0  0999 V2000
   19.2045    2.5512    0.0000 S   0  0  0  0  0  0  0  0  0  0  0  0
   19.2907    1.2375    0.0000 O   0  0  0  0  0  0  0  0  0  0  0  0
   20.0052   -4.9500    0.0000 O   0  0  0  0  0  0  0  0  0  0  0  0
   18.5762   -1.6500    0.0000 O   0  0  0  0  0  0  0  0  0  0  0  0
   18.9224    3.3265    0.0000 O   0  0  0  0  0  0  0  0  0  0  0  0
   20.0170    2.4080    0.0000 O   0  0  0  0  0  0  0  0  0  0  0  0
   15.7184   -7.4250    0.0000 O   0  0  0  0  0  0  0  0  0  0  0  0
   17.1473   -9.9000    0.0000 O   0  0  0  0  0  0  0  0  0  0  0  0
   13.5749   -7.8375    0.0000 O   0  0  0  0  0  0  0  0  0  0  0  0
   11.4315   -7.4250    0.0000 O   0  0  0  0  0  0  0  0  0  0  0  0
    9.2881   -7.8375    0.0000 O   0  0  0  0  0  0  0  0  0  0  0  0
   18.6742    1.9192    0.0000 N   0  0  0  0  0  0  0  0  0  0  0  0
   19.2907   -0.4125    0.0000 N   0  0  0  0  0  0  0  0  0  0  0  0
   20.0052   -1.6500    0.0000 N   0  0  0  0  0  0  0  0  0  0  0  0
   19.2907   -6.1875    0.0000 N   0  0  0  0  0  0  0  0  0  0  0  0
   18.5762   -7.4250    0.0000 N   0  0  0  0  0  0  0  0  0  0  0  0
   17.8618   -6.1875    0.0000 N   0  0  0  0  0  0  0  0  0  0  0  0
   17.8618    2.0625    0.0000 C   0  0  0  0  0  0  0  0  0  0  0  0
   17.8618    1.2375    0.0000 C   0  0  0  0  0  0  0  0  0  0  0  0
   18.5762    0.8250    0.0000 C   0  0  0  0  0  0  0  0  0  0  0  0
   18.5762    0.0000    0.0000 C   0  0  0  0  0  0  0  0  0  0  0  0
   17.1473    0.0000    0.0000 C   0  0  0  0  0  0  0  0  0  0  0  0
   17.1473    0.8250    0.0000 C   0  0  0  0  0  0  0  0  0  0  0  0
   17.8618   -0.4125    0.0000 C   0  0  0  0  0  0  0  0  0  0  0  0
   18.1439    2.8377    0.0000 C   0  0  0  0  0  0  0  0  0  0  0  0
   17.0493    1.9192    0.0000 C   0  0  0  0  0  0  0  0  0  0  0  0
   16.4328   -0.4125    0.0000 C   0  0  0  0  0  0  0  0  0  0  0  0
   20.7197   -2.8875    0.0000 C   0  0  0  0  0  0  0  0  0  0  0  0
   19.2907   -1.2375    0.0000 C   0  0  0  0  0  0  0  0  0  0  0  0
   17.6136    3.4697    0.0000 C   0  0  0  0  0  0  0  0  0  0  0  0
   16.5190    2.5512    0.0000 C   0  0  0  0  0  0  0  0  0  0  0  0
   20.0052   -2.4750    0.0000 C   0  0  0  0  0  0  0  0  0  0  0  0
   20.7197   -3.7125    0.0000 C   0  0  0  0  0  0  0  0  0  0  0  0
   20.0052   -4.1250    0.0000 C   0  0  0  0  0  0  0  0  0  0  0  0
   16.8012    3.3265    0.0000 C   0  0  0  0  0  0  0  0  0  0  0  0
   15.7184   -0.8250    0.0000 C   0  0  0  0  0  0  0  0  0  0  0  0
   16.0203    0.3020    0.0000 C   0  0  0  0  0  0  0  0  0  0  0  0
   16.8453   -1.1270    0.0000 C   0  0  0  0  0  0  0  0  0  0  0  0
   19.2907   -2.8875    0.0000 C   0  0  0  0  0  0  0  0  0  0  0  0
   19.2907   -3.7125    0.0000 C   0  0  0  0  0  0  0  0  0  0  0  0
   21.4341   -2.4750    0.0000 C   0  0  0  0  0  0  0  0  0  0  0  0
   21.4341   -4.1250    0.0000 C   0  0  0  0  0  0  0  0  0  0  0  0
   20.0052    0.8250    0.0000 C   0  0  0  0  0  0  0  0  0  0  0  0
   19.2907   -5.3625    0.0000 C   0  0  0  0  0  0  0  0  0  0  0  0
   22.1486   -2.8875    0.0000 C   0  0  0  0  0  0  0  0  0  0  0  0
   22.1486   -3.7125    0.0000 C   0  0  0  0  0  0  0  0  0  0  0  0
   18.5762   -6.6000    0.0000 C   0  0  0  0  0  0  0  0  0  0  0  0
   18.5762   -4.9500    0.0000 C   0  0  0  0  0  0  0  0  0  0  0  0
   17.8618   -7.8375    0.0000 C   0  0  0  0  0  0  0  0  0  0  0  0
   17.8618   -5.3625    0.0000 C   0  0  0  0  0  0  0  0  0  0  0  0
   17.1473   -7.4250    0.0000 C   0  0  0  0  0  0  0  0  0  0  0  0
   17.8618   -8.6625    0.0000 C   0  0  0  0  0  0  0  0  0  0  0  0
   16.4328   -7.8375    0.0000 C   0  0  0  0  0  0  0  0  0  0  0  0
   17.1473   -9.0750    0.0000 C   0  0  0  0  0  0  0  0  0  0  0  0
   16.4328   -8.6625    0.0000 C   0  0  0  0  0  0  0  0  0  0  0  0
   15.0039   -7.8375    0.0000 C   0  0  0  0  0  0  0  0  0  0  0  0
   16.4328  -10.3125    0.0000 C   0  0  0  0  0  0  0  0  0  0  0  0
   14.2894   -7.4250    0.0000 C   0  0  0  0  0  0  0  0  0  0  0  0
   12.8605   -7.4250    0.0000 C   0  0  0  0  0  0  0  0  0  0  0  0
   12.1460   -7.8375    0.0000 C   0  0  0  0  0  0  0  0  0  0  0  0
   10.7171   -7.8375    0.0000 C   0  0  0  0  0  0  0  0  0  0  0  0
   10.0026   -7.4250    0.0000 C   0  0  0  0  0  0  0  0  0  0  0  0
    8.5737   -7.4250    0.0000 C   0  0  0  0  0  0  0  0  0  0  0  0
  1  5  2  0  0  0  0
  1  6  2  0  0  0  0
  1 12  1  0  0  0  0
  2 20  1  0  0  0  0
  2 43  1  0  0  0  0
  3 34  1  0  0  0  0
  3 44  1  0  0  0  0
  4 29  2  0  0  0  0
  7 53  1  0  0  0  0
  7 56  1  0  0  0  0
  8 54  1  0  0  0  0
  8 57  1  0  0  0  0
  9 58  1  0  0  0  0
  9 59  1  0  0  0  0
 10 60  1  0  0  0  0
 10 61  1  0  0  0  0
 11 62  1  0  0  0  0
 11 63  1  0  0  0  0
 12 18  1  0  0  0  0
 13 21  1  0  0  0  0
 13 29  1  0  0  0  0
 14 29  1  0  0  0  0
 14 32  1  0  0  0  0
 15 44  1  0  0  0  0
 15 47  2  0  0  0  0
 16 47  1  0  0  0  0
 16 49  1  0  0  0  0
 17 47  1  0  0  0  0
 17 50  2  0  0  0  0
 18 19  1  0  0  0  0
 18 25  1  0  0  0  0
 18 26  1  0  0  0  0
 19 20  2  0  0  0  0
 19 23  1  0  0  0  0
 20 21  1  0  0  0  0
 21 24  2  0  0  0  0
 22 23  2  0  0  0  0
 22 24  1  0  0  0  0
 22 27  1  0  0  0  0
 25 30  1  0  0  0  0
 26 31  1  0  0  0  0
 27 36  1  0  0  0  0
 27 37  1  0  0  0  0
 27 38  1  0  0  0  0
 28 32  1  0  0  0  0
 28 33  1  0  0  0  0
 28 41  2  0  0  0  0
 30 35  1  0  0  0  0
 31 35  1  0  0  0  0
 32 39  2  0  0  0  0
 33 34  1  0  0  0  0
 33 42  2  0  0  0  0
 34 40  2  0  0  0  0
 39 40  1  0  0  0  0
 41 45  1  0  0  0  0
 42 46  1  0  0  0  0
 44 48  2  0  0  0  0
 45 46  2  0  0  0  0
 48 50  1  0  0  0  0
 49 51  1  0  0  0  0
 49 52  2  0  0  0  0
 51 53  2  0  0  0  0
 52 54  1  0  0  0  0
 53 55  1  0  0  0  0
 54 55  2  0  0  0  0
 56 58  1  0  0  0  0
 59 60  1  0  0  0  0
 61 62  1  0  0  0  0
M  END
> <PUBCHEM_COMPOUND_ID_TYPE>
0

> <PUBCHEM_TOTAL_CHARGE>
0

> <PUBCHEM_SUBSTANCE_ID>
310929089

> <PUBCHEM_SUBSTANCE_VERSION>
1

> <PUBCHEM_EXT_DATASOURCE_NAME>
4488

> <PUBCHEM_EXT_DATASOURCE_REGID>
SCHEMBL16106251

> <PUBCHEM_SUBSTANCE_COMMENT>
InChI=1S/C46H58N6O10S/c1-45(2,3)31-26-37(46(52-63(54)55)17-10-7-11-18-46)42(58-6)39(27-31)50-44(53)49-38-14-15-40(36-13-9-8-12-35(36)38)62-41-16-19-47-43(51-41)48-32-28-33(57-5)30-34(29-32)61-25-24-60-23-22-59-21-20-56-4/h8-9,12-16,19,26-30,63H,7,10-11,17-18,20-25H2,1-6H3,(H,47,48,51)(H2,49,50,53)(H,52,54,55)
InChIKey=HRIJKNVURLMEQM-UHFFFAOYSA-N

> <PUBCHEM_SUBSTANCE_SYNONYM>
SCHEMBL16106251

> <PUBCHEM_XREF_EXT_ID>
SCHEMBL16106251

> <PUBCHEM_EXT_DATASOURCE_URL>
https://www.surechembl.org/

> <PUBCHEM_EXT_SUBSTANCE_URL>
https://www.surechembl.org/chemical/SCHEMBL16106251

> <PUBCHEM_CID_ASSOCIATIONS>
117598583  1
117598584  2

> <PUBCHEM_COORDINATE_TYPE>
1
3

$$$$
