310930228
  -OEChem-07211613022D

 19 17  0     0  0  0  0  0  0999 V2000
    4.8734   -0.7948    0.0000 S   0  0  0  0  0  0  0  0  0  0  0  0
    4.1622   -2.0288    0.0000 F   0  0  0  0  0  0  0  0  0  0  0  0
    4.8734   -2.4262    0.0000 F   0  0  0  0  0  0  0  0  0  0  0  0
    5.5845   -2.8236    0.0000 F   0  0  0  0  0  0  0  0  0  0  0  0
    6.2747   -1.6105    0.0000 F   0  0  0  0  0  0  0  0  0  0  0  0
    4.8734    0.0000    0.0000 O   0  5  0  0  0  0  0  0  0  0  0  0
    5.7727   -0.7948    0.0000 O   0  0  0  0  0  0  0  0  0  0  0  0
    4.0786   -0.7948    0.0000 O   0  0  0  0  0  0  0  0  0  0  0  0
    1.2340   -1.4223    0.0000 N   0  3  0  0  0  0  0  0  0  0  0  0
    4.8734   -1.6105    0.0000 C   0  0  0  0  0  0  0  0  0  0  0  0
    5.5845   -2.0288    0.0000 C   0  0  0  0  0  0  0  0  0  0  0  0
    0.4183   -1.4223    0.0000 C   0  0  0  0  0  0  0  0  0  0  0  0
    1.6314   -2.1334    0.0000 C   0  0  0  0  0  0  0  0  0  0  0  0
    1.6314   -0.7111    0.0000 C   0  0  0  0  0  0  0  0  0  0  0  0
    0.8157   -2.1334    0.0000 C   0  0  0  0  0  0  0  0  0  0  0  0
    0.0000   -2.1334    0.0000 C   0  0  0  0  0  0  0  0  0  0  0  0
    2.4472   -2.1334    0.0000 C   0  0  0  0  0  0  0  0  0  0  0  0
    1.2131    0.0000    0.0000 C   0  0  0  0  0  0  0  0  0  0  0  0
    1.2340   -2.8445    0.0000 C   0  0  0  0  0  0  0  0  0  0  0  0
  1  6  1  0  0  0  0
  1  7  2  0  0  0  0
  1  8  2  0  0  0  0
  1 10  1  0  0  0  0
  2 10  1  0  0  0  0
  3 10  1  0  0  0  0
  4 11  1  0  0  0  0
  5 11  1  0  0  0  0
  9 12  1  0  0  0  0
  9 13  1  0  0  0  0
  9 14  1  0  0  0  0
  9 15  1  0  0  0  0
 10 11  1  0  0  0  0
 12 16  1  0  0  0  0
 13 17  1  0  0  0  0
 14 18  1  0  0  0  0
 15 19  1  0  0  0  0
M  CHG  2   6  -1   9   1
M  END
> <PUBCHEM_COMPOUND_ID_TYPE>
0

> <PUBCHEM_TOTAL_CHARGE>
0

> <PUBCHEM_SUBSTANCE_ID>
310930228

> <PUBCHEM_SUBSTANCE_VERSION>
1

> <PUBCHEM_EXT_DATASOURCE_NAME>
4488

> <PUBCHEM_EXT_DATASOURCE_REGID>
SCHEMBL16107498

> <PUBCHEM_SUBSTANCE_COMMENT>
InChI=1S/C8H20N.C2H2F4O3S/c1-5-9(6-2,7-3)8-4;3-1(4)2(5,6)10(7,8)9/h5-8H2,1-4H3;1H,(H,7,8,9)/q+1;/p-1
InChIKey=YCTHTPMRMDOVDQ-UHFFFAOYSA-M

> <PUBCHEM_SUBSTANCE_SYNONYM>
SCHEMBL16107498

> <PUBCHEM_XREF_EXT_ID>
SCHEMBL16107498

> <PUBCHEM_EXT_DATASOURCE_URL>
https://www.surechembl.org/

> <PUBCHEM_EXT_SUBSTANCE_URL>
https://www.surechembl.org/chemical/SCHEMBL16107498

> <PUBCHEM_CID_ASSOCIATIONS>
117599429  1
5413  2
10176391  2

> <PUBCHEM_COORDINATE_TYPE>
1
3

$$$$
