310938294
  -OEChem-07211613022D

  9  9  0     1  0  0  0  0  0999 V2000
   -0.4763    2.9513    0.0000 S   0  0  0  0  0  0  0  0  0  0  0  0
   -1.1908    3.3638    0.0000 O   0  0  0  0  0  0  0  0  0  0  0  0
    0.2382    3.3638    0.0000 O   0  0  0  0  0  0  0  0  0  0  0  0
   -0.4763    2.1263    0.0000 N   0  0  0  0  0  0  0  0  0  0  0  0
    0.2382    0.8888    0.0000 C   0  0  0  0  0  0  0  0  0  0  0  0
    0.2382    1.7138    0.0000 C   0  0  3  0  0  0  0  0  0  0  0  0
    0.6507    0.1743    0.0000 C   0  0  0  0  0  0  0  0  0  0  0  0
   -0.1743    0.1743    0.0000 C   0  0  0  0  0  0  0  0  0  0  0  0
    0.9526    2.1263    0.0000 C   0  0  0  0  0  0  0  0  0  0  0  0
  1  2  2  0  0  0  0
  1  3  2  0  0  0  0
  1  4  1  0  0  0  0
  4  6  1  0  0  0  0
  5  6  1  0  0  0  0
  5  7  1  0  0  0  0
  5  8  1  0  0  0  0
  6  9  1  0  0  0  0
  7  8  1  0  0  0  0
M  END
> <PUBCHEM_COMPOUND_ID_TYPE>
0

> <PUBCHEM_TOTAL_CHARGE>
0

> <PUBCHEM_SUBSTANCE_ID>
310938294

> <PUBCHEM_SUBSTANCE_VERSION>
1

> <PUBCHEM_EXT_DATASOURCE_NAME>
4488

> <PUBCHEM_EXT_DATASOURCE_REGID>
SCHEMBL16116165

> <PUBCHEM_SUBSTANCE_COMMENT>
InChI=1S/C5H11NO2S/c1-4(5-2-3-5)6-9(7)8/h4-5,9H,2-3H2,1H3,(H,6,7,8)
InChIKey=BSJSWVORZJUPDB-UHFFFAOYSA-N

> <PUBCHEM_SUBSTANCE_SYNONYM>
SCHEMBL16116165

> <PUBCHEM_XREF_EXT_ID>
SCHEMBL16116165

> <PUBCHEM_EXT_DATASOURCE_URL>
https://www.surechembl.org/

> <PUBCHEM_EXT_SUBSTANCE_URL>
https://www.surechembl.org/chemical/SCHEMBL16116165

> <PUBCHEM_CID_ASSOCIATIONS>
57419754  1
57419755  2

> <PUBCHEM_COORDINATE_TYPE>
1
3

$$$$
