310931138
  -OEChem-07211613022D

 10  9  0     1  0  0  0  0  0999 V2000
    3.5054   -1.1513    0.0000 S   0  5  0  0  0  0  0  0  0  0  0  0
    0.7904   -1.3575    0.0000 N   0  3  3  0  0  0  0  0  0  0  0  0
    0.7904    0.0000    0.0000 N   0  0  0  0  0  0  0  0  0  0  0  0
    5.1550   -1.1513    0.0000 N   0  0  0  0  0  0  0  0  0  0  0  0
    1.2716   -0.6701    0.0000 C   0  0  0  0  0  0  0  0  0  0  0  0
    0.0000   -1.0826    0.0000 C   0  0  0  0  0  0  0  0  0  0  0  0
    0.0000   -0.2749    0.0000 C   0  0  0  0  0  0  0  0  0  0  0  0
    1.0482   -2.1307    0.0000 C   0  0  0  0  0  0  0  0  0  0  0  0
    1.8558   -2.3026    0.0000 C   0  0  0  0  0  0  0  0  0  0  0  0
    4.3302   -1.1513    0.0000 C   0  0  0  0  0  0  0  0  0  0  0  0
  1 10  1  0  0  0  0
  2  5  1  0  0  0  0
  2  6  1  0  0  0  0
  2  8  1  0  0  0  0
  3  5  2  0  0  0  0
  3  7  1  0  0  0  0
  4 10  3  0  0  0  0
  6  7  2  0  0  0  0
  8  9  2  0  0  0  0
M  CHG  2   1  -1   2   1
M  END
> <PUBCHEM_COMPOUND_ID_TYPE>
0

> <PUBCHEM_TOTAL_CHARGE>
0

> <PUBCHEM_SUBSTANCE_ID>
310931138

> <PUBCHEM_SUBSTANCE_VERSION>
1

> <PUBCHEM_EXT_DATASOURCE_NAME>
4488

> <PUBCHEM_EXT_DATASOURCE_REGID>
SCHEMBL16108442

> <PUBCHEM_SUBSTANCE_COMMENT>
InChI=1S/C5H6N2.CHNS/c1-2-7-4-3-6-5-7;2-1-3/h2-5H,1H2;3H
InChIKey=MTPCVWQCACCLHY-UHFFFAOYSA-N

> <PUBCHEM_SUBSTANCE_SYNONYM>
SCHEMBL16108442

> <PUBCHEM_XREF_EXT_ID>
SCHEMBL16108442

> <PUBCHEM_EXT_DATASOURCE_URL>
https://www.surechembl.org/

> <PUBCHEM_EXT_SUBSTANCE_URL>
https://www.surechembl.org/chemical/SCHEMBL16108442

> <PUBCHEM_CID_ASSOCIATIONS>
117600019  1
781  2
66171  2

> <PUBCHEM_COORDINATE_TYPE>
1
3

$$$$
