310938741
  -OEChem-07211613022D

191206  0     1  0  0  0  0  0999 V2000
   14.5469   -6.5950    0.0000 S   0  0  0  0  0  0  0  0  0  0  0  0
  -14.2531   -2.5200    0.0000 S   0  0  0  0  0  0  0  0  0  0  0  0
    4.3302    1.2246    0.0000 S   0  0  0  0  0  0  0  0  0  0  0  0
   -6.2521    3.3545    0.0000 S   0  0  0  0  0  0  0  0  0  0  0  0
   11.1543   -4.9712    0.0000 O   0  0  0  0  0  0  0  0  0  0  0  0
  -10.6104   -1.9499    0.0000 O   0  0  0  0  0  0  0  0  0  0  0  0
   11.0971   -7.9453    0.0000 O   0  0  0  0  0  0  0  0  0  0  0  0
  -11.3249   -4.8375    0.0000 O   0  0  0  0  0  0  0  0  0  0  0  0
   -4.3002    2.0681    0.0000 O   0  0  0  0  0  0  0  0  0  0  0  0
    3.1033    3.2166    0.0000 O   0  0  0  0  0  0  0  0  0  0  0  0
    1.4347    0.2989    0.0000 O   0  0  0  0  0  0  0  0  0  0  0  0
   -4.0389    5.3816    0.0000 O   0  0  0  0  0  0  0  0  0  0  0  0
   -1.8553   -0.1755    0.0000 O   0  0  0  0  0  0  0  0  0  0  0  0
    1.8660    6.3207    0.0000 O   0  0  0  0  0  0  0  0  0  0  0  0
   -1.3099    7.3414    0.0000 O   0  0  0  0  0  0  0  0  0  0  0  0
    3.0263    0.5618    0.0000 O   0  0  0  0  0  0  0  0  0  0  0  0
   -5.3538    4.5032    0.0000 O   0  0  0  0  0  0  0  0  0  0  0  0
   -4.4210    0.4923    0.0000 O   0  0  0  0  0  0  0  0  0  0  0  0
   -0.6964   -1.2802    0.0000 O   0  0  0  0  0  0  0  0  0  0  0  0
    3.8806    4.5935    0.0000 O   0  0  0  0  0  0  0  0  0  0  0  0
   -2.8075    7.7317    0.0000 O   0  0  0  0  0  0  0  0  0  0  0  0
    1.2995    7.8233    0.0000 O   0  0  0  0  0  0  0  0  0  0  0  0
    2.6022    2.5987    0.0000 O   0  0  0  0  0  0  0  0  0  0  0  0
   -4.1093    2.8403    0.0000 O   0  0  0  0  0  0  0  0  0  0  0  0
    0.6445    0.3099    0.0000 O   0  0  0  0  0  0  0  0  0  0  0  0
   -2.3443    0.4514    0.0000 O   0  0  0  0  0  0  0  0  0  0  0  0
    1.8123    0.6643    0.0000 O   0  0  0  0  0  0  0  0  0  0  0  0
   -4.2072    4.9249    0.0000 O   0  0  0  0  0  0  0  0  0  0  0  0
    2.0280    5.5442    0.0000 O   0  0  0  0  0  0  0  0  0  0  0  0
   -3.3129    5.7170    0.0000 O   0  0  0  0  0  0  0  0  0  0  0  0
   -3.8275    1.5986    0.0000 O   0  0  0  0  0  0  0  0  0  0  0  0
   -1.2434   -0.2572    0.0000 O   0  0  0  0  0  0  0  0  0  0  0  0
   -0.6044    6.9800    0.0000 O   0  0  0  0  0  0  0  0  0  0  0  0
    3.0383    3.7155    0.0000 O   0  0  0  0  0  0  0  0  0  0  0  0
   10.0867   -8.9557    0.0000 O   0  0  0  0  0  0  0  0  0  0  0  0
  -10.6104   -6.0750    0.0000 O   0  0  0  0  0  0  0  0  0  0  0  0
    6.5864   -5.4555    0.0000 O   0  0  0  0  0  0  0  0  0  0  0  0
   -6.3235   -3.6000    0.0000 O   0  0  0  0  0  0  0  0  0  0  0  0
   -1.7589    7.0242    0.0000 O   0  0  0  0  0  0  0  0  0  0  0  0
    1.3688    6.6782    0.0000 O   0  0  0  0  0  0  0  0  0  0  0  0
    7.3261   -8.2160    0.0000 O   0  0  0  0  0  0  0  0  0  0  0  0
   -7.7526   -6.0750    0.0000 O   0  0  0  0  0  0  0  0  0  0  0  0
    8.7064   -8.5859    0.0000 O   0  0  0  0  0  0  0  0  0  0  0  0
   -9.1815   -6.0750    0.0000 O   0  0  0  0  0  0  0  0  0  0  0  0
    0.6240   -1.8955    0.0000 O   0  0  0  0  0  0  0  0  0  0  0  0
   -4.0705   -0.9231    0.0000 O   0  0  0  0  0  0  0  0  0  0  0  0
    4.1834    6.0204    0.0000 O   0  0  0  0  0  0  0  0  0  0  0  0
   -4.2671    7.7077    0.0000 O   0  0  0  0  0  0  0  0  0  0  0  0
    0.3813    8.9557    0.0000 O   0  0  0  0  0  0  0  0  0  0  0  0
    7.7134   -5.1535    0.0000 O   0  0  0  0  0  0  0  0  0  0  0  0
   -7.3340   -3.0166    0.0000 O   0  0  0  0  0  0  0  0  0  0  0  0
    4.9068   -0.0830    0.0000 O   0  0  0  0  0  0  0  0  0  0  0  0
   -6.6220    1.9742    0.0000 O   0  0  0  0  0  0  0  0  0  0  0  0
    7.9263    1.2483    0.0000 O   0  0  0  0  0  0  0  0  0  0  0  0
    7.0823    0.0954    0.0000 O   0  0  0  0  0  0  0  0  0  0  0  0
   10.0126    0.6064    0.0000 O   0  0  0  0  0  0  0  0  0  0  0  0
   12.2773    1.6049    0.0000 O   0  0  0  0  0  0  0  0  0  0  0  0
   14.1327   -7.8640    0.0000 N   0  0  0  0  0  0  0  0  0  0  0  0
  -14.2531   -3.8549    0.0000 N   0  0  0  0  0  0  0  0  0  0  0  0
    5.8894   -0.6002    0.0000 N   0  0  0  0  0  0  0  0  0  0  0  0
   -7.6466    1.3377    0.0000 N   0  0  0  0  0  0  0  0  0  0  0  0
   10.3574   -5.1847    0.0000 C   0  0  3  0  0  0  0  0  0  0  0  0
   -9.8960   -2.3625    0.0000 C   0  0  3  0  0  0  0  0  0  0  0  0
   10.9408   -5.7681    0.0000 C   0  0  3  0  0  0  0  0  0  0  0  0
  -10.6104   -2.7750    0.0000 C   0  0  3  0  0  0  0  0  0  0  0  0
   10.7272   -6.5650    0.0000 C   0  0  0  0  0  0  0  0  0  0  0  0
  -10.6104   -3.6000    0.0000 C   0  0  0  0  0  0  0  0  0  0  0  0
    9.5605   -5.3983    0.0000 C   0  0  0  0  0  0  0  0  0  0  0  0
   -9.1815   -2.7750    0.0000 C   0  0  0  0  0  0  0  0  0  0  0  0
   11.3106   -7.1484    0.0000 C   0  0  3  0  0  0  0  0  0  0  0  0
  -11.3249   -4.0124    0.0000 C   0  0  3  0  0  0  0  0  0  0  0  0
   10.3574   -4.3598    0.0000 C   0  0  0  0  0  0  0  0  0  0  0  0
   -9.4835   -1.6479    0.0000 C   0  0  0  0  0  0  0  0  0  0  0  0
   12.1075   -6.9348    0.0000 C   0  0  0  0  0  0  0  0  0  0  0  0
  -12.0395   -3.6000    0.0000 C   0  0  0  0  0  0  0  0  0  0  0  0
    8.9771   -4.8149    0.0000 C   0  0  0  0  0  0  0  0  0  0  0  0
   -8.4670   -2.3625    0.0000 C   0  0  0  0  0  0  0  0  0  0  0  0
   12.6588   -7.5487    0.0000 C   0  0  0  0  0  0  0  0  0  0  0  0
  -12.7539   -4.0124    0.0000 C   0  0  0  0  0  0  0  0  0  0  0  0
   13.4660   -7.3783    0.0000 C   0  0  0  0  0  0  0  0  0  0  0  0
  -13.4684   -3.6000    0.0000 C   0  0  0  0  0  0  0  0  0  0  0  0
   13.7220   -6.5939    0.0000 C   0  0  0  0  0  0  0  0  0  0  0  0
  -13.4684   -2.7750    0.0000 C   0  0  0  0  0  0  0  0  0  0  0  0
   12.3635   -6.1506    0.0000 C   0  0  0  0  0  0  0  0  0  0  0  0
  -12.0395   -2.7750    0.0000 C   0  0  0  0  0  0  0  0  0  0  0  0
    3.2041    2.1470    0.0000 C   0  0  3  0  0  0  0  0  0  0  0  0
   -4.8450    2.9948    0.0000 C   0  0  3  0  0  0  0  0  0  0  0  0
    0.6588   -0.4412    0.0000 C   0  0  3  0  0  0  0  0  0  0  0  0
   -2.9205   -0.0357    0.0000 C   0  0  3  0  0  0  0  0  0  0  0  0
   -3.6604    6.3835    0.0000 C   0  0  3  0  0  0  0  0  0  0  0  0
    2.7626    5.7238    0.0000 C   0  0  3  0  0  0  0  0  0  0  0  0
   -0.2843    7.6632    0.0000 C   0  0  3  0  0  0  0  0  0  0  0  0
    2.2742    0.2312    0.0000 C   0  0  3  0  0  0  0  0  0  0  0  0
   -4.8089    5.1220    0.0000 C   0  0  3  0  0  0  0  0  0  0  0  0
   -4.5757    1.3022    0.0000 C   0  0  3  0  0  0  0  0  0  0  0  0
    3.6661    3.8008    0.0000 C   0  0  3  0  0  0  0  0  0  0  0  0
   -1.4233   -0.8881    0.0000 C   0  0  3  0  0  0  0  0  0  0  0  0
   -1.9861    7.6983    0.0000 C   0  0  3  0  0  0  0  0  0  0  0  0
    1.7819    7.1519    0.0000 C   0  0  3  0  0  0  0  0  0  0  0  0
    2.4450    1.8157    0.0000 C   0  0  3  0  0  0  0  0  0  0  0  0
   -4.2966    3.6139    0.0000 C   0  0  3  0  0  0  0  0  0  0  0  0
   -0.0718   -0.0497    0.0000 C   0  0  3  0  0  0  0  0  0  0  0  0
   -3.0755    0.7775    0.0000 C   0  0  3  0  0  0  0  0  0  0  0  0
    2.5679    0.9952    0.0000 C   0  0  3  0  0  0  0  0  0  0  0  0
   -4.7521    4.3062    0.0000 C   0  0  3  0  0  0  0  0  0  0  0  0
    2.5412    4.9270    0.0000 C   0  0  3  0  0  0  0  0  0  0  0  0
    2.9069    1.3823    0.0000 C   0  0  3  0  0  0  0  0  0  0  0  0
   -2.8316    6.3512    0.0000 C   0  0  3  0  0  0  0  0  0  0  0  0
   -4.8987    3.8149    0.0000 C   0  0  3  0  0  0  0  0  0  0  0  0
   10.3001   -8.1589    0.0000 C   0  0  0  0  0  0  0  0  0  0  0  0
  -10.6104   -5.2500    0.0000 C   0  0  0  0  0  0  0  0  0  0  0  0
   -3.8966    0.8436    0.0000 C   0  0  3  0  0  0  0  0  0  0  0  0
   -0.6404   -0.6490    0.0000 C   0  0  3  0  0  0  0  0  0  0  0  0
    0.1981    6.9918    0.0000 C   0  0  3  0  0  0  0  0  0  0  0  0
    3.2562    4.5085    0.0000 C   0  0  3  0  0  0  0  0  0  0  0  0
   -2.5837    7.1361    0.0000 C   0  0  3  0  0  0  0  0  0  0  0  0
    0.9689    7.2808    0.0000 C   0  0  3  0  0  0  0  0  0  0  0  0
    8.1802   -5.0285    0.0000 C   0  0  0  0  0  0  0  0  0  0  0  0
   -7.7526   -2.7750    0.0000 C   0  0  0  0  0  0  0  0  0  0  0  0
   -0.1284   -0.6773    0.0000 C   0  0  3  0  0  0  0  0  0  0  0  0
   -3.5962    0.4266    0.0000 C   0  0  3  0  0  0  0  0  0  0  0  0
    3.1685    5.0161    0.0000 C   0  0  3  0  0  0  0  0  0  0  0  0
   -3.0551    6.9430    0.0000 C   0  0  3  0  0  0  0  0  0  0  0  0
    0.5251    7.5339    0.0000 C   0  0  3  0  0  0  0  0  0  0  0  0
   13.1707   -5.9802    0.0000 C   0  0  0  0  0  0  0  0  0  0  0  0
  -12.7539   -2.3625    0.0000 C   0  0  0  0  0  0  0  0  0  0  0  0
    7.9667   -5.8254    0.0000 C   0  0  3  0  0  0  0  0  0  0  0  0
   -7.7526   -3.6000    0.0000 C   0  0  3  0  0  0  0  0  0  0  0  0
    8.3366   -7.2056    0.0000 C   0  0  0  0  0  0  0  0  0  0  0  0
   -8.4670   -4.8375    0.0000 C   0  0  0  0  0  0  0  0  0  0  0  0
    7.1698   -6.0388    0.0000 C   0  0  3  0  0  0  0  0  0  0  0  0
   -7.0380   -4.0124    0.0000 C   0  0  3  0  0  0  0  0  0  0  0  0
   14.8009   -7.3800    0.0000 C   0  0  0  0  0  0  0  0  0  0  0  0
  -14.7380   -3.1875    0.0000 C   0  0  0  0  0  0  0  0  0  0  0  0
    6.9563   -6.8358    0.0000 C   0  0  3  0  0  0  0  0  0  0  0  0
   -7.0380   -4.8375    0.0000 C   0  0  3  0  0  0  0  0  0  0  0  0
    7.5397   -7.4191    0.0000 C   0  0  0  0  0  0  0  0  0  0  0  0
   -7.7526   -5.2500    0.0000 C   0  0  0  0  0  0  0  0  0  0  0  0
    8.9200   -7.7889    0.0000 C   0  0  3  0  0  0  0  0  0  0  0  0
   -9.1815   -5.2500    0.0000 C   0  0  3  0  0  0  0  0  0  0  0  0
    9.7168   -7.5755    0.0000 C   0  0  0  0  0  0  0  0  0  0  0  0
   -9.8960   -4.8375    0.0000 C   0  0  0  0  0  0  0  0  0  0  0  0
    3.6627    1.7133    0.0000 C   0  0  0  0  0  0  0  0  0  0  0  0
   -5.4432    3.1926    0.0000 C   0  0  0  0  0  0  0  0  0  0  0  0
    0.6020   -1.0688    0.0000 C   0  0  0  0  0  0  0  0  0  0  0  0
   -3.4453   -0.3835    0.0000 C   0  0  0  0  0  0  0  0  0  0  0  0
    3.3866    5.8089    0.0000 C   0  0  0  0  0  0  0  0  0  0  0  0
   -3.8799    6.9724    0.0000 C   0  0  0  0  0  0  0  0  0  0  0  0
    0.0431    8.2016    0.0000 C   0  0  0  0  0  0  0  0  0  0  0  0
    6.1594   -7.0493    0.0000 C   0  0  0  0  0  0  0  0  0  0  0  0
   -6.3235   -5.2500    0.0000 C   0  0  0  0  0  0  0  0  0  0  0  0
    8.5500   -6.4088    0.0000 C   0  0  0  0  0  0  0  0  0  0  0  0
   -8.4670   -4.0124    0.0000 C   0  0  0  0  0  0  0  0  0  0  0  0
    8.9200   -6.6222    0.0000 C   0  0  0  0  0  0  0  0  0  0  0  0
    8.1230   -6.4088    0.0000 C   0  0  0  0  0  0  0  0  0  0  0  0
   -8.8795   -4.1231    0.0000 C   0  0  0  0  0  0  0  0  0  0  0  0
   -8.0545   -4.1231    0.0000 C   0  0  0  0  0  0  0  0  0  0  0  0
   15.5630   -7.8200    0.0000 C   0  0  0  0  0  0  0  0  0  0  0  0
  -15.5630   -3.1875    0.0000 C   0  0  0  0  0  0  0  0  0  0  0  0
    6.9990   -4.7410    0.0000 C   0  0  0  0  0  0  0  0  0  0  0  0
   -6.5371   -2.8030    0.0000 C   0  0  0  0  0  0  0  0  0  0  0  0
    5.4449   -6.6368    0.0000 C   0  0  0  0  0  0  0  0  0  0  0  0
   -5.6091   -4.8375    0.0000 C   0  0  0  0  0  0  0  0  0  0  0  0
    5.0851    1.5574    0.0000 C   0  0  0  0  0  0  0  0  0  0  0  0
   -7.0490    3.5681    0.0000 C   0  0  0  0  0  0  0  0  0  0  0  0
    7.2124   -3.9441    0.0000 C   0  0  0  0  0  0  0  0  0  0  0  0
   -6.3235   -2.0062    0.0000 C   0  0  0  0  0  0  0  0  0  0  0  0
    5.7508    1.0700    0.0000 C   0  0  0  0  0  0  0  0  0  0  0  0
   -7.6324    2.9847    0.0000 C   0  0  0  0  0  0  0  0  0  0  0  0
    5.6617    0.2498    0.0000 C   0  0  0  0  0  0  0  0  0  0  0  0
   -7.4188    2.1878    0.0000 C   0  0  0  0  0  0  0  0  0  0  0  0
    4.7304   -7.0493    0.0000 C   0  0  0  0  0  0  0  0  0  0  0  0
   -4.8946   -5.2500    0.0000 C   0  0  0  0  0  0  0  0  0  0  0  0
    6.6290   -3.3607    0.0000 C   0  0  0  0  0  0  0  0  0  0  0  0
   -6.9069   -1.4229    0.0000 C   0  0  0  0  0  0  0  0  0  0  0  0
    7.1714    0.9155    0.0000 C   0  0  0  0  0  0  0  0  0  0  0  0
    6.8426   -2.5638    0.0000 C   0  0  0  0  0  0  0  0  0  0  0  0
   -6.6934   -0.6259    0.0000 C   0  0  0  0  0  0  0  0  0  0  0  0
    6.4728   -1.1836    0.0000 C   0  0  0  0  0  0  0  0  0  0  0  0
   -7.0633    0.7544    0.0000 C   0  0  0  0  0  0  0  0  0  0  0  0
    6.2592   -1.9804    0.0000 C   0  0  0  0  0  0  0  0  0  0  0  0
   -7.2768   -0.0426    0.0000 C   0  0  0  0  0  0  0  0  0  0  0  0
   -9.0126    2.6149    0.0000 C   0  0  0  0  0  0  0  0  0  0  0  0
    8.5921    0.7610    0.0000 C   0  0  0  0  0  0  0  0  0  0  0  0
    9.3469    1.0938    0.0000 C   0  0  0  0  0  0  0  0  0  0  0  0
   10.7676    0.9392    0.0000 C   0  0  0  0  0  0  0  0  0  0  0  0
   11.4332    0.4520    0.0000 C   0  0  0  0  0  0  0  0  0  0  0  0
   12.1881    0.7848    0.0000 C   0  0  0  0  0  0  0  0  0  0  0  0
   12.8538    0.2974    0.0000 C   0  0  0  0  0  0  0  0  0  0  0  0
    6.5057    1.4028    0.0000 H   0  0  0  0  0  0  0  0  0  0  0  0
   -8.4293    3.1982    0.0000 H   0  0  0  0  0  0  0  0  0  0  0  0
  1 82  1  0  0  0  0
  1133  1  0  0  0  0
  2 83  1  0  0  0  0
  2134  1  0  0  0  0
  3143  1  0  0  0  0
  3164  1  0  0  0  0
  4144  1  0  0  0  0
  4165  1  0  0  0  0
  5 62  1  0  0  0  0
  5 64  1  0  0  0  0
  6 63  1  0  0  0  0
  6 65  1  0  0  0  0
  7 70  1  0  0  0  0
  7110  1  0  0  0  0
  8 71  1  0  0  0  0
  8111  1  0  0  0  0
 87  9  1  6  0  0  0
  9 95  1  0  0  0  0
 86 10  1  6  0  0  0
 10 96  1  0  0  0  0
 88 11  1  6  0  0  0
 11 93  1  0  0  0  0
 90 12  1  6  0  0  0
 12 94  1  0  0  0  0
 89 13  1  6  0  0  0
 13 97  1  0  0  0  0
 91 14  1  6  0  0  0
 14 99  1  0  0  0  0
 92 15  1  6  0  0  0
 98 15  1  6  0  0  0
 93 16  1  6  0  0  0
 16107  1  0  0  0  0
 94 17  1  6  0  0  0
 17109  1  0  0  0  0
 95 18  1  6  0  0  0
 18121  1  0  0  0  0
 97 19  1  6  0  0  0
 19120  1  0  0  0  0
 96 20  1  6  0  0  0
 20122  1  0  0  0  0
 21 98  1  0  0  0  0
 21123  1  0  0  0  0
 99 22  1  6  0  0  0
 22124  1  0  0  0  0
100 23  1  1  0  0  0
101 24  1  1  0  0  0
102 25  1  1  0  0  0
103 26  1  1  0  0  0
 27104  1  0  0  0  0
 28105  1  0  0  0  0
106 29  1  1  0  0  0
108 30  1  1  0  0  0
 31112  1  0  0  0  0
 32113  1  0  0  0  0
114 33  1  1  0  0  0
 34115  1  0  0  0  0
 35110  2  0  0  0  0
 36111  2  0  0  0  0
131 37  1  6  0  0  0
 37160  1  0  0  0  0
132 38  1  6  0  0  0
 38161  1  0  0  0  0
 39116  1  0  0  0  0
 40117  1  0  0  0  0
 41137  2  0  0  0  0
 42138  2  0  0  0  0
139 43  1  1  0  0  0
140 44  1  1  0  0  0
 45145  1  0  0  0  0
 46146  1  0  0  0  0
 47147  1  0  0  0  0
 48148  1  0  0  0  0
 49149  1  0  0  0  0
 50160  2  0  0  0  0
 51161  2  0  0  0  0
 52170  2  0  0  0  0
 53171  2  0  0  0  0
 54176  1  0  0  0  0
 54184  1  0  0  0  0
 55176  2  0  0  0  0
 56185  1  0  0  0  0
 56186  1  0  0  0  0
 57188  2  0  0  0  0
 58 80  1  0  0  0  0
 58133  2  0  0  0  0
 59 81  1  0  0  0  0
 59134  2  0  0  0  0
 60170  1  0  0  0  0
 60179  1  0  0  0  0
 61171  1  0  0  0  0
 61180  1  0  0  0  0
 62 64  1  0  0  0  0
 62 68  1  0  0  0  0
 62 72  1  1  0  0  0
 63 65  1  0  0  0  0
 63 69  1  0  0  0  0
 63 73  1  1  0  0  0
 64 66  1  6  0  0  0
 65 67  1  6  0  0  0
 70 66  1  6  0  0  0
 71 67  1  6  0  0  0
 68 76  1  0  0  0  0
 69 77  1  0  0  0  0
 70 74  1  0  0  0  0
 71 75  1  0  0  0  0
 74 78  2  0  0  0  0
 74 84  1  0  0  0  0
 75 79  2  0  0  0  0
 75 85  1  0  0  0  0
 76118  1  0  0  0  0
 77119  1  0  0  0  0
 78 80  1  0  0  0  0
 79 81  1  0  0  0  0
 80 82  2  0  0  0  0
 81 83  2  0  0  0  0
 82125  1  0  0  0  0
 83126  1  0  0  0  0
 84125  2  0  0  0  0
 85126  2  0  0  0  0
 86100  1  0  0  0  0
 86107  1  0  0  0  0
 87101  1  0  0  0  0
 87109  1  0  0  0  0
 88102  1  0  0  0  0
 88120  1  0  0  0  0
 89103  1  0  0  0  0
 89121  1  0  0  0  0
 90108  1  0  0  0  0
 90123  1  0  0  0  0
 91106  1  0  0  0  0
 91122  1  0  0  0  0
 92114  1  0  0  0  0
 92124  1  0  0  0  0
 93104  1  0  0  0  0
 94105  1  0  0  0  0
 95112  1  0  0  0  0
 96115  1  0  0  0  0
 97113  1  0  0  0  0
 98116  1  0  0  0  0
 99117  1  0  0  0  0
100104  1  0  0  0  0
101105  1  0  0  0  0
102113  1  0  0  0  0
103112  1  0  0  0  0
106115  1  0  0  0  0
107143  1  0  0  0  0
108116  1  0  0  0  0
109144  1  0  0  0  0
110141  1  0  0  0  0
111142  1  0  0  0  0
114117  1  0  0  0  0
118127  1  0  0  0  0
119128  1  0  0  0  0
120145  1  0  0  0  0
121146  1  0  0  0  0
122147  1  0  0  0  0
123148  1  0  0  0  0
124149  1  0  0  0  0
127131  1  0  0  0  0
127152  1  1  0  0  0
128132  1  0  0  0  0
128153  1  1  0  0  0
129137  1  0  0  0  0
129139  1  0  0  0  0
129154  1  0  0  0  0
129155  1  0  0  0  0
130138  1  0  0  0  0
130140  1  0  0  0  0
130156  1  0  0  0  0
130157  1  0  0  0  0
131135  1  0  0  0  0
132136  1  0  0  0  0
133158  1  0  0  0  0
134159  1  0  0  0  0
135137  1  0  0  0  0
135150  1  1  0  0  0
136138  1  0  0  0  0
136151  1  1  0  0  0
139141  1  0  0  0  0
140142  1  0  0  0  0
150162  1  0  0  0  0
151163  1  0  0  0  0
160166  1  0  0  0  0
161167  1  0  0  0  0
162172  2  0  0  0  0
163173  2  0  0  0  0
164168  1  0  0  0  0
165169  1  0  0  0  0
166174  1  0  0  0  0
167175  1  0  0  0  0
168170  1  0  0  0  0
168190  1  0  0  0  0
169171  1  0  0  0  0
169191  1  0  0  0  0
174177  1  0  0  0  0
175178  1  0  0  0  0
176190  1  0  0  0  0
177181  1  0  0  0  0
178182  1  0  0  0  0
179181  1  0  0  0  0
180182  1  0  0  0  0
183191  1  0  0  0  0
184185  1  0  0  0  0
186187  1  0  0  0  0
187188  1  0  0  0  0
188189  1  0  0  0  0
M  END
> <PUBCHEM_COMPOUND_ID_TYPE>
0

> <PUBCHEM_TOTAL_CHARGE>
0

> <PUBCHEM_SUBSTANCE_ID>
310938741

> <PUBCHEM_SUBSTANCE_VERSION>
1

> <PUBCHEM_EXT_DATASOURCE_NAME>
4488

> <PUBCHEM_EXT_DATASOURCE_REGID>
SCHEMBL16116657

> <PUBCHEM_SUBSTANCE_COMMENT>
InChI=1S/C128H196N4O53S4/c1-15-25-65-104(58(3)27-23-36-127(12)84(184-127)45-69(63-31-33-78-67(43-63)131-61(6)188-78)166-88(143)47-82(139)125(8,9)113(65)159)175-86(141)29-19-17-21-38-129-115(161)80(190-14)56-186-54-76-111-95(150)102(157)122(173-76)180-109-74(52-136)169-118(98(153)91(109)146)177-106-71(49-133)168-117(97(152)90(106)145)178-107-73(51-135)172-121(101(156)94(107)149)183-112-77(174-123(103(158)96(112)151)181-110-75(53-137)170-119(99(154)92(110)147)179-108-72(50-134)171-120(182-111)100(155)93(108)148)55-187-57-81(191-124(163)165-42-41-164-40-35-60(5)138)116(162)130-39-22-18-20-30-87(142)176-105-59(4)28-24-37-128(13)85(185-128)46-70(64-32-34-79-68(44-64)132-62(7)189-79)167-89(144)48-83(140)126(10,11)114(160)66(105)26-16-2/h15-16,31-34,43-44,58-59,65-66,69-77,80-85,90-112,117-123,133-137,139-140,145-158H,1-2,17-30,35-42,45-57,190-191H2,3-14H3,(H,129,161)(H,130,162)/t58-,59+,65+,66-,69-,70+,71?,72?,73?,74?,75?,76?,77?,80?,81?,82-,83+,84-,85+,90+,91+,92+,93+,94+,95+,96+,97?,98?,99?,100?,101?,102?,103?,104-,105+,106+,107+,108+,109+,110+,111+,112+,117+,118+,119+,120+,121+,122+,123+,127+,128-/m0/s1
InChIKey=COPPHGSOGAWULQ-QQPXOXOPSA-N

> <PUBCHEM_SUBSTANCE_SYNONYM>
SCHEMBL16116657

> <PUBCHEM_XREF_EXT_ID>
SCHEMBL16116657

> <PUBCHEM_EXT_DATASOURCE_URL>
https://www.surechembl.org/

> <PUBCHEM_EXT_SUBSTANCE_URL>
https://www.surechembl.org/chemical/SCHEMBL16116657

> <PUBCHEM_COORDINATE_TYPE>
1
3

> <PUBCHEM_BONDANNOTATIONS>
86  10  6
88  11  6
90  12  6
127  152  5
128  153  5
89  13  6
135  150  5
136  151  5
91  14  6
92  15  6
98  15  6
93  16  6
94  17  6
95  18  6
97  19  6
96  20  6
99  22  6
100  23  5
101  24  5
102  25  5
103  26  5
106  29  5
108  30  5
114  33  5
131  37  6
132  38  6
139  43  5
140  44  5
62  72  5
63  73  5
64  66  6
65  67  6
70  66  6
71  67  6
87  9  6

$$$$
