310938723
  -OEChem-07211613022D

183196  0     1  0  0  0  0  0999 V2000
   -7.7145   -1.1015    0.0000 S   0  0  0  0  0  0  0  0  0  0  0  0
    2.2844   -2.0631    0.0000 S   0  0  0  0  0  0  0  0  0  0  0  0
  -11.8665    3.0232    0.0000 S   0  0  0  0  0  0  0  0  0  0  0  0
    6.4828   -8.1120    0.0000 S   0  0  0  0  0  0  0  0  0  0  0  0
   -9.8580    0.9609    0.0000 P   0  0  3  0  0  0  0  0  0  0  0  0
    5.3558   -5.3349    0.0000 P   0  0  3  0  0  0  0  0  0  0  0  0
  -13.9398    6.0198    0.0000 O   0  0  0  0  0  0  0  0  0  0  0  0
    9.4022  -10.5573    0.0000 O   0  0  0  0  0  0  0  0  0  0  0  0
   -5.8401   -2.7233    0.0000 O   0  0  0  0  0  0  0  0  0  0  0  0
    0.8509   -0.4729    0.0000 O   0  0  0  0  0  0  0  0  0  0  0  0
   -0.3416   -3.2737    0.0000 O   0  0  0  0  0  0  0  0  0  0  0  0
   -6.3776    1.2349    0.0000 O   0  0  0  0  0  0  0  0  0  0  0  0
   -3.2681   -5.0704    0.0000 O   0  0  0  0  0  0  0  0  0  0  0  0
   -0.6597    2.2585    0.0000 O   0  0  0  0  0  0  0  0  0  0  0  0
   -3.7128    2.8177    0.0000 O   0  0  0  0  0  0  0  0  0  0  0  0
   -6.6941   -0.3848    0.0000 O   0  0  0  0  0  0  0  0  0  0  0  0
    1.0645   -2.8612    0.0000 O   0  0  0  0  0  0  0  0  0  0  0  0
   -5.3392   -3.9326    0.0000 O   0  0  0  0  0  0  0  0  0  0  0  0
   -2.1412   -4.7685    0.0000 O   0  0  0  0  0  0  0  0  0  0  0  0
    1.2781    1.1208    0.0000 O   0  0  0  0  0  0  0  0  0  0  0  0
   -5.1210    3.4012    0.0000 O   0  0  0  0  0  0  0  0  0  0  0  0
   -1.4565    3.6389    0.0000 O   0  0  0  0  0  0  0  0  0  0  0  0
  -11.0819    6.8448    0.0000 O   0  0  0  0  0  0  0  0  0  0  0  0
   10.2273   -7.6994    0.0000 O   0  0  0  0  0  0  0  0  0  0  0  0
   -4.8772   -1.3431    0.0000 O   0  0  0  0  0  0  0  0  0  0  0  0
   -0.4469   -1.8959    0.0000 O   0  0  0  0  0  0  0  0  0  0  0  0
   -3.6004   -3.5590    0.0000 O   0  0  0  0  0  0  0  0  0  0  0  0
   -1.4687   -2.7507    0.0000 O   0  0  0  0  0  0  0  0  0  0  0  0
   -5.5274   -0.0429    0.0000 O   0  0  0  0  0  0  0  0  0  0  0  0
   -0.2659   -2.4804    0.0000 O   0  0  0  0  0  0  0  0  0  0  0  0
   -5.3346    1.2349    0.0000 O   0  0  0  0  0  0  0  0  0  0  0  0
   -0.7627    1.0492    0.0000 O   0  0  0  0  0  0  0  0  0  0  0  0
   -4.3126   -3.1427    0.0000 O   0  0  0  0  0  0  0  0  0  0  0  0
   -2.4677   -3.4413    0.0000 O   0  0  0  0  0  0  0  0  0  0  0  0
   -2.8063    1.8500    0.0000 O   0  0  0  0  0  0  0  0  0  0  0  0
    0.0805    0.4619    0.0000 O   0  0  0  0  0  0  0  0  0  0  0  0
   -4.1320    2.3260    0.0000 O   0  0  0  0  0  0  0  0  0  0  0  0
   -1.9116    2.2585    0.0000 O   0  0  0  0  0  0  0  0  0  0  0  0
  -10.3674    8.0824    0.0000 O   0  0  0  0  0  0  0  0  0  0  0  0
   11.4647   -6.9849    0.0000 O   0  0  0  0  0  0  0  0  0  0  0  0
   -5.1280   -5.5586    0.0000 O   0  0  0  0  0  0  0  0  0  0  0  0
   -0.3169   -4.8702    0.0000 O   0  0  0  0  0  0  0  0  0  0  0  0
   -6.1360    3.6440    0.0000 O   0  0  0  0  0  0  0  0  0  0  0  0
    1.8035    2.2519    0.0000 O   0  0  0  0  0  0  0  0  0  0  0  0
   -2.4753    4.3572    0.0000 O   0  0  0  0  0  0  0  0  0  0  0  0
  -14.6542   10.5573    0.0000 O   0  0  0  0  0  0  0  0  0  0  0  0
   13.9398  -11.2718    0.0000 O   0  0  0  0  0  0  0  0  0  0  0  0
  -11.0819    9.3198    0.0000 O   0  0  0  0  0  0  0  0  0  0  0  0
   12.7022   -7.6994    0.0000 O   0  0  0  0  0  0  0  0  0  0  0  0
  -11.7963   10.5573    0.0000 O   0  0  0  0  0  0  0  0  0  0  0  0
   13.9398   -8.4138    0.0000 O   0  0  0  0  0  0  0  0  0  0  0  0
   -8.4290    0.1360    0.0000 O   0  0  0  0  0  0  0  0  0  0  0  0
   -9.0610    1.1745    0.0000 O   0  0  0  0  0  0  0  0  0  0  0  0
  -10.6549    0.7475    0.0000 O   0  0  0  0  0  0  0  0  0  0  0  0
    2.9989   -3.3007    0.0000 O   0  0  0  0  0  0  0  0  0  0  0  0
    4.6413   -5.7474    0.0000 O   0  0  0  0  0  0  0  0  0  0  0  0
    6.0702   -4.9225    0.0000 O   0  0  0  0  0  0  0  0  0  0  0  0
    5.1422   -2.8881    0.0000 O   0  0  0  0  0  0  0  0  0  0  0  0
    7.2857   -1.6507    0.0000 O   0  0  0  0  0  0  0  0  0  0  0  0
    9.4290   -2.0631    0.0000 O   0  0  0  0  0  0  0  0  0  0  0  0
   11.5725   -0.8256    0.0000 O   0  0  0  0  0  0  0  0  0  0  0  0
  -10.5970    3.4357    0.0000 N   0  0  0  0  0  0  0  0  0  0  0  0
    7.2674   -7.0320    0.0000 N   0  0  0  0  0  0  0  0  0  0  0  0
  -10.0716    1.7579    0.0000 N   0  0  0  0  0  0  0  0  0  0  0  0
   -9.8580    0.1360    0.0000 N   0  0  0  0  0  0  0  0  0  0  0  0
    5.7682   -6.0494    0.0000 N   0  0  0  0  0  0  0  0  0  0  0  0
   -9.8580   -1.5140    0.0000 N   0  0  0  0  0  0  0  0  0  0  0  0
    4.4278   -3.3007    0.0000 N   0  0  0  0  0  0  0  0  0  0  0  0
  -13.9398    6.8448    0.0000 C   0  0  3  0  0  0  0  0  0  0  0  0
   10.2273  -10.5573    0.0000 C   0  0  3  0  0  0  0  0  0  0  0  0
  -13.2253    6.4324    0.0000 C   0  0  3  0  0  0  0  0  0  0  0  0
    9.8148   -9.8429    0.0000 C   0  0  3  0  0  0  0  0  0  0  0  0
  -12.5109    6.8448    0.0000 C   0  0  0  0  0  0  0  0  0  0  0  0
  -13.9398    7.6698    0.0000 C   0  0  0  0  0  0  0  0  0  0  0  0
   10.2273   -9.1284    0.0000 C   0  0  0  0  0  0  0  0  0  0  0  0
   11.0522  -10.5573    0.0000 C   0  0  0  0  0  0  0  0  0  0  0  0
  -14.7647    6.8448    0.0000 C   0  0  0  0  0  0  0  0  0  0  0  0
   10.2273  -11.3823    0.0000 C   0  0  0  0  0  0  0  0  0  0  0  0
  -11.7963    6.4324    0.0000 C   0  0  3  0  0  0  0  0  0  0  0  0
    9.8148   -8.4138    0.0000 C   0  0  3  0  0  0  0  0  0  0  0  0
   -6.2856   -1.9264    0.0000 C   0  0  3  0  0  0  0  0  0  0  0  0
    1.0645   -1.2699    0.0000 C   0  0  3  0  0  0  0  0  0  0  0  0
   -0.7541   -3.9881    0.0000 C   0  0  3  0  0  0  0  0  0  0  0  0
   -4.2264   -5.0704    0.0000 C   0  0  3  0  0  0  0  0  0  0  0  0
   -5.9321    2.0319    0.0000 C   0  0  3  0  0  0  0  0  0  0  0  0
    0.1653    2.2585    0.0000 C   0  0  3  0  0  0  0  0  0  0  0  0
   -2.9983    3.2303    0.0000 C   0  0  3  0  0  0  0  0  0  0  0  0
    0.3500   -3.2737    0.0000 C   0  0  3  0  0  0  0  0  0  0  0  0
   -6.1108    0.1987    0.0000 C   0  0  3  0  0  0  0  0  0  0  0  0
   -5.1256   -3.1359    0.0000 C   0  0  3  0  0  0  0  0  0  0  0  0
    1.0645    0.3239    0.0000 C   0  0  3  0  0  0  0  0  0  0  0  0
   -2.8556   -4.3560    0.0000 C   0  0  3  0  0  0  0  0  0  0  0  0
   -4.2961    3.4012    0.0000 C   0  0  3  0  0  0  0  0  0  0  0  0
   -0.8732    3.0555    0.0000 C   0  0  3  0  0  0  0  0  0  0  0  0
   -5.7022   -1.3431    0.0000 C   0  0  3  0  0  0  0  0  0  0  0  0
    0.3500   -1.6824    0.0000 C   0  0  3  0  0  0  0  0  0  0  0  0
   -4.0129   -4.2736    0.0000 C   0  0  3  0  0  0  0  0  0  0  0  0
   -1.4687   -3.5756    0.0000 C   0  0  3  0  0  0  0  0  0  0  0  0
   -6.1108   -0.6263    0.0000 C   0  0  3  0  0  0  0  0  0  0  0  0
    0.5591   -2.4804    0.0000 C   0  0  3  0  0  0  0  0  0  0  0  0
   -5.1210    2.0319    0.0000 C   0  0  3  0  0  0  0  0  0  0  0  0
   -6.2856   -1.1015    0.0000 C   0  0  3  0  0  0  0  0  0  0  0  0
   -0.0483    1.4616    0.0000 C   0  0  3  0  0  0  0  0  0  0  0  0
    0.8555   -2.0631    0.0000 C   0  0  3  0  0  0  0  0  0  0  0  0
  -14.6542    8.0824    0.0000 C   0  0  0  0  0  0  0  0  0  0  0  0
   -4.7250   -3.8570    0.0000 C   0  0  3  0  0  0  0  0  0  0  0  0
   11.4647  -11.2718    0.0000 C   0  0  0  0  0  0  0  0  0  0  0  0
   -2.0552   -4.1557    0.0000 C   0  0  3  0  0  0  0  0  0  0  0  0
   -2.4149    2.6469    0.0000 C   0  0  3  0  0  0  0  0  0  0  0  0
    0.6640    1.0452    0.0000 C   0  0  3  0  0  0  0  0  0  0  0  0
   -4.9030    2.8276    0.0000 C   0  0  3  0  0  0  0  0  0  0  0  0
   -1.6981    3.0555    0.0000 C   0  0  3  0  0  0  0  0  0  0  0  0
   -4.6270   -4.3493    0.0000 C   0  0  3  0  0  0  0  0  0  0  0  0
   -1.5544   -4.1557    0.0000 C   0  0  3  0  0  0  0  0  0  0  0  0
   -5.3390    2.6055    0.0000 C   0  0  3  0  0  0  0  0  0  0  0  0
    0.5659    1.5373    0.0000 C   0  0  3  0  0  0  0  0  0  0  0  0
   -2.1735    3.2303    0.0000 C   0  0  3  0  0  0  0  0  0  0  0  0
  -11.7963    5.6073    0.0000 C   0  0  0  0  0  0  0  0  0  0  0  0
    8.9898   -8.4138    0.0000 C   0  0  0  0  0  0  0  0  0  0  0  0
  -14.6542    8.9073    0.0000 C   0  0  0  0  0  0  0  0  0  0  0  0
   12.2898  -11.2718    0.0000 C   0  0  0  0  0  0  0  0  0  0  0  0
  -11.0819    7.6698    0.0000 C   0  0  0  0  0  0  0  0  0  0  0  0
   11.0522   -7.6994    0.0000 C   0  0  0  0  0  0  0  0  0  0  0  0
  -11.0819    5.1948    0.0000 C   0  0  0  0  0  0  0  0  0  0  0  0
    8.5773   -7.6994    0.0000 C   0  0  0  0  0  0  0  0  0  0  0  0
   -7.0001   -1.5140    0.0000 C   0  0  0  0  0  0  0  0  0  0  0  0
    1.5700   -1.6507    0.0000 C   0  0  0  0  0  0  0  0  0  0  0  0
   -4.4136   -5.1461    0.0000 C   0  0  0  0  0  0  0  0  0  0  0  0
   -0.7295   -4.1557    0.0000 C   0  0  0  0  0  0  0  0  0  0  0  0
   -6.1360    2.8189    0.0000 C   0  0  0  0  0  0  0  0  0  0  0  0
    0.9784    2.2519    0.0000 C   0  0  0  0  0  0  0  0  0  0  0  0
   -2.8879    3.6428    0.0000 C   0  0  0  0  0  0  0  0  0  0  0  0
  -13.9398    9.3198    0.0000 C   0  0  3  0  0  0  0  0  0  0  0  0
   12.7022  -10.5573    0.0000 C   0  0  3  0  0  0  0  0  0  0  0  0
  -12.5109    9.3198    0.0000 C   0  0  0  0  0  0  0  0  0  0  0  0
   12.7022   -9.1284    0.0000 C   0  0  0  0  0  0  0  0  0  0  0  0
  -11.0819    4.1032    0.0000 C   0  0  0  0  0  0  0  0  0  0  0  0
    7.7522   -7.6994    0.0000 C   0  0  0  0  0  0  0  0  0  0  0  0
  -12.5109    5.1948    0.0000 C   0  0  0  0  0  0  0  0  0  0  0  0
    8.5773   -9.1284    0.0000 C   0  0  0  0  0  0  0  0  0  0  0  0
  -13.9398   10.1448    0.0000 C   0  0  3  0  0  0  0  0  0  0  0  0
   13.5273  -10.5573    0.0000 C   0  0  3  0  0  0  0  0  0  0  0  0
  -11.7963    8.9073    0.0000 C   0  0  3  0  0  0  0  0  0  0  0  0
   12.2898   -8.4138    0.0000 C   0  0  3  0  0  0  0  0  0  0  0  0
  -11.7963    8.0824    0.0000 C   0  0  0  0  0  0  0  0  0  0  0  0
   11.4647   -8.4138    0.0000 C   0  0  0  0  0  0  0  0  0  0  0  0
  -12.5109   10.1448    0.0000 C   0  0  0  0  0  0  0  0  0  0  0  0
   13.5273   -9.1284    0.0000 C   0  0  0  0  0  0  0  0  0  0  0  0
  -13.2253   10.5573    0.0000 C   0  0  3  0  0  0  0  0  0  0  0  0
   13.9398   -9.8429    0.0000 C   0  0  3  0  0  0  0  0  0  0  0  0
  -11.8665    3.8482    0.0000 C   0  0  0  0  0  0  0  0  0  0  0  0
    7.2674   -8.3669    0.0000 C   0  0  0  0  0  0  0  0  0  0  0  0
  -11.0819    2.7683    0.0000 C   0  0  0  0  0  0  0  0  0  0  0  0
    6.4828   -7.2869    0.0000 C   0  0  0  0  0  0  0  0  0  0  0  0
  -13.2253    8.9073    0.0000 C   0  0  0  0  0  0  0  0  0  0  0  0
   12.2898   -9.8429    0.0000 C   0  0  0  0  0  0  0  0  0  0  0  0
  -13.3358    9.3198    0.0000 C   0  0  0  0  0  0  0  0  0  0  0  0
  -12.9233    8.6053    0.0000 C   0  0  0  0  0  0  0  0  0  0  0  0
   12.7022   -9.9534    0.0000 C   0  0  0  0  0  0  0  0  0  0  0  0
   11.9878   -9.5409    0.0000 C   0  0  0  0  0  0  0  0  0  0  0  0
   -8.4290   -1.5140    0.0000 C   0  0  0  0  0  0  0  0  0  0  0  0
    2.9989   -1.6507    0.0000 C   0  0  0  0  0  0  0  0  0  0  0  0
  -13.2253   11.3823    0.0000 C   0  0  0  0  0  0  0  0  0  0  0  0
   14.7647   -9.8429    0.0000 C   0  0  0  0  0  0  0  0  0  0  0  0
   -9.1436   -1.1015    0.0000 C   0  0  3  0  0  0  0  0  0  0  0  0
    3.7133   -2.0631    0.0000 C   0  0  0  0  0  0  0  0  0  0  0  0
  -10.8683    1.9713    0.0000 C   0  0  0  0  0  0  0  0  0  0  0  0
    5.7682   -6.8744    0.0000 C   0  0  0  0  0  0  0  0  0  0  0  0
   -9.1436   -0.2765    0.0000 C   0  0  0  0  0  0  0  0  0  0  0  0
    3.7133   -2.8881    0.0000 C   0  0  0  0  0  0  0  0  0  0  0  0
    5.1422   -2.0631    0.0000 C   0  0  0  0  0  0  0  0  0  0  0  0
    5.3558   -4.5100    0.0000 C   0  0  0  0  0  0  0  0  0  0  0  0
    4.6413   -4.0974    0.0000 C   0  0  0  0  0  0  0  0  0  0  0  0
  -10.5725   -1.1015    0.0000 C   0  0  0  0  0  0  0  0  0  0  0  0
    5.8568   -1.6507    0.0000 C   0  0  0  0  0  0  0  0  0  0  0  0
    6.5712   -2.0631    0.0000 C   0  0  0  0  0  0  0  0  0  0  0  0
    8.0001   -2.0631    0.0000 C   0  0  0  0  0  0  0  0  0  0  0  0
    8.7146   -1.6507    0.0000 C   0  0  0  0  0  0  0  0  0  0  0  0
   10.1436   -1.6507    0.0000 C   0  0  0  0  0  0  0  0  0  0  0  0
   10.8579   -2.0631    0.0000 C   0  0  0  0  0  0  0  0  0  0  0  0
   11.5725   -1.6507    0.0000 C   0  0  0  0  0  0  0  0  0  0  0  0
   12.2870   -2.0631    0.0000 C   0  0  0  0  0  0  0  0  0  0  0  0
    4.4278   -1.6507    0.0000 H   0  0  0  0  0  0  0  0  0  0  0  0
  1126  1  0  0  0  0
  1161  1  0  0  0  0
  2127  1  0  0  0  0
  2162  1  0  0  0  0
  3151  1  0  0  0  0
  3153  1  0  0  0  0
  4152  1  0  0  0  0
  4154  1  0  0  0  0
  5 53  2  0  0  0  0
  5 54  1  0  0  0  0
  5 64  1  0  0  0  0
  5 65  1  0  0  0  0
  6 56  2  0  0  0  0
  6 57  1  0  0  0  0
  6 66  1  0  0  0  0
  6172  1  0  0  0  0
  7 69  1  0  0  0  0
  7 71  1  0  0  0  0
  8 70  1  0  0  0  0
  8 72  1  0  0  0  0
 81  9  1  6  0  0  0
  9 90  1  0  0  0  0
 82 10  1  6  0  0  0
 10 91  1  0  0  0  0
 83 11  1  6  0  0  0
 11 88  1  0  0  0  0
 85 12  1  6  0  0  0
 12 89  1  0  0  0  0
 84 13  1  6  0  0  0
 13 92  1  0  0  0  0
 86 14  1  6  0  0  0
 14 94  1  0  0  0  0
 87 15  1  6  0  0  0
 15 93  1  0  0  0  0
 89 16  1  6  0  0  0
 16102  1  0  0  0  0
 88 17  1  6  0  0  0
 17104  1  0  0  0  0
 90 18  1  6  0  0  0
 18113  1  0  0  0  0
 92 19  1  6  0  0  0
 19114  1  0  0  0  0
 91 20  1  6  0  0  0
 20116  1  0  0  0  0
 93 21  1  6  0  0  0
 21115  1  0  0  0  0
 94 22  1  6  0  0  0
 22117  1  0  0  0  0
 23 79  1  0  0  0  0
 23122  1  0  0  0  0
 24 80  1  0  0  0  0
 24123  1  0  0  0  0
 95 25  1  1  0  0  0
 96 26  1  1  0  0  0
 97 27  1  1  0  0  0
 98 28  1  1  0  0  0
 29 99  1  0  0  0  0
 30100  1  0  0  0  0
101 31  1  1  0  0  0
103 32  1  1  0  0  0
 33106  1  0  0  0  0
 34108  1  0  0  0  0
109 35  1  1  0  0  0
 36110  1  0  0  0  0
 37111  1  0  0  0  0
 38112  1  0  0  0  0
 39122  2  0  0  0  0
 40123  2  0  0  0  0
 41128  1  0  0  0  0
 42129  1  0  0  0  0
 43130  1  0  0  0  0
 44131  1  0  0  0  0
 45132  1  0  0  0  0
 46141  1  0  0  0  0
142 47  1  6  0  0  0
143 48  1  1  0  0  0
144 49  1  1  0  0  0
 50147  2  0  0  0  0
 51148  2  0  0  0  0
 52169  2  0  0  0  0
 55170  2  0  0  0  0
 58171  2  0  0  0  0
 59176  1  0  0  0  0
 59177  1  0  0  0  0
 60178  1  0  0  0  0
 60179  1  0  0  0  0
 61181  2  0  0  0  0
 62137  1  0  0  0  0
 62153  2  0  0  0  0
 63138  1  0  0  0  0
 63154  2  0  0  0  0
 64167  1  0  0  0  0
 65169  1  0  0  0  0
 66168  1  0  0  0  0
165 67  1  1  0  0  0
 67174  1  0  0  0  0
 68170  1  0  0  0  0
 68173  1  0  0  0  0
 69 71  1  0  0  0  0
 69 74  1  0  0  0  0
 69 77  1  1  0  0  0
 70 72  1  0  0  0  0
 70 76  1  0  0  0  0
 70 78  1  1  0  0  0
 71 73  1  6  0  0  0
 72 75  1  6  0  0  0
 73 79  1  0  0  0  0
 74105  1  0  0  0  0
 75 80  1  0  0  0  0
 76107  1  0  0  0  0
 79118  1  6  0  0  0
 80119  1  6  0  0  0
 81 95  1  0  0  0  0
 81102  1  0  0  0  0
 82 96  1  0  0  0  0
 82104  1  0  0  0  0
 83 98  1  0  0  0  0
 83114  1  0  0  0  0
 84 97  1  0  0  0  0
 84113  1  0  0  0  0
 85101  1  0  0  0  0
 85115  1  0  0  0  0
 86103  1  0  0  0  0
 86116  1  0  0  0  0
 87109  1  0  0  0  0
 87117  1  0  0  0  0
 88100  1  0  0  0  0
 89 99  1  0  0  0  0
 90106  1  0  0  0  0
 91110  1  0  0  0  0
 92108  1  0  0  0  0
 93111  1  0  0  0  0
 94112  1  0  0  0  0
 95 99  1  0  0  0  0
 96100  1  0  0  0  0
 97106  1  0  0  0  0
 98108  1  0  0  0  0
101111  1  0  0  0  0
102126  1  0  0  0  0
103110  1  0  0  0  0
104127  1  0  0  0  0
105120  1  0  0  0  0
107121  1  0  0  0  0
109112  1  0  0  0  0
113128  1  0  0  0  0
114129  1  0  0  0  0
115130  1  0  0  0  0
116131  1  0  0  0  0
117132  1  0  0  0  0
118124  2  0  0  0  0
118139  1  0  0  0  0
119125  2  0  0  0  0
119140  1  0  0  0  0
120133  1  0  0  0  0
121134  1  0  0  0  0
122145  1  0  0  0  0
123146  1  0  0  0  0
124137  1  0  0  0  0
125138  1  0  0  0  0
133141  1  0  0  0  0
133155  1  1  0  0  0
134142  1  0  0  0  0
134156  1  1  0  0  0
135143  1  0  0  0  0
135147  1  0  0  0  0
135157  1  0  0  0  0
135158  1  0  0  0  0
136144  1  0  0  0  0
136148  1  0  0  0  0
136159  1  0  0  0  0
136160  1  0  0  0  0
137151  2  0  0  0  0
138152  2  0  0  0  0
141149  1  0  0  0  0
142150  1  0  0  0  0
143145  1  0  0  0  0
144146  1  0  0  0  0
147149  1  0  0  0  0
148150  1  0  0  0  0
149163  1  1  0  0  0
150164  1  1  0  0  0
153167  1  0  0  0  0
154168  1  0  0  0  0
161165  1  0  0  0  0
166162  1  1  0  0  0
165169  1  0  0  0  0
166170  1  0  0  0  0
166183  1  0  0  0  0
171175  1  0  0  0  0
171183  1  0  0  0  0
172173  1  0  0  0  0
175176  1  0  0  0  0
177178  1  0  0  0  0
179180  1  0  0  0  0
180181  1  0  0  0  0
181182  1  0  0  0  0
M  END
> <PUBCHEM_COMPOUND_ID_TYPE>
0

> <PUBCHEM_TOTAL_CHARGE>
0

> <PUBCHEM_SUBSTANCE_ID>
310938723

> <PUBCHEM_SUBSTANCE_VERSION>
1

> <PUBCHEM_EXT_DATASOURCE_NAME>
4488

> <PUBCHEM_EXT_DATASOURCE_REGID>
SCHEMBL16116638

> <PUBCHEM_SUBSTANCE_COMMENT>
InChI=1S/C114H186N7O55P2S4/c1-48-17-15-21-113(12)70(175-113)31-58(159-74(130)33-68(128)111(8,9)100(149)53(6)77(48)133)50(3)29-55-42-181-72(119-55)35-117-177(153,154)28-23-116-103(152)67(183-76(132)20-25-158-27-26-157-24-19-52(5)127)47-180-46-66-99-85(141)92(148)110(167-66)172-97-64(41-126)163-106(88(144)81(97)137)170-94-61(38-123)164-107(89(145)82(94)138)173-98-65(166-109(91(147)84(98)140)171-96-63(40-125)162-105(87(143)80(96)136)168-93-60(37-122)161-104(86(142)79(93)135)169-95-62(39-124)165-108(174-99)90(146)83(95)139)45-179-44-57(115-14)102(151)121-178(155,156)118-36-73-120-56(43-182-73)30-51(4)59-32-71-114(13,176-71)22-16-18-49(2)78(134)54(7)101(150)112(10,11)69(129)34-75(131)160-59/h29-30,42-43,48-49,53-54,57-71,77-99,104-110,115,122-126,128-129,133-148H,15-28,31-41,44-47,183H2,1-14H3,(H,116,152)(H2,117,153,154)(H3,118,121,151,155,156)/b50-29+,51-30+/t48-,49+,53+,54-,57-,58-,59+,60?,61?,62?,63?,64?,65?,66?,67?,68-,69+,70-,71+,77-,78?,79-,80-,81-,82-,83-,84-,85-,86?,87?,88?,89?,90?,91?,92?,93-,94-,95-,96-,97-,98-,99-,104-,105-,106+,107+,108-,109+,110-,113+,114-/m1/s1
InChIKey=PACWIRPSLLURTG-DSRFWGCDSA-N

> <PUBCHEM_SUBSTANCE_SYNONYM>
SCHEMBL16116638

> <PUBCHEM_XREF_EXT_ID>
SCHEMBL16116638

> <PUBCHEM_EXT_DATASOURCE_URL>
https://www.surechembl.org/

> <PUBCHEM_EXT_SUBSTANCE_URL>
https://www.surechembl.org/chemical/SCHEMBL16116638

> <PUBCHEM_COORDINATE_TYPE>
1
3

> <PUBCHEM_BONDANNOTATIONS>
82  10  6
83  11  6
85  12  6
84  13  6
133  155  5
134  156  5
86  14  6
149  163  5
87  15  6
150  164  5
89  16  6
166  162  5
88  17  6
90  18  6
92  19  6
91  20  6
93  21  6
94  22  6
95  25  5
96  26  5
97  27  5
98  28  5
101  31  5
103  32  5
109  35  5
142  47  6
143  48  5
144  49  5
165  67  5
69  77  5
70  78  5
71  73  6
72  75  6
79  118  6
80  119  6
81  9  6

$$$$
