310938725
  -OEChem-07211613022D

101108  0     1  0  0  0  0  0999 V2000
    8.7544   -2.3055    0.0000 S   0  0  0  0  0  0  0  0  0  0  0  0
   -1.8280   -0.1756    0.0000 S   0  0  0  0  0  0  0  0  0  0  0  0
    7.5275   -0.3135    0.0000 O   0  0  0  0  0  0  0  0  0  0  0  0
    0.1239   -1.4620    0.0000 O   0  0  0  0  0  0  0  0  0  0  0  0
    5.8589   -3.2312    0.0000 O   0  0  0  0  0  0  0  0  0  0  0  0
    0.3852    1.8516    0.0000 O   0  0  0  0  0  0  0  0  0  0  0  0
    2.5689   -3.7057    0.0000 O   0  0  0  0  0  0  0  0  0  0  0  0
    6.2900    2.7906    0.0000 O   0  0  0  0  0  0  0  0  0  0  0  0
    3.1143    3.8113    0.0000 O   0  0  0  0  0  0  0  0  0  0  0  0
    7.4505   -2.9684    0.0000 O   0  0  0  0  0  0  0  0  0  0  0  0
   -0.9296    0.9731    0.0000 O   0  0  0  0  0  0  0  0  0  0  0  0
    0.0031   -3.0378    0.0000 O   0  0  0  0  0  0  0  0  0  0  0  0
    3.7276   -4.8103    0.0000 O   0  0  0  0  0  0  0  0  0  0  0  0
    8.3047    1.0634    0.0000 O   0  0  0  0  0  0  0  0  0  0  0  0
    1.6166    4.2016    0.0000 O   0  0  0  0  0  0  0  0  0  0  0  0
    5.7236    4.2932    0.0000 O   0  0  0  0  0  0  0  0  0  0  0  0
    7.0264   -0.9314    0.0000 O   0  0  0  0  0  0  0  0  0  0  0  0
    0.3149   -0.6898    0.0000 O   0  0  0  0  0  0  0  0  0  0  0  0
    5.0686   -3.2202    0.0000 O   0  0  0  0  0  0  0  0  0  0  0  0
    6.2364   -2.8658    0.0000 O   0  0  0  0  0  0  0  0  0  0  0  0
    2.0799   -3.0787    0.0000 O   0  0  0  0  0  0  0  0  0  0  0  0
    6.4521    2.0141    0.0000 O   0  0  0  0  0  0  0  0  0  0  0  0
    0.2169    1.3948    0.0000 O   0  0  0  0  0  0  0  0  0  0  0  0
    1.1112    2.1869    0.0000 O   0  0  0  0  0  0  0  0  0  0  0  0
    0.3766   -1.8765    0.0000 O   0  0  0  0  0  0  0  0  0  0  0  0
    3.1944   -3.7873    0.0000 O   0  0  0  0  0  0  0  0  0  0  0  0
    3.8198    3.4499    0.0000 O   0  0  0  0  0  0  0  0  0  0  0  0
    7.4625    0.1854    0.0000 O   0  0  0  0  0  0  0  0  0  0  0  0
    2.6652    3.5217    0.0000 O   0  0  0  0  0  0  0  0  0  0  0  0
    5.7791    3.1068    0.0000 O   0  0  0  0  0  0  0  0  0  0  0  0
    5.0481   -5.4256    0.0000 O   0  0  0  0  0  0  0  0  0  0  0  0
    0.3536   -4.4532    0.0000 O   0  0  0  0  0  0  0  0  0  0  0  0
    8.6076    2.4903    0.0000 O   0  0  0  0  0  0  0  0  0  0  0  0
    0.1571    4.1776    0.0000 O   0  0  0  0  0  0  0  0  0  0  0  0
    4.8055    5.4256    0.0000 O   0  0  0  0  0  0  0  0  0  0  0  0
    9.3308   -3.6131    0.0000 O   0  0  0  0  0  0  0  0  0  0  0  0
   10.7515   -3.7676    0.0000 O   0  0  0  0  0  0  0  0  0  0  0  0
   -2.1978   -1.5559    0.0000 O   0  0  0  0  0  0  0  0  0  0  0  0
   -3.5781   -1.9257    0.0000 O   0  0  0  0  0  0  0  0  0  0  0  0
   12.3505   -2.2817    0.0000 O   0  0  0  0  0  0  0  0  0  0  0  0
   11.5063   -3.4347    0.0000 O   0  0  0  0  0  0  0  0  0  0  0  0
   14.5056   -2.9374    0.0000 O   0  0  0  0  0  0  0  0  0  0  0  0
   16.7014   -1.9252    0.0000 O   0  0  0  0  0  0  0  0  0  0  0  0
    7.6282   -1.3831    0.0000 C   0  0  3  0  0  0  0  0  0  0  0  0
   -0.4209   -0.5353    0.0000 C   0  0  3  0  0  0  0  0  0  0  0  0
    5.0829   -3.9713    0.0000 C   0  0  3  0  0  0  0  0  0  0  0  0
    1.5036   -3.5659    0.0000 C   0  0  3  0  0  0  0  0  0  0  0  0
    0.7637    2.8534    0.0000 C   0  0  3  0  0  0  0  0  0  0  0  0
    7.1868    2.1937    0.0000 C   0  0  3  0  0  0  0  0  0  0  0  0
    4.1399    4.1331    0.0000 C   0  0  3  0  0  0  0  0  0  0  0  0
    6.6984   -3.2989    0.0000 C   0  0  3  0  0  0  0  0  0  0  0  0
   -0.3849    1.5919    0.0000 C   0  0  3  0  0  0  0  0  0  0  0  0
   -0.1515   -2.2279    0.0000 C   0  0  3  0  0  0  0  0  0  0  0  0
    8.0903    0.2707    0.0000 C   0  0  3  0  0  0  0  0  0  0  0  0
    3.0009   -4.4182    0.0000 C   0  0  3  0  0  0  0  0  0  0  0  0
    2.4381    4.1682    0.0000 C   0  0  3  0  0  0  0  0  0  0  0  0
    6.2060    3.6218    0.0000 C   0  0  3  0  0  0  0  0  0  0  0  0
    6.8691   -1.7144    0.0000 C   0  0  3  0  0  0  0  0  0  0  0  0
    0.1276    0.0838    0.0000 C   0  0  3  0  0  0  0  0  0  0  0  0
    4.3524   -3.5798    0.0000 C   0  0  3  0  0  0  0  0  0  0  0  0
    6.9921   -2.5349    0.0000 C   0  0  3  0  0  0  0  0  0  0  0  0
    1.3487   -2.7526    0.0000 C   0  0  3  0  0  0  0  0  0  0  0  0
    6.9654    1.3969    0.0000 C   0  0  3  0  0  0  0  0  0  0  0  0
   -0.3279    0.7760    0.0000 C   0  0  3  0  0  0  0  0  0  0  0  0
    7.3311   -2.1478    0.0000 C   0  0  3  0  0  0  0  0  0  0  0  0
    1.5926    2.8211    0.0000 C   0  0  3  0  0  0  0  0  0  0  0  0
   -0.4746    0.2848    0.0000 C   0  0  3  0  0  0  0  0  0  0  0  0
    0.5276   -2.6865    0.0000 C   0  0  3  0  0  0  0  0  0  0  0  0
    3.7838   -4.1791    0.0000 C   0  0  3  0  0  0  0  0  0  0  0  0
    4.6223    3.4617    0.0000 C   0  0  3  0  0  0  0  0  0  0  0  0
    7.6804    0.9784    0.0000 C   0  0  3  0  0  0  0  0  0  0  0  0
    1.8405    3.6060    0.0000 C   0  0  3  0  0  0  0  0  0  0  0  0
    5.3931    3.7507    0.0000 C   0  0  3  0  0  0  0  0  0  0  0  0
    4.2957   -4.2074    0.0000 C   0  0  3  0  0  0  0  0  0  0  0  0
    0.8280   -3.1035    0.0000 C   0  0  3  0  0  0  0  0  0  0  0  0
    7.5927    1.4860    0.0000 C   0  0  3  0  0  0  0  0  0  0  0  0
    1.3691    3.4129    0.0000 C   0  0  3  0  0  0  0  0  0  0  0  0
    4.9492    4.0038    0.0000 C   0  0  3  0  0  0  0  0  0  0  0  0
    8.0869   -1.8168    0.0000 C   0  0  0  0  0  0  0  0  0  0  0  0
   -1.0190   -0.3375    0.0000 C   0  0  0  0  0  0  0  0  0  0  0  0
    5.0261   -4.5989    0.0000 C   0  0  0  0  0  0  0  0  0  0  0  0
    0.9789   -3.9136    0.0000 C   0  0  0  0  0  0  0  0  0  0  0  0
    7.8108    2.2788    0.0000 C   0  0  0  0  0  0  0  0  0  0  0  0
    0.5442    3.4423    0.0000 C   0  0  0  0  0  0  0  0  0  0  0  0
    4.4673    4.6716    0.0000 C   0  0  0  0  0  0  0  0  0  0  0  0
    9.5093   -1.9727    0.0000 C   0  0  0  0  0  0  0  0  0  0  0  0
   -2.6249    0.0380    0.0000 C   0  0  0  0  0  0  0  0  0  0  0  0
   10.1750   -2.4601    0.0000 C   0  0  0  0  0  0  0  0  0  0  0  0
   -3.2083   -0.5454    0.0000 C   0  0  0  0  0  0  0  0  0  0  0  0
   10.0857   -3.2803    0.0000 C   0  0  0  0  0  0  0  0  0  0  0  0
   -2.9947   -1.3423    0.0000 C   0  0  0  0  0  0  0  0  0  0  0  0
   11.5956   -2.6146    0.0000 C   0  0  0  0  0  0  0  0  0  0  0  0
   -4.5886   -0.9152    0.0000 C   0  0  0  0  0  0  0  0  0  0  0  0
   13.0161   -2.7691    0.0000 C   0  0  0  0  0  0  0  0  0  0  0  0
   13.7710   -2.4363    0.0000 C   0  0  0  0  0  0  0  0  0  0  0  0
   15.1916   -2.5909    0.0000 C   0  0  0  0  0  0  0  0  0  0  0  0
   15.8574   -3.0782    0.0000 C   0  0  0  0  0  0  0  0  0  0  0  0
   16.6123   -2.7453    0.0000 C   0  0  0  0  0  0  0  0  0  0  0  0
   17.2780   -3.2327    0.0000 C   0  0  0  0  0  0  0  0  0  0  0  0
   10.9299   -2.1273    0.0000 H   0  0  0  0  0  0  0  0  0  0  0  0
   -4.0051   -0.3318    0.0000 H   0  0  0  0  0  0  0  0  0  0  0  0
  1 79  1  0  0  0  0
  1 86  1  0  0  0  0
  2 80  1  0  0  0  0
  2 87  1  0  0  0  0
 44  3  1  6  0  0  0
  3 54  1  0  0  0  0
 45  4  1  6  0  0  0
  4 53  1  0  0  0  0
 46  5  1  6  0  0  0
  5 51  1  0  0  0  0
 48  6  1  6  0  0  0
  6 52  1  0  0  0  0
 47  7  1  6  0  0  0
  7 55  1  0  0  0  0
 49  8  1  6  0  0  0
  8 57  1  0  0  0  0
 50  9  1  6  0  0  0
 56  9  1  6  0  0  0
 51 10  1  6  0  0  0
 10 65  1  0  0  0  0
 52 11  1  6  0  0  0
 11 67  1  0  0  0  0
 53 12  1  6  0  0  0
 12 75  1  0  0  0  0
 55 13  1  6  0  0  0
 13 74  1  0  0  0  0
 54 14  1  6  0  0  0
 14 76  1  0  0  0  0
 15 56  1  0  0  0  0
 15 77  1  0  0  0  0
 57 16  1  6  0  0  0
 16 78  1  0  0  0  0
 58 17  1  1  0  0  0
 59 18  1  1  0  0  0
 60 19  1  1  0  0  0
 20 61  1  0  0  0  0
 62 21  1  1  0  0  0
 63 22  1  1  0  0  0
 23 64  1  0  0  0  0
 66 24  1  1  0  0  0
 25 68  1  0  0  0  0
 26 69  1  0  0  0  0
 70 27  1  1  0  0  0
 28 71  1  0  0  0  0
 29 72  1  0  0  0  0
 30 73  1  0  0  0  0
 31 81  1  0  0  0  0
 32 82  1  0  0  0  0
 33 83  1  0  0  0  0
 34 84  1  0  0  0  0
 35 85  1  0  0  0  0
 36 90  2  0  0  0  0
 37 90  1  0  0  0  0
 38 91  2  0  0  0  0
 39 91  1  0  0  0  0
 40 92  1  0  0  0  0
 40 94  1  0  0  0  0
 41 92  2  0  0  0  0
 42 95  1  0  0  0  0
 42 96  1  0  0  0  0
 43 98  2  0  0  0  0
 44 58  1  0  0  0  0
 44 65  1  0  0  0  0
 45 59  1  0  0  0  0
 45 67  1  0  0  0  0
 46 60  1  0  0  0  0
 46 74  1  0  0  0  0
 47 62  1  0  0  0  0
 47 75  1  0  0  0  0
 48 66  1  0  0  0  0
 48 77  1  0  0  0  0
 49 63  1  0  0  0  0
 49 76  1  0  0  0  0
 50 70  1  0  0  0  0
 50 78  1  0  0  0  0
 51 61  1  0  0  0  0
 52 64  1  0  0  0  0
 53 68  1  0  0  0  0
 54 71  1  0  0  0  0
 55 69  1  0  0  0  0
 56 72  1  0  0  0  0
 57 73  1  0  0  0  0
 58 61  1  0  0  0  0
 59 64  1  0  0  0  0
 60 69  1  0  0  0  0
 62 68  1  0  0  0  0
 63 71  1  0  0  0  0
 65 79  1  0  0  0  0
 66 72  1  0  0  0  0
 67 80  1  0  0  0  0
 70 73  1  0  0  0  0
 74 81  1  0  0  0  0
 75 82  1  0  0  0  0
 76 83  1  0  0  0  0
 77 84  1  0  0  0  0
 78 85  1  0  0  0  0
 86 88  1  0  0  0  0
 87 89  1  0  0  0  0
 88 90  1  0  0  0  0
 88100  1  0  0  0  0
 89 91  1  0  0  0  0
 89101  1  0  0  0  0
 92100  1  0  0  0  0
 93101  1  0  0  0  0
 94 95  1  0  0  0  0
 96 97  1  0  0  0  0
 97 98  1  0  0  0  0
 98 99  1  0  0  0  0
M  END
> <PUBCHEM_COMPOUND_ID_TYPE>
0

> <PUBCHEM_TOTAL_CHARGE>
0

> <PUBCHEM_SUBSTANCE_ID>
310938725

> <PUBCHEM_SUBSTANCE_VERSION>
1

> <PUBCHEM_EXT_DATASOURCE_NAME>
4488

> <PUBCHEM_EXT_DATASOURCE_REGID>
SCHEMBL16116640

> <PUBCHEM_SUBSTANCE_COMMENT>
InChI=1S/C56H96O41S2/c1-16(62)3-4-82-5-6-83-56(81)101-25(48(79)80)15-99-13-23-46-32(69)39(76)55(90-23)95-44-21(11-61)86-51(35(72)28(44)65)93-42-18(8-58)87-52(36(73)29(42)66)96-45-22(12-98-14-24(100-2)47(77)78)89-54(38(75)31(45)68)94-43-20(10-60)85-50(34(71)27(43)64)91-40-17(7-57)84-49(33(70)26(40)63)92-41-19(9-59)88-53(97-46)37(74)30(41)67/h17-46,49-55,57-61,63-76H,3-15,100-101H2,1-2H3,(H,77,78)(H,79,80)/t17?,18?,19?,20?,21?,22?,23?,24?,25?,26-,27-,28-,29-,30-,31-,32-,33?,34?,35?,36?,37?,38?,39?,40-,41-,42-,43-,44-,45-,46-,49-,50-,51-,52-,53-,54-,55-/m1/s1
InChIKey=DQJAOQKIMLIQIZ-NVKPUOQLSA-N

> <PUBCHEM_SUBSTANCE_SYNONYM>
SCHEMBL16116640

> <PUBCHEM_XREF_EXT_ID>
SCHEMBL16116640

> <PUBCHEM_EXT_DATASOURCE_URL>
https://www.surechembl.org/

> <PUBCHEM_EXT_SUBSTANCE_URL>
https://www.surechembl.org/chemical/SCHEMBL16116640

> <PUBCHEM_COORDINATE_TYPE>
1
3

> <PUBCHEM_BONDANNOTATIONS>
51  10  6
52  11  6
53  12  6
55  13  6
54  14  6
57  16  6
58  17  5
59  18  5
60  19  5
62  21  5
63  22  5
66  24  5
70  27  5
44  3  6
45  4  6
46  5  6
48  6  6
47  7  6
49  8  6
50  9  6
56  9  6

$$$$
