310939528
  -OEChem-07211613022D

 28 30  0     0  0  0  0  0  0999 V2000
    1.8686   -2.1813    0.0000 Cl  0  5  0  0  0  0  0  0  0  0  0  0
    6.8699   -2.5938    0.0000 S   0  0  0  0  0  0  0  0  0  0  0  0
    1.1541   -2.5938    0.0000 N   0  3  0  0  0  0  0  0  0  0  0  0
    6.8699   -3.4188    0.0000 C   0  0  0  0  0  0  0  0  0  0  0  0
    6.0449   -3.4188    0.0000 C   0  0  0  0  0  0  0  0  0  0  0  0
    7.6949   -3.4188    0.0000 C   0  0  0  0  0  0  0  0  0  0  0  0
    6.8699   -4.2438    0.0000 C   0  0  0  0  0  0  0  0  0  0  0  0
    6.1554   -4.6563    0.0000 C   0  0  0  0  0  0  0  0  0  0  0  0
    5.6324   -2.7044    0.0000 C   0  0  0  0  0  0  0  0  0  0  0  0
    8.1074   -4.1333    0.0000 C   0  0  0  0  0  0  0  0  0  0  0  0
    7.5844   -4.6563    0.0000 C   0  0  0  0  0  0  0  0  0  0  0  0
    5.6324   -4.1333    0.0000 C   0  0  0  0  0  0  0  0  0  0  0  0
    8.1074   -2.7044    0.0000 C   0  0  0  0  0  0  0  0  0  0  0  0
    6.1554   -2.1813    0.0000 C   0  0  0  0  0  0  0  0  0  0  0  0
    6.1554   -5.4813    0.0000 C   0  0  0  0  0  0  0  0  0  0  0  0
    4.8074   -2.7044    0.0000 C   0  0  0  0  0  0  0  0  0  0  0  0
    8.9324   -4.1333    0.0000 C   0  0  0  0  0  0  0  0  0  0  0  0
    7.5844   -5.4813    0.0000 C   0  0  0  0  0  0  0  0  0  0  0  0
    4.8074   -4.1333    0.0000 C   0  0  0  0  0  0  0  0  0  0  0  0
    8.9324   -2.7044    0.0000 C   0  0  0  0  0  0  0  0  0  0  0  0
    6.8699   -5.8938    0.0000 C   0  0  0  0  0  0  0  0  0  0  0  0
    4.3949   -3.4188    0.0000 C   0  0  0  0  0  0  0  0  0  0  0  0
    9.3449   -3.4188    0.0000 C   0  0  0  0  0  0  0  0  0  0  0  0
    5.4410   -2.5938    0.0000 C   0  0  0  0  0  0  0  0  0  0  0  0
    4.7265   -2.1813    0.0000 C   0  0  0  0  0  0  0  0  0  0  0  0
    4.0120   -2.5938    0.0000 C   0  0  0  0  0  0  0  0  0  0  0  0
    3.2975   -2.1813    0.0000 C   0  0  0  0  0  0  0  0  0  0  0  0
    2.5831   -2.5938    0.0000 C   0  0  0  0  0  0  0  0  0  0  0  0
  1  3  1  0  0  0  0
  1 28  1  0  0  0  0
  2  4  1  0  0  0  0
  2 14  1  0  0  0  0
  4  5  1  0  0  0  0
  4  6  1  0  0  0  0
  4  7  1  0  0  0  0
  5  9  2  0  0  0  0
  5 12  1  0  0  0  0
  6 10  2  0  0  0  0
  6 13  1  0  0  0  0
  7  8  2  0  0  0  0
  7 11  1  0  0  0  0
  8 15  1  0  0  0  0
  9 16  1  0  0  0  0
 10 17  1  0  0  0  0
 11 18  2  0  0  0  0
 12 19  2  0  0  0  0
 13 20  2  0  0  0  0
 14 24  1  0  0  0  0
 15 21  2  0  0  0  0
 16 22  2  0  0  0  0
 17 23  2  0  0  0  0
 18 21  1  0  0  0  0
 19 22  1  0  0  0  0
 20 23  1  0  0  0  0
 24 25  1  0  0  0  0
 25 26  1  0  0  0  0
 26 27  1  0  0  0  0
 27 28  1  0  0  0  0
M  CHG  2   1  -1   3   1
M  END
> <PUBCHEM_COMPOUND_ID_TYPE>
0

> <PUBCHEM_TOTAL_CHARGE>
0

> <PUBCHEM_SUBSTANCE_ID>
310939528

> <PUBCHEM_SUBSTANCE_VERSION>
1

> <PUBCHEM_EXT_DATASOURCE_NAME>
4488

> <PUBCHEM_EXT_DATASOURCE_REGID>
SCHEMBL16117457

> <PUBCHEM_SUBSTANCE_COMMENT>
InChI=1S/C25H30ClNS/c27-26-20-12-1-2-13-21-28-25(22-14-6-3-7-15-22,23-16-8-4-9-17-23)24-18-10-5-11-19-24/h3-11,14-19H,1-2,12-13,20-21H2,27H3
InChIKey=YEEOPGLQQSBXSF-UHFFFAOYSA-N

> <PUBCHEM_SUBSTANCE_SYNONYM>
SCHEMBL16117457

> <PUBCHEM_XREF_EXT_ID>
SCHEMBL16117457

> <PUBCHEM_EXT_DATASOURCE_URL>
https://www.surechembl.org/

> <PUBCHEM_EXT_SUBSTANCE_URL>
https://www.surechembl.org/chemical/SCHEMBL16117457

> <PUBCHEM_CID_ASSOCIATIONS>
117606824  1
117606825  2

> <PUBCHEM_COORDINATE_TYPE>
1
3

$$$$
