310940251
  -OEChem-07211613022D

 99108  0     1  0  0  0  0  0999 V2000
    9.8717   -5.6162    0.0000 *   0  0  0  0  0  0  0  0  0  0  0  0
    3.0101   -6.5150    0.0000 O   0  0  0  0  0  0  0  0  0  0  0  0
   12.4465   -6.5150    0.0000 O   0  0  0  0  0  0  0  0  0  0  0  0
    5.5849   -3.9662    0.0000 O   0  0  0  0  0  0  0  0  0  0  0  0
    5.5849   -5.6162    0.0000 O   0  0  0  0  0  0  0  0  0  0  0  0
    9.8717   -3.9662    0.0000 O   0  0  0  0  0  0  0  0  0  0  0  0
   17.6449   -7.3636    0.0000 O   0  0  0  0  0  0  0  0  0  0  0  0
   -4.3317   -6.9512    0.0000 O   0  0  0  0  0  0  0  0  0  0  0  0
   -3.6173   -8.1886    0.0000 O   0  0  0  0  0  0  0  0  0  0  0  0
   -8.6185   -6.9512    0.0000 O   0  0  0  0  0  0  0  0  0  0  0  0
  -18.3890   -5.1568    0.0000 O   0  0  0  0  0  0  0  0  0  0  0  0
  -16.4775   -7.3636    0.0000 O   0  0  0  0  0  0  0  0  0  0  0  0
  -10.7618   -4.8887    0.0000 O   0  0  0  0  0  0  0  0  0  0  0  0
  -12.9052   -6.9512    0.0000 O   0  0  0  0  0  0  0  0  0  0  0  0
   -8.6185   -2.0012    0.0000 O   0  0  0  0  0  0  0  0  0  0  0  0
    1.9923   -5.5345    0.0000 N   0  0  0  0  0  0  0  0  0  0  0  0
   13.4643   -5.5345    0.0000 N   0  0  0  0  0  0  0  0  0  0  0  0
    2.7965   -3.8644    0.0000 N   0  0  0  0  0  0  0  0  0  0  0  0
   12.6600   -3.8644    0.0000 N   0  0  0  0  0  0  0  0  0  0  0  0
  -17.1919   -6.1262    0.0000 N   0  0  0  0  0  0  0  0  0  0  0  0
  -10.0473   -6.1262    0.0000 N   0  0  0  0  0  0  0  0  0  0  0  0
   -7.9040   -3.2388    0.0000 N   0  0  0  0  0  0  0  0  0  0  0  0
   -7.1896   -2.0012    0.0000 N   0  0  0  0  0  0  0  0  0  0  0  0
    3.4415   -5.2037    0.0000 C   0  0  0  0  0  0  0  0  0  0  0  0
    2.7965   -5.7181    0.0000 C   0  0  0  0  0  0  0  0  0  0  0  0
    1.6343   -4.7912    0.0000 C   0  0  3  0  0  0  0  0  0  0  0  0
   12.6600   -5.7181    0.0000 C   0  0  0  0  0  0  0  0  0  0  0  0
   12.0151   -5.2037    0.0000 C   0  0  0  0  0  0  0  0  0  0  0  0
   13.8222   -4.7912    0.0000 C   0  0  3  0  0  0  0  0  0  0  0  0
    3.4415   -4.3788    0.0000 C   0  0  0  0  0  0  0  0  0  0  0  0
    0.6695   -5.7137    0.0000 C   0  0  0  0  0  0  0  0  0  0  0  0
   12.0151   -4.3788    0.0000 C   0  0  0  0  0  0  0  0  0  0  0  0
   14.7871   -5.7137    0.0000 C   0  0  0  0  0  0  0  0  0  0  0  0
    1.3960   -6.1047    0.0000 C   0  0  0  0  0  0  0  0  0  0  0  0
   14.0606   -6.1047    0.0000 C   0  0  0  0  0  0  0  0  0  0  0  0
    0.8168   -4.9020    0.0000 C   0  0  0  0  0  0  0  0  0  0  0  0
   14.6398   -4.9020    0.0000 C   0  0  0  0  0  0  0  0  0  0  0  0
    4.1560   -5.6162    0.0000 C   0  0  0  0  0  0  0  0  0  0  0  0
    1.9923   -4.0479    0.0000 C   0  0  0  0  0  0  0  0  0  0  0  0
    4.8704   -5.2037    0.0000 C   0  0  0  0  0  0  0  0  0  0  0  0
    4.8704   -4.3788    0.0000 C   0  0  0  0  0  0  0  0  0  0  0  0
    4.1560   -3.9662    0.0000 C   0  0  0  0  0  0  0  0  0  0  0  0
   13.4643   -4.0479    0.0000 C   0  0  0  0  0  0  0  0  0  0  0  0
   11.3006   -5.6162    0.0000 C   0  0  0  0  0  0  0  0  0  0  0  0
   -0.0450   -6.1262    0.0000 C   0  0  0  0  0  0  0  0  0  0  0  0
   15.5015   -6.1262    0.0000 C   0  0  0  0  0  0  0  0  0  0  0  0
   11.3006   -3.9662    0.0000 C   0  0  0  0  0  0  0  0  0  0  0  0
   10.5861   -4.3788    0.0000 C   0  0  0  0  0  0  0  0  0  0  0  0
   10.5861   -5.2037    0.0000 C   0  0  0  0  0  0  0  0  0  0  0  0
   -0.7594   -5.7137    0.0000 C   0  0  0  0  0  0  0  0  0  0  0  0
   -0.0450   -6.9512    0.0000 C   0  0  0  0  0  0  0  0  0  0  0  0
   15.5015   -6.9512    0.0000 C   0  0  0  0  0  0  0  0  0  0  0  0
   16.2160   -5.7137    0.0000 C   0  0  0  0  0  0  0  0  0  0  0  0
   -1.4739   -6.9512    0.0000 C   0  0  0  0  0  0  0  0  0  0  0  0
   -1.4739   -6.1262    0.0000 C   0  0  0  0  0  0  0  0  0  0  0  0
   -0.7594   -7.3636    0.0000 C   0  0  0  0  0  0  0  0  0  0  0  0
   16.2160   -7.3636    0.0000 C   0  0  0  0  0  0  0  0  0  0  0  0
   16.9305   -6.1262    0.0000 C   0  0  0  0  0  0  0  0  0  0  0  0
   16.9305   -6.9512    0.0000 C   0  0  0  0  0  0  0  0  0  0  0  0
    6.2994   -4.3788    0.0000 C   0  0  0  0  0  0  0  0  0  0  0  0
    9.1572   -4.3788    0.0000 C   0  0  0  0  0  0  0  0  0  0  0  0
    6.4015   -5.1448    0.0000 C   0  0  0  0  0  0  0  0  0  0  0  0
   -2.1883   -7.3636    0.0000 C   0  0  0  0  0  0  0  0  0  0  0  0
    7.0138   -3.9662    0.0000 C   0  0  0  0  0  0  0  0  0  0  0  0
    8.4428   -3.9662    0.0000 C   0  0  0  0  0  0  0  0  0  0  0  0
    7.7283   -4.3788    0.0000 C   0  0  0  0  0  0  0  0  0  0  0  0
   18.4615   -6.8922    0.0000 C   0  0  0  0  0  0  0  0  0  0  0  0
   -3.6173   -7.3636    0.0000 C   0  0  0  0  0  0  0  0  0  0  0  0
   -5.0462   -7.3636    0.0000 C   0  0  0  0  0  0  0  0  0  0  0  0
   -5.7606   -6.9512    0.0000 C   0  0  0  0  0  0  0  0  0  0  0  0
   -7.1896   -6.1262    0.0000 C   0  0  0  0  0  0  0  0  0  0  0  0
   -5.7606   -6.1262    0.0000 C   0  0  0  0  0  0  0  0  0  0  0  0
   -6.4751   -7.3636    0.0000 C   0  0  0  0  0  0  0  0  0  0  0  0
   -9.3330   -5.7137    0.0000 C   0  0  3  0  0  0  0  0  0  0  0  0
   -8.6185   -6.1262    0.0000 C   0  0  0  0  0  0  0  0  0  0  0  0
  -17.1919   -6.9512    0.0000 C   0  0  0  0  0  0  0  0  0  0  0  0
  -17.9766   -5.8712    0.0000 C   0  0  0  0  0  0  0  0  0  0  0  0
   -6.4751   -5.7137    0.0000 C   0  0  0  0  0  0  0  0  0  0  0  0
   -7.1896   -6.9512    0.0000 C   0  0  0  0  0  0  0  0  0  0  0  0
  -11.4762   -6.1262    0.0000 C   0  0  0  0  0  0  0  0  0  0  0  0
  -10.7618   -5.7137    0.0000 C   0  0  0  0  0  0  0  0  0  0  0  0
  -18.4615   -6.5387    0.0000 C   0  0  0  0  0  0  0  0  0  0  0  0
  -17.9766   -7.2061    0.0000 C   0  0  0  0  0  0  0  0  0  0  0  0
  -16.4775   -5.7137    0.0000 C   0  0  0  0  0  0  0  0  0  0  0  0
  -11.4762   -6.9512    0.0000 C   0  0  0  0  0  0  0  0  0  0  0  0
   -9.3330   -4.8887    0.0000 C   0  0  0  0  0  0  0  0  0  0  0  0
  -12.9052   -6.1262    0.0000 C   0  0  0  0  0  0  0  0  0  0  0  0
  -15.7630   -6.1262    0.0000 C   0  0  0  0  0  0  0  0  0  0  0  0
   -8.6185   -4.4763    0.0000 C   0  0  0  0  0  0  0  0  0  0  0  0
  -13.6196   -5.7137    0.0000 C   0  0  0  0  0  0  0  0  0  0  0  0
  -15.0486   -5.7137    0.0000 C   0  0  0  0  0  0  0  0  0  0  0  0
  -10.7618   -7.3636    0.0000 C   0  0  0  0  0  0  0  0  0  0  0  0
  -12.1907   -7.3636    0.0000 C   0  0  0  0  0  0  0  0  0  0  0  0
  -14.3341   -6.1262    0.0000 C   0  0  0  0  0  0  0  0  0  0  0  0
   -8.6185   -3.6512    0.0000 C   0  0  0  0  0  0  0  0  0  0  0  0
   -7.9040   -2.4138    0.0000 C   0  0  0  0  0  0  0  0  0  0  0  0
   -2.9028   -6.9512    0.0000 H   0  0  0  0  0  0  0  0  0  0  0  0
   -7.9040   -5.7137    0.0000 H   0  0  0  0  0  0  0  0  0  0  0  0
  -12.1907   -5.7137    0.0000 H   0  0  0  0  0  0  0  0  0  0  0  0
  1 49  1  0  0  0  0
  2 25  2  0  0  0  0
  3 27  2  0  0  0  0
  4 41  1  0  0  0  0
  4 60  1  0  0  0  0
  5 40  1  0  0  0  0
  5 62  1  0  0  0  0
  6 48  1  0  0  0  0
  6 61  1  0  0  0  0
  7 59  1  0  0  0  0
  7 67  1  0  0  0  0
  8 68  1  0  0  0  0
  8 69  1  0  0  0  0
  9 68  2  0  0  0  0
 10 75  2  0  0  0  0
 11 77  2  0  0  0  0
 12 76  2  0  0  0  0
 13 81  2  0  0  0  0
 14 87  2  0  0  0  0
 15 96  2  0  0  0  0
 16 25  1  0  0  0  0
 26 16  1  1  0  0  0
 16 34  1  0  0  0  0
 17 27  1  0  0  0  0
 29 17  1  6  0  0  0
 17 35  1  0  0  0  0
 18 30  1  0  0  0  0
 18 39  2  0  0  0  0
 19 32  1  0  0  0  0
 19 43  2  0  0  0  0
 20 76  1  0  0  0  0
 20 77  1  0  0  0  0
 20 84  1  0  0  0  0
 74 21  1  1  0  0  0
 21 81  1  0  0  0  0
 22 95  1  0  0  0  0
 22 96  1  0  0  0  0
 23 96  1  0  0  0  0
 24 25  1  0  0  0  0
 24 30  2  0  0  0  0
 24 38  1  0  0  0  0
 26 36  1  0  0  0  0
 26 39  1  0  0  0  0
 27 28  1  0  0  0  0
 28 32  1  0  0  0  0
 28 44  2  0  0  0  0
 29 37  1  0  0  0  0
 29 43  1  0  0  0  0
 30 42  1  0  0  0  0
 31 34  2  0  0  0  0
 31 36  1  0  0  0  0
 31 45  1  0  0  0  0
 32 47  2  0  0  0  0
 33 35  2  0  0  0  0
 33 37  1  0  0  0  0
 33 46  1  0  0  0  0
 38 40  2  0  0  0  0
 40 41  1  0  0  0  0
 41 42  2  0  0  0  0
 44 49  1  0  0  0  0
 45 50  2  0  0  0  0
 45 51  1  0  0  0  0
 46 52  2  0  0  0  0
 46 53  1  0  0  0  0
 47 48  1  0  0  0  0
 48 49  2  0  0  0  0
 50 55  1  0  0  0  0
 51 56  2  0  0  0  0
 52 57  1  0  0  0  0
 53 58  2  0  0  0  0
 54 55  2  0  0  0  0
 54 56  1  0  0  0  0
 54 63  1  0  0  0  0
 57 59  2  0  0  0  0
 58 59  1  0  0  0  0
 60 64  1  0  0  0  0
 61 65  1  0  0  0  0
 63 97  1  0  0  0  0
 64 66  1  0  0  0  0
 65 66  1  0  0  0  0
 68 97  1  0  0  0  0
 69 70  1  0  0  0  0
 70 72  2  0  0  0  0
 70 73  1  0  0  0  0
 71 78  2  0  0  0  0
 71 79  1  0  0  0  0
 71 98  1  0  0  0  0
 72 78  1  0  0  0  0
 73 79  2  0  0  0  0
 74 75  1  0  0  0  0
 74 86  1  0  0  0  0
 75 98  1  0  0  0  0
 76 83  1  0  0  0  0
 77 82  1  0  0  0  0
 80 81  1  0  0  0  0
 80 85  1  0  0  0  0
 80 99  1  6  0  0  0
 82 83  2  0  0  0  0
 84 88  1  0  0  0  0
 85 92  1  0  0  0  0
 85 93  1  0  0  0  0
 86 89  1  0  0  0  0
 87 90  1  0  0  0  0
 87 99  1  0  0  0  0
 88 91  1  0  0  0  0
 89 95  1  0  0  0  0
 90 94  1  0  0  0  0
 91 94  1  0  0  0  0
A    1
Me^O
M  END
> <PUBCHEM_COMPOUND_ID_TYPE>
0

> <PUBCHEM_TOTAL_CHARGE>
0

> <PUBCHEM_SUBSTANCE_ID>
310940251

> <PUBCHEM_SUBSTANCE_VERSION>
1

> <PUBCHEM_EXT_DATASOURCE_NAME>
4488

> <PUBCHEM_EXT_DATASOURCE_REGID>
SCHEMBL16118189

> <PUBCHEM_SUBSTANCE_COMMENT>
InChI=1S/C74H89N8O14/c1-45(2)68(99-67(85)14-8-6-9-30-80-65(83)27-28-66(80)84)69(86)79-59(13-12-29-76-73(75)90)72(89)98-56-25-17-47(18-26-56)43-96-74(91)97-44-48-15-19-49(20-16-48)51-34-54-40-78-61-38-64(63(93-5)36-58(61)71(88)82(54)41-51)95-32-11-7-10-31-94-62-37-60-57(33-46(62)3)70(87)81-42-52(35-53(81)39-77-60)50-21-23-55(92-4)24-22-50/h15-28,33,36-42,45,53-54,59,68H,6-14,29-32,34-35,43-44,97-99H2,1-5H3,(H,79,86)(H3,75,76,90)/t53-,54-,59-,68?/m0/s1
InChIKey=DTGMQFDQIOUTGW-ZLMUBMCDSA-N

> <PUBCHEM_SUBSTANCE_SYNONYM>
SCHEMBL16118189

> <PUBCHEM_XREF_EXT_ID>
SCHEMBL16118189

> <PUBCHEM_EXT_DATASOURCE_URL>
https://www.surechembl.org/

> <PUBCHEM_EXT_SUBSTANCE_URL>
https://www.surechembl.org/chemical/SCHEMBL16118189

> <PUBCHEM_COORDINATE_TYPE>
1
3

> <PUBCHEM_BONDANNOTATIONS>
26  16  5
29  17  6
74  21  5
80  99  6

$$$$
