310938583
  -OEChem-07211613022D

 20 22  0     0  0  0  0  0  0999 V2000
   -4.0340    0.8646    0.0000 O   0  0  0  0  0  0  0  0  0  0  0  0
   -5.4629    0.8646    0.0000 O   0  0  0  0  0  0  0  0  0  0  0  0
   -4.0340    2.5146    0.0000 N   0  0  0  0  0  0  0  0  0  0  0  0
   -3.2494    2.2597    0.0000 N   0  0  0  0  0  0  0  0  0  0  0  0
   -4.7485    3.7521    0.0000 N   0  0  0  0  0  0  0  0  0  0  0  0
   -4.0340    3.3396    0.0000 C   0  0  0  0  0  0  0  0  0  0  0  0
   -2.7644    2.9271    0.0000 C   0  0  0  0  0  0  0  0  0  0  0  0
   -4.7485    2.1021    0.0000 C   0  0  0  0  0  0  0  0  0  0  0  0
   -3.2494    3.5946    0.0000 C   0  0  0  0  0  0  0  0  0  0  0  0
   -1.9394    2.9271    0.0000 C   0  0  0  0  0  0  0  0  0  0  0  0
   -4.7485    1.2771    0.0000 C   0  0  0  0  0  0  0  0  0  0  0  0
   -5.4629    2.5146    0.0000 C   0  0  0  0  0  0  0  0  0  0  0  0
   -1.5269    3.6416    0.0000 C   0  0  0  0  0  0  0  0  0  0  0  0
   -5.4629    3.3396    0.0000 C   0  0  0  0  0  0  0  0  0  0  0  0
   -1.5269    2.2127    0.0000 C   0  0  0  0  0  0  0  0  0  0  0  0
   -0.7019    3.6416    0.0000 C   0  0  0  0  0  0  0  0  0  0  0  0
   -0.7019    2.2127    0.0000 C   0  0  0  0  0  0  0  0  0  0  0  0
   -0.2894    2.9271    0.0000 C   0  0  0  0  0  0  0  0  0  0  0  0
   -1.9394    4.3561    0.0000 C   0  0  0  0  0  0  0  0  0  0  0  0
   -3.3195    1.2771    0.0000 C   0  0  0  0  0  0  0  0  0  0  0  0
  1 11  1  0  0  0  0
  1 20  1  0  0  0  0
  2 11  2  0  0  0  0
  3  4  1  0  0  0  0
  3  6  1  0  0  0  0
  3  8  1  0  0  0  0
  4  7  2  0  0  0  0
  5  6  1  0  0  0  0
  5 14  2  0  0  0  0
  6  9  2  0  0  0  0
  7  9  1  0  0  0  0
  7 10  1  0  0  0  0
  8 11  1  0  0  0  0
  8 12  2  0  0  0  0
 10 13  1  0  0  0  0
 10 15  2  0  0  0  0
 12 14  1  0  0  0  0
 13 16  2  0  0  0  0
 13 19  1  0  0  0  0
 15 17  1  0  0  0  0
 16 18  1  0  0  0  0
 17 18  2  0  0  0  0
M  END
> <PUBCHEM_COMPOUND_ID_TYPE>
0

> <PUBCHEM_TOTAL_CHARGE>
0

> <PUBCHEM_SUBSTANCE_ID>
310938583

> <PUBCHEM_SUBSTANCE_VERSION>
1

> <PUBCHEM_EXT_DATASOURCE_NAME>
4488

> <PUBCHEM_EXT_DATASOURCE_REGID>
SCHEMBL16116497

> <PUBCHEM_SUBSTANCE_COMMENT>
InChI=1S/C15H13N3O2/c1-10-5-3-4-6-11(10)12-9-14-16-8-7-13(15(19)20-2)18(14)17-12/h3-9H,1-2H3
InChIKey=IVXATFYKEBYCCH-UHFFFAOYSA-N

> <PUBCHEM_SUBSTANCE_SYNONYM>
SCHEMBL16116497

> <PUBCHEM_XREF_EXT_ID>
SCHEMBL16116497

> <PUBCHEM_EXT_DATASOURCE_URL>
https://www.surechembl.org/

> <PUBCHEM_EXT_SUBSTANCE_URL>
https://www.surechembl.org/chemical/SCHEMBL16116497

> <PUBCHEM_CID_ASSOCIATIONS>
117606019  1

> <PUBCHEM_COORDINATE_TYPE>
1
3

$$$$
