310943380
  -OEChem-07211613022D

 36 39  0     0  0  0  0  0  0999 V2000
    4.6424   -1.6454    0.0000 F   0  0  0  0  0  0  0  0  0  0  0  0
   -3.2153   -0.4197    0.0000 O   0  0  0  0  0  0  0  0  0  0  0  0
   -4.6424    2.0652    0.0000 O   0  0  0  0  0  0  0  0  0  0  0  0
    2.5101    2.0652    0.0000 O   0  0  0  0  0  0  0  0  0  0  0  0
   -3.9373   -2.4849    0.0000 O   0  0  0  0  0  0  0  0  0  0  0  0
   -3.2153    1.2424    0.0000 N   0  0  0  0  0  0  0  0  0  0  0  0
   -1.7882   -0.4197    0.0000 N   0  0  0  0  0  0  0  0  0  0  0  0
    0.3610    2.4849    0.0000 N   0  0  0  0  0  0  0  0  0  0  0  0
    1.8049    0.8227    0.0000 N   0  0  0  0  0  0  0  0  0  0  0  0
    3.9373    1.2424    0.0000 N   0  0  0  0  0  0  0  0  0  0  0  0
   -1.0662    0.8395    0.0000 C   0  0  0  0  0  0  0  0  0  0  0  0
   -0.3778    1.2592    0.0000 C   0  0  0  0  0  0  0  0  0  0  0  0
   -2.5101    0.8563    0.0000 C   0  0  0  0  0  0  0  0  0  0  0  0
   -2.5269    0.0168    0.0000 C   0  0  0  0  0  0  0  0  0  0  0  0
   -1.7882    1.2592    0.0000 C   0  0  0  0  0  0  0  0  0  0  0  0
   -0.3610    2.0987    0.0000 C   0  0  0  0  0  0  0  0  0  0  0  0
    0.3778    0.8395    0.0000 C   0  0  0  0  0  0  0  0  0  0  0  0
    1.0830    1.2592    0.0000 C   0  0  0  0  0  0  0  0  0  0  0  0
   -1.0830    0.0000    0.0000 C   0  0  0  0  0  0  0  0  0  0  0  0
    3.2321    0.8395    0.0000 C   0  0  0  0  0  0  0  0  0  0  0  0
    2.4933    1.2424    0.0000 C   0  0  0  0  0  0  0  0  0  0  0  0
    1.0830    2.0652    0.0000 C   0  0  0  0  0  0  0  0  0  0  0  0
    3.9373   -0.4029    0.0000 C   0  0  0  0  0  0  0  0  0  0  0  0
    3.9036   -1.2424    0.0000 C   0  0  0  0  0  0  0  0  0  0  0  0
    3.2153    0.0168    0.0000 C   0  0  0  0  0  0  0  0  0  0  0  0
   -3.2321    2.0819    0.0000 C   0  0  0  0  0  0  0  0  0  0  0  0
   -3.9205    0.8395    0.0000 C   0  0  0  0  0  0  0  0  0  0  0  0
    4.6424    0.0168    0.0000 C   0  0  0  0  0  0  0  0  0  0  0  0
   -1.0830    2.4681    0.0000 C   0  0  0  0  0  0  0  0  0  0  0  0
    4.6592    0.8395    0.0000 C   0  0  0  0  0  0  0  0  0  0  0  0
   -3.9540    2.4849    0.0000 C   0  0  0  0  0  0  0  0  0  0  0  0
   -4.6592    1.2592    0.0000 C   0  0  0  0  0  0  0  0  0  0  0  0
   -3.2321   -1.2257    0.0000 C   0  0  0  0  0  0  0  0  0  0  0  0
    3.2153   -1.6286    0.0000 C   0  0  0  0  0  0  0  0  0  0  0  0
    3.7358   -2.0484    0.0000 C   0  0  0  0  0  0  0  0  0  0  0  0
   -3.9205   -1.6454    0.0000 C   0  0  0  0  0  0  0  0  0  0  0  0
  1 24  1  0  0  0  0
  2 14  1  0  0  0  0
  2 33  1  0  0  0  0
  3 31  1  0  0  0  0
  3 32  1  0  0  0  0
  4 21  2  0  0  0  0
  5 36  1  0  0  0  0
  6 13  1  0  0  0  0
  6 26  1  0  0  0  0
  6 27  1  0  0  0  0
  7 14  1  0  0  0  0
  7 19  2  0  0  0  0
  8 16  2  0  0  0  0
  8 22  1  0  0  0  0
  9 18  1  0  0  0  0
  9 21  1  0  0  0  0
 10 20  1  0  0  0  0
 10 30  2  0  0  0  0
 11 12  1  0  0  0  0
 11 15  2  0  0  0  0
 11 19  1  0  0  0  0
 12 16  1  0  0  0  0
 12 17  2  0  0  0  0
 13 14  2  0  0  0  0
 13 15  1  0  0  0  0
 16 29  1  0  0  0  0
 17 18  1  0  0  0  0
 18 22  2  0  0  0  0
 20 21  1  0  0  0  0
 20 25  2  0  0  0  0
 23 24  1  0  0  0  0
 23 25  1  0  0  0  0
 23 28  2  0  0  0  0
 24 34  1  0  0  0  0
 24 35  1  0  0  0  0
 26 31  1  0  0  0  0
 27 32  1  0  0  0  0
 28 30  1  0  0  0  0
 33 36  1  0  0  0  0
M  END
> <PUBCHEM_COMPOUND_ID_TYPE>
0

> <PUBCHEM_TOTAL_CHARGE>
0

> <PUBCHEM_SUBSTANCE_ID>
310943380

> <PUBCHEM_SUBSTANCE_VERSION>
1

> <PUBCHEM_EXT_DATASOURCE_NAME>
4488

> <PUBCHEM_EXT_DATASOURCE_REGID>
SCHEMBL16121443

> <PUBCHEM_SUBSTANCE_COMMENT>
InChI=1S/C26H30FN5O4/c1-17-21(18-12-23(32-6-9-35-10-7-32)25(30-15-18)36-11-8-33)14-20(16-29-17)31-24(34)22-13-19(4-5-28-22)26(2,3)27/h4-5,12-16,33H,6-11H2,1-3H3,(H,31,34)
InChIKey=HJXMUWPUYZZAKE-UHFFFAOYSA-N

> <PUBCHEM_SUBSTANCE_SYNONYM>
SCHEMBL16121443

> <PUBCHEM_XREF_EXT_ID>
SCHEMBL16121443

> <PUBCHEM_EXT_DATASOURCE_URL>
https://www.surechembl.org/

> <PUBCHEM_EXT_SUBSTANCE_URL>
https://www.surechembl.org/chemical/SCHEMBL16121443

> <PUBCHEM_CID_ASSOCIATIONS>
117609804  1

> <PUBCHEM_COORDINATE_TYPE>
1
3

$$$$
