310928741
  -OEChem-07211613022D

 12 13  0     0  0  0  0  0  0999 V2000
    1.6377   -1.2111    0.0000 O   0  0  0  0  0  0  0  0  0  0  0  0
    0.5758    1.0799    0.0000 N   0  0  0  0  0  0  0  0  0  0  0  0
   -1.6377    0.0000    0.0000 N   0  0  0  0  0  0  0  0  0  0  0  0
   -0.2088    0.0000    0.0000 C   0  0  0  0  0  0  0  0  0  0  0  0
   -0.2088    0.8250    0.0000 C   0  0  0  0  0  0  0  0  0  0  0  0
    0.5758   -0.2549    0.0000 C   0  0  0  0  0  0  0  0  0  0  0  0
   -0.9233   -0.4125    0.0000 C   0  0  0  0  0  0  0  0  0  0  0  0
    1.0607    0.4125    0.0000 C   0  0  0  0  0  0  0  0  0  0  0  0
   -0.9233    1.2375    0.0000 C   0  0  0  0  0  0  0  0  0  0  0  0
   -1.6377    0.8250    0.0000 C   0  0  0  0  0  0  0  0  0  0  0  0
    0.8308   -1.0396    0.0000 C   0  0  0  0  0  0  0  0  0  0  0  0
   -0.9233   -1.2375    0.0000 C   0  0  0  0  0  0  0  0  0  0  0  0
  1 11  2  0  0  0  0
  2  5  1  0  0  0  0
  2  8  1  0  0  0  0
  3  7  2  0  0  0  0
  3 10  1  0  0  0  0
  4  5  2  0  0  0  0
  4  6  1  0  0  0  0
  4  7  1  0  0  0  0
  5  9  1  0  0  0  0
  6  8  2  0  0  0  0
  6 11  1  0  0  0  0
  7 12  1  0  0  0  0
  9 10  2  0  0  0  0
M  END
> <PUBCHEM_COMPOUND_ID_TYPE>
0

> <PUBCHEM_TOTAL_CHARGE>
0

> <PUBCHEM_SUBSTANCE_ID>
310928741

> <PUBCHEM_SUBSTANCE_VERSION>
1

> <PUBCHEM_EXT_DATASOURCE_NAME>
11752

> <PUBCHEM_EXT_DATASOURCE_REGID>
BD261317

> <PUBCHEM_SUBSTANCE_SYNONYM>
1000342-69-7
4-Methyl-1H-pyrrolo[3,2-c]pyridine-3-carbaldehyde

> <PUBCHEM_GENERIC_REGISTRY_NAME>
1000342-69-7

> <PUBCHEM_XREF_EXT_ID>
BD261317

> <PUBCHEM_EXT_DATASOURCE_URL>
http://www.bidepharmatech.com/en/index.html

> <PUBCHEM_EXT_SUBSTANCE_URL>
http://www.bidepharmatech.com/en/goodsview_goodscode_BD261317.html

> <PUBCHEM_CID_ASSOCIATIONS>
24729407  1

> <PUBCHEM_COORDINATE_TYPE>
1
3

$$$$
