310942470
  -OEChem-07211613022D

 42 47  0     1  0  0  0  0  0999 V2000
    4.8110    2.1241    0.0000 I   0  0  0  0  0  0  0  0  0  0  0  0
    1.8238    1.0733    0.0000 O   0  0  0  0  0  0  0  0  0  0  0  0
    2.3042   -1.0583    0.0000 O   0  0  0  0  0  0  0  0  0  0  0  0
    1.0733   -0.9832    0.0000 O   0  0  0  0  0  0  0  0  0  0  0  0
    3.2048    0.7280    0.0000 N   0  0  0  0  0  0  0  0  0  0  0  0
    3.8804   -0.6230    0.0000 N   0  0  0  0  0  0  0  0  0  0  0  0
   -0.3377    0.6230    0.0000 N   0  0  3  0  0  0  0  0  0  0  0  0
    5.2914   -0.5179    0.0000 N   0  0  0  0  0  0  0  0  0  0  0  0
    5.9369    0.7581    0.0000 N   0  0  0  0  0  0  0  0  0  0  0  0
   -2.6795   -0.8782    0.0000 N   0  0  0  0  0  0  0  0  0  0  0  0
   -3.3399   -2.0640    0.0000 N   0  0  0  0  0  0  0  0  0  0  0  0
    2.4093    0.5329    0.0000 C   0  0  3  0  0  0  0  0  0  0  0  0
    3.8504    0.2326    0.0000 C   0  0  0  0  0  0  0  0  0  0  0  0
    4.5109    0.6830    0.0000 C   0  0  0  0  0  0  0  0  0  0  0  0
    2.0790   -0.2326    0.0000 C   0  0  3  0  0  0  0  0  0  0  0  0
    4.3007    1.4786    0.0000 C   0  0  0  0  0  0  0  0  0  0  0  0
    1.1033    0.6530    0.0000 C   0  0  3  0  0  0  0  0  0  0  0  0
    3.4901    1.5236    0.0000 C   0  0  0  0  0  0  0  0  0  0  0  0
    1.2835   -0.1426    0.0000 C   0  0  3  0  0  0  0  0  0  0  0  0
    5.2764    0.3227    0.0000 C   0  0  0  0  0  0  0  0  0  0  0  0
    0.3677    1.0583    0.0000 C   0  0  0  0  0  0  0  0  0  0  0  0
   -0.5479   -0.1726    0.0000 C   0  0  0  0  0  0  0  0  0  0  0  0
    4.6459   -0.9832    0.0000 C   0  0  0  0  0  0  0  0  0  0  0  0
   -0.8331   -1.2985    0.0000 C   0  0  0  0  0  0  0  0  0  0  0  0
   -1.2384   -0.6079    0.0000 C   0  0  0  0  0  0  0  0  0  0  0  0
   -0.1426   -0.8782    0.0000 C   0  0  0  0  0  0  0  0  0  0  0  0
   -1.0433    1.0583    0.0000 C   0  0  0  0  0  0  0  0  0  0  0  0
   -3.4901   -0.6980    0.0000 C   0  0  0  0  0  0  0  0  0  0  0  0
   -3.8804   -1.4186    0.0000 C   0  0  0  0  0  0  0  0  0  0  0  0
   -2.6045   -1.6887    0.0000 C   0  0  0  0  0  0  0  0  0  0  0  0
   -4.7210    0.0075    0.0000 C   0  0  0  0  0  0  0  0  0  0  0  0
   -1.0583   -2.1241    0.0000 C   0  0  0  0  0  0  0  0  0  0  0  0
   -3.8954    0.0225    0.0000 C   0  0  0  0  0  0  0  0  0  0  0  0
   -1.8839   -2.1241    0.0000 C   0  0  0  0  0  0  0  0  0  0  0  0
   -5.1413    0.7280    0.0000 C   0  0  0  0  0  0  0  0  0  0  0  0
   -4.7060   -1.4336    0.0000 C   0  0  0  0  0  0  0  0  0  0  0  0
   -5.1113   -0.6980    0.0000 C   0  0  0  0  0  0  0  0  0  0  0  0
   -1.0583    1.8839    0.0000 C   0  0  0  0  0  0  0  0  0  0  0  0
   -1.7337    0.6079    0.0000 C   0  0  0  0  0  0  0  0  0  0  0  0
   -5.9369    0.6980    0.0000 C   0  0  0  0  0  0  0  0  0  0  0  0
   -5.5466    1.4186    0.0000 C   0  0  0  0  0  0  0  0  0  0  0  0
   -4.7360    1.4486    0.0000 C   0  0  0  0  0  0  0  0  0  0  0  0
  1 16  1  0  0  0  0
 12  2  1  1  0  0  0
  2 17  1  0  0  0  0
 15  3  1  6  0  0  0
 19  4  1  6  0  0  0
  5 12  1  0  0  0  0
  5 13  1  0  0  0  0
  5 18  1  0  0  0  0
  6 13  1  0  0  0  0
  6 23  2  0  0  0  0
  7 21  1  0  0  0  0
  7 22  1  0  0  0  0
  7 27  1  0  0  0  0
  8 20  2  0  0  0  0
  8 23  1  0  0  0  0
  9 20  1  0  0  0  0
 10 28  1  0  0  0  0
 10 30  2  0  0  0  0
 11 29  1  0  0  0  0
 11 30  1  0  0  0  0
 12 15  1  0  0  0  0
 13 14  2  0  0  0  0
 14 16  1  0  0  0  0
 14 20  1  0  0  0  0
 15 19  1  0  0  0  0
 16 18  2  0  0  0  0
 17 19  1  0  0  0  0
 17 21  1  1  0  0  0
 22 25  1  0  0  0  0
 22 26  1  0  0  0  0
 24 25  1  0  0  0  0
 24 26  1  0  0  0  0
 24 32  1  0  0  0  0
 27 38  1  0  0  0  0
 27 39  1  0  0  0  0
 28 29  2  0  0  0  0
 28 33  1  0  0  0  0
 29 36  1  0  0  0  0
 30 34  1  0  0  0  0
 31 33  2  0  0  0  0
 31 35  1  0  0  0  0
 31 37  1  0  0  0  0
 32 34  1  0  0  0  0
 35 40  1  0  0  0  0
 35 41  1  0  0  0  0
 35 42  1  0  0  0  0
 36 37  2  0  0  0  0
M  END
> <PUBCHEM_COMPOUND_ID_TYPE>
0

> <PUBCHEM_TOTAL_CHARGE>
0

> <PUBCHEM_SUBSTANCE_ID>
310942470

> <PUBCHEM_SUBSTANCE_VERSION>
1

> <PUBCHEM_EXT_DATASOURCE_NAME>
4488

> <PUBCHEM_EXT_DATASOURCE_REGID>
SCHEMBL16120506

> <PUBCHEM_SUBSTANCE_COMMENT>
InChI=1S/C31H42IN7O3/c1-16(2)38(14-23-26(40)27(41)30(42-23)39-13-20(32)25-28(33)34-15-35-29(25)39)19-10-17(11-19)6-9-24-36-21-8-7-18(31(3,4)5)12-22(21)37-24/h7-8,12-13,15-17,19,23,26-27,30,40-41H,6,9-11,14H2,1-5H3,(H,36,37)(H2,33,34,35)/t17?,19?,23-,26-,27-,30-/m1/s1
InChIKey=XKNFCLCLXLHWEA-RMBSYEQGSA-N

> <PUBCHEM_SUBSTANCE_SYNONYM>
SCHEMBL16120506

> <PUBCHEM_XREF_EXT_ID>
SCHEMBL16120506

> <PUBCHEM_EXT_DATASOURCE_URL>
https://www.surechembl.org/

> <PUBCHEM_EXT_SUBSTANCE_URL>
https://www.surechembl.org/chemical/SCHEMBL16120506

> <PUBCHEM_CID_ASSOCIATIONS>
86274954  1

> <PUBCHEM_COORDINATE_TYPE>
1
3

> <PUBCHEM_BONDANNOTATIONS>
17  21  5
12  2  5
15  3  6
19  4  6

$$$$
