310934255
  -OEChem-07211613022D

 17 18  0     0  0  0  0  0  0999 V2000
    2.5015   -4.2760    0.0000 Cl  0  0  0  0  0  0  0  0  0  0  0  0
    3.6774   -2.1380    0.0000 O   0  0  0  0  0  0  0  0  0  0  0  0
    0.0000   -1.4538    0.0000 O   0  5  0  0  0  0  0  0  0  0  0  0
    1.2187   -0.7269    0.0000 O   0  0  0  0  0  0  0  0  0  0  0  0
    2.4587   -1.4111    0.0000 N   0  0  0  0  0  0  0  0  0  0  0  0
    0.8124   -1.4538    0.0000 N   0  3  0  0  0  0  0  0  0  0  0  0
    2.0525   -2.1380    0.0000 C   0  0  0  0  0  0  0  0  0  0  0  0
    1.2401   -2.1594    0.0000 C   0  0  0  0  0  0  0  0  0  0  0  0
    2.4801   -2.8649    0.0000 C   0  0  0  0  0  0  0  0  0  0  0  0
    3.2712   -1.4111    0.0000 C   0  0  0  0  0  0  0  0  0  0  0  0
    0.8338   -2.8649    0.0000 C   0  0  0  0  0  0  0  0  0  0  0  0
    2.0739   -3.5705    0.0000 C   0  0  0  0  0  0  0  0  0  0  0  0
    2.0311   -0.7055    0.0000 C   0  0  0  0  0  0  0  0  0  0  0  0
    1.2614   -3.5705    0.0000 C   0  0  0  0  0  0  0  0  0  0  0  0
    3.6988   -0.7055    0.0000 C   0  0  0  0  0  0  0  0  0  0  0  0
    2.4587    0.0000    0.0000 C   0  0  0  0  0  0  0  0  0  0  0  0
    3.2712    0.0000    0.0000 C   0  0  0  0  0  0  0  0  0  0  0  0
  1 12  1  0  0  0  0
  2 10  2  0  0  0  0
  3  6  1  0  0  0  0
  4  6  2  0  0  0  0
  5  7  1  0  0  0  0
  5 10  1  0  0  0  0
  5 13  1  0  0  0  0
  6  8  1  0  0  0  0
  7  8  1  0  0  0  0
  7  9  2  0  0  0  0
  8 11  2  0  0  0  0
  9 12  1  0  0  0  0
 10 15  1  0  0  0  0
 11 14  1  0  0  0  0
 12 14  2  0  0  0  0
 13 16  2  0  0  0  0
 15 17  2  0  0  0  0
 16 17  1  0  0  0  0
M  CHG  2   3  -1   6   1
M  END
> <PUBCHEM_COMPOUND_ID_TYPE>
0

> <PUBCHEM_TOTAL_CHARGE>
0

> <PUBCHEM_SUBSTANCE_ID>
310934255

> <PUBCHEM_SUBSTANCE_VERSION>
1

> <PUBCHEM_EXT_DATASOURCE_NAME>
4488

> <PUBCHEM_EXT_DATASOURCE_REGID>
SCHEMBL16111713

> <PUBCHEM_SUBSTANCE_COMMENT>
InChI=1S/C11H7ClN2O3/c12-8-4-5-9(14(16)17)10(7-8)13-6-2-1-3-11(13)15/h1-7H
InChIKey=QRAGJUBLZNCCKI-UHFFFAOYSA-N

> <PUBCHEM_SUBSTANCE_SYNONYM>
SCHEMBL16111713

> <PUBCHEM_XREF_EXT_ID>
SCHEMBL16111713

> <PUBCHEM_EXT_DATASOURCE_URL>
https://www.surechembl.org/

> <PUBCHEM_EXT_SUBSTANCE_URL>
https://www.surechembl.org/chemical/SCHEMBL16111713

> <PUBCHEM_CID_ASSOCIATIONS>
117602512  1

> <PUBCHEM_COORDINATE_TYPE>
1
3

$$$$
