310935319
  -OEChem-07211613022D

 44 48  0     1  0  0  0  0  0999 V2000
    3.3398   -0.5030    0.0000 O   0  0  0  0  0  0  0  0  0  0  0  0
    4.2285   -0.3699    0.0000 O   0  0  0  0  0  0  0  0  0  0  0  0
    0.5099   -1.7606    0.0000 O   0  0  0  0  0  0  0  0  0  0  0  0
   -3.2147    1.2005    0.0000 O   0  0  0  0  0  0  0  0  0  0  0  0
   -0.7121   -1.3819    0.0000 O   0  0  0  0  0  0  0  0  0  0  0  0
   -2.6682    2.5208    0.0000 O   0  0  0  0  0  0  0  0  0  0  0  0
    2.3554    0.3986    0.0000 C   0  0  3  0  0  0  0  0  0  0  0  0
    1.5357    0.4918    0.0000 C   0  0  3  0  0  0  0  0  0  0  0  0
    1.1937   -0.2590    0.0000 C   0  0  3  0  0  0  0  0  0  0  0  0
    2.5201   -0.4098    0.0000 C   0  0  3  0  0  0  0  0  0  0  0  0
    3.0733    0.8050    0.0000 C   0  0  3  0  0  0  0  0  0  0  0  0
    0.3725   -0.3383    0.0000 C   0  0  3  0  0  0  0  0  0  0  0  0
    3.6817    0.2478    0.0000 C   0  0  3  0  0  0  0  0  0  0  0  0
    1.8021   -0.8162    0.0000 C   0  0  0  0  0  0  0  0  0  0  0  0
   -0.1067    0.3332    0.0000 C   0  0  3  0  0  0  0  0  0  0  0  0
    1.0564    1.1633    0.0000 C   0  0  0  0  0  0  0  0  0  0  0  0
   -0.9279    0.2539    0.0000 C   0  0  3  0  0  0  0  0  0  0  0  0
    0.2352    1.0840    0.0000 C   0  0  0  0  0  0  0  0  0  0  0  0
    1.9542    1.2027    0.0000 C   0  0  0  0  0  0  0  0  0  0  0  0
    0.0306   -1.0891    0.0000 C   0  0  0  0  0  0  0  0  0  0  0  0
    3.9433    1.0303    0.0000 C   0  0  0  0  0  0  0  0  0  0  0  0
    3.1665    1.6247    0.0000 C   0  0  0  0  0  0  0  0  0  0  0  0
   -1.5823   -0.2485    0.0000 C   0  0  3  0  0  0  0  0  0  0  0  0
   -1.0358    1.0719    0.0000 C   0  0  0  0  0  0  0  0  0  0  0  0
   -0.4030   -0.3825    0.0000 C   0  0  0  0  0  0  0  0  0  0  0  0
    5.0369   -0.2053    0.0000 C   0  0  0  0  0  0  0  0  0  0  0  0
    4.7517    1.1949    0.0000 C   0  0  0  0  0  0  0  0  0  0  0  0
   -2.3446    0.0671    0.0000 C   0  0  0  0  0  0  0  0  0  0  0  0
    5.2985    0.5772    0.0000 C   0  0  3  0  0  0  0  0  0  0  0  0
   -2.4525    0.8850    0.0000 C   0  0  3  0  0  0  0  0  0  0  0  0
   -1.4744   -1.0664    0.0000 C   0  0  0  0  0  0  0  0  0  0  0  0
   -1.7981    1.3874    0.0000 C   0  0  0  0  0  0  0  0  0  0  0  0
    6.1069    0.7419    0.0000 C   0  0  0  0  0  0  0  0  0  0  0  0
   -3.3226    2.0184    0.0000 C   0  0  0  0  0  0  0  0  0  0  0  0
   -4.0849    2.3339    0.0000 C   0  0  0  0  0  0  0  0  0  0  0  0
    2.4771    1.2146    0.0000 H   0  0  0  0  0  0  0  0  0  0  0  0
    0.9321   -1.0415    0.0000 H   0  0  0  0  0  0  0  0  0  0  0  0
    2.6847   -1.2182    0.0000 H   0  0  0  0  0  0  0  0  0  0  0  0
    3.7005    1.3410    0.0000 H   0  0  0  0  0  0  0  0  0  0  0  0
   -0.3720   -0.6937    0.0000 H   0  0  0  0  0  0  0  0  0  0  0  0
   -0.5860    1.0047    0.0000 H   0  0  0  0  0  0  0  0  0  0  0  0
   -2.2367   -0.7508    0.0000 H   0  0  0  0  0  0  0  0  0  0  0  0
    5.8453   -0.0406    0.0000 H   0  0  0  0  0  0  0  0  0  0  0  0
   -2.5603    1.7029    0.0000 H   0  0  0  0  0  0  0  0  0  0  0  0
  1 10  1  0  0  0  0
  1 13  1  0  0  0  0
  2 13  1  0  0  0  0
  2 26  1  0  0  0  0
  3 20  1  0  0  0  0
  4 30  1  0  0  0  0
  4 34  1  0  0  0  0
  5 31  1  0  0  0  0
  6 34  2  0  0  0  0
  7  8  1  0  0  0  0
  7 10  1  0  0  0  0
  7 11  1  0  0  0  0
  7 36  1  6  0  0  0
  8  9  1  0  0  0  0
  8 16  1  0  0  0  0
  8 19  1  1  0  0  0
  9 12  1  0  0  0  0
  9 14  1  0  0  0  0
  9 37  1  6  0  0  0
 10 14  1  0  0  0  0
 10 38  1  6  0  0  0
 11 13  1  0  0  0  0
 11 22  1  6  0  0  0
 11 39  1  1  0  0  0
 12 15  1  0  0  0  0
 12 20  1  0  0  0  0
 12 40  1  1  0  0  0
 13 21  1  1  0  0  0
 15 17  1  0  0  0  0
 15 18  1  0  0  0  0
 15 41  1  6  0  0  0
 16 18  1  0  0  0  0
 17 23  1  0  0  0  0
 17 24  1  0  0  0  0
 17 25  1  1  0  0  0
 21 27  1  0  0  0  0
 23 28  1  0  0  0  0
 23 31  1  0  0  0  0
 23 42  1  6  0  0  0
 24 32  1  0  0  0  0
 26 29  1  0  0  0  0
 27 29  1  0  0  0  0
 28 30  1  0  0  0  0
 29 33  1  1  0  0  0
 29 43  1  6  0  0  0
 30 32  1  0  0  0  0
 30 44  1  6  0  0  0
 34 35  1  0  0  0  0
M  END
> <PUBCHEM_COMPOUND_ID_TYPE>
0

> <PUBCHEM_TOTAL_CHARGE>
0

> <PUBCHEM_SUBSTANCE_ID>
310935319

> <PUBCHEM_SUBSTANCE_VERSION>
1

> <PUBCHEM_EXT_DATASOURCE_NAME>
4488

> <PUBCHEM_EXT_DATASOURCE_REGID>
SCHEMBL16112853

> <PUBCHEM_SUBSTANCE_COMMENT>
InChI=1S/C29H48O6/c1-17-6-11-29(33-16-17)18(2)26-25(35-29)13-24-22(15-31)23(8-10-28(24,26)5)27(4)9-7-21(34-19(3)32)12-20(27)14-30/h17-18,20-26,30-31H,6-16H2,1-5H3/t17-,18+,20-,21+,22-,23+,24+,25+,26+,27+,28+,29-/m1/s1
InChIKey=NPDIXLAHUHKSTK-BSPYNPCNSA-N

> <PUBCHEM_SUBSTANCE_SYNONYM>
SCHEMBL16112853

> <PUBCHEM_XREF_EXT_ID>
SCHEMBL16112853

> <PUBCHEM_EXT_DATASOURCE_URL>
https://www.surechembl.org/

> <PUBCHEM_EXT_SUBSTANCE_URL>
https://www.surechembl.org/chemical/SCHEMBL16112853

> <PUBCHEM_CID_ASSOCIATIONS>
117603377  1

> <PUBCHEM_COORDINATE_TYPE>
1
3

> <PUBCHEM_BONDANNOTATIONS>
10  38  6
11  22  6
11  39  5
12  40  5
13  21  5
15  41  6
17  25  5
23  42  6
29  33  5
29  43  6
30  44  6
7  36  6
8  19  5
9  37  6

$$$$
