310947411
  -OEChem-07211613022D

 19 21  0     0  0  0  0  0  0999 V2000
    1.0885   -0.5073    0.0000 Br  0  0  0  0  0  0  0  0  0  0  0  0
   -3.0365   -0.5073    0.0000 Br  0  0  0  0  0  0  0  0  0  0  0  0
   -0.1490   -2.6508    0.0000 N   0  0  0  0  0  0  0  0  0  0  0  0
    0.8335   -4.1498    0.0000 N   0  0  0  0  0  0  0  0  0  0  0  0
    1.9135   -3.3652    0.0000 N   0  0  0  0  0  0  0  0  0  0  0  0
   -1.7990   -2.6508    0.0000 N   0  0  0  0  0  0  0  0  0  0  0  0
    1.5010   -4.6348    0.0000 N   0  0  0  0  0  0  0  0  0  0  0  0
    0.6760   -2.6508    0.0000 C   0  0  0  0  0  0  0  0  0  0  0  0
   -0.5615   -1.9363    0.0000 C   0  0  0  0  0  0  0  0  0  0  0  0
    1.0885   -3.3652    0.0000 C   0  0  0  0  0  0  0  0  0  0  0  0
   -1.3865   -1.9363    0.0000 C   0  0  0  0  0  0  0  0  0  0  0  0
    1.0885   -1.9363    0.0000 C   0  0  0  0  0  0  0  0  0  0  0  0
    0.6760   -1.2218    0.0000 C   0  0  0  0  0  0  0  0  0  0  0  0
   -0.1490   -1.2218    0.0000 C   0  0  0  0  0  0  0  0  0  0  0  0
   -1.7990   -1.2218    0.0000 C   0  0  0  0  0  0  0  0  0  0  0  0
   -2.6240   -1.2218    0.0000 C   0  0  0  0  0  0  0  0  0  0  0  0
    2.1684   -4.1498    0.0000 C   0  0  0  0  0  0  0  0  0  0  0  0
   -2.6240   -2.6508    0.0000 C   0  0  0  0  0  0  0  0  0  0  0  0
   -3.0365   -1.9363    0.0000 C   0  0  0  0  0  0  0  0  0  0  0  0
  1 13  1  0  0  0  0
  2 16  1  0  0  0  0
  3  8  1  0  0  0  0
  3  9  2  0  0  0  0
  4  7  1  0  0  0  0
  4 10  2  0  0  0  0
  5 10  1  0  0  0  0
  5 17  1  0  0  0  0
  6 11  1  0  0  0  0
  6 18  2  0  0  0  0
  7 17  2  0  0  0  0
  8 10  1  0  0  0  0
  8 12  2  0  0  0  0
  9 11  1  0  0  0  0
  9 14  1  0  0  0  0
 11 15  2  0  0  0  0
 12 13  1  0  0  0  0
 13 14  2  0  0  0  0
 15 16  1  0  0  0  0
 16 19  2  0  0  0  0
 18 19  1  0  0  0  0
M  END
> <PUBCHEM_COMPOUND_ID_TYPE>
0

> <PUBCHEM_TOTAL_CHARGE>
0

> <PUBCHEM_SUBSTANCE_ID>
310947411

> <PUBCHEM_SUBSTANCE_VERSION>
1

> <PUBCHEM_EXT_DATASOURCE_NAME>
4488

> <PUBCHEM_EXT_DATASOURCE_REGID>
SCHEMBL16125568

> <PUBCHEM_SUBSTANCE_COMMENT>
InChI=1S/C12H7Br2N5/c13-7-1-2-15-9(3-7)10-4-8(14)5-11(18-10)12-16-6-17-19-12/h1-6H,(H,16,17,19)
InChIKey=TVLXBKJKRIZJFE-UHFFFAOYSA-N

> <PUBCHEM_SUBSTANCE_SYNONYM>
SCHEMBL16125568

> <PUBCHEM_XREF_EXT_ID>
SCHEMBL16125568

> <PUBCHEM_EXT_DATASOURCE_URL>
https://www.surechembl.org/

> <PUBCHEM_EXT_SUBSTANCE_URL>
https://www.surechembl.org/chemical/SCHEMBL16125568

> <PUBCHEM_CID_ASSOCIATIONS>
117613147  1

> <PUBCHEM_COORDINATE_TYPE>
1
3

$$$$
