310948181
  -OEChem-07211613022D

 33 37  0     0  0  0  0  0  0999 V2000
    1.6580   -1.2606    0.0000 Br  0  0  0  0  0  0  0  0  0  0  0  0
    4.1245    0.5892    0.0000 F   0  0  0  0  0  0  0  0  0  0  0  0
    3.6037   -0.3837    0.0000 F   0  0  0  0  0  0  0  0  0  0  0  0
   -1.3155    0.8084    0.0000 O   0  0  0  0  0  0  0  0  0  0  0  0
    2.5898    0.0274    0.0000 O   0  0  0  0  0  0  0  0  0  0  0  0
    3.2064    1.2058    0.0000 O   0  0  0  0  0  0  0  0  0  0  0  0
   -3.0968    1.3291    0.0000 O   0  0  0  0  0  0  0  0  0  0  0  0
   -0.5755    1.9321    0.0000 N   0  0  0  0  0  0  0  0  0  0  0  0
   -2.1787   -1.2606    0.0000 N   0  0  0  0  0  0  0  0  0  0  0  0
   -2.9049   -0.8770    0.0000 N   0  0  0  0  0  0  0  0  0  0  0  0
   -4.1245    0.3426    0.0000 N   0  0  0  0  0  0  0  0  0  0  0  0
   -0.5344    0.5755    0.0000 C   0  0  0  0  0  0  0  0  0  0  0  0
   -0.0685    1.2743    0.0000 C   0  0  0  0  0  0  0  0  0  0  0  0
   -0.2467   -0.1782    0.0000 C   0  0  0  0  0  0  0  0  0  0  0  0
    0.7536    1.3017    0.0000 C   0  0  0  0  0  0  0  0  0  0  0  0
   -0.7674   -0.8221    0.0000 C   0  0  0  0  0  0  0  0  0  0  0  0
    2.0280    0.6303    0.0000 C   0  0  0  0  0  0  0  0  0  0  0  0
    2.3843    1.3566    0.0000 C   0  0  0  0  0  0  0  0  0  0  0  0
   -1.5895   -0.6851    0.0000 C   0  0  0  0  0  0  0  0  0  0  0  0
    3.3297    0.4111    0.0000 C   0  0  0  0  0  0  0  0  0  0  0  0
    1.2058    0.6029    0.0000 C   0  0  0  0  0  0  0  0  0  0  0  0
   -1.3291    1.6443    0.0000 C   0  0  0  0  0  0  0  0  0  0  0  0
    1.1510    2.0280    0.0000 C   0  0  0  0  0  0  0  0  0  0  0  0
    0.5618   -0.3426    0.0000 C   0  0  0  0  0  0  0  0  0  0  0  0
    1.9732    2.0554    0.0000 C   0  0  0  0  0  0  0  0  0  0  0  0
   -0.4796   -1.6032    0.0000 C   0  0  0  0  0  0  0  0  0  0  0  0
   -1.9321    0.0548    0.0000 C   0  0  0  0  0  0  0  0  0  0  0  0
   -2.7542   -0.0548    0.0000 C   0  0  0  0  0  0  0  0  0  0  0  0
    0.8359   -1.1099    0.0000 C   0  0  0  0  0  0  0  0  0  0  0  0
    0.3288   -1.7402    0.0000 C   0  0  0  0  0  0  0  0  0  0  0  0
   -3.3434    0.5344    0.0000 C   0  0  0  0  0  0  0  0  0  0  0  0
   -2.0417    2.0965    0.0000 C   0  0  0  0  0  0  0  0  0  0  0  0
   -2.0417   -2.0965    0.0000 C   0  0  0  0  0  0  0  0  0  0  0  0
  1 29  1  0  0  0  0
  2 20  1  0  0  0  0
  3 20  1  0  0  0  0
  4 12  1  0  0  0  0
  4 22  1  0  0  0  0
  5 17  1  0  0  0  0
  5 20  1  0  0  0  0
  6 18  1  0  0  0  0
  6 20  1  0  0  0  0
  7 31  2  0  0  0  0
  8 13  1  0  0  0  0
  8 22  2  0  0  0  0
  9 10  1  0  0  0  0
  9 19  1  0  0  0  0
  9 33  1  0  0  0  0
 10 28  2  0  0  0  0
 11 31  1  0  0  0  0
 12 13  2  0  0  0  0
 12 14  1  0  0  0  0
 13 15  1  0  0  0  0
 14 16  2  0  0  0  0
 14 24  1  0  0  0  0
 15 21  1  0  0  0  0
 15 23  2  0  0  0  0
 16 19  1  0  0  0  0
 16 26  1  0  0  0  0
 17 18  1  0  0  0  0
 17 21  2  0  0  0  0
 18 25  2  0  0  0  0
 19 27  2  0  0  0  0
 22 32  1  0  0  0  0
 23 25  1  0  0  0  0
 24 29  2  0  0  0  0
 26 30  2  0  0  0  0
 27 28  1  0  0  0  0
 28 31  1  0  0  0  0
 29 30  1  0  0  0  0
M  END
> <PUBCHEM_COMPOUND_ID_TYPE>
0

> <PUBCHEM_TOTAL_CHARGE>
0

> <PUBCHEM_SUBSTANCE_ID>
310948181

> <PUBCHEM_SUBSTANCE_VERSION>
1

> <PUBCHEM_EXT_DATASOURCE_NAME>
4488

> <PUBCHEM_EXT_DATASOURCE_REGID>
SCHEMBL16126358

> <PUBCHEM_SUBSTANCE_COMMENT>
InChI=1S/C22H15BrF2N4O4/c1-10-27-19(11-3-6-17-18(7-11)33-22(24,25)32-17)20(31-10)14-8-12(23)4-5-13(14)16-9-15(21(26)30)28-29(16)2/h3-9H,1-2H3,(H2,26,30)
InChIKey=ASAAKWLSPUVKKJ-UHFFFAOYSA-N

> <PUBCHEM_SUBSTANCE_SYNONYM>
SCHEMBL16126358

> <PUBCHEM_XREF_EXT_ID>
SCHEMBL16126358

> <PUBCHEM_EXT_DATASOURCE_URL>
https://www.surechembl.org/

> <PUBCHEM_EXT_SUBSTANCE_URL>
https://www.surechembl.org/chemical/SCHEMBL16126358

> <PUBCHEM_CID_ASSOCIATIONS>
117613768  1

> <PUBCHEM_COORDINATE_TYPE>
1
3

$$$$
