310945737
  -OEChem-07211613022D

 14 15  0     0  0  0  0  0  0999 V2000
    1.7931    1.4648    0.0000 O   0  0  0  0  0  0  0  0  0  0  0  0
    0.7661    0.4377    0.0000 N   0  0  0  0  0  0  0  0  0  0  0  0
   -0.6651   -1.8351    0.0000 N   0  0  0  0  0  0  0  0  0  0  0  0
   -1.4059   -1.4142    0.0000 N   0  0  0  0  0  0  0  0  0  0  0  0
   -0.4125   -0.5051    0.0000 C   0  0  0  0  0  0  0  0  0  0  0  0
   -0.0926   -1.2459    0.0000 C   0  0  0  0  0  0  0  0  0  0  0  0
   -1.2375   -0.5724    0.0000 C   0  0  0  0  0  0  0  0  0  0  0  0
   -0.0757    0.2357    0.0000 C   0  0  0  0  0  0  0  0  0  0  0  0
    0.7661   -1.4311    0.0000 C   0  0  0  0  0  0  0  0  0  0  0  0
    1.4227   -0.1178    0.0000 C   0  0  0  0  0  0  0  0  0  0  0  0
    0.9513    1.2459    0.0000 C   0  0  0  0  0  0  0  0  0  0  0  0
    1.4227   -0.9428    0.0000 C   0  0  0  0  0  0  0  0  0  0  0  0
   -1.7931    0.0000    0.0000 C   0  0  0  0  0  0  0  0  0  0  0  0
    0.3620    1.8351    0.0000 C   0  0  0  0  0  0  0  0  0  0  0  0
  1 11  2  0  0  0  0
  2  8  1  0  0  0  0
  2 10  1  0  0  0  0
  2 11  1  0  0  0  0
  3  4  1  0  0  0  0
  3  6  1  0  0  0  0
  4  7  2  0  0  0  0
  5  6  2  0  0  0  0
  5  7  1  0  0  0  0
  5  8  1  0  0  0  0
  6  9  1  0  0  0  0
  7 13  1  0  0  0  0
  9 12  1  0  0  0  0
 10 12  1  0  0  0  0
 11 14  1  0  0  0  0
M  END
> <PUBCHEM_COMPOUND_ID_TYPE>
0

> <PUBCHEM_TOTAL_CHARGE>
0

> <PUBCHEM_SUBSTANCE_ID>
310945737

> <PUBCHEM_SUBSTANCE_VERSION>
1

> <PUBCHEM_EXT_DATASOURCE_NAME>
4488

> <PUBCHEM_EXT_DATASOURCE_REGID>
SCHEMBL16123841

> <PUBCHEM_SUBSTANCE_COMMENT>
InChI=1S/C10H15N3O/c1-7-9-6-13(8(2)14)5-3-4-10(9)12-11-7/h3-6H2,1-2H3,(H,11,12)
InChIKey=JXTJVYBHLZFPGL-UHFFFAOYSA-N

> <PUBCHEM_SUBSTANCE_SYNONYM>
SCHEMBL16123841

> <PUBCHEM_XREF_EXT_ID>
SCHEMBL16123841

> <PUBCHEM_EXT_DATASOURCE_URL>
https://www.surechembl.org/

> <PUBCHEM_EXT_SUBSTANCE_URL>
https://www.surechembl.org/chemical/SCHEMBL16123841

> <PUBCHEM_CID_ASSOCIATIONS>
117611731  1

> <PUBCHEM_COORDINATE_TYPE>
1
3

$$$$
