310944827
  -OEChem-07211613022D

 39 43  0     0  0  0  0  0  0999 V2000
   -1.3144   -3.4700    0.0000 O   0  0  0  0  0  0  0  0  0  0  0  0
    2.9617   -1.3495    0.0000 O   0  0  0  0  0  0  0  0  0  0  0  0
    2.5762    0.0701    0.0000 O   0  0  0  0  0  0  0  0  0  0  0  0
    0.9288    2.8215    0.0000 O   0  0  0  0  0  0  0  0  0  0  0  0
   -2.4010    0.9989    0.0000 N   0  0  0  0  0  0  0  0  0  0  0  0
   -1.9102    0.3505    0.0000 N   0  0  0  0  0  0  0  0  0  0  0  0
   -1.3144   -1.2793    0.0000 N   0  0  0  0  0  0  0  0  0  0  0  0
   -2.6638   -1.7350    0.0000 N   0  0  0  0  0  0  0  0  0  0  0  0
   -0.2103   -2.3133    0.0000 N   0  0  0  0  0  0  0  0  0  0  0  0
    1.5247   -0.9639    0.0000 N   0  0  0  0  0  0  0  0  0  0  0  0
    0.8762   -0.4381    0.0000 N   0  0  0  0  0  0  0  0  0  0  0  0
   -2.3834   -0.3155    0.0000 C   0  0  0  0  0  0  0  0  0  0  0  0
   -3.1896   -0.0350    0.0000 C   0  0  0  0  0  0  0  0  0  0  0  0
   -3.1720    0.7711    0.0000 C   0  0  0  0  0  0  0  0  0  0  0  0
   -2.1205   -1.0690    0.0000 C   0  0  0  0  0  0  0  0  0  0  0  0
   -1.0165   -2.0679    0.0000 C   0  0  0  0  0  0  0  0  0  0  0  0
   -3.8731   -0.4557    0.0000 C   0  0  0  0  0  0  0  0  0  0  0  0
   -3.9081    1.1742    0.0000 C   0  0  0  0  0  0  0  0  0  0  0  0
   -2.2257    1.8577    0.0000 C   0  0  0  0  0  0  0  0  0  0  0  0
   -1.5948   -2.6638    0.0000 C   0  0  0  0  0  0  0  0  0  0  0  0
   -2.4010   -2.4886    0.0000 C   0  0  0  0  0  0  0  0  0  0  0  0
   -4.5916   -0.0526    0.0000 C   0  0  0  0  0  0  0  0  0  0  0  0
    0.3681   -1.7000    0.0000 C   0  0  0  0  0  0  0  0  0  0  0  0
   -4.5741    0.7711    0.0000 C   0  0  0  0  0  0  0  0  0  0  0  0
   -1.4546    2.1205    0.0000 C   0  0  0  0  0  0  0  0  0  0  0  0
    1.2093   -1.7174    0.0000 C   0  0  0  0  0  0  0  0  0  0  0  0
    0.1577   -0.8938    0.0000 C   0  0  0  0  0  0  0  0  0  0  0  0
    2.3133   -0.7360    0.0000 C   0  0  0  0  0  0  0  0  0  0  0  0
   -1.2793    2.9091    0.0000 C   0  0  0  0  0  0  0  0  0  0  0  0
   -0.8412    1.5772    0.0000 C   0  0  0  0  0  0  0  0  0  0  0  0
   -0.4732    3.1545    0.0000 C   0  0  0  0  0  0  0  0  0  0  0  0
   -0.0526    1.8401    0.0000 C   0  0  0  0  0  0  0  0  0  0  0  0
    0.1227    2.6463    0.0000 C   0  0  0  0  0  0  0  0  0  0  0  0
    3.7679   -1.1041    0.0000 C   0  0  0  0  0  0  0  0  0  0  0  0
   -0.5083   -3.6277    0.0000 C   0  0  0  0  0  0  0  0  0  0  0  0
    4.0132   -0.3155    0.0000 C   0  0  0  0  0  0  0  0  0  0  0  0
    4.5916   -0.9113    0.0000 C   0  0  0  0  0  0  0  0  0  0  0  0
    4.3813   -1.7350    0.0000 C   0  0  0  0  0  0  0  0  0  0  0  0
    1.1567    3.6277    0.0000 C   0  0  0  0  0  0  0  0  0  0  0  0
  1 20  1  0  0  0  0
  1 35  1  0  0  0  0
  2 28  1  0  0  0  0
  2 34  1  0  0  0  0
  3 28  2  0  0  0  0
  4 33  1  0  0  0  0
  4 39  1  0  0  0  0
  5  6  1  0  0  0  0
  5 14  1  0  0  0  0
  5 19  1  0  0  0  0
  6 12  2  0  0  0  0
  7 15  2  0  0  0  0
  7 16  1  0  0  0  0
  8 15  1  0  0  0  0
  8 21  2  0  0  0  0
  9 16  1  0  0  0  0
  9 23  1  0  0  0  0
 10 11  1  0  0  0  0
 10 26  1  0  0  0  0
 10 28  1  0  0  0  0
 11 27  2  0  0  0  0
 12 13  1  0  0  0  0
 12 15  1  0  0  0  0
 13 14  2  0  0  0  0
 13 17  1  0  0  0  0
 14 18  1  0  0  0  0
 16 20  2  0  0  0  0
 17 22  2  0  0  0  0
 18 24  2  0  0  0  0
 19 25  1  0  0  0  0
 20 21  1  0  0  0  0
 22 24  1  0  0  0  0
 23 26  2  0  0  0  0
 23 27  1  0  0  0  0
 25 29  2  0  0  0  0
 25 30  1  0  0  0  0
 29 31  1  0  0  0  0
 30 32  2  0  0  0  0
 31 33  2  0  0  0  0
 32 33  1  0  0  0  0
 34 36  1  0  0  0  0
 34 37  1  0  0  0  0
 34 38  1  0  0  0  0
M  END
> <PUBCHEM_COMPOUND_ID_TYPE>
0

> <PUBCHEM_TOTAL_CHARGE>
0

> <PUBCHEM_SUBSTANCE_ID>
310944827

> <PUBCHEM_SUBSTANCE_VERSION>
1

> <PUBCHEM_EXT_DATASOURCE_NAME>
4488

> <PUBCHEM_EXT_DATASOURCE_REGID>
SCHEMBL16122906

> <PUBCHEM_SUBSTANCE_COMMENT>
InChI=1S/C28H29N7O4/c1-28(2,3)39-27(36)35-17-19(14-30-35)31-25-23(38-5)15-29-26(32-25)24-21-8-6-7-9-22(21)34(33-24)16-18-10-12-20(37-4)13-11-18/h6-15,17H,16H2,1-5H3,(H,29,31,32)
InChIKey=LSRWKUZZAJDGRY-UHFFFAOYSA-N

> <PUBCHEM_SUBSTANCE_SYNONYM>
SCHEMBL16122906

> <PUBCHEM_XREF_EXT_ID>
SCHEMBL16122906

> <PUBCHEM_EXT_DATASOURCE_URL>
https://www.surechembl.org/

> <PUBCHEM_EXT_SUBSTANCE_URL>
https://www.surechembl.org/chemical/SCHEMBL16122906

> <PUBCHEM_CID_ASSOCIATIONS>
117611034  1

> <PUBCHEM_COORDINATE_TYPE>
1
3

$$$$
