310936906
  -OEChem-07211613022D

 26 29  0     1  0  0  0  0  0999 V2000
    1.6501   -1.7417    0.0000 S   0  0  0  0  0  0  0  0  0  0  0  0
    0.0000   -5.5918    0.0000 O   0  0  0  0  0  0  0  0  0  0  0  0
    0.8250   -8.4336    0.0000 O   0  0  0  0  0  0  0  0  0  0  0  0
    2.0167   -3.4376    0.0000 N   0  0  0  0  0  0  0  0  0  0  0  0
    1.2375   -4.9043    0.0000 N   0  0  0  0  0  0  0  0  0  0  0  0
    3.2084   -3.9876    0.0000 N   0  0  0  0  0  0  0  0  0  0  0  0
    3.3459   -3.2084    0.0000 N   0  0  0  0  0  0  0  0  0  0  0  0
    2.9334   -1.4209    0.0000 N   0  0  0  0  0  0  0  0  0  0  0  0
    1.7417   -0.9167    0.0000 N   0  0  0  0  0  0  0  0  0  0  0  0
    2.4292   -4.1709    0.0000 C   0  0  0  0  0  0  0  0  0  0  0  0
    2.5667   -2.8417    0.0000 C   0  0  0  0  0  0  0  0  0  0  0  0
    2.0167   -4.9043    0.0000 C   0  0  3  0  0  0  0  0  0  0  0  0
    2.4292   -2.0625    0.0000 C   0  0  0  0  0  0  0  0  0  0  0  0
    1.1917   -3.4834    0.0000 C   0  0  0  0  0  0  0  0  0  0  0  0
    0.8250   -5.5918    0.0000 C   0  0  0  0  0  0  0  0  0  0  0  0
    0.7792   -4.1709    0.0000 C   0  0  0  0  0  0  0  0  0  0  0  0
    1.2375   -6.3252    0.0000 C   0  0  0  0  0  0  0  0  0  0  0  0
    2.5667   -0.7333    0.0000 C   0  0  0  0  0  0  0  0  0  0  0  0
    2.4292   -5.5918    0.0000 C   0  0  0  0  0  0  0  0  0  0  0  0
    0.8250   -7.0127    0.0000 C   0  0  0  0  0  0  0  0  0  0  0  0
    2.0625   -6.3252    0.0000 C   0  0  0  0  0  0  0  0  0  0  0  0
    1.2375   -7.7461    0.0000 C   0  0  0  0  0  0  0  0  0  0  0  0
    2.4751   -7.0127    0.0000 C   0  0  0  0  0  0  0  0  0  0  0  0
    2.0625   -7.7461    0.0000 C   0  0  0  0  0  0  0  0  0  0  0  0
    2.8876    0.0000    0.0000 C   0  0  0  0  0  0  0  0  0  0  0  0
    1.2375   -9.1669    0.0000 C   0  0  0  0  0  0  0  0  0  0  0  0
  1  9  1  0  0  0  0
  1 13  1  0  0  0  0
  2 15  2  0  0  0  0
  3 22  1  0  0  0  0
  3 26  1  0  0  0  0
  4 10  1  0  0  0  0
  4 11  1  0  0  0  0
  4 14  1  0  0  0  0
  5 12  1  0  0  0  0
  5 15  1  0  0  0  0
  5 16  1  0  0  0  0
  6  7  1  0  0  0  0
  6 10  2  0  0  0  0
  7 11  2  0  0  0  0
  8 13  2  0  0  0  0
  8 18  1  0  0  0  0
  9 18  2  0  0  0  0
 10 12  1  0  0  0  0
 11 13  1  0  0  0  0
 12 19  1  1  0  0  0
 14 16  1  0  0  0  0
 15 17  1  0  0  0  0
 17 20  1  0  0  0  0
 17 21  2  0  0  0  0
 18 25  1  0  0  0  0
 20 22  2  0  0  0  0
 21 23  1  0  0  0  0
 22 24  1  0  0  0  0
 23 24  2  0  0  0  0
M  END
> <PUBCHEM_COMPOUND_ID_TYPE>
0

> <PUBCHEM_TOTAL_CHARGE>
0

> <PUBCHEM_SUBSTANCE_ID>
310936906

> <PUBCHEM_SUBSTANCE_VERSION>
1

> <PUBCHEM_EXT_DATASOURCE_NAME>
4488

> <PUBCHEM_EXT_DATASOURCE_REGID>
SCHEMBL16114605

> <PUBCHEM_SUBSTANCE_COMMENT>
InChI=1S/C17H18N6O2S/c1-10-14-19-20-15(16-18-11(2)21-26-16)23(14)8-7-22(10)17(24)12-5-4-6-13(9-12)25-3/h4-6,9-10H,7-8H2,1-3H3/t10-/m1/s1
InChIKey=YKIGSSIUJRGFEY-SNVBAGLBSA-N

> <PUBCHEM_SUBSTANCE_SYNONYM>
SCHEMBL16114605

> <PUBCHEM_XREF_EXT_ID>
SCHEMBL16114605

> <PUBCHEM_EXT_DATASOURCE_URL>
https://www.surechembl.org/

> <PUBCHEM_EXT_SUBSTANCE_URL>
https://www.surechembl.org/chemical/SCHEMBL16114605

> <PUBCHEM_CID_ASSOCIATIONS>
86275448  1

> <PUBCHEM_COORDINATE_TYPE>
1
3

> <PUBCHEM_BONDANNOTATIONS>
12  19  5

$$$$
