310932300
  -OEChem-07211613022D

 18 19  0     0  0  0  0  0  0999 V2000
    0.0000   -0.7951    0.0000 Br  0  0  0  0  0  0  0  0  0  0  0  0
    1.2411   -2.1331    0.0000 O   0  0  0  0  0  0  0  0  0  0  0  0
    5.0226   -3.4712    0.0000 O   0  0  0  0  0  0  0  0  0  0  0  0
    5.7401   -2.2301    0.0000 O   0  0  0  0  0  0  0  0  0  0  0  0
    2.1525   -0.9696    0.0000 N   0  0  0  0  0  0  0  0  0  0  0  0
    2.0556   -0.1552    0.0000 N   0  0  0  0  0  0  0  0  0  0  0  0
    3.5876   -0.9696    0.0000 N   0  0  0  0  0  0  0  0  0  0  0  0
    1.3962   -1.3187    0.0000 C   0  0  0  0  0  0  0  0  0  0  0  0
    2.8700   -1.3962    0.0000 C   0  0  0  0  0  0  0  0  0  0  0  0
    0.8339   -0.7175    0.0000 C   0  0  0  0  0  0  0  0  0  0  0  0
    1.2411    0.0000    0.0000 C   0  0  0  0  0  0  0  0  0  0  0  0
    2.8700   -2.2301    0.0000 C   0  0  0  0  0  0  0  0  0  0  0  0
    4.3051   -2.2301    0.0000 C   0  0  0  0  0  0  0  0  0  0  0  0
    4.3051   -1.3962    0.0000 C   0  0  0  0  0  0  0  0  0  0  0  0
    3.5876   -2.6180    0.0000 C   0  0  0  0  0  0  0  0  0  0  0  0
    5.0226   -2.6180    0.0000 C   0  0  0  0  0  0  0  0  0  0  0  0
    1.8810   -2.6761    0.0000 C   0  0  0  0  0  0  0  0  0  0  0  0
    5.7595   -3.8784    0.0000 C   0  0  0  0  0  0  0  0  0  0  0  0
  1 10  1  0  0  0  0
  2  8  1  0  0  0  0
  2 17  1  0  0  0  0
  3 16  1  0  0  0  0
  3 18  1  0  0  0  0
  4 16  2  0  0  0  0
  5  6  1  0  0  0  0
  5  8  1  0  0  0  0
  5  9  1  0  0  0  0
  6 11  2  0  0  0  0
  7  9  2  0  0  0  0
  7 14  1  0  0  0  0
  8 10  2  0  0  0  0
  9 12  1  0  0  0  0
 10 11  1  0  0  0  0
 12 15  2  0  0  0  0
 13 14  2  0  0  0  0
 13 15  1  0  0  0  0
 13 16  1  0  0  0  0
M  END
> <PUBCHEM_COMPOUND_ID_TYPE>
0

> <PUBCHEM_TOTAL_CHARGE>
0

> <PUBCHEM_SUBSTANCE_ID>
310932300

> <PUBCHEM_SUBSTANCE_VERSION>
1

> <PUBCHEM_EXT_DATASOURCE_NAME>
4488

> <PUBCHEM_EXT_DATASOURCE_REGID>
SCHEMBL16109664

> <PUBCHEM_SUBSTANCE_COMMENT>
InChI=1S/C11H10BrN3O3/c1-17-10-8(12)6-14-15(10)9-4-3-7(5-13-9)11(16)18-2/h3-6H,1-2H3
InChIKey=UJBWPXACHFXGRY-UHFFFAOYSA-N

> <PUBCHEM_SUBSTANCE_SYNONYM>
SCHEMBL16109664

> <PUBCHEM_XREF_EXT_ID>
SCHEMBL16109664

> <PUBCHEM_EXT_DATASOURCE_URL>
https://www.surechembl.org/

> <PUBCHEM_EXT_SUBSTANCE_URL>
https://www.surechembl.org/chemical/SCHEMBL16109664

> <PUBCHEM_CID_ASSOCIATIONS>
117600858  1

> <PUBCHEM_COORDINATE_TYPE>
1
3

$$$$
