310932490
  -OEChem-07211613022D

 24 26  0     0  0  0  0  0  0999 V2000
    2.8715   -2.1352    0.0000 O   0  0  0  0  0  0  0  0  0  0  0  0
    0.1473   -2.3807    0.0000 O   0  0  0  0  0  0  0  0  0  0  0  0
    7.3628   -2.2088    0.0000 O   0  0  0  0  0  0  0  0  0  0  0  0
    3.7796   -0.9817    0.0000 N   0  0  0  0  0  0  0  0  0  0  0  0
    3.6814   -0.1473    0.0000 N   0  0  0  0  0  0  0  0  0  0  0  0
    5.2031   -0.9817    0.0000 N   0  0  0  0  0  0  0  0  0  0  0  0
    0.0000   -0.9817    0.0000 N   0  0  0  0  0  0  0  0  0  0  0  0
    6.6511   -3.4605    0.0000 N   0  0  0  0  0  0  0  0  0  0  0  0
    2.4542   -0.7117    0.0000 C   0  0  0  0  0  0  0  0  0  0  0  0
    3.0188   -1.3253    0.0000 C   0  0  0  0  0  0  0  0  0  0  0  0
    4.4913   -1.3989    0.0000 C   0  0  0  0  0  0  0  0  0  0  0  0
    1.6444   -0.8099    0.0000 C   0  0  0  0  0  0  0  0  0  0  0  0
    2.8715    0.0000    0.0000 C   0  0  0  0  0  0  0  0  0  0  0  0
    4.4913   -2.2088    0.0000 C   0  0  0  0  0  0  0  0  0  0  0  0
    1.3253   -1.5953    0.0000 C   0  0  0  0  0  0  0  0  0  0  0  0
    1.1780   -0.1473    0.0000 C   0  0  0  0  0  0  0  0  0  0  0  0
    5.9148   -2.2088    0.0000 C   0  0  0  0  0  0  0  0  0  0  0  0
    0.4909   -1.6444    0.0000 C   0  0  0  0  0  0  0  0  0  0  0  0
    5.9148   -1.3989    0.0000 C   0  0  0  0  0  0  0  0  0  0  0  0
    5.2031   -2.6261    0.0000 C   0  0  0  0  0  0  0  0  0  0  0  0
    0.3436   -0.2209    0.0000 C   0  0  0  0  0  0  0  0  0  0  0  0
    6.6511   -2.6261    0.0000 C   0  0  0  0  0  0  0  0  0  0  0  0
    0.6136   -3.0678    0.0000 C   0  0  0  0  0  0  0  0  0  0  0  0
    7.3628   -3.8777    0.0000 C   0  0  0  0  0  0  0  0  0  0  0  0
  1 10  1  0  0  0  0
  2 18  1  0  0  0  0
  2 23  1  0  0  0  0
  3 22  2  0  0  0  0
  4  5  1  0  0  0  0
  4 10  1  0  0  0  0
  4 11  1  0  0  0  0
  5 13  2  0  0  0  0
  6 11  2  0  0  0  0
  6 19  1  0  0  0  0
  7 18  1  0  0  0  0
  7 21  2  0  0  0  0
  8 22  1  0  0  0  0
  8 24  1  0  0  0  0
  9 10  2  0  0  0  0
  9 12  1  0  0  0  0
  9 13  1  0  0  0  0
 11 14  1  0  0  0  0
 12 15  1  0  0  0  0
 12 16  2  0  0  0  0
 14 20  2  0  0  0  0
 15 18  2  0  0  0  0
 16 21  1  0  0  0  0
 17 19  2  0  0  0  0
 17 20  1  0  0  0  0
 17 22  1  0  0  0  0
M  END
> <PUBCHEM_COMPOUND_ID_TYPE>
0

> <PUBCHEM_TOTAL_CHARGE>
0

> <PUBCHEM_SUBSTANCE_ID>
310932490

> <PUBCHEM_SUBSTANCE_VERSION>
1

> <PUBCHEM_EXT_DATASOURCE_NAME>
4488

> <PUBCHEM_EXT_DATASOURCE_REGID>
SCHEMBL16109862

> <PUBCHEM_SUBSTANCE_COMMENT>
InChI=1S/C16H15N5O3/c1-17-15(22)11-3-4-13(19-8-11)21-16(23)12(9-20-21)10-5-6-18-14(7-10)24-2/h3-9,23H,1-2H3,(H,17,22)
InChIKey=HOQUNJCXMMHDRR-UHFFFAOYSA-N

> <PUBCHEM_SUBSTANCE_SYNONYM>
SCHEMBL16109862

> <PUBCHEM_XREF_EXT_ID>
SCHEMBL16109862

> <PUBCHEM_EXT_DATASOURCE_URL>
https://www.surechembl.org/

> <PUBCHEM_EXT_SUBSTANCE_URL>
https://www.surechembl.org/chemical/SCHEMBL16109862

> <PUBCHEM_CID_ASSOCIATIONS>
117601027  1

> <PUBCHEM_COORDINATE_TYPE>
1
3

$$$$
