310948917
  -OEChem-07211613022D

 24 26  0     0  0  0  0  0  0999 V2000
    1.9760    1.8656    0.0000 Cl  0  0  0  0  0  0  0  0  0  0  0  0
   -0.9052    1.8656    0.0000 F   0  0  0  0  0  0  0  0  0  0  0  0
   -3.4221   -2.1084    0.0000 F   0  0  0  0  0  0  0  0  0  0  0  0
   -2.4065   -2.6935    0.0000 F   0  0  0  0  0  0  0  0  0  0  0  0
    2.6935    0.6403    0.0000 O   0  0  0  0  0  0  0  0  0  0  0  0
    1.9760   -0.5961    0.0000 O   0  0  0  0  0  0  0  0  0  0  0  0
    0.5299    0.2318    0.0000 N   0  0  0  0  0  0  0  0  0  0  0  0
    0.5299    2.6935    0.0000 N   0  0  0  0  0  0  0  0  0  0  0  0
   -0.1876    0.6403    0.0000 C   0  0  0  0  0  0  0  0  0  0  0  0
   -0.8942    0.2318    0.0000 C   0  0  0  0  0  0  0  0  0  0  0  0
   -0.1766    1.4682    0.0000 C   0  0  0  0  0  0  0  0  0  0  0  0
    1.2474    0.6403    0.0000 C   0  0  0  0  0  0  0  0  0  0  0  0
   -1.6227   -0.9935    0.0000 C   0  0  0  0  0  0  0  0  0  0  0  0
    0.5409    1.8767    0.0000 C   0  0  0  0  0  0  0  0  0  0  0  0
    1.2584    1.4682    0.0000 C   0  0  0  0  0  0  0  0  0  0  0  0
   -2.3292   -0.5851    0.0000 C   0  0  0  0  0  0  0  0  0  0  0  0
   -2.6162   -1.8877    0.0000 C   0  0  0  0  0  0  0  0  0  0  0  0
   -0.9052   -0.5851    0.0000 C   0  0  0  0  0  0  0  0  0  0  0  0
   -1.7994   -1.7994    0.0000 C   0  0  0  0  0  0  0  0  0  0  0  0
   -2.9364   -1.1260    0.0000 C   0  0  0  0  0  0  0  0  0  0  0  0
   -1.6338    0.6292    0.0000 C   0  0  0  0  0  0  0  0  0  0  0  0
   -2.3292    0.2208    0.0000 C   0  0  0  0  0  0  0  0  0  0  0  0
    1.9760    0.2539    0.0000 C   0  0  0  0  0  0  0  0  0  0  0  0
    3.4221    0.2097    0.0000 C   0  0  0  0  0  0  0  0  0  0  0  0
  1 15  1  0  0  0  0
  2 11  1  0  0  0  0
  3 17  1  0  0  0  0
  4 17  1  0  0  0  0
  5 23  1  0  0  0  0
  5 24  1  0  0  0  0
  6 23  2  0  0  0  0
  7  9  1  0  0  0  0
  7 12  2  0  0  0  0
  8 14  1  0  0  0  0
  9 10  1  0  0  0  0
  9 11  2  0  0  0  0
 10 18  1  0  0  0  0
 10 21  2  0  0  0  0
 11 14  1  0  0  0  0
 12 15  1  0  0  0  0
 12 23  1  0  0  0  0
 13 16  1  0  0  0  0
 13 18  2  0  0  0  0
 13 19  1  0  0  0  0
 14 15  2  0  0  0  0
 16 20  1  0  0  0  0
 16 22  2  0  0  0  0
 17 19  1  0  0  0  0
 17 20  1  0  0  0  0
 21 22  1  0  0  0  0
M  END
> <PUBCHEM_COMPOUND_ID_TYPE>
0

> <PUBCHEM_TOTAL_CHARGE>
0

> <PUBCHEM_SUBSTANCE_ID>
310948917

> <PUBCHEM_SUBSTANCE_VERSION>
1

> <PUBCHEM_EXT_DATASOURCE_NAME>
4488

> <PUBCHEM_EXT_DATASOURCE_REGID>
SCHEMBL16127103

> <PUBCHEM_SUBSTANCE_COMMENT>
InChI=1S/C16H12ClF3N2O2/c1-24-15(23)14-10(17)12(21)11(18)13(22-14)7-2-3-8-5-16(19,20)6-9(8)4-7/h2-4H,5-6H2,1H3,(H2,21,22)
InChIKey=QZCXTBGGVMOHPD-UHFFFAOYSA-N

> <PUBCHEM_SUBSTANCE_SYNONYM>
SCHEMBL16127103

> <PUBCHEM_XREF_EXT_ID>
SCHEMBL16127103

> <PUBCHEM_EXT_DATASOURCE_URL>
https://www.surechembl.org/

> <PUBCHEM_EXT_SUBSTANCE_URL>
https://www.surechembl.org/chemical/SCHEMBL16127103

> <PUBCHEM_CID_ASSOCIATIONS>
117614433  1

> <PUBCHEM_COORDINATE_TYPE>
1
3

$$$$
