310946166
  -OEChem-07211613022D

 36 42  0     0  0  0  0  0  0999 V2000
    2.9051    5.8090    0.0000 S   0  0  0  0  0  0  0  0  0  0  0  0
   -0.3768    5.9805    0.0000 N   0  0  0  0  0  0  0  0  0  0  0  0
   -2.8338    4.3801    0.0000 C   0  0  0  0  0  0  0  0  0  0  0  0
   -2.0268    4.5516    0.0000 C   0  0  0  0  0  0  0  0  0  0  0  0
   -1.6143    3.8371    0.0000 C   0  0  0  0  0  0  0  0  0  0  0  0
   -2.9200    3.5596    0.0000 C   0  0  0  0  0  0  0  0  0  0  0  0
   -2.1664    3.2240    0.0000 C   0  0  0  0  0  0  0  0  0  0  0  0
   -0.7893    5.2661    0.0000 C   0  0  0  0  0  0  0  0  0  0  0  0
   -1.6143    5.2661    0.0000 C   0  0  0  0  0  0  0  0  0  0  0  0
    0.4482    5.9805    0.0000 C   0  0  0  0  0  0  0  0  0  0  0  0
   -0.7893    3.8371    0.0000 C   0  0  0  0  0  0  0  0  0  0  0  0
    1.6857    5.2661    0.0000 C   0  0  0  0  0  0  0  0  0  0  0  0
   -0.3768    4.5516    0.0000 C   0  0  0  0  0  0  0  0  0  0  0  0
    2.0982    5.9805    0.0000 C   0  0  0  0  0  0  0  0  0  0  0  0
    2.2377    4.6530    0.0000 C   0  0  0  0  0  0  0  0  0  0  0  0
   -3.5875    3.0747    0.0000 C   0  0  0  0  0  0  0  0  0  0  0  0
   -2.0801    2.4035    0.0000 C   0  0  0  0  0  0  0  0  0  0  0  0
    0.8607    5.2661    0.0000 C   0  0  0  0  0  0  0  0  0  0  0  0
   -0.7893    6.6950    0.0000 C   0  0  0  0  0  0  0  0  0  0  0  0
    2.9914    4.9885    0.0000 C   0  0  0  0  0  0  0  0  0  0  0  0
   -2.8338    5.2051    0.0000 C   0  0  0  0  0  0  0  0  0  0  0  0
   -3.6588    4.3801    0.0000 C   0  0  0  0  0  0  0  0  0  0  0  0
    0.8607    6.6950    0.0000 C   0  0  0  0  0  0  0  0  0  0  0  0
    1.6857    6.6950    0.0000 C   0  0  0  0  0  0  0  0  0  0  0  0
   -3.5012    2.2542    0.0000 C   0  0  0  0  0  0  0  0  0  0  0  0
   -2.7476    1.9186    0.0000 C   0  0  0  0  0  0  0  0  0  0  0  0
    2.1515    3.8325    0.0000 C   0  0  0  0  0  0  0  0  0  0  0  0
   -0.3768    7.4095    0.0000 C   0  0  0  0  0  0  0  0  0  0  0  0
    3.6588    4.5036    0.0000 C   0  0  0  0  0  0  0  0  0  0  0  0
   -1.6143    6.6950    0.0000 C   0  0  0  0  0  0  0  0  0  0  0  0
   -0.7893    8.1239    0.0000 C   0  0  0  0  0  0  0  0  0  0  0  0
    2.8189    3.3476    0.0000 C   0  0  0  0  0  0  0  0  0  0  0  0
    3.5726    3.6831    0.0000 C   0  0  0  0  0  0  0  0  0  0  0  0
   -2.0268    7.4095    0.0000 C   0  0  0  0  0  0  0  0  0  0  0  0
   -1.6143    8.1239    0.0000 C   0  0  0  0  0  0  0  0  0  0  0  0
   -0.3768    8.8384    0.0000 C   0  0  0  0  0  0  0  0  0  0  0  0
  1 14  1  0  0  0  0
  1 20  1  0  0  0  0
  2  8  1  0  0  0  0
  2 10  1  0  0  0  0
  2 19  1  0  0  0  0
  3  4  1  0  0  0  0
  3  6  1  0  0  0  0
  3 21  1  0  0  0  0
  3 22  1  0  0  0  0
  4  5  2  0  0  0  0
  4  9  1  0  0  0  0
  5  7  1  0  0  0  0
  5 11  1  0  0  0  0
  6  7  2  0  0  0  0
  6 16  1  0  0  0  0
  7 17  1  0  0  0  0
  8  9  2  0  0  0  0
  8 13  1  0  0  0  0
 10 18  2  0  0  0  0
 10 23  1  0  0  0  0
 11 13  2  0  0  0  0
 12 14  2  0  0  0  0
 12 15  1  0  0  0  0
 12 18  1  0  0  0  0
 14 24  1  0  0  0  0
 15 20  2  0  0  0  0
 15 27  1  0  0  0  0
 16 25  2  0  0  0  0
 17 26  2  0  0  0  0
 19 28  2  0  0  0  0
 19 30  1  0  0  0  0
 20 29  1  0  0  0  0
 23 24  2  0  0  0  0
 25 26  1  0  0  0  0
 27 32  2  0  0  0  0
 28 31  1  0  0  0  0
 29 33  2  0  0  0  0
 30 34  2  0  0  0  0
 31 35  2  0  0  0  0
 31 36  1  0  0  0  0
 32 33  1  0  0  0  0
 34 35  1  0  0  0  0
M  END
> <PUBCHEM_COMPOUND_ID_TYPE>
0

> <PUBCHEM_TOTAL_CHARGE>
0

> <PUBCHEM_SUBSTANCE_ID>
310946166

> <PUBCHEM_SUBSTANCE_VERSION>
1

> <PUBCHEM_EXT_DATASOURCE_NAME>
4488

> <PUBCHEM_EXT_DATASOURCE_REGID>
SCHEMBL16124275

> <PUBCHEM_SUBSTANCE_COMMENT>
InChI=1S/C34H27NS/c1-22-9-8-10-23(19-22)35(24-16-18-33-29(20-24)28-12-5-7-14-32(28)36-33)25-15-17-27-26-11-4-6-13-30(26)34(2,3)31(27)21-25/h4-21H,1-3H3
InChIKey=VMAPWCLJPUYLOH-UHFFFAOYSA-N

> <PUBCHEM_SUBSTANCE_SYNONYM>
SCHEMBL16124275

> <PUBCHEM_XREF_EXT_ID>
SCHEMBL16124275

> <PUBCHEM_EXT_DATASOURCE_URL>
https://www.surechembl.org/

> <PUBCHEM_EXT_SUBSTANCE_URL>
https://www.surechembl.org/chemical/SCHEMBL16124275

> <PUBCHEM_CID_ASSOCIATIONS>
117612123  1

> <PUBCHEM_COORDINATE_TYPE>
1
3

$$$$
