310932584
  -OEChem-07211613022D

 24 27  0     0  0  0  0  0  0999 V2000
    3.1179    0.0000    0.0000 O   0  0  0  0  0  0  0  0  0  0  0  0
    0.0000   -4.0713    0.0000 O   0  0  0  0  0  0  0  0  0  0  0  0
    5.5659   -2.9376    0.0000 O   0  0  0  0  0  0  0  0  0  0  0  0
    4.2517   -2.2676    0.0000 N   0  0  0  0  0  0  0  0  0  0  0  0
    4.2517   -3.6075    0.0000 N   0  0  0  0  0  0  0  0  0  0  0  0
    2.2933    0.0000    0.0000 N   0  0  0  0  0  0  0  0  0  0  0  0
    0.4123   -4.7928    0.0000 N   0  0  0  0  0  0  0  0  0  0  0  0
    2.7314   -2.1130    0.0000 C   0  0  0  0  0  0  0  0  0  0  0  0
    3.4529   -2.4995    0.0000 C   0  0  0  0  0  0  0  0  0  0  0  0
    3.4529   -3.3756    0.0000 C   0  0  0  0  0  0  0  0  0  0  0  0
    2.7056   -1.2884    0.0000 C   0  0  0  0  0  0  0  0  0  0  0  0
    2.0357   -3.3756    0.0000 C   0  0  0  0  0  0  0  0  0  0  0  0
    1.3142   -3.7879    0.0000 C   0  0  0  0  0  0  0  0  0  0  0  0
    2.0357   -2.4995    0.0000 C   0  0  0  0  0  0  0  0  0  0  0  0
    2.7314   -3.7621    0.0000 C   0  0  0  0  0  0  0  0  0  0  0  0
    3.3756   -0.7730    0.0000 C   0  0  0  0  0  0  0  0  0  0  0  0
    2.0357   -0.7988    0.0000 C   0  0  0  0  0  0  0  0  0  0  0  0
    4.7413   -2.9376    0.0000 C   0  0  0  0  0  0  0  0  0  0  0  0
    0.5669   -3.4529    0.0000 C   0  0  0  0  0  0  0  0  0  0  0  0
    1.2369   -4.5867    0.0000 C   0  0  0  0  0  0  0  0  0  0  0  0
    4.1744   -1.0049    0.0000 C   0  0  0  0  0  0  0  0  0  0  0  0
    1.2626   -1.0565    0.0000 C   0  0  0  0  0  0  0  0  0  0  0  0
    0.3608   -2.6541    0.0000 C   0  0  0  0  0  0  0  0  0  0  0  0
    1.8553   -5.1536    0.0000 C   0  0  0  0  0  0  0  0  0  0  0  0
  1  6  1  0  0  0  0
  1 16  1  0  0  0  0
  2  7  1  0  0  0  0
  2 19  1  0  0  0  0
  3 18  2  0  0  0  0
  4  9  1  0  0  0  0
  4 18  1  0  0  0  0
  5 10  1  0  0  0  0
  5 18  1  0  0  0  0
  6 17  2  0  0  0  0
  7 20  2  0  0  0  0
  8  9  1  0  0  0  0
  8 11  1  0  0  0  0
  8 14  2  0  0  0  0
  9 10  2  0  0  0  0
 10 15  1  0  0  0  0
 11 16  2  0  0  0  0
 11 17  1  0  0  0  0
 12 13  1  0  0  0  0
 12 14  1  0  0  0  0
 12 15  2  0  0  0  0
 13 19  2  0  0  0  0
 13 20  1  0  0  0  0
 16 21  1  0  0  0  0
 17 22  1  0  0  0  0
 19 23  1  0  0  0  0
 20 24  1  0  0  0  0
M  END
> <PUBCHEM_COMPOUND_ID_TYPE>
0

> <PUBCHEM_TOTAL_CHARGE>
0

> <PUBCHEM_SUBSTANCE_ID>
310932584

> <PUBCHEM_SUBSTANCE_VERSION>
1

> <PUBCHEM_EXT_DATASOURCE_NAME>
4488

> <PUBCHEM_EXT_DATASOURCE_REGID>
SCHEMBL16109961

> <PUBCHEM_SUBSTANCE_COMMENT>
InChI=1S/C17H16N4O3/c1-7-14(9(3)23-20-7)11-5-12(15-8(2)21-24-10(15)4)16-13(6-11)18-17(22)19-16/h5-6H,1-4H3,(H2,18,19,22)
InChIKey=DXQBIJVUSQMSEO-UHFFFAOYSA-N

> <PUBCHEM_SUBSTANCE_SYNONYM>
SCHEMBL16109961

> <PUBCHEM_XREF_EXT_ID>
SCHEMBL16109961

> <PUBCHEM_EXT_DATASOURCE_URL>
https://www.surechembl.org/

> <PUBCHEM_EXT_SUBSTANCE_URL>
https://www.surechembl.org/chemical/SCHEMBL16109961

> <PUBCHEM_CID_ASSOCIATIONS>
86296177  1

> <PUBCHEM_COORDINATE_TYPE>
1
3

$$$$
