310944658
  -OEChem-07211613022D

 28 30  0     0  0  0  0  0  0999 V2000
   -3.4152   -0.8585    0.0000 Cl  0  0  0  0  0  0  0  0  0  0  0  0
   -0.3795   -0.8585    0.0000 O   0  0  0  0  0  0  0  0  0  0  0  0
    1.0514    1.6299    0.0000 O   0  0  0  0  0  0  0  0  0  0  0  0
    4.6470   -0.4355    0.0000 O   0  0  0  0  0  0  0  0  0  0  0  0
    1.7978    0.3857    0.0000 N   0  0  0  0  0  0  0  0  0  0  0  0
   -0.3671    0.8087    0.0000 N   0  0  0  0  0  0  0  0  0  0  0  0
    3.2286   -0.4355    0.0000 N   0  0  0  0  0  0  0  0  0  0  0  0
   -3.9503    2.0529    0.0000 N   0  0  0  0  0  0  0  0  0  0  0  0
   -2.5195    0.3981    0.0000 C   0  0  0  0  0  0  0  0  0  0  0  0
   -1.0886    0.3981    0.0000 C   0  0  0  0  0  0  0  0  0  0  0  0
   -2.5195   -0.4355    0.0000 C   0  0  0  0  0  0  0  0  0  0  0  0
   -1.1011   -0.4355    0.0000 C   0  0  0  0  0  0  0  0  0  0  0  0
   -1.8103    0.7963    0.0000 C   0  0  0  0  0  0  0  0  0  0  0  0
   -3.2535    0.8087    0.0000 C   0  0  0  0  0  0  0  0  0  0  0  0
   -1.7978   -0.8460    0.0000 C   0  0  0  0  0  0  0  0  0  0  0  0
    1.0638    0.7963    0.0000 C   0  0  0  0  0  0  0  0  0  0  0  0
    0.3671    0.3981    0.0000 C   0  0  0  0  0  0  0  0  0  0  0  0
   -3.2411    1.6299    0.0000 C   0  0  0  0  0  0  0  0  0  0  0  0
   -3.9503    0.3981    0.0000 C   0  0  0  0  0  0  0  0  0  0  0  0
    2.5070    0.8087    0.0000 C   0  0  0  0  0  0  0  0  0  0  0  0
    1.7854   -0.4355    0.0000 C   0  0  0  0  0  0  0  0  0  0  0  0
    3.2162    0.3981    0.0000 C   0  0  0  0  0  0  0  0  0  0  0  0
    2.5195   -0.8460    0.0000 C   0  0  0  0  0  0  0  0  0  0  0  0
    3.9254   -0.8585    0.0000 C   0  0  0  0  0  0  0  0  0  0  0  0
   -4.6843    0.8087    0.0000 C   0  0  0  0  0  0  0  0  0  0  0  0
   -4.6719    1.6299    0.0000 C   0  0  0  0  0  0  0  0  0  0  0  0
    3.9378   -1.6797    0.0000 C   0  0  0  0  0  0  0  0  0  0  0  0
    4.6843   -2.0529    0.0000 C   0  0  0  0  0  0  0  0  0  0  0  0
  1 11  1  0  0  0  0
  2 12  1  0  0  0  0
  3 16  2  0  0  0  0
  4 24  2  0  0  0  0
  5 16  1  0  0  0  0
  5 20  1  0  0  0  0
  5 21  1  0  0  0  0
  6 10  1  0  0  0  0
  6 17  1  0  0  0  0
  7 22  1  0  0  0  0
  7 23  1  0  0  0  0
  7 24  1  0  0  0  0
  8 18  2  0  0  0  0
  8 26  1  0  0  0  0
  9 11  2  0  0  0  0
  9 13  1  0  0  0  0
  9 14  1  0  0  0  0
 10 12  1  0  0  0  0
 10 13  2  0  0  0  0
 11 15  1  0  0  0  0
 12 15  2  0  0  0  0
 14 18  1  0  0  0  0
 14 19  2  0  0  0  0
 16 17  1  0  0  0  0
 19 25  1  0  0  0  0
 20 22  1  0  0  0  0
 21 23  1  0  0  0  0
 24 27  1  0  0  0  0
 25 26  2  0  0  0  0
 27 28  2  0  0  0  0
M  END
> <PUBCHEM_COMPOUND_ID_TYPE>
0

> <PUBCHEM_TOTAL_CHARGE>
0

> <PUBCHEM_SUBSTANCE_ID>
310944658

> <PUBCHEM_SUBSTANCE_VERSION>
1

> <PUBCHEM_EXT_DATASOURCE_NAME>
4488

> <PUBCHEM_EXT_DATASOURCE_REGID>
SCHEMBL16122736

> <PUBCHEM_SUBSTANCE_COMMENT>
InChI=1S/C20H21ClN4O3/c1-2-19(27)24-6-8-25(9-7-24)20(28)13-23-17-10-15(16(21)11-18(17)26)14-4-3-5-22-12-14/h2-5,10-12,23,26H,1,6-9,13H2
InChIKey=JCPODGMFGLUZIM-UHFFFAOYSA-N

> <PUBCHEM_SUBSTANCE_SYNONYM>
SCHEMBL16122736

> <PUBCHEM_XREF_EXT_ID>
SCHEMBL16122736

> <PUBCHEM_EXT_DATASOURCE_URL>
https://www.surechembl.org/

> <PUBCHEM_EXT_SUBSTANCE_URL>
https://www.surechembl.org/chemical/SCHEMBL16122736

> <PUBCHEM_CID_ASSOCIATIONS>
117610888  1

> <PUBCHEM_COORDINATE_TYPE>
1
3

$$$$
