310945348
  -OEChem-07211613022D

 37 39  0     0  0  0  0  0  0999 V2000
   -0.6711    1.8566    0.0000 F   0  0  0  0  0  0  0  0  0  0  0  0
    0.0565    2.2707    0.0000 F   0  0  0  0  0  0  0  0  0  0  0  0
    0.7589    1.8566    0.0000 F   0  0  0  0  0  0  0  0  0  0  0  0
    3.6192   -1.4552    0.0000 F   0  0  0  0  0  0  0  0  0  0  0  0
    4.3217   -1.8692    0.0000 F   0  0  0  0  0  0  0  0  0  0  0  0
    3.5941   -3.0986    0.0000 F   0  0  0  0  0  0  0  0  0  0  0  0
   -3.6066   -0.5896    0.0000 O   0  0  0  0  0  0  0  0  0  0  0  0
   -2.8916   -1.8190    0.0000 O   0  0  0  0  0  0  0  0  0  0  0  0
    0.7464    0.2133    0.0000 N   0  0  0  0  0  0  0  0  0  0  0  0
    0.0188   -1.0161    0.0000 N   0  0  0  0  0  0  0  0  0  0  0  0
   -1.3987    0.6398    0.0000 N   0  0  0  0  0  0  0  0  0  0  0  0
   -1.4239   -1.0036    0.0000 N   0  0  0  0  0  0  0  0  0  0  0  0
    2.1640   -2.2707    0.0000 N   0  0  0  0  0  0  0  0  0  0  0  0
   -1.3987    1.4552    0.0000 N   0  0  0  0  0  0  0  0  0  0  0  0
   -2.1640   -0.5896    0.0000 N   0  0  0  0  0  0  0  0  0  0  0  0
    0.0188    0.6272    0.0000 C   0  0  0  0  0  0  0  0  0  0  0  0
   -0.6837    0.2133    0.0000 C   0  0  0  0  0  0  0  0  0  0  0  0
    0.7213   -0.6272    0.0000 C   0  0  0  0  0  0  0  0  0  0  0  0
   -0.7087   -0.6147    0.0000 C   0  0  0  0  0  0  0  0  0  0  0  0
    0.0439    1.4552    0.0000 C   0  0  0  0  0  0  0  0  0  0  0  0
    1.4489   -1.0287    0.0000 C   0  0  0  0  0  0  0  0  0  0  0  0
    1.4489   -1.8566    0.0000 C   0  0  0  0  0  0  0  0  0  0  0  0
    2.1765   -0.6524    0.0000 C   0  0  0  0  0  0  0  0  0  0  0  0
    2.8790   -1.8692    0.0000 C   0  0  0  0  0  0  0  0  0  0  0  0
    3.6066   -2.2707    0.0000 C   0  0  0  0  0  0  0  0  0  0  0  0
    2.8916   -1.0537    0.0000 C   0  0  0  0  0  0  0  0  0  0  0  0
   -2.1389    1.8818    0.0000 C   0  0  0  0  0  0  0  0  0  0  0  0
   -2.8790   -0.9785    0.0000 C   0  0  0  0  0  0  0  0  0  0  0  0
   -2.1263    2.6972    0.0000 C   0  0  0  0  0  0  0  0  0  0  0  0
   -2.8540    1.4678    0.0000 C   0  0  0  0  0  0  0  0  0  0  0  0
   -3.6066    0.2509    0.0000 C   0  0  0  0  0  0  0  0  0  0  0  0
   -2.8414    3.0986    0.0000 C   0  0  0  0  0  0  0  0  0  0  0  0
   -3.5816    1.8818    0.0000 C   0  0  0  0  0  0  0  0  0  0  0  0
   -3.5690    2.6972    0.0000 C   0  0  0  0  0  0  0  0  0  0  0  0
   -3.5941    1.0412    0.0000 C   0  0  0  0  0  0  0  0  0  0  0  0
   -4.3217    0.6272    0.0000 C   0  0  0  0  0  0  0  0  0  0  0  0
   -2.8665    0.6398    0.0000 C   0  0  0  0  0  0  0  0  0  0  0  0
  1 20  1  0  0  0  0
  2 20  1  0  0  0  0
  3 20  1  0  0  0  0
  4 25  1  0  0  0  0
  5 25  1  0  0  0  0
  6 25  1  0  0  0  0
  7 28  1  0  0  0  0
  7 31  1  0  0  0  0
  8 28  2  0  0  0  0
  9 16  2  0  0  0  0
  9 18  1  0  0  0  0
 10 18  2  0  0  0  0
 10 19  1  0  0  0  0
 11 14  2  0  0  0  0
 11 17  1  0  0  0  0
 12 15  1  0  0  0  0
 12 19  1  0  0  0  0
 13 22  1  0  0  0  0
 13 24  2  0  0  0  0
 14 27  1  0  0  0  0
 15 28  1  0  0  0  0
 16 17  1  0  0  0  0
 16 20  1  0  0  0  0
 17 19  2  0  0  0  0
 18 21  1  0  0  0  0
 21 22  2  0  0  0  0
 21 23  1  0  0  0  0
 23 26  2  0  0  0  0
 24 25  1  0  0  0  0
 24 26  1  0  0  0  0
 27 29  2  0  0  0  0
 27 30  1  0  0  0  0
 29 32  1  0  0  0  0
 30 33  2  0  0  0  0
 31 35  1  0  0  0  0
 31 36  1  0  0  0  0
 31 37  1  0  0  0  0
 32 34  2  0  0  0  0
 33 34  1  0  0  0  0
M  END
> <PUBCHEM_COMPOUND_ID_TYPE>
0

> <PUBCHEM_TOTAL_CHARGE>
0

> <PUBCHEM_SUBSTANCE_ID>
310945348

> <PUBCHEM_SUBSTANCE_VERSION>
1

> <PUBCHEM_EXT_DATASOURCE_NAME>
4488

> <PUBCHEM_EXT_DATASOURCE_REGID>
SCHEMBL16123446

> <PUBCHEM_SUBSTANCE_COMMENT>
InChI=1S/C22H19F6N7O2/c1-20(2,3)37-19(36)35-34-18-15(33-32-13-7-5-4-6-8-13)16(22(26,27)28)30-17(31-18)12-9-10-14(29-11-12)21(23,24)25/h4-11H,1-3H3,(H,35,36)(H,30,31,34)/b33-32+
InChIKey=CTTKFXIDZALTSE-ULIFNZDWSA-N

> <PUBCHEM_SUBSTANCE_SYNONYM>
SCHEMBL16123446

> <PUBCHEM_XREF_EXT_ID>
SCHEMBL16123446

> <PUBCHEM_EXT_DATASOURCE_URL>
https://www.surechembl.org/

> <PUBCHEM_EXT_SUBSTANCE_URL>
https://www.surechembl.org/chemical/SCHEMBL16123446

> <PUBCHEM_CID_ASSOCIATIONS>
117611407  1

> <PUBCHEM_COORDINATE_TYPE>
1
3

$$$$
