310948337
  -OEChem-07211613022D

 20 21  0     1  0  0  0  0  0999 V2000
   -2.6935    0.2130    0.0000 O   0  0  0  0  0  0  0  0  0  0  0  0
    0.0413    0.0893    0.0000 N   0  0  0  0  0  0  0  0  0  0  0  0
   -0.2886   -0.6528    0.0000 N   0  0  0  0  0  0  0  0  0  0  0  0
   -1.6491   -1.1887    0.0000 N   0  0  0  0  0  0  0  0  0  0  0  0
   -1.9789    1.4636    0.0000 N   0  0  0  0  0  0  0  0  0  0  0  0
    0.6322   -1.8621    0.0000 N   0  0  0  0  0  0  0  0  0  0  0  0
   -0.5772    0.6391    0.0000 C   0  0  0  0  0  0  0  0  0  0  0  0
   -1.2643    0.2405    0.0000 C   0  0  0  0  0  0  0  0  0  0  0  0
   -1.0994   -0.5566    0.0000 C   0  0  0  0  0  0  0  0  0  0  0  0
    0.8383    0.2542    0.0000 C   0  0  3  0  0  0  0  0  0  0  0  0
   -1.9789    0.6528    0.0000 C   0  0  0  0  0  0  0  0  0  0  0  0
    1.3605   -0.3917    0.0000 C   0  0  3  0  0  0  0  0  0  0  0  0
   -0.5634    1.4636    0.0000 C   0  0  0  0  0  0  0  0  0  0  0  0
    1.0582    1.0925    0.0000 C   0  0  0  0  0  0  0  0  0  0  0  0
    2.1850   -0.3641    0.0000 C   0  0  0  0  0  0  0  0  0  0  0  0
    0.9894   -1.1338    0.0000 C   0  0  0  0  0  0  0  0  0  0  0  0
    1.7728    1.4224    0.0000 C   0  0  0  0  0  0  0  0  0  0  0  0
    2.6935    0.2542    0.0000 C   0  0  0  0  0  0  0  0  0  0  0  0
   -1.2918    1.8621    0.0000 C   0  0  0  0  0  0  0  0  0  0  0  0
    2.5286    1.0650    0.0000 C   0  0  0  0  0  0  0  0  0  0  0  0
  1 11  2  0  0  0  0
  2  3  1  0  0  0  0
  2  7  1  0  0  0  0
 10  2  1  1  0  0  0
  3  9  2  0  0  0  0
  4  9  1  0  0  0  0
  5 11  1  0  0  0  0
  6 16  3  0  0  0  0
  7  8  2  0  0  0  0
  7 13  1  0  0  0  0
  8  9  1  0  0  0  0
  8 11  1  0  0  0  0
 10 12  1  0  0  0  0
 10 14  1  0  0  0  0
 12 15  1  0  0  0  0
 12 16  1  6  0  0  0
 13 19  2  0  0  0  0
 14 17  1  0  0  0  0
 15 18  1  0  0  0  0
 17 20  1  0  0  0  0
 18 20  1  0  0  0  0
M  END
> <PUBCHEM_COMPOUND_ID_TYPE>
0

> <PUBCHEM_TOTAL_CHARGE>
0

> <PUBCHEM_SUBSTANCE_ID>
310948337

> <PUBCHEM_SUBSTANCE_VERSION>
1

> <PUBCHEM_EXT_DATASOURCE_NAME>
4488

> <PUBCHEM_EXT_DATASOURCE_REGID>
SCHEMBL16126515

> <PUBCHEM_SUBSTANCE_COMMENT>
InChI=1S/C14H19N5O/c1-2-10-12(14(17)20)13(16)18-19(10)11-7-5-3-4-6-9(11)8-15/h2,9,11H,1,3-7H2,(H2,16,18)(H2,17,20)/t9-,11+/m1/s1
InChIKey=BFKIMRNLFNBDBB-KOLCDFICSA-N

> <PUBCHEM_SUBSTANCE_SYNONYM>
SCHEMBL16126515

> <PUBCHEM_XREF_EXT_ID>
SCHEMBL16126515

> <PUBCHEM_EXT_DATASOURCE_URL>
https://www.surechembl.org/

> <PUBCHEM_EXT_SUBSTANCE_URL>
https://www.surechembl.org/chemical/SCHEMBL16126515

> <PUBCHEM_CID_ASSOCIATIONS>
117613902  1

> <PUBCHEM_COORDINATE_TYPE>
1
3

> <PUBCHEM_BONDANNOTATIONS>
12  16  6
10  2  5

$$$$
