310941110
  -OEChem-07211613022D

 43 46  0     1  0  0  0  0  0999 V2000
    5.6209   -1.0149    0.0000 O   0  0  0  0  0  0  0  0  0  0  0  0
    4.4811    0.9525    0.0000 O   0  0  0  0  0  0  0  0  0  0  0  0
    2.1079   -0.9993    0.0000 O   0  0  0  0  0  0  0  0  0  0  0  0
   -0.0469    1.0774    0.0000 O   0  0  0  0  0  0  0  0  0  0  0  0
   -5.4960   -1.7175    0.0000 O   0  0  0  0  0  0  0  0  0  0  0  0
    4.2626    2.7168    0.0000 O   0  0  0  0  0  0  0  0  0  0  0  0
   -2.2016   -0.9993    0.0000 O   0  0  0  0  0  0  0  0  0  0  0  0
    2.8261    0.2498    0.0000 N   0  0  0  0  0  0  0  0  0  0  0  0
    0.6714   -0.1718    0.0000 N   0  0  0  0  0  0  0  0  0  0  0  0
   -3.6537   -0.1718    0.0000 N   0  0  0  0  0  0  0  0  0  0  0  0
   -1.4989    0.2498    0.0000 N   0  0  0  0  0  0  0  0  0  0  0  0
    5.1994   -0.2811    0.0000 C   0  0  3  0  0  0  0  0  0  0  0  0
    4.4031    0.1249    0.0000 C   0  0  0  0  0  0  0  0  0  0  0  0
    4.8091   -0.9681    0.0000 C   0  0  0  0  0  0  0  0  0  0  0  0
    3.7786   -0.2654    0.0000 C   0  0  3  0  0  0  0  0  0  0  0  0
    5.9176    0.1405    0.0000 C   0  0  0  0  0  0  0  0  0  0  0  0
    3.7786   -1.3272    0.0000 C   0  0  0  0  0  0  0  0  0  0  0  0
    2.1079   -0.1093    0.0000 C   0  0  0  0  0  0  0  0  0  0  0  0
    1.3896    0.2811    0.0000 C   0  0  3  0  0  0  0  0  0  0  0  0
    3.0446   -1.7487    0.0000 C   0  0  0  0  0  0  0  0  0  0  0  0
    1.4052    1.0930    0.0000 C   0  0  0  0  0  0  0  0  0  0  0  0
    2.2952   -1.4365    0.0000 C   0  0  0  0  0  0  0  0  0  0  0  0
    2.9510   -2.5606    0.0000 C   0  0  0  0  0  0  0  0  0  0  0  0
   -0.0469    0.2654    0.0000 C   0  0  0  0  0  0  0  0  0  0  0  0
    2.1079    1.5145    0.0000 C   0  0  0  0  0  0  0  0  0  0  0  0
   -0.7651   -0.1405    0.0000 C   0  0  3  0  0  0  0  0  0  0  0  0
   -5.0901   -0.9681    0.0000 C   0  0  0  0  0  0  0  0  0  0  0  0
    1.7487   -2.0454    0.0000 C   0  0  0  0  0  0  0  0  0  0  0  0
    2.1547   -2.7324    0.0000 C   0  0  0  0  0  0  0  0  0  0  0  0
    2.8261    1.1085    0.0000 C   0  0  0  0  0  0  0  0  0  0  0  0
    2.1391    2.3421    0.0000 C   0  0  0  0  0  0  0  0  0  0  0  0
   -2.2016   -0.1249    0.0000 C   0  0  0  0  0  0  0  0  0  0  0  0
   -2.9354    0.2654    0.0000 C   0  0  0  0  0  0  0  0  0  0  0  0
   -5.0745   -0.1249    0.0000 C   0  0  0  0  0  0  0  0  0  0  0  0
   -4.3562   -1.3740    0.0000 C   0  0  0  0  0  0  0  0  0  0  0  0
   -4.3718    0.2654    0.0000 C   0  0  0  0  0  0  0  0  0  0  0  0
   -3.6537   -0.9681    0.0000 C   0  0  0  0  0  0  0  0  0  0  0  0
    3.5599    2.3421    0.0000 C   0  0  0  0  0  0  0  0  0  0  0  0
    3.5443    1.5145    0.0000 C   0  0  0  0  0  0  0  0  0  0  0  0
    2.8261    2.7324    0.0000 C   0  0  0  0  0  0  0  0  0  0  0  0
   -0.7651   -0.9525    0.0000 C   0  0  0  0  0  0  0  0  0  0  0  0
   -5.9176   -0.9836    0.0000 C   0  0  0  0  0  0  0  0  0  0  0  0
    4.9964    2.3108    0.0000 C   0  0  0  0  0  0  0  0  0  0  0  0
  1 12  1  0  0  0  0
  1 14  1  0  0  0  0
  2 13  2  0  0  0  0
  3 18  2  0  0  0  0
  4 24  2  0  0  0  0
  5 27  1  0  0  0  0
  6 38  1  0  0  0  0
  6 43  1  0  0  0  0
  7 32  2  0  0  0  0
 15  8  1  6  0  0  0
  8 18  1  0  0  0  0
 19  9  1  1  0  0  0
  9 24  1  0  0  0  0
 10 33  1  0  0  0  0
 10 36  1  0  0  0  0
 10 37  1  0  0  0  0
 11 26  1  0  0  0  0
 11 32  1  0  0  0  0
 12 13  1  6  0  0  0
 12 14  1  0  0  0  0
 12 16  1  1  0  0  0
 13 15  1  0  0  0  0
 15 17  1  0  0  0  0
 17 20  1  0  0  0  0
 18 19  1  0  0  0  0
 19 21  1  0  0  0  0
 20 22  2  0  0  0  0
 20 23  1  0  0  0  0
 21 25  1  0  0  0  0
 22 28  1  0  0  0  0
 23 29  1  0  0  0  0
 24 26  1  0  0  0  0
 25 30  2  0  0  0  0
 25 31  1  0  0  0  0
 26 41  1  6  0  0  0
 27 34  1  0  0  0  0
 27 35  1  0  0  0  0
 27 42  1  0  0  0  0
 28 29  1  0  0  0  0
 30 39  1  0  0  0  0
 31 40  2  0  0  0  0
 32 33  1  0  0  0  0
 34 36  1  0  0  0  0
 35 37  1  0  0  0  0
 38 39  2  0  0  0  0
 38 40  1  0  0  0  0
M  END
> <PUBCHEM_COMPOUND_ID_TYPE>
0

> <PUBCHEM_TOTAL_CHARGE>
0

> <PUBCHEM_SUBSTANCE_ID>
310941110

> <PUBCHEM_SUBSTANCE_VERSION>
1

> <PUBCHEM_EXT_DATASOURCE_NAME>
4488

> <PUBCHEM_EXT_DATASOURCE_REGID>
SCHEMBL16119070

> <PUBCHEM_SUBSTANCE_COMMENT>
InChI=1S/C32H46N4O7/c1-21(33-27(37)19-36-15-13-31(2,41)14-16-36)29(39)35-26(18-23-9-11-24(42-4)12-10-23)30(40)34-25(17-22-7-5-6-8-22)28(38)32(3)20-43-32/h7,9-12,21,25-26,41H,5-6,8,13-20H2,1-4H3,(H,33,37)(H,34,40)(H,35,39)/t21-,25-,26-,32+/m0/s1
InChIKey=KRFXTEXWTIKTLC-ZRZOWIJMSA-N

> <PUBCHEM_SUBSTANCE_SYNONYM>
SCHEMBL16119070

> <PUBCHEM_XREF_EXT_ID>
SCHEMBL16119070

> <PUBCHEM_EXT_DATASOURCE_URL>
https://www.surechembl.org/

> <PUBCHEM_EXT_SUBSTANCE_URL>
https://www.surechembl.org/chemical/SCHEMBL16119070

> <PUBCHEM_CID_ASSOCIATIONS>
117607993  1

> <PUBCHEM_COORDINATE_TYPE>
1
3

> <PUBCHEM_BONDANNOTATIONS>
12  13  6
12  16  5
26  41  6
15  8  6
19  9  5

$$$$
