310940960
  -OEChem-07211613022D

 44 47  0     1  0  0  0  0  0999 V2000
   -1.8887   -1.4039    0.0000 F   0  0  0  0  0  0  0  0  0  0  0  0
   -1.1796   -1.8092    0.0000 F   0  0  0  0  0  0  0  0  0  0  0  0
   -0.4559   -1.4039    0.0000 F   0  0  0  0  0  0  0  0  0  0  0  0
    5.1597   -0.9987    0.0000 O   0  0  0  0  0  0  0  0  0  0  0  0
    4.0308    0.9407    0.0000 O   0  0  0  0  0  0  0  0  0  0  0  0
    1.6716   -0.9842    0.0000 O   0  0  0  0  0  0  0  0  0  0  0  0
   -0.4704    1.0710    0.0000 O   0  0  0  0  0  0  0  0  0  0  0  0
   -2.6124   -0.9842    0.0000 O   0  0  0  0  0  0  0  0  0  0  0  0
    3.8137    2.7210    0.0000 O   0  0  0  0  0  0  0  0  0  0  0  0
   -5.4781   -0.9842    0.0000 O   0  0  0  0  0  0  0  0  0  0  0  0
    2.3953    0.2460    0.0000 N   0  0  0  0  0  0  0  0  0  0  0  0
    0.2533   -0.1737    0.0000 N   0  0  0  0  0  0  0  0  0  0  0  0
   -1.9033    0.2460    0.0000 N   0  0  0  0  0  0  0  0  0  0  0  0
   -4.0453   -0.1737    0.0000 N   0  0  0  0  0  0  0  0  0  0  0  0
    4.7689   -0.2750    0.0000 C   0  0  3  0  0  0  0  0  0  0  0  0
    3.9874    0.1013    0.0000 C   0  0  0  0  0  0  0  0  0  0  0  0
    4.3637   -0.9697    0.0000 C   0  0  0  0  0  0  0  0  0  0  0  0
    3.3361   -0.2605    0.0000 C   0  0  3  0  0  0  0  0  0  0  0  0
    5.4781    0.1447    0.0000 C   0  0  0  0  0  0  0  0  0  0  0  0
    1.6861   -0.1158    0.0000 C   0  0  0  0  0  0  0  0  0  0  0  0
    3.3361   -1.3315    0.0000 C   0  0  0  0  0  0  0  0  0  0  0  0
    0.9480    0.2750    0.0000 C   0  0  3  0  0  0  0  0  0  0  0  0
   -1.1651   -0.1302    0.0000 C   0  0  3  0  0  0  0  0  0  0  0  0
   -0.4704    0.2460    0.0000 C   0  0  0  0  0  0  0  0  0  0  0  0
   -1.1651   -0.9842    0.0000 C   0  0  0  0  0  0  0  0  0  0  0  0
    2.6124   -1.7368    0.0000 C   0  0  0  0  0  0  0  0  0  0  0  0
    0.9770    1.1000    0.0000 C   0  0  0  0  0  0  0  0  0  0  0  0
    1.6716    1.5052    0.0000 C   0  0  0  0  0  0  0  0  0  0  0  0
   -2.5979   -0.1158    0.0000 C   0  0  0  0  0  0  0  0  0  0  0  0
    1.8742   -1.4184    0.0000 C   0  0  0  0  0  0  0  0  0  0  0  0
    2.5111   -2.5617    0.0000 C   0  0  0  0  0  0  0  0  0  0  0  0
    2.4098    1.1000    0.0000 C   0  0  0  0  0  0  0  0  0  0  0  0
    1.7006    2.3447    0.0000 C   0  0  0  0  0  0  0  0  0  0  0  0
    1.3243   -2.0407    0.0000 C   0  0  0  0  0  0  0  0  0  0  0  0
    1.7151   -2.7210    0.0000 C   0  0  0  0  0  0  0  0  0  0  0  0
   -3.3361    0.2605    0.0000 C   0  0  0  0  0  0  0  0  0  0  0  0
    3.1190    2.3302    0.0000 C   0  0  0  0  0  0  0  0  0  0  0  0
    3.1190    1.5052    0.0000 C   0  0  0  0  0  0  0  0  0  0  0  0
    2.3953    2.7210    0.0000 C   0  0  0  0  0  0  0  0  0  0  0  0
   -4.0308   -0.9552    0.0000 C   0  0  0  0  0  0  0  0  0  0  0  0
   -4.7834    0.2605    0.0000 C   0  0  0  0  0  0  0  0  0  0  0  0
   -4.7255   -1.3604    0.0000 C   0  0  0  0  0  0  0  0  0  0  0  0
   -5.4491   -0.1302    0.0000 C   0  0  0  0  0  0  0  0  0  0  0  0
    4.5663    2.3157    0.0000 C   0  0  0  0  0  0  0  0  0  0  0  0
  1 25  1  0  0  0  0
  2 25  1  0  0  0  0
  3 25  1  0  0  0  0
  4 15  1  0  0  0  0
  4 17  1  0  0  0  0
  5 16  2  0  0  0  0
  6 20  2  0  0  0  0
  7 24  2  0  0  0  0
  8 29  2  0  0  0  0
  9 37  1  0  0  0  0
  9 44  1  0  0  0  0
 10 42  1  0  0  0  0
 10 43  1  0  0  0  0
 18 11  1  6  0  0  0
 11 20  1  0  0  0  0
 22 12  1  1  0  0  0
 12 24  1  0  0  0  0
 23 13  1  6  0  0  0
 13 29  1  0  0  0  0
 14 36  1  0  0  0  0
 14 40  1  0  0  0  0
 14 41  1  0  0  0  0
 15 16  1  6  0  0  0
 15 17  1  0  0  0  0
 15 19  1  1  0  0  0
 16 18  1  0  0  0  0
 18 21  1  0  0  0  0
 20 22  1  0  0  0  0
 21 26  1  0  0  0  0
 22 27  1  0  0  0  0
 23 24  1  0  0  0  0
 23 25  1  0  0  0  0
 26 30  2  0  0  0  0
 26 31  1  0  0  0  0
 27 28  1  0  0  0  0
 28 32  2  0  0  0  0
 28 33  1  0  0  0  0
 29 36  1  0  0  0  0
 30 34  1  0  0  0  0
 31 35  1  0  0  0  0
 32 38  1  0  0  0  0
 33 39  2  0  0  0  0
 34 35  1  0  0  0  0
 37 38  2  0  0  0  0
 37 39  1  0  0  0  0
 40 42  1  0  0  0  0
 41 43  1  0  0  0  0
M  END
> <PUBCHEM_COMPOUND_ID_TYPE>
0

> <PUBCHEM_TOTAL_CHARGE>
0

> <PUBCHEM_SUBSTANCE_ID>
310940960

> <PUBCHEM_SUBSTANCE_VERSION>
1

> <PUBCHEM_EXT_DATASOURCE_NAME>
4488

> <PUBCHEM_EXT_DATASOURCE_REGID>
SCHEMBL16118919

> <PUBCHEM_SUBSTANCE_COMMENT>
InChI=1S/C30H39F3N4O7/c1-29(18-44-29)26(39)22(15-19-5-3-4-6-19)34-27(40)23(16-20-7-9-21(42-2)10-8-20)35-28(41)25(30(31,32)33)36-24(38)17-37-11-13-43-14-12-37/h5,7-10,22-23,25H,3-4,6,11-18H2,1-2H3,(H,34,40)(H,35,41)(H,36,38)/t22-,23-,25+,29+/m0/s1
InChIKey=SVCWIKBIULKUKK-WSQBEXMKSA-N

> <PUBCHEM_SUBSTANCE_SYNONYM>
SCHEMBL16118919

> <PUBCHEM_XREF_EXT_ID>
SCHEMBL16118919

> <PUBCHEM_EXT_DATASOURCE_URL>
https://www.surechembl.org/

> <PUBCHEM_EXT_SUBSTANCE_URL>
https://www.surechembl.org/chemical/SCHEMBL16118919

> <PUBCHEM_CID_ASSOCIATIONS>
117607868  1

> <PUBCHEM_COORDINATE_TYPE>
1
3

> <PUBCHEM_BONDANNOTATIONS>
18  11  6
22  12  5
23  13  6
15  16  6
15  19  5

$$$$
