310943462
  -OEChem-07211613022D

 36 40  0     0  0  0  0  0  0999 V2000
    2.8491   -2.5283    0.0000 F   0  0  0  0  0  0  0  0  0  0  0  0
    4.2698   -2.5283    0.0000 F   0  0  0  0  0  0  0  0  0  0  0  0
   -1.4284   -2.8797    0.0000 O   0  0  0  0  0  0  0  0  0  0  0  0
   -4.2698    2.4519    0.0000 O   0  0  0  0  0  0  0  0  0  0  0  0
    1.4284   -0.0382    0.0000 O   0  0  0  0  0  0  0  0  0  0  0  0
   -1.4131   -0.8784    0.0000 N   0  0  0  0  0  0  0  0  0  0  0  0
   -0.7103    0.3743    0.0000 N   0  0  0  0  0  0  0  0  0  0  0  0
   -2.1311    0.3743    0.0000 N   0  0  0  0  0  0  0  0  0  0  0  0
   -2.8491    1.6270    0.0000 N   0  0  0  0  0  0  0  0  0  0  0  0
    0.7103    2.8797    0.0000 N   0  0  0  0  0  0  0  0  0  0  0  0
    2.1311    1.2145    0.0000 N   0  0  0  0  0  0  0  0  0  0  0  0
   -0.7257    1.2298    0.0000 C   0  0  0  0  0  0  0  0  0  0  0  0
   -1.4131   -0.0382    0.0000 C   0  0  0  0  0  0  0  0  0  0  0  0
   -0.0076    1.6270    0.0000 C   0  0  0  0  0  0  0  0  0  0  0  0
   -2.1311    1.2145    0.0000 C   0  0  0  0  0  0  0  0  0  0  0  0
   -1.4284    1.6270    0.0000 C   0  0  0  0  0  0  0  0  0  0  0  0
    0.0076    2.4672    0.0000 C   0  0  0  0  0  0  0  0  0  0  0  0
   -1.9936   -1.4742    0.0000 C   0  0  0  0  0  0  0  0  0  0  0  0
   -0.8478   -1.4589    0.0000 C   0  0  0  0  0  0  0  0  0  0  0  0
    0.7103    1.2145    0.0000 C   0  0  0  0  0  0  0  0  0  0  0  0
   -1.4131   -2.0395    0.0000 C   0  0  0  0  0  0  0  0  0  0  0  0
    1.4131    1.6270    0.0000 C   0  0  0  0  0  0  0  0  0  0  0  0
    1.4284    2.4519    0.0000 C   0  0  0  0  0  0  0  0  0  0  0  0
   -2.8338    2.4519    0.0000 C   0  0  0  0  0  0  0  0  0  0  0  0
   -3.5518    1.2145    0.0000 C   0  0  0  0  0  0  0  0  0  0  0  0
    2.1464    0.3895    0.0000 C   0  0  0  0  0  0  0  0  0  0  0  0
    2.8491   -0.0229    0.0000 C   0  0  0  0  0  0  0  0  0  0  0  0
   -0.7257    2.8644    0.0000 C   0  0  0  0  0  0  0  0  0  0  0  0
   -3.5518    2.8797    0.0000 C   0  0  0  0  0  0  0  0  0  0  0  0
   -4.2698    1.6270    0.0000 C   0  0  0  0  0  0  0  0  0  0  0  0
    2.8491   -0.8632    0.0000 C   0  0  0  0  0  0  0  0  0  0  0  0
    3.5671   -1.2756    0.0000 C   0  0  0  0  0  0  0  0  0  0  0  0
    3.5518    0.3590    0.0000 C   0  0  0  0  0  0  0  0  0  0  0  0
    4.2546   -0.8632    0.0000 C   0  0  0  0  0  0  0  0  0  0  0  0
    4.2546   -0.0382    0.0000 C   0  0  0  0  0  0  0  0  0  0  0  0
    3.5518   -2.1158    0.0000 C   0  0  0  0  0  0  0  0  0  0  0  0
  1 36  1  0  0  0  0
  2 36  1  0  0  0  0
  3 21  1  0  0  0  0
  4 29  1  0  0  0  0
  4 30  1  0  0  0  0
  5 26  2  0  0  0  0
  6 13  1  0  0  0  0
  6 18  1  0  0  0  0
  6 19  1  0  0  0  0
  7 12  1  0  0  0  0
  7 13  2  0  0  0  0
  8 13  1  0  0  0  0
  8 15  2  0  0  0  0
  9 15  1  0  0  0  0
  9 24  1  0  0  0  0
  9 25  1  0  0  0  0
 10 17  2  0  0  0  0
 10 23  1  0  0  0  0
 11 22  1  0  0  0  0
 11 26  1  0  0  0  0
 12 14  1  0  0  0  0
 12 16  2  0  0  0  0
 14 17  1  0  0  0  0
 14 20  2  0  0  0  0
 15 16  1  0  0  0  0
 17 28  1  0  0  0  0
 18 21  1  0  0  0  0
 19 21  1  0  0  0  0
 20 22  1  0  0  0  0
 22 23  2  0  0  0  0
 24 29  1  0  0  0  0
 25 30  1  0  0  0  0
 26 27  1  0  0  0  0
 27 31  2  0  0  0  0
 27 33  1  0  0  0  0
 31 32  1  0  0  0  0
 32 34  2  0  0  0  0
 32 36  1  0  0  0  0
 33 35  2  0  0  0  0
 34 35  1  0  0  0  0
M  END
> <PUBCHEM_COMPOUND_ID_TYPE>
0

> <PUBCHEM_TOTAL_CHARGE>
0

> <PUBCHEM_SUBSTANCE_ID>
310943462

> <PUBCHEM_SUBSTANCE_VERSION>
1

> <PUBCHEM_EXT_DATASOURCE_NAME>
4488

> <PUBCHEM_EXT_DATASOURCE_REGID>
SCHEMBL16121527

> <PUBCHEM_SUBSTANCE_COMMENT>
InChI=1S/C25H26F2N6O3/c1-15-20(10-18(12-28-15)29-24(35)17-4-2-3-16(9-17)23(26)27)21-11-22(32-5-7-36-8-6-32)31-25(30-21)33-13-19(34)14-33/h2-4,9-12,19,23,34H,5-8,13-14H2,1H3,(H,29,35)
InChIKey=IRLXXAYZGPMJCC-UHFFFAOYSA-N

> <PUBCHEM_SUBSTANCE_SYNONYM>
SCHEMBL16121527

> <PUBCHEM_XREF_EXT_ID>
SCHEMBL16121527

> <PUBCHEM_EXT_DATASOURCE_URL>
https://www.surechembl.org/

> <PUBCHEM_EXT_SUBSTANCE_URL>
https://www.surechembl.org/chemical/SCHEMBL16121527

> <PUBCHEM_CID_ASSOCIATIONS>
117609886  1

> <PUBCHEM_COORDINATE_TYPE>
1
3

$$$$
