310937620
  -OEChem-07211613022D

 16 17  0     0  0  0  0  0  0999 V2000
    0.8241   -2.1466    0.0000 Br  0  0  0  0  0  0  0  0  0  0  0  0
    4.5041    0.0000    0.0000 O   0  0  0  0  0  0  0  0  0  0  0  0
    5.7499   -0.7092    0.0000 O   0  0  0  0  0  0  0  0  0  0  0  0
    4.5041   -1.4183    0.0000 N   0  0  0  0  0  0  0  0  0  0  0  0
    0.0000   -0.7283    0.0000 N   0  0  0  0  0  0  0  0  0  0  0  0
    2.0699   -1.4183    0.0000 C   0  0  0  0  0  0  0  0  0  0  0  0
    2.4724   -0.7283    0.0000 C   0  0  0  0  0  0  0  0  0  0  0  0
    1.2266   -1.4183    0.0000 C   0  0  0  0  0  0  0  0  0  0  0  0
    3.6991   -1.4183    0.0000 C   0  0  0  0  0  0  0  0  0  0  0  0
    0.8050   -0.7092    0.0000 C   0  0  0  0  0  0  0  0  0  0  0  0
    3.2774   -0.7092    0.0000 C   0  0  0  0  0  0  0  0  0  0  0  0
    2.4533   -2.1275    0.0000 C   0  0  0  0  0  0  0  0  0  0  0  0
    2.0508    0.0000    0.0000 C   0  0  0  0  0  0  0  0  0  0  0  0
    3.2774   -2.1275    0.0000 C   0  0  0  0  0  0  0  0  0  0  0  0
    1.2266    0.0000    0.0000 C   0  0  0  0  0  0  0  0  0  0  0  0
    4.9257   -0.7092    0.0000 C   0  0  0  0  0  0  0  0  0  0  0  0
  1  8  1  0  0  0  0
  2 16  2  0  0  0  0
  3 16  1  0  0  0  0
  4  9  1  0  0  0  0
  4 16  1  0  0  0  0
  5 10  1  0  0  0  0
  6  7  2  0  0  0  0
  6  8  1  0  0  0  0
  6 12  1  0  0  0  0
  7 11  1  0  0  0  0
  7 13  1  0  0  0  0
  8 10  2  0  0  0  0
  9 11  2  0  0  0  0
  9 14  1  0  0  0  0
 10 15  1  0  0  0  0
 12 14  2  0  0  0  0
 13 15  2  0  0  0  0
M  END
> <PUBCHEM_COMPOUND_ID_TYPE>
0

> <PUBCHEM_TOTAL_CHARGE>
0

> <PUBCHEM_SUBSTANCE_ID>
310937620

> <PUBCHEM_SUBSTANCE_VERSION>
1

> <PUBCHEM_EXT_DATASOURCE_NAME>
4488

> <PUBCHEM_EXT_DATASOURCE_REGID>
SCHEMBL16115403

> <PUBCHEM_SUBSTANCE_COMMENT>
InChI=1S/C11H9BrN2O2/c12-10-8-3-2-7(14-11(15)16)5-6(8)1-4-9(10)13/h1-5,14H,13H2,(H,15,16)
InChIKey=DDEGKQRRZBGOIZ-UHFFFAOYSA-N

> <PUBCHEM_SUBSTANCE_SYNONYM>
SCHEMBL16115403

> <PUBCHEM_XREF_EXT_ID>
SCHEMBL16115403

> <PUBCHEM_EXT_DATASOURCE_URL>
https://www.surechembl.org/

> <PUBCHEM_EXT_SUBSTANCE_URL>
https://www.surechembl.org/chemical/SCHEMBL16115403

> <PUBCHEM_CID_ASSOCIATIONS>
117605319  1

> <PUBCHEM_COORDINATE_TYPE>
1
3

$$$$
