310934592
  -OEChem-07211613022D

 24 26  0     1  0  0  0  0  0999 V2000
    0.2182   -3.2270    0.0000 F   0  0  0  0  0  0  0  0  0  0  0  0
    4.6403    1.0019    0.0000 F   0  0  0  0  0  0  0  0  0  0  0  0
   -0.7145   -0.4125    0.0000 O   0  0  0  0  0  0  0  0  0  0  0  0
    0.0000    0.8250    0.0000 O   0  0  0  0  0  0  0  0  0  0  0  0
    2.8119    2.1942    0.0000 N   0  0  0  0  0  0  0  0  0  0  0  0
    0.7145   -0.4125    0.0000 C   0  0  3  0  0  0  0  0  0  0  0  0
    1.0762    0.3290    0.0000 C   0  0  0  0  0  0  0  0  0  0  0  0
    0.1842   -1.0445    0.0000 C   0  0  0  0  0  0  0  0  0  0  0  0
    1.8931    0.2142    0.0000 C   0  0  0  0  0  0  0  0  0  0  0  0
    1.3079   -0.9856    0.0000 C   0  0  0  0  0  0  0  0  0  0  0  0
    0.0000    0.0000    0.0000 C   0  0  0  0  0  0  0  0  0  0  0  0
    2.0363   -0.5983    0.0000 C   0  0  0  0  0  0  0  0  0  0  0  0
    0.4664   -1.8197    0.0000 C   0  0  0  0  0  0  0  0  0  0  0  0
    2.4662    0.8076    0.0000 C   0  0  0  0  0  0  0  0  0  0  0  0
   -0.6283   -0.9013    0.0000 C   0  0  0  0  0  0  0  0  0  0  0  0
   -0.0639   -2.4517    0.0000 C   0  0  0  0  0  0  0  0  0  0  0  0
    0.6637    1.0435    0.0000 C   0  0  0  0  0  0  0  0  0  0  0  0
    3.2667    0.6081    0.0000 C   0  0  0  0  0  0  0  0  0  0  0  0
   -1.1586   -1.5332    0.0000 C   0  0  0  0  0  0  0  0  0  0  0  0
    2.2388    1.6007    0.0000 C   0  0  0  0  0  0  0  0  0  0  0  0
   -0.8764   -2.3085    0.0000 C   0  0  0  0  0  0  0  0  0  0  0  0
    1.2788   -1.9630    0.0000 C   0  0  0  0  0  0  0  0  0  0  0  0
    3.8398    1.2015    0.0000 C   0  0  0  0  0  0  0  0  0  0  0  0
    3.6124    1.9946    0.0000 C   0  0  0  0  0  0  0  0  0  0  0  0
  1 16  1  0  0  0  0
  2 23  1  0  0  0  0
  3 11  2  0  0  0  0
  4 11  1  0  0  0  0
  5 20  2  0  0  0  0
  5 24  1  0  0  0  0
  6  7  1  0  0  0  0
  6  8  1  0  0  0  0
  6 10  1  0  0  0  0
  6 11  1  6  0  0  0
  7  9  2  0  0  0  0
  7 17  1  0  0  0  0
  8 13  1  0  0  0  0
  8 15  2  0  0  0  0
  9 12  1  0  0  0  0
  9 14  1  0  0  0  0
 10 12  1  0  0  0  0
 13 16  2  0  0  0  0
 13 22  1  0  0  0  0
 14 18  2  0  0  0  0
 14 20  1  0  0  0  0
 15 19  1  0  0  0  0
 16 21  1  0  0  0  0
 18 23  1  0  0  0  0
 19 21  2  0  0  0  0
 23 24  2  0  0  0  0
M  END
> <PUBCHEM_COMPOUND_ID_TYPE>
0

> <PUBCHEM_TOTAL_CHARGE>
0

> <PUBCHEM_SUBSTANCE_ID>
310934592

> <PUBCHEM_SUBSTANCE_VERSION>
1

> <PUBCHEM_EXT_DATASOURCE_NAME>
4488

> <PUBCHEM_EXT_DATASOURCE_REGID>
SCHEMBL16112084

> <PUBCHEM_SUBSTANCE_COMMENT>
InChI=1S/C19H17F2NO2/c1-11-16(4-3-5-17(11)21)19(18(23)24)7-6-15(12(19)2)13-8-14(20)10-22-9-13/h3-5,8-10H,6-7H2,1-2H3,(H,23,24)/t19-/m0/s1
InChIKey=YNVNLPDABANXPF-IBGZPJMESA-N

> <PUBCHEM_SUBSTANCE_SYNONYM>
SCHEMBL16112084

> <PUBCHEM_XREF_EXT_ID>
SCHEMBL16112084

> <PUBCHEM_EXT_DATASOURCE_URL>
https://www.surechembl.org/

> <PUBCHEM_EXT_SUBSTANCE_URL>
https://www.surechembl.org/chemical/SCHEMBL16112084

> <PUBCHEM_CID_ASSOCIATIONS>
117602775  1

> <PUBCHEM_COORDINATE_TYPE>
1
3

> <PUBCHEM_BONDANNOTATIONS>
6  11  6

$$$$
