310931282
  -OEChem-07211613022D

 40 43  0     1  0  0  0  0  0999 V2000
    3.6964   -3.5264    0.0000 Br  0  0  0  0  0  0  0  0  0  0  0  0
    1.6145    0.0000    0.0000 F   0  0  0  0  0  0  0  0  0  0  0  0
    0.8073   -0.1275    0.0000 F   0  0  0  0  0  0  0  0  0  0  0  0
    0.5523   -3.1441    0.0000 F   0  0  0  0  0  0  0  0  0  0  0  0
    0.0000   -2.5067    0.0000 F   0  0  0  0  0  0  0  0  0  0  0  0
    4.0363   -0.8497    0.0000 F   0  0  0  0  0  0  0  0  0  0  0  0
    2.9316    0.0000    0.0000 F   0  0  0  0  0  0  0  0  0  0  0  0
    5.1834   -8.4974    0.0000 F   0  0  0  0  0  0  0  0  0  0  0  0
    6.7554   -6.1606    0.0000 F   0  0  0  0  0  0  0  0  0  0  0  0
    3.8663   -3.6964    0.0000 O   0  0  0  0  0  0  0  0  0  0  0  0
    7.3078   -4.7585    0.0000 O   0  0  0  0  0  0  0  0  0  0  0  0
    2.2943   -2.6767    0.0000 N   0  0  0  0  0  0  0  0  0  0  0  0
    2.9741   -2.2093    0.0000 N   0  0  0  0  0  0  0  0  0  0  0  0
    3.0166   -4.7585    0.0000 N   0  0  0  0  0  0  0  0  0  0  0  0
    5.1409   -5.1834    0.0000 N   0  0  0  0  0  0  0  0  0  0  0  0
    6.5855   -5.9907    0.0000 N   0  0  0  0  0  0  0  0  0  0  0  0
    1.9119   -1.4021    0.0000 C   0  0  0  0  0  0  0  0  0  0  0  0
    1.6145   -2.2093    0.0000 C   0  0  0  0  0  0  0  0  0  0  0  0
    1.3596   -0.7648    0.0000 C   0  0  0  0  0  0  0  0  0  0  0  0
    0.8073   -2.3368    0.0000 C   0  0  0  0  0  0  0  0  0  0  0  0
    2.7192   -1.4445    0.0000 C   0  0  0  0  0  0  0  0  0  0  0  0
    0.5523   -0.9347    0.0000 C   0  0  0  0  0  0  0  0  0  0  0  0
    0.2974   -1.7420    0.0000 C   0  0  0  0  0  0  0  0  0  0  0  0
    3.2290   -0.7648    0.0000 C   0  0  0  0  0  0  0  0  0  0  0  0
    2.2943   -3.5264    0.0000 C   0  0  0  0  0  0  0  0  0  0  0  0
    3.0166   -3.9513    0.0000 C   0  0  0  0  0  0  0  0  0  0  0  0
    3.7389   -5.1834    0.0000 C   0  0  3  0  0  0  0  0  0  0  0  0
    4.4187   -4.7585    0.0000 C   0  0  0  0  0  0  0  0  0  0  0  0
    4.4187   -3.9513    0.0000 C   0  0  0  0  0  0  0  0  0  0  0  0
    3.7389   -5.9907    0.0000 C   0  0  0  0  0  0  0  0  0  0  0  0
    5.8632   -4.7585    0.0000 C   0  0  0  0  0  0  0  0  0  0  0  0
    4.4611   -6.4155    0.0000 C   0  0  0  0  0  0  0  0  0  0  0  0
    5.1409   -3.5264    0.0000 C   0  0  0  0  0  0  0  0  0  0  0  0
    5.8632   -3.9513    0.0000 C   0  0  0  0  0  0  0  0  0  0  0  0
    6.5855   -5.1834    0.0000 C   0  0  0  0  0  0  0  0  0  0  0  0
    5.1834   -6.0331    0.0000 C   0  0  0  0  0  0  0  0  0  0  0  0
    4.4611   -7.2653    0.0000 C   0  0  0  0  0  0  0  0  0  0  0  0
    5.1834   -7.6477    0.0000 C   0  0  0  0  0  0  0  0  0  0  0  0
    5.9057   -6.4155    0.0000 C   0  0  0  0  0  0  0  0  0  0  0  0
    5.9057   -7.2653    0.0000 C   0  0  0  0  0  0  0  0  0  0  0  0
  1 29  1  0  0  0  0
  2 19  1  0  0  0  0
  3 19  1  0  0  0  0
  4 20  1  0  0  0  0
  5 20  1  0  0  0  0
  6 24  1  0  0  0  0
  7 24  1  0  0  0  0
  8 38  1  0  0  0  0
  9 39  1  0  0  0  0
 10 26  2  0  0  0  0
 11 35  2  0  0  0  0
 12 13  1  0  0  0  0
 12 18  1  0  0  0  0
 12 25  1  0  0  0  0
 13 21  2  0  0  0  0
 14 26  1  0  0  0  0
 27 14  1  6  0  0  0
 15 28  2  0  0  0  0
 15 31  1  0  0  0  0
 16 35  1  0  0  0  0
 17 18  2  0  0  0  0
 17 19  1  0  0  0  0
 17 21  1  0  0  0  0
 18 20  1  0  0  0  0
 19 22  1  0  0  0  0
 20 23  1  0  0  0  0
 21 24  1  0  0  0  0
 22 23  1  0  0  0  0
 25 26  1  0  0  0  0
 27 28  1  0  0  0  0
 27 30  1  0  0  0  0
 28 29  1  0  0  0  0
 29 33  2  0  0  0  0
 30 32  1  0  0  0  0
 31 34  2  0  0  0  0
 31 35  1  0  0  0  0
 32 36  2  0  0  0  0
 32 37  1  0  0  0  0
 33 34  1  0  0  0  0
 36 39  1  0  0  0  0
 37 38  2  0  0  0  0
 38 40  1  0  0  0  0
 39 40  2  0  0  0  0
M  END
> <PUBCHEM_COMPOUND_ID_TYPE>
0

> <PUBCHEM_TOTAL_CHARGE>
0

> <PUBCHEM_SUBSTANCE_ID>
310931282

> <PUBCHEM_SUBSTANCE_VERSION>
1

> <PUBCHEM_EXT_DATASOURCE_NAME>
4488

> <PUBCHEM_EXT_DATASOURCE_REGID>
SCHEMBL16108597

> <PUBCHEM_SUBSTANCE_COMMENT>
InChI=1S/C24H18BrF8N5O2/c25-13-1-2-14(22(34)40)36-18(13)15(7-10-5-11(26)8-12(27)6-10)35-16(39)9-38-20-17(19(37-38)21(28)29)23(30,31)3-4-24(20,32)33/h1-2,5-6,8,15,21H,3-4,7,9H2,(H2,34,40)(H,35,39)/t15-/m0/s1
InChIKey=CMTCAMMZMOEHIK-HNNXBMFYSA-N

> <PUBCHEM_SUBSTANCE_SYNONYM>
SCHEMBL16108597

> <PUBCHEM_XREF_EXT_ID>
SCHEMBL16108597

> <PUBCHEM_EXT_DATASOURCE_URL>
https://www.surechembl.org/

> <PUBCHEM_EXT_SUBSTANCE_URL>
https://www.surechembl.org/chemical/SCHEMBL16108597

> <PUBCHEM_CID_ASSOCIATIONS>
117600105  1

> <PUBCHEM_COORDINATE_TYPE>
1
3

> <PUBCHEM_BONDANNOTATIONS>
27  14  6

$$$$
