310945276
  -OEChem-07211613022D

 32 35  0     1  0  0  0  0  0999 V2000
    2.4532   -2.1211    0.0000 S   0  0  0  0  0  0  0  0  0  0  0  0
    4.1316   -2.1949    0.0000 O   0  0  0  0  0  0  0  0  0  0  0  0
   -0.4980    0.2029    0.0000 O   0  0  0  0  0  0  0  0  0  0  0  0
   -3.3384    1.9551    0.0000 O   0  0  0  0  0  0  0  0  0  0  0  0
   -1.8999    1.8077    0.0000 O   0  0  0  0  0  0  0  0  0  0  0  0
    2.6745    0.0738    0.0000 N   0  0  0  0  0  0  0  0  0  0  0  0
    4.3346   -0.8116    0.0000 N   0  0  0  0  0  0  0  0  0  0  0  0
   -1.2173   -1.0144    0.0000 N   0  0  0  0  0  0  0  0  0  0  0  0
   -2.6561    0.6455    0.0000 N   0  0  0  0  0  0  0  0  0  0  0  0
    1.6785   -1.0144    0.0000 C   0  0  0  0  0  0  0  0  0  0  0  0
    2.4532   -0.7562    0.0000 C   0  0  0  0  0  0  0  0  0  0  0  0
    2.9512   -1.4203    0.0000 C   0  0  0  0  0  0  0  0  0  0  0  0
    1.6601   -1.8261    0.0000 C   0  0  0  0  0  0  0  0  0  0  0  0
    0.9591   -0.6272    0.0000 C   0  0  0  0  0  0  0  0  0  0  0  0
    3.7812   -1.4203    0.0000 C   0  0  0  0  0  0  0  0  0  0  0  0
    0.2398   -1.0144    0.0000 C   0  0  0  0  0  0  0  0  0  0  0  0
    0.9591   -2.2502    0.0000 C   0  0  0  0  0  0  0  0  0  0  0  0
    0.2583   -1.8630    0.0000 C   0  0  0  0  0  0  0  0  0  0  0  0
   -0.4980   -0.6272    0.0000 C   0  0  0  0  0  0  0  0  0  0  0  0
    3.4307    0.3874    0.0000 C   0  0  0  0  0  0  0  0  0  0  0  0
    4.2055    0.0185    0.0000 C   0  0  3  0  0  0  0  0  0  0  0  0
   -1.9367   -0.6087    0.0000 C   0  0  3  0  0  0  0  0  0  0  0  0
   -1.9183    0.2213    0.0000 C   0  0  0  0  0  0  0  0  0  0  0  0
   -2.6376    1.4756    0.0000 C   0  0  0  0  0  0  0  0  0  0  0  0
   -2.6376   -1.0144    0.0000 C   0  0  0  0  0  0  0  0  0  0  0  0
   -3.3569    0.2213    0.0000 C   0  0  0  0  0  0  0  0  0  0  0  0
    4.8326    0.4796    0.0000 C   0  0  0  0  0  0  0  0  0  0  0  0
   -3.3754   -0.6087    0.0000 C   0  0  0  0  0  0  0  0  0  0  0  0
   -4.0947    1.6047    0.0000 C   0  0  0  0  0  0  0  0  0  0  0  0
   -4.4637    2.2502    0.0000 C   0  0  0  0  0  0  0  0  0  0  0  0
   -3.7627    0.9222    0.0000 C   0  0  0  0  0  0  0  0  0  0  0  0
   -4.8326    1.2358    0.0000 C   0  0  0  0  0  0  0  0  0  0  0  0
  1 12  1  0  0  0  0
  1 13  1  0  0  0  0
  2 15  2  0  0  0  0
  3 19  2  0  0  0  0
  4 24  1  0  0  0  0
  4 29  1  0  0  0  0
  5 24  2  0  0  0  0
  6 11  1  0  0  0  0
  6 20  1  0  0  0  0
  7 15  1  0  0  0  0
  7 21  1  0  0  0  0
  8 19  1  0  0  0  0
  8 22  1  0  0  0  0
  9 23  1  0  0  0  0
  9 24  1  0  0  0  0
  9 26  1  0  0  0  0
 10 11  1  0  0  0  0
 10 13  1  0  0  0  0
 10 14  2  0  0  0  0
 11 12  2  0  0  0  0
 12 15  1  0  0  0  0
 13 17  2  0  0  0  0
 14 16  1  0  0  0  0
 16 18  2  0  0  0  0
 16 19  1  0  0  0  0
 17 18  1  0  0  0  0
 20 21  1  0  0  0  0
 21 27  1  1  0  0  0
 22 23  1  0  0  0  0
 22 25  1  0  0  0  0
 25 28  1  0  0  0  0
 26 28  1  0  0  0  0
 29 30  1  0  0  0  0
 29 31  1  0  0  0  0
 29 32  1  0  0  0  0
M  END
> <PUBCHEM_COMPOUND_ID_TYPE>
0

> <PUBCHEM_TOTAL_CHARGE>
0

> <PUBCHEM_SUBSTANCE_ID>
310945276

> <PUBCHEM_SUBSTANCE_VERSION>
1

> <PUBCHEM_EXT_DATASOURCE_NAME>
4488

> <PUBCHEM_EXT_DATASOURCE_REGID>
SCHEMBL16123370

> <PUBCHEM_SUBSTANCE_COMMENT>
InChI=1S/C23H30N4O4S/c1-13-11-24-18-16-10-14(7-8-17(16)32-19(18)21(29)25-13)20(28)26-15-6-5-9-27(12-15)22(30)31-23(2,3)4/h7-8,10,13,15,24H,5-6,9,11-12H2,1-4H3,(H,25,29)(H,26,28)/t13-,15?/m1/s1
InChIKey=YLQREKDWVOTFHQ-AFYYWNPRSA-N

> <PUBCHEM_SUBSTANCE_SYNONYM>
SCHEMBL16123370

> <PUBCHEM_XREF_EXT_ID>
SCHEMBL16123370

> <PUBCHEM_EXT_DATASOURCE_URL>
https://www.surechembl.org/

> <PUBCHEM_EXT_SUBSTANCE_URL>
https://www.surechembl.org/chemical/SCHEMBL16123370

> <PUBCHEM_CID_ASSOCIATIONS>
117611338  1

> <PUBCHEM_COORDINATE_TYPE>
1
3

> <PUBCHEM_BONDANNOTATIONS>
21  27  5

$$$$
