310946712
  -OEChem-07211613022D

 17 18  0     1  0  0  0  0  0999 V2000
   -3.2618   -0.1312    0.0000 Br  0  0  0  0  0  0  0  0  0  0  0  0
    0.5998    1.0685    0.0000 O   0  0  0  0  0  0  0  0  0  0  0  0
    2.6994   -1.3310    0.0000 O   0  0  0  0  0  0  0  0  0  0  0  0
    0.8061   -0.3561    0.0000 N   0  0  0  0  0  0  0  0  0  0  0  0
   -0.5248    0.2062    0.0000 C   0  0  0  0  0  0  0  0  0  0  0  0
    0.2812    0.2812    0.0000 C   0  0  0  0  0  0  0  0  0  0  0  0
   -1.0498    0.8436    0.0000 C   0  0  0  0  0  0  0  0  0  0  0  0
    1.6309   -0.3561    0.0000 C   0  0  0  0  0  0  0  0  0  0  0  0
    1.8933   -1.0873    0.0000 C   0  0  3  0  0  0  0  0  0  0  0  0
    0.5811   -1.1435    0.0000 C   0  0  0  0  0  0  0  0  0  0  0  0
   -0.8249   -0.5623    0.0000 C   0  0  0  0  0  0  0  0  0  0  0  0
   -1.8371    0.7123    0.0000 C   0  0  0  0  0  0  0  0  0  0  0  0
    1.2747   -1.6122    0.0000 C   0  0  0  0  0  0  0  0  0  0  0  0
   -2.1370   -0.0562    0.0000 C   0  0  0  0  0  0  0  0  0  0  0  0
   -1.6496   -0.6748    0.0000 C   0  0  0  0  0  0  0  0  0  0  0  0
   -0.7123    1.6122    0.0000 C   0  0  0  0  0  0  0  0  0  0  0  0
    3.2618   -0.7310    0.0000 C   0  0  0  0  0  0  0  0  0  0  0  0
  1 14  1  0  0  0  0
  2  6  2  0  0  0  0
  9  3  1  6  0  0  0
  3 17  1  0  0  0  0
  4  6  1  0  0  0  0
  4  8  1  0  0  0  0
  4 10  1  0  0  0  0
  5  6  1  0  0  0  0
  5  7  1  0  0  0  0
  5 11  2  0  0  0  0
  7 12  2  0  0  0  0
  7 16  1  0  0  0  0
  8  9  1  0  0  0  0
  9 13  1  0  0  0  0
 10 13  1  0  0  0  0
 11 15  1  0  0  0  0
 12 14  1  0  0  0  0
 14 15  2  0  0  0  0
M  END
> <PUBCHEM_COMPOUND_ID_TYPE>
0

> <PUBCHEM_TOTAL_CHARGE>
0

> <PUBCHEM_SUBSTANCE_ID>
310946712

> <PUBCHEM_SUBSTANCE_VERSION>
1

> <PUBCHEM_EXT_DATASOURCE_NAME>
4488

> <PUBCHEM_EXT_DATASOURCE_REGID>
SCHEMBL16124836

> <PUBCHEM_SUBSTANCE_COMMENT>
InChI=1S/C13H16BrNO2/c1-9-7-10(14)3-4-12(9)13(16)15-6-5-11(8-15)17-2/h3-4,7,11H,5-6,8H2,1-2H3/t11-/m1/s1
InChIKey=JNBNJLJNZGFTKW-LLVKDONJSA-N

> <PUBCHEM_SUBSTANCE_SYNONYM>
SCHEMBL16124836

> <PUBCHEM_XREF_EXT_ID>
SCHEMBL16124836

> <PUBCHEM_EXT_DATASOURCE_URL>
https://www.surechembl.org/

> <PUBCHEM_EXT_SUBSTANCE_URL>
https://www.surechembl.org/chemical/SCHEMBL16124836

> <PUBCHEM_CID_ASSOCIATIONS>
117612603  1

> <PUBCHEM_COORDINATE_TYPE>
1
3

> <PUBCHEM_BONDANNOTATIONS>
9  3  6

$$$$
