310948169
  -OEChem-07211613022D

 33 37  0     0  0  0  0  0  0999 V2000
    2.3250   -0.9964    0.0000 Br  0  0  0  0  0  0  0  0  0  0  0  0
    4.5608    1.0126    0.0000 F   0  0  0  0  0  0  0  0  0  0  0  0
    4.2853    0.2512    0.0000 F   0  0  0  0  0  0  0  0  0  0  0  0
   -0.9316    0.6400    0.0000 O   0  0  0  0  0  0  0  0  0  0  0  0
    3.0540    0.4131    0.0000 O   0  0  0  0  0  0  0  0  0  0  0  0
    3.5077    1.6769    0.0000 O   0  0  0  0  0  0  0  0  0  0  0  0
   -0.3484    1.8389    0.0000 N   0  0  0  0  0  0  0  0  0  0  0  0
   -1.4987   -1.5310    0.0000 N   0  0  0  0  0  0  0  0  0  0  0  0
   -2.2763   -1.2556    0.0000 N   0  0  0  0  0  0  0  0  0  0  0  0
   -4.5608   -0.4294    0.0000 N   0  0  0  0  0  0  0  0  0  0  0  0
   -0.1215    0.5428    0.0000 C   0  0  0  0  0  0  0  0  0  0  0  0
    0.2512    1.2881    0.0000 C   0  0  0  0  0  0  0  0  0  0  0  0
    0.2673   -0.1863    0.0000 C   0  0  0  0  0  0  0  0  0  0  0  0
    1.0774    1.4176    0.0000 C   0  0  0  0  0  0  0  0  0  0  0  0
   -0.1701   -0.8992    0.0000 C   0  0  0  0  0  0  0  0  0  0  0  0
    2.4059    0.9478    0.0000 C   0  0  0  0  0  0  0  0  0  0  0  0
    2.6814    1.7255    0.0000 C   0  0  0  0  0  0  0  0  0  0  0  0
   -0.9964   -0.8506    0.0000 C   0  0  0  0  0  0  0  0  0  0  0  0
    3.7507    0.8992    0.0000 C   0  0  0  0  0  0  0  0  0  0  0  0
    1.5959    0.8019    0.0000 C   0  0  0  0  0  0  0  0  0  0  0  0
   -1.0612    1.4663    0.0000 C   0  0  0  0  0  0  0  0  0  0  0  0
    1.3528    2.1953    0.0000 C   0  0  0  0  0  0  0  0  0  0  0  0
    1.1098   -0.2349    0.0000 C   0  0  0  0  0  0  0  0  0  0  0  0
    2.1467    2.3250    0.0000 C   0  0  0  0  0  0  0  0  0  0  0  0
    0.2349   -1.6121    0.0000 C   0  0  0  0  0  0  0  0  0  0  0  0
   -1.4500   -0.1863    0.0000 C   0  0  0  0  0  0  0  0  0  0  0  0
    1.4825   -0.9478    0.0000 C   0  0  0  0  0  0  0  0  0  0  0  0
   -2.2440   -0.4131    0.0000 C   0  0  0  0  0  0  0  0  0  0  0  0
    1.0450   -1.6444    0.0000 C   0  0  0  0  0  0  0  0  0  0  0  0
   -1.8227    1.8065    0.0000 C   0  0  0  0  0  0  0  0  0  0  0  0
   -1.2718   -2.3250    0.0000 C   0  0  0  0  0  0  0  0  0  0  0  0
   -3.0054   -0.0081    0.0000 C   0  0  0  0  0  0  0  0  0  0  0  0
   -3.7507   -0.2025    0.0000 C   0  0  0  0  0  0  0  0  0  0  0  0
  1 27  1  0  0  0  0
  2 19  1  0  0  0  0
  3 19  1  0  0  0  0
  4 11  1  0  0  0  0
  4 21  1  0  0  0  0
  5 16  1  0  0  0  0
  5 19  1  0  0  0  0
  6 17  1  0  0  0  0
  6 19  1  0  0  0  0
  7 12  1  0  0  0  0
  7 21  2  0  0  0  0
  8  9  1  0  0  0  0
  8 18  1  0  0  0  0
  8 31  1  0  0  0  0
  9 28  2  0  0  0  0
 10 33  3  0  0  0  0
 11 12  2  0  0  0  0
 11 13  1  0  0  0  0
 12 14  1  0  0  0  0
 13 15  1  0  0  0  0
 13 23  2  0  0  0  0
 14 20  2  0  0  0  0
 14 22  1  0  0  0  0
 15 18  1  0  0  0  0
 15 25  2  0  0  0  0
 16 17  2  0  0  0  0
 16 20  1  0  0  0  0
 17 24  1  0  0  0  0
 18 26  2  0  0  0  0
 21 30  1  0  0  0  0
 22 24  2  0  0  0  0
 23 27  1  0  0  0  0
 25 29  1  0  0  0  0
 26 28  1  0  0  0  0
 27 29  2  0  0  0  0
 28 32  1  0  0  0  0
 32 33  1  0  0  0  0
M  END
> <PUBCHEM_COMPOUND_ID_TYPE>
0

> <PUBCHEM_TOTAL_CHARGE>
0

> <PUBCHEM_SUBSTANCE_ID>
310948169

> <PUBCHEM_SUBSTANCE_VERSION>
1

> <PUBCHEM_EXT_DATASOURCE_NAME>
4488

> <PUBCHEM_EXT_DATASOURCE_REGID>
SCHEMBL16126346

> <PUBCHEM_SUBSTANCE_COMMENT>
InChI=1S/C23H15BrF2N4O3/c1-12-28-21(13-3-6-19-20(9-13)33-23(25,26)32-19)22(31-12)17-10-14(24)4-5-16(17)18-11-15(7-8-27)29-30(18)2/h3-6,9-11H,7H2,1-2H3
InChIKey=NYWMVWBIOGKRJX-UHFFFAOYSA-N

> <PUBCHEM_SUBSTANCE_SYNONYM>
SCHEMBL16126346

> <PUBCHEM_XREF_EXT_ID>
SCHEMBL16126346

> <PUBCHEM_EXT_DATASOURCE_URL>
https://www.surechembl.org/

> <PUBCHEM_EXT_SUBSTANCE_URL>
https://www.surechembl.org/chemical/SCHEMBL16126346

> <PUBCHEM_CID_ASSOCIATIONS>
117613765  1

> <PUBCHEM_COORDINATE_TYPE>
1
3

$$$$
