310934808
  -OEChem-07211613022D

 26 28  0     0  0  0  0  0  0999 V2000
    5.6615   -2.8449    0.0000 O   0  0  0  0  0  0  0  0  0  0  0  0
    4.2390   -2.8449    0.0000 O   0  0  0  0  0  0  0  0  0  0  0  0
    2.8734   -2.0484    0.0000 O   0  0  0  0  0  0  0  0  0  0  0  0
    3.5277   -3.2717    0.0000 N   0  0  0  0  0  0  0  0  0  0  0  0
    4.9502    0.0000    0.0000 N   0  0  0  0  0  0  0  0  0  0  0  0
    4.9502   -1.6216    0.0000 C   0  0  0  0  0  0  0  0  0  0  0  0
    4.9502   -2.4467    0.0000 C   0  0  0  0  0  0  0  0  0  0  0  0
    4.2390   -2.0484    0.0000 C   0  0  0  0  0  0  0  0  0  0  0  0
    5.6615   -1.2233    0.0000 C   0  0  0  0  0  0  0  0  0  0  0  0
    4.2390   -1.2233    0.0000 C   0  0  0  0  0  0  0  0  0  0  0  0
    4.4097   -3.0157    0.0000 C   0  0  0  0  0  0  0  0  0  0  0  0
    2.8449   -2.8449    0.0000 C   0  0  0  0  0  0  0  0  0  0  0  0
    2.1337   -4.0683    0.0000 C   0  0  0  0  0  0  0  0  0  0  0  0
    2.1052   -3.2432    0.0000 C   0  0  0  0  0  0  0  0  0  0  0  0
    3.5562   -4.0967    0.0000 C   0  0  0  0  0  0  0  0  0  0  0  0
    1.4225   -4.4666    0.0000 C   0  0  0  0  0  0  0  0  0  0  0  0
    2.8165   -4.4666    0.0000 C   0  0  0  0  0  0  0  0  0  0  0  0
    5.6615   -0.3983    0.0000 C   0  0  0  0  0  0  0  0  0  0  0  0
    4.2390   -0.3983    0.0000 C   0  0  0  0  0  0  0  0  0  0  0  0
    1.4225   -5.2916    0.0000 C   0  0  0  0  0  0  0  0  0  0  0  0
    0.7112   -4.0683    0.0000 C   0  0  0  0  0  0  0  0  0  0  0  0
    6.3727   -2.4467    0.0000 C   0  0  0  0  0  0  0  0  0  0  0  0
    0.7112   -5.6899    0.0000 C   0  0  0  0  0  0  0  0  0  0  0  0
    0.0000   -4.4666    0.0000 C   0  0  0  0  0  0  0  0  0  0  0  0
    0.0000   -5.2916    0.0000 C   0  0  0  0  0  0  0  0  0  0  0  0
    6.3727   -1.6216    0.0000 C   0  0  0  0  0  0  0  0  0  0  0  0
  1  7  1  0  0  0  0
  1 22  1  0  0  0  0
  2  7  2  0  0  0  0
  3 12  2  0  0  0  0
  4 11  1  0  0  0  0
  4 12  1  0  0  0  0
  4 15  1  0  0  0  0
  5 18  1  0  0  0  0
  5 19  1  0  0  0  0
  6  7  1  0  0  0  0
  6  8  1  0  0  0  0
  6  9  1  0  0  0  0
  6 10  1  0  0  0  0
  8 11  1  0  0  0  0
  9 18  1  0  0  0  0
 10 19  1  0  0  0  0
 12 14  1  0  0  0  0
 13 14  2  0  0  0  0
 13 16  1  0  0  0  0
 13 17  1  0  0  0  0
 15 17  2  0  0  0  0
 16 20  2  0  0  0  0
 16 21  1  0  0  0  0
 20 23  1  0  0  0  0
 21 24  2  0  0  0  0
 22 26  1  0  0  0  0
 23 25  2  0  0  0  0
 24 25  1  0  0  0  0
M  END
> <PUBCHEM_COMPOUND_ID_TYPE>
0

> <PUBCHEM_TOTAL_CHARGE>
0

> <PUBCHEM_SUBSTANCE_ID>
310934808

> <PUBCHEM_SUBSTANCE_VERSION>
1

> <PUBCHEM_EXT_DATASOURCE_NAME>
4488

> <PUBCHEM_EXT_DATASOURCE_REGID>
SCHEMBL16112313

> <PUBCHEM_SUBSTANCE_COMMENT>
InChI=1S/C21H26N2O3/c1-2-26-20(25)21(9-12-22-13-10-21)11-15-23-14-8-18(16-19(23)24)17-6-4-3-5-7-17/h3-8,14,16,22H,2,9-13,15H2,1H3
InChIKey=QIWNOCCZDGTCAZ-UHFFFAOYSA-N

> <PUBCHEM_SUBSTANCE_SYNONYM>
SCHEMBL16112313

> <PUBCHEM_XREF_EXT_ID>
SCHEMBL16112313

> <PUBCHEM_EXT_DATASOURCE_URL>
https://www.surechembl.org/

> <PUBCHEM_EXT_SUBSTANCE_URL>
https://www.surechembl.org/chemical/SCHEMBL16112313

> <PUBCHEM_CID_ASSOCIATIONS>
117602954  1

> <PUBCHEM_COORDINATE_TYPE>
1
3

$$$$
