310944553
  -OEChem-07211613022D

 31 33  0     0  0  0  0  0  0999 V2000
   -3.4125   -0.8594    0.0000 Cl  0  0  0  0  0  0  0  0  0  0  0  0
   -2.5282    2.0549    0.0000 Cl  0  0  0  0  0  0  0  0  0  0  0  0
   -4.1722   -0.3986    0.0000 F   0  0  0  0  0  0  0  0  0  0  0  0
   -0.3736   -0.8469    0.0000 O   0  0  0  0  0  0  0  0  0  0  0  0
    1.0586    1.6440    0.0000 O   0  0  0  0  0  0  0  0  0  0  0  0
    4.6704   -0.4359    0.0000 O   0  0  0  0  0  0  0  0  0  0  0  0
   -0.3611    0.8095    0.0000 N   0  0  0  0  0  0  0  0  0  0  0  0
    1.8059    0.3986    0.0000 N   0  0  0  0  0  0  0  0  0  0  0  0
    3.2506   -0.4359    0.0000 N   0  0  0  0  0  0  0  0  0  0  0  0
   -2.5158    0.3986    0.0000 C   0  0  0  0  0  0  0  0  0  0  0  0
   -3.2506    0.8220    0.0000 C   0  0  0  0  0  0  0  0  0  0  0  0
   -2.5282   -0.4235    0.0000 C   0  0  0  0  0  0  0  0  0  0  0  0
   -1.0835    0.4110    0.0000 C   0  0  0  0  0  0  0  0  0  0  0  0
   -1.8184    0.7971    0.0000 C   0  0  0  0  0  0  0  0  0  0  0  0
   -1.0960   -0.4235    0.0000 C   0  0  0  0  0  0  0  0  0  0  0  0
   -3.2381    1.6440    0.0000 C   0  0  0  0  0  0  0  0  0  0  0  0
   -3.9604    0.4110    0.0000 C   0  0  0  0  0  0  0  0  0  0  0  0
   -1.7935   -0.8469    0.0000 C   0  0  0  0  0  0  0  0  0  0  0  0
   -3.9730    2.0425    0.0000 C   0  0  0  0  0  0  0  0  0  0  0  0
   -4.6704    0.8220    0.0000 C   0  0  0  0  0  0  0  0  0  0  0  0
    1.0586    0.7971    0.0000 C   0  0  0  0  0  0  0  0  0  0  0  0
    0.3611    0.3986    0.0000 C   0  0  0  0  0  0  0  0  0  0  0  0
   -4.6704    1.6440    0.0000 C   0  0  0  0  0  0  0  0  0  0  0  0
    2.5158    0.8095    0.0000 C   0  0  0  0  0  0  0  0  0  0  0  0
    1.8184   -0.4359    0.0000 C   0  0  0  0  0  0  0  0  0  0  0  0
    3.2381    0.3986    0.0000 C   0  0  0  0  0  0  0  0  0  0  0  0
    2.5282   -0.8469    0.0000 C   0  0  0  0  0  0  0  0  0  0  0  0
    3.9480   -0.8469    0.0000 C   0  0  0  0  0  0  0  0  0  0  0  0
    0.3487   -0.4359    0.0000 C   0  0  0  0  0  0  0  0  0  0  0  0
    3.9604   -1.6813    0.0000 C   0  0  0  0  0  0  0  0  0  0  0  0
    3.2132   -2.0549    0.0000 C   0  0  0  0  0  0  0  0  0  0  0  0
  1 12  1  0  0  0  0
  2 16  1  0  0  0  0
  3 17  1  0  0  0  0
  4 15  1  0  0  0  0
  4 29  1  0  0  0  0
  5 21  2  0  0  0  0
  6 28  2  0  0  0  0
  7 13  1  0  0  0  0
  7 22  1  0  0  0  0
  8 21  1  0  0  0  0
  8 24  1  0  0  0  0
  8 25  1  0  0  0  0
  9 26  1  0  0  0  0
  9 27  1  0  0  0  0
  9 28  1  0  0  0  0
 10 11  1  0  0  0  0
 10 12  1  0  0  0  0
 10 14  2  0  0  0  0
 11 16  1  0  0  0  0
 11 17  2  0  0  0  0
 12 18  2  0  0  0  0
 13 14  1  0  0  0  0
 13 15  2  0  0  0  0
 15 18  1  0  0  0  0
 16 19  2  0  0  0  0
 17 20  1  0  0  0  0
 19 23  1  0  0  0  0
 20 23  2  0  0  0  0
 21 22  1  0  0  0  0
 24 26  1  0  0  0  0
 25 27  1  0  0  0  0
 28 30  1  0  0  0  0
 30 31  2  0  0  0  0
M  END
> <PUBCHEM_COMPOUND_ID_TYPE>
0

> <PUBCHEM_TOTAL_CHARGE>
0

> <PUBCHEM_SUBSTANCE_ID>
310944553

> <PUBCHEM_SUBSTANCE_VERSION>
1

> <PUBCHEM_EXT_DATASOURCE_NAME>
4488

> <PUBCHEM_EXT_DATASOURCE_REGID>
SCHEMBL16122630

> <PUBCHEM_SUBSTANCE_COMMENT>
InChI=1S/C22H22Cl2FN3O3/c1-3-20(29)27-7-9-28(10-8-27)21(30)13-26-18-11-14(16(24)12-19(18)31-2)22-15(23)5-4-6-17(22)25/h3-6,11-12,26H,1,7-10,13H2,2H3
InChIKey=OZGQSOXQXNEDGD-UHFFFAOYSA-N

> <PUBCHEM_SUBSTANCE_SYNONYM>
SCHEMBL16122630

> <PUBCHEM_XREF_EXT_ID>
SCHEMBL16122630

> <PUBCHEM_EXT_DATASOURCE_URL>
https://www.surechembl.org/

> <PUBCHEM_EXT_SUBSTANCE_URL>
https://www.surechembl.org/chemical/SCHEMBL16122630

> <PUBCHEM_CID_ASSOCIATIONS>
117610788  1

> <PUBCHEM_COORDINATE_TYPE>
1
3

$$$$
