310930480
  -OEChem-07211613022D

 10  9  0     0  0  0  0  0  0999 V2000
    0.0000   -1.2441    0.0000 S   0  0  0  0  0  0  0  0  0  0  0  0
    0.7177    0.0000    0.0000 S   0  0  0  0  0  0  0  0  0  0  0  0
    0.7177   -1.6627    0.0000 S   0  0  0  0  0  0  0  0  0  0  0  0
    1.4355   -2.0814    0.0000 O   0  0  0  0  0  0  0  0  0  0  0  0
    1.4355   -0.4187    0.0000 O   0  0  0  0  0  0  0  0  0  0  0  0
    1.4355   -1.2441    0.0000 C   0  0  0  0  0  0  0  0  0  0  0  0
    0.7177   -0.8373    0.0000 C   0  0  0  0  0  0  0  0  0  0  0  0
    2.1532   -0.8373    0.0000 C   0  0  0  0  0  0  0  0  0  0  0  0
    2.8589   -1.2441    0.0000 C   0  0  0  0  0  0  0  0  0  0  0  0
    3.5886   -0.8373    0.0000 C   0  0  0  0  0  0  0  0  0  0  0  0
  1  7  1  0  0  0  0
  2  7  1  0  0  0  0
  3  7  1  0  0  0  0
  4  6  1  0  0  0  0
  5  6  1  0  0  0  0
  6  7  1  0  0  0  0
  6  8  1  0  0  0  0
  8  9  1  0  0  0  0
  9 10  1  0  0  0  0
M  END
> <PUBCHEM_COMPOUND_ID_TYPE>
0

> <PUBCHEM_TOTAL_CHARGE>
0

> <PUBCHEM_SUBSTANCE_ID>
310930480

> <PUBCHEM_SUBSTANCE_VERSION>
1

> <PUBCHEM_EXT_DATASOURCE_NAME>
4488

> <PUBCHEM_EXT_DATASOURCE_REGID>
SCHEMBL16107770

> <PUBCHEM_SUBSTANCE_COMMENT>
InChI=1S/C5H12O2S3/c1-2-3-4(6,7)5(8,9)10/h6-10H,2-3H2,1H3
InChIKey=SBXFWAWZGBRXGG-UHFFFAOYSA-N

> <PUBCHEM_SUBSTANCE_SYNONYM>
SCHEMBL16107770

> <PUBCHEM_XREF_EXT_ID>
SCHEMBL16107770

> <PUBCHEM_EXT_DATASOURCE_URL>
https://www.surechembl.org/

> <PUBCHEM_EXT_SUBSTANCE_URL>
https://www.surechembl.org/chemical/SCHEMBL16107770

> <PUBCHEM_CID_ASSOCIATIONS>
117599596  1

> <PUBCHEM_COORDINATE_TYPE>
1
3

$$$$
