310934016
  -OEChem-07211613022D

 22 24  0     0  0  0  0  0  0999 V2000
    5.8323   -3.1510    0.0000 Cl  0  0  0  0  0  0  0  0  0  0  0  0
    1.4874    0.0000    0.0000 O   0  0  0  0  0  0  0  0  0  0  0  0
    0.0000   -0.6850    0.0000 O   0  0  0  0  0  0  0  0  0  0  0  0
    2.0746   -2.1333    0.0000 N   0  0  0  0  0  0  0  0  0  0  0  0
    2.8770   -2.3877    0.0000 N   0  0  0  0  0  0  0  0  0  0  0  0
    0.6654   -1.1743    0.0000 N   0  0  0  0  0  0  0  0  0  0  0  0
    5.4213   -0.9982    0.0000 N   0  0  0  0  0  0  0  0  0  0  0  0
    2.0746   -1.3113    0.0000 C   0  0  0  0  0  0  0  0  0  0  0  0
    3.3467   -1.7223    0.0000 C   0  0  0  0  0  0  0  0  0  0  0  0
    2.8770   -1.0568    0.0000 C   0  0  0  0  0  0  0  0  0  0  0  0
    4.1687   -1.7223    0.0000 C   0  0  0  0  0  0  0  0  0  0  0  0
    1.4091   -2.6030    0.0000 C   0  0  0  0  0  0  0  0  0  0  0  0
    1.4091   -0.8416    0.0000 C   0  0  0  0  0  0  0  0  0  0  0  0
    4.6189   -2.4269    0.0000 C   0  0  0  0  0  0  0  0  0  0  0  0
    4.6189   -0.9982    0.0000 C   0  0  0  0  0  0  0  0  0  0  0  0
    1.4874   -3.4445    0.0000 C   0  0  0  0  0  0  0  0  0  0  0  0
    0.6654   -2.2703    0.0000 C   0  0  0  0  0  0  0  0  0  0  0  0
    5.4213   -2.4269    0.0000 C   0  0  0  0  0  0  0  0  0  0  0  0
    5.8714   -1.7223    0.0000 C   0  0  0  0  0  0  0  0  0  0  0  0
    0.8220   -3.9143    0.0000 C   0  0  0  0  0  0  0  0  0  0  0  0
    0.0000   -2.7596    0.0000 C   0  0  0  0  0  0  0  0  0  0  0  0
    0.0587   -3.5816    0.0000 C   0  0  0  0  0  0  0  0  0  0  0  0
  1 18  1  0  0  0  0
  2 13  2  0  0  0  0
  3  6  1  0  0  0  0
  4  5  1  0  0  0  0
  4  8  1  0  0  0  0
  4 12  1  0  0  0  0
  5  9  2  0  0  0  0
  6 13  1  0  0  0  0
  7 15  1  0  0  0  0
  7 19  2  0  0  0  0
  8 10  2  0  0  0  0
  8 13  1  0  0  0  0
  9 10  1  0  0  0  0
  9 11  1  0  0  0  0
 11 14  1  0  0  0  0
 11 15  2  0  0  0  0
 12 16  2  0  0  0  0
 12 17  1  0  0  0  0
 14 18  2  0  0  0  0
 16 20  1  0  0  0  0
 17 21  2  0  0  0  0
 18 19  1  0  0  0  0
 20 22  2  0  0  0  0
 21 22  1  0  0  0  0
M  END
> <PUBCHEM_COMPOUND_ID_TYPE>
0

> <PUBCHEM_TOTAL_CHARGE>
0

> <PUBCHEM_SUBSTANCE_ID>
310934016

> <PUBCHEM_SUBSTANCE_VERSION>
1

> <PUBCHEM_EXT_DATASOURCE_NAME>
4488

> <PUBCHEM_EXT_DATASOURCE_REGID>
SCHEMBL16111460

> <PUBCHEM_SUBSTANCE_COMMENT>
InChI=1S/C15H11ClN4O2/c16-11-6-10(8-17-9-11)13-7-14(15(21)19-22)20(18-13)12-4-2-1-3-5-12/h1-9,22H,(H,19,21)
InChIKey=OYXSYQNIPUQNSK-UHFFFAOYSA-N

> <PUBCHEM_SUBSTANCE_SYNONYM>
SCHEMBL16111460

> <PUBCHEM_XREF_EXT_ID>
SCHEMBL16111460

> <PUBCHEM_EXT_DATASOURCE_URL>
https://www.surechembl.org/

> <PUBCHEM_EXT_SUBSTANCE_URL>
https://www.surechembl.org/chemical/SCHEMBL16111460

> <PUBCHEM_CID_ASSOCIATIONS>
86291847  1

> <PUBCHEM_COORDINATE_TYPE>
1
3

$$$$
