310944798
  -OEChem-07211613022D

 16 17  0     0  0  0  0  0  0999 V2000
   -1.0304    1.4608    0.0000 O   0  0  0  0  0  0  0  0  0  0  0  0
    0.3130    0.9391    0.0000 N   0  0  0  0  0  0  0  0  0  0  0  0
   -2.7783   -0.9913    0.0000 N   0  0  0  0  0  0  0  0  0  0  0  0
    1.4739    1.1347    0.0000 C   0  0  0  0  0  0  0  0  0  0  0  0
    0.9913    0.4566    0.0000 C   0  0  0  0  0  0  0  0  0  0  0  0
    0.7957    1.6044    0.0000 C   0  0  0  0  0  0  0  0  0  0  0  0
    1.9826    1.7609    0.0000 C   0  0  0  0  0  0  0  0  0  0  0  0
    2.1392    0.6261    0.0000 C   0  0  0  0  0  0  0  0  0  0  0  0
    2.6347    1.2783    0.0000 C   0  0  0  0  0  0  0  0  0  0  0  0
   -0.5087    0.8087    0.0000 C   0  0  0  0  0  0  0  0  0  0  0  0
   -0.8347    0.0391    0.0000 C   0  0  0  0  0  0  0  0  0  0  0  0
    3.3000    1.3435    0.0000 C   0  0  0  0  0  0  0  0  0  0  0  0
   -1.6435   -0.0783    0.0000 C   0  0  0  0  0  0  0  0  0  0  0  0
   -1.9565   -0.8609    0.0000 C   0  0  0  0  0  0  0  0  0  0  0  0
   -3.0522   -1.7609    0.0000 C   0  0  0  0  0  0  0  0  0  0  0  0
   -3.3000   -0.3522    0.0000 C   0  0  0  0  0  0  0  0  0  0  0  0
  1 10  2  0  0  0  0
  2  5  1  0  0  0  0
  2  6  1  0  0  0  0
  2 10  1  0  0  0  0
  3 14  1  0  0  0  0
  3 15  1  0  0  0  0
  3 16  1  0  0  0  0
  4  5  1  0  0  0  0
  4  6  1  0  0  0  0
  4  7  1  0  0  0  0
  4  8  1  0  0  0  0
  7  9  1  0  0  0  0
  8  9  1  0  0  0  0
  9 12  1  0  0  0  0
 10 11  1  0  0  0  0
 11 13  2  0  0  0  0
 13 14  1  0  0  0  0
M  END
> <PUBCHEM_COMPOUND_ID_TYPE>
0

> <PUBCHEM_TOTAL_CHARGE>
0

> <PUBCHEM_SUBSTANCE_ID>
310944798

> <PUBCHEM_SUBSTANCE_VERSION>
1

> <PUBCHEM_EXT_DATASOURCE_NAME>
4488

> <PUBCHEM_EXT_DATASOURCE_REGID>
SCHEMBL16122877

> <PUBCHEM_SUBSTANCE_COMMENT>
InChI=1S/C13H22N2O/c1-11-7-13(8-11)9-15(10-13)12(16)5-4-6-14(2)3/h4-5,11H,6-10H2,1-3H3/b5-4+
InChIKey=XYBVAKCBRIZWEC-SNAWJCMRSA-N

> <PUBCHEM_SUBSTANCE_SYNONYM>
SCHEMBL16122877

> <PUBCHEM_XREF_EXT_ID>
SCHEMBL16122877

> <PUBCHEM_EXT_DATASOURCE_URL>
https://www.surechembl.org/

> <PUBCHEM_EXT_SUBSTANCE_URL>
https://www.surechembl.org/chemical/SCHEMBL16122877

> <PUBCHEM_CID_ASSOCIATIONS>
117611010  1

> <PUBCHEM_COORDINATE_TYPE>
1
3

$$$$
