310948963
  -OEChem-07211613022D

 48 50  0     1  0  0  0  0  0999 V2000
   -6.5656   -2.0744    0.0000 Cl  0  0  0  0  0  0  0  0  0  0  0  0
   -8.6960    1.7878    0.0000 S   0  0  0  0  0  0  0  0  0  0  0  0
   -5.7433    1.9498    0.0000 P   0  0  3  0  0  0  0  0  0  0  0  0
   -7.9111    0.7039    0.0000 O   0  0  0  0  0  0  0  0  0  0  0  0
   -6.4784    1.5262    0.0000 O   0  0  0  0  0  0  0  0  0  0  0  0
   -5.5440    1.1400    0.0000 O   0  0  0  0  0  0  0  0  0  0  0  0
   -5.7558    2.7720    0.0000 O   0  0  0  0  0  0  0  0  0  0  0  0
  -10.3031    0.0187    0.0000 O   0  0  0  0  0  0  0  0  0  0  0  0
   -2.0432    2.7720    0.0000 O   0  0  0  0  0  0  0  0  0  0  0  0
   -8.8953   -0.3551    0.0000 N   0  0  0  0  0  0  0  0  0  0  0  0
   -9.9169   -1.3767    0.0000 N   0  0  0  0  0  0  0  0  0  0  0  0
   -4.9086    1.9498    0.0000 N   0  0  0  0  0  0  0  0  0  0  0  0
   -9.5431   -2.7720    0.0000 N   0  0  0  0  0  0  0  0  0  0  0  0
   -2.7408    1.5386    0.0000 N   0  0  0  0  0  0  0  0  0  0  0  0
   -8.6710    0.4423    0.0000 C   0  0  3  0  0  0  0  0  0  0  0  0
   -7.8986    1.5262    0.0000 C   0  0  3  0  0  0  0  0  0  0  0  0
   -9.6926   -0.5793    0.0000 C   0  0  0  0  0  0  0  0  0  0  0  0
   -9.1694    1.1150    0.0000 C   0  0  0  0  0  0  0  0  0  0  0  0
   -8.3222   -0.9406    0.0000 C   0  0  0  0  0  0  0  0  0  0  0  0
   -7.1760    1.9373    0.0000 C   0  0  0  0  0  0  0  0  0  0  0  0
   -9.3189   -1.9622    0.0000 C   0  0  0  0  0  0  0  0  0  0  0  0
   -8.5340   -1.7379    0.0000 C   0  0  0  0  0  0  0  0  0  0  0  0
   -5.7558    0.3426    0.0000 C   0  0  0  0  0  0  0  0  0  0  0  0
   -6.5406    0.1184    0.0000 C   0  0  0  0  0  0  0  0  0  0  0  0
   -5.1578   -0.2554    0.0000 C   0  0  0  0  0  0  0  0  0  0  0  0
   -4.1735    1.5386    0.0000 C   0  0  0  0  0  0  0  0  0  0  0  0
   -6.1794   -1.2521    0.0000 C   0  0  0  0  0  0  0  0  0  0  0  0
   -6.7525   -0.6789    0.0000 C   0  0  0  0  0  0  0  0  0  0  0  0
   -5.3696   -1.0403    0.0000 C   0  0  0  0  0  0  0  0  0  0  0  0
   -3.4759    1.9498    0.0000 C   0  0  0  0  0  0  0  0  0  0  0  0
   -2.0307    1.9373    0.0000 C   0  0  0  0  0  0  0  0  0  0  0  0
   -1.3081    1.5386    0.0000 C   0  0  0  0  0  0  0  0  0  0  0  0
   -0.5980    1.9498    0.0000 C   0  0  0  0  0  0  0  0  0  0  0  0
    0.1370    1.5386    0.0000 C   0  0  0  0  0  0  0  0  0  0  0  0
    0.8472    1.9498    0.0000 C   0  0  0  0  0  0  0  0  0  0  0  0
    1.5698    1.5386    0.0000 C   0  0  0  0  0  0  0  0  0  0  0  0
    2.2924    1.9498    0.0000 C   0  0  0  0  0  0  0  0  0  0  0  0
    3.0149    1.5386    0.0000 C   0  0  0  0  0  0  0  0  0  0  0  0
    3.7126    1.9498    0.0000 C   0  0  0  0  0  0  0  0  0  0  0  0
    4.5722    1.9373    0.0000 C   0  0  0  0  0  0  0  0  0  0  0  0
    5.2824    1.5386    0.0000 C   0  0  0  0  0  0  0  0  0  0  0  0
    5.9925    1.9498    0.0000 C   0  0  0  0  0  0  0  0  0  0  0  0
    6.7276    1.5386    0.0000 C   0  0  0  0  0  0  0  0  0  0  0  0
    7.4252    1.9498    0.0000 C   0  0  0  0  0  0  0  0  0  0  0  0
    8.1603    1.5386    0.0000 C   0  0  0  0  0  0  0  0  0  0  0  0
    8.8704    1.9498    0.0000 C   0  0  0  0  0  0  0  0  0  0  0  0
    9.5930    1.5386    0.0000 C   0  0  0  0  0  0  0  0  0  0  0  0
   10.3031    1.9498    0.0000 C   0  0  0  0  0  0  0  0  0  0  0  0
  1 27  1  0  0  0  0
  2 16  1  0  0  0  0
  2 18  1  0  0  0  0
  3  5  1  0  0  0  0
  3  6  1  0  0  0  0
  3  7  2  0  0  0  0
  3 12  1  0  0  0  0
  4 15  1  0  0  0  0
  4 16  1  0  0  0  0
  5 20  1  0  0  0  0
  6 23  1  0  0  0  0
  8 17  2  0  0  0  0
  9 31  2  0  0  0  0
 10 15  1  0  0  0  0
 10 17  1  0  0  0  0
 10 19  1  0  0  0  0
 11 17  1  0  0  0  0
 11 21  2  0  0  0  0
 12 26  1  0  0  0  0
 13 21  1  0  0  0  0
 14 30  1  0  0  0  0
 14 31  1  0  0  0  0
 15 18  1  0  0  0  0
 16 20  1  6  0  0  0
 19 22  2  0  0  0  0
 21 22  1  0  0  0  0
 23 24  2  0  0  0  0
 23 25  1  0  0  0  0
 24 28  1  0  0  0  0
 25 29  2  0  0  0  0
 26 30  1  0  0  0  0
 27 28  2  0  0  0  0
 27 29  1  0  0  0  0
 31 32  1  0  0  0  0
 32 33  1  0  0  0  0
 33 34  1  0  0  0  0
 34 35  1  0  0  0  0
 35 36  1  0  0  0  0
 36 37  1  0  0  0  0
 37 38  1  0  0  0  0
 38 39  1  0  0  0  0
 39 40  2  0  0  0  0
 40 41  1  0  0  0  0
 41 42  1  0  0  0  0
 42 43  1  0  0  0  0
 43 44  1  0  0  0  0
 44 45  1  0  0  0  0
 45 46  1  0  0  0  0
 46 47  1  0  0  0  0
 47 48  1  0  0  0  0
M  END
> <PUBCHEM_COMPOUND_ID_TYPE>
0

> <PUBCHEM_TOTAL_CHARGE>
0

> <PUBCHEM_SUBSTANCE_ID>
310948963

> <PUBCHEM_SUBSTANCE_VERSION>
1

> <PUBCHEM_EXT_DATASOURCE_NAME>
4488

> <PUBCHEM_EXT_DATASOURCE_REGID>
SCHEMBL16127151

> <PUBCHEM_SUBSTANCE_COMMENT>
InChI=1S/C34H53ClN5O6PS/c1-2-3-4-5-6-7-8-9-10-11-12-13-14-15-16-17-31(41)37-23-24-38-47(43,46-29-20-18-28(35)19-21-29)44-26-33-45-32(27-48-33)40-25-22-30(36)39-34(40)42/h9-10,18-22,25,32-33H,2-8,11-17,23-24,26-27H2,1H3,(H,37,41)(H,38,43)(H2,36,39,42)/b10-9-/t32?,33-,47?/m1/s1
InChIKey=BEXLBIDKPURFQY-VDHBNVSNSA-N

> <PUBCHEM_SUBSTANCE_SYNONYM>
SCHEMBL16127151

> <PUBCHEM_XREF_EXT_ID>
SCHEMBL16127151

> <PUBCHEM_EXT_DATASOURCE_URL>
https://www.surechembl.org/

> <PUBCHEM_EXT_SUBSTANCE_URL>
https://www.surechembl.org/chemical/SCHEMBL16127151

> <PUBCHEM_CID_ASSOCIATIONS>
117614472  1

> <PUBCHEM_COORDINATE_TYPE>
1
3

> <PUBCHEM_BONDANNOTATIONS>
16  20  6

$$$$
