310940085
  -OEChem-07211613022D

110126  0     0  0  0  0  0  0999 V2000
    8.8018   -0.7473    0.0000 O   0  0  0  0  0  0  0  0  0  0  0  0
    8.0873    0.4902    0.0000 O   0  0  0  0  0  0  0  0  0  0  0  0
    9.3588    1.1643    0.0000 O   0  0  0  0  0  0  0  0  0  0  0  0
   10.1838   -1.6447    0.0000 O   0  0  0  0  0  0  0  0  0  0  0  0
    9.5164   -0.3348    0.0000 N   0  0  0  0  0  0  0  0  0  0  0  0
    3.3744   -0.2003    0.0000 C   0  0  0  0  0  0  0  0  0  0  0  0
    2.6599    0.2122    0.0000 C   0  0  0  0  0  0  0  0  0  0  0  0
    1.9454   -0.2003    0.0000 C   0  0  0  0  0  0  0  0  0  0  0  0
    4.0889    0.2122    0.0000 C   0  0  0  0  0  0  0  0  0  0  0  0
    3.3744   -1.0253    0.0000 C   0  0  0  0  0  0  0  0  0  0  0  0
    2.8735    1.0090    0.0000 C   0  0  0  0  0  0  0  0  0  0  0  0
    1.9454   -1.0253    0.0000 C   0  0  0  0  0  0  0  0  0  0  0  0
    4.8034   -0.2003    0.0000 C   0  0  0  0  0  0  0  0  0  0  0  0
    4.3024    1.0090    0.0000 C   0  0  0  0  0  0  0  0  0  0  0  0
    1.2309    0.2122    0.0000 C   0  0  0  0  0  0  0  0  0  0  0  0
    2.6599   -1.4378    0.0000 C   0  0  0  0  0  0  0  0  0  0  0  0
    4.0889   -1.4378    0.0000 C   0  0  0  0  0  0  0  0  0  0  0  0
    3.6704    1.2226    0.0000 C   0  0  0  0  0  0  0  0  0  0  0  0
    4.8034   -1.0253    0.0000 C   0  0  0  0  0  0  0  0  0  0  0  0
    1.4445    1.0090    0.0000 C   0  0  0  0  0  0  0  0  0  0  0  0
    4.4323   -0.6996    0.0000 C   0  0  0  0  0  0  0  0  0  0  0  0
    2.2414    1.2226    0.0000 C   0  0  0  0  0  0  0  0  0  0  0  0
    3.7179   -0.2871    0.0000 C   0  0  0  0  0  0  0  0  0  0  0  0
    5.1468   -0.2871    0.0000 C   0  0  0  0  0  0  0  0  0  0  0  0
    1.2309   -1.4378    0.0000 C   0  0  0  0  0  0  0  0  0  0  0  0
    3.0034   -0.6996    0.0000 C   0  0  0  0  0  0  0  0  0  0  0  0
    5.5178    0.2122    0.0000 C   0  0  0  0  0  0  0  0  0  0  0  0
    0.5165   -0.2003    0.0000 C   0  0  0  0  0  0  0  0  0  0  0  0
    5.0994    1.2226    0.0000 C   0  0  0  0  0  0  0  0  0  0  0  0
    4.2706   -1.5199    0.0000 C   0  0  0  0  0  0  0  0  0  0  0  0
    5.8614   -0.6996    0.0000 C   0  0  0  0  0  0  0  0  0  0  0  0
    3.7179    0.5379    0.0000 C   0  0  0  0  0  0  0  0  0  0  0  0
    5.1468    0.5379    0.0000 C   0  0  0  0  0  0  0  0  0  0  0  0
    0.5165   -1.0253    0.0000 C   0  0  0  0  0  0  0  0  0  0  0  0
    2.7922   -1.4879    0.0000 C   0  0  0  0  0  0  0  0  0  0  0  0
    2.2889   -0.2871    0.0000 C   0  0  0  0  0  0  0  0  0  0  0  0
    5.7314    1.0090    0.0000 C   0  0  0  0  0  0  0  0  0  0  0  0
    5.7130   -1.5417    0.0000 C   0  0  0  0  0  0  0  0  0  0  0  0
    4.4323    0.9504    0.0000 C   0  0  0  0  0  0  0  0  0  0  0  0
    3.4127   -1.7343    0.0000 C   0  0  0  0  0  0  0  0  0  0  0  0
    5.5178   -1.4378    0.0000 C   0  0  0  0  0  0  0  0  0  0  0  0
    6.5758   -0.2871    0.0000 C   0  0  0  0  0  0  0  0  0  0  0  0
    4.8887   -1.7419    0.0000 C   0  0  0  0  0  0  0  0  0  0  0  0
    2.2889    0.5379    0.0000 C   0  0  0  0  0  0  0  0  0  0  0  0
    3.0034    0.9504    0.0000 C   0  0  0  0  0  0  0  0  0  0  0  0
    2.8735   -2.2348    0.0000 C   0  0  0  0  0  0  0  0  0  0  0  0
    0.8124    1.2226    0.0000 C   0  0  0  0  0  0  0  0  0  0  0  0
    4.3024   -2.2348    0.0000 C   0  0  0  0  0  0  0  0  0  0  0  0
    5.8614    0.9504    0.0000 C   0  0  0  0  0  0  0  0  0  0  0  0
    1.5745   -0.6996    0.0000 C   0  0  0  0  0  0  0  0  0  0  0  0
    6.5758    0.5379    0.0000 C   0  0  0  0  0  0  0  0  0  0  0  0
    1.9632   -1.7100    0.0000 C   0  0  0  0  0  0  0  0  0  0  0  0
    3.8549    1.7681    0.0000 C   0  0  0  0  0  0  0  0  0  0  0  0
    6.2324   -0.2003    0.0000 C   0  0  0  0  0  0  0  0  0  0  0  0
   -0.1980    0.2122    0.0000 C   0  0  0  0  0  0  0  0  0  0  0  0
    1.4445   -2.2348    0.0000 C   0  0  0  0  0  0  0  0  0  0  0  0
    1.3760   -1.4402    0.0000 C   0  0  0  0  0  0  0  0  0  0  0  0
    2.4258    1.7681    0.0000 C   0  0  0  0  0  0  0  0  0  0  0  0
    7.3729   -0.7473    0.0000 C   0  0  0  0  0  0  0  0  0  0  0  0
    6.3790   -1.9036    0.0000 C   0  0  0  0  0  0  0  0  0  0  0  0
    6.2324   -1.0253    0.0000 C   0  0  0  0  0  0  0  0  0  0  0  0
    0.0155    1.0090    0.0000 C   0  0  0  0  0  0  0  0  0  0  0  0
    5.2838    1.7681    0.0000 C   0  0  0  0  0  0  0  0  0  0  0  0
    1.5745    0.9504    0.0000 C   0  0  0  0  0  0  0  0  0  0  0  0
    5.7314   -2.2348    0.0000 C   0  0  0  0  0  0  0  0  0  0  0  0
   -0.1980   -1.4378    0.0000 C   0  0  0  0  0  0  0  0  0  0  0  0
    6.5282    1.2226    0.0000 C   0  0  0  0  0  0  0  0  0  0  0  0
    7.1160   -1.7060    0.0000 C   0  0  0  0  0  0  0  0  0  0  0  0
    0.8599   -0.2871    0.0000 C   0  0  0  0  0  0  0  0  0  0  0  0
    0.9969    1.7681    0.0000 C   0  0  0  0  0  0  0  0  0  0  0  0
    2.4825   -2.4605    0.0000 C   0  0  0  0  0  0  0  0  0  0  0  0
    7.2903    0.9504    0.0000 C   0  0  0  0  0  0  0  0  0  0  0  0
    4.2188    1.7473    0.0000 C   0  0  0  0  0  0  0  0  0  0  0  0
    3.3425   -2.1985    0.0000 C   0  0  0  0  0  0  0  0  0  0  0  0
    4.8314   -2.2372    0.0000 C   0  0  0  0  0  0  0  0  0  0  0  0
    0.8599    0.5379    0.0000 C   0  0  0  0  0  0  0  0  0  0  0  0
    3.8454   -2.4986    0.0000 C   0  0  0  0  0  0  0  0  0  0  0  0
    8.0873   -0.3348    0.0000 C   0  0  0  0  0  0  0  0  0  0  0  0
    2.7898    1.7473    0.0000 C   0  0  0  0  0  0  0  0  0  0  0  0
    3.4835   -2.3983    0.0000 C   0  0  0  0  0  0  0  0  0  0  0  0
    5.6479    1.7473    0.0000 C   0  0  0  0  0  0  0  0  0  0  0  0
    5.0778   -2.4425    0.0000 C   0  0  0  0  0  0  0  0  0  0  0  0
    6.0807    1.9236    0.0000 C   0  0  0  0  0  0  0  0  0  0  0  0
    4.6518    1.9044    0.0000 C   0  0  0  0  0  0  0  0  0  0  0  0
    0.6609   -2.4922    0.0000 C   0  0  0  0  0  0  0  0  0  0  0  0
    0.5797   -1.8998    0.0000 C   0  0  0  0  0  0  0  0  0  0  0  0
    1.8343   -2.2372    0.0000 C   0  0  0  0  0  0  0  0  0  0  0  0
    3.2228    1.9236    0.0000 C   0  0  0  0  0  0  0  0  0  0  0  0
    2.1686   -2.4289    0.0000 C   0  0  0  0  0  0  0  0  0  0  0  0
    7.0768    1.7473    0.0000 C   0  0  0  0  0  0  0  0  0  0  0  0
    6.1560   -2.6335    0.0000 C   0  0  0  0  0  0  0  0  0  0  0  0
    5.3205   -2.4720    0.0000 C   0  0  0  0  0  0  0  0  0  0  0  0
    0.0155   -2.2348    0.0000 C   0  0  0  0  0  0  0  0  0  0  0  0
    1.3608    1.7473    0.0000 C   0  0  0  0  0  0  0  0  0  0  0  0
    6.1367   -2.4015    0.0000 C   0  0  0  0  0  0  0  0  0  0  0  0
    6.8868    1.9809    0.0000 C   0  0  0  0  0  0  0  0  0  0  0  0
    1.7939    1.9236    0.0000 C   0  0  0  0  0  0  0  0  0  0  0  0
    2.5788   -2.7108    0.0000 C   0  0  0  0  0  0  0  0  0  0  0  0
    3.9323   -2.7108    0.0000 C   0  0  0  0  0  0  0  0  0  0  0  0
    5.1237    1.8009    0.0000 C   0  0  0  0  0  0  0  0  0  0  0  0
    0.7418   -2.7302    0.0000 C   0  0  0  0  0  0  0  0  0  0  0  0
    0.4773   -2.2821    0.0000 C   0  0  0  0  0  0  0  0  0  0  0  0
    3.6403    1.8387    0.0000 C   0  0  0  0  0  0  0  0  0  0  0  0
    5.4406   -2.7688    0.0000 C   0  0  0  0  0  0  0  0  0  0  0  0
    0.4216   -2.3336    0.0000 C   0  0  0  0  0  0  0  0  0  0  0  0
    2.2082    1.8060    0.0000 C   0  0  0  0  0  0  0  0  0  0  0  0
    9.7713    0.4498    0.0000 C   0  0  0  0  0  0  0  0  0  0  0  0
   10.1838   -0.8197    0.0000 C   0  0  0  0  0  0  0  0  0  0  0  0
   10.5963    0.4498    0.0000 C   0  0  0  0  0  0  0  0  0  0  0  0
   10.8513   -0.3348    0.0000 C   0  0  0  0  0  0  0  0  0  0  0  0
  1  5  1  0  0  0  0
  1 78  1  0  0  0  0
  2 78  2  0  0  0  0
  3107  2  0  0  0  0
  4108  2  0  0  0  0
  5107  1  0  0  0  0
  5108  1  0  0  0  0
  6  7  1  0  0  0  0
  6  9  2  0  0  0  0
  6 10  1  0  0  0  0
  7  8  2  0  0  0  0
  7 11  1  0  0  0  0
  8 12  1  0  0  0  0
  8 15  1  0  0  0  0
  9 13  1  0  0  0  0
  9 14  1  0  0  0  0
 10 16  1  0  0  0  0
 10 17  2  0  0  0  0
 11 18  1  0  0  0  0
 11 22  2  0  0  0  0
 12 16  2  0  0  0  0
 12 25  1  0  0  0  0
 13 19  1  0  0  0  0
 13 27  2  0  0  0  0
 14 18  2  0  0  0  0
 14 29  1  0  0  0  0
 15 20  1  0  0  0  0
 15 28  2  0  0  0  0
 16 46  1  0  0  0  0
 17 19  1  0  0  0  0
 17 48  1  0  0  0  0
 18 53  1  0  0  0  0
 19 41  2  0  0  0  0
 20 22  1  0  0  0  0
 20 47  2  0  0  0  0
 21 23  1  0  0  0  0
 21 24  2  0  0  0  0
 21 30  1  0  0  0  0
 22 58  1  0  0  0  0
 23 26  2  0  0  0  0
 23 32  1  0  0  0  0
 24 31  1  0  0  0  0
 24 33  1  0  0  0  0
 25 34  2  0  0  0  0
 25 56  1  0  0  0  0
 26 35  1  0  0  0  0
 26 36  1  0  0  0  0
 27 37  1  0  0  0  0
 27 54  1  0  0  0  0
 28 34  1  0  0  0  0
 28 55  1  0  0  0  0
 29 37  2  0  0  0  0
 29 63  1  0  0  0  0
 30 40  1  0  0  0  0
 30 43  2  0  0  0  0
 31 38  1  0  0  0  0
 31 42  2  0  0  0  0
 32 39  1  0  0  0  0
 32 45  2  0  0  0  0
 33 39  2  0  0  0  0
 33 49  1  0  0  0  0
 34 66  1  0  0  0  0
 35 40  2  0  0  0  0
 35 52  1  0  0  0  0
 36 44  1  0  0  0  0
 36 50  2  0  0  0  0
 37 67  1  0  0  0  0
 38 43  1  0  0  0  0
 38 60  2  0  0  0  0
 39 73  1  0  0  0  0
 40 74  1  0  0  0  0
 41 61  1  0  0  0  0
 41 65  1  0  0  0  0
 42 51  1  0  0  0  0
 42 59  1  0  0  0  0
 43 75  1  0  0  0  0
 44 45  1  0  0  0  0
 44 64  2  0  0  0  0
 45 79  1  0  0  0  0
 46 71  2  0  0  0  0
 46 80  1  0  0  0  0
 47 62  1  0  0  0  0
 47 70  1  0  0  0  0
 48 77  2  0  0  0  0
 48 82  1  0  0  0  0
 49 51  2  0  0  0  0
 49 81  1  0  0  0  0
 50 57  1  0  0  0  0
 50 69  1  0  0  0  0
 51 72  1  0  0  0  0
 52 57  2  0  0  0  0
 52 87  1  0  0  0  0
 53 84  2  0  0  0  0
 54 61  2  0  0  0  0
 55 62  2  0  0  0  0
 56 85  2  0  0  0  0
 56 89  1  0  0  0  0
 57 86  1  0  0  0  0
 58 88  2  0  0  0  0
 59 68  2  0  0  0  0
 59 78  1  0  0  0  0
 60 68  1  0  0  0  0
 60 91  1  0  0  0  0
 63 83  2  0  0  0  0
 64 76  1  0  0  0  0
 64 94  1  0  0  0  0
 65 92  2  0  0  0  0
 65 95  1  0  0  0  0
 66 93  2  0  0  0  0
 67 96  1  0  0  0  0
 69 76  2  0  0  0  0
 70 97  2  0  0  0  0
 71 98  1  0  0  0  0
 72 90  2  0  0  0  0
 77 99  1  0  0  0  0
 83 90  1  0  0  0  0
 84100  1  0  0  0  0
 85101  1  0  0  0  0
 86102  1  0  0  0  0
 88103  1  0  0  0  0
 92104  1  0  0  0  0
 93105  1  0  0  0  0
 97106  1  0  0  0  0
107109  1  0  0  0  0
108110  1  0  0  0  0
109110  1  0  0  0  0
M  END
> <PUBCHEM_COMPOUND_ID_TYPE>
0

> <PUBCHEM_TOTAL_CHARGE>
0

> <PUBCHEM_SUBSTANCE_ID>
310940085

> <PUBCHEM_SUBSTANCE_VERSION>
1

> <PUBCHEM_EXT_DATASOURCE_NAME>
4488

> <PUBCHEM_EXT_DATASOURCE_REGID>
SCHEMBL16118016

> <PUBCHEM_SUBSTANCE_COMMENT>
InChI=1S/C105H97NO4/c1-23-35-62-42-44-71-67(36-24-2)79(51(12)28-6)95-81(53(14)30-8)96-80(52(13)29-7)90-65(50(11)27-5)45-46-70-64(32-10)68(88-73(38-26-4)89-72(37-25-3)86(62)92(71)103(95)102(89)104(96)101(88)93(70)90)40-34-33-39-66-57(18)83-61(22)84-58(19)77-54(15)41-43-69-63(31-9)56(17)82-60(21)85-59(20)78-55(16)49-74(105(109)110-106-75(107)47-48-76(106)108)87(66)94(78)98(83)100(85)99(84)97(82)91(69)77/h23-30,33-46,49H,31-32,47-48H2,1-22H3/b35-23-,36-24-,37-25-,38-26-,39-33-,40-34-,50-27+,51-28+,52-29+,53-30+
InChIKey=LCTSOYCJPDLTST-GROGIPCBSA-N

> <PUBCHEM_SUBSTANCE_SYNONYM>
SCHEMBL16118016

> <PUBCHEM_XREF_EXT_ID>
SCHEMBL16118016

> <PUBCHEM_EXT_DATASOURCE_URL>
https://www.surechembl.org/

> <PUBCHEM_EXT_SUBSTANCE_URL>
https://www.surechembl.org/chemical/SCHEMBL16118016

> <PUBCHEM_CID_ASSOCIATIONS>
117607223  1

> <PUBCHEM_COORDINATE_TYPE>
1
3

$$$$
