310948675
  -OEChem-07211613022D

 34 38  0     1  0  0  0  0  0999 V2000
    1.9714    3.4465    0.0000 F   0  0  0  0  0  0  0  0  0  0  0  0
    2.7847    2.7020    0.0000 F   0  0  0  0  0  0  0  0  0  0  0  0
   -2.7847    1.9438    0.0000 O   0  0  0  0  0  0  0  0  0  0  0  0
   -1.1442   -3.3362    0.0000 O   0  0  0  0  0  0  0  0  0  0  0  0
   -0.0138    1.7922    0.0000 N   0  0  0  0  0  0  0  0  0  0  0  0
   -0.3584    1.0340    0.0000 N   0  0  0  0  0  0  0  0  0  0  0  0
   -1.7370    0.5238    0.0000 N   0  0  0  0  0  0  0  0  0  0  0  0
   -2.0541    3.1846    0.0000 N   0  0  0  0  0  0  0  0  0  0  0  0
    0.0552   -2.8261    0.0000 N   0  0  0  0  0  0  0  0  0  0  0  0
    1.2269   -0.2343    0.0000 N   0  0  0  0  0  0  0  0  0  0  0  0
   -0.6342    2.3574    0.0000 C   0  0  0  0  0  0  0  0  0  0  0  0
   -1.3510    1.9438    0.0000 C   0  0  0  0  0  0  0  0  0  0  0  0
    0.8134    1.9576    0.0000 C   0  0  3  0  0  0  0  0  0  0  0  0
   -1.1856    1.1580    0.0000 C   0  0  0  0  0  0  0  0  0  0  0  0
    1.4200    1.4062    0.0000 C   0  0  3  0  0  0  0  0  0  0  0  0
    1.9714    2.6193    0.0000 C   0  0  0  0  0  0  0  0  0  0  0  0
   -2.0679    2.3712    0.0000 C   0  0  0  0  0  0  0  0  0  0  0  0
    1.1580    2.7020    0.0000 C   0  0  0  0  0  0  0  0  0  0  0  0
   -0.6204    3.1570    0.0000 C   0  0  0  0  0  0  0  0  0  0  0  0
    2.1231    1.8059    0.0000 C   0  0  0  0  0  0  0  0  0  0  0  0
   -1.4889   -0.2620    0.0000 C   0  0  0  0  0  0  0  0  0  0  0  0
   -1.3648    3.5844    0.0000 C   0  0  0  0  0  0  0  0  0  0  0  0
    1.3235    0.5790    0.0000 C   0  0  0  0  0  0  0  0  0  0  0  0
   -0.9788   -1.8473    0.0000 C   0  0  0  0  0  0  0  0  0  0  0  0
   -0.6755   -0.4411    0.0000 C   0  0  0  0  0  0  0  0  0  0  0  0
   -0.4274   -1.2269    0.0000 C   0  0  0  0  0  0  0  0  0  0  0  0
   -2.0266   -0.8547    0.0000 C   0  0  0  0  0  0  0  0  0  0  0  0
   -0.7306   -2.5918    0.0000 C   0  0  0  0  0  0  0  0  0  0  0  0
   -1.7922   -1.6543    0.0000 C   0  0  0  0  0  0  0  0  0  0  0  0
    0.3998   -1.3924    0.0000 C   0  0  0  0  0  0  0  0  0  0  0  0
    0.3447   -3.5844    0.0000 C   0  0  0  0  0  0  0  0  0  0  0  0
    0.6893   -2.3161    0.0000 C   0  0  0  0  0  0  0  0  0  0  0  0
    1.1580   -3.5568    0.0000 C   0  0  0  0  0  0  0  0  0  0  0  0
    1.3786   -2.7710    0.0000 C   0  0  0  0  0  0  0  0  0  0  0  0
  1 16  1  0  0  0  0
  2 16  1  0  0  0  0
  3 17  2  0  0  0  0
  4 28  2  0  0  0  0
  5  6  1  0  0  0  0
  5 11  1  0  0  0  0
 13  5  1  6  0  0  0
  6 14  2  0  0  0  0
  7 14  1  0  0  0  0
  7 21  1  0  0  0  0
  8 17  1  0  0  0  0
  8 22  1  0  0  0  0
  9 28  1  0  0  0  0
  9 31  1  0  0  0  0
  9 32  1  0  0  0  0
 10 23  3  0  0  0  0
 11 12  2  0  0  0  0
 11 19  1  0  0  0  0
 12 14  1  0  0  0  0
 12 17  1  0  0  0  0
 13 15  1  0  0  0  0
 13 18  1  0  0  0  0
 15 20  1  0  0  0  0
 15 23  1  1  0  0  0
 16 18  1  0  0  0  0
 16 20  1  0  0  0  0
 19 22  2  0  0  0  0
 21 25  1  0  0  0  0
 21 27  2  0  0  0  0
 24 26  1  0  0  0  0
 24 28  1  0  0  0  0
 24 29  2  0  0  0  0
 25 26  2  0  0  0  0
 26 30  1  0  0  0  0
 27 29  1  0  0  0  0
 31 33  1  0  0  0  0
 32 34  1  0  0  0  0
 33 34  1  0  0  0  0
M  END
> <PUBCHEM_COMPOUND_ID_TYPE>
0

> <PUBCHEM_TOTAL_CHARGE>
0

> <PUBCHEM_SUBSTANCE_ID>
310948675

> <PUBCHEM_SUBSTANCE_VERSION>
1

> <PUBCHEM_EXT_DATASOURCE_NAME>
4488

> <PUBCHEM_EXT_DATASOURCE_REGID>
SCHEMBL16126859

> <PUBCHEM_SUBSTANCE_COMMENT>
InChI=1S/C24H24F2N6O2/c1-14-10-16(4-5-17(14)23(34)31-8-2-3-9-31)29-21-20-18(6-7-28-22(20)33)32(30-21)19-12-24(25,26)11-15(19)13-27/h4-7,10,15,19H,2-3,8-9,11-12H2,1H3,(H,28,33)(H,29,30)/t15-,19+/m0/s1
InChIKey=IIBGSSDECOOUPY-HNAYVOBHSA-N

> <PUBCHEM_SUBSTANCE_SYNONYM>
SCHEMBL16126859

> <PUBCHEM_XREF_EXT_ID>
SCHEMBL16126859

> <PUBCHEM_EXT_DATASOURCE_URL>
https://www.surechembl.org/

> <PUBCHEM_EXT_SUBSTANCE_URL>
https://www.surechembl.org/chemical/SCHEMBL16126859

> <PUBCHEM_CID_ASSOCIATIONS>
117614216  1

> <PUBCHEM_COORDINATE_TYPE>
1
3

> <PUBCHEM_BONDANNOTATIONS>
15  23  5
13  5  6

$$$$
