310949930
  -OEChem-07211613022D

  7  6  0     1  0  0  0  0  0999 V2000
    0.0966   -0.1449    0.0000 S   0  0  0  0  0  0  0  0  0  0  0  0
    0.6278    1.6420    0.0000 F   0  0  0  0  0  0  0  0  0  0  0  0
    0.4829    0.9176    0.0000 C   0  0  3  0  0  0  0  0  0  0  0  0
   -0.0483    0.4346    0.0000 C   0  0  0  0  0  0  0  0  0  0  0  0
   -0.6278   -0.2898    0.0000 C   0  0  0  0  0  0  0  0  0  0  0  0
   -0.2415   -0.8693    0.0000 C   0  0  0  0  0  0  0  0  0  0  0  0
    0.2415   -1.6420    0.0000 C   0  0  0  0  0  0  0  0  0  0  0  0
  1  3  1  0  0  0  0
  3  2  1  6  0  0  0
  3  4  1  0  0  0  0
  4  5  1  0  0  0  0
  5  6  1  0  0  0  0
  6  7  1  0  0  0  0
M  END
> <PUBCHEM_COMPOUND_ID_TYPE>
0

> <PUBCHEM_TOTAL_CHARGE>
0

> <PUBCHEM_SUBSTANCE_ID>
310949930

> <PUBCHEM_SUBSTANCE_VERSION>
1

> <PUBCHEM_EXT_DATASOURCE_NAME>
4488

> <PUBCHEM_EXT_DATASOURCE_REGID>
SCHEMBL16128157

> <PUBCHEM_SUBSTANCE_COMMENT>
InChI=1S/C5H11FS/c1-2-3-4-5(6)7/h5,7H,2-4H2,1H3/t5-/m1/s1
InChIKey=JDUYTDORCLKBJY-RXMQYKEDSA-N

> <PUBCHEM_SUBSTANCE_SYNONYM>
SCHEMBL16128157

> <PUBCHEM_XREF_EXT_ID>
SCHEMBL16128157

> <PUBCHEM_EXT_DATASOURCE_URL>
https://www.surechembl.org/

> <PUBCHEM_EXT_SUBSTANCE_URL>
https://www.surechembl.org/chemical/SCHEMBL16128157

> <PUBCHEM_CID_ASSOCIATIONS>
117615197  1

> <PUBCHEM_COORDINATE_TYPE>
1
3

> <PUBCHEM_BONDANNOTATIONS>
3  2  6

$$$$
