310939152
  -OEChem-07211613022D

 24 26  0     1  0  0  0  0  0999 V2000
   -0.2062    1.0717    0.0000 F   0  0  0  0  0  0  0  0  0  0  0  0
    2.2687   -0.3572    0.0000 F   0  0  0  0  0  0  0  0  0  0  0  0
    1.4437    1.0717    0.0000 O   0  0  0  0  0  0  0  0  0  0  0  0
   -1.4437    0.3572    0.0000 N   0  0  0  0  0  0  0  0  0  0  0  0
   -3.9187   -1.0717    0.0000 N   0  0  0  0  0  0  0  0  0  0  0  0
    1.0313    0.3572    0.0000 C   0  0  0  0  0  0  0  0  0  0  0  0
    0.2062    0.3572    0.0000 C   0  0  0  0  0  0  0  0  0  0  0  0
   -0.2062   -0.3572    0.0000 C   0  0  0  0  0  0  0  0  0  0  0  0
    1.4437   -0.3572    0.0000 C   0  0  0  0  0  0  0  0  0  0  0  0
   -1.0313   -0.3572    0.0000 C   0  0  3  0  0  0  0  0  0  0  0  0
    0.2062   -1.0717    0.0000 C   0  0  0  0  0  0  0  0  0  0  0  0
    1.0313   -1.0717    0.0000 C   0  0  0  0  0  0  0  0  0  0  0  0
    2.2687    1.0717    0.0000 C   0  0  0  0  0  0  0  0  0  0  0  0
   -1.4437   -1.0717    0.0000 C   0  0  0  0  0  0  0  0  0  0  0  0
   -2.2687   -1.0717    0.0000 C   0  0  0  0  0  0  0  0  0  0  0  0
    2.6812    1.7862    0.0000 C   0  0  0  0  0  0  0  0  0  0  0  0
    2.6812    0.3572    0.0000 C   0  0  0  0  0  0  0  0  0  0  0  0
   -2.6812   -1.7862    0.0000 C   0  0  0  0  0  0  0  0  0  0  0  0
   -2.6812   -0.3572    0.0000 C   0  0  0  0  0  0  0  0  0  0  0  0
    3.5062    1.7862    0.0000 C   0  0  0  0  0  0  0  0  0  0  0  0
    3.5062    0.3572    0.0000 C   0  0  0  0  0  0  0  0  0  0  0  0
    3.9187    1.0717    0.0000 C   0  0  0  0  0  0  0  0  0  0  0  0
   -3.5062   -1.7862    0.0000 C   0  0  0  0  0  0  0  0  0  0  0  0
   -3.5062   -0.3572    0.0000 C   0  0  0  0  0  0  0  0  0  0  0  0
  1  7  1  0  0  0  0
  2  9  1  0  0  0  0
  3  6  1  0  0  0  0
  3 13  1  0  0  0  0
 10  4  1  1  0  0  0
  5 23  1  0  0  0  0
  5 24  1  0  0  0  0
  6  7  1  0  0  0  0
  6  9  2  0  0  0  0
  7  8  2  0  0  0  0
  8 10  1  0  0  0  0
  8 11  1  0  0  0  0
  9 12  1  0  0  0  0
 10 14  1  0  0  0  0
 11 12  2  0  0  0  0
 13 16  2  0  0  0  0
 13 17  1  0  0  0  0
 14 15  1  0  0  0  0
 15 18  1  0  0  0  0
 15 19  1  0  0  0  0
 16 20  1  0  0  0  0
 17 21  2  0  0  0  0
 18 23  1  0  0  0  0
 19 24  1  0  0  0  0
 20 22  2  0  0  0  0
 21 22  1  0  0  0  0
M  END
> <PUBCHEM_COMPOUND_ID_TYPE>
0

> <PUBCHEM_TOTAL_CHARGE>
0

> <PUBCHEM_SUBSTANCE_ID>
310939152

> <PUBCHEM_SUBSTANCE_VERSION>
1

> <PUBCHEM_EXT_DATASOURCE_NAME>
4488

> <PUBCHEM_EXT_DATASOURCE_REGID>
SCHEMBL16117073

> <PUBCHEM_SUBSTANCE_COMMENT>
InChI=1S/C19H22F2N2O/c20-16-7-6-15(17(22)12-13-8-10-23-11-9-13)18(21)19(16)24-14-4-2-1-3-5-14/h1-7,13,17,23H,8-12,22H2/t17-/m1/s1
InChIKey=IOPZVCWRMPAFCF-QGZVFWFLSA-N

> <PUBCHEM_SUBSTANCE_SYNONYM>
SCHEMBL16117073

> <PUBCHEM_XREF_EXT_ID>
SCHEMBL16117073

> <PUBCHEM_EXT_DATASOURCE_URL>
https://www.surechembl.org/

> <PUBCHEM_EXT_SUBSTANCE_URL>
https://www.surechembl.org/chemical/SCHEMBL16117073

> <PUBCHEM_CID_ASSOCIATIONS>
117606504  1

> <PUBCHEM_COORDINATE_TYPE>
1
3

> <PUBCHEM_BONDANNOTATIONS>
10  4  5

$$$$
