310936563
  -OEChem-07211613022D

 26 28  0     0  0  0  0  0  0999 V2000
    4.5465   -0.7720    0.0000 Cl  0  0  0  0  0  0  0  0  0  0  0  0
    2.1017   -7.8492    0.0000 Cl  0  0  0  0  0  0  0  0  0  0  0  0
    0.8578   -1.4154    0.0000 O   0  0  0  0  0  0  0  0  0  0  0  0
    0.8578   -8.5783    0.0000 O   0  0  0  0  0  0  0  0  0  0  0  0
    0.8578   -2.8308    0.0000 N   0  0  0  0  0  0  0  0  0  0  0  0
    2.0588   -2.1446    0.0000 C   0  0  0  0  0  0  0  0  0  0  0  0
    2.4877   -1.4154    0.0000 C   0  0  0  0  0  0  0  0  0  0  0  0
    1.2438   -2.1017    0.0000 C   0  0  0  0  0  0  0  0  0  0  0  0
    2.1017   -3.5600    0.0000 C   0  0  0  0  0  0  0  0  0  0  0  0
    2.4877   -2.8308    0.0000 C   0  0  0  0  0  0  0  0  0  0  0  0
    1.2438   -3.5171    0.0000 C   0  0  0  0  0  0  0  0  0  0  0  0
    3.3027   -1.4154    0.0000 C   0  0  0  0  0  0  0  0  0  0  0  0
    2.4877   -4.2891    0.0000 C   0  0  0  0  0  0  0  0  0  0  0  0
    2.1017   -0.6863    0.0000 C   0  0  0  0  0  0  0  0  0  0  0  0
    2.0588   -5.0183    0.0000 C   0  0  0  0  0  0  0  0  0  0  0  0
    3.7315   -0.7291    0.0000 C   0  0  0  0  0  0  0  0  0  0  0  0
    2.5306    0.0000    0.0000 C   0  0  0  0  0  0  0  0  0  0  0  0
    3.3455    0.0000    0.0000 C   0  0  0  0  0  0  0  0  0  0  0  0
    1.2438   -5.0183    0.0000 C   0  0  0  0  0  0  0  0  0  0  0  0
    2.4877   -5.7046    0.0000 C   0  0  0  0  0  0  0  0  0  0  0  0
    1.2438   -6.4337    0.0000 C   0  0  0  0  0  0  0  0  0  0  0  0
    0.8578   -5.7046    0.0000 C   0  0  0  0  0  0  0  0  0  0  0  0
    2.1017   -6.4337    0.0000 C   0  0  0  0  0  0  0  0  0  0  0  0
    0.8578   -7.1628    0.0000 C   0  0  0  0  0  0  0  0  0  0  0  0
    0.0000   -1.4154    0.0000 C   0  0  0  0  0  0  0  0  0  0  0  0
    1.2867   -7.8492    0.0000 C   0  0  0  0  0  0  0  0  0  0  0  0
  1 16  1  0  0  0  0
  2 26  1  0  0  0  0
  3  8  1  0  0  0  0
  3 25  1  0  0  0  0
  4 26  2  0  0  0  0
  5  8  2  0  0  0  0
  5 11  1  0  0  0  0
  6  7  1  0  0  0  0
  6  8  1  0  0  0  0
  6 10  2  0  0  0  0
  7 12  1  0  0  0  0
  7 14  2  0  0  0  0
  9 10  1  0  0  0  0
  9 11  2  0  0  0  0
  9 13  1  0  0  0  0
 12 16  2  0  0  0  0
 13 15  1  0  0  0  0
 14 17  1  0  0  0  0
 15 19  2  0  0  0  0
 15 20  1  0  0  0  0
 16 18  1  0  0  0  0
 17 18  2  0  0  0  0
 19 22  1  0  0  0  0
 20 23  2  0  0  0  0
 21 22  2  0  0  0  0
 21 23  1  0  0  0  0
 21 24  1  0  0  0  0
 24 26  1  0  0  0  0
M  END
> <PUBCHEM_COMPOUND_ID_TYPE>
0

> <PUBCHEM_TOTAL_CHARGE>
0

> <PUBCHEM_SUBSTANCE_ID>
310936563

> <PUBCHEM_SUBSTANCE_VERSION>
1

> <PUBCHEM_EXT_DATASOURCE_NAME>
4488

> <PUBCHEM_EXT_DATASOURCE_REGID>
SCHEMBL16114219

> <PUBCHEM_SUBSTANCE_COMMENT>
InChI=1S/C21H17Cl2NO2/c1-26-21-19(17-3-2-4-18(22)12-17)10-16(13-24-21)9-14-5-7-15(8-6-14)11-20(23)25/h2-8,10,12-13H,9,11H2,1H3
InChIKey=NZYXCXCGUWZPNO-UHFFFAOYSA-N

> <PUBCHEM_SUBSTANCE_SYNONYM>
SCHEMBL16114219

> <PUBCHEM_XREF_EXT_ID>
SCHEMBL16114219

> <PUBCHEM_EXT_DATASOURCE_URL>
https://www.surechembl.org/

> <PUBCHEM_EXT_SUBSTANCE_URL>
https://www.surechembl.org/chemical/SCHEMBL16114219

> <PUBCHEM_CID_ASSOCIATIONS>
117604483  1

> <PUBCHEM_COORDINATE_TYPE>
1
3

$$$$
