310932100
  -OEChem-07211613022D

 31 33  0     0  0  0  0  0  0999 V2000
    2.8326   -5.4043    0.0000 O   0  0  0  0  0  0  0  0  0  0  0  0
    5.5535   -3.8762    0.0000 O   0  0  0  0  0  0  0  0  0  0  0  0
    0.0000   -7.4543    0.0000 O   0  0  0  0  0  0  0  0  0  0  0  0
    3.4663   -6.6716    0.0000 N   0  0  0  0  0  0  0  0  0  0  0  0
    4.2489   -6.9325    0.0000 N   0  0  0  0  0  0  0  0  0  0  0  0
    4.5099   -4.8453    0.0000 N   0  0  0  0  0  0  0  0  0  0  0  0
    3.9508   -4.2489    0.0000 N   0  0  0  0  0  0  0  0  0  0  0  0
    4.2489   -5.6280    0.0000 C   0  0  0  0  0  0  0  0  0  0  0  0
    3.4663   -5.8889    0.0000 C   0  0  0  0  0  0  0  0  0  0  0  0
    4.7335   -6.2616    0.0000 C   0  0  0  0  0  0  0  0  0  0  0  0
    4.2117   -3.4663    0.0000 C   0  0  0  0  0  0  0  0  0  0  0  0
    4.9944   -3.2799    0.0000 C   0  0  0  0  0  0  0  0  0  0  0  0
    5.2553   -2.4972    0.0000 C   0  0  0  0  0  0  0  0  0  0  0  0
    2.8326   -7.1561    0.0000 C   0  0  0  0  0  0  0  0  0  0  0  0
    3.6526   -2.8326    0.0000 C   0  0  0  0  0  0  0  0  0  0  0  0
    7.1189   -1.3791    0.0000 C   0  0  0  0  0  0  0  0  0  0  0  0
    5.5535   -6.2616    0.0000 C   0  0  0  0  0  0  0  0  0  0  0  0
    4.7335   -1.9009    0.0000 C   0  0  0  0  0  0  0  0  0  0  0  0
    6.0753   -2.3481    0.0000 C   0  0  0  0  0  0  0  0  0  0  0  0
    3.9135   -2.0499    0.0000 C   0  0  0  0  0  0  0  0  0  0  0  0
    6.3361   -1.5654    0.0000 C   0  0  0  0  0  0  0  0  0  0  0  0
    7.6779   -1.9754    0.0000 C   0  0  0  0  0  0  0  0  0  0  0  0
    7.3797   -0.5963    0.0000 C   0  0  0  0  0  0  0  0  0  0  0  0
    2.0499   -6.8207    0.0000 C   0  0  0  0  0  0  0  0  0  0  0  0
    8.4979   -1.8263    0.0000 C   0  0  0  0  0  0  0  0  0  0  0  0
    8.1997   -0.4473    0.0000 C   0  0  0  0  0  0  0  0  0  0  0  0
    8.7588   -1.0436    0.0000 C   0  0  0  0  0  0  0  0  0  0  0  0
    1.4163   -7.3052    0.0000 C   0  0  0  0  0  0  0  0  0  0  0  0
    7.4170   -2.7581    0.0000 C   0  0  0  0  0  0  0  0  0  0  0  0
    6.8579    0.0000    0.0000 C   0  0  0  0  0  0  0  0  0  0  0  0
    0.6709   -6.9697    0.0000 C   0  0  0  0  0  0  0  0  0  0  0  0
  1  9  2  0  0  0  0
  2 12  1  0  0  0  0
  3 31  1  0  0  0  0
  4  5  1  0  0  0  0
  4  9  1  0  0  0  0
  4 14  1  0  0  0  0
  5 10  2  0  0  0  0
  6  7  1  0  0  0  0
  6  8  2  0  0  0  0
  7 11  1  0  0  0  0
  8  9  1  0  0  0  0
  8 10  1  0  0  0  0
 10 17  1  0  0  0  0
 11 12  1  0  0  0  0
 11 15  2  0  0  0  0
 12 13  2  0  0  0  0
 13 18  1  0  0  0  0
 13 19  1  0  0  0  0
 14 24  1  0  0  0  0
 15 20  1  0  0  0  0
 16 21  1  0  0  0  0
 16 22  1  0  0  0  0
 16 23  2  0  0  0  0
 18 20  2  0  0  0  0
 19 21  3  0  0  0  0
 22 25  2  0  0  0  0
 22 29  1  0  0  0  0
 23 26  1  0  0  0  0
 23 30  1  0  0  0  0
 24 28  1  0  0  0  0
 25 27  1  0  0  0  0
 26 27  2  0  0  0  0
 28 31  1  0  0  0  0
M  END
> <PUBCHEM_COMPOUND_ID_TYPE>
0

> <PUBCHEM_TOTAL_CHARGE>
0

> <PUBCHEM_SUBSTANCE_ID>
310932100

> <PUBCHEM_SUBSTANCE_VERSION>
1

> <PUBCHEM_EXT_DATASOURCE_NAME>
4488

> <PUBCHEM_EXT_DATASOURCE_REGID>
SCHEMBL16109448

> <PUBCHEM_SUBSTANCE_COMMENT>
InChI=1S/C24H26N4O3/c1-16-8-6-9-17(2)20(16)13-12-19-10-7-11-21(23(19)30)25-26-22-18(3)27-28(24(22)31)14-4-5-15-29/h6-11,25,29-30H,4-5,14-15H2,1-3H3/b26-22-
InChIKey=LDFMAVXFFBPAPC-ROMGYVFFSA-N

> <PUBCHEM_SUBSTANCE_SYNONYM>
SCHEMBL16109448

> <PUBCHEM_XREF_EXT_ID>
SCHEMBL16109448

> <PUBCHEM_EXT_DATASOURCE_URL>
https://www.surechembl.org/

> <PUBCHEM_EXT_SUBSTANCE_URL>
https://www.surechembl.org/chemical/SCHEMBL16109448

> <PUBCHEM_CID_ASSOCIATIONS>
71570765  1

> <PUBCHEM_COORDINATE_TYPE>
1
3

$$$$
