310938558
  -OEChem-07211613022D

 15 16  0     0  0  0  0  0  0999 V2000
   -2.3100   -7.9600    0.0000 O   0  0  0  0  0  0  0  0  0  0  0  0
   -3.0244   -6.7225    0.0000 N   0  0  0  0  0  0  0  0  0  0  0  0
   -3.7389   -7.9600    0.0000 N   0  0  0  0  0  0  0  0  0  0  0  0
   -3.0244   -7.5475    0.0000 C   0  0  0  0  0  0  0  0  0  0  0  0
   -3.7389   -6.3100    0.0000 C   0  0  0  0  0  0  0  0  0  0  0  0
   -1.5955   -7.5475    0.0000 C   0  0  0  0  0  0  0  0  0  0  0  0
   -4.4534   -6.7225    0.0000 C   0  0  0  0  0  0  0  0  0  0  0  0
   -3.7389   -5.4850    0.0000 C   0  0  0  0  0  0  0  0  0  0  0  0
   -4.4534   -7.5475    0.0000 C   0  0  0  0  0  0  0  0  0  0  0  0
   -1.5955   -6.7225    0.0000 C   0  0  0  0  0  0  0  0  0  0  0  0
   -0.8109   -7.8024    0.0000 C   0  0  0  0  0  0  0  0  0  0  0  0
   -0.3259   -7.1350    0.0000 C   0  0  0  0  0  0  0  0  0  0  0  0
   -0.8109   -6.4675    0.0000 C   0  0  0  0  0  0  0  0  0  0  0  0
   -4.5639   -5.4850    0.0000 C   0  0  0  0  0  0  0  0  0  0  0  0
   -2.9139   -5.4850    0.0000 C   0  0  0  0  0  0  0  0  0  0  0  0
  1  4  1  0  0  0  0
  1  6  1  0  0  0  0
  2  4  1  0  0  0  0
  2  5  2  0  0  0  0
  3  4  2  0  0  0  0
  3  9  1  0  0  0  0
  5  7  1  0  0  0  0
  5  8  1  0  0  0  0
  6 10  1  0  0  0  0
  6 11  1  0  0  0  0
  7  9  2  0  0  0  0
  8 14  1  0  0  0  0
  8 15  1  0  0  0  0
 10 13  1  0  0  0  0
 11 12  1  0  0  0  0
 12 13  1  0  0  0  0
M  END
> <PUBCHEM_COMPOUND_ID_TYPE>
0

> <PUBCHEM_TOTAL_CHARGE>
0

> <PUBCHEM_SUBSTANCE_ID>
310938558

> <PUBCHEM_SUBSTANCE_VERSION>
1

> <PUBCHEM_EXT_DATASOURCE_NAME>
4488

> <PUBCHEM_EXT_DATASOURCE_REGID>
SCHEMBL16116472

> <PUBCHEM_SUBSTANCE_COMMENT>
InChI=1S/C12H18N2O/c1-9(2)11-7-8-13-12(14-11)15-10-5-3-4-6-10/h7-10H,3-6H2,1-2H3
InChIKey=FCKKRXYXMVRLJD-UHFFFAOYSA-N

> <PUBCHEM_SUBSTANCE_SYNONYM>
SCHEMBL16116472

> <PUBCHEM_XREF_EXT_ID>
SCHEMBL16116472

> <PUBCHEM_EXT_DATASOURCE_URL>
https://www.surechembl.org/

> <PUBCHEM_EXT_SUBSTANCE_URL>
https://www.surechembl.org/chemical/SCHEMBL16116472

> <PUBCHEM_CID_ASSOCIATIONS>
117605997  1

> <PUBCHEM_COORDINATE_TYPE>
1
3

> <PUBCHEM_BONDANNOTATIONS>
8  14  3
8  15  3

$$$$
