310940932
  -OEChem-07211613022D

 41 44  0     1  0  0  0  0  0999 V2000
    4.7321    0.6720    0.0000 O   0  0  0  0  0  0  0  0  0  0  0  0
    3.5958   -1.2817    0.0000 O   0  0  0  0  0  0  0  0  0  0  0  0
    1.4342    0.7829    0.0000 O   0  0  0  0  0  0  0  0  0  0  0  0
   -0.7275   -1.2817    0.0000 O   0  0  0  0  0  0  0  0  0  0  0  0
    3.5958   -2.9445    0.0000 O   0  0  0  0  0  0  0  0  0  0  0  0
   -2.8891    0.7829    0.0000 O   0  0  0  0  0  0  0  0  0  0  0  0
    2.1547   -0.4503    0.0000 N   0  0  0  0  0  0  0  0  0  0  0  0
   -0.0069   -0.0346    0.0000 N   0  0  0  0  0  0  0  0  0  0  0  0
   -2.1685   -0.4503    0.0000 N   0  0  0  0  0  0  0  0  0  0  0  0
    4.3164    0.0069    0.0000 C   0  0  3  0  0  0  0  0  0  0  0  0
    3.5958   -0.4226    0.0000 C   0  0  0  0  0  0  0  0  0  0  0  0
    3.9284    0.6859    0.0000 C   0  0  0  0  0  0  0  0  0  0  0  0
    2.8753   -0.0208    0.0000 C   0  0  3  0  0  0  0  0  0  0  0  0
    5.0231   -0.4226    0.0000 C   0  0  0  0  0  0  0  0  0  0  0  0
    2.8891    1.2956    0.0000 C   0  0  0  0  0  0  0  0  0  0  0  0
    1.4203   -0.0346    0.0000 C   0  0  0  0  0  0  0  0  0  0  0  0
    0.7414   -0.4226    0.0000 C   0  0  3  0  0  0  0  0  0  0  0  0
    2.1547    1.7390    0.0000 C   0  0  0  0  0  0  0  0  0  0  0  0
    0.7136   -1.2817    0.0000 C   0  0  0  0  0  0  0  0  0  0  0  0
    1.4480   -1.6697    0.0000 C   0  0  0  0  0  0  0  0  0  0  0  0
   -0.7136   -0.4088    0.0000 C   0  0  0  0  0  0  0  0  0  0  0  0
    2.1547    2.5427    0.0000 C   0  0  0  0  0  0  0  0  0  0  0  0
    1.4342    1.3233    0.0000 C   0  0  0  0  0  0  0  0  0  0  0  0
   -1.4480   -0.0208    0.0000 C   0  0  3  0  0  0  0  0  0  0  0  0
    1.4480   -2.5011    0.0000 C   0  0  0  0  0  0  0  0  0  0  0  0
    2.1547   -1.2817    0.0000 C   0  0  0  0  0  0  0  0  0  0  0  0
   -2.8891   -0.0346    0.0000 C   0  0  0  0  0  0  0  0  0  0  0  0
    1.4342    2.9445    0.0000 C   0  0  0  0  0  0  0  0  0  0  0  0
    0.7414    1.7251    0.0000 C   0  0  0  0  0  0  0  0  0  0  0  0
    2.8614   -2.5011    0.0000 C   0  0  0  0  0  0  0  0  0  0  0  0
   -3.5958   -0.4365    0.0000 C   0  0  0  0  0  0  0  0  0  0  0  0
    2.1547   -2.9030    0.0000 C   0  0  0  0  0  0  0  0  0  0  0  0
    2.8753   -1.6836    0.0000 C   0  0  0  0  0  0  0  0  0  0  0  0
    0.7414    2.5427    0.0000 C   0  0  0  0  0  0  0  0  0  0  0  0
   -1.4480    0.7968    0.0000 C   0  0  0  0  0  0  0  0  0  0  0  0
   -4.3302   -0.0346    0.0000 C   0  0  0  0  0  0  0  0  0  0  0  0
   -3.5958   -1.2540    0.0000 C   0  0  0  0  0  0  0  0  0  0  0  0
   -5.0231   -0.4365    0.0000 C   0  0  0  0  0  0  0  0  0  0  0  0
   -4.3164   -1.6697    0.0000 C   0  0  0  0  0  0  0  0  0  0  0  0
   -5.0231   -1.2679    0.0000 C   0  0  0  0  0  0  0  0  0  0  0  0
    4.3441   -2.5011    0.0000 C   0  0  0  0  0  0  0  0  0  0  0  0
  1 10  1  0  0  0  0
  1 12  1  0  0  0  0
  2 11  2  0  0  0  0
  3 16  2  0  0  0  0
  4 21  2  0  0  0  0
  5 30  1  0  0  0  0
  5 41  1  0  0  0  0
  6 27  2  0  0  0  0
 13  7  1  1  0  0  0
  7 16  1  0  0  0  0
 17  8  1  6  0  0  0
  8 21  1  0  0  0  0
  9 24  1  0  0  0  0
  9 27  1  0  0  0  0
 10 11  1  1  0  0  0
 10 12  1  0  0  0  0
 10 14  1  6  0  0  0
 11 13  1  0  0  0  0
 13 15  1  0  0  0  0
 15 18  1  0  0  0  0
 16 17  1  0  0  0  0
 17 19  1  0  0  0  0
 18 22  2  0  0  0  0
 18 23  1  0  0  0  0
 19 20  1  0  0  0  0
 20 25  2  0  0  0  0
 20 26  1  0  0  0  0
 21 24  1  0  0  0  0
 22 28  1  0  0  0  0
 23 29  2  0  0  0  0
 24 35  1  6  0  0  0
 25 32  1  0  0  0  0
 26 33  2  0  0  0  0
 27 31  1  0  0  0  0
 28 34  2  0  0  0  0
 29 34  1  0  0  0  0
 30 32  2  0  0  0  0
 30 33  1  0  0  0  0
 31 36  1  0  0  0  0
 31 37  1  0  0  0  0
 36 38  1  0  0  0  0
 37 39  1  0  0  0  0
 38 40  1  0  0  0  0
 39 40  1  0  0  0  0
M  END
> <PUBCHEM_COMPOUND_ID_TYPE>
0

> <PUBCHEM_TOTAL_CHARGE>
0

> <PUBCHEM_SUBSTANCE_ID>
310940932

> <PUBCHEM_SUBSTANCE_VERSION>
1

> <PUBCHEM_EXT_DATASOURCE_NAME>
4488

> <PUBCHEM_EXT_DATASOURCE_REGID>
SCHEMBL16118891

> <PUBCHEM_SUBSTANCE_COMMENT>
InChI=1S/C32H41N3O6/c1-21(33-30(38)24-12-8-5-9-13-24)29(37)35-27(19-23-14-16-25(40-3)17-15-23)31(39)34-26(28(36)32(2)20-41-32)18-22-10-6-4-7-11-22/h4,6-7,10-11,14-17,21,24,26-27H,5,8-9,12-13,18-20H2,1-3H3,(H,33,38)(H,34,39)(H,35,37)/t21-,26+,27+,32-/m1/s1
InChIKey=JXHAWXRODIYNNP-LCFAYYECSA-N

> <PUBCHEM_SUBSTANCE_SYNONYM>
SCHEMBL16118891

> <PUBCHEM_XREF_EXT_ID>
SCHEMBL16118891

> <PUBCHEM_EXT_DATASOURCE_URL>
https://www.surechembl.org/

> <PUBCHEM_EXT_SUBSTANCE_URL>
https://www.surechembl.org/chemical/SCHEMBL16118891

> <PUBCHEM_CID_ASSOCIATIONS>
117607841  1

> <PUBCHEM_COORDINATE_TYPE>
1
3

> <PUBCHEM_BONDANNOTATIONS>
10  11  5
10  14  6
24  35  6
13  7  5
17  8  6

$$$$
