310941739
  -OEChem-07211613022D

 14 15  0     1  0  0  0  0  0999 V2000
   -0.4176   -2.1899    0.0000 Cl  0  0  0  0  0  0  0  0  0  0  0  0
   -1.4770    2.1899    0.0000 F   0  0  0  0  0  0  0  0  0  0  0  0
   -0.4176    0.3362    0.0000 N   0  0  3  0  0  0  0  0  0  0  0  0
    0.9880    0.2954    0.0000 N   0  0  0  0  0  0  0  0  0  0  0  0
    0.2750   -0.0713    0.0000 C   0  0  0  0  0  0  0  0  0  0  0  0
    0.2547   -0.9066    0.0000 C   0  0  0  0  0  0  0  0  0  0  0  0
   -0.4176    1.1713    0.0000 C   0  0  0  0  0  0  0  0  0  0  0  0
   -1.2121    0.1120    0.0000 C   0  0  0  0  0  0  0  0  0  0  0  0
   -1.2121    1.4158    0.0000 C   0  0  3  0  0  0  0  0  0  0  0  0
   -1.7010    0.7436    0.0000 C   0  0  0  0  0  0  0  0  0  0  0  0
    0.9880   -1.3343    0.0000 C   0  0  0  0  0  0  0  0  0  0  0  0
   -0.4380   -1.3547    0.0000 C   0  0  0  0  0  0  0  0  0  0  0  0
    1.7010   -0.1120    0.0000 C   0  0  0  0  0  0  0  0  0  0  0  0
    1.6807   -0.9269    0.0000 C   0  0  0  0  0  0  0  0  0  0  0  0
  1 12  1  0  0  0  0
  9  2  1  6  0  0  0
  3  5  1  0  0  0  0
  3  7  1  0  0  0  0
  3  8  1  0  0  0  0
  4  5  1  0  0  0  0
  4 13  2  0  0  0  0
  5  6  2  0  0  0  0
  6 11  1  0  0  0  0
  6 12  1  0  0  0  0
  7  9  1  0  0  0  0
  8 10  1  0  0  0  0
  9 10  1  0  0  0  0
 11 14  2  0  0  0  0
 13 14  1  0  0  0  0
M  END
> <PUBCHEM_COMPOUND_ID_TYPE>
0

> <PUBCHEM_TOTAL_CHARGE>
0

> <PUBCHEM_SUBSTANCE_ID>
310941739

> <PUBCHEM_SUBSTANCE_VERSION>
1

> <PUBCHEM_EXT_DATASOURCE_NAME>
4488

> <PUBCHEM_EXT_DATASOURCE_REGID>
SCHEMBL16119770

> <PUBCHEM_SUBSTANCE_COMMENT>
InChI=1S/C10H12ClFN2/c11-6-8-2-1-4-13-10(8)14-5-3-9(12)7-14/h1-2,4,9H,3,5-7H2/t9-/m0/s1
InChIKey=UYDXHDGMMPHPQM-VIFPVBQESA-N

> <PUBCHEM_SUBSTANCE_SYNONYM>
SCHEMBL16119770

> <PUBCHEM_XREF_EXT_ID>
SCHEMBL16119770

> <PUBCHEM_EXT_DATASOURCE_URL>
https://www.surechembl.org/

> <PUBCHEM_EXT_SUBSTANCE_URL>
https://www.surechembl.org/chemical/SCHEMBL16119770

> <PUBCHEM_CID_ASSOCIATIONS>
117608506  1

> <PUBCHEM_COORDINATE_TYPE>
1
3

> <PUBCHEM_BONDANNOTATIONS>
9  2  6

$$$$
