310943363
  -OEChem-07211613022D

 36 39  0     0  0  0  0  0  0999 V2000
   -3.2184    0.0081    0.0000 O   0  0  0  0  0  0  0  0  0  0  0  0
    1.0674    0.0081    0.0000 O   0  0  0  0  0  0  0  0  0  0  0  0
   -4.6416    2.4825    0.0000 O   0  0  0  0  0  0  0  0  0  0  0  0
   -3.2184    1.6577    0.0000 N   0  0  0  0  0  0  0  0  0  0  0  0
   -1.7790    0.0081    0.0000 N   0  0  0  0  0  0  0  0  0  0  0  0
    0.3558    2.8868    0.0000 N   0  0  0  0  0  0  0  0  0  0  0  0
    1.7952    1.2372    0.0000 N   0  0  0  0  0  0  0  0  0  0  0  0
    3.9300   -0.8168    0.0000 N   0  0  0  0  0  0  0  0  0  0  0  0
    4.6416   -2.8868    0.0000 N   0  0  0  0  0  0  0  0  0  0  0  0
   -1.0674    1.2372    0.0000 C   0  0  0  0  0  0  0  0  0  0  0  0
   -0.3720    1.6577    0.0000 C   0  0  0  0  0  0  0  0  0  0  0  0
   -2.4906    1.2372    0.0000 C   0  0  0  0  0  0  0  0  0  0  0  0
   -2.5068    0.4124    0.0000 C   0  0  0  0  0  0  0  0  0  0  0  0
   -1.7790    1.6577    0.0000 C   0  0  0  0  0  0  0  0  0  0  0  0
   -0.3558    2.4825    0.0000 C   0  0  0  0  0  0  0  0  0  0  0  0
    0.3881    1.2534    0.0000 C   0  0  0  0  0  0  0  0  0  0  0  0
    1.0836    1.6577    0.0000 C   0  0  0  0  0  0  0  0  0  0  0  0
   -1.0836    0.4124    0.0000 C   0  0  0  0  0  0  0  0  0  0  0  0
    2.5068    0.0081    0.0000 C   0  0  0  0  0  0  0  0  0  0  0  0
    3.2184   -1.2372    0.0000 C   0  0  0  0  0  0  0  0  0  0  0  0
    1.7952    0.4285    0.0000 C   0  0  0  0  0  0  0  0  0  0  0  0
    3.2022   -2.0782    0.0000 C   0  0  0  0  0  0  0  0  0  0  0  0
    1.0836    2.4664    0.0000 C   0  0  0  0  0  0  0  0  0  0  0  0
    2.5068   -0.8168    0.0000 C   0  0  0  0  0  0  0  0  0  0  0  0
   -3.2022    2.4664    0.0000 C   0  0  0  0  0  0  0  0  0  0  0  0
   -3.8977    1.2534    0.0000 C   0  0  0  0  0  0  0  0  0  0  0  0
    3.2184    0.4124    0.0000 C   0  0  0  0  0  0  0  0  0  0  0  0
   -1.0836    2.8707    0.0000 C   0  0  0  0  0  0  0  0  0  0  0  0
    3.9462   -0.0081    0.0000 C   0  0  0  0  0  0  0  0  0  0  0  0
    3.9138   -2.4987    0.0000 C   0  0  0  0  0  0  0  0  0  0  0  0
   -3.9462    2.8868    0.0000 C   0  0  0  0  0  0  0  0  0  0  0  0
   -4.6416    1.6577    0.0000 C   0  0  0  0  0  0  0  0  0  0  0  0
    3.0243   -2.8707    0.0000 C   0  0  0  0  0  0  0  0  0  0  0  0
    2.4906   -2.4825    0.0000 C   0  0  0  0  0  0  0  0  0  0  0  0
   -3.9462    0.4124    0.0000 C   0  0  0  0  0  0  0  0  0  0  0  0
   -4.6254   -0.0242    0.0000 C   0  0  0  0  0  0  0  0  0  0  0  0
  1 13  1  0  0  0  0
  1 35  1  0  0  0  0
  2 21  2  0  0  0  0
  3 31  1  0  0  0  0
  3 32  1  0  0  0  0
  4 12  1  0  0  0  0
  4 25  1  0  0  0  0
  4 26  1  0  0  0  0
  5 13  2  0  0  0  0
  5 18  1  0  0  0  0
  6 15  1  0  0  0  0
  6 23  2  0  0  0  0
  7 17  1  0  0  0  0
  7 21  1  0  0  0  0
  8 20  2  0  0  0  0
  8 29  1  0  0  0  0
  9 30  3  0  0  0  0
 10 11  1  0  0  0  0
 10 14  1  0  0  0  0
 10 18  2  0  0  0  0
 11 15  2  0  0  0  0
 11 16  1  0  0  0  0
 12 13  1  0  0  0  0
 12 14  2  0  0  0  0
 15 28  1  0  0  0  0
 16 17  2  0  0  0  0
 17 23  1  0  0  0  0
 19 21  1  0  0  0  0
 19 24  2  0  0  0  0
 19 27  1  0  0  0  0
 20 22  1  0  0  0  0
 20 24  1  0  0  0  0
 22 30  1  0  0  0  0
 22 33  1  0  0  0  0
 22 34  1  0  0  0  0
 25 31  1  0  0  0  0
 26 32  1  0  0  0  0
 27 29  2  0  0  0  0
 35 36  1  0  0  0  0
M  END
> <PUBCHEM_COMPOUND_ID_TYPE>
0

> <PUBCHEM_TOTAL_CHARGE>
0

> <PUBCHEM_SUBSTANCE_ID>
310943363

> <PUBCHEM_SUBSTANCE_VERSION>
1

> <PUBCHEM_EXT_DATASOURCE_NAME>
4488

> <PUBCHEM_EXT_DATASOURCE_REGID>
SCHEMBL16121426

> <PUBCHEM_SUBSTANCE_COMMENT>
InChI=1S/C27H30N6O3/c1-5-36-26-23(33-8-10-35-11-9-33)12-20(15-31-26)22-14-21(16-30-18(22)2)32-25(34)19-6-7-29-24(13-19)27(3,4)17-28/h6-7,12-16H,5,8-11H2,1-4H3,(H,32,34)
InChIKey=QQHGUFHYJMRAMI-UHFFFAOYSA-N

> <PUBCHEM_SUBSTANCE_SYNONYM>
SCHEMBL16121426

> <PUBCHEM_XREF_EXT_ID>
SCHEMBL16121426

> <PUBCHEM_EXT_DATASOURCE_URL>
https://www.surechembl.org/

> <PUBCHEM_EXT_SUBSTANCE_URL>
https://www.surechembl.org/chemical/SCHEMBL16121426

> <PUBCHEM_CID_ASSOCIATIONS>
117609787  1

> <PUBCHEM_COORDINATE_TYPE>
1
3

$$$$
