310947819
  -OEChem-07211613022D

 24 24  0     1  0  0  0  0  0999 V2000
    3.5359   -1.5701    0.0000 S   0  0  0  0  0  0  0  0  0  0  0  0
    2.7076   -1.5701    0.0000 O   0  0  0  0  0  0  0  0  0  0  0  0
   -0.1483   -1.5701    0.0000 O   0  0  0  0  0  0  0  0  0  0  0  0
   -0.1483    1.7309    0.0000 O   0  0  0  0  0  0  0  0  0  0  0  0
   -1.5701    0.9026    0.0000 O   0  0  0  0  0  0  0  0  0  0  0  0
    3.9439   -2.2872    0.0000 O   0  0  0  0  0  0  0  0  0  0  0  0
    3.9439   -0.8531    0.0000 O   0  0  0  0  0  0  0  0  0  0  0  0
    4.3518   -1.5701    0.0000 O   0  0  0  0  0  0  0  0  0  0  0  0
    0.5934   -0.3338    0.0000 N   0  0  0  0  0  0  0  0  0  0  0  0
    2.0152   -1.1498    0.0000 N   0  0  0  0  0  0  0  0  0  0  0  0
   -0.8407    0.4946    0.0000 N   0  0  0  0  0  0  0  0  0  0  0  0
   -3.5606    0.3214    0.0000 N   0  0  0  0  0  0  0  0  0  0  0  0
    0.5934    0.4946    0.0000 C   0  0  3  0  0  0  0  0  0  0  0  0
    0.6058   -1.1374    0.0000 C   0  0  0  0  0  0  0  0  0  0  0  0
   -0.1731    0.8778    0.0000 C   0  0  0  0  0  0  0  0  0  0  0  0
    1.2981   -0.7418    0.0000 C   0  0  0  0  0  0  0  0  0  0  0  0
    1.2858    0.9026    0.0000 C   0  0  0  0  0  0  0  0  0  0  0  0
    1.9905   -0.3462    0.0000 C   0  0  0  0  0  0  0  0  0  0  0  0
    2.0028    0.4946    0.0000 C   0  0  0  0  0  0  0  0  0  0  0  0
   -2.2625    0.4946    0.0000 C   0  0  0  0  0  0  0  0  0  0  0  0
   -2.9919    0.9149    0.0000 C   0  0  3  0  0  0  0  0  0  0  0  0
   -3.2021    1.6938    0.0000 C   0  0  0  0  0  0  0  0  0  0  0  0
   -4.3518    0.5192    0.0000 C   0  0  0  0  0  0  0  0  0  0  0  0
   -2.6210    2.2872    0.0000 C   0  0  0  0  0  0  0  0  0  0  0  0
  1  2  1  0  0  0  0
  1  6  2  0  0  0  0
  1  7  2  0  0  0  0
  1  8  1  0  0  0  0
  2 10  1  0  0  0  0
  3 14  2  0  0  0  0
  4 15  2  0  0  0  0
  5 11  1  0  0  0  0
  5 20  1  0  0  0  0
  9 13  1  0  0  0  0
  9 14  1  0  0  0  0
  9 16  1  0  0  0  0
 10 14  1  0  0  0  0
 11 15  1  0  0  0  0
 12 21  1  0  0  0  0
 12 23  1  0  0  0  0
 13 15  1  6  0  0  0
 13 17  1  0  0  0  0
 16 18  1  0  0  0  0
 17 19  1  0  0  0  0
 18 19  1  0  0  0  0
 20 21  1  0  0  0  0
 21 22  1  0  0  0  0
 22 24  1  0  0  0  0
M  END
> <PUBCHEM_COMPOUND_ID_TYPE>
0

> <PUBCHEM_TOTAL_CHARGE>
0

> <PUBCHEM_SUBSTANCE_ID>
310947819

> <PUBCHEM_SUBSTANCE_VERSION>
1

> <PUBCHEM_EXT_DATASOURCE_NAME>
4488

> <PUBCHEM_EXT_DATASOURCE_REGID>
SCHEMBL16125991

> <PUBCHEM_SUBSTANCE_COMMENT>
InChI=1S/C12H24N4O7S/c1-3-9(13-2)8-22-14-11(17)10-6-4-5-7-16(10)12(18)15-23-24(19,20)21/h9-10,13H,3-8H2,1-2H3,(H,14,17)(H,15,18)(H,19,20,21)/t9?,10-/m0/s1
InChIKey=GTFUXSSFGOQAGJ-AXDSSHIGSA-N

> <PUBCHEM_SUBSTANCE_SYNONYM>
SCHEMBL16125991

> <PUBCHEM_XREF_EXT_ID>
SCHEMBL16125991

> <PUBCHEM_EXT_DATASOURCE_URL>
https://www.surechembl.org/

> <PUBCHEM_EXT_SUBSTANCE_URL>
https://www.surechembl.org/chemical/SCHEMBL16125991

> <PUBCHEM_CID_ASSOCIATIONS>
117613487  1

> <PUBCHEM_COORDINATE_TYPE>
1
3

> <PUBCHEM_BONDANNOTATIONS>
13  15  6

$$$$
