310945021
  -OEChem-07211613022D

 35 39  0     0  0  0  0  0  0999 V2000
   -4.0701   -1.2157    0.0000 S   0  0  0  0  0  0  0  0  0  0  0  0
    2.5372    2.3962    0.0000 O   0  0  0  0  0  0  0  0  0  0  0  0
    3.9115   -2.3610    0.0000 O   0  0  0  0  0  0  0  0  0  0  0  0
    4.6340   -1.1277    0.0000 O   0  0  0  0  0  0  0  0  0  0  0  0
   -4.2110   -2.5196    0.0000 N   0  0  0  0  0  0  0  0  0  0  0  0
   -0.4405    0.0705    0.0000 C   0  0  0  0  0  0  0  0  0  0  0  0
   -0.4228    0.8986    0.0000 C   0  0  0  0  0  0  0  0  0  0  0  0
    0.2995    1.3038    0.0000 C   0  0  0  0  0  0  0  0  0  0  0  0
   -1.1453   -0.3348    0.0000 C   0  0  0  0  0  0  0  0  0  0  0  0
    0.2995   -0.3348    0.0000 C   0  0  0  0  0  0  0  0  0  0  0  0
    1.7267    1.3215    0.0000 C   0  0  0  0  0  0  0  0  0  0  0  0
    1.0219    0.8986    0.0000 C   0  0  0  0  0  0  0  0  0  0  0  0
    1.7443    2.1143    0.0000 C   0  0  0  0  0  0  0  0  0  0  0  0
    0.3172    2.1143    0.0000 C   0  0  0  0  0  0  0  0  0  0  0  0
   -1.8677    0.0529    0.0000 C   0  0  0  0  0  0  0  0  0  0  0  0
   -1.1629   -1.1629    0.0000 C   0  0  0  0  0  0  0  0  0  0  0  0
   -2.5900   -1.1453    0.0000 C   0  0  0  0  0  0  0  0  0  0  0  0
   -1.1453    1.3038    0.0000 C   0  0  0  0  0  0  0  0  0  0  0  0
    1.0043    2.5196    0.0000 C   0  0  0  0  0  0  0  0  0  0  0  0
    0.3172   -1.1453    0.0000 C   0  0  0  0  0  0  0  0  0  0  0  0
    1.0219    0.0529    0.0000 C   0  0  0  0  0  0  0  0  0  0  0  0
   -2.5724   -0.3348    0.0000 C   0  0  0  0  0  0  0  0  0  0  0  0
   -1.8500   -1.5505    0.0000 C   0  0  0  0  0  0  0  0  0  0  0  0
   -3.3125   -1.5505    0.0000 C   0  0  0  0  0  0  0  0  0  0  0  0
    2.5372    1.0572    0.0000 C   0  0  0  0  0  0  0  0  0  0  0  0
    1.7443   -1.1453    0.0000 C   0  0  0  0  0  0  0  0  0  0  0  0
    3.0306    1.6915    0.0000 C   0  0  0  0  0  0  0  0  0  0  0  0
    1.0395   -1.5505    0.0000 C   0  0  0  0  0  0  0  0  0  0  0  0
    1.7267   -0.3348    0.0000 C   0  0  0  0  0  0  0  0  0  0  0  0
   -3.4005   -2.3786    0.0000 C   0  0  0  0  0  0  0  0  0  0  0  0
   -1.1277    2.1320    0.0000 C   0  0  0  0  0  0  0  0  0  0  0  0
    2.4844   -1.5505    0.0000 C   0  0  0  0  0  0  0  0  0  0  0  0
   -4.6340   -1.8324    0.0000 C   0  0  0  0  0  0  0  0  0  0  0  0
    3.1715   -1.1629    0.0000 C   0  0  0  0  0  0  0  0  0  0  0  0
    3.9115   -1.5329    0.0000 C   0  0  0  0  0  0  0  0  0  0  0  0
  1 24  1  0  0  0  0
  1 33  1  0  0  0  0
  2 13  1  0  0  0  0
  2 27  1  0  0  0  0
  3 35  2  0  0  0  0
  4 35  1  0  0  0  0
  5 30  1  0  0  0  0
  5 33  2  0  0  0  0
  6  7  2  0  0  0  0
  6  9  1  0  0  0  0
  6 10  1  0  0  0  0
  7  8  1  0  0  0  0
  7 18  1  0  0  0  0
  8 12  2  0  0  0  0
  8 14  1  0  0  0  0
  9 15  2  0  0  0  0
  9 16  1  0  0  0  0
 10 20  2  0  0  0  0
 10 21  1  0  0  0  0
 11 12  1  0  0  0  0
 11 13  2  0  0  0  0
 11 25  1  0  0  0  0
 13 19  1  0  0  0  0
 14 19  2  0  0  0  0
 15 22  1  0  0  0  0
 16 23  2  0  0  0  0
 17 22  2  0  0  0  0
 17 23  1  0  0  0  0
 17 24  1  0  0  0  0
 18 31  1  0  0  0  0
 20 28  1  0  0  0  0
 21 29  2  0  0  0  0
 24 30  2  0  0  0  0
 25 27  2  0  0  0  0
 26 28  2  0  0  0  0
 26 29  1  0  0  0  0
 26 32  1  0  0  0  0
 32 34  2  0  0  0  0
 34 35  1  0  0  0  0
M  END
> <PUBCHEM_COMPOUND_ID_TYPE>
0

> <PUBCHEM_TOTAL_CHARGE>
0

> <PUBCHEM_SUBSTANCE_ID>
310945021

> <PUBCHEM_SUBSTANCE_VERSION>
1

> <PUBCHEM_EXT_DATASOURCE_NAME>
4488

> <PUBCHEM_EXT_DATASOURCE_REGID>
SCHEMBL16123109

> <PUBCHEM_SUBSTANCE_COMMENT>
InChI=1S/C30H23NO3S/c1-2-26(24-12-13-27-25(17-24)15-16-34-27)30(22-6-3-20(4-7-22)5-14-29(32)33)23-10-8-21(9-11-23)28-18-31-19-35-28/h3-19H,2H2,1H3,(H,32,33)/b14-5+,30-26+
InChIKey=YPOJNYIXQQQNKD-DIQQMWIZSA-N

> <PUBCHEM_SUBSTANCE_SYNONYM>
SCHEMBL16123109

> <PUBCHEM_XREF_EXT_ID>
SCHEMBL16123109

> <PUBCHEM_EXT_DATASOURCE_URL>
https://www.surechembl.org/

> <PUBCHEM_EXT_SUBSTANCE_URL>
https://www.surechembl.org/chemical/SCHEMBL16123109

> <PUBCHEM_CID_ASSOCIATIONS>
86271377  1

> <PUBCHEM_COORDINATE_TYPE>
1
3

$$$$
