310935657
  -OEChem-07211613022D

 26 28  0     0  0  0  0  0  0999 V2000
    5.0737   -0.9487    0.0000 Cl  0  0  0  0  0  0  0  0  0  0  0  0
    0.1238   -0.4125    0.0000 F   0  0  0  0  0  0  0  0  0  0  0  0
    0.0000   -1.8150    0.0000 F   0  0  0  0  0  0  0  0  0  0  0  0
    1.3200   -1.2375    0.0000 O   0  0  0  0  0  0  0  0  0  0  0  0
    1.1550   -2.6812    0.0000 N   0  0  0  0  0  0  0  0  0  0  0  0
    2.1863   -4.9087    0.0000 N   0  0  0  0  0  0  0  0  0  0  0  0
    2.4750   -5.6925    0.0000 N   0  0  0  0  0  0  0  0  0  0  0  0
    1.1137   -5.6925    0.0000 N   0  0  0  0  0  0  0  0  0  0  0  0
    2.5162   -8.2499    0.0000 N   0  0  0  0  0  0  0  0  0  0  0  0
    2.4750   -2.0625    0.0000 C   0  0  0  0  0  0  0  0  0  0  0  0
    1.6500   -1.9800    0.0000 C   0  0  0  0  0  0  0  0  0  0  0  0
    2.9287   -1.4025    0.0000 C   0  0  0  0  0  0  0  0  0  0  0  0
    2.3513   -3.5062    0.0000 C   0  0  0  0  0  0  0  0  0  0  0  0
    2.8050   -2.8050    0.0000 C   0  0  0  0  0  0  0  0  0  0  0  0
    2.6812   -4.2487    0.0000 C   0  0  0  0  0  0  0  0  0  0  0  0
    1.4850   -3.3825    0.0000 C   0  0  0  0  0  0  0  0  0  0  0  0
    3.7537   -1.5262    0.0000 C   0  0  0  0  0  0  0  0  0  0  0  0
    2.6400   -0.6600    0.0000 C   0  0  0  0  0  0  0  0  0  0  0  0
    1.7737   -6.1875    0.0000 C   0  0  0  0  0  0  0  0  0  0  0  0
    1.3612   -4.9087    0.0000 C   0  0  0  0  0  0  0  0  0  0  0  0
    4.2487   -0.8250    0.0000 C   0  0  0  0  0  0  0  0  0  0  0  0
    0.4950   -1.1550    0.0000 C   0  0  0  0  0  0  0  0  0  0  0  0
    3.0937    0.0000    0.0000 C   0  0  0  0  0  0  0  0  0  0  0  0
    3.9187   -0.0825    0.0000 C   0  0  0  0  0  0  0  0  0  0  0  0
    1.7737   -7.0124    0.0000 C   0  0  0  0  0  0  0  0  0  0  0  0
    2.5162   -7.4250    0.0000 C   0  0  0  0  0  0  0  0  0  0  0  0
  1 21  1  0  0  0  0
  2 22  1  0  0  0  0
  3 22  1  0  0  0  0
  4 11  1  0  0  0  0
  4 22  1  0  0  0  0
  5 11  2  0  0  0  0
  5 16  1  0  0  0  0
  6  7  1  0  0  0  0
  6 15  1  0  0  0  0
  6 20  1  0  0  0  0
  7 19  2  0  0  0  0
  8 19  1  0  0  0  0
  8 20  2  0  0  0  0
  9 26  3  0  0  0  0
 10 11  1  0  0  0  0
 10 12  1  0  0  0  0
 10 14  2  0  0  0  0
 12 17  1  0  0  0  0
 12 18  2  0  0  0  0
 13 14  1  0  0  0  0
 13 15  1  0  0  0  0
 13 16  2  0  0  0  0
 17 21  2  0  0  0  0
 18 23  1  0  0  0  0
 19 25  1  0  0  0  0
 21 24  1  0  0  0  0
 23 24  2  0  0  0  0
 25 26  1  0  0  0  0
M  END
> <PUBCHEM_COMPOUND_ID_TYPE>
0

> <PUBCHEM_TOTAL_CHARGE>
0

> <PUBCHEM_SUBSTANCE_ID>
310935657

> <PUBCHEM_SUBSTANCE_VERSION>
1

> <PUBCHEM_EXT_DATASOURCE_NAME>
4488

> <PUBCHEM_EXT_DATASOURCE_REGID>
SCHEMBL16113238

> <PUBCHEM_SUBSTANCE_COMMENT>
InChI=1S/C17H12ClF2N5O/c18-13-3-1-2-12(7-13)14-6-11(8-22-16(14)26-17(19)20)9-25-10-23-15(24-25)4-5-21/h1-3,6-8,10,17H,4,9H2
InChIKey=KRARMLZLFIVZMH-UHFFFAOYSA-N

> <PUBCHEM_SUBSTANCE_SYNONYM>
SCHEMBL16113238

> <PUBCHEM_XREF_EXT_ID>
SCHEMBL16113238

> <PUBCHEM_EXT_DATASOURCE_URL>
https://www.surechembl.org/

> <PUBCHEM_EXT_SUBSTANCE_URL>
https://www.surechembl.org/chemical/SCHEMBL16113238

> <PUBCHEM_CID_ASSOCIATIONS>
117603668  1

> <PUBCHEM_COORDINATE_TYPE>
1
3

$$$$
