310942843
  -OEChem-07211613022D

 58 63  0     1  0  0  0  0  0999 V2000
   -2.6839    3.3402    0.0000 F   0  0  0  0  0  0  0  0  0  0  0  0
   -2.6839    0.0166    0.0000 F   0  0  0  0  0  0  0  0  0  0  0  0
    3.7806    1.4292    0.0000 F   0  0  0  0  0  0  0  0  0  0  0  0
   -0.3074    7.0960    0.0000 F   0  0  0  0  0  0  0  0  0  0  0  0
   -0.1745    1.5621    0.0000 O   0  0  0  0  0  0  0  0  0  0  0  0
    2.3348    4.7195    0.0000 O   0  0  0  0  0  0  0  0  0  0  0  0
   -1.1217   -0.3988    0.0000 O   0  0  0  0  0  0  0  0  0  0  0  0
   -3.7806   -5.0352    0.0000 O   0  0  0  0  0  0  0  0  0  0  0  0
   -1.7366   -7.0960    0.0000 O   0  0  0  0  0  0  0  0  0  0  0  0
   -0.1080   -1.3959    0.0000 O   0  0  0  0  0  0  0  0  0  0  0  0
   -1.6369   -3.9385    0.0000 O   0  0  0  0  0  0  0  0  0  0  0  0
   -0.3573    3.5064    0.0000 N   0  0  0  0  0  0  0  0  0  0  0  0
    1.2048    1.9443    0.0000 N   0  0  0  0  0  0  0  0  0  0  0  0
   -0.4902    2.1603    0.0000 N   0  0  0  0  0  0  0  0  0  0  0  0
    0.8392    0.5650    0.0000 N   0  0  0  0  0  0  0  0  0  0  0  0
    2.4512   -0.2493    0.0000 N   0  0  0  0  0  0  0  0  0  0  0  0
   -2.6007   -5.8994    0.0000 N   0  0  0  0  0  0  0  0  0  0  0  0
   -1.4873   -1.7615    0.0000 N   0  0  0  0  0  0  0  0  0  0  0  0
    0.0582    2.8085    0.0000 C   0  0  0  0  0  0  0  0  0  0  0  0
    0.8891    2.6922    0.0000 C   0  0  3  0  0  0  0  0  0  0  0  0
   -1.2713    2.5094    0.0000 C   0  0  0  0  0  0  0  0  0  0  0  0
   -1.1550    3.3402    0.0000 C   0  0  0  0  0  0  0  0  0  0  0  0
    1.3710    3.3734    0.0000 C   0  0  0  0  0  0  0  0  0  0  0  0
   -1.9692    2.0938    0.0000 C   0  0  0  0  0  0  0  0  0  0  0  0
    0.6398    1.3627    0.0000 C   0  0  0  0  0  0  0  0  0  0  0  0
   -0.0249    4.2709    0.0000 C   0  0  0  0  0  0  0  0  0  0  0  0
    2.0357    1.8446    0.0000 C   0  0  0  0  0  0  0  0  0  0  0  0
   -2.7005    2.5094    0.0000 C   0  0  0  0  0  0  0  0  0  0  0  0
   -1.9858    1.2630    0.0000 C   0  0  0  0  0  0  0  0  0  0  0  0
    2.3515    1.0968    0.0000 C   0  0  3  0  0  0  0  0  0  0  0  0
    1.0387    4.1047    0.0000 C   0  0  0  0  0  0  0  0  0  0  0  0
    2.2018    3.2904    0.0000 C   0  0  0  0  0  0  0  0  0  0  0  0
   -0.5068    4.9189    0.0000 C   0  0  0  0  0  0  0  0  0  0  0  0
   -2.6839    0.8642    0.0000 C   0  0  0  0  0  0  0  0  0  0  0  0
   -3.3984    2.0938    0.0000 C   0  0  0  0  0  0  0  0  0  0  0  0
    3.1491    0.8974    0.0000 C   0  0  3  0  0  0  0  0  0  0  0  0
   -3.4150    1.2796    0.0000 C   0  0  0  0  0  0  0  0  0  0  0  0
    1.5039    4.7860    0.0000 C   0  0  0  0  0  0  0  0  0  0  0  0
    2.6672    3.9717    0.0000 C   0  0  0  0  0  0  0  0  0  0  0  0
    1.9360    0.3656    0.0000 C   0  0  0  0  0  0  0  0  0  0  0  0
   -0.1745    5.6834    0.0000 C   0  0  0  0  0  0  0  0  0  0  0  0
   -1.3046    4.8524    0.0000 C   0  0  0  0  0  0  0  0  0  0  0  0
    0.2576   -0.0166    0.0000 C   0  0  3  0  0  0  0  0  0  0  0  0
    3.2155    0.0664    0.0000 C   0  0  0  0  0  0  0  0  0  0  0  0
   -0.6564    6.3481    0.0000 C   0  0  0  0  0  0  0  0  0  0  0  0
   -1.7864    5.5006    0.0000 C   0  0  0  0  0  0  0  0  0  0  0  0
   -1.4540    6.2484    0.0000 C   0  0  0  0  0  0  0  0  0  0  0  0
   -0.5401    0.1828    0.0000 C   0  0  0  0  0  0  0  0  0  0  0  0
    0.4736   -0.8144    0.0000 C   0  0  0  0  0  0  0  0  0  0  0  0
   -3.3984   -5.7831    0.0000 C   0  0  0  0  0  0  0  0  0  0  0  0
   -2.5010   -6.6971    0.0000 C   0  0  0  0  0  0  0  0  0  0  0  0
   -0.9224   -1.1467    0.0000 C   0  0  0  0  0  0  0  0  0  0  0  0
   -3.7806   -6.5142    0.0000 C   0  0  0  0  0  0  0  0  0  0  0  0
   -3.1657   -7.0793    0.0000 C   0  0  0  0  0  0  0  0  0  0  0  0
   -2.0024   -5.3177    0.0000 C   0  0  0  0  0  0  0  0  0  0  0  0
   -2.2184   -4.5201    0.0000 C   0  0  0  0  0  0  0  0  0  0  0  0
   -1.2713   -2.5592    0.0000 C   0  0  0  0  0  0  0  0  0  0  0  0
   -1.8362   -3.1574    0.0000 C   0  0  0  0  0  0  0  0  0  0  0  0
  1 28  1  0  0  0  0
  2 34  1  0  0  0  0
 36  3  1  1  0  0  0
  4 45  1  0  0  0  0
  5 25  2  0  0  0  0
  6 38  1  0  0  0  0
  6 39  1  0  0  0  0
  7 48  1  0  0  0  0
  7 52  1  0  0  0  0
  8 50  2  0  0  0  0
  9 51  2  0  0  0  0
 10 52  2  0  0  0  0
 11 56  1  0  0  0  0
 11 58  1  0  0  0  0
 12 19  1  0  0  0  0
 12 22  1  0  0  0  0
 12 26  1  0  0  0  0
 20 13  1  1  0  0  0
 13 25  1  0  0  0  0
 13 27  1  0  0  0  0
 14 19  2  0  0  0  0
 14 21  1  0  0  0  0
 15 25  1  0  0  0  0
 15 43  1  0  0  0  0
 16 40  1  0  0  0  0
 16 44  1  0  0  0  0
 17 50  1  0  0  0  0
 17 51  1  0  0  0  0
 17 55  1  0  0  0  0
 18 52  1  0  0  0  0
 18 57  1  0  0  0  0
 19 20  1  0  0  0  0
 20 23  1  0  0  0  0
 21 22  2  0  0  0  0
 21 24  1  0  0  0  0
 23 31  1  0  0  0  0
 23 32  1  0  0  0  0
 24 28  2  0  0  0  0
 24 29  1  0  0  0  0
 26 33  1  0  0  0  0
 30 27  1  1  0  0  0
 28 35  1  0  0  0  0
 29 34  2  0  0  0  0
 30 36  1  0  0  0  0
 30 40  1  0  0  0  0
 31 38  1  0  0  0  0
 32 39  1  0  0  0  0
 33 41  1  0  0  0  0
 33 42  2  0  0  0  0
 34 37  1  0  0  0  0
 35 37  2  0  0  0  0
 36 44  1  0  0  0  0
 41 45  2  0  0  0  0
 42 46  1  0  0  0  0
 43 48  1  0  0  0  0
 43 49  1  1  0  0  0
 45 47  1  0  0  0  0
 46 47  2  0  0  0  0
 50 53  1  0  0  0  0
 51 54  1  0  0  0  0
 53 54  2  0  0  0  0
 55 56  1  0  0  0  0
 57 58  1  0  0  0  0
M  END
> <PUBCHEM_COMPOUND_ID_TYPE>
0

> <PUBCHEM_TOTAL_CHARGE>
0

> <PUBCHEM_SUBSTANCE_ID>
310942843

> <PUBCHEM_SUBSTANCE_VERSION>
1

> <PUBCHEM_EXT_DATASOURCE_NAME>
4488

> <PUBCHEM_EXT_DATASOURCE_REGID>
SCHEMBL16120898

> <PUBCHEM_SUBSTANCE_COMMENT>
InChI=1S/C40H47F4N7O7/c1-25(24-58-40(55)46-11-15-57-16-12-50-35(52)7-8-36(50)53)47-39(54)51(22-28-19-45-20-33(28)44)37(27-9-13-56-14-10-27)38-48-34(31-18-30(42)5-6-32(31)43)23-49(38)21-26-3-2-4-29(41)17-26/h2-8,17-18,23,25,27-28,33,37,45H,9-16,19-22,24H2,1H3,(H,46,55)(H,47,54)/t25-,28-,33-,37+/m0/s1
InChIKey=DNVLBUNPXMRJLX-RCCLDIJBSA-N

> <PUBCHEM_SUBSTANCE_SYNONYM>
SCHEMBL16120898

> <PUBCHEM_XREF_EXT_ID>
SCHEMBL16120898

> <PUBCHEM_EXT_DATASOURCE_URL>
https://www.surechembl.org/

> <PUBCHEM_EXT_SUBSTANCE_URL>
https://www.surechembl.org/chemical/SCHEMBL16120898

> <PUBCHEM_CID_ASSOCIATIONS>
117609333  1

> <PUBCHEM_COORDINATE_TYPE>
1
3

> <PUBCHEM_BONDANNOTATIONS>
20  13  5
30  27  5
36  3  5
43  49  5

$$$$
