310945266
  -OEChem-07211613022D

 37 42  0     0  0  0  0  0  0999 V2000
    5.2241    0.1863    0.0000 O   0  0  0  0  0  0  0  0  0  0  0  0
   -2.4677   -1.1360    0.0000 O   0  0  0  0  0  0  0  0  0  0  0  0
   -1.6296    1.7321    0.0000 O   0  0  0  0  0  0  0  0  0  0  0  0
   -4.6095   -0.7450    0.0000 O   0  0  0  0  0  0  0  0  0  0  0  0
    2.6354   -0.9126    0.0000 N   0  0  0  0  0  0  0  0  0  0  0  0
    5.0937   -1.1919    0.0000 N   0  0  0  0  0  0  0  0  0  0  0  0
    0.4936    1.2664    0.0000 N   0  0  0  0  0  0  0  0  0  0  0  0
   -2.4119    0.5401    0.0000 N   0  0  0  0  0  0  0  0  0  0  0  0
    3.8832   -0.3911    0.0000 C   0  0  0  0  0  0  0  0  0  0  0  0
    3.4362   -1.1174    0.0000 C   0  0  0  0  0  0  0  0  0  0  0  0
    4.6468   -1.8997    0.0000 C   0  0  0  0  0  0  0  0  0  0  0  0
    2.5981   -0.0745    0.0000 C   0  0  0  0  0  0  0  0  0  0  0  0
    3.3431    0.2422    0.0000 C   0  0  0  0  0  0  0  0  0  0  0  0
    3.8087   -1.8438    0.0000 C   0  0  0  0  0  0  0  0  0  0  0  0
    4.7027   -0.4469    0.0000 C   0  0  0  0  0  0  0  0  0  0  0  0
    1.8718    0.3725    0.0000 C   0  0  0  0  0  0  0  0  0  0  0  0
    4.6282   -2.7005    0.0000 C   0  0  0  0  0  0  0  0  0  0  0  0
    5.3173   -2.3467    0.0000 C   0  0  0  0  0  0  0  0  0  0  0  0
    1.9276    1.2106    0.0000 C   0  0  0  0  0  0  0  0  0  0  0  0
    3.3431    1.2478    0.0000 C   0  0  0  0  0  0  0  0  0  0  0  0
    1.1640   -0.0186    0.0000 C   0  0  0  0  0  0  0  0  0  0  0  0
    2.6167    1.6390    0.0000 C   0  0  0  0  0  0  0  0  0  0  0  0
    0.4377    0.4283    0.0000 C   0  0  0  0  0  0  0  0  0  0  0  0
    2.0208   -1.4713    0.0000 C   0  0  0  0  0  0  0  0  0  0  0  0
    1.2199    1.6576    0.0000 C   0  0  0  0  0  0  0  0  0  0  0  0
   -0.2700    0.0559    0.0000 C   0  0  0  0  0  0  0  0  0  0  0  0
   -0.9778    0.4656    0.0000 C   0  0  0  0  0  0  0  0  0  0  0  0
   -0.3073   -0.7822    0.0000 C   0  0  0  0  0  0  0  0  0  0  0  0
   -1.7041    0.1118    0.0000 C   0  0  0  0  0  0  0  0  0  0  0  0
   -1.7414   -0.7264    0.0000 C   0  0  0  0  0  0  0  0  0  0  0  0
   -1.0337   -1.1733    0.0000 C   0  0  0  0  0  0  0  0  0  0  0  0
   -2.3932    1.3782    0.0000 C   0  0  0  0  0  0  0  0  0  0  0  0
   -3.1941   -0.6891    0.0000 C   0  0  0  0  0  0  0  0  0  0  0  0
   -3.0451    1.8438    0.0000 C   0  0  0  0  0  0  0  0  0  0  0  0
   -3.8459   -1.0988    0.0000 C   0  0  0  0  0  0  0  0  0  0  0  0
   -2.9333    2.7005    0.0000 C   0  0  0  0  0  0  0  0  0  0  0  0
   -5.3173   -1.1733    0.0000 C   0  0  0  0  0  0  0  0  0  0  0  0
  1 15  2  0  0  0  0
  2 30  1  0  0  0  0
  2 33  1  0  0  0  0
  3 32  2  0  0  0  0
  4 35  1  0  0  0  0
  4 37  1  0  0  0  0
  5 10  1  0  0  0  0
  5 12  1  0  0  0  0
  5 24  1  0  0  0  0
  6 11  1  0  0  0  0
  6 15  1  0  0  0  0
  7 23  2  0  0  0  0
  7 25  1  0  0  0  0
  8 29  1  0  0  0  0
  8 32  1  0  0  0  0
  9 10  2  0  0  0  0
  9 13  1  0  0  0  0
  9 15  1  0  0  0  0
 10 14  1  0  0  0  0
 11 14  1  0  0  0  0
 11 17  1  0  0  0  0
 11 18  1  0  0  0  0
 12 13  2  0  0  0  0
 12 16  1  0  0  0  0
 13 20  1  0  0  0  0
 16 19  1  0  0  0  0
 16 21  2  0  0  0  0
 17 18  1  0  0  0  0
 19 22  1  0  0  0  0
 19 25  2  0  0  0  0
 20 22  1  0  0  0  0
 21 23  1  0  0  0  0
 23 26  1  0  0  0  0
 26 27  2  0  0  0  0
 26 28  1  0  0  0  0
 27 29  1  0  0  0  0
 28 31  2  0  0  0  0
 29 30  2  0  0  0  0
 30 31  1  0  0  0  0
 32 34  1  0  0  0  0
 33 35  1  0  0  0  0
 34 36  2  0  0  0  0
M  END
> <PUBCHEM_COMPOUND_ID_TYPE>
0

> <PUBCHEM_TOTAL_CHARGE>
0

> <PUBCHEM_SUBSTANCE_ID>
310945266

> <PUBCHEM_SUBSTANCE_VERSION>
1

> <PUBCHEM_EXT_DATASOURCE_NAME>
4488

> <PUBCHEM_EXT_DATASOURCE_REGID>
SCHEMBL16123360

> <PUBCHEM_SUBSTANCE_COMMENT>
InChI=1S/C29H30N4O4/c1-4-25(34)31-22-13-17(6-8-24(22)37-12-11-36-3)21-14-20-18(16-30-21)5-7-19-26-23(33(2)27(19)20)15-29(9-10-29)32-28(26)35/h4,6,8,13-14,16H,1,5,7,9-12,15H2,2-3H3,(H,31,34)(H,32,35)
InChIKey=AXXDETOCVQDQEN-UHFFFAOYSA-N

> <PUBCHEM_SUBSTANCE_SYNONYM>
SCHEMBL16123360

> <PUBCHEM_XREF_EXT_ID>
SCHEMBL16123360

> <PUBCHEM_EXT_DATASOURCE_URL>
https://www.surechembl.org/

> <PUBCHEM_EXT_SUBSTANCE_URL>
https://www.surechembl.org/chemical/SCHEMBL16123360

> <PUBCHEM_CID_ASSOCIATIONS>
117611331  1

> <PUBCHEM_COORDINATE_TYPE>
1
3

$$$$
