310929496
  -OEChem-07211613022D

 28 29  0     0  0  0  0  0  0999 V2000
   13.7824   -0.3883    0.0000 O   0  0  0  0  0  0  0  0  0  0  0  0
    0.0000   -1.6500    0.0000 O   0  0  0  0  0  0  0  0  0  0  0  0
   12.3751   -1.2618    0.0000 N   0  0  0  0  0  0  0  0  0  0  0  0
   13.1030   -1.6500    0.0000 C   0  0  0  0  0  0  0  0  0  0  0  0
   13.1030   -2.4750    0.0000 C   0  0  0  0  0  0  0  0  0  0  0  0
   13.8310   -1.2618    0.0000 C   0  0  0  0  0  0  0  0  0  0  0  0
   11.6471   -1.6500    0.0000 C   0  0  0  0  0  0  0  0  0  0  0  0
   12.3751   -2.9118    0.0000 C   0  0  0  0  0  0  0  0  0  0  0  0
   13.8310   -2.9118    0.0000 C   0  0  0  0  0  0  0  0  0  0  0  0
   14.5589   -1.6500    0.0000 C   0  0  0  0  0  0  0  0  0  0  0  0
   11.6471   -2.5235    0.0000 C   0  0  0  0  0  0  0  0  0  0  0  0
   14.5589   -2.4750    0.0000 C   0  0  0  0  0  0  0  0  0  0  0  0
   10.9192   -1.2618    0.0000 C   0  0  0  0  0  0  0  0  0  0  0  0
   10.1912   -1.6500    0.0000 C   0  0  0  0  0  0  0  0  0  0  0  0
   13.0545    0.0000    0.0000 C   0  0  0  0  0  0  0  0  0  0  0  0
    9.4633   -1.2618    0.0000 C   0  0  0  0  0  0  0  0  0  0  0  0
    8.7353   -1.6500    0.0000 C   0  0  0  0  0  0  0  0  0  0  0  0
    8.0074   -1.2618    0.0000 C   0  0  0  0  0  0  0  0  0  0  0  0
    7.2794   -1.6500    0.0000 C   0  0  0  0  0  0  0  0  0  0  0  0
    6.5515   -1.2618    0.0000 C   0  0  0  0  0  0  0  0  0  0  0  0
    5.8235   -1.6500    0.0000 C   0  0  0  0  0  0  0  0  0  0  0  0
    5.0956   -1.2618    0.0000 C   0  0  0  0  0  0  0  0  0  0  0  0
    4.3677   -1.6500    0.0000 C   0  0  0  0  0  0  0  0  0  0  0  0
    3.6397   -1.2618    0.0000 C   0  0  0  0  0  0  0  0  0  0  0  0
    2.9118   -1.6500    0.0000 C   0  0  0  0  0  0  0  0  0  0  0  0
    2.1838   -1.2618    0.0000 C   0  0  0  0  0  0  0  0  0  0  0  0
    1.4559   -1.6500    0.0000 C   0  0  0  0  0  0  0  0  0  0  0  0
    0.7279   -1.2618    0.0000 C   0  0  0  0  0  0  0  0  0  0  0  0
  1  6  1  0  0  0  0
  1 15  1  0  0  0  0
  2 28  1  0  0  0  0
  3  4  2  0  0  0  0
  3  7  1  0  0  0  0
  4  5  1  0  0  0  0
  4  6  1  0  0  0  0
  5  8  2  0  0  0  0
  5  9  1  0  0  0  0
  6 10  2  0  0  0  0
  7 11  2  0  0  0  0
  7 13  1  0  0  0  0
  8 11  1  0  0  0  0
  9 12  2  0  0  0  0
 10 12  1  0  0  0  0
 13 14  1  0  0  0  0
 14 16  1  0  0  0  0
 16 17  1  0  0  0  0
 17 18  1  0  0  0  0
 18 19  1  0  0  0  0
 19 20  1  0  0  0  0
 20 21  1  0  0  0  0
 21 22  1  0  0  0  0
 22 23  1  0  0  0  0
 23 24  1  0  0  0  0
 24 25  1  0  0  0  0
 25 26  1  0  0  0  0
 26 27  1  0  0  0  0
 27 28  1  0  0  0  0
M  END
> <PUBCHEM_COMPOUND_ID_TYPE>
0

> <PUBCHEM_TOTAL_CHARGE>
0

> <PUBCHEM_SUBSTANCE_ID>
310929496

> <PUBCHEM_SUBSTANCE_VERSION>
1

> <PUBCHEM_EXT_DATASOURCE_NAME>
4488

> <PUBCHEM_EXT_DATASOURCE_REGID>
SCHEMBL16106673

> <PUBCHEM_SUBSTANCE_COMMENT>
InChI=1S/C25H39NO2/c1-28-24-18-15-16-22-19-20-23(26-25(22)24)17-13-11-9-7-5-3-2-4-6-8-10-12-14-21-27/h15-16,18-20,27H,2-14,17,21H2,1H3
InChIKey=XMZCSDLUWWDQGZ-UHFFFAOYSA-N

> <PUBCHEM_SUBSTANCE_SYNONYM>
SCHEMBL16106673

> <PUBCHEM_XREF_EXT_ID>
SCHEMBL16106673

> <PUBCHEM_EXT_DATASOURCE_URL>
https://www.surechembl.org/

> <PUBCHEM_EXT_SUBSTANCE_URL>
https://www.surechembl.org/chemical/SCHEMBL16106673

> <PUBCHEM_CID_ASSOCIATIONS>
85471779  1

> <PUBCHEM_COORDINATE_TYPE>
1
3

$$$$
