310939526
  -OEChem-07211613022D

 61 67  0     1  0  0  0  0  0999 V2000
    2.2588  -13.4678    0.0000 S   0  0  0  0  0  0  0  0  0  0  0  0
   -4.3925  -10.1974    0.0000 O   0  0  0  0  0  0  0  0  0  0  0  0
   -3.2655  -10.4993    0.0000 O   0  0  0  0  0  0  0  0  0  0  0  0
   -2.7425  -11.6263    0.0000 O   0  0  0  0  0  0  0  0  0  0  0  0
   -3.8610   -7.9905    0.0000 O   0  0  0  0  0  0  0  0  0  0  0  0
   -2.7425  -13.0553    0.0000 N   0  0  0  0  0  0  0  0  0  0  0  0
    2.2588  -14.2928    0.0000 C   0  0  0  0  0  0  0  0  0  0  0  0
   -6.4870   -9.7849    0.0000 C   0  0  3  0  0  0  0  0  0  0  0  0
   -6.4870  -10.6099    0.0000 C   0  0  3  0  0  0  0  0  0  0  0  0
   -5.7024   -9.5299    0.0000 C   0  0  3  0  0  0  0  0  0  0  0  0
   -5.2175  -10.1974    0.0000 C   0  0  3  0  0  0  0  0  0  0  0  0
    1.4338  -14.2928    0.0000 C   0  0  0  0  0  0  0  0  0  0  0  0
    3.0838  -14.2928    0.0000 C   0  0  0  0  0  0  0  0  0  0  0  0
    2.2588  -15.1178    0.0000 C   0  0  0  0  0  0  0  0  0  0  0  0
   -7.9160  -10.6099    0.0000 C   0  0  0  0  0  0  0  0  0  0  0  0
   -7.9160   -9.7849    0.0000 C   0  0  0  0  0  0  0  0  0  0  0  0
   -5.7024  -10.8648    0.0000 C   0  0  0  0  0  0  0  0  0  0  0  0
   -7.2015   -9.3724    0.0000 C   0  0  0  0  0  0  0  0  0  0  0  0
   -7.2015  -11.0224    0.0000 C   0  0  0  0  0  0  0  0  0  0  0  0
   -8.6304  -11.0224    0.0000 C   0  0  0  0  0  0  0  0  0  0  0  0
   -5.2899   -8.8155    0.0000 C   0  0  0  0  0  0  0  0  0  0  0  0
    1.5444  -15.5303    0.0000 C   0  0  0  0  0  0  0  0  0  0  0  0
    1.0213  -13.5783    0.0000 C   0  0  0  0  0  0  0  0  0  0  0  0
    3.4963  -15.0072    0.0000 C   0  0  0  0  0  0  0  0  0  0  0  0
    2.9733  -15.5303    0.0000 C   0  0  0  0  0  0  0  0  0  0  0  0
    1.0213  -15.0072    0.0000 C   0  0  0  0  0  0  0  0  0  0  0  0
    3.4963  -13.5783    0.0000 C   0  0  0  0  0  0  0  0  0  0  0  0
   -8.6304   -9.3724    0.0000 C   0  0  0  0  0  0  0  0  0  0  0  0
   -3.9800  -10.9118    0.0000 C   0  0  0  0  0  0  0  0  0  0  0  0
   -4.3925  -11.6263    0.0000 C   0  0  3  0  0  0  0  0  0  0  0  0
   -9.3449  -10.6099    0.0000 C   0  0  0  0  0  0  0  0  0  0  0  0
    1.5444  -13.0553    0.0000 C   0  0  0  0  0  0  0  0  0  0  0  0
   -9.3449   -9.7849    0.0000 C   0  0  0  0  0  0  0  0  0  0  0  0
   -4.5754   -9.2280    0.0000 C   0  0  0  0  0  0  0  0  0  0  0  0
   -3.9800  -12.3408    0.0000 C   0  0  3  0  0  0  0  0  0  0  0  0
    1.5444  -16.3553    0.0000 C   0  0  0  0  0  0  0  0  0  0  0  0
    0.1963  -13.5783    0.0000 C   0  0  0  0  0  0  0  0  0  0  0  0
    4.3213  -15.0072    0.0000 C   0  0  0  0  0  0  0  0  0  0  0  0
    2.9733  -16.3553    0.0000 C   0  0  0  0  0  0  0  0  0  0  0  0
    0.1963  -15.0072    0.0000 C   0  0  0  0  0  0  0  0  0  0  0  0
    4.3213  -13.5783    0.0000 C   0  0  0  0  0  0  0  0  0  0  0  0
   -8.6304  -11.9344    0.0000 C   0  0  0  0  0  0  0  0  0  0  0  0
    2.2588  -16.7678    0.0000 C   0  0  0  0  0  0  0  0  0  0  0  0
   -0.2162  -14.2928    0.0000 C   0  0  0  0  0  0  0  0  0  0  0  0
    4.7338  -14.2928    0.0000 C   0  0  0  0  0  0  0  0  0  0  0  0
   -5.2175  -11.6263    0.0000 C   0  0  0  0  0  0  0  0  0  0  0  0
   -3.1550  -12.3408    0.0000 C   0  0  0  0  0  0  0  0  0  0  0  0
   -3.8610   -8.8155    0.0000 C   0  0  3  0  0  0  0  0  0  0  0  0
    0.8299  -13.4678    0.0000 C   0  0  0  0  0  0  0  0  0  0  0  0
   -4.3925  -13.0553    0.0000 C   0  0  0  0  0  0  0  0  0  0  0  0
   -5.6300  -12.3408    0.0000 C   0  0  0  0  0  0  0  0  0  0  0  0
   -5.2175  -13.0553    0.0000 C   0  0  0  0  0  0  0  0  0  0  0  0
    0.1154  -13.0553    0.0000 C   0  0  0  0  0  0  0  0  0  0  0  0
   -3.1465   -9.2280    0.0000 C   0  0  0  0  0  0  0  0  0  0  0  0
   -2.0280  -13.4678    0.0000 C   0  0  0  0  0  0  0  0  0  0  0  0
   -0.5991  -13.4678    0.0000 C   0  0  0  0  0  0  0  0  0  0  0  0
   -1.3135  -13.0553    0.0000 C   0  0  0  0  0  0  0  0  0  0  0  0
   -2.4320   -8.8155    0.0000 C   0  0  0  0  0  0  0  0  0  0  0  0
   -1.7175   -9.2280    0.0000 C   0  0  0  0  0  0  0  0  0  0  0  0
   -1.0031   -8.8155    0.0000 C   0  0  0  0  0  0  0  0  0  0  0  0
   -0.2886   -9.2280    0.0000 C   0  0  0  0  0  0  0  0  0  0  0  0
  1  7  1  0  0  0  0
  1 32  1  0  0  0  0
 11  2  1  6  0  0  0
  2 29  1  0  0  0  0
  3 29  2  0  0  0  0
  4 47  2  0  0  0  0
 48  5  1  1  0  0  0
  6 47  1  0  0  0  0
  6 55  1  0  0  0  0
  7 12  1  0  0  0  0
  7 13  1  0  0  0  0
  7 14  1  0  0  0  0
  8  9  1  0  0  0  0
  8 10  1  0  0  0  0
  8 18  1  6  0  0  0
  9 17  1  6  0  0  0
  9 19  1  0  0  0  0
 10 11  1  0  0  0  0
 10 21  1  1  0  0  0
 11 17  1  0  0  0  0
 12 23  2  0  0  0  0
 12 26  1  0  0  0  0
 13 24  2  0  0  0  0
 13 27  1  0  0  0  0
 14 22  2  0  0  0  0
 14 25  1  0  0  0  0
 15 16  2  0  0  0  0
 15 19  1  0  0  0  0
 15 20  1  0  0  0  0
 16 18  1  0  0  0  0
 16 28  1  0  0  0  0
 20 31  2  0  0  0  0
 20 42  1  0  0  0  0
 21 34  1  0  0  0  0
 22 36  1  0  0  0  0
 23 37  1  0  0  0  0
 24 38  1  0  0  0  0
 25 39  2  0  0  0  0
 26 40  2  0  0  0  0
 27 41  2  0  0  0  0
 28 33  2  0  0  0  0
 30 29  1  1  0  0  0
 30 35  1  0  0  0  0
 30 46  1  0  0  0  0
 31 33  1  0  0  0  0
 32 49  1  0  0  0  0
 34 48  1  0  0  0  0
 35 47  1  1  0  0  0
 35 50  1  0  0  0  0
 36 43  2  0  0  0  0
 37 44  2  0  0  0  0
 38 45  2  0  0  0  0
 39 43  1  0  0  0  0
 40 44  1  0  0  0  0
 41 45  1  0  0  0  0
 46 51  1  0  0  0  0
 48 54  1  0  0  0  0
 49 53  1  0  0  0  0
 50 52  1  0  0  0  0
 51 52  1  0  0  0  0
 53 56  1  0  0  0  0
 54 58  1  0  0  0  0
 55 57  1  0  0  0  0
 56 57  1  0  0  0  0
 58 59  1  0  0  0  0
 59 60  1  0  0  0  0
 60 61  1  0  0  0  0
M  END
> <PUBCHEM_COMPOUND_ID_TYPE>
0

> <PUBCHEM_TOTAL_CHARGE>
0

> <PUBCHEM_SUBSTANCE_ID>
310939526

> <PUBCHEM_SUBSTANCE_VERSION>
1

> <PUBCHEM_EXT_DATASOURCE_NAME>
4488

> <PUBCHEM_EXT_DATASOURCE_REGID>
SCHEMBL16117455

> <PUBCHEM_SUBSTANCE_COMMENT>
InChI=1S/C55H71NO4S/c1-3-4-10-30-46(57)33-34-47-51-37-41-23-21-22-40(2)50(41)38-42(51)39-52(47)60-54(59)49-32-18-17-31-48(49)53(58)56-35-19-5-6-20-36-61-55(43-24-11-7-12-25-43,44-26-13-8-14-27-44)45-28-15-9-16-29-45/h7-9,11-16,21-29,42,46-49,51-52,57H,3-6,10,17-20,30-39H2,1-2H3,(H,56,58)/t42-,46-,47+,48-,49+,51-,52+/m0/s1
InChIKey=WAMKMXHXDGSROD-PSVHXKEVSA-N

> <PUBCHEM_SUBSTANCE_SYNONYM>
SCHEMBL16117455

> <PUBCHEM_XREF_EXT_ID>
SCHEMBL16117455

> <PUBCHEM_EXT_DATASOURCE_URL>
https://www.surechembl.org/

> <PUBCHEM_EXT_SUBSTANCE_URL>
https://www.surechembl.org/chemical/SCHEMBL16117455

> <PUBCHEM_CID_ASSOCIATIONS>
117606822  1

> <PUBCHEM_COORDINATE_TYPE>
1
3

> <PUBCHEM_BONDANNOTATIONS>
10  21  5
11  2  6
30  29  5
35  47  5
48  5  5
8  18  6
9  17  6

$$$$
