310944924
  -OEChem-07211613022D

 40 44  0     0  0  0  0  0  0999 V2000
   -0.6456    2.3585    0.0000 Cl  0  0  0  0  0  0  0  0  0  0  0  0
    2.1522    3.0401    0.0000 F   0  0  0  0  0  0  0  0  0  0  0  0
    3.2284    2.7530    0.0000 F   0  0  0  0  0  0  0  0  0  0  0  0
    2.9235    1.6769    0.0000 F   0  0  0  0  0  0  0  0  0  0  0  0
   -4.6812   -2.6096    0.0000 O   0  0  0  0  0  0  0  0  0  0  0  0
    3.9637   -2.6096    0.0000 O   0  0  0  0  0  0  0  0  0  0  0  0
    4.6812   -1.3720    0.0000 O   0  0  0  0  0  0  0  0  0  0  0  0
   -3.2284   -1.7845    0.0000 N   0  0  0  0  0  0  0  0  0  0  0  0
   -0.3587    0.6905    0.0000 C   0  0  0  0  0  0  0  0  0  0  0  0
   -0.3767   -0.1345    0.0000 C   0  0  0  0  0  0  0  0  0  0  0  0
    0.3587    1.1030    0.0000 C   0  0  0  0  0  0  0  0  0  0  0  0
   -1.1120    1.1209    0.0000 C   0  0  0  0  0  0  0  0  0  0  0  0
   -1.0761   -0.5470    0.0000 C   0  0  0  0  0  0  0  0  0  0  0  0
    0.3587   -0.5650    0.0000 C   0  0  0  0  0  0  0  0  0  0  0  0
    0.3587    1.9280    0.0000 C   0  0  0  0  0  0  0  0  0  0  0  0
    1.0761    0.6905    0.0000 C   0  0  0  0  0  0  0  0  0  0  0  0
    1.7935    1.9280    0.0000 C   0  0  0  0  0  0  0  0  0  0  0  0
    1.0941    2.3227    0.0000 C   0  0  0  0  0  0  0  0  0  0  0  0
   -1.8653    0.8878    0.0000 C   0  0  0  0  0  0  0  0  0  0  0  0
   -1.2914    1.8742    0.0000 C   0  0  0  0  0  0  0  0  0  0  0  0
    1.7935    1.1030    0.0000 C   0  0  0  0  0  0  0  0  0  0  0  0
   -1.8115   -0.1524    0.0000 C   0  0  0  0  0  0  0  0  0  0  0  0
   -1.0941   -1.3900    0.0000 C   0  0  0  0  0  0  0  0  0  0  0  0
    2.5289    2.3585    0.0000 C   0  0  0  0  0  0  0  0  0  0  0  0
    0.3767   -1.3900    0.0000 C   0  0  0  0  0  0  0  0  0  0  0  0
    1.0761   -0.1704    0.0000 C   0  0  0  0  0  0  0  0  0  0  0  0
   -2.0805    1.6769    0.0000 C   0  0  0  0  0  0  0  0  0  0  0  0
   -2.5289   -1.3900    0.0000 C   0  0  0  0  0  0  0  0  0  0  0  0
   -2.4930   -0.5650    0.0000 C   0  0  0  0  0  0  0  0  0  0  0  0
   -1.7756   -1.7845    0.0000 C   0  0  0  0  0  0  0  0  0  0  0  0
    1.0582   -1.7845    0.0000 C   0  0  0  0  0  0  0  0  0  0  0  0
    1.7935   -0.5650    0.0000 C   0  0  0  0  0  0  0  0  0  0  0  0
    1.7756   -1.3720    0.0000 C   0  0  0  0  0  0  0  0  0  0  0  0
   -3.2463   -2.6276    0.0000 C   0  0  0  0  0  0  0  0  0  0  0  0
   -3.9637   -1.3900    0.0000 C   0  0  0  0  0  0  0  0  0  0  0  0
    2.5289   -1.8025    0.0000 C   0  0  0  0  0  0  0  0  0  0  0  0
   -3.9278   -3.0401    0.0000 C   0  0  0  0  0  0  0  0  0  0  0  0
   -4.6632   -1.8025    0.0000 C   0  0  0  0  0  0  0  0  0  0  0  0
    3.2284   -1.3900    0.0000 C   0  0  0  0  0  0  0  0  0  0  0  0
    3.9637   -1.7845    0.0000 C   0  0  0  0  0  0  0  0  0  0  0  0
  1 15  1  0  0  0  0
  2 24  1  0  0  0  0
  3 24  1  0  0  0  0
  4 24  1  0  0  0  0
  5 37  1  0  0  0  0
  5 38  1  0  0  0  0
  6 40  2  0  0  0  0
  7 40  1  0  0  0  0
  8 28  1  0  0  0  0
  8 34  1  0  0  0  0
  8 35  1  0  0  0  0
  9 10  2  0  0  0  0
  9 11  1  0  0  0  0
  9 12  1  0  0  0  0
 10 13  1  0  0  0  0
 10 14  1  0  0  0  0
 11 15  1  0  0  0  0
 11 16  2  0  0  0  0
 12 19  1  0  0  0  0
 12 20  1  0  0  0  0
 13 22  2  0  0  0  0
 13 23  1  0  0  0  0
 14 25  2  0  0  0  0
 14 26  1  0  0  0  0
 15 18  2  0  0  0  0
 16 21  1  0  0  0  0
 17 18  1  0  0  0  0
 17 21  2  0  0  0  0
 17 24  1  0  0  0  0
 19 27  1  0  0  0  0
 20 27  1  0  0  0  0
 22 29  1  0  0  0  0
 23 30  2  0  0  0  0
 25 31  1  0  0  0  0
 26 32  2  0  0  0  0
 28 29  2  0  0  0  0
 28 30  1  0  0  0  0
 31 33  2  0  0  0  0
 32 33  1  0  0  0  0
 33 36  1  0  0  0  0
 34 37  1  0  0  0  0
 35 38  1  0  0  0  0
 36 39  2  0  0  0  0
 39 40  1  0  0  0  0
M  END
> <PUBCHEM_COMPOUND_ID_TYPE>
0

> <PUBCHEM_TOTAL_CHARGE>
0

> <PUBCHEM_SUBSTANCE_ID>
310944924

> <PUBCHEM_SUBSTANCE_VERSION>
1

> <PUBCHEM_EXT_DATASOURCE_NAME>
4488

> <PUBCHEM_EXT_DATASOURCE_REGID>
SCHEMBL16123009

> <PUBCHEM_SUBSTANCE_COMMENT>
InChI=1S/C32H29ClF3NO3/c33-28-20-25(32(34,35)36)11-14-27(28)31(22-2-1-3-22)30(23-7-4-21(5-8-23)6-15-29(38)39)24-9-12-26(13-10-24)37-16-18-40-19-17-37/h4-15,20,22H,1-3,16-19H2,(H,38,39)/b15-6+,31-30+
InChIKey=CITBWVHGBMGKDO-PEACJXIOSA-N

> <PUBCHEM_SUBSTANCE_SYNONYM>
SCHEMBL16123009

> <PUBCHEM_XREF_EXT_ID>
SCHEMBL16123009

> <PUBCHEM_EXT_DATASOURCE_URL>
https://www.surechembl.org/

> <PUBCHEM_EXT_SUBSTANCE_URL>
https://www.surechembl.org/chemical/SCHEMBL16123009

> <PUBCHEM_CID_ASSOCIATIONS>
86271742  1

> <PUBCHEM_COORDINATE_TYPE>
1
3

$$$$
