310944710
  -OEChem-07211613022D

 25 27  0     0  0  0  0  0  0999 V2000
    1.5651    2.8026    0.0000 Br  0  0  0  0  0  0  0  0  0  0  0  0
   -1.3952    0.4732    0.0000 O   0  0  0  0  0  0  0  0  0  0  0  0
   -2.8026   -2.0018    0.0000 O   0  0  0  0  0  0  0  0  0  0  0  0
    2.0747   -0.3276    0.0000 O   0  0  0  0  0  0  0  0  0  0  0  0
    0.1335   -0.4974    0.0000 N   0  0  0  0  0  0  0  0  0  0  0  0
   -1.3710   -2.0018    0.0000 N   0  0  0  0  0  0  0  0  0  0  0  0
    0.1577   -1.8320    0.0000 N   0  0  0  0  0  0  0  0  0  0  0  0
   -2.0989   -0.7643    0.0000 N   0  0  0  0  0  0  0  0  0  0  0  0
    2.8026   -1.5651    0.0000 N   0  0  0  0  0  0  0  0  0  0  0  0
   -0.6430   -0.7401    0.0000 C   0  0  0  0  0  0  0  0  0  0  0  0
   -0.6673   -1.5409    0.0000 C   0  0  0  0  0  0  0  0  0  0  0  0
   -1.4195   -0.3518    0.0000 C   0  0  0  0  0  0  0  0  0  0  0  0
    0.6430   -1.1284    0.0000 C   0  0  0  0  0  0  0  0  0  0  0  0
   -2.1232   -1.5166    0.0000 C   0  0  0  0  0  0  0  0  0  0  0  0
    0.1577    0.3518    0.0000 C   0  0  0  0  0  0  0  0  0  0  0  0
    1.3952   -1.5409    0.0000 C   0  0  0  0  0  0  0  0  0  0  0  0
    0.8372    0.7401    0.0000 C   0  0  0  0  0  0  0  0  0  0  0  0
   -1.3710   -2.8026    0.0000 C   0  0  0  0  0  0  0  0  0  0  0  0
   -2.8026   -0.3518    0.0000 C   0  0  0  0  0  0  0  0  0  0  0  0
    2.0504   -1.1768    0.0000 C   0  0  0  0  0  0  0  0  0  0  0  0
    0.8614    1.5893    0.0000 C   0  0  0  0  0  0  0  0  0  0  0  0
    1.5893    0.3761    0.0000 C   0  0  0  0  0  0  0  0  0  0  0  0
    1.5409    2.0018    0.0000 C   0  0  0  0  0  0  0  0  0  0  0  0
    2.2688    0.7643    0.0000 C   0  0  0  0  0  0  0  0  0  0  0  0
    2.2688    1.5893    0.0000 C   0  0  0  0  0  0  0  0  0  0  0  0
  1 23  1  0  0  0  0
  2 12  2  0  0  0  0
  3 14  2  0  0  0  0
  4 20  2  0  0  0  0
  5 10  1  0  0  0  0
  5 13  1  0  0  0  0
  5 15  1  0  0  0  0
  6 11  1  0  0  0  0
  6 14  1  0  0  0  0
  6 18  1  0  0  0  0
  7 11  1  0  0  0  0
  7 13  2  0  0  0  0
  8 12  1  0  0  0  0
  8 14  1  0  0  0  0
  8 19  1  0  0  0  0
  9 20  1  0  0  0  0
 10 11  2  0  0  0  0
 10 12  1  0  0  0  0
 13 16  1  0  0  0  0
 15 17  1  0  0  0  0
 16 20  1  0  0  0  0
 17 21  1  0  0  0  0
 17 22  2  0  0  0  0
 21 23  2  0  0  0  0
 22 24  1  0  0  0  0
 23 25  1  0  0  0  0
 24 25  2  0  0  0  0
M  END
> <PUBCHEM_COMPOUND_ID_TYPE>
0

> <PUBCHEM_TOTAL_CHARGE>
0

> <PUBCHEM_SUBSTANCE_ID>
310944710

> <PUBCHEM_SUBSTANCE_VERSION>
1

> <PUBCHEM_EXT_DATASOURCE_NAME>
4488

> <PUBCHEM_EXT_DATASOURCE_REGID>
SCHEMBL16122789

> <PUBCHEM_SUBSTANCE_COMMENT>
InChI=1S/C16H16BrN5O3/c1-20-14-13(15(24)21(2)16(20)25)22(12(19-14)7-11(18)23)8-9-4-3-5-10(17)6-9/h3-6H,7-8H2,1-2H3,(H2,18,23)
InChIKey=RXHBKWKMILCYBO-UHFFFAOYSA-N

> <PUBCHEM_SUBSTANCE_SYNONYM>
SCHEMBL16122789

> <PUBCHEM_XREF_EXT_ID>
SCHEMBL16122789

> <PUBCHEM_EXT_DATASOURCE_URL>
https://www.surechembl.org/

> <PUBCHEM_EXT_SUBSTANCE_URL>
https://www.surechembl.org/chemical/SCHEMBL16122789

> <PUBCHEM_CID_ASSOCIATIONS>
117610932  1

> <PUBCHEM_COORDINATE_TYPE>
1
3

$$$$
