310942551
  -OEChem-07211613022D

 22 23  0     1  0  0  0  0  0999 V2000
    2.8489   -0.0139    0.0000 O   0  0  0  0  0  0  0  0  0  0  0  0
    2.1818   -2.1818    0.0000 O   0  0  0  0  0  0  0  0  0  0  0  0
   -0.4030    0.7921    0.0000 O   0  0  0  0  0  0  0  0  0  0  0  0
    2.8489    1.6816    0.0000 O   0  0  0  0  0  0  0  0  0  0  0  0
    0.2085   -0.2919    0.0000 O   0  0  0  0  0  0  0  0  0  0  0  0
    1.5148    0.8477    0.0000 N   0  0  0  0  0  0  0  0  0  0  0  0
    2.1818   -0.4586    0.0000 C   0  0  0  0  0  0  0  0  0  0  0  0
    2.1818    0.4030    0.0000 C   0  0  3  0  0  0  0  0  0  0  0  0
    2.8489   -0.9033    0.0000 C   0  0  0  0  0  0  0  0  0  0  0  0
    1.5426   -0.8755    0.0000 C   0  0  0  0  0  0  0  0  0  0  0  0
    2.8489    0.8199    0.0000 C   0  0  0  0  0  0  0  0  0  0  0  0
    0.2085    0.4030    0.0000 C   0  0  0  0  0  0  0  0  0  0  0  0
    2.8489   -1.7649    0.0000 C   0  0  0  0  0  0  0  0  0  0  0  0
    1.5148   -1.7371    0.0000 C   0  0  0  0  0  0  0  0  0  0  0  0
    3.2936    0.5698    0.0000 C   0  0  0  0  0  0  0  0  0  0  0  0
   -1.1813    0.4586    0.0000 C   0  0  0  0  0  0  0  0  0  0  0  0
   -1.8484    0.9033    0.0000 C   0  0  0  0  0  0  0  0  0  0  0  0
   -1.8205    1.7371    0.0000 C   0  0  0  0  0  0  0  0  0  0  0  0
   -2.5987    0.5142    0.0000 C   0  0  0  0  0  0  0  0  0  0  0  0
   -2.5154    2.1818    0.0000 C   0  0  0  0  0  0  0  0  0  0  0  0
   -3.2936    0.9589    0.0000 C   0  0  0  0  0  0  0  0  0  0  0  0
   -3.2658    1.7927    0.0000 C   0  0  0  0  0  0  0  0  0  0  0  0
  1  7  1  0  0  0  0
  2 13  1  0  0  0  0
  2 14  1  0  0  0  0
  3 12  1  0  0  0  0
  3 16  1  0  0  0  0
  4 11  2  0  0  0  0
  5 12  2  0  0  0  0
  8  6  1  1  0  0  0
  6 12  1  0  0  0  0
  7  8  1  0  0  0  0
  7  9  1  0  0  0  0
  7 10  1  0  0  0  0
  8 11  1  0  0  0  0
  9 13  1  0  0  0  0
 10 14  1  0  0  0  0
 11 15  1  0  0  0  0
 16 17  1  0  0  0  0
 17 18  2  0  0  0  0
 17 19  1  0  0  0  0
 18 20  1  0  0  0  0
 19 21  2  0  0  0  0
 20 22  2  0  0  0  0
 21 22  1  0  0  0  0
M  END
> <PUBCHEM_COMPOUND_ID_TYPE>
0

> <PUBCHEM_TOTAL_CHARGE>
0

> <PUBCHEM_SUBSTANCE_ID>
310942551

> <PUBCHEM_SUBSTANCE_VERSION>
1

> <PUBCHEM_EXT_DATASOURCE_NAME>
4488

> <PUBCHEM_EXT_DATASOURCE_REGID>
SCHEMBL16120592

> <PUBCHEM_SUBSTANCE_COMMENT>
InChI=1S/C16H21NO5/c1-12(18)14(16(20)7-9-21-10-8-16)17-15(19)22-11-13-5-3-2-4-6-13/h2-6,14,20H,7-11H2,1H3,(H,17,19)/t14-/m0/s1
InChIKey=CXPBFWOVBIHACM-AWEZNQCLSA-N

> <PUBCHEM_SUBSTANCE_SYNONYM>
SCHEMBL16120592

> <PUBCHEM_XREF_EXT_ID>
SCHEMBL16120592

> <PUBCHEM_EXT_DATASOURCE_URL>
https://www.surechembl.org/

> <PUBCHEM_EXT_SUBSTANCE_URL>
https://www.surechembl.org/chemical/SCHEMBL16120592

> <PUBCHEM_CID_ASSOCIATIONS>
117609107  1

> <PUBCHEM_COORDINATE_TYPE>
1
3

> <PUBCHEM_BONDANNOTATIONS>
8  6  5

$$$$
