310949722
  -OEChem-07211613022D

 26 28  0     0  0  0  0  0  0999 V2000
   -2.0325   -0.8460    0.0000 O   0  0  0  0  0  0  0  0  0  0  0  0
    0.8563   -1.6714    0.0000 O   0  0  0  0  0  0  0  0  0  0  0  0
    2.5070    0.5777    0.0000 N   0  0  0  0  0  0  0  0  0  0  0  0
    2.3626   -0.7634    0.0000 N   0  0  0  0  0  0  0  0  0  0  0  0
    0.1341   -0.4333    0.0000 N   0  0  0  0  0  0  0  0  0  0  0  0
    2.9197    1.2999    0.0000 N   0  0  0  0  0  0  0  0  0  0  0  0
    1.5578   -0.4127    0.0000 C   0  0  0  0  0  0  0  0  0  0  0  0
    2.9197   -0.1238    0.0000 C   0  0  0  0  0  0  0  0  0  0  0  0
    1.6817    0.3921    0.0000 C   0  0  0  0  0  0  0  0  0  0  0  0
    0.8769   -0.8460    0.0000 C   0  0  0  0  0  0  0  0  0  0  0  0
   -2.7753    0.3714    0.0000 C   0  0  0  0  0  0  0  0  0  0  0  0
   -2.7547   -0.4333    0.0000 C   0  0  0  0  0  0  0  0  0  0  0  0
   -2.0118    0.8254    0.0000 C   0  0  0  0  0  0  0  0  0  0  0  0
    3.7451   -0.1444    0.0000 C   0  0  0  0  0  0  0  0  0  0  0  0
    3.7451    1.2999    0.0000 C   0  0  0  0  0  0  0  0  0  0  0  0
    4.1784    0.5365    0.0000 C   0  0  0  0  0  0  0  0  0  0  0  0
   -3.4768    0.8047    0.0000 C   0  0  0  0  0  0  0  0  0  0  0  0
   -0.5468   -0.8460    0.0000 C   0  0  0  0  0  0  0  0  0  0  0  0
   -3.4975   -0.8460    0.0000 C   0  0  0  0  0  0  0  0  0  0  0  0
   -1.2896   -0.4333    0.0000 C   0  0  0  0  0  0  0  0  0  0  0  0
   -4.1784    0.3921    0.0000 C   0  0  0  0  0  0  0  0  0  0  0  0
   -4.1784   -0.4539    0.0000 C   0  0  0  0  0  0  0  0  0  0  0  0
    0.1341    0.4127    0.0000 C   0  0  0  0  0  0  0  0  0  0  0  0
   -2.0325    1.6714    0.0000 C   0  0  0  0  0  0  0  0  0  0  0  0
   -1.3309    1.2587    0.0000 C   0  0  0  0  0  0  0  0  0  0  0  0
   -1.3102    0.3921    0.0000 C   0  0  0  0  0  0  0  0  0  0  0  0
  1 12  1  0  0  0  0
  1 20  1  0  0  0  0
  2 10  2  0  0  0  0
  3  6  1  0  0  0  0
  3  8  1  0  0  0  0
  3  9  1  0  0  0  0
  4  7  1  0  0  0  0
  4  8  2  0  0  0  0
  5 10  1  0  0  0  0
  5 18  1  0  0  0  0
  5 23  1  0  0  0  0
  6 15  2  0  0  0  0
  7  9  2  0  0  0  0
  7 10  1  0  0  0  0
  8 14  1  0  0  0  0
 11 12  1  0  0  0  0
 11 13  1  0  0  0  0
 11 17  2  0  0  0  0
 12 19  2  0  0  0  0
 13 24  1  0  0  0  0
 13 25  1  0  0  0  0
 13 26  1  0  0  0  0
 14 16  2  0  0  0  0
 15 16  1  0  0  0  0
 17 21  1  0  0  0  0
 18 20  1  0  0  0  0
 19 22  1  0  0  0  0
 21 22  2  0  0  0  0
M  END
> <PUBCHEM_COMPOUND_ID_TYPE>
0

> <PUBCHEM_TOTAL_CHARGE>
0

> <PUBCHEM_SUBSTANCE_ID>
310949722

> <PUBCHEM_SUBSTANCE_VERSION>
1

> <PUBCHEM_EXT_DATASOURCE_NAME>
4488

> <PUBCHEM_EXT_DATASOURCE_REGID>
SCHEMBL16127920

> <PUBCHEM_SUBSTANCE_COMMENT>
InChI=1S/C20H24N4O2/c1-20(2,3)15-8-5-6-9-17(15)26-13-12-23(4)19(25)16-14-24-18(22-16)10-7-11-21-24/h5-11,14H,12-13H2,1-4H3
InChIKey=COWDPHQATJBADA-UHFFFAOYSA-N

> <PUBCHEM_SUBSTANCE_SYNONYM>
SCHEMBL16127920

> <PUBCHEM_XREF_EXT_ID>
SCHEMBL16127920

> <PUBCHEM_EXT_DATASOURCE_URL>
https://www.surechembl.org/

> <PUBCHEM_EXT_SUBSTANCE_URL>
https://www.surechembl.org/chemical/SCHEMBL16127920

> <PUBCHEM_CID_ASSOCIATIONS>
86272527  1

> <PUBCHEM_COORDINATE_TYPE>
1
3

$$$$
