310947348
  -OEChem-07211613022D

 41 46  0     1  0  0  0  0  0999 V2000
   -2.4935    2.4894    0.0000 O   0  0  0  0  0  0  0  0  0  0  0  0
    0.4345    0.1719    0.0000 N   0  0  0  0  0  0  0  0  0  0  0  0
    0.9194    0.8394    0.0000 N   0  0  0  0  0  0  0  0  0  0  0  0
   -3.2081    1.2519    0.0000 N   0  0  0  0  0  0  0  0  0  0  0  0
   -0.3501    0.4269    0.0000 C   0  0  0  0  0  0  0  0  0  0  0  0
   -0.3501    1.2519    0.0000 C   0  0  0  0  0  0  0  0  0  0  0  0
    0.4345    1.5068    0.0000 C   0  0  0  0  0  0  0  0  0  0  0  0
   -1.0646    1.6643    0.0000 C   0  0  0  0  0  0  0  0  0  0  0  0
   -1.7790    1.2519    0.0000 C   0  0  0  0  0  0  0  0  0  0  0  0
   -1.0646    0.0144    0.0000 C   0  0  0  0  0  0  0  0  0  0  0  0
    0.6480   -0.6248    0.0000 C   0  0  0  0  0  0  0  0  0  0  0  0
   -1.7790    0.4269    0.0000 C   0  0  0  0  0  0  0  0  0  0  0  0
    1.4448   -0.8384    0.0000 C   0  0  0  0  0  0  0  0  0  0  0  0
   -2.4935    1.6643    0.0000 C   0  0  0  0  0  0  0  0  0  0  0  0
    3.8355   -1.4790    0.0000 C   0  0  0  0  0  0  0  0  0  0  0  0
    3.0386   -1.2654    0.0000 C   0  0  0  0  0  0  0  0  0  0  0  0
    4.4187   -0.8956    0.0000 C   0  0  0  0  0  0  0  0  0  0  0  0
    4.2053   -0.0987    0.0000 C   0  0  0  0  0  0  0  0  0  0  0  0
    0.8469    2.2212    0.0000 C   0  0  0  0  0  0  0  0  0  0  0  0
    1.6583   -1.6353    0.0000 C   0  0  0  0  0  0  0  0  0  0  0  0
    2.0281   -0.2550    0.0000 C   0  0  0  0  0  0  0  0  0  0  0  0
    2.4552   -1.8488    0.0000 C   0  0  0  0  0  0  0  0  0  0  0  0
    2.8250   -0.4685    0.0000 C   0  0  0  0  0  0  0  0  0  0  0  0
   -3.9225    1.6643    0.0000 C   0  0  3  0  0  0  0  0  0  0  0  0
   -4.6369    1.2519    0.0000 C   0  0  0  0  0  0  0  0  0  0  0  0
   -6.0658    1.2519    0.0000 C   0  0  0  0  0  0  0  0  0  0  0  0
   -6.7803    1.6643    0.0000 C   0  0  0  0  0  0  0  0  0  0  0  0
    4.0490   -2.2759    0.0000 C   0  0  0  0  0  0  0  0  0  0  0  0
    5.2156   -1.1091    0.0000 C   0  0  0  0  0  0  0  0  0  0  0  0
   -5.3514    1.6643    0.0000 C   0  0  0  0  0  0  0  0  0  0  0  0
   -7.1927    2.3789    0.0000 C   0  0  0  0  0  0  0  0  0  0  0  0
   -7.6052    1.6643    0.0000 C   0  0  0  0  0  0  0  0  0  0  0  0
   -4.6369    0.4269    0.0000 C   0  0  0  0  0  0  0  0  0  0  0  0
   -6.0658    0.4269    0.0000 C   0  0  0  0  0  0  0  0  0  0  0  0
    4.8458   -2.4894    0.0000 C   0  0  0  0  0  0  0  0  0  0  0  0
    5.4292   -1.9060    0.0000 C   0  0  0  0  0  0  0  0  0  0  0  0
   -5.3514    0.0144    0.0000 C   0  0  0  0  0  0  0  0  0  0  0  0
    3.3552   -0.3265    0.0000 C   0  0  0  0  0  0  0  0  0  0  0  0
    3.9775    0.7512    0.0000 C   0  0  0  0  0  0  0  0  0  0  0  0
    5.0553    0.1290    0.0000 C   0  0  0  0  0  0  0  0  0  0  0  0
   -3.9225    2.4894    0.0000 C   0  0  0  0  0  0  0  0  0  0  0  0
  1 14  2  0  0  0  0
  2  3  1  0  0  0  0
  2  5  1  0  0  0  0
  2 11  1  0  0  0  0
  3  7  2  0  0  0  0
  4 14  1  0  0  0  0
  4 24  1  0  0  0  0
  5  6  1  0  0  0  0
  5 10  2  0  0  0  0
  6  7  1  0  0  0  0
  6  8  2  0  0  0  0
  7 19  1  0  0  0  0
  8  9  1  0  0  0  0
  9 12  2  0  0  0  0
  9 14  1  0  0  0  0
 10 12  1  0  0  0  0
 11 13  1  0  0  0  0
 13 20  2  0  0  0  0
 13 21  1  0  0  0  0
 15 16  1  0  0  0  0
 15 17  1  0  0  0  0
 15 28  2  0  0  0  0
 16 22  2  0  0  0  0
 16 23  1  0  0  0  0
 17 18  1  0  0  0  0
 17 29  2  0  0  0  0
 18 38  1  0  0  0  0
 18 39  1  0  0  0  0
 18 40  1  0  0  0  0
 20 22  1  0  0  0  0
 21 23  2  0  0  0  0
 24 25  1  0  0  0  0
 24 41  1  6  0  0  0
 25 30  2  0  0  0  0
 25 33  1  0  0  0  0
 26 27  1  0  0  0  0
 26 30  1  0  0  0  0
 26 34  2  0  0  0  0
 27 31  1  0  0  0  0
 27 32  1  0  0  0  0
 28 35  1  0  0  0  0
 29 36  1  0  0  0  0
 31 32  1  0  0  0  0
 33 37  2  0  0  0  0
 34 37  1  0  0  0  0
 35 36  2  0  0  0  0
M  END
> <PUBCHEM_COMPOUND_ID_TYPE>
0

> <PUBCHEM_TOTAL_CHARGE>
0

> <PUBCHEM_SUBSTANCE_ID>
310947348

> <PUBCHEM_SUBSTANCE_VERSION>
1

> <PUBCHEM_EXT_DATASOURCE_NAME>
4488

> <PUBCHEM_EXT_DATASOURCE_REGID>
SCHEMBL16125503

> <PUBCHEM_SUBSTANCE_COMMENT>
InChI=1S/C37H39N3O/c1-24(29-9-8-10-30(21-29)27-17-18-27)38-36(41)31-19-20-35-33(22-31)25(2)39-40(35)23-26-13-15-28(16-14-26)32-11-6-7-12-34(32)37(3,4)5/h6-16,19-22,24,27H,17-18,23H2,1-5H3,(H,38,41)/t24-/m0/s1
InChIKey=XHCFTXIHFIMZJC-DEOSSOPVSA-N

> <PUBCHEM_SUBSTANCE_SYNONYM>
SCHEMBL16125503

> <PUBCHEM_XREF_EXT_ID>
SCHEMBL16125503

> <PUBCHEM_EXT_DATASOURCE_URL>
https://www.surechembl.org/

> <PUBCHEM_EXT_SUBSTANCE_URL>
https://www.surechembl.org/chemical/SCHEMBL16125503

> <PUBCHEM_CID_ASSOCIATIONS>
117613093  1

> <PUBCHEM_COORDINATE_TYPE>
1
3

> <PUBCHEM_BONDANNOTATIONS>
24  41  6

$$$$
