310936118
  -OEChem-07211613022D

 25 25  0     1  0  0  0  0  0999 V2000
    7.8832   -1.0396    0.0000 O   0  0  0  0  0  0  0  0  0  0  0  0
    7.8362   -2.7620    0.0000 O   0  0  0  0  0  0  0  0  0  0  0  0
   10.0027   -1.2945    0.0000 O   0  0  0  0  0  0  0  0  0  0  0  0
    9.4481    0.4125    0.0000 O   0  0  0  0  0  0  0  0  0  0  0  0
    9.9796   -2.3495    0.0000 O   0  0  0  0  0  0  0  0  0  0  0  0
    7.1217   -1.5245    0.0000 O   0  0  0  0  0  0  0  0  0  0  0  0
    8.5507   -1.5245    0.0000 C   0  0  3  0  0  0  0  0  0  0  0  0
    9.2181   -1.0396    0.0000 C   0  0  3  0  0  0  0  0  0  0  0  0
    8.5507   -2.3495    0.0000 C   0  0  3  0  0  0  0  0  0  0  0  0
    8.9632   -0.2549    0.0000 C   0  0  3  0  0  0  0  0  0  0  0  0
    8.1381   -0.2549    0.0000 C   0  0  0  0  0  0  0  0  0  0  0  0
    9.2651   -2.7620    0.0000 C   0  0  0  0  0  0  0  0  0  0  0  0
    7.1217   -2.3495    0.0000 C   0  0  0  0  0  0  0  0  0  0  0  0
    6.4072   -2.7620    0.0000 C   0  0  0  0  0  0  0  0  0  0  0  0
    5.6928   -2.3495    0.0000 C   0  0  0  0  0  0  0  0  0  0  0  0
    4.9782   -2.7620    0.0000 C   0  0  0  0  0  0  0  0  0  0  0  0
    4.2638   -2.3495    0.0000 C   0  0  0  0  0  0  0  0  0  0  0  0
    3.5493   -2.7620    0.0000 C   0  0  0  0  0  0  0  0  0  0  0  0
    2.8348   -2.3495    0.0000 C   0  0  0  0  0  0  0  0  0  0  0  0
    2.1203   -2.7620    0.0000 C   0  0  0  0  0  0  0  0  0  0  0  0
    1.4058   -2.3495    0.0000 C   0  0  0  0  0  0  0  0  0  0  0  0
    0.6914   -2.7620    0.0000 C   0  0  0  0  0  0  0  0  0  0  0  0
   -0.0231   -2.3495    0.0000 C   0  0  0  0  0  0  0  0  0  0  0  0
   -0.7376   -2.7620    0.0000 C   0  0  0  0  0  0  0  0  0  0  0  0
   -1.4521   -2.3495    0.0000 C   0  0  0  0  0  0  0  0  0  0  0  0
  1  7  1  0  0  0  0
  1 11  1  0  0  0  0
  9  2  1  1  0  0  0
  2 13  1  0  0  0  0
  8  3  1  1  0  0  0
 10  4  1  6  0  0  0
  5 12  1  0  0  0  0
  6 13  2  0  0  0  0
  7  8  1  0  0  0  0
  7  9  1  1  0  0  0
  8 10  1  0  0  0  0
  9 12  1  0  0  0  0
 10 11  1  0  0  0  0
 13 14  1  0  0  0  0
 14 15  1  0  0  0  0
 15 16  1  0  0  0  0
 16 17  1  0  0  0  0
 17 18  1  0  0  0  0
 18 19  1  0  0  0  0
 19 20  1  0  0  0  0
 20 21  1  0  0  0  0
 21 22  2  3  0  0  0
 22 23  1  0  0  0  0
 23 24  1  0  0  0  0
 24 25  1  0  0  0  0
M  END
> <PUBCHEM_COMPOUND_ID_TYPE>
0

> <PUBCHEM_TOTAL_CHARGE>
0

> <PUBCHEM_SUBSTANCE_ID>
310936118

> <PUBCHEM_SUBSTANCE_VERSION>
1

> <PUBCHEM_EXT_DATASOURCE_NAME>
4488

> <PUBCHEM_EXT_DATASOURCE_REGID>
SCHEMBL16113727

> <PUBCHEM_SUBSTANCE_COMMENT>
InChI=1S/C19H34O6/c1-2-3-4-5-6-7-8-9-10-11-12-17(22)25-16(13-20)19-18(23)15(21)14-24-19/h4-5,15-16,18-21,23H,2-3,6-14H2,1H3/b5-4+/t15-,16+,18+,19+/m0/s1
InChIKey=CRVQWQJYPIKAOQ-VZOCQQRYSA-N

> <PUBCHEM_SUBSTANCE_SYNONYM>
SCHEMBL16113727

> <PUBCHEM_XREF_EXT_ID>
SCHEMBL16113727

> <PUBCHEM_EXT_DATASOURCE_URL>
https://www.surechembl.org/

> <PUBCHEM_EXT_SUBSTANCE_URL>
https://www.surechembl.org/chemical/SCHEMBL16113727

> <PUBCHEM_CID_ASSOCIATIONS>
117604083  1

> <PUBCHEM_COORDINATE_TYPE>
1
3

> <PUBCHEM_BONDANNOTATIONS>
9  2  5
21  22  1
8  3  5
10  4  6
7  9  5

$$$$
