310942609
  -OEChem-07211613022D

 60 66  0     1  0  0  0  0  0999 V2000
   -3.8700    3.4049    0.0000 F   0  0  0  0  0  0  0  0  0  0  0  0
    2.6606    2.2513    0.0000 F   0  0  0  0  0  0  0  0  0  0  0  0
   -3.8514    0.0558    0.0000 F   0  0  0  0  0  0  0  0  0  0  0  0
   -1.0606    1.6187    0.0000 O   0  0  0  0  0  0  0  0  0  0  0  0
   -0.4093   -1.5443    0.0000 O   0  0  0  0  0  0  0  0  0  0  0  0
    0.9861    5.0050    0.0000 O   0  0  0  0  0  0  0  0  0  0  0  0
    1.3396   -1.0606    0.0000 O   0  0  0  0  0  0  0  0  0  0  0  0
   -1.8606   -1.5443    0.0000 O   0  0  0  0  0  0  0  0  0  0  0  0
    3.5165   -3.5165    0.0000 O   0  0  0  0  0  0  0  0  0  0  0  0
    3.4793   -6.4562    0.0000 O   0  0  0  0  0  0  0  0  0  0  0  0
    0.1488    2.1211    0.0000 N   0  0  0  0  0  0  0  0  0  0  0  0
   -1.5071    3.5724    0.0000 N   0  0  0  0  0  0  0  0  0  0  0  0
   -1.6559    2.2327    0.0000 N   0  0  0  0  0  0  0  0  0  0  0  0
   -0.0372    0.5954    0.0000 N   0  0  0  0  0  0  0  0  0  0  0  0
    2.0281    0.2047    0.0000 N   0  0  0  0  0  0  0  0  0  0  0  0
   -1.1350   -2.7723    0.0000 N   0  0  0  0  0  0  0  0  0  0  0  0
    3.2560   -4.9864    0.0000 N   0  0  0  0  0  0  0  0  0  0  0  0
   -0.2605    2.8467    0.0000 C   0  0  3  0  0  0  0  0  0  0  0  0
   -1.0978    2.8653    0.0000 C   0  0  0  0  0  0  0  0  0  0  0  0
   -2.4374    2.5676    0.0000 C   0  0  0  0  0  0  0  0  0  0  0  0
    0.1488    3.5910    0.0000 C   0  0  0  0  0  0  0  0  0  0  0  0
   -0.2419    1.3954    0.0000 C   0  0  0  0  0  0  0  0  0  0  0  0
   -2.3071    3.4049    0.0000 C   0  0  0  0  0  0  0  0  0  0  0  0
   -3.1444    2.1583    0.0000 C   0  0  0  0  0  0  0  0  0  0  0  0
    0.9861    2.1025    0.0000 C   0  0  0  0  0  0  0  0  0  0  0  0
   -1.0978    4.3165    0.0000 C   0  0  0  0  0  0  0  0  0  0  0  0
    1.4140    1.4140    0.0000 C   0  0  3  0  0  0  0  0  0  0  0  0
   -3.8886    2.5676    0.0000 C   0  0  0  0  0  0  0  0  0  0  0  0
   -0.5581   -0.0744    0.0000 C   0  0  0  0  0  0  0  0  0  0  0  0
   -0.2419    4.2607    0.0000 C   0  0  0  0  0  0  0  0  0  0  0  0
    0.9861    3.5724    0.0000 C   0  0  0  0  0  0  0  0  0  0  0  0
    0.7443    0.2791    0.0000 C   0  0  0  0  0  0  0  0  0  0  0  0
   -0.1116   -0.7443    0.0000 C   0  0  3  0  0  0  0  0  0  0  0  0
    0.6885   -0.5209    0.0000 C   0  0  3  0  0  0  0  0  0  0  0  0
   -3.1444    1.3024    0.0000 C   0  0  0  0  0  0  0  0  0  0  0  0
   -1.5257    5.0236    0.0000 C   0  0  0  0  0  0  0  0  0  0  0  0
    2.2141    1.5257    0.0000 C   0  0  3  0  0  0  0  0  0  0  0  0
   -3.8514    0.9117    0.0000 C   0  0  0  0  0  0  0  0  0  0  0  0
   -4.5584    2.1397    0.0000 C   0  0  0  0  0  0  0  0  0  0  0  0
    1.3210    0.5954    0.0000 C   0  0  0  0  0  0  0  0  0  0  0  0
    0.1674    5.0236    0.0000 C   0  0  0  0  0  0  0  0  0  0  0  0
    1.4140    4.2979    0.0000 C   0  0  0  0  0  0  0  0  0  0  0  0
   -4.5584    1.3024    0.0000 C   0  0  0  0  0  0  0  0  0  0  0  0
    2.6048    0.7815    0.0000 C   0  0  0  0  0  0  0  0  0  0  0  0
   -2.3258    5.0236    0.0000 C   0  0  0  0  0  0  0  0  0  0  0  0
   -1.1164    5.7306    0.0000 C   0  0  0  0  0  0  0  0  0  0  0  0
   -1.1164   -1.9536    0.0000 C   0  0  0  0  0  0  0  0  0  0  0  0
   -2.7537    5.7306    0.0000 C   0  0  0  0  0  0  0  0  0  0  0  0
   -1.5071    6.4562    0.0000 C   0  0  0  0  0  0  0  0  0  0  0  0
   -2.3444    6.4376    0.0000 C   0  0  0  0  0  0  0  0  0  0  0  0
   -0.3349   -2.8095    0.0000 C   0  0  0  0  0  0  0  0  0  0  0  0
    3.7584   -5.6190    0.0000 C   0  0  0  0  0  0  0  0  0  0  0  0
    3.7770   -4.3165    0.0000 C   0  0  0  0  0  0  0  0  0  0  0  0
    4.5398   -5.4143    0.0000 C   0  0  0  0  0  0  0  0  0  0  0  0
    4.5584   -4.5956    0.0000 C   0  0  0  0  0  0  0  0  0  0  0  0
   -0.0372   -3.4979    0.0000 C   0  0  0  0  0  0  0  0  0  0  0  0
    2.4374   -4.9678    0.0000 C   0  0  0  0  0  0  0  0  0  0  0  0
    2.0467   -4.2607    0.0000 C   0  0  0  0  0  0  0  0  0  0  0  0
    0.8001   -3.5351    0.0000 C   0  0  0  0  0  0  0  0  0  0  0  0
    1.1908   -4.2235    0.0000 C   0  0  0  0  0  0  0  0  0  0  0  0
  1 28  1  0  0  0  0
 37  2  1  1  0  0  0
  3 38  1  0  0  0  0
  4 22  2  0  0  0  0
 33  5  1  1  0  0  0
  5 47  1  0  0  0  0
  6 41  1  0  0  0  0
  6 42  1  0  0  0  0
 34  7  1  1  0  0  0
  8 47  2  0  0  0  0
  9 53  2  0  0  0  0
 10 52  2  0  0  0  0
 18 11  1  1  0  0  0
 11 22  1  0  0  0  0
 11 25  1  0  0  0  0
 12 19  1  0  0  0  0
 12 23  1  0  0  0  0
 12 26  1  0  0  0  0
 13 19  2  0  0  0  0
 13 20  1  0  0  0  0
 14 22  1  0  0  0  0
 14 29  1  0  0  0  0
 14 32  1  0  0  0  0
 15 40  1  0  0  0  0
 15 44  1  0  0  0  0
 16 47  1  0  0  0  0
 16 51  1  0  0  0  0
 17 52  1  0  0  0  0
 17 53  1  0  0  0  0
 17 57  1  0  0  0  0
 18 19  1  0  0  0  0
 18 21  1  0  0  0  0
 20 23  2  0  0  0  0
 20 24  1  0  0  0  0
 21 30  1  0  0  0  0
 21 31  1  0  0  0  0
 24 28  1  0  0  0  0
 24 35  2  0  0  0  0
 27 25  1  1  0  0  0
 26 36  1  0  0  0  0
 27 37  1  0  0  0  0
 27 40  1  0  0  0  0
 28 39  2  0  0  0  0
 29 33  1  0  0  0  0
 30 41  1  0  0  0  0
 31 42  1  0  0  0  0
 32 34  1  0  0  0  0
 33 34  1  0  0  0  0
 35 38  1  0  0  0  0
 36 45  2  0  0  0  0
 36 46  1  0  0  0  0
 37 44  1  0  0  0  0
 38 43  2  0  0  0  0
 39 43  1  0  0  0  0
 45 48  1  0  0  0  0
 46 49  2  0  0  0  0
 48 50  2  0  0  0  0
 49 50  1  0  0  0  0
 51 56  1  0  0  0  0
 52 54  1  0  0  0  0
 53 55  1  0  0  0  0
 54 55  2  0  0  0  0
 56 59  1  0  0  0  0
 57 58  1  0  0  0  0
 58 60  1  0  0  0  0
 59 60  1  0  0  0  0
M  END
> <PUBCHEM_COMPOUND_ID_TYPE>
0

> <PUBCHEM_TOTAL_CHARGE>
0

> <PUBCHEM_SUBSTANCE_ID>
310942609

> <PUBCHEM_SUBSTANCE_VERSION>
1

> <PUBCHEM_EXT_DATASOURCE_NAME>
4488

> <PUBCHEM_EXT_DATASOURCE_REGID>
SCHEMBL16120655

> <PUBCHEM_SUBSTANCE_COMMENT>
InChI=1S/C43H52F3N7O7/c44-31-10-11-33(45)32(20-31)35-25-50(23-28-8-4-3-5-9-28)41(49-35)40(29-14-18-59-19-15-29)53(24-30-21-47-22-34(30)46)43(58)51-26-36(54)37(27-51)60-42(57)48-16-6-1-2-7-17-52-38(55)12-13-39(52)56/h3-5,8-13,20,25,29-30,34,36-37,40,47,54H,1-2,6-7,14-19,21-24,26-27H2,(H,48,57)/t30-,34-,36+,37-,40+/m0/s1
InChIKey=GDLYFJGGWDBUMM-CMQDUCFUSA-N

> <PUBCHEM_SUBSTANCE_SYNONYM>
SCHEMBL16120655

> <PUBCHEM_XREF_EXT_ID>
SCHEMBL16120655

> <PUBCHEM_EXT_DATASOURCE_URL>
https://www.surechembl.org/

> <PUBCHEM_EXT_SUBSTANCE_URL>
https://www.surechembl.org/chemical/SCHEMBL16120655

> <PUBCHEM_CID_ASSOCIATIONS>
117609142  1

> <PUBCHEM_COORDINATE_TYPE>
1
3

> <PUBCHEM_BONDANNOTATIONS>
18  11  5
37  2  5
27  25  5
33  5  5
34  7  5

$$$$
