310940749
  -OEChem-07211613022D

 29 30  0     1  0  0  0  0  0999 V2000
   -2.2532    1.1302    0.0000 S   0  0  0  0  0  0  0  0  0  0  0  0
   -4.4127   -0.6983    0.0000 O   0  0  0  0  0  0  0  0  0  0  0  0
   -1.5764   -2.5699    0.0000 O   0  0  0  0  0  0  0  0  0  0  0  0
   -2.2532   -1.3461    0.0000 O   0  0  0  0  0  0  0  0  0  0  0  0
    2.1380    2.5699    0.0000 O   0  0  0  0  0  0  0  0  0  0  0  0
   -2.9730   -0.1080    0.0000 N   0  0  0  0  0  0  0  0  0  0  0  0
   -4.4991    1.1734    0.0000 N   0  0  0  0  0  0  0  0  0  0  0  0
   -0.0216   -0.0648    0.0000 N   0  0  0  0  0  0  0  0  0  0  0  0
    1.0438    1.7924    0.0000 N   0  0  0  0  0  0  0  0  0  0  0  0
    0.7703   -0.3239    0.0000 N   0  0  0  0  0  0  0  0  0  0  0  0
    2.1092    0.3383    0.0000 N   0  0  0  0  0  0  0  0  0  0  0  0
    2.4115    1.1590    0.0000 N   0  0  0  0  0  0  0  0  0  0  0  0
    4.4991    1.8788    0.0000 N   0  0  0  0  0  0  0  0  0  0  0  0
   -2.9730    0.7127    0.0000 C   0  0  3  0  0  0  0  0  0  0  0  0
   -3.7936   -0.0792    0.0000 C   0  0  0  0  0  0  0  0  0  0  0  0
   -2.2532   -0.5110    0.0000 C   0  0  0  0  0  0  0  0  0  0  0  0
   -3.8224    0.7271    0.0000 C   0  0  3  0  0  0  0  0  0  0  0  0
   -1.5333   -0.1080    0.0000 C   0  0  0  0  0  0  0  0  0  0  0  0
   -1.5333   -1.7636    0.0000 C   0  0  0  0  0  0  0  0  0  0  0  0
   -1.5333    0.7127    0.0000 C   0  0  0  0  0  0  0  0  0  0  0  0
   -0.7847   -0.5110    0.0000 C   0  0  0  0  0  0  0  0  0  0  0  0
    0.7703    1.0150    0.0000 C   0  0  0  0  0  0  0  0  0  0  0  0
   -0.0072    0.7703    0.0000 C   0  0  0  0  0  0  0  0  0  0  0  0
    1.2598    0.3527    0.0000 C   0  0  0  0  0  0  0  0  0  0  0  0
    1.8500    1.8212    0.0000 C   0  0  0  0  0  0  0  0  0  0  0  0
    0.2663   -0.1800    0.0000 C   0  0  0  0  0  0  0  0  0  0  0  0
    1.0006   -1.2022    0.0000 C   0  0  0  0  0  0  0  0  0  0  0  0
    3.2465    1.1734    0.0000 C   0  0  0  0  0  0  0  0  0  0  0  0
    3.6641    1.8932    0.0000 C   0  0  0  0  0  0  0  0  0  0  0  0
  1 14  1  0  0  0  0
  1 20  1  0  0  0  0
  2 15  2  0  0  0  0
  3 19  2  0  0  0  0
  4 19  1  0  0  0  0
  5 25  2  0  0  0  0
 14  6  1  1  0  0  0
  6 15  1  0  0  0  0
  6 16  1  0  0  0  0
 17  7  1  1  0  0  0
  8 21  1  0  0  0  0
  8 23  2  0  0  0  0
  9 22  1  0  0  0  0
  9 25  1  0  0  0  0
 10 24  1  0  0  0  0
 10 26  1  0  0  0  0
 10 27  1  0  0  0  0
 11 24  1  0  0  0  0
 12 25  1  0  0  0  0
 12 28  1  0  0  0  0
 13 29  1  0  0  0  0
 14 17  1  0  0  0  0
 15 17  1  0  0  0  0
 16 18  2  0  0  0  0
 16 19  1  0  0  0  0
 18 20  1  0  0  0  0
 18 21  1  0  0  0  0
 22 23  1  0  0  0  0
 22 24  2  0  0  0  0
 28 29  1  0  0  0  0
M  END
> <PUBCHEM_COMPOUND_ID_TYPE>
0

> <PUBCHEM_TOTAL_CHARGE>
0

> <PUBCHEM_SUBSTANCE_ID>
310940749

> <PUBCHEM_SUBSTANCE_VERSION>
1

> <PUBCHEM_EXT_DATASOURCE_NAME>
4488

> <PUBCHEM_EXT_DATASOURCE_REGID>
SCHEMBL16118707

> <PUBCHEM_SUBSTANCE_COMMENT>
InChI=1S/C16H26N8O4S/c1-23(2)12(19)9(22-16(28)21-4-3-17)6-20-5-8-7-29-14-10(18)13(25)24(14)11(8)15(26)27/h6,10,14H,3-5,7,17-19H2,1-2H3,(H,26,27)(H2,21,22,28)/b12-9+,20-6+/t10-,14-/m1/s1
InChIKey=BXNIZMYGQMMSRX-FUWICTFGSA-N

> <PUBCHEM_SUBSTANCE_SYNONYM>
SCHEMBL16118707

> <PUBCHEM_XREF_EXT_ID>
SCHEMBL16118707

> <PUBCHEM_EXT_DATASOURCE_URL>
https://www.surechembl.org/

> <PUBCHEM_EXT_SUBSTANCE_URL>
https://www.surechembl.org/chemical/SCHEMBL16118707

> <PUBCHEM_CID_ASSOCIATIONS>
117607704  1

> <PUBCHEM_COORDINATE_TYPE>
1
3

> <PUBCHEM_BONDANNOTATIONS>
14  6  5
17  7  5

$$$$
