310938352
  -OEChem-07211613022D

 15 15  0     0  0  0  0  0  0999 V2000
    3.3255   -0.6990    0.0000 Cl  0  0  0  0  0  0  0  0  0  0  0  0
    0.0000   -0.6990    0.0000 F   0  0  0  0  0  0  0  0  0  0  0  0
    2.0970   -2.8383    0.0000 O   0  0  0  0  0  0  0  0  0  0  0  0
    2.0546   -1.4192    0.0000 N   0  0  0  0  0  0  0  0  0  0  0  0
    2.0546    0.0000    0.0000 N   0  0  0  0  0  0  0  0  0  0  0  0
    1.2497   -1.4192    0.0000 C   0  0  0  0  0  0  0  0  0  0  0  0
    0.8261   -0.6990    0.0000 C   0  0  0  0  0  0  0  0  0  0  0  0
    2.4994   -0.6990    0.0000 C   0  0  0  0  0  0  0  0  0  0  0  0
    1.2497    0.0000    0.0000 C   0  0  0  0  0  0  0  0  0  0  0  0
    0.8472   -2.1393    0.0000 C   0  0  0  0  0  0  0  0  0  0  0  0
    1.2709   -2.8383    0.0000 C   0  0  0  0  0  0  0  0  0  0  0  0
    2.5206   -3.5373    0.0000 C   0  0  0  0  0  0  0  0  0  0  0  0
    3.3466   -3.5373    0.0000 C   0  0  0  0  0  0  0  0  0  0  0  0
    3.7703   -4.2363    0.0000 C   0  0  0  0  0  0  0  0  0  0  0  0
    4.5964   -4.1515    0.0000 C   0  0  0  0  0  0  0  0  0  0  0  0
  1  8  1  0  0  0  0
  2  7  1  0  0  0  0
  3 11  1  0  0  0  0
  3 12  1  0  0  0  0
  4  6  2  0  0  0  0
  4  8  1  0  0  0  0
  5  8  2  0  0  0  0
  5  9  1  0  0  0  0
  6  7  1  0  0  0  0
  6 10  1  0  0  0  0
  7  9  2  0  0  0  0
 10 11  2  0  0  0  0
 12 13  1  0  0  0  0
 13 14  1  0  0  0  0
 14 15  1  0  0  0  0
M  END
> <PUBCHEM_COMPOUND_ID_TYPE>
0

> <PUBCHEM_TOTAL_CHARGE>
0

> <PUBCHEM_SUBSTANCE_ID>
310938352

> <PUBCHEM_SUBSTANCE_VERSION>
1

> <PUBCHEM_EXT_DATASOURCE_NAME>
4488

> <PUBCHEM_EXT_DATASOURCE_REGID>
SCHEMBL16116237

> <PUBCHEM_SUBSTANCE_COMMENT>
InChI=1S/C10H12ClFN2O/c1-2-3-5-15-6-4-9-8(12)7-13-10(11)14-9/h4,6-7H,2-3,5H2,1H3/b6-4-
InChIKey=QRJHAXOKINEHEZ-XQRVVYSFSA-N

> <PUBCHEM_SUBSTANCE_SYNONYM>
SCHEMBL16116237

> <PUBCHEM_XREF_EXT_ID>
SCHEMBL16116237

> <PUBCHEM_EXT_DATASOURCE_URL>
https://www.surechembl.org/

> <PUBCHEM_EXT_SUBSTANCE_URL>
https://www.surechembl.org/chemical/SCHEMBL16116237

> <PUBCHEM_CID_ASSOCIATIONS>
117605838  1

> <PUBCHEM_COORDINATE_TYPE>
1
3

$$$$
