310949630
  -OEChem-07211613022D

 25 26  0     0  0  0  0  0  0999 V2000
    2.2655   -0.3598    0.0000 O   0  0  0  0  0  0  0  0  0  0  0  0
   -1.0395   -1.7991    0.0000 O   0  0  0  0  0  0  0  0  0  0  0  0
   -2.6786    1.0795    0.0000 O   0  0  0  0  0  0  0  0  0  0  0  0
   -1.4525    0.3598    0.0000 O   0  0  0  0  0  0  0  0  0  0  0  0
    3.9047   -0.3598    0.0000 O   0  0  0  0  0  0  0  0  0  0  0  0
   -1.0395   -0.3598    0.0000 N   0  0  0  0  0  0  0  0  0  0  0  0
    1.8524    1.7991    0.0000 N   0  0  0  0  0  0  0  0  0  0  0  0
    3.9047    1.0795    0.0000 N   0  0  0  0  0  0  0  0  0  0  0  0
   -2.2787   -1.0661    0.0000 C   0  0  0  0  0  0  0  0  0  0  0  0
   -2.7052   -0.3598    0.0000 C   0  0  0  0  0  0  0  0  0  0  0  0
   -1.4659   -1.0661    0.0000 C   0  0  0  0  0  0  0  0  0  0  0  0
   -0.2132   -0.3598    0.0000 C   0  0  0  0  0  0  0  0  0  0  0  0
    1.0128    0.3598    0.0000 C   0  0  0  0  0  0  0  0  0  0  0  0
    1.4393   -0.3465    0.0000 C   0  0  0  0  0  0  0  0  0  0  0  0
    0.1999    0.3465    0.0000 C   0  0  0  0  0  0  0  0  0  0  0  0
    0.2132   -1.0795    0.0000 C   0  0  0  0  0  0  0  0  0  0  0  0
   -2.7052   -1.7991    0.0000 C   0  0  0  0  0  0  0  0  0  0  0  0
    1.0128   -1.0795    0.0000 C   0  0  0  0  0  0  0  0  0  0  0  0
   -2.2655    0.3598    0.0000 C   0  0  0  0  0  0  0  0  0  0  0  0
   -3.5048   -0.3731    0.0000 C   0  0  0  0  0  0  0  0  0  0  0  0
   -3.4915   -1.7991    0.0000 C   0  0  0  0  0  0  0  0  0  0  0  0
    1.4259    1.0528    0.0000 C   0  0  0  0  0  0  0  0  0  0  0  0
   -3.9047   -1.0795    0.0000 C   0  0  0  0  0  0  0  0  0  0  0  0
    2.6653    0.3465    0.0000 C   0  0  0  0  0  0  0  0  0  0  0  0
    3.4915    0.3598    0.0000 C   0  0  0  0  0  0  0  0  0  0  0  0
  1 14  1  0  0  0  0
  1 24  1  0  0  0  0
  2 11  2  0  0  0  0
  3 19  2  0  0  0  0
  4 19  1  0  0  0  0
  5 25  2  0  0  0  0
  6 11  1  0  0  0  0
  6 12  1  0  0  0  0
  7 22  3  0  0  0  0
  8 25  1  0  0  0  0
  9 10  1  0  0  0  0
  9 11  1  0  0  0  0
  9 17  2  0  0  0  0
 10 19  1  0  0  0  0
 10 20  2  0  0  0  0
 12 15  1  0  0  0  0
 12 16  2  0  0  0  0
 13 14  1  0  0  0  0
 13 15  2  0  0  0  0
 13 22  1  0  0  0  0
 14 18  2  0  0  0  0
 16 18  1  0  0  0  0
 17 21  1  0  0  0  0
 20 23  1  0  0  0  0
 21 23  2  0  0  0  0
 24 25  1  0  0  0  0
M  END
> <PUBCHEM_COMPOUND_ID_TYPE>
0

> <PUBCHEM_TOTAL_CHARGE>
0

> <PUBCHEM_SUBSTANCE_ID>
310949630

> <PUBCHEM_SUBSTANCE_VERSION>
1

> <PUBCHEM_EXT_DATASOURCE_NAME>
4488

> <PUBCHEM_EXT_DATASOURCE_REGID>
SCHEMBL16127828

> <PUBCHEM_SUBSTANCE_COMMENT>
InChI=1S/C17H13N3O5/c18-8-10-7-11(5-6-14(10)25-9-15(19)21)20-16(22)12-3-1-2-4-13(12)17(23)24/h1-7H,9H2,(H2,19,21)(H,20,22)(H,23,24)
InChIKey=JHMOOLQEWQMFGL-UHFFFAOYSA-N

> <PUBCHEM_SUBSTANCE_SYNONYM>
SCHEMBL16127828

> <PUBCHEM_XREF_EXT_ID>
SCHEMBL16127828

> <PUBCHEM_EXT_DATASOURCE_URL>
https://www.surechembl.org/

> <PUBCHEM_EXT_SUBSTANCE_URL>
https://www.surechembl.org/chemical/SCHEMBL16127828

> <PUBCHEM_CID_ASSOCIATIONS>
85472196  1

> <PUBCHEM_COORDINATE_TYPE>
1
3

$$$$
