310940586
  -OEChem-07211613022D

 34 38  0     0  0  0  0  0  0999 V2000
    0.4261    3.2710    0.0000 S   0  0  0  0  0  0  0  0  0  0  0  0
    2.7213   -0.8521    0.0000 O   0  0  0  0  0  0  0  0  0  0  0  0
   -1.4706   -0.9758    0.0000 O   0  0  0  0  0  0  0  0  0  0  0  0
    2.8037    0.6597    0.0000 O   0  0  0  0  0  0  0  0  0  0  0  0
   -2.8037   -2.9137    0.0000 O   0  0  0  0  0  0  0  0  0  0  0  0
    1.0033    3.8345    0.0000 O   0  0  0  0  0  0  0  0  0  0  0  0
   -0.2337    2.7075    0.0000 O   0  0  0  0  0  0  0  0  0  0  0  0
    1.5530   -0.1649    0.0000 N   0  0  0  0  0  0  0  0  0  0  0  0
    1.3744   -2.6525    0.0000 N   0  0  0  0  0  0  0  0  0  0  0  0
   -2.3914   -3.6421    0.0000 N   0  0  0  0  0  0  0  0  0  0  0  0
    1.3606   -0.9071    0.0000 C   0  0  0  0  0  0  0  0  0  0  0  0
    0.6597   -1.3332    0.0000 C   0  0  0  0  0  0  0  0  0  0  0  0
    2.0891   -1.3332    0.0000 C   0  0  0  0  0  0  0  0  0  0  0  0
    0.6459   -2.1441    0.0000 C   0  0  0  0  0  0  0  0  0  0  0  0
   -0.7834   -2.1578    0.0000 C   0  0  0  0  0  0  0  0  0  0  0  0
    2.3365   -0.0412    0.0000 C   0  0  0  0  0  0  0  0  0  0  0  0
   -0.7696   -1.3332    0.0000 C   0  0  0  0  0  0  0  0  0  0  0  0
   -0.0687   -0.9208    0.0000 C   0  0  0  0  0  0  0  0  0  0  0  0
   -0.0687   -2.5563    0.0000 C   0  0  0  0  0  0  0  0  0  0  0  0
   -1.5119   -2.5701    0.0000 C   0  0  0  0  0  0  0  0  0  0  0  0
    2.0753   -2.1578    0.0000 C   0  0  0  0  0  0  0  0  0  0  0  0
    0.9896    0.5086    0.0000 C   0  0  0  0  0  0  0  0  0  0  0  0
   -2.2677   -2.1990    0.0000 C   0  0  0  0  0  0  0  0  0  0  0  0
   -1.5943   -3.3947    0.0000 C   0  0  0  0  0  0  0  0  0  0  0  0
    1.2370    1.3194    0.0000 C   0  0  0  0  0  0  0  0  0  0  0  0
    0.6872    1.9104    0.0000 C   0  0  0  0  0  0  0  0  0  0  0  0
    0.9483    2.7075    0.0000 C   0  0  0  0  0  0  0  0  0  0  0  0
    2.0478    1.4981    0.0000 C   0  0  0  0  0  0  0  0  0  0  0  0
   -2.4189   -1.4018    0.0000 C   0  0  0  0  0  0  0  0  0  0  0  0
   -0.9621   -3.9444    0.0000 C   0  0  0  0  0  0  0  0  0  0  0  0
    1.7454    2.8725    0.0000 C   0  0  0  0  0  0  0  0  0  0  0  0
    2.2815    2.2815    0.0000 C   0  0  0  0  0  0  0  0  0  0  0  0
   -1.5119   -0.0687    0.0000 C   0  0  0  0  0  0  0  0  0  0  0  0
   -0.1649    3.9444    0.0000 C   0  0  0  0  0  0  0  0  0  0  0  0
  1  6  2  0  0  0  0
  1  7  2  0  0  0  0
  1 27  1  0  0  0  0
  1 34  1  0  0  0  0
  2 13  1  0  0  0  0
  2 16  1  0  0  0  0
  3 17  1  0  0  0  0
  3 33  1  0  0  0  0
  4 16  2  0  0  0  0
  5 10  1  0  0  0  0
  5 23  1  0  0  0  0
  8 11  1  0  0  0  0
  8 16  1  0  0  0  0
  8 22  1  0  0  0  0
  9 14  2  0  0  0  0
  9 21  1  0  0  0  0
 10 24  2  0  0  0  0
 11 12  2  0  0  0  0
 11 13  1  0  0  0  0
 12 14  1  0  0  0  0
 12 18  1  0  0  0  0
 13 21  2  0  0  0  0
 14 19  1  0  0  0  0
 15 17  1  0  0  0  0
 15 19  2  0  0  0  0
 15 20  1  0  0  0  0
 17 18  2  0  0  0  0
 20 23  2  0  0  0  0
 20 24  1  0  0  0  0
 22 25  1  0  0  0  0
 23 29  1  0  0  0  0
 24 30  1  0  0  0  0
 25 26  2  0  0  0  0
 25 28  1  0  0  0  0
 26 27  1  0  0  0  0
 27 31  2  0  0  0  0
 28 32  2  0  0  0  0
 31 32  1  0  0  0  0
M  END
> <PUBCHEM_COMPOUND_ID_TYPE>
0

> <PUBCHEM_TOTAL_CHARGE>
0

> <PUBCHEM_SUBSTANCE_ID>
310940586

> <PUBCHEM_SUBSTANCE_VERSION>
1

> <PUBCHEM_EXT_DATASOURCE_NAME>
4488

> <PUBCHEM_EXT_DATASOURCE_REGID>
SCHEMBL16118540

> <PUBCHEM_SUBSTANCE_COMMENT>
InChI=1S/C24H21N3O6S/c1-13-22(14(2)33-26-13)18-9-19-17(10-20(18)31-3)23-21(11-25-19)32-24(28)27(23)12-15-6-5-7-16(8-15)34(4,29)30/h5-11H,12H2,1-4H3
InChIKey=SQPWWTZSSYFAAN-UHFFFAOYSA-N

> <PUBCHEM_SUBSTANCE_SYNONYM>
SCHEMBL16118540

> <PUBCHEM_XREF_EXT_ID>
SCHEMBL16118540

> <PUBCHEM_EXT_DATASOURCE_URL>
https://www.surechembl.org/

> <PUBCHEM_EXT_SUBSTANCE_URL>
https://www.surechembl.org/chemical/SCHEMBL16118540

> <PUBCHEM_CID_ASSOCIATIONS>
117607576  1

> <PUBCHEM_COORDINATE_TYPE>
1
3

$$$$
