310928854
  -OEChem-07211613022D

 11 12  0     0  0  0  0  0  0999 V2000
    1.7776   -0.8723    0.0000 O   0  0  0  0  0  0  0  0  0  0  0  0
   -0.5446    0.1197    0.0000 N   0  0  0  0  0  0  0  0  0  0  0  0
   -0.9571   -0.5948    0.0000 N   0  0  0  0  0  0  0  0  0  0  0  0
    0.2624   -0.0518    0.0000 C   0  0  0  0  0  0  0  0  0  0  0  0
    0.8755    0.5002    0.0000 C   0  0  0  0  0  0  0  0  0  0  0  0
    0.3486   -0.8723    0.0000 C   0  0  0  0  0  0  0  0  0  0  0  0
   -0.4051   -1.2079    0.0000 C   0  0  0  0  0  0  0  0  0  0  0  0
    1.1304    1.2848    0.0000 C   0  0  0  0  0  0  0  0  0  0  0  0
    1.6825    0.6717    0.0000 C   0  0  0  0  0  0  0  0  0  0  0  0
    1.0631   -1.2848    0.0000 C   0  0  0  0  0  0  0  0  0  0  0  0
   -1.7776   -0.6810    0.0000 C   0  0  0  0  0  0  0  0  0  0  0  0
  1 10  2  0  0  0  0
  2  3  1  0  0  0  0
  2  4  2  0  0  0  0
  3  7  1  0  0  0  0
  3 11  1  0  0  0  0
  4  5  1  0  0  0  0
  4  6  1  0  0  0  0
  5  8  1  0  0  0  0
  5  9  1  0  0  0  0
  6  7  2  0  0  0  0
  6 10  1  0  0  0  0
  8  9  1  0  0  0  0
M  END
> <PUBCHEM_COMPOUND_ID_TYPE>
0

> <PUBCHEM_TOTAL_CHARGE>
0

> <PUBCHEM_SUBSTANCE_ID>
310928854

> <PUBCHEM_SUBSTANCE_VERSION>
1

> <PUBCHEM_EXT_DATASOURCE_NAME>
11752

> <PUBCHEM_EXT_DATASOURCE_REGID>
BD86419

> <PUBCHEM_SUBSTANCE_SYNONYM>
3-Cyclopropyl-1-methyl-1H-pyrazole-4-carbaldehyde
902837-67-6

> <PUBCHEM_GENERIC_REGISTRY_NAME>
902837-67-6

> <PUBCHEM_XREF_EXT_ID>
BD86419

> <PUBCHEM_EXT_DATASOURCE_URL>
http://www.bidepharmatech.com/en/index.html

> <PUBCHEM_EXT_SUBSTANCE_URL>
http://www.bidepharmatech.com/en/goodsview_goodscode_BD86419.html

> <PUBCHEM_CID_ASSOCIATIONS>
19614693  1

> <PUBCHEM_COORDINATE_TYPE>
1
3

$$$$
