310930568
  -OEChem-07211613022D

 24 23  0     0  0  0  0  0  0999 V2000
    1.5082    1.5346    0.0000 S   0  0  0  0  0  0  0  0  0  0  0  0
    0.1105    1.2375    0.0000 P   0  0  0  0  0  0  0  0  0  0  0  0
    2.6734    1.4735    0.0000 F   0  0  0  0  0  0  0  0  0  0  0  0
    1.5693    2.6997    0.0000 F   0  0  0  0  0  0  0  0  0  0  0  0
    2.5629    3.4456    0.0000 F   0  0  0  0  0  0  0  0  0  0  0  0
    3.5191    2.3837    0.0000 F   0  0  0  0  0  0  0  0  0  0  0  0
    0.8952    0.9826    0.0000 O   0  0  0  0  0  0  0  0  0  0  0  0
    2.0603    0.9215    0.0000 O   0  0  0  0  0  0  0  0  0  0  0  0
    0.9562    2.1477    0.0000 O   0  0  0  0  0  0  0  0  0  0  0  0
    2.1213    2.0866    0.0000 C   0  0  0  0  0  0  0  0  0  0  0  0
   -0.3744    1.9049    0.0000 C   0  0  0  0  0  0  0  0  0  0  0  0
   -0.6741    0.9826    0.0000 C   0  0  0  0  0  0  0  0  0  0  0  0
    0.1105    0.4125    0.0000 C   0  0  0  0  0  0  0  0  0  0  0  0
    2.7344    2.6387    0.0000 C   0  0  0  0  0  0  0  0  0  0  0  0
    0.5955    1.9049    0.0000 C   0  0  0  0  0  0  0  0  0  0  0  0
   -0.0388    2.6586    0.0000 C   0  0  0  0  0  0  0  0  0  0  0  0
   -0.8456    0.1756    0.0000 C   0  0  0  0  0  0  0  0  0  0  0  0
    0.8250    0.0000    0.0000 C   0  0  0  0  0  0  0  0  0  0  0  0
   -0.5238    3.3261    0.0000 C   0  0  0  0  0  0  0  0  0  0  0  0
   -0.2325   -0.3764    0.0000 C   0  0  0  0  0  0  0  0  0  0  0  0
    1.5395    0.4125    0.0000 C   0  0  0  0  0  0  0  0  0  0  0  0
   -0.1882    4.0797    0.0000 C   0  0  0  0  0  0  0  0  0  0  0  0
   -0.4041   -1.1834    0.0000 C   0  0  0  0  0  0  0  0  0  0  0  0
    2.2539    0.0000    0.0000 C   0  0  0  0  0  0  0  0  0  0  0  0
  1  7  1  0  0  0  0
  1  8  2  0  0  0  0
  1  9  2  0  0  0  0
  1 10  1  0  0  0  0
  2  7  1  0  0  0  0
  2 11  1  0  0  0  0
  2 12  1  0  0  0  0
  2 13  1  0  0  0  0
  2 15  1  0  0  0  0
  3 10  1  0  0  0  0
  4 10  1  0  0  0  0
  5 14  1  0  0  0  0
  6 14  1  0  0  0  0
 10 14  1  0  0  0  0
 11 16  1  0  0  0  0
 12 17  1  0  0  0  0
 13 18  1  0  0  0  0
 16 19  1  0  0  0  0
 17 20  1  0  0  0  0
 18 21  1  0  0  0  0
 19 22  1  0  0  0  0
 20 23  1  0  0  0  0
 21 24  1  0  0  0  0
M  END
> <PUBCHEM_COMPOUND_ID_TYPE>
0

> <PUBCHEM_TOTAL_CHARGE>
0

> <PUBCHEM_SUBSTANCE_ID>
310930568

> <PUBCHEM_SUBSTANCE_VERSION>
1

> <PUBCHEM_EXT_DATASOURCE_NAME>
4488

> <PUBCHEM_EXT_DATASOURCE_REGID>
SCHEMBL16107863

> <PUBCHEM_SUBSTANCE_COMMENT>
InChI=1S/C15H31F4O3PS/c1-5-8-11-23(4,12-9-6-2,13-10-7-3)22-24(20,21)15(18,19)14(16)17/h14H,5-13H2,1-4H3
InChIKey=LTGFLQQHKFXGQN-UHFFFAOYSA-N

> <PUBCHEM_SUBSTANCE_SYNONYM>
SCHEMBL16107863

> <PUBCHEM_XREF_EXT_ID>
SCHEMBL16107863

> <PUBCHEM_EXT_DATASOURCE_URL>
https://www.surechembl.org/

> <PUBCHEM_EXT_SUBSTANCE_URL>
https://www.surechembl.org/chemical/SCHEMBL16107863

> <PUBCHEM_CID_ASSOCIATIONS>
117599656  1

> <PUBCHEM_COORDINATE_TYPE>
1
3

$$$$
