310937471
  -OEChem-07211613022D

 44 48  0     1  0  0  0  0  0999 V2000
   -3.0366   -1.4045    0.0000 S   0  0  0  0  0  0  0  0  0  0  0  0
    4.5582   -3.5832    0.0000 F   0  0  0  0  0  0  0  0  0  0  0  0
    4.0733   -2.9158    0.0000 F   0  0  0  0  0  0  0  0  0  0  0  0
    4.2227   -4.3369    0.0000 F   0  0  0  0  0  0  0  0  0  0  0  0
    1.0901   -6.1029    0.0000 F   0  0  0  0  0  0  0  0  0  0  0  0
    1.9106   -6.0167    0.0000 F   0  0  0  0  0  0  0  0  0  0  0  0
    0.6052   -5.4355    0.0000 F   0  0  0  0  0  0  0  0  0  0  0  0
    0.3020   -2.5071    0.0000 O   0  0  0  0  0  0  0  0  0  0  0  0
   -0.7376   -1.4675    0.0000 O   0  0  0  0  0  0  0  0  0  0  0  0
    0.7145   -1.2375    0.0000 N   0  0  0  0  0  0  0  0  0  0  0  0
    0.7145    1.2375    0.0000 N   0  0  3  0  0  0  0  0  0  0  0  0
   -0.7145    1.2375    0.0000 N   0  0  0  0  0  0  0  0  0  0  0  0
   -1.0034   -2.3370    0.0000 N   0  0  0  0  0  0  0  0  0  0  0  0
    1.1270   -2.5071    0.0000 C   0  0  3  0  0  0  0  0  0  0  0  0
    1.3819   -1.7224    0.0000 C   0  0  3  0  0  0  0  0  0  0  0  0
    1.6119   -3.1745    0.0000 C   0  0  0  0  0  0  0  0  0  0  0  0
    0.0470   -1.7224    0.0000 C   0  0  0  0  0  0  0  0  0  0  0  0
    0.0000    0.0000    0.0000 C   0  0  0  0  0  0  0  0  0  0  0  0
    2.9173   -3.7557    0.0000 C   0  0  0  0  0  0  0  0  0  0  0  0
    1.7613   -4.5956    0.0000 C   0  0  0  0  0  0  0  0  0  0  0  0
    0.7145   -0.4125    0.0000 C   0  0  0  0  0  0  0  0  0  0  0  0
    0.0000    0.8250    0.0000 C   0  0  0  0  0  0  0  0  0  0  0  0
    1.2763   -3.9282    0.0000 C   0  0  0  0  0  0  0  0  0  0  0  0
    2.4324   -3.0883    0.0000 C   0  0  0  0  0  0  0  0  0  0  0  0
    2.5817   -4.5093    0.0000 C   0  0  0  0  0  0  0  0  0  0  0  0
   -1.4290    0.0000    0.0000 C   0  0  0  0  0  0  0  0  0  0  0  0
    3.7378   -3.6694    0.0000 C   0  0  0  0  0  0  0  0  0  0  0  0
    1.4257   -5.3493    0.0000 C   0  0  0  0  0  0  0  0  0  0  0  0
   -0.7145   -0.4125    0.0000 C   0  0  0  0  0  0  0  0  0  0  0  0
   -2.1434   -0.4125    0.0000 C   0  0  0  0  0  0  0  0  0  0  0  0
   -1.4290    0.8250    0.0000 C   0  0  0  0  0  0  0  0  0  0  0  0
    2.1665   -1.4675    0.0000 C   0  0  0  0  0  0  0  0  0  0  0  0
    0.7145    2.0625    0.0000 C   0  0  0  0  0  0  0  0  0  0  0  0
   -2.2296   -1.2330    0.0000 C   0  0  0  0  0  0  0  0  0  0  0  0
   -2.8971   -0.0770    0.0000 C   0  0  0  0  0  0  0  0  0  0  0  0
    1.4290    0.8250    0.0000 C   0  0  0  0  0  0  0  0  0  0  0  0
   -3.4491   -0.6901    0.0000 C   0  0  0  0  0  0  0  0  0  0  0  0
    0.0000    2.4750    0.0000 C   0  0  0  0  0  0  0  0  0  0  0  0
    1.4290    2.4750    0.0000 C   0  0  0  0  0  0  0  0  0  0  0  0
   -1.6165   -1.7850    0.0000 C   0  0  0  0  0  0  0  0  0  0  0  0
    0.0000    3.3000    0.0000 C   0  0  0  0  0  0  0  0  0  0  0  0
    1.4290    3.3000    0.0000 C   0  0  0  0  0  0  0  0  0  0  0  0
    2.1434    1.2375    0.0000 C   0  0  0  0  0  0  0  0  0  0  0  0
    0.7145    3.7125    0.0000 C   0  0  0  0  0  0  0  0  0  0  0  0
  1 34  1  0  0  0  0
  1 37  1  0  0  0  0
  2 27  1  0  0  0  0
  3 27  1  0  0  0  0
  4 27  1  0  0  0  0
  5 28  1  0  0  0  0
  6 28  1  0  0  0  0
  7 28  1  0  0  0  0
 14  8  1  6  0  0  0
  8 17  1  0  0  0  0
  9 17  2  0  0  0  0
 10 15  1  0  0  0  0
 10 17  1  0  0  0  0
 10 21  1  0  0  0  0
 11 22  1  0  0  0  0
 11 33  1  0  0  0  0
 11 36  1  0  0  0  0
 12 22  1  0  0  0  0
 12 31  2  0  0  0  0
 13 40  3  0  0  0  0
 14 15  1  0  0  0  0
 14 16  1  0  0  0  0
 15 32  1  1  0  0  0
 16 23  2  0  0  0  0
 16 24  1  0  0  0  0
 18 21  1  0  0  0  0
 18 22  2  0  0  0  0
 18 29  1  0  0  0  0
 19 24  2  0  0  0  0
 19 25  1  0  0  0  0
 19 27  1  0  0  0  0
 20 23  1  0  0  0  0
 20 25  2  0  0  0  0
 20 28  1  0  0  0  0
 26 29  2  0  0  0  0
 26 30  1  0  0  0  0
 26 31  1  0  0  0  0
 30 34  2  0  0  0  0
 30 35  1  0  0  0  0
 33 38  1  0  0  0  0
 33 39  1  0  0  0  0
 34 40  1  0  0  0  0
 35 37  2  0  0  0  0
 36 43  1  0  0  0  0
 38 41  1  0  0  0  0
 39 42  1  0  0  0  0
 41 44  1  0  0  0  0
 42 44  1  0  0  0  0
M  END
> <PUBCHEM_COMPOUND_ID_TYPE>
0

> <PUBCHEM_TOTAL_CHARGE>
0

> <PUBCHEM_SUBSTANCE_ID>
310937471

> <PUBCHEM_SUBSTANCE_VERSION>
1

> <PUBCHEM_EXT_DATASOURCE_NAME>
4488

> <PUBCHEM_EXT_DATASOURCE_REGID>
SCHEMBL16115241

> <PUBCHEM_SUBSTANCE_COMMENT>
InChI=1S/C31H30F6N4O2S/c1-3-40(24-7-5-4-6-8-24)28-21(11-20(16-39-28)25-9-10-44-26(25)15-38)17-41-18(2)27(43-29(41)42)19-12-22(30(32,33)34)14-23(13-19)31(35,36)37/h9-14,16,18,24,27H,3-8,17H2,1-2H3/t18-,27+/m0/s1
InChIKey=UWJXTQDMZJQXBJ-XRHLQHRESA-N

> <PUBCHEM_SUBSTANCE_SYNONYM>
SCHEMBL16115241

> <PUBCHEM_XREF_EXT_ID>
SCHEMBL16115241

> <PUBCHEM_EXT_DATASOURCE_URL>
https://www.surechembl.org/

> <PUBCHEM_EXT_SUBSTANCE_URL>
https://www.surechembl.org/chemical/SCHEMBL16115241

> <PUBCHEM_CID_ASSOCIATIONS>
117605213  1

> <PUBCHEM_COORDINATE_TYPE>
1
3

> <PUBCHEM_BONDANNOTATIONS>
15  32  5
14  8  6

$$$$
