310944445
  -OEChem-07211613022D

 27 29  0     1  0  0  0  0  0999 V2000
   -4.5230   -1.7085    0.0000 O   0  0  0  0  0  0  0  0  0  0  0  0
    2.5760    1.6423    0.0000 O   0  0  0  0  0  0  0  0  0  0  0  0
   -2.4568    0.3973    0.0000 N   0  0  0  0  0  0  0  0  0  0  0  0
   -2.5496    1.2185    0.0000 N   0  0  0  0  0  0  0  0  0  0  0  0
    0.4304    0.4106    0.0000 N   0  0  3  0  0  0  0  0  0  0  0  0
   -3.2118    0.0662    0.0000 C   0  0  0  0  0  0  0  0  0  0  0  0
   -3.7813    0.6755    0.0000 C   0  0  0  0  0  0  0  0  0  0  0  0
   -3.4766   -0.7285    0.0000 C   0  0  0  0  0  0  0  0  0  0  0  0
   -3.3575    1.3907    0.0000 C   0  0  0  0  0  0  0  0  0  0  0  0
   -4.2713   -0.9006    0.0000 C   0  0  0  0  0  0  0  0  0  0  0  0
   -4.5760    0.4900    0.0000 C   0  0  0  0  0  0  0  0  0  0  0  0
   -1.7151   -0.0132    0.0000 C   0  0  0  0  0  0  0  0  0  0  0  0
   -4.8275   -0.2913    0.0000 C   0  0  0  0  0  0  0  0  0  0  0  0
   -1.0264    0.3973    0.0000 C   0  0  3  0  0  0  0  0  0  0  0  0
   -0.2980   -0.0132    0.0000 C   0  0  0  0  0  0  0  0  0  0  0  0
    4.0196    1.6555    0.0000 C   0  0  0  0  0  0  0  0  0  0  0  0
   -1.0132    1.2053    0.0000 C   0  0  0  0  0  0  0  0  0  0  0  0
    4.4170    2.3443    0.0000 C   0  0  0  0  0  0  0  0  0  0  0  0
    4.8275    1.6555    0.0000 C   0  0  0  0  0  0  0  0  0  0  0  0
    0.4304    1.2317    0.0000 C   0  0  0  0  0  0  0  0  0  0  0  0
    3.2780    1.2449    0.0000 C   0  0  0  0  0  0  0  0  0  0  0  0
    1.8608    1.2449    0.0000 C   0  0  3  0  0  0  0  0  0  0  0  0
    1.1324    1.6423    0.0000 C   0  0  0  0  0  0  0  0  0  0  0  0
    1.1324    0.0132    0.0000 C   0  0  0  0  0  0  0  0  0  0  0  0
   -3.9667   -2.3443    0.0000 C   0  0  0  0  0  0  0  0  0  0  0  0
    1.8476    0.4106    0.0000 C   0  0  0  0  0  0  0  0  0  0  0  0
    1.4502    0.8609    0.0000 C   0  0  0  0  0  0  0  0  0  0  0  0
  1 10  1  0  0  0  0
  1 25  1  0  0  0  0
  2 21  1  0  0  0  0
  2 22  1  0  0  0  0
  3  4  1  0  0  0  0
  3  6  1  0  0  0  0
  3 12  1  0  0  0  0
  4  9  2  0  0  0  0
  5 15  1  0  0  0  0
  5 20  1  0  0  0  0
  5 24  1  0  0  0  0
  6  7  2  0  0  0  0
  6  8  1  0  0  0  0
  7  9  1  0  0  0  0
  7 11  1  0  0  0  0
  8 10  2  0  0  0  0
 10 13  1  0  0  0  0
 11 13  2  0  0  0  0
 12 14  1  0  0  0  0
 14 15  1  0  0  0  0
 14 17  1  6  0  0  0
 16 18  1  0  0  0  0
 16 19  1  0  0  0  0
 16 21  1  0  0  0  0
 18 19  1  0  0  0  0
 20 23  1  0  0  0  0
 22 23  1  0  0  0  0
 22 26  1  1  0  0  0
 24 27  1  0  0  0  0
M  END
> <PUBCHEM_COMPOUND_ID_TYPE>
0

> <PUBCHEM_TOTAL_CHARGE>
0

> <PUBCHEM_SUBSTANCE_ID>
310944445

> <PUBCHEM_SUBSTANCE_VERSION>
1

> <PUBCHEM_EXT_DATASOURCE_NAME>
4488

> <PUBCHEM_EXT_DATASOURCE_REGID>
SCHEMBL16122520

> <PUBCHEM_SUBSTANCE_COMMENT>
InChI=1S/C22H35N3O2/c1-5-24(11-10-18(3)27-16-19-6-7-19)14-17(2)15-25-22-12-21(26-4)9-8-20(22)13-23-25/h8-9,12-13,17-19H,5-7,10-11,14-16H2,1-4H3/t17-,18+/m1/s1
InChIKey=YAJMROLOCDSJBL-MSOLQXFVSA-N

> <PUBCHEM_SUBSTANCE_SYNONYM>
SCHEMBL16122520

> <PUBCHEM_XREF_EXT_ID>
SCHEMBL16122520

> <PUBCHEM_EXT_DATASOURCE_URL>
https://www.surechembl.org/

> <PUBCHEM_EXT_SUBSTANCE_URL>
https://www.surechembl.org/chemical/SCHEMBL16122520

> <PUBCHEM_CID_ASSOCIATIONS>
117610699  1

> <PUBCHEM_COORDINATE_TYPE>
1
3

> <PUBCHEM_BONDANNOTATIONS>
14  17  6
22  26  5

$$$$
