310949164
  -OEChem-07211613022D

 11 11  0     0  0  0  0  0  0999 V2000
   -0.3814   -1.0148    0.0000 O   0  0  0  0  0  0  0  0  0  0  0  0
   -1.1312   -0.6140    0.0000 N   0  0  0  0  0  0  0  0  0  0  0  0
    0.3297    1.0148    0.0000 N   0  0  0  0  0  0  0  0  0  0  0  0
    0.2262   -0.4202    0.0000 C   0  0  0  0  0  0  0  0  0  0  0  0
   -0.1357    0.3167    0.0000 C   0  0  0  0  0  0  0  0  0  0  0  0
   -0.9760    0.2004    0.0000 C   0  0  0  0  0  0  0  0  0  0  0  0
    1.0536   -0.4977    0.0000 C   0  0  0  0  0  0  0  0  0  0  0  0
    0.2262    0.8597    0.0000 C   0  0  0  0  0  0  0  0  0  0  0  0
   -1.5319    0.5107    0.0000 C   0  0  0  0  0  0  0  0  0  0  0  0
    1.5319    0.2133    0.0000 C   0  0  0  0  0  0  0  0  0  0  0  0
    1.1829    0.9372    0.0000 C   0  0  0  0  0  0  0  0  0  0  0  0
  1  2  1  0  0  0  0
  1  4  1  0  0  0  0
  2  6  2  0  0  0  0
  3 11  2  3  0  0  0
  4  5  2  0  0  0  0
  4  7  1  0  0  0  0
  5  6  1  0  0  0  0
  5  8  1  0  0  0  0
  6  9  1  0  0  0  0
  7 10  2  0  0  0  0
 10 11  1  0  0  0  0
M  END
> <PUBCHEM_COMPOUND_ID_TYPE>
0

> <PUBCHEM_TOTAL_CHARGE>
0

> <PUBCHEM_SUBSTANCE_ID>
310949164

> <PUBCHEM_SUBSTANCE_VERSION>
1

> <PUBCHEM_EXT_DATASOURCE_NAME>
4488

> <PUBCHEM_EXT_DATASOURCE_REGID>
SCHEMBL16127354

> <PUBCHEM_SUBSTANCE_COMMENT>
InChI=1S/C8H10N2O/c1-6-7(2)10-11-8(6)4-3-5-9/h3-5,9H,1-2H3/b4-3-,9-5?
InChIKey=HTXLXBOWTHKCEA-XDMLVNEMSA-N

> <PUBCHEM_SUBSTANCE_SYNONYM>
SCHEMBL16127354

> <PUBCHEM_XREF_EXT_ID>
SCHEMBL16127354

> <PUBCHEM_EXT_DATASOURCE_URL>
https://www.surechembl.org/

> <PUBCHEM_EXT_SUBSTANCE_URL>
https://www.surechembl.org/chemical/SCHEMBL16127354

> <PUBCHEM_CID_ASSOCIATIONS>
117614657  1

> <PUBCHEM_COORDINATE_TYPE>
1
3

$$$$
