310935161
  -OEChem-07211613022D

 22 25  0     0  0  0  0  0  0999 V2000
    0.7160    0.0000    0.0000 O   0  0  0  0  0  0  0  0  0  0  0  0
    0.0000   -1.2274    0.0000 O   0  0  0  0  0  0  0  0  0  0  0  0
    2.8127   -1.2274    0.0000 N   0  0  0  0  0  0  0  0  0  0  0  0
    3.6054   -0.9972    0.0000 N   0  0  0  0  0  0  0  0  0  0  0  0
    2.0968   -2.4804    0.0000 N   0  0  0  0  0  0  0  0  0  0  0  0
    4.3725   -4.6794    0.0000 N   0  0  0  0  0  0  0  0  0  0  0  0
    3.6054   -2.3269    0.0000 C   0  0  0  0  0  0  0  0  0  0  0  0
    2.8127   -2.0968    0.0000 C   0  0  0  0  0  0  0  0  0  0  0  0
    3.8612   -3.1196    0.0000 C   0  0  0  0  0  0  0  0  0  0  0  0
    3.3242   -3.7333    0.0000 C   0  0  0  0  0  0  0  0  0  0  0  0
    4.0913   -1.6621    0.0000 C   0  0  0  0  0  0  0  0  0  0  0  0
    2.0968   -0.8438    0.0000 C   0  0  0  0  0  0  0  0  0  0  0  0
    3.5799   -4.5004    0.0000 C   0  0  0  0  0  0  0  0  0  0  0  0
    1.4064   -1.2274    0.0000 C   0  0  0  0  0  0  0  0  0  0  0  0
    4.6794   -3.2730    0.0000 C   0  0  0  0  0  0  0  0  0  0  0  0
    1.4064   -2.0968    0.0000 C   0  0  0  0  0  0  0  0  0  0  0  0
    2.5315   -3.5543    0.0000 C   0  0  0  0  0  0  0  0  0  0  0  0
    4.9351   -4.0657    0.0000 C   0  0  0  0  0  0  0  0  0  0  0  0
    0.6904   -0.8182    0.0000 C   0  0  0  0  0  0  0  0  0  0  0  0
    3.0429   -5.1141    0.0000 C   0  0  0  0  0  0  0  0  0  0  0  0
    1.9689   -4.1680    0.0000 C   0  0  0  0  0  0  0  0  0  0  0  0
    2.2246   -4.9607    0.0000 C   0  0  0  0  0  0  0  0  0  0  0  0
  1 19  2  0  0  0  0
  2 19  1  0  0  0  0
  3  4  1  0  0  0  0
  3  8  1  0  0  0  0
  3 12  1  0  0  0  0
  4 11  2  0  0  0  0
  5  8  1  0  0  0  0
  5 16  2  0  0  0  0
  6 13  2  0  0  0  0
  6 18  1  0  0  0  0
  7  8  2  0  0  0  0
  7  9  1  0  0  0  0
  7 11  1  0  0  0  0
  9 10  2  0  0  0  0
  9 15  1  0  0  0  0
 10 13  1  0  0  0  0
 10 17  1  0  0  0  0
 12 14  2  0  0  0  0
 13 20  1  0  0  0  0
 14 16  1  0  0  0  0
 14 19  1  0  0  0  0
 15 18  2  0  0  0  0
 17 21  2  0  0  0  0
 20 22  2  0  0  0  0
 21 22  1  0  0  0  0
M  END
> <PUBCHEM_COMPOUND_ID_TYPE>
0

> <PUBCHEM_TOTAL_CHARGE>
0

> <PUBCHEM_SUBSTANCE_ID>
310935161

> <PUBCHEM_SUBSTANCE_VERSION>
1

> <PUBCHEM_EXT_DATASOURCE_NAME>
4488

> <PUBCHEM_EXT_DATASOURCE_REGID>
SCHEMBL16112689

> <PUBCHEM_SUBSTANCE_COMMENT>
InChI=1S/C16H10N4O2/c21-16(22)10-7-18-15-13(8-19-20(15)9-10)11-5-6-17-14-4-2-1-3-12(11)14/h1-9H,(H,21,22)
InChIKey=GBYNMFNPTYZLNU-UHFFFAOYSA-N

> <PUBCHEM_SUBSTANCE_SYNONYM>
SCHEMBL16112689

> <PUBCHEM_XREF_EXT_ID>
SCHEMBL16112689

> <PUBCHEM_EXT_DATASOURCE_URL>
https://www.surechembl.org/

> <PUBCHEM_EXT_SUBSTANCE_URL>
https://www.surechembl.org/chemical/SCHEMBL16112689

> <PUBCHEM_CID_ASSOCIATIONS>
117603246  1

> <PUBCHEM_COORDINATE_TYPE>
1
3

$$$$
