310935720
  -OEChem-07211613022D

 34 37  0     1  0  0  0  0  0999 V2000
    2.3236   -1.4470    0.0000 Cl  0  0  0  0  0  0  0  0  0  0  0  0
   -1.1773    1.9616    0.0000 O   0  0  0  0  0  0  0  0  0  0  0  0
   -2.7913    2.3046    0.0000 O   0  0  0  0  0  0  0  0  0  0  0  0
   -6.8481    1.0639    0.0000 O   0  0  0  0  0  0  0  0  0  0  0  0
   -7.2179   -0.3163    0.0000 O   0  0  0  0  0  0  0  0  0  0  0  0
    0.9645   -1.0054    0.0000 N   0  0  0  0  0  0  0  0  0  0  0  0
   -0.6674    0.3923    0.0000 C   0  0  3  0  0  0  0  0  0  0  0  0
   -0.4125   -0.3923    0.0000 C   0  0  3  0  0  0  0  0  0  0  0  0
   -1.4744    0.5638    0.0000 C   0  0  3  0  0  0  0  0  0  0  0  0
    0.4125   -0.3923    0.0000 C   0  0  0  0  0  0  0  0  0  0  0  0
   -2.0264   -0.0493    0.0000 C   0  0  3  0  0  0  0  0  0  0  0  0
    0.6674    0.3923    0.0000 C   0  0  0  0  0  0  0  0  0  0  0  0
    0.0000    0.8772    0.0000 C   0  0  0  0  0  0  0  0  0  0  0  0
   -2.8334    0.1223    0.0000 C   0  0  3  0  0  0  0  0  0  0  0  0
   -0.9645   -1.0054    0.0000 C   0  0  0  0  0  0  0  0  0  0  0  0
   -1.7715   -0.8339    0.0000 C   0  0  0  0  0  0  0  0  0  0  0  0
   -0.0770   -1.1460    0.0000 C   0  0  0  0  0  0  0  0  0  0  0  0
   -3.0883    0.9069    0.0000 C   0  0  3  0  0  0  0  0  0  0  0  0
   -1.7294    1.3485    0.0000 C   0  0  0  0  0  0  0  0  0  0  0  0
    1.4744    0.5638    0.0000 C   0  0  0  0  0  0  0  0  0  0  0  0
   -3.3855   -0.4908    0.0000 C   0  0  0  0  0  0  0  0  0  0  0  0
    1.7715   -0.8339    0.0000 C   0  0  0  0  0  0  0  0  0  0  0  0
    2.0264   -0.0493    0.0000 C   0  0  0  0  0  0  0  0  0  0  0  0
   -2.2814    0.7354    0.0000 C   0  0  0  0  0  0  0  0  0  0  0  0
   -3.8954    1.0784    0.0000 C   0  0  0  0  0  0  0  0  0  0  0  0
   -4.4473    0.4653    0.0000 C   0  0  3  0  0  0  0  0  0  0  0  0
   -4.1924   -0.3193    0.0000 C   0  0  0  0  0  0  0  0  0  0  0  0
   -2.5363    1.5200    0.0000 C   0  0  0  0  0  0  0  0  0  0  0  0
   -5.2543    0.6368    0.0000 C   0  0  0  0  0  0  0  0  0  0  0  0
   -5.8377    0.0535    0.0000 C   0  0  0  0  0  0  0  0  0  0  0  0
   -6.6346    0.2670    0.0000 C   0  0  0  0  0  0  0  0  0  0  0  0
   -5.2543   -0.5299    0.0000 C   0  0  0  0  0  0  0  0  0  0  0  0
   -6.0512   -0.7434    0.0000 C   0  0  0  0  0  0  0  0  0  0  0  0
   -0.8390    1.1993    0.0000 H   0  0  0  0  0  0  0  0  0  0  0  0
  1 22  1  0  0  0  0
  2 19  2  0  0  0  0
  3 28  2  0  0  0  0
  4 31  2  0  0  0  0
  5 31  1  0  0  0  0
  6 10  2  0  0  0  0
  6 22  1  0  0  0  0
  7  8  1  0  0  0  0
  7  9  1  0  0  0  0
  7 13  1  0  0  0  0
  7 34  1  1  0  0  0
  8 10  1  0  0  0  0
  8 15  1  0  0  0  0
  8 17  1  6  0  0  0
  9 11  1  0  0  0  0
  9 19  1  1  0  0  0
 10 12  1  0  0  0  0
 11 14  1  0  0  0  0
 11 16  1  6  0  0  0
 12 13  1  0  0  0  0
 12 20  2  0  0  0  0
 14 18  1  0  0  0  0
 14 21  1  0  0  0  0
 14 24  1  6  0  0  0
 15 16  1  0  0  0  0
 18 25  1  0  0  0  0
 18 28  1  6  0  0  0
 20 23  1  0  0  0  0
 21 27  1  0  0  0  0
 22 23  2  0  0  0  0
 25 26  1  0  0  0  0
 26 27  1  0  0  0  0
 26 29  1  6  0  0  0
 29 30  1  0  0  0  0
 30 31  1  0  0  0  0
 30 32  1  0  0  0  0
 30 33  1  0  0  0  0
M  END
> <PUBCHEM_COMPOUND_ID_TYPE>
0

> <PUBCHEM_TOTAL_CHARGE>
0

> <PUBCHEM_SUBSTANCE_ID>
310935720

> <PUBCHEM_SUBSTANCE_VERSION>
1

> <PUBCHEM_EXT_DATASOURCE_NAME>
4488

> <PUBCHEM_EXT_DATASOURCE_REGID>
SCHEMBL16113304

> <PUBCHEM_SUBSTANCE_COMMENT>
InChI=1S/C27H36ClNO4/c1-25(2,24(32)33)13-16-7-9-26(3,18(11-16)14-30)20-8-10-27(4)21(19(20)15-31)12-17-5-6-22(28)29-23(17)27/h5-6,14-16,18-21H,7-13H2,1-4H3,(H,32,33)/t16-,18+,19+,20-,21-,26-,27-/m0/s1
InChIKey=KMJSTCUFQQMCEC-GWKSIYNWSA-N

> <PUBCHEM_SUBSTANCE_SYNONYM>
SCHEMBL16113304

> <PUBCHEM_XREF_EXT_ID>
SCHEMBL16113304

> <PUBCHEM_EXT_DATASOURCE_URL>
https://www.surechembl.org/

> <PUBCHEM_EXT_SUBSTANCE_URL>
https://www.surechembl.org/chemical/SCHEMBL16113304

> <PUBCHEM_CID_ASSOCIATIONS>
117603724  1

> <PUBCHEM_COORDINATE_TYPE>
1
3

> <PUBCHEM_BONDANNOTATIONS>
11  16  6
14  24  6
18  28  6
26  29  6
7  34  5
8  17  6
9  19  5

$$$$
