310944128
  -OEChem-07211613022D

 33 37  0     1  0  0  0  0  0999 V2000
   -2.7798   -1.2459    0.0000 F   0  0  0  0  0  0  0  0  0  0  0  0
    2.4808   -0.1052    0.0000 O   0  0  0  0  0  0  0  0  0  0  0  0
    5.0169   -1.7222    0.0000 O   0  0  0  0  0  0  0  0  0  0  0  0
    5.5486   -0.3378    0.0000 O   0  0  0  0  0  0  0  0  0  0  0  0
   -1.3401   -1.2459    0.0000 O   0  0  0  0  0  0  0  0  0  0  0  0
    2.8684   -1.5118    0.0000 N   0  0  0  0  0  0  0  0  0  0  0  0
    0.0997   -0.4153    0.0000 N   0  0  0  0  0  0  0  0  0  0  0  0
   -4.2196    1.2348    0.0000 N   0  0  0  0  0  0  0  0  0  0  0  0
   -2.0488    0.8251    0.0000 N   0  0  0  0  0  0  0  0  0  0  0  0
   -4.9837    0.9026    0.0000 N   0  0  0  0  0  0  0  0  0  0  0  0
   -5.5486    1.5118    0.0000 N   0  0  0  0  0  0  0  0  0  0  0  0
   -5.1277    2.2206    0.0000 N   0  0  0  0  0  0  0  0  0  0  0  0
    1.5505   -1.2348    0.0000 C   0  0  0  0  0  0  0  0  0  0  0  0
    2.2925   -0.9137    0.0000 C   0  0  0  0  0  0  0  0  0  0  0  0
    3.6880   -1.4231    0.0000 C   0  0  0  0  0  0  0  0  0  0  0  0
    1.6502   -2.0544    0.0000 C   0  0  0  0  0  0  0  0  0  0  0  0
    2.4475   -2.2206    0.0000 C   0  0  0  0  0  0  0  0  0  0  0  0
    0.8417   -1.6447    0.0000 C   0  0  0  0  0  0  0  0  0  0  0  0
    1.5616   -0.4153    0.0000 C   0  0  0  0  0  0  0  0  0  0  0  0
    4.1088   -0.7143    0.0000 C   0  0  0  0  0  0  0  0  0  0  0  0
    4.2639   -2.0433    0.0000 C   0  0  0  0  0  0  0  0  0  0  0  0
    0.1107   -1.2348    0.0000 C   0  0  0  0  0  0  0  0  0  0  0  0
    0.8307   -0.0055    0.0000 C   0  0  0  0  0  0  0  0  0  0  0  0
    4.9062   -0.9137    0.0000 C   0  0  0  0  0  0  0  0  0  0  0  0
   -2.0488    0.0055    0.0000 C   0  0  0  0  0  0  0  0  0  0  0  0
   -0.6091    0.0055    0.0000 C   0  0  0  0  0  0  0  0  0  0  0  0
   -1.3290   -0.4042    0.0000 C   0  0  3  0  0  0  0  0  0  0  0  0
   -2.7798   -0.4042    0.0000 C   0  0  0  0  0  0  0  0  0  0  0  0
   -3.4886    0.8251    0.0000 C   0  0  0  0  0  0  0  0  0  0  0  0
   -3.4886    0.0055    0.0000 C   0  0  0  0  0  0  0  0  0  0  0  0
    3.7876    0.0498    0.0000 C   0  0  0  0  0  0  0  0  0  0  0  0
   -2.8020    1.2348    0.0000 C   0  0  0  0  0  0  0  0  0  0  0  0
   -4.3081    2.0655    0.0000 C   0  0  0  0  0  0  0  0  0  0  0  0
  1 28  1  0  0  0  0
  2 14  2  0  0  0  0
  3 21  1  0  0  0  0
  3 24  1  0  0  0  0
  4 24  2  0  0  0  0
 27  5  1  1  0  0  0
  6 14  1  0  0  0  0
  6 15  1  0  0  0  0
  6 17  1  0  0  0  0
  7 22  1  0  0  0  0
  7 23  1  0  0  0  0
  7 26  1  0  0  0  0
  8 10  1  0  0  0  0
  8 29  1  0  0  0  0
  8 33  1  0  0  0  0
  9 25  1  0  0  0  0
  9 32  2  0  0  0  0
 10 11  2  0  0  0  0
 11 12  1  0  0  0  0
 12 33  2  0  0  0  0
 13 14  1  0  0  0  0
 13 16  1  0  0  0  0
 13 18  1  0  0  0  0
 13 19  1  0  0  0  0
 15 20  2  0  0  0  0
 15 21  1  0  0  0  0
 16 17  1  0  0  0  0
 18 22  1  0  0  0  0
 19 23  1  0  0  0  0
 20 24  1  0  0  0  0
 20 31  1  0  0  0  0
 25 27  1  0  0  0  0
 25 28  2  0  0  0  0
 26 27  1  0  0  0  0
 28 30  1  0  0  0  0
 29 30  2  0  0  0  0
 29 32  1  0  0  0  0
M  END
> <PUBCHEM_COMPOUND_ID_TYPE>
0

> <PUBCHEM_TOTAL_CHARGE>
0

> <PUBCHEM_SUBSTANCE_ID>
310944128

> <PUBCHEM_SUBSTANCE_VERSION>
1

> <PUBCHEM_EXT_DATASOURCE_NAME>
4488

> <PUBCHEM_EXT_DATASOURCE_REGID>
SCHEMBL16122203

> <PUBCHEM_SUBSTANCE_COMMENT>
InChI=1S/C21H24FN7O4/c1-13-16(11-33-19(13)31)28-7-4-21(20(28)32)2-5-27(6-3-21)10-17(30)18-15(22)8-14(9-23-18)29-12-24-25-26-29/h8-9,12,17,30H,2-7,10-11H2,1H3/t17-/m1/s1
InChIKey=UFGFTOLZDKVKPD-QGZVFWFLSA-N

> <PUBCHEM_SUBSTANCE_SYNONYM>
SCHEMBL16122203

> <PUBCHEM_XREF_EXT_ID>
SCHEMBL16122203

> <PUBCHEM_EXT_DATASOURCE_URL>
https://www.surechembl.org/

> <PUBCHEM_EXT_SUBSTANCE_URL>
https://www.surechembl.org/chemical/SCHEMBL16122203

> <PUBCHEM_CID_ASSOCIATIONS>
117610409  1

> <PUBCHEM_COORDINATE_TYPE>
1
3

> <PUBCHEM_BONDANNOTATIONS>
27  5  5

$$$$
