310940870
  -OEChem-07211613022D

 36 38  0     1  0  0  0  0  0999 V2000
    5.0830    0.4710    0.0000 O   0  0  0  0  0  0  0  0  0  0  0  0
    3.9441   -1.4834    0.0000 O   0  0  0  0  0  0  0  0  0  0  0  0
    1.7928    0.5835    0.0000 O   0  0  0  0  0  0  0  0  0  0  0  0
    1.7928   -1.9053    0.0000 O   0  0  0  0  0  0  0  0  0  0  0  0
   -0.3726   -1.4834    0.0000 O   0  0  0  0  0  0  0  0  0  0  0  0
   -2.5380    0.5835    0.0000 O   0  0  0  0  0  0  0  0  0  0  0  0
   -5.4064    0.5835    0.0000 O   0  0  0  0  0  0  0  0  0  0  0  0
    2.5098   -0.6398    0.0000 N   0  0  0  0  0  0  0  0  0  0  0  0
    0.3586   -0.2320    0.0000 N   0  0  0  0  0  0  0  0  0  0  0  0
   -1.8068   -0.6398    0.0000 N   0  0  0  0  0  0  0  0  0  0  0  0
   -3.9722   -0.2320    0.0000 N   0  0  0  0  0  0  0  0  0  0  0  0
    4.6612   -0.2180    0.0000 C   0  0  3  0  0  0  0  0  0  0  0  0
    3.9441   -0.6116    0.0000 C   0  0  0  0  0  0  0  0  0  0  0  0
    4.2675    0.4710    0.0000 C   0  0  0  0  0  0  0  0  0  0  0  0
    3.2270   -0.2320    0.0000 C   0  0  3  0  0  0  0  0  0  0  0  0
    5.4064   -0.6398    0.0000 C   0  0  0  0  0  0  0  0  0  0  0  0
    3.2270    1.0898    0.0000 C   0  0  0  0  0  0  0  0  0  0  0  0
    1.7787   -0.2461    0.0000 C   0  0  0  0  0  0  0  0  0  0  0  0
    2.4958    1.5116    0.0000 C   0  0  0  0  0  0  0  0  0  0  0  0
    1.0898   -0.6398    0.0000 C   0  0  3  0  0  0  0  0  0  0  0  0
   -0.3726   -0.6116    0.0000 C   0  0  0  0  0  0  0  0  0  0  0  0
    1.7647    1.1038    0.0000 C   0  0  0  0  0  0  0  0  0  0  0  0
    2.5098    2.3271    0.0000 C   0  0  0  0  0  0  0  0  0  0  0  0
    1.0616   -1.4975    0.0000 C   0  0  0  0  0  0  0  0  0  0  0  0
   -1.0898   -0.2320    0.0000 C   0  0  3  0  0  0  0  0  0  0  0  0
    1.0757    1.5116    0.0000 C   0  0  0  0  0  0  0  0  0  0  0  0
    1.7787    2.7349    0.0000 C   0  0  0  0  0  0  0  0  0  0  0  0
   -2.5380   -0.2461    0.0000 C   0  0  0  0  0  0  0  0  0  0  0  0
    1.0757    2.3271    0.0000 C   0  0  0  0  0  0  0  0  0  0  0  0
   -3.2410   -0.6398    0.0000 C   0  0  0  0  0  0  0  0  0  0  0  0
   -1.0898    0.5976    0.0000 C   0  0  0  0  0  0  0  0  0  0  0  0
   -3.9582    0.5976    0.0000 C   0  0  0  0  0  0  0  0  0  0  0  0
   -4.6753   -0.6398    0.0000 C   0  0  0  0  0  0  0  0  0  0  0  0
   -4.7033    1.0053    0.0000 C   0  0  0  0  0  0  0  0  0  0  0  0
   -5.4064   -0.2320    0.0000 C   0  0  0  0  0  0  0  0  0  0  0  0
    1.8068   -2.7349    0.0000 C   0  0  0  0  0  0  0  0  0  0  0  0
  1 12  1  0  0  0  0
  1 14  1  0  0  0  0
  2 13  2  0  0  0  0
  3 18  2  0  0  0  0
  4 24  1  0  0  0  0
  4 36  1  0  0  0  0
  5 21  2  0  0  0  0
  6 28  2  0  0  0  0
  7 34  1  0  0  0  0
  7 35  1  0  0  0  0
 15  8  1  1  0  0  0
  8 18  1  0  0  0  0
 20  9  1  6  0  0  0
  9 21  1  0  0  0  0
 10 25  1  0  0  0  0
 10 28  1  0  0  0  0
 11 30  1  0  0  0  0
 11 32  1  0  0  0  0
 11 33  1  0  0  0  0
 12 13  1  1  0  0  0
 12 14  1  0  0  0  0
 12 16  1  6  0  0  0
 13 15  1  0  0  0  0
 15 17  1  0  0  0  0
 17 19  1  0  0  0  0
 18 20  1  0  0  0  0
 19 22  2  0  0  0  0
 19 23  1  0  0  0  0
 20 24  1  0  0  0  0
 21 25  1  0  0  0  0
 22 26  1  0  0  0  0
 23 27  2  0  0  0  0
 25 31  1  1  0  0  0
 26 29  2  0  0  0  0
 27 29  1  0  0  0  0
 28 30  1  0  0  0  0
 32 34  1  0  0  0  0
 33 35  1  0  0  0  0
M  END
> <PUBCHEM_COMPOUND_ID_TYPE>
0

> <PUBCHEM_TOTAL_CHARGE>
0

> <PUBCHEM_SUBSTANCE_ID>
310940870

> <PUBCHEM_SUBSTANCE_VERSION>
1

> <PUBCHEM_EXT_DATASOURCE_NAME>
4488

> <PUBCHEM_EXT_DATASOURCE_REGID>
SCHEMBL16118829

> <PUBCHEM_SUBSTANCE_COMMENT>
InChI=1S/C25H36N4O7/c1-17(26-21(30)14-29-9-11-35-12-10-29)23(32)28-20(15-34-3)24(33)27-19(22(31)25(2)16-36-25)13-18-7-5-4-6-8-18/h4-8,17,19-20H,9-16H2,1-3H3,(H,26,30)(H,27,33)(H,28,32)/t17-,19-,20-,25+/m0/s1
InChIKey=DNCGKMIFLHLZOG-YMGHSFPGSA-N

> <PUBCHEM_SUBSTANCE_SYNONYM>
SCHEMBL16118829

> <PUBCHEM_XREF_EXT_ID>
SCHEMBL16118829

> <PUBCHEM_EXT_DATASOURCE_URL>
https://www.surechembl.org/

> <PUBCHEM_EXT_SUBSTANCE_URL>
https://www.surechembl.org/chemical/SCHEMBL16118829

> <PUBCHEM_CID_ASSOCIATIONS>
117607787  1

> <PUBCHEM_COORDINATE_TYPE>
1
3

> <PUBCHEM_BONDANNOTATIONS>
12  13  5
12  16  6
25  31  5
15  8  5
20  9  6

$$$$
