310949854
  -OEChem-07211613022D

 44 47  0     1  0  0  0  0  0999 V2000
   -2.9780   -0.5309    0.0000 P   0  0  3  0  0  0  0  0  0  0  0  0
    0.2882   -2.0477    0.0000 F   0  0  0  0  0  0  0  0  0  0  0  0
   -0.1365    0.0354    0.0000 O   0  0  0  0  0  0  0  0  0  0  0  0
   -1.0163   -1.9264    0.0000 O   0  0  0  0  0  0  0  0  0  0  0  0
   -2.1995   -0.7837    0.0000 O   0  0  0  0  0  0  0  0  0  0  0  0
    0.8747    1.2084    0.0000 O   0  0  0  0  0  0  0  0  0  0  0  0
   -3.2106   -1.3298    0.0000 O   0  0  0  0  0  0  0  0  0  0  0  0
   -2.7556    0.2781    0.0000 O   0  0  0  0  0  0  0  0  0  0  0  0
    4.1511   -0.7635    0.0000 O   0  0  0  0  0  0  0  0  0  0  0  0
   -5.0410    1.5118    0.0000 O   0  0  0  0  0  0  0  0  0  0  0  0
   -5.4050    0.1062    0.0000 O   0  0  0  0  0  0  0  0  0  0  0  0
    1.3197   -0.1769    0.0000 N   0  0  0  0  0  0  0  0  0  0  0  0
    2.2803    0.9051    0.0000 N   0  0  0  0  0  0  0  0  0  0  0  0
    3.6960    0.6219    0.0000 N   0  0  0  0  0  0  0  0  0  0  0  0
   -3.7971   -0.3287    0.0000 N   0  0  0  0  0  0  0  0  0  0  0  0
    5.7690   -0.1669    0.0000 N   0  0  3  0  0  0  0  0  0  0  0  0
    0.2882   -1.2185    0.0000 C   0  0  3  0  0  0  0  0  0  0  0  0
    0.5309   -0.4298    0.0000 C   0  0  3  0  0  0  0  0  0  0  0  0
   -0.5309   -1.2286    0.0000 C   0  0  3  0  0  0  0  0  0  0  0  0
   -0.7938   -0.4500    0.0000 C   0  0  3  0  0  0  0  0  0  0  0  0
    1.5017    0.6522    0.0000 C   0  0  0  0  0  0  0  0  0  0  0  0
   -1.5724   -0.1972    0.0000 C   0  0  0  0  0  0  0  0  0  0  0  0
    1.0669   -1.4410    0.0000 C   0  0  0  0  0  0  0  0  0  0  0  0
    1.9466   -0.7231    0.0000 C   0  0  0  0  0  0  0  0  0  0  0  0
    2.9073    0.3691    0.0000 C   0  0  0  0  0  0  0  0  0  0  0  0
    2.7253   -0.4500    0.0000 C   0  0  0  0  0  0  0  0  0  0  0  0
    4.3230    0.0860    0.0000 C   0  0  0  0  0  0  0  0  0  0  0  0
   -4.0297   -1.5219    0.0000 C   0  0  0  0  0  0  0  0  0  0  0  0
   -4.0197    0.5107    0.0000 C   0  0  3  0  0  0  0  0  0  0  0  0
    5.0814    0.3387    0.0000 C   0  0  3  0  0  0  0  0  0  0  0  0
   -4.8185    0.7433    0.0000 C   0  0  0  0  0  0  0  0  0  0  0  0
    5.2837    1.1376    0.0000 C   0  0  0  0  0  0  0  0  0  0  0  0
   -4.5859   -0.9455    0.0000 C   0  0  0  0  0  0  0  0  0  0  0  0
   -4.2623   -2.3208    0.0000 C   0  0  0  0  0  0  0  0  0  0  0  0
    6.4466    0.3589    0.0000 C   0  0  0  0  0  0  0  0  0  0  0  0
   -3.4432    1.0971    0.0000 C   0  0  0  0  0  0  0  0  0  0  0  0
    6.1837    1.1477    0.0000 C   0  0  0  0  0  0  0  0  0  0  0  0
   -5.4050   -1.1477    0.0000 C   0  0  0  0  0  0  0  0  0  0  0  0
   -5.0511   -2.5230    0.0000 C   0  0  0  0  0  0  0  0  0  0  0  0
    5.7792   -0.9960    0.0000 C   0  0  0  0  0  0  0  0  0  0  0  0
   -5.6275   -1.9365    0.0000 C   0  0  0  0  0  0  0  0  0  0  0  0
   -5.8601    1.7444    0.0000 C   0  0  0  0  0  0  0  0  0  0  0  0
   -6.0724    2.5230    0.0000 C   0  0  0  0  0  0  0  0  0  0  0  0
   -6.4466    1.1275    0.0000 C   0  0  0  0  0  0  0  0  0  0  0  0
  1  5  1  0  0  0  0
  1  7  1  0  0  0  0
  1  8  2  0  0  0  0
  1 15  1  0  0  0  0
 17  2  1  6  0  0  0
 18  3  1  1  0  0  0
  3 20  1  0  0  0  0
 19  4  1  6  0  0  0
  5 22  1  0  0  0  0
  6 21  2  0  0  0  0
  7 28  1  0  0  0  0
  9 27  2  0  0  0  0
 10 31  1  0  0  0  0
 10 42  1  0  0  0  0
 11 31  2  0  0  0  0
 12 18  1  0  0  0  0
 12 21  1  0  0  0  0
 12 24  1  0  0  0  0
 13 21  1  0  0  0  0
 13 25  2  0  0  0  0
 14 25  1  0  0  0  0
 14 27  1  0  0  0  0
 15 29  1  0  0  0  0
 16 30  1  0  0  0  0
 16 35  1  0  0  0  0
 16 40  1  0  0  0  0
 17 18  1  0  0  0  0
 17 19  1  0  0  0  0
 17 23  1  1  0  0  0
 19 20  1  0  0  0  0
 20 22  1  1  0  0  0
 24 26  2  0  0  0  0
 25 26  1  0  0  0  0
 30 27  1  6  0  0  0
 28 33  2  0  0  0  0
 28 34  1  0  0  0  0
 29 31  1  0  0  0  0
 29 36  1  1  0  0  0
 30 32  1  0  0  0  0
 32 37  1  0  0  0  0
 33 38  1  0  0  0  0
 34 39  2  0  0  0  0
 35 37  1  0  0  0  0
 38 41  2  0  0  0  0
 39 41  1  0  0  0  0
 42 43  1  0  0  0  0
 42 44  1  0  0  0  0
M  END
> <PUBCHEM_COMPOUND_ID_TYPE>
0

> <PUBCHEM_TOTAL_CHARGE>
0

> <PUBCHEM_SUBSTANCE_ID>
310949854

> <PUBCHEM_SUBSTANCE_VERSION>
1

> <PUBCHEM_EXT_DATASOURCE_NAME>
4488

> <PUBCHEM_EXT_DATASOURCE_REGID>
SCHEMBL16128058

> <PUBCHEM_SUBSTANCE_COMMENT>
InChI=1S/C28H39FN5O9P/c1-17(2)41-25(37)18(3)32-44(39,43-19-10-7-6-8-11-19)40-16-21-23(35)28(4,29)26(42-21)34-15-13-22(31-27(34)38)30-24(36)20-12-9-14-33(20)5/h6-8,10-11,13,15,17-18,20-21,23,26,35H,9,12,14,16H2,1-5H3,(H,32,39)(H,30,31,36,38)/t18-,20+,21-,23-,26-,28-,44?/m1/s1
InChIKey=RZXACZZFJTXKLM-XQJBSODTSA-N

> <PUBCHEM_SUBSTANCE_SYNONYM>
SCHEMBL16128058

> <PUBCHEM_XREF_EXT_ID>
SCHEMBL16128058

> <PUBCHEM_EXT_DATASOURCE_URL>
https://www.surechembl.org/

> <PUBCHEM_EXT_SUBSTANCE_URL>
https://www.surechembl.org/chemical/SCHEMBL16128058

> <PUBCHEM_CID_ASSOCIATIONS>
86270312  1

> <PUBCHEM_COORDINATE_TYPE>
1
3

> <PUBCHEM_BONDANNOTATIONS>
17  23  5
17  2  6
20  22  5
30  27  6
29  36  5
18  3  5
19  4  6

$$$$
