310949941
  -OEChem-07211613022D

 29 33  0     0  0  0  0  0  0999 V2000
   -3.5844    3.0395    0.0000 Cl  0  0  0  0  0  0  0  0  0  0  0  0
   -0.3703    1.5581    0.0000 N   0  0  0  0  0  0  0  0  0  0  0  0
   -0.3703    2.8996    0.0000 N   0  0  0  0  0  0  0  0  0  0  0  0
    2.1171    2.2288    0.0000 N   0  0  0  0  0  0  0  0  0  0  0  0
    0.3983   -0.8174    0.0000 N   0  0  0  0  0  0  0  0  0  0  0  0
    0.1048    2.2429    0.0000 C   0  0  0  0  0  0  0  0  0  0  0  0
   -1.1668    1.8237    0.0000 C   0  0  0  0  0  0  0  0  0  0  0  0
   -1.1529    2.6481    0.0000 C   0  0  0  0  0  0  0  0  0  0  0  0
   -0.1188    0.7895    0.0000 C   0  0  0  0  0  0  0  0  0  0  0  0
    0.9572    2.2288    0.0000 C   0  0  0  0  0  0  0  0  0  0  0  0
   -1.8656    1.4044    0.0000 C   0  0  0  0  0  0  0  0  0  0  0  0
   -1.8795    3.0395    0.0000 C   0  0  0  0  0  0  0  0  0  0  0  0
    1.5162    2.8018    0.0000 C   0  0  0  0  0  0  0  0  0  0  0  0
    1.5442    1.6559    0.0000 C   0  0  0  0  0  0  0  0  0  0  0  0
   -2.5923    2.6481    0.0000 C   0  0  0  0  0  0  0  0  0  0  0  0
   -0.6499    0.1747    0.0000 C   0  0  0  0  0  0  0  0  0  0  0  0
    0.7057    0.5939    0.0000 C   0  0  0  0  0  0  0  0  0  0  0  0
   -2.5923    1.8237    0.0000 C   0  0  0  0  0  0  0  0  0  0  0  0
   -0.4122   -0.6219    0.0000 C   0  0  0  0  0  0  0  0  0  0  0  0
    0.9572   -0.1886    0.0000 C   0  0  0  0  0  0  0  0  0  0  0  0
    0.6638   -1.5861    0.0000 C   0  0  0  0  0  0  0  0  0  0  0  0
    1.4603   -1.7678    0.0000 C   0  0  0  0  0  0  0  0  0  0  0  0
    1.6280   -2.5782    0.0000 C   0  0  0  0  0  0  0  0  0  0  0  0
    1.9355   -1.0829    0.0000 C   0  0  0  0  0  0  0  0  0  0  0  0
    2.2848   -3.0395    0.0000 C   0  0  0  0  0  0  0  0  0  0  0  0
    2.7599   -0.9432    0.0000 C   0  0  0  0  0  0  0  0  0  0  0  0
    3.4306   -1.4044    0.0000 C   0  0  0  0  0  0  0  0  0  0  0  0
    3.1093   -2.8996    0.0000 C   0  0  0  0  0  0  0  0  0  0  0  0
    3.5844   -2.2149    0.0000 C   0  0  0  0  0  0  0  0  0  0  0  0
  1 15  1  0  0  0  0
  2  6  1  0  0  0  0
  2  7  1  0  0  0  0
  2  9  1  0  0  0  0
  3  6  2  0  0  0  0
  3  8  1  0  0  0  0
  4 13  1  0  0  0  0
  4 14  1  0  0  0  0
  5 19  1  0  0  0  0
  5 20  1  0  0  0  0
  5 21  1  0  0  0  0
  6 10  1  0  0  0  0
  7  8  1  0  0  0  0
  7 11  2  0  0  0  0
  8 12  2  0  0  0  0
  9 16  1  0  0  0  0
  9 17  1  0  0  0  0
 10 13  1  0  0  0  0
 10 14  1  0  0  0  0
 11 18  1  0  0  0  0
 12 15  1  0  0  0  0
 15 18  2  0  0  0  0
 16 19  1  0  0  0  0
 17 20  1  0  0  0  0
 21 22  1  0  0  0  0
 22 23  1  0  0  0  0
 22 24  1  0  0  0  0
 23 25  1  0  0  0  0
 24 26  1  0  0  0  0
 25 28  1  0  0  0  0
 26 27  1  0  0  0  0
 27 29  1  0  0  0  0
 28 29  1  0  0  0  0
M  END
> <PUBCHEM_COMPOUND_ID_TYPE>
0

> <PUBCHEM_TOTAL_CHARGE>
0

> <PUBCHEM_SUBSTANCE_ID>
310949941

> <PUBCHEM_SUBSTANCE_VERSION>
1

> <PUBCHEM_EXT_DATASOURCE_NAME>
4488

> <PUBCHEM_EXT_DATASOURCE_REGID>
SCHEMBL16128168

> <PUBCHEM_SUBSTANCE_COMMENT>
InChI=1S/C24H35ClN4/c25-20-8-9-23-22(14-20)27-24(19-15-26-16-19)29(23)21-10-12-28(13-11-21)17-18-6-4-2-1-3-5-7-18/h8-9,14,18-19,21,26H,1-7,10-13,15-17H2
InChIKey=ALLCFPAFBPXUDW-UHFFFAOYSA-N

> <PUBCHEM_SUBSTANCE_SYNONYM>
SCHEMBL16128168

> <PUBCHEM_XREF_EXT_ID>
SCHEMBL16128168

> <PUBCHEM_EXT_DATASOURCE_URL>
https://www.surechembl.org/

> <PUBCHEM_EXT_SUBSTANCE_URL>
https://www.surechembl.org/chemical/SCHEMBL16128168

> <PUBCHEM_CID_ASSOCIATIONS>
86273571  1

> <PUBCHEM_COORDINATE_TYPE>
1
3

$$$$
