310944169
  -OEChem-07211613022D

 33 37  0     1  0  0  0  0  0999 V2000
   -1.5783   -2.4693    0.0000 F   0  0  0  0  0  0  0  0  0  0  0  0
    2.3592    1.1384    0.0000 O   0  0  0  0  0  0  0  0  0  0  0  0
    5.3290    1.0174    0.0000 O   0  0  0  0  0  0  0  0  0  0  0  0
    5.0870    2.4693    0.0000 O   0  0  0  0  0  0  0  0  0  0  0  0
   -0.3354   -1.7543    0.0000 O   0  0  0  0  0  0  0  0  0  0  0  0
    3.4042    0.1045    0.0000 N   0  0  0  0  0  0  0  0  0  0  0  0
    0.4895   -0.3244    0.0000 N   0  0  0  0  0  0  0  0  0  0  0  0
   -4.0531   -1.0394    0.0000 N   0  0  0  0  0  0  0  0  0  0  0  0
   -4.5371   -0.3685    0.0000 N   0  0  0  0  0  0  0  0  0  0  0  0
   -5.3290   -0.6214    0.0000 N   0  0  0  0  0  0  0  0  0  0  0  0
   -5.3290   -1.4574    0.0000 N   0  0  0  0  0  0  0  0  0  0  0  0
    2.1393   -0.3025    0.0000 C   0  0  0  0  0  0  0  0  0  0  0  0
    2.6232    0.3574    0.0000 C   0  0  0  0  0  0  0  0  0  0  0  0
    4.0641    0.5994    0.0000 C   0  0  0  0  0  0  0  0  0  0  0  0
    2.6342   -0.9734    0.0000 C   0  0  0  0  0  0  0  0  0  0  0  0
    3.4042   -0.7204    0.0000 C   0  0  0  0  0  0  0  0  0  0  0  0
    1.7323   -1.0174    0.0000 C   0  0  0  0  0  0  0  0  0  0  0  0
    1.7323    0.4015    0.0000 C   0  0  0  0  0  0  0  0  0  0  0  0
    4.0751    1.4354    0.0000 C   0  0  0  0  0  0  0  0  0  0  0  0
    4.8560    0.3574    0.0000 C   0  0  0  0  0  0  0  0  0  0  0  0
    0.8964   -1.0284    0.0000 C   0  0  0  0  0  0  0  0  0  0  0  0
    0.9075    0.4125    0.0000 C   0  0  0  0  0  0  0  0  0  0  0  0
    4.8340    1.6664    0.0000 C   0  0  0  0  0  0  0  0  0  0  0  0
   -1.5783   -1.0284    0.0000 C   0  0  0  0  0  0  0  0  0  0  0  0
   -0.3354   -0.3134    0.0000 C   0  0  0  0  0  0  0  0  0  0  0  0
   -0.7534   -1.0284    0.0000 C   0  0  3  0  0  0  0  0  0  0  0  0
   -1.9963   -1.7433    0.0000 C   0  0  0  0  0  0  0  0  0  0  0  0
   -3.2282   -1.0284    0.0000 C   0  0  0  0  0  0  0  0  0  0  0  0
    3.3932    1.9194    0.0000 C   0  0  0  0  0  0  0  0  0  0  0  0
   -2.8212   -1.7323    0.0000 C   0  0  0  0  0  0  0  0  0  0  0  0
   -1.9963   -0.3134    0.0000 C   0  0  0  0  0  0  0  0  0  0  0  0
   -2.8102   -0.3134    0.0000 C   0  0  0  0  0  0  0  0  0  0  0  0
   -4.5371   -1.6994    0.0000 C   0  0  0  0  0  0  0  0  0  0  0  0
  1 27  1  0  0  0  0
  2 13  2  0  0  0  0
  3 20  1  0  0  0  0
  3 23  1  0  0  0  0
  4 23  2  0  0  0  0
 26  5  1  1  0  0  0
  6 13  1  0  0  0  0
  6 14  1  0  0  0  0
  6 16  1  0  0  0  0
  7 21  1  0  0  0  0
  7 22  1  0  0  0  0
  7 25  1  0  0  0  0
  8  9  1  0  0  0  0
  8 28  1  0  0  0  0
  8 33  1  0  0  0  0
  9 10  2  0  0  0  0
 10 11  1  0  0  0  0
 11 33  2  0  0  0  0
 12 13  1  0  0  0  0
 12 15  1  0  0  0  0
 12 17  1  0  0  0  0
 12 18  1  0  0  0  0
 14 19  2  0  0  0  0
 14 20  1  0  0  0  0
 15 16  1  0  0  0  0
 17 21  1  0  0  0  0
 18 22  1  0  0  0  0
 19 23  1  0  0  0  0
 19 29  1  0  0  0  0
 24 26  1  0  0  0  0
 24 27  2  0  0  0  0
 24 31  1  0  0  0  0
 25 26  1  0  0  0  0
 27 30  1  0  0  0  0
 28 30  2  0  0  0  0
 28 32  1  0  0  0  0
 31 32  2  0  0  0  0
M  END
> <PUBCHEM_COMPOUND_ID_TYPE>
0

> <PUBCHEM_TOTAL_CHARGE>
0

> <PUBCHEM_SUBSTANCE_ID>
310944169

> <PUBCHEM_SUBSTANCE_VERSION>
1

> <PUBCHEM_EXT_DATASOURCE_NAME>
4488

> <PUBCHEM_EXT_DATASOURCE_REGID>
SCHEMBL16122244

> <PUBCHEM_SUBSTANCE_COMMENT>
InChI=1S/C22H25FN6O4/c1-14-18(12-33-20(14)31)28-9-6-22(21(28)32)4-7-27(8-5-22)11-19(30)16-3-2-15(10-17(16)23)29-13-24-25-26-29/h2-3,10,13,19,30H,4-9,11-12H2,1H3/t19-/m1/s1
InChIKey=ICCBNZNJOHHHLC-LJQANCHMSA-N

> <PUBCHEM_SUBSTANCE_SYNONYM>
SCHEMBL16122244

> <PUBCHEM_XREF_EXT_ID>
SCHEMBL16122244

> <PUBCHEM_EXT_DATASOURCE_URL>
https://www.surechembl.org/

> <PUBCHEM_EXT_SUBSTANCE_URL>
https://www.surechembl.org/chemical/SCHEMBL16122244

> <PUBCHEM_CID_ASSOCIATIONS>
86271458  1

> <PUBCHEM_COORDINATE_TYPE>
1
3

> <PUBCHEM_BONDANNOTATIONS>
26  5  5

$$$$
