310933028
  -OEChem-07211613022D

 28 30  0     0  0  0  0  0  0999 V2000
    3.9836   -2.7325    0.0000 O   0  0  0  0  0  0  0  0  0  0  0  0
    8.4281   -2.8313    0.0000 O   0  0  0  0  0  0  0  0  0  0  0  0
    4.8725   -1.5803    0.0000 N   0  0  0  0  0  0  0  0  0  0  0  0
    4.8067   -0.7572    0.0000 N   0  0  0  0  0  0  0  0  0  0  0  0
    6.3211   -1.5803    0.0000 N   0  0  0  0  0  0  0  0  0  0  0  0
    7.7367   -4.0494    0.0000 N   0  0  0  0  0  0  0  0  0  0  0  0
    0.0000   -2.4362    0.0000 N   0  0  0  0  0  0  0  0  0  0  0  0
    3.5885   -1.3169    0.0000 C   0  0  0  0  0  0  0  0  0  0  0  0
    4.1482   -1.9424    0.0000 C   0  0  0  0  0  0  0  0  0  0  0  0
    2.7655   -1.4156    0.0000 C   0  0  0  0  0  0  0  0  0  0  0  0
    5.5968   -2.0083    0.0000 C   0  0  0  0  0  0  0  0  0  0  0  0
    3.9836   -0.6256    0.0000 C   0  0  0  0  0  0  0  0  0  0  0  0
    2.2716   -0.7572    0.0000 C   0  0  0  0  0  0  0  0  0  0  0  0
    2.4362   -2.1729    0.0000 C   0  0  0  0  0  0  0  0  0  0  0  0
    5.5968   -2.8313    0.0000 C   0  0  0  0  0  0  0  0  0  0  0  0
    7.0124   -2.8313    0.0000 C   0  0  0  0  0  0  0  0  0  0  0  0
    1.4815   -0.8560    0.0000 C   0  0  0  0  0  0  0  0  0  0  0  0
    1.1523   -1.6132    0.0000 C   0  0  0  0  0  0  0  0  0  0  0  0
    7.0124   -2.0083    0.0000 C   0  0  0  0  0  0  0  0  0  0  0  0
    6.3211   -3.2264    0.0000 C   0  0  0  0  0  0  0  0  0  0  0  0
    1.6132   -2.2716    0.0000 C   0  0  0  0  0  0  0  0  0  0  0  0
    7.7367   -3.2264    0.0000 C   0  0  0  0  0  0  0  0  0  0  0  0
    2.6009    0.0000    0.0000 C   0  0  0  0  0  0  0  0  0  0  0  0
    0.3292   -1.7120    0.0000 C   0  0  0  0  0  0  0  0  0  0  0  0
    8.4610   -4.4445    0.0000 C   0  0  0  0  0  0  0  0  0  0  0  0
    9.1524   -4.0494    0.0000 C   0  0  0  0  0  0  0  0  0  0  0  0
    9.8766   -4.4445    0.0000 C   0  0  0  0  0  0  0  0  0  0  0  0
    9.1524   -3.2264    0.0000 C   0  0  0  0  0  0  0  0  0  0  0  0
  1  9  1  0  0  0  0
  2 22  2  0  0  0  0
  3  4  1  0  0  0  0
  3  9  1  0  0  0  0
  3 11  1  0  0  0  0
  4 12  2  0  0  0  0
  5 11  2  0  0  0  0
  5 19  1  0  0  0  0
  6 22  1  0  0  0  0
  6 25  1  0  0  0  0
  7 24  3  0  0  0  0
  8  9  2  0  0  0  0
  8 10  1  0  0  0  0
  8 12  1  0  0  0  0
 10 13  1  0  0  0  0
 10 14  2  0  0  0  0
 11 15  1  0  0  0  0
 13 17  2  0  0  0  0
 13 23  1  0  0  0  0
 14 21  1  0  0  0  0
 15 20  2  0  0  0  0
 16 19  2  0  0  0  0
 16 20  1  0  0  0  0
 16 22  1  0  0  0  0
 17 18  1  0  0  0  0
 18 21  2  0  0  0  0
 18 24  1  0  0  0  0
 25 26  1  0  0  0  0
 26 27  1  0  0  0  0
 26 28  1  0  0  0  0
M  END
> <PUBCHEM_COMPOUND_ID_TYPE>
0

> <PUBCHEM_TOTAL_CHARGE>
0

> <PUBCHEM_SUBSTANCE_ID>
310933028

> <PUBCHEM_SUBSTANCE_VERSION>
1

> <PUBCHEM_EXT_DATASOURCE_NAME>
4488

> <PUBCHEM_EXT_DATASOURCE_REGID>
SCHEMBL16110428

> <PUBCHEM_SUBSTANCE_COMMENT>
InChI=1S/C21H21N5O2/c1-13(2)10-24-20(27)16-5-7-19(23-11-16)26-21(28)18(12-25-26)17-6-4-15(9-22)8-14(17)3/h4-8,11-13,28H,10H2,1-3H3,(H,24,27)
InChIKey=OUTCRWAIOGTASJ-UHFFFAOYSA-N

> <PUBCHEM_SUBSTANCE_SYNONYM>
SCHEMBL16110428

> <PUBCHEM_XREF_EXT_ID>
SCHEMBL16110428

> <PUBCHEM_EXT_DATASOURCE_URL>
https://www.surechembl.org/

> <PUBCHEM_EXT_SUBSTANCE_URL>
https://www.surechembl.org/chemical/SCHEMBL16110428

> <PUBCHEM_CID_ASSOCIATIONS>
117601493  1

> <PUBCHEM_COORDINATE_TYPE>
1
3

$$$$
