310940612
  -OEChem-07211613022D

 36 40  0     0  0  0  0  0  0999 V2000
   -0.4810    2.2335    0.0000 S   0  0  0  0  0  0  0  0  0  0  0  0
    2.3229   -0.2955    0.0000 O   0  0  0  0  0  0  0  0  0  0  0  0
   -1.8693   -0.4329    0.0000 O   0  0  0  0  0  0  0  0  0  0  0  0
    2.4191    1.2027    0.0000 O   0  0  0  0  0  0  0  0  0  0  0  0
   -3.1475   -2.3710    0.0000 O   0  0  0  0  0  0  0  0  0  0  0  0
    3.1475   -1.6837    0.0000 O   0  0  0  0  0  0  0  0  0  0  0  0
   -0.3298    1.4226    0.0000 O   0  0  0  0  0  0  0  0  0  0  0  0
   -0.6735    3.0582    0.0000 O   0  0  0  0  0  0  0  0  0  0  0  0
    1.1958    0.3917    0.0000 N   0  0  0  0  0  0  0  0  0  0  0  0
    1.0308   -2.1098    0.0000 N   0  0  0  0  0  0  0  0  0  0  0  0
   -2.7351   -3.0994    0.0000 N   0  0  0  0  0  0  0  0  0  0  0  0
    0.9896   -0.3643    0.0000 C   0  0  0  0  0  0  0  0  0  0  0  0
    0.2886   -0.7903    0.0000 C   0  0  0  0  0  0  0  0  0  0  0  0
    1.7181   -0.7903    0.0000 C   0  0  0  0  0  0  0  0  0  0  0  0
    0.2749   -1.6012    0.0000 C   0  0  0  0  0  0  0  0  0  0  0  0
    1.7043   -1.6150    0.0000 C   0  0  0  0  0  0  0  0  0  0  0  0
    1.9655    0.5154    0.0000 C   0  0  0  0  0  0  0  0  0  0  0  0
   -1.1545   -1.6150    0.0000 C   0  0  0  0  0  0  0  0  0  0  0  0
   -0.4398   -0.3779    0.0000 C   0  0  0  0  0  0  0  0  0  0  0  0
   -1.1408   -0.7903    0.0000 C   0  0  0  0  0  0  0  0  0  0  0  0
   -0.4398   -2.0136    0.0000 C   0  0  0  0  0  0  0  0  0  0  0  0
   -1.8830   -2.0274    0.0000 C   0  0  0  0  0  0  0  0  0  0  0  0
    0.6185    1.0515    0.0000 C   0  0  0  0  0  0  0  0  0  0  0  0
    0.8796    1.8486    0.0000 C   0  0  0  0  0  0  0  0  0  0  0  0
   -2.6389   -1.6700    0.0000 C   0  0  0  0  0  0  0  0  0  0  0  0
   -1.9655   -2.8658    0.0000 C   0  0  0  0  0  0  0  0  0  0  0  0
    2.4328   -2.0274    0.0000 C   0  0  0  0  0  0  0  0  0  0  0  0
    0.3024    2.4672    0.0000 C   0  0  0  0  0  0  0  0  0  0  0  0
    1.6769    2.0410    0.0000 C   0  0  0  0  0  0  0  0  0  0  0  0
    0.5772    3.2643    0.0000 C   0  0  0  0  0  0  0  0  0  0  0  0
   -2.7901   -0.8728    0.0000 C   0  0  0  0  0  0  0  0  0  0  0  0
   -1.3332   -3.4155    0.0000 C   0  0  0  0  0  0  0  0  0  0  0  0
    1.9243    2.8245    0.0000 C   0  0  0  0  0  0  0  0  0  0  0  0
    1.3745    3.4155    0.0000 C   0  0  0  0  0  0  0  0  0  0  0  0
   -1.8830    0.4742    0.0000 C   0  0  0  0  0  0  0  0  0  0  0  0
   -1.3057    2.1098    0.0000 C   0  0  0  0  0  0  0  0  0  0  0  0
  1  7  2  0  0  0  0
  1  8  2  0  0  0  0
  1 28  1  0  0  0  0
  1 36  1  0  0  0  0
  2 14  1  0  0  0  0
  2 17  1  0  0  0  0
  3 20  1  0  0  0  0
  3 35  1  0  0  0  0
  4 17  2  0  0  0  0
  5 11  1  0  0  0  0
  5 25  1  0  0  0  0
  6 27  1  0  0  0  0
  9 12  1  0  0  0  0
  9 17  1  0  0  0  0
  9 23  1  0  0  0  0
 10 15  2  0  0  0  0
 10 16  1  0  0  0  0
 11 26  2  0  0  0  0
 12 13  2  0  0  0  0
 12 14  1  0  0  0  0
 13 15  1  0  0  0  0
 13 19  1  0  0  0  0
 14 16  2  0  0  0  0
 15 21  1  0  0  0  0
 16 27  1  0  0  0  0
 18 20  1  0  0  0  0
 18 21  2  0  0  0  0
 18 22  1  0  0  0  0
 19 20  2  0  0  0  0
 22 25  2  0  0  0  0
 22 26  1  0  0  0  0
 23 24  1  0  0  0  0
 24 28  2  0  0  0  0
 24 29  1  0  0  0  0
 25 31  1  0  0  0  0
 26 32  1  0  0  0  0
 28 30  1  0  0  0  0
 29 33  2  0  0  0  0
 30 34  2  0  0  0  0
 33 34  1  0  0  0  0
M  END
> <PUBCHEM_COMPOUND_ID_TYPE>
0

> <PUBCHEM_TOTAL_CHARGE>
0

> <PUBCHEM_SUBSTANCE_ID>
310940612

> <PUBCHEM_SUBSTANCE_VERSION>
1

> <PUBCHEM_EXT_DATASOURCE_NAME>
4488

> <PUBCHEM_EXT_DATASOURCE_REGID>
SCHEMBL16118566

> <PUBCHEM_SUBSTANCE_COMMENT>
InChI=1S/C25H23N3O7S/c1-13-22(14(2)35-27-13)17-9-18-16(10-20(17)33-3)23-24(19(12-29)26-18)34-25(30)28(23)11-15-7-5-6-8-21(15)36(4,31)32/h5-10,29H,11-12H2,1-4H3
InChIKey=UDSZEHRKZZXLQP-UHFFFAOYSA-N

> <PUBCHEM_SUBSTANCE_SYNONYM>
SCHEMBL16118566

> <PUBCHEM_XREF_EXT_ID>
SCHEMBL16118566

> <PUBCHEM_EXT_DATASOURCE_URL>
https://www.surechembl.org/

> <PUBCHEM_EXT_SUBSTANCE_URL>
https://www.surechembl.org/chemical/SCHEMBL16118566

> <PUBCHEM_CID_ASSOCIATIONS>
117607598  1

> <PUBCHEM_COORDINATE_TYPE>
1
3

$$$$
