310949426
  -OEChem-07211613022D

 35 40  0     1  0  0  0  0  0999 V2000
    3.3345    0.7345    0.0000 S   0  0  0  0  0  0  0  0  0  0  0  0
    0.6170   -0.7345    0.0000 O   0  0  0  0  0  0  0  0  0  0  0  0
    0.6170    2.1887    0.0000 O   0  0  0  0  0  0  0  0  0  0  0  0
   -1.9537   -1.7186    0.0000 O   0  0  0  0  0  0  0  0  0  0  0  0
   -2.8791   -2.7616    0.0000 O   0  0  0  0  0  0  0  0  0  0  0  0
    2.9231    1.4542    0.0000 O   0  0  0  0  0  0  0  0  0  0  0  0
    4.0396    1.1164    0.0000 O   0  0  0  0  0  0  0  0  0  0  0  0
    2.6294    0.3378    0.0000 O   0  0  0  0  0  0  0  0  0  0  0  0
    3.7457    0.0147    0.0000 O   0  0  0  0  0  0  0  0  0  0  0  0
    0.8520    0.7345    0.0000 N   0  0  0  0  0  0  0  0  0  0  0  0
   -1.8949    0.3378    0.0000 C   0  0  3  0  0  0  0  0  0  0  0  0
   -1.1898   -0.0441    0.0000 C   0  0  3  0  0  0  0  0  0  0  0  0
   -2.6000   -0.0734    0.0000 C   0  0  3  0  0  0  0  0  0  0  0  0
   -0.4554    0.3526    0.0000 C   0  0  3  0  0  0  0  0  0  0  0  0
   -1.3955    2.2768    0.0000 C   0  0  3  0  0  0  0  0  0  0  0  0
   -1.2779    1.8068    0.0000 C   0  0  3  0  0  0  0  0  0  0  0  0
   -0.9842    1.3367    0.0000 C   0  0  3  0  0  0  0  0  0  0  0  0
   -0.4407    1.1604    0.0000 C   0  0  3  0  0  0  0  0  0  0  0  0
   -1.8802    1.1604    0.0000 C   0  0  0  0  0  0  0  0  0  0  0  0
   -1.4689    0.5141    0.0000 C   0  0  0  0  0  0  0  0  0  0  0  0
   -2.6000   -0.8960    0.0000 C   0  0  3  0  0  0  0  0  0  0  0  0
   -1.1752   -0.9107    0.0000 C   0  0  0  0  0  0  0  0  0  0  0  0
    0.3378    0.1175    0.0000 C   0  0  0  0  0  0  0  0  0  0  0  0
    0.3232    1.4101    0.0000 C   0  0  0  0  0  0  0  0  0  0  0  0
   -1.8802   -1.3220    0.0000 C   0  0  0  0  0  0  0  0  0  0  0  0
   -3.3345   -1.3220    0.0000 C   0  0  3  0  0  0  0  0  0  0  0  0
   -3.3345    0.3232    0.0000 C   0  0  0  0  0  0  0  0  0  0  0  0
   -2.6147    0.7638    0.0000 C   0  0  0  0  0  0  0  0  0  0  0  0
   -1.4836    2.7616    0.0000 C   0  0  0  0  0  0  0  0  0  0  0  0
   -4.0396   -0.9107    0.0000 C   0  0  0  0  0  0  0  0  0  0  0  0
   -4.0396   -0.0734    0.0000 C   0  0  0  0  0  0  0  0  0  0  0  0
   -2.7175   -1.9390    0.0000 C   0  0  0  0  0  0  0  0  0  0  0  0
    1.6746    0.7492    0.0000 C   0  0  0  0  0  0  0  0  0  0  0  0
   -3.9367   -1.9243    0.0000 C   0  0  0  0  0  0  0  0  0  0  0  0
    2.1005    1.4689    0.0000 C   0  0  0  0  0  0  0  0  0  0  0  0
  1  6  1  0  0  0  0
  1  7  2  0  0  0  0
  1  8  2  0  0  0  0
  1  9  1  0  0  0  0
  2 23  2  0  0  0  0
  3 24  2  0  0  0  0
  4 32  2  0  0  0  0
  5 32  1  0  0  0  0
  6 35  1  0  0  0  0
 10 23  1  0  0  0  0
 10 24  1  0  0  0  0
 10 33  1  0  0  0  0
 11 12  1  0  0  0  0
 11 13  1  0  0  0  0
 11 15  1  0  0  0  0
 11 19  1  0  0  0  0
 12 14  1  0  0  0  0
 12 20  1  0  0  0  0
 12 22  1  0  0  0  0
 13 21  1  0  0  0  0
 13 27  1  0  0  0  0
 13 28  1  0  0  0  0
 14 18  1  0  0  0  0
 14 23  1  0  0  0  0
 15 16  1  0  0  0  0
 15 29  1  0  0  0  0
 16 17  1  0  0  0  0
 16 20  1  1  0  0  0
 17 18  1  0  0  0  0
 17 19  1  0  0  0  0
 18 24  1  0  0  0  0
 21 25  1  0  0  0  0
 21 26  1  0  0  0  0
 22 25  1  0  0  0  0
 26 30  1  0  0  0  0
 26 32  1  0  0  0  0
 26 34  1  0  0  0  0
 27 31  1  0  0  0  0
 30 31  1  0  0  0  0
 33 35  1  0  0  0  0
M  END
> <PUBCHEM_COMPOUND_ID_TYPE>
0

> <PUBCHEM_TOTAL_CHARGE>
0

> <PUBCHEM_SUBSTANCE_ID>
310949426

> <PUBCHEM_SUBSTANCE_VERSION>
1

> <PUBCHEM_EXT_DATASOURCE_NAME>
4488

> <PUBCHEM_EXT_DATASOURCE_REGID>
SCHEMBL16127620

> <PUBCHEM_SUBSTANCE_COMMENT>
InChI=1S/C25H35NO8S/c1-13-14-11-24-8-5-16-22(2,21(29)30)6-4-7-23(16,3)25(13,24)12-15(14)17-18(24)20(28)26(19(17)27)9-10-34-35(31,32)33/h13-18H,4-12H2,1-3H3,(H,29,30)(H,31,32,33)/t13?,14-,15?,16?,17?,18?,22?,23?,24?,25?/m0/s1
InChIKey=OBPYUGQQAFJVDI-CWDYRQESSA-N

> <PUBCHEM_SUBSTANCE_SYNONYM>
SCHEMBL16127620

> <PUBCHEM_XREF_EXT_ID>
SCHEMBL16127620

> <PUBCHEM_EXT_DATASOURCE_URL>
https://www.surechembl.org/

> <PUBCHEM_EXT_SUBSTANCE_URL>
https://www.surechembl.org/chemical/SCHEMBL16127620

> <PUBCHEM_CID_ASSOCIATIONS>
117614877  1

> <PUBCHEM_COORDINATE_TYPE>
1
3

> <PUBCHEM_BONDANNOTATIONS>
16  20  5

$$$$
