310948362
  -OEChem-07211613022D

 26 29  0     1  0  0  0  0  0999 V2000
    2.1430   -3.2008    0.0000 F   0  0  0  0  0  0  0  0  0  0  0  0
   -1.7421   -1.4863    0.0000 O   0  0  0  0  0  0  0  0  0  0  0  0
   -0.2350    0.8503    0.0000 N   0  0  0  0  0  0  0  0  0  0  0  0
    0.2489    0.1728    0.0000 N   0  0  0  0  0  0  0  0  0  0  0  0
    0.0139   -1.2789    0.0000 N   0  0  0  0  0  0  0  0  0  0  0  0
   -2.4472   -0.2419    0.0000 N   0  0  0  0  0  0  0  0  0  0  0  0
    2.4472   -1.7905    0.0000 N   0  0  0  0  0  0  0  0  0  0  0  0
    1.9356    0.5739    0.0000 N   0  0  0  0  0  0  0  0  0  0  0  0
   -1.0370   -0.2282    0.0000 C   0  0  0  0  0  0  0  0  0  0  0  0
   -1.0093    0.6015    0.0000 C   0  0  0  0  0  0  0  0  0  0  0  0
   -0.2489   -0.4908    0.0000 C   0  0  0  0  0  0  0  0  0  0  0  0
    0.0139    1.6384    0.0000 C   0  0  3  0  0  0  0  0  0  0  0  0
   -1.7421   -0.6291    0.0000 C   0  0  0  0  0  0  0  0  0  0  0  0
   -1.7560    1.0023    0.0000 C   0  0  0  0  0  0  0  0  0  0  0  0
    0.8295    1.8044    0.0000 C   0  0  3  0  0  0  0  0  0  0  0  0
   -2.4334    0.6015    0.0000 C   0  0  0  0  0  0  0  0  0  0  0  0
    0.8157   -1.4587    0.0000 C   0  0  0  0  0  0  0  0  0  0  0  0
   -0.5255    2.2605    0.0000 C   0  0  0  0  0  0  0  0  0  0  0  0
    1.0784    2.5924    0.0000 C   0  0  0  0  0  0  0  0  0  0  0  0
    1.3688    1.1959    0.0000 C   0  0  0  0  0  0  0  0  0  0  0  0
   -0.2765    3.0349    0.0000 C   0  0  0  0  0  0  0  0  0  0  0  0
    1.0784   -2.2328    0.0000 C   0  0  0  0  0  0  0  0  0  0  0  0
    1.3688   -0.8364    0.0000 C   0  0  0  0  0  0  0  0  0  0  0  0
    0.5255    3.2008    0.0000 C   0  0  0  0  0  0  0  0  0  0  0  0
    1.8804   -2.4265    0.0000 C   0  0  0  0  0  0  0  0  0  0  0  0
    2.1845   -1.0023    0.0000 C   0  0  0  0  0  0  0  0  0  0  0  0
  1 25  1  0  0  0  0
  2 13  2  0  0  0  0
  3  4  1  0  0  0  0
  3 10  1  0  0  0  0
 12  3  1  6  0  0  0
  4 11  2  0  0  0  0
  5 11  1  0  0  0  0
  5 17  1  0  0  0  0
  6 13  1  0  0  0  0
  6 16  1  0  0  0  0
  7 25  2  0  0  0  0
  7 26  1  0  0  0  0
  8 20  3  0  0  0  0
  9 10  2  0  0  0  0
  9 11  1  0  0  0  0
  9 13  1  0  0  0  0
 10 14  1  0  0  0  0
 12 15  1  0  0  0  0
 12 18  1  0  0  0  0
 14 16  2  0  0  0  0
 15 19  1  0  0  0  0
 15 20  1  1  0  0  0
 17 22  2  0  0  0  0
 17 23  1  0  0  0  0
 18 21  1  0  0  0  0
 19 24  1  0  0  0  0
 21 24  1  0  0  0  0
 22 25  1  0  0  0  0
 23 26  2  0  0  0  0
M  END
> <PUBCHEM_COMPOUND_ID_TYPE>
0

> <PUBCHEM_TOTAL_CHARGE>
0

> <PUBCHEM_SUBSTANCE_ID>
310948362

> <PUBCHEM_SUBSTANCE_VERSION>
1

> <PUBCHEM_EXT_DATASOURCE_NAME>
4488

> <PUBCHEM_EXT_DATASOURCE_REGID>
SCHEMBL16126542

> <PUBCHEM_SUBSTANCE_COMMENT>
InChI=1S/C18H17FN6O/c19-15-9-12(5-7-21-15)23-17-16-14(6-8-22-18(16)26)25(24-17)13-4-2-1-3-11(13)10-20/h5-9,11,13H,1-4H2,(H,22,26)(H,21,23,24)/t11-,13+/m0/s1
InChIKey=GJMZBZAUPKWIIB-WCQYABFASA-N

> <PUBCHEM_SUBSTANCE_SYNONYM>
SCHEMBL16126542

> <PUBCHEM_XREF_EXT_ID>
SCHEMBL16126542

> <PUBCHEM_EXT_DATASOURCE_URL>
https://www.surechembl.org/

> <PUBCHEM_EXT_SUBSTANCE_URL>
https://www.surechembl.org/chemical/SCHEMBL16126542

> <PUBCHEM_CID_ASSOCIATIONS>
117613926  1

> <PUBCHEM_COORDINATE_TYPE>
1
3

> <PUBCHEM_BONDANNOTATIONS>
15  20  5
12  3  6

$$$$
