310936043
  -OEChem-07211613022D

 30 33  0     0  0  0  0  0  0999 V2000
    7.0121   -5.7611    0.0000 S   0  0  0  0  0  0  0  0  0  0  0  0
    7.0121   -4.8722    0.0000 O   0  0  0  0  0  0  0  0  0  0  0  0
    7.0121   -6.5841    0.0000 O   0  0  0  0  0  0  0  0  0  0  0  0
    3.2921   -5.0368    0.0000 N   0  0  0  0  0  0  0  0  0  0  0  0
    0.7901   -5.0368    0.0000 N   0  0  0  0  0  0  0  0  0  0  0  0
    2.0410   -5.7611    0.0000 N   0  0  0  0  0  0  0  0  0  0  0  0
    3.3250   -0.7243    0.0000 N   0  0  0  0  0  0  0  0  0  0  0  0
    6.2220   -5.7611    0.0000 N   0  0  0  0  0  0  0  0  0  0  0  0
    2.0740   -4.3126    0.0000 C   0  0  0  0  0  0  0  0  0  0  0  0
    1.2180   -4.2797    0.0000 C   0  0  0  0  0  0  0  0  0  0  0  0
    2.4691   -5.0368    0.0000 C   0  0  0  0  0  0  0  0  0  0  0  0
    2.0740   -2.8641    0.0000 C   0  0  0  0  0  0  0  0  0  0  0  0
    0.8230   -3.5883    0.0000 C   0  0  0  0  0  0  0  0  0  0  0  0
    2.5020   -3.6213    0.0000 C   0  0  0  0  0  0  0  0  0  0  0  0
    1.2510   -2.8641    0.0000 C   0  0  0  0  0  0  0  0  0  0  0  0
    2.5020   -2.1727    0.0000 C   0  0  0  0  0  0  0  0  0  0  0  0
    1.2180   -5.7611    0.0000 C   0  0  0  0  0  0  0  0  0  0  0  0
    3.7200   -4.3126    0.0000 C   0  0  0  0  0  0  0  0  0  0  0  0
    3.7200   -5.7611    0.0000 C   0  0  0  0  0  0  0  0  0  0  0  0
    2.0740   -1.4485    0.0000 C   0  0  0  0  0  0  0  0  0  0  0  0
    4.9710   -5.0368    0.0000 C   0  0  0  0  0  0  0  0  0  0  0  0
    3.2921   -2.1727    0.0000 C   0  0  0  0  0  0  0  0  0  0  0  0
    0.0000   -3.5883    0.0000 C   0  0  0  0  0  0  0  0  0  0  0  0
    4.5430   -4.3126    0.0000 C   0  0  0  0  0  0  0  0  0  0  0  0
    4.5430   -5.7611    0.0000 C   0  0  0  0  0  0  0  0  0  0  0  0
    2.5020   -0.7243    0.0000 C   0  0  0  0  0  0  0  0  0  0  0  0
    3.7529   -1.4485    0.0000 C   0  0  0  0  0  0  0  0  0  0  0  0
    5.7940   -5.0368    0.0000 C   0  0  0  0  0  0  0  0  0  0  0  0
    2.1069    0.0000    0.0000 C   0  0  0  0  0  0  0  0  0  0  0  0
    7.8680   -5.7611    0.0000 C   0  0  0  0  0  0  0  0  0  0  0  0
  1  2  2  0  0  0  0
  1  3  2  0  0  0  0
  1  8  1  0  0  0  0
  1 30  1  0  0  0  0
  4 11  1  0  0  0  0
  4 18  1  0  0  0  0
  4 19  1  0  0  0  0
  5 10  2  0  0  0  0
  5 17  1  0  0  0  0
  6 11  1  0  0  0  0
  6 17  2  0  0  0  0
  7 26  1  0  0  0  0
  7 27  2  0  0  0  0
  8 28  1  0  0  0  0
  9 10  1  0  0  0  0
  9 11  2  0  0  0  0
  9 14  1  0  0  0  0
 10 13  1  0  0  0  0
 12 14  2  0  0  0  0
 12 15  1  0  0  0  0
 12 16  1  0  0  0  0
 13 15  2  0  0  0  0
 13 23  1  0  0  0  0
 16 20  1  0  0  0  0
 16 22  2  0  0  0  0
 18 24  1  0  0  0  0
 19 25  1  0  0  0  0
 20 26  2  0  0  0  0
 21 24  1  0  0  0  0
 21 25  1  0  0  0  0
 21 28  1  0  0  0  0
 22 27  1  0  0  0  0
 26 29  1  0  0  0  0
M  END
> <PUBCHEM_COMPOUND_ID_TYPE>
0

> <PUBCHEM_TOTAL_CHARGE>
0

> <PUBCHEM_SUBSTANCE_ID>
310936043

> <PUBCHEM_SUBSTANCE_VERSION>
1

> <PUBCHEM_EXT_DATASOURCE_NAME>
4488

> <PUBCHEM_EXT_DATASOURCE_REGID>
SCHEMBL16113647

> <PUBCHEM_SUBSTANCE_COMMENT>
InChI=1S/C22H27N5O2S/c1-15-10-19(18-4-7-23-16(2)11-18)12-20-21(15)24-14-25-22(20)27-8-5-17(6-9-27)13-26-30(3,28)29/h4,7,10-12,14,17,26H,5-6,8-9,13H2,1-3H3
InChIKey=SYQMOXGZMJCUDI-UHFFFAOYSA-N

> <PUBCHEM_SUBSTANCE_SYNONYM>
SCHEMBL16113647

> <PUBCHEM_XREF_EXT_ID>
SCHEMBL16113647

> <PUBCHEM_EXT_DATASOURCE_URL>
https://www.surechembl.org/

> <PUBCHEM_EXT_SUBSTANCE_URL>
https://www.surechembl.org/chemical/SCHEMBL16113647

> <PUBCHEM_CID_ASSOCIATIONS>
117604009  1

> <PUBCHEM_COORDINATE_TYPE>
1
3

$$$$
