310940193
  -OEChem-07211613022D

 43 47  0     1  0  0  0  0  0999 V2000
   -2.4206   -3.1371    0.0000 S   0  0  0  0  0  0  0  0  0  0  0  0
   -2.4858   -6.0461    0.0000 F   0  0  0  0  0  0  0  0  0  0  0  0
   -1.6608   -6.0461    0.0000 F   0  0  0  0  0  0  0  0  0  0  0  0
   -1.2483   -5.3298    0.0000 F   0  0  0  0  0  0  0  0  0  0  0  0
   -3.0285   -2.5726    0.0000 O   0  0  0  0  0  0  0  0  0  0  0  0
   -3.2022   -3.3976    0.0000 O   0  0  0  0  0  0  0  0  0  0  0  0
    2.0733    2.5943    0.0000 O   0  0  0  0  0  0  0  0  0  0  0  0
   -1.4003   -0.9878    0.0000 O   0  0  0  0  0  0  0  0  0  0  0  0
    0.8142    4.3962    0.0000 O   0  0  0  0  0  0  0  0  0  0  0  0
    2.2470    4.2443    0.0000 O   0  0  0  0  0  0  0  0  0  0  0  0
    0.7490    0.7707    0.0000 N   0  0  0  0  0  0  0  0  0  0  0  0
    1.0095   -0.0325    0.0000 N   0  0  0  0  0  0  0  0  0  0  0  0
   -2.0733   -3.8969    0.0000 N   0  0  3  0  0  0  0  0  0  0  0  0
    0.3365   -1.3352    0.0000 N   0  0  0  0  0  0  0  0  0  0  0  0
   -1.7042    0.4233    0.0000 N   0  0  0  0  0  0  0  0  0  0  0  0
    3.2022    0.5102    0.0000 N   0  0  0  0  0  0  0  0  0  0  0  0
    1.2700    1.4437    0.0000 C   0  0  3  0  0  0  0  0  0  0  0  0
   -0.0977    0.7707    0.0000 C   0  0  0  0  0  0  0  0  0  0  0  0
   -0.3582   -0.0108    0.0000 C   0  0  0  0  0  0  0  0  0  0  0  0
    0.3365   -0.4885    0.0000 C   0  0  0  0  0  0  0  0  0  0  0  0
   -1.7911   -2.5726    0.0000 C   0  0  0  0  0  0  0  0  0  0  0  0
   -1.0964   -2.9634    0.0000 C   0  0  0  0  0  0  0  0  0  0  0  0
   -1.1398   -0.1845    0.0000 C   0  0  0  0  0  0  0  0  0  0  0  0
   -0.3799   -1.7476    0.0000 C   0  0  0  0  0  0  0  0  0  0  0  0
   -1.2700   -3.8101    0.0000 C   0  0  0  0  0  0  0  0  0  0  0  0
   -0.4016   -2.5726    0.0000 C   0  0  0  0  0  0  0  0  0  0  0  0
    1.9865    1.7694    0.0000 C   0  0  0  0  0  0  0  0  0  0  0  0
    0.5753    1.9213    0.0000 C   0  0  0  0  0  0  0  0  0  0  0  0
   -0.6622    1.3785    0.0000 C   0  0  0  0  0  0  0  0  0  0  0  0
   -1.7911   -1.7476    0.0000 C   0  0  0  0  0  0  0  0  0  0  0  0
    1.5957    0.6838    0.0000 C   0  0  0  0  0  0  0  0  0  0  0  0
   -1.0964   -1.3568    0.0000 C   0  0  0  0  0  0  0  0  0  0  0  0
   -2.4858   -4.5916    0.0000 C   0  0  0  0  0  0  0  0  0  0  0  0
    1.4003    3.0936    0.0000 C   0  0  3  0  0  0  0  0  0  0  0  0
   -1.4220    1.2266    0.0000 C   0  0  0  0  0  0  0  0  0  0  0  0
    0.6622    2.7463    0.0000 C   0  0  0  0  0  0  0  0  0  0  0  0
   -2.0733   -5.3298    0.0000 C   0  0  0  0  0  0  0  0  0  0  0  0
    2.3772    0.5753    0.0000 C   0  0  0  0  0  0  0  0  0  0  0  0
    1.4872    3.9621    0.0000 C   0  0  0  0  0  0  0  0  0  0  0  0
    0.9227    5.2429    0.0000 C   0  0  0  0  0  0  0  0  0  0  0  0
    0.9878    6.0461    0.0000 C   0  0  0  0  0  0  0  0  0  0  0  0
    0.2714    5.7205    0.0000 C   0  0  0  0  0  0  0  0  0  0  0  0
    1.6825    5.5685    0.0000 C   0  0  0  0  0  0  0  0  0  0  0  0
  1  5  2  0  0  0  0
  1  6  2  0  0  0  0
  1 13  1  0  0  0  0
  1 21  1  0  0  0  0
  2 37  1  0  0  0  0
  3 37  1  0  0  0  0
  4 37  1  0  0  0  0
  7 27  1  0  0  0  0
  7 34  1  0  0  0  0
  8 23  2  0  0  0  0
  9 39  1  0  0  0  0
  9 40  1  0  0  0  0
 10 39  2  0  0  0  0
 11 12  1  0  0  0  0
 11 17  1  0  0  0  0
 11 18  1  0  0  0  0
 12 20  2  0  0  0  0
 13 25  1  0  0  0  0
 13 33  1  0  0  0  0
 14 20  1  0  0  0  0
 14 24  1  0  0  0  0
 15 23  1  0  0  0  0
 15 35  1  0  0  0  0
 16 38  3  0  0  0  0
 17 27  1  0  0  0  0
 17 28  1  0  0  0  0
 17 31  1  1  0  0  0
 18 19  2  0  0  0  0
 18 29  1  0  0  0  0
 19 20  1  0  0  0  0
 19 23  1  0  0  0  0
 21 22  2  0  0  0  0
 21 30  1  0  0  0  0
 22 25  1  0  0  0  0
 22 26  1  0  0  0  0
 24 26  2  0  0  0  0
 24 32  1  0  0  0  0
 28 36  1  0  0  0  0
 29 35  2  0  0  0  0
 30 32  2  0  0  0  0
 31 38  1  0  0  0  0
 33 37  1  0  0  0  0
 34 36  1  0  0  0  0
 34 39  1  1  0  0  0
 40 41  1  0  0  0  0
 40 42  1  0  0  0  0
 40 43  1  0  0  0  0
M  END
> <PUBCHEM_COMPOUND_ID_TYPE>
0

> <PUBCHEM_TOTAL_CHARGE>
0

> <PUBCHEM_SUBSTANCE_ID>
310940193

> <PUBCHEM_SUBSTANCE_VERSION>
1

> <PUBCHEM_EXT_DATASOURCE_NAME>
4488

> <PUBCHEM_EXT_DATASOURCE_REGID>
SCHEMBL16118127

> <PUBCHEM_SUBSTANCE_COMMENT>
InChI=1S/C27H29F3N6O6S/c1-25(2,3)42-24(38)19-6-8-26(9-10-31,15-41-19)36-18-7-11-32-23(37)21(18)22(34-36)33-17-4-5-20-16(12-17)13-35(43(20,39)40)14-27(28,29)30/h4-5,7,11-12,19H,6,8-9,13-15H2,1-3H3,(H,32,37)(H,33,34)/t19-,26-/m0/s1
InChIKey=WXLRQVNKZYZFNX-SIBVEZHUSA-N

> <PUBCHEM_SUBSTANCE_SYNONYM>
SCHEMBL16118127

> <PUBCHEM_XREF_EXT_ID>
SCHEMBL16118127

> <PUBCHEM_EXT_DATASOURCE_URL>
https://www.surechembl.org/

> <PUBCHEM_EXT_SUBSTANCE_URL>
https://www.surechembl.org/chemical/SCHEMBL16118127

> <PUBCHEM_CID_ASSOCIATIONS>
117607297  1

> <PUBCHEM_COORDINATE_TYPE>
1
3

> <PUBCHEM_BONDANNOTATIONS>
17  31  5
34  39  5

$$$$
