310939394
  -OEChem-07211613022D

 19 20  0     1  0  0  0  0  0999 V2000
    0.6615    1.6719    0.0000 Cl  0  0  0  0  0  0  0  0  0  0  0  0
    1.0886    0.0782    0.0000 O   0  0  0  0  0  0  0  0  0  0  0  0
   -2.4688   -0.4480    0.0000 N   0  0  0  0  0  0  0  0  0  0  0  0
    0.2917    0.2917    0.0000 C   0  0  0  0  0  0  0  0  0  0  0  0
   -0.2917   -0.2917    0.0000 C   0  0  0  0  0  0  0  0  0  0  0  0
   -1.0886   -0.0782    0.0000 C   0  0  0  0  0  0  0  0  0  0  0  0
    0.0782    1.0886    0.0000 C   0  0  0  0  0  0  0  0  0  0  0  0
   -1.3021    0.7187    0.0000 C   0  0  0  0  0  0  0  0  0  0  0  0
   -1.6719   -0.6615    0.0000 C   0  0  3  0  0  0  0  0  0  0  0  0
   -0.7187    1.3021    0.0000 C   0  0  0  0  0  0  0  0  0  0  0  0
    1.6719    0.6615    0.0000 C   0  0  0  0  0  0  0  0  0  0  0  0
   -0.0782   -1.0886    0.0000 C   0  0  0  0  0  0  0  0  0  0  0  0
    2.4688    0.4480    0.0000 C   0  0  0  0  0  0  0  0  0  0  0  0
    1.4584    1.4584    0.0000 C   0  0  0  0  0  0  0  0  0  0  0  0
   -1.4584   -1.4584    0.0000 C   0  0  0  0  0  0  0  0  0  0  0  0
    3.0522    1.0314    0.0000 C   0  0  0  0  0  0  0  0  0  0  0  0
    2.0418    2.0418    0.0000 C   0  0  0  0  0  0  0  0  0  0  0  0
    2.8387    1.8282    0.0000 C   0  0  0  0  0  0  0  0  0  0  0  0
   -2.0418   -2.0418    0.0000 C   0  0  0  0  0  0  0  0  0  0  0  0
  1  7  1  0  0  0  0
  2  4  1  0  0  0  0
  2 11  1  0  0  0  0
  9  3  1  1  0  0  0
  4  5  1  0  0  0  0
  4  7  2  0  0  0  0
  5  6  2  0  0  0  0
  5 12  1  0  0  0  0
  6  8  1  0  0  0  0
  6  9  1  0  0  0  0
  7 10  1  0  0  0  0
  8 10  2  0  0  0  0
  9 15  1  0  0  0  0
 11 13  2  0  0  0  0
 11 14  1  0  0  0  0
 13 16  1  0  0  0  0
 14 17  2  0  0  0  0
 15 19  1  0  0  0  0
 16 18  2  0  0  0  0
 17 18  1  0  0  0  0
M  END
> <PUBCHEM_COMPOUND_ID_TYPE>
0

> <PUBCHEM_TOTAL_CHARGE>
0

> <PUBCHEM_SUBSTANCE_ID>
310939394

> <PUBCHEM_SUBSTANCE_VERSION>
1

> <PUBCHEM_EXT_DATASOURCE_NAME>
4488

> <PUBCHEM_EXT_DATASOURCE_REGID>
SCHEMBL16117315

> <PUBCHEM_SUBSTANCE_COMMENT>
InChI=1S/C16H18ClNO/c1-3-15(18)13-9-10-14(17)16(11(13)2)19-12-7-5-4-6-8-12/h4-10,15H,3,18H2,1-2H3/t15-/m1/s1
InChIKey=SIRGLTVRTSCZLV-OAHLLOKOSA-N

> <PUBCHEM_SUBSTANCE_SYNONYM>
SCHEMBL16117315

> <PUBCHEM_XREF_EXT_ID>
SCHEMBL16117315

> <PUBCHEM_EXT_DATASOURCE_URL>
https://www.surechembl.org/

> <PUBCHEM_EXT_SUBSTANCE_URL>
https://www.surechembl.org/chemical/SCHEMBL16117315

> <PUBCHEM_CID_ASSOCIATIONS>
117606721  1

> <PUBCHEM_COORDINATE_TYPE>
1
3

> <PUBCHEM_BONDANNOTATIONS>
9  3  5

$$$$
