310930571
  -OEChem-07211613022D

 31 34  0     0  0  0  0  0  0999 V2000
    3.5698   -2.4801    0.0000 S   0  0  0  0  0  0  0  0  0  0  0  0
    4.0208   -3.2692    0.0000 O   0  0  0  0  0  0  0  0  0  0  0  0
    3.1940   -1.7661    0.0000 O   0  0  0  0  0  0  0  0  0  0  0  0
    7.8912    0.0000    0.0000 O   0  0  0  0  0  0  0  0  0  0  0  0
    1.4655   -2.8935    0.0000 N   0  0  0  0  0  0  0  0  0  0  0  0
    2.1419   -4.1335    0.0000 N   0  0  0  0  0  0  0  0  0  0  0  0
    9.2816   -2.5177    0.0000 N   0  0  0  0  0  0  0  0  0  0  0  0
   10.7847   -2.3298    0.0000 N   0  0  0  0  0  0  0  0  0  0  0  0
    0.7140   -4.1335    0.0000 N   0  0  0  0  0  0  0  0  0  0  0  0
    7.1772   -1.2401    0.0000 N   0  0  0  0  0  0  0  0  0  0  0  0
   11.2732   -1.6910    0.0000 N   0  0  0  0  0  0  0  0  0  0  0  0
    2.8559   -2.8935    0.0000 C   0  0  0  0  0  0  0  0  0  0  0  0
    4.2838   -2.0668    0.0000 C   0  0  0  0  0  0  0  0  0  0  0  0
    2.1419   -2.4801    0.0000 C   0  0  0  0  0  0  0  0  0  0  0  0
    2.8183   -3.7201    0.0000 C   0  0  0  0  0  0  0  0  0  0  0  0
    9.9956   -1.2401    0.0000 C   0  0  0  0  0  0  0  0  0  0  0  0
    5.0353   -2.4801    0.0000 C   0  0  0  0  0  0  0  0  0  0  0  0
    4.3214   -1.2401    0.0000 C   0  0  0  0  0  0  0  0  0  0  0  0
    9.9956   -2.1043    0.0000 C   0  0  0  0  0  0  0  0  0  0  0  0
    8.5676   -1.2401    0.0000 C   0  0  0  0  0  0  0  0  0  0  0  0
    1.4279   -3.7201    0.0000 C   0  0  0  0  0  0  0  0  0  0  0  0
    5.7493   -1.2401    0.0000 C   0  0  0  0  0  0  0  0  0  0  0  0
    9.2816   -0.8643    0.0000 C   0  0  0  0  0  0  0  0  0  0  0  0
    5.7117   -2.0668    0.0000 C   0  0  0  0  0  0  0  0  0  0  0  0
    5.0353   -0.8267    0.0000 C   0  0  0  0  0  0  0  0  0  0  0  0
    7.8912   -0.8267    0.0000 C   0  0  0  0  0  0  0  0  0  0  0  0
    8.5676   -2.1043    0.0000 C   0  0  0  0  0  0  0  0  0  0  0  0
   10.7847   -1.0146    0.0000 C   0  0  0  0  0  0  0  0  0  0  0  0
    6.4633   -0.8267    0.0000 C   0  0  0  0  0  0  0  0  0  0  0  0
    0.0000   -3.7201    0.0000 C   0  0  0  0  0  0  0  0  0  0  0  0
    0.7140   -4.9602    0.0000 C   0  0  0  0  0  0  0  0  0  0  0  0
  1  2  2  0  0  0  0
  1  3  2  0  0  0  0
  1 12  1  0  0  0  0
  1 13  1  0  0  0  0
  4 26  2  0  0  0  0
  5 14  2  0  0  0  0
  5 21  1  0  0  0  0
  6 15  1  0  0  0  0
  6 21  2  0  0  0  0
  7 19  1  0  0  0  0
  7 27  2  0  0  0  0
  8 11  1  0  0  0  0
  8 19  1  0  0  0  0
  9 21  1  0  0  0  0
  9 30  1  0  0  0  0
  9 31  1  0  0  0  0
 10 26  1  0  0  0  0
 10 29  1  0  0  0  0
 11 28  2  0  0  0  0
 12 14  1  0  0  0  0
 12 15  2  0  0  0  0
 13 17  2  0  0  0  0
 13 18  1  0  0  0  0
 16 19  2  0  0  0  0
 16 23  1  0  0  0  0
 16 28  1  0  0  0  0
 17 24  1  0  0  0  0
 18 25  2  0  0  0  0
 20 23  2  0  0  0  0
 20 26  1  0  0  0  0
 20 27  1  0  0  0  0
 22 24  2  0  0  0  0
 22 25  1  0  0  0  0
 22 29  1  0  0  0  0
M  END
> <PUBCHEM_COMPOUND_ID_TYPE>
0

> <PUBCHEM_TOTAL_CHARGE>
0

> <PUBCHEM_SUBSTANCE_ID>
310930571

> <PUBCHEM_SUBSTANCE_VERSION>
1

> <PUBCHEM_EXT_DATASOURCE_NAME>
4488

> <PUBCHEM_EXT_DATASOURCE_REGID>
SCHEMBL16107866

> <PUBCHEM_SUBSTANCE_COMMENT>
InChI=1S/C20H19N7O3S/c1-27(2)20-23-11-17(12-24-20)31(29,30)16-5-3-13(4-6-16)8-22-19(28)15-7-14-10-25-26-18(14)21-9-15/h3-7,9-12H,8H2,1-2H3,(H,22,28)(H,21,25,26)
InChIKey=JKUBOBWEDZPDAI-UHFFFAOYSA-N

> <PUBCHEM_SUBSTANCE_SYNONYM>
SCHEMBL16107866

> <PUBCHEM_XREF_EXT_ID>
SCHEMBL16107866

> <PUBCHEM_EXT_DATASOURCE_URL>
https://www.surechembl.org/

> <PUBCHEM_EXT_SUBSTANCE_URL>
https://www.surechembl.org/chemical/SCHEMBL16107866

> <PUBCHEM_CID_ASSOCIATIONS>
56943435  1

> <PUBCHEM_COORDINATE_TYPE>
1
3

$$$$
