310929379
  -OEChem-07211613022D

 17 18  0     0  0  0  0  0  0999 V2000
    2.9043   -2.1459    0.0000 S   0  0  0  0  0  0  0  0  0  0  0  0
    2.1829   -2.5528    0.0000 O   0  0  0  0  0  0  0  0  0  0  0  0
    3.6257   -1.7389    0.0000 O   0  0  0  0  0  0  0  0  0  0  0  0
    2.4788    0.0000    0.0000 O   0  0  0  0  0  0  0  0  0  0  0  0
    3.7183   -0.7215    0.0000 O   0  0  0  0  0  0  0  0  0  0  0  0
    2.4788   -1.4244    0.0000 N   0  0  0  0  0  0  0  0  0  0  0  0
    3.2928   -2.8488    0.0000 C   0  0  0  0  0  0  0  0  0  0  0  0
    4.0142   -3.2743    0.0000 C   0  0  0  0  0  0  0  0  0  0  0  0
    3.3113   -3.6998    0.0000 C   0  0  0  0  0  0  0  0  0  0  0  0
    2.9043   -0.7215    0.0000 C   0  0  0  0  0  0  0  0  0  0  0  0
    1.6649   -1.4244    0.0000 C   0  0  0  0  0  0  0  0  0  0  0  0
    1.2394   -2.1459    0.0000 C   0  0  0  0  0  0  0  0  0  0  0  0
    0.4254   -2.1459    0.0000 C   0  0  0  0  0  0  0  0  0  0  0  0
    1.6464   -2.8488    0.0000 C   0  0  0  0  0  0  0  0  0  0  0  0
    0.0000   -2.8488    0.0000 C   0  0  0  0  0  0  0  0  0  0  0  0
    1.2394   -3.5702    0.0000 C   0  0  0  0  0  0  0  0  0  0  0  0
    0.4254   -3.5702    0.0000 C   0  0  0  0  0  0  0  0  0  0  0  0
  1  2  2  0  0  0  0
  1  3  2  0  0  0  0
  1  6  1  0  0  0  0
  1  7  1  0  0  0  0
  4 10  2  0  0  0  0
  5 10  1  0  0  0  0
  6 10  1  0  0  0  0
  6 11  1  0  0  0  0
  7  8  1  0  0  0  0
  7  9  1  0  0  0  0
  8  9  1  0  0  0  0
 11 12  1  0  0  0  0
 12 13  2  0  0  0  0
 12 14  1  0  0  0  0
 13 15  1  0  0  0  0
 14 16  2  0  0  0  0
 15 17  2  0  0  0  0
 16 17  1  0  0  0  0
M  END
> <PUBCHEM_COMPOUND_ID_TYPE>
0

> <PUBCHEM_TOTAL_CHARGE>
0

> <PUBCHEM_SUBSTANCE_ID>
310929379

> <PUBCHEM_SUBSTANCE_VERSION>
1

> <PUBCHEM_EXT_DATASOURCE_NAME>
4488

> <PUBCHEM_EXT_DATASOURCE_REGID>
SCHEMBL16106552

> <PUBCHEM_SUBSTANCE_COMMENT>
InChI=1S/C11H13NO4S/c13-11(14)12(17(15,16)10-6-7-10)8-9-4-2-1-3-5-9/h1-5,10H,6-8H2,(H,13,14)
InChIKey=MAUUXUOSGWWNME-UHFFFAOYSA-N

> <PUBCHEM_SUBSTANCE_SYNONYM>
SCHEMBL16106552

> <PUBCHEM_XREF_EXT_ID>
SCHEMBL16106552

> <PUBCHEM_EXT_DATASOURCE_URL>
https://www.surechembl.org/

> <PUBCHEM_EXT_SUBSTANCE_URL>
https://www.surechembl.org/chemical/SCHEMBL16106552

> <PUBCHEM_CID_ASSOCIATIONS>
117598753  1

> <PUBCHEM_COORDINATE_TYPE>
1
3

$$$$
