310930671
  -OEChem-07211613022D

 22 25  0     0  0  0  0  0  0999 V2000
    0.7797   -1.7856    0.0000 O   0  0  0  0  0  0  0  0  0  0  0  0
    2.2132   -1.5593    0.0000 N   0  0  0  0  0  0  0  0  0  0  0  0
    2.6156   -2.8167    0.0000 N   0  0  0  0  0  0  0  0  0  0  0  0
    3.6467   -1.7856    0.0000 N   0  0  0  0  0  0  0  0  0  0  0  0
    1.7856   -2.8167    0.0000 C   0  0  0  0  0  0  0  0  0  0  0  0
    1.5593   -2.0371    0.0000 C   0  0  0  0  0  0  0  0  0  0  0  0
    1.3078   -3.4958    0.0000 C   0  0  0  0  0  0  0  0  0  0  0  0
    2.1628   -3.5461    0.0000 C   0  0  0  0  0  0  0  0  0  0  0  0
    2.8670   -2.0371    0.0000 C   0  0  0  0  0  0  0  0  0  0  0  0
    2.2132   -0.7293    0.0000 C   0  0  0  0  0  0  0  0  0  0  0  0
    1.8108   -0.0251    0.0000 C   0  0  0  0  0  0  0  0  0  0  0  0
    2.6156    0.0000    0.0000 C   0  0  0  0  0  0  0  0  0  0  0  0
    1.6599   -4.2503    0.0000 C   0  0  0  0  0  0  0  0  0  0  0  0
    2.9928   -3.5964    0.0000 C   0  0  0  0  0  0  0  0  0  0  0  0
    0.5030   -3.3952    0.0000 C   0  0  0  0  0  0  0  0  0  0  0  0
    1.8862   -4.4012    0.0000 C   0  0  0  0  0  0  0  0  0  0  0  0
    1.1569   -4.9042    0.0000 C   0  0  0  0  0  0  0  0  0  0  0  0
    3.3700   -4.3257    0.0000 C   0  0  0  0  0  0  0  0  0  0  0  0
    0.0000   -4.0742    0.0000 C   0  0  0  0  0  0  0  0  0  0  0  0
    2.0874   -4.9796    0.0000 C   0  0  0  0  0  0  0  0  0  0  0  0
    0.3521   -4.8287    0.0000 C   0  0  0  0  0  0  0  0  0  0  0  0
    2.9174   -5.0299    0.0000 C   0  0  0  0  0  0  0  0  0  0  0  0
  1  6  2  0  0  0  0
  2  6  1  0  0  0  0
  2  9  1  0  0  0  0
  2 10  1  0  0  0  0
  3  5  1  0  0  0  0
  3  9  1  0  0  0  0
  4  9  2  3  0  0  0
  5  6  1  0  0  0  0
  5  7  1  0  0  0  0
  5  8  1  0  0  0  0
  7 13  2  0  0  0  0
  7 15  1  0  0  0  0
  8 14  2  0  0  0  0
  8 16  1  0  0  0  0
 10 11  1  0  0  0  0
 10 12  1  0  0  0  0
 11 12  1  0  0  0  0
 13 17  1  0  0  0  0
 14 18  1  0  0  0  0
 15 19  2  0  0  0  0
 16 20  2  0  0  0  0
 17 21  2  0  0  0  0
 18 22  2  0  0  0  0
 19 21  1  0  0  0  0
 20 22  1  0  0  0  0
M  END
> <PUBCHEM_COMPOUND_ID_TYPE>
0

> <PUBCHEM_TOTAL_CHARGE>
0

> <PUBCHEM_SUBSTANCE_ID>
310930671

> <PUBCHEM_SUBSTANCE_VERSION>
1

> <PUBCHEM_EXT_DATASOURCE_NAME>
4488

> <PUBCHEM_EXT_DATASOURCE_REGID>
SCHEMBL16107968

> <PUBCHEM_SUBSTANCE_COMMENT>
InChI=1S/C18H17N3O/c19-17-20-18(13-7-3-1-4-8-13,14-9-5-2-6-10-14)16(22)21(17)15-11-12-15/h1-10,15H,11-12H2,(H2,19,20)
InChIKey=ZSEXHBSKWDIFHS-UHFFFAOYSA-N

> <PUBCHEM_SUBSTANCE_SYNONYM>
SCHEMBL16107968

> <PUBCHEM_XREF_EXT_ID>
SCHEMBL16107968

> <PUBCHEM_EXT_DATASOURCE_URL>
https://www.surechembl.org/

> <PUBCHEM_EXT_SUBSTANCE_URL>
https://www.surechembl.org/chemical/SCHEMBL16107968

> <PUBCHEM_CID_ASSOCIATIONS>
117599722  1

> <PUBCHEM_COORDINATE_TYPE>
1
3

$$$$
