310943585
  -OEChem-07211613022D

 35 39  0     0  0  0  0  0  0999 V2000
    1.7148    2.2567    0.0000 O   0  0  0  0  0  0  0  0  0  0  0  0
   -5.3546    2.2567    0.0000 O   0  0  0  0  0  0  0  0  0  0  0  0
   -1.1162   -2.6935    0.0000 O   0  0  0  0  0  0  0  0  0  0  0  0
   -3.9310    1.4317    0.0000 N   0  0  0  0  0  0  0  0  0  0  0  0
   -3.2193    0.2022    0.0000 N   0  0  0  0  0  0  0  0  0  0  0  0
   -0.3882    2.6774    0.0000 N   0  0  0  0  0  0  0  0  0  0  0  0
    1.0192    1.0273    0.0000 N   0  0  0  0  0  0  0  0  0  0  0  0
   -2.5236   -1.0273    0.0000 N   0  0  0  0  0  0  0  0  0  0  0  0
    3.8502    0.2022    0.0000 N   0  0  0  0  0  0  0  0  0  0  0  0
   -1.7957    1.0273    0.0000 C   0  0  0  0  0  0  0  0  0  0  0  0
   -1.1162    1.4317    0.0000 C   0  0  0  0  0  0  0  0  0  0  0  0
   -3.2193    1.0273    0.0000 C   0  0  0  0  0  0  0  0  0  0  0  0
   -2.5236    1.4317    0.0000 C   0  0  0  0  0  0  0  0  0  0  0  0
   -1.1001    2.2729    0.0000 C   0  0  0  0  0  0  0  0  0  0  0  0
   -1.8118    0.2022    0.0000 C   0  0  0  0  0  0  0  0  0  0  0  0
   -0.3721    1.0273    0.0000 C   0  0  0  0  0  0  0  0  0  0  0  0
   -2.5075   -0.2022    0.0000 C   0  0  0  0  0  0  0  0  0  0  0  0
    0.3074    1.4479    0.0000 C   0  0  0  0  0  0  0  0  0  0  0  0
    3.8502    1.0273    0.0000 C   0  0  0  0  0  0  0  0  0  0  0  0
    4.5619    1.4479    0.0000 C   0  0  0  0  0  0  0  0  0  0  0  0
    2.4428    1.0273    0.0000 C   0  0  0  0  0  0  0  0  0  0  0  0
    1.7148    1.4155    0.0000 C   0  0  0  0  0  0  0  0  0  0  0  0
    0.3235    2.2567    0.0000 C   0  0  0  0  0  0  0  0  0  0  0  0
    3.1222    1.4317    0.0000 C   0  0  0  0  0  0  0  0  0  0  0  0
    4.9502    2.1273    0.0000 C   0  0  0  0  0  0  0  0  0  0  0  0
    5.3546    1.4479    0.0000 C   0  0  0  0  0  0  0  0  0  0  0  0
   -3.9310    2.2567    0.0000 C   0  0  0  0  0  0  0  0  0  0  0  0
   -4.6267    1.0273    0.0000 C   0  0  0  0  0  0  0  0  0  0  0  0
    2.4428    0.2022    0.0000 C   0  0  0  0  0  0  0  0  0  0  0  0
   -1.7957    2.6935    0.0000 C   0  0  0  0  0  0  0  0  0  0  0  0
    3.1707   -0.2022    0.0000 C   0  0  0  0  0  0  0  0  0  0  0  0
   -4.6429    2.6774    0.0000 C   0  0  0  0  0  0  0  0  0  0  0  0
   -5.3385    1.4317    0.0000 C   0  0  0  0  0  0  0  0  0  0  0  0
   -1.8118   -1.4479    0.0000 C   0  0  0  0  0  0  0  0  0  0  0  0
   -1.8118   -2.2729    0.0000 C   0  0  0  0  0  0  0  0  0  0  0  0
  1 22  2  0  0  0  0
  2 32  1  0  0  0  0
  2 33  1  0  0  0  0
  3 35  1  0  0  0  0
  4 12  1  0  0  0  0
  4 27  1  0  0  0  0
  4 28  1  0  0  0  0
  5 12  2  0  0  0  0
  5 17  1  0  0  0  0
  6 14  2  0  0  0  0
  6 23  1  0  0  0  0
  7 18  1  0  0  0  0
  7 22  1  0  0  0  0
  8 17  1  0  0  0  0
  8 34  1  0  0  0  0
  9 19  1  0  0  0  0
  9 31  2  0  0  0  0
 10 11  1  0  0  0  0
 10 13  2  0  0  0  0
 10 15  1  0  0  0  0
 11 14  1  0  0  0  0
 11 16  2  0  0  0  0
 12 13  1  0  0  0  0
 14 30  1  0  0  0  0
 15 17  2  0  0  0  0
 16 18  1  0  0  0  0
 18 23  2  0  0  0  0
 19 20  1  0  0  0  0
 19 24  2  0  0  0  0
 20 25  1  0  0  0  0
 20 26  1  0  0  0  0
 21 22  1  0  0  0  0
 21 24  1  0  0  0  0
 21 29  2  0  0  0  0
 25 26  1  0  0  0  0
 27 32  1  0  0  0  0
 28 33  1  0  0  0  0
 29 31  1  0  0  0  0
 34 35  1  0  0  0  0
M  END
> <PUBCHEM_COMPOUND_ID_TYPE>
0

> <PUBCHEM_TOTAL_CHARGE>
0

> <PUBCHEM_SUBSTANCE_ID>
310943585

> <PUBCHEM_SUBSTANCE_VERSION>
1

> <PUBCHEM_EXT_DATASOURCE_NAME>
4488

> <PUBCHEM_EXT_DATASOURCE_REGID>
SCHEMBL16121652

> <PUBCHEM_SUBSTANCE_COMMENT>
InChI=1S/C26H30N6O3/c1-17-22(20-13-24(28-6-9-33)31-25(14-20)32-7-10-35-11-8-32)15-21(16-29-17)30-26(34)19-4-5-27-23(12-19)18-2-3-18/h4-5,12-16,18,33H,2-3,6-11H2,1H3,(H,28,31)(H,30,34)
InChIKey=LTKDZYXPXRXOSY-UHFFFAOYSA-N

> <PUBCHEM_SUBSTANCE_SYNONYM>
SCHEMBL16121652

> <PUBCHEM_XREF_EXT_ID>
SCHEMBL16121652

> <PUBCHEM_EXT_DATASOURCE_URL>
https://www.surechembl.org/

> <PUBCHEM_EXT_SUBSTANCE_URL>
https://www.surechembl.org/chemical/SCHEMBL16121652

> <PUBCHEM_CID_ASSOCIATIONS>
117609988  1

> <PUBCHEM_COORDINATE_TYPE>
1
3

$$$$
