310949409
  -OEChem-07211613022D

 22 23  0     0  0  0  0  0  0999 V2000
    2.0031   -0.3446    0.0000 F   0  0  0  0  0  0  0  0  0  0  0  0
   -0.9406   -0.3733    0.0000 F   0  0  0  0  0  0  0  0  0  0  0  0
   -0.9406   -1.9816    0.0000 F   0  0  0  0  0  0  0  0  0  0  0  0
    2.0031   -1.9672    0.0000 F   0  0  0  0  0  0  0  0  0  0  0  0
    0.5241   -2.7857    0.0000 F   0  0  0  0  0  0  0  0  0  0  0  0
   -1.4575    1.1918    0.0000 F   0  0  0  0  0  0  0  0  0  0  0  0
   -2.0031    2.2545    0.0000 F   0  0  0  0  0  0  0  0  0  0  0  0
   -0.9119    2.7857    0.0000 F   0  0  0  0  0  0  0  0  0  0  0  0
   -1.8452    0.5600    0.0000 N   0  0  0  0  0  0  0  0  0  0  0  0
    0.4954   -0.3589    0.0000 C   0  0  0  0  0  0  0  0  0  0  0  0
    0.5241    0.4452    0.0000 C   0  0  0  0  0  0  0  0  0  0  0  0
    1.2564   -0.7323    0.0000 C   0  0  0  0  0  0  0  0  0  0  0  0
   -0.2082   -0.7611    0.0000 C   0  0  0  0  0  0  0  0  0  0  0  0
   -0.2369    0.8472    0.0000 C   0  0  0  0  0  0  0  0  0  0  0  0
   -0.2369   -1.5508    0.0000 C   0  0  0  0  0  0  0  0  0  0  0  0
    1.2277   -1.5365    0.0000 C   0  0  0  0  0  0  0  0  0  0  0  0
    0.5241   -1.9529    0.0000 C   0  0  0  0  0  0  0  0  0  0  0  0
   -0.2513    1.6370    0.0000 C   0  0  0  0  0  0  0  0  0  0  0  0
   -1.1990    2.0103    0.0000 C   0  0  0  0  0  0  0  0  0  0  0  0
    1.2277    0.8759    0.0000 C   0  0  0  0  0  0  0  0  0  0  0  0
    0.4954    2.0246    0.0000 C   0  0  0  0  0  0  0  0  0  0  0  0
    1.2277    1.6513    0.0000 C   0  0  0  0  0  0  0  0  0  0  0  0
  1 12  1  0  0  0  0
  2 13  1  0  0  0  0
  3 15  1  0  0  0  0
  4 16  1  0  0  0  0
  5 17  1  0  0  0  0
  6 19  1  0  0  0  0
  7 19  1  0  0  0  0
  8 19  1  0  0  0  0
  9 14  1  0  0  0  0
 10 11  1  0  0  0  0
 10 12  2  0  0  0  0
 10 13  1  0  0  0  0
 11 14  1  0  0  0  0
 11 20  2  0  0  0  0
 12 16  1  0  0  0  0
 13 15  2  0  0  0  0
 14 18  2  0  0  0  0
 15 17  1  0  0  0  0
 16 17  2  0  0  0  0
 18 19  1  0  0  0  0
 18 21  1  0  0  0  0
 20 22  1  0  0  0  0
 21 22  2  0  0  0  0
M  END
> <PUBCHEM_COMPOUND_ID_TYPE>
0

> <PUBCHEM_TOTAL_CHARGE>
0

> <PUBCHEM_SUBSTANCE_ID>
310949409

> <PUBCHEM_SUBSTANCE_VERSION>
1

> <PUBCHEM_EXT_DATASOURCE_NAME>
4488

> <PUBCHEM_EXT_DATASOURCE_REGID>
SCHEMBL16127602

> <PUBCHEM_SUBSTANCE_COMMENT>
InChI=1S/C13H5F8N/c14-7-6(8(15)10(17)11(18)9(7)16)4-2-1-3-5(12(4)22)13(19,20)21/h1-3H,22H2
InChIKey=XKXLCZDUDLYLGT-UHFFFAOYSA-N

> <PUBCHEM_SUBSTANCE_SYNONYM>
SCHEMBL16127602

> <PUBCHEM_XREF_EXT_ID>
SCHEMBL16127602

> <PUBCHEM_EXT_DATASOURCE_URL>
https://www.surechembl.org/

> <PUBCHEM_EXT_SUBSTANCE_URL>
https://www.surechembl.org/chemical/SCHEMBL16127602

> <PUBCHEM_CID_ASSOCIATIONS>
117614860  1

> <PUBCHEM_COORDINATE_TYPE>
1
3

$$$$
