310948174
  -OEChem-07211613022D

 35 40  0     0  0  0  0  0  0999 V2000
    2.1860   -0.5224    0.0000 Br  0  0  0  0  0  0  0  0  0  0  0  0
    4.3031    1.7322    0.0000 F   0  0  0  0  0  0  0  0  0  0  0  0
    3.8769    0.6324    0.0000 F   0  0  0  0  0  0  0  0  0  0  0  0
   -1.1136    0.9898    0.0000 O   0  0  0  0  0  0  0  0  0  0  0  0
    2.8733    0.8936    0.0000 O   0  0  0  0  0  0  0  0  0  0  0  0
    3.2858    2.1722    0.0000 O   0  0  0  0  0  0  0  0  0  0  0  0
   -1.7872   -0.0412    0.0000 N   0  0  0  0  0  0  0  0  0  0  0  0
   -2.4609   -0.5224    0.0000 N   0  0  0  0  0  0  0  0  0  0  0  0
   -0.5774    2.2135    0.0000 N   0  0  0  0  0  0  0  0  0  0  0  0
   -4.3031   -1.8560    0.0000 N   0  0  0  0  0  0  0  0  0  0  0  0
   -2.6671   -1.9935    0.0000 C   0  0  0  0  0  0  0  0  0  0  0  0
   -2.1997   -1.2923    0.0000 C   0  0  0  0  0  0  0  0  0  0  0  0
   -1.1136   -0.5224    0.0000 C   0  0  0  0  0  0  0  0  0  0  0  0
   -0.2887   -0.5224    0.0000 C   0  0  0  0  0  0  0  0  0  0  0  0
    0.1237    0.2062    0.0000 C   0  0  0  0  0  0  0  0  0  0  0  0
   -0.3025    0.9074    0.0000 C   0  0  0  0  0  0  0  0  0  0  0  0
    0.0550    1.6635    0.0000 C   0  0  0  0  0  0  0  0  0  0  0  0
   -1.3748   -1.3061    0.0000 C   0  0  0  0  0  0  0  0  0  0  0  0
   -2.0347   -2.4747    0.0000 C   0  0  0  0  0  0  0  0  0  0  0  0
   -2.7634   -2.7771    0.0000 C   0  0  0  0  0  0  0  0  0  0  0  0
    0.8524    1.8284    0.0000 C   0  0  0  0  0  0  0  0  0  0  0  0
    2.1860    1.4023    0.0000 C   0  0  0  0  0  0  0  0  0  0  0  0
    2.4609    2.1722    0.0000 C   0  0  0  0  0  0  0  0  0  0  0  0
   -3.5057   -1.9110    0.0000 C   0  0  0  0  0  0  0  0  0  0  0  0
    1.4161    1.2235    0.0000 C   0  0  0  0  0  0  0  0  0  0  0  0
    3.5469    1.4023    0.0000 C   0  0  0  0  0  0  0  0  0  0  0  0
    0.9486    0.1925    0.0000 C   0  0  0  0  0  0  0  0  0  0  0  0
   -1.2648    1.8010    0.0000 C   0  0  0  0  0  0  0  0  0  0  0  0
    0.1375   -1.2373    0.0000 C   0  0  0  0  0  0  0  0  0  0  0  0
    1.1136    2.6259    0.0000 C   0  0  0  0  0  0  0  0  0  0  0  0
    1.9248    2.7771    0.0000 C   0  0  0  0  0  0  0  0  0  0  0  0
    1.3473   -0.5224    0.0000 C   0  0  0  0  0  0  0  0  0  0  0  0
    0.9486   -1.2235    0.0000 C   0  0  0  0  0  0  0  0  0  0  0  0
   -1.8010    0.7974    0.0000 C   0  0  0  0  0  0  0  0  0  0  0  0
   -2.0484    2.1172    0.0000 C   0  0  0  0  0  0  0  0  0  0  0  0
  1 32  1  0  0  0  0
  2 26  1  0  0  0  0
  3 26  1  0  0  0  0
  4 16  1  0  0  0  0
  4 28  1  0  0  0  0
  5 22  1  0  0  0  0
  5 26  1  0  0  0  0
  6 23  1  0  0  0  0
  6 26  1  0  0  0  0
  7  8  1  0  0  0  0
  7 13  1  0  0  0  0
  7 34  1  0  0  0  0
  8 12  2  0  0  0  0
  9 17  1  0  0  0  0
  9 28  2  0  0  0  0
 10 24  3  0  0  0  0
 11 12  1  0  0  0  0
 11 19  1  0  0  0  0
 11 20  1  0  0  0  0
 11 24  1  0  0  0  0
 12 18  1  0  0  0  0
 13 14  1  0  0  0  0
 13 18  2  0  0  0  0
 14 15  2  0  0  0  0
 14 29  1  0  0  0  0
 15 16  1  0  0  0  0
 15 27  1  0  0  0  0
 16 17  2  0  0  0  0
 17 21  1  0  0  0  0
 19 20  1  0  0  0  0
 21 25  1  0  0  0  0
 21 30  2  0  0  0  0
 22 23  1  0  0  0  0
 22 25  2  0  0  0  0
 23 31  2  0  0  0  0
 27 32  2  0  0  0  0
 28 35  1  0  0  0  0
 29 33  2  0  0  0  0
 30 31  1  0  0  0  0
 32 33  1  0  0  0  0
M  END
> <PUBCHEM_COMPOUND_ID_TYPE>
0

> <PUBCHEM_TOTAL_CHARGE>
0

> <PUBCHEM_SUBSTANCE_ID>
310948174

> <PUBCHEM_SUBSTANCE_VERSION>
1

> <PUBCHEM_EXT_DATASOURCE_NAME>
4488

> <PUBCHEM_EXT_DATASOURCE_REGID>
SCHEMBL16126351

> <PUBCHEM_SUBSTANCE_COMMENT>
InChI=1S/C25H17BrF2N4O3/c1-13-30-22(14-3-6-19-20(9-14)35-25(27,28)34-19)23(33-13)17-10-15(26)4-5-16(17)18-11-21(31-32(18)2)24(12-29)7-8-24/h3-6,9-11H,7-8H2,1-2H3
InChIKey=VEVFJCSEGMWVFM-UHFFFAOYSA-N

> <PUBCHEM_SUBSTANCE_SYNONYM>
SCHEMBL16126351

> <PUBCHEM_XREF_EXT_ID>
SCHEMBL16126351

> <PUBCHEM_EXT_DATASOURCE_URL>
https://www.surechembl.org/

> <PUBCHEM_EXT_SUBSTANCE_URL>
https://www.surechembl.org/chemical/SCHEMBL16126351

> <PUBCHEM_CID_ASSOCIATIONS>
117613766  1

> <PUBCHEM_COORDINATE_TYPE>
1
3

$$$$
