310947386
  -OEChem-07211613022D

 25 27  0     0  0  0  0  0  0999 V2000
   -1.4298   -2.6902    0.0000 S   0  0  0  0  0  0  0  0  0  0  0  0
   -1.4086   -1.8641    0.0000 O   0  0  0  0  0  0  0  0  0  0  0  0
   -1.4086   -3.5376    0.0000 O   0  0  0  0  0  0  0  0  0  0  0  0
    1.4510   -0.2330    0.0000 O   0  0  0  0  0  0  0  0  0  0  0  0
   -0.7096   -1.4828    0.0000 N   0  0  0  0  0  0  0  0  0  0  0  0
    0.0106   -0.2330    0.0000 N   0  0  0  0  0  0  0  0  0  0  0  0
    0.0106   -2.7114    0.0000 N   0  0  0  0  0  0  0  0  0  0  0  0
   -1.4298    2.2454    0.0000 N   0  0  0  0  0  0  0  0  0  0  0  0
   -2.0865    2.7326    0.0000 N   0  0  0  0  0  0  0  0  0  0  0  0
   -0.7520    2.7326    0.0000 N   0  0  0  0  0  0  0  0  0  0  0  0
    2.1501   -1.4828    0.0000 N   0  0  0  0  0  0  0  0  0  0  0  0
    0.0106   -1.0380    0.0000 C   0  0  0  0  0  0  0  0  0  0  0  0
   -0.7308   -2.2877    0.0000 C   0  0  0  0  0  0  0  0  0  0  0  0
    0.7308   -1.4404    0.0000 C   0  0  0  0  0  0  0  0  0  0  0  0
   -0.7308    0.2118    0.0000 C   0  0  0  0  0  0  0  0  0  0  0  0
    0.7096   -2.3089    0.0000 C   0  0  0  0  0  0  0  0  0  0  0  0
   -1.4298    1.4404    0.0000 C   0  0  0  0  0  0  0  0  0  0  0  0
    1.4298   -1.0592    0.0000 C   0  0  0  0  0  0  0  0  0  0  0  0
   -0.7096    1.0168    0.0000 C   0  0  0  0  0  0  0  0  0  0  0  0
   -1.4086   -0.2118    0.0000 C   0  0  0  0  0  0  0  0  0  0  0  0
   -2.1077    1.0168    0.0000 C   0  0  0  0  0  0  0  0  0  0  0  0
   -2.1501   -2.3089    0.0000 C   0  0  0  0  0  0  0  0  0  0  0  0
   -2.1077    0.1907    0.0000 C   0  0  0  0  0  0  0  0  0  0  0  0
   -1.8323    3.5376    0.0000 C   0  0  0  0  0  0  0  0  0  0  0  0
   -1.0061    3.4952    0.0000 C   0  0  0  0  0  0  0  0  0  0  0  0
  1  2  2  0  0  0  0
  1  3  2  0  0  0  0
  1 13  1  0  0  0  0
  1 22  1  0  0  0  0
  4 18  2  0  0  0  0
  5 12  1  0  0  0  0
  5 13  2  0  0  0  0
  6 12  1  0  0  0  0
  6 15  1  0  0  0  0
  7 13  1  0  0  0  0
  7 16  2  0  0  0  0
  8  9  1  0  0  0  0
  8 10  1  0  0  0  0
  8 17  1  0  0  0  0
  9 24  2  0  0  0  0
 10 25  2  0  0  0  0
 11 18  1  0  0  0  0
 12 14  2  0  0  0  0
 14 16  1  0  0  0  0
 14 18  1  0  0  0  0
 15 19  2  0  0  0  0
 15 20  1  0  0  0  0
 17 19  1  0  0  0  0
 17 21  2  0  0  0  0
 20 23  2  0  0  0  0
 21 23  1  0  0  0  0
 24 25  1  0  0  0  0
M  END
> <PUBCHEM_COMPOUND_ID_TYPE>
0

> <PUBCHEM_TOTAL_CHARGE>
0

> <PUBCHEM_SUBSTANCE_ID>
310947386

> <PUBCHEM_SUBSTANCE_VERSION>
1

> <PUBCHEM_EXT_DATASOURCE_NAME>
4488

> <PUBCHEM_EXT_DATASOURCE_REGID>
SCHEMBL16125542

> <PUBCHEM_SUBSTANCE_COMMENT>
InChI=1S/C14H13N7O3S/c1-25(23,24)14-16-8-11(12(15)22)13(20-14)19-9-3-2-4-10(7-9)21-17-5-6-18-21/h2-8H,1H3,(H2,15,22)(H,16,19,20)
InChIKey=ZLHNAUIXTBTYKZ-UHFFFAOYSA-N

> <PUBCHEM_SUBSTANCE_SYNONYM>
SCHEMBL16125542

> <PUBCHEM_XREF_EXT_ID>
SCHEMBL16125542

> <PUBCHEM_EXT_DATASOURCE_URL>
https://www.surechembl.org/

> <PUBCHEM_EXT_SUBSTANCE_URL>
https://www.surechembl.org/chemical/SCHEMBL16125542

> <PUBCHEM_CID_ASSOCIATIONS>
117613129  1

> <PUBCHEM_COORDINATE_TYPE>
1
3

$$$$
