310943967
  -OEChem-07211613022D

 18 19  0     0  0  0  0  0  0999 V2000
   -0.0070    1.2517    0.0000 F   0  0  0  0  0  0  0  0  0  0  0  0
   -1.4696    0.4219    0.0000 O   0  0  0  0  0  0  0  0  0  0  0  0
    2.1868    0.7594    0.0000 N   0  0  0  0  0  0  0  0  0  0  0  0
   -0.0211   -2.8830    0.0000 N   0  0  0  0  0  0  0  0  0  0  0  0
   -0.7664    0.0281    0.0000 C   0  0  0  0  0  0  0  0  0  0  0  0
   -0.0211    0.4360    0.0000 C   0  0  0  0  0  0  0  0  0  0  0  0
    0.7242    0.0281    0.0000 C   0  0  0  0  0  0  0  0  0  0  0  0
   -0.0211   -1.2235    0.0000 C   0  0  0  0  0  0  0  0  0  0  0  0
   -0.7524   -0.7875    0.0000 C   0  0  0  0  0  0  0  0  0  0  0  0
    0.6961   -0.8157    0.0000 C   0  0  0  0  0  0  0  0  0  0  0  0
   -1.4556    1.2657    0.0000 C   0  0  0  0  0  0  0  0  0  0  0  0
    1.4556    0.4078    0.0000 C   0  0  0  0  0  0  0  0  0  0  0  0
   -0.0211   -2.0673    0.0000 C   0  0  0  0  0  0  0  0  0  0  0  0
   -0.7524    1.6736    0.0000 C   0  0  0  0  0  0  0  0  0  0  0  0
   -2.1868    1.6876    0.0000 C   0  0  0  0  0  0  0  0  0  0  0  0
   -0.7524    2.4752    0.0000 C   0  0  0  0  0  0  0  0  0  0  0  0
   -2.1868    2.4892    0.0000 C   0  0  0  0  0  0  0  0  0  0  0  0
   -1.4696    2.8830    0.0000 C   0  0  0  0  0  0  0  0  0  0  0  0
  1  6  1  0  0  0  0
  2  5  1  0  0  0  0
  2 11  1  0  0  0  0
  3 12  3  0  0  0  0
  4 13  3  0  0  0  0
  5  6  1  0  0  0  0
  5  9  2  0  0  0  0
  6  7  2  0  0  0  0
  7 10  1  0  0  0  0
  7 12  1  0  0  0  0
  8  9  1  0  0  0  0
  8 10  2  0  0  0  0
  8 13  1  0  0  0  0
 11 14  2  0  0  0  0
 11 15  1  0  0  0  0
 14 16  1  0  0  0  0
 15 17  2  0  0  0  0
 16 18  2  0  0  0  0
 17 18  1  0  0  0  0
M  END
> <PUBCHEM_COMPOUND_ID_TYPE>
0

> <PUBCHEM_TOTAL_CHARGE>
0

> <PUBCHEM_SUBSTANCE_ID>
310943967

> <PUBCHEM_SUBSTANCE_VERSION>
1

> <PUBCHEM_EXT_DATASOURCE_NAME>
4488

> <PUBCHEM_EXT_DATASOURCE_REGID>
SCHEMBL16122038

> <PUBCHEM_SUBSTANCE_COMMENT>
InChI=1S/C14H7FN2O/c15-14-11(9-17)6-10(8-16)7-13(14)18-12-4-2-1-3-5-12/h1-7H
InChIKey=MYITYPHSPGVTHU-UHFFFAOYSA-N

> <PUBCHEM_SUBSTANCE_SYNONYM>
SCHEMBL16122038

> <PUBCHEM_XREF_EXT_ID>
SCHEMBL16122038

> <PUBCHEM_EXT_DATASOURCE_URL>
https://www.surechembl.org/

> <PUBCHEM_EXT_SUBSTANCE_URL>
https://www.surechembl.org/chemical/SCHEMBL16122038

> <PUBCHEM_CID_ASSOCIATIONS>
117610274  1

> <PUBCHEM_COORDINATE_TYPE>
1
3

$$$$
