310945467
  -OEChem-07211613022D

 36 39  0     1  0  0  0  0  0999 V2000
    0.5628   -1.4581    0.0000 O   0  0  0  0  0  0  0  0  0  0  0  0
    1.6372   -0.7248    0.0000 O   0  0  0  0  0  0  0  0  0  0  0  0
   -3.8201   -1.3728    0.0000 O   0  0  0  0  0  0  0  0  0  0  0  0
   -0.0853   -2.7031    0.0000 O   0  0  0  0  0  0  0  0  0  0  0  0
   -4.5022   -0.1620    0.0000 O   0  0  0  0  0  0  0  0  0  0  0  0
    4.4511    1.2876    0.0000 O   0  0  0  0  0  0  0  0  0  0  0  0
    4.1100    2.7031    0.0000 O   0  0  0  0  0  0  0  0  0  0  0  0
    0.5969    1.1341    0.0000 C   0  0  3  0  0  0  0  0  0  0  0  0
    0.5969    0.2644    0.0000 C   0  0  3  0  0  0  0  0  0  0  0  0
   -0.1535   -0.1279    0.0000 C   0  0  3  0  0  0  0  0  0  0  0  0
   -0.8698    0.2814    0.0000 C   0  0  3  0  0  0  0  0  0  0  0  0
   -1.6201   -0.0938    0.0000 C   0  0  3  0  0  0  0  0  0  0  0  0
    1.3985    1.3728    0.0000 C   0  0  0  0  0  0  0  0  0  0  0  0
   -0.1706   -0.9976    0.0000 C   0  0  3  0  0  0  0  0  0  0  0  0
    1.3985    0.0086    0.0000 C   0  0  0  0  0  0  0  0  0  0  0  0
   -1.6372   -0.9976    0.0000 C   0  0  3  0  0  0  0  0  0  0  0  0
   -0.1535    1.5434    0.0000 C   0  0  0  0  0  0  0  0  0  0  0  0
   -0.8526    1.1341    0.0000 C   0  0  0  0  0  0  0  0  0  0  0  0
    1.8760    0.6566    0.0000 C   0  0  0  0  0  0  0  0  0  0  0  0
   -0.8868   -1.4070    0.0000 C   0  0  0  0  0  0  0  0  0  0  0  0
   -2.3364    0.2984    0.0000 C   0  0  0  0  0  0  0  0  0  0  0  0
    1.6712    2.0891    0.0000 C   0  0  3  0  0  0  0  0  0  0  0  0
    0.6140    1.9527    0.0000 C   0  0  0  0  0  0  0  0  0  0  0  0
   -2.3705   -1.3728    0.0000 C   0  0  0  0  0  0  0  0  0  0  0  0
   -1.6031    0.7248    0.0000 C   0  0  0  0  0  0  0  0  0  0  0  0
   -3.0697   -0.9636    0.0000 C   0  0  3  0  0  0  0  0  0  0  0  0
   -3.0867   -0.1109    0.0000 C   0  0  0  0  0  0  0  0  0  0  0  0
    2.4557    2.2937    0.0000 C   0  0  0  0  0  0  0  0  0  0  0  0
    0.5628   -2.3278    0.0000 C   0  0  0  0  0  0  0  0  0  0  0  0
    1.1085    2.6860    0.0000 C   0  0  0  0  0  0  0  0  0  0  0  0
    3.0867    1.6968    0.0000 C   0  0  0  0  0  0  0  0  0  0  0  0
   -4.5364   -0.9295    0.0000 C   0  0  0  0  0  0  0  0  0  0  0  0
    1.2791   -2.7031    0.0000 C   0  0  0  0  0  0  0  0  0  0  0  0
    3.8542    1.8845    0.0000 C   0  0  0  0  0  0  0  0  0  0  0  0
   -5.2356   -1.3387    0.0000 C   0  0  0  0  0  0  0  0  0  0  0  0
    5.2356    1.4922    0.0000 C   0  0  0  0  0  0  0  0  0  0  0  0
 14  1  1  6  0  0  0
  1 29  1  0  0  0  0
  2 15  2  0  0  0  0
 26  3  1  6  0  0  0
  3 32  1  0  0  0  0
  4 29  2  0  0  0  0
  5 32  2  0  0  0  0
  6 34  1  0  0  0  0
  6 36  1  0  0  0  0
  7 34  2  0  0  0  0
  8  9  1  0  0  0  0
  8 13  1  0  0  0  0
  8 17  1  0  0  0  0
  8 23  1  1  0  0  0
  9 10  1  0  0  0  0
  9 15  1  1  0  0  0
 10 11  1  0  0  0  0
 10 14  1  0  0  0  0
 11 12  1  0  0  0  0
 11 18  1  0  0  0  0
 12 16  1  0  0  0  0
 12 21  1  0  0  0  0
 12 25  1  1  0  0  0
 13 19  2  0  0  0  0
 13 22  1  0  0  0  0
 14 20  1  0  0  0  0
 15 19  1  0  0  0  0
 16 20  1  0  0  0  0
 16 24  1  0  0  0  0
 17 18  1  0  0  0  0
 21 27  1  0  0  0  0
 22 28  1  0  0  0  0
 22 30  1  6  0  0  0
 24 26  1  0  0  0  0
 26 27  1  0  0  0  0
 28 31  1  0  0  0  0
 29 33  1  0  0  0  0
 31 34  1  0  0  0  0
 32 35  1  0  0  0  0
M  END
> <PUBCHEM_COMPOUND_ID_TYPE>
0

> <PUBCHEM_TOTAL_CHARGE>
0

> <PUBCHEM_SUBSTANCE_ID>
310945467

> <PUBCHEM_SUBSTANCE_VERSION>
1

> <PUBCHEM_EXT_DATASOURCE_NAME>
4488

> <PUBCHEM_EXT_DATASOURCE_REGID>
SCHEMBL16123565

> <PUBCHEM_SUBSTANCE_COMMENT>
InChI=1S/C29H42O7/c1-16(7-8-25(33)34-6)22-15-23(32)27-26-21(10-12-29(22,27)5)28(4)11-9-20(35-17(2)30)13-19(28)14-24(26)36-18(3)31/h15-16,19-21,24,26-27H,7-14H2,1-6H3/t16-,19?,20-,21?,24-,26?,27+,28+,29-/m1/s1
InChIKey=IGKDTWGLOVLEJC-IYPSAFESSA-N

> <PUBCHEM_SUBSTANCE_SYNONYM>
SCHEMBL16123565

> <PUBCHEM_XREF_EXT_ID>
SCHEMBL16123565

> <PUBCHEM_EXT_DATASOURCE_URL>
https://www.surechembl.org/

> <PUBCHEM_EXT_SUBSTANCE_URL>
https://www.surechembl.org/chemical/SCHEMBL16123565

> <PUBCHEM_CID_ASSOCIATIONS>
117611512  1

> <PUBCHEM_COORDINATE_TYPE>
1
3

> <PUBCHEM_BONDANNOTATIONS>
14  1  6
12  25  5
22  30  6
26  3  6
8  23  5
9  15  5

$$$$
