310948747
  -OEChem-07211613022D

 37 42  0     1  0  0  0  0  0999 V2000
   -3.3730   -2.3094    0.0000 O   0  0  0  0  0  0  0  0  0  0  0  0
    4.4846   -1.4469    0.0000 O   0  0  0  0  0  0  0  0  0  0  0  0
   -2.6448    0.3737    0.0000 N   0  0  0  0  0  0  0  0  0  0  0  0
   -1.9932   -0.1054    0.0000 N   0  0  0  0  0  0  0  0  0  0  0  0
   -1.7632   -1.5619    0.0000 N   0  0  0  0  0  0  0  0  0  0  0  0
   -4.4271   -1.3512    0.0000 N   0  0  0  0  0  0  0  0  0  0  0  0
    2.8364   -1.6769    0.0000 N   0  0  0  0  0  0  0  0  0  0  0  0
    1.5140   -1.1403    0.0000 N   0  0  0  0  0  0  0  0  0  0  0  0
   -0.4983    0.8145    0.0000 N   0  0  0  0  0  0  0  0  0  0  0  0
   -3.0664   -0.8720    0.0000 C   0  0  0  0  0  0  0  0  0  0  0  0
   -3.3347   -0.1054    0.0000 C   0  0  0  0  0  0  0  0  0  0  0  0
   -2.2423   -0.8912    0.0000 C   0  0  0  0  0  0  0  0  0  0  0  0
   -2.6448    1.2362    0.0000 C   0  0  3  0  0  0  0  0  0  0  0  0
   -3.6413   -1.5045    0.0000 C   0  0  0  0  0  0  0  0  0  0  0  0
   -4.1204    0.0671    0.0000 C   0  0  0  0  0  0  0  0  0  0  0  0
   -0.9582   -1.4661    0.0000 C   0  0  0  0  0  0  0  0  0  0  0  0
   -1.9548    1.6195    0.0000 C   0  0  3  0  0  0  0  0  0  0  0  0
    0.3641   -2.0028    0.0000 C   0  0  0  0  0  0  0  0  0  0  0  0
    0.6899   -1.2362    0.0000 C   0  0  0  0  0  0  0  0  0  0  0  0
   -4.6763   -0.5462    0.0000 C   0  0  0  0  0  0  0  0  0  0  0  0
   -3.3538    1.6195    0.0000 C   0  0  0  0  0  0  0  0  0  0  0  0
   -0.4216   -2.1178    0.0000 C   0  0  0  0  0  0  0  0  0  0  0  0
    2.0506   -1.7919    0.0000 C   0  0  0  0  0  0  0  0  0  0  0  0
   -0.6133   -0.7187    0.0000 C   0  0  0  0  0  0  0  0  0  0  0  0
    0.1916   -0.6037    0.0000 C   0  0  0  0  0  0  0  0  0  0  0  0
    0.8816   -2.6544    0.0000 C   0  0  0  0  0  0  0  0  0  0  0  0
   -1.9548    2.4435    0.0000 C   0  0  0  0  0  0  0  0  0  0  0  0
    1.7248   -2.5585    0.0000 C   0  0  0  0  0  0  0  0  0  0  0  0
   -1.2266    1.1978    0.0000 C   0  0  0  0  0  0  0  0  0  0  0  0
   -3.3538    2.4627    0.0000 C   0  0  0  0  0  0  0  0  0  0  0  0
    3.1622   -0.9103    0.0000 C   0  0  3  0  0  0  0  0  0  0  0  0
   -2.6639    2.8651    0.0000 C   0  0  0  0  0  0  0  0  0  0  0  0
    3.3347   -2.3094    0.0000 C   0  0  0  0  0  0  0  0  0  0  0  0
    4.1588   -2.2135    0.0000 C   0  0  3  0  0  0  0  0  0  0  0  0
    3.9480   -0.7953    0.0000 C   0  0  0  0  0  0  0  0  0  0  0  0
    2.2423   -0.2587    0.0000 C   0  0  0  0  0  0  0  0  0  0  0  0
    4.6763   -2.8651    0.0000 C   0  0  0  0  0  0  0  0  0  0  0  0
  1 14  2  0  0  0  0
  2 34  1  0  0  0  0
  2 35  1  0  0  0  0
  3  4  1  0  0  0  0
  3 11  1  0  0  0  0
 13  3  1  1  0  0  0
  4 12  2  0  0  0  0
  5 12  1  0  0  0  0
  5 16  1  0  0  0  0
  6 14  1  0  0  0  0
  6 20  1  0  0  0  0
  7 23  1  0  0  0  0
  7 31  1  0  0  0  0
  7 33  1  0  0  0  0
  8 19  1  0  0  0  0
  8 23  2  0  0  0  0
  9 29  3  0  0  0  0
 10 11  2  0  0  0  0
 10 12  1  0  0  0  0
 10 14  1  0  0  0  0
 11 15  1  0  0  0  0
 13 17  1  0  0  0  0
 13 21  1  0  0  0  0
 15 20  2  0  0  0  0
 16 22  2  0  0  0  0
 16 24  1  0  0  0  0
 17 27  1  0  0  0  0
 17 29  1  6  0  0  0
 18 19  2  0  0  0  0
 18 22  1  0  0  0  0
 18 26  1  0  0  0  0
 19 25  1  0  0  0  0
 21 30  1  0  0  0  0
 23 28  1  0  0  0  0
 24 25  2  0  0  0  0
 26 28  2  0  0  0  0
 27 32  1  0  0  0  0
 30 32  1  0  0  0  0
 31 35  1  0  0  0  0
 31 36  1  6  0  0  0
 33 34  1  0  0  0  0
 34 37  1  6  0  0  0
M  END
> <PUBCHEM_COMPOUND_ID_TYPE>
0

> <PUBCHEM_TOTAL_CHARGE>
0

> <PUBCHEM_SUBSTANCE_ID>
310948747

> <PUBCHEM_SUBSTANCE_VERSION>
1

> <PUBCHEM_EXT_DATASOURCE_NAME>
4488

> <PUBCHEM_EXT_DATASOURCE_REGID>
SCHEMBL16126931

> <PUBCHEM_SUBSTANCE_COMMENT>
InChI=1S/C28H31N7O2/c1-17-16-37-18(2)15-34(17)25-10-7-19-13-21(8-9-22(19)32-25)31-27-26-24(11-12-30-28(26)36)35(33-27)23-6-4-3-5-20(23)14-29/h7-13,17-18,20,23H,3-6,15-16H2,1-2H3,(H,30,36)(H,31,33)/t17-,18-,20-,23+/m1/s1
InChIKey=KGXWGLAAORNYHC-MYJYVVNQSA-N

> <PUBCHEM_SUBSTANCE_SYNONYM>
SCHEMBL16126931

> <PUBCHEM_XREF_EXT_ID>
SCHEMBL16126931

> <PUBCHEM_EXT_DATASOURCE_URL>
https://www.surechembl.org/

> <PUBCHEM_EXT_SUBSTANCE_URL>
https://www.surechembl.org/chemical/SCHEMBL16126931

> <PUBCHEM_CID_ASSOCIATIONS>
117614289  1

> <PUBCHEM_COORDINATE_TYPE>
1
3

> <PUBCHEM_BONDANNOTATIONS>
17  29  6
13  3  5
31  36  6
34  37  6

$$$$
