310942393
  -OEChem-07211613022D

 40 44  0     0  0  0  0  0  0999 V2000
    3.2413    1.6384    0.0000 S   0  0  0  0  0  0  0  0  0  0  0  0
    4.6937    2.4531    0.0000 F   0  0  0  0  0  0  0  0  0  0  0  0
    6.1372   -0.0088    0.0000 F   0  0  0  0  0  0  0  0  0  0  0  0
    2.8251    2.3469    0.0000 O   0  0  0  0  0  0  0  0  0  0  0  0
    3.6575    2.3469    0.0000 O   0  0  0  0  0  0  0  0  0  0  0  0
    0.3631   -0.0088    0.0000 N   0  0  0  0  0  0  0  0  0  0  0  0
    1.8067   -0.0088    0.0000 N   0  0  0  0  0  0  0  0  0  0  0  0
   -0.3631    1.2221    0.0000 N   0  0  0  0  0  0  0  0  0  0  0  0
   -1.0804   -0.0088    0.0000 N   0  0  0  0  0  0  0  0  0  0  0  0
   -3.9675    1.6295    0.0000 N   0  0  0  0  0  0  0  0  0  0  0  0
    2.4797   -1.4258    0.0000 N   0  0  0  0  0  0  0  0  0  0  0  0
    2.2494   -2.1963    0.0000 N   0  0  0  0  0  0  0  0  0  0  0  0
   -5.4111    2.4531    0.0000 N   0  0  0  0  0  0  0  0  0  0  0  0
    3.9764    1.2221    0.0000 C   0  0  0  0  0  0  0  0  0  0  0  0
    1.0893    1.2221    0.0000 C   0  0  0  0  0  0  0  0  0  0  0  0
    1.0804    0.4074    0.0000 C   0  0  0  0  0  0  0  0  0  0  0  0
    4.6937    1.6384    0.0000 C   0  0  0  0  0  0  0  0  0  0  0  0
    2.5417    1.2310    0.0000 C   0  0  0  0  0  0  0  0  0  0  0  0
   -0.3543    0.4074    0.0000 C   0  0  0  0  0  0  0  0  0  0  0  0
    1.7978    1.6295    0.0000 C   0  0  0  0  0  0  0  0  0  0  0  0
    3.9764    0.3986    0.0000 C   0  0  0  0  0  0  0  0  0  0  0  0
    0.3543    1.6295    0.0000 C   0  0  0  0  0  0  0  0  0  0  0  0
    5.4111    1.2221    0.0000 C   0  0  0  0  0  0  0  0  0  0  0  0
    1.7978   -0.9122    0.0000 C   0  0  0  0  0  0  0  0  0  0  0  0
    5.4111    0.4074    0.0000 C   0  0  0  0  0  0  0  0  0  0  0  0
   -1.8067    0.4074    0.0000 C   0  0  0  0  0  0  0  0  0  0  0  0
    4.6937    0.0000    0.0000 C   0  0  0  0  0  0  0  0  0  0  0  0
   -3.2413    1.2221    0.0000 C   0  0  0  0  0  0  0  0  0  0  0  0
   -2.5240    0.0000    0.0000 C   0  0  0  0  0  0  0  0  0  0  0  0
   -1.8067    1.2221    0.0000 C   0  0  0  0  0  0  0  0  0  0  0  0
    1.1425   -1.4170    0.0000 C   0  0  0  0  0  0  0  0  0  0  0  0
   -3.2413    0.3986    0.0000 C   0  0  0  0  0  0  0  0  0  0  0  0
   -2.5328    1.6295    0.0000 C   0  0  0  0  0  0  0  0  0  0  0  0
    1.4170   -2.1963    0.0000 C   0  0  0  0  0  0  0  0  0  0  0  0
   -4.6760    1.2310    0.0000 C   0  0  0  0  0  0  0  0  0  0  0  0
   -3.9675    2.4531    0.0000 C   0  0  0  0  0  0  0  0  0  0  0  0
   -5.4022    1.6295    0.0000 C   0  0  0  0  0  0  0  0  0  0  0  0
   -4.6937    2.8693    0.0000 C   0  0  0  0  0  0  0  0  0  0  0  0
    2.7631   -2.8693    0.0000 C   0  0  0  0  0  0  0  0  0  0  0  0
   -6.1372    2.8517    0.0000 C   0  0  0  0  0  0  0  0  0  0  0  0
  1  4  2  0  0  0  0
  1  5  2  0  0  0  0
  1 14  1  0  0  0  0
  1 18  1  0  0  0  0
  2 17  1  0  0  0  0
  3 25  1  0  0  0  0
  6 16  2  0  0  0  0
  6 19  1  0  0  0  0
  7 16  1  0  0  0  0
  7 24  1  0  0  0  0
  8 19  2  0  0  0  0
  8 22  1  0  0  0  0
  9 19  1  0  0  0  0
  9 26  1  0  0  0  0
 10 28  1  0  0  0  0
 10 35  1  0  0  0  0
 10 36  1  0  0  0  0
 11 12  1  0  0  0  0
 11 24  2  0  0  0  0
 12 34  1  0  0  0  0
 12 39  1  0  0  0  0
 13 37  1  0  0  0  0
 13 38  1  0  0  0  0
 13 40  1  0  0  0  0
 14 17  1  0  0  0  0
 14 21  2  0  0  0  0
 15 16  1  0  0  0  0
 15 20  1  0  0  0  0
 15 22  2  0  0  0  0
 17 23  2  0  0  0  0
 18 20  2  0  0  0  0
 21 27  1  0  0  0  0
 23 25  1  0  0  0  0
 24 31  1  0  0  0  0
 25 27  2  0  0  0  0
 26 29  2  0  0  0  0
 26 30  1  0  0  0  0
 28 32  2  0  0  0  0
 28 33  1  0  0  0  0
 29 32  1  0  0  0  0
 30 33  2  0  0  0  0
 31 34  2  0  0  0  0
 35 37  1  0  0  0  0
 36 38  1  0  0  0  0
M  END
> <PUBCHEM_COMPOUND_ID_TYPE>
0

> <PUBCHEM_TOTAL_CHARGE>
0

> <PUBCHEM_SUBSTANCE_ID>
310942393

> <PUBCHEM_SUBSTANCE_VERSION>
1

> <PUBCHEM_EXT_DATASOURCE_NAME>
4488

> <PUBCHEM_EXT_DATASOURCE_REGID>
SCHEMBL16120429

> <PUBCHEM_SUBSTANCE_COMMENT>
InChI=1S/C27H28F2N8O2S/c1-35-12-14-37(15-13-35)22-6-4-21(5-7-22)31-27-30-18-19(26(33-27)32-25-9-11-36(2)34-25)10-16-40(38,39)24-8-3-20(28)17-23(24)29/h3-11,16-18H,12-15H2,1-2H3,(H2,30,31,32,33,34)/b16-10+
InChIKey=FIMGSBPYWWFHON-MHWRWJLKSA-N

> <PUBCHEM_SUBSTANCE_SYNONYM>
SCHEMBL16120429

> <PUBCHEM_XREF_EXT_ID>
SCHEMBL16120429

> <PUBCHEM_EXT_DATASOURCE_URL>
https://www.surechembl.org/

> <PUBCHEM_EXT_SUBSTANCE_URL>
https://www.surechembl.org/chemical/SCHEMBL16120429

> <PUBCHEM_CID_ASSOCIATIONS>
117609001  1

> <PUBCHEM_COORDINATE_TYPE>
1
3

$$$$
