310934443
  -OEChem-07211613022D

 22 25  0     0  0  0  0  0  0999 V2000
    2.2377   -2.2697    0.0000 N   0  0  0  0  0  0  0  0  0  0  0  0
    0.8631   -1.6303    0.0000 N   0  0  0  0  0  0  0  0  0  0  0  0
    2.2377   -3.9000    0.0000 N   0  0  0  0  0  0  0  0  0  0  0  0
    2.2377   -1.4385    0.0000 C   0  0  0  0  0  0  0  0  0  0  0  0
    2.3656   -0.6393    0.0000 C   0  0  0  0  0  0  0  0  0  0  0  0
    3.0369   -1.1189    0.0000 C   0  0  0  0  0  0  0  0  0  0  0  0
    1.5025   -1.1189    0.0000 C   0  0  0  0  0  0  0  0  0  0  0  0
    1.5664   -2.6852    0.0000 C   0  0  0  0  0  0  0  0  0  0  0  0
    2.9730   -2.6852    0.0000 C   0  0  0  0  0  0  0  0  0  0  0  0
    1.4066   -0.2877    0.0000 C   0  0  0  0  0  0  0  0  0  0  0  0
    2.9730   -3.5164    0.0000 C   0  0  0  0  0  0  0  0  0  0  0  0
    1.5664   -3.5164    0.0000 C   0  0  0  0  0  0  0  0  0  0  0  0
    0.0639   -1.3106    0.0000 C   0  0  0  0  0  0  0  0  0  0  0  0
    0.6393    0.0000    0.0000 C   0  0  0  0  0  0  0  0  0  0  0  0
    2.2377   -4.7312    0.0000 C   0  0  0  0  0  0  0  0  0  0  0  0
    0.0000   -0.4795    0.0000 C   0  0  0  0  0  0  0  0  0  0  0  0
    2.9730   -5.1467    0.0000 C   0  0  0  0  0  0  0  0  0  0  0  0
    2.9730   -5.9779    0.0000 C   0  0  0  0  0  0  0  0  0  0  0  0
    3.6762   -4.7312    0.0000 C   0  0  0  0  0  0  0  0  0  0  0  0
    3.6762   -6.3935    0.0000 C   0  0  0  0  0  0  0  0  0  0  0  0
    4.3795   -5.1467    0.0000 C   0  0  0  0  0  0  0  0  0  0  0  0
    4.3795   -5.9779    0.0000 C   0  0  0  0  0  0  0  0  0  0  0  0
  1  4  1  0  0  0  0
  1  8  1  0  0  0  0
  1  9  1  0  0  0  0
  2  7  1  0  0  0  0
  2 13  2  0  0  0  0
  3 11  1  0  0  0  0
  3 12  1  0  0  0  0
  3 15  1  0  0  0  0
  4  5  1  0  0  0  0
  4  6  1  0  0  0  0
  4  7  1  0  0  0  0
  5  6  1  0  0  0  0
  7 10  2  0  0  0  0
  8 12  1  0  0  0  0
  9 11  1  0  0  0  0
 10 14  1  0  0  0  0
 13 16  1  0  0  0  0
 14 16  2  0  0  0  0
 15 17  1  0  0  0  0
 17 18  2  0  0  0  0
 17 19  1  0  0  0  0
 18 20  1  0  0  0  0
 19 21  2  0  0  0  0
 20 22  2  0  0  0  0
 21 22  1  0  0  0  0
M  END
> <PUBCHEM_COMPOUND_ID_TYPE>
0

> <PUBCHEM_TOTAL_CHARGE>
0

> <PUBCHEM_SUBSTANCE_ID>
310934443

> <PUBCHEM_SUBSTANCE_VERSION>
1

> <PUBCHEM_EXT_DATASOURCE_NAME>
4488

> <PUBCHEM_EXT_DATASOURCE_REGID>
SCHEMBL16111922

> <PUBCHEM_SUBSTANCE_COMMENT>
InChI=1S/C19H23N3/c1-2-6-17(7-3-1)16-21-12-14-22(15-13-21)19(9-10-19)18-8-4-5-11-20-18/h1-8,11H,9-10,12-16H2
InChIKey=YZSKWASETGPQFT-UHFFFAOYSA-N

> <PUBCHEM_SUBSTANCE_SYNONYM>
SCHEMBL16111922

> <PUBCHEM_XREF_EXT_ID>
SCHEMBL16111922

> <PUBCHEM_EXT_DATASOURCE_URL>
https://www.surechembl.org/

> <PUBCHEM_EXT_SUBSTANCE_URL>
https://www.surechembl.org/chemical/SCHEMBL16111922

> <PUBCHEM_CID_ASSOCIATIONS>
117602651  1

> <PUBCHEM_COORDINATE_TYPE>
1
3

$$$$
