310948437
  -OEChem-07211613022D

 37 42  0     1  0  0  0  0  0999 V2000
   -3.3767   -2.3023    0.0000 O   0  0  0  0  0  0  0  0  0  0  0  0
    4.4895   -1.4389    0.0000 O   0  0  0  0  0  0  0  0  0  0  0  0
   -2.6477    0.3837    0.0000 N   0  0  0  0  0  0  0  0  0  0  0  0
   -1.9954   -0.0959    0.0000 N   0  0  0  0  0  0  0  0  0  0  0  0
   -1.7651   -1.5733    0.0000 N   0  0  0  0  0  0  0  0  0  0  0  0
   -4.4320   -1.3430    0.0000 N   0  0  0  0  0  0  0  0  0  0  0  0
    2.8396   -1.6691    0.0000 N   0  0  0  0  0  0  0  0  0  0  0  0
    1.5157   -1.1320    0.0000 N   0  0  0  0  0  0  0  0  0  0  0  0
   -0.4988    0.8250    0.0000 N   0  0  0  0  0  0  0  0  0  0  0  0
   -3.0698   -0.8634    0.0000 C   0  0  0  0  0  0  0  0  0  0  0  0
   -3.3384   -0.0959    0.0000 C   0  0  0  0  0  0  0  0  0  0  0  0
   -2.2447   -0.9018    0.0000 C   0  0  0  0  0  0  0  0  0  0  0  0
   -2.6477    1.2279    0.0000 C   0  0  3  0  0  0  0  0  0  0  0  0
   -3.6262   -1.5157    0.0000 C   0  0  0  0  0  0  0  0  0  0  0  0
   -4.1442    0.0576    0.0000 C   0  0  0  0  0  0  0  0  0  0  0  0
   -0.9401   -1.4774    0.0000 C   0  0  0  0  0  0  0  0  0  0  0  0
   -1.9569    1.6308    0.0000 C   0  0  3  0  0  0  0  0  0  0  0  0
    0.3837   -2.0337    0.0000 C   0  0  0  0  0  0  0  0  0  0  0  0
    0.7099   -1.2663    0.0000 C   0  0  0  0  0  0  0  0  0  0  0  0
   -4.6813   -0.5564    0.0000 C   0  0  0  0  0  0  0  0  0  0  0  0
   -3.3576    1.6308    0.0000 C   0  0  0  0  0  0  0  0  0  0  0  0
   -0.4413   -2.1104    0.0000 C   0  0  0  0  0  0  0  0  0  0  0  0
    2.0145   -1.7843    0.0000 C   0  0  0  0  0  0  0  0  0  0  0  0
   -0.6140   -0.7099    0.0000 C   0  0  0  0  0  0  0  0  0  0  0  0
    0.1919   -0.5947    0.0000 C   0  0  0  0  0  0  0  0  0  0  0  0
    0.8825   -2.6668    0.0000 C   0  0  0  0  0  0  0  0  0  0  0  0
   -1.9569    2.4558    0.0000 C   0  0  0  0  0  0  0  0  0  0  0  0
    1.7267   -2.5518    0.0000 C   0  0  0  0  0  0  0  0  0  0  0  0
   -1.2279    1.2087    0.0000 C   0  0  0  0  0  0  0  0  0  0  0  0
   -3.3576    2.4750    0.0000 C   0  0  0  0  0  0  0  0  0  0  0  0
    3.1848   -0.9209    0.0000 C   0  0  3  0  0  0  0  0  0  0  0  0
   -2.6477    2.8779    0.0000 C   0  0  0  0  0  0  0  0  0  0  0  0
    3.3576   -2.3215    0.0000 C   0  0  0  0  0  0  0  0  0  0  0  0
    4.1633   -2.2256    0.0000 C   0  0  3  0  0  0  0  0  0  0  0  0
    3.9715   -0.7866    0.0000 C   0  0  0  0  0  0  0  0  0  0  0  0
    2.2447   -0.2494    0.0000 C   0  0  0  0  0  0  0  0  0  0  0  0
    4.6813   -2.8779    0.0000 C   0  0  0  0  0  0  0  0  0  0  0  0
  1 14  2  0  0  0  0
  2 34  1  0  0  0  0
  2 35  1  0  0  0  0
  3  4  1  0  0  0  0
  3 11  1  0  0  0  0
 13  3  1  1  0  0  0
  4 12  2  0  0  0  0
  5 12  1  0  0  0  0
  5 16  1  0  0  0  0
  6 14  1  0  0  0  0
  6 20  1  0  0  0  0
  7 23  1  0  0  0  0
  7 31  1  0  0  0  0
  7 33  1  0  0  0  0
  8 19  1  0  0  0  0
  8 23  2  0  0  0  0
  9 29  3  0  0  0  0
 10 11  2  0  0  0  0
 10 12  1  0  0  0  0
 10 14  1  0  0  0  0
 11 15  1  0  0  0  0
 13 17  1  0  0  0  0
 13 21  1  0  0  0  0
 15 20  2  0  0  0  0
 16 22  2  0  0  0  0
 16 24  1  0  0  0  0
 17 27  1  0  0  0  0
 17 29  1  6  0  0  0
 18 19  2  0  0  0  0
 18 22  1  0  0  0  0
 18 26  1  0  0  0  0
 19 25  1  0  0  0  0
 21 30  1  0  0  0  0
 23 28  1  0  0  0  0
 24 25  2  0  0  0  0
 26 28  2  0  0  0  0
 27 32  1  0  0  0  0
 30 32  1  0  0  0  0
 31 35  1  0  0  0  0
 31 36  1  1  0  0  0
 33 34  1  0  0  0  0
 34 37  1  6  0  0  0
M  END
> <PUBCHEM_COMPOUND_ID_TYPE>
0

> <PUBCHEM_TOTAL_CHARGE>
0

> <PUBCHEM_SUBSTANCE_ID>
310948437

> <PUBCHEM_SUBSTANCE_VERSION>
1

> <PUBCHEM_EXT_DATASOURCE_NAME>
4488

> <PUBCHEM_EXT_DATASOURCE_REGID>
SCHEMBL16126618

> <PUBCHEM_SUBSTANCE_COMMENT>
InChI=1S/C28H31N7O2/c1-17-16-37-18(2)15-34(17)25-10-7-19-13-21(8-9-22(19)32-25)31-27-26-24(11-12-30-28(26)36)35(33-27)23-6-4-3-5-20(23)14-29/h7-13,17-18,20,23H,3-6,15-16H2,1-2H3,(H,30,36)(H,31,33)/t17-,18+,20+,23-/m0/s1
InChIKey=KGXWGLAAORNYHC-QWIQJREVSA-N

> <PUBCHEM_SUBSTANCE_SYNONYM>
SCHEMBL16126618

> <PUBCHEM_XREF_EXT_ID>
SCHEMBL16126618

> <PUBCHEM_EXT_DATASOURCE_URL>
https://www.surechembl.org/

> <PUBCHEM_EXT_SUBSTANCE_URL>
https://www.surechembl.org/chemical/SCHEMBL16126618

> <PUBCHEM_CID_ASSOCIATIONS>
117613995  1

> <PUBCHEM_COORDINATE_TYPE>
1
3

> <PUBCHEM_BONDANNOTATIONS>
17  29  6
13  3  5
31  36  5
34  37  6

$$$$
