310948182
  -OEChem-07211613022D

 15 16  0     0  0  0  0  0  0999 V2000
    1.5965   -1.4989    0.0000 O   0  0  0  0  0  0  0  0  0  0  0  0
    1.5965   -0.0488    0.0000 N   0  0  0  0  0  0  0  0  0  0  0  0
   -0.0906   -0.0488    0.0000 C   0  0  0  0  0  0  0  0  0  0  0  0
    0.3277   -0.7599    0.0000 C   0  0  0  0  0  0  0  0  0  0  0  0
    0.3416    0.6902    0.0000 C   0  0  0  0  0  0  0  0  0  0  0  0
    1.1642   -0.7460    0.0000 C   0  0  0  0  0  0  0  0  0  0  0  0
   -0.9133   -0.0488    0.0000 C   0  0  0  0  0  0  0  0  0  0  0  0
    0.3555    1.4989    0.0000 C   0  0  0  0  0  0  0  0  0  0  0  0
    1.0388    1.0945    0.0000 C   0  0  0  0  0  0  0  0  0  0  0  0
   -0.0767   -1.4710    0.0000 C   0  0  0  0  0  0  0  0  0  0  0  0
   -1.3315   -0.7739    0.0000 C   0  0  0  0  0  0  0  0  0  0  0  0
   -0.9133   -1.4710    0.0000 C   0  0  0  0  0  0  0  0  0  0  0  0
   -2.4470   -0.7739    0.0000 C   0  0  0  0  0  0  0  0  0  0  0  0
    2.4470   -0.0348    0.0000 C   0  0  0  0  0  0  0  0  0  0  0  0
    1.1642    0.6763    0.0000 C   0  0  0  0  0  0  0  0  0  0  0  0
  1  6  2  0  0  0  0
  2  6  1  0  0  0  0
  2 14  1  0  0  0  0
  2 15  1  0  0  0  0
  3  4  1  0  0  0  0
  3  5  1  0  0  0  0
  3  7  2  0  0  0  0
  4  6  1  0  0  0  0
  4 10  2  0  0  0  0
  5  8  1  0  0  0  0
  5  9  1  0  0  0  0
  7 11  1  0  0  0  0
  8  9  1  0  0  0  0
 10 12  1  0  0  0  0
 11 12  2  0  0  0  0
 11 13  1  0  0  0  0
M  END
> <PUBCHEM_COMPOUND_ID_TYPE>
0

> <PUBCHEM_TOTAL_CHARGE>
0

> <PUBCHEM_SUBSTANCE_ID>
310948182

> <PUBCHEM_SUBSTANCE_VERSION>
1

> <PUBCHEM_EXT_DATASOURCE_NAME>
4488

> <PUBCHEM_EXT_DATASOURCE_REGID>
SCHEMBL16126359

> <PUBCHEM_SUBSTANCE_COMMENT>
InChI=1S/C13H17NO/c1-9-4-7-11(13(15)14(2)3)12(8-9)10-5-6-10/h4,7-8,10H,5-6H2,1-3H3
InChIKey=CKUYCXJDAPQGEU-UHFFFAOYSA-N

> <PUBCHEM_SUBSTANCE_SYNONYM>
SCHEMBL16126359

> <PUBCHEM_XREF_EXT_ID>
SCHEMBL16126359

> <PUBCHEM_EXT_DATASOURCE_URL>
https://www.surechembl.org/

> <PUBCHEM_EXT_SUBSTANCE_URL>
https://www.surechembl.org/chemical/SCHEMBL16126359

> <PUBCHEM_CID_ASSOCIATIONS>
117613769  1

> <PUBCHEM_COORDINATE_TYPE>
1
3

$$$$
