310943070
  -OEChem-07211613022D

 15 16  0     0  0  0  0  0  0999 V2000
   -0.0058   -2.4913    0.0000 Cl  0  0  0  0  0  0  0  0  0  0  0  0
   -1.4426    0.0000    0.0000 N   0  0  0  0  0  0  0  0  0  0  0  0
   -0.0174    0.0116    0.0000 C   0  0  0  0  0  0  0  0  0  0  0  0
   -0.7242   -0.3940    0.0000 C   0  0  0  0  0  0  0  0  0  0  0  0
   -0.0058    0.8459    0.0000 C   0  0  0  0  0  0  0  0  0  0  0  0
    0.7011   -1.2167    0.0000 C   0  0  0  0  0  0  0  0  0  0  0  0
    0.7011   -0.3940    0.0000 C   0  0  0  0  0  0  0  0  0  0  0  0
   -0.0058   -1.6338    0.0000 C   0  0  0  0  0  0  0  0  0  0  0  0
   -0.7242   -1.2283    0.0000 C   0  0  0  0  0  0  0  0  0  0  0  0
    0.7011    1.2515    0.0000 C   0  0  0  0  0  0  0  0  0  0  0  0
   -0.7242    1.2515    0.0000 C   0  0  0  0  0  0  0  0  0  0  0  0
    1.4426   -1.6570    0.0000 C   0  0  0  0  0  0  0  0  0  0  0  0
    0.7011    2.0857    0.0000 C   0  0  0  0  0  0  0  0  0  0  0  0
   -0.7242    2.0741    0.0000 C   0  0  0  0  0  0  0  0  0  0  0  0
   -0.0058    2.4913    0.0000 C   0  0  0  0  0  0  0  0  0  0  0  0
  1  8  1  0  0  0  0
  2  4  1  0  0  0  0
  3  4  1  0  0  0  0
  3  5  1  0  0  0  0
  3  7  2  0  0  0  0
  4  9  2  0  0  0  0
  5 10  2  0  0  0  0
  5 11  1  0  0  0  0
  6  7  1  0  0  0  0
  6  8  2  0  0  0  0
  6 12  1  0  0  0  0
  8  9  1  0  0  0  0
 10 13  1  0  0  0  0
 11 14  2  0  0  0  0
 13 15  2  0  0  0  0
 14 15  1  0  0  0  0
M  END
> <PUBCHEM_COMPOUND_ID_TYPE>
0

> <PUBCHEM_TOTAL_CHARGE>
0

> <PUBCHEM_SUBSTANCE_ID>
310943070

> <PUBCHEM_SUBSTANCE_VERSION>
1

> <PUBCHEM_EXT_DATASOURCE_NAME>
4488

> <PUBCHEM_EXT_DATASOURCE_REGID>
SCHEMBL16121129

> <PUBCHEM_SUBSTANCE_COMMENT>
InChI=1S/C13H12ClN/c1-9-7-11(13(15)8-12(9)14)10-5-3-2-4-6-10/h2-8H,15H2,1H3
InChIKey=BEDPZVVQQFOOOK-UHFFFAOYSA-N

> <PUBCHEM_SUBSTANCE_SYNONYM>
SCHEMBL16121129

> <PUBCHEM_XREF_EXT_ID>
SCHEMBL16121129

> <PUBCHEM_EXT_DATASOURCE_URL>
https://www.surechembl.org/

> <PUBCHEM_EXT_SUBSTANCE_URL>
https://www.surechembl.org/chemical/SCHEMBL16121129

> <PUBCHEM_CID_ASSOCIATIONS>
117609506  1

> <PUBCHEM_COORDINATE_TYPE>
1
3

$$$$
