310948617
  -OEChem-07211613022D

 35 38  0     1  0  0  0  0  0999 V2000
   -4.5728    0.2286    0.0000 O   0  0  0  0  0  0  0  0  0  0  0  0
   -3.3257   -0.4088    0.0000 O   0  0  0  0  0  0  0  0  0  0  0  0
   -0.4434    2.6675    0.0000 O   0  0  0  0  0  0  0  0  0  0  0  0
    0.2771   -0.2148    0.0000 N   0  0  3  0  0  0  0  0  0  0  0  0
    0.2771    1.4342    0.0000 N   0  0  0  0  0  0  0  0  0  0  0  0
    4.5728    0.6167    0.0000 N   0  0  0  0  0  0  0  0  0  0  0  0
   -2.6328    1.4481    0.0000 C   0  0  3  0  0  0  0  0  0  0  0  0
   -3.3119    1.0462    0.0000 C   0  0  3  0  0  0  0  0  0  0  0  0
   -1.8846    1.0185    0.0000 C   0  0  0  0  0  0  0  0  0  0  0  0
   -3.3257    1.8360    0.0000 C   0  0  0  0  0  0  0  0  0  0  0  0
   -0.4573    0.2148    0.0000 C   0  0  0  0  0  0  0  0  0  0  0  0
   -0.4434    1.0323    0.0000 C   0  0  0  0  0  0  0  0  0  0  0  0
   -1.1779    1.4203    0.0000 C   0  0  0  0  0  0  0  0  0  0  0  0
   -1.8846    0.2009    0.0000 C   0  0  0  0  0  0  0  0  0  0  0  0
   -3.7276    0.2980    0.0000 C   0  0  0  0  0  0  0  0  0  0  0  0
   -1.1640   -0.2009    0.0000 C   0  0  0  0  0  0  0  0  0  0  0  0
    0.2771   -1.0323    0.0000 C   0  0  0  0  0  0  0  0  0  0  0  0
    0.9977    0.2009    0.0000 C   0  0  0  0  0  0  0  0  0  0  0  0
    0.2910    2.2518    0.0000 C   0  0  0  0  0  0  0  0  0  0  0  0
   -0.4434   -1.4481    0.0000 C   0  0  0  0  0  0  0  0  0  0  0  0
    0.9838   -1.4481    0.0000 C   0  0  0  0  0  0  0  0  0  0  0  0
    1.7183   -0.2009    0.0000 C   0  0  0  0  0  0  0  0  0  0  0  0
    0.9838    2.6813    0.0000 C   0  0  0  0  0  0  0  0  0  0  0  0
    1.7183    2.2656    0.0000 C   0  0  0  0  0  0  0  0  0  0  0  0
   -0.4434   -2.2795    0.0000 C   0  0  0  0  0  0  0  0  0  0  0  0
    0.9838   -2.2795    0.0000 C   0  0  0  0  0  0  0  0  0  0  0  0
    0.2633   -2.6813    0.0000 C   0  0  0  0  0  0  0  0  0  0  0  0
    1.7183    1.4481    0.0000 C   0  0  0  0  0  0  0  0  0  0  0  0
    2.4250    2.6675    0.0000 C   0  0  0  0  0  0  0  0  0  0  0  0
    2.4388    0.2148    0.0000 C   0  0  0  0  0  0  0  0  0  0  0  0
    1.7321   -1.0601    0.0000 C   0  0  0  0  0  0  0  0  0  0  0  0
    3.1456    1.4481    0.0000 C   0  0  0  0  0  0  0  0  0  0  0  0
    2.4388    1.0323    0.0000 C   0  0  0  0  0  0  0  0  0  0  0  0
    3.1456    2.2656    0.0000 C   0  0  0  0  0  0  0  0  0  0  0  0
    3.8661    1.0185    0.0000 C   0  0  0  0  0  0  0  0  0  0  0  0
  1 15  2  0  0  0  0
  2 15  1  0  0  0  0
  3 19  2  0  0  0  0
  4 11  1  0  0  0  0
  4 17  1  0  0  0  0
  4 18  1  0  0  0  0
  5 12  1  0  0  0  0
  5 19  1  0  0  0  0
  6 35  3  0  0  0  0
  7  8  1  0  0  0  0
  7  9  1  0  0  0  0
  7 10  1  6  0  0  0
  8 10  1  0  0  0  0
  8 15  1  6  0  0  0
  9 13  1  0  0  0  0
  9 14  2  0  0  0  0
 11 12  1  0  0  0  0
 11 16  2  0  0  0  0
 12 13  2  0  0  0  0
 14 16  1  0  0  0  0
 17 20  1  0  0  0  0
 17 21  1  0  0  0  0
 18 22  1  0  0  0  0
 19 23  1  0  0  0  0
 20 25  1  0  0  0  0
 21 26  1  0  0  0  0
 22 30  1  0  0  0  0
 22 31  1  0  0  0  0
 23 24  1  0  0  0  0
 24 28  2  0  0  0  0
 24 29  1  0  0  0  0
 25 27  1  0  0  0  0
 26 27  1  0  0  0  0
 28 33  1  0  0  0  0
 29 34  2  0  0  0  0
 32 33  2  0  0  0  0
 32 34  1  0  0  0  0
 32 35  1  0  0  0  0
M  END
> <PUBCHEM_COMPOUND_ID_TYPE>
0

> <PUBCHEM_TOTAL_CHARGE>
0

> <PUBCHEM_SUBSTANCE_ID>
310948617

> <PUBCHEM_SUBSTANCE_VERSION>
1

> <PUBCHEM_EXT_DATASOURCE_NAME>
4488

> <PUBCHEM_EXT_DATASOURCE_REGID>
SCHEMBL16126800

> <PUBCHEM_SUBSTANCE_COMMENT>
InChI=1S/C29H35N3O3/c1-19(2)18-32(23-6-4-3-5-7-23)27-13-12-22(24-16-25(24)29(34)35)15-26(27)31-28(33)14-20-8-10-21(17-30)11-9-20/h8-13,15,19,23-25H,3-7,14,16,18H2,1-2H3,(H,31,33)(H,34,35)/t24-,25-/m1/s1
InChIKey=DGRWZYOOUBIAKE-JWQCQUIFSA-N

> <PUBCHEM_SUBSTANCE_SYNONYM>
SCHEMBL16126800

> <PUBCHEM_XREF_EXT_ID>
SCHEMBL16126800

> <PUBCHEM_EXT_DATASOURCE_URL>
https://www.surechembl.org/

> <PUBCHEM_EXT_SUBSTANCE_URL>
https://www.surechembl.org/chemical/SCHEMBL16126800

> <PUBCHEM_CID_ASSOCIATIONS>
117614161  1

> <PUBCHEM_COORDINATE_TYPE>
1
3

> <PUBCHEM_BONDANNOTATIONS>
7  10  6
8  15  6

$$$$
