310944565
  -OEChem-07211613022D

 24 25  0     1  0  0  0  0  0999 V2000
   -3.1322    1.8582    0.0000 Cl  0  0  0  0  0  0  0  0  0  0  0  0
   -4.7356    1.0379    0.0000 Cl  0  0  0  0  0  0  0  0  0  0  0  0
   -3.1446   -1.4480    0.0000 O   0  0  0  0  0  0  0  0  0  0  0  0
   -0.2734   -1.4480    0.0000 O   0  0  0  0  0  0  0  0  0  0  0  0
    3.3186    0.6153    0.0000 O   0  0  0  0  0  0  0  0  0  0  0  0
    2.6226   -0.6153    0.0000 N   0  0  0  0  0  0  0  0  0  0  0  0
   -1.6904   -0.6153    0.0000 N   0  0  0  0  0  0  0  0  0  0  0  0
    0.4599   -0.2051    0.0000 N   0  0  0  0  0  0  0  0  0  0  0  0
   -2.4237   -0.1927    0.0000 C   0  0  0  0  0  0  0  0  0  0  0  0
   -3.1322   -0.6153    0.0000 C   0  0  0  0  0  0  0  0  0  0  0  0
   -3.1322    1.0379    0.0000 C   0  0  0  0  0  0  0  0  0  0  0  0
   -3.8531    0.6277    0.0000 C   0  0  0  0  0  0  0  0  0  0  0  0
   -2.4113    0.6153    0.0000 C   0  0  0  0  0  0  0  0  0  0  0  0
   -3.8407   -0.1927    0.0000 C   0  0  0  0  0  0  0  0  0  0  0  0
    1.1933   -0.6153    0.0000 C   0  0  3  0  0  0  0  0  0  0  0  0
    1.8893   -0.2051    0.0000 C   0  0  0  0  0  0  0  0  0  0  0  0
   -0.2610   -0.6028    0.0000 C   0  0  0  0  0  0  0  0  0  0  0  0
   -0.9695   -0.2051    0.0000 C   0  0  0  0  0  0  0  0  0  0  0  0
    3.3186   -0.2175    0.0000 C   0  0  0  0  0  0  0  0  0  0  0  0
    1.1808   -1.4480    0.0000 C   0  0  0  0  0  0  0  0  0  0  0  0
    2.6102   -1.4605    0.0000 C   0  0  0  0  0  0  0  0  0  0  0  0
    1.9017   -1.8582    0.0000 C   0  0  0  0  0  0  0  0  0  0  0  0
    4.0520   -0.6153    0.0000 C   0  0  0  0  0  0  0  0  0  0  0  0
    4.7356   -0.1678    0.0000 C   0  0  0  0  0  0  0  0  0  0  0  0
  1 11  1  0  0  0  0
  2 12  1  0  0  0  0
  3 10  1  0  0  0  0
  4 17  2  0  0  0  0
  5 19  2  0  0  0  0
  6 16  1  0  0  0  0
  6 19  1  0  0  0  0
  6 21  1  0  0  0  0
  7  9  1  0  0  0  0
  7 18  1  0  0  0  0
 15  8  1  6  0  0  0
  8 17  1  0  0  0  0
  9 10  2  0  0  0  0
  9 13  1  0  0  0  0
 10 14  1  0  0  0  0
 11 12  1  0  0  0  0
 11 13  2  0  0  0  0
 12 14  2  0  0  0  0
 15 16  1  0  0  0  0
 15 20  1  0  0  0  0
 17 18  1  0  0  0  0
 19 23  1  0  0  0  0
 20 22  1  0  0  0  0
 21 22  1  0  0  0  0
 23 24  2  0  0  0  0
M  END
> <PUBCHEM_COMPOUND_ID_TYPE>
0

> <PUBCHEM_TOTAL_CHARGE>
0

> <PUBCHEM_SUBSTANCE_ID>
310944565

> <PUBCHEM_SUBSTANCE_VERSION>
1

> <PUBCHEM_EXT_DATASOURCE_NAME>
4488

> <PUBCHEM_EXT_DATASOURCE_REGID>
SCHEMBL16122642

> <PUBCHEM_SUBSTANCE_COMMENT>
InChI=1S/C16H19Cl2N3O3/c1-2-16(24)21-5-3-4-10(9-21)20-15(23)8-19-13-6-11(17)12(18)7-14(13)22/h2,6-7,10,19,22H,1,3-5,8-9H2,(H,20,23)/t10-/m0/s1
InChIKey=RIZJFBJHPILPRO-JTQLQIEISA-N

> <PUBCHEM_SUBSTANCE_SYNONYM>
SCHEMBL16122642

> <PUBCHEM_XREF_EXT_ID>
SCHEMBL16122642

> <PUBCHEM_EXT_DATASOURCE_URL>
https://www.surechembl.org/

> <PUBCHEM_EXT_SUBSTANCE_URL>
https://www.surechembl.org/chemical/SCHEMBL16122642

> <PUBCHEM_CID_ASSOCIATIONS>
117610800  1

> <PUBCHEM_COORDINATE_TYPE>
1
3

> <PUBCHEM_BONDANNOTATIONS>
15  8  6

$$$$
