310948475
  -OEChem-07211613022D

 31 35  0     1  0  0  0  0  0999 V2000
   -2.5937    1.7999    0.0000 O   0  0  0  0  0  0  0  0  0  0  0  0
    0.1569    1.6338    0.0000 N   0  0  0  0  0  0  0  0  0  0  0  0
   -0.1754    0.8953    0.0000 N   0  0  0  0  0  0  0  0  0  0  0  0
   -1.5600    0.3785    0.0000 N   0  0  0  0  0  0  0  0  0  0  0  0
   -1.8738    3.0368    0.0000 N   0  0  0  0  0  0  0  0  0  0  0  0
    0.2677   -2.7784    0.0000 N   0  0  0  0  0  0  0  0  0  0  0  0
    1.0430   -0.3785    0.0000 N   0  0  0  0  0  0  0  0  0  0  0  0
    0.7477   -3.4429    0.0000 N   0  0  0  0  0  0  0  0  0  0  0  0
    0.7477   -2.1138    0.0000 N   0  0  0  0  0  0  0  0  0  0  0  0
   -1.1353    1.7999    0.0000 C   0  0  0  0  0  0  0  0  0  0  0  0
   -0.4708    2.2061    0.0000 C   0  0  0  0  0  0  0  0  0  0  0  0
   -1.0061    1.0246    0.0000 C   0  0  0  0  0  0  0  0  0  0  0  0
    0.9692    1.7999    0.0000 C   0  0  3  0  0  0  0  0  0  0  0  0
   -1.8738    2.2245    0.0000 C   0  0  0  0  0  0  0  0  0  0  0  0
   -0.4338    3.0184    0.0000 C   0  0  0  0  0  0  0  0  0  0  0  0
    1.5230    1.2092    0.0000 C   0  0  3  0  0  0  0  0  0  0  0  0
   -1.1722    3.4429    0.0000 C   0  0  0  0  0  0  0  0  0  0  0  0
    1.2461    2.5937    0.0000 C   0  0  0  0  0  0  0  0  0  0  0  0
   -1.3199   -0.3969    0.0000 C   0  0  0  0  0  0  0  0  0  0  0  0
    2.3353    1.3568    0.0000 C   0  0  0  0  0  0  0  0  0  0  0  0
    1.2645    0.3969    0.0000 C   0  0  0  0  0  0  0  0  0  0  0  0
    2.0584    2.7415    0.0000 C   0  0  0  0  0  0  0  0  0  0  0  0
   -1.8553   -1.0246    0.0000 C   0  0  0  0  0  0  0  0  0  0  0  0
   -0.5077   -0.6000    0.0000 C   0  0  0  0  0  0  0  0  0  0  0  0
    2.5937    2.1507    0.0000 C   0  0  0  0  0  0  0  0  0  0  0  0
   -0.8030   -2.0215    0.0000 C   0  0  0  0  0  0  0  0  0  0  0  0
   -1.6153   -1.7999    0.0000 C   0  0  0  0  0  0  0  0  0  0  0  0
   -0.2492   -1.3754    0.0000 C   0  0  0  0  0  0  0  0  0  0  0  0
   -0.5631   -2.7784    0.0000 C   0  0  0  0  0  0  0  0  0  0  0  0
    1.5230   -3.1845    0.0000 C   0  0  0  0  0  0  0  0  0  0  0  0
    1.5230   -2.3723    0.0000 C   0  0  0  0  0  0  0  0  0  0  0  0
  1 14  2  0  0  0  0
  2  3  1  0  0  0  0
  2 11  1  0  0  0  0
 13  2  1  1  0  0  0
  3 12  2  0  0  0  0
  4 12  1  0  0  0  0
  4 19  1  0  0  0  0
  5 14  1  0  0  0  0
  5 17  1  0  0  0  0
  6  8  1  0  0  0  0
  6  9  1  0  0  0  0
  6 29  1  0  0  0  0
  7 21  3  0  0  0  0
  8 30  2  0  0  0  0
  9 31  2  0  0  0  0
 10 11  2  0  0  0  0
 10 12  1  0  0  0  0
 10 14  1  0  0  0  0
 11 15  1  0  0  0  0
 13 16  1  0  0  0  0
 13 18  1  0  0  0  0
 15 17  2  0  0  0  0
 16 20  1  0  0  0  0
 16 21  1  6  0  0  0
 18 22  1  0  0  0  0
 19 23  2  0  0  0  0
 19 24  1  0  0  0  0
 20 25  1  0  0  0  0
 22 25  1  0  0  0  0
 23 27  1  0  0  0  0
 24 28  2  0  0  0  0
 26 27  2  0  0  0  0
 26 28  1  0  0  0  0
 26 29  1  0  0  0  0
 30 31  1  0  0  0  0
M  END
> <PUBCHEM_COMPOUND_ID_TYPE>
0

> <PUBCHEM_TOTAL_CHARGE>
0

> <PUBCHEM_SUBSTANCE_ID>
310948475

> <PUBCHEM_SUBSTANCE_VERSION>
1

> <PUBCHEM_EXT_DATASOURCE_NAME>
4488

> <PUBCHEM_EXT_DATASOURCE_REGID>
SCHEMBL16126657

> <PUBCHEM_SUBSTANCE_COMMENT>
InChI=1S/C22H22N8O/c23-13-16-3-1-2-4-18(16)30-19-9-10-24-22(31)20(19)21(28-30)27-17-7-5-15(6-8-17)14-29-25-11-12-26-29/h5-12,16,18H,1-4,14H2,(H,24,31)(H,27,28)/t16-,18+/m1/s1
InChIKey=ZYLZKNHHKFMKHO-AEFFLSMTSA-N

> <PUBCHEM_SUBSTANCE_SYNONYM>
SCHEMBL16126657

> <PUBCHEM_XREF_EXT_ID>
SCHEMBL16126657

> <PUBCHEM_EXT_DATASOURCE_URL>
https://www.surechembl.org/

> <PUBCHEM_EXT_SUBSTANCE_URL>
https://www.surechembl.org/chemical/SCHEMBL16126657

> <PUBCHEM_CID_ASSOCIATIONS>
117614033  1

> <PUBCHEM_COORDINATE_TYPE>
1
3

> <PUBCHEM_BONDANNOTATIONS>
16  21  6
13  2  5

$$$$
