310945106
  -OEChem-07211613022D

 32 36  0     1  0  0  0  0  0999 V2000
    2.4057    1.5002    0.0000 S   0  0  0  0  0  0  0  0  0  0  0  0
    4.0373    1.2789    0.0000 O   0  0  0  0  0  0  0  0  0  0  0  0
   -4.1893    1.7905    0.0000 O   0  0  0  0  0  0  0  0  0  0  0  0
    2.1845   -0.6429    0.0000 N   0  0  0  0  0  0  0  0  0  0  0  0
   -0.7743    0.6429    0.0000 N   0  0  0  0  0  0  0  0  0  0  0  0
    3.9681   -0.1175    0.0000 N   0  0  0  0  0  0  0  0  0  0  0  0
   -3.7469    0.4355    0.0000 N   0  0  0  0  0  0  0  0  0  0  0  0
    1.4103    0.6152    0.0000 C   0  0  0  0  0  0  0  0  0  0  0  0
    2.1293    0.1729    0.0000 C   0  0  0  0  0  0  0  0  0  0  0  0
    0.6360    0.3526    0.0000 C   0  0  0  0  0  0  0  0  0  0  0  0
    1.6039    1.4172    0.0000 C   0  0  0  0  0  0  0  0  0  0  0  0
    2.7376    0.7535    0.0000 C   0  0  0  0  0  0  0  0  0  0  0  0
    0.0000    0.9056    0.0000 C   0  0  0  0  0  0  0  0  0  0  0  0
    0.9678    1.9564    0.0000 C   0  0  0  0  0  0  0  0  0  0  0  0
    3.5533    0.5876    0.0000 C   0  0  0  0  0  0  0  0  0  0  0  0
    0.4563   -0.4770    0.0000 C   0  0  0  0  0  0  0  0  0  0  0  0
    0.1936    1.7075    0.0000 C   0  0  0  0  0  0  0  0  0  0  0  0
   -0.9540   -0.1729    0.0000 C   0  0  0  0  0  0  0  0  0  0  0  0
   -0.3180   -0.7259    0.0000 C   0  0  0  0  0  0  0  0  0  0  0  0
   -1.7283   -0.4217    0.0000 C   0  0  0  0  0  0  0  0  0  0  0  0
    2.8897   -1.1269    0.0000 C   0  0  0  0  0  0  0  0  0  0  0  0
    3.6501   -0.9056    0.0000 C   0  0  3  0  0  0  0  0  0  0  0  0
   -2.3367    0.1037    0.0000 C   0  0  0  0  0  0  0  0  0  0  0  0
   -1.9080   -1.2374    0.0000 C   0  0  0  0  0  0  0  0  0  0  0  0
   -3.1247   -0.1452    0.0000 C   0  0  0  0  0  0  0  0  0  0  0  0
   -2.6823   -1.5002    0.0000 C   0  0  0  0  0  0  0  0  0  0  0  0
   -3.2907   -0.9471    0.0000 C   0  0  0  0  0  0  0  0  0  0  0  0
    4.1893   -1.5002    0.0000 C   0  0  0  0  0  0  0  0  0  0  0  0
   -2.8620   -2.3435    0.0000 C   0  0  0  0  0  0  0  0  0  0  0  0
   -3.5533    1.2374    0.0000 C   0  0  0  0  0  0  0  0  0  0  0  0
   -2.7929    1.5002    0.0000 C   0  0  0  0  0  0  0  0  0  0  0  0
   -2.6961    2.3435    0.0000 C   0  0  0  0  0  0  0  0  0  0  0  0
  1 11  1  0  0  0  0
  1 12  1  0  0  0  0
  2 15  2  0  0  0  0
  3 30  2  0  0  0  0
  4  9  1  0  0  0  0
  4 21  1  0  0  0  0
  5 13  1  0  0  0  0
  5 18  2  0  0  0  0
  6 15  1  0  0  0  0
  6 22  1  0  0  0  0
  7 25  1  0  0  0  0
  7 30  1  0  0  0  0
  8  9  1  0  0  0  0
  8 10  1  0  0  0  0
  8 11  2  0  0  0  0
  9 12  2  0  0  0  0
 10 13  2  0  0  0  0
 10 16  1  0  0  0  0
 11 14  1  0  0  0  0
 12 15  1  0  0  0  0
 13 17  1  0  0  0  0
 14 17  2  0  0  0  0
 16 19  2  0  0  0  0
 18 19  1  0  0  0  0
 18 20  1  0  0  0  0
 20 23  2  0  0  0  0
 20 24  1  0  0  0  0
 21 22  1  0  0  0  0
 22 28  1  6  0  0  0
 23 25  1  0  0  0  0
 24 26  2  0  0  0  0
 25 27  2  0  0  0  0
 26 27  1  0  0  0  0
 26 29  1  0  0  0  0
 30 31  1  0  0  0  0
 31 32  2  0  0  0  0
M  END
> <PUBCHEM_COMPOUND_ID_TYPE>
0

> <PUBCHEM_TOTAL_CHARGE>
0

> <PUBCHEM_SUBSTANCE_ID>
310945106

> <PUBCHEM_SUBSTANCE_VERSION>
1

> <PUBCHEM_EXT_DATASOURCE_NAME>
4488

> <PUBCHEM_EXT_DATASOURCE_REGID>
SCHEMBL16123196

> <PUBCHEM_SUBSTANCE_COMMENT>
InChI=1S/C25H22N4O2S/c1-4-21(30)28-16-10-13(2)9-15(11-16)18-6-5-17-19(29-18)7-8-20-22(17)23-24(32-20)25(31)27-14(3)12-26-23/h4-11,14,26H,1,12H2,2-3H3,(H,27,31)(H,28,30)/t14-/m1/s1
InChIKey=PVAKQAHICNCUOQ-CQSZACIVSA-N

> <PUBCHEM_SUBSTANCE_SYNONYM>
SCHEMBL16123196

> <PUBCHEM_XREF_EXT_ID>
SCHEMBL16123196

> <PUBCHEM_EXT_DATASOURCE_URL>
https://www.surechembl.org/

> <PUBCHEM_EXT_SUBSTANCE_URL>
https://www.surechembl.org/chemical/SCHEMBL16123196

> <PUBCHEM_CID_ASSOCIATIONS>
117611202  1

> <PUBCHEM_COORDINATE_TYPE>
1
3

> <PUBCHEM_BONDANNOTATIONS>
22  28  6

$$$$
