310931517
  -OEChem-07211613022D

 25 27  0     1  0  0  0  0  0999 V2000
    3.3315   -1.8609    0.0000 P   0  0  0  0  0  0  0  0  0  0  0  0
    1.8242   -1.7070    0.0000 O   0  0  0  0  0  0  0  0  0  0  0  0
    3.2453   -2.6814    0.0000 O   0  0  0  0  0  0  0  0  0  0  0  0
   -0.2704   -2.1195    0.0000 O   0  0  0  0  0  0  0  0  0  0  0  0
    0.7846   -3.5715    0.0000 O   0  0  0  0  0  0  0  0  0  0  0  0
    2.4054   -3.8374    0.0000 O   0  0  0  0  0  0  0  0  0  0  0  0
    2.6641   -1.3760    0.0000 O   0  0  0  0  0  0  0  0  0  0  0  0
    4.0852   -1.5253    0.0000 O   0  0  0  0  0  0  0  0  0  0  0  0
    3.9990   -2.3458    0.0000 O   0  0  0  0  0  0  0  0  0  0  0  0
    0.7846   -0.6674    0.0000 N   0  0  0  0  0  0  0  0  0  0  0  0
    0.7846    0.6674    0.0000 N   0  0  0  0  0  0  0  0  0  0  0  0
   -0.7144   -0.8250    0.0000 N   0  0  0  0  0  0  0  0  0  0  0  0
   -1.4290    0.4125    0.0000 N   0  0  0  0  0  0  0  0  0  0  0  0
   -0.7144    1.6500    0.0000 N   0  0  0  0  0  0  0  0  0  0  0  0
    1.0396   -1.4521    0.0000 C   0  0  3  0  0  0  0  0  0  0  0  0
    1.8242   -2.5320    0.0000 C   0  0  3  0  0  0  0  0  0  0  0  0
    0.5546   -2.1195    0.0000 C   0  0  3  0  0  0  0  0  0  0  0  0
    1.0396   -2.7870    0.0000 C   0  0  3  0  0  0  0  0  0  0  0  0
    0.0000   -0.4125    0.0000 C   0  0  0  0  0  0  0  0  0  0  0  0
    0.0000    0.4125    0.0000 C   0  0  0  0  0  0  0  0  0  0  0  0
    2.4916   -3.0169    0.0000 C   0  0  3  0  0  0  0  0  0  0  0  0
    1.2696    0.0000    0.0000 C   0  0  0  0  0  0  0  0  0  0  0  0
   -0.7144    0.8250    0.0000 C   0  0  0  0  0  0  0  0  0  0  0  0
   -1.4290   -0.4125    0.0000 C   0  0  0  0  0  0  0  0  0  0  0  0
    1.6517   -4.1730    0.0000 C   0  0  0  0  0  0  0  0  0  0  0  0
  1  3  1  0  0  0  0
  1  7  2  0  0  0  0
  1  8  1  0  0  0  0
  1  9  1  0  0  0  0
 15  2  1  6  0  0  0
  2 16  1  0  0  0  0
  3 21  1  0  0  0  0
 17  4  1  1  0  0  0
 18  5  1  1  0  0  0
  6 21  1  0  0  0  0
  6 25  1  0  0  0  0
 10 15  1  0  0  0  0
 10 19  1  0  0  0  0
 10 22  1  0  0  0  0
 11 20  1  0  0  0  0
 11 22  2  0  0  0  0
 12 19  1  0  0  0  0
 12 24  2  0  0  0  0
 13 23  2  0  0  0  0
 13 24  1  0  0  0  0
 14 23  1  0  0  0  0
 15 17  1  0  0  0  0
 16 18  1  0  0  0  0
 16 21  1  6  0  0  0
 17 18  1  0  0  0  0
 19 20  2  0  0  0  0
 20 23  1  0  0  0  0
M  END
> <PUBCHEM_COMPOUND_ID_TYPE>
0

> <PUBCHEM_TOTAL_CHARGE>
0

> <PUBCHEM_SUBSTANCE_ID>
310931517

> <PUBCHEM_SUBSTANCE_VERSION>
1

> <PUBCHEM_EXT_DATASOURCE_NAME>
4488

> <PUBCHEM_EXT_DATASOURCE_REGID>
SCHEMBL16108843

> <PUBCHEM_SUBSTANCE_COMMENT>
InChI=1S/C11H16N5O8P/c1-22-11(24-25(19,20)21)7-5(17)6(18)10(23-7)16-3-15-4-8(12)13-2-14-9(4)16/h2-3,5-7,10-11,17-18H,1H3,(H2,12,13,14)(H2,19,20,21)/t5-,6+,7-,10+,11?/m0/s1
InChIKey=RVTRYJGXPSNFEU-DUGQTUNHSA-N

> <PUBCHEM_SUBSTANCE_SYNONYM>
SCHEMBL16108843

> <PUBCHEM_XREF_EXT_ID>
SCHEMBL16108843

> <PUBCHEM_EXT_DATASOURCE_URL>
https://www.surechembl.org/

> <PUBCHEM_EXT_SUBSTANCE_URL>
https://www.surechembl.org/chemical/SCHEMBL16108843

> <PUBCHEM_CID_ASSOCIATIONS>
117600273  1

> <PUBCHEM_COORDINATE_TYPE>
1
3

> <PUBCHEM_BONDANNOTATIONS>
16  21  6
15  2  6
17  4  5
18  5  5

$$$$
