310946239
  -OEChem-07211613022D

 46 45  0     1  0  0  0  0  0999 V2000
   -4.6682   -5.6243    0.0000 P   0  0  3  0  0  0  0  0  0  0  0  0
   -5.3930   -5.2119    0.0000 O   0  0  0  0  0  0  0  0  0  0  0  0
   -3.9432   -6.0492    0.0000 O   0  0  0  0  0  0  0  0  0  0  0  0
   -3.9432   -4.3745    0.0000 O   0  0  0  0  0  0  0  0  0  0  0  0
   -4.2557   -4.9119    0.0000 O   0  0  0  0  0  0  0  0  0  0  0  0
   -5.0806   -6.3492    0.0000 O   0  0  0  0  0  0  0  0  0  0  0  0
   -3.9432   -2.7121    0.0000 O   0  0  0  0  0  0  0  0  0  0  0  0
   -3.2309   -3.1246    0.0000 O   0  0  0  0  0  0  0  0  0  0  0  0
   -4.6682   -1.4623    0.0000 O   0  0  0  0  0  0  0  0  0  0  0  0
    2.5434   -3.1246    0.0000 O   0  0  0  0  0  0  0  0  0  0  0  0
    5.3930   -3.9620    0.0000 O   0  0  0  0  0  0  0  0  0  0  0  0
    4.7806   -5.1994    0.0000 O   0  0  0  0  0  0  0  0  0  0  0  0
   -4.6682   -3.9495    0.0000 C   0  0  3  0  0  0  0  0  0  0  0  0
   -5.3681   -4.3745    0.0000 C   0  0  0  0  0  0  0  0  0  0  0  0
   -4.6432   -3.1122    0.0000 C   0  0  0  0  0  0  0  0  0  0  0  0
   -3.2183   -3.9745    0.0000 C   0  0  0  0  0  0  0  0  0  0  0  0
   -3.2058   -5.6243    0.0000 C   0  0  0  0  0  0  0  0  0  0  0  0
   -3.9182   -1.8748    0.0000 C   0  0  0  0  0  0  0  0  0  0  0  0
   -2.4935   -4.3745    0.0000 C   0  0  0  0  0  0  0  0  0  0  0  0
   -3.2183   -1.4623    0.0000 C   0  0  0  0  0  0  0  0  0  0  0  0
   -2.4809   -6.0368    0.0000 C   0  0  0  0  0  0  0  0  0  0  0  0
   -1.7811   -3.9620    0.0000 C   0  0  0  0  0  0  0  0  0  0  0  0
   -3.2183   -0.6749    0.0000 C   0  0  0  0  0  0  0  0  0  0  0  0
   -1.0437   -4.3745    0.0000 C   0  0  0  0  0  0  0  0  0  0  0  0
   -0.3437   -3.9620    0.0000 C   0  0  0  0  0  0  0  0  0  0  0  0
   -1.9685   -5.7368    0.0000 C   0  0  0  0  0  0  0  0  0  0  0  0
   -2.4684   -0.3875    0.0000 C   0  0  0  0  0  0  0  0  0  0  0  0
    2.5434   -3.9745    0.0000 C   0  0  0  0  0  0  0  0  0  0  0  0
    0.4062   -4.3745    0.0000 C   0  0  0  0  0  0  0  0  0  0  0  0
    1.8435   -4.3745    0.0000 C   0  0  0  0  0  0  0  0  0  0  0  0
    1.1061   -3.9620    0.0000 C   0  0  0  0  0  0  0  0  0  0  0  0
    3.2933   -4.3745    0.0000 C   0  0  0  0  0  0  0  0  0  0  0  0
   -2.4434    0.4124    0.0000 C   0  0  0  0  0  0  0  0  0  0  0  0
    3.9933   -3.9620    0.0000 C   0  0  0  0  0  0  0  0  0  0  0  0
    4.7181   -4.3745    0.0000 C   0  0  0  0  0  0  0  0  0  0  0  0
   -1.7060    0.6999    0.0000 C   0  0  0  0  0  0  0  0  0  0  0  0
   -1.7186    1.5248    0.0000 C   0  0  0  0  0  0  0  0  0  0  0  0
   -0.9436    1.8123    0.0000 C   0  0  0  0  0  0  0  0  0  0  0  0
   -0.9311    2.6372    0.0000 C   0  0  0  0  0  0  0  0  0  0  0  0
   -0.1812    2.9121    0.0000 C   0  0  0  0  0  0  0  0  0  0  0  0
   -0.1812    3.7370    0.0000 C   0  0  0  0  0  0  0  0  0  0  0  0
    0.6062    4.0370    0.0000 C   0  0  0  0  0  0  0  0  0  0  0  0
    0.6062    4.9244    0.0000 C   0  0  0  0  0  0  0  0  0  0  0  0
    1.3936    5.2619    0.0000 C   0  0  0  0  0  0  0  0  0  0  0  0
    1.3686    6.0618    0.0000 C   0  0  0  0  0  0  0  0  0  0  0  0
    2.1685    6.3492    0.0000 C   0  0  0  0  0  0  0  0  0  0  0  0
  1  2  1  0  0  0  0
  1  3  1  0  0  0  0
  1  5  2  0  0  0  0
  1  6  1  0  0  0  0
  2 14  1  0  0  0  0
  3 17  1  0  0  0  0
 13  4  1  1  0  0  0
  4 16  1  0  0  0  0
  7 15  1  0  0  0  0
  7 18  1  0  0  0  0
  8 16  2  0  0  0  0
  9 18  2  0  0  0  0
 10 28  2  0  0  0  0
 11 35  2  0  0  0  0
 12 35  1  0  0  0  0
 13 14  1  0  0  0  0
 13 15  1  0  0  0  0
 16 19  1  0  0  0  0
 17 21  1  0  0  0  0
 18 20  1  0  0  0  0
 19 22  1  0  0  0  0
 20 23  1  0  0  0  0
 21 26  1  0  0  0  0
 22 24  1  0  0  0  0
 23 27  1  0  0  0  0
 24 25  1  0  0  0  0
 25 29  1  0  0  0  0
 27 33  1  0  0  0  0
 28 30  1  0  0  0  0
 28 32  1  0  0  0  0
 29 31  1  0  0  0  0
 30 31  1  0  0  0  0
 32 34  2  0  0  0  0
 33 36  1  0  0  0  0
 34 35  1  0  0  0  0
 36 37  1  0  0  0  0
 37 38  1  0  0  0  0
 38 39  1  0  0  0  0
 39 40  1  0  0  0  0
 40 41  1  0  0  0  0
 41 42  1  0  0  0  0
 42 43  1  0  0  0  0
 43 44  1  0  0  0  0
 44 45  1  0  0  0  0
 45 46  1  0  0  0  0
M  END
> <PUBCHEM_COMPOUND_ID_TYPE>
0

> <PUBCHEM_TOTAL_CHARGE>
0

> <PUBCHEM_SUBSTANCE_ID>
310946239

> <PUBCHEM_SUBSTANCE_VERSION>
1

> <PUBCHEM_EXT_DATASOURCE_NAME>
4488

> <PUBCHEM_EXT_DATASOURCE_REGID>
SCHEMBL16124357

> <PUBCHEM_SUBSTANCE_COMMENT>
InChI=1S/C34H61O11P/c1-3-5-6-7-8-9-10-11-12-13-14-17-20-23-33(38)42-28-31(29-44-46(40,41)43-27-4-2)45-34(39)24-21-18-15-16-19-22-30(35)25-26-32(36)37/h25-26,31H,3-24,27-29H2,1-2H3,(H,36,37)(H,40,41)/b26-25+/t31-/m1/s1
InChIKey=FOEWNQMDBOCDFZ-FCQHFSJBSA-N

> <PUBCHEM_SUBSTANCE_SYNONYM>
SCHEMBL16124357

> <PUBCHEM_XREF_EXT_ID>
SCHEMBL16124357

> <PUBCHEM_EXT_DATASOURCE_URL>
https://www.surechembl.org/

> <PUBCHEM_EXT_SUBSTANCE_URL>
https://www.surechembl.org/chemical/SCHEMBL16124357

> <PUBCHEM_CID_ASSOCIATIONS>
117612187  1

> <PUBCHEM_COORDINATE_TYPE>
1
3

> <PUBCHEM_BONDANNOTATIONS>
13  4  5

$$$$
