310929847
  -OEChem-07211613022D

 70 78  0     1  0  0  0  0  0999 V2000
   10.5644    6.4525    0.0000 S   0  0  0  0  0  0  0  0  0  0  0  0
    9.6692    5.0664    0.0000 O   0  0  0  0  0  0  0  0  0  0  0  0
    6.8922    5.3554    0.0000 O   0  0  0  0  0  0  0  0  0  0  0  0
    7.6543    1.7802    0.0000 O   0  0  0  0  0  0  0  0  0  0  0  0
    5.8725    4.7515    0.0000 O   0  0  0  0  0  0  0  0  0  0  0  0
   10.6056    7.2764    0.0000 O   0  0  0  0  0  0  0  0  0  0  0  0
   11.3884    6.4113    0.0000 O   0  0  0  0  0  0  0  0  0  0  0  0
    3.9180    2.4205    0.0000 O   0  0  0  0  0  0  0  0  0  0  0  0
    9.5345   -0.3721    0.0000 O   0  0  0  0  0  0  0  0  0  0  0  0
    2.9700    3.3802    0.0000 O   0  0  0  0  0  0  0  0  0  0  0  0
    8.2853    5.0374    0.0000 N   0  0  0  0  0  0  0  0  0  0  0  0
    6.5547    3.6657    0.0000 N   0  0  0  0  0  0  0  0  0  0  0  0
    9.7405    6.4936    0.0000 N   0  0  0  0  0  0  0  0  0  0  0  0
    4.3720    3.6563    0.0000 N   0  0  0  0  0  0  0  0  0  0  0  0
    9.0563    2.0563    0.0000 N   0  0  0  0  0  0  0  0  0  0  0  0
    8.4689    5.8417    0.0000 C   0  0  3  0  0  0  0  0  0  0  0  0
    7.7087    6.1622    0.0000 C   0  0  3  0  0  0  0  0  0  0  0  0
    8.3663    6.6603    0.0000 C   0  0  0  0  0  0  0  0  0  0  0  0
    9.2929    5.8006    0.0000 C   0  0  0  0  0  0  0  0  0  0  0  0
    7.3133    3.9900    0.0000 C   0  0  3  0  0  0  0  0  0  0  0  0
    7.4969    4.7943    0.0000 C   0  0  0  0  0  0  0  0  0  0  0  0
    6.8901    6.0596    0.0000 C   0  0  0  0  0  0  0  0  0  0  0  0
    7.4948    2.5896    0.0000 C   0  0  3  0  0  0  0  0  0  0  0  0
    7.8561    3.3687    0.0000 C   0  0  0  0  0  0  0  0  0  0  0  0
    6.7141    2.8563    0.0000 C   0  0  0  0  0  0  0  0  0  0  0  0
    5.7740    3.9324    0.0000 C   0  0  0  0  0  0  0  0  0  0  0  0
    5.1527    3.3896    0.0000 C   0  0  3  0  0  0  0  0  0  0  0  0
   10.5233    5.6285    0.0000 C   0  0  0  0  0  0  0  0  0  0  0  0
    6.3919    6.7173    0.0000 C   0  0  0  0  0  0  0  0  0  0  0  0
    4.9933    4.1991    0.0000 C   0  0  0  0  0  0  0  0  0  0  0  0
    8.4350    1.5135    0.0000 C   0  0  0  0  0  0  0  0  0  0  0  0
   10.0757    4.9355    0.0000 C   0  0  0  0  0  0  0  0  0  0  0  0
   10.8997    4.8943    0.0000 C   0  0  0  0  0  0  0  0  0  0  0  0
    8.5944    0.7040    0.0000 C   0  0  0  0  0  0  0  0  0  0  0  0
    3.7507    3.1135    0.0000 C   0  0  0  0  0  0  0  0  0  0  0  0
    9.3751    0.4374    0.0000 C   0  0  0  0  0  0  0  0  0  0  0  0
    5.5544    4.8038    0.0000 C   0  0  0  0  0  0  0  0  0  0  0  0
    4.2447    4.5459    0.0000 C   0  0  0  0  0  0  0  0  0  0  0  0
    9.8370    1.7896    0.0000 C   0  0  0  0  0  0  0  0  0  0  0  0
    4.6908    2.0374    0.0000 C   0  0  3  0  0  0  0  0  0  0  0  0
    9.9964    0.9802    0.0000 C   0  0  0  0  0  0  0  0  0  0  0  0
    4.8502    1.2279    0.0000 C   0  0  3  0  0  0  0  0  0  0  0  0
    7.9409    0.0811    0.0000 C   0  0  0  0  0  0  0  0  0  0  0  0
    5.1527    5.5244    0.0000 C   0  0  0  0  0  0  0  0  0  0  0  0
    4.3432    5.3650    0.0000 C   0  0  0  0  0  0  0  0  0  0  0  0
    3.8717    2.1359    0.0000 C   0  0  0  0  0  0  0  0  0  0  0  0
   10.4583    2.3324    0.0000 C   0  0  0  0  0  0  0  0  0  0  0  0
   10.7771    0.7135    0.0000 C   0  0  0  0  0  0  0  0  0  0  0  0
    4.1297    0.8262    0.0000 C   0  0  0  0  0  0  0  0  0  0  0  0
    5.6309    0.9613    0.0000 C   0  0  0  0  0  0  0  0  0  0  0  0
    3.5249    1.3873    0.0000 C   0  0  0  0  0  0  0  0  0  0  0  0
    7.8424   -0.7380    0.0000 C   0  0  0  0  0  0  0  0  0  0  0  0
   11.2390    2.0657    0.0000 C   0  0  0  0  0  0  0  0  0  0  0  0
   11.3984    1.2563    0.0000 C   0  0  0  0  0  0  0  0  0  0  0  0
   10.3152   -0.6387    0.0000 C   0  0  0  0  0  0  0  0  0  0  0  0
    5.7904    0.1518    0.0000 C   0  0  0  0  0  0  0  0  0  0  0  0
    7.0330   -0.8974    0.0000 C   0  0  0  0  0  0  0  0  0  0  0  0
   10.4746   -1.4482    0.0000 C   0  0  0  0  0  0  0  0  0  0  0  0
    6.6312   -0.1768    0.0000 C   0  0  0  0  0  0  0  0  0  0  0  0
    9.8533   -1.9910    0.0000 C   0  0  0  0  0  0  0  0  0  0  0  0
   11.2554   -1.7149    0.0000 C   0  0  0  0  0  0  0  0  0  0  0  0
   10.0128   -2.8004    0.0000 C   0  0  0  0  0  0  0  0  0  0  0  0
   11.4148   -2.5243    0.0000 C   0  0  0  0  0  0  0  0  0  0  0  0
   10.7935   -3.0671    0.0000 C   0  0  0  0  0  0  0  0  0  0  0  0
    7.5959    5.3450    0.0000 H   0  0  0  0  0  0  0  0  0  0  0  0
    8.1133    4.1915    0.0000 H   0  0  0  0  0  0  0  0  0  0  0  0
    8.3139    2.4909    0.0000 H   0  0  0  0  0  0  0  0  0  0  0  0
    5.4194    4.1703    0.0000 H   0  0  0  0  0  0  0  0  0  0  0  0
    4.2368    2.7262    0.0000 H   0  0  0  0  0  0  0  0  0  0  0  0
    4.9242    0.4062    0.0000 H   0  0  0  0  0  0  0  0  0  0  0  0
  1  6  2  0  0  0  0
  1  7  2  0  0  0  0
  1 13  1  0  0  0  0
  1 28  1  0  0  0  0
  2 19  2  0  0  0  0
  3 21  2  0  0  0  0
  4 23  1  0  0  0  0
  4 31  1  0  0  0  0
  5 26  2  0  0  0  0
  8 35  1  0  0  0  0
  8 40  1  0  0  0  0
  9 36  1  0  0  0  0
  9 55  1  0  0  0  0
 10 35  2  0  0  0  0
 16 11  1  1  0  0  0
 11 21  1  0  0  0  0
 12 20  1  0  0  0  0
 12 25  1  0  0  0  0
 12 26  1  0  0  0  0
 13 19  1  0  0  0  0
 14 27  1  0  0  0  0
 14 35  1  0  0  0  0
 15 31  2  0  0  0  0
 15 39  1  0  0  0  0
 16 17  1  0  0  0  0
 16 18  1  0  0  0  0
 16 19  1  6  0  0  0
 17 18  1  0  0  0  0
 17 22  1  6  0  0  0
 17 65  1  1  0  0  0
 20 21  1  0  0  0  0
 20 24  1  0  0  0  0
 20 66  1  1  0  0  0
 22 29  2  0  0  0  0
 23 24  1  0  0  0  0
 23 25  1  0  0  0  0
 23 67  1  6  0  0  0
 26 27  1  0  0  0  0
 27 30  1  0  0  0  0
 27 68  1  6  0  0  0
 28 32  1  0  0  0  0
 28 33  1  0  0  0  0
 30 37  1  0  0  0  0
 30 38  1  0  0  0  0
 31 34  1  0  0  0  0
 32 33  1  0  0  0  0
 34 36  2  0  0  0  0
 34 43  1  0  0  0  0
 36 41  1  0  0  0  0
 37 44  1  0  0  0  0
 38 45  1  0  0  0  0
 39 41  2  0  0  0  0
 39 47  1  0  0  0  0
 40 42  1  0  0  0  0
 40 46  1  0  0  0  0
 40 69  1  6  0  0  0
 41 48  1  0  0  0  0
 42 49  1  0  0  0  0
 42 50  1  0  0  0  0
 42 70  1  1  0  0  0
 43 52  1  0  0  0  0
 44 45  1  0  0  0  0
 46 51  1  0  0  0  0
 47 53  2  0  0  0  0
 48 54  2  0  0  0  0
 49 51  1  0  0  0  0
 50 56  1  0  0  0  0
 52 57  2  0  0  0  0
 53 54  1  0  0  0  0
 55 58  1  0  0  0  0
 56 59  1  0  0  0  0
 57 59  1  0  0  0  0
 58 60  2  0  0  0  0
 58 61  1  0  0  0  0
 60 62  1  0  0  0  0
 61 63  2  0  0  0  0
 62 64  2  0  0  0  0
 63 64  1  0  0  0  0
M  END
> <PUBCHEM_COMPOUND_ID_TYPE>
0

> <PUBCHEM_TOTAL_CHARGE>
0

> <PUBCHEM_SUBSTANCE_ID>
310929847

> <PUBCHEM_SUBSTANCE_VERSION>
1

> <PUBCHEM_EXT_DATASOURCE_NAME>
4488

> <PUBCHEM_EXT_DATASOURCE_REGID>
SCHEMBL16107059

> <PUBCHEM_SUBSTANCE_COMMENT>
InChI=1S/C49H59N5O9S/c1-2-34-28-49(34,47(57)53-64(59,60)36-25-26-36)52-44(55)40-27-35-29-54(40)46(56)42(33-18-10-11-19-33)51-48(58)63-41-24-14-20-32(41)17-8-3-4-9-22-38-43(61-30-31-15-6-5-7-16-31)37-21-12-13-23-39(37)50-45(38)62-35/h2,4-7,9,12-13,15-16,21,23,32-36,40-42H,1,3,8,10-11,14,17-20,22,24-30H2,(H,51,58)(H,52,55)(H,53,57)/t32-,34-,35-,40+,41-,42+,49-/m1/s1
InChIKey=VDDDVLYGNJAABC-SUGILBDDSA-N

> <PUBCHEM_SUBSTANCE_SYNONYM>
SCHEMBL16107059

> <PUBCHEM_XREF_EXT_ID>
SCHEMBL16107059

> <PUBCHEM_EXT_DATASOURCE_URL>
https://www.surechembl.org/

> <PUBCHEM_EXT_SUBSTANCE_URL>
https://www.surechembl.org/chemical/SCHEMBL16107059

> <PUBCHEM_CID_ASSOCIATIONS>
117599120  1

> <PUBCHEM_COORDINATE_TYPE>
1
3

> <PUBCHEM_BONDANNOTATIONS>
16  11  5
16  19  6
17  22  6
17  65  5
20  66  5
23  67  6
27  68  6
40  69  6
42  70  5
57  59  3

$$$$
