310934515
  -OEChem-07211613022D

 33 36  0     0  0  0  0  0  0999 V2000
    3.5127   -3.0215    0.0000 O   0  0  0  0  0  0  0  0  0  0  0  0
   11.6579   -4.7528    0.0000 O   0  0  0  0  0  0  0  0  0  0  0  0
    7.5445   -0.6428    0.0000 O   0  0  0  0  0  0  0  0  0  0  0  0
    9.8983    0.1220    0.0000 O   0  0  0  0  0  0  0  0  0  0  0  0
    7.9860   -2.0018    0.0000 N   0  0  0  0  0  0  0  0  0  0  0  0
    3.7676   -3.8062    0.0000 N   0  0  0  0  0  0  0  0  0  0  0  0
   11.1059   -5.3659    0.0000 N   0  0  0  0  0  0  0  0  0  0  0  0
    8.5006    0.4191    0.0000 N   0  0  0  0  0  0  0  0  0  0  0  0
    7.2014   -2.2567    0.0000 C   0  0  0  0  0  0  0  0  0  0  0  0
    8.5991   -2.5538    0.0000 C   0  0  0  0  0  0  0  0  0  0  0  0
    4.8476   -3.0215    0.0000 C   0  0  0  0  0  0  0  0  0  0  0  0
   10.4384   -4.2099    0.0000 C   0  0  0  0  0  0  0  0  0  0  0  0
    5.6322   -2.7666    0.0000 C   0  0  0  0  0  0  0  0  0  0  0  0
    9.8253   -3.6579    0.0000 C   0  0  0  0  0  0  0  0  0  0  0  0
    8.1576   -1.1948    0.0000 C   0  0  0  0  0  0  0  0  0  0  0  0
    4.1801   -2.5366    0.0000 C   0  0  0  0  0  0  0  0  0  0  0  0
   11.2454   -4.0384    0.0000 C   0  0  0  0  0  0  0  0  0  0  0  0
    4.5926   -3.8062    0.0000 C   0  0  0  0  0  0  0  0  0  0  0  0
   10.3522   -5.0304    0.0000 C   0  0  0  0  0  0  0  0  0  0  0  0
    6.5883   -1.7047    0.0000 C   0  0  0  0  0  0  0  0  0  0  0  0
    9.3838   -2.2989    0.0000 C   0  0  0  0  0  0  0  0  0  0  0  0
    7.0299   -3.0637    0.0000 C   0  0  0  0  0  0  0  0  0  0  0  0
    8.4276   -3.3608    0.0000 C   0  0  0  0  0  0  0  0  0  0  0  0
    5.8037   -1.9596    0.0000 C   0  0  0  0  0  0  0  0  0  0  0  0
    9.9969   -2.8509    0.0000 C   0  0  0  0  0  0  0  0  0  0  0  0
    6.2453   -3.3186    0.0000 C   0  0  0  0  0  0  0  0  0  0  0  0
    9.0407   -3.9128    0.0000 C   0  0  0  0  0  0  0  0  0  0  0  0
    8.9422   -0.9399    0.0000 C   0  0  0  0  0  0  0  0  0  0  0  0
    4.1801   -1.7116    0.0000 C   0  0  0  0  0  0  0  0  0  0  0  0
   11.5810   -3.2847    0.0000 C   0  0  0  0  0  0  0  0  0  0  0  0
    5.0775   -4.4736    0.0000 C   0  0  0  0  0  0  0  0  0  0  0  0
    9.6377   -5.4429    0.0000 C   0  0  0  0  0  0  0  0  0  0  0  0
    9.1137   -0.1329    0.0000 C   0  0  0  0  0  0  0  0  0  0  0  0
  1  6  1  0  0  0  0
  1 16  1  0  0  0  0
  2  7  1  0  0  0  0
  2 17  1  0  0  0  0
  3 15  2  0  0  0  0
  4 33  2  0  0  0  0
  5  9  1  0  0  0  0
  5 10  1  0  0  0  0
  5 15  1  0  0  0  0
  6 18  2  0  0  0  0
  7 19  2  0  0  0  0
  8 33  1  0  0  0  0
  9 20  2  0  0  0  0
  9 22  1  0  0  0  0
 10 21  2  0  0  0  0
 10 23  1  0  0  0  0
 11 13  1  0  0  0  0
 11 16  2  0  0  0  0
 11 18  1  0  0  0  0
 12 14  1  0  0  0  0
 12 17  2  0  0  0  0
 12 19  1  0  0  0  0
 13 24  2  0  0  0  0
 13 26  1  0  0  0  0
 14 25  2  0  0  0  0
 14 27  1  0  0  0  0
 15 28  1  0  0  0  0
 16 29  1  0  0  0  0
 17 30  1  0  0  0  0
 18 31  1  0  0  0  0
 19 32  1  0  0  0  0
 20 24  1  0  0  0  0
 21 25  1  0  0  0  0
 22 26  2  0  0  0  0
 23 27  2  0  0  0  0
 28 33  1  0  0  0  0
M  END
> <PUBCHEM_COMPOUND_ID_TYPE>
0

> <PUBCHEM_TOTAL_CHARGE>
0

> <PUBCHEM_SUBSTANCE_ID>
310934515

> <PUBCHEM_SUBSTANCE_VERSION>
1

> <PUBCHEM_EXT_DATASOURCE_NAME>
4488

> <PUBCHEM_EXT_DATASOURCE_REGID>
SCHEMBL16112000

> <PUBCHEM_SUBSTANCE_COMMENT>
InChI=1S/C25H24N4O4/c1-14-24(16(3)32-27-14)18-5-9-20(10-6-18)29(23(31)13-22(26)30)21-11-7-19(8-12-21)25-15(2)28-33-17(25)4/h5-12H,13H2,1-4H3,(H2,26,30)
InChIKey=CAVBHZVZNRYQNF-UHFFFAOYSA-N

> <PUBCHEM_SUBSTANCE_SYNONYM>
SCHEMBL16112000

> <PUBCHEM_XREF_EXT_ID>
SCHEMBL16112000

> <PUBCHEM_EXT_DATASOURCE_URL>
https://www.surechembl.org/

> <PUBCHEM_EXT_SUBSTANCE_URL>
https://www.surechembl.org/chemical/SCHEMBL16112000

> <PUBCHEM_CID_ASSOCIATIONS>
117602713  1

> <PUBCHEM_COORDINATE_TYPE>
1
3

$$$$
