310946610
  -OEChem-07211613022D

 19 18  0     0  0  0  0  0  0999 V2000
   -6.3117    7.4058    0.0000 O   0  0  0  0  0  0  0  0  0  0  0  0
  -10.5986    4.9308    0.0000 O   0  0  0  0  0  0  0  0  0  0  0  0
   -9.1696    8.2308    0.0000 O   0  0  0  0  0  0  0  0  0  0  0  0
   -7.0262    6.1683    0.0000 O   0  0  0  0  0  0  0  0  0  0  0  0
   -9.8841    3.6933    0.0000 O   0  5  0  0  0  0  0  0  0  0  0  0
   -9.1696    4.9308    0.0000 O   0  0  0  0  0  0  0  0  0  0  0  0
   -8.4551    6.9933    0.0000 N   0  0  0  0  0  0  0  0  0  0  0  0
   -9.8841    4.5183    0.0000 N   0  3  0  0  0  0  0  0  0  0  0  0
   -9.1696    7.4058    0.0000 C   0  0  0  0  0  0  0  0  0  0  0  0
   -7.0262    6.9933    0.0000 C   0  0  0  0  0  0  0  0  0  0  0  0
   -7.7407    7.4058    0.0000 C   0  0  0  0  0  0  0  0  0  0  0  0
   -9.8841    6.9933    0.0000 C   0  0  0  0  0  0  0  0  0  0  0  0
   -9.8841    6.1683    0.0000 C   0  0  0  0  0  0  0  0  0  0  0  0
  -10.5986    5.7558    0.0000 C   0  0  0  0  0  0  0  0  0  0  0  0
   -5.5973    6.9933    0.0000 C   0  0  0  0  0  0  0  0  0  0  0  0
   -4.8828    7.4058    0.0000 C   0  0  0  0  0  0  0  0  0  0  0  0
   -4.1683    6.9933    0.0000 C   0  0  0  0  0  0  0  0  0  0  0  0
   -3.4539    7.4058    0.0000 C   0  0  0  0  0  0  0  0  0  0  0  0
   -2.7394    6.9933    0.0000 C   0  0  0  0  0  0  0  0  0  0  0  0
  1 10  1  0  0  0  0
  1 15  1  0  0  0  0
  2  8  1  0  0  0  0
  2 14  1  0  0  0  0
  3  9  2  0  0  0  0
  4 10  2  0  0  0  0
  5  8  1  0  0  0  0
  6  8  2  0  0  0  0
  7  9  1  0  0  0  0
  7 11  1  0  0  0  0
  9 12  1  0  0  0  0
 10 11  1  0  0  0  0
 12 13  1  0  0  0  0
 13 14  1  0  0  0  0
 15 16  1  0  0  0  0
 16 17  1  0  0  0  0
 17 18  1  0  0  0  0
 18 19  1  0  0  0  0
M  CHG  2   5  -1   8   1
M  END
> <PUBCHEM_COMPOUND_ID_TYPE>
0

> <PUBCHEM_TOTAL_CHARGE>
0

> <PUBCHEM_SUBSTANCE_ID>
310946610

> <PUBCHEM_SUBSTANCE_VERSION>
1

> <PUBCHEM_EXT_DATASOURCE_NAME>
4488

> <PUBCHEM_EXT_DATASOURCE_REGID>
SCHEMBL16124731

> <PUBCHEM_SUBSTANCE_COMMENT>
InChI=1S/C11H20N2O6/c1-2-3-4-7-18-11(15)9-12-10(14)6-5-8-19-13(16)17/h2-9H2,1H3,(H,12,14)
InChIKey=RMLLZOMLQSPXBK-UHFFFAOYSA-N

> <PUBCHEM_SUBSTANCE_SYNONYM>
SCHEMBL16124731

> <PUBCHEM_XREF_EXT_ID>
SCHEMBL16124731

> <PUBCHEM_EXT_DATASOURCE_URL>
https://www.surechembl.org/

> <PUBCHEM_EXT_SUBSTANCE_URL>
https://www.surechembl.org/chemical/SCHEMBL16124731

> <PUBCHEM_CID_ASSOCIATIONS>
117612510  1

> <PUBCHEM_COORDINATE_TYPE>
1
3

$$$$
