310935351
  -OEChem-07211613022D

 37 42  0     0  0  0  0  0  0999 V2000
    3.3565   -4.1636    0.0000 F   0  0  0  0  0  0  0  0  0  0  0  0
    0.8860   -1.2195    0.0000 O   0  0  0  0  0  0  0  0  0  0  0  0
   -1.4289    3.3000    0.0000 O   0  0  0  0  0  0  0  0  0  0  0  0
    3.4010   -0.9936    0.0000 O   0  0  0  0  0  0  0  0  0  0  0  0
   -0.7145    4.5375    0.0000 N   0  0  0  0  0  0  0  0  0  0  0  0
    3.1039    0.4041    0.0000 N   0  0  0  0  0  0  0  0  0  0  0  0
   -2.1434    1.2375    0.0000 N   0  0  0  0  0  0  0  0  0  0  0  0
   -1.4289    4.9500    0.0000 C   0  0  0  0  0  0  0  0  0  0  0  0
   -2.1175    4.7290    0.0000 C   0  0  0  0  0  0  0  0  0  0  0  0
   -0.9321    5.5224    0.0000 C   0  0  0  0  0  0  0  0  0  0  0  0
   -1.7132    4.1264    0.0000 C   0  0  0  0  0  0  0  0  0  0  0  0
   -2.2602    5.4946    0.0000 C   0  0  0  0  0  0  0  0  0  0  0  0
    1.4289    0.0000    0.0000 C   0  0  0  0  0  0  0  0  0  0  0  0
    2.0420   -0.5520    0.0000 C   0  0  0  0  0  0  0  0  0  0  0  0
    0.7145   -0.4125    0.0000 C   0  0  0  0  0  0  0  0  0  0  0  0
    1.7065   -1.3057    0.0000 C   0  0  0  0  0  0  0  0  0  0  0  0
    0.7145    1.2375    0.0000 C   0  0  0  0  0  0  0  0  0  0  0  0
    1.4289    0.8250    0.0000 C   0  0  0  0  0  0  0  0  0  0  0  0
    0.0000    0.8250    0.0000 C   0  0  0  0  0  0  0  0  0  0  0  0
   -0.7145    3.7125    0.0000 C   0  0  0  0  0  0  0  0  0  0  0  0
    0.0000    0.0000    0.0000 C   0  0  0  0  0  0  0  0  0  0  0  0
    0.7145    2.0625    0.0000 C   0  0  0  0  0  0  0  0  0  0  0  0
    2.1190   -2.0202    0.0000 C   0  0  0  0  0  0  0  0  0  0  0  0
    2.8490   -0.3805    0.0000 C   0  0  0  0  0  0  0  0  0  0  0  0
    0.0000    3.3000    0.0000 C   0  0  0  0  0  0  0  0  0  0  0  0
    0.0000    2.4750    0.0000 C   0  0  0  0  0  0  0  0  0  0  0  0
    1.4289    2.4750    0.0000 C   0  0  0  0  0  0  0  0  0  0  0  0
   -0.7145    1.2375    0.0000 C   0  0  0  0  0  0  0  0  0  0  0  0
    2.9440   -2.0202    0.0000 C   0  0  0  0  0  0  0  0  0  0  0  0
    1.7065   -2.7346    0.0000 C   0  0  0  0  0  0  0  0  0  0  0  0
    0.7145    3.7125    0.0000 C   0  0  0  0  0  0  0  0  0  0  0  0
    1.4289    3.3000    0.0000 C   0  0  0  0  0  0  0  0  0  0  0  0
    3.3565   -2.7346    0.0000 C   0  0  0  0  0  0  0  0  0  0  0  0
    2.1190   -3.4491    0.0000 C   0  0  0  0  0  0  0  0  0  0  0  0
    2.9440   -3.4491    0.0000 C   0  0  0  0  0  0  0  0  0  0  0  0
   -1.4289    0.8250    0.0000 C   0  0  0  0  0  0  0  0  0  0  0  0
    3.9109    0.5756    0.0000 C   0  0  0  0  0  0  0  0  0  0  0  0
  1 35  1  0  0  0  0
  2 15  1  0  0  0  0
  2 16  1  0  0  0  0
  3 20  2  0  0  0  0
  4 24  2  0  0  0  0
  5  8  1  0  0  0  0
  5 20  1  0  0  0  0
  6 24  1  0  0  0  0
  6 37  1  0  0  0  0
  7 36  1  0  0  0  0
  8 10  1  0  0  0  0
  8 11  1  0  0  0  0
  8 12  1  0  0  0  0
  9 10  1  0  0  0  0
  9 11  1  0  0  0  0
  9 12  1  0  0  0  0
 13 14  1  0  0  0  0
 13 15  1  0  0  0  0
 13 18  2  0  0  0  0
 14 16  2  0  0  0  0
 14 24  1  0  0  0  0
 15 21  2  0  0  0  0
 16 23  1  0  0  0  0
 17 18  1  0  0  0  0
 17 19  2  0  0  0  0
 17 22  1  0  0  0  0
 19 21  1  0  0  0  0
 19 28  1  0  0  0  0
 20 25  1  0  0  0  0
 22 26  2  0  0  0  0
 22 27  1  0  0  0  0
 23 29  2  0  0  0  0
 23 30  1  0  0  0  0
 25 26  1  0  0  0  0
 25 31  2  0  0  0  0
 27 32  2  0  0  0  0
 28 36  1  0  0  0  0
 29 33  1  0  0  0  0
 30 34  2  0  0  0  0
 31 32  1  0  0  0  0
 33 35  2  0  0  0  0
 34 35  1  0  0  0  0
M  END
> <PUBCHEM_COMPOUND_ID_TYPE>
0

> <PUBCHEM_TOTAL_CHARGE>
0

> <PUBCHEM_SUBSTANCE_ID>
310935351

> <PUBCHEM_SUBSTANCE_VERSION>
1

> <PUBCHEM_EXT_DATASOURCE_NAME>
4488

> <PUBCHEM_EXT_DATASOURCE_REGID>
SCHEMBL16112889

> <PUBCHEM_SUBSTANCE_COMMENT>
InChI=1S/C30H28FN3O3/c1-33-29(36)26-24-13-23(19-3-2-4-21(11-19)28(35)34-30-14-17(15-30)16-30)20(9-10-32)12-25(24)37-27(26)18-5-7-22(31)8-6-18/h2-8,11-13,17H,9-10,14-16,32H2,1H3,(H,33,36)(H,34,35)
InChIKey=NXTJZCWVGNCGRH-UHFFFAOYSA-N

> <PUBCHEM_SUBSTANCE_SYNONYM>
SCHEMBL16112889

> <PUBCHEM_XREF_EXT_ID>
SCHEMBL16112889

> <PUBCHEM_EXT_DATASOURCE_URL>
https://www.surechembl.org/

> <PUBCHEM_EXT_SUBSTANCE_URL>
https://www.surechembl.org/chemical/SCHEMBL16112889

> <PUBCHEM_CID_ASSOCIATIONS>
117603407  1

> <PUBCHEM_COORDINATE_TYPE>
1
3

$$$$
