310940477
  -OEChem-07211613022D

 14 15  0     0  0  0  0  0  0999 V2000
    1.8882   -0.1409    0.0000 O   0  0  0  0  0  0  0  0  0  0  0  0
    0.5730    0.2724    0.0000 N   0  0  0  0  0  0  0  0  0  0  0  0
   -0.8361   -1.4561    0.0000 N   0  0  0  0  0  0  0  0  0  0  0  0
   -1.6816   -1.3246    0.0000 N   0  0  0  0  0  0  0  0  0  0  0  0
   -1.0803   -0.1221    0.0000 C   0  0  0  0  0  0  0  0  0  0  0  0
   -0.4603   -0.7045    0.0000 C   0  0  0  0  0  0  0  0  0  0  0  0
   -1.7943   -0.5355    0.0000 C   0  0  0  0  0  0  0  0  0  0  0  0
    0.3288   -0.5167    0.0000 C   0  0  0  0  0  0  0  0  0  0  0  0
   -0.8361    0.6670    0.0000 C   0  0  0  0  0  0  0  0  0  0  0  0
   -0.0657    0.8548    0.0000 C   0  0  0  0  0  0  0  0  0  0  0  0
    1.3434    0.4979    0.0000 C   0  0  0  0  0  0  0  0  0  0  0  0
   -2.4706   -0.1409    0.0000 C   0  0  0  0  0  0  0  0  0  0  0  0
    1.6252    1.2682    0.0000 C   0  0  0  0  0  0  0  0  0  0  0  0
    2.4706    1.4561    0.0000 C   0  0  0  0  0  0  0  0  0  0  0  0
  1 11  2  0  0  0  0
  2  8  1  0  0  0  0
  2 10  1  0  0  0  0
  2 11  1  0  0  0  0
  3  4  1  0  0  0  0
  3  6  1  0  0  0  0
  4  7  2  0  0  0  0
  5  6  2  0  0  0  0
  5  7  1  0  0  0  0
  5  9  1  0  0  0  0
  6  8  1  0  0  0  0
  7 12  1  0  0  0  0
  9 10  1  0  0  0  0
 11 13  1  0  0  0  0
 13 14  1  0  0  0  0
M  END
> <PUBCHEM_COMPOUND_ID_TYPE>
0

> <PUBCHEM_TOTAL_CHARGE>
0

> <PUBCHEM_SUBSTANCE_ID>
310940477

> <PUBCHEM_SUBSTANCE_VERSION>
1

> <PUBCHEM_EXT_DATASOURCE_NAME>
4488

> <PUBCHEM_EXT_DATASOURCE_REGID>
SCHEMBL16118430

> <PUBCHEM_SUBSTANCE_COMMENT>
InChI=1S/C10H15N3O/c1-3-10(14)13-5-4-8-7(2)11-12-9(8)6-13/h3-6H2,1-2H3,(H,11,12)
InChIKey=FODHIXJYTRVTHH-UHFFFAOYSA-N

> <PUBCHEM_SUBSTANCE_SYNONYM>
SCHEMBL16118430

> <PUBCHEM_XREF_EXT_ID>
SCHEMBL16118430

> <PUBCHEM_EXT_DATASOURCE_URL>
https://www.surechembl.org/

> <PUBCHEM_EXT_SUBSTANCE_URL>
https://www.surechembl.org/chemical/SCHEMBL16118430

> <PUBCHEM_CID_ASSOCIATIONS>
117607494  1

> <PUBCHEM_COORDINATE_TYPE>
1
3

$$$$
