310944227
  -OEChem-07211613022D

 57 63  0     0  0  0  0  0  0999 V2000
   -3.2920   -2.2386    0.0000 F   0  0  0  0  0  0  0  0  0  0  0  0
    1.7997    3.9066    0.0000 F   0  0  0  0  0  0  0  0  0  0  0  0
    4.7625   -3.4676    0.0000 F   0  0  0  0  0  0  0  0  0  0  0  0
   -5.4648   -1.7997    0.0000 N   0  0  0  0  0  0  0  0  0  0  0  0
    5.4648   -5.5087    0.0000 N   0  0  0  0  0  0  0  0  0  0  0  0
    3.2481    5.5087    0.0000 N   0  0  0  0  0  0  0  0  0  0  0  0
   -3.3359    1.8436    0.0000 N   0  0  0  0  0  0  0  0  0  0  0  0
    1.1412   -5.5087    0.0000 N   0  0  0  0  0  0  0  0  0  0  0  0
    5.4429    1.8875    0.0000 N   0  0  0  0  0  0  0  0  0  0  0  0
    1.0534    0.2414    0.0000 C   0  0  0  0  0  0  0  0  0  0  0  0
    1.7997   -0.9876    0.0000 C   0  0  0  0  0  0  0  0  0  0  0  0
    0.3292   -0.9876    0.0000 C   0  0  0  0  0  0  0  0  0  0  0  0
   -0.3951   -1.3826    0.0000 C   0  0  0  0  0  0  0  0  0  0  0  0
    1.0754    1.0973    0.0000 C   0  0  0  0  0  0  0  0  0  0  0  0
    2.5458   -1.3826    0.0000 C   0  0  0  0  0  0  0  0  0  0  0  0
    1.7997   -0.1536    0.0000 C   0  0  0  0  0  0  0  0  0  0  0  0
    0.3731   -0.1756    0.0000 C   0  0  0  0  0  0  0  0  0  0  0  0
    1.0973   -1.3826    0.0000 C   0  0  0  0  0  0  0  0  0  0  0  0
   -1.8655   -1.3826    0.0000 C   0  0  0  0  0  0  0  0  0  0  0  0
    1.7997    2.3045    0.0000 C   0  0  0  0  0  0  0  0  0  0  0  0
    3.2920   -2.6117    0.0000 C   0  0  0  0  0  0  0  0  0  0  0  0
   -2.6117   -0.9656    0.0000 C   0  0  0  0  0  0  0  0  0  0  0  0
    2.5239    2.6994    0.0000 C   0  0  0  0  0  0  0  0  0  0  0  0
    3.2920   -3.4457    0.0000 C   0  0  0  0  0  0  0  0  0  0  0  0
   -1.1412   -1.0095    0.0000 C   0  0  0  0  0  0  0  0  0  0  0  0
    1.7777    1.4704    0.0000 C   0  0  0  0  0  0  0  0  0  0  0  0
    2.5678   -2.2386    0.0000 C   0  0  0  0  0  0  0  0  0  0  0  0
   -3.3140   -1.3607    0.0000 C   0  0  0  0  0  0  0  0  0  0  0  0
    2.5239    3.5115    0.0000 C   0  0  0  0  0  0  0  0  0  0  0  0
    4.0163   -3.8627    0.0000 C   0  0  0  0  0  0  0  0  0  0  0  0
    0.3512    1.4924    0.0000 C   0  0  0  0  0  0  0  0  0  0  0  0
   -0.3951   -2.2167    0.0000 C   0  0  0  0  0  0  0  0  0  0  0  0
    3.2920   -1.0095    0.0000 C   0  0  0  0  0  0  0  0  0  0  0  0
    3.2481    3.9285    0.0000 C   0  0  0  0  0  0  0  0  0  0  0  0
    3.9944   -4.6747    0.0000 C   0  0  0  0  0  0  0  0  0  0  0  0
   -4.0383   -0.9876    0.0000 C   0  0  0  0  0  0  0  0  0  0  0  0
   -2.6117   -0.1536    0.0000 C   0  0  0  0  0  0  0  0  0  0  0  0
    3.2920    2.3045    0.0000 C   0  0  0  0  0  0  0  0  0  0  0  0
    2.5897   -3.8846    0.0000 C   0  0  0  0  0  0  0  0  0  0  0  0
    1.0973    2.6775    0.0000 C   0  0  0  0  0  0  0  0  0  0  0  0
   -1.8436   -2.2167    0.0000 C   0  0  0  0  0  0  0  0  0  0  0  0
    3.9944   -2.2386    0.0000 C   0  0  0  0  0  0  0  0  0  0  0  0
   -3.3359    0.2414    0.0000 C   0  0  0  0  0  0  0  0  0  0  0  0
    3.9724    2.7214    0.0000 C   0  0  0  0  0  0  0  0  0  0  0  0
    2.5458   -4.6747    0.0000 C   0  0  0  0  0  0  0  0  0  0  0  0
    0.3512    2.2825    0.0000 C   0  0  0  0  0  0  0  0  0  0  0  0
   -1.1412   -2.6117    0.0000 C   0  0  0  0  0  0  0  0  0  0  0  0
    3.9944   -1.4046    0.0000 C   0  0  0  0  0  0  0  0  0  0  0  0
    3.9944    3.5115    0.0000 C   0  0  0  0  0  0  0  0  0  0  0  0
    3.2920   -5.0698    0.0000 C   0  0  0  0  0  0  0  0  0  0  0  0
   -4.0383   -0.1536    0.0000 C   0  0  0  0  0  0  0  0  0  0  0  0
    3.2481    4.7405    0.0000 C   0  0  0  0  0  0  0  0  0  0  0  0
    4.7625   -5.1137    0.0000 C   0  0  0  0  0  0  0  0  0  0  0  0
   -4.7844   -1.4046    0.0000 C   0  0  0  0  0  0  0  0  0  0  0  0
    4.7405    2.2825    0.0000 C   0  0  0  0  0  0  0  0  0  0  0  0
    1.8216   -5.1137    0.0000 C   0  0  0  0  0  0  0  0  0  0  0  0
   -3.3359    1.0534    0.0000 C   0  0  0  0  0  0  0  0  0  0  0  0
  1 28  1  0  0  0  0
  2 29  1  0  0  0  0
  3 30  1  0  0  0  0
  4 54  3  0  0  0  0
  5 53  3  0  0  0  0
  6 52  3  0  0  0  0
  7 57  3  0  0  0  0
  8 56  3  0  0  0  0
  9 55  3  0  0  0  0
 10 14  1  0  0  0  0
 10 16  2  0  0  0  0
 10 17  1  0  0  0  0
 11 15  1  0  0  0  0
 11 16  1  0  0  0  0
 11 18  2  0  0  0  0
 12 13  1  0  0  0  0
 12 17  2  0  0  0  0
 12 18  1  0  0  0  0
 13 25  2  0  0  0  0
 13 32  1  0  0  0  0
 14 26  2  0  0  0  0
 14 31  1  0  0  0  0
 15 27  2  0  0  0  0
 15 33  1  0  0  0  0
 19 22  1  0  0  0  0
 19 25  1  0  0  0  0
 19 41  2  0  0  0  0
 20 23  1  0  0  0  0
 20 26  1  0  0  0  0
 20 40  2  0  0  0  0
 21 24  1  0  0  0  0
 21 27  1  0  0  0  0
 21 42  2  0  0  0  0
 22 28  1  0  0  0  0
 22 37  2  0  0  0  0
 23 29  1  0  0  0  0
 23 38  2  0  0  0  0
 24 30  1  0  0  0  0
 24 39  2  0  0  0  0
 28 36  2  0  0  0  0
 29 34  2  0  0  0  0
 30 35  2  0  0  0  0
 31 46  2  0  0  0  0
 32 47  2  0  0  0  0
 33 48  2  0  0  0  0
 34 49  1  0  0  0  0
 34 52  1  0  0  0  0
 35 50  1  0  0  0  0
 35 53  1  0  0  0  0
 36 51  1  0  0  0  0
 36 54  1  0  0  0  0
 37 43  1  0  0  0  0
 38 44  1  0  0  0  0
 39 45  1  0  0  0  0
 40 46  1  0  0  0  0
 41 47  1  0  0  0  0
 42 48  1  0  0  0  0
 43 51  2  0  0  0  0
 43 57  1  0  0  0  0
 44 49  2  0  0  0  0
 44 55  1  0  0  0  0
 45 50  2  0  0  0  0
 45 56  1  0  0  0  0
M  END
> <PUBCHEM_COMPOUND_ID_TYPE>
0

> <PUBCHEM_TOTAL_CHARGE>
0

> <PUBCHEM_SUBSTANCE_ID>
310944227

> <PUBCHEM_SUBSTANCE_VERSION>
1

> <PUBCHEM_EXT_DATASOURCE_NAME>
4488

> <PUBCHEM_EXT_DATASOURCE_REGID>
SCHEMBL16122302

> <PUBCHEM_SUBSTANCE_COMMENT>
InChI=1S/C48H21F3N6/c49-46-40(25-55)10-28(22-52)13-43(46)34-7-1-4-31(16-34)37-19-38(32-5-2-8-35(17-32)44-14-29(23-53)11-41(26-56)47(44)50)21-39(20-37)33-6-3-9-36(18-33)45-15-30(24-54)12-42(27-57)48(45)51/h1-21H
InChIKey=OSQIBRXKMRECDF-UHFFFAOYSA-N

> <PUBCHEM_SUBSTANCE_SYNONYM>
SCHEMBL16122302

> <PUBCHEM_XREF_EXT_ID>
SCHEMBL16122302

> <PUBCHEM_EXT_DATASOURCE_URL>
https://www.surechembl.org/

> <PUBCHEM_EXT_SUBSTANCE_URL>
https://www.surechembl.org/chemical/SCHEMBL16122302

> <PUBCHEM_CID_ASSOCIATIONS>
117610498  1

> <PUBCHEM_COORDINATE_TYPE>
1
3

$$$$
