310949216
  -OEChem-07211613022D

 95110  0     0  0  0  0  0  0999 V2000
    1.4654   -0.7641    0.0000 N   0  0  0  0  0  0  0  0  0  0  0  0
   -1.4294   -0.7641    0.0000 N   0  0  0  0  0  0  0  0  0  0  0  0
    0.0090    1.7351    0.0000 N   0  0  0  0  0  0  0  0  0  0  0  0
   -0.0269   -2.3823    0.0000 N   0  0  0  0  0  0  0  0  0  0  0  0
   -2.1486    1.2316    0.0000 N   0  0  0  0  0  0  0  0  0  0  0  0
    2.1666    1.2676    0.0000 N   0  0  0  0  0  0  0  0  0  0  0  0
    0.6923   -0.3146    0.0000 C   0  0  0  0  0  0  0  0  0  0  0  0
   -0.7461   -0.3146    0.0000 C   0  0  0  0  0  0  0  0  0  0  0  0
   -0.0090    0.9260    0.0000 C   0  0  0  0  0  0  0  0  0  0  0  0
    0.0269   -0.7282    0.0000 C   0  0  0  0  0  0  0  0  0  0  0  0
    0.7282    0.5124    0.0000 C   0  0  0  0  0  0  0  0  0  0  0  0
   -0.7102    0.5124    0.0000 C   0  0  0  0  0  0  0  0  0  0  0  0
    2.1846   -0.4225    0.0000 C   0  0  0  0  0  0  0  0  0  0  0  0
    1.5373   -1.5553    0.0000 C   0  0  0  0  0  0  0  0  0  0  0  0
   -2.2206   -0.4045    0.0000 C   0  0  0  0  0  0  0  0  0  0  0  0
   -1.5373   -1.5553    0.0000 C   0  0  0  0  0  0  0  0  0  0  0  0
   -0.6923    2.2385    0.0000 C   0  0  0  0  0  0  0  0  0  0  0  0
    0.6563    2.2565    0.0000 C   0  0  0  0  0  0  0  0  0  0  0  0
    2.7598   -1.0159    0.0000 C   0  0  0  0  0  0  0  0  0  0  0  0
    2.3284   -1.7530    0.0000 C   0  0  0  0  0  0  0  0  0  0  0  0
   -2.7419   -0.9978    0.0000 C   0  0  0  0  0  0  0  0  0  0  0  0
   -2.3464   -1.7171    0.0000 C   0  0  0  0  0  0  0  0  0  0  0  0
   -0.4406    3.0117    0.0000 C   0  0  0  0  0  0  0  0  0  0  0  0
    0.4045    3.0297    0.0000 C   0  0  0  0  0  0  0  0  0  0  0  0
   -0.0090   -1.5732    0.0000 C   0  0  0  0  0  0  0  0  0  0  0  0
   -1.4474    0.8900    0.0000 C   0  0  0  0  0  0  0  0  0  0  0  0
    1.4474    0.9080    0.0000 C   0  0  0  0  0  0  0  0  0  0  0  0
    2.4543    0.3685    0.0000 C   0  0  0  0  0  0  0  0  0  0  0  0
    1.0338   -2.1486    0.0000 C   0  0  0  0  0  0  0  0  0  0  0  0
   -2.4543    0.3685    0.0000 C   0  0  0  0  0  0  0  0  0  0  0  0
   -0.9619   -2.1666    0.0000 C   0  0  0  0  0  0  0  0  0  0  0  0
    3.4971   -0.8540    0.0000 C   0  0  0  0  0  0  0  0  0  0  0  0
    2.5801   -2.5261    0.0000 C   0  0  0  0  0  0  0  0  0  0  0  0
   -3.5510   -0.8181    0.0000 C   0  0  0  0  0  0  0  0  0  0  0  0
   -2.5801   -2.5082    0.0000 C   0  0  0  0  0  0  0  0  0  0  0  0
   -1.4834    2.0767    0.0000 C   0  0  0  0  0  0  0  0  0  0  0  0
    1.4834    2.0767    0.0000 C   0  0  0  0  0  0  0  0  0  0  0  0
   -0.9260    3.5869    0.0000 C   0  0  0  0  0  0  0  0  0  0  0  0
    0.9978    3.6229    0.0000 C   0  0  0  0  0  0  0  0  0  0  0  0
    3.7308   -0.0629    0.0000 C   0  0  0  0  0  0  0  0  0  0  0  0
    2.0227   -3.1375    0.0000 C   0  0  0  0  0  0  0  0  0  0  0  0
   -3.8568   -0.0809    0.0000 C   0  0  0  0  0  0  0  0  0  0  0  0
   -2.0586   -3.1195    0.0000 C   0  0  0  0  0  0  0  0  0  0  0  0
   -1.7890    3.4611    0.0000 C   0  0  0  0  0  0  0  0  0  0  0  0
    1.7530    3.4611    0.0000 C   0  0  0  0  0  0  0  0  0  0  0  0
    3.2274    0.5304    0.0000 C   0  0  0  0  0  0  0  0  0  0  0  0
    1.2676   -2.9576    0.0000 C   0  0  0  0  0  0  0  0  0  0  0  0
   -3.2634    0.5304    0.0000 C   0  0  0  0  0  0  0  0  0  0  0  0
   -1.2316   -2.9397    0.0000 C   0  0  0  0  0  0  0  0  0  0  0  0
   -2.0406    2.6520    0.0000 C   0  0  0  0  0  0  0  0  0  0  0  0
    2.0047    2.6520    0.0000 C   0  0  0  0  0  0  0  0  0  0  0  0
    4.5759    0.1169    0.0000 C   0  0  0  0  0  0  0  0  0  0  0  0
    2.2924   -3.9106    0.0000 C   0  0  0  0  0  0  0  0  0  0  0  0
   -4.6837    0.1169    0.0000 C   0  0  0  0  0  0  0  0  0  0  0  0
   -2.3105   -3.9286    0.0000 C   0  0  0  0  0  0  0  0  0  0  0  0
   -2.3464    4.0725    0.0000 C   0  0  0  0  0  0  0  0  0  0  0  0
    2.3105    4.0905    0.0000 C   0  0  0  0  0  0  0  0  0  0  0  0
    5.1513   -0.5124    0.0000 C   0  0  0  0  0  0  0  0  0  0  0  0
    1.7530   -4.5219    0.0000 C   0  0  0  0  0  0  0  0  0  0  0  0
    4.8636    0.8900    0.0000 C   0  0  0  0  0  0  0  0  0  0  0  0
    3.1015   -4.0725    0.0000 C   0  0  0  0  0  0  0  0  0  0  0  0
   -4.9176    0.8900    0.0000 C   0  0  0  0  0  0  0  0  0  0  0  0
   -3.1015   -4.0725    0.0000 C   0  0  0  0  0  0  0  0  0  0  0  0
   -5.2231   -0.5124    0.0000 C   0  0  0  0  0  0  0  0  0  0  0  0
   -1.7351   -4.5219    0.0000 C   0  0  0  0  0  0  0  0  0  0  0  0
   -2.0767    4.8636    0.0000 C   0  0  0  0  0  0  0  0  0  0  0  0
   -3.1555    3.9286    0.0000 C   0  0  0  0  0  0  0  0  0  0  0  0
    3.0836    3.9286    0.0000 C   0  0  0  0  0  0  0  0  0  0  0  0
    2.0767    4.8636    0.0000 C   0  0  0  0  0  0  0  0  0  0  0  0
    5.9603   -0.3506    0.0000 C   0  0  0  0  0  0  0  0  0  0  0  0
    2.0047   -5.3310    0.0000 C   0  0  0  0  0  0  0  0  0  0  0  0
    5.6906    1.0338    0.0000 C   0  0  0  0  0  0  0  0  0  0  0  0
    3.3173   -4.8636    0.0000 C   0  0  0  0  0  0  0  0  0  0  0  0
   -5.7266    1.0698    0.0000 C   0  0  0  0  0  0  0  0  0  0  0  0
   -3.3892   -4.8636    0.0000 C   0  0  0  0  0  0  0  0  0  0  0  0
   -6.0143   -0.3146    0.0000 C   0  0  0  0  0  0  0  0  0  0  0  0
   -2.0047   -5.3310    0.0000 C   0  0  0  0  0  0  0  0  0  0  0  0
    6.2659    0.4406    0.0000 C   0  0  0  0  0  0  0  0  0  0  0  0
    2.8138   -5.4748    0.0000 C   0  0  0  0  0  0  0  0  0  0  0  0
   -6.2659    0.4585    0.0000 C   0  0  0  0  0  0  0  0  0  0  0  0
   -2.8498   -5.4748    0.0000 C   0  0  0  0  0  0  0  0  0  0  0  0
    4.9355   -1.2856    0.0000 C   0  0  0  0  0  0  0  0  0  0  0  0
    0.9260   -4.3781    0.0000 C   0  0  0  0  0  0  0  0  0  0  0  0
    4.2702    1.4834    0.0000 C   0  0  0  0  0  0  0  0  0  0  0  0
    3.6229   -3.4611    0.0000 C   0  0  0  0  0  0  0  0  0  0  0  0
   -4.3601    1.5193    0.0000 C   0  0  0  0  0  0  0  0  0  0  0  0
   -3.6948   -3.4971    0.0000 C   0  0  0  0  0  0  0  0  0  0  0  0
   -4.9355   -1.2856    0.0000 C   0  0  0  0  0  0  0  0  0  0  0  0
   -0.9080   -4.3601    0.0000 C   0  0  0  0  0  0  0  0  0  0  0  0
   -2.6340    5.4748    0.0000 C   0  0  0  0  0  0  0  0  0  0  0  0
   -3.7128    4.5039    0.0000 C   0  0  0  0  0  0  0  0  0  0  0  0
    3.6229    4.5039    0.0000 C   0  0  0  0  0  0  0  0  0  0  0  0
    2.6160    5.4568    0.0000 C   0  0  0  0  0  0  0  0  0  0  0  0
   -3.4252    5.3130    0.0000 C   0  0  0  0  0  0  0  0  0  0  0  0
    3.3712    5.3130    0.0000 C   0  0  0  0  0  0  0  0  0  0  0  0
  1  7  1  0  0  0  0
  1 13  1  0  0  0  0
  1 14  1  0  0  0  0
  2  8  1  0  0  0  0
  2 15  1  0  0  0  0
  2 16  1  0  0  0  0
  3  9  1  0  0  0  0
  3 17  1  0  0  0  0
  3 18  1  0  0  0  0
  4 25  3  0  0  0  0
  5 26  3  0  0  0  0
  6 27  3  0  0  0  0
  7 10  2  0  0  0  0
  7 11  1  0  0  0  0
  8 10  1  0  0  0  0
  8 12  2  0  0  0  0
  9 11  2  0  0  0  0
  9 12  1  0  0  0  0
 10 25  1  0  0  0  0
 11 27  1  0  0  0  0
 12 26  1  0  0  0  0
 13 19  2  0  0  0  0
 13 28  1  0  0  0  0
 14 20  2  0  0  0  0
 14 29  1  0  0  0  0
 15 21  2  0  0  0  0
 15 30  1  0  0  0  0
 16 22  2  0  0  0  0
 16 31  1  0  0  0  0
 17 23  2  0  0  0  0
 17 36  1  0  0  0  0
 18 24  2  0  0  0  0
 18 37  1  0  0  0  0
 19 20  1  0  0  0  0
 19 32  1  0  0  0  0
 20 33  1  0  0  0  0
 21 22  1  0  0  0  0
 21 34  1  0  0  0  0
 22 35  1  0  0  0  0
 23 24  1  0  0  0  0
 23 38  1  0  0  0  0
 24 39  1  0  0  0  0
 28 46  2  0  0  0  0
 29 47  2  0  0  0  0
 30 48  2  0  0  0  0
 31 49  2  0  0  0  0
 32 40  2  0  0  0  0
 33 41  2  0  0  0  0
 34 42  2  0  0  0  0
 35 43  2  0  0  0  0
 36 50  2  0  0  0  0
 37 51  2  0  0  0  0
 38 44  2  0  0  0  0
 39 45  2  0  0  0  0
 40 46  1  0  0  0  0
 40 52  1  0  0  0  0
 41 47  1  0  0  0  0
 41 53  1  0  0  0  0
 42 48  1  0  0  0  0
 42 54  1  0  0  0  0
 43 49  1  0  0  0  0
 43 55  1  0  0  0  0
 44 50  1  0  0  0  0
 44 56  1  0  0  0  0
 45 51  1  0  0  0  0
 45 57  1  0  0  0  0
 52 58  2  0  0  0  0
 52 60  1  0  0  0  0
 53 59  2  0  0  0  0
 53 61  1  0  0  0  0
 54 62  2  0  0  0  0
 54 64  1  0  0  0  0
 55 63  2  0  0  0  0
 55 65  1  0  0  0  0
 56 66  2  0  0  0  0
 56 67  1  0  0  0  0
 57 68  2  0  0  0  0
 57 69  1  0  0  0  0
 58 70  1  0  0  0  0
 58 82  1  0  0  0  0
 59 71  1  0  0  0  0
 59 83  1  0  0  0  0
 60 72  2  0  0  0  0
 60 84  1  0  0  0  0
 61 73  2  0  0  0  0
 61 85  1  0  0  0  0
 62 74  1  0  0  0  0
 62 86  1  0  0  0  0
 63 75  1  0  0  0  0
 63 87  1  0  0  0  0
 64 76  2  0  0  0  0
 64 88  1  0  0  0  0
 65 77  2  0  0  0  0
 65 89  1  0  0  0  0
 66 90  1  0  0  0  0
 67 91  2  0  0  0  0
 68 92  1  0  0  0  0
 69 93  2  0  0  0  0
 70 78  2  0  0  0  0
 71 79  2  0  0  0  0
 72 78  1  0  0  0  0
 73 79  1  0  0  0  0
 74 80  2  0  0  0  0
 75 81  2  0  0  0  0
 76 80  1  0  0  0  0
 77 81  1  0  0  0  0
 90 94  2  0  0  0  0
 91 94  1  0  0  0  0
 92 95  1  0  0  0  0
 93 95  1  0  0  0  0
M  END
> <PUBCHEM_COMPOUND_ID_TYPE>
0

> <PUBCHEM_TOTAL_CHARGE>
0

> <PUBCHEM_SUBSTANCE_ID>
310949216

> <PUBCHEM_SUBSTANCE_VERSION>
1

> <PUBCHEM_EXT_DATASOURCE_NAME>
4488

> <PUBCHEM_EXT_DATASOURCE_REGID>
SCHEMBL16127406

> <PUBCHEM_SUBSTANCE_COMMENT>
InChI=1S/C89H66N6/c1-52-19-15-20-53(2)83(52)64-33-39-79-70(45-64)71-46-65(84-54(3)21-16-22-55(84)4)34-40-80(71)94(79)88-74(49-90)87(93-77-37-31-62(60-27-11-9-12-28-60)43-68(77)69-44-63(32-38-78(69)93)61-29-13-10-14-30-61)75(50-91)89(76(88)51-92)95-81-41-35-66(85-56(5)23-17-24-57(85)6)47-72(81)73-48-67(36-42-82(73)95)86-58(7)25-18-26-59(86)8/h9,11-13,15-48H,10,14H2,1-8H3
InChIKey=QXXWONORTOANKR-UHFFFAOYSA-N

> <PUBCHEM_SUBSTANCE_SYNONYM>
SCHEMBL16127406

> <PUBCHEM_XREF_EXT_ID>
SCHEMBL16127406

> <PUBCHEM_EXT_DATASOURCE_URL>
https://www.surechembl.org/

> <PUBCHEM_EXT_SUBSTANCE_URL>
https://www.surechembl.org/chemical/SCHEMBL16127406

> <PUBCHEM_CID_ASSOCIATIONS>
117614704  1

> <PUBCHEM_COORDINATE_TYPE>
1
3

$$$$
