310931501
  -OEChem-07211613022D

 50 54  0     1  0  0  0  0  0999 V2000
   17.8618    1.1734    0.0000 S   0  0  0  0  0  0  0  0  0  0  0  0
   19.2437    2.8958    0.0000 S   0  0  0  0  0  0  0  0  0  0  0  0
   17.8618   -0.4766    0.0000 F   0  0  0  0  0  0  0  0  0  0  0  0
   15.0039    1.1734    0.0000 F   0  0  0  0  0  0  0  0  0  0  0  0
   17.4493    1.8879    0.0000 O   0  0  0  0  0  0  0  0  0  0  0  0
   18.2743    0.4589    0.0000 O   0  0  0  0  0  0  0  0  0  0  0  0
   15.0039   -0.4766    0.0000 O   0  0  0  0  0  0  0  0  0  0  0  0
   20.7196    0.3484    0.0000 O   0  0  0  0  0  0  0  0  0  0  0  0
   22.1486    2.8234    0.0000 O   0  0  0  0  0  0  0  0  0  0  0  0
   10.7170   -0.4766    0.0000 O   0  0  0  0  0  0  0  0  0  0  0  0
   11.4316    0.7609    0.0000 O   0  0  0  0  0  0  0  0  0  0  0  0
   18.5762    1.5859    0.0000 N   0  0  0  0  0  0  0  0  0  0  0  0
   17.9088    2.8958    0.0000 N   0  0  0  0  0  0  0  0  0  0  0  0
   18.9887    3.6804    0.0000 N   0  0  0  0  0  0  0  0  0  0  0  0
   12.1460   -0.4766    0.0000 N   0  0  0  0  0  0  0  0  0  0  0  0
   17.1473    0.7609    0.0000 C   0  0  0  0  0  0  0  0  0  0  0  0
   17.1473   -0.0641    0.0000 C   0  0  0  0  0  0  0  0  0  0  0  0
   18.5762    2.4109    0.0000 C   0  0  0  0  0  0  0  0  0  0  0  0
   16.4328    1.1734    0.0000 C   0  0  0  0  0  0  0  0  0  0  0  0
   19.2907    1.1734    0.0000 C   0  0  0  0  0  0  0  0  0  0  0  0
   15.7184    0.7609    0.0000 C   0  0  0  0  0  0  0  0  0  0  0  0
   15.7184   -0.0641    0.0000 C   0  0  0  0  0  0  0  0  0  0  0  0
   16.4328   -0.4766    0.0000 C   0  0  0  0  0  0  0  0  0  0  0  0
   20.0052    1.5859    0.0000 C   0  0  0  0  0  0  0  0  0  0  0  0
   20.7196    1.1734    0.0000 C   0  0  0  0  0  0  0  0  0  0  0  0
   13.5750   -0.4766    0.0000 C   0  0  3  0  0  0  0  0  0  0  0  0
   13.5750   -1.3016    0.0000 C   0  0  3  0  0  0  0  0  0  0  0  0
   20.0052    2.4109    0.0000 C   0  0  0  0  0  0  0  0  0  0  0  0
   14.2894   -0.0641    0.0000 C   0  0  0  0  0  0  0  0  0  0  0  0
   18.1637    3.6804    0.0000 C   0  0  0  0  0  0  0  0  0  0  0  0
   21.4341    1.5859    0.0000 C   0  0  0  0  0  0  0  0  0  0  0  0
   14.2894   -1.7141    0.0000 C   0  0  0  0  0  0  0  0  0  0  0  0
   12.8605   -0.0641    0.0000 C   0  0  0  0  0  0  0  0  0  0  0  0
   21.4341    2.4109    0.0000 C   0  0  0  0  0  0  0  0  0  0  0  0
   20.7196    2.8234    0.0000 C   0  0  0  0  0  0  0  0  0  0  0  0
   12.8605   -1.7141    0.0000 C   0  0  0  0  0  0  0  0  0  0  0  0
   12.1460   -1.3016    0.0000 C   0  0  0  0  0  0  0  0  0  0  0  0
   11.4316   -0.0641    0.0000 C   0  0  0  0  0  0  0  0  0  0  0  0
   15.0039   -1.3016    0.0000 C   0  0  0  0  0  0  0  0  0  0  0  0
   14.2894   -2.5391    0.0000 C   0  0  0  0  0  0  0  0  0  0  0  0
   15.7184   -1.7141    0.0000 C   0  0  0  0  0  0  0  0  0  0  0  0
   15.0039   -2.9516    0.0000 C   0  0  0  0  0  0  0  0  0  0  0  0
   15.7184   -2.5391    0.0000 C   0  0  0  0  0  0  0  0  0  0  0  0
   10.0026   -0.0641    0.0000 C   0  0  0  0  0  0  0  0  0  0  0  0
   21.4341   -0.0641    0.0000 C   0  0  0  0  0  0  0  0  0  0  0  0
   22.8630    2.4109    0.0000 C   0  0  0  0  0  0  0  0  0  0  0  0
   16.4328   -2.9516    0.0000 C   0  0  0  0  0  0  0  0  0  0  0  0
   10.0026    0.7609    0.0000 C   0  0  0  0  0  0  0  0  0  0  0  0
    9.2881    0.3484    0.0000 C   0  0  0  0  0  0  0  0  0  0  0  0
    9.2881   -0.4766    0.0000 C   0  0  0  0  0  0  0  0  0  0  0  0
  1  5  2  0  0  0  0
  1  6  2  0  0  0  0
  1 12  1  0  0  0  0
  1 16  1  0  0  0  0
  2 14  1  0  0  0  0
  2 18  1  0  0  0  0
  3 17  1  0  0  0  0
  4 21  1  0  0  0  0
  7 22  1  0  0  0  0
  7 29  1  0  0  0  0
  8 25  1  0  0  0  0
  8 45  1  0  0  0  0
  9 34  1  0  0  0  0
  9 46  1  0  0  0  0
 10 38  1  0  0  0  0
 10 44  1  0  0  0  0
 11 38  2  0  0  0  0
 12 18  1  0  0  0  0
 12 20  1  0  0  0  0
 13 18  2  0  0  0  0
 13 30  1  0  0  0  0
 14 30  2  0  0  0  0
 15 33  1  0  0  0  0
 15 37  1  0  0  0  0
 15 38  1  0  0  0  0
 16 17  2  0  0  0  0
 16 19  1  0  0  0  0
 17 23  1  0  0  0  0
 19 21  2  0  0  0  0
 20 24  1  0  0  0  0
 21 22  1  0  0  0  0
 22 23  2  0  0  0  0
 24 25  1  0  0  0  0
 24 28  2  0  0  0  0
 25 31  2  0  0  0  0
 26 27  1  0  0  0  0
 26 29  1  6  0  0  0
 26 33  1  0  0  0  0
 27 32  1  0  0  0  0
 27 36  1  1  0  0  0
 28 35  1  0  0  0  0
 31 34  1  0  0  0  0
 32 39  2  0  0  0  0
 32 40  1  0  0  0  0
 34 35  2  0  0  0  0
 36 37  1  0  0  0  0
 39 41  1  0  0  0  0
 40 42  2  0  0  0  0
 41 43  2  0  0  0  0
 42 43  1  0  0  0  0
 43 47  1  0  0  0  0
 44 48  1  0  0  0  0
 44 49  1  0  0  0  0
 44 50  1  0  0  0  0
M  END
> <PUBCHEM_COMPOUND_ID_TYPE>
0

> <PUBCHEM_TOTAL_CHARGE>
0

> <PUBCHEM_SUBSTANCE_ID>
310931501

> <PUBCHEM_SUBSTANCE_VERSION>
1

> <PUBCHEM_EXT_DATASOURCE_NAME>
4488

> <PUBCHEM_EXT_DATASOURCE_REGID>
SCHEMBL16108827

> <PUBCHEM_SUBSTANCE_COMMENT>
InChI=1S/C35H40F2N4O7S2/c1-22-7-9-23(10-8-22)27-13-14-40(34(42)48-35(2,3)4)18-25(27)20-47-31-16-29(37)32(17-28(31)36)50(43,44)41(33-38-21-39-49-33)19-24-11-12-26(45-5)15-30(24)46-6/h7-12,15-17,21,25,27H,13-14,18-20H2,1-6H3/t25-,27-/m1/s1
InChIKey=LQOXIWKJEIYIHD-XNMGPUDCSA-N

> <PUBCHEM_SUBSTANCE_SYNONYM>
SCHEMBL16108827

> <PUBCHEM_XREF_EXT_ID>
SCHEMBL16108827

> <PUBCHEM_EXT_DATASOURCE_URL>
https://www.surechembl.org/

> <PUBCHEM_EXT_SUBSTANCE_URL>
https://www.surechembl.org/chemical/SCHEMBL16108827

> <PUBCHEM_CID_ASSOCIATIONS>
117600263  1

> <PUBCHEM_COORDINATE_TYPE>
1
3

> <PUBCHEM_BONDANNOTATIONS>
26  29  6
27  36  5

$$$$
