310942201
  -OEChem-07211613022D

 34 36  0     1  0  0  0  0  0999 V2000
    0.3605    1.4481    0.0000 Cl  0  0  0  0  0  0  0  0  0  0  0  0
   -1.0815   -1.0379    0.0000 F   0  0  0  0  0  0  0  0  0  0  0  0
    3.2319    1.4481    0.0000 F   0  0  0  0  0  0  0  0  0  0  0  0
    0.3480   -0.2175    0.0000 O   0  0  0  0  0  0  0  0  0  0  0  0
    3.2194   -1.0379    0.0000 O   0  0  0  0  0  0  0  0  0  0  0  0
    5.3699    1.0255    0.0000 O   0  0  0  0  0  0  0  0  0  0  0  0
   -4.6117    0.2175    0.0000 O   0  0  0  0  0  0  0  0  0  0  0  0
    3.9528    0.2051    0.0000 N   0  0  0  0  0  0  0  0  0  0  0  0
   -3.2194    0.2051    0.0000 N   0  0  0  0  0  0  0  0  0  0  0  0
   -5.3824    1.4357    0.0000 N   0  0  0  0  0  0  0  0  0  0  0  0
   -0.3729    0.2175    0.0000 C   0  0  0  0  0  0  0  0  0  0  0  0
   -1.0815   -0.2051    0.0000 C   0  0  0  0  0  0  0  0  0  0  0  0
   -1.7900    0.2051    0.0000 C   0  0  0  0  0  0  0  0  0  0  0  0
    2.4985    0.2175    0.0000 C   0  0  0  0  0  0  0  0  0  0  0  0
    1.0815    0.2051    0.0000 C   0  0  0  0  0  0  0  0  0  0  0  0
   -0.3605    1.0379    0.0000 C   0  0  0  0  0  0  0  0  0  0  0  0
   -2.5109   -0.2051    0.0000 C   0  0  3  0  0  0  0  0  0  0  0  0
    1.8024   -0.2051    0.0000 C   0  0  0  0  0  0  0  0  0  0  0  0
    3.2319   -0.1927    0.0000 C   0  0  0  0  0  0  0  0  0  0  0  0
    2.5109    1.0379    0.0000 C   0  0  0  0  0  0  0  0  0  0  0  0
   -1.7776    1.0379    0.0000 C   0  0  0  0  0  0  0  0  0  0  0  0
   -1.0815    1.4357    0.0000 C   0  0  0  0  0  0  0  0  0  0  0  0
    1.0939    1.0379    0.0000 C   0  0  0  0  0  0  0  0  0  0  0  0
    1.7900    1.4357    0.0000 C   0  0  0  0  0  0  0  0  0  0  0  0
   -2.4985   -1.0379    0.0000 C   0  0  0  0  0  0  0  0  0  0  0  0
    3.9528    1.0379    0.0000 C   0  0  0  0  0  0  0  0  0  0  0  0
    4.6738   -0.2051    0.0000 C   0  0  0  0  0  0  0  0  0  0  0  0
   -3.2319    1.0379    0.0000 C   0  0  3  0  0  0  0  0  0  0  0  0
    4.6613    1.4481    0.0000 C   0  0  0  0  0  0  0  0  0  0  0  0
    5.3824    0.2051    0.0000 C   0  0  0  0  0  0  0  0  0  0  0  0
   -3.9528    1.4481    0.0000 C   0  0  0  0  0  0  0  0  0  0  0  0
   -1.8024   -1.4481    0.0000 C   0  0  0  0  0  0  0  0  0  0  0  0
   -2.5109    1.4481    0.0000 C   0  0  0  0  0  0  0  0  0  0  0  0
   -4.6613    1.0255    0.0000 C   0  0  0  0  0  0  0  0  0  0  0  0
  1 16  1  0  0  0  0
  2 12  1  0  0  0  0
  3 20  1  0  0  0  0
  4 11  1  0  0  0  0
  4 15  1  0  0  0  0
  5 19  2  0  0  0  0
  6 29  1  0  0  0  0
  6 30  1  0  0  0  0
  7 34  2  0  0  0  0
  8 19  1  0  0  0  0
  8 26  1  0  0  0  0
  8 27  1  0  0  0  0
 17  9  1  1  0  0  0
  9 28  1  0  0  0  0
 10 34  1  0  0  0  0
 11 12  2  0  0  0  0
 11 16  1  0  0  0  0
 12 13  1  0  0  0  0
 13 17  1  0  0  0  0
 13 21  2  0  0  0  0
 14 18  1  0  0  0  0
 14 19  1  0  0  0  0
 14 20  2  0  0  0  0
 15 18  2  0  0  0  0
 15 23  1  0  0  0  0
 16 22  2  0  0  0  0
 17 25  1  0  0  0  0
 20 24  1  0  0  0  0
 21 22  1  0  0  0  0
 23 24  2  0  0  0  0
 25 32  1  0  0  0  0
 26 29  1  0  0  0  0
 27 30  1  0  0  0  0
 28 31  1  0  0  0  0
 28 33  1  1  0  0  0
 31 34  1  0  0  0  0
M  END
> <PUBCHEM_COMPOUND_ID_TYPE>
0

> <PUBCHEM_TOTAL_CHARGE>
0

> <PUBCHEM_SUBSTANCE_ID>
310942201

> <PUBCHEM_SUBSTANCE_VERSION>
1

> <PUBCHEM_EXT_DATASOURCE_NAME>
4488

> <PUBCHEM_EXT_DATASOURCE_REGID>
SCHEMBL16120236

> <PUBCHEM_SUBSTANCE_COMMENT>
InChI=1S/C24H28ClF2N3O4/c1-3-20(29-14(2)12-21(28)31)16-5-6-18(25)23(22(16)27)34-15-4-7-19(26)17(13-15)24(32)30-8-10-33-11-9-30/h4-7,13-14,20,29H,3,8-12H2,1-2H3,(H2,28,31)/t14-,20-/m1/s1
InChIKey=YOOMSOKPGLPZEG-JLTOFOAXSA-N

> <PUBCHEM_SUBSTANCE_SYNONYM>
SCHEMBL16120236

> <PUBCHEM_XREF_EXT_ID>
SCHEMBL16120236

> <PUBCHEM_EXT_DATASOURCE_URL>
https://www.surechembl.org/

> <PUBCHEM_EXT_SUBSTANCE_URL>
https://www.surechembl.org/chemical/SCHEMBL16120236

> <PUBCHEM_CID_ASSOCIATIONS>
117608852  1

> <PUBCHEM_COORDINATE_TYPE>
1
3

> <PUBCHEM_BONDANNOTATIONS>
28  33  5
17  9  5

$$$$
