310945736
  -OEChem-07211613022D

 11 12  0     0  0  0  0  0  0999 V2000
   -1.6579    0.2716    0.0000 I   0  0  0  0  0  0  0  0  0  0  0  0
   -0.0656   -1.2645    0.0000 N   0  0  0  0  0  0  0  0  0  0  0  0
   -0.8711   -1.0772    0.0000 N   0  0  0  0  0  0  0  0  0  0  0  0
    0.7212    1.2645    0.0000 N   0  0  0  0  0  0  0  0  0  0  0  0
   -0.1967    0.0656    0.0000 C   0  0  0  0  0  0  0  0  0  0  0  0
    0.3465   -0.5527    0.0000 C   0  0  0  0  0  0  0  0  0  0  0  0
   -0.9460   -0.2716    0.0000 C   0  0  0  0  0  0  0  0  0  0  0  0
   -0.0094    0.8711    0.0000 C   0  0  0  0  0  0  0  0  0  0  0  0
    1.1896   -0.5152    0.0000 C   0  0  0  0  0  0  0  0  0  0  0  0
    1.6579    0.1780    0.0000 C   0  0  0  0  0  0  0  0  0  0  0  0
    1.4518    0.9460    0.0000 C   0  0  0  0  0  0  0  0  0  0  0  0
  1  7  1  0  0  0  0
  2  3  1  0  0  0  0
  2  6  1  0  0  0  0
  3  7  2  0  0  0  0
  4  8  1  0  0  0  0
  4 11  1  0  0  0  0
  5  6  2  0  0  0  0
  5  7  1  0  0  0  0
  5  8  1  0  0  0  0
  6  9  1  0  0  0  0
  9 10  1  0  0  0  0
 10 11  1  0  0  0  0
M  END
> <PUBCHEM_COMPOUND_ID_TYPE>
0

> <PUBCHEM_TOTAL_CHARGE>
0

> <PUBCHEM_SUBSTANCE_ID>
310945736

> <PUBCHEM_SUBSTANCE_VERSION>
1

> <PUBCHEM_EXT_DATASOURCE_NAME>
4488

> <PUBCHEM_EXT_DATASOURCE_REGID>
SCHEMBL16123840

> <PUBCHEM_SUBSTANCE_COMMENT>
InChI=1S/C7H10IN3/c8-7-5-4-9-3-1-2-6(5)10-11-7/h9H,1-4H2,(H,10,11)
InChIKey=GRRPPQFOVVZSOK-UHFFFAOYSA-N

> <PUBCHEM_SUBSTANCE_SYNONYM>
SCHEMBL16123840

> <PUBCHEM_XREF_EXT_ID>
SCHEMBL16123840

> <PUBCHEM_EXT_DATASOURCE_URL>
https://www.surechembl.org/

> <PUBCHEM_EXT_SUBSTANCE_URL>
https://www.surechembl.org/chemical/SCHEMBL16123840

> <PUBCHEM_CID_ASSOCIATIONS>
117611730  1

> <PUBCHEM_COORDINATE_TYPE>
1
3

$$$$
