310946899
  -OEChem-07211613022D

 21 23  0     0  0  0  0  0  0999 V2000
   -2.9147    1.7500    0.0000 Cl  0  0  0  0  0  0  0  0  0  0  0  0
   -0.8939    5.1057    0.0000 N   0  0  0  0  0  0  0  0  0  0  0  0
   -1.3788    4.4383    0.0000 N   0  0  0  0  0  0  0  0  0  0  0  0
    1.3197    4.0258    0.0000 N   0  0  0  0  0  0  0  0  0  0  0  0
    0.6052    2.7883    0.0000 N   0  0  0  0  0  0  0  0  0  0  0  0
   -0.5241    2.3906    0.0000 N   0  0  0  0  0  0  0  0  0  0  0  0
   -1.5345    1.3802    0.0000 N   0  0  0  0  0  0  0  0  0  0  0  0
   -0.1093    4.0258    0.0000 C   0  0  0  0  0  0  0  0  0  0  0  0
   -0.8939    3.7709    0.0000 C   0  0  0  0  0  0  0  0  0  0  0  0
   -0.1093    4.8508    0.0000 C   0  0  0  0  0  0  0  0  0  0  0  0
    0.6052    3.6133    0.0000 C   0  0  0  0  0  0  0  0  0  0  0  0
   -1.1074    2.9740    0.0000 C   0  0  0  0  0  0  0  0  0  0  0  0
    0.6052    5.2633    0.0000 C   0  0  0  0  0  0  0  0  0  0  0  0
   -1.9043    2.7604    0.0000 C   0  0  0  0  0  0  0  0  0  0  0  0
    1.3197    4.8508    0.0000 C   0  0  0  0  0  0  0  0  0  0  0  0
   -2.1178    1.9635    0.0000 C   0  0  0  0  0  0  0  0  0  0  0  0
   -1.3064    5.8202    0.0000 C   0  0  0  0  0  0  0  0  0  0  0  0
   -0.7376    1.5937    0.0000 C   0  0  0  0  0  0  0  0  0  0  0  0
    1.3197    2.3758    0.0000 C   0  0  0  0  0  0  0  0  0  0  0  0
    1.3197    1.5508    0.0000 C   0  0  0  0  0  0  0  0  0  0  0  0
    2.0341    2.7883    0.0000 C   0  0  0  0  0  0  0  0  0  0  0  0
  1 16  1  0  0  0  0
  2  3  1  0  0  0  0
  2 10  1  0  0  0  0
  2 17  1  0  0  0  0
  3  9  2  0  0  0  0
  4 11  2  0  0  0  0
  4 15  1  0  0  0  0
  5 11  1  0  0  0  0
  5 19  1  0  0  0  0
  6 12  1  0  0  0  0
  6 18  2  0  0  0  0
  7 16  2  0  0  0  0
  7 18  1  0  0  0  0
  8  9  1  0  0  0  0
  8 10  2  0  0  0  0
  8 11  1  0  0  0  0
  9 12  1  0  0  0  0
 10 13  1  0  0  0  0
 12 14  2  0  0  0  0
 13 15  2  0  0  0  0
 14 16  1  0  0  0  0
 19 20  1  0  0  0  0
 19 21  1  0  0  0  0
M  END
> <PUBCHEM_COMPOUND_ID_TYPE>
0

> <PUBCHEM_TOTAL_CHARGE>
0

> <PUBCHEM_SUBSTANCE_ID>
310946899

> <PUBCHEM_SUBSTANCE_VERSION>
1

> <PUBCHEM_EXT_DATASOURCE_NAME>
4488

> <PUBCHEM_EXT_DATASOURCE_REGID>
SCHEMBL16125023

> <PUBCHEM_SUBSTANCE_COMMENT>
InChI=1S/C14H15ClN6/c1-8(2)19-14-12-10(4-5-16-14)21(3)20-13(12)9-6-11(15)18-7-17-9/h4-8H,1-3H3,(H,16,19)
InChIKey=MIBDIWJPIPXXHT-UHFFFAOYSA-N

> <PUBCHEM_SUBSTANCE_SYNONYM>
SCHEMBL16125023

> <PUBCHEM_XREF_EXT_ID>
SCHEMBL16125023

> <PUBCHEM_EXT_DATASOURCE_URL>
https://www.surechembl.org/

> <PUBCHEM_EXT_SUBSTANCE_URL>
https://www.surechembl.org/chemical/SCHEMBL16125023

> <PUBCHEM_CID_ASSOCIATIONS>
117612757  1

> <PUBCHEM_COORDINATE_TYPE>
1
3

$$$$
