310935140
  -OEChem-07211613022D

 32 35  0     0  0  0  0  0  0999 V2000
    5.6099   -0.8800    0.0000 Br  0  0  0  0  0  0  0  0  0  0  0  0
    0.0000   -3.7399    0.0000 O   0  0  0  0  0  0  0  0  0  0  0  0
    1.4300   -8.5798    0.0000 O   0  0  0  0  0  0  0  0  0  0  0  0
    0.0000   -8.5798    0.0000 O   0  0  0  0  0  0  0  0  0  0  0  0
    3.4649   -0.8800    0.0000 N   0  0  0  0  0  0  0  0  0  0  0  0
    4.2349   -2.0900    0.0000 N   0  0  0  0  0  0  0  0  0  0  0  0
    3.6850   -0.1100    0.0000 N   0  0  0  0  0  0  0  0  0  0  0  0
    0.7150   -2.5300    0.0000 N   0  0  0  0  0  0  0  0  0  0  0  0
    0.7150   -7.3699    0.0000 N   0  0  0  0  0  0  0  0  0  0  0  0
    0.7150   -5.7199    0.0000 N   0  0  0  0  0  0  0  0  0  0  0  0
    4.2349   -1.3200    0.0000 C   0  0  0  0  0  0  0  0  0  0  0  0
    2.8050   -2.0900    0.0000 C   0  0  0  0  0  0  0  0  0  0  0  0
    4.7849   -0.7700    0.0000 C   0  0  0  0  0  0  0  0  0  0  0  0
    2.8050   -1.3200    0.0000 C   0  0  0  0  0  0  0  0  0  0  0  0
    2.0900   -2.4749    0.0000 C   0  0  0  0  0  0  0  0  0  0  0  0
    3.5199   -2.5300    0.0000 C   0  0  0  0  0  0  0  0  0  0  0  0
    4.4549    0.0000    0.0000 C   0  0  0  0  0  0  0  0  0  0  0  0
    1.4300   -2.0900    0.0000 C   0  0  0  0  0  0  0  0  0  0  0  0
    2.1450   -3.2999    0.0000 C   0  0  0  0  0  0  0  0  0  0  0  0
    0.7150   -3.2999    0.0000 C   0  0  0  0  0  0  0  0  0  0  0  0
    1.4300   -3.7399    0.0000 C   0  0  0  0  0  0  0  0  0  0  0  0
    0.7150   -8.1949    0.0000 C   0  0  0  0  0  0  0  0  0  0  0  0
    1.4300   -6.9849    0.0000 C   0  0  0  0  0  0  0  0  0  0  0  0
    0.0550   -6.9849    0.0000 C   0  0  0  0  0  0  0  0  0  0  0  0
    0.0550   -6.1599    0.0000 C   0  0  0  0  0  0  0  0  0  0  0  0
    1.4300   -6.1599    0.0000 C   0  0  0  0  0  0  0  0  0  0  0  0
    0.7150   -4.9499    0.0000 C   0  0  0  0  0  0  0  0  0  0  0  0
    0.0000   -4.5099    0.0000 C   0  0  0  0  0  0  0  0  0  0  0  0
    1.4300   -9.3498    0.0000 C   0  0  0  0  0  0  0  0  0  0  0  0
    0.7150   -9.7899    0.0000 C   0  0  0  0  0  0  0  0  0  0  0  0
    0.7150  -10.6148    0.0000 C   0  0  0  0  0  0  0  0  0  0  0  0
    0.0000  -10.9998    0.0000 C   0  0  0  0  0  0  0  0  0  0  0  0
  1 13  1  0  0  0  0
  2 20  1  0  0  0  0
  2 28  1  0  0  0  0
  3 22  1  0  0  0  0
  3 29  1  0  0  0  0
  4 22  2  0  0  0  0
  5  7  1  0  0  0  0
  5 11  1  0  0  0  0
  5 14  1  0  0  0  0
  6 11  1  0  0  0  0
  6 16  2  0  0  0  0
  7 17  2  0  0  0  0
  8 18  2  0  0  0  0
  8 20  1  0  0  0  0
  9 22  1  0  0  0  0
  9 23  1  0  0  0  0
  9 24  1  0  0  0  0
 10 25  1  0  0  0  0
 10 26  1  0  0  0  0
 10 27  1  0  0  0  0
 11 13  2  0  0  0  0
 12 14  2  0  0  0  0
 12 15  1  0  0  0  0
 12 16  1  0  0  0  0
 13 17  1  0  0  0  0
 15 18  1  0  0  0  0
 15 19  2  0  0  0  0
 19 21  1  0  0  0  0
 20 21  2  0  0  0  0
 23 26  1  0  0  0  0
 24 25  1  0  0  0  0
 27 28  1  0  0  0  0
 29 30  1  0  0  0  0
 30 31  1  0  0  0  0
 31 32  1  0  0  0  0
M  END
> <PUBCHEM_COMPOUND_ID_TYPE>
0

> <PUBCHEM_TOTAL_CHARGE>
0

> <PUBCHEM_SUBSTANCE_ID>
310935140

> <PUBCHEM_SUBSTANCE_VERSION>
1

> <PUBCHEM_EXT_DATASOURCE_NAME>
4488

> <PUBCHEM_EXT_DATASOURCE_REGID>
SCHEMBL16112667

> <PUBCHEM_SUBSTANCE_COMMENT>
InChI=1S/C22H27BrN6O3/c1-2-3-11-32-22(30)28-8-6-27(7-9-28)10-12-31-20-5-4-17(13-24-20)18-14-25-21-19(23)15-26-29(21)16-18/h4-5,13-16H,2-3,6-12H2,1H3
InChIKey=LNCMPADRUCURQS-UHFFFAOYSA-N

> <PUBCHEM_SUBSTANCE_SYNONYM>
SCHEMBL16112667

> <PUBCHEM_XREF_EXT_ID>
SCHEMBL16112667

> <PUBCHEM_EXT_DATASOURCE_URL>
https://www.surechembl.org/

> <PUBCHEM_EXT_SUBSTANCE_URL>
https://www.surechembl.org/chemical/SCHEMBL16112667

> <PUBCHEM_CID_ASSOCIATIONS>
117603228  1

> <PUBCHEM_COORDINATE_TYPE>
1
3

$$$$
