310928890
  -OEChem-07211613022D

 11 11  0     0  0  0  0  0  0999 V2000
    1.3056    1.1148    0.0000 O   0  0  0  0  0  0  0  0  0  0  0  0
    2.0200   -0.1227    0.0000 O   0  0  0  0  0  0  0  0  0  0  0  0
   -0.7146   -0.4003    0.0000 N   0  0  0  0  0  0  0  0  0  0  0  0
   -0.3021   -1.1148    0.0000 N   0  0  0  0  0  0  0  0  0  0  0  0
    0.5911   -0.1227    0.0000 C   0  0  0  0  0  0  0  0  0  0  0  0
   -0.1626    0.2128    0.0000 C   0  0  0  0  0  0  0  0  0  0  0  0
    0.5048   -0.9432    0.0000 C   0  0  0  0  0  0  0  0  0  0  0  0
    1.3056    0.2898    0.0000 C   0  0  0  0  0  0  0  0  0  0  0  0
   -1.5351   -0.3140    0.0000 C   0  0  0  0  0  0  0  0  0  0  0  0
   -0.3341    1.0198    0.0000 C   0  0  0  0  0  0  0  0  0  0  0  0
   -2.0200   -0.9815    0.0000 C   0  0  0  0  0  0  0  0  0  0  0  0
  1  8  2  0  0  0  0
  2  8  1  0  0  0  0
  3  4  1  0  0  0  0
  3  6  1  0  0  0  0
  3  9  1  0  0  0  0
  4  7  2  0  0  0  0
  5  6  2  0  0  0  0
  5  7  1  0  0  0  0
  5  8  1  0  0  0  0
  6 10  1  0  0  0  0
  9 11  1  0  0  0  0
M  END
> <PUBCHEM_COMPOUND_ID_TYPE>
0

> <PUBCHEM_TOTAL_CHARGE>
0

> <PUBCHEM_SUBSTANCE_ID>
310928890

> <PUBCHEM_SUBSTANCE_VERSION>
1

> <PUBCHEM_EXT_DATASOURCE_NAME>
11752

> <PUBCHEM_EXT_DATASOURCE_REGID>
BD173212

> <PUBCHEM_SUBSTANCE_SYNONYM>
1-Ethyl-5-methyl-1H-pyrazole-4-carboxylic acid
887408-72-2

> <PUBCHEM_GENERIC_REGISTRY_NAME>
887408-72-2

> <PUBCHEM_XREF_EXT_ID>
BD173212

> <PUBCHEM_EXT_DATASOURCE_URL>
http://www.bidepharmatech.com/en/index.html

> <PUBCHEM_EXT_SUBSTANCE_URL>
http://www.bidepharmatech.com/en/goodsview_goodscode_BD173212.html

> <PUBCHEM_CID_ASSOCIATIONS>
1075882  1

> <PUBCHEM_COORDINATE_TYPE>
1
3

$$$$
