310946174
  -OEChem-07211613022D

 24 25  0     1  0  0  0  0  0999 V2000
   -0.1428   -4.2619    0.0000 O   0  0  0  0  0  0  0  0  0  0  0  0
   -1.5717   -4.2619    0.0000 O   0  0  0  0  0  0  0  0  0  0  0  0
    1.2862   -4.2619    0.0000 O   0  0  0  0  0  0  0  0  0  0  0  0
   -0.8572   -3.0244    0.0000 N   0  0  0  0  0  0  0  0  0  0  0  0
    0.5717   -3.8494    0.0000 N   0  0  0  0  0  0  0  0  0  0  0  0
    1.2862   -2.6119    0.0000 N   0  0  0  0  0  0  0  0  0  0  0  0
   -0.1428   -2.6119    0.0000 C   0  0  3  0  0  0  0  0  0  0  0  0
   -0.8572   -3.8494    0.0000 C   0  0  0  0  0  0  0  0  0  0  0  0
   -1.5717   -2.6119    0.0000 C   0  0  0  0  0  0  0  0  0  0  0  0
   -1.5717   -1.7869    0.0000 C   0  0  3  0  0  0  0  0  0  0  0  0
    0.5717   -3.0244    0.0000 C   0  0  0  0  0  0  0  0  0  0  0  0
   -0.1428   -1.7869    0.0000 C   0  0  0  0  0  0  0  0  0  0  0  0
   -0.8572   -1.3744    0.0000 C   0  0  0  0  0  0  0  0  0  0  0  0
   -0.1428   -5.0869    0.0000 C   0  0  0  0  0  0  0  0  0  0  0  0
   -2.2862   -1.3744    0.0000 C   0  0  0  0  0  0  0  0  0  0  0  0
   -2.2862   -0.5494    0.0000 C   0  0  0  0  0  0  0  0  0  0  0  0
   -1.5717   -0.1369    0.0000 C   0  0  0  0  0  0  0  0  0  0  0  0
   -3.0006   -0.1369    0.0000 C   0  0  0  0  0  0  0  0  0  0  0  0
    0.5717   -5.4994    0.0000 C   0  0  0  0  0  0  0  0  0  0  0  0
   -0.8572   -5.4994    0.0000 C   0  0  0  0  0  0  0  0  0  0  0  0
   -0.8572   -4.6744    0.0000 C   0  0  0  0  0  0  0  0  0  0  0  0
   -1.5717    0.6881    0.0000 C   0  0  0  0  0  0  0  0  0  0  0  0
   -3.0006    0.6881    0.0000 C   0  0  0  0  0  0  0  0  0  0  0  0
   -2.2862    1.1006    0.0000 C   0  0  0  0  0  0  0  0  0  0  0  0
  1  8  1  0  0  0  0
  1 14  1  0  0  0  0
  2  8  2  0  0  0  0
  3  5  1  0  0  0  0
  4  7  1  0  0  0  0
  4  8  1  0  0  0  0
  4  9  1  0  0  0  0
  5 11  2  0  0  0  0
  6 11  1  0  0  0  0
  7 11  1  1  0  0  0
  7 12  1  0  0  0  0
  9 10  1  0  0  0  0
 10 13  1  0  0  0  0
 10 15  1  0  0  0  0
 12 13  1  0  0  0  0
 14 19  1  0  0  0  0
 14 20  1  0  0  0  0
 14 21  1  0  0  0  0
 15 16  1  0  0  0  0
 16 17  2  0  0  0  0
 16 18  1  0  0  0  0
 17 22  1  0  0  0  0
 18 23  2  0  0  0  0
 22 24  2  0  0  0  0
 23 24  1  0  0  0  0
M  END
> <PUBCHEM_COMPOUND_ID_TYPE>
0

> <PUBCHEM_TOTAL_CHARGE>
0

> <PUBCHEM_SUBSTANCE_ID>
310946174

> <PUBCHEM_SUBSTANCE_VERSION>
1

> <PUBCHEM_EXT_DATASOURCE_NAME>
4488

> <PUBCHEM_EXT_DATASOURCE_REGID>
SCHEMBL16124283

> <PUBCHEM_SUBSTANCE_COMMENT>
InChI=1S/C18H27N3O3/c1-18(2,3)24-17(22)21-12-14(9-10-15(21)16(19)20-23)11-13-7-5-4-6-8-13/h4-8,14-15,23H,9-12H2,1-3H3,(H2,19,20)/t14?,15-/m0/s1
InChIKey=JPIXRSMQVNIJHR-LOACHALJSA-N

> <PUBCHEM_SUBSTANCE_SYNONYM>
SCHEMBL16124283

> <PUBCHEM_XREF_EXT_ID>
SCHEMBL16124283

> <PUBCHEM_EXT_DATASOURCE_URL>
https://www.surechembl.org/

> <PUBCHEM_EXT_SUBSTANCE_URL>
https://www.surechembl.org/chemical/SCHEMBL16124283

> <PUBCHEM_CID_ASSOCIATIONS>
117612129  1

> <PUBCHEM_COORDINATE_TYPE>
1
3

> <PUBCHEM_BONDANNOTATIONS>
5  3  3
7  11  5

$$$$
