310946987
  -OEChem-07211613022D

 40 43  0     1  0  0  0  0  0999 V2000
   -1.9139   -1.4128    0.0000 S   0  0  0  0  0  0  0  0  0  0  0  0
   -0.5832    4.9777    0.0000 O   0  0  0  0  0  0  0  0  0  0  0  0
   -1.4374    0.8379    0.0000 O   0  0  0  0  0  0  0  0  0  0  0  0
   -2.5053   -0.8543    0.0000 O   0  0  0  0  0  0  0  0  0  0  0  0
   -2.4724   -2.0207    0.0000 O   0  0  0  0  0  0  0  0  0  0  0  0
   -1.0596   -4.1399    0.0000 O   0  0  0  0  0  0  0  0  0  0  0  0
   -0.1067   -3.0884    0.0000 O   0  0  0  0  0  0  0  0  0  0  0  0
    0.0904    3.1213    0.0000 N   0  0  0  0  0  0  0  0  0  0  0  0
    0.5667    2.4478    0.0000 N   0  0  0  0  0  0  0  0  0  0  0  0
    0.3203    1.0021    0.0000 N   0  0  0  0  0  0  0  0  0  0  0  0
   -2.1274    2.0700    0.0000 N   0  0  0  0  0  0  0  0  0  0  0  0
    2.5053    3.5978    0.0000 N   0  0  0  0  0  0  0  0  0  0  0  0
   -0.6818    2.8749    0.0000 C   0  0  0  0  0  0  0  0  0  0  0  0
    0.3531    3.9099    0.0000 C   0  0  3  0  0  0  0  0  0  0  0  0
   -0.7147    2.0536    0.0000 C   0  0  0  0  0  0  0  0  0  0  0  0
    0.0739    1.7906    0.0000 C   0  0  0  0  0  0  0  0  0  0  0  0
   -1.4211    1.6757    0.0000 C   0  0  0  0  0  0  0  0  0  0  0  0
   -1.4046    3.3021    0.0000 C   0  0  0  0  0  0  0  0  0  0  0  0
   -0.4189    4.1727    0.0000 C   0  0  0  0  0  0  0  0  0  0  0  0
    0.9775    4.4685    0.0000 C   0  0  0  0  0  0  0  0  0  0  0  0
    0.8954    3.2692    0.0000 C   0  0  0  0  0  0  0  0  0  0  0  0
   -1.2896   -1.9550    0.0000 C   0  0  0  0  0  0  0  0  0  0  0  0
   -1.3553   -0.7886    0.0000 C   0  0  0  0  0  0  0  0  0  0  0  0
   -0.2382    0.3943    0.0000 C   0  0  0  0  0  0  0  0  0  0  0  0
   -2.1111    2.9077    0.0000 C   0  0  0  0  0  0  0  0  0  0  0  0
   -0.5503   -0.9857    0.0000 C   0  0  0  0  0  0  0  0  0  0  0  0
   -1.5688   -0.0164    0.0000 C   0  0  0  0  0  0  0  0  0  0  0  0
    0.0082   -0.3943    0.0000 C   0  0  0  0  0  0  0  0  0  0  0  0
   -1.0268    0.5749    0.0000 C   0  0  0  0  0  0  0  0  0  0  0  0
    0.8297    5.2405    0.0000 C   0  0  0  0  0  0  0  0  0  0  0  0
   -1.4868   -2.7763    0.0000 C   0  0  0  0  0  0  0  0  0  0  0  0
    1.7003    3.4499    0.0000 C   0  0  0  0  0  0  0  0  0  0  0  0
    0.0247    5.5198    0.0000 C   0  0  0  0  0  0  0  0  0  0  0  0
   -0.7640   -1.3635    0.0000 C   0  0  0  0  0  0  0  0  0  0  0  0
   -0.4846   -2.1357    0.0000 C   0  0  0  0  0  0  0  0  0  0  0  0
   -0.8789   -3.3349    0.0000 C   0  0  0  0  0  0  0  0  0  0  0  0
   -0.4353   -4.6985    0.0000 C   0  0  0  0  0  0  0  0  0  0  0  0
    0.3368   -4.4357    0.0000 C   0  0  0  0  0  0  0  0  0  0  0  0
    0.1725   -5.2570    0.0000 C   0  0  0  0  0  0  0  0  0  0  0  0
   -0.6160   -5.5198    0.0000 C   0  0  0  0  0  0  0  0  0  0  0  0
  1  4  2  0  0  0  0
  1  5  2  0  0  0  0
  1 22  1  0  0  0  0
  1 23  1  0  0  0  0
  2 19  1  0  0  0  0
  2 33  1  0  0  0  0
  3 17  2  0  0  0  0
  6 36  1  0  0  0  0
  6 37  1  0  0  0  0
  7 36  2  0  0  0  0
  8  9  1  0  0  0  0
  8 13  1  0  0  0  0
  8 14  1  0  0  0  0
  9 16  2  0  0  0  0
 10 16  1  0  0  0  0
 10 24  1  0  0  0  0
 11 17  1  0  0  0  0
 11 25  1  0  0  0  0
 12 32  3  0  0  0  0
 13 15  2  0  0  0  0
 13 18  1  0  0  0  0
 14 19  1  0  0  0  0
 14 20  1  0  0  0  0
 14 21  1  6  0  0  0
 15 16  1  0  0  0  0
 15 17  1  0  0  0  0
 18 25  2  0  0  0  0
 20 30  1  0  0  0  0
 21 32  1  0  0  0  0
 22 31  1  0  0  0  0
 22 34  1  0  0  0  0
 22 35  1  0  0  0  0
 23 26  2  0  0  0  0
 23 27  1  0  0  0  0
 24 28  2  0  0  0  0
 24 29  1  0  0  0  0
 26 28  1  0  0  0  0
 27 29  2  0  0  0  0
 30 33  1  0  0  0  0
 31 36  1  0  0  0  0
 37 38  1  0  0  0  0
 37 39  1  0  0  0  0
 37 40  1  0  0  0  0
M  END
> <PUBCHEM_COMPOUND_ID_TYPE>
0

> <PUBCHEM_TOTAL_CHARGE>
0

> <PUBCHEM_SUBSTANCE_ID>
310946987

> <PUBCHEM_SUBSTANCE_VERSION>
1

> <PUBCHEM_EXT_DATASOURCE_NAME>
4488

> <PUBCHEM_EXT_DATASOURCE_REGID>
SCHEMBL16125128

> <PUBCHEM_SUBSTANCE_COMMENT>
InChI=1S/C28H35N5O6S/c1-26(2,3)39-22(34)17-27(4,5)40(36,37)20-9-7-19(8-10-20)31-24-23-21(11-15-30-25(23)35)33(32-24)28(13-14-29)12-6-16-38-18-28/h7-11,15H,6,12-13,16-18H2,1-5H3,(H,30,35)(H,31,32)/t28-/m0/s1
InChIKey=VRUJNYFUVQOSRM-NDEPHWFRSA-N

> <PUBCHEM_SUBSTANCE_SYNONYM>
SCHEMBL16125128

> <PUBCHEM_XREF_EXT_ID>
SCHEMBL16125128

> <PUBCHEM_EXT_DATASOURCE_URL>
https://www.surechembl.org/

> <PUBCHEM_EXT_SUBSTANCE_URL>
https://www.surechembl.org/chemical/SCHEMBL16125128

> <PUBCHEM_CID_ASSOCIATIONS>
117612840  1

> <PUBCHEM_COORDINATE_TYPE>
1
3

> <PUBCHEM_BONDANNOTATIONS>
14  21  6

$$$$
