310929339
  -OEChem-07211613022D

 45 49  0     0  0  0  0  0  0999 V2000
    0.7072   -5.2450    0.0000 O   0  0  0  0  0  0  0  0  0  0  0  0
    3.5359   -7.7202    0.0000 O   0  0  0  0  0  0  0  0  0  0  0  0
    5.6575   -8.8988    0.0000 O   0  0  0  0  0  0  0  0  0  0  0  0
    4.9503   -7.7202    0.0000 O   0  0  0  0  0  0  0  0  0  0  0  0
    1.4144   -9.7239    0.0000 O   0  0  0  0  0  0  0  0  0  0  0  0
    2.1216   -8.4863    0.0000 N   0  0  0  0  0  0  0  0  0  0  0  0
    0.7072   -8.4863    0.0000 N   0  0  0  0  0  0  0  0  0  0  0  0
    2.8877   -4.0663    0.0000 N   0  0  0  0  0  0  0  0  0  0  0  0
    2.1805   -2.8288    0.0000 N   0  0  0  0  0  0  0  0  0  0  0  0
    2.2984   -1.1787    0.0000 N   0  0  0  0  0  0  0  0  0  0  0  0
    3.5359   -8.4863    0.0000 C   0  0  0  0  0  0  0  0  0  0  0  0
    2.8288   -8.8988    0.0000 C   0  0  0  0  0  0  0  0  0  0  0  0
    4.2431   -8.8988    0.0000 C   0  0  0  0  0  0  0  0  0  0  0  0
    1.3555   -7.3076    0.0000 C   0  0  0  0  0  0  0  0  0  0  0  0
    3.5359  -10.1364    0.0000 C   0  0  0  0  0  0  0  0  0  0  0  0
    1.4144   -6.4826    0.0000 C   0  0  0  0  0  0  0  0  0  0  0  0
    0.7072   -7.7202    0.0000 C   0  0  0  0  0  0  0  0  0  0  0  0
    0.7072   -6.0700    0.0000 C   0  0  0  0  0  0  0  0  0  0  0  0
    2.8288   -9.7239    0.0000 C   0  0  0  0  0  0  0  0  0  0  0  0
    4.2431   -9.7239    0.0000 C   0  0  0  0  0  0  0  0  0  0  0  0
    3.5359  -10.9614    0.0000 C   0  0  0  0  0  0  0  0  0  0  0  0
    4.9503   -8.4863    0.0000 C   0  0  0  0  0  0  0  0  0  0  0  0
    1.4144   -8.8988    0.0000 C   0  0  0  0  0  0  0  0  0  0  0  0
    0.0000   -7.2487    0.0000 C   0  0  0  0  0  0  0  0  0  0  0  0
    0.0000   -6.4826    0.0000 C   0  0  0  0  0  0  0  0  0  0  0  0
    2.1216   -7.7202    0.0000 C   0  0  0  0  0  0  0  0  0  0  0  0
    2.1216   -6.0700    0.0000 C   0  0  0  0  0  0  0  0  0  0  0  0
    1.4144   -4.8324    0.0000 C   0  0  0  0  0  0  0  0  0  0  0  0
    3.0056   -7.4844    0.0000 C   0  0  0  0  0  0  0  0  0  0  0  0
    2.8288   -6.4826    0.0000 C   0  0  0  0  0  0  0  0  0  0  0  0
    2.7109  -10.9614    0.0000 C   0  0  0  0  0  0  0  0  0  0  0  0
    3.5359  -11.7865    0.0000 C   0  0  0  0  0  0  0  0  0  0  0  0
    4.3610  -10.9614    0.0000 C   0  0  0  0  0  0  0  0  0  0  0  0
    1.4144   -4.0074    0.0000 C   0  0  0  0  0  0  0  0  0  0  0  0
    2.1216   -5.2450    0.0000 C   0  0  0  0  0  0  0  0  0  0  0  0
    2.1805   -3.6538    0.0000 C   0  0  0  0  0  0  0  0  0  0  0  0
    2.8288   -7.3076    0.0000 C   0  0  0  0  0  0  0  0  0  0  0  0
    2.8877   -4.8914    0.0000 C   0  0  0  0  0  0  0  0  0  0  0  0
    5.6575   -9.7239    0.0000 C   0  0  0  0  0  0  0  0  0  0  0  0
    2.9466   -2.4163    0.0000 C   0  0  0  0  0  0  0  0  0  0  0  0
    2.9466   -1.5912    0.0000 C   0  0  0  0  0  0  0  0  0  0  0  0
    3.7127   -1.2376    0.0000 C   0  0  0  0  0  0  0  0  0  0  0  0
    2.2984   -0.3536    0.0000 C   0  0  0  0  0  0  0  0  0  0  0  0
    3.7127   -0.4125    0.0000 C   0  0  0  0  0  0  0  0  0  0  0  0
    3.0056    0.0000    0.0000 C   0  0  0  0  0  0  0  0  0  0  0  0
  1 18  1  0  0  0  0
  1 28  1  0  0  0  0
  2 11  1  0  0  0  0
  2 37  1  0  0  0  0
  3 22  1  0  0  0  0
  3 39  1  0  0  0  0
  4 22  2  0  0  0  0
  5 23  2  0  0  0  0
  6 12  1  0  0  0  0
  6 23  1  0  0  0  0
  7 17  1  0  0  0  0
  7 23  1  0  0  0  0
  8 36  1  0  0  0  0
  8 38  2  0  0  0  0
  9 36  1  0  0  0  0
  9 40  1  0  0  0  0
 10 41  1  0  0  0  0
 10 43  2  0  0  0  0
 11 12  1  0  0  0  0
 11 13  2  0  0  0  0
 12 19  2  0  0  0  0
 13 20  1  0  0  0  0
 13 22  1  0  0  0  0
 14 16  2  0  0  0  0
 14 17  1  0  0  0  0
 14 26  1  0  0  0  0
 15 19  1  0  0  0  0
 15 20  2  0  0  0  0
 15 21  1  0  0  0  0
 16 18  1  0  0  0  0
 16 27  1  0  0  0  0
 17 24  2  0  0  0  0
 18 25  2  0  0  0  0
 21 31  1  0  0  0  0
 21 32  1  0  0  0  0
 21 33  1  0  0  0  0
 24 25  1  0  0  0  0
 26 29  2  0  0  0  0
 27 30  2  0  0  0  0
 28 34  1  0  0  0  0
 28 35  2  0  0  0  0
 29 30  1  0  0  0  0
 34 36  2  0  0  0  0
 35 38  1  0  0  0  0
 40 41  1  0  0  0  0
 41 42  2  0  0  0  0
 42 44  1  0  0  0  0
 43 45  1  0  0  0  0
 44 45  2  0  0  0  0
M  END
> <PUBCHEM_COMPOUND_ID_TYPE>
0

> <PUBCHEM_TOTAL_CHARGE>
0

> <PUBCHEM_SUBSTANCE_ID>
310929339

> <PUBCHEM_SUBSTANCE_VERSION>
1

> <PUBCHEM_EXT_DATASOURCE_NAME>
4488

> <PUBCHEM_EXT_DATASOURCE_REGID>
SCHEMBL16106506

> <PUBCHEM_SUBSTANCE_COMMENT>
InChI=1S/C35H35N5O5/c1-35(2,3)22-18-27(33(41)44-5)32(43-4)29(19-22)40-34(42)39-28-13-14-30(26-12-7-6-11-25(26)28)45-24-15-17-37-31(20-24)38-21-23-10-8-9-16-36-23/h6-20H,21H2,1-5H3,(H,37,38)(H2,39,40,42)
InChIKey=XDQPAFOCXQIRNW-UHFFFAOYSA-N

> <PUBCHEM_SUBSTANCE_SYNONYM>
SCHEMBL16106506

> <PUBCHEM_XREF_EXT_ID>
SCHEMBL16106506

> <PUBCHEM_EXT_DATASOURCE_URL>
https://www.surechembl.org/

> <PUBCHEM_EXT_SUBSTANCE_URL>
https://www.surechembl.org/chemical/SCHEMBL16106506

> <PUBCHEM_CID_ASSOCIATIONS>
117598726  1

> <PUBCHEM_COORDINATE_TYPE>
1
3

$$$$
