310944934
  -OEChem-07211613022D

 24 26  0     0  0  0  0  0  0999 V2000
    1.5614   -1.1530    0.0000 S   0  0  0  0  0  0  0  0  0  0  0  0
    3.0504    0.3887    0.0000 O   0  0  0  0  0  0  0  0  0  0  0  0
   -1.7723    0.2042    0.0000 O   0  0  0  0  0  0  0  0  0  0  0  0
    1.6010    0.1515    0.0000 N   0  0  0  0  0  0  0  0  0  0  0  0
    0.2570   -0.4942    0.0000 N   0  0  0  0  0  0  0  0  0  0  0  0
   -0.5600   -0.4942    0.0000 N   0  0  0  0  0  0  0  0  0  0  0  0
   -3.0504   -1.9172    0.0000 N   0  0  0  0  0  0  0  0  0  0  0  0
    1.3243    0.9948    0.0000 C   0  0  0  0  0  0  0  0  0  0  0  0
    1.1002   -0.4546    0.0000 C   0  0  0  0  0  0  0  0  0  0  0  0
    2.3520   -0.0329    0.0000 C   0  0  0  0  0  0  0  0  0  0  0  0
    0.5337    1.1793    0.0000 C   0  0  0  0  0  0  0  0  0  0  0  0
    2.3520   -0.8631    0.0000 C   0  0  0  0  0  0  0  0  0  0  0  0
    1.8776    1.6010    0.0000 C   0  0  0  0  0  0  0  0  0  0  0  0
    0.2833    1.9699    0.0000 C   0  0  0  0  0  0  0  0  0  0  0  0
    1.6273    2.3915    0.0000 C   0  0  0  0  0  0  0  0  0  0  0  0
    0.8236    2.5497    0.0000 C   0  0  0  0  0  0  0  0  0  0  0  0
   -1.3901   -0.4282    0.0000 C   0  0  0  0  0  0  0  0  0  0  0  0
   -1.7986   -1.1397    0.0000 C   0  0  0  0  0  0  0  0  0  0  0  0
   -0.0329    0.5600    0.0000 C   0  0  0  0  0  0  0  0  0  0  0  0
   -0.5468    2.1412    0.0000 C   0  0  0  0  0  0  0  0  0  0  0  0
   -2.6287   -1.1266    0.0000 C   0  0  0  0  0  0  0  0  0  0  0  0
   -1.3901   -1.8513    0.0000 C   0  0  0  0  0  0  0  0  0  0  0  0
   -1.8118   -2.5497    0.0000 C   0  0  0  0  0  0  0  0  0  0  0  0
   -2.6551   -2.5365    0.0000 C   0  0  0  0  0  0  0  0  0  0  0  0
  1  9  1  0  0  0  0
  1 12  1  0  0  0  0
  2 10  2  0  0  0  0
  3 17  2  0  0  0  0
  4  8  1  0  0  0  0
  4  9  1  0  0  0  0
  4 10  1  0  0  0  0
  5  6  1  0  0  0  0
  5  9  2  3  0  0  0
  6 17  1  0  0  0  0
  7 21  2  0  0  0  0
  7 24  1  0  0  0  0
  8 11  2  0  0  0  0
  8 13  1  0  0  0  0
 10 12  1  0  0  0  0
 11 14  1  0  0  0  0
 11 19  1  0  0  0  0
 13 15  2  0  0  0  0
 14 16  2  0  0  0  0
 14 20  1  0  0  0  0
 15 16  1  0  0  0  0
 17 18  1  0  0  0  0
 18 21  1  0  0  0  0
 18 22  2  0  0  0  0
 22 23  1  0  0  0  0
 23 24  2  0  0  0  0
M  END
> <PUBCHEM_COMPOUND_ID_TYPE>
0

> <PUBCHEM_TOTAL_CHARGE>
0

> <PUBCHEM_SUBSTANCE_ID>
310944934

> <PUBCHEM_SUBSTANCE_VERSION>
1

> <PUBCHEM_EXT_DATASOURCE_NAME>
4488

> <PUBCHEM_EXT_DATASOURCE_REGID>
SCHEMBL16123019

> <PUBCHEM_SUBSTANCE_COMMENT>
InChI=1S/C17H16N4O2S/c1-11-5-3-7-14(12(11)2)21-15(22)10-24-17(21)20-19-16(23)13-6-4-8-18-9-13/h3-9H,10H2,1-2H3,(H,19,23)/b20-17+
InChIKey=WLJRMZOZOWZZTA-LVZFUZTISA-N

> <PUBCHEM_SUBSTANCE_SYNONYM>
SCHEMBL16123019

> <PUBCHEM_XREF_EXT_ID>
SCHEMBL16123019

> <PUBCHEM_EXT_DATASOURCE_URL>
https://www.surechembl.org/

> <PUBCHEM_EXT_SUBSTANCE_URL>
https://www.surechembl.org/chemical/SCHEMBL16123019

> <PUBCHEM_CID_ASSOCIATIONS>
3154299  1

> <PUBCHEM_COORDINATE_TYPE>
1
3

$$$$
