310945275
  -OEChem-07211613022D

 30 34  0     0  0  0  0  0  0999 V2000
    4.2193   -0.1455    0.0000 O   0  0  0  0  0  0  0  0  0  0  0  0
   -3.4849   -1.7667    0.0000 O   0  0  0  0  0  0  0  0  0  0  0  0
   -2.7644    1.1293    0.0000 O   0  0  0  0  0  0  0  0  0  0  0  0
    1.6835   -1.3371    0.0000 N   0  0  0  0  0  0  0  0  0  0  0  0
   -0.6304    0.7274    0.0000 N   0  0  0  0  0  0  0  0  0  0  0  0
   -3.4849   -0.1039    0.0000 N   0  0  0  0  0  0  0  0  0  0  0  0
    1.5035   -0.5196    0.0000 C   0  0  0  0  0  0  0  0  0  0  0  0
    2.2101   -0.0901    0.0000 C   0  0  0  0  0  0  0  0  0  0  0  0
    2.8337   -0.6720    0.0000 C   0  0  0  0  0  0  0  0  0  0  0  0
    0.7968   -0.1039    0.0000 C   0  0  0  0  0  0  0  0  0  0  0  0
    2.5150   -1.4203    0.0000 C   0  0  0  0  0  0  0  0  0  0  0  0
    0.7968    0.7274    0.0000 C   0  0  0  0  0  0  0  0  0  0  0  0
    3.6373   -0.7829    0.0000 C   0  0  0  0  0  0  0  0  0  0  0  0
    2.2101    0.7136    0.0000 C   0  0  0  0  0  0  0  0  0  0  0  0
    0.0901   -0.5196    0.0000 C   0  0  0  0  0  0  0  0  0  0  0  0
   -0.6304   -0.1039    0.0000 C   0  0  0  0  0  0  0  0  0  0  0  0
    3.1247   -1.9745    0.0000 C   0  0  0  0  0  0  0  0  0  0  0  0
    1.4895    1.1154    0.0000 C   0  0  0  0  0  0  0  0  0  0  0  0
    3.8174   -1.5727    0.0000 C   0  0  0  0  0  0  0  0  0  0  0  0
    0.0623    1.1293    0.0000 C   0  0  0  0  0  0  0  0  0  0  0  0
   -1.3510   -0.5196    0.0000 C   0  0  0  0  0  0  0  0  0  0  0  0
   -2.0577   -0.1178    0.0000 C   0  0  0  0  0  0  0  0  0  0  0  0
   -2.7782   -0.5196    0.0000 C   0  0  0  0  0  0  0  0  0  0  0  0
   -1.3510   -1.3510    0.0000 C   0  0  0  0  0  0  0  0  0  0  0  0
   -2.7782   -1.3510    0.0000 C   0  0  0  0  0  0  0  0  0  0  0  0
   -2.0577   -1.7667    0.0000 C   0  0  0  0  0  0  0  0  0  0  0  0
   -3.5126    0.7136    0.0000 C   0  0  0  0  0  0  0  0  0  0  0  0
   -4.2054    1.1293    0.0000 C   0  0  0  0  0  0  0  0  0  0  0  0
   -4.2193   -1.3649    0.0000 C   0  0  0  0  0  0  0  0  0  0  0  0
   -4.1223    1.9745    0.0000 C   0  0  0  0  0  0  0  0  0  0  0  0
  1 13  2  0  0  0  0
  2 25  1  0  0  0  0
  2 29  1  0  0  0  0
  3 27  2  0  0  0  0
  4  7  1  0  0  0  0
  4 11  1  0  0  0  0
  5 16  2  0  0  0  0
  5 20  1  0  0  0  0
  6 23  1  0  0  0  0
  6 27  1  0  0  0  0
  7  8  2  0  0  0  0
  7 10  1  0  0  0  0
  8  9  1  0  0  0  0
  8 14  1  0  0  0  0
  9 11  2  0  0  0  0
  9 13  1  0  0  0  0
 10 12  1  0  0  0  0
 10 15  2  0  0  0  0
 11 17  1  0  0  0  0
 12 18  1  0  0  0  0
 12 20  2  0  0  0  0
 13 19  1  0  0  0  0
 14 18  2  0  0  0  0
 15 16  1  0  0  0  0
 16 21  1  0  0  0  0
 17 19  1  0  0  0  0
 21 22  2  0  0  0  0
 21 24  1  0  0  0  0
 22 23  1  0  0  0  0
 23 25  2  0  0  0  0
 24 26  2  0  0  0  0
 25 26  1  0  0  0  0
 27 28  1  0  0  0  0
 28 30  2  0  0  0  0
M  END
> <PUBCHEM_COMPOUND_ID_TYPE>
0

> <PUBCHEM_TOTAL_CHARGE>
0

> <PUBCHEM_SUBSTANCE_ID>
310945275

> <PUBCHEM_SUBSTANCE_VERSION>
1

> <PUBCHEM_EXT_DATASOURCE_NAME>
4488

> <PUBCHEM_EXT_DATASOURCE_REGID>
SCHEMBL16123369

> <PUBCHEM_SUBSTANCE_COMMENT>
InChI=1S/C24H19N3O3/c1-3-22(29)26-19-10-13(5-9-21(19)30-2)18-11-16-14(12-25-18)4-6-15-23-17(27-24(15)16)7-8-20(23)28/h3-6,9-12,27H,1,7-8H2,2H3,(H,26,29)
InChIKey=BARPYLLJIYQIJH-UHFFFAOYSA-N

> <PUBCHEM_SUBSTANCE_SYNONYM>
SCHEMBL16123369

> <PUBCHEM_XREF_EXT_ID>
SCHEMBL16123369

> <PUBCHEM_EXT_DATASOURCE_URL>
https://www.surechembl.org/

> <PUBCHEM_EXT_SUBSTANCE_URL>
https://www.surechembl.org/chemical/SCHEMBL16123369

> <PUBCHEM_CID_ASSOCIATIONS>
86300754  1

> <PUBCHEM_COORDINATE_TYPE>
1
3

$$$$
