310936834
  -OEChem-07211613022D

 44 48  0     1  0  0  0  0  0999 V2000
    3.4186    1.8053    0.0000 S   0  0  0  0  0  0  0  0  0  0  0  0
    9.2960    2.2453    0.0000 F   0  0  0  0  0  0  0  0  0  0  0  0
    8.1437    2.4278    0.0000 F   0  0  0  0  0  0  0  0  0  0  0  0
    9.4785    3.3977    0.0000 F   0  0  0  0  0  0  0  0  0  0  0  0
    8.8479    6.5086    0.0000 F   0  0  0  0  0  0  0  0  0  0  0  0
    7.7587    6.0905    0.0000 F   0  0  0  0  0  0  0  0  0  0  0  0
    9.2661    5.4194    0.0000 F   0  0  0  0  0  0  0  0  0  0  0  0
    5.7878    3.3607    0.0000 O   0  0  0  0  0  0  0  0  0  0  0  0
    4.3677    2.9802    0.0000 O   0  0  0  0  0  0  0  0  0  0  0  0
    4.8946    4.3527    0.0000 N   0  0  0  0  0  0  0  0  0  0  0  0
    2.7512    5.5902    0.0000 N   0  0  0  0  0  0  0  0  0  0  0  0
    2.0367    4.3527    0.0000 N   0  0  0  0  0  0  0  0  0  0  0  0
    2.3387    1.0206    0.0000 N   0  0  0  0  0  0  0  0  0  0  0  0
    6.2003    4.0751    0.0000 C   0  0  3  0  0  0  0  0  0  0  0  0
    5.6483    4.6882    0.0000 C   0  0  3  0  0  0  0  0  0  0  0  0
    7.0208    4.1614    0.0000 C   0  0  0  0  0  0  0  0  0  0  0  0
    4.9808    3.5322    0.0000 C   0  0  0  0  0  0  0  0  0  0  0  0
    3.4656    4.3527    0.0000 C   0  0  0  0  0  0  0  0  0  0  0  0
    4.1801    4.7652    0.0000 C   0  0  0  0  0  0  0  0  0  0  0  0
    2.7512    4.7652    0.0000 C   0  0  0  0  0  0  0  0  0  0  0  0
    8.3262    3.5802    0.0000 C   0  0  0  0  0  0  0  0  0  0  0  0
    8.1768    5.0013    0.0000 C   0  0  0  0  0  0  0  0  0  0  0  0
    7.3563    4.9151    0.0000 C   0  0  0  0  0  0  0  0  0  0  0  0
    7.5057    3.4939    0.0000 C   0  0  0  0  0  0  0  0  0  0  0  0
    2.7512    3.1152    0.0000 C   0  0  0  0  0  0  0  0  0  0  0  0
    8.6617    4.3339    0.0000 C   0  0  0  0  0  0  0  0  0  0  0  0
    3.4656    3.5277    0.0000 C   0  0  0  0  0  0  0  0  0  0  0  0
    8.8111    2.9127    0.0000 C   0  0  0  0  0  0  0  0  0  0  0  0
    8.5124    5.7550    0.0000 C   0  0  0  0  0  0  0  0  0  0  0  0
    2.7512    2.2902    0.0000 C   0  0  0  0  0  0  0  0  0  0  0  0
    2.0367    3.5277    0.0000 C   0  0  0  0  0  0  0  0  0  0  0  0
    5.8198    5.4952    0.0000 C   0  0  0  0  0  0  0  0  0  0  0  0
    2.0837    1.8053    0.0000 C   0  0  0  0  0  0  0  0  0  0  0  0
    2.0367    6.0027    0.0000 C   0  0  0  0  0  0  0  0  0  0  0  0
    3.1637    1.0206    0.0000 C   0  0  0  0  0  0  0  0  0  0  0  0
    3.4656    6.0027    0.0000 C   0  0  0  0  0  0  0  0  0  0  0  0
    1.3222    5.5902    0.0000 C   0  0  0  0  0  0  0  0  0  0  0  0
    2.0367    6.8277    0.0000 C   0  0  0  0  0  0  0  0  0  0  0  0
    1.2991    2.0602    0.0000 C   0  0  0  0  0  0  0  0  0  0  0  0
    3.6486    0.3532    0.0000 C   0  0  0  0  0  0  0  0  0  0  0  0
    0.6078    6.0027    0.0000 C   0  0  0  0  0  0  0  0  0  0  0  0
    1.3222    7.2402    0.0000 C   0  0  0  0  0  0  0  0  0  0  0  0
    4.1801    5.5902    0.0000 C   0  0  0  0  0  0  0  0  0  0  0  0
    0.6078    6.8277    0.0000 C   0  0  0  0  0  0  0  0  0  0  0  0
  1 30  1  0  0  0  0
  1 35  1  0  0  0  0
  2 28  1  0  0  0  0
  3 28  1  0  0  0  0
  4 28  1  0  0  0  0
  5 29  1  0  0  0  0
  6 29  1  0  0  0  0
  7 29  1  0  0  0  0
  8 14  1  0  0  0  0
  8 17  1  0  0  0  0
  9 17  2  0  0  0  0
 10 15  1  0  0  0  0
 10 17  1  0  0  0  0
 10 19  1  0  0  0  0
 11 20  1  0  0  0  0
 11 34  1  0  0  0  0
 11 36  1  0  0  0  0
 12 20  2  0  0  0  0
 12 31  1  0  0  0  0
 13 33  1  0  0  0  0
 13 35  2  0  0  0  0
 14 15  1  0  0  0  0
 14 16  1  1  0  0  0
 15 32  1  1  0  0  0
 16 23  2  0  0  0  0
 16 24  1  0  0  0  0
 18 19  1  0  0  0  0
 18 20  1  0  0  0  0
 18 27  2  0  0  0  0
 21 24  2  0  0  0  0
 21 26  1  0  0  0  0
 21 28  1  0  0  0  0
 22 23  1  0  0  0  0
 22 26  2  0  0  0  0
 22 29  1  0  0  0  0
 25 27  1  0  0  0  0
 25 30  1  0  0  0  0
 25 31  2  0  0  0  0
 30 33  2  0  0  0  0
 33 39  1  0  0  0  0
 34 37  1  0  0  0  0
 34 38  1  0  0  0  0
 35 40  1  0  0  0  0
 36 43  1  0  0  0  0
 37 41  1  0  0  0  0
 38 42  1  0  0  0  0
 41 44  1  0  0  0  0
 42 44  1  0  0  0  0
M  END
> <PUBCHEM_COMPOUND_ID_TYPE>
0

> <PUBCHEM_TOTAL_CHARGE>
0

> <PUBCHEM_SUBSTANCE_ID>
310936834

> <PUBCHEM_SUBSTANCE_VERSION>
1

> <PUBCHEM_EXT_DATASOURCE_NAME>
4488

> <PUBCHEM_EXT_DATASOURCE_REGID>
SCHEMBL16114525

> <PUBCHEM_SUBSTANCE_COMMENT>
InChI=1S/C31H34F6N4O2S/c1-5-40(25-9-7-6-8-10-25)28-22(11-21(15-38-28)27-17(2)39-19(4)44-27)16-41-18(3)26(43-29(41)42)20-12-23(30(32,33)34)14-24(13-20)31(35,36)37/h11-15,18,25-26H,5-10,16H2,1-4H3/t18-,26-/m0/s1
InChIKey=UNQXPRIGVJDTOE-QYBDOPJKSA-N

> <PUBCHEM_SUBSTANCE_SYNONYM>
SCHEMBL16114525

> <PUBCHEM_XREF_EXT_ID>
SCHEMBL16114525

> <PUBCHEM_EXT_DATASOURCE_URL>
https://www.surechembl.org/

> <PUBCHEM_EXT_SUBSTANCE_URL>
https://www.surechembl.org/chemical/SCHEMBL16114525

> <PUBCHEM_CID_ASSOCIATIONS>
85471475  1

> <PUBCHEM_COORDINATE_TYPE>
1
3

> <PUBCHEM_BONDANNOTATIONS>
14  16  5
15  32  5

$$$$
