310929238
  -OEChem-07211613022D

 48 52  0     0  0  0  0  0  0999 V2000
    0.7144   -1.6500    0.0000 O   0  0  0  0  0  0  0  0  0  0  0  0
    2.1434    3.3000    0.0000 O   0  0  0  0  0  0  0  0  0  0  0  0
    2.8579    4.5375    0.0000 O   0  0  0  0  0  0  0  0  0  0  0  0
    1.4290    2.8875    0.0000 O   0  0  0  0  0  0  0  0  0  0  0  0
   -3.5724   -4.1250    0.0000 O   0  0  0  0  0  0  0  0  0  0  0  0
   -5.7158   -2.0625    0.0000 O   0  0  0  0  0  0  0  0  0  0  0  0
    2.1434    1.6500    0.0000 N   0  0  0  0  0  0  0  0  0  0  0  0
    0.7144    1.6500    0.0000 N   0  0  0  0  0  0  0  0  0  0  0  0
    4.2868    4.5375    0.0000 N   0  0  0  0  0  0  0  0  0  0  0  0
   -2.1434   -1.6500    0.0000 N   0  0  0  0  0  0  0  0  0  0  0  0
   -1.4290   -2.8875    0.0000 N   0  0  0  0  0  0  0  0  0  0  0  0
    2.8579    2.8875    0.0000 C   0  0  0  0  0  0  0  0  0  0  0  0
    2.8579    2.0625    0.0000 C   0  0  0  0  0  0  0  0  0  0  0  0
    0.0000    0.4125    0.0000 C   0  0  0  0  0  0  0  0  0  0  0  0
    3.5724    3.3000    0.0000 C   0  0  0  0  0  0  0  0  0  0  0  0
    0.0000   -0.4125    0.0000 C   0  0  0  0  0  0  0  0  0  0  0  0
    4.2868    2.0625    0.0000 C   0  0  0  0  0  0  0  0  0  0  0  0
    0.7144    0.8250    0.0000 C   0  0  0  0  0  0  0  0  0  0  0  0
    0.7144   -0.8250    0.0000 C   0  0  0  0  0  0  0  0  0  0  0  0
    3.5724    1.6500    0.0000 C   0  0  0  0  0  0  0  0  0  0  0  0
    4.2868    2.8875    0.0000 C   0  0  0  0  0  0  0  0  0  0  0  0
    5.0013    1.6500    0.0000 C   0  0  0  0  0  0  0  0  0  0  0  0
    3.5724    4.1250    0.0000 C   0  0  0  0  0  0  0  0  0  0  0  0
    1.4290    2.0625    0.0000 C   0  0  0  0  0  0  0  0  0  0  0  0
    1.4290    0.4125    0.0000 C   0  0  0  0  0  0  0  0  0  0  0  0
    1.4290   -0.4125    0.0000 C   0  0  0  0  0  0  0  0  0  0  0  0
   -0.7144    0.8250    0.0000 C   0  0  0  0  0  0  0  0  0  0  0  0
   -0.7144   -0.8250    0.0000 C   0  0  0  0  0  0  0  0  0  0  0  0
    0.0000   -2.0625    0.0000 C   0  0  0  0  0  0  0  0  0  0  0  0
   -1.4290    0.4125    0.0000 C   0  0  0  0  0  0  0  0  0  0  0  0
   -1.4290   -0.4125    0.0000 C   0  0  0  0  0  0  0  0  0  0  0  0
   -0.7144   -1.6500    0.0000 C   0  0  0  0  0  0  0  0  0  0  0  0
   -1.4290   -2.0625    0.0000 C   0  0  0  0  0  0  0  0  0  0  0  0
    5.7158    1.2375    0.0000 C   0  0  0  0  0  0  0  0  0  0  0  0
    5.0013    0.8250    0.0000 C   0  0  0  0  0  0  0  0  0  0  0  0
    5.7158    2.0625    0.0000 C   0  0  0  0  0  0  0  0  0  0  0  0
    0.0000   -2.8875    0.0000 C   0  0  0  0  0  0  0  0  0  0  0  0
   -2.8579   -2.0625    0.0000 C   0  0  0  0  0  0  0  0  0  0  0  0
   -0.7144   -3.3000    0.0000 C   0  0  0  0  0  0  0  0  0  0  0  0
    2.1434    4.1250    0.0000 C   0  0  0  0  0  0  0  0  0  0  0  0
   -2.8579   -2.8875    0.0000 C   0  0  0  0  0  0  0  0  0  0  0  0
   -3.5724   -1.6500    0.0000 C   0  0  0  0  0  0  0  0  0  0  0  0
   -3.5724   -3.3000    0.0000 C   0  0  0  0  0  0  0  0  0  0  0  0
   -4.2868   -2.0625    0.0000 C   0  0  0  0  0  0  0  0  0  0  0  0
   -4.2868   -2.8875    0.0000 C   0  0  0  0  0  0  0  0  0  0  0  0
    4.2868    5.3625    0.0000 C   0  0  0  0  0  0  0  0  0  0  0  0
   -5.0013   -1.6500    0.0000 C   0  0  0  0  0  0  0  0  0  0  0  0
   -4.2868   -4.5375    0.0000 C   0  0  0  0  0  0  0  0  0  0  0  0
  1 19  1  0  0  0  0
  1 29  1  0  0  0  0
  2 12  1  0  0  0  0
  2 40  1  0  0  0  0
  3 23  2  0  0  0  0
  4 24  2  0  0  0  0
  5 43  1  0  0  0  0
  5 48  1  0  0  0  0
  6 47  1  0  0  0  0
  7 13  1  0  0  0  0
  7 24  1  0  0  0  0
  8 18  1  0  0  0  0
  8 24  1  0  0  0  0
  9 23  1  0  0  0  0
  9 46  1  0  0  0  0
 10 33  1  0  0  0  0
 10 38  1  0  0  0  0
 11 33  2  0  0  0  0
 11 39  1  0  0  0  0
 12 13  2  0  0  0  0
 12 15  1  0  0  0  0
 13 20  1  0  0  0  0
 14 16  1  0  0  0  0
 14 18  2  0  0  0  0
 14 27  1  0  0  0  0
 15 21  2  0  0  0  0
 15 23  1  0  0  0  0
 16 19  2  0  0  0  0
 16 28  1  0  0  0  0
 17 20  2  0  0  0  0
 17 21  1  0  0  0  0
 17 22  1  0  0  0  0
 18 25  1  0  0  0  0
 19 26  1  0  0  0  0
 22 34  1  0  0  0  0
 22 35  1  0  0  0  0
 22 36  1  0  0  0  0
 25 26  2  0  0  0  0
 27 30  2  0  0  0  0
 28 31  2  0  0  0  0
 29 32  2  0  0  0  0
 29 37  1  0  0  0  0
 30 31  1  0  0  0  0
 32 33  1  0  0  0  0
 37 39  2  0  0  0  0
 38 41  2  0  0  0  0
 38 42  1  0  0  0  0
 41 43  1  0  0  0  0
 42 44  2  0  0  0  0
 43 45  2  0  0  0  0
 44 45  1  0  0  0  0
 44 47  1  0  0  0  0
M  END
> <PUBCHEM_COMPOUND_ID_TYPE>
0

> <PUBCHEM_TOTAL_CHARGE>
0

> <PUBCHEM_SUBSTANCE_ID>
310929238

> <PUBCHEM_SUBSTANCE_VERSION>
1

> <PUBCHEM_EXT_DATASOURCE_NAME>
4488

> <PUBCHEM_EXT_DATASOURCE_REGID>
SCHEMBL16106402

> <PUBCHEM_SUBSTANCE_COMMENT>
InChI=1S/C37H39N5O6/c1-37(2,3)23-17-29(35(44)38-4)34(47-6)31(18-23)42-36(45)41-30-11-12-32(28-10-8-7-9-27(28)30)48-25-13-14-39-33(20-25)40-24-15-22(21-43)16-26(19-24)46-5/h7-20,43H,21H2,1-6H3,(H,38,44)(H,39,40)(H2,41,42,45)
InChIKey=XEFBBQIBHYFSDW-UHFFFAOYSA-N

> <PUBCHEM_SUBSTANCE_SYNONYM>
SCHEMBL16106402

> <PUBCHEM_XREF_EXT_ID>
SCHEMBL16106402

> <PUBCHEM_EXT_DATASOURCE_URL>
https://www.surechembl.org/

> <PUBCHEM_EXT_SUBSTANCE_URL>
https://www.surechembl.org/chemical/SCHEMBL16106402

> <PUBCHEM_CID_ASSOCIATIONS>
117598675  1

> <PUBCHEM_COORDINATE_TYPE>
1
3

$$$$
