310945129
  -OEChem-07211613022D

 32 36  0     1  0  0  0  0  0999 V2000
   -4.0624   -2.1171    0.0000 Cl  0  0  0  0  0  0  0  0  0  0  0  0
    1.9865    1.8834    0.0000 S   0  0  0  0  0  0  0  0  0  0  0  0
    3.6362    2.1171    0.0000 O   0  0  0  0  0  0  0  0  0  0  0  0
   -4.5023    0.7698    0.0000 O   0  0  0  0  0  0  0  0  0  0  0  0
    2.3577   -0.2062    0.0000 N   0  0  0  0  0  0  0  0  0  0  0  0
   -0.9280    0.4399    0.0000 N   0  0  0  0  0  0  0  0  0  0  0  0
    3.9387    0.7561    0.0000 N   0  0  0  0  0  0  0  0  0  0  0  0
   -3.8012   -0.4674    0.0000 N   0  0  0  0  0  0  0  0  0  0  0  0
    1.2579    0.7836    0.0000 C   0  0  0  0  0  0  0  0  0  0  0  0
    2.0553    0.5499    0.0000 C   0  0  0  0  0  0  0  0  0  0  0  0
    0.5018    0.4262    0.0000 C   0  0  0  0  0  0  0  0  0  0  0  0
    1.2304    1.6085    0.0000 C   0  0  0  0  0  0  0  0  0  0  0  0
    2.4952    1.2510    0.0000 C   0  0  0  0  0  0  0  0  0  0  0  0
   -0.2131    0.8523    0.0000 C   0  0  0  0  0  0  0  0  0  0  0  0
    0.5430    2.0346    0.0000 C   0  0  0  0  0  0  0  0  0  0  0  0
    3.3476    1.3335    0.0000 C   0  0  0  0  0  0  0  0  0  0  0  0
    0.4881   -0.3987    0.0000 C   0  0  0  0  0  0  0  0  0  0  0  0
   -0.1856    1.6772    0.0000 C   0  0  0  0  0  0  0  0  0  0  0  0
   -0.9417   -0.3849    0.0000 C   0  0  0  0  0  0  0  0  0  0  0  0
   -0.2131   -0.8111    0.0000 C   0  0  0  0  0  0  0  0  0  0  0  0
   -1.6703   -0.8386    0.0000 C   0  0  0  0  0  0  0  0  0  0  0  0
    3.1276   -0.4949    0.0000 C   0  0  0  0  0  0  0  0  0  0  0  0
    3.8150   -0.0825    0.0000 C   0  0  3  0  0  0  0  0  0  0  0  0
   -2.4127   -0.4674    0.0000 C   0  0  0  0  0  0  0  0  0  0  0  0
   -3.0864   -0.8799    0.0000 C   0  0  0  0  0  0  0  0  0  0  0  0
   -1.6703   -1.6635    0.0000 C   0  0  0  0  0  0  0  0  0  0  0  0
   -3.0726   -1.7047    0.0000 C   0  0  0  0  0  0  0  0  0  0  0  0
   -2.3440   -2.0897    0.0000 C   0  0  0  0  0  0  0  0  0  0  0  0
    4.5023   -0.5086    0.0000 C   0  0  0  0  0  0  0  0  0  0  0  0
   -3.7875    0.3575    0.0000 C   0  0  0  0  0  0  0  0  0  0  0  0
   -3.1000    0.7698    0.0000 C   0  0  0  0  0  0  0  0  0  0  0  0
   -3.1826    1.6085    0.0000 C   0  0  0  0  0  0  0  0  0  0  0  0
  1 27  1  0  0  0  0
  2 12  1  0  0  0  0
  2 13  1  0  0  0  0
  3 16  2  0  0  0  0
  4 30  2  0  0  0  0
  5 10  1  0  0  0  0
  5 22  1  0  0  0  0
  6 14  1  0  0  0  0
  6 19  2  0  0  0  0
  7 16  1  0  0  0  0
  7 23  1  0  0  0  0
  8 25  1  0  0  0  0
  8 30  1  0  0  0  0
  9 10  1  0  0  0  0
  9 11  1  0  0  0  0
  9 12  2  0  0  0  0
 10 13  2  0  0  0  0
 11 14  2  0  0  0  0
 11 17  1  0  0  0  0
 12 15  1  0  0  0  0
 13 16  1  0  0  0  0
 14 18  1  0  0  0  0
 15 18  2  0  0  0  0
 17 20  2  0  0  0  0
 19 20  1  0  0  0  0
 19 21  1  0  0  0  0
 21 24  2  0  0  0  0
 21 26  1  0  0  0  0
 22 23  1  0  0  0  0
 23 29  1  6  0  0  0
 24 25  1  0  0  0  0
 25 27  2  0  0  0  0
 26 28  2  0  0  0  0
 27 28  1  0  0  0  0
 30 31  1  0  0  0  0
 31 32  2  0  0  0  0
M  END
> <PUBCHEM_COMPOUND_ID_TYPE>
0

> <PUBCHEM_TOTAL_CHARGE>
0

> <PUBCHEM_SUBSTANCE_ID>
310945129

> <PUBCHEM_SUBSTANCE_VERSION>
1

> <PUBCHEM_EXT_DATASOURCE_NAME>
4488

> <PUBCHEM_EXT_DATASOURCE_REGID>
SCHEMBL16123219

> <PUBCHEM_SUBSTANCE_COMMENT>
InChI=1S/C24H19ClN4O2S/c1-3-20(30)29-18-10-13(4-6-15(18)25)16-7-5-14-17(28-16)8-9-19-21(14)22-23(32-19)24(31)27-12(2)11-26-22/h3-10,12,26H,1,11H2,2H3,(H,27,31)(H,29,30)/t12-/m1/s1
InChIKey=SGDHHQSIYZPVKG-GFCCVEGCSA-N

> <PUBCHEM_SUBSTANCE_SYNONYM>
SCHEMBL16123219

> <PUBCHEM_XREF_EXT_ID>
SCHEMBL16123219

> <PUBCHEM_EXT_DATASOURCE_URL>
https://www.surechembl.org/

> <PUBCHEM_EXT_SUBSTANCE_URL>
https://www.surechembl.org/chemical/SCHEMBL16123219

> <PUBCHEM_CID_ASSOCIATIONS>
117611224  1

> <PUBCHEM_COORDINATE_TYPE>
1
3

> <PUBCHEM_BONDANNOTATIONS>
23  29  6

$$$$
