310949292
  -OEChem-07211613022D

 61 72  0     0  0  0  0  0  0999 V2000
    0.0000    1.7359    0.0000 N   0  0  0  0  0  0  0  0  0  0  0  0
   -4.3692   -2.1455    0.0000 N   0  0  0  0  0  0  0  0  0  0  0  0
    4.3106   -2.1455    0.0000 N   0  0  0  0  0  0  0  0  0  0  0  0
   -2.1261    2.1455    0.0000 N   0  0  0  0  0  0  0  0  0  0  0  0
    2.1651    2.1455    0.0000 N   0  0  0  0  0  0  0  0  0  0  0  0
    0.4096    0.4487    0.0000 C   0  0  0  0  0  0  0  0  0  0  0  0
   -0.4487    0.4487    0.0000 C   0  0  0  0  0  0  0  0  0  0  0  0
    0.7022    1.2483    0.0000 C   0  0  0  0  0  0  0  0  0  0  0  0
   -0.6827    1.2288    0.0000 C   0  0  0  0  0  0  0  0  0  0  0  0
    0.0195    2.5942    0.0000 C   0  0  0  0  0  0  0  0  0  0  0  0
    0.9558   -0.1560    0.0000 C   0  0  0  0  0  0  0  0  0  0  0  0
   -0.9752   -0.1365    0.0000 C   0  0  0  0  0  0  0  0  0  0  0  0
   -1.8139    0.0390    0.0000 C   0  0  0  0  0  0  0  0  0  0  0  0
    1.7750    0.0195    0.0000 C   0  0  0  0  0  0  0  0  0  0  0  0
   -3.0623   -1.8139    0.0000 C   0  0  0  0  0  0  0  0  0  0  0  0
    3.0233   -1.8139    0.0000 C   0  0  0  0  0  0  0  0  0  0  0  0
   -3.8230   -1.5019    0.0000 C   0  0  0  0  0  0  0  0  0  0  0  0
    3.7450   -1.5019    0.0000 C   0  0  0  0  0  0  0  0  0  0  0  0
    1.5019    1.4044    0.0000 C   0  0  0  0  0  0  0  0  0  0  0  0
   -1.4824    1.4239    0.0000 C   0  0  0  0  0  0  0  0  0  0  0  0
   -3.1793   -2.6917    0.0000 C   0  0  0  0  0  0  0  0  0  0  0  0
    3.1209   -2.6917    0.0000 C   0  0  0  0  0  0  0  0  0  0  0  0
    2.4382   -0.5071    0.0000 C   0  0  0  0  0  0  0  0  0  0  0  0
   -2.4577   -0.5071    0.0000 C   0  0  0  0  0  0  0  0  0  0  0  0
   -3.9790   -2.8478    0.0000 C   0  0  0  0  0  0  0  0  0  0  0  0
    3.8620   -2.8673    0.0000 C   0  0  0  0  0  0  0  0  0  0  0  0
    0.7217    3.0038    0.0000 C   0  0  0  0  0  0  0  0  0  0  0  0
   -0.7412    3.0038    0.0000 C   0  0  0  0  0  0  0  0  0  0  0  0
    2.0480    0.8192    0.0000 C   0  0  0  0  0  0  0  0  0  0  0  0
   -2.0286    0.8387    0.0000 C   0  0  0  0  0  0  0  0  0  0  0  0
    2.3406   -1.3263    0.0000 C   0  0  0  0  0  0  0  0  0  0  0  0
   -2.3991   -1.3459    0.0000 C   0  0  0  0  0  0  0  0  0  0  0  0
    3.8425   -0.6827    0.0000 C   0  0  0  0  0  0  0  0  0  0  0  0
   -3.8816   -0.6632    0.0000 C   0  0  0  0  0  0  0  0  0  0  0  0
   -5.2274   -2.0090    0.0000 C   0  0  0  0  0  0  0  0  0  0  0  0
    5.1299   -2.0090    0.0000 C   0  0  0  0  0  0  0  0  0  0  0  0
    3.1989   -0.1756    0.0000 C   0  0  0  0  0  0  0  0  0  0  0  0
   -3.2378   -0.1756    0.0000 C   0  0  0  0  0  0  0  0  0  0  0  0
   -2.6332   -3.2964    0.0000 C   0  0  0  0  0  0  0  0  0  0  0  0
    2.5747   -3.2769    0.0000 C   0  0  0  0  0  0  0  0  0  0  0  0
   -4.2132   -3.6474    0.0000 C   0  0  0  0  0  0  0  0  0  0  0  0
    4.1156   -3.6474    0.0000 C   0  0  0  0  0  0  0  0  0  0  0  0
    0.7412    3.8230    0.0000 C   0  0  0  0  0  0  0  0  0  0  0  0
   -0.7022    3.8230    0.0000 C   0  0  0  0  0  0  0  0  0  0  0  0
   -1.4434    2.5747    0.0000 C   0  0  0  0  0  0  0  0  0  0  0  0
    1.4629    2.5552    0.0000 C   0  0  0  0  0  0  0  0  0  0  0  0
    0.0195    4.2521    0.0000 C   0  0  0  0  0  0  0  0  0  0  0  0
   -2.8673   -4.0766    0.0000 C   0  0  0  0  0  0  0  0  0  0  0  0
    2.8478   -4.0961    0.0000 C   0  0  0  0  0  0  0  0  0  0  0  0
   -5.6955   -2.6917    0.0000 C   0  0  0  0  0  0  0  0  0  0  0  0
    5.6565   -2.7112    0.0000 C   0  0  0  0  0  0  0  0  0  0  0  0
   -5.5590   -1.2678    0.0000 C   0  0  0  0  0  0  0  0  0  0  0  0
    5.4809   -1.2874    0.0000 C   0  0  0  0  0  0  0  0  0  0  0  0
   -3.6474   -4.2521    0.0000 C   0  0  0  0  0  0  0  0  0  0  0  0
    3.6474   -4.2326    0.0000 C   0  0  0  0  0  0  0  0  0  0  0  0
   -6.4952   -2.5942    0.0000 C   0  0  0  0  0  0  0  0  0  0  0  0
    6.4562   -2.6332    0.0000 C   0  0  0  0  0  0  0  0  0  0  0  0
   -6.3782   -1.1703    0.0000 C   0  0  0  0  0  0  0  0  0  0  0  0
    6.3196   -1.2093    0.0000 C   0  0  0  0  0  0  0  0  0  0  0  0
   -6.8268   -1.8139    0.0000 C   0  0  0  0  0  0  0  0  0  0  0  0
    6.8268   -1.8725    0.0000 C   0  0  0  0  0  0  0  0  0  0  0  0
  1  8  1  0  0  0  0
  1  9  1  0  0  0  0
  1 10  1  0  0  0  0
  2 17  1  0  0  0  0
  2 25  1  0  0  0  0
  2 35  1  0  0  0  0
  3 18  1  0  0  0  0
  3 26  1  0  0  0  0
  3 36  1  0  0  0  0
  4 45  3  0  0  0  0
  5 46  3  0  0  0  0
  6  7  1  0  0  0  0
  6  8  2  0  0  0  0
  6 11  1  0  0  0  0
  7  9  2  0  0  0  0
  7 12  1  0  0  0  0
  8 19  1  0  0  0  0
  9 20  1  0  0  0  0
 10 27  2  0  0  0  0
 10 28  1  0  0  0  0
 11 14  2  0  0  0  0
 12 13  2  0  0  0  0
 13 24  1  0  0  0  0
 13 30  1  0  0  0  0
 14 23  1  0  0  0  0
 14 29  1  0  0  0  0
 15 17  2  0  0  0  0
 15 21  1  0  0  0  0
 15 32  1  0  0  0  0
 16 18  2  0  0  0  0
 16 22  1  0  0  0  0
 16 31  1  0  0  0  0
 17 34  1  0  0  0  0
 18 33  1  0  0  0  0
 19 29  2  0  0  0  0
 20 30  2  0  0  0  0
 21 25  2  0  0  0  0
 21 39  1  0  0  0  0
 22 26  2  0  0  0  0
 22 40  1  0  0  0  0
 23 31  2  0  0  0  0
 23 37  1  0  0  0  0
 24 32  2  0  0  0  0
 24 38  1  0  0  0  0
 25 41  1  0  0  0  0
 26 42  1  0  0  0  0
 27 43  1  0  0  0  0
 27 46  1  0  0  0  0
 28 44  2  0  0  0  0
 28 45  1  0  0  0  0
 33 37  2  0  0  0  0
 34 38  2  0  0  0  0
 35 50  2  0  0  0  0
 35 52  1  0  0  0  0
 36 51  2  0  0  0  0
 36 53  1  0  0  0  0
 39 48  2  0  0  0  0
 40 49  2  0  0  0  0
 41 54  2  0  0  0  0
 42 55  2  0  0  0  0
 43 47  2  0  0  0  0
 44 47  1  0  0  0  0
 48 54  1  0  0  0  0
 49 55  1  0  0  0  0
 50 56  1  0  0  0  0
 51 57  1  0  0  0  0
 52 58  2  0  0  0  0
 53 59  2  0  0  0  0
 56 60  2  0  0  0  0
 57 61  2  0  0  0  0
 58 60  1  0  0  0  0
 59 61  1  0  0  0  0
M  END
> <PUBCHEM_COMPOUND_ID_TYPE>
0

> <PUBCHEM_TOTAL_CHARGE>
0

> <PUBCHEM_SUBSTANCE_ID>
310949292

> <PUBCHEM_SUBSTANCE_VERSION>
1

> <PUBCHEM_EXT_DATASOURCE_NAME>
4488

> <PUBCHEM_EXT_DATASOURCE_REGID>
SCHEMBL16127482

> <PUBCHEM_SUBSTANCE_COMMENT>
InChI=1S/C56H33N5/c57-34-40-12-11-13-41(35-58)56(40)61-54-28-24-38(36-22-26-52-46(30-36)44-18-7-9-20-50(44)59(52)42-14-3-1-4-15-42)32-48(54)49-33-39(25-29-55(49)61)37-23-27-53-47(31-37)45-19-8-10-21-51(45)60(53)43-16-5-2-6-17-43/h1-33H
InChIKey=RDTOJFPLSVPCPV-UHFFFAOYSA-N

> <PUBCHEM_SUBSTANCE_SYNONYM>
SCHEMBL16127482

> <PUBCHEM_XREF_EXT_ID>
SCHEMBL16127482

> <PUBCHEM_EXT_DATASOURCE_URL>
https://www.surechembl.org/

> <PUBCHEM_EXT_SUBSTANCE_URL>
https://www.surechembl.org/chemical/SCHEMBL16127482

> <PUBCHEM_CID_ASSOCIATIONS>
117614776  1

> <PUBCHEM_COORDINATE_TYPE>
1
3

$$$$
