310949277
  -OEChem-07211613022D

 49 56  0     0  0  0  0  0  0999 V2000
    0.0071    1.1331    0.0000 N   0  0  0  0  0  0  0  0  0  0  0  0
    2.1458    0.6657    0.0000 N   0  0  0  0  0  0  0  0  0  0  0  0
   -2.1316    0.6657    0.0000 N   0  0  0  0  0  0  0  0  0  0  0  0
   -0.0496   -3.0311    0.0000 N   0  0  0  0  0  0  0  0  0  0  0  0
    0.0213    0.3116    0.0000 C   0  0  0  0  0  0  0  0  0  0  0  0
    0.6728    1.6430    0.0000 C   0  0  0  0  0  0  0  0  0  0  0  0
   -0.6728    1.6572    0.0000 C   0  0  0  0  0  0  0  0  0  0  0  0
   -0.4037    2.4362    0.0000 C   0  0  0  0  0  0  0  0  0  0  0  0
    0.4320    2.4220    0.0000 C   0  0  0  0  0  0  0  0  0  0  0  0
    0.7153   -0.0991    0.0000 C   0  0  0  0  0  0  0  0  0  0  0  0
   -0.7153   -0.0708    0.0000 C   0  0  0  0  0  0  0  0  0  0  0  0
    0.7011   -0.9490    0.0000 C   0  0  0  0  0  0  0  0  0  0  0  0
   -0.7153   -0.9065    0.0000 C   0  0  0  0  0  0  0  0  0  0  0  0
   -0.0071   -1.3455    0.0000 C   0  0  0  0  0  0  0  0  0  0  0  0
    1.4659    1.4730    0.0000 C   0  0  0  0  0  0  0  0  0  0  0  0
   -1.4801    1.5014    0.0000 C   0  0  0  0  0  0  0  0  0  0  0  0
   -0.9277    3.0311    0.0000 C   0  0  0  0  0  0  0  0  0  0  0  0
    0.9702    3.0027    0.0000 C   0  0  0  0  0  0  0  0  0  0  0  0
    1.4234   -1.3597    0.0000 C   0  0  0  0  0  0  0  0  0  0  0  0
   -1.4518   -1.3314    0.0000 C   0  0  0  0  0  0  0  0  0  0  0  0
   -2.0467    2.1104    0.0000 C   0  0  0  0  0  0  0  0  0  0  0  0
    2.0325    2.0821    0.0000 C   0  0  0  0  0  0  0  0  0  0  0  0
    1.4377    0.2974    0.0000 C   0  0  0  0  0  0  0  0  0  0  0  0
   -1.4234    0.3116    0.0000 C   0  0  0  0  0  0  0  0  0  0  0  0
   -1.7492    2.8752    0.0000 C   0  0  0  0  0  0  0  0  0  0  0  0
    1.7776    2.8611    0.0000 C   0  0  0  0  0  0  0  0  0  0  0  0
   -0.0354   -2.2238    0.0000 C   0  0  0  0  0  0  0  0  0  0  0  0
    2.8257    1.9121    0.0000 C   0  0  0  0  0  0  0  0  0  0  0  0
   -2.8540    1.9405    0.0000 C   0  0  0  0  0  0  0  0  0  0  0  0
    1.4234   -2.2095    0.0000 C   0  0  0  0  0  0  0  0  0  0  0  0
    2.1316   -0.9631    0.0000 C   0  0  0  0  0  0  0  0  0  0  0  0
   -2.1600   -0.9206    0.0000 C   0  0  0  0  0  0  0  0  0  0  0  0
   -1.4801   -2.1671    0.0000 C   0  0  0  0  0  0  0  0  0  0  0  0
   -3.4064    2.5637    0.0000 C   0  0  0  0  0  0  0  0  0  0  0  0
    3.0523    1.1048    0.0000 C   0  0  0  0  0  0  0  0  0  0  0  0
    3.3780    2.4928    0.0000 C   0  0  0  0  0  0  0  0  0  0  0  0
   -3.1231    1.1473    0.0000 C   0  0  0  0  0  0  0  0  0  0  0  0
    2.1458   -2.6203    0.0000 C   0  0  0  0  0  0  0  0  0  0  0  0
    2.8257   -1.3880    0.0000 C   0  0  0  0  0  0  0  0  0  0  0  0
   -2.9107   -1.3455    0.0000 C   0  0  0  0  0  0  0  0  0  0  0  0
   -2.2166   -2.5637    0.0000 C   0  0  0  0  0  0  0  0  0  0  0  0
    2.8115   -2.2379    0.0000 C   0  0  0  0  0  0  0  0  0  0  0  0
   -2.9107   -2.1671    0.0000 C   0  0  0  0  0  0  0  0  0  0  0  0
    3.8880    0.9348    0.0000 C   0  0  0  0  0  0  0  0  0  0  0  0
   -4.2137    2.3937    0.0000 C   0  0  0  0  0  0  0  0  0  0  0  0
    4.1854    2.3087    0.0000 C   0  0  0  0  0  0  0  0  0  0  0  0
   -3.9446    0.9915    0.0000 C   0  0  0  0  0  0  0  0  0  0  0  0
    4.4545    1.5297    0.0000 C   0  0  0  0  0  0  0  0  0  0  0  0
   -4.4545    1.6005    0.0000 C   0  0  0  0  0  0  0  0  0  0  0  0
  1  5  1  0  0  0  0
  1  6  1  0  0  0  0
  1  7  1  0  0  0  0
  2 23  3  0  0  0  0
  3 24  3  0  0  0  0
  4 27  3  0  0  0  0
  5 10  2  0  0  0  0
  5 11  1  0  0  0  0
  6  9  2  0  0  0  0
  6 15  1  0  0  0  0
  7  8  2  0  0  0  0
  7 16  1  0  0  0  0
  8  9  1  0  0  0  0
  8 17  1  0  0  0  0
  9 18  1  0  0  0  0
 10 12  1  0  0  0  0
 10 23  1  0  0  0  0
 11 13  2  0  0  0  0
 11 24  1  0  0  0  0
 12 14  2  0  0  0  0
 12 19  1  0  0  0  0
 13 14  1  0  0  0  0
 13 20  1  0  0  0  0
 14 27  1  0  0  0  0
 15 22  2  0  0  0  0
 16 21  2  0  0  0  0
 17 25  2  0  0  0  0
 18 26  2  0  0  0  0
 19 30  2  0  0  0  0
 19 31  1  0  0  0  0
 20 32  2  0  0  0  0
 20 33  1  0  0  0  0
 21 25  1  0  0  0  0
 21 29  1  0  0  0  0
 22 26  1  0  0  0  0
 22 28  1  0  0  0  0
 28 35  2  0  0  0  0
 28 36  1  0  0  0  0
 29 34  2  0  0  0  0
 29 37  1  0  0  0  0
 30 38  1  0  0  0  0
 31 39  2  0  0  0  0
 32 40  1  0  0  0  0
 33 41  2  0  0  0  0
 34 45  1  0  0  0  0
 35 44  1  0  0  0  0
 36 46  2  0  0  0  0
 37 47  2  0  0  0  0
 38 42  2  0  0  0  0
 39 42  1  0  0  0  0
 40 43  2  0  0  0  0
 41 43  1  0  0  0  0
 44 48  2  0  0  0  0
 45 49  2  0  0  0  0
 46 48  1  0  0  0  0
 47 49  1  0  0  0  0
M  END
> <PUBCHEM_COMPOUND_ID_TYPE>
0

> <PUBCHEM_TOTAL_CHARGE>
0

> <PUBCHEM_SUBSTANCE_ID>
310949277

> <PUBCHEM_SUBSTANCE_VERSION>
1

> <PUBCHEM_EXT_DATASOURCE_NAME>
4488

> <PUBCHEM_EXT_DATASOURCE_REGID>
SCHEMBL16127467

> <PUBCHEM_SUBSTANCE_COMMENT>
InChI=1S/C45H26N4/c46-27-38-43(32-17-9-3-10-18-32)39(28-47)45(40(29-48)44(38)33-19-11-4-12-20-33)49-41-25-34(30-13-5-1-6-14-30)21-23-36(41)37-24-22-35(26-42(37)49)31-15-7-2-8-16-31/h1-26H
InChIKey=ICZNFWUJUJQAAX-UHFFFAOYSA-N

> <PUBCHEM_SUBSTANCE_SYNONYM>
SCHEMBL16127467

> <PUBCHEM_XREF_EXT_ID>
SCHEMBL16127467

> <PUBCHEM_EXT_DATASOURCE_URL>
https://www.surechembl.org/

> <PUBCHEM_EXT_SUBSTANCE_URL>
https://www.surechembl.org/chemical/SCHEMBL16127467

> <PUBCHEM_CID_ASSOCIATIONS>
117614763  1

> <PUBCHEM_COORDINATE_TYPE>
1
3

$$$$
