310948196
  -OEChem-07211613022D

 52 58  0     0  0  0  0  0  0999 V2000
    4.0021   -1.9707    0.0000 S   0  0  0  0  0  0  0  0  0  0  0  0
   -1.8192   -2.4356    0.0000 F   0  0  0  0  0  0  0  0  0  0  0  0
   -2.9510   -2.7388    0.0000 F   0  0  0  0  0  0  0  0  0  0  0  0
    3.8808    3.3856    0.0000 F   0  0  0  0  0  0  0  0  0  0  0  0
    4.4669    2.3749    0.0000 F   0  0  0  0  0  0  0  0  0  0  0  0
    4.0021    0.8793    0.0000 F   0  0  0  0  0  0  0  0  0  0  0  0
   -0.9702    1.0409    0.0000 O   0  0  0  0  0  0  0  0  0  0  0  0
    2.9106    2.9207    0.0000 O   0  0  0  0  0  0  0  0  0  0  0  0
    3.5776    1.7686    0.0000 O   0  0  0  0  0  0  0  0  0  0  0  0
   -3.4968   -1.0005    0.0000 O   0  0  0  0  0  0  0  0  0  0  0  0
    4.5882   -1.3846    0.0000 O   0  0  0  0  0  0  0  0  0  0  0  0
    3.4159   -2.5569    0.0000 O   0  0  0  0  0  0  0  0  0  0  0  0
    5.2552   -1.2633    0.0000 O   0  0  0  0  0  0  0  0  0  0  0  0
   -1.6776   -0.0707    0.0000 N   0  0  0  0  0  0  0  0  0  0  0  0
   -2.3245   -0.5760    0.0000 N   0  0  0  0  0  0  0  0  0  0  0  0
   -0.3032    2.2133    0.0000 N   0  0  0  0  0  0  0  0  0  0  0  0
   -4.0021   -2.3143    0.0000 N   0  0  0  0  0  0  0  0  0  0  0  0
    0.2627    0.1920    0.0000 C   0  0  0  0  0  0  0  0  0  0  0  0
   -0.1415   -0.5154    0.0000 C   0  0  0  0  0  0  0  0  0  0  0  0
   -0.1415    0.8994    0.0000 C   0  0  0  0  0  0  0  0  0  0  0  0
   -0.9904   -0.5154    0.0000 C   0  0  0  0  0  0  0  0  0  0  0  0
    0.2627    1.6271    0.0000 C   0  0  0  0  0  0  0  0  0  0  0  0
   -2.0616   -1.3037    0.0000 C   0  0  0  0  0  0  0  0  0  0  0  0
    1.1117    1.6271    0.0000 C   0  0  0  0  0  0  0  0  0  0  0  0
   -2.5266   -2.0112    0.0000 C   0  0  0  0  0  0  0  0  0  0  0  0
    1.5159   -0.5154    0.0000 C   0  0  0  0  0  0  0  0  0  0  0  0
    1.1117    0.1516    0.0000 C   0  0  0  0  0  0  0  0  0  0  0  0
   -1.2127   -1.3037    0.0000 C   0  0  0  0  0  0  0  0  0  0  0  0
    0.2830   -1.2229    0.0000 C   0  0  0  0  0  0  0  0  0  0  0  0
    2.3446   -0.5356    0.0000 C   0  0  0  0  0  0  0  0  0  0  0  0
    2.3446    2.3143    0.0000 C   0  0  0  0  0  0  0  0  0  0  0  0
   -1.0309    1.8899    0.0000 C   0  0  0  0  0  0  0  0  0  0  0  0
    2.7691    1.6069    0.0000 C   0  0  0  0  0  0  0  0  0  0  0  0
    1.1117   -1.2229    0.0000 C   0  0  0  0  0  0  0  0  0  0  0  0
    1.5159    2.2941    0.0000 C   0  0  0  0  0  0  0  0  0  0  0  0
   -3.3552   -1.7888    0.0000 C   0  0  0  0  0  0  0  0  0  0  0  0
    3.6786    2.6175    0.0000 C   0  0  0  0  0  0  0  0  0  0  0  0
    3.5978   -1.2430    0.0000 C   0  0  0  0  0  0  0  0  0  0  0  0
    1.5159    0.9197    0.0000 C   0  0  0  0  0  0  0  0  0  0  0  0
    2.7691   -1.2229    0.0000 C   0  0  0  0  0  0  0  0  0  0  0  0
    4.0021   -0.5154    0.0000 C   0  0  0  0  0  0  0  0  0  0  0  0
    2.3649    0.9197    0.0000 C   0  0  0  0  0  0  0  0  0  0  0  0
    2.7691    0.1516    0.0000 C   0  0  0  0  0  0  0  0  0  0  0  0
    3.5776    0.1718    0.0000 C   0  0  0  0  0  0  0  0  0  0  0  0
   -1.6776    0.7782    0.0000 C   0  0  0  0  0  0  0  0  0  0  0  0
   -1.7787    2.2739    0.0000 C   0  0  0  0  0  0  0  0  0  0  0  0
    4.8510   -0.5559    0.0000 C   0  0  0  0  0  0  0  0  0  0  0  0
   -4.7904   -2.0718    0.0000 C   0  0  0  0  0  0  0  0  0  0  0  0
   -4.0021   -3.1228    0.0000 C   0  0  0  0  0  0  0  0  0  0  0  0
    4.6287   -2.5569    0.0000 C   0  0  0  0  0  0  0  0  0  0  0  0
   -5.2552   -2.7388    0.0000 C   0  0  0  0  0  0  0  0  0  0  0  0
   -4.7499   -3.3856    0.0000 C   0  0  0  0  0  0  0  0  0  0  0  0
  1 11  2  0  0  0  0
  1 12  2  0  0  0  0
  1 38  1  0  0  0  0
  1 50  1  0  0  0  0
  2 25  1  0  0  0  0
  3 25  1  0  0  0  0
  4 37  1  0  0  0  0
  5 37  1  0  0  0  0
  6 44  1  0  0  0  0
  7 20  1  0  0  0  0
  7 32  1  0  0  0  0
  8 31  1  0  0  0  0
  8 37  1  0  0  0  0
  9 33  1  0  0  0  0
  9 37  1  0  0  0  0
 10 36  2  0  0  0  0
 13 47  1  0  0  0  0
 14 15  1  0  0  0  0
 14 21  1  0  0  0  0
 14 45  1  0  0  0  0
 15 23  2  0  0  0  0
 16 22  1  0  0  0  0
 16 32  2  0  0  0  0
 17 36  1  0  0  0  0
 17 48  1  0  0  0  0
 17 49  1  0  0  0  0
 18 19  1  0  0  0  0
 18 20  1  0  0  0  0
 18 27  2  0  0  0  0
 19 21  1  0  0  0  0
 19 29  2  0  0  0  0
 20 22  2  0  0  0  0
 21 28  2  0  0  0  0
 22 24  1  0  0  0  0
 23 25  1  0  0  0  0
 23 28  1  0  0  0  0
 24 35  1  0  0  0  0
 24 39  2  0  0  0  0
 25 36  1  0  0  0  0
 26 27  1  0  0  0  0
 26 30  1  0  0  0  0
 26 34  2  0  0  0  0
 29 34  1  0  0  0  0
 30 40  2  0  0  0  0
 30 43  1  0  0  0  0
 31 33  1  0  0  0  0
 31 35  2  0  0  0  0
 32 46  1  0  0  0  0
 33 42  2  0  0  0  0
 38 40  1  0  0  0  0
 38 41  2  0  0  0  0
 39 42  1  0  0  0  0
 41 44  1  0  0  0  0
 41 47  1  0  0  0  0
 43 44  2  0  0  0  0
 48 51  1  0  0  0  0
 49 52  1  0  0  0  0
 51 52  1  0  0  0  0
M  END
> <PUBCHEM_COMPOUND_ID_TYPE>
0

> <PUBCHEM_TOTAL_CHARGE>
0

> <PUBCHEM_SUBSTANCE_ID>
310948196

> <PUBCHEM_SUBSTANCE_VERSION>
1

> <PUBCHEM_EXT_DATASOURCE_NAME>
4488

> <PUBCHEM_EXT_DATASOURCE_REGID>
SCHEMBL16126373

> <PUBCHEM_SUBSTANCE_COMMENT>
InChI=1S/C35H29F5N4O7S/c1-18-41-31(20-7-9-27-28(14-20)51-35(39,40)50-27)32(49-18)23-12-19(21-13-25(36)24(17-45)29(15-21)52(3,47)48)6-8-22(23)26-16-30(42-43(26)2)34(37,38)33(46)44-10-4-5-11-44/h6-9,12-16,45H,4-5,10-11,17H2,1-3H3
InChIKey=PAJZJGBWTWCQNL-UHFFFAOYSA-N

> <PUBCHEM_SUBSTANCE_SYNONYM>
SCHEMBL16126373

> <PUBCHEM_XREF_EXT_ID>
SCHEMBL16126373

> <PUBCHEM_EXT_DATASOURCE_URL>
https://www.surechembl.org/

> <PUBCHEM_EXT_SUBSTANCE_URL>
https://www.surechembl.org/chemical/SCHEMBL16126373

> <PUBCHEM_CID_ASSOCIATIONS>
117613776  1

> <PUBCHEM_COORDINATE_TYPE>
1
3

$$$$
