310932696
  -OEChem-07211613022D

 31 33  0     0  0  0  0  0  0999 V2000
    3.9873   -3.3478    0.0000 O   0  0  0  0  0  0  0  0  0  0  0  0
    2.6331   -0.6395    0.0000 O   0  0  0  0  0  0  0  0  0  0  0  0
    8.4260   -3.4607    0.0000 O   0  0  0  0  0  0  0  0  0  0  0  0
    9.8554   -7.5232    0.0000 O   0  0  0  0  0  0  0  0  0  0  0  0
    4.8901   -2.2194    0.0000 N   0  0  0  0  0  0  0  0  0  0  0  0
    4.8148   -1.3918    0.0000 N   0  0  0  0  0  0  0  0  0  0  0  0
    6.3195   -2.2194    0.0000 N   0  0  0  0  0  0  0  0  0  0  0  0
    7.7113   -4.6644    0.0000 N   0  0  0  0  0  0  0  0  0  0  0  0
    0.0000   -3.0845    0.0000 N   0  0  0  0  0  0  0  0  0  0  0  0
    3.5735   -1.9561    0.0000 C   0  0  0  0  0  0  0  0  0  0  0  0
    4.1378   -2.5579    0.0000 C   0  0  0  0  0  0  0  0  0  0  0  0
    2.7836   -2.0313    0.0000 C   0  0  0  0  0  0  0  0  0  0  0  0
    5.6048   -2.6331    0.0000 C   0  0  0  0  0  0  0  0  0  0  0  0
    3.9873   -1.2414    0.0000 C   0  0  0  0  0  0  0  0  0  0  0  0
    2.2946   -1.3918    0.0000 C   0  0  0  0  0  0  0  0  0  0  0  0
    2.4450   -2.7836    0.0000 C   0  0  0  0  0  0  0  0  0  0  0  0
    5.6048   -3.4607    0.0000 C   0  0  0  0  0  0  0  0  0  0  0  0
    1.4670   -1.5047    0.0000 C   0  0  0  0  0  0  0  0  0  0  0  0
    1.1661   -2.2194    0.0000 C   0  0  0  0  0  0  0  0  0  0  0  0
    6.9966   -3.4607    0.0000 C   0  0  0  0  0  0  0  0  0  0  0  0
    1.6551   -2.8964    0.0000 C   0  0  0  0  0  0  0  0  0  0  0  0
    6.9966   -2.6331    0.0000 C   0  0  0  0  0  0  0  0  0  0  0  0
    6.3195   -3.8368    0.0000 C   0  0  0  0  0  0  0  0  0  0  0  0
    7.7113   -3.8368    0.0000 C   0  0  0  0  0  0  0  0  0  0  0  0
    0.3386   -2.3322    0.0000 C   0  0  0  0  0  0  0  0  0  0  0  0
    2.1442    0.0000    0.0000 C   0  0  0  0  0  0  0  0  0  0  0  0
    8.4260   -5.0782    0.0000 C   0  0  0  0  0  0  0  0  0  0  0  0
    8.4260   -5.9057    0.0000 C   0  0  0  0  0  0  0  0  0  0  0  0
    9.1407   -6.2819    0.0000 C   0  0  0  0  0  0  0  0  0  0  0  0
    9.1784   -7.1095    0.0000 C   0  0  0  0  0  0  0  0  0  0  0  0
   10.5702   -7.1095    0.0000 C   0  0  0  0  0  0  0  0  0  0  0  0
  1 11  1  0  0  0  0
  2 15  1  0  0  0  0
  2 26  1  0  0  0  0
  3 24  2  0  0  0  0
  4 30  1  0  0  0  0
  4 31  1  0  0  0  0
  5  6  1  0  0  0  0
  5 11  1  0  0  0  0
  5 13  1  0  0  0  0
  6 14  2  0  0  0  0
  7 13  2  0  0  0  0
  7 22  1  0  0  0  0
  8 24  1  0  0  0  0
  8 27  1  0  0  0  0
  9 25  3  0  0  0  0
 10 11  2  0  0  0  0
 10 12  1  0  0  0  0
 10 14  1  0  0  0  0
 12 15  1  0  0  0  0
 12 16  2  0  0  0  0
 13 17  1  0  0  0  0
 15 18  2  0  0  0  0
 16 21  1  0  0  0  0
 17 23  2  0  0  0  0
 18 19  1  0  0  0  0
 19 21  2  0  0  0  0
 19 25  1  0  0  0  0
 20 22  2  0  0  0  0
 20 23  1  0  0  0  0
 20 24  1  0  0  0  0
 27 28  1  0  0  0  0
 28 29  1  0  0  0  0
 29 30  1  0  0  0  0
M  END
> <PUBCHEM_COMPOUND_ID_TYPE>
0

> <PUBCHEM_TOTAL_CHARGE>
0

> <PUBCHEM_SUBSTANCE_ID>
310932696

> <PUBCHEM_SUBSTANCE_VERSION>
1

> <PUBCHEM_EXT_DATASOURCE_NAME>
4488

> <PUBCHEM_EXT_DATASOURCE_REGID>
SCHEMBL16110078

> <PUBCHEM_SUBSTANCE_COMMENT>
InChI=1S/C22H23N5O4/c1-30-10-4-3-9-24-21(28)16-6-8-20(25-13-16)27-22(29)18(14-26-27)17-7-5-15(12-23)11-19(17)31-2/h5-8,11,13-14,29H,3-4,9-10H2,1-2H3,(H,24,28)
InChIKey=FNJWGDAJEDBLPB-UHFFFAOYSA-N

> <PUBCHEM_SUBSTANCE_SYNONYM>
SCHEMBL16110078

> <PUBCHEM_XREF_EXT_ID>
SCHEMBL16110078

> <PUBCHEM_EXT_DATASOURCE_URL>
https://www.surechembl.org/

> <PUBCHEM_EXT_SUBSTANCE_URL>
https://www.surechembl.org/chemical/SCHEMBL16110078

> <PUBCHEM_CID_ASSOCIATIONS>
117601206  1

> <PUBCHEM_COORDINATE_TYPE>
1
3

$$$$
