310949864
  -OEChem-07211613022D

 31 35  0     0  0  0  0  0  0999 V2000
   -0.8646    1.2173    0.0000 N   0  0  0  0  0  0  0  0  0  0  0  0
   -0.8646    2.5591    0.0000 N   0  0  0  0  0  0  0  0  0  0  0  0
    0.9337    1.2173    0.0000 N   0  0  0  0  0  0  0  0  0  0  0  0
   -0.1037   -1.1481    0.0000 N   0  0  0  0  0  0  0  0  0  0  0  0
   -0.3804    1.8951    0.0000 C   0  0  0  0  0  0  0  0  0  0  0  0
   -1.6668    1.4801    0.0000 C   0  0  0  0  0  0  0  0  0  0  0  0
    0.4495    1.8951    0.0000 C   0  0  0  0  0  0  0  0  0  0  0  0
   -1.6530    2.3101    0.0000 C   0  0  0  0  0  0  0  0  0  0  0  0
   -0.6156    0.4426    0.0000 C   0  0  0  0  0  0  0  0  0  0  0  0
   -2.3585    1.0651    0.0000 C   0  0  0  0  0  0  0  0  0  0  0  0
   -0.0069    2.5591    0.0000 C   0  0  0  0  0  0  0  0  0  0  0  0
    1.2657    1.9504    0.0000 C   0  0  0  0  0  0  0  0  0  0  0  0
   -2.3861    2.6974    0.0000 C   0  0  0  0  0  0  0  0  0  0  0  0
   -1.1688   -0.1937    0.0000 C   0  0  0  0  0  0  0  0  0  0  0  0
    0.2006    0.2490    0.0000 C   0  0  0  0  0  0  0  0  0  0  0  0
   -3.0778    1.4801    0.0000 C   0  0  0  0  0  0  0  0  0  0  0  0
   -3.0778    2.2962    0.0000 C   0  0  0  0  0  0  0  0  0  0  0  0
    0.3389    3.3060    0.0000 C   0  0  0  0  0  0  0  0  0  0  0  0
    1.6254    2.6974    0.0000 C   0  0  0  0  0  0  0  0  0  0  0  0
   -0.9061   -0.9683    0.0000 C   0  0  0  0  0  0  0  0  0  0  0  0
    0.4495   -0.5257    0.0000 C   0  0  0  0  0  0  0  0  0  0  0  0
    1.1550    3.3752    0.0000 C   0  0  0  0  0  0  0  0  0  0  0  0
    0.1591   -1.9228    0.0000 C   0  0  0  0  0  0  0  0  0  0  0  0
    0.9614   -2.1026    0.0000 C   0  0  0  0  0  0  0  0  0  0  0  0
    1.1135   -2.9187    0.0000 C   0  0  0  0  0  0  0  0  0  0  0  0
    1.4593   -1.4247    0.0000 C   0  0  0  0  0  0  0  0  0  0  0  0
    1.7775   -3.3752    0.0000 C   0  0  0  0  0  0  0  0  0  0  0  0
    2.2755   -1.2865    0.0000 C   0  0  0  0  0  0  0  0  0  0  0  0
    2.9256   -1.7429    0.0000 C   0  0  0  0  0  0  0  0  0  0  0  0
    2.6075   -3.2369    0.0000 C   0  0  0  0  0  0  0  0  0  0  0  0
    3.0778   -2.5452    0.0000 C   0  0  0  0  0  0  0  0  0  0  0  0
  1  5  1  0  0  0  0
  1  6  1  0  0  0  0
  1  9  1  0  0  0  0
  2  5  2  0  0  0  0
  2  8  1  0  0  0  0
  3  7  1  0  0  0  0
  4 20  1  0  0  0  0
  4 21  1  0  0  0  0
  4 23  1  0  0  0  0
  5  7  1  0  0  0  0
  6  8  1  0  0  0  0
  6 10  2  0  0  0  0
  7 11  1  0  0  0  0
  7 12  1  0  0  0  0
  8 13  2  0  0  0  0
  9 14  1  0  0  0  0
  9 15  1  0  0  0  0
 10 16  1  0  0  0  0
 11 18  1  0  0  0  0
 12 19  1  0  0  0  0
 13 17  1  0  0  0  0
 14 20  1  0  0  0  0
 15 21  1  0  0  0  0
 16 17  2  0  0  0  0
 18 22  1  0  0  0  0
 19 22  1  0  0  0  0
 23 24  1  0  0  0  0
 24 25  1  0  0  0  0
 24 26  1  0  0  0  0
 25 27  1  0  0  0  0
 26 28  1  0  0  0  0
 27 30  1  0  0  0  0
 28 29  1  0  0  0  0
 29 31  1  0  0  0  0
 30 31  1  0  0  0  0
M  END
> <PUBCHEM_COMPOUND_ID_TYPE>
0

> <PUBCHEM_TOTAL_CHARGE>
0

> <PUBCHEM_SUBSTANCE_ID>
310949864

> <PUBCHEM_SUBSTANCE_VERSION>
1

> <PUBCHEM_EXT_DATASOURCE_NAME>
4488

> <PUBCHEM_EXT_DATASOURCE_REGID>
SCHEMBL16128070

> <PUBCHEM_SUBSTANCE_COMMENT>
InChI=1S/C27H42N4/c28-27(17-9-4-10-18-27)26-29-24-13-7-8-14-25(24)31(26)23-15-19-30(20-16-23)21-22-11-5-2-1-3-6-12-22/h7-8,13-14,22-23H,1-6,9-12,15-21,28H2
InChIKey=SZWQNEMTDMFEDN-UHFFFAOYSA-N

> <PUBCHEM_SUBSTANCE_SYNONYM>
SCHEMBL16128070

> <PUBCHEM_XREF_EXT_ID>
SCHEMBL16128070

> <PUBCHEM_EXT_DATASOURCE_URL>
https://www.surechembl.org/

> <PUBCHEM_EXT_SUBSTANCE_URL>
https://www.surechembl.org/chemical/SCHEMBL16128070

> <PUBCHEM_CID_ASSOCIATIONS>
86272621  1

> <PUBCHEM_COORDINATE_TYPE>
1
3

$$$$
