310944157
  -OEChem-07211613022D

 33 37  0     1  0  0  0  0  0999 V2000
    2.1226    0.1985    0.0000 O   0  0  0  0  0  0  0  0  0  0  0  0
    5.1769   -0.9483    0.0000 O   0  0  0  0  0  0  0  0  0  0  0  0
    5.4414    0.4962    0.0000 O   0  0  0  0  0  0  0  0  0  0  0  0
   -1.2736   -1.4114    0.0000 O   0  0  0  0  0  0  0  0  0  0  0  0
    3.0488   -1.1467    0.0000 N   0  0  0  0  0  0  0  0  0  0  0  0
    0.0276   -0.8601    0.0000 N   0  0  0  0  0  0  0  0  0  0  0  0
   -4.1294    1.0696    0.0000 N   0  0  0  0  0  0  0  0  0  0  0  0
   -3.4127   -0.1764    0.0000 N   0  0  0  0  0  0  0  0  0  0  0  0
   -4.8792    0.7277    0.0000 N   0  0  0  0  0  0  0  0  0  0  0  0
   -5.4414    1.3453    0.0000 N   0  0  0  0  0  0  0  0  0  0  0  0
   -5.0225    2.0619    0.0000 N   0  0  0  0  0  0  0  0  0  0  0  0
    1.6374   -1.2350    0.0000 C   0  0  0  0  0  0  0  0  0  0  0  0
    2.2219   -0.6284    0.0000 C   0  0  0  0  0  0  0  0  0  0  0  0
    3.8316   -0.8931    0.0000 C   0  0  0  0  0  0  0  0  0  0  0  0
    1.8358   -1.9737    0.0000 C   0  0  0  0  0  0  0  0  0  0  0  0
    2.6518   -2.0619    0.0000 C   0  0  0  0  0  0  0  0  0  0  0  0
    1.0641   -1.8414    0.0000 C   0  0  0  0  0  0  0  0  0  0  0  0
    1.4059   -0.4521    0.0000 C   0  0  0  0  0  0  0  0  0  0  0  0
    4.1073   -0.1213    0.0000 C   0  0  0  0  0  0  0  0  0  0  0  0
    4.4822   -1.4004    0.0000 C   0  0  0  0  0  0  0  0  0  0  0  0
    4.9232   -0.1764    0.0000 C   0  0  0  0  0  0  0  0  0  0  0  0
    0.2591   -1.6429    0.0000 C   0  0  0  0  0  0  0  0  0  0  0  0
    0.6009   -0.2537    0.0000 C   0  0  0  0  0  0  0  0  0  0  0  0
   -0.5458   -0.1764    0.0000 C   0  0  0  0  0  0  0  0  0  0  0  0
   -1.2516   -0.5733    0.0000 C   0  0  3  0  0  0  0  0  0  0  0  0
   -1.9902   -0.1654    0.0000 C   0  0  0  0  0  0  0  0  0  0  0  0
    3.6442    0.5623    0.0000 C   0  0  0  0  0  0  0  0  0  0  0  0
   -3.4127    0.6726    0.0000 C   0  0  0  0  0  0  0  0  0  0  0  0
   -2.6849   -0.5733    0.0000 C   0  0  0  0  0  0  0  0  0  0  0  0
   -1.9902    0.6615    0.0000 C   0  0  0  0  0  0  0  0  0  0  0  0
   -2.7070    1.0696    0.0000 C   0  0  0  0  0  0  0  0  0  0  0  0
   -4.2176    1.8965    0.0000 C   0  0  0  0  0  0  0  0  0  0  0  0
   -2.4314   -1.9186    0.0000 C   0  0  0  0  0  0  0  0  0  0  0  0
  1 13  2  0  0  0  0
  2 20  1  0  0  0  0
  2 21  1  0  0  0  0
  3 21  2  0  0  0  0
 25  4  1  6  0  0  0
  4 33  1  0  0  0  0
  5 13  1  0  0  0  0
  5 14  1  0  0  0  0
  5 16  1  0  0  0  0
  6 22  1  0  0  0  0
  6 23  1  0  0  0  0
  6 24  1  0  0  0  0
  7  9  1  0  0  0  0
  7 28  1  0  0  0  0
  7 32  1  0  0  0  0
  8 28  2  0  0  0  0
  8 29  1  0  0  0  0
  9 10  2  0  0  0  0
 10 11  1  0  0  0  0
 11 32  2  0  0  0  0
 12 13  1  0  0  0  0
 12 15  1  0  0  0  0
 12 17  1  0  0  0  0
 12 18  1  0  0  0  0
 14 19  2  0  0  0  0
 14 20  1  0  0  0  0
 15 16  1  0  0  0  0
 17 22  1  0  0  0  0
 18 23  1  0  0  0  0
 19 21  1  0  0  0  0
 19 27  1  0  0  0  0
 24 25  1  0  0  0  0
 25 26  1  0  0  0  0
 26 29  2  0  0  0  0
 26 30  1  0  0  0  0
 28 31  1  0  0  0  0
 30 31  2  0  0  0  0
M  END
> <PUBCHEM_COMPOUND_ID_TYPE>
0

> <PUBCHEM_TOTAL_CHARGE>
0

> <PUBCHEM_SUBSTANCE_ID>
310944157

> <PUBCHEM_SUBSTANCE_VERSION>
1

> <PUBCHEM_EXT_DATASOURCE_NAME>
4488

> <PUBCHEM_EXT_DATASOURCE_REGID>
SCHEMBL16122232

> <PUBCHEM_SUBSTANCE_COMMENT>
InChI=1S/C22H27N7O4/c1-15-17(13-33-20(15)30)28-10-7-22(21(28)31)5-8-27(9-6-22)12-18(32-2)16-3-4-19(23-11-16)29-14-24-25-26-29/h3-4,11,14,18H,5-10,12-13H2,1-2H3/t18-/m0/s1
InChIKey=OMNPUCBFIVKVPZ-SFHVURJKSA-N

> <PUBCHEM_SUBSTANCE_SYNONYM>
SCHEMBL16122232

> <PUBCHEM_XREF_EXT_ID>
SCHEMBL16122232

> <PUBCHEM_EXT_DATASOURCE_URL>
https://www.surechembl.org/

> <PUBCHEM_EXT_SUBSTANCE_URL>
https://www.surechembl.org/chemical/SCHEMBL16122232

> <PUBCHEM_CID_ASSOCIATIONS>
117610438  1

> <PUBCHEM_COORDINATE_TYPE>
1
3

> <PUBCHEM_BONDANNOTATIONS>
25  4  6

$$$$
