310932777
  -OEChem-07211613022D

 33 36  0     0  0  0  0  0  0999 V2000
    6.1713   -2.7721    0.0000 O   0  0  0  0  0  0  0  0  0  0  0  0
    2.1121   -4.4882    0.0000 O   0  0  0  0  0  0  0  0  0  0  0  0
    5.8083   -4.1912    0.0000 N   0  0  0  0  0  0  0  0  0  0  0  0
    6.2043   -4.8842    0.0000 N   0  0  0  0  0  0  0  0  0  0  0  0
    4.5212   -4.7192    0.0000 N   0  0  0  0  0  0  0  0  0  0  0  0
    2.2441   -3.0691    0.0000 N   0  0  0  0  0  0  0  0  0  0  0  0
    0.4950   -0.7260    0.0000 N   0  0  0  0  0  0  0  0  0  0  0  0
    9.9005   -1.4521    0.0000 N   0  0  0  0  0  0  0  0  0  0  0  0
    7.0953   -3.8942    0.0000 C   0  0  0  0  0  0  0  0  0  0  0  0
    6.3363   -3.5642    0.0000 C   0  0  0  0  0  0  0  0  0  0  0  0
    7.7884   -3.4981    0.0000 C   0  0  0  0  0  0  0  0  0  0  0  0
    4.9832   -4.0922    0.0000 C   0  0  0  0  0  0  0  0  0  0  0  0
    6.9963   -4.7192    0.0000 C   0  0  0  0  0  0  0  0  0  0  0  0
    7.7884   -2.6731    0.0000 C   0  0  0  0  0  0  0  0  0  0  0  0
    3.3992   -3.9272    0.0000 C   0  0  0  0  0  0  0  0  0  0  0  0
    4.6862   -3.3332    0.0000 C   0  0  0  0  0  0  0  0  0  0  0  0
    8.5144   -3.8942    0.0000 C   0  0  0  0  0  0  0  0  0  0  0  0
    2.5741   -3.8282    0.0000 C   0  0  0  0  0  0  0  0  0  0  0  0
    3.6962   -4.6532    0.0000 C   0  0  0  0  0  0  0  0  0  0  0  0
    3.8612   -3.2671    0.0000 C   0  0  0  0  0  0  0  0  0  0  0  0
    8.5144   -2.2771    0.0000 C   0  0  0  0  0  0  0  0  0  0  0  0
    9.2074   -2.6731    0.0000 C   0  0  0  0  0  0  0  0  0  0  0  0
    9.2074   -3.4981    0.0000 C   0  0  0  0  0  0  0  0  0  0  0  0
    7.0953   -2.2771    0.0000 C   0  0  0  0  0  0  0  0  0  0  0  0
    1.4521   -3.0031    0.0000 C   0  0  0  0  0  0  0  0  0  0  0  0
    2.7392   -2.4421    0.0000 C   0  0  0  0  0  0  0  0  0  0  0  0
    1.6171   -1.5841    0.0000 C   0  0  0  0  0  0  0  0  0  0  0  0
    1.1221   -2.2441    0.0000 C   0  0  0  0  0  0  0  0  0  0  0  0
    2.4421   -1.6831    0.0000 C   0  0  0  0  0  0  0  0  0  0  0  0
    9.9005   -2.2771    0.0000 C   0  0  0  0  0  0  0  0  0  0  0  0
    1.2871   -0.8251    0.0000 C   0  0  0  0  0  0  0  0  0  0  0  0
    0.1650    0.0000    0.0000 C   0  0  0  0  0  0  0  0  0  0  0  0
    0.0000   -1.3861    0.0000 C   0  0  0  0  0  0  0  0  0  0  0  0
  1 10  1  0  0  0  0
  2 18  2  0  0  0  0
  3  4  1  0  0  0  0
  3 10  1  0  0  0  0
  3 12  1  0  0  0  0
  4 13  2  0  0  0  0
  5 12  1  0  0  0  0
  5 19  2  0  0  0  0
  6 18  1  0  0  0  0
  6 25  1  0  0  0  0
  6 26  1  0  0  0  0
  7 31  1  0  0  0  0
  7 32  1  0  0  0  0
  7 33  1  0  0  0  0
  8 30  3  0  0  0  0
  9 10  2  0  0  0  0
  9 11  1  0  0  0  0
  9 13  1  0  0  0  0
 11 14  2  0  0  0  0
 11 17  1  0  0  0  0
 12 16  2  0  0  0  0
 14 21  1  0  0  0  0
 14 24  1  0  0  0  0
 15 18  1  0  0  0  0
 15 19  1  0  0  0  0
 15 20  2  0  0  0  0
 16 20  1  0  0  0  0
 17 23  2  0  0  0  0
 21 22  2  0  0  0  0
 22 23  1  0  0  0  0
 22 30  1  0  0  0  0
 25 28  1  0  0  0  0
 26 29  1  0  0  0  0
 27 28  1  0  0  0  0
 27 29  1  0  0  0  0
 27 31  1  0  0  0  0
M  END
> <PUBCHEM_COMPOUND_ID_TYPE>
0

> <PUBCHEM_TOTAL_CHARGE>
0

> <PUBCHEM_SUBSTANCE_ID>
310932777

> <PUBCHEM_SUBSTANCE_VERSION>
1

> <PUBCHEM_EXT_DATASOURCE_NAME>
4488

> <PUBCHEM_EXT_DATASOURCE_REGID>
SCHEMBL16110163

> <PUBCHEM_SUBSTANCE_COMMENT>
InChI=1S/C25H28N6O2/c1-17-12-19(13-26)4-6-21(17)22-15-28-31(25(22)33)23-7-5-20(14-27-23)24(32)30-10-8-18(9-11-30)16-29(2)3/h4-7,12,14-15,18,33H,8-11,16H2,1-3H3
InChIKey=BVEFFRUULFYQMT-UHFFFAOYSA-N

> <PUBCHEM_SUBSTANCE_SYNONYM>
SCHEMBL16110163

> <PUBCHEM_XREF_EXT_ID>
SCHEMBL16110163

> <PUBCHEM_EXT_DATASOURCE_URL>
https://www.surechembl.org/

> <PUBCHEM_EXT_SUBSTANCE_URL>
https://www.surechembl.org/chemical/SCHEMBL16110163

> <PUBCHEM_CID_ASSOCIATIONS>
117601272  1

> <PUBCHEM_COORDINATE_TYPE>
1
3

$$$$
