310939773
  -OEChem-07211613022D

 13 13  0     0  0  0  0  0  0999 V2000
   -2.0116   -0.7412    0.0000 Cl  0  0  0  0  0  0  0  0  0  0  0  0
   -3.4405   -1.5662    0.0000 O   0  0  0  0  0  0  0  0  0  0  0  0
   -2.0116   -3.2162    0.0000 C   0  0  0  0  0  0  0  0  0  0  0  0
   -2.0116   -4.0412    0.0000 C   0  0  0  0  0  0  0  0  0  0  0  0
   -2.0116   -1.5662    0.0000 C   0  0  0  0  0  0  0  0  0  0  0  0
   -2.7261   -1.9787    0.0000 C   0  0  0  0  0  0  0  0  0  0  0  0
   -1.2971   -1.9787    0.0000 C   0  0  0  0  0  0  0  0  0  0  0  0
   -2.7261   -2.8037    0.0000 C   0  0  0  0  0  0  0  0  0  0  0  0
   -1.2971   -2.8037    0.0000 C   0  0  0  0  0  0  0  0  0  0  0  0
   -1.1866   -4.0412    0.0000 C   0  0  0  0  0  0  0  0  0  0  0  0
   -2.8366   -4.0412    0.0000 C   0  0  0  0  0  0  0  0  0  0  0  0
   -2.0116   -4.8662    0.0000 C   0  0  0  0  0  0  0  0  0  0  0  0
   -0.5827   -1.5662    0.0000 C   0  0  0  0  0  0  0  0  0  0  0  0
  1  5  1  0  0  0  0
  2  6  1  0  0  0  0
  3  4  1  0  0  0  0
  3  8  1  0  0  0  0
  3  9  2  0  0  0  0
  4 10  1  0  0  0  0
  4 11  1  0  0  0  0
  4 12  1  0  0  0  0
  5  6  1  0  0  0  0
  5  7  2  0  0  0  0
  6  8  2  0  0  0  0
  7  9  1  0  0  0  0
  7 13  1  0  0  0  0
M  END
> <PUBCHEM_COMPOUND_ID_TYPE>
0

> <PUBCHEM_TOTAL_CHARGE>
0

> <PUBCHEM_SUBSTANCE_ID>
310939773

> <PUBCHEM_SUBSTANCE_VERSION>
1

> <PUBCHEM_EXT_DATASOURCE_NAME>
4488

> <PUBCHEM_EXT_DATASOURCE_REGID>
SCHEMBL16117703

> <PUBCHEM_SUBSTANCE_COMMENT>
InChI=1S/C11H15ClO/c1-7-5-8(11(2,3)4)6-9(13)10(7)12/h5-6,13H,1-4H3
InChIKey=MAZKFBOQPWYCGQ-UHFFFAOYSA-N

> <PUBCHEM_SUBSTANCE_SYNONYM>
SCHEMBL16117703

> <PUBCHEM_XREF_EXT_ID>
SCHEMBL16117703

> <PUBCHEM_EXT_DATASOURCE_URL>
https://www.surechembl.org/

> <PUBCHEM_EXT_SUBSTANCE_URL>
https://www.surechembl.org/chemical/SCHEMBL16117703

> <PUBCHEM_CID_ASSOCIATIONS>
117606994  1

> <PUBCHEM_COORDINATE_TYPE>
1
3

> <PUBCHEM_BONDANNOTATIONS>
4  10  3
4  11  3

$$$$
