310944067
  -OEChem-07211613022D

 26 29  0     1  0  0  0  0  0999 V2000
   -4.3263   -1.7305    0.0000 F   0  0  0  0  0  0  0  0  0  0  0  0
    2.8842    1.6781    0.0000 O   0  0  0  0  0  0  0  0  0  0  0  0
    0.6949    0.3933    0.0000 N   0  0  0  0  0  0  0  0  0  0  0  0
   -2.2155    0.3801    0.0000 N   0  0  0  0  0  0  0  0  0  0  0  0
   -2.2942    1.2192    0.0000 N   0  0  0  0  0  0  0  0  0  0  0  0
    1.4421    0.0262    0.0000 C   0  0  3  0  0  0  0  0  0  0  0  0
    0.7210    1.2585    0.0000 C   0  0  3  0  0  0  0  0  0  0  0  0
   -2.9890    0.0655    0.0000 C   0  0  0  0  0  0  0  0  0  0  0  0
   -3.5528    0.6818    0.0000 C   0  0  0  0  0  0  0  0  0  0  0  0
   -0.0131    0.0000    0.0000 C   0  0  0  0  0  0  0  0  0  0  0  0
    2.1500    1.2585    0.0000 C   0  0  0  0  0  0  0  0  0  0  0  0
    1.4159    1.6518    0.0000 C   0  0  0  0  0  0  0  0  0  0  0  0
    2.1369    0.4195    0.0000 C   0  0  0  0  0  0  0  0  0  0  0  0
    1.6126    0.4982    0.0000 C   0  0  0  0  0  0  0  0  0  0  0  0
    1.2585    1.0881    0.0000 C   0  0  0  0  0  0  0  0  0  0  0  0
   -0.7735    0.4064    0.0000 C   0  0  3  0  0  0  0  0  0  0  0  0
   -1.4684    0.0000    0.0000 C   0  0  0  0  0  0  0  0  0  0  0  0
   -3.1201    1.4159    0.0000 C   0  0  0  0  0  0  0  0  0  0  0  0
   -3.2382   -0.7210    0.0000 C   0  0  0  0  0  0  0  0  0  0  0  0
   -4.3655    0.4982    0.0000 C   0  0  0  0  0  0  0  0  0  0  0  0
   -4.0640   -0.8915    0.0000 C   0  0  0  0  0  0  0  0  0  0  0  0
   -4.6146   -0.2884    0.0000 C   0  0  0  0  0  0  0  0  0  0  0  0
   -0.7604    1.1799    0.0000 C   0  0  0  0  0  0  0  0  0  0  0  0
    3.4741    1.3765    0.0000 C   0  0  0  0  0  0  0  0  0  0  0  0
    4.0378    1.7305    0.0000 C   0  0  0  0  0  0  0  0  0  0  0  0
    4.6146    1.3372    0.0000 C   0  0  0  0  0  0  0  0  0  0  0  0
  1 21  1  0  0  0  0
 11  2  1  1  0  0  0
  2 24  1  0  0  0  0
  6  3  1  6  0  0  0
  7  3  1  6  0  0  0
  3 10  1  0  0  0  0
  4  5  1  0  0  0  0
  4  8  1  0  0  0  0
  4 17  1  0  0  0  0
  5 18  2  0  0  0  0
  6 13  1  0  0  0  0
  6 14  1  0  0  0  0
  7 12  1  0  0  0  0
  7 15  1  0  0  0  0
  8  9  2  0  0  0  0
  8 19  1  0  0  0  0
  9 18  1  0  0  0  0
  9 20  1  0  0  0  0
 10 16  1  0  0  0  0
 11 12  1  0  0  0  0
 11 13  1  0  0  0  0
 14 15  1  0  0  0  0
 16 17  1  0  0  0  0
 16 23  1  6  0  0  0
 19 21  2  0  0  0  0
 20 22  2  0  0  0  0
 21 22  1  0  0  0  0
 24 25  1  0  0  0  0
 25 26  2  0  0  0  0
M  END
> <PUBCHEM_COMPOUND_ID_TYPE>
0

> <PUBCHEM_TOTAL_CHARGE>
0

> <PUBCHEM_SUBSTANCE_ID>
310944067

> <PUBCHEM_SUBSTANCE_VERSION>
1

> <PUBCHEM_EXT_DATASOURCE_NAME>
4488

> <PUBCHEM_EXT_DATASOURCE_REGID>
SCHEMBL16122142

> <PUBCHEM_SUBSTANCE_COMMENT>
InChI=1S/C21H28FN3O/c1-3-8-26-20-10-18-6-7-19(11-20)24(18)13-15(2)14-25-21-9-17(22)5-4-16(21)12-23-25/h3-5,9,12,15,18-20H,1,6-8,10-11,13-14H2,2H3/t15-,18-,19+,20+/m1/s1
InChIKey=FURWWEAHIILBDO-XCLNPWKQSA-N

> <PUBCHEM_SUBSTANCE_SYNONYM>
SCHEMBL16122142

> <PUBCHEM_XREF_EXT_ID>
SCHEMBL16122142

> <PUBCHEM_EXT_DATASOURCE_URL>
https://www.surechembl.org/

> <PUBCHEM_EXT_SUBSTANCE_URL>
https://www.surechembl.org/chemical/SCHEMBL16122142

> <PUBCHEM_CID_ASSOCIATIONS>
117610363  1

> <PUBCHEM_COORDINATE_TYPE>
1
3

> <PUBCHEM_BONDANNOTATIONS>
16  23  6
11  2  5
6  3  6
7  3  6

$$$$
