310944831
  -OEChem-07211613022D

 36 40  0     0  0  0  0  0  0999 V2000
   -0.4349    3.4365    0.0000 F   0  0  0  0  0  0  0  0  0  0  0  0
    0.3076    0.6682    0.0000 F   0  0  0  0  0  0  0  0  0  0  0  0
   -0.2439   -3.4790    0.0000 O   0  0  0  0  0  0  0  0  0  0  0  0
    2.3017    2.6940    0.0000 O   0  0  0  0  0  0  0  0  0  0  0  0
   -1.1031    1.0394    0.0000 N   0  0  0  0  0  0  0  0  0  0  0  0
   -0.6258    0.3712    0.0000 N   0  0  0  0  0  0  0  0  0  0  0  0
   -0.0954   -1.3046    0.0000 N   0  0  0  0  0  0  0  0  0  0  0  0
   -1.4743   -1.6758    0.0000 N   0  0  0  0  0  0  0  0  0  0  0  0
    0.9121   -2.3229    0.0000 N   0  0  0  0  0  0  0  0  0  0  0  0
    2.9593   -1.5804    0.0000 N   0  0  0  0  0  0  0  0  0  0  0  0
    2.8426   -0.7637    0.0000 N   0  0  0  0  0  0  0  0  0  0  0  0
   -1.1137   -0.2758    0.0000 C   0  0  0  0  0  0  0  0  0  0  0  0
   -1.8880   -0.0106    0.0000 C   0  0  0  0  0  0  0  0  0  0  0  0
   -1.8773    0.8167    0.0000 C   0  0  0  0  0  0  0  0  0  0  0  0
   -0.8910   -1.0606    0.0000 C   0  0  0  0  0  0  0  0  0  0  0  0
   -0.8910    1.8561    0.0000 C   0  0  0  0  0  0  0  0  0  0  0  0
   -0.0954    2.0789    0.0000 C   0  0  0  0  0  0  0  0  0  0  0  0
   -2.6093   -0.4137    0.0000 C   0  0  0  0  0  0  0  0  0  0  0  0
   -2.6093    1.2092    0.0000 C   0  0  0  0  0  0  0  0  0  0  0  0
    0.1166   -2.0683    0.0000 C   0  0  0  0  0  0  0  0  0  0  0  0
   -0.4561   -2.6729    0.0000 C   0  0  0  0  0  0  0  0  0  0  0  0
    0.1166    2.8638    0.0000 C   0  0  0  0  0  0  0  0  0  0  0  0
    0.4879    1.4955    0.0000 C   0  0  0  0  0  0  0  0  0  0  0  0
   -3.2987   -0.0212    0.0000 C   0  0  0  0  0  0  0  0  0  0  0  0
   -3.2987    0.8061    0.0000 C   0  0  0  0  0  0  0  0  0  0  0  0
   -1.2622   -2.4501    0.0000 C   0  0  0  0  0  0  0  0  0  0  0  0
    1.4850    2.5032    0.0000 C   0  0  0  0  0  0  0  0  0  0  0  0
    0.9121    3.0759    0.0000 C   0  0  0  0  0  0  0  0  0  0  0  0
    1.2834    1.7183    0.0000 C   0  0  0  0  0  0  0  0  0  0  0  0
    1.5485   -1.7819    0.0000 C   0  0  0  0  0  0  0  0  0  0  0  0
    2.3335   -2.0683    0.0000 C   0  0  0  0  0  0  0  0  0  0  0  0
    1.4425   -0.9546    0.0000 C   0  0  0  0  0  0  0  0  0  0  0  0
    0.5410   -3.7017    0.0000 C   0  0  0  0  0  0  0  0  0  0  0  0
    2.5137    3.5108    0.0000 C   0  0  0  0  0  0  0  0  0  0  0  0
    2.0683   -0.4455    0.0000 C   0  0  0  0  0  0  0  0  0  0  0  0
    3.2987    3.7017    0.0000 C   0  0  0  0  0  0  0  0  0  0  0  0
  1 22  1  0  0  0  0
  2 23  1  0  0  0  0
  3 21  1  0  0  0  0
  3 33  1  0  0  0  0
  4 27  1  0  0  0  0
  4 34  1  0  0  0  0
  5  6  1  0  0  0  0
  5 14  1  0  0  0  0
  5 16  1  0  0  0  0
  6 12  2  0  0  0  0
  7 15  2  0  0  0  0
  7 20  1  0  0  0  0
  8 15  1  0  0  0  0
  8 26  2  0  0  0  0
  9 20  1  0  0  0  0
  9 30  1  0  0  0  0
 10 11  2  0  0  0  0
 10 31  1  0  0  0  0
 11 35  1  0  0  0  0
 12 13  1  0  0  0  0
 12 15  1  0  0  0  0
 13 14  2  0  0  0  0
 13 18  1  0  0  0  0
 14 19  1  0  0  0  0
 16 17  1  0  0  0  0
 17 22  2  0  0  0  0
 17 23  1  0  0  0  0
 18 24  2  0  0  0  0
 19 25  2  0  0  0  0
 20 21  2  0  0  0  0
 21 26  1  0  0  0  0
 22 28  1  0  0  0  0
 23 29  2  0  0  0  0
 24 25  1  0  0  0  0
 27 28  2  0  0  0  0
 27 29  1  0  0  0  0
 30 31  2  0  0  0  0
 30 32  1  0  0  0  0
 32 35  2  0  0  0  0
 34 36  1  0  0  0  0
M  END
> <PUBCHEM_COMPOUND_ID_TYPE>
0

> <PUBCHEM_TOTAL_CHARGE>
0

> <PUBCHEM_SUBSTANCE_ID>
310944831

> <PUBCHEM_SUBSTANCE_VERSION>
1

> <PUBCHEM_EXT_DATASOURCE_NAME>
4488

> <PUBCHEM_EXT_DATASOURCE_REGID>
SCHEMBL16122910

> <PUBCHEM_SUBSTANCE_COMMENT>
InChI=1S/C25H21F2N7O2/c1-3-36-16-10-19(26)18(20(27)11-16)14-34-21-7-5-4-6-17(21)23(33-34)25-28-13-22(35-2)24(32-25)31-15-8-9-29-30-12-15/h4-13H,3,14H2,1-2H3,(H,28,29,31,32)
InChIKey=FBUGJGZAAJZBNF-UHFFFAOYSA-N

> <PUBCHEM_SUBSTANCE_SYNONYM>
SCHEMBL16122910

> <PUBCHEM_XREF_EXT_ID>
SCHEMBL16122910

> <PUBCHEM_EXT_DATASOURCE_URL>
https://www.surechembl.org/

> <PUBCHEM_EXT_SUBSTANCE_URL>
https://www.surechembl.org/chemical/SCHEMBL16122910

> <PUBCHEM_CID_ASSOCIATIONS>
86268107  1

> <PUBCHEM_COORDINATE_TYPE>
1
3

$$$$
