310938475
  -OEChem-07211613022D

 15 16  0     0  0  0  0  0  0999 V2000
    0.4276   -2.1380    0.0000 N   0  0  0  0  0  0  0  0  0  0  0  0
    1.6463   -2.8435    0.0000 C   0  0  0  0  0  0  0  0  0  0  0  0
    1.2401   -2.1380    0.0000 C   0  0  0  0  0  0  0  0  0  0  0  0
    1.2401   -3.5491    0.0000 C   0  0  0  0  0  0  0  0  0  0  0  0
    2.4801   -2.8435    0.0000 C   0  0  0  0  0  0  0  0  0  0  0  0
    1.6676   -1.4324    0.0000 C   0  0  0  0  0  0  0  0  0  0  0  0
    2.8863   -3.5704    0.0000 C   0  0  0  0  0  0  0  0  0  0  0  0
    1.2401   -0.7056    0.0000 C   0  0  0  0  0  0  0  0  0  0  0  0
    1.6249   -4.2760    0.0000 C   0  0  0  0  0  0  0  0  0  0  0  0
    2.4587   -4.2760    0.0000 C   0  0  0  0  0  0  0  0  0  0  0  0
    0.0000   -1.4324    0.0000 C   0  0  0  0  0  0  0  0  0  0  0  0
    0.4276   -0.7056    0.0000 C   0  0  0  0  0  0  0  0  0  0  0  0
    0.4062   -3.5491    0.0000 C   0  0  0  0  0  0  0  0  0  0  0  0
    3.6988   -3.5704    0.0000 C   0  0  0  0  0  0  0  0  0  0  0  0
    1.6463    0.0000    0.0000 C   0  0  0  0  0  0  0  0  0  0  0  0
  1  3  1  0  0  0  0
  1 11  2  0  0  0  0
  2  3  1  0  0  0  0
  2  4  1  0  0  0  0
  2  5  2  0  0  0  0
  3  6  2  0  0  0  0
  4  9  2  0  0  0  0
  4 13  1  0  0  0  0
  5  7  1  0  0  0  0
  6  8  1  0  0  0  0
  7 10  2  0  0  0  0
  7 14  1  0  0  0  0
  8 12  2  0  0  0  0
  8 15  1  0  0  0  0
  9 10  1  0  0  0  0
 11 12  1  0  0  0  0
M  END
> <PUBCHEM_COMPOUND_ID_TYPE>
0

> <PUBCHEM_TOTAL_CHARGE>
0

> <PUBCHEM_SUBSTANCE_ID>
310938475

> <PUBCHEM_SUBSTANCE_VERSION>
1

> <PUBCHEM_EXT_DATASOURCE_NAME>
4488

> <PUBCHEM_EXT_DATASOURCE_REGID>
SCHEMBL16116376

> <PUBCHEM_SUBSTANCE_COMMENT>
InChI=1S/C14H15N/c1-10-4-5-12(3)13(8-10)14-9-11(2)6-7-15-14/h4-9H,1-3H3
InChIKey=MXDINCPQIRYVAR-UHFFFAOYSA-N

> <PUBCHEM_SUBSTANCE_SYNONYM>
SCHEMBL16116376

> <PUBCHEM_XREF_EXT_ID>
SCHEMBL16116376

> <PUBCHEM_EXT_DATASOURCE_URL>
https://www.surechembl.org/

> <PUBCHEM_EXT_SUBSTANCE_URL>
https://www.surechembl.org/chemical/SCHEMBL16116376

> <PUBCHEM_CID_ASSOCIATIONS>
117605932  1

> <PUBCHEM_COORDINATE_TYPE>
1
3

$$$$
