310942421
  -OEChem-07211613022D

 21 23  0     1  0  0  0  0  0999 V2000
    2.7947    1.5743    0.0000 O   0  0  0  0  0  0  0  0  0  0  0  0
    1.8550    0.4271    0.0000 N   0  0  0  0  0  0  0  0  0  0  0  0
    0.4149    0.4271    0.0000 N   0  0  0  0  0  0  0  0  0  0  0  0
   -1.0251    0.4271    0.0000 N   0  0  0  0  0  0  0  0  0  0  0  0
   -0.2929    1.6597    0.0000 N   0  0  0  0  0  0  0  0  0  0  0  0
    1.1227    0.8543    0.0000 C   0  0  3  0  0  0  0  0  0  0  0  0
    2.6116    0.7566    0.0000 C   0  0  0  0  0  0  0  0  0  0  0  0
   -0.2807    0.8421    0.0000 C   0  0  0  0  0  0  0  0  0  0  0  0
    1.1349    1.6475    0.0000 C   0  0  0  0  0  0  0  0  0  0  0  0
    1.9404   -0.3783    0.0000 C   0  0  0  0  0  0  0  0  0  0  0  0
   -1.0251   -0.3783    0.0000 C   0  0  3  0  0  0  0  0  0  0  0  0
    3.1730    0.1465    0.0000 C   0  0  0  0  0  0  0  0  0  0  0  0
    0.4027    2.0624    0.0000 C   0  0  0  0  0  0  0  0  0  0  0  0
    2.7825   -0.5614    0.0000 C   0  0  0  0  0  0  0  0  0  0  0  0
   -1.7574   -0.8299    0.0000 C   0  0  0  0  0  0  0  0  0  0  0  0
   -2.4651   -0.4271    0.0000 C   0  0  0  0  0  0  0  0  0  0  0  0
   -1.7452   -1.6597    0.0000 C   0  0  0  0  0  0  0  0  0  0  0  0
   -0.3051   -0.8177    0.0000 C   0  0  0  0  0  0  0  0  0  0  0  0
   -3.1730   -0.8421    0.0000 C   0  0  0  0  0  0  0  0  0  0  0  0
   -2.4530   -2.0624    0.0000 C   0  0  0  0  0  0  0  0  0  0  0  0
   -3.1730   -1.6597    0.0000 C   0  0  0  0  0  0  0  0  0  0  0  0
  1  7  2  0  0  0  0
  2  6  1  0  0  0  0
  2  7  1  0  0  0  0
  2 10  1  0  0  0  0
  3  6  1  0  0  0  0
  3  8  1  0  0  0  0
  4  8  1  0  0  0  0
  4 11  1  0  0  0  0
  5  8  2  0  0  0  0
  5 13  1  0  0  0  0
  6  9  1  0  0  0  0
  7 12  1  0  0  0  0
  9 13  2  0  0  0  0
 10 14  1  0  0  0  0
 11 15  1  0  0  0  0
 11 18  1  1  0  0  0
 12 14  1  0  0  0  0
 15 16  2  0  0  0  0
 15 17  1  0  0  0  0
 16 19  1  0  0  0  0
 17 20  2  0  0  0  0
 19 21  2  0  0  0  0
 20 21  1  0  0  0  0
M  END
> <PUBCHEM_COMPOUND_ID_TYPE>
0

> <PUBCHEM_TOTAL_CHARGE>
0

> <PUBCHEM_SUBSTANCE_ID>
310942421

> <PUBCHEM_SUBSTANCE_VERSION>
1

> <PUBCHEM_EXT_DATASOURCE_NAME>
4488

> <PUBCHEM_EXT_DATASOURCE_REGID>
SCHEMBL16120457

> <PUBCHEM_SUBSTANCE_COMMENT>
InChI=1S/C16H20N4O/c1-12(13-6-3-2-4-7-13)18-16-17-10-9-14(19-16)20-11-5-8-15(20)21/h2-4,6-7,9-10,12,14H,5,8,11H2,1H3,(H2,17,18,19)/t12-,14?/m0/s1
InChIKey=QKGPQDLBPDPBLS-NBFOIZRFSA-N

> <PUBCHEM_SUBSTANCE_SYNONYM>
SCHEMBL16120457

> <PUBCHEM_XREF_EXT_ID>
SCHEMBL16120457

> <PUBCHEM_EXT_DATASOURCE_URL>
https://www.surechembl.org/

> <PUBCHEM_EXT_SUBSTANCE_URL>
https://www.surechembl.org/chemical/SCHEMBL16120457

> <PUBCHEM_CID_ASSOCIATIONS>
117609021  1

> <PUBCHEM_COORDINATE_TYPE>
1
3

> <PUBCHEM_BONDANNOTATIONS>
11  18  5

$$$$
