310938569
  -OEChem-07211613022D

 34 38  0     0  0  0  0  0  0999 V2000
   -2.5950    2.0084    0.0000 S   0  0  0  0  0  0  0  0  0  0  0  0
    2.8334   -3.5075    0.0000 F   0  0  0  0  0  0  0  0  0  0  0  0
    4.0709   -2.7930    0.0000 F   0  0  0  0  0  0  0  0  0  0  0  0
    3.6584   -3.5075    0.0000 F   0  0  0  0  0  0  0  0  0  0  0  0
   -0.4986    0.6984    0.0000 O   0  0  0  0  0  0  0  0  0  0  0  0
   -4.0709   -3.0141    0.0000 O   0  0  0  0  0  0  0  0  0  0  0  0
   -0.4986   -1.7766    0.0000 N   0  0  0  0  0  0  0  0  0  0  0  0
    0.2860   -0.6966    0.0000 N   0  0  0  0  0  0  0  0  0  0  0  0
   -1.2131   -2.1891    0.0000 N   0  0  0  0  0  0  0  0  0  0  0  0
   -2.6420   -2.1891    0.0000 N   0  0  0  0  0  0  0  0  0  0  0  0
   -1.9275    0.6984    0.0000 N   0  0  0  0  0  0  0  0  0  0  0  0
   -1.2601    2.0084    0.0000 N   0  0  0  0  0  0  0  0  0  0  0  0
   -0.4986   -0.9516    0.0000 C   0  0  0  0  0  0  0  0  0  0  0  0
   -1.2131   -0.5391    0.0000 C   0  0  0  0  0  0  0  0  0  0  0  0
    0.7710   -1.3641    0.0000 C   0  0  0  0  0  0  0  0  0  0  0  0
   -1.9275   -1.7766    0.0000 C   0  0  0  0  0  0  0  0  0  0  0  0
    0.2860   -2.0315    0.0000 C   0  0  0  0  0  0  0  0  0  0  0  0
   -1.9275   -0.9516    0.0000 C   0  0  0  0  0  0  0  0  0  0  0  0
    1.5960   -1.3641    0.0000 C   0  0  0  0  0  0  0  0  0  0  0  0
   -1.2131    0.2859    0.0000 C   0  0  0  0  0  0  0  0  0  0  0  0
    2.0085   -2.0785    0.0000 C   0  0  0  0  0  0  0  0  0  0  0  0
    2.8335   -2.0785    0.0000 C   0  0  0  0  0  0  0  0  0  0  0  0
    2.0085   -0.6496    0.0000 C   0  0  0  0  0  0  0  0  0  0  0  0
    3.2459   -2.7930    0.0000 C   0  0  0  0  0  0  0  0  0  0  0  0
   -1.9275    1.5234    0.0000 C   0  0  0  0  0  0  0  0  0  0  0  0
   -3.3565   -1.7766    0.0000 C   0  0  0  0  0  0  0  0  0  0  0  0
   -2.6420   -3.0141    0.0000 C   0  0  0  0  0  0  0  0  0  0  0  0
    3.2460   -1.3641    0.0000 C   0  0  0  0  0  0  0  0  0  0  0  0
    2.8335   -0.6496    0.0000 C   0  0  0  0  0  0  0  0  0  0  0  0
   -2.3400    2.7930    0.0000 C   0  0  0  0  0  0  0  0  0  0  0  0
   -4.0709   -2.1891    0.0000 C   0  0  0  0  0  0  0  0  0  0  0  0
   -3.3565   -3.4266    0.0000 C   0  0  0  0  0  0  0  0  0  0  0  0
   -1.5150    2.7930    0.0000 C   0  0  0  0  0  0  0  0  0  0  0  0
   -2.7525    3.5075    0.0000 C   0  0  0  0  0  0  0  0  0  0  0  0
  1 25  1  0  0  0  0
  1 30  1  0  0  0  0
  2 24  1  0  0  0  0
  3 24  1  0  0  0  0
  4 24  1  0  0  0  0
  5 20  2  0  0  0  0
  6 31  1  0  0  0  0
  6 32  1  0  0  0  0
  7  9  1  0  0  0  0
  7 13  1  0  0  0  0
  7 17  1  0  0  0  0
  8 13  2  0  0  0  0
  8 15  1  0  0  0  0
  9 16  2  0  0  0  0
 10 16  1  0  0  0  0
 10 26  1  0  0  0  0
 10 27  1  0  0  0  0
 11 20  1  0  0  0  0
 11 25  1  0  0  0  0
 12 25  2  0  0  0  0
 12 33  1  0  0  0  0
 13 14  1  0  0  0  0
 14 18  2  0  0  0  0
 14 20  1  0  0  0  0
 15 17  2  0  0  0  0
 15 19  1  0  0  0  0
 16 18  1  0  0  0  0
 19 21  1  0  0  0  0
 19 23  2  0  0  0  0
 21 22  2  0  0  0  0
 22 24  1  0  0  0  0
 22 28  1  0  0  0  0
 23 29  1  0  0  0  0
 26 31  1  0  0  0  0
 27 32  1  0  0  0  0
 28 29  2  0  0  0  0
 30 33  2  0  0  0  0
 30 34  1  0  0  0  0
M  END
> <PUBCHEM_COMPOUND_ID_TYPE>
0

> <PUBCHEM_TOTAL_CHARGE>
0

> <PUBCHEM_SUBSTANCE_ID>
310938569

> <PUBCHEM_SUBSTANCE_VERSION>
1

> <PUBCHEM_EXT_DATASOURCE_NAME>
4488

> <PUBCHEM_EXT_DATASOURCE_REGID>
SCHEMBL16116483

> <PUBCHEM_SUBSTANCE_COMMENT>
InChI=1S/C22H19F3N6O2S/c1-13-11-26-21(34-13)28-20(32)16-10-18(30-5-7-33-8-6-30)29-31-12-17(27-19(16)31)14-3-2-4-15(9-14)22(23,24)25/h2-4,9-12H,5-8H2,1H3,(H,26,28,32)
InChIKey=ZOWHAMMLHRYFSL-UHFFFAOYSA-N

> <PUBCHEM_SUBSTANCE_SYNONYM>
SCHEMBL16116483

> <PUBCHEM_XREF_EXT_ID>
SCHEMBL16116483

> <PUBCHEM_EXT_DATASOURCE_URL>
https://www.surechembl.org/

> <PUBCHEM_EXT_SUBSTANCE_URL>
https://www.surechembl.org/chemical/SCHEMBL16116483

> <PUBCHEM_CID_ASSOCIATIONS>
117606006  1

> <PUBCHEM_COORDINATE_TYPE>
1
3

$$$$
