310945141
  -OEChem-07211613022D

 34 37  0     1  0  0  0  0  0999 V2000
    0.0825    0.7522    0.0000 O   0  0  0  0  0  0  0  0  0  0  0  0
    2.0916    0.7522    0.0000 O   0  0  0  0  0  0  0  0  0  0  0  0
   -3.5184    2.4896    0.0000 O   0  0  0  0  0  0  0  0  0  0  0  0
    0.0825   -1.2472    0.0000 N   0  0  0  0  0  0  0  0  0  0  0  0
    2.0916   -1.2472    0.0000 N   0  0  0  0  0  0  0  0  0  0  0  0
   -2.0819   -0.0049    0.0000 N   0  0  0  0  0  0  0  0  0  0  0  0
   -2.8001   -1.2472    0.0000 N   0  0  0  0  0  0  0  0  0  0  0  0
   -4.2366    1.2472    0.0000 N   0  0  0  0  0  0  0  0  0  0  0  0
    0.6746   -0.6552    0.0000 C   0  0  0  0  0  0  0  0  0  0  0  0
    1.4899   -0.6552    0.0000 C   0  0  0  0  0  0  0  0  0  0  0  0
    0.6842    0.1504    0.0000 C   0  0  0  0  0  0  0  0  0  0  0  0
    1.4802    0.1504    0.0000 C   0  0  0  0  0  0  0  0  0  0  0  0
   -0.6454   -0.8299    0.0000 C   0  0  0  0  0  0  0  0  0  0  0  0
    2.7905   -0.8396    0.0000 C   0  0  3  0  0  0  0  0  0  0  0  0
   -1.3442   -1.2472    0.0000 C   0  0  0  0  0  0  0  0  0  0  0  0
    3.5184   -1.2472    0.0000 C   0  0  0  0  0  0  0  0  0  0  0  0
   -2.0916   -0.8299    0.0000 C   0  0  0  0  0  0  0  0  0  0  0  0
   -0.6454   -0.0049    0.0000 C   0  0  0  0  0  0  0  0  0  0  0  0
   -1.3734    0.4028    0.0000 C   0  0  0  0  0  0  0  0  0  0  0  0
   -3.5281   -0.8299    0.0000 C   0  0  0  0  0  0  0  0  0  0  0  0
    2.8098   -0.0339    0.0000 C   0  0  0  0  0  0  0  0  0  0  0  0
    3.5184   -2.0625    0.0000 C   0  0  0  0  0  0  0  0  0  0  0  0
    4.2463   -0.8589    0.0000 C   0  0  0  0  0  0  0  0  0  0  0  0
   -3.5281   -0.0049    0.0000 C   0  0  0  0  0  0  0  0  0  0  0  0
   -4.2463    0.4125    0.0000 C   0  0  0  0  0  0  0  0  0  0  0  0
   -4.2269   -1.2472    0.0000 C   0  0  0  0  0  0  0  0  0  0  0  0
    4.2269   -2.4896    0.0000 C   0  0  0  0  0  0  0  0  0  0  0  0
    4.9549   -1.2666    0.0000 C   0  0  0  0  0  0  0  0  0  0  0  0
   -4.9549   -0.0049    0.0000 C   0  0  0  0  0  0  0  0  0  0  0  0
   -4.9549   -0.8396    0.0000 C   0  0  0  0  0  0  0  0  0  0  0  0
    4.9451   -2.1013    0.0000 C   0  0  0  0  0  0  0  0  0  0  0  0
   -3.5281    1.6549    0.0000 C   0  0  0  0  0  0  0  0  0  0  0  0
   -2.8001    1.2472    0.0000 C   0  0  0  0  0  0  0  0  0  0  0  0
   -2.0916    1.7131    0.0000 C   0  0  0  0  0  0  0  0  0  0  0  0
  1 11  2  0  0  0  0
  2 12  2  0  0  0  0
  3 32  2  0  0  0  0
  4  9  1  0  0  0  0
  4 13  1  0  0  0  0
  5 10  1  0  0  0  0
  5 14  1  0  0  0  0
  6 17  1  0  0  0  0
  6 19  2  0  0  0  0
  7 17  1  0  0  0  0
  7 20  1  0  0  0  0
  8 25  1  0  0  0  0
  8 32  1  0  0  0  0
  9 10  2  0  0  0  0
  9 11  1  0  0  0  0
 10 12  1  0  0  0  0
 11 12  1  0  0  0  0
 13 15  1  0  0  0  0
 13 18  2  0  0  0  0
 14 16  1  0  0  0  0
 14 21  1  6  0  0  0
 15 17  2  0  0  0  0
 16 22  2  0  0  0  0
 16 23  1  0  0  0  0
 18 19  1  0  0  0  0
 20 24  2  0  0  0  0
 20 26  1  0  0  0  0
 22 27  1  0  0  0  0
 23 28  2  0  0  0  0
 24 25  1  0  0  0  0
 25 29  2  0  0  0  0
 26 30  2  0  0  0  0
 27 31  2  0  0  0  0
 28 31  1  0  0  0  0
 29 30  1  0  0  0  0
 32 33  1  0  0  0  0
 33 34  2  0  0  0  0
M  END
> <PUBCHEM_COMPOUND_ID_TYPE>
0

> <PUBCHEM_TOTAL_CHARGE>
0

> <PUBCHEM_SUBSTANCE_ID>
310945141

> <PUBCHEM_SUBSTANCE_VERSION>
1

> <PUBCHEM_EXT_DATASOURCE_NAME>
4488

> <PUBCHEM_EXT_DATASOURCE_REGID>
SCHEMBL16123231

> <PUBCHEM_SUBSTANCE_COMMENT>
InChI=1S/C26H23N5O3/c1-3-22(32)30-19-11-7-10-18(14-19)29-21-15-20(12-13-27-21)31-24-23(25(33)26(24)34)28-16(2)17-8-5-4-6-9-17/h3-16,28H,1H2,2H3,(H,30,32)(H2,27,29,31)/t16-/m1/s1
InChIKey=MXMDVUCHASECDR-MRXNPFEDSA-N

> <PUBCHEM_SUBSTANCE_SYNONYM>
SCHEMBL16123231

> <PUBCHEM_XREF_EXT_ID>
SCHEMBL16123231

> <PUBCHEM_EXT_DATASOURCE_URL>
https://www.surechembl.org/

> <PUBCHEM_EXT_SUBSTANCE_URL>
https://www.surechembl.org/chemical/SCHEMBL16123231

> <PUBCHEM_CID_ASSOCIATIONS>
86301509  1

> <PUBCHEM_COORDINATE_TYPE>
1
3

> <PUBCHEM_BONDANNOTATIONS>
14  21  6

$$$$
