310940335
  -OEChem-07211613022D

 24 26  0     0  0  0  0  0  0999 V2000
   -0.4497    1.6489    0.0000 O   0  0  0  0  0  0  0  0  0  0  0  0
    2.5634   -1.1992    0.0000 O   0  0  0  0  0  0  0  0  0  0  0  0
    1.5890    0.1349    0.0000 N   0  0  0  0  0  0  0  0  0  0  0  0
    1.1693   -0.5697    0.0000 N   0  0  0  0  0  0  0  0  0  0  0  0
    0.3598   -0.4048    0.0000 N   0  0  0  0  0  0  0  0  0  0  0  0
    2.3985    0.2399    0.0000 C   0  0  0  0  0  0  0  0  0  0  0  0
    0.2848    0.4347    0.0000 C   0  0  0  0  0  0  0  0  0  0  0  0
    1.0194    0.7495    0.0000 C   0  0  0  0  0  0  0  0  0  0  0  0
   -0.4497    0.8245    0.0000 C   0  0  0  0  0  0  0  0  0  0  0  0
    2.8932   -0.4347    0.0000 C   0  0  0  0  0  0  0  0  0  0  0  0
    2.7433    0.9894    0.0000 C   0  0  0  0  0  0  0  0  0  0  0  0
   -1.1543    0.4197    0.0000 C   0  0  0  0  0  0  0  0  0  0  0  0
    3.7177   -0.3448    0.0000 C   0  0  0  0  0  0  0  0  0  0  0  0
    3.5678    1.0643    0.0000 C   0  0  0  0  0  0  0  0  0  0  0  0
   -1.8738    0.8245    0.0000 C   0  0  0  0  0  0  0  0  0  0  0  0
   -1.1693   -0.4048    0.0000 C   0  0  0  0  0  0  0  0  0  0  0  0
    4.0475    0.4048    0.0000 C   0  0  0  0  0  0  0  0  0  0  0  0
   -2.6084   -0.4048    0.0000 C   0  0  0  0  0  0  0  0  0  0  0  0
   -2.5934    0.4197    0.0000 C   0  0  0  0  0  0  0  0  0  0  0  0
   -1.8588   -0.8095    0.0000 C   0  0  0  0  0  0  0  0  0  0  0  0
    2.2486    1.6489    0.0000 C   0  0  0  0  0  0  0  0  0  0  0  0
   -3.3129   -0.8095    0.0000 C   0  0  0  0  0  0  0  0  0  0  0  0
   -4.0475   -0.4197    0.0000 C   0  0  0  0  0  0  0  0  0  0  0  0
   -3.3129   -1.6489    0.0000 C   0  0  0  0  0  0  0  0  0  0  0  0
  1  9  2  0  0  0  0
  2 10  1  0  0  0  0
  3  4  1  0  0  0  0
  3  6  1  0  0  0  0
  3  8  1  0  0  0  0
  4  5  2  0  0  0  0
  5  7  1  0  0  0  0
  6 10  2  0  0  0  0
  6 11  1  0  0  0  0
  7  8  2  0  0  0  0
  7  9  1  0  0  0  0
  9 12  1  0  0  0  0
 10 13  1  0  0  0  0
 11 14  2  0  0  0  0
 11 21  1  0  0  0  0
 12 15  2  0  0  0  0
 12 16  1  0  0  0  0
 13 17  2  0  0  0  0
 14 17  1  0  0  0  0
 15 19  1  0  0  0  0
 16 20  2  0  0  0  0
 18 19  2  0  0  0  0
 18 20  1  0  0  0  0
 18 22  1  0  0  0  0
 22 23  1  0  0  0  0
 22 24  1  0  0  0  0
M  END
> <PUBCHEM_COMPOUND_ID_TYPE>
0

> <PUBCHEM_TOTAL_CHARGE>
0

> <PUBCHEM_SUBSTANCE_ID>
310940335

> <PUBCHEM_SUBSTANCE_VERSION>
1

> <PUBCHEM_EXT_DATASOURCE_NAME>
4488

> <PUBCHEM_EXT_DATASOURCE_REGID>
SCHEMBL16118279

> <PUBCHEM_SUBSTANCE_COMMENT>
InChI=1S/C19H19N3O2/c1-12(2)14-7-9-15(10-8-14)19(24)16-11-22(21-20-16)18-13(3)5-4-6-17(18)23/h4-12,23H,1-3H3
InChIKey=BTKFGBKVMXIUNL-UHFFFAOYSA-N

> <PUBCHEM_SUBSTANCE_SYNONYM>
SCHEMBL16118279

> <PUBCHEM_XREF_EXT_ID>
SCHEMBL16118279

> <PUBCHEM_EXT_DATASOURCE_URL>
https://www.surechembl.org/

> <PUBCHEM_EXT_SUBSTANCE_URL>
https://www.surechembl.org/chemical/SCHEMBL16118279

> <PUBCHEM_CID_ASSOCIATIONS>
86296685  1

> <PUBCHEM_COORDINATE_TYPE>
1
3

$$$$
