310942148
  -OEChem-07211613022D

 26 27  0     1  0  0  0  0  0999 V2000
    1.3637    1.4509    0.0000 Cl  0  0  0  0  0  0  0  0  0  0  0  0
   -0.0685   -1.0399    0.0000 F   0  0  0  0  0  0  0  0  0  0  0  0
    1.3637   -0.2180    0.0000 O   0  0  0  0  0  0  0  0  0  0  0  0
   -3.6054    0.2180    0.0000 O   0  0  0  0  0  0  0  0  0  0  0  0
   -2.2230    0.2055    0.0000 N   0  0  0  0  0  0  0  0  0  0  0  0
    2.8208   -0.2055    0.0000 N   0  0  0  0  0  0  0  0  0  0  0  0
    2.8208    1.4509    0.0000 N   0  0  0  0  0  0  0  0  0  0  0  0
    4.3775    1.4509    0.0000 N   0  0  0  0  0  0  0  0  0  0  0  0
   -4.3775    1.4385    0.0000 N   0  0  0  0  0  0  0  0  0  0  0  0
    0.6413    0.2180    0.0000 C   0  0  0  0  0  0  0  0  0  0  0  0
   -0.0685   -0.2055    0.0000 C   0  0  0  0  0  0  0  0  0  0  0  0
   -0.7908    0.2055    0.0000 C   0  0  0  0  0  0  0  0  0  0  0  0
    0.6538    1.0399    0.0000 C   0  0  0  0  0  0  0  0  0  0  0  0
   -1.5008   -0.2055    0.0000 C   0  0  3  0  0  0  0  0  0  0  0  0
   -0.7783    1.0274    0.0000 C   0  0  0  0  0  0  0  0  0  0  0  0
   -0.0685    1.4385    0.0000 C   0  0  0  0  0  0  0  0  0  0  0  0
    2.0735    0.2055    0.0000 C   0  0  0  0  0  0  0  0  0  0  0  0
   -1.5008   -1.0399    0.0000 C   0  0  0  0  0  0  0  0  0  0  0  0
    2.0985    1.0399    0.0000 C   0  0  0  0  0  0  0  0  0  0  0  0
   -2.2230    1.0399    0.0000 C   0  0  3  0  0  0  0  0  0  0  0  0
    3.5307    1.0399    0.0000 C   0  0  0  0  0  0  0  0  0  0  0  0
    3.5307    0.2055    0.0000 C   0  0  0  0  0  0  0  0  0  0  0  0
   -2.9329    1.4509    0.0000 C   0  0  0  0  0  0  0  0  0  0  0  0
   -0.7908   -1.4509    0.0000 C   0  0  0  0  0  0  0  0  0  0  0  0
   -1.5132    1.4509    0.0000 C   0  0  0  0  0  0  0  0  0  0  0  0
   -3.6552    1.0274    0.0000 C   0  0  0  0  0  0  0  0  0  0  0  0
  1 13  1  0  0  0  0
  2 11  1  0  0  0  0
  3 10  1  0  0  0  0
  3 17  1  0  0  0  0
  4 26  2  0  0  0  0
 14  5  1  1  0  0  0
  5 20  1  0  0  0  0
  6 17  2  0  0  0  0
  6 22  1  0  0  0  0
  7 19  2  0  0  0  0
  7 21  1  0  0  0  0
  8 21  1  0  0  0  0
  9 26  1  0  0  0  0
 10 11  2  0  0  0  0
 10 13  1  0  0  0  0
 11 12  1  0  0  0  0
 12 14  1  0  0  0  0
 12 15  2  0  0  0  0
 13 16  2  0  0  0  0
 14 18  1  0  0  0  0
 15 16  1  0  0  0  0
 17 19  1  0  0  0  0
 18 24  1  0  0  0  0
 20 23  1  0  0  0  0
 20 25  1  1  0  0  0
 21 22  2  0  0  0  0
 23 26  1  0  0  0  0
M  END
> <PUBCHEM_COMPOUND_ID_TYPE>
0

> <PUBCHEM_TOTAL_CHARGE>
0

> <PUBCHEM_SUBSTANCE_ID>
310942148

> <PUBCHEM_SUBSTANCE_VERSION>
1

> <PUBCHEM_EXT_DATASOURCE_NAME>
4488

> <PUBCHEM_EXT_DATASOURCE_REGID>
SCHEMBL16120183

> <PUBCHEM_SUBSTANCE_COMMENT>
InChI=1S/C17H21ClFN5O2/c1-3-12(24-9(2)6-14(21)25)10-4-5-11(18)17(16(10)19)26-15-8-22-13(20)7-23-15/h4-5,7-9,12,24H,3,6H2,1-2H3,(H2,20,22)(H2,21,25)/t9-,12-/m1/s1
InChIKey=XBVMPPNTNITCMB-BXKDBHETSA-N

> <PUBCHEM_SUBSTANCE_SYNONYM>
SCHEMBL16120183

> <PUBCHEM_XREF_EXT_ID>
SCHEMBL16120183

> <PUBCHEM_EXT_DATASOURCE_URL>
https://www.surechembl.org/

> <PUBCHEM_EXT_SUBSTANCE_URL>
https://www.surechembl.org/chemical/SCHEMBL16120183

> <PUBCHEM_CID_ASSOCIATIONS>
117608806  1

> <PUBCHEM_COORDINATE_TYPE>
1
3

> <PUBCHEM_BONDANNOTATIONS>
20  25  5
14  5  5

$$$$
