310947019
  -OEChem-07211613022D

 43 47  0     0  0  0  0  0  0999 V2000
   -2.9241    2.0564    0.0000 S   0  0  0  0  0  0  0  0  0  0  0  0
   -4.0158    0.6458    0.0000 F   0  0  0  0  0  0  0  0  0  0  0  0
   -3.5075    1.4730    0.0000 O   0  0  0  0  0  0  0  0  0  0  0  0
   -3.1377    2.8533    0.0000 O   0  0  0  0  0  0  0  0  0  0  0  0
   -5.4448   -0.1793    0.0000 O   0  0  0  0  0  0  0  0  0  0  0  0
   -4.0158   -2.6544    0.0000 O   0  0  0  0  0  0  0  0  0  0  0  0
   -2.5869   -0.1793    0.0000 N   0  0  0  0  0  0  0  0  0  0  0  0
   -2.1273    1.8429    0.0000 N   0  0  0  0  0  0  0  0  0  0  0  0
   -1.1578   -0.1793    0.0000 N   0  0  0  0  0  0  0  0  0  0  0  0
   -1.0473    1.0583    0.0000 N   0  0  0  0  0  0  0  0  0  0  0  0
   -3.7211    2.2699    0.0000 N   0  0  0  0  0  0  0  0  0  0  0  0
    0.2712   -0.1793    0.0000 N   0  0  0  0  0  0  0  0  0  0  0  0
    0.2712   -1.8294    0.0000 N   0  0  0  0  0  0  0  0  0  0  0  0
    2.9697    0.2332    0.0000 N   0  0  0  0  0  0  0  0  0  0  0  0
    2.4848    0.9007    0.0000 N   0  0  0  0  0  0  0  0  0  0  0  0
    5.4448    1.6622    0.0000 N   0  0  0  0  0  0  0  0  0  0  0  0
   -3.3013   -0.5918    0.0000 C   0  0  0  0  0  0  0  0  0  0  0  0
   -1.8724   -0.5918    0.0000 C   0  0  0  0  0  0  0  0  0  0  0  0
   -1.8724    1.0583    0.0000 C   0  0  0  0  0  0  0  0  0  0  0  0
   -2.5869    0.6458    0.0000 C   0  0  0  0  0  0  0  0  0  0  0  0
   -4.0158   -0.1793    0.0000 C   0  0  0  0  0  0  0  0  0  0  0  0
   -0.4433   -0.5918    0.0000 C   0  0  0  0  0  0  0  0  0  0  0  0
   -0.4433   -1.4168    0.0000 C   0  0  0  0  0  0  0  0  0  0  0  0
   -3.3013   -1.4168    0.0000 C   0  0  0  0  0  0  0  0  0  0  0  0
   -4.7303   -0.5918    0.0000 C   0  0  0  0  0  0  0  0  0  0  0  0
   -1.8724   -1.4168    0.0000 C   0  0  0  0  0  0  0  0  0  0  0  0
   -1.4598    2.3279    0.0000 C   0  0  0  0  0  0  0  0  0  0  0  0
    0.9856   -0.5918    0.0000 C   0  0  0  0  0  0  0  0  0  0  0  0
   -4.0158   -1.8294    0.0000 C   0  0  0  0  0  0  0  0  0  0  0  0
   -1.1578   -1.8293    0.0000 C   0  0  0  0  0  0  0  0  0  0  0  0
   -0.7923    1.8429    0.0000 C   0  0  0  0  0  0  0  0  0  0  0  0
   -4.7303   -1.4168    0.0000 C   0  0  0  0  0  0  0  0  0  0  0  0
    1.7001   -0.1793    0.0000 C   0  0  0  0  0  0  0  0  0  0  0  0
    0.9856   -1.4168    0.0000 C   0  0  0  0  0  0  0  0  0  0  0  0
    2.4848   -0.4343    0.0000 C   0  0  0  0  0  0  0  0  0  0  0  0
    1.7001    0.6458    0.0000 C   0  0  0  0  0  0  0  0  0  0  0  0
   -4.3045    1.6866    0.0000 C   0  0  0  0  0  0  0  0  0  0  0  0
   -3.9346    3.0669    0.0000 C   0  0  0  0  0  0  0  0  0  0  0  0
    3.7948    0.2332    0.0000 C   0  0  0  0  0  0  0  0  0  0  0  0
   -5.4448    0.6458    0.0000 C   0  0  0  0  0  0  0  0  0  0  0  0
   -4.7303   -3.0669    0.0000 C   0  0  0  0  0  0  0  0  0  0  0  0
    4.2073    0.9478    0.0000 C   0  0  0  0  0  0  0  0  0  0  0  0
    5.0323    0.9478    0.0000 C   0  0  0  0  0  0  0  0  0  0  0  0
  1  3  2  0  0  0  0
  1  4  2  0  0  0  0
  1  8  1  0  0  0  0
  1 11  1  0  0  0  0
  2 21  1  0  0  0  0
  5 25  1  0  0  0  0
  5 40  1  0  0  0  0
  6 29  1  0  0  0  0
  6 41  1  0  0  0  0
  7 17  1  0  0  0  0
  7 18  1  0  0  0  0
  7 20  1  0  0  0  0
  8 19  1  0  0  0  0
  8 27  1  0  0  0  0
  9 18  1  0  0  0  0
  9 22  2  0  0  0  0
 10 19  2  0  0  0  0
 10 31  1  0  0  0  0
 11 37  1  0  0  0  0
 11 38  1  0  0  0  0
 12 22  1  0  0  0  0
 12 28  2  0  0  0  0
 13 23  1  0  0  0  0
 13 34  2  0  0  0  0
 14 15  1  0  0  0  0
 14 35  1  0  0  0  0
 14 39  1  0  0  0  0
 15 36  2  0  0  0  0
 16 43  1  0  0  0  0
 17 21  2  0  0  0  0
 17 24  1  0  0  0  0
 18 26  2  0  0  0  0
 19 20  1  0  0  0  0
 21 25  1  0  0  0  0
 22 23  1  0  0  0  0
 23 30  2  0  0  0  0
 24 29  2  0  0  0  0
 25 32  2  0  0  0  0
 26 30  1  0  0  0  0
 27 31  2  0  0  0  0
 28 33  1  0  0  0  0
 28 34  1  0  0  0  0
 29 32  1  0  0  0  0
 33 35  2  0  0  0  0
 33 36  1  0  0  0  0
 39 42  1  0  0  0  0
 42 43  1  0  0  0  0
M  END
> <PUBCHEM_COMPOUND_ID_TYPE>
0

> <PUBCHEM_TOTAL_CHARGE>
0

> <PUBCHEM_SUBSTANCE_ID>
310947019

> <PUBCHEM_SUBSTANCE_VERSION>
1

> <PUBCHEM_EXT_DATASOURCE_NAME>
4488

> <PUBCHEM_EXT_DATASOURCE_REGID>
SCHEMBL16125171

> <PUBCHEM_SUBSTANCE_COMMENT>
InChI=1S/C27H31FN10O4S/c1-35(2)43(39,40)38-11-9-30-25(38)17-37(22-12-19(41-3)13-23(42-4)26(22)28)24-7-6-20-27(34-24)33-21(15-31-20)18-14-32-36(16-18)10-5-8-29/h6-7,9,11-16H,5,8,10,17,29H2,1-4H3
InChIKey=GUPALEQNJFDFJW-UHFFFAOYSA-N

> <PUBCHEM_SUBSTANCE_SYNONYM>
SCHEMBL16125171

> <PUBCHEM_XREF_EXT_ID>
SCHEMBL16125171

> <PUBCHEM_EXT_DATASOURCE_URL>
https://www.surechembl.org/

> <PUBCHEM_EXT_SUBSTANCE_URL>
https://www.surechembl.org/chemical/SCHEMBL16125171

> <PUBCHEM_CID_ASSOCIATIONS>
117612871  1

> <PUBCHEM_COORDINATE_TYPE>
1
3

$$$$
