310930029
  -OEChem-07211613022D

 31 35  0     1  0  0  0  0  0999 V2000
    3.5227   -2.0741    0.0000 O   0  0  0  0  0  0  0  0  0  0  0  0
    4.2142   -3.2923    0.0000 N   0  0  0  0  0  0  0  0  0  0  0  0
    5.6298   -2.4692    0.0000 N   0  0  3  0  0  0  0  0  0  0  0  0
    0.0000   -5.7286    0.0000 N   0  0  0  0  0  0  0  0  0  0  0  0
    9.8769    0.0000    0.0000 N   0  0  0  0  0  0  0  0  0  0  0  0
    3.5227   -3.6873    0.0000 C   0  0  3  0  0  0  0  0  0  0  0  0
    6.3212   -2.0412    0.0000 C   0  0  3  0  0  0  0  0  0  0  0  0
    4.2142   -2.4692    0.0000 C   0  0  0  0  0  0  0  0  0  0  0  0
    2.0741   -3.6873    0.0000 C   0  0  0  0  0  0  0  0  0  0  0  0
    2.0741   -4.5104    0.0000 C   0  0  0  0  0  0  0  0  0  0  0  0
    7.7698   -2.0412    0.0000 C   0  0  0  0  0  0  0  0  0  0  0  0
    4.9055   -2.0412    0.0000 C   0  0  0  0  0  0  0  0  0  0  0  0
    2.7985   -3.2923    0.0000 C   0  0  0  0  0  0  0  0  0  0  0  0
    7.7698   -1.2181    0.0000 C   0  0  0  0  0  0  0  0  0  0  0  0
    4.9055   -3.6873    0.0000 C   0  0  0  0  0  0  0  0  0  0  0  0
    7.0455   -2.4692    0.0000 C   0  0  0  0  0  0  0  0  0  0  0  0
    5.6298   -3.2923    0.0000 C   0  0  0  0  0  0  0  0  0  0  0  0
    3.5227   -4.5104    0.0000 C   0  0  0  0  0  0  0  0  0  0  0  0
    6.3212   -1.2181    0.0000 C   0  0  0  0  0  0  0  0  0  0  0  0
    2.7985   -4.9055    0.0000 C   0  0  0  0  0  0  0  0  0  0  0  0
    7.0455   -0.8231    0.0000 C   0  0  0  0  0  0  0  0  0  0  0  0
    1.4157   -4.9055    0.0000 C   0  0  0  0  0  0  0  0  0  0  0  0
    1.4157   -3.2923    0.0000 C   0  0  0  0  0  0  0  0  0  0  0  0
    8.4283   -0.8231    0.0000 C   0  0  0  0  0  0  0  0  0  0  0  0
    8.4283   -2.4692    0.0000 C   0  0  0  0  0  0  0  0  0  0  0  0
    0.6914   -4.5104    0.0000 C   0  0  0  0  0  0  0  0  0  0  0  0
    9.1526   -1.2181    0.0000 C   0  0  0  0  0  0  0  0  0  0  0  0
    0.6914   -3.6873    0.0000 C   0  0  0  0  0  0  0  0  0  0  0  0
    9.1526   -2.0412    0.0000 C   0  0  0  0  0  0  0  0  0  0  0  0
    0.0000   -4.9055    0.0000 C   0  0  0  0  0  0  0  0  0  0  0  0
    9.8769   -0.8231    0.0000 C   0  0  0  0  0  0  0  0  0  0  0  0
  1  8  2  0  0  0  0
  6  2  1  6  0  0  0
  2  8  1  0  0  0  0
  2 15  1  0  0  0  0
  7  3  1  6  0  0  0
  3 12  1  0  0  0  0
  3 17  1  0  0  0  0
  4 30  3  0  0  0  0
  5 31  3  0  0  0  0
  6 13  1  0  0  0  0
  6 18  1  0  0  0  0
  7 16  1  0  0  0  0
  7 19  1  0  0  0  0
  8 12  1  0  0  0  0
  9 10  2  0  0  0  0
  9 13  1  0  0  0  0
  9 23  1  0  0  0  0
 10 20  1  0  0  0  0
 10 22  1  0  0  0  0
 11 14  2  0  0  0  0
 11 16  1  0  0  0  0
 11 25  1  0  0  0  0
 14 21  1  0  0  0  0
 14 24  1  0  0  0  0
 15 17  1  0  0  0  0
 18 20  1  0  0  0  0
 19 21  1  0  0  0  0
 22 26  2  0  0  0  0
 23 28  2  0  0  0  0
 24 27  2  0  0  0  0
 25 29  2  0  0  0  0
 26 28  1  0  0  0  0
 26 30  1  0  0  0  0
 27 29  1  0  0  0  0
 27 31  1  0  0  0  0
M  END
> <PUBCHEM_COMPOUND_ID_TYPE>
0

> <PUBCHEM_TOTAL_CHARGE>
0

> <PUBCHEM_SUBSTANCE_ID>
310930029

> <PUBCHEM_SUBSTANCE_VERSION>
1

> <PUBCHEM_EXT_DATASOURCE_NAME>
4488

> <PUBCHEM_EXT_DATASOURCE_REGID>
SCHEMBL16107268

> <PUBCHEM_SUBSTANCE_COMMENT>
InChI=1S/C26H26N4O/c27-15-18-1-3-22-13-24(7-5-20(22)11-18)29-9-10-30(26(31)17-29)25-8-6-21-12-19(16-28)2-4-23(21)14-25/h1-4,11-12,24-25H,5-10,13-14,17H2/t24-,25-/m1/s1
InChIKey=GDPSQUCBWYZTHX-JWQCQUIFSA-N

> <PUBCHEM_SUBSTANCE_SYNONYM>
SCHEMBL16107268

> <PUBCHEM_XREF_EXT_ID>
SCHEMBL16107268

> <PUBCHEM_EXT_DATASOURCE_URL>
https://www.surechembl.org/

> <PUBCHEM_EXT_SUBSTANCE_URL>
https://www.surechembl.org/chemical/SCHEMBL16107268

> <PUBCHEM_CID_ASSOCIATIONS>
117599275  1

> <PUBCHEM_COORDINATE_TYPE>
1
3

> <PUBCHEM_BONDANNOTATIONS>
6  2  6
7  3  6

$$$$
