310934355
  -OEChem-07211613022D

 39 44  0     0  0  0  0  0  0999 V2000
    2.7056   -6.9486    0.0000 Cl  0  0  0  0  0  0  0  0  0  0  0  0
    1.9677  -10.6381    0.0000 O   0  0  0  0  0  0  0  0  0  0  0  0
    0.5534  -10.6381    0.0000 O   0  0  0  0  0  0  0  0  0  0  0  0
    0.6149   -3.2590    0.0000 N   0  0  0  0  0  0  0  0  0  0  0  0
    0.0000   -2.6442    0.0000 N   0  0  0  0  0  0  0  0  0  0  0  0
    2.0292   -3.2590    0.0000 N   0  0  0  0  0  0  0  0  0  0  0  0
    1.2913   -7.7480    0.0000 N   0  0  0  0  0  0  0  0  0  0  0  0
    2.7671   -0.1845    0.0000 N   0  0  0  0  0  0  0  0  0  0  0  0
    1.2913   -9.4083    0.0000 N   0  0  0  0  0  0  0  0  0  0  0  0
    1.1684   -2.0292    0.0000 C   0  0  0  0  0  0  0  0  0  0  0  0
    1.3528   -2.8286    0.0000 C   0  0  0  0  0  0  0  0  0  0  0  0
    1.6603   -1.4143    0.0000 C   0  0  0  0  0  0  0  0  0  0  0  0
    1.2913   -4.4889    0.0000 C   0  0  0  0  0  0  0  0  0  0  0  0
    2.5211   -1.5988    0.0000 C   0  0  0  0  0  0  0  0  0  0  0  0
    0.3074   -1.9063    0.0000 C   0  0  0  0  0  0  0  0  0  0  0  0
    0.6149   -4.0585    0.0000 C   0  0  0  0  0  0  0  0  0  0  0  0
    1.2913   -5.2883    0.0000 C   0  0  0  0  0  0  0  0  0  0  0  0
    3.0746   -0.9839    0.0000 C   0  0  0  0  0  0  0  0  0  0  0  0
    2.0292   -4.0585    0.0000 C   0  0  0  0  0  0  0  0  0  0  0  0
    1.4143   -0.6149    0.0000 C   0  0  0  0  0  0  0  0  0  0  0  0
    1.2913   -6.9486    0.0000 C   0  0  0  0  0  0  0  0  0  0  0  0
    1.9677   -6.5182    0.0000 C   0  0  0  0  0  0  0  0  0  0  0  0
    1.9677   -5.7187    0.0000 C   0  0  0  0  0  0  0  0  0  0  0  0
    0.5534   -5.7187    0.0000 C   0  0  0  0  0  0  0  0  0  0  0  0
    2.7671   -2.3367    0.0000 C   0  0  0  0  0  0  0  0  0  0  0  0
    0.5534   -6.5182    0.0000 C   0  0  0  0  0  0  0  0  0  0  0  0
    1.9677    0.0000    0.0000 C   0  0  0  0  0  0  0  0  0  0  0  0
    3.8740   -1.1069    0.0000 C   0  0  0  0  0  0  0  0  0  0  0  0
    0.5534   -8.1784    0.0000 C   0  0  0  0  0  0  0  0  0  0  0  0
    2.0292   -8.1784    0.0000 C   0  0  0  0  0  0  0  0  0  0  0  0
    3.5665   -2.5211    0.0000 C   0  0  0  0  0  0  0  0  0  0  0  0
    4.1200   -1.9063    0.0000 C   0  0  0  0  0  0  0  0  0  0  0  0
    2.0292   -9.0393    0.0000 C   0  0  0  0  0  0  0  0  0  0  0  0
    0.5534   -9.0393    0.0000 C   0  0  0  0  0  0  0  0  0  0  0  0
    1.2913  -10.2692    0.0000 C   0  0  0  0  0  0  0  0  0  0  0  0
    1.9677  -11.4990    0.0000 C   0  0  0  0  0  0  0  0  0  0  0  0
    1.1684  -11.4990    0.0000 C   0  0  0  0  0  0  0  0  0  0  0  0
    1.9677  -12.2984    0.0000 C   0  0  0  0  0  0  0  0  0  0  0  0
    2.8286  -11.4990    0.0000 C   0  0  0  0  0  0  0  0  0  0  0  0
  1 22  1  0  0  0  0
  2 35  1  0  0  0  0
  2 36  1  0  0  0  0
  3 35  2  0  0  0  0
  4  5  1  0  0  0  0
  4 11  1  0  0  0  0
  4 16  1  0  0  0  0
  5 15  2  0  0  0  0
  6 11  1  0  0  0  0
  6 19  2  0  0  0  0
  7 21  1  0  0  0  0
  7 29  1  0  0  0  0
  7 30  1  0  0  0  0
  8 18  2  0  0  0  0
  8 27  1  0  0  0  0
  9 33  1  0  0  0  0
  9 34  1  0  0  0  0
  9 35  1  0  0  0  0
 10 11  2  0  0  0  0
 10 12  1  0  0  0  0
 10 15  1  0  0  0  0
 12 14  2  0  0  0  0
 12 20  1  0  0  0  0
 13 16  2  0  0  0  0
 13 17  1  0  0  0  0
 13 19  1  0  0  0  0
 14 18  1  0  0  0  0
 14 25  1  0  0  0  0
 17 23  1  0  0  0  0
 17 24  2  0  0  0  0
 18 28  1  0  0  0  0
 20 27  2  0  0  0  0
 21 22  1  0  0  0  0
 21 26  2  0  0  0  0
 22 23  2  0  0  0  0
 24 26  1  0  0  0  0
 25 31  2  0  0  0  0
 28 32  2  0  0  0  0
 29 34  1  0  0  0  0
 30 33  1  0  0  0  0
 31 32  1  0  0  0  0
 36 37  1  0  0  0  0
 36 38  1  0  0  0  0
 36 39  1  0  0  0  0
M  END
> <PUBCHEM_COMPOUND_ID_TYPE>
0

> <PUBCHEM_TOTAL_CHARGE>
0

> <PUBCHEM_SUBSTANCE_ID>
310934355

> <PUBCHEM_SUBSTANCE_VERSION>
1

> <PUBCHEM_EXT_DATASOURCE_NAME>
4488

> <PUBCHEM_EXT_DATASOURCE_REGID>
SCHEMBL16111820

> <PUBCHEM_SUBSTANCE_COMMENT>
InChI=1S/C30H29ClN6O2/c1-30(2,3)39-29(38)36-14-12-35(13-15-36)27-9-8-20(16-25(27)31)21-17-33-28-24(18-34-37(28)19-21)22-10-11-32-26-7-5-4-6-23(22)26/h4-11,16-19H,12-15H2,1-3H3
InChIKey=QASWNJQOOIQICT-UHFFFAOYSA-N

> <PUBCHEM_SUBSTANCE_SYNONYM>
SCHEMBL16111820

> <PUBCHEM_XREF_EXT_ID>
SCHEMBL16111820

> <PUBCHEM_EXT_DATASOURCE_URL>
https://www.surechembl.org/

> <PUBCHEM_EXT_SUBSTANCE_URL>
https://www.surechembl.org/chemical/SCHEMBL16111820

> <PUBCHEM_CID_ASSOCIATIONS>
117602584  1

> <PUBCHEM_COORDINATE_TYPE>
1
3

$$$$
