310930549
  -OEChem-07211613022D

 27 29  0     0  0  0  0  0  0999 V2000
    0.0000   -4.1843    0.0000 O   0  0  0  0  0  0  0  0  0  0  0  0
    2.7791   -6.2140    0.0000 O   0  5  0  0  0  0  0  0  0  0  0  0
    1.3427   -6.2453    0.0000 O   0  0  0  0  0  0  0  0  0  0  0  0
    5.6519   -1.2490    0.0000 O   0  0  0  0  0  0  0  0  0  0  0  0
    4.9025    0.0000    0.0000 O   0  0  0  0  0  0  0  0  0  0  0  0
    7.0883   -1.2490    0.0000 O   0  0  0  0  0  0  0  0  0  0  0  0
    8.5559   -1.2803    0.0000 O   0  0  0  0  0  0  0  0  0  0  0  0
    0.4996   -3.4973    0.0000 N   0  0  0  0  0  0  0  0  0  0  0  0
    0.4996   -4.8400    0.0000 N   0  0  0  0  0  0  0  0  0  0  0  0
    2.0297   -2.4981    0.0000 N   0  0  0  0  0  0  0  0  0  0  0  0
    2.0609   -5.8081    0.0000 N   0  3  0  0  0  0  0  0  0  0  0  0
    1.2803   -3.7159    0.0000 C   0  0  0  0  0  0  0  0  0  0  0  0
    1.3115   -4.5903    0.0000 C   0  0  0  0  0  0  0  0  0  0  0  0
    2.0297   -3.3100    0.0000 C   0  0  0  0  0  0  0  0  0  0  0  0
    2.0297   -4.9962    0.0000 C   0  0  0  0  0  0  0  0  0  0  0  0
    2.7479   -3.7159    0.0000 C   0  0  0  0  0  0  0  0  0  0  0  0
    2.7479   -4.5903    0.0000 C   0  0  0  0  0  0  0  0  0  0  0  0
    2.7479   -2.0921    0.0000 C   0  0  0  0  0  0  0  0  0  0  0  0
    4.1843   -1.2490    0.0000 C   0  0  0  0  0  0  0  0  0  0  0  0
    2.7479   -1.2490    0.0000 C   0  0  0  0  0  0  0  0  0  0  0  0
    3.4661   -2.4981    0.0000 C   0  0  0  0  0  0  0  0  0  0  0  0
    3.4661   -0.8431    0.0000 C   0  0  0  0  0  0  0  0  0  0  0  0
    4.1843   -2.0921    0.0000 C   0  0  0  0  0  0  0  0  0  0  0  0
    4.9025   -0.8431    0.0000 C   0  0  0  0  0  0  0  0  0  0  0  0
    6.3701   -0.8431    0.0000 C   0  0  0  0  0  0  0  0  0  0  0  0
    7.7753   -0.8431    0.0000 C   0  0  0  0  0  0  0  0  0  0  0  0
    7.7753   -0.0312    0.0000 C   0  0  0  0  0  0  0  0  0  0  0  0
  1  8  1  0  0  0  0
  1  9  1  0  0  0  0
  2 11  1  0  0  0  0
  3 11  2  0  0  0  0
  4 24  1  0  0  0  0
  4 25  1  0  0  0  0
  5 24  2  0  0  0  0
  6 25  1  0  0  0  0
  6 26  1  0  0  0  0
  7 26  2  0  0  0  0
  8 12  2  0  0  0  0
  9 13  2  0  0  0  0
 10 14  1  0  0  0  0
 10 18  1  0  0  0  0
 11 15  1  0  0  0  0
 12 13  1  0  0  0  0
 12 14  1  0  0  0  0
 13 15  1  0  0  0  0
 14 16  2  0  0  0  0
 15 17  2  0  0  0  0
 16 17  1  0  0  0  0
 18 20  2  0  0  0  0
 18 21  1  0  0  0  0
 19 22  2  0  0  0  0
 19 23  1  0  0  0  0
 19 24  1  0  0  0  0
 20 22  1  0  0  0  0
 21 23  2  0  0  0  0
 26 27  1  0  0  0  0
M  CHG  2   2  -1  11   1
M  END
> <PUBCHEM_COMPOUND_ID_TYPE>
0

> <PUBCHEM_TOTAL_CHARGE>
0

> <PUBCHEM_SUBSTANCE_ID>
310930549

> <PUBCHEM_SUBSTANCE_VERSION>
1

> <PUBCHEM_EXT_DATASOURCE_NAME>
4488

> <PUBCHEM_EXT_DATASOURCE_REGID>
SCHEMBL16107842

> <PUBCHEM_SUBSTANCE_COMMENT>
InChI=1S/C16H12N4O7/c1-9(21)25-8-26-16(22)10-2-4-11(5-3-10)17-12-6-7-13(20(23)24)15-14(12)18-27-19-15/h2-7,17H,8H2,1H3
InChIKey=OHDNCDRPFWXLCQ-UHFFFAOYSA-N

> <PUBCHEM_SUBSTANCE_SYNONYM>
SCHEMBL16107842

> <PUBCHEM_XREF_EXT_ID>
SCHEMBL16107842

> <PUBCHEM_EXT_DATASOURCE_URL>
https://www.surechembl.org/

> <PUBCHEM_EXT_SUBSTANCE_URL>
https://www.surechembl.org/chemical/SCHEMBL16107842

> <PUBCHEM_CID_ASSOCIATIONS>
117599644  1

> <PUBCHEM_COORDINATE_TYPE>
1
3

$$$$
