310945295
  -OEChem-07211613022D

 19 22  0     0  0  0  0  0  0999 V2000
   -2.9343   -0.1110    0.0000 Cl  0  0  0  0  0  0  0  0  0  0  0  0
    2.9343    0.2636    0.0000 O   0  0  0  0  0  0  0  0  0  0  0  0
    0.3815   -0.9156    0.0000 N   0  0  0  0  0  0  0  0  0  0  0  0
   -1.9352    1.1515    0.0000 N   0  0  0  0  0  0  0  0  0  0  0  0
    0.2151   -0.0971    0.0000 C   0  0  0  0  0  0  0  0  0  0  0  0
    0.9364    0.3053    0.0000 C   0  0  0  0  0  0  0  0  0  0  0  0
    1.5469   -0.2497    0.0000 C   0  0  0  0  0  0  0  0  0  0  0  0
    1.2139   -0.9988    0.0000 C   0  0  0  0  0  0  0  0  0  0  0  0
   -0.5064    0.3191    0.0000 C   0  0  0  0  0  0  0  0  0  0  0  0
    2.3515   -0.3746    0.0000 C   0  0  0  0  0  0  0  0  0  0  0  0
   -0.4925    1.1376    0.0000 C   0  0  0  0  0  0  0  0  0  0  0  0
    0.9364    1.1237    0.0000 C   0  0  0  0  0  0  0  0  0  0  0  0
    1.8521   -1.5538    0.0000 C   0  0  0  0  0  0  0  0  0  0  0  0
    0.2290    1.5400    0.0000 C   0  0  0  0  0  0  0  0  0  0  0  0
    2.5458   -1.1515    0.0000 C   0  0  0  0  0  0  0  0  0  0  0  0
   -1.2139   -0.0971    0.0000 C   0  0  0  0  0  0  0  0  0  0  0  0
   -1.2139    1.5538    0.0000 C   0  0  0  0  0  0  0  0  0  0  0  0
   -0.1873   -1.5261    0.0000 C   0  0  0  0  0  0  0  0  0  0  0  0
   -1.9492    0.3191    0.0000 C   0  0  0  0  0  0  0  0  0  0  0  0
  1 19  1  0  0  0  0
  2 10  2  0  0  0  0
  3  5  1  0  0  0  0
  3  8  1  0  0  0  0
  3 18  1  0  0  0  0
  4 17  1  0  0  0  0
  4 19  2  0  0  0  0
  5  6  2  0  0  0  0
  5  9  1  0  0  0  0
  6  7  1  0  0  0  0
  6 12  1  0  0  0  0
  7  8  2  0  0  0  0
  7 10  1  0  0  0  0
  8 13  1  0  0  0  0
  9 11  1  0  0  0  0
  9 16  2  0  0  0  0
 10 15  1  0  0  0  0
 11 14  1  0  0  0  0
 11 17  2  0  0  0  0
 12 14  2  0  0  0  0
 13 15  1  0  0  0  0
 16 19  1  0  0  0  0
M  END
> <PUBCHEM_COMPOUND_ID_TYPE>
0

> <PUBCHEM_TOTAL_CHARGE>
0

> <PUBCHEM_SUBSTANCE_ID>
310945295

> <PUBCHEM_SUBSTANCE_VERSION>
1

> <PUBCHEM_EXT_DATASOURCE_NAME>
4488

> <PUBCHEM_EXT_DATASOURCE_REGID>
SCHEMBL16123393

> <PUBCHEM_SUBSTANCE_COMMENT>
InChI=1S/C15H11ClN2O/c1-18-11-4-5-12(19)14(11)9-3-2-8-7-17-13(16)6-10(8)15(9)18/h2-3,6-7H,4-5H2,1H3
InChIKey=FMEAOSVKRAPVIY-UHFFFAOYSA-N

> <PUBCHEM_SUBSTANCE_SYNONYM>
SCHEMBL16123393

> <PUBCHEM_XREF_EXT_ID>
SCHEMBL16123393

> <PUBCHEM_EXT_DATASOURCE_URL>
https://www.surechembl.org/

> <PUBCHEM_EXT_SUBSTANCE_URL>
https://www.surechembl.org/chemical/SCHEMBL16123393

> <PUBCHEM_CID_ASSOCIATIONS>
117611354  1

> <PUBCHEM_COORDINATE_TYPE>
1
3

$$$$
