310940978
  -OEChem-07211613022D

 41 44  0     1  0  0  0  0  0999 V2000
    5.2589   -1.6623    0.0000 O   0  0  0  0  0  0  0  0  0  0  0  0
    4.1115    0.3236    0.0000 O   0  0  0  0  0  0  0  0  0  0  0  0
    1.7138   -1.6476    0.0000 O   0  0  0  0  0  0  0  0  0  0  0  0
   -0.4780    0.4413    0.0000 O   0  0  0  0  0  0  0  0  0  0  0  0
    2.4345    2.9568    0.0000 O   0  0  0  0  0  0  0  0  0  0  0  0
   -2.6551   -1.6476    0.0000 O   0  0  0  0  0  0  0  0  0  0  0  0
   -5.5530   -1.6476    0.0000 O   0  0  0  0  0  0  0  0  0  0  0  0
    2.4345   -0.3972    0.0000 N   0  0  0  0  0  0  0  0  0  0  0  0
    0.2574   -0.8091    0.0000 N   0  0  0  0  0  0  0  0  0  0  0  0
   -1.9197   -0.3972    0.0000 N   0  0  0  0  0  0  0  0  0  0  0  0
    3.1700    1.7064    0.0000 N   0  0  0  0  0  0  0  0  0  0  0  0
   -4.0968   -0.8091    0.0000 N   0  0  0  0  0  0  0  0  0  0  0  0
    4.8470   -0.9120    0.0000 C   0  0  3  0  0  0  0  0  0  0  0  0
    4.0527   -0.5001    0.0000 C   0  0  0  0  0  0  0  0  0  0  0  0
    4.4351   -1.6182    0.0000 C   0  0  0  0  0  0  0  0  0  0  0  0
    3.4054   -0.8974    0.0000 C   0  0  3  0  0  0  0  0  0  0  0  0
    5.5530   -0.5001    0.0000 C   0  0  0  0  0  0  0  0  0  0  0  0
    3.4054   -2.0153    0.0000 C   0  0  0  0  0  0  0  0  0  0  0  0
    1.7138   -0.7650    0.0000 C   0  0  0  0  0  0  0  0  0  0  0  0
    0.9930   -0.3677    0.0000 C   0  0  3  0  0  0  0  0  0  0  0  0
    2.6698   -2.4125    0.0000 C   0  0  0  0  0  0  0  0  0  0  0  0
    1.0077    0.4707    0.0000 C   0  0  0  0  0  0  0  0  0  0  0  0
    1.6991    0.8974    0.0000 C   0  0  0  0  0  0  0  0  0  0  0  0
   -0.4780   -0.3824    0.0000 C   0  0  0  0  0  0  0  0  0  0  0  0
    1.8903   -2.0888    0.0000 C   0  0  0  0  0  0  0  0  0  0  0  0
    2.5668   -3.2510    0.0000 C   0  0  0  0  0  0  0  0  0  0  0  0
   -1.1841   -0.7796    0.0000 C   0  0  3  0  0  0  0  0  0  0  0  0
    1.7284    1.7359    0.0000 C   0  0  0  0  0  0  0  0  0  0  0  0
    1.3459   -2.7067    0.0000 C   0  0  0  0  0  0  0  0  0  0  0  0
    1.7579   -3.4128    0.0000 C   0  0  0  0  0  0  0  0  0  0  0  0
    2.4639    0.4854    0.0000 C   0  0  0  0  0  0  0  0  0  0  0  0
    2.4492    2.1477    0.0000 C   0  0  0  0  0  0  0  0  0  0  0  0
    3.1700    0.8974    0.0000 C   0  0  0  0  0  0  0  0  0  0  0  0
   -2.6405   -0.7650    0.0000 C   0  0  0  0  0  0  0  0  0  0  0  0
   -3.3907   -0.3677    0.0000 C   0  0  0  0  0  0  0  0  0  0  0  0
   -1.1841   -1.6034    0.0000 C   0  0  0  0  0  0  0  0  0  0  0  0
   -4.0968   -1.6182    0.0000 C   0  0  0  0  0  0  0  0  0  0  0  0
   -4.8322   -0.3677    0.0000 C   0  0  0  0  0  0  0  0  0  0  0  0
   -4.8028   -2.0300    0.0000 C   0  0  0  0  0  0  0  0  0  0  0  0
   -5.5384   -0.7796    0.0000 C   0  0  0  0  0  0  0  0  0  0  0  0
    3.1994    3.4128    0.0000 C   0  0  0  0  0  0  0  0  0  0  0  0
  1 13  1  0  0  0  0
  1 15  1  0  0  0  0
  2 14  2  0  0  0  0
  3 19  2  0  0  0  0
  4 24  2  0  0  0  0
  5 32  1  0  0  0  0
  5 41  1  0  0  0  0
  6 34  2  0  0  0  0
  7 39  1  0  0  0  0
  7 40  1  0  0  0  0
 16  8  1  6  0  0  0
  8 19  1  0  0  0  0
 20  9  1  1  0  0  0
  9 24  1  0  0  0  0
 10 27  1  0  0  0  0
 10 34  1  0  0  0  0
 11 32  1  0  0  0  0
 11 33  2  0  0  0  0
 12 35  1  0  0  0  0
 12 37  1  0  0  0  0
 12 38  1  0  0  0  0
 13 14  1  6  0  0  0
 13 15  1  0  0  0  0
 13 17  1  1  0  0  0
 14 16  1  0  0  0  0
 16 18  1  0  0  0  0
 18 21  1  0  0  0  0
 19 20  1  0  0  0  0
 20 22  1  0  0  0  0
 21 25  2  0  0  0  0
 21 26  1  0  0  0  0
 22 23  1  0  0  0  0
 23 28  1  0  0  0  0
 23 31  2  0  0  0  0
 24 27  1  0  0  0  0
 25 29  1  0  0  0  0
 26 30  1  0  0  0  0
 27 36  1  6  0  0  0
 28 32  2  0  0  0  0
 29 30  1  0  0  0  0
 31 33  1  0  0  0  0
 34 35  1  0  0  0  0
 37 39  1  0  0  0  0
 38 40  1  0  0  0  0
M  END
> <PUBCHEM_COMPOUND_ID_TYPE>
0

> <PUBCHEM_TOTAL_CHARGE>
0

> <PUBCHEM_SUBSTANCE_ID>
310940978

> <PUBCHEM_SUBSTANCE_VERSION>
1

> <PUBCHEM_EXT_DATASOURCE_NAME>
4488

> <PUBCHEM_EXT_DATASOURCE_REGID>
SCHEMBL16118937

> <PUBCHEM_SUBSTANCE_COMMENT>
InChI=1S/C29H41N5O7/c1-19(31-24(35)17-34-10-12-40-13-11-34)27(37)33-23(15-21-8-9-30-25(16-21)39-3)28(38)32-22(14-20-6-4-5-7-20)26(36)29(2)18-41-29/h6,8-9,16,19,22-23H,4-5,7,10-15,17-18H2,1-3H3,(H,31,35)(H,32,38)(H,33,37)/t19-,22-,23-,29+/m0/s1
InChIKey=NQKJBJAXVQKTSB-GCNCJWNFSA-N

> <PUBCHEM_SUBSTANCE_SYNONYM>
SCHEMBL16118937

> <PUBCHEM_XREF_EXT_ID>
SCHEMBL16118937

> <PUBCHEM_EXT_DATASOURCE_URL>
https://www.surechembl.org/

> <PUBCHEM_EXT_SUBSTANCE_URL>
https://www.surechembl.org/chemical/SCHEMBL16118937

> <PUBCHEM_CID_ASSOCIATIONS>
117607885  1

> <PUBCHEM_COORDINATE_TYPE>
1
3

> <PUBCHEM_BONDANNOTATIONS>
13  14  6
13  17  5
27  36  6
16  8  6
20  9  5

$$$$
