310938953
  -OEChem-07211613022D

 28 29  0     1  0  0  0  0  0999 V2000
    5.2381   -0.9137    0.0000 O   0  0  0  0  0  0  0  0  0  0  0  0
    4.5236    0.3238    0.0000 O   0  0  0  0  0  0  0  0  0  0  0  0
    3.8091   -3.3887    0.0000 O   0  0  0  0  0  0  0  0  0  0  0  0
    5.2381   -3.3887    0.0000 O   0  0  0  0  0  0  0  0  0  0  0  0
    3.0947   -0.5012    0.0000 N   0  0  0  0  0  0  0  0  0  0  0  0
    2.3802   -0.9137    0.0000 C   0  0  0  0  0  0  0  0  0  0  0  0
    2.3802   -1.7387    0.0000 C   0  0  0  0  0  0  0  0  0  0  0  0
    1.6657   -0.5012    0.0000 C   0  0  0  0  0  0  0  0  0  0  0  0
    3.8091   -0.9137    0.0000 C   0  0  3  0  0  0  0  0  0  0  0  0
    4.5236   -0.5012    0.0000 C   0  0  0  0  0  0  0  0  0  0  0  0
    1.6657   -2.1512    0.0000 C   0  0  0  0  0  0  0  0  0  0  0  0
    1.6657    0.3238    0.0000 C   0  0  0  0  0  0  0  0  0  0  0  0
    3.0947   -2.1512    0.0000 C   0  0  0  0  0  0  0  0  0  0  0  0
    0.9512   -0.9137    0.0000 C   0  0  0  0  0  0  0  0  0  0  0  0
    3.8091   -1.7387    0.0000 C   0  0  0  0  0  0  0  0  0  0  0  0
    5.9525   -0.5012    0.0000 C   0  0  0  0  0  0  0  0  0  0  0  0
    1.6657   -2.9762    0.0000 C   0  0  0  0  0  0  0  0  0  0  0  0
    0.9512    0.7363    0.0000 C   0  0  0  0  0  0  0  0  0  0  0  0
    3.0947   -2.9762    0.0000 C   0  0  0  0  0  0  0  0  0  0  0  0
    0.2368   -0.5012    0.0000 C   0  0  0  0  0  0  0  0  0  0  0  0
    4.5236   -2.1512    0.0000 C   0  0  0  0  0  0  0  0  0  0  0  0
    2.3802   -3.3887    0.0000 C   0  0  0  0  0  0  0  0  0  0  0  0
    0.2368    0.3238    0.0000 C   0  0  0  0  0  0  0  0  0  0  0  0
    4.5236   -2.9762    0.0000 C   0  0  0  0  0  0  0  0  0  0  0  0
    6.6670   -0.9137    0.0000 C   0  0  0  0  0  0  0  0  0  0  0  0
    6.6670   -0.0887    0.0000 C   0  0  0  0  0  0  0  0  0  0  0  0
    5.9525    0.3238    0.0000 C   0  0  0  0  0  0  0  0  0  0  0  0
    3.8091   -4.2137    0.0000 C   0  0  0  0  0  0  0  0  0  0  0  0
  1 10  1  0  0  0  0
  1 16  1  0  0  0  0
  2 10  2  0  0  0  0
  3 24  1  0  0  0  0
  3 28  1  0  0  0  0
  4 24  2  0  0  0  0
  5  6  2  0  0  0  0
  9  5  1  6  0  0  0
  6  7  1  0  0  0  0
  6  8  1  0  0  0  0
  7 11  2  0  0  0  0
  7 13  1  0  0  0  0
  8 12  2  0  0  0  0
  8 14  1  0  0  0  0
  9 10  1  0  0  0  0
  9 15  1  0  0  0  0
 11 17  1  0  0  0  0
 12 18  1  0  0  0  0
 13 19  2  0  0  0  0
 14 20  2  0  0  0  0
 15 21  1  0  0  0  0
 16 25  1  0  0  0  0
 16 26  1  0  0  0  0
 16 27  1  0  0  0  0
 17 22  2  0  0  0  0
 18 23  2  0  0  0  0
 19 22  1  0  0  0  0
 20 23  1  0  0  0  0
 21 24  1  0  0  0  0
M  END
> <PUBCHEM_COMPOUND_ID_TYPE>
0

> <PUBCHEM_TOTAL_CHARGE>
0

> <PUBCHEM_SUBSTANCE_ID>
310938953

> <PUBCHEM_SUBSTANCE_VERSION>
1

> <PUBCHEM_EXT_DATASOURCE_NAME>
4488

> <PUBCHEM_EXT_DATASOURCE_REGID>
SCHEMBL16116872

> <PUBCHEM_SUBSTANCE_COMMENT>
InChI=1S/C23H27NO4/c1-23(2,3)28-22(26)19(15-16-20(25)27-4)24-21(17-11-7-5-8-12-17)18-13-9-6-10-14-18/h5-14,19H,15-16H2,1-4H3/t19-/m0/s1
InChIKey=AWCUYTGZFHLLQT-IBGZPJMESA-N

> <PUBCHEM_SUBSTANCE_SYNONYM>
SCHEMBL16116872

> <PUBCHEM_XREF_EXT_ID>
SCHEMBL16116872

> <PUBCHEM_EXT_DATASOURCE_URL>
https://www.surechembl.org/

> <PUBCHEM_EXT_SUBSTANCE_URL>
https://www.surechembl.org/chemical/SCHEMBL16116872

> <PUBCHEM_CID_ASSOCIATIONS>
11653808  1

> <PUBCHEM_COORDINATE_TYPE>
1
3

> <PUBCHEM_BONDANNOTATIONS>
9  5  6

$$$$
