310938916
  -OEChem-07211613022D

 71 79  0     1  0  0  0  0  0999 V2000
   -0.5521   -6.6109    0.0000 S   0  0  0  0  0  0  0  0  0  0  0  0
   -1.2666   -6.1984    0.0000 O   0  0  0  0  0  0  0  0  0  0  0  0
    0.1624   -7.0234    0.0000 O   0  0  0  0  0  0  0  0  0  0  0  0
   -0.1396   -5.8964    0.0000 O   0  0  0  0  0  0  0  0  0  0  0  0
   -7.5573  -12.4463    0.0000 O   0  0  0  0  0  0  0  0  0  0  0  0
   -9.6593  -11.3918    0.0000 O   0  0  0  0  0  0  0  0  0  0  0  0
   -6.8428  -13.6838    0.0000 O   0  0  0  0  0  0  0  0  0  0  0  0
   -5.4139  -11.2088    0.0000 O   0  0  0  0  0  0  0  0  0  0  0  0
   -4.6994   -9.9713    0.0000 O   0  0  0  0  0  0  0  0  0  0  0  0
   -0.4126  -10.7963    0.0000 N   0  0  0  0  0  0  0  0  0  0  0  0
    5.3816  -10.7963    0.0000 N   0  3  0  0  0  0  0  0  0  0  0  0
   -9.0755  -10.1312    0.0000 N   0  0  0  0  0  0  0  0  0  0  0  0
   -0.5521   -9.4687    0.0000 C   0  0  0  0  0  0  0  0  0  0  0  0
    0.2549   -9.6403    0.0000 C   0  0  0  0  0  0  0  0  0  0  0  0
    5.5212   -9.4687    0.0000 C   0  0  0  0  0  0  0  0  0  0  0  0
    4.7142   -9.6403    0.0000 C   0  0  0  0  0  0  0  0  0  0  0  0
   -0.9646  -10.1832    0.0000 C   0  0  0  0  0  0  0  0  0  0  0  0
    0.3411  -10.4608    0.0000 C   0  0  0  0  0  0  0  0  0  0  0  0
    5.9337  -10.1832    0.0000 C   0  0  0  0  0  0  0  0  0  0  0  0
    4.6279  -10.4608    0.0000 C   0  0  0  0  0  0  0  0  0  0  0  0
   -0.9646   -8.7543    0.0000 C   0  0  0  0  0  0  0  0  0  0  0  0
    5.9337   -8.7543    0.0000 C   0  0  0  0  0  0  0  0  0  0  0  0
   -1.7896   -8.7543    0.0000 C   0  0  0  0  0  0  0  0  0  0  0  0
    6.7587   -8.7543    0.0000 C   0  0  0  0  0  0  0  0  0  0  0  0
   -1.7896  -10.1832    0.0000 C   0  0  0  0  0  0  0  0  0  0  0  0
    6.7587  -10.1832    0.0000 C   0  0  0  0  0  0  0  0  0  0  0  0
   -0.5521   -8.0398    0.0000 C   0  0  0  0  0  0  0  0  0  0  0  0
   -2.2021   -9.4687    0.0000 C   0  0  0  0  0  0  0  0  0  0  0  0
    1.0556  -10.8733    0.0000 C   0  0  0  0  0  0  0  0  0  0  0  0
    7.1712   -9.4687    0.0000 C   0  0  0  0  0  0  0  0  0  0  0  0
    5.5212   -8.0398    0.0000 C   0  0  0  0  0  0  0  0  0  0  0  0
    1.0799   -9.6403    0.0000 C   0  0  0  0  0  0  0  0  0  0  0  0
    0.6674   -8.9258    0.0000 C   0  0  0  0  0  0  0  0  0  0  0  0
    3.9135  -10.8733    0.0000 C   0  0  0  0  0  0  0  0  0  0  0  0
   -1.1270  -11.2088    0.0000 C   0  0  0  0  0  0  0  0  0  0  0  0
    7.1712   -8.0398    0.0000 C   0  0  0  0  0  0  0  0  0  0  0  0
    3.8892   -9.6403    0.0000 C   0  0  0  0  0  0  0  0  0  0  0  0
    4.3017   -8.9258    0.0000 C   0  0  0  0  0  0  0  0  0  0  0  0
   -0.9646   -7.3253    0.0000 C   0  0  0  0  0  0  0  0  0  0  0  0
    5.3816  -11.6213    0.0000 C   0  0  0  0  0  0  0  0  0  0  0  0
   -2.2021   -8.0398    0.0000 C   0  0  0  0  0  0  0  0  0  0  0  0
    5.9337   -7.3253    0.0000 C   0  0  0  0  0  0  0  0  0  0  0  0
   -1.7896   -7.3253    0.0000 C   0  0  0  0  0  0  0  0  0  0  0  0
    6.7587   -7.3253    0.0000 C   0  0  0  0  0  0  0  0  0  0  0  0
    1.7701  -10.4608    0.0000 C   0  0  0  0  0  0  0  0  0  0  0  0
    3.1990  -10.4608    0.0000 C   0  0  0  0  0  0  0  0  0  0  0  0
   -9.0014  -10.9528    0.0000 C   0  0  3  0  0  0  0  0  0  0  0  0
   -8.3372  -10.7024    0.0000 C   0  0  3  0  0  0  0  0  0  0  0  0
   -9.1750  -11.7166    0.0000 C   0  0  0  0  0  0  0  0  0  0  0  0
   -1.8415  -10.7963    0.0000 C   0  0  0  0  0  0  0  0  0  0  0  0
    2.4845  -10.8733    0.0000 C   0  0  0  0  0  0  0  0  0  0  0  0
    7.9962   -8.0398    0.0000 C   0  0  0  0  0  0  0  0  0  0  0  0
    6.2066  -11.6213    0.0000 C   0  0  0  0  0  0  0  0  0  0  0  0
   -7.5573  -11.6213    0.0000 C   0  0  0  0  0  0  0  0  0  0  0  0
   -8.1603  -10.9823    0.0000 C   0  0  0  0  0  0  0  0  0  0  0  0
   -7.6493  -10.6829    0.0000 C   0  0  0  0  0  0  0  0  0  0  0  0
    5.5212   -6.6109    0.0000 C   0  0  0  0  0  0  0  0  0  0  0  0
   -2.5560  -11.2088    0.0000 C   0  0  0  0  0  0  0  0  0  0  0  0
   -9.9005  -10.1312    0.0000 C   0  0  0  0  0  0  0  0  0  0  0  0
   -6.8428  -12.8588    0.0000 C   0  0  0  0  0  0  0  0  0  0  0  0
   -3.2704  -10.7963    0.0000 C   0  0  0  0  0  0  0  0  0  0  0  0
   -6.1283  -12.4463    0.0000 C   0  0  3  0  0  0  0  0  0  0  0  0
   -5.4139  -12.8588    0.0000 C   0  0  0  0  0  0  0  0  0  0  0  0
   -3.9849  -11.2088    0.0000 C   0  0  0  0  0  0  0  0  0  0  0  0
   -6.1283  -11.6213    0.0000 C   0  0  0  0  0  0  0  0  0  0  0  0
   -4.6994  -10.7963    0.0000 C   0  0  0  0  0  0  0  0  0  0  0  0
   -5.4139  -13.6838    0.0000 C   0  0  0  0  0  0  0  0  0  0  0  0
   -4.6994  -12.4463    0.0000 C   0  0  0  0  0  0  0  0  0  0  0  0
   -4.6994  -14.0963    0.0000 C   0  0  0  0  0  0  0  0  0  0  0  0
   -3.9849  -12.8588    0.0000 C   0  0  0  0  0  0  0  0  0  0  0  0
   -3.9849  -13.6838    0.0000 C   0  0  0  0  0  0  0  0  0  0  0  0
  1  2  2  0  0  0  0
  1  3  2  0  0  0  0
  1  4  1  0  0  0  0
  1 39  1  0  0  0  0
 54  5  1  6  0  0  0
  5 60  1  0  0  0  0
 49  6  1  6  0  0  0
  7 60  2  0  0  0  0
  8 65  1  0  0  0  0
  8 66  1  0  0  0  0
  9 66  2  0  0  0  0
 10 17  1  0  0  0  0
 10 18  1  0  0  0  0
 10 35  1  0  0  0  0
 11 19  1  0  0  0  0
 11 20  2  0  0  0  0
 11 40  1  0  0  0  0
 47 12  1  1  0  0  0
 12 48  1  0  0  0  0
 12 59  1  0  0  0  0
 13 14  1  0  0  0  0
 13 17  2  0  0  0  0
 13 21  1  0  0  0  0
 14 18  1  0  0  0  0
 14 32  1  0  0  0  0
 14 33  1  0  0  0  0
 15 16  1  0  0  0  0
 15 19  2  0  0  0  0
 15 22  1  0  0  0  0
 16 20  1  0  0  0  0
 16 37  1  0  0  0  0
 16 38  1  0  0  0  0
 17 25  1  0  0  0  0
 18 29  2  0  0  0  0
 19 26  1  0  0  0  0
 20 34  1  0  0  0  0
 21 23  2  0  0  0  0
 21 27  1  0  0  0  0
 22 24  1  0  0  0  0
 22 31  2  0  0  0  0
 23 28  1  0  0  0  0
 23 41  1  0  0  0  0
 24 30  1  0  0  0  0
 24 36  2  0  0  0  0
 25 28  2  0  0  0  0
 26 30  2  0  0  0  0
 27 39  2  0  0  0  0
 29 45  1  0  0  0  0
 31 42  1  0  0  0  0
 34 46  2  0  0  0  0
 35 50  1  0  0  0  0
 36 44  1  0  0  0  0
 36 52  1  0  0  0  0
 39 43  1  0  0  0  0
 40 53  1  0  0  0  0
 41 43  2  0  0  0  0
 42 44  2  0  0  0  0
 42 57  1  0  0  0  0
 45 51  2  0  0  0  0
 46 51  1  0  0  0  0
 47 49  1  0  0  0  0
 47 55  1  0  0  0  0
 48 49  1  0  0  0  0
 48 56  1  0  0  0  0
 50 58  1  0  0  0  0
 54 55  1  0  0  0  0
 54 56  1  0  0  0  0
 58 61  1  0  0  0  0
 60 62  1  0  0  0  0
 61 64  1  0  0  0  0
 62 63  1  0  0  0  0
 62 65  1  6  0  0  0
 63 67  2  0  0  0  0
 63 68  1  0  0  0  0
 64 66  1  0  0  0  0
 67 69  1  0  0  0  0
 68 70  2  0  0  0  0
 69 71  2  0  0  0  0
 70 71  1  0  0  0  0
M  CHG  1  11   1
M  END
> <PUBCHEM_COMPOUND_ID_TYPE>
0

> <PUBCHEM_TOTAL_CHARGE>
1

> <PUBCHEM_SUBSTANCE_ID>
310938916

> <PUBCHEM_SUBSTANCE_VERSION>
1

> <PUBCHEM_EXT_DATASOURCE_NAME>
4488

> <PUBCHEM_EXT_DATASOURCE_REGID>
SCHEMBL16116835

> <PUBCHEM_SUBSTANCE_COMMENT>
InChI=1S/C59H67N3O8S/c1-9-61-47-29-27-43-38(3)31-37(2)32-45(43)55(47)58(4,5)51(61)21-15-11-16-22-52-59(6,7)54-44-35-42(71(66,67)68)26-24-40(44)25-28-48(54)62(52)30-18-12-17-23-53(63)69-36-46(39-19-13-10-14-20-39)57(65)70-41-33-49-56(64)50(34-41)60(49)8/h10-11,13-16,19-22,24-29,31-32,35,41,46,49-50,56,64H,9,12,17-18,23,30,33-34,36H2,1-8H3/p+1/t41-,46-,49+,50?,56-/m1/s1
InChIKey=FIKQHZPENMIYRJ-MJGRVQMCSA-O

> <PUBCHEM_SUBSTANCE_SYNONYM>
SCHEMBL16116835

> <PUBCHEM_XREF_EXT_ID>
SCHEMBL16116835

> <PUBCHEM_EXT_DATASOURCE_URL>
https://www.surechembl.org/

> <PUBCHEM_EXT_SUBSTANCE_URL>
https://www.surechembl.org/chemical/SCHEMBL16116835

> <PUBCHEM_CID_ASSOCIATIONS>
117606313  1

> <PUBCHEM_COORDINATE_TYPE>
1
3

> <PUBCHEM_BONDANNOTATIONS>
47  12  5
54  5  6
49  6  6
62  65  6

$$$$
