310944228
  -OEChem-07211613022D

 26 28  0     0  0  0  0  0  0999 V2000
   -4.0357    1.4697    0.0000 Cl  0  0  0  0  0  0  0  0  0  0  0  0
   -4.0357   -0.1993    0.0000 Cl  0  0  0  0  0  0  0  0  0  0  0  0
    4.0357    0.2242    0.0000 O   0  0  0  0  0  0  0  0  0  0  0  0
   -0.9965   -0.1993    0.0000 O   0  0  0  0  0  0  0  0  0  0  0  0
    0.4359    2.2919    0.0000 O   0  0  0  0  0  0  0  0  0  0  0  0
    2.6157    0.2242    0.0000 N   0  0  0  0  0  0  0  0  0  0  0  0
    1.1833    1.0588    0.0000 N   0  0  0  0  0  0  0  0  0  0  0  0
   -0.9840    1.4697    0.0000 N   0  0  0  0  0  0  0  0  0  0  0  0
   -1.7065    1.0588    0.0000 C   0  0  0  0  0  0  0  0  0  0  0  0
    3.3257   -0.1993    0.0000 C   0  0  0  0  0  0  0  0  0  0  0  0
   -1.7188    0.2366    0.0000 C   0  0  0  0  0  0  0  0  0  0  0  0
    0.4359    1.4573    0.0000 C   0  0  0  0  0  0  0  0  0  0  0  0
   -3.1513    1.0588    0.0000 C   0  0  0  0  0  0  0  0  0  0  0  0
   -3.1513    0.2242    0.0000 C   0  0  0  0  0  0  0  0  0  0  0  0
   -2.4289    1.4573    0.0000 C   0  0  0  0  0  0  0  0  0  0  0  0
    3.3257   -1.0214    0.0000 C   0  0  0  0  0  0  0  0  0  0  0  0
   -2.4165   -0.1868    0.0000 C   0  0  0  0  0  0  0  0  0  0  0  0
    2.6033    1.0588    0.0000 C   0  0  0  0  0  0  0  0  0  0  0  0
    1.8933   -0.1868    0.0000 C   0  0  0  0  0  0  0  0  0  0  0  0
    1.8933    1.4697    0.0000 C   0  0  0  0  0  0  0  0  0  0  0  0
    1.1709    0.2242    0.0000 C   0  0  0  0  0  0  0  0  0  0  0  0
   -0.2616    1.0588    0.0000 C   0  0  0  0  0  0  0  0  0  0  0  0
    3.9983   -1.5071    0.0000 C   0  0  0  0  0  0  0  0  0  0  0  0
    2.6656   -1.5071    0.0000 C   0  0  0  0  0  0  0  0  0  0  0  0
    3.7368   -2.2919    0.0000 C   0  0  0  0  0  0  0  0  0  0  0  0
    2.9147   -2.2919    0.0000 C   0  0  0  0  0  0  0  0  0  0  0  0
  1 13  1  0  0  0  0
  2 14  1  0  0  0  0
  3 10  2  0  0  0  0
  4 11  1  0  0  0  0
  5 12  2  0  0  0  0
  6 10  1  0  0  0  0
  6 18  1  0  0  0  0
  6 19  1  0  0  0  0
  7 12  1  0  0  0  0
  7 20  1  0  0  0  0
  7 21  1  0  0  0  0
  8  9  1  0  0  0  0
  8 22  1  0  0  0  0
  9 11  1  0  0  0  0
  9 15  2  0  0  0  0
 10 16  1  0  0  0  0
 11 17  2  0  0  0  0
 12 22  1  0  0  0  0
 13 14  2  0  0  0  0
 13 15  1  0  0  0  0
 14 17  1  0  0  0  0
 16 23  2  0  0  0  0
 16 24  1  0  0  0  0
 18 20  1  0  0  0  0
 19 21  1  0  0  0  0
 23 25  1  0  0  0  0
 24 26  1  0  0  0  0
 25 26  1  0  0  0  0
M  END
> <PUBCHEM_COMPOUND_ID_TYPE>
0

> <PUBCHEM_TOTAL_CHARGE>
0

> <PUBCHEM_SUBSTANCE_ID>
310944228

> <PUBCHEM_SUBSTANCE_VERSION>
1

> <PUBCHEM_EXT_DATASOURCE_NAME>
4488

> <PUBCHEM_EXT_DATASOURCE_REGID>
SCHEMBL16122303

> <PUBCHEM_SUBSTANCE_COMMENT>
InChI=1S/C18H21Cl2N3O3/c19-13-9-15(16(24)10-14(13)20)21-11-17(25)22-5-7-23(8-6-22)18(26)12-3-1-2-4-12/h3,9-10,21,24H,1-2,4-8,11H2
InChIKey=NILWZVPSHXBRKK-UHFFFAOYSA-N

> <PUBCHEM_SUBSTANCE_SYNONYM>
SCHEMBL16122303

> <PUBCHEM_XREF_EXT_ID>
SCHEMBL16122303

> <PUBCHEM_EXT_DATASOURCE_URL>
https://www.surechembl.org/

> <PUBCHEM_EXT_SUBSTANCE_URL>
https://www.surechembl.org/chemical/SCHEMBL16122303

> <PUBCHEM_CID_ASSOCIATIONS>
117610499  1

> <PUBCHEM_COORDINATE_TYPE>
1
3

$$$$
