310945526
  -OEChem-07211613022D

 26 29  0     0  0  0  0  0  0999 V2000
    2.8094    3.0374    0.0000 F   0  0  0  0  0  0  0  0  0  0  0  0
   -2.3828    1.4635    0.0000 O   0  0  0  0  0  0  0  0  0  0  0  0
   -2.3828   -2.6402    0.0000 O   0  0  0  0  0  0  0  0  0  0  0  0
    0.4707    0.7134    0.0000 N   0  0  0  0  0  0  0  0  0  0  0  0
    2.5005    1.6401    0.0000 N   0  0  0  0  0  0  0  0  0  0  0  0
   -0.9561   -1.8018    0.0000 N   0  0  0  0  0  0  0  0  0  0  0  0
    1.1326    1.2135    0.0000 C   0  0  0  0  0  0  0  0  0  0  0  0
    0.8825    1.9783    0.0000 C   0  0  0  0  0  0  0  0  0  0  0  0
    0.0442    1.9930    0.0000 C   0  0  0  0  0  0  0  0  0  0  0  0
   -0.2354    1.2135    0.0000 C   0  0  0  0  0  0  0  0  0  0  0  0
    1.9416    1.0223    0.0000 C   0  0  0  0  0  0  0  0  0  0  0  0
    1.4415    2.5961    0.0000 C   0  0  0  0  0  0  0  0  0  0  0  0
   -1.0149    1.0370    0.0000 C   0  0  0  0  0  0  0  0  0  0  0  0
   -0.5001    2.5961    0.0000 C   0  0  0  0  0  0  0  0  0  0  0  0
    2.2505    2.4343    0.0000 C   0  0  0  0  0  0  0  0  0  0  0  0
    0.4559   -0.1398    0.0000 C   0  0  0  0  0  0  0  0  0  0  0  0
   -1.5592    1.6548    0.0000 C   0  0  0  0  0  0  0  0  0  0  0  0
   -1.3091    2.4196    0.0000 C   0  0  0  0  0  0  0  0  0  0  0  0
    2.2652    0.1398    0.0000 C   0  0  0  0  0  0  0  0  0  0  0  0
   -0.2059   -0.5516    0.0000 C   0  0  0  0  0  0  0  0  0  0  0  0
   -0.2354   -1.3900    0.0000 C   0  0  0  0  0  0  0  0  0  0  0  0
   -2.8094    2.1989    0.0000 C   0  0  0  0  0  0  0  0  0  0  0  0
   -0.9561   -2.6255    0.0000 C   0  0  0  0  0  0  0  0  0  0  0  0
   -1.6768   -1.3900    0.0000 C   0  0  0  0  0  0  0  0  0  0  0  0
   -1.6621   -3.0374    0.0000 C   0  0  0  0  0  0  0  0  0  0  0  0
   -2.3828   -1.8018    0.0000 C   0  0  0  0  0  0  0  0  0  0  0  0
  1 15  1  0  0  0  0
  2 17  1  0  0  0  0
  2 22  1  0  0  0  0
  3 25  1  0  0  0  0
  3 26  1  0  0  0  0
  4  7  1  0  0  0  0
  4 10  1  0  0  0  0
  4 16  1  0  0  0  0
  5 11  2  0  0  0  0
  5 15  1  0  0  0  0
  6 21  1  0  0  0  0
  6 23  1  0  0  0  0
  6 24  1  0  0  0  0
  7  8  2  0  0  0  0
  7 11  1  0  0  0  0
  8  9  1  0  0  0  0
  8 12  1  0  0  0  0
  9 10  2  0  0  0  0
  9 14  1  0  0  0  0
 10 13  1  0  0  0  0
 11 19  1  0  0  0  0
 12 15  2  0  0  0  0
 13 17  2  0  0  0  0
 14 18  2  0  0  0  0
 16 20  1  0  0  0  0
 17 18  1  0  0  0  0
 20 21  1  0  0  0  0
 23 25  1  0  0  0  0
 24 26  1  0  0  0  0
M  END
> <PUBCHEM_COMPOUND_ID_TYPE>
0

> <PUBCHEM_TOTAL_CHARGE>
0

> <PUBCHEM_SUBSTANCE_ID>
310945526

> <PUBCHEM_SUBSTANCE_VERSION>
1

> <PUBCHEM_EXT_DATASOURCE_NAME>
4488

> <PUBCHEM_EXT_DATASOURCE_REGID>
SCHEMBL16123624

> <PUBCHEM_SUBSTANCE_COMMENT>
InChI=1S/C20H24FN3O2/c1-14-20-17(13-19(21)22-14)16-5-4-15(25-2)12-18(16)24(20)7-3-6-23-8-10-26-11-9-23/h4-5,12-13H,3,6-11H2,1-2H3
InChIKey=RWYGVBDFAPWSHQ-UHFFFAOYSA-N

> <PUBCHEM_SUBSTANCE_SYNONYM>
SCHEMBL16123624

> <PUBCHEM_XREF_EXT_ID>
SCHEMBL16123624

> <PUBCHEM_EXT_DATASOURCE_URL>
https://www.surechembl.org/

> <PUBCHEM_EXT_SUBSTANCE_URL>
https://www.surechembl.org/chemical/SCHEMBL16123624

> <PUBCHEM_CID_ASSOCIATIONS>
117611567  1

> <PUBCHEM_COORDINATE_TYPE>
1
3

$$$$
