310940868
  -OEChem-07211613022D

 44 47  0     1  0  0  0  0  0999 V2000
   -1.8949   -1.4157    0.0000 F   0  0  0  0  0  0  0  0  0  0  0  0
   -1.1689   -1.8222    0.0000 F   0  0  0  0  0  0  0  0  0  0  0  0
   -0.4573   -1.4157    0.0000 F   0  0  0  0  0  0  0  0  0  0  0  0
    5.1910   -1.0092    0.0000 O   0  0  0  0  0  0  0  0  0  0  0  0
    4.0583    0.9366    0.0000 O   0  0  0  0  0  0  0  0  0  0  0  0
    1.6916   -0.9946    0.0000 O   0  0  0  0  0  0  0  0  0  0  0  0
   -0.4719    1.0673    0.0000 O   0  0  0  0  0  0  0  0  0  0  0  0
   -2.6209   -0.9946    0.0000 O   0  0  0  0  0  0  0  0  0  0  0  0
    3.8405    2.7225    0.0000 O   0  0  0  0  0  0  0  0  0  0  0  0
   -5.4813   -0.9946    0.0000 O   0  0  0  0  0  0  0  0  0  0  0  0
    2.4031    0.2396    0.0000 N   0  0  0  0  0  0  0  0  0  0  0  0
    0.2540   -0.1815    0.0000 N   0  0  0  0  0  0  0  0  0  0  0  0
   -1.8949    0.2396    0.0000 N   0  0  0  0  0  0  0  0  0  0  0  0
   -4.0438   -0.1815    0.0000 N   0  0  0  0  0  0  0  0  0  0  0  0
    4.7844   -0.2832    0.0000 C   0  0  3  0  0  0  0  0  0  0  0  0
    4.0003    0.1234    0.0000 C   0  0  0  0  0  0  0  0  0  0  0  0
    4.3777   -0.9656    0.0000 C   0  0  0  0  0  0  0  0  0  0  0  0
    3.3469   -0.2686    0.0000 C   0  0  3  0  0  0  0  0  0  0  0  0
    5.4813    0.1379    0.0000 C   0  0  0  0  0  0  0  0  0  0  0  0
    1.6916   -0.1234    0.0000 C   0  0  0  0  0  0  0  0  0  0  0  0
    3.3614   -1.3577    0.0000 C   0  0  0  0  0  0  0  0  0  0  0  0
    0.9802    0.2686    0.0000 C   0  0  3  0  0  0  0  0  0  0  0  0
   -1.1689   -0.1379    0.0000 C   0  0  3  0  0  0  0  0  0  0  0  0
   -0.4719    0.2396    0.0000 C   0  0  0  0  0  0  0  0  0  0  0  0
   -1.1689   -0.9946    0.0000 C   0  0  0  0  0  0  0  0  0  0  0  0
    2.6354   -1.7496    0.0000 C   0  0  0  0  0  0  0  0  0  0  0  0
    0.9946    1.0963    0.0000 C   0  0  0  0  0  0  0  0  0  0  0  0
    1.6916    1.5028    0.0000 C   0  0  0  0  0  0  0  0  0  0  0  0
   -2.6063   -0.1234    0.0000 C   0  0  0  0  0  0  0  0  0  0  0  0
    1.8658   -1.4302    0.0000 C   0  0  0  0  0  0  0  0  0  0  0  0
    2.5338   -2.5773    0.0000 C   0  0  0  0  0  0  0  0  0  0  0  0
    2.4176    1.0963    0.0000 C   0  0  0  0  0  0  0  0  0  0  0  0
    1.7061    2.3305    0.0000 C   0  0  0  0  0  0  0  0  0  0  0  0
    1.3286   -2.0401    0.0000 C   0  0  0  0  0  0  0  0  0  0  0  0
    1.7351   -2.7370    0.0000 C   0  0  0  0  0  0  0  0  0  0  0  0
   -3.3614    0.2541    0.0000 C   0  0  0  0  0  0  0  0  0  0  0  0
    3.1291    2.3451    0.0000 C   0  0  0  0  0  0  0  0  0  0  0  0
    3.1291    1.5028    0.0000 C   0  0  0  0  0  0  0  0  0  0  0  0
    2.4031    2.7370    0.0000 C   0  0  0  0  0  0  0  0  0  0  0  0
   -4.0438   -0.9656    0.0000 C   0  0  0  0  0  0  0  0  0  0  0  0
   -4.7699    0.2541    0.0000 C   0  0  0  0  0  0  0  0  0  0  0  0
   -4.7409   -1.3721    0.0000 C   0  0  0  0  0  0  0  0  0  0  0  0
   -5.4668   -0.1379    0.0000 C   0  0  0  0  0  0  0  0  0  0  0  0
    4.5811    2.3159    0.0000 C   0  0  0  0  0  0  0  0  0  0  0  0
  1 25  1  0  0  0  0
  2 25  1  0  0  0  0
  3 25  1  0  0  0  0
  4 15  1  0  0  0  0
  4 17  1  0  0  0  0
  5 16  2  0  0  0  0
  6 20  2  0  0  0  0
  7 24  2  0  0  0  0
  8 29  2  0  0  0  0
  9 37  1  0  0  0  0
  9 44  1  0  0  0  0
 10 42  1  0  0  0  0
 10 43  1  0  0  0  0
 18 11  1  6  0  0  0
 11 20  1  0  0  0  0
 22 12  1  1  0  0  0
 12 24  1  0  0  0  0
 13 23  1  0  0  0  0
 13 29  1  0  0  0  0
 14 36  1  0  0  0  0
 14 40  1  0  0  0  0
 14 41  1  0  0  0  0
 15 16  1  6  0  0  0
 15 17  1  0  0  0  0
 15 19  1  1  0  0  0
 16 18  1  0  0  0  0
 18 21  1  0  0  0  0
 20 22  1  0  0  0  0
 21 26  1  0  0  0  0
 22 27  1  0  0  0  0
 23 24  1  0  0  0  0
 23 25  1  0  0  0  0
 26 30  2  0  0  0  0
 26 31  1  0  0  0  0
 27 28  1  0  0  0  0
 28 32  2  0  0  0  0
 28 33  1  0  0  0  0
 29 36  1  0  0  0  0
 30 34  1  0  0  0  0
 31 35  1  0  0  0  0
 32 38  1  0  0  0  0
 33 39  2  0  0  0  0
 34 35  1  0  0  0  0
 37 38  2  0  0  0  0
 37 39  1  0  0  0  0
 40 42  1  0  0  0  0
 41 43  1  0  0  0  0
M  END
> <PUBCHEM_COMPOUND_ID_TYPE>
0

> <PUBCHEM_TOTAL_CHARGE>
0

> <PUBCHEM_SUBSTANCE_ID>
310940868

> <PUBCHEM_SUBSTANCE_VERSION>
1

> <PUBCHEM_EXT_DATASOURCE_NAME>
4488

> <PUBCHEM_EXT_DATASOURCE_REGID>
SCHEMBL16118827

> <PUBCHEM_SUBSTANCE_COMMENT>
InChI=1S/C30H39F3N4O7/c1-29(18-44-29)26(39)22(15-19-5-3-4-6-19)34-27(40)23(16-20-7-9-21(42-2)10-8-20)35-28(41)25(30(31,32)33)36-24(38)17-37-11-13-43-14-12-37/h5,7-10,22-23,25H,3-4,6,11-18H2,1-2H3,(H,34,40)(H,35,41)(H,36,38)/t22-,23-,25?,29+/m0/s1
InChIKey=SVCWIKBIULKUKK-VSLRAAMASA-N

> <PUBCHEM_SUBSTANCE_SYNONYM>
SCHEMBL16118827

> <PUBCHEM_XREF_EXT_ID>
SCHEMBL16118827

> <PUBCHEM_EXT_DATASOURCE_URL>
https://www.surechembl.org/

> <PUBCHEM_EXT_SUBSTANCE_URL>
https://www.surechembl.org/chemical/SCHEMBL16118827

> <PUBCHEM_CID_ASSOCIATIONS>
117607785  1

> <PUBCHEM_COORDINATE_TYPE>
1
3

> <PUBCHEM_BONDANNOTATIONS>
18  11  6
22  12  5
15  16  6
15  19  5

$$$$
