310933788
  -OEChem-07211613022D

 26 29  0     0  0  0  0  0  0999 V2000
    2.1434    1.2375    0.0000 Cl  0  0  0  0  0  0  0  0  0  0  0  0
   -0.7145    2.0625    0.0000 O   0  0  0  0  0  0  0  0  0  0  0  0
   -0.6131   -0.5520    0.0000 O   0  0  0  0  0  0  0  0  0  0  0  0
   -1.2762    5.4184    0.0000 O   0  0  0  0  0  0  0  0  0  0  0  0
   -0.9190    4.0349    0.0000 O   0  0  0  0  0  0  0  0  0  0  0  0
   -1.4289    2.4750    0.0000 C   0  0  0  0  0  0  0  0  0  0  0  0
   -1.9386    3.0337    0.0000 C   0  0  0  0  0  0  0  0  0  0  0  0
   -2.7251    3.3017    0.0000 C   0  0  0  0  0  0  0  0  0  0  0  0
    0.0000    0.0000    0.0000 C   0  0  0  0  0  0  0  0  0  0  0  0
   -1.4774    1.6082    0.0000 C   0  0  0  0  0  0  0  0  0  0  0  0
   -0.7436    2.9235    0.0000 C   0  0  0  0  0  0  0  0  0  0  0  0
   -1.8677    2.2542    0.0000 C   0  0  0  0  0  0  0  0  0  0  0  0
   -1.1385    3.4912    0.0000 C   0  0  0  0  0  0  0  0  0  0  0  0
    0.0000    0.8250    0.0000 C   0  0  0  0  0  0  0  0  0  0  0  0
    0.7145   -0.4125    0.0000 C   0  0  0  0  0  0  0  0  0  0  0  0
   -0.2775   -1.3057    0.0000 C   0  0  0  0  0  0  0  0  0  0  0  0
   -2.5166    3.6224    0.0000 C   0  0  0  0  0  0  0  0  0  0  0  0
   -0.7145    1.2375    0.0000 C   0  0  0  0  0  0  0  0  0  0  0  0
    0.5429   -1.2195    0.0000 C   0  0  0  0  0  0  0  0  0  0  0  0
    0.7145    1.2375    0.0000 C   0  0  0  0  0  0  0  0  0  0  0  0
    1.4289    0.0000    0.0000 C   0  0  0  0  0  0  0  0  0  0  0  0
    1.4289    0.8250    0.0000 C   0  0  0  0  0  0  0  0  0  0  0  0
   -2.2958    4.4173    0.0000 C   0  0  0  0  0  0  0  0  0  0  0  0
   -1.0622   -1.5606    0.0000 C   0  0  0  0  0  0  0  0  0  0  0  0
   -0.1060   -2.1127    0.0000 C   0  0  0  0  0  0  0  0  0  0  0  0
   -1.4970    4.6235    0.0000 C   0  0  0  0  0  0  0  0  0  0  0  0
  1 22  1  0  0  0  0
  2  6  1  0  0  0  0
  2 18  1  0  0  0  0
  3  9  1  0  0  0  0
  3 16  1  0  0  0  0
  4 26  2  0  0  0  0
  5 26  1  0  0  0  0
  6  8  1  0  0  0  0
  6 10  1  0  0  0  0
  6 11  1  0  0  0  0
  7  8  1  0  0  0  0
  7 12  1  0  0  0  0
  7 13  1  0  0  0  0
  7 17  1  0  0  0  0
  9 14  1  0  0  0  0
  9 15  2  0  0  0  0
 10 12  1  0  0  0  0
 11 13  1  0  0  0  0
 14 18  1  0  0  0  0
 14 20  2  0  0  0  0
 15 19  1  0  0  0  0
 15 21  1  0  0  0  0
 16 19  1  0  0  0  0
 16 24  1  0  0  0  0
 16 25  1  0  0  0  0
 17 23  1  0  0  0  0
 20 22  1  0  0  0  0
 21 22  2  0  0  0  0
 23 26  1  0  0  0  0
M  END
> <PUBCHEM_COMPOUND_ID_TYPE>
0

> <PUBCHEM_TOTAL_CHARGE>
0

> <PUBCHEM_SUBSTANCE_ID>
310933788

> <PUBCHEM_SUBSTANCE_VERSION>
1

> <PUBCHEM_EXT_DATASOURCE_NAME>
4488

> <PUBCHEM_EXT_DATASOURCE_REGID>
SCHEMBL16111225

> <PUBCHEM_SUBSTANCE_COMMENT>
InChI=1S/C21H27ClO4/c1-19(2)11-14-9-16(22)10-15(18(14)26-19)12-25-21-7-5-20(13-21,6-8-21)4-3-17(23)24/h9-10H,3-8,11-13H2,1-2H3,(H,23,24)
InChIKey=IJYQINXYEJMYHR-UHFFFAOYSA-N

> <PUBCHEM_SUBSTANCE_SYNONYM>
SCHEMBL16111225

> <PUBCHEM_XREF_EXT_ID>
SCHEMBL16111225

> <PUBCHEM_EXT_DATASOURCE_URL>
https://www.surechembl.org/

> <PUBCHEM_EXT_SUBSTANCE_URL>
https://www.surechembl.org/chemical/SCHEMBL16111225

> <PUBCHEM_CID_ASSOCIATIONS>
86299923  1

> <PUBCHEM_COORDINATE_TYPE>
1
3

$$$$
