310944066
  -OEChem-07211613022D

 19 22  0     0  0  0  0  0  0999 V2000
   -0.3443    1.3602    0.0000 O   0  0  0  0  0  0  0  0  0  0  0  0
    2.1955    0.0959    0.0000 O   0  0  0  0  0  0  0  0  0  0  0  0
    2.5680    1.2360    0.0000 O   0  0  0  0  0  0  0  0  0  0  0  0
    0.4459    0.1072    0.0000 N   0  0  0  0  0  0  0  0  0  0  0  0
   -2.5680    0.3781    0.0000 N   0  0  0  0  0  0  0  0  0  0  0  0
    0.2540   -0.7168    0.0000 C   0  0  0  0  0  0  0  0  0  0  0  0
   -0.9199   -0.0057    0.0000 C   0  0  0  0  0  0  0  0  0  0  0  0
   -0.2765    0.5136    0.0000 C   0  0  0  0  0  0  0  0  0  0  0  0
   -0.5926   -0.7732    0.0000 C   0  0  0  0  0  0  0  0  0  0  0  0
    0.8861   -0.9313    0.0000 C   0  0  0  0  0  0  0  0  0  0  0  0
    0.4007   -1.3602    0.0000 C   0  0  0  0  0  0  0  0  0  0  0  0
    1.0893    0.2765    0.0000 C   0  0  0  0  0  0  0  0  0  0  0  0
   -1.4957   -0.6152    0.0000 C   0  0  0  0  0  0  0  0  0  0  0  0
   -1.1570    0.7845    0.0000 C   0  0  0  0  0  0  0  0  0  0  0  0
    1.4166    0.8748    0.0000 C   0  0  0  0  0  0  0  0  0  0  0  0
    1.5972   -0.1975    0.0000 C   0  0  0  0  0  0  0  0  0  0  0  0
    2.0713    0.7507    0.0000 C   0  0  0  0  0  0  0  0  0  0  0  0
   -2.3197   -0.4233    0.0000 C   0  0  0  0  0  0  0  0  0  0  0  0
   -1.9810    0.9877    0.0000 C   0  0  0  0  0  0  0  0  0  0  0  0
  1  8  2  0  0  0  0
  2 16  1  0  0  0  0
  2 17  1  0  0  0  0
  3 17  2  0  0  0  0
  4  6  1  0  0  0  0
  4  8  1  0  0  0  0
  4 12  1  0  0  0  0
  5 18  1  0  0  0  0
  5 19  1  0  0  0  0
  6  9  1  0  0  0  0
  6 10  1  0  0  0  0
  6 11  1  0  0  0  0
  7  8  1  0  0  0  0
  7  9  1  0  0  0  0
  7 13  1  0  0  0  0
  7 14  1  0  0  0  0
 10 11  1  0  0  0  0
 12 15  2  0  0  0  0
 12 16  1  0  0  0  0
 13 18  1  0  0  0  0
 14 19  1  0  0  0  0
 15 17  1  0  0  0  0
M  END
> <PUBCHEM_COMPOUND_ID_TYPE>
0

> <PUBCHEM_TOTAL_CHARGE>
0

> <PUBCHEM_SUBSTANCE_ID>
310944066

> <PUBCHEM_SUBSTANCE_VERSION>
1

> <PUBCHEM_EXT_DATASOURCE_NAME>
4488

> <PUBCHEM_EXT_DATASOURCE_REGID>
SCHEMBL16122141

> <PUBCHEM_SUBSTANCE_COMMENT>
InChI=1S/C14H18N2O3/c17-11-7-10(8-19-11)16-12(18)13(3-5-15-6-4-13)9-14(16)1-2-14/h7,15H,1-6,8-9H2
InChIKey=KPLBVNPCJYZWEY-UHFFFAOYSA-N

> <PUBCHEM_SUBSTANCE_SYNONYM>
SCHEMBL16122141

> <PUBCHEM_XREF_EXT_ID>
SCHEMBL16122141

> <PUBCHEM_EXT_DATASOURCE_URL>
https://www.surechembl.org/

> <PUBCHEM_EXT_SUBSTANCE_URL>
https://www.surechembl.org/chemical/SCHEMBL16122141

> <PUBCHEM_CID_ASSOCIATIONS>
117610362  1

> <PUBCHEM_COORDINATE_TYPE>
1
3

$$$$
