310939715
  -OEChem-07211613022D

 27 30  0     0  0  0  0  0  0999 V2000
    0.4721    2.3678    0.0000 F   0  0  0  0  0  0  0  0  0  0  0  0
    0.8193    1.2845    0.0000 F   0  0  0  0  0  0  0  0  0  0  0  0
   -0.2778    0.9512    0.0000 F   0  0  0  0  0  0  0  0  0  0  0  0
   -2.0969   -2.0483    0.0000 O   0  0  0  0  0  0  0  0  0  0  0  0
    0.8193   -2.0483    0.0000 N   0  0  0  0  0  0  0  0  0  0  0  0
   -1.3609   -0.8124    0.0000 N   0  0  0  0  0  0  0  0  0  0  0  0
    0.0694   -1.6317    0.0000 N   0  0  0  0  0  0  0  0  0  0  0  0
    1.5970   -3.1176    0.0000 N   0  0  0  0  0  0  0  0  0  0  0  0
   -1.3748    1.6734    0.0000 C   0  0  0  0  0  0  0  0  0  0  0  0
   -0.6527    2.0761    0.0000 C   0  0  0  0  0  0  0  0  0  0  0  0
   -1.3748    0.8402    0.0000 C   0  0  0  0  0  0  0  0  0  0  0  0
   -0.6666   -2.0345    0.0000 C   0  0  0  0  0  0  0  0  0  0  0  0
   -1.3748   -1.6178    0.0000 C   0  0  0  0  0  0  0  0  0  0  0  0
    0.0833    1.6595    0.0000 C   0  0  0  0  0  0  0  0  0  0  0  0
    0.8055   -2.8677    0.0000 C   0  0  0  0  0  0  0  0  0  0  0  0
   -0.6666    0.4374    0.0000 C   0  0  0  0  0  0  0  0  0  0  0  0
   -2.0692    0.4374    0.0000 C   0  0  0  0  0  0  0  0  0  0  0  0
   -0.6666   -2.8677    0.0000 C   0  0  0  0  0  0  0  0  0  0  0  0
   -0.6666   -0.4097    0.0000 C   0  0  0  0  0  0  0  0  0  0  0  0
   -2.0830   -0.3958    0.0000 C   0  0  0  0  0  0  0  0  0  0  0  0
    0.0972   -3.2843    0.0000 C   0  0  0  0  0  0  0  0  0  0  0  0
   -2.0692    2.0900    0.0000 C   0  0  0  0  0  0  0  0  0  0  0  0
   -0.6527    2.8816    0.0000 C   0  0  0  0  0  0  0  0  0  0  0  0
    1.6109   -1.7844    0.0000 C   0  0  0  0  0  0  0  0  0  0  0  0
    2.0969   -2.4511    0.0000 C   0  0  0  0  0  0  0  0  0  0  0  0
   -2.0692    2.8816    0.0000 C   0  0  0  0  0  0  0  0  0  0  0  0
   -1.3470    3.2843    0.0000 C   0  0  0  0  0  0  0  0  0  0  0  0
  1 14  1  0  0  0  0
  2 14  1  0  0  0  0
  3 14  1  0  0  0  0
  4 13  2  0  0  0  0
  5  7  1  0  0  0  0
  5 15  1  0  0  0  0
  5 24  1  0  0  0  0
  6 13  1  0  0  0  0
  6 19  1  0  0  0  0
  6 20  1  0  0  0  0
  7 12  2  0  0  0  0
  8 15  2  0  0  0  0
  8 25  1  0  0  0  0
  9 10  2  0  0  0  0
  9 11  1  0  0  0  0
  9 22  1  0  0  0  0
 10 14  1  0  0  0  0
 10 23  1  0  0  0  0
 11 16  1  0  0  0  0
 11 17  1  0  0  0  0
 12 13  1  0  0  0  0
 12 18  1  0  0  0  0
 15 21  1  0  0  0  0
 16 19  1  0  0  0  0
 17 20  1  0  0  0  0
 18 21  2  0  0  0  0
 22 26  2  0  0  0  0
 23 27  2  0  0  0  0
 24 25  2  0  0  0  0
 26 27  1  0  0  0  0
M  END
> <PUBCHEM_COMPOUND_ID_TYPE>
0

> <PUBCHEM_TOTAL_CHARGE>
0

> <PUBCHEM_SUBSTANCE_ID>
310939715

> <PUBCHEM_SUBSTANCE_VERSION>
1

> <PUBCHEM_EXT_DATASOURCE_NAME>
4488

> <PUBCHEM_EXT_DATASOURCE_REGID>
SCHEMBL16117645

> <PUBCHEM_SUBSTANCE_COMMENT>
InChI=1S/C19H17F3N4O/c20-19(21,22)15-4-2-1-3-14(15)13-7-10-25(11-8-13)18(27)16-5-6-17-23-9-12-26(17)24-16/h1-6,9,12-13H,7-8,10-11H2
InChIKey=KDQFDGFPBDNSDJ-UHFFFAOYSA-N

> <PUBCHEM_SUBSTANCE_SYNONYM>
SCHEMBL16117645

> <PUBCHEM_XREF_EXT_ID>
SCHEMBL16117645

> <PUBCHEM_EXT_DATASOURCE_URL>
https://www.surechembl.org/

> <PUBCHEM_EXT_SUBSTANCE_URL>
https://www.surechembl.org/chemical/SCHEMBL16117645

> <PUBCHEM_CID_ASSOCIATIONS>
117606942  1

> <PUBCHEM_COORDINATE_TYPE>
1
3

$$$$
