310945531
  -OEChem-07211613022D

 14 14  0     0  0  0  0  0  0999 V2000
    1.0582   -1.6560    0.0000 S   0  0  0  0  0  0  0  0  0  0  0  0
   -1.0582    1.2575    0.0000 F   0  0  0  0  0  0  0  0  0  0  0  0
   -0.3436    1.6560    0.0000 F   0  0  0  0  0  0  0  0  0  0  0  0
    0.3710    1.2438    0.0000 F   0  0  0  0  0  0  0  0  0  0  0  0
    0.3573   -0.4054    0.0000 N   0  0  0  0  0  0  0  0  0  0  0  0
   -0.3573   -1.6422    0.0000 N   0  0  0  0  0  0  0  0  0  0  0  0
   -1.7866    0.0069    0.0000 N   0  0  0  0  0  0  0  0  0  0  0  0
   -1.7728   -1.6422    0.0000 N   0  0  0  0  0  0  0  0  0  0  0  0
   -0.3573    0.0069    0.0000 C   0  0  0  0  0  0  0  0  0  0  0  0
   -0.3436    0.8452    0.0000 C   0  0  0  0  0  0  0  0  0  0  0  0
   -1.0720   -0.3917    0.0000 C   0  0  0  0  0  0  0  0  0  0  0  0
   -1.0857   -1.2300    0.0000 C   0  0  0  0  0  0  0  0  0  0  0  0
    0.3573   -1.2438    0.0000 C   0  0  0  0  0  0  0  0  0  0  0  0
    1.7866   -1.2575    0.0000 C   0  0  0  0  0  0  0  0  0  0  0  0
  1 13  1  0  0  0  0
  1 14  1  0  0  0  0
  2 10  1  0  0  0  0
  3 10  1  0  0  0  0
  4 10  1  0  0  0  0
  5  9  2  0  0  0  0
  5 13  1  0  0  0  0
  6 12  1  0  0  0  0
  6 13  2  0  0  0  0
  7 11  1  0  0  0  0
  8 12  1  0  0  0  0
  9 10  1  0  0  0  0
  9 11  1  0  0  0  0
 11 12  2  0  0  0  0
M  END
> <PUBCHEM_COMPOUND_ID_TYPE>
0

> <PUBCHEM_TOTAL_CHARGE>
0

> <PUBCHEM_SUBSTANCE_ID>
310945531

> <PUBCHEM_SUBSTANCE_VERSION>
1

> <PUBCHEM_EXT_DATASOURCE_NAME>
4488

> <PUBCHEM_EXT_DATASOURCE_REGID>
SCHEMBL16123629

> <PUBCHEM_SUBSTANCE_COMMENT>
InChI=1S/C6H7F3N4S/c1-14-5-12-3(6(7,8)9)2(10)4(11)13-5/h10H2,1H3,(H2,11,12,13)
InChIKey=DHWLAYZLINTIEQ-UHFFFAOYSA-N

> <PUBCHEM_SUBSTANCE_SYNONYM>
SCHEMBL16123629

> <PUBCHEM_XREF_EXT_ID>
SCHEMBL16123629

> <PUBCHEM_EXT_DATASOURCE_URL>
https://www.surechembl.org/

> <PUBCHEM_EXT_SUBSTANCE_URL>
https://www.surechembl.org/chemical/SCHEMBL16123629

> <PUBCHEM_CID_ASSOCIATIONS>
117611572  1

> <PUBCHEM_COORDINATE_TYPE>
1
3

$$$$
