310932854
  -OEChem-07211613022D

 27 30  0     0  0  0  0  0  0999 V2000
    2.8509   -2.1036    0.0000 O   0  0  0  0  0  0  0  0  0  0  0  0
    0.1384   -2.3527    0.0000 O   0  0  0  0  0  0  0  0  0  0  0  0
    7.3072   -2.1866    0.0000 O   0  0  0  0  0  0  0  0  0  0  0  0
    3.7366   -0.9687    0.0000 N   0  0  0  0  0  0  0  0  0  0  0  0
    3.6536   -0.1384    0.0000 N   0  0  0  0  0  0  0  0  0  0  0  0
    5.1759   -0.9687    0.0000 N   0  0  0  0  0  0  0  0  0  0  0  0
    0.0000   -0.9687    0.0000 N   0  0  0  0  0  0  0  0  0  0  0  0
    6.6152   -3.4321    0.0000 N   0  0  0  0  0  0  0  0  0  0  0  0
    2.4357   -0.6920    0.0000 C   0  0  0  0  0  0  0  0  0  0  0  0
    3.0170   -1.3009    0.0000 C   0  0  0  0  0  0  0  0  0  0  0  0
    4.4563   -1.3839    0.0000 C   0  0  0  0  0  0  0  0  0  0  0  0
    1.6331   -0.8027    0.0000 C   0  0  0  0  0  0  0  0  0  0  0  0
    2.8509    0.0000    0.0000 C   0  0  0  0  0  0  0  0  0  0  0  0
    4.4563   -2.1866    0.0000 C   0  0  0  0  0  0  0  0  0  0  0  0
    5.8956   -2.1866    0.0000 C   0  0  0  0  0  0  0  0  0  0  0  0
    1.3009   -1.5500    0.0000 C   0  0  0  0  0  0  0  0  0  0  0  0
    1.1625   -0.1384    0.0000 C   0  0  0  0  0  0  0  0  0  0  0  0
    5.8956   -1.3839    0.0000 C   0  0  0  0  0  0  0  0  0  0  0  0
    5.1759   -2.6018    0.0000 C   0  0  0  0  0  0  0  0  0  0  0  0
    0.4705   -1.6054    0.0000 C   0  0  0  0  0  0  0  0  0  0  0  0
    6.6152   -2.6018    0.0000 C   0  0  0  0  0  0  0  0  0  0  0  0
    0.3321   -0.1937    0.0000 C   0  0  0  0  0  0  0  0  0  0  0  0
    7.3072   -3.8473    0.0000 C   0  0  0  0  0  0  0  0  0  0  0  0
    8.0822   -3.6259    0.0000 C   0  0  0  0  0  0  0  0  0  0  0  0
    7.5286   -4.6500    0.0000 C   0  0  0  0  0  0  0  0  0  0  0  0
    8.3036   -4.4286    0.0000 C   0  0  0  0  0  0  0  0  0  0  0  0
    0.6089   -3.0447    0.0000 C   0  0  0  0  0  0  0  0  0  0  0  0
  1 10  1  0  0  0  0
  2 20  1  0  0  0  0
  2 27  1  0  0  0  0
  3 21  2  0  0  0  0
  4  5  1  0  0  0  0
  4 10  1  0  0  0  0
  4 11  1  0  0  0  0
  5 13  2  0  0  0  0
  6 11  2  0  0  0  0
  6 18  1  0  0  0  0
  7 20  1  0  0  0  0
  7 22  2  0  0  0  0
  8 21  1  0  0  0  0
  8 23  1  0  0  0  0
  9 10  2  0  0  0  0
  9 12  1  0  0  0  0
  9 13  1  0  0  0  0
 11 14  1  0  0  0  0
 12 16  1  0  0  0  0
 12 17  2  0  0  0  0
 14 19  2  0  0  0  0
 15 18  2  0  0  0  0
 15 19  1  0  0  0  0
 15 21  1  0  0  0  0
 16 20  2  0  0  0  0
 17 22  1  0  0  0  0
 23 24  1  0  0  0  0
 23 25  1  0  0  0  0
 24 26  1  0  0  0  0
 25 26  1  0  0  0  0
M  END
> <PUBCHEM_COMPOUND_ID_TYPE>
0

> <PUBCHEM_TOTAL_CHARGE>
0

> <PUBCHEM_SUBSTANCE_ID>
310932854

> <PUBCHEM_SUBSTANCE_VERSION>
1

> <PUBCHEM_EXT_DATASOURCE_NAME>
4488

> <PUBCHEM_EXT_DATASOURCE_REGID>
SCHEMBL16110246

> <PUBCHEM_SUBSTANCE_COMMENT>
InChI=1S/C19H19N5O3/c1-27-17-9-12(7-8-20-17)15-11-22-24(19(15)26)16-6-5-13(10-21-16)18(25)23-14-3-2-4-14/h5-11,14,26H,2-4H2,1H3,(H,23,25)
InChIKey=ILODIVVGHKAJHZ-UHFFFAOYSA-N

> <PUBCHEM_SUBSTANCE_SYNONYM>
SCHEMBL16110246

> <PUBCHEM_XREF_EXT_ID>
SCHEMBL16110246

> <PUBCHEM_EXT_DATASOURCE_URL>
https://www.surechembl.org/

> <PUBCHEM_EXT_SUBSTANCE_URL>
https://www.surechembl.org/chemical/SCHEMBL16110246

> <PUBCHEM_CID_ASSOCIATIONS>
117601339  1

> <PUBCHEM_COORDINATE_TYPE>
1
3

$$$$
