310943815
  -OEChem-07211613022D

 35 40  0     1  0  0  0  0  0999 V2000
    2.3982    0.1155    0.0000 O   0  0  0  0  0  0  0  0  0  0  0  0
    4.0924    2.4697    0.0000 O   0  0  0  0  0  0  0  0  0  0  0  0
    3.8283   -2.0297    0.0000 O   0  0  0  0  0  0  0  0  0  0  0  0
    5.1814   -2.4697    0.0000 O   0  0  0  0  0  0  0  0  0  0  0  0
   -0.3630    0.2255    0.0000 O   0  0  0  0  0  0  0  0  0  0  0  0
    3.8173    0.2805    0.0000 N   0  0  0  0  0  0  0  0  0  0  0  0
    0.8581    1.6666    0.0000 N   0  0  0  0  0  0  0  0  0  0  0  0
   -2.9483    1.6666    0.0000 N   0  0  0  0  0  0  0  0  0  0  0  0
   -4.1253    0.9956    0.0000 N   0  0  0  0  0  0  0  0  0  0  0  0
   -4.5983    1.7657    0.0000 N   0  0  0  0  0  0  0  0  0  0  0  0
   -5.4894    1.5456    0.0000 N   0  0  0  0  0  0  0  0  0  0  0  0
   -5.5444    0.6436    0.0000 N   0  0  0  0  0  0  0  0  0  0  0  0
    3.0582    1.4136    0.0000 C   0  0  0  0  0  0  0  0  0  0  0  0
    3.0582    0.5886    0.0000 C   0  0  0  0  0  0  0  0  0  0  0  0
    3.8173    1.6226    0.0000 C   0  0  3  0  0  0  0  0  0  0  0  0
    2.4862    2.0956    0.0000 C   0  0  0  0  0  0  0  0  0  0  0  0
    2.3432    1.5236    0.0000 C   0  0  0  0  0  0  0  0  0  0  0  0
    1.4411    0.9956    0.0000 C   0  0  3  0  0  0  0  0  0  0  0  0
    1.6282    1.5676    0.0000 C   0  0  3  0  0  0  0  0  0  0  0  0
    4.3233    0.9406    0.0000 C   0  0  0  0  0  0  0  0  0  0  0  0
    4.0263   -0.7426    0.0000 C   0  0  0  0  0  0  0  0  0  0  0  0
    1.3641    0.1265    0.0000 C   0  0  0  0  0  0  0  0  0  0  0  0
    1.6941    0.6876    0.0000 C   0  0  0  0  0  0  0  0  0  0  0  0
    4.7524   -1.0946    0.0000 C   0  0  0  0  0  0  0  0  0  0  0  0
   -0.2860    1.6776    0.0000 C   0  0  0  0  0  0  0  0  0  0  0  0
    3.4762   -1.3036    0.0000 C   0  0  0  0  0  0  0  0  0  0  0  0
    4.5983   -1.8756    0.0000 C   0  0  0  0  0  0  0  0  0  0  0  0
   -0.8031    0.9956    0.0000 C   0  0  3  0  0  0  0  0  0  0  0  0
   -1.8262    1.0176    0.0000 C   0  0  0  0  0  0  0  0  0  0  0  0
    5.5444   -0.6765    0.0000 C   0  0  0  0  0  0  0  0  0  0  0  0
   -2.1782    1.6666    0.0000 C   0  0  0  0  0  0  0  0  0  0  0  0
   -2.1892    0.3355    0.0000 C   0  0  0  0  0  0  0  0  0  0  0  0
   -3.3443    1.0066    0.0000 C   0  0  0  0  0  0  0  0  0  0  0  0
   -2.9483    0.3355    0.0000 C   0  0  0  0  0  0  0  0  0  0  0  0
   -4.6973    0.3135    0.0000 C   0  0  0  0  0  0  0  0  0  0  0  0
  1 14  2  0  0  0  0
  2 15  1  0  0  0  0
  3 26  1  0  0  0  0
  3 27  1  0  0  0  0
  4 27  2  0  0  0  0
 28  5  1  1  0  0  0
  6 14  1  0  0  0  0
  6 20  1  0  0  0  0
  6 21  1  0  0  0  0
  7 18  1  0  0  0  0
  7 19  1  0  0  0  0
  7 25  1  0  0  0  0
  8 31  1  0  0  0  0
  8 33  2  0  0  0  0
  9 10  1  0  0  0  0
  9 33  1  0  0  0  0
  9 35  1  0  0  0  0
 10 11  2  0  0  0  0
 11 12  1  0  0  0  0
 12 35  2  0  0  0  0
 13 14  1  0  0  0  0
 13 15  1  0  0  0  0
 13 16  1  0  0  0  0
 13 17  1  0  0  0  0
 15 20  1  0  0  0  0
 16 19  1  0  0  0  0
 17 18  1  0  0  0  0
 18 22  1  0  0  0  0
 19 23  1  0  0  0  0
 21 24  2  0  0  0  0
 21 26  1  0  0  0  0
 22 23  1  0  0  0  0
 24 27  1  0  0  0  0
 24 30  1  0  0  0  0
 25 28  1  0  0  0  0
 28 29  1  0  0  0  0
 29 31  2  0  0  0  0
 29 32  1  0  0  0  0
 32 34  2  0  0  0  0
 33 34  1  0  0  0  0
M  END
> <PUBCHEM_COMPOUND_ID_TYPE>
0

> <PUBCHEM_TOTAL_CHARGE>
0

> <PUBCHEM_SUBSTANCE_ID>
310943815

> <PUBCHEM_SUBSTANCE_VERSION>
1

> <PUBCHEM_EXT_DATASOURCE_NAME>
4488

> <PUBCHEM_EXT_DATASOURCE_REGID>
SCHEMBL16121886

> <PUBCHEM_SUBSTANCE_COMMENT>
InChI=1S/C23H27N7O5/c1-13-17(11-35-21(13)33)29-10-19(32)23(22(29)34)6-15-3-4-16(7-23)28(15)9-18(31)14-2-5-20(24-8-14)30-12-25-26-27-30/h2,5,8,12,15-16,18-19,31-32H,3-4,6-7,9-11H2,1H3/t15?,16?,18-,19?,23?/m1/s1
InChIKey=PYSBDQUJHZVEJN-RIZSZVMVSA-N

> <PUBCHEM_SUBSTANCE_SYNONYM>
SCHEMBL16121886

> <PUBCHEM_XREF_EXT_ID>
SCHEMBL16121886

> <PUBCHEM_EXT_DATASOURCE_URL>
https://www.surechembl.org/

> <PUBCHEM_EXT_SUBSTANCE_URL>
https://www.surechembl.org/chemical/SCHEMBL16121886

> <PUBCHEM_CID_ASSOCIATIONS>
117610164  1

> <PUBCHEM_COORDINATE_TYPE>
1
3

> <PUBCHEM_BONDANNOTATIONS>
28  5  5

$$$$
