310948028
  -OEChem-07211613022D

 23 24  0     0  0  0  0  0  0999 V2000
   -1.6852   -2.6280    0.0000 F   0  0  0  0  0  0  0  0  0  0  0  0
   -2.4721   -3.4446    0.0000 F   0  0  0  0  0  0  0  0  0  0  0  0
   -3.2886   -2.6428    0.0000 F   0  0  0  0  0  0  0  0  0  0  0  0
    2.1307    2.5686    0.0000 O   0  0  0  0  0  0  0  0  0  0  0  0
    0.8092    3.1624    0.0000 O   0  0  0  0  0  0  0  0  0  0  0  0
   -0.1856    0.8760    0.0000 N   0  0  0  0  0  0  0  0  0  0  0  0
   -1.0022    0.6979    0.0000 N   0  0  0  0  0  0  0  0  0  0  0  0
   -0.3340   -0.4751    0.0000 N   0  0  0  0  0  0  0  0  0  0  0  0
    0.2301    0.1484    0.0000 N   0  0  0  0  0  0  0  0  0  0  0  0
   -1.1062   -0.1040    0.0000 C   0  0  0  0  0  0  0  0  0  0  0  0
   -1.8040   -0.5196    0.0000 C   0  0  0  0  0  0  0  0  0  0  0  0
   -2.5167   -1.7668    0.0000 C   0  0  0  0  0  0  0  0  0  0  0  0
   -1.8188   -1.3511    0.0000 C   0  0  0  0  0  0  0  0  0  0  0  0
   -2.5018   -2.6280    0.0000 C   0  0  0  0  0  0  0  0  0  0  0  0
   -2.5315   -0.1188    0.0000 C   0  0  0  0  0  0  0  0  0  0  0  0
   -3.2292   -1.3511    0.0000 C   0  0  0  0  0  0  0  0  0  0  0  0
    0.1708    1.6629    0.0000 C   0  0  0  0  0  0  0  0  0  0  0  0
   -3.2441   -0.5344    0.0000 C   0  0  0  0  0  0  0  0  0  0  0  0
    0.9577    1.7816    0.0000 C   0  0  0  0  0  0  0  0  0  0  0  0
    1.3288    2.5092    0.0000 C   0  0  0  0  0  0  0  0  0  0  0  0
    1.4773    1.0839    0.0000 C   0  0  0  0  0  0  0  0  0  0  0  0
    2.4573    3.3407    0.0000 C   0  0  0  0  0  0  0  0  0  0  0  0
    3.2886    3.4446    0.0000 C   0  0  0  0  0  0  0  0  0  0  0  0
  1 14  1  0  0  0  0
  2 14  1  0  0  0  0
  3 14  1  0  0  0  0
  4 20  1  0  0  0  0
  4 22  1  0  0  0  0
  5 20  2  0  0  0  0
  6  7  1  0  0  0  0
  6  9  1  0  0  0  0
  6 17  1  0  0  0  0
  7 10  2  0  0  0  0
  8  9  2  0  0  0  0
  8 10  1  0  0  0  0
 10 11  1  0  0  0  0
 11 13  2  0  0  0  0
 11 15  1  0  0  0  0
 12 13  1  0  0  0  0
 12 14  1  0  0  0  0
 12 16  2  0  0  0  0
 15 18  2  0  0  0  0
 16 18  1  0  0  0  0
 17 19  1  0  0  0  0
 19 20  1  0  0  0  0
 19 21  2  0  0  0  0
 22 23  1  0  0  0  0
M  END
> <PUBCHEM_COMPOUND_ID_TYPE>
0

> <PUBCHEM_TOTAL_CHARGE>
0

> <PUBCHEM_SUBSTANCE_ID>
310948028

> <PUBCHEM_SUBSTANCE_VERSION>
1

> <PUBCHEM_EXT_DATASOURCE_NAME>
4488

> <PUBCHEM_EXT_DATASOURCE_REGID>
SCHEMBL16126203

> <PUBCHEM_SUBSTANCE_COMMENT>
InChI=1S/C14H13F3N4O2/c1-3-23-13(22)9(2)8-21-19-12(18-20-21)10-5-4-6-11(7-10)14(15,16)17/h4-7H,2-3,8H2,1H3
InChIKey=NECFPPCVDYWRAR-UHFFFAOYSA-N

> <PUBCHEM_SUBSTANCE_SYNONYM>
SCHEMBL16126203

> <PUBCHEM_XREF_EXT_ID>
SCHEMBL16126203

> <PUBCHEM_EXT_DATASOURCE_URL>
https://www.surechembl.org/

> <PUBCHEM_EXT_SUBSTANCE_URL>
https://www.surechembl.org/chemical/SCHEMBL16126203

> <PUBCHEM_CID_ASSOCIATIONS>
86291635  1

> <PUBCHEM_COORDINATE_TYPE>
1
3

$$$$
