310931958
  -OEChem-07211613022D

 33 37  0     0  0  0  0  0  0999 V2000
    5.7116   -3.0780    0.0000 O   0  0  0  0  0  0  0  0  0  0  0  0
    1.5866   -4.7914    0.0000 O   0  0  0  0  0  0  0  0  0  0  0  0
    5.3626   -4.4741    0.0000 N   0  0  0  0  0  0  0  0  0  0  0  0
    5.7434   -5.2039    0.0000 N   0  0  0  0  0  0  0  0  0  0  0  0
    4.0616   -5.0453    0.0000 N   0  0  0  0  0  0  0  0  0  0  0  0
    1.7452   -3.3635    0.0000 N   0  0  0  0  0  0  0  0  0  0  0  0
    1.0789   -1.8404    0.0000 N   0  0  0  0  0  0  0  0  0  0  0  0
    9.5194   -1.7135    0.0000 N   0  0  0  0  0  0  0  0  0  0  0  0
    6.6635   -4.1885    0.0000 C   0  0  0  0  0  0  0  0  0  0  0  0
    5.9020   -3.8712    0.0000 C   0  0  0  0  0  0  0  0  0  0  0  0
    7.3616   -3.7760    0.0000 C   0  0  0  0  0  0  0  0  0  0  0  0
    4.5376   -4.3789    0.0000 C   0  0  0  0  0  0  0  0  0  0  0  0
    6.5684   -5.0135    0.0000 C   0  0  0  0  0  0  0  0  0  0  0  0
    7.3616   -2.9510    0.0000 C   0  0  0  0  0  0  0  0  0  0  0  0
    2.8876   -4.2203    0.0000 C   0  0  0  0  0  0  0  0  0  0  0  0
    2.0625   -4.1251    0.0000 C   0  0  0  0  0  0  0  0  0  0  0  0
    4.2203   -3.6174    0.0000 C   0  0  0  0  0  0  0  0  0  0  0  0
    8.0914   -4.1885    0.0000 C   0  0  0  0  0  0  0  0  0  0  0  0
    3.2366   -4.9818    0.0000 C   0  0  0  0  0  0  0  0  0  0  0  0
    3.3635   -3.5539    0.0000 C   0  0  0  0  0  0  0  0  0  0  0  0
    8.0914   -2.5385    0.0000 C   0  0  0  0  0  0  0  0  0  0  0  0
    8.7895   -2.9510    0.0000 C   0  0  0  0  0  0  0  0  0  0  0  0
    8.7895   -3.7760    0.0000 C   0  0  0  0  0  0  0  0  0  0  0  0
    0.7616   -1.0789    0.0000 C   0  0  0  0  0  0  0  0  0  0  0  0
    2.2529   -2.6972    0.0000 C   0  0  0  0  0  0  0  0  0  0  0  0
    0.9202   -3.2683    0.0000 C   0  0  0  0  0  0  0  0  0  0  0  0
    0.6029   -2.5068    0.0000 C   0  0  0  0  0  0  0  0  0  0  0  0
    1.9039   -1.9356    0.0000 C   0  0  0  0  0  0  0  0  0  0  0  0
    6.6635   -2.5385    0.0000 C   0  0  0  0  0  0  0  0  0  0  0  0
    0.0000   -0.7933    0.0000 C   0  0  0  0  0  0  0  0  0  0  0  0
    1.0789   -0.3173    0.0000 C   0  0  0  0  0  0  0  0  0  0  0  0
    9.5194   -2.5385    0.0000 C   0  0  0  0  0  0  0  0  0  0  0  0
    0.3173    0.0000    0.0000 C   0  0  0  0  0  0  0  0  0  0  0  0
  1 10  1  0  0  0  0
  2 16  2  0  0  0  0
  3  4  1  0  0  0  0
  3 10  1  0  0  0  0
  3 12  1  0  0  0  0
  4 13  2  0  0  0  0
  5 12  1  0  0  0  0
  5 19  2  0  0  0  0
  6 16  1  0  0  0  0
  6 25  1  0  0  0  0
  6 26  1  0  0  0  0
  7 24  1  0  0  0  0
  7 27  1  0  0  0  0
  7 28  1  0  0  0  0
  8 32  3  0  0  0  0
  9 10  2  0  0  0  0
  9 11  1  0  0  0  0
  9 13  1  0  0  0  0
 11 14  2  0  0  0  0
 11 18  1  0  0  0  0
 12 17  2  0  0  0  0
 14 21  1  0  0  0  0
 14 29  1  0  0  0  0
 15 16  1  0  0  0  0
 15 19  1  0  0  0  0
 15 20  2  0  0  0  0
 17 20  1  0  0  0  0
 18 23  2  0  0  0  0
 21 22  2  0  0  0  0
 22 23  1  0  0  0  0
 22 32  1  0  0  0  0
 24 30  1  0  0  0  0
 24 31  1  0  0  0  0
 25 28  1  0  0  0  0
 26 27  1  0  0  0  0
 30 33  1  0  0  0  0
 31 33  1  0  0  0  0
M  END
> <PUBCHEM_COMPOUND_ID_TYPE>
0

> <PUBCHEM_TOTAL_CHARGE>
0

> <PUBCHEM_SUBSTANCE_ID>
310931958

> <PUBCHEM_SUBSTANCE_VERSION>
1

> <PUBCHEM_EXT_DATASOURCE_NAME>
4488

> <PUBCHEM_EXT_DATASOURCE_REGID>
SCHEMBL16109295

> <PUBCHEM_SUBSTANCE_COMMENT>
InChI=1S/C25H26N6O2/c1-17-13-18(14-26)5-7-21(17)22-16-28-31(25(22)33)23-8-6-19(15-27-23)24(32)30-11-9-29(10-12-30)20-3-2-4-20/h5-8,13,15-16,20,33H,2-4,9-12H2,1H3
InChIKey=BGLIJKLXIGEHBO-UHFFFAOYSA-N

> <PUBCHEM_SUBSTANCE_SYNONYM>
SCHEMBL16109295

> <PUBCHEM_XREF_EXT_ID>
SCHEMBL16109295

> <PUBCHEM_EXT_DATASOURCE_URL>
https://www.surechembl.org/

> <PUBCHEM_EXT_SUBSTANCE_URL>
https://www.surechembl.org/chemical/SCHEMBL16109295

> <PUBCHEM_CID_ASSOCIATIONS>
117600607  1

> <PUBCHEM_COORDINATE_TYPE>
1
3

$$$$
