310949335
  -OEChem-07211613022D

 27 30  0     1  0  0  0  0  0999 V2000
    1.3713    2.8244    0.0000 F   0  0  0  0  0  0  0  0  0  0  0  0
    1.7192    1.7602    0.0000 F   0  0  0  0  0  0  0  0  0  0  0  0
    0.6139    1.4327    0.0000 F   0  0  0  0  0  0  0  0  0  0  0  0
    0.9620   -1.3304    0.0000 O   0  0  0  0  0  0  0  0  0  0  0  0
    1.7192   -2.4356    0.0000 O   0  0  0  0  0  0  0  0  0  0  0  0
   -0.4502   -1.2485    0.0000 N   0  0  0  0  0  0  0  0  0  0  0  0
   -1.1871   -2.4970    0.0000 N   0  0  0  0  0  0  0  0  0  0  0  0
   -0.8801    0.0614    0.0000 C   0  0  3  0  0  0  0  0  0  0  0  0
   -0.0614    0.0204    0.0000 C   0  0  3  0  0  0  0  0  0  0  0  0
   -0.4502    1.2689    0.0000 C   0  0  0  0  0  0  0  0  0  0  0  0
   -0.4502    2.1490    0.0000 C   0  0  0  0  0  0  0  0  0  0  0  0
   -1.1257    0.7982    0.0000 C   0  0  0  0  0  0  0  0  0  0  0  0
    0.1842    0.7982    0.0000 C   0  0  0  0  0  0  0  0  0  0  0  0
   -1.1257   -0.7778    0.0000 C   0  0  0  0  0  0  0  0  0  0  0  0
    0.2251   -0.7573    0.0000 C   0  0  0  0  0  0  0  0  0  0  0  0
   -0.4707   -2.0876    0.0000 C   0  0  0  0  0  0  0  0  0  0  0  0
    0.2456    2.5379    0.0000 C   0  0  0  0  0  0  0  0  0  0  0  0
    0.2660   -2.4970    0.0000 C   0  0  0  0  0  0  0  0  0  0  0  0
    0.9825    2.1285    0.0000 C   0  0  0  0  0  0  0  0  0  0  0  0
   -1.1871    2.5174    0.0000 C   0  0  0  0  0  0  0  0  0  0  0  0
    0.2456    3.3361    0.0000 C   0  0  0  0  0  0  0  0  0  0  0  0
    0.9825   -2.0671    0.0000 C   0  0  0  0  0  0  0  0  0  0  0  0
    0.2660   -3.3361    0.0000 C   0  0  0  0  0  0  0  0  0  0  0  0
   -1.1666    3.3565    0.0000 C   0  0  0  0  0  0  0  0  0  0  0  0
   -0.4707    3.7454    0.0000 C   0  0  0  0  0  0  0  0  0  0  0  0
   -1.1871   -3.3156    0.0000 C   0  0  0  0  0  0  0  0  0  0  0  0
   -0.4707   -3.7454    0.0000 C   0  0  0  0  0  0  0  0  0  0  0  0
  1 19  1  0  0  0  0
  2 19  1  0  0  0  0
  3 19  1  0  0  0  0
  4 22  2  0  0  0  0
  5 22  1  0  0  0  0
  6 14  1  0  0  0  0
  6 15  1  0  0  0  0
  6 16  1  0  0  0  0
  7 16  2  0  0  0  0
  7 26  1  0  0  0  0
  8  9  1  0  0  0  0
  8 12  1  1  0  0  0
  8 14  1  0  0  0  0
  9 13  1  0  0  0  0
  9 15  1  0  0  0  0
 10 11  1  0  0  0  0
 10 12  1  0  0  0  0
 10 13  1  1  0  0  0
 11 17  2  0  0  0  0
 11 20  1  0  0  0  0
 16 18  1  0  0  0  0
 17 19  1  0  0  0  0
 17 21  1  0  0  0  0
 18 22  1  0  0  0  0
 18 23  2  0  0  0  0
 20 24  2  0  0  0  0
 21 25  2  0  0  0  0
 23 27  1  0  0  0  0
 24 25  1  0  0  0  0
 26 27  2  0  0  0  0
M  END
> <PUBCHEM_COMPOUND_ID_TYPE>
0

> <PUBCHEM_TOTAL_CHARGE>
0

> <PUBCHEM_SUBSTANCE_ID>
310949335

> <PUBCHEM_SUBSTANCE_VERSION>
1

> <PUBCHEM_EXT_DATASOURCE_NAME>
4488

> <PUBCHEM_EXT_DATASOURCE_REGID>
SCHEMBL16127525

> <PUBCHEM_SUBSTANCE_COMMENT>
InChI=1S/C20H19F3N2O2/c21-20(22,23)17-6-2-1-4-15(17)12-8-13-10-25(11-14(13)9-12)18-16(19(26)27)5-3-7-24-18/h1-7,12-14H,8-11H2,(H,26,27)/t12-,13-,14?/m1/s1
InChIKey=BSXKTBKMOAUEQI-ZFXTZCCVSA-N

> <PUBCHEM_SUBSTANCE_SYNONYM>
SCHEMBL16127525

> <PUBCHEM_XREF_EXT_ID>
SCHEMBL16127525

> <PUBCHEM_EXT_DATASOURCE_URL>
https://www.surechembl.org/

> <PUBCHEM_EXT_SUBSTANCE_URL>
https://www.surechembl.org/chemical/SCHEMBL16127525

> <PUBCHEM_CID_ASSOCIATIONS>
117614810  1

> <PUBCHEM_COORDINATE_TYPE>
1
3

> <PUBCHEM_BONDANNOTATIONS>
10  13  5
8  12  5

$$$$
