310932292
  -OEChem-07211613022D

 26 28  0     0  0  0  0  0  0999 V2000
    4.0182   -2.7165    0.0000 O   0  0  0  0  0  0  0  0  0  0  0  0
    8.4892   -2.8298    0.0000 O   0  0  0  0  0  0  0  0  0  0  0  0
    4.9238   -1.5846    0.0000 N   0  0  0  0  0  0  0  0  0  0  0  0
    4.8388   -0.7640    0.0000 N   0  0  0  0  0  0  0  0  0  0  0  0
    6.3386   -1.5846    0.0000 N   0  0  0  0  0  0  0  0  0  0  0  0
    7.7818   -4.0465    0.0000 N   0  0  0  0  0  0  0  0  0  0  0  0
    0.0000   -2.4336    0.0000 N   0  0  0  0  0  0  0  0  0  0  0  0
    3.5938   -1.3300    0.0000 C   0  0  0  0  0  0  0  0  0  0  0  0
    4.1880   -1.9242    0.0000 C   0  0  0  0  0  0  0  0  0  0  0  0
    2.8015   -1.4149    0.0000 C   0  0  0  0  0  0  0  0  0  0  0  0
    5.6312   -2.0091    0.0000 C   0  0  0  0  0  0  0  0  0  0  0  0
    4.0182   -0.6226    0.0000 C   0  0  0  0  0  0  0  0  0  0  0  0
    2.2921   -0.7640    0.0000 C   0  0  0  0  0  0  0  0  0  0  0  0
    5.6312   -2.8298    0.0000 C   0  0  0  0  0  0  0  0  0  0  0  0
    2.4619   -2.1789    0.0000 C   0  0  0  0  0  0  0  0  0  0  0  0
    7.0460   -2.8298    0.0000 C   0  0  0  0  0  0  0  0  0  0  0  0
    1.4715   -0.8489    0.0000 C   0  0  0  0  0  0  0  0  0  0  0  0
    7.0460   -2.0091    0.0000 C   0  0  0  0  0  0  0  0  0  0  0  0
    6.3386   -3.2259    0.0000 C   0  0  0  0  0  0  0  0  0  0  0  0
    1.1602   -1.6129    0.0000 C   0  0  0  0  0  0  0  0  0  0  0  0
    1.6413   -2.2638    0.0000 C   0  0  0  0  0  0  0  0  0  0  0  0
    7.7818   -3.2259    0.0000 C   0  0  0  0  0  0  0  0  0  0  0  0
    2.6316    0.0000    0.0000 C   0  0  0  0  0  0  0  0  0  0  0  0
    0.3396   -1.6979    0.0000 C   0  0  0  0  0  0  0  0  0  0  0  0
    8.4892   -4.4710    0.0000 C   0  0  0  0  0  0  0  0  0  0  0  0
    7.0743   -4.4710    0.0000 C   0  0  0  0  0  0  0  0  0  0  0  0
  1  9  1  0  0  0  0
  2 22  2  0  0  0  0
  3  4  1  0  0  0  0
  3  9  1  0  0  0  0
  3 11  1  0  0  0  0
  4 12  2  0  0  0  0
  5 11  2  0  0  0  0
  5 18  1  0  0  0  0
  6 22  1  0  0  0  0
  6 25  1  0  0  0  0
  6 26  1  0  0  0  0
  7 24  3  0  0  0  0
  8  9  2  0  0  0  0
  8 10  1  0  0  0  0
  8 12  1  0  0  0  0
 10 13  1  0  0  0  0
 10 15  2  0  0  0  0
 11 14  1  0  0  0  0
 13 17  2  0  0  0  0
 13 23  1  0  0  0  0
 14 19  2  0  0  0  0
 15 21  1  0  0  0  0
 16 18  2  0  0  0  0
 16 19  1  0  0  0  0
 16 22  1  0  0  0  0
 17 20  1  0  0  0  0
 20 21  2  0  0  0  0
 20 24  1  0  0  0  0
M  END
> <PUBCHEM_COMPOUND_ID_TYPE>
0

> <PUBCHEM_TOTAL_CHARGE>
0

> <PUBCHEM_SUBSTANCE_ID>
310932292

> <PUBCHEM_SUBSTANCE_VERSION>
1

> <PUBCHEM_EXT_DATASOURCE_NAME>
4488

> <PUBCHEM_EXT_DATASOURCE_REGID>
SCHEMBL16109655

> <PUBCHEM_SUBSTANCE_COMMENT>
InChI=1S/C19H17N5O2/c1-12-8-13(9-20)4-6-15(12)16-11-22-24(19(16)26)17-7-5-14(10-21-17)18(25)23(2)3/h4-8,10-11,26H,1-3H3
InChIKey=WRXXPZCFYWSULJ-UHFFFAOYSA-N

> <PUBCHEM_SUBSTANCE_SYNONYM>
SCHEMBL16109655

> <PUBCHEM_XREF_EXT_ID>
SCHEMBL16109655

> <PUBCHEM_EXT_DATASOURCE_URL>
https://www.surechembl.org/

> <PUBCHEM_EXT_SUBSTANCE_URL>
https://www.surechembl.org/chemical/SCHEMBL16109655

> <PUBCHEM_CID_ASSOCIATIONS>
117600853  1

> <PUBCHEM_COORDINATE_TYPE>
1
3

$$$$
