310931570
  -OEChem-07211613022D

 22 24  0     0  0  0  0  0  0999 V2000
    2.8949   -2.4881    0.0000 O   0  0  0  0  0  0  0  0  0  0  0  0
    2.1771   -0.4067    0.0000 O   0  0  0  0  0  0  0  0  0  0  0  0
    7.1773   -2.4881    0.0000 N   0  0  0  0  0  0  0  0  0  0  0  0
    3.6126   -1.2440    0.0000 C   0  0  0  0  0  0  0  0  0  0  0  0
    2.8949   -1.6508    0.0000 C   0  0  0  0  0  0  0  0  0  0  0  0
    5.0481   -1.2440    0.0000 C   0  0  0  0  0  0  0  0  0  0  0  0
    2.1771   -1.2440    0.0000 C   0  0  0  0  0  0  0  0  0  0  0  0
    4.3304   -1.6508    0.0000 C   0  0  0  0  0  0  0  0  0  0  0  0
    5.7658   -1.6508    0.0000 C   0  0  0  0  0  0  0  0  0  0  0  0
    1.4594   -1.6508    0.0000 C   0  0  0  0  0  0  0  0  0  0  0  0
    3.6126   -0.4067    0.0000 C   0  0  0  0  0  0  0  0  0  0  0  0
    5.0481   -0.4067    0.0000 C   0  0  0  0  0  0  0  0  0  0  0  0
    4.3304    0.0000    0.0000 C   0  0  0  0  0  0  0  0  0  0  0  0
    5.7419   -2.4642    0.0000 C   0  0  0  0  0  0  0  0  0  0  0  0
    6.4596   -1.2440    0.0000 C   0  0  0  0  0  0  0  0  0  0  0  0
    1.4355   -2.4881    0.0000 C   0  0  0  0  0  0  0  0  0  0  0  0
    0.7177   -1.2440    0.0000 C   0  0  0  0  0  0  0  0  0  0  0  0
    6.4596   -2.9188    0.0000 C   0  0  0  0  0  0  0  0  0  0  0  0
    7.1773   -1.6747    0.0000 C   0  0  0  0  0  0  0  0  0  0  0  0
    0.7177   -2.9188    0.0000 C   0  0  0  0  0  0  0  0  0  0  0  0
    0.0239   -1.6508    0.0000 C   0  0  0  0  0  0  0  0  0  0  0  0
    0.0000   -2.4881    0.0000 C   0  0  0  0  0  0  0  0  0  0  0  0
  1  5  2  0  0  0  0
  2  7  2  0  0  0  0
  3 18  2  0  0  0  0
  3 19  1  0  0  0  0
  4  5  1  0  0  0  0
  4  8  1  0  0  0  0
  4 11  2  0  0  0  0
  5  7  1  0  0  0  0
  6  8  2  0  0  0  0
  6  9  1  0  0  0  0
  6 12  1  0  0  0  0
  7 10  1  0  0  0  0
  9 14  2  0  0  0  0
  9 15  1  0  0  0  0
 10 16  2  0  0  0  0
 10 17  1  0  0  0  0
 11 13  1  0  0  0  0
 12 13  2  0  0  0  0
 14 18  1  0  0  0  0
 15 19  2  0  0  0  0
 16 20  1  0  0  0  0
 17 21  2  0  0  0  0
 20 22  2  0  0  0  0
 21 22  1  0  0  0  0
M  END
> <PUBCHEM_COMPOUND_ID_TYPE>
0

> <PUBCHEM_TOTAL_CHARGE>
0

> <PUBCHEM_SUBSTANCE_ID>
310931570

> <PUBCHEM_SUBSTANCE_VERSION>
1

> <PUBCHEM_EXT_DATASOURCE_NAME>
4488

> <PUBCHEM_EXT_DATASOURCE_REGID>
SCHEMBL16108896

> <PUBCHEM_SUBSTANCE_COMMENT>
InChI=1S/C19H13NO2/c21-18(15-5-2-1-3-6-15)19(22)17-8-4-7-16(13-17)14-9-11-20-12-10-14/h1-13H
InChIKey=SAQJKECBKMNOML-UHFFFAOYSA-N

> <PUBCHEM_SUBSTANCE_SYNONYM>
SCHEMBL16108896

> <PUBCHEM_XREF_EXT_ID>
SCHEMBL16108896

> <PUBCHEM_EXT_DATASOURCE_URL>
https://www.surechembl.org/

> <PUBCHEM_EXT_SUBSTANCE_URL>
https://www.surechembl.org/chemical/SCHEMBL16108896

> <PUBCHEM_CID_ASSOCIATIONS>
117600313  1

> <PUBCHEM_COORDINATE_TYPE>
1
3

$$$$
