310943213
  -OEChem-07211613022D

 34 37  0     0  0  0  0  0  0999 V2000
    3.2236   -1.6665    0.0000 F   0  0  0  0  0  0  0  0  0  0  0  0
    4.6545   -1.6665    0.0000 F   0  0  0  0  0  0  0  0  0  0  0  0
    1.7928    0.0169    0.0000 O   0  0  0  0  0  0  0  0  0  0  0  0
   -4.6545    2.0873    0.0000 O   0  0  0  0  0  0  0  0  0  0  0  0
   -1.0689    0.0000    0.0000 N   0  0  0  0  0  0  0  0  0  0  0  0
   -3.2236    1.2457    0.0000 N   0  0  0  0  0  0  0  0  0  0  0  0
   -2.4998    0.0000    0.0000 N   0  0  0  0  0  0  0  0  0  0  0  0
    2.4998    1.2457    0.0000 N   0  0  0  0  0  0  0  0  0  0  0  0
   -1.7928   -1.2457    0.0000 N   0  0  0  0  0  0  0  0  0  0  0  0
   -1.0689    0.8417    0.0000 C   0  0  0  0  0  0  0  0  0  0  0  0
   -0.3619    1.2625    0.0000 C   0  0  0  0  0  0  0  0  0  0  0  0
   -2.4998    0.8417    0.0000 C   0  0  0  0  0  0  0  0  0  0  0  0
   -1.8096    1.2457    0.0000 C   0  0  0  0  0  0  0  0  0  0  0  0
   -0.3451    2.0873    0.0000 C   0  0  0  0  0  0  0  0  0  0  0  0
    1.0858    1.2625    0.0000 C   0  0  0  0  0  0  0  0  0  0  0  0
    0.3451    0.8585    0.0000 C   0  0  0  0  0  0  0  0  0  0  0  0
   -1.7928   -0.4040    0.0000 C   0  0  0  0  0  0  0  0  0  0  0  0
    1.7928    0.8585    0.0000 C   0  0  0  0  0  0  0  0  0  0  0  0
    0.3619    2.4913    0.0000 C   0  0  0  0  0  0  0  0  0  0  0  0
    1.0689    2.0873    0.0000 C   0  0  0  0  0  0  0  0  0  0  0  0
   -3.2236    2.0873    0.0000 C   0  0  0  0  0  0  0  0  0  0  0  0
   -3.9138    0.8417    0.0000 C   0  0  0  0  0  0  0  0  0  0  0  0
    3.2236    0.8417    0.0000 C   0  0  0  0  0  0  0  0  0  0  0  0
   -1.0858    2.4913    0.0000 C   0  0  0  0  0  0  0  0  0  0  0  0
    3.2404    0.0000    0.0000 C   0  0  0  0  0  0  0  0  0  0  0  0
    3.9475   -0.4040    0.0000 C   0  0  0  0  0  0  0  0  0  0  0  0
   -3.9475    2.5082    0.0000 C   0  0  0  0  0  0  0  0  0  0  0  0
   -4.6545    1.2625    0.0000 C   0  0  0  0  0  0  0  0  0  0  0  0
    3.9306    1.2457    0.0000 C   0  0  0  0  0  0  0  0  0  0  0  0
    4.6376    0.0000    0.0000 C   0  0  0  0  0  0  0  0  0  0  0  0
   -1.0689   -1.6665    0.0000 C   0  0  0  0  0  0  0  0  0  0  0  0
    3.9306   -1.2288    0.0000 C   0  0  0  0  0  0  0  0  0  0  0  0
    4.6376    0.8417    0.0000 C   0  0  0  0  0  0  0  0  0  0  0  0
   -1.0521   -2.5082    0.0000 C   0  0  0  0  0  0  0  0  0  0  0  0
  1 32  1  0  0  0  0
  2 32  1  0  0  0  0
  3 18  2  0  0  0  0
  4 27  1  0  0  0  0
  4 28  1  0  0  0  0
  5 10  1  0  0  0  0
  5 17  2  0  0  0  0
  6 12  1  0  0  0  0
  6 21  1  0  0  0  0
  6 22  1  0  0  0  0
  7 12  2  0  0  0  0
  7 17  1  0  0  0  0
  8 18  1  0  0  0  0
  8 23  1  0  0  0  0
  9 17  1  0  0  0  0
  9 31  1  0  0  0  0
 10 11  1  0  0  0  0
 10 13  2  0  0  0  0
 11 14  1  0  0  0  0
 11 16  2  0  0  0  0
 12 13  1  0  0  0  0
 14 19  2  0  0  0  0
 14 24  1  0  0  0  0
 15 16  1  0  0  0  0
 15 18  1  0  0  0  0
 15 20  2  0  0  0  0
 19 20  1  0  0  0  0
 21 27  1  0  0  0  0
 22 28  1  0  0  0  0
 23 25  2  0  0  0  0
 23 29  1  0  0  0  0
 25 26  1  0  0  0  0
 26 30  2  0  0  0  0
 26 32  1  0  0  0  0
 29 33  2  0  0  0  0
 30 33  1  0  0  0  0
 31 34  1  0  0  0  0
M  END
> <PUBCHEM_COMPOUND_ID_TYPE>
0

> <PUBCHEM_TOTAL_CHARGE>
0

> <PUBCHEM_SUBSTANCE_ID>
310943213

> <PUBCHEM_SUBSTANCE_VERSION>
1

> <PUBCHEM_EXT_DATASOURCE_NAME>
4488

> <PUBCHEM_EXT_DATASOURCE_REGID>
SCHEMBL16121274

> <PUBCHEM_SUBSTANCE_COMMENT>
InChI=1S/C25H27F2N5O2/c1-3-28-25-30-21(15-22(31-25)32-9-11-34-12-10-32)20-14-18(8-7-16(20)2)24(33)29-19-6-4-5-17(13-19)23(26)27/h4-8,13-15,23H,3,9-12H2,1-2H3,(H,29,33)(H,28,30,31)
InChIKey=XQJXMKDWOQZRNQ-UHFFFAOYSA-N

> <PUBCHEM_SUBSTANCE_SYNONYM>
SCHEMBL16121274

> <PUBCHEM_XREF_EXT_ID>
SCHEMBL16121274

> <PUBCHEM_EXT_DATASOURCE_URL>
https://www.surechembl.org/

> <PUBCHEM_EXT_SUBSTANCE_URL>
https://www.surechembl.org/chemical/SCHEMBL16121274

> <PUBCHEM_CID_ASSOCIATIONS>
117609639  1

> <PUBCHEM_COORDINATE_TYPE>
1
3

$$$$
