310934663
  -OEChem-07211613022D

 16 17  0     0  0  0  0  0  0999 V2000
    1.1920   -5.2977    0.0000 Cl  0  0  0  0  0  0  0  0  0  0  0  0
    0.1059   -1.6423    0.0000 F   0  0  0  0  0  0  0  0  0  0  0  0
    0.0265   -2.7018    0.0000 F   0  0  0  0  0  0  0  0  0  0  0  0
    2.2250   -1.6158    0.0000 O   0  0  0  0  0  0  0  0  0  0  0  0
    0.0000    0.0000    0.0000 O   0  0  0  0  0  0  0  0  0  0  0  0
    2.0661   -0.7946    0.0000 N   0  0  0  0  0  0  0  0  0  0  0  0
    1.5363   -2.0131    0.0000 C   0  0  0  0  0  0  0  0  0  0  0  0
    1.4568   -2.8342    0.0000 C   0  0  0  0  0  0  0  0  0  0  0  0
    0.9006   -1.4568    0.0000 C   0  0  0  0  0  0  0  0  0  0  0  0
    1.2449   -0.7152    0.0000 C   0  0  0  0  0  0  0  0  0  0  0  0
    0.6887   -3.1786    0.0000 C   0  0  0  0  0  0  0  0  0  0  0  0
    2.1191   -3.3375    0.0000 C   0  0  0  0  0  0  0  0  0  0  0  0
    0.6092   -3.9997    0.0000 C   0  0  0  0  0  0  0  0  0  0  0  0
    1.2715   -4.4765    0.0000 C   0  0  0  0  0  0  0  0  0  0  0  0
    2.0396   -4.1321    0.0000 C   0  0  0  0  0  0  0  0  0  0  0  0
    0.8212    0.0000    0.0000 C   0  0  0  0  0  0  0  0  0  0  0  0
  1 14  1  0  0  0  0
  2  9  1  0  0  0  0
  3 11  1  0  0  0  0
  4  6  1  0  0  0  0
  4  7  1  0  0  0  0
  5 16  1  0  0  0  0
  6 10  2  0  0  0  0
  7  8  1  0  0  0  0
  7  9  2  0  0  0  0
  8 11  1  0  0  0  0
  8 12  2  0  0  0  0
  9 10  1  0  0  0  0
 10 16  1  0  0  0  0
 11 13  2  0  0  0  0
 12 15  1  0  0  0  0
 13 14  1  0  0  0  0
 14 15  2  0  0  0  0
M  END
> <PUBCHEM_COMPOUND_ID_TYPE>
0

> <PUBCHEM_TOTAL_CHARGE>
0

> <PUBCHEM_SUBSTANCE_ID>
310934663

> <PUBCHEM_SUBSTANCE_VERSION>
1

> <PUBCHEM_EXT_DATASOURCE_NAME>
4488

> <PUBCHEM_EXT_DATASOURCE_REGID>
SCHEMBL16112162

> <PUBCHEM_SUBSTANCE_COMMENT>
InChI=1S/C10H6ClF2NO2/c11-5-1-2-6(7(12)3-5)10-9(13)8(4-15)14-16-10/h1-3,15H,4H2
InChIKey=CDOGESOGFOQXSP-UHFFFAOYSA-N

> <PUBCHEM_SUBSTANCE_SYNONYM>
SCHEMBL16112162

> <PUBCHEM_XREF_EXT_ID>
SCHEMBL16112162

> <PUBCHEM_EXT_DATASOURCE_URL>
https://www.surechembl.org/

> <PUBCHEM_EXT_SUBSTANCE_URL>
https://www.surechembl.org/chemical/SCHEMBL16112162

> <PUBCHEM_CID_ASSOCIATIONS>
117602829  1

> <PUBCHEM_COORDINATE_TYPE>
1
3

$$$$
