310941624
  -OEChem-07211613022D

 28 31  0     0  0  0  0  0  0999 V2000
    3.3746   -1.9074    0.0000 Br  0  0  0  0  0  0  0  0  0  0  0  0
    0.8803    1.9888    0.0000 S   0  0  0  0  0  0  0  0  0  0  0  0
   -1.4509   -0.6847    0.0000 O   0  0  0  0  0  0  0  0  0  0  0  0
    0.0000   -0.6847    0.0000 O   0  0  0  0  0  0  0  0  0  0  0  0
   -3.5865   -1.9888    0.0000 O   0  5  0  0  0  0  0  0  0  0  0  0
   -2.1845   -1.9074    0.0000 O   0  0  0  0  0  0  0  0  0  0  0  0
    0.7336    0.6358    0.0000 N   0  0  0  0  0  0  0  0  0  0  0  0
   -2.9018   -1.5324    0.0000 N   0  3  0  0  0  0  0  0  0  0  0  0
    2.1356    1.1901    0.0000 N   0  0  0  0  0  0  0  0  0  0  0  0
   -0.7173    0.5705    0.0000 C   0  0  0  0  0  0  0  0  0  0  0  0
   -2.2008   -0.2445    0.0000 C   0  0  0  0  0  0  0  0  0  0  0  0
   -2.1845    0.5705    0.0000 C   0  0  0  0  0  0  0  0  0  0  0  0
   -0.0326    0.9944    0.0000 C   0  0  0  0  0  0  0  0  0  0  0  0
   -0.7662   -0.2445    0.0000 C   0  0  0  0  0  0  0  0  0  0  0  0
   -1.4509    0.9944    0.0000 C   0  0  0  0  0  0  0  0  0  0  0  0
   -2.9018   -0.6684    0.0000 C   0  0  0  0  0  0  0  0  0  0  0  0
    1.3205    1.2715    0.0000 C   0  0  0  0  0  0  0  0  0  0  0  0
    0.0815    1.8095    0.0000 C   0  0  0  0  0  0  0  0  0  0  0  0
   -2.9018    0.9781    0.0000 C   0  0  0  0  0  0  0  0  0  0  0  0
   -3.6190   -0.2609    0.0000 C   0  0  0  0  0  0  0  0  0  0  0  0
   -3.6028    0.5705    0.0000 C   0  0  0  0  0  0  0  0  0  0  0  0
    2.4616    0.4402    0.0000 C   0  0  0  0  0  0  0  0  0  0  0  0
    1.9888   -0.2445    0.0000 C   0  0  0  0  0  0  0  0  0  0  0  0
    3.3093    0.3260    0.0000 C   0  0  0  0  0  0  0  0  0  0  0  0
    2.3312   -1.0107    0.0000 C   0  0  0  0  0  0  0  0  0  0  0  0
    3.1463   -1.0922    0.0000 C   0  0  0  0  0  0  0  0  0  0  0  0
    3.6190   -0.4402    0.0000 C   0  0  0  0  0  0  0  0  0  0  0  0
    1.1574   -0.2609    0.0000 C   0  0  0  0  0  0  0  0  0  0  0  0
  1 26  1  0  0  0  0
  2 17  1  0  0  0  0
  2 18  1  0  0  0  0
  3 11  1  0  0  0  0
  3 14  1  0  0  0  0
  4 14  2  0  0  0  0
  5  8  1  0  0  0  0
  6  8  2  0  0  0  0
  7 13  1  0  0  0  0
  7 17  2  0  0  0  0
  8 16  1  0  0  0  0
  9 17  1  0  0  0  0
  9 22  1  0  0  0  0
 10 13  1  0  0  0  0
 10 14  1  0  0  0  0
 10 15  2  0  0  0  0
 11 12  1  0  0  0  0
 11 16  2  0  0  0  0
 12 15  1  0  0  0  0
 12 19  2  0  0  0  0
 13 18  2  0  0  0  0
 16 20  1  0  0  0  0
 19 21  1  0  0  0  0
 20 21  2  0  0  0  0
 22 23  2  0  0  0  0
 22 24  1  0  0  0  0
 23 25  1  0  0  0  0
 23 28  1  0  0  0  0
 24 27  2  0  0  0  0
 25 26  2  0  0  0  0
 26 27  1  0  0  0  0
M  CHG  2   5  -1   8   1
M  END
> <PUBCHEM_COMPOUND_ID_TYPE>
0

> <PUBCHEM_TOTAL_CHARGE>
0

> <PUBCHEM_SUBSTANCE_ID>
310941624

> <PUBCHEM_SUBSTANCE_VERSION>
1

> <PUBCHEM_EXT_DATASOURCE_NAME>
4488

> <PUBCHEM_EXT_DATASOURCE_REGID>
SCHEMBL16119655

> <PUBCHEM_SUBSTANCE_COMMENT>
InChI=1S/C19H12BrN3O4S/c1-10-7-12(20)5-6-14(10)21-19-22-15(9-28-19)13-8-11-3-2-4-16(23(25)26)17(11)27-18(13)24/h2-9H,1H3,(H,21,22)
InChIKey=PPKAMNCRRCSEPG-UHFFFAOYSA-N

> <PUBCHEM_SUBSTANCE_SYNONYM>
SCHEMBL16119655

> <PUBCHEM_XREF_EXT_ID>
SCHEMBL16119655

> <PUBCHEM_EXT_DATASOURCE_URL>
https://www.surechembl.org/

> <PUBCHEM_EXT_SUBSTANCE_URL>
https://www.surechembl.org/chemical/SCHEMBL16119655

> <PUBCHEM_CID_ASSOCIATIONS>
117608413  1

> <PUBCHEM_COORDINATE_TYPE>
1
3

$$$$
