310949311
  -OEChem-07211613022D

 12 12  0     0  0  0  0  0  0999 V2000
    0.3713    2.0567    0.0000 Br  0  0  0  0  0  0  0  0  0  0  0  0
   -1.7856    1.5852    0.0000 N   0  0  0  0  0  0  0  0  0  0  0  0
    0.3477   -2.0567    0.0000 N   0  0  0  0  0  0  0  0  0  0  0  0
    0.3477    1.2553    0.0000 C   0  0  0  0  0  0  0  0  0  0  0  0
   -0.3477    0.8309    0.0000 C   0  0  0  0  0  0  0  0  0  0  0  0
    1.0667    0.8427    0.0000 C   0  0  0  0  0  0  0  0  0  0  0  0
    0.3595   -0.3830    0.0000 C   0  0  0  0  0  0  0  0  0  0  0  0
   -0.3477    0.0059    0.0000 C   0  0  0  0  0  0  0  0  0  0  0  0
    1.0549    0.0059    0.0000 C   0  0  0  0  0  0  0  0  0  0  0  0
   -1.0784    1.2198    0.0000 C   0  0  0  0  0  0  0  0  0  0  0  0
    0.3477   -1.2435    0.0000 C   0  0  0  0  0  0  0  0  0  0  0  0
    1.7856    1.2435    0.0000 C   0  0  0  0  0  0  0  0  0  0  0  0
  1  4  1  0  0  0  0
  2 10  3  0  0  0  0
  3 11  3  0  0  0  0
  4  5  1  0  0  0  0
  4  6  2  0  0  0  0
  5  8  2  0  0  0  0
  5 10  1  0  0  0  0
  6  9  1  0  0  0  0
  6 12  1  0  0  0  0
  7  8  1  0  0  0  0
  7  9  2  0  0  0  0
  7 11  1  0  0  0  0
M  END
> <PUBCHEM_COMPOUND_ID_TYPE>
0

> <PUBCHEM_TOTAL_CHARGE>
0

> <PUBCHEM_SUBSTANCE_ID>
310949311

> <PUBCHEM_SUBSTANCE_VERSION>
1

> <PUBCHEM_EXT_DATASOURCE_NAME>
4488

> <PUBCHEM_EXT_DATASOURCE_REGID>
SCHEMBL16127501

> <PUBCHEM_SUBSTANCE_COMMENT>
InChI=1S/C9H5BrN2/c1-6-2-7(4-11)3-8(5-12)9(6)10/h2-3H,1H3
InChIKey=NQPDRILMKXSOGG-UHFFFAOYSA-N

> <PUBCHEM_SUBSTANCE_SYNONYM>
SCHEMBL16127501

> <PUBCHEM_XREF_EXT_ID>
SCHEMBL16127501

> <PUBCHEM_EXT_DATASOURCE_URL>
https://www.surechembl.org/

> <PUBCHEM_EXT_SUBSTANCE_URL>
https://www.surechembl.org/chemical/SCHEMBL16127501

> <PUBCHEM_CID_ASSOCIATIONS>
12575940  1

> <PUBCHEM_COORDINATE_TYPE>
1
3

$$$$
