310941989
  -OEChem-07211613022D

 22 24  0     0  0  0  0  0  0999 V2000
   -3.2328    0.8508    0.0000 O   0  0  0  0  0  0  0  0  0  0  0  0
    3.2328    1.6826    0.0000 O   0  0  0  0  0  0  0  0  0  0  0  0
    0.1449   -0.5609    0.0000 N   0  0  0  0  0  0  0  0  0  0  0  0
   -2.9430   -0.5734    0.0000 N   0  0  0  0  0  0  0  0  0  0  0  0
    0.5482    0.7499    0.0000 C   0  0  0  0  0  0  0  0  0  0  0  0
   -0.2836    0.7625    0.0000 C   0  0  0  0  0  0  0  0  0  0  0  0
   -0.5482   -0.0441    0.0000 C   0  0  0  0  0  0  0  0  0  0  0  0
    0.7877   -0.0189    0.0000 C   0  0  0  0  0  0  0  0  0  0  0  0
   -1.3423   -0.2080    0.0000 C   0  0  0  0  0  0  0  0  0  0  0  0
    1.0903    1.3675    0.0000 C   0  0  0  0  0  0  0  0  0  0  0  0
   -0.8129    1.3675    0.0000 C   0  0  0  0  0  0  0  0  0  0  0  0
    1.6070   -0.2080    0.0000 C   0  0  0  0  0  0  0  0  0  0  0  0
   -1.9095    0.4096    0.0000 C   0  0  0  0  0  0  0  0  0  0  0  0
    1.8843    1.2289    0.0000 C   0  0  0  0  0  0  0  0  0  0  0  0
    0.1197   -1.3927    0.0000 C   0  0  0  0  0  0  0  0  0  0  0  0
   -1.6070    1.2037    0.0000 C   0  0  0  0  0  0  0  0  0  0  0  0
    2.1364    0.3970    0.0000 C   0  0  0  0  0  0  0  0  0  0  0  0
   -2.6909    0.2332    0.0000 C   0  0  0  0  0  0  0  0  0  0  0  0
    2.4136    1.8717    0.0000 C   0  0  0  0  0  0  0  0  0  0  0  0
   -0.5734   -1.7961    0.0000 C   0  0  0  0  0  0  0  0  0  0  0  0
    2.1490    2.6531    0.0000 C   0  0  0  0  0  0  0  0  0  0  0  0
   -0.5609   -2.6531    0.0000 C   0  0  0  0  0  0  0  0  0  0  0  0
  1 18  2  0  0  0  0
  2 19  2  0  0  0  0
  3  7  1  0  0  0  0
  3  8  1  0  0  0  0
  3 15  1  0  0  0  0
  4 18  1  0  0  0  0
  5  6  1  0  0  0  0
  5  8  2  0  0  0  0
  5 10  1  0  0  0  0
  6  7  1  0  0  0  0
  6 11  2  0  0  0  0
  7  9  2  0  0  0  0
  8 12  1  0  0  0  0
  9 13  1  0  0  0  0
 10 14  2  0  0  0  0
 11 16  1  0  0  0  0
 12 17  2  0  0  0  0
 13 16  2  0  0  0  0
 13 18  1  0  0  0  0
 14 17  1  0  0  0  0
 14 19  1  0  0  0  0
 15 20  1  0  0  0  0
 19 21  1  0  0  0  0
 20 22  1  0  0  0  0
M  END
> <PUBCHEM_COMPOUND_ID_TYPE>
0

> <PUBCHEM_TOTAL_CHARGE>
0

> <PUBCHEM_SUBSTANCE_ID>
310941989

> <PUBCHEM_SUBSTANCE_VERSION>
1

> <PUBCHEM_EXT_DATASOURCE_NAME>
4488

> <PUBCHEM_EXT_DATASOURCE_REGID>
SCHEMBL16120023

> <PUBCHEM_SUBSTANCE_COMMENT>
InChI=1S/C18H18N2O2/c1-3-8-20-16-7-5-12(11(2)21)9-15(16)14-6-4-13(18(19)22)10-17(14)20/h4-7,9-10H,3,8H2,1-2H3,(H2,19,22)
InChIKey=NMOWWFNYFJVMKO-UHFFFAOYSA-N

> <PUBCHEM_SUBSTANCE_SYNONYM>
SCHEMBL16120023

> <PUBCHEM_XREF_EXT_ID>
SCHEMBL16120023

> <PUBCHEM_EXT_DATASOURCE_URL>
https://www.surechembl.org/

> <PUBCHEM_EXT_SUBSTANCE_URL>
https://www.surechembl.org/chemical/SCHEMBL16120023

> <PUBCHEM_CID_ASSOCIATIONS>
86271248  1

> <PUBCHEM_COORDINATE_TYPE>
1
3

$$$$
