310934208
  -OEChem-07211613022D

 24 26  0     0  0  0  0  0  0999 V2000
    3.3339   -2.0964    0.0000 F   0  0  0  0  0  0  0  0  0  0  0  0
    4.6583    0.4361    0.0000 F   0  0  0  0  0  0  0  0  0  0  0  0
    1.1062   -0.1252    0.0000 O   0  0  0  0  0  0  0  0  0  0  0  0
    1.7684    1.1410    0.0000 O   0  0  0  0  0  0  0  0  0  0  0  0
   -0.2605   -4.3276    0.0000 O   0  0  0  0  0  0  0  0  0  0  0  0
    0.8001   -5.2853    0.0000 O   0  0  0  0  0  0  0  0  0  0  0  0
    1.1407   -0.9495    0.0000 C   0  0  0  0  0  0  0  0  0  0  0  0
    1.1445   -1.7057    0.0000 C   0  0  0  0  0  0  0  0  0  0  0  0
    0.7366   -0.2235    0.0000 C   0  0  0  0  0  0  0  0  0  0  0  0
    0.6709   -1.5755    0.0000 C   0  0  0  0  0  0  0  0  0  0  0  0
    2.0411   -1.1462    0.0000 C   0  0  0  0  0  0  0  0  0  0  0  0
    0.5275   -2.3166    0.0000 C   0  0  0  0  0  0  0  0  0  0  0  0
    1.9537   -1.8322    0.0000 C   0  0  0  0  0  0  0  0  0  0  0  0
    1.3983   -2.4907    0.0000 C   0  0  0  0  0  0  0  0  0  0  0  0
    1.8029    0.3168    0.0000 C   0  0  0  0  0  0  0  0  0  0  0  0
    2.5339   -0.0655    0.0000 C   0  0  0  0  0  0  0  0  0  0  0  0
    0.8454   -3.1030    0.0000 C   0  0  0  0  0  0  0  0  0  0  0  0
    3.2306    0.3764    0.0000 C   0  0  0  0  0  0  0  0  0  0  0  0
    2.5684   -0.8898    0.0000 C   0  0  0  0  0  0  0  0  0  0  0  0
    3.2995   -1.2721    0.0000 C   0  0  0  0  0  0  0  0  0  0  0  0
    3.9616   -0.0059    0.0000 C   0  0  0  0  0  0  0  0  0  0  0  0
    3.9961   -0.8301    0.0000 C   0  0  0  0  0  0  0  0  0  0  0  0
    1.0992   -3.8880    0.0000 C   0  0  0  0  0  0  0  0  0  0  0  0
    0.5463   -4.5003    0.0000 C   0  0  0  0  0  0  0  0  0  0  0  0
  1 20  1  0  0  0  0
  2 21  1  0  0  0  0
  3  7  1  0  0  0  0
  3 15  1  0  0  0  0
  4 15  2  0  0  0  0
  5 24  2  0  0  0  0
  6 24  1  0  0  0  0
  7  9  1  0  0  0  0
  7 10  1  0  0  0  0
  7 11  1  0  0  0  0
  8  9  1  0  0  0  0
  8 12  1  0  0  0  0
  8 13  1  0  0  0  0
  8 14  1  0  0  0  0
 10 12  1  0  0  0  0
 11 13  1  0  0  0  0
 14 17  1  0  0  0  0
 15 16  1  0  0  0  0
 16 18  2  0  0  0  0
 16 19  1  0  0  0  0
 17 23  1  0  0  0  0
 18 21  1  0  0  0  0
 19 20  2  0  0  0  0
 20 22  1  0  0  0  0
 21 22  2  0  0  0  0
 23 24  1  0  0  0  0
M  END
> <PUBCHEM_COMPOUND_ID_TYPE>
0

> <PUBCHEM_TOTAL_CHARGE>
0

> <PUBCHEM_SUBSTANCE_ID>
310934208

> <PUBCHEM_SUBSTANCE_VERSION>
1

> <PUBCHEM_EXT_DATASOURCE_NAME>
4488

> <PUBCHEM_EXT_DATASOURCE_REGID>
SCHEMBL16111663

> <PUBCHEM_SUBSTANCE_COMMENT>
InChI=1S/C18H20F2O4/c19-13-8-12(9-14(20)10-13)16(23)24-18-6-4-17(11-18,5-7-18)3-1-2-15(21)22/h8-10H,1-7,11H2,(H,21,22)
InChIKey=CFNLAJRVOFNJQI-UHFFFAOYSA-N

> <PUBCHEM_SUBSTANCE_SYNONYM>
SCHEMBL16111663

> <PUBCHEM_XREF_EXT_ID>
SCHEMBL16111663

> <PUBCHEM_EXT_DATASOURCE_URL>
https://www.surechembl.org/

> <PUBCHEM_EXT_SUBSTANCE_URL>
https://www.surechembl.org/chemical/SCHEMBL16111663

> <PUBCHEM_CID_ASSOCIATIONS>
117602475  1

> <PUBCHEM_COORDINATE_TYPE>
1
3

$$$$
