310942171
  -OEChem-07211613022D

 24 25  0     1  0  0  0  0  0999 V2000
   -0.3687    1.0999    0.0000 Cl  0  0  0  0  0  0  0  0  0  0  0  0
    2.5185    1.0999    0.0000 S   0  0  0  0  0  0  0  0  0  0  0  0
   -1.8060   -1.3999    0.0000 F   0  0  0  0  0  0  0  0  0  0  0  0
   -0.3687   -0.5625    0.0000 O   0  0  0  0  0  0  0  0  0  0  0  0
    2.9309    0.3749    0.0000 O   0  0  0  0  0  0  0  0  0  0  0  0
    2.0935    1.8248    0.0000 O   0  0  0  0  0  0  0  0  0  0  0  0
    3.2434    1.5124    0.0000 N   0  0  0  0  0  0  0  0  0  0  0  0
   -3.9684   -0.1500    0.0000 N   0  0  0  0  0  0  0  0  0  0  0  0
   -1.0937   -0.1375    0.0000 C   0  0  0  0  0  0  0  0  0  0  0  0
   -1.8060   -0.5499    0.0000 C   0  0  0  0  0  0  0  0  0  0  0  0
   -2.5310   -0.1500    0.0000 C   0  0  0  0  0  0  0  0  0  0  0  0
    1.8060    0.6874    0.0000 C   0  0  0  0  0  0  0  0  0  0  0  0
   -1.0812    0.6874    0.0000 C   0  0  0  0  0  0  0  0  0  0  0  0
    0.3562   -0.1500    0.0000 C   0  0  0  0  0  0  0  0  0  0  0  0
   -2.5185    0.6749    0.0000 C   0  0  0  0  0  0  0  0  0  0  0  0
   -3.2434   -0.5625    0.0000 C   0  0  3  0  0  0  0  0  0  0  0  0
   -1.8185    1.0874    0.0000 C   0  0  0  0  0  0  0  0  0  0  0  0
    1.0687    1.0874    0.0000 C   0  0  0  0  0  0  0  0  0  0  0  0
    1.8060   -0.1375    0.0000 C   0  0  0  0  0  0  0  0  0  0  0  0
    0.3687    0.6749    0.0000 C   0  0  0  0  0  0  0  0  0  0  0  0
    1.0937   -0.5625    0.0000 C   0  0  0  0  0  0  0  0  0  0  0  0
   -3.2559   -1.3999    0.0000 C   0  0  0  0  0  0  0  0  0  0  0  0
    3.9684    1.0999    0.0000 C   0  0  0  0  0  0  0  0  0  0  0  0
   -3.9559   -1.8248    0.0000 C   0  0  0  0  0  0  0  0  0  0  0  0
  1 13  1  0  0  0  0
  2  5  2  0  0  0  0
  2  6  2  0  0  0  0
  2  7  1  0  0  0  0
  2 12  1  0  0  0  0
  3 10  1  0  0  0  0
  4  9  1  0  0  0  0
  4 14  1  0  0  0  0
  7 23  1  0  0  0  0
 16  8  1  1  0  0  0
  9 10  1  0  0  0  0
  9 13  2  0  0  0  0
 10 11  2  0  0  0  0
 11 15  1  0  0  0  0
 11 16  1  0  0  0  0
 12 18  2  0  0  0  0
 12 19  1  0  0  0  0
 13 17  1  0  0  0  0
 14 20  2  0  0  0  0
 14 21  1  0  0  0  0
 15 17  2  0  0  0  0
 16 22  1  0  0  0  0
 18 20  1  0  0  0  0
 19 21  2  0  0  0  0
 22 24  1  0  0  0  0
M  END
> <PUBCHEM_COMPOUND_ID_TYPE>
0

> <PUBCHEM_TOTAL_CHARGE>
0

> <PUBCHEM_SUBSTANCE_ID>
310942171

> <PUBCHEM_SUBSTANCE_VERSION>
1

> <PUBCHEM_EXT_DATASOURCE_NAME>
4488

> <PUBCHEM_EXT_DATASOURCE_REGID>
SCHEMBL16120206

> <PUBCHEM_SUBSTANCE_COMMENT>
InChI=1S/C16H18ClFN2O3S/c1-3-14(19)12-8-9-13(17)16(15(12)18)23-10-4-6-11(7-5-10)24(21,22)20-2/h4-9,14,20H,3,19H2,1-2H3/t14-/m1/s1
InChIKey=VGOYUBUSIFOBJB-CQSZACIVSA-N

> <PUBCHEM_SUBSTANCE_SYNONYM>
SCHEMBL16120206

> <PUBCHEM_XREF_EXT_ID>
SCHEMBL16120206

> <PUBCHEM_EXT_DATASOURCE_URL>
https://www.surechembl.org/

> <PUBCHEM_EXT_SUBSTANCE_URL>
https://www.surechembl.org/chemical/SCHEMBL16120206

> <PUBCHEM_CID_ASSOCIATIONS>
117608824  1

> <PUBCHEM_COORDINATE_TYPE>
1
3

> <PUBCHEM_BONDANNOTATIONS>
16  8  5

$$$$
