310949971
  -OEChem-07211613022D

 28 32  0     1  0  0  0  0  0999 V2000
    2.9699   -0.8662    0.0000 Cl  0  0  0  0  0  0  0  0  0  0  0  0
   -0.7699    1.3887    0.0000 N   0  0  0  0  0  0  0  0  0  0  0  0
   -0.7699    2.7225    0.0000 N   0  0  0  0  0  0  0  0  0  0  0  0
    0.0000   -0.9625    0.0000 N   0  0  0  0  0  0  0  0  0  0  0  0
    1.8149    1.6362    0.0000 N   0  0  0  0  0  0  0  0  0  0  0  0
   -0.2888    2.0625    0.0000 C   0  0  0  0  0  0  0  0  0  0  0  0
   -1.5675    1.6499    0.0000 C   0  0  0  0  0  0  0  0  0  0  0  0
   -1.5537    2.4749    0.0000 C   0  0  0  0  0  0  0  0  0  0  0  0
   -0.5225    0.6188    0.0000 C   0  0  0  0  0  0  0  0  0  0  0  0
    0.5500    2.0487    0.0000 C   0  0  3  0  0  0  0  0  0  0  0  0
   -2.2549    1.2375    0.0000 C   0  0  0  0  0  0  0  0  0  0  0  0
   -2.2687    2.8599    0.0000 C   0  0  0  0  0  0  0  0  0  0  0  0
   -1.0587   -0.0275    0.0000 C   0  0  0  0  0  0  0  0  0  0  0  0
    0.3025    0.4262    0.0000 C   0  0  0  0  0  0  0  0  0  0  0  0
    1.0450    1.3887    0.0000 C   0  0  0  0  0  0  0  0  0  0  0  0
    1.0037    2.7087    0.0000 C   0  0  0  0  0  0  0  0  0  0  0  0
   -2.9699    1.6362    0.0000 C   0  0  0  0  0  0  0  0  0  0  0  0
   -2.9699    2.4612    0.0000 C   0  0  0  0  0  0  0  0  0  0  0  0
   -0.8113   -0.7837    0.0000 C   0  0  0  0  0  0  0  0  0  0  0  0
    0.5362   -0.3437    0.0000 C   0  0  0  0  0  0  0  0  0  0  0  0
    1.8012    2.4612    0.0000 C   0  0  0  0  0  0  0  0  0  0  0  0
    0.2475   -1.7325    0.0000 C   0  0  0  0  0  0  0  0  0  0  0  0
    1.0587   -1.9112    0.0000 C   0  0  0  0  0  0  0  0  0  0  0  0
    1.5949   -1.3200    0.0000 C   0  0  0  0  0  0  0  0  0  0  0  0
    1.3200   -2.6949    0.0000 C   0  0  0  0  0  0  0  0  0  0  0  0
    2.4062   -1.4712    0.0000 C   0  0  0  0  0  0  0  0  0  0  0  0
    2.1174   -2.8599    0.0000 C   0  0  0  0  0  0  0  0  0  0  0  0
    2.6537   -2.2687    0.0000 C   0  0  0  0  0  0  0  0  0  0  0  0
  1 26  1  0  0  0  0
  2  6  1  0  0  0  0
  2  7  1  0  0  0  0
  2  9  1  0  0  0  0
  3  6  2  0  0  0  0
  3  8  1  0  0  0  0
  4 19  1  0  0  0  0
  4 20  1  0  0  0  0
  4 22  1  0  0  0  0
  5 15  1  0  0  0  0
  5 21  1  0  0  0  0
 10  6  1  6  0  0  0
  7  8  1  0  0  0  0
  7 11  2  0  0  0  0
  8 12  2  0  0  0  0
  9 13  1  0  0  0  0
  9 14  1  0  0  0  0
 10 15  1  0  0  0  0
 10 16  1  0  0  0  0
 11 17  1  0  0  0  0
 12 18  1  0  0  0  0
 13 19  1  0  0  0  0
 14 20  1  0  0  0  0
 16 21  1  0  0  0  0
 17 18  2  0  0  0  0
 22 23  1  0  0  0  0
 23 24  2  0  0  0  0
 23 25  1  0  0  0  0
 24 26  1  0  0  0  0
 25 27  2  0  0  0  0
 26 28  2  0  0  0  0
 27 28  1  0  0  0  0
M  END
> <PUBCHEM_COMPOUND_ID_TYPE>
0

> <PUBCHEM_TOTAL_CHARGE>
0

> <PUBCHEM_SUBSTANCE_ID>
310949971

> <PUBCHEM_SUBSTANCE_VERSION>
1

> <PUBCHEM_EXT_DATASOURCE_NAME>
4488

> <PUBCHEM_EXT_DATASOURCE_REGID>
SCHEMBL16128200

> <PUBCHEM_SUBSTANCE_COMMENT>
InChI=1S/C23H27ClN4/c24-19-5-3-4-17(14-19)16-27-12-9-20(10-13-27)28-22-7-2-1-6-21(22)26-23(28)18-8-11-25-15-18/h1-7,14,18,20,25H,8-13,15-16H2/t18-/m1/s1
InChIKey=AWYDVGQOXWYISB-GOSISDBHSA-N

> <PUBCHEM_SUBSTANCE_SYNONYM>
SCHEMBL16128200

> <PUBCHEM_XREF_EXT_ID>
SCHEMBL16128200

> <PUBCHEM_EXT_DATASOURCE_URL>
https://www.surechembl.org/

> <PUBCHEM_EXT_SUBSTANCE_URL>
https://www.surechembl.org/chemical/SCHEMBL16128200

> <PUBCHEM_CID_ASSOCIATIONS>
86275256  1

> <PUBCHEM_COORDINATE_TYPE>
1
3

> <PUBCHEM_BONDANNOTATIONS>
10  6  6

$$$$
