310948438
  -OEChem-07211613022D

 36 41  0     1  0  0  0  0  0999 V2000
   -0.3884   -2.5034    0.0000 S   0  0  0  0  0  0  0  0  0  0  0  0
   -1.1650   -2.7670    0.0000 O   0  0  0  0  0  0  0  0  0  0  0  0
   -0.2774   -3.3217    0.0000 O   0  0  0  0  0  0  0  0  0  0  0  0
    1.2344   -1.0888    0.0000 O   0  0  0  0  0  0  0  0  0  0  0  0
    1.6505   -3.4466    0.0000 O   0  0  0  0  0  0  0  0  0  0  0  0
   -2.5936    2.0319    0.0000 O   0  0  0  0  0  0  0  0  0  0  0  0
    0.1665    1.8793    0.0000 N   0  0  0  0  0  0  0  0  0  0  0  0
   -1.5534    0.6033    0.0000 N   0  0  0  0  0  0  0  0  0  0  0  0
   -0.1665    1.1165    0.0000 N   0  0  0  0  0  0  0  0  0  0  0  0
   -1.8724    3.2801    0.0000 N   0  0  0  0  0  0  0  0  0  0  0  0
    0.9847   -0.1457    0.0000 N   0  0  0  0  0  0  0  0  0  0  0  0
    0.4161   -2.3232    0.0000 C   0  0  0  0  0  0  0  0  0  0  0  0
   -0.8045   -1.7684    0.0000 C   0  0  0  0  0  0  0  0  0  0  0  0
    0.5270   -1.4910    0.0000 C   0  0  3  0  0  0  0  0  0  0  0  0
   -0.2496   -1.1581    0.0000 C   0  0  0  0  0  0  0  0  0  0  0  0
    1.2067   -2.0874    0.0000 C   0  0  0  0  0  0  0  0  0  0  0  0
    0.2496   -3.1414    0.0000 C   0  0  0  0  0  0  0  0  0  0  0  0
   -0.4993   -0.3676    0.0000 C   0  0  0  0  0  0  0  0  0  0  0  0
   -1.6088   -1.5880    0.0000 C   0  0  0  0  0  0  0  0  0  0  0  0
   -1.3176   -0.1734    0.0000 C   0  0  0  0  0  0  0  0  0  0  0  0
   -0.9986    1.2275    0.0000 C   0  0  0  0  0  0  0  0  0  0  0  0
   -1.1650    2.0319    0.0000 C   0  0  0  0  0  0  0  0  0  0  0  0
   -1.8446   -0.7837    0.0000 C   0  0  0  0  0  0  0  0  0  0  0  0
   -0.4577    2.4480    0.0000 C   0  0  0  0  0  0  0  0  0  0  0  0
    1.8169   -2.6283    0.0000 C   0  0  0  0  0  0  0  0  0  0  0  0
    0.8738   -3.6824    0.0000 C   0  0  0  0  0  0  0  0  0  0  0  0
    0.9708    2.0457    0.0000 C   0  0  3  0  0  0  0  0  0  0  0  0
   -1.8863    2.4618    0.0000 C   0  0  0  0  0  0  0  0  0  0  0  0
   -0.4300    3.2663    0.0000 C   0  0  0  0  0  0  0  0  0  0  0  0
    1.5118    1.4355    0.0000 C   0  0  3  0  0  0  0  0  0  0  0  0
   -1.1511    3.6824    0.0000 C   0  0  0  0  0  0  0  0  0  0  0  0
    1.2483    2.8363    0.0000 C   0  0  0  0  0  0  0  0  0  0  0  0
    2.3162    1.6019    0.0000 C   0  0  0  0  0  0  0  0  0  0  0  0
    1.2344    0.6588    0.0000 C   0  0  0  0  0  0  0  0  0  0  0  0
    2.0527    2.9889    0.0000 C   0  0  0  0  0  0  0  0  0  0  0  0
    2.5936    2.3648    0.0000 C   0  0  0  0  0  0  0  0  0  0  0  0
  1  2  2  0  0  0  0
  1  3  2  0  0  0  0
  1 12  1  0  0  0  0
  1 13  1  0  0  0  0
  4 14  1  0  0  0  0
  5 25  1  0  0  0  0
  5 26  1  0  0  0  0
  6 28  2  0  0  0  0
  7  9  1  0  0  0  0
  7 24  1  0  0  0  0
 27  7  1  1  0  0  0
  8 20  1  0  0  0  0
  8 21  1  0  0  0  0
  9 21  2  0  0  0  0
 10 28  1  0  0  0  0
 10 31  1  0  0  0  0
 11 34  3  0  0  0  0
 12 14  1  0  0  0  0
 12 16  1  0  0  0  0
 12 17  1  0  0  0  0
 13 15  1  0  0  0  0
 13 19  2  0  0  0  0
 14 15  1  0  0  0  0
 15 18  2  0  0  0  0
 16 25  1  0  0  0  0
 17 26  1  0  0  0  0
 18 20  1  0  0  0  0
 19 23  1  0  0  0  0
 20 23  2  0  0  0  0
 21 22  1  0  0  0  0
 22 24  2  0  0  0  0
 22 28  1  0  0  0  0
 24 29  1  0  0  0  0
 27 30  1  0  0  0  0
 27 32  1  0  0  0  0
 29 31  2  0  0  0  0
 30 33  1  0  0  0  0
 30 34  1  6  0  0  0
 32 35  1  0  0  0  0
 33 36  1  0  0  0  0
 35 36  1  0  0  0  0
M  END
> <PUBCHEM_COMPOUND_ID_TYPE>
0

> <PUBCHEM_TOTAL_CHARGE>
0

> <PUBCHEM_SUBSTANCE_ID>
310948438

> <PUBCHEM_SUBSTANCE_VERSION>
1

> <PUBCHEM_EXT_DATASOURCE_NAME>
4488

> <PUBCHEM_EXT_DATASOURCE_REGID>
SCHEMBL16126619

> <PUBCHEM_SUBSTANCE_COMMENT>
InChI=1S/C25H27N5O5S/c26-14-15-3-1-2-4-18(15)30-19-7-10-27-24(32)21(19)23(29-30)28-16-5-6-20-17(13-16)22(31)25(36(20,33)34)8-11-35-12-9-25/h5-7,10,13,15,18,22,31H,1-4,8-9,11-12H2,(H,27,32)(H,28,29)/t15-,18+,22?/m1/s1
InChIKey=NNMMZGHVYIJIOF-KXWCCMCASA-N

> <PUBCHEM_SUBSTANCE_SYNONYM>
SCHEMBL16126619

> <PUBCHEM_XREF_EXT_ID>
SCHEMBL16126619

> <PUBCHEM_EXT_DATASOURCE_URL>
https://www.surechembl.org/

> <PUBCHEM_EXT_SUBSTANCE_URL>
https://www.surechembl.org/chemical/SCHEMBL16126619

> <PUBCHEM_CID_ASSOCIATIONS>
117613996  1

> <PUBCHEM_COORDINATE_TYPE>
1
3

> <PUBCHEM_BONDANNOTATIONS>
30  34  6
27  7  5

$$$$
