310941008
  -OEChem-07211613022D

  9 10  0     0  0  0  0  0  0999 V2000
   -1.7052   -0.0062    0.0000 S   0  0  0  0  0  0  0  0  0  0  0  0
    0.3811    0.6683    0.0000 N   0  0  0  0  0  0  0  0  0  0  0  0
   -0.4061    0.4186    0.0000 C   0  0  0  0  0  0  0  0  0  0  0  0
   -0.4311   -0.4061    0.0000 C   0  0  0  0  0  0  0  0  0  0  0  0
    0.8683   -0.0187    0.0000 C   0  0  0  0  0  0  0  0  0  0  0  0
    0.3811   -0.5060    0.0000 C   0  0  0  0  0  0  0  0  0  0  0  0
   -1.2056    0.6683    0.0000 C   0  0  0  0  0  0  0  0  0  0  0  0
   -1.2056   -0.6683    0.0000 C   0  0  0  0  0  0  0  0  0  0  0  0
    1.7052    0.0062    0.0000 C   0  0  0  0  0  0  0  0  0  0  0  0
  1  7  1  0  0  0  0
  1  8  1  0  0  0  0
  2  3  1  0  0  0  0
  2  5  1  0  0  0  0
  3  4  1  0  0  0  0
  3  7  2  0  0  0  0
  4  6  1  0  0  0  0
  4  8  2  0  0  0  0
  5  6  2  0  0  0  0
  5  9  1  0  0  0  0
M  END
> <PUBCHEM_COMPOUND_ID_TYPE>
0

> <PUBCHEM_TOTAL_CHARGE>
0

> <PUBCHEM_SUBSTANCE_ID>
310941008

> <PUBCHEM_SUBSTANCE_VERSION>
1

> <PUBCHEM_EXT_DATASOURCE_NAME>
4488

> <PUBCHEM_EXT_DATASOURCE_REGID>
SCHEMBL16118967

> <PUBCHEM_SUBSTANCE_COMMENT>
InChI=1S/C7H7NS/c1-5-2-6-3-9-4-7(6)8-5/h2-4,8H,1H3
InChIKey=CCIRPBXSLAIJNV-UHFFFAOYSA-N

> <PUBCHEM_SUBSTANCE_SYNONYM>
SCHEMBL16118967

> <PUBCHEM_XREF_EXT_ID>
SCHEMBL16118967

> <PUBCHEM_EXT_DATASOURCE_URL>
https://www.surechembl.org/

> <PUBCHEM_EXT_SUBSTANCE_URL>
https://www.surechembl.org/chemical/SCHEMBL16118967

> <PUBCHEM_CID_ASSOCIATIONS>
91213092  1

> <PUBCHEM_COORDINATE_TYPE>
1
3

$$$$
