310947356
  -OEChem-07211613022D

 41 45  0     0  0  0  0  0  0999 V2000
    5.4641    0.4846    0.0000 O   0  0  0  0  0  0  0  0  0  0  0  0
   -1.8180    2.4893    0.0000 O   0  0  0  0  0  0  0  0  0  0  0  0
    4.0839    0.1147    0.0000 O   0  0  0  0  0  0  0  0  0  0  0  0
    1.1100    0.1720    0.0000 N   0  0  0  0  0  0  0  0  0  0  0  0
    1.5949    0.8394    0.0000 N   0  0  0  0  0  0  0  0  0  0  0  0
   -2.5324    1.2519    0.0000 N   0  0  0  0  0  0  0  0  0  0  0  0
    0.3254    0.4270    0.0000 C   0  0  0  0  0  0  0  0  0  0  0  0
    0.3254    1.2519    0.0000 C   0  0  0  0  0  0  0  0  0  0  0  0
    1.1100    1.5068    0.0000 C   0  0  0  0  0  0  0  0  0  0  0  0
   -0.3891    1.6644    0.0000 C   0  0  0  0  0  0  0  0  0  0  0  0
   -1.1035    1.2519    0.0000 C   0  0  0  0  0  0  0  0  0  0  0  0
   -0.3891    0.0144    0.0000 C   0  0  0  0  0  0  0  0  0  0  0  0
    1.3235   -0.6249    0.0000 C   0  0  0  0  0  0  0  0  0  0  0  0
   -1.1035    0.4270    0.0000 C   0  0  0  0  0  0  0  0  0  0  0  0
    2.1204   -0.8384    0.0000 C   0  0  0  0  0  0  0  0  0  0  0  0
    4.5110   -1.4789    0.0000 C   0  0  0  0  0  0  0  0  0  0  0  0
    3.7141   -1.2655    0.0000 C   0  0  0  0  0  0  0  0  0  0  0  0
   -1.8180    1.6644    0.0000 C   0  0  0  0  0  0  0  0  0  0  0  0
    5.0943   -0.8956    0.0000 C   0  0  0  0  0  0  0  0  0  0  0  0
    1.5225    2.2213    0.0000 C   0  0  0  0  0  0  0  0  0  0  0  0
    2.3339   -1.6353    0.0000 C   0  0  0  0  0  0  0  0  0  0  0  0
    2.7037   -0.2551    0.0000 C   0  0  0  0  0  0  0  0  0  0  0  0
    3.1308   -1.8488    0.0000 C   0  0  0  0  0  0  0  0  0  0  0  0
    3.5006   -0.4686    0.0000 C   0  0  0  0  0  0  0  0  0  0  0  0
    4.8808   -0.0987    0.0000 C   0  0  0  0  0  0  0  0  0  0  0  0
    4.7245   -2.2758    0.0000 C   0  0  0  0  0  0  0  0  0  0  0  0
    5.8912   -1.1091    0.0000 C   0  0  0  0  0  0  0  0  0  0  0  0
    5.5214   -2.4893    0.0000 C   0  0  0  0  0  0  0  0  0  0  0  0
    6.1048   -1.9060    0.0000 C   0  0  0  0  0  0  0  0  0  0  0  0
    5.2507    1.2815    0.0000 C   0  0  0  0  0  0  0  0  0  0  0  0
   -3.2469    1.6644    0.0000 C   0  0  0  0  0  0  0  0  0  0  0  0
   -3.9614    1.2519    0.0000 C   0  0  0  0  0  0  0  0  0  0  0  0
    4.4538    1.4949    0.0000 C   0  0  0  0  0  0  0  0  0  0  0  0
    5.8341    1.8649    0.0000 C   0  0  0  0  0  0  0  0  0  0  0  0
    5.0372    2.0784    0.0000 C   0  0  0  0  0  0  0  0  0  0  0  0
   -3.9614    0.4270    0.0000 C   0  0  0  0  0  0  0  0  0  0  0  0
   -4.6758    1.6644    0.0000 C   0  0  0  0  0  0  0  0  0  0  0  0
   -5.3903    0.4270    0.0000 C   0  0  0  0  0  0  0  0  0  0  0  0
   -5.3903    1.2519    0.0000 C   0  0  0  0  0  0  0  0  0  0  0  0
   -4.6758    0.0144    0.0000 C   0  0  0  0  0  0  0  0  0  0  0  0
   -6.1048    0.0144    0.0000 C   0  0  0  0  0  0  0  0  0  0  0  0
  1 25  1  0  0  0  0
  1 30  1  0  0  0  0
  2 18  2  0  0  0  0
  3 25  2  0  0  0  0
  4  5  1  0  0  0  0
  4  7  1  0  0  0  0
  4 13  1  0  0  0  0
  5  9  2  0  0  0  0
  6 18  1  0  0  0  0
  6 31  1  0  0  0  0
  7  8  1  0  0  0  0
  7 12  2  0  0  0  0
  8  9  1  0  0  0  0
  8 10  2  0  0  0  0
  9 20  1  0  0  0  0
 10 11  1  0  0  0  0
 11 14  2  0  0  0  0
 11 18  1  0  0  0  0
 12 14  1  0  0  0  0
 13 15  1  0  0  0  0
 15 21  2  0  0  0  0
 15 22  1  0  0  0  0
 16 17  1  0  0  0  0
 16 19  1  0  0  0  0
 16 26  2  0  0  0  0
 17 23  2  0  0  0  0
 17 24  1  0  0  0  0
 19 25  1  0  0  0  0
 19 27  2  0  0  0  0
 21 23  1  0  0  0  0
 22 24  2  0  0  0  0
 26 28  1  0  0  0  0
 27 29  1  0  0  0  0
 28 29  2  0  0  0  0
 30 33  1  0  0  0  0
 30 34  1  0  0  0  0
 30 35  1  0  0  0  0
 31 32  1  0  0  0  0
 32 36  1  0  0  0  0
 32 37  1  0  0  0  0
 36 40  1  0  0  0  0
 37 39  1  0  0  0  0
 38 39  1  0  0  0  0
 38 40  1  0  0  0  0
 38 41  1  0  0  0  0
M  END
> <PUBCHEM_COMPOUND_ID_TYPE>
0

> <PUBCHEM_TOTAL_CHARGE>
0

> <PUBCHEM_SUBSTANCE_ID>
310947356

> <PUBCHEM_SUBSTANCE_VERSION>
1

> <PUBCHEM_EXT_DATASOURCE_NAME>
4488

> <PUBCHEM_EXT_DATASOURCE_REGID>
SCHEMBL16125511

> <PUBCHEM_SUBSTANCE_COMMENT>
InChI=1S/C35H41N3O3/c1-23-10-12-25(13-11-23)21-36-33(39)28-18-19-32-31(20-28)24(2)37-38(32)22-26-14-16-27(17-15-26)29-8-6-7-9-30(29)34(40)41-35(3,4)5/h6-9,14-20,23,25H,10-13,21-22H2,1-5H3,(H,36,39)
InChIKey=UBUFFJGRKGGWCV-UHFFFAOYSA-N

> <PUBCHEM_SUBSTANCE_SYNONYM>
SCHEMBL16125511

> <PUBCHEM_XREF_EXT_ID>
SCHEMBL16125511

> <PUBCHEM_EXT_DATASOURCE_URL>
https://www.surechembl.org/

> <PUBCHEM_EXT_SUBSTANCE_URL>
https://www.surechembl.org/chemical/SCHEMBL16125511

> <PUBCHEM_CID_ASSOCIATIONS>
117613101  1

> <PUBCHEM_COORDINATE_TYPE>
1
3

$$$$
