310937648
  -OEChem-07211613022D

 23 26  0     0  0  0  0  0  0999 V2000
    2.7122   -1.7462    0.0000 O   0  0  0  0  0  0  0  0  0  0  0  0
    1.6719   -5.2014    0.0000 O   0  0  0  0  0  0  0  0  0  0  0  0
    1.4490   -2.1549    0.0000 N   0  0  0  0  0  0  0  0  0  0  0  0
    3.2695   -3.3438    0.0000 N   0  0  0  0  0  0  0  0  0  0  0  0
    2.2292   -2.4150    0.0000 C   0  0  0  0  0  0  0  0  0  0  0  0
    1.4490   -1.3375    0.0000 C   0  0  0  0  0  0  0  0  0  0  0  0
    2.4893   -3.1952    0.0000 C   0  0  0  0  0  0  0  0  0  0  0  0
    2.9722   -4.7556    0.0000 C   0  0  0  0  0  0  0  0  0  0  0  0
    2.1920   -4.6070    0.0000 C   0  0  0  0  0  0  0  0  0  0  0  0
    3.2323   -5.5358    0.0000 C   0  0  0  0  0  0  0  0  0  0  0  0
    1.8948   -3.8268    0.0000 C   0  0  0  0  0  0  0  0  0  0  0  0
    2.2292   -1.0774    0.0000 C   0  0  0  0  0  0  0  0  0  0  0  0
    3.5667   -4.1612    0.0000 C   0  0  0  0  0  0  0  0  0  0  0  0
    3.8640   -6.0931    0.0000 C   0  0  0  0  0  0  0  0  0  0  0  0
    3.0837   -6.3532    0.0000 C   0  0  0  0  0  0  0  0  0  0  0  0
    0.7802   -0.8545    0.0000 C   0  0  0  0  0  0  0  0  0  0  0  0
    1.5605   -0.5201    0.0000 C   0  0  0  0  0  0  0  0  0  0  0  0
    1.9320   -6.0188    0.0000 C   0  0  0  0  0  0  0  0  0  0  0  0
    1.4118   -6.6133    0.0000 C   0  0  0  0  0  0  0  0  0  0  0  0
    1.2632   -7.4306    0.0000 C   0  0  0  0  0  0  0  0  0  0  0  0
    0.5944   -6.9105    0.0000 C   0  0  0  0  0  0  0  0  0  0  0  0
    0.0000   -1.1889    0.0000 C   0  0  0  0  0  0  0  0  0  0  0  0
    0.9288    0.0000    0.0000 C   0  0  0  0  0  0  0  0  0  0  0  0
  1  5  1  0  0  0  0
  1 12  1  0  0  0  0
  2  9  1  0  0  0  0
  2 18  1  0  0  0  0
  3  5  2  0  0  0  0
  3  6  1  0  0  0  0
  4  7  1  0  0  0  0
  4 13  2  0  0  0  0
  5  7  1  0  0  0  0
  6 12  1  0  0  0  0
  6 16  1  0  0  0  0
  6 17  1  0  0  0  0
  7 11  2  0  0  0  0
  8  9  2  0  0  0  0
  8 10  1  0  0  0  0
  8 13  1  0  0  0  0
  9 11  1  0  0  0  0
 10 14  1  0  0  0  0
 10 15  1  0  0  0  0
 14 15  1  0  0  0  0
 16 22  1  0  0  0  0
 17 23  1  0  0  0  0
 18 19  1  0  0  0  0
 19 20  1  0  0  0  0
 19 21  1  0  0  0  0
 20 21  1  0  0  0  0
M  END
> <PUBCHEM_COMPOUND_ID_TYPE>
0

> <PUBCHEM_TOTAL_CHARGE>
0

> <PUBCHEM_SUBSTANCE_ID>
310937648

> <PUBCHEM_SUBSTANCE_VERSION>
1

> <PUBCHEM_EXT_DATASOURCE_NAME>
4488

> <PUBCHEM_EXT_DATASOURCE_REGID>
SCHEMBL16115437

> <PUBCHEM_SUBSTANCE_COMMENT>
InChI=1S/C19H26N2O2/c1-3-19(4-2)12-23-18(21-19)16-9-17(22-11-13-5-6-13)15(10-20-16)14-7-8-14/h9-10,13-14H,3-8,11-12H2,1-2H3
InChIKey=NMHFZCVAQZPHOP-UHFFFAOYSA-N

> <PUBCHEM_SUBSTANCE_SYNONYM>
SCHEMBL16115437

> <PUBCHEM_XREF_EXT_ID>
SCHEMBL16115437

> <PUBCHEM_EXT_DATASOURCE_URL>
https://www.surechembl.org/

> <PUBCHEM_EXT_SUBSTANCE_URL>
https://www.surechembl.org/chemical/SCHEMBL16115437

> <PUBCHEM_CID_ASSOCIATIONS>
78428089  1

> <PUBCHEM_COORDINATE_TYPE>
1
3

$$$$
