310947636
  -OEChem-07211613022D

 80 88  0     0  0  0  0  0  0999 V2000
    3.7896    3.6380    0.0000 S   0  0  0  0  0  0  0  0  0  0  0  0
    3.6597   -3.4487    0.0000 S   0  0  0  0  0  0  0  0  0  0  0  0
   -3.5729   -3.8431    0.0000 S   0  0  0  0  0  0  0  0  0  0  0  0
   -3.6323    3.7507    0.0000 S   0  0  0  0  0  0  0  0  0  0  0  0
    3.2218    1.0496    0.0000 F   0  0  0  0  0  0  0  0  0  0  0  0
    1.0541   -2.8120    0.0000 F   0  0  0  0  0  0  0  0  0  0  0  0
    1.2010    3.0703    0.0000 F   0  0  0  0  0  0  0  0  0  0  0  0
    3.0748   -0.7913    0.0000 F   0  0  0  0  0  0  0  0  0  0  0  0
   -2.8334   -1.0826    0.0000 F   0  0  0  0  0  0  0  0  0  0  0  0
   -0.8718    3.0110    0.0000 F   0  0  0  0  0  0  0  0  0  0  0  0
   -0.8125   -3.1034    0.0000 F   0  0  0  0  0  0  0  0  0  0  0  0
   -2.8926    0.9902    0.0000 F   0  0  0  0  0  0  0  0  0  0  0  0
    2.3677    4.2369    0.0000 F   0  0  0  0  0  0  0  0  0  0  0  0
    4.2416   -1.9581    0.0000 F   0  0  0  0  0  0  0  0  0  0  0  0
    4.3885    2.2162    0.0000 F   0  0  0  0  0  0  0  0  0  0  0  0
    2.2207   -3.9788    0.0000 F   0  0  0  0  0  0  0  0  0  0  0  0
   -1.9793   -4.2701    0.0000 F   0  0  0  0  0  0  0  0  0  0  0  0
   -4.0593    2.1569    0.0000 F   0  0  0  0  0  0  0  0  0  0  0  0
   -4.0000   -2.2494    0.0000 F   0  0  0  0  0  0  0  0  0  0  0  0
   -2.0386    4.1777    0.0000 F   0  0  0  0  0  0  0  0  0  0  0  0
    1.3861    0.0265    0.0000 N   0  0  0  0  0  0  0  0  0  0  0  0
    0.2373   -1.2085    0.0000 N   0  0  0  0  0  0  0  0  0  0  0  0
    0.1512    1.1753    0.0000 N   0  0  0  0  0  0  0  0  0  0  0  0
   -0.9977   -0.0596    0.0000 N   0  0  0  0  0  0  0  0  0  0  0  0
    1.6281    1.4766    0.0000 C   0  0  0  0  0  0  0  0  0  0  0  0
    1.6874   -1.4504    0.0000 C   0  0  0  0  0  0  0  0  0  0  0  0
   -1.2396   -1.5097    0.0000 C   0  0  0  0  0  0  0  0  0  0  0  0
   -1.2989    1.4173    0.0000 C   0  0  0  0  0  0  0  0  0  0  0  0
    2.2114    2.0599    0.0000 C   0  0  0  0  0  0  0  0  0  0  0  0
    2.0645   -1.8017    0.0000 C   0  0  0  0  0  0  0  0  0  0  0  0
   -1.8230   -2.0930    0.0000 C   0  0  0  0  0  0  0  0  0  0  0  0
   -1.8822    2.0006    0.0000 C   0  0  0  0  0  0  0  0  0  0  0  0
    1.8765    0.6898    0.0000 C   0  0  0  0  0  0  0  0  0  0  0  0
    1.8655   -0.6449    0.0000 C   0  0  0  0  0  0  0  0  0  0  0  0
    0.8225    1.6547    0.0000 C   0  0  0  0  0  0  0  0  0  0  0  0
    0.9006   -1.6989    0.0000 C   0  0  0  0  0  0  0  0  0  0  0  0
   -0.4341   -1.6878    0.0000 C   0  0  0  0  0  0  0  0  0  0  0  0
   -0.5122    1.6657    0.0000 C   0  0  0  0  0  0  0  0  0  0  0  0
   -1.4881   -0.7230    0.0000 C   0  0  0  0  0  0  0  0  0  0  0  0
   -1.4770    0.6117    0.0000 C   0  0  0  0  0  0  0  0  0  0  0  0
    3.0083    1.8463    0.0000 C   0  0  0  0  0  0  0  0  0  0  0  0
    1.8510   -2.5986    0.0000 C   0  0  0  0  0  0  0  0  0  0  0  0
    1.9979    2.8568    0.0000 C   0  0  0  0  0  0  0  0  0  0  0  0
    2.8614   -1.5882    0.0000 C   0  0  0  0  0  0  0  0  0  0  0  0
   -2.6198   -1.8795    0.0000 C   0  0  0  0  0  0  0  0  0  0  0  0
   -1.6687    2.7975    0.0000 C   0  0  0  0  0  0  0  0  0  0  0  0
   -1.6094   -2.8899    0.0000 C   0  0  0  0  0  0  0  0  0  0  0  0
   -2.6791    1.7871    0.0000 C   0  0  0  0  0  0  0  0  0  0  0  0
    2.6522   -0.3964    0.0000 C   0  0  0  0  0  0  0  0  0  0  0  0
    2.6590    0.4285    0.0000 C   0  0  0  0  0  0  0  0  0  0  0  0
    0.6393   -2.4814    0.0000 C   0  0  0  0  0  0  0  0  0  0  0  0
    0.5741    2.4414    0.0000 C   0  0  0  0  0  0  0  0  0  0  0  0
   -0.1856   -2.4746    0.0000 C   0  0  0  0  0  0  0  0  0  0  0  0
   -0.2508    2.4482    0.0000 C   0  0  0  0  0  0  0  0  0  0  0  0
   -2.2638    0.3633    0.0000 C   0  0  0  0  0  0  0  0  0  0  0  0
   -2.2706   -0.4616    0.0000 C   0  0  0  0  0  0  0  0  0  0  0  0
    2.5812    3.4402    0.0000 C   0  0  0  0  0  0  0  0  0  0  0  0
    3.4447   -2.1715    0.0000 C   0  0  0  0  0  0  0  0  0  0  0  0
    3.5916    2.4298    0.0000 C   0  0  0  0  0  0  0  0  0  0  0  0
    2.4343   -3.1819    0.0000 C   0  0  0  0  0  0  0  0  0  0  0  0
   -2.1927   -3.4732    0.0000 C   0  0  0  0  0  0  0  0  0  0  0  0
   -3.2624    2.3705    0.0000 C   0  0  0  0  0  0  0  0  0  0  0  0
   -3.2031   -2.4629    0.0000 C   0  0  0  0  0  0  0  0  0  0  0  0
   -2.2521    3.3808    0.0000 C   0  0  0  0  0  0  0  0  0  0  0  0
    3.3782    3.2266    0.0000 C   0  0  0  0  0  0  0  0  0  0  0  0
    3.2311   -2.9684    0.0000 C   0  0  0  0  0  0  0  0  0  0  0  0
   -2.9896   -3.2598    0.0000 C   0  0  0  0  0  0  0  0  0  0  0  0
   -3.0490    3.1674    0.0000 C   0  0  0  0  0  0  0  0  0  0  0  0
    4.2020    4.3525    0.0000 C   0  0  0  0  0  0  0  0  0  0  0  0
    4.4567   -3.6621    0.0000 C   0  0  0  0  0  0  0  0  0  0  0  0
   -4.3699   -4.0565    0.0000 C   0  0  0  0  0  0  0  0  0  0  0  0
   -4.4292    3.9641    0.0000 C   0  0  0  0  0  0  0  0  0  0  0  0
    5.0270    4.3525    0.0000 C   0  0  0  0  0  0  0  0  0  0  0  0
    4.5326   -4.1496    0.0000 C   0  0  0  0  0  0  0  0  0  0  0  0
   -4.5833   -4.8534    0.0000 C   0  0  0  0  0  0  0  0  0  0  0  0
   -4.6426    4.7610    0.0000 C   0  0  0  0  0  0  0  0  0  0  0  0
    5.4396    5.0670    0.0000 C   0  0  0  0  0  0  0  0  0  0  0  0
    5.3296   -4.3632    0.0000 C   0  0  0  0  0  0  0  0  0  0  0  0
   -5.3802   -5.0670    0.0000 C   0  0  0  0  0  0  0  0  0  0  0  0
   -5.4396    4.9745    0.0000 C   0  0  0  0  0  0  0  0  0  0  0  0
  1 65  1  0  0  0  0
  1 69  1  0  0  0  0
  2 66  1  0  0  0  0
  2 70  1  0  0  0  0
  3 67  1  0  0  0  0
  3 71  1  0  0  0  0
  4 68  1  0  0  0  0
  4 72  1  0  0  0  0
  5 41  1  0  0  0  0
  6 42  1  0  0  0  0
  7 43  1  0  0  0  0
  8 44  1  0  0  0  0
  9 45  1  0  0  0  0
 10 46  1  0  0  0  0
 11 47  1  0  0  0  0
 12 48  1  0  0  0  0
 13 57  1  0  0  0  0
 14 58  1  0  0  0  0
 15 59  1  0  0  0  0
 16 60  1  0  0  0  0
 17 61  1  0  0  0  0
 18 62  1  0  0  0  0
 19 63  1  0  0  0  0
 20 64  1  0  0  0  0
 21 33  1  0  0  0  0
 21 34  1  0  0  0  0
 22 36  2  0  0  0  0
 22 37  1  0  0  0  0
 23 35  2  0  0  0  0
 23 38  1  0  0  0  0
 24 39  1  0  0  0  0
 24 40  1  0  0  0  0
 25 29  1  0  0  0  0
 25 33  2  0  0  0  0
 25 35  1  0  0  0  0
 26 30  1  0  0  0  0
 26 34  2  0  0  0  0
 26 36  1  0  0  0  0
 27 31  1  0  0  0  0
 27 37  2  0  0  0  0
 27 39  1  0  0  0  0
 28 32  1  0  0  0  0
 28 38  2  0  0  0  0
 28 40  1  0  0  0  0
 29 41  2  0  0  0  0
 29 43  1  0  0  0  0
 30 42  2  0  0  0  0
 30 44  1  0  0  0  0
 31 45  2  0  0  0  0
 31 47  1  0  0  0  0
 32 46  2  0  0  0  0
 32 48  1  0  0  0  0
 33 50  1  0  0  0  0
 34 49  1  0  0  0  0
 35 52  1  0  0  0  0
 36 51  1  0  0  0  0
 37 53  1  0  0  0  0
 38 54  1  0  0  0  0
 39 56  2  0  0  0  0
 40 55  2  0  0  0  0
 41 59  1  0  0  0  0
 42 60  1  0  0  0  0
 43 57  2  0  0  0  0
 44 58  2  0  0  0  0
 45 63  1  0  0  0  0
 46 64  1  0  0  0  0
 47 61  2  0  0  0  0
 48 62  2  0  0  0  0
 49 50  2  0  0  0  0
 51 53  2  0  0  0  0
 52 54  2  0  0  0  0
 55 56  1  0  0  0  0
 57 65  1  0  0  0  0
 58 66  1  0  0  0  0
 59 65  2  0  0  0  0
 60 66  2  0  0  0  0
 61 67  1  0  0  0  0
 62 68  1  0  0  0  0
 63 67  2  0  0  0  0
 64 68  2  0  0  0  0
 69 73  1  0  0  0  0
 70 74  1  0  0  0  0
 71 75  1  0  0  0  0
 72 76  1  0  0  0  0
 73 77  1  0  0  0  0
 74 78  1  0  0  0  0
 75 79  1  0  0  0  0
 76 80  1  0  0  0  0
M  END
> <PUBCHEM_COMPOUND_ID_TYPE>
0

> <PUBCHEM_TOTAL_CHARGE>
0

> <PUBCHEM_SUBSTANCE_ID>
310947636

> <PUBCHEM_SUBSTANCE_VERSION>
1

> <PUBCHEM_EXT_DATASOURCE_NAME>
4488

> <PUBCHEM_EXT_DATASOURCE_REGID>
SCHEMBL16125802

> <PUBCHEM_SUBSTANCE_COMMENT>
InChI=1S/C56H38F16N4S4/c1-5-17-77-53-45(65)37(57)33(38(58)46(53)66)29-21-9-11-23(73-21)30(34-39(59)47(67)54(78-18-6-2)48(68)40(34)60)25-13-15-27(75-25)32(36-43(63)51(71)56(80-20-8-4)52(72)44(36)64)28-16-14-26(76-28)31(24-12-10-22(29)74-24)35-41(61)49(69)55(79-19-7-3)50(70)42(35)62/h9-16,73,76H,5-8,17-20H2,1-4H3/b29-21+,29-22+,30-23+,30-25+,31-24+,31-26+,32-27+,32-28+
InChIKey=OCLLJCLXJVZAPB-QQZXBORTSA-N

> <PUBCHEM_SUBSTANCE_SYNONYM>
SCHEMBL16125802

> <PUBCHEM_XREF_EXT_ID>
SCHEMBL16125802

> <PUBCHEM_EXT_DATASOURCE_URL>
https://www.surechembl.org/

> <PUBCHEM_EXT_SUBSTANCE_URL>
https://www.surechembl.org/chemical/SCHEMBL16125802

> <PUBCHEM_CID_ASSOCIATIONS>
117613352  1

> <PUBCHEM_COORDINATE_TYPE>
1
3

$$$$
