310937848
  -OEChem-07211613022D

 15 14  0     0  0  0  0  0  0999 V2000
   -0.7145    0.4125    0.0000 S   0  0  0  0  0  0  0  0  0  0  0  0
   -1.4290    1.6500    0.0000 F   0  0  0  0  0  0  0  0  0  0  0  0
   -2.1435    1.2375    0.0000 F   0  0  0  0  0  0  0  0  0  0  0  0
   -2.1435    0.4125    0.0000 F   0  0  0  0  0  0  0  0  0  0  0  0
    0.0000    0.0000    0.0000 O   0  0  0  0  0  0  0  0  0  0  0  0
   -0.3020    1.1270    0.0000 O   0  0  0  0  0  0  0  0  0  0  0  0
   -1.1270   -0.3020    0.0000 O   0  0  0  0  0  0  0  0  0  0  0  0
   -1.4290    0.8250    0.0000 C   0  0  0  0  0  0  0  0  0  0  0  0
    0.7145    0.4125    0.0000 C   0  0  0  0  0  0  0  0  0  0  0  0
    1.4290    0.0000    0.0000 C   0  0  0  0  0  0  0  0  0  0  0  0
    1.1270    1.1270    0.0000 H   1  0  0  0  0  0  0  0  0  0  0  0
    0.3020    1.1270    0.0000 H   1  0  0  0  0  0  0  0  0  0  0  0
    2.1435    0.4125    0.0000 H   1  0  0  0  0  0  0  0  0  0  0  0
    1.4290   -0.8250    0.0000 H   1  0  0  0  0  0  0  0  0  0  0  0
    2.1435   -0.4125    0.0000 H   1  0  0  0  0  0  0  0  0  0  0  0
  1  5  1  0  0  0  0
  1  6  2  0  0  0  0
  1  7  2  0  0  0  0
  1  8  1  0  0  0  0
  2  8  1  0  0  0  0
  3  8  1  0  0  0  0
  4  8  1  0  0  0  0
  5  9  1  0  0  0  0
  9 10  1  0  0  0  0
  9 11  1  0  0  0  0
  9 12  1  0  0  0  0
 10 13  1  0  0  0  0
 10 14  1  0  0  0  0
 10 15  1  0  0  0  0
M  ISO  5  11   2  12   2  13   2  14   2  15   2
M  END
> <PUBCHEM_COMPOUND_ID_TYPE>
0

> <PUBCHEM_TOTAL_CHARGE>
0

> <PUBCHEM_SUBSTANCE_ID>
310937848

> <PUBCHEM_SUBSTANCE_VERSION>
1

> <PUBCHEM_EXT_DATASOURCE_NAME>
4488

> <PUBCHEM_EXT_DATASOURCE_REGID>
SCHEMBL16115672

> <PUBCHEM_SUBSTANCE_COMMENT>
InChI=1S/C3H5F3O3S/c1-2-9-10(7,8)3(4,5)6/h2H2,1H3/i1D3,2D2
InChIKey=UVECLJDRPFNRRQ-ZBJDZAJPSA-N

> <PUBCHEM_SUBSTANCE_SYNONYM>
SCHEMBL16115672

> <PUBCHEM_XREF_EXT_ID>
SCHEMBL16115672

> <PUBCHEM_EXT_DATASOURCE_URL>
https://www.surechembl.org/

> <PUBCHEM_EXT_SUBSTANCE_URL>
https://www.surechembl.org/chemical/SCHEMBL16115672

> <PUBCHEM_CID_ASSOCIATIONS>
117605482  1

> <PUBCHEM_COORDINATE_TYPE>
1
3

$$$$
