310938097
  -OEChem-07211613022D

 19 21  0     0  0  0  0  0  0999 V2000
    4.1550   -1.9714    0.0000 Cl  0  0  0  0  0  0  0  0  0  0  0  0
    2.5476   -4.5190    0.0000 O   0  0  0  0  0  0  0  0  0  0  0  0
    1.3041   -4.1247    0.0000 N   0  0  0  0  0  0  0  0  0  0  0  0
    2.0623   -5.1862    0.0000 N   0  0  0  0  0  0  0  0  0  0  0  0
    1.7894   -2.5173    0.0000 N   0  0  0  0  0  0  0  0  0  0  0  0
    2.0623   -3.8821    0.0000 C   0  0  0  0  0  0  0  0  0  0  0  0
    2.3353   -3.0935    0.0000 C   0  0  0  0  0  0  0  0  0  0  0  0
    1.3041   -4.9436    0.0000 C   0  0  0  0  0  0  0  0  0  0  0  0
    2.8206   -1.5771    0.0000 C   0  0  0  0  0  0  0  0  0  0  0  0
    3.0632   -0.7886    0.0000 C   0  0  0  0  0  0  0  0  0  0  0  0
    3.3665   -2.1534    0.0000 C   0  0  0  0  0  0  0  0  0  0  0  0
    0.6369   -5.3986    0.0000 C   0  0  0  0  0  0  0  0  0  0  0  0
    3.1239   -2.9419    0.0000 C   0  0  0  0  0  0  0  0  0  0  0  0
    2.0017   -1.7287    0.0000 C   0  0  0  0  0  0  0  0  0  0  0  0
    2.9116    0.0000    0.0000 C   0  0  0  0  0  0  0  0  0  0  0  0
    3.7001   -0.2426    0.0000 C   0  0  0  0  0  0  0  0  0  0  0  0
    0.1516   -4.7313    0.0000 C   0  0  0  0  0  0  0  0  0  0  0  0
    0.0000   -5.8838    0.0000 C   0  0  0  0  0  0  0  0  0  0  0  0
    1.1222   -6.0658    0.0000 C   0  0  0  0  0  0  0  0  0  0  0  0
  1 11  1  0  0  0  0
  2  4  1  0  0  0  0
  2  6  1  0  0  0  0
  3  6  2  0  0  0  0
  3  8  1  0  0  0  0
  4  8  2  0  0  0  0
  5  7  1  0  0  0  0
  5 14  2  0  0  0  0
  6  7  1  0  0  0  0
  7 13  2  0  0  0  0
  8 12  1  0  0  0  0
  9 10  1  0  0  0  0
  9 11  2  0  0  0  0
  9 14  1  0  0  0  0
 10 15  1  0  0  0  0
 10 16  1  0  0  0  0
 11 13  1  0  0  0  0
 12 17  1  0  0  0  0
 12 18  1  0  0  0  0
 12 19  1  0  0  0  0
 15 16  1  0  0  0  0
M  END
> <PUBCHEM_COMPOUND_ID_TYPE>
0

> <PUBCHEM_TOTAL_CHARGE>
0

> <PUBCHEM_SUBSTANCE_ID>
310938097

> <PUBCHEM_SUBSTANCE_VERSION>
1

> <PUBCHEM_EXT_DATASOURCE_NAME>
4488

> <PUBCHEM_EXT_DATASOURCE_REGID>
SCHEMBL16115943

> <PUBCHEM_SUBSTANCE_COMMENT>
InChI=1S/C14H16ClN3O/c1-14(2,3)13-17-12(19-18-13)11-6-10(15)9(7-16-11)8-4-5-8/h6-8H,4-5H2,1-3H3
InChIKey=WENRSORDRBYFSY-UHFFFAOYSA-N

> <PUBCHEM_SUBSTANCE_SYNONYM>
SCHEMBL16115943

> <PUBCHEM_XREF_EXT_ID>
SCHEMBL16115943

> <PUBCHEM_EXT_DATASOURCE_URL>
https://www.surechembl.org/

> <PUBCHEM_EXT_SUBSTANCE_URL>
https://www.surechembl.org/chemical/SCHEMBL16115943

> <PUBCHEM_CID_ASSOCIATIONS>
117605659  1

> <PUBCHEM_COORDINATE_TYPE>
1
3

$$$$
