310941089
  -OEChem-07211613022D

 42 45  0     1  0  0  0  0  0999 V2000
    5.1808    0.9850    0.0000 O   0  0  0  0  0  0  0  0  0  0  0  0
    4.0528   -0.9700    0.0000 O   0  0  0  0  0  0  0  0  0  0  0  0
    1.6918    0.9700    0.0000 O   0  0  0  0  0  0  0  0  0  0  0  0
   -0.4587   -1.0903    0.0000 O   0  0  0  0  0  0  0  0  0  0  0  0
   -2.6092    0.9700    0.0000 O   0  0  0  0  0  0  0  0  0  0  0  0
    3.8424   -2.7445    0.0000 O   0  0  0  0  0  0  0  0  0  0  0  0
   -1.9024    1.3760    0.0000 O   0  0  0  0  0  0  0  0  0  0  0  0
   -5.4815   -1.5114    0.0000 O   0  0  0  0  0  0  0  0  0  0  0  0
    2.4136   -0.2632    0.0000 N   0  0  0  0  0  0  0  0  0  0  0  0
    0.2632    0.1429    0.0000 N   0  0  0  0  0  0  0  0  0  0  0  0
   -1.8873   -0.2632    0.0000 N   0  0  0  0  0  0  0  0  0  0  0  0
    4.7597    0.3233    0.0000 C   0  0  3  0  0  0  0  0  0  0  0  0
    4.0528   -0.1128    0.0000 C   0  0  0  0  0  0  0  0  0  0  0  0
    4.3837    0.9850    0.0000 C   0  0  0  0  0  0  0  0  0  0  0  0
    3.3310    0.2932    0.0000 C   0  0  3  0  0  0  0  0  0  0  0  0
    5.4815   -0.1128    0.0000 C   0  0  0  0  0  0  0  0  0  0  0  0
    3.3461    1.3610    0.0000 C   0  0  0  0  0  0  0  0  0  0  0  0
    1.6768    0.1429    0.0000 C   0  0  0  0  0  0  0  0  0  0  0  0
    1.0001   -0.2331    0.0000 C   0  0  3  0  0  0  0  0  0  0  0  0
    2.6092    1.7821    0.0000 C   0  0  0  0  0  0  0  0  0  0  0  0
    0.9700   -1.0903    0.0000 C   0  0  0  0  0  0  0  0  0  0  0  0
   -0.4437   -0.2181    0.0000 C   0  0  0  0  0  0  0  0  0  0  0  0
    1.7069   -1.4662    0.0000 C   0  0  0  0  0  0  0  0  0  0  0  0
   -1.1805    0.1579    0.0000 C   0  0  3  0  0  0  0  0  0  0  0  0
    2.5340    2.5942    0.0000 C   0  0  0  0  0  0  0  0  0  0  0  0
    1.8723    1.4512    0.0000 C   0  0  0  0  0  0  0  0  0  0  0  0
   -2.5942    0.1579    0.0000 C   0  0  0  0  0  0  0  0  0  0  0  0
   -3.3159   -0.2481    0.0000 C   0  0  0  0  0  0  0  0  0  0  0  0
    1.7370    2.7445    0.0000 C   0  0  0  0  0  0  0  0  0  0  0  0
    1.3309    2.0527    0.0000 C   0  0  0  0  0  0  0  0  0  0  0  0
    1.7069   -2.3084    0.0000 C   0  0  0  0  0  0  0  0  0  0  0  0
    2.4136   -1.0903    0.0000 C   0  0  0  0  0  0  0  0  0  0  0  0
   -1.1504    0.9700    0.0000 C   0  0  0  0  0  0  0  0  0  0  0  0
    3.1355   -2.2934    0.0000 C   0  0  0  0  0  0  0  0  0  0  0  0
    2.4287   -2.7144    0.0000 C   0  0  0  0  0  0  0  0  0  0  0  0
    3.1355   -1.4963    0.0000 C   0  0  0  0  0  0  0  0  0  0  0  0
   -4.0528    0.1579    0.0000 C   0  0  0  0  0  0  0  0  0  0  0  0
   -3.3159   -1.0602    0.0000 C   0  0  0  0  0  0  0  0  0  0  0  0
   -4.7446   -1.0602    0.0000 C   0  0  0  0  0  0  0  0  0  0  0  0
   -4.7446   -0.2481    0.0000 C   0  0  0  0  0  0  0  0  0  0  0  0
   -4.0378   -1.4662    0.0000 C   0  0  0  0  0  0  0  0  0  0  0  0
    4.5792   -2.3084    0.0000 C   0  0  0  0  0  0  0  0  0  0  0  0
  1 12  1  0  0  0  0
  1 14  1  0  0  0  0
  2 13  2  0  0  0  0
  3 18  2  0  0  0  0
  4 22  2  0  0  0  0
  5 27  2  0  0  0  0
  6 34  1  0  0  0  0
  6 42  1  0  0  0  0
  7 33  1  0  0  0  0
 39  8  1  6  0  0  0
 15  9  1  1  0  0  0
  9 18  1  0  0  0  0
 19 10  1  6  0  0  0
 10 22  1  0  0  0  0
 24 11  1  6  0  0  0
 11 27  1  0  0  0  0
 12 13  1  1  0  0  0
 12 14  1  0  0  0  0
 12 16  1  6  0  0  0
 13 15  1  0  0  0  0
 15 17  1  0  0  0  0
 17 20  1  0  0  0  0
 18 19  1  0  0  0  0
 19 21  1  0  0  0  0
 20 25  2  0  0  0  0
 20 26  1  0  0  0  0
 21 23  1  0  0  0  0
 22 24  1  0  0  0  0
 23 31  2  0  0  0  0
 23 32  1  0  0  0  0
 24 33  1  0  0  0  0
 25 29  1  0  0  0  0
 26 30  1  0  0  0  0
 28 27  1  1  0  0  0
 28 37  1  0  0  0  0
 28 38  1  0  0  0  0
 29 30  1  0  0  0  0
 31 35  1  0  0  0  0
 32 36  2  0  0  0  0
 34 35  2  0  0  0  0
 34 36  1  0  0  0  0
 37 40  1  0  0  0  0
 38 41  1  0  0  0  0
 39 40  1  0  0  0  0
 39 41  1  0  0  0  0
M  END
> <PUBCHEM_COMPOUND_ID_TYPE>
0

> <PUBCHEM_TOTAL_CHARGE>
0

> <PUBCHEM_SUBSTANCE_ID>
310941089

> <PUBCHEM_SUBSTANCE_VERSION>
1

> <PUBCHEM_EXT_DATASOURCE_NAME>
4488

> <PUBCHEM_EXT_DATASOURCE_REGID>
SCHEMBL16119049

> <PUBCHEM_SUBSTANCE_COMMENT>
InChI=1S/C31H43N3O8/c1-31(18-42-31)27(37)24(15-19-5-3-4-6-19)32-29(39)25(16-20-7-13-23(41-2)14-8-20)33-30(40)26(17-35)34-28(38)21-9-11-22(36)12-10-21/h5,7-8,13-14,21-22,24-26,35-36H,3-4,6,9-12,15-18H2,1-2H3,(H,32,39)(H,33,40)(H,34,38)/t21-,22-,24-,25-,26+,31+/m0/s1
InChIKey=MMFJTZNAEGNENV-KUJVKHHYSA-N

> <PUBCHEM_SUBSTANCE_SYNONYM>
SCHEMBL16119049

> <PUBCHEM_XREF_EXT_ID>
SCHEMBL16119049

> <PUBCHEM_EXT_DATASOURCE_URL>
https://www.surechembl.org/

> <PUBCHEM_EXT_SUBSTANCE_URL>
https://www.surechembl.org/chemical/SCHEMBL16119049

> <PUBCHEM_CID_ASSOCIATIONS>
117607974  1

> <PUBCHEM_COORDINATE_TYPE>
1
3

> <PUBCHEM_BONDANNOTATIONS>
19  10  6
24  11  6
12  13  5
12  16  6
28  27  5
39  8  6
15  9  5

$$$$
