310948840
  -OEChem-07211613022D

 32 35  0     0  0  0  0  0  0999 V2000
   -1.3512   -1.4509    0.0000 F   0  0  0  0  0  0  0  0  0  0  0  0
   -2.7959    1.0399    0.0000 F   0  0  0  0  0  0  0  0  0  0  0  0
   -2.8083   -2.2852    0.0000 O   0  0  0  0  0  0  0  0  0  0  0  0
   -4.2404    0.2055    0.0000 O   0  0  0  0  0  0  0  0  0  0  0  0
    0.0934    0.2055    0.0000 N   0  0  0  0  0  0  0  0  0  0  0  0
   -1.3512    0.2055    0.0000 N   0  0  0  0  0  0  0  0  0  0  0  0
    1.5256    0.2055    0.0000 N   0  0  0  0  0  0  0  0  0  0  0  0
    1.5256   -1.4509    0.0000 N   0  0  0  0  0  0  0  0  0  0  0  0
    4.2404    0.6289    0.0000 N   0  0  0  0  0  0  0  0  0  0  0  0
    3.7423    1.3014    0.0000 N   0  0  0  0  0  0  0  0  0  0  0  0
    0.8033    2.2852    0.0000 N   0  0  0  0  0  0  0  0  0  0  0  0
    0.8157   -0.1930    0.0000 C   0  0  0  0  0  0  0  0  0  0  0  0
   -0.6413   -0.2055    0.0000 C   0  0  0  0  0  0  0  0  0  0  0  0
   -2.0735   -0.1930    0.0000 C   0  0  0  0  0  0  0  0  0  0  0  0
    0.7908   -1.0274    0.0000 C   0  0  0  0  0  0  0  0  0  0  0  0
   -2.0860   -1.0274    0.0000 C   0  0  0  0  0  0  0  0  0  0  0  0
   -2.7959    0.2055    0.0000 C   0  0  0  0  0  0  0  0  0  0  0  0
    2.2478   -0.1930    0.0000 C   0  0  0  0  0  0  0  0  0  0  0  0
   -2.7834   -1.4384    0.0000 C   0  0  0  0  0  0  0  0  0  0  0  0
   -3.5181   -0.2055    0.0000 C   0  0  0  0  0  0  0  0  0  0  0  0
   -0.6413   -1.0274    0.0000 C   0  0  0  0  0  0  0  0  0  0  0  0
    0.0934   -1.4509    0.0000 C   0  0  0  0  0  0  0  0  0  0  0  0
   -3.5057   -1.0274    0.0000 C   0  0  0  0  0  0  0  0  0  0  0  0
    0.0934    1.0399    0.0000 C   0  0  0  0  0  0  0  0  0  0  0  0
    2.9453    0.2180    0.0000 C   0  0  0  0  0  0  0  0  0  0  0  0
    2.2355   -1.0399    0.0000 C   0  0  0  0  0  0  0  0  0  0  0  0
    3.7423   -0.0436    0.0000 C   0  0  0  0  0  0  0  0  0  0  0  0
    2.9702    1.0399    0.0000 C   0  0  0  0  0  0  0  0  0  0  0  0
    0.8033    1.4509    0.0000 C   0  0  0  0  0  0  0  0  0  0  0  0
   -3.4808   -2.6962    0.0000 C   0  0  0  0  0  0  0  0  0  0  0  0
   -4.2280    1.0274    0.0000 C   0  0  0  0  0  0  0  0  0  0  0  0
    1.5256    2.6962    0.0000 C   0  0  0  0  0  0  0  0  0  0  0  0
  1 16  1  0  0  0  0
  2 17  1  0  0  0  0
  3 19  1  0  0  0  0
  3 30  1  0  0  0  0
  4 20  1  0  0  0  0
  4 31  1  0  0  0  0
  5 12  1  0  0  0  0
  5 13  1  0  0  0  0
  5 24  1  0  0  0  0
  6 13  2  0  0  0  0
  6 14  1  0  0  0  0
  7 12  1  0  0  0  0
  7 18  2  0  0  0  0
  8 15  1  0  0  0  0
  8 26  2  0  0  0  0
  9 10  1  0  0  0  0
  9 27  2  0  0  0  0
 10 28  1  0  0  0  0
 11 29  1  0  0  0  0
 11 32  1  0  0  0  0
 12 15  2  0  0  0  0
 13 21  1  0  0  0  0
 14 16  1  0  0  0  0
 14 17  2  0  0  0  0
 15 22  1  0  0  0  0
 16 19  2  0  0  0  0
 17 20  1  0  0  0  0
 18 25  1  0  0  0  0
 18 26  1  0  0  0  0
 19 23  1  0  0  0  0
 20 23  2  0  0  0  0
 21 22  2  0  0  0  0
 24 29  1  0  0  0  0
 25 27  1  0  0  0  0
 25 28  2  0  0  0  0
M  END
> <PUBCHEM_COMPOUND_ID_TYPE>
0

> <PUBCHEM_TOTAL_CHARGE>
0

> <PUBCHEM_SUBSTANCE_ID>
310948840

> <PUBCHEM_SUBSTANCE_VERSION>
1

> <PUBCHEM_EXT_DATASOURCE_NAME>
4488

> <PUBCHEM_EXT_DATASOURCE_REGID>
SCHEMBL16127024

> <PUBCHEM_SUBSTANCE_COMMENT>
InChI=1S/C21H21F2N7O2/c1-24-6-7-30-17(29-20-18(22)15(31-2)8-16(32-3)19(20)23)5-4-13-21(30)28-14(11-25-13)12-9-26-27-10-12/h4-5,8-11,24H,6-7H2,1-3H3,(H,26,27)/b29-17+
InChIKey=IAQOEBVKRPFDKM-STBIYBPSSA-N

> <PUBCHEM_SUBSTANCE_SYNONYM>
SCHEMBL16127024

> <PUBCHEM_XREF_EXT_ID>
SCHEMBL16127024

> <PUBCHEM_EXT_DATASOURCE_URL>
https://www.surechembl.org/

> <PUBCHEM_EXT_SUBSTANCE_URL>
https://www.surechembl.org/chemical/SCHEMBL16127024

> <PUBCHEM_CID_ASSOCIATIONS>
117614377  1

> <PUBCHEM_COORDINATE_TYPE>
1
3

$$$$
