310948687
  -OEChem-07211613022D

 41 43  0     1  0  0  0  0  0999 V2000
   -2.5366    1.3522    0.0000 O   0  0  0  0  0  0  0  0  0  0  0  0
   -2.5366   -1.1425    0.0000 O   0  0  0  0  0  0  0  0  0  0  0  0
   -3.9831   -0.3040    0.0000 O   0  0  0  0  0  0  0  0  0  0  0  0
   -1.0901   -0.3040    0.0000 O   0  0  0  0  0  0  0  0  0  0  0  0
   -1.0272    1.3102    0.0000 O   0  0  0  0  0  0  0  0  0  0  0  0
    4.0459   -0.1153    0.0000 O   0  0  0  0  0  0  0  0  0  0  0  0
    3.2702    2.7357    0.0000 O   0  0  0  0  0  0  0  0  0  0  0  0
   -4.7167    0.9539    0.0000 O   0  0  0  0  0  0  0  0  0  0  0  0
    1.1530    0.8909    0.0000 O   0  0  0  0  0  0  0  0  0  0  0  0
   -3.9202   -1.1844    0.0000 O   0  0  0  0  0  0  0  0  0  0  0  0
   -4.6748    0.8909    0.0000 O   0  0  0  0  0  0  0  0  0  0  0  0
   -5.4086    2.1488    0.0000 O   0  0  0  0  0  0  0  0  0  0  0  0
    3.3961    1.2473    0.0000 N   0  0  0  0  0  0  0  0  0  0  0  0
   -2.5366   -0.2830    0.0000 C   0  0  3  0  0  0  0  0  0  0  0  0
   -3.2493    0.1153    0.0000 C   0  0  3  0  0  0  0  0  0  0  0  0
   -1.8238    0.1362    0.0000 C   0  0  3  0  0  0  0  0  0  0  0  0
   -3.2493    0.9749    0.0000 C   0  0  3  0  0  0  0  0  0  0  0  0
   -1.8028    0.9539    0.0000 C   0  0  3  0  0  0  0  0  0  0  0  0
    4.5071    2.0019    0.0000 C   0  0  0  0  0  0  0  0  0  0  0  0
    4.7587    1.2054    0.0000 C   0  0  0  0  0  0  0  0  0  0  0  0
    4.0459    0.7652    0.0000 C   0  0  0  0  0  0  0  0  0  0  0  0
    3.6896    2.0440    0.0000 C   0  0  0  0  0  0  0  0  0  0  0  0
   -3.9831    1.3731    0.0000 C   0  0  0  0  0  0  0  0  0  0  0  0
    5.1151    2.5680    0.0000 C   0  0  0  0  0  0  0  0  0  0  0  0
    5.5553    0.9958    0.0000 C   0  0  0  0  0  0  0  0  0  0  0  0
    2.5995    0.9120    0.0000 C   0  0  0  0  0  0  0  0  0  0  0  0
   -3.2493   -1.5617    0.0000 C   0  0  0  0  0  0  0  0  0  0  0  0
   -4.6958    0.1153    0.0000 C   0  0  0  0  0  0  0  0  0  0  0  0
    5.9116    2.3584    0.0000 C   0  0  0  0  0  0  0  0  0  0  0  0
    6.1214    1.5617    0.0000 C   0  0  0  0  0  0  0  0  0  0  0  0
   -1.0901   -1.1216    0.0000 C   0  0  0  0  0  0  0  0  0  0  0  0
   -0.2725    0.9120    0.0000 C   0  0  0  0  0  0  0  0  0  0  0  0
    1.8447    1.3102    0.0000 C   0  0  0  0  0  0  0  0  0  0  0  0
    0.3983    1.3102    0.0000 C   0  0  0  0  0  0  0  0  0  0  0  0
   -5.4295    1.3731    0.0000 C   0  0  0  0  0  0  0  0  0  0  0  0
   -3.2283   -2.3794    0.0000 C   0  0  0  0  0  0  0  0  0  0  0  0
   -5.3876   -0.3040    0.0000 C   0  0  0  0  0  0  0  0  0  0  0  0
   -1.8238   -1.5198    0.0000 C   0  0  0  0  0  0  0  0  0  0  0  0
   -1.8238   -2.3584    0.0000 C   0  0  0  0  0  0  0  0  0  0  0  0
   -6.1214    0.9539    0.0000 C   0  0  0  0  0  0  0  0  0  0  0  0
   -2.5575   -2.7357    0.0000 C   0  0  0  0  0  0  0  0  0  0  0  0
  1 17  1  0  0  0  0
  1 18  1  0  0  0  0
 14  2  1  1  0  0  0
  2 27  1  0  0  0  0
 15  3  1  6  0  0  0
  3 28  1  0  0  0  0
 16  4  1  1  0  0  0
  4 31  1  0  0  0  0
 18  5  1  6  0  0  0
  5 32  1  0  0  0  0
  6 21  2  0  0  0  0
  7 22  2  0  0  0  0
  8 23  1  0  0  0  0
  8 35  1  0  0  0  0
  9 33  1  0  0  0  0
  9 34  1  0  0  0  0
 10 27  2  0  0  0  0
 11 28  2  0  0  0  0
 12 35  2  0  0  0  0
 13 21  1  0  0  0  0
 13 22  1  0  0  0  0
 13 26  1  0  0  0  0
 14 15  1  0  0  0  0
 14 16  1  0  0  0  0
 15 17  1  0  0  0  0
 16 18  1  0  0  0  0
 17 23  1  1  0  0  0
 19 20  1  0  0  0  0
 19 22  1  0  0  0  0
 19 24  2  0  0  0  0
 20 21  1  0  0  0  0
 20 25  2  0  0  0  0
 24 29  1  0  0  0  0
 25 30  1  0  0  0  0
 26 33  1  0  0  0  0
 27 36  1  0  0  0  0
 28 37  1  0  0  0  0
 29 30  2  0  0  0  0
 31 38  1  0  0  0  0
 32 34  1  0  0  0  0
 35 40  1  0  0  0  0
 38 39  1  0  0  0  0
 39 41  1  0  0  0  0
M  END
> <PUBCHEM_COMPOUND_ID_TYPE>
0

> <PUBCHEM_TOTAL_CHARGE>
0

> <PUBCHEM_SUBSTANCE_ID>
310948687

> <PUBCHEM_SUBSTANCE_VERSION>
1

> <PUBCHEM_EXT_DATASOURCE_NAME>
4488

> <PUBCHEM_EXT_DATASOURCE_REGID>
SCHEMBL16126871

> <PUBCHEM_SUBSTANCE_COMMENT>
InChI=1S/C28H37NO12/c1-5-6-12-36-25-24(40-19(4)32)23(39-18(3)31)22(16-38-17(2)30)41-28(25)37-15-14-35-13-11-29-26(33)20-9-7-8-10-21(20)27(29)34/h7-10,22-25,28H,5-6,11-16H2,1-4H3/t22-,23-,24+,25+,28+/m1/s1
InChIKey=DRBROECEICTYJN-RIWVVKKCSA-N

> <PUBCHEM_SUBSTANCE_SYNONYM>
SCHEMBL16126871

> <PUBCHEM_XREF_EXT_ID>
SCHEMBL16126871

> <PUBCHEM_EXT_DATASOURCE_URL>
https://www.surechembl.org/

> <PUBCHEM_EXT_SUBSTANCE_URL>
https://www.surechembl.org/chemical/SCHEMBL16126871

> <PUBCHEM_CID_ASSOCIATIONS>
117614228  1

> <PUBCHEM_COORDINATE_TYPE>
1
3

> <PUBCHEM_BONDANNOTATIONS>
17  23  5
14  2  5
15  3  6
16  4  5
18  5  6

$$$$
