310935145
  -OEChem-07211613022D

 50 54  0     1  0  0  0  0  0999 V2000
    4.7079    2.0625    0.0000 O   0  0  0  0  0  0  0  0  0  0  0  0
    2.7486    4.3445    0.0000 O   0  0  0  0  0  0  0  0  0  0  0  0
    5.4223   -0.0000    0.0000 O   0  0  0  0  0  0  0  0  0  0  0  0
    6.1368    1.2375    0.0000 O   0  0  0  0  0  0  0  0  0  0  0  0
    0.0574    2.5559    0.0000 O   0  0  0  0  0  0  0  0  0  0  0  0
    2.5645    0.0000    0.0000 N   0  0  0  0  0  0  0  0  0  0  0  0
    3.2789    2.0625    0.0000 N   0  0  0  0  0  0  0  0  0  0  0  0
    1.7798   -0.2549    0.0000 N   0  0  0  0  0  0  0  0  0  0  0  0
    3.2789    1.2375    0.0000 C   0  0  0  0  0  0  0  0  0  0  0  0
    2.5645    0.8250    0.0000 C   0  0  0  0  0  0  0  0  0  0  0  0
    3.9934    0.8250    0.0000 C   0  0  0  0  0  0  0  0  0  0  0  0
    3.9934    0.0000    0.0000 C   0  0  0  0  0  0  0  0  0  0  0  0
    1.2949    0.4125    0.0000 C   0  0  0  0  0  0  0  0  0  0  0  0
    1.7798    1.0799    0.0000 C   0  0  0  0  0  0  0  0  0  0  0  0
    4.7079    1.2375    0.0000 C   0  0  3  0  0  0  0  0  0  0  0  0
    3.2789   -0.4125    0.0000 C   0  0  0  0  0  0  0  0  0  0  0  0
    0.4699    0.4125    0.0000 C   0  0  0  0  0  0  0  0  0  0  0  0
    2.5645    2.4750    0.0000 C   0  0  0  0  0  0  0  0  0  0  0  0
    3.9934    2.4750    0.0000 C   0  0  0  0  0  0  0  0  0  0  0  0
    5.4223    0.8250    0.0000 C   0  0  0  0  0  0  0  0  0  0  0  0
    3.2789    3.7125    0.0000 C   0  0  0  0  0  0  0  0  0  0  0  0
    0.0574    1.1270    0.0000 C   0  0  0  0  0  0  0  0  0  0  0  0
   -0.7676    1.1270    0.0000 C   0  0  0  0  0  0  0  0  0  0  0  0
    2.5645    3.3000    0.0000 C   0  0  0  0  0  0  0  0  0  0  0  0
    3.9934    3.3000    0.0000 C   0  0  0  0  0  0  0  0  0  0  0  0
    4.7079   -0.4125    0.0000 C   0  0  0  0  0  0  0  0  0  0  0  0
    0.0574   -0.3020    0.0000 C   0  0  0  0  0  0  0  0  0  0  0  0
    5.4223    2.4750    0.0000 C   0  0  0  0  0  0  0  0  0  0  0  0
   -1.1801    1.8414    0.0000 C   0  0  0  0  0  0  0  0  0  0  0  0
   -1.1801    0.4125    0.0000 C   0  0  0  0  0  0  0  0  0  0  0  0
   -0.7676    2.5559    0.0000 C   0  0  0  0  0  0  0  0  0  0  0  0
   -0.7676   -0.3020    0.0000 C   0  0  0  0  0  0  0  0  0  0  0  0
   -2.0051    1.8414    0.0000 C   0  0  0  0  0  0  0  0  0  0  0  0
    3.8092    4.3445    0.0000 C   0  0  0  0  0  0  0  0  0  0  0  0
   -1.1801    3.2704    0.0000 C   0  0  0  0  0  0  0  0  0  0  0  0
   -2.4176    2.5559    0.0000 C   0  0  0  0  0  0  0  0  0  0  0  0
    5.8348    1.7605    0.0000 C   0  0  0  0  0  0  0  0  0  0  0  0
    5.0098    3.1895    0.0000 C   0  0  0  0  0  0  0  0  0  0  0  0
    6.1368    2.8875    0.0000 C   0  0  0  0  0  0  0  0  0  0  0  0
    0.4699    3.2704    0.0000 C   0  0  3  0  0  0  0  0  0  0  0  0
   -2.0051    3.2704    0.0000 C   0  0  0  0  0  0  0  0  0  0  0  0
    1.9362    4.2012    0.0000 C   0  0  0  0  0  0  0  0  0  0  0  0
    0.0574    3.9849    0.0000 C   0  0  0  0  0  0  0  0  0  0  0  0
   -3.2426    2.5559    0.0000 C   0  0  0  0  0  0  0  0  0  0  0  0
    1.2949    3.2704    0.0000 C   0  0  0  0  0  0  0  0  0  0  0  0
    1.4059    4.8332    0.0000 C   0  0  0  0  0  0  0  0  0  0  0  0
    0.4699    4.6993    0.0000 C   0  0  0  0  0  0  0  0  0  0  0  0
    1.6880    5.6085    0.0000 C   0  0  0  0  0  0  0  0  0  0  0  0
    0.0574    5.4138    0.0000 C   0  0  0  0  0  0  0  0  0  0  0  0
    0.8824    2.5559    0.0000 H   0  0  0  0  0  0  0  0  0  0  0  0
  1 15  1  0  0  0  0
  1 28  1  0  0  0  0
  2 21  1  0  0  0  0
  2 42  1  0  0  0  0
  3 20  2  0  0  0  0
  4 20  1  0  0  0  0
  5 31  1  0  0  0  0
  5 40  1  0  0  0  0
  6  8  1  0  0  0  0
  6 10  1  0  0  0  0
  6 16  1  0  0  0  0
  7  9  1  0  0  0  0
  7 18  1  0  0  0  0
  7 19  1  0  0  0  0
  8 13  2  0  0  0  0
  9 10  1  0  0  0  0
  9 11  2  0  0  0  0
 10 14  2  0  0  0  0
 11 12  1  0  0  0  0
 11 15  1  0  0  0  0
 12 16  2  0  0  0  0
 12 26  1  0  0  0  0
 13 14  1  0  0  0  0
 13 17  1  0  0  0  0
 15 20  1  0  0  0  0
 17 22  1  0  0  0  0
 17 27  2  0  0  0  0
 18 24  1  0  0  0  0
 19 25  1  0  0  0  0
 21 24  1  0  0  0  0
 21 25  1  0  0  0  0
 21 34  1  0  0  0  0
 22 23  2  0  0  0  0
 23 29  1  0  0  0  0
 23 30  1  0  0  0  0
 27 32  1  0  0  0  0
 28 37  1  0  0  0  0
 28 38  1  0  0  0  0
 28 39  1  0  0  0  0
 29 31  2  0  0  0  0
 29 33  1  0  0  0  0
 30 32  2  0  0  0  0
 31 35  1  0  0  0  0
 33 36  2  0  0  0  0
 35 41  2  0  0  0  0
 36 41  1  0  0  0  0
 36 44  1  0  0  0  0
 40 43  1  0  0  0  0
 40 45  1  6  0  0  0
 40 50  1  1  0  0  0
 42 46  1  0  0  0  0
 43 47  1  0  0  0  0
 46 48  2  0  0  0  0
 47 49  2  0  0  0  0
M  END
> <PUBCHEM_COMPOUND_ID_TYPE>
0

> <PUBCHEM_TOTAL_CHARGE>
0

> <PUBCHEM_SUBSTANCE_ID>
310935145

> <PUBCHEM_SUBSTANCE_VERSION>
1

> <PUBCHEM_EXT_DATASOURCE_NAME>
4488

> <PUBCHEM_EXT_DATASOURCE_REGID>
SCHEMBL16112672

> <PUBCHEM_SUBSTANCE_COMMENT>
InChI=1S/C41H51N3O5/c1-10-13-29(5)48-35-17-16-27(3)23-32(35)30-14-12-15-31(24-30)33-25-34-37(43-20-18-41(9,19-21-43)47-22-11-2)36(28(4)26-44(34)42-33)38(39(45)46)49-40(6,7)8/h10-12,14-17,23-26,29,38H,1-2,13,18-22H2,3-9H3,(H,45,46)/t29-,38?/m0/s1
InChIKey=WMRNGALQCPZTBT-SYOBGBQASA-N

> <PUBCHEM_SUBSTANCE_SYNONYM>
SCHEMBL16112672

> <PUBCHEM_XREF_EXT_ID>
SCHEMBL16112672

> <PUBCHEM_EXT_DATASOURCE_URL>
https://www.surechembl.org/

> <PUBCHEM_EXT_SUBSTANCE_URL>
https://www.surechembl.org/chemical/SCHEMBL16112672

> <PUBCHEM_CID_ASSOCIATIONS>
117603232  1

> <PUBCHEM_COORDINATE_TYPE>
1
3

> <PUBCHEM_BONDANNOTATIONS>
40  45  6
40  50  5

$$$$
