310936656
  -OEChem-07211613022D

 38 41  0     1  0  0  0  0  0999 V2000
    4.4530   -7.0683    0.0000 F   0  0  0  0  0  0  0  0  0  0  0  0
    5.8667   -6.9269    0.0000 F   0  0  0  0  0  0  0  0  0  0  0  0
    4.3470   -6.2554    0.0000 F   0  0  0  0  0  0  0  0  0  0  0  0
    8.1638   -5.2658    0.0000 F   0  0  0  0  0  0  0  0  0  0  0  0
    7.3156   -4.0996    0.0000 F   0  0  0  0  0  0  0  0  0  0  0  0
    7.4924   -5.7253    0.0000 F   0  0  0  0  0  0  0  0  0  0  0  0
    3.8168    0.0000    0.0000 F   0  0  0  0  0  0  0  0  0  0  0  0
    5.0538   -2.9687    0.0000 O   0  0  0  0  0  0  0  0  0  0  0  0
    4.3823   -1.6610    0.0000 O   0  0  0  0  0  0  0  0  0  0  0  0
    1.8731   -4.6297    0.0000 O   0  0  0  0  0  0  0  0  0  0  0  0
    3.7109   -2.9687    0.0000 N   0  0  0  0  0  0  0  0  0  0  0  0
    1.3783   -2.1558    0.0000 N   0  0  3  0  0  0  0  0  0  0  0  0
    1.8378   -0.8482    0.0000 N   0  0  0  0  0  0  0  0  0  0  0  0
    4.8064   -3.7462    0.0000 C   0  0  3  0  0  0  0  0  0  0  0  0
    5.3012   -4.4177    0.0000 C   0  0  0  0  0  0  0  0  0  0  0  0
    3.9582   -3.7462    0.0000 C   0  0  3  0  0  0  0  0  0  0  0  0
    4.3823   -2.4739    0.0000 C   0  0  0  0  0  0  0  0  0  0  0  0
    5.4426   -5.8313    0.0000 C   0  0  0  0  0  0  0  0  0  0  0  0
    6.6088   -4.9831    0.0000 C   0  0  0  0  0  0  0  0  0  0  0  0
    6.1140   -4.3470    0.0000 C   0  0  0  0  0  0  0  0  0  0  0  0
    4.9478   -5.1598    0.0000 C   0  0  0  0  0  0  0  0  0  0  0  0
    2.9333   -2.7213    0.0000 C   0  0  0  0  0  0  0  0  0  0  0  0
    2.7566   -1.9084    0.0000 C   0  0  0  0  0  0  0  0  0  0  0  0
    6.2554   -5.7607    0.0000 C   0  0  0  0  0  0  0  0  0  0  0  0
    5.0891   -6.5735    0.0000 C   0  0  0  0  0  0  0  0  0  0  0  0
    7.4216   -4.9124    0.0000 C   0  0  0  0  0  0  0  0  0  0  0  0
    1.9791   -1.6257    0.0000 C   0  0  0  0  0  0  0  0  0  0  0  0
    3.4988   -4.4177    0.0000 C   0  0  0  0  0  0  0  0  0  0  0  0
    3.3574   -1.3429    0.0000 C   0  0  0  0  0  0  0  0  0  0  0  0
    1.5550   -2.9687    0.0000 C   0  0  0  0  0  0  0  0  0  0  0  0
    3.2160   -0.5301    0.0000 C   0  0  0  0  0  0  0  0  0  0  0  0
    2.4386   -0.2474    0.0000 C   0  0  0  0  0  0  0  0  0  0  0  0
    0.6008   -1.9084    0.0000 C   0  0  0  0  0  0  0  0  0  0  0  0
    0.9542   -3.5341    0.0000 C   0  0  0  0  0  0  0  0  0  0  0  0
    2.3325   -3.2514    0.0000 C   0  0  0  0  0  0  0  0  0  0  0  0
    1.0956   -4.3470    0.0000 C   0  0  0  0  0  0  0  0  0  0  0  0
    2.5092   -4.0289    0.0000 C   0  0  0  0  0  0  0  0  0  0  0  0
    0.0000   -2.4386    0.0000 C   0  0  0  0  0  0  0  0  0  0  0  0
  1 25  1  0  0  0  0
  2 25  1  0  0  0  0
  3 25  1  0  0  0  0
  4 26  1  0  0  0  0
  5 26  1  0  0  0  0
  6 26  1  0  0  0  0
  7 31  1  0  0  0  0
 14  8  1  6  0  0  0
  8 17  1  0  0  0  0
  9 17  2  0  0  0  0
 10 36  1  0  0  0  0
 10 37  1  0  0  0  0
 11 16  1  0  0  0  0
 11 17  1  0  0  0  0
 11 22  1  0  0  0  0
 12 27  1  0  0  0  0
 12 30  1  0  0  0  0
 12 33  1  0  0  0  0
 13 27  1  0  0  0  0
 13 32  2  0  0  0  0
 14 15  1  0  0  0  0
 14 16  1  0  0  0  0
 15 20  2  0  0  0  0
 15 21  1  0  0  0  0
 16 28  1  6  0  0  0
 18 21  2  0  0  0  0
 18 24  1  0  0  0  0
 18 25  1  0  0  0  0
 19 20  1  0  0  0  0
 19 24  2  0  0  0  0
 19 26  1  0  0  0  0
 22 23  1  0  0  0  0
 23 27  2  0  0  0  0
 23 29  1  0  0  0  0
 29 31  2  0  0  0  0
 30 34  1  0  0  0  0
 30 35  1  0  0  0  0
 31 32  1  0  0  0  0
 33 38  1  0  0  0  0
 34 36  1  0  0  0  0
 35 37  1  0  0  0  0
M  END
> <PUBCHEM_COMPOUND_ID_TYPE>
0

> <PUBCHEM_TOTAL_CHARGE>
0

> <PUBCHEM_SUBSTANCE_ID>
310936656

> <PUBCHEM_SUBSTANCE_VERSION>
1

> <PUBCHEM_EXT_DATASOURCE_NAME>
4488

> <PUBCHEM_EXT_DATASOURCE_REGID>
SCHEMBL16114325

> <PUBCHEM_SUBSTANCE_COMMENT>
InChI=1S/C25H26F7N3O3/c1-3-34(20-4-6-37-7-5-20)22-16(10-19(26)12-33-22)13-35-14(2)21(38-23(35)36)15-8-17(24(27,28)29)11-18(9-15)25(30,31)32/h8-12,14,20-21H,3-7,13H2,1-2H3/t14-,21-/m0/s1
InChIKey=WOZDBZZWIJXYRZ-QKKBWIMNSA-N

> <PUBCHEM_SUBSTANCE_SYNONYM>
SCHEMBL16114325

> <PUBCHEM_XREF_EXT_ID>
SCHEMBL16114325

> <PUBCHEM_EXT_DATASOURCE_URL>
https://www.surechembl.org/

> <PUBCHEM_EXT_SUBSTANCE_URL>
https://www.surechembl.org/chemical/SCHEMBL16114325

> <PUBCHEM_CID_ASSOCIATIONS>
117604567  1

> <PUBCHEM_COORDINATE_TYPE>
1
3

> <PUBCHEM_BONDANNOTATIONS>
16  28  6
14  8  6

$$$$
