310946096
  -OEChem-07211613022D

 42 45  0     1  0  0  0  0  0999 V2000
    0.1105   -3.0809    0.0000 S   0  0  0  0  0  0  0  0  0  0  0  0
   -0.3020   -2.3664    0.0000 O   0  0  0  0  0  0  0  0  0  0  0  0
    0.5230   -3.7953    0.0000 O   0  0  0  0  0  0  0  0  0  0  0  0
    2.2539   -1.8434    0.0000 O   0  0  0  0  0  0  0  0  0  0  0  0
   -1.3185    1.8691    0.0000 O   0  0  0  0  0  0  0  0  0  0  0  0
   -2.0329    0.6316    0.0000 O   0  0  0  0  0  0  0  0  0  0  0  0
    0.8249   -2.6684    0.0000 N   0  0  0  0  0  0  0  0  0  0  0  0
   -4.1764   -4.7309    0.0000 N   0  0  0  0  0  0  0  0  0  0  0  0
    1.5394   -0.6059    0.0000 N   0  0  0  0  0  0  0  0  0  0  0  0
   -0.6040    0.6316    0.0000 N   0  0  0  0  0  0  0  0  0  0  0  0
   -0.6040   -3.4934    0.0000 C   0  0  0  0  0  0  0  0  0  0  0  0
   -2.0329   -3.4934    0.0000 C   0  0  0  0  0  0  0  0  0  0  0  0
   -2.0329   -4.3184    0.0000 C   0  0  0  0  0  0  0  0  0  0  0  0
   -1.3185   -3.0809    0.0000 C   0  0  0  0  0  0  0  0  0  0  0  0
   -0.6040   -4.3184    0.0000 C   0  0  0  0  0  0  0  0  0  0  0  0
   -1.3185   -4.7309    0.0000 C   0  0  0  0  0  0  0  0  0  0  0  0
   -2.7474   -4.7309    0.0000 C   0  0  0  0  0  0  0  0  0  0  0  0
   -3.4619   -4.3184    0.0000 C   0  0  0  0  0  0  0  0  0  0  0  0
   -2.7474   -3.0809    0.0000 C   0  0  0  0  0  0  0  0  0  0  0  0
    0.8249   -1.8434    0.0000 C   0  0  3  0  0  0  0  0  0  0  0  0
   -3.4619   -3.4934    0.0000 C   0  0  0  0  0  0  0  0  0  0  0  0
    1.5394   -1.4309    0.0000 C   0  0  0  0  0  0  0  0  0  0  0  0
    0.1105   -1.4309    0.0000 C   0  0  0  0  0  0  0  0  0  0  0  0
    0.1105   -0.6059    0.0000 C   0  0  0  0  0  0  0  0  0  0  0  0
   -4.8908   -4.3184    0.0000 C   0  0  0  0  0  0  0  0  0  0  0  0
   -4.1764   -5.5559    0.0000 C   0  0  0  0  0  0  0  0  0  0  0  0
    0.8249   -0.1934    0.0000 C   0  0  0  0  0  0  0  0  0  0  0  0
    0.8249    0.6316    0.0000 C   0  0  0  0  0  0  0  0  0  0  0  0
   -0.6040   -0.1934    0.0000 C   0  0  0  0  0  0  0  0  0  0  0  0
    1.5394    1.0441    0.0000 C   0  0  0  0  0  0  0  0  0  0  0  0
    0.1105    1.0441    0.0000 C   0  0  0  0  0  0  0  0  0  0  0  0
   -1.3185    1.0441    0.0000 C   0  0  0  0  0  0  0  0  0  0  0  0
    1.5394    1.8691    0.0000 C   0  0  0  0  0  0  0  0  0  0  0  0
    0.1105    1.8691    0.0000 C   0  0  0  0  0  0  0  0  0  0  0  0
   -2.0329    3.1066    0.0000 C   0  0  0  0  0  0  0  0  0  0  0  0
    0.8249    2.2816    0.0000 C   0  0  0  0  0  0  0  0  0  0  0  0
   -2.0329    2.2816    0.0000 C   0  0  0  0  0  0  0  0  0  0  0  0
   -1.3185    3.5191    0.0000 C   0  0  0  0  0  0  0  0  0  0  0  0
   -2.7474    3.5191    0.0000 C   0  0  0  0  0  0  0  0  0  0  0  0
   -1.3185    4.3441    0.0000 C   0  0  0  0  0  0  0  0  0  0  0  0
   -2.7474    4.3441    0.0000 C   0  0  0  0  0  0  0  0  0  0  0  0
   -2.0329    4.7566    0.0000 C   0  0  0  0  0  0  0  0  0  0  0  0
  1  2  2  0  0  0  0
  1  3  2  0  0  0  0
  1  7  1  0  0  0  0
  1 11  1  0  0  0  0
  4 22  2  0  0  0  0
  5 32  1  0  0  0  0
  5 37  1  0  0  0  0
  6 32  2  0  0  0  0
 20  7  1  1  0  0  0
  8 18  1  0  0  0  0
  8 25  1  0  0  0  0
  8 26  1  0  0  0  0
  9 22  1  0  0  0  0
  9 27  1  0  0  0  0
 10 29  1  0  0  0  0
 10 32  1  0  0  0  0
 11 14  2  0  0  0  0
 11 15  1  0  0  0  0
 12 13  2  0  0  0  0
 12 14  1  0  0  0  0
 12 19  1  0  0  0  0
 13 16  1  0  0  0  0
 13 17  1  0  0  0  0
 15 16  2  0  0  0  0
 17 18  2  0  0  0  0
 18 21  1  0  0  0  0
 19 21  2  0  0  0  0
 20 22  1  0  0  0  0
 20 23  1  0  0  0  0
 23 24  1  0  0  0  0
 24 29  1  0  0  0  0
 27 28  1  0  0  0  0
 28 30  2  0  0  0  0
 28 31  1  0  0  0  0
 30 33  1  0  0  0  0
 31 34  2  0  0  0  0
 33 36  2  0  0  0  0
 34 36  1  0  0  0  0
 35 37  1  0  0  0  0
 35 38  2  0  0  0  0
 35 39  1  0  0  0  0
 38 40  1  0  0  0  0
 39 41  2  0  0  0  0
 40 42  2  0  0  0  0
 41 42  1  0  0  0  0
M  END
> <PUBCHEM_COMPOUND_ID_TYPE>
0

> <PUBCHEM_TOTAL_CHARGE>
0

> <PUBCHEM_SUBSTANCE_ID>
310946096

> <PUBCHEM_SUBSTANCE_VERSION>
1

> <PUBCHEM_EXT_DATASOURCE_NAME>
4488

> <PUBCHEM_EXT_DATASOURCE_REGID>
SCHEMBL16124204

> <PUBCHEM_SUBSTANCE_COMMENT>
InChI=1S/C32H36N4O5S/c1-36(2)28-17-15-27-21-29(18-16-26(27)20-28)42(39,40)35-30(31(37)34-22-24-10-5-3-6-11-24)14-9-19-33-32(38)41-23-25-12-7-4-8-13-25/h3-8,10-13,15-18,20-21,30,35H,9,14,19,22-23H2,1-2H3,(H,33,38)(H,34,37)/t30-/m0/s1
InChIKey=WCPXBUVBMDBTRY-PMERELPUSA-N

> <PUBCHEM_SUBSTANCE_SYNONYM>
SCHEMBL16124204

> <PUBCHEM_XREF_EXT_ID>
SCHEMBL16124204

> <PUBCHEM_EXT_DATASOURCE_URL>
https://www.surechembl.org/

> <PUBCHEM_EXT_SUBSTANCE_URL>
https://www.surechembl.org/chemical/SCHEMBL16124204

> <PUBCHEM_CID_ASSOCIATIONS>
86664514  1

> <PUBCHEM_COORDINATE_TYPE>
1
3

> <PUBCHEM_BONDANNOTATIONS>
20  7  5

$$$$
