310944458
  -OEChem-07211613022D

 29 32  0     0  0  0  0  0  0999 V2000
    0.3851    2.5200    0.0000 F   0  0  0  0  0  0  0  0  0  0  0  0
    0.3716   -1.6147    0.0000 N   0  0  0  0  0  0  0  0  0  0  0  0
    2.5471    2.1011    0.0000 N   0  0  0  0  0  0  0  0  0  0  0  0
   -1.1013    0.0337    0.0000 C   0  0  0  0  0  0  0  0  0  0  0  0
   -0.3580    0.4661    0.0000 C   0  0  0  0  0  0  0  0  0  0  0  0
   -1.8309    0.4527    0.0000 C   0  0  0  0  0  0  0  0  0  0  0  0
   -1.1013   -0.7770    0.0000 C   0  0  0  0  0  0  0  0  0  0  0  0
    0.3716    0.0473    0.0000 C   0  0  0  0  0  0  0  0  0  0  0  0
   -0.3446    1.2769    0.0000 C   0  0  0  0  0  0  0  0  0  0  0  0
   -1.8174    1.2769    0.0000 C   0  0  0  0  0  0  0  0  0  0  0  0
   -0.6823   -1.4796    0.0000 C   0  0  0  0  0  0  0  0  0  0  0  0
    0.3716    1.6958    0.0000 C   0  0  0  0  0  0  0  0  0  0  0  0
    1.1013    1.2769    0.0000 C   0  0  0  0  0  0  0  0  0  0  0  0
   -2.5335    0.0203    0.0000 C   0  0  0  0  0  0  0  0  0  0  0  0
   -1.8039   -1.1958    0.0000 C   0  0  0  0  0  0  0  0  0  0  0  0
    1.0877    0.4527    0.0000 C   0  0  0  0  0  0  0  0  0  0  0  0
   -2.5335   -0.8040    0.0000 C   0  0  0  0  0  0  0  0  0  0  0  0
    0.3716   -0.7904    0.0000 C   0  0  0  0  0  0  0  0  0  0  0  0
   -1.1013    1.6687    0.0000 C   0  0  0  0  0  0  0  0  0  0  0  0
   -2.5471    1.6687    0.0000 C   0  0  0  0  0  0  0  0  0  0  0  0
    0.1554   -1.4931    0.0000 C   0  0  0  0  0  0  0  0  0  0  0  0
   -1.0877   -2.1957    0.0000 C   0  0  0  0  0  0  0  0  0  0  0  0
    1.8309    1.7093    0.0000 C   0  0  0  0  0  0  0  0  0  0  0  0
   -1.1013    2.5065    0.0000 C   0  0  0  0  0  0  0  0  0  0  0  0
   -2.5471    2.4795    0.0000 C   0  0  0  0  0  0  0  0  0  0  0  0
    0.5742   -2.1957    0.0000 C   0  0  0  0  0  0  0  0  0  0  0  0
   -0.6689   -2.9119    0.0000 C   0  0  0  0  0  0  0  0  0  0  0  0
   -1.8174    2.9119    0.0000 C   0  0  0  0  0  0  0  0  0  0  0  0
    0.1689   -2.8983    0.0000 C   0  0  0  0  0  0  0  0  0  0  0  0
  1 12  1  0  0  0  0
  2 18  3  0  0  0  0
  3 23  3  0  0  0  0
  4  5  1  0  0  0  0
  4  6  2  0  0  0  0
  4  7  1  0  0  0  0
  5  8  1  0  0  0  0
  5  9  2  0  0  0  0
  6 10  1  0  0  0  0
  6 14  1  0  0  0  0
  7 11  1  0  0  0  0
  7 15  2  0  0  0  0
  8 16  2  0  0  0  0
  8 18  1  0  0  0  0
  9 12  1  0  0  0  0
 10 19  2  0  0  0  0
 10 20  1  0  0  0  0
 11 21  1  0  0  0  0
 11 22  2  0  0  0  0
 12 13  2  0  0  0  0
 13 16  1  0  0  0  0
 13 23  1  0  0  0  0
 14 17  2  0  0  0  0
 15 17  1  0  0  0  0
 19 24  1  0  0  0  0
 20 25  2  0  0  0  0
 21 26  2  0  0  0  0
 22 27  1  0  0  0  0
 24 28  2  0  0  0  0
 25 28  1  0  0  0  0
 26 29  1  0  0  0  0
 27 29  1  0  0  0  0
M  END
> <PUBCHEM_COMPOUND_ID_TYPE>
0

> <PUBCHEM_TOTAL_CHARGE>
0

> <PUBCHEM_SUBSTANCE_ID>
310944458

> <PUBCHEM_SUBSTANCE_VERSION>
1

> <PUBCHEM_EXT_DATASOURCE_NAME>
4488

> <PUBCHEM_EXT_DATASOURCE_REGID>
SCHEMBL16122533

> <PUBCHEM_SUBSTANCE_COMMENT>
InChI=1S/C26H17FN2/c27-25-15-24(20(16-28)14-21(25)17-29)26-22(18-8-3-1-4-9-18)12-7-13-23(26)19-10-5-2-6-11-19/h1,3-5,7-15H,2,6H2
InChIKey=BBKLIFRHALAYDQ-UHFFFAOYSA-N

> <PUBCHEM_SUBSTANCE_SYNONYM>
SCHEMBL16122533

> <PUBCHEM_XREF_EXT_ID>
SCHEMBL16122533

> <PUBCHEM_EXT_DATASOURCE_URL>
https://www.surechembl.org/

> <PUBCHEM_EXT_SUBSTANCE_URL>
https://www.surechembl.org/chemical/SCHEMBL16122533

> <PUBCHEM_CID_ASSOCIATIONS>
117610712  1

> <PUBCHEM_COORDINATE_TYPE>
1
3

$$$$
