310946034
  -OEChem-07211613022D

 37 39  0     1  0  0  0  0  0999 V2000
    4.0251    0.6651    0.0000 O   0  0  0  0  0  0  0  0  0  0  0  0
    2.8889   -1.2886    0.0000 O   0  0  0  0  0  0  0  0  0  0  0  0
    0.7275    0.7760    0.0000 O   0  0  0  0  0  0  0  0  0  0  0  0
   -1.4340   -1.2886    0.0000 O   0  0  0  0  0  0  0  0  0  0  0  0
    2.8889   -2.9512    0.0000 O   0  0  0  0  0  0  0  0  0  0  0  0
   -2.8612    1.1916    0.0000 O   0  0  0  0  0  0  0  0  0  0  0  0
   -3.5817    0.7760    0.0000 O   0  0  0  0  0  0  0  0  0  0  0  0
    1.4479   -0.4572    0.0000 N   0  0  0  0  0  0  0  0  0  0  0  0
   -0.6998   -0.0415    0.0000 N   0  0  0  0  0  0  0  0  0  0  0  0
   -2.8612   -0.4572    0.0000 N   0  0  0  0  0  0  0  0  0  0  0  0
    3.6094    0.0000    0.0000 C   0  0  3  0  0  0  0  0  0  0  0  0
    2.8889   -0.4295    0.0000 C   0  0  0  0  0  0  0  0  0  0  0  0
    3.2215    0.6790    0.0000 C   0  0  0  0  0  0  0  0  0  0  0  0
    2.1546   -0.0138    0.0000 C   0  0  3  0  0  0  0  0  0  0  0  0
    4.3160   -0.4157    0.0000 C   0  0  0  0  0  0  0  0  0  0  0  0
    2.1823    1.3024    0.0000 C   0  0  0  0  0  0  0  0  0  0  0  0
    0.7275   -0.0415    0.0000 C   0  0  0  0  0  0  0  0  0  0  0  0
    0.0208   -0.4295    0.0000 C   0  0  3  0  0  0  0  0  0  0  0  0
    1.4617    1.7320    0.0000 C   0  0  0  0  0  0  0  0  0  0  0  0
    0.0069   -1.2886    0.0000 C   0  0  0  0  0  0  0  0  0  0  0  0
    0.7552   -1.6765    0.0000 C   0  0  0  0  0  0  0  0  0  0  0  0
   -1.4202   -0.4157    0.0000 C   0  0  0  0  0  0  0  0  0  0  0  0
    1.4617    2.5356    0.0000 C   0  0  0  0  0  0  0  0  0  0  0  0
    0.7413    1.3163    0.0000 C   0  0  0  0  0  0  0  0  0  0  0  0
   -2.1546   -0.0138    0.0000 C   0  0  3  0  0  0  0  0  0  0  0  0
    0.7552   -2.5079    0.0000 C   0  0  0  0  0  0  0  0  0  0  0  0
    1.4479   -1.2747    0.0000 C   0  0  0  0  0  0  0  0  0  0  0  0
    2.1685   -2.4940    0.0000 C   0  0  0  0  0  0  0  0  0  0  0  0
    0.7275    2.9512    0.0000 C   0  0  0  0  0  0  0  0  0  0  0  0
    0.0347    1.7181    0.0000 C   0  0  0  0  0  0  0  0  0  0  0  0
    1.4617   -2.9097    0.0000 C   0  0  0  0  0  0  0  0  0  0  0  0
    2.1685   -1.6765    0.0000 C   0  0  0  0  0  0  0  0  0  0  0  0
   -2.1407    0.8037    0.0000 C   0  0  0  0  0  0  0  0  0  0  0  0
    0.0347    2.5356    0.0000 C   0  0  0  0  0  0  0  0  0  0  0  0
   -3.5817   -0.0415    0.0000 C   0  0  0  0  0  0  0  0  0  0  0  0
   -4.3160   -0.4295    0.0000 C   0  0  0  0  0  0  0  0  0  0  0  0
    3.6372   -2.5217    0.0000 C   0  0  0  0  0  0  0  0  0  0  0  0
  1 11  1  0  0  0  0
  1 13  1  0  0  0  0
  2 12  2  0  0  0  0
  3 17  2  0  0  0  0
  4 22  2  0  0  0  0
  5 28  1  0  0  0  0
  5 37  1  0  0  0  0
  6 33  1  0  0  0  0
  7 35  2  0  0  0  0
 14  8  1  1  0  0  0
  8 17  1  0  0  0  0
 18  9  1  6  0  0  0
  9 22  1  0  0  0  0
 25 10  1  1  0  0  0
 10 35  1  0  0  0  0
 11 12  1  1  0  0  0
 11 13  1  0  0  0  0
 11 15  1  6  0  0  0
 12 14  1  0  0  0  0
 14 16  1  0  0  0  0
 16 19  1  0  0  0  0
 17 18  1  0  0  0  0
 18 20  1  0  0  0  0
 19 23  2  0  0  0  0
 19 24  1  0  0  0  0
 20 21  1  0  0  0  0
 21 26  2  0  0  0  0
 21 27  1  0  0  0  0
 22 25  1  0  0  0  0
 23 29  1  0  0  0  0
 24 30  2  0  0  0  0
 25 33  1  0  0  0  0
 26 31  1  0  0  0  0
 27 32  2  0  0  0  0
 28 31  2  0  0  0  0
 28 32  1  0  0  0  0
 29 34  2  0  0  0  0
 30 34  1  0  0  0  0
 35 36  1  0  0  0  0
M  END
> <PUBCHEM_COMPOUND_ID_TYPE>
0

> <PUBCHEM_TOTAL_CHARGE>
0

> <PUBCHEM_SUBSTANCE_ID>
310946034

> <PUBCHEM_SUBSTANCE_VERSION>
1

> <PUBCHEM_EXT_DATASOURCE_NAME>
4488

> <PUBCHEM_EXT_DATASOURCE_REGID>
SCHEMBL16124140

> <PUBCHEM_SUBSTANCE_COMMENT>
InChI=1S/C27H33N3O7/c1-17(32)28-23(15-31)26(35)30-22(14-19-9-11-20(36-3)12-10-19)25(34)29-21(24(33)27(2)16-37-27)13-18-7-5-4-6-8-18/h4-12,21-23,31H,13-16H2,1-3H3,(H,28,32)(H,29,34)(H,30,35)/t21-,22-,23-,27+/m0/s1
InChIKey=ZRABBTALFDMQSB-RNLGNXJRSA-N

> <PUBCHEM_SUBSTANCE_SYNONYM>
SCHEMBL16124140

> <PUBCHEM_XREF_EXT_ID>
SCHEMBL16124140

> <PUBCHEM_EXT_DATASOURCE_URL>
https://www.surechembl.org/

> <PUBCHEM_EXT_SUBSTANCE_URL>
https://www.surechembl.org/chemical/SCHEMBL16124140

> <PUBCHEM_CID_ASSOCIATIONS>
117612005  1

> <PUBCHEM_COORDINATE_TYPE>
1
3

> <PUBCHEM_BONDANNOTATIONS>
25  10  5
11  12  5
11  15  6
14  8  5
18  9  6

$$$$
