310944163
  -OEChem-07211613022D

 32 36  0     1  0  0  0  0  0999 V2000
    2.5734    0.7893    0.0000 O   0  0  0  0  0  0  0  0  0  0  0  0
    5.4080   -0.1556    0.0000 O   0  0  0  0  0  0  0  0  0  0  0  0
    5.5858    1.3117    0.0000 O   0  0  0  0  0  0  0  0  0  0  0  0
   -0.8393   -1.2450    0.0000 O   0  0  0  0  0  0  0  0  0  0  0  0
    3.2959   -0.4891    0.0000 N   0  0  0  0  0  0  0  0  0  0  0  0
    0.3613   -0.1001    0.0000 N   0  0  0  0  0  0  0  0  0  0  0  0
   -4.2297    0.4558    0.0000 N   0  0  0  0  0  0  0  0  0  0  0  0
   -2.4289   -0.8004    0.0000 N   0  0  0  0  0  0  0  0  0  0  0  0
   -4.5187    1.2339    0.0000 N   0  0  0  0  0  0  0  0  0  0  0  0
   -5.3524    1.2005    0.0000 N   0  0  0  0  0  0  0  0  0  0  0  0
   -5.5858    0.4113    0.0000 N   0  0  0  0  0  0  0  0  0  0  0  0
    1.9509   -0.5447    0.0000 C   0  0  0  0  0  0  0  0  0  0  0  0
    2.6067   -0.0444    0.0000 C   0  0  0  0  0  0  0  0  0  0  0  0
    2.2399   -1.3117    0.0000 C   0  0  0  0  0  0  0  0  0  0  0  0
    4.0630   -0.1890    0.0000 C   0  0  0  0  0  0  0  0  0  0  0  0
    3.0625   -1.2783    0.0000 C   0  0  0  0  0  0  0  0  0  0  0  0
    1.3617   -1.1116    0.0000 C   0  0  0  0  0  0  0  0  0  0  0  0
    1.7508    0.2557    0.0000 C   0  0  0  0  0  0  0  0  0  0  0  0
    0.5613   -0.8893    0.0000 C   0  0  0  0  0  0  0  0  0  0  0  0
    0.9504    0.4780    0.0000 C   0  0  0  0  0  0  0  0  0  0  0  0
    4.3075    0.6003    0.0000 C   0  0  0  0  0  0  0  0  0  0  0  0
    4.7633   -0.6559    0.0000 C   0  0  0  0  0  0  0  0  0  0  0  0
   -3.4405    0.2334    0.0000 C   0  0  0  0  0  0  0  0  0  0  0  0
   -1.8398   -0.2001    0.0000 C   0  0  0  0  0  0  0  0  0  0  0  0
   -0.4391    0.1334    0.0000 C   0  0  0  0  0  0  0  0  0  0  0  0
    5.1079    0.6114    0.0000 C   0  0  0  0  0  0  0  0  0  0  0  0
   -1.0282   -0.4335    0.0000 C   0  0  3  0  0  0  0  0  0  0  0  0
   -3.2404   -0.5447    0.0000 C   0  0  0  0  0  0  0  0  0  0  0  0
   -2.8401    0.8115    0.0000 C   0  0  0  0  0  0  0  0  0  0  0  0
   -2.0398    0.5891    0.0000 C   0  0  0  0  0  0  0  0  0  0  0  0
   -4.8855   -0.0444    0.0000 C   0  0  0  0  0  0  0  0  0  0  0  0
   -3.8184   -1.1561    0.0000 C   0  0  0  0  0  0  0  0  0  0  0  0
  1 13  2  0  0  0  0
  2 22  1  0  0  0  0
  2 26  1  0  0  0  0
  3 26  2  0  0  0  0
 27  4  1  6  0  0  0
  5 13  1  0  0  0  0
  5 15  1  0  0  0  0
  5 16  1  0  0  0  0
  6 19  1  0  0  0  0
  6 20  1  0  0  0  0
  6 25  1  0  0  0  0
  7  9  1  0  0  0  0
  7 23  1  0  0  0  0
  7 31  1  0  0  0  0
  8 24  2  0  0  0  0
  8 28  1  0  0  0  0
  9 10  2  0  0  0  0
 10 11  1  0  0  0  0
 11 31  2  0  0  0  0
 12 13  1  0  0  0  0
 12 14  1  0  0  0  0
 12 17  1  0  0  0  0
 12 18  1  0  0  0  0
 14 16  1  0  0  0  0
 15 21  2  0  0  0  0
 15 22  1  0  0  0  0
 17 19  1  0  0  0  0
 18 20  1  0  0  0  0
 21 26  1  0  0  0  0
 23 28  2  0  0  0  0
 23 29  1  0  0  0  0
 24 27  1  0  0  0  0
 24 30  1  0  0  0  0
 25 27  1  0  0  0  0
 28 32  1  0  0  0  0
 29 30  2  0  0  0  0
M  END
> <PUBCHEM_COMPOUND_ID_TYPE>
0

> <PUBCHEM_TOTAL_CHARGE>
0

> <PUBCHEM_SUBSTANCE_ID>
310944163

> <PUBCHEM_SUBSTANCE_VERSION>
1

> <PUBCHEM_EXT_DATASOURCE_NAME>
4488

> <PUBCHEM_EXT_DATASOURCE_REGID>
SCHEMBL16122238

> <PUBCHEM_SUBSTANCE_COMMENT>
InChI=1S/C21H25N7O4/c1-14-17(28-13-22-24-25-28)3-2-16(23-14)18(29)11-26-7-4-21(5-8-26)6-9-27(20(21)31)15-10-19(30)32-12-15/h2-3,10,13,18,29H,4-9,11-12H2,1H3/t18-/m0/s1
InChIKey=NQXCEZZKXQVLSD-SFHVURJKSA-N

> <PUBCHEM_SUBSTANCE_SYNONYM>
SCHEMBL16122238

> <PUBCHEM_XREF_EXT_ID>
SCHEMBL16122238

> <PUBCHEM_EXT_DATASOURCE_URL>
https://www.surechembl.org/

> <PUBCHEM_EXT_SUBSTANCE_URL>
https://www.surechembl.org/chemical/SCHEMBL16122238

> <PUBCHEM_CID_ASSOCIATIONS>
117610443  1

> <PUBCHEM_COORDINATE_TYPE>
1
3

> <PUBCHEM_BONDANNOTATIONS>
27  4  6

$$$$
