310933382
  -OEChem-07211613022D

 29 34  0     0  0  0  0  0  0999 V2000
    0.0000   -4.7484    0.0000 O   0  0  0  0  0  0  0  0  0  0  0  0
    5.5640   -3.6123    0.0000 O   0  0  0  0  0  0  0  0  0  0  0  0
    3.1170   -0.6700    0.0000 N   0  0  0  0  0  0  0  0  0  0  0  0
    2.2722   -0.6700    0.0000 N   0  0  0  0  0  0  0  0  0  0  0  0
    4.2240   -2.9422    0.0000 N   0  0  0  0  0  0  0  0  0  0  0  0
    4.2240   -4.2823    0.0000 N   0  0  0  0  0  0  0  0  0  0  0  0
    0.4078   -5.4766    0.0000 N   0  0  0  0  0  0  0  0  0  0  0  0
    2.7092   -1.9518    0.0000 C   0  0  0  0  0  0  0  0  0  0  0  0
    2.7092   -2.7674    0.0000 C   0  0  0  0  0  0  0  0  0  0  0  0
    3.3792   -1.4566    0.0000 C   0  0  0  0  0  0  0  0  0  0  0  0
    2.0392   -1.4566    0.0000 C   0  0  0  0  0  0  0  0  0  0  0  0
    3.4375   -3.1753    0.0000 C   0  0  0  0  0  0  0  0  0  0  0  0
    4.1657   -1.6896    0.0000 C   0  0  0  0  0  0  0  0  0  0  0  0
    3.4375   -4.0492    0.0000 C   0  0  0  0  0  0  0  0  0  0  0  0
    1.2526   -1.7479    0.0000 C   0  0  0  0  0  0  0  0  0  0  0  0
    2.0100   -4.0492    0.0000 C   0  0  0  0  0  0  0  0  0  0  0  0
    2.0100   -3.1753    0.0000 C   0  0  0  0  0  0  0  0  0  0  0  0
    1.3109   -4.4571    0.0000 C   0  0  0  0  0  0  0  0  0  0  0  0
    2.7092   -4.4279    0.0000 C   0  0  0  0  0  0  0  0  0  0  0  0
    4.9523   -1.5148    0.0000 C   0  0  0  0  0  0  0  0  0  0  0  0
    4.7484   -2.3013    0.0000 C   0  0  0  0  0  0  0  0  0  0  0  0
    4.7193   -3.6123    0.0000 C   0  0  0  0  0  0  0  0  0  0  0  0
    0.6992   -2.3596    0.0000 C   0  0  0  0  0  0  0  0  0  0  0  0
    0.4078   -1.5731    0.0000 C   0  0  0  0  0  0  0  0  0  0  0  0
    0.5535   -4.1366    0.0000 C   0  0  0  0  0  0  0  0  0  0  0  0
    1.2235   -5.2727    0.0000 C   0  0  0  0  0  0  0  0  0  0  0  0
    3.5831    0.0000    0.0000 C   0  0  0  0  0  0  0  0  0  0  0  0
    0.3496   -3.3210    0.0000 C   0  0  0  0  0  0  0  0  0  0  0  0
    1.8352   -5.8262    0.0000 C   0  0  0  0  0  0  0  0  0  0  0  0
  1  7  1  0  0  0  0
  1 25  1  0  0  0  0
  2 22  2  0  0  0  0
  3  4  1  0  0  0  0
  3 10  1  0  0  0  0
  3 27  1  0  0  0  0
  4 11  2  0  0  0  0
  5 12  1  0  0  0  0
  5 22  1  0  0  0  0
  6 14  1  0  0  0  0
  6 22  1  0  0  0  0
  7 26  2  0  0  0  0
  8  9  1  0  0  0  0
  8 10  2  0  0  0  0
  8 11  1  0  0  0  0
  9 12  1  0  0  0  0
  9 17  2  0  0  0  0
 10 13  1  0  0  0  0
 11 15  1  0  0  0  0
 12 14  2  0  0  0  0
 13 20  1  0  0  0  0
 13 21  1  0  0  0  0
 14 19  1  0  0  0  0
 15 23  1  0  0  0  0
 15 24  1  0  0  0  0
 16 17  1  0  0  0  0
 16 18  1  0  0  0  0
 16 19  2  0  0  0  0
 18 25  2  0  0  0  0
 18 26  1  0  0  0  0
 20 21  1  0  0  0  0
 23 24  1  0  0  0  0
 25 28  1  0  0  0  0
 26 29  1  0  0  0  0
M  END
> <PUBCHEM_COMPOUND_ID_TYPE>
0

> <PUBCHEM_TOTAL_CHARGE>
0

> <PUBCHEM_SUBSTANCE_ID>
310933382

> <PUBCHEM_SUBSTANCE_VERSION>
1

> <PUBCHEM_EXT_DATASOURCE_NAME>
4488

> <PUBCHEM_EXT_DATASOURCE_REGID>
SCHEMBL16110798

> <PUBCHEM_SUBSTANCE_COMMENT>
InChI=1S/C22H23N5O2/c1-10-17(11(2)29-26-10)14-8-15(20-16(9-14)23-22(28)24-20)18-19(12-4-5-12)25-27(3)21(18)13-6-7-13/h8-9,12-13H,4-7H2,1-3H3,(H2,23,24,28)
InChIKey=FBLOOJBVSRDCOR-UHFFFAOYSA-N

> <PUBCHEM_SUBSTANCE_SYNONYM>
SCHEMBL16110798

> <PUBCHEM_XREF_EXT_ID>
SCHEMBL16110798

> <PUBCHEM_EXT_DATASOURCE_URL>
https://www.surechembl.org/

> <PUBCHEM_EXT_SUBSTANCE_URL>
https://www.surechembl.org/chemical/SCHEMBL16110798

> <PUBCHEM_CID_ASSOCIATIONS>
117601793  1

> <PUBCHEM_COORDINATE_TYPE>
1
3

$$$$
