310947594
  -OEChem-07211613022D

 22 24  0     1  0  0  0  0  0999 V2000
   -1.9561    0.4443    0.0000 F   0  0  0  0  0  0  0  0  0  0  0  0
   -1.1311    2.4283    0.0000 O   0  0  0  0  0  0  0  0  0  0  0  0
   -0.3061    0.4443    0.0000 O   0  0  0  0  0  0  0  0  0  0  0  0
    1.0354    5.0858    0.0000 O   0  0  0  0  0  0  0  0  0  0  0  0
   -3.1788    2.3132    0.0000 O   0  0  0  0  0  0  0  0  0  0  0  0
   -0.4637    2.7684    0.0000 N   0  0  0  0  0  0  0  0  0  0  0  0
   -0.4637    4.1032    0.0000 N   0  0  0  0  0  0  0  0  0  0  0  0
    1.0354    2.6108    0.0000 N   0  0  0  0  0  0  0  0  0  0  0  0
    1.7499    3.8483    0.0000 N   0  0  0  0  0  0  0  0  0  0  0  0
   -0.4637    1.9434    0.0000 C   0  0  3  0  0  0  0  0  0  0  0  0
   -0.7186    1.1587    0.0000 C   0  0  3  0  0  0  0  0  0  0  0  0
    0.3209    3.0233    0.0000 C   0  0  0  0  0  0  0  0  0  0  0  0
   -1.5436    1.1587    0.0000 C   0  0  3  0  0  0  0  0  0  0  0  0
    0.3209    3.8483    0.0000 C   0  0  0  0  0  0  0  0  0  0  0  0
   -1.7986    1.9434    0.0000 C   0  0  3  0  0  0  0  0  0  0  0  0
   -0.9486    3.4358    0.0000 C   0  0  0  0  0  0  0  0  0  0  0  0
    1.0354    4.2608    0.0000 C   0  0  0  0  0  0  0  0  0  0  0  0
    0.0783    1.3723    0.0000 C   0  0  0  0  0  0  0  0  0  0  0  0
    1.7499    3.0233    0.0000 C   0  0  0  0  0  0  0  0  0  0  0  0
   -2.3819    2.5267    0.0000 C   0  0  0  0  0  0  0  0  0  0  0  0
    2.4643    2.6108    0.0000 C   0  0  0  0  0  0  0  0  0  0  0  0
    1.7499    5.4983    0.0000 C   0  0  0  0  0  0  0  0  0  0  0  0
 13  1  1  6  0  0  0
 10  2  1  6  0  0  0
  2 15  1  0  0  0  0
 11  3  1  6  0  0  0
  4 17  1  0  0  0  0
  4 22  1  0  0  0  0
  5 20  1  0  0  0  0
  6 10  1  0  0  0  0
  6 12  1  0  0  0  0
  6 16  1  0  0  0  0
  7 14  1  0  0  0  0
  7 16  2  0  0  0  0
  8 12  1  0  0  0  0
  8 19  2  0  0  0  0
  9 17  2  0  0  0  0
  9 19  1  0  0  0  0
 10 11  1  0  0  0  0
 11 13  1  0  0  0  0
 11 18  1  1  0  0  0
 12 14  2  0  0  0  0
 13 15  1  0  0  0  0
 14 17  1  0  0  0  0
 15 20  1  1  0  0  0
 19 21  1  0  0  0  0
M  END
> <PUBCHEM_COMPOUND_ID_TYPE>
0

> <PUBCHEM_TOTAL_CHARGE>
0

> <PUBCHEM_SUBSTANCE_ID>
310947594

> <PUBCHEM_SUBSTANCE_VERSION>
1

> <PUBCHEM_EXT_DATASOURCE_NAME>
4488

> <PUBCHEM_EXT_DATASOURCE_REGID>
SCHEMBL16125757

> <PUBCHEM_SUBSTANCE_COMMENT>
InChI=1S/C13H17FN4O4/c1-6-16-10-8(11(17-6)21-3)15-5-18(10)12-13(2,20)9(14)7(4-19)22-12/h5,7,9,12,19-20H,4H2,1-3H3/t7-,9-,12-,13-/m1/s1
InChIKey=CGTLPSURVGNMCP-NHULRPGXSA-N

> <PUBCHEM_SUBSTANCE_SYNONYM>
SCHEMBL16125757

> <PUBCHEM_XREF_EXT_ID>
SCHEMBL16125757

> <PUBCHEM_EXT_DATASOURCE_URL>
https://www.surechembl.org/

> <PUBCHEM_EXT_SUBSTANCE_URL>
https://www.surechembl.org/chemical/SCHEMBL16125757

> <PUBCHEM_CID_ASSOCIATIONS>
117613316  1

> <PUBCHEM_COORDINATE_TYPE>
1
3

> <PUBCHEM_BONDANNOTATIONS>
13  1  6
11  18  5
15  20  5
10  2  6
11  3  6

$$$$
