310929063
  -OEChem-07211613022D

 60 64  0     0  0  0  0  0  0999 V2000
    4.0701   -6.8752    0.0000 S   0  0  0  0  0  0  0  0  0  0  0  0
    8.9652   -5.6101    0.0000 F   0  0  0  0  0  0  0  0  0  0  0  0
   10.2302   -4.8951    0.0000 F   0  0  0  0  0  0  0  0  0  0  0  0
    6.6001   -2.6401    0.0000 O   0  0  0  0  0  0  0  0  0  0  0  0
    4.0701   -5.4451    0.0000 O   0  0  0  0  0  0  0  0  0  0  0  0
    2.0350   -3.3001    0.0000 O   0  0  0  0  0  0  0  0  0  0  0  0
    4.0701   -5.9951    0.0000 O   0  0  0  0  0  0  0  0  0  0  0  0
    4.0701   -7.7002    0.0000 O   0  0  0  0  0  0  0  0  0  0  0  0
    9.0202   -4.1801    0.0000 O   0  0  0  0  0  0  0  0  0  0  0  0
   11.4953   -2.8050    0.0000 O   0  0  0  0  0  0  0  0  0  0  0  0
   11.9903   -0.7150    0.0000 O   0  0  0  0  0  0  0  0  0  0  0  0
   14.0803   -0.0550    0.0000 O   0  0  0  0  0  0  0  0  0  0  0  0
   15.6754   -1.4850    0.0000 O   0  0  0  0  0  0  0  0  0  0  0  0
    3.3001   -4.0151    0.0000 N   0  0  0  0  0  0  0  0  0  0  0  0
    3.3001   -2.5850    0.0000 N   0  0  0  0  0  0  0  0  0  0  0  0
    3.3001   -6.8752    0.0000 N   0  0  0  0  0  0  0  0  0  0  0  0
    7.8102   -1.9800    0.0000 N   0  0  0  0  0  0  0  0  0  0  0  0
    9.0752   -1.3200    0.0000 N   0  0  0  0  0  0  0  0  0  0  0  0
    7.8651   -0.5500    0.0000 N   0  0  0  0  0  0  0  0  0  0  0  0
    4.5101   -3.3001    0.0000 C   0  0  0  0  0  0  0  0  0  0  0  0
    2.8600   -4.7301    0.0000 C   0  0  0  0  0  0  0  0  0  0  0  0
    3.2451   -5.4451    0.0000 C   0  0  0  0  0  0  0  0  0  0  0  0
    5.3351   -3.3001    0.0000 C   0  0  0  0  0  0  0  0  0  0  0  0
    2.8600   -6.1602    0.0000 C   0  0  0  0  0  0  0  0  0  0  0  0
    1.6501   -5.4451    0.0000 C   0  0  0  0  0  0  0  0  0  0  0  0
    4.1251   -2.6401    0.0000 C   0  0  0  0  0  0  0  0  0  0  0  0
    5.7751   -2.6401    0.0000 C   0  0  0  0  0  0  0  0  0  0  0  0
    2.0350   -4.7301    0.0000 C   0  0  0  0  0  0  0  0  0  0  0  0
    2.0350   -6.1602    0.0000 C   0  0  0  0  0  0  0  0  0  0  0  0
    0.8250   -5.4451    0.0000 C   0  0  0  0  0  0  0  0  0  0  0  0
    2.8600   -3.3001    0.0000 C   0  0  0  0  0  0  0  0  0  0  0  0
    4.5651   -1.9251    0.0000 C   0  0  0  0  0  0  0  0  0  0  0  0
    5.3351   -1.9251    0.0000 C   0  0  0  0  0  0  0  0  0  0  0  0
    4.0701   -4.0151    0.0000 C   0  0  0  0  0  0  0  0  0  0  0  0
    5.7201   -4.0701    0.0000 C   0  0  0  0  0  0  0  0  0  0  0  0
    6.9852   -1.9800    0.0000 C   0  0  0  0  0  0  0  0  0  0  0  0
    4.5101   -4.7301    0.0000 C   0  0  0  0  0  0  0  0  0  0  0  0
    5.3351   -4.7301    0.0000 C   0  0  0  0  0  0  0  0  0  0  0  0
    8.2502   -1.2650    0.0000 C   0  0  0  0  0  0  0  0  0  0  0  0
    0.8250   -4.6201    0.0000 C   0  0  0  0  0  0  0  0  0  0  0  0
    0.0000   -5.4451    0.0000 C   0  0  0  0  0  0  0  0  0  0  0  0
    0.8250   -6.2701    0.0000 C   0  0  0  0  0  0  0  0  0  0  0  0
    6.6001   -1.2100    0.0000 C   0  0  0  0  0  0  0  0  0  0  0  0
    9.4602   -2.0350    0.0000 C   0  0  0  0  0  0  0  0  0  0  0  0
    7.0401   -0.5500    0.0000 C   0  0  0  0  0  0  0  0  0  0  0  0
    4.6751   -4.8951    0.0000 C   0  0  0  0  0  0  0  0  0  0  0  0
    9.4052   -3.4651    0.0000 C   0  0  0  0  0  0  0  0  0  0  0  0
    4.8951   -6.8752    0.0000 C   0  0  0  0  0  0  0  0  0  0  0  0
   10.6703   -2.8050    0.0000 C   0  0  0  0  0  0  0  0  0  0  0  0
    9.0202   -2.7501    0.0000 C   0  0  0  0  0  0  0  0  0  0  0  0
   10.2852   -2.0900    0.0000 C   0  0  0  0  0  0  0  0  0  0  0  0
   10.2302   -3.4651    0.0000 C   0  0  0  0  0  0  0  0  0  0  0  0
    9.4052   -4.8951    0.0000 C   0  0  0  0  0  0  0  0  0  0  0  0
   11.9353   -2.1451    0.0000 C   0  0  0  0  0  0  0  0  0  0  0  0
   11.5502   -1.3751    0.0000 C   0  0  0  0  0  0  0  0  0  0  0  0
   12.8153   -0.7150    0.0000 C   0  0  0  0  0  0  0  0  0  0  0  0
   13.2553    0.0000    0.0000 C   0  0  0  0  0  0  0  0  0  0  0  0
   14.4653   -0.7700    0.0000 C   0  0  0  0  0  0  0  0  0  0  0  0
   15.2903   -0.7700    0.0000 C   0  0  0  0  0  0  0  0  0  0  0  0
   16.5004   -1.4850    0.0000 C   0  0  0  0  0  0  0  0  0  0  0  0
  1  7  2  0  0  0  0
  1  8  2  0  0  0  0
  1 16  1  0  0  0  0
  1 48  1  0  0  0  0
  2 53  1  0  0  0  0
  3 53  1  0  0  0  0
  4 27  1  0  0  0  0
  4 36  1  0  0  0  0
  5 22  1  0  0  0  0
  5 46  1  0  0  0  0
  6 31  2  0  0  0  0
  9 47  1  0  0  0  0
  9 53  1  0  0  0  0
 10 49  1  0  0  0  0
 10 54  1  0  0  0  0
 11 55  1  0  0  0  0
 11 56  1  0  0  0  0
 12 57  1  0  0  0  0
 12 58  1  0  0  0  0
 13 59  1  0  0  0  0
 13 60  1  0  0  0  0
 14 21  1  0  0  0  0
 14 31  1  0  0  0  0
 15 26  1  0  0  0  0
 15 31  1  0  0  0  0
 16 24  1  0  0  0  0
 17 36  2  0  0  0  0
 17 39  1  0  0  0  0
 18 39  1  0  0  0  0
 18 44  1  0  0  0  0
 19 39  2  0  0  0  0
 19 45  1  0  0  0  0
 20 23  2  0  0  0  0
 20 26  1  0  0  0  0
 20 34  1  0  0  0  0
 21 22  2  0  0  0  0
 21 28  1  0  0  0  0
 22 24  1  0  0  0  0
 23 27  1  0  0  0  0
 23 35  1  0  0  0  0
 24 29  2  0  0  0  0
 25 28  2  0  0  0  0
 25 29  1  0  0  0  0
 25 30  1  0  0  0  0
 26 32  2  0  0  0  0
 27 33  2  0  0  0  0
 30 40  1  0  0  0  0
 30 41  1  0  0  0  0
 30 42  1  0  0  0  0
 32 33  1  0  0  0  0
 34 37  2  0  0  0  0
 35 38  2  0  0  0  0
 36 43  1  0  0  0  0
 37 38  1  0  0  0  0
 43 45  2  0  0  0  0
 44 50  1  0  0  0  0
 44 51  2  0  0  0  0
 47 50  2  0  0  0  0
 47 52  1  0  0  0  0
 49 51  1  0  0  0  0
 49 52  2  0  0  0  0
 54 55  1  0  0  0  0
 56 57  1  0  0  0  0
 58 59  1  0  0  0  0
M  END
> <PUBCHEM_COMPOUND_ID_TYPE>
0

> <PUBCHEM_TOTAL_CHARGE>
0

> <PUBCHEM_SUBSTANCE_ID>
310929063

> <PUBCHEM_SUBSTANCE_VERSION>
1

> <PUBCHEM_EXT_DATASOURCE_NAME>
4488

> <PUBCHEM_EXT_DATASOURCE_REGID>
SCHEMBL16106225

> <PUBCHEM_SUBSTANCE_COMMENT>
InChI=1S/C41H48F2N6O10S/c1-41(2,3)26-21-33(37(54-5)34(22-26)49-60(6,51)52)47-40(50)46-32-11-12-35(31-10-8-7-9-30(31)32)59-36-13-14-44-39(48-36)45-27-23-28(25-29(24-27)58-38(42)43)57-20-19-56-18-17-55-16-15-53-4/h7-14,21-25,38,49H,15-20H2,1-6H3,(H,44,45,48)(H2,46,47,50)
InChIKey=YOQLEIDUMQYNIN-UHFFFAOYSA-N

> <PUBCHEM_SUBSTANCE_SYNONYM>
SCHEMBL16106225

> <PUBCHEM_XREF_EXT_ID>
SCHEMBL16106225

> <PUBCHEM_EXT_DATASOURCE_URL>
https://www.surechembl.org/

> <PUBCHEM_EXT_SUBSTANCE_URL>
https://www.surechembl.org/chemical/SCHEMBL16106225

> <PUBCHEM_CID_ASSOCIATIONS>
86272113  1

> <PUBCHEM_COORDINATE_TYPE>
1
3

$$$$
