310940890
  -OEChem-07211613022D

 42 45  0     1  0  0  0  0  0999 V2000
    5.4451    1.1361    0.0000 O   0  0  0  0  0  0  0  0  0  0  0  0
    4.0180   -0.5265    0.0000 O   0  0  0  0  0  0  0  0  0  0  0  0
    1.8427    1.5657    0.0000 O   0  0  0  0  0  0  0  0  0  0  0  0
    0.3880   -0.9421    0.0000 O   0  0  0  0  0  0  0  0  0  0  0  0
   -0.3464   -0.5265    0.0000 O   0  0  0  0  0  0  0  0  0  0  0  0
    3.9626   -2.1753    0.0000 O   0  0  0  0  0  0  0  0  0  0  0  0
   -2.5354    1.5657    0.0000 O   0  0  0  0  0  0  0  0  0  0  0  0
   -5.4451    1.5795    0.0000 O   0  0  0  0  0  0  0  0  0  0  0  0
    2.5631    0.3187    0.0000 N   0  0  0  0  0  0  0  0  0  0  0  0
    0.3741    0.7344    0.0000 N   0  0  0  0  0  0  0  0  0  0  0  0
   -1.8011    0.3187    0.0000 N   0  0  0  0  0  0  0  0  0  0  0  0
   -3.9903    0.7344    0.0000 N   0  0  0  0  0  0  0  0  0  0  0  0
    4.7523    0.7482    0.0000 C   0  0  3  0  0  0  0  0  0  0  0  0
    4.0318    0.3464    0.0000 C   0  0  0  0  0  0  0  0  0  0  0  0
    5.4451    0.3464    0.0000 C   0  0  0  0  0  0  0  0  0  0  0  0
    3.2975    0.7482    0.0000 C   0  0  3  0  0  0  0  0  0  0  0  0
    4.3366    1.4548    0.0000 C   0  0  0  0  0  0  0  0  0  0  0  0
    1.8427    0.7205    0.0000 C   0  0  0  0  0  0  0  0  0  0  0  0
    1.1223    0.3187    0.0000 C   0  0  3  0  0  0  0  0  0  0  0  0
    3.3114    1.5795    0.0000 C   0  0  0  0  0  0  0  0  0  0  0  0
    1.1083   -0.5127    0.0000 C   0  0  3  0  0  0  0  0  0  0  0  0
    4.0180    2.0090    0.0000 C   0  0  0  0  0  0  0  0  0  0  0  0
    1.8427   -0.9421    0.0000 C   0  0  0  0  0  0  0  0  0  0  0  0
   -0.3325    0.3464    0.0000 C   0  0  0  0  0  0  0  0  0  0  0  0
    2.5216   -0.5543    0.0000 C   0  0  0  0  0  0  0  0  0  0  0  0
    1.8427   -1.7457    0.0000 C   0  0  0  0  0  0  0  0  0  0  0  0
    4.1150    2.8264    0.0000 C   0  0  0  0  0  0  0  0  0  0  0  0
    4.8077    1.6626    0.0000 C   0  0  0  0  0  0  0  0  0  0  0  0
   -1.0807    0.7344    0.0000 C   0  0  3  0  0  0  0  0  0  0  0  0
    3.2283   -1.7319    0.0000 C   0  0  0  0  0  0  0  0  0  0  0  0
    3.2283   -0.9421    0.0000 C   0  0  0  0  0  0  0  0  0  0  0  0
    2.5493   -2.1337    0.0000 C   0  0  0  0  0  0  0  0  0  0  0  0
    4.9463    2.9927    0.0000 C   0  0  0  0  0  0  0  0  0  0  0  0
    5.3481    2.2723    0.0000 C   0  0  0  0  0  0  0  0  0  0  0  0
   -2.5354    0.7205    0.0000 C   0  0  0  0  0  0  0  0  0  0  0  0
   -1.0668    1.5795    0.0000 C   0  0  0  0  0  0  0  0  0  0  0  0
   -3.2421    0.3187    0.0000 C   0  0  0  0  0  0  0  0  0  0  0  0
   -3.9903    1.5795    0.0000 C   0  0  0  0  0  0  0  0  0  0  0  0
   -4.7107    0.3187    0.0000 C   0  0  0  0  0  0  0  0  0  0  0  0
    3.9626   -2.9927    0.0000 C   0  0  0  0  0  0  0  0  0  0  0  0
   -4.7245    1.9951    0.0000 C   0  0  0  0  0  0  0  0  0  0  0  0
   -5.4451    0.7344    0.0000 C   0  0  0  0  0  0  0  0  0  0  0  0
  1 13  1  0  0  0  0
  1 15  1  0  0  0  0
  2 14  2  0  0  0  0
  3 18  2  0  0  0  0
 21  4  1  1  0  0  0
  5 24  2  0  0  0  0
  6 30  1  0  0  0  0
  6 40  1  0  0  0  0
  7 35  2  0  0  0  0
  8 41  1  0  0  0  0
  8 42  1  0  0  0  0
 16  9  1  1  0  0  0
  9 18  1  0  0  0  0
 19 10  1  6  0  0  0
 10 24  1  0  0  0  0
 11 29  1  0  0  0  0
 11 35  1  0  0  0  0
 12 37  1  0  0  0  0
 12 38  1  0  0  0  0
 12 39  1  0  0  0  0
 13 14  1  6  0  0  0
 13 15  1  0  0  0  0
 13 17  1  1  0  0  0
 14 16  1  0  0  0  0
 16 20  1  0  0  0  0
 18 19  1  0  0  0  0
 19 21  1  0  0  0  0
 20 22  1  0  0  0  0
 21 23  1  0  0  0  0
 22 27  1  0  0  0  0
 22 28  1  0  0  0  0
 23 25  2  0  0  0  0
 23 26  1  0  0  0  0
 24 29  1  0  0  0  0
 25 31  1  0  0  0  0
 26 32  2  0  0  0  0
 27 33  1  0  0  0  0
 28 34  1  0  0  0  0
 29 36  1  1  0  0  0
 30 31  2  0  0  0  0
 30 32  1  0  0  0  0
 33 34  1  0  0  0  0
 35 37  1  0  0  0  0
 38 41  1  0  0  0  0
 39 42  1  0  0  0  0
M  END
> <PUBCHEM_COMPOUND_ID_TYPE>
0

> <PUBCHEM_TOTAL_CHARGE>
0

> <PUBCHEM_SUBSTANCE_ID>
310940890

> <PUBCHEM_SUBSTANCE_VERSION>
1

> <PUBCHEM_EXT_DATASOURCE_NAME>
4488

> <PUBCHEM_EXT_DATASOURCE_REGID>
SCHEMBL16118849

> <PUBCHEM_SUBSTANCE_COMMENT>
InChI=1S/C30H44N4O8/c1-19(31-24(35)17-34-12-14-41-15-13-34)28(38)33-25(26(36)21-8-10-22(40-3)11-9-21)29(39)32-23(16-20-6-4-5-7-20)27(37)30(2)18-42-30/h8-11,19-20,23,25-26,36H,4-7,12-18H2,1-3H3,(H,31,35)(H,32,39)(H,33,38)/t19-,23-,25-,26+,30+/m0/s1
InChIKey=LPNBGYYWQOKWDM-UTIIJYGPSA-N

> <PUBCHEM_SUBSTANCE_SYNONYM>
SCHEMBL16118849

> <PUBCHEM_XREF_EXT_ID>
SCHEMBL16118849

> <PUBCHEM_EXT_DATASOURCE_URL>
https://www.surechembl.org/

> <PUBCHEM_EXT_SUBSTANCE_URL>
https://www.surechembl.org/chemical/SCHEMBL16118849

> <PUBCHEM_CID_ASSOCIATIONS>
117607807  1

> <PUBCHEM_COORDINATE_TYPE>
1
3

> <PUBCHEM_BONDANNOTATIONS>
19  10  6
13  14  6
13  17  5
29  36  5
21  4  5
16  9  5

$$$$
