310945293
  -OEChem-07211613022D

 19 19  0     0  0  0  0  0  0999 V2000
    0.2332   -0.2309    0.0000 S   0  0  0  0  0  0  0  0  0  0  0  0
    3.6450   -1.3840    0.0000 O   0  0  0  0  0  0  0  0  0  0  0  0
    3.1387   -2.2166    0.0000 O   0  0  0  0  0  0  0  0  0  0  0  0
   -2.7135    2.2166    0.0000 O   0  0  0  0  0  0  0  0  0  0  0  0
    0.2494    1.1539    0.0000 N   0  0  0  0  0  0  0  0  0  0  0  0
    1.5859    0.4614    0.0000 N   0  0  0  0  0  0  0  0  0  0  0  0
   -1.9728    0.9606    0.0000 N   0  0  0  0  0  0  0  0  0  0  0  0
    0.7325    0.4614    0.0000 C   0  0  0  0  0  0  0  0  0  0  0  0
   -0.5557    0.8801    0.0000 C   0  0  0  0  0  0  0  0  0  0  0  0
    3.1387   -1.6765    0.0000 C   0  0  0  0  0  0  0  0  0  0  0  0
   -0.5557    0.0428    0.0000 C   0  0  0  0  0  0  0  0  0  0  0  0
    3.6563   -0.8213    0.0000 C   0  0  0  0  0  0  0  0  0  0  0  0
   -1.2642    1.3632    0.0000 C   0  0  0  0  0  0  0  0  0  0  0  0
   -2.7296    1.3632    0.0000 C   0  0  0  0  0  0  0  0  0  0  0  0
    4.1627   -0.7988    0.0000 C   0  0  0  0  0  0  0  0  0  0  0  0
    3.1387   -0.8213    0.0000 C   0  0  0  0  0  0  0  0  0  0  0  0
    3.6450   -0.2699    0.0000 C   0  0  0  0  0  0  0  0  0  0  0  0
   -3.4381    0.9606    0.0000 C   0  0  0  0  0  0  0  0  0  0  0  0
   -4.1627    1.4276    0.0000 C   0  0  0  0  0  0  0  0  0  0  0  0
  1  8  1  0  0  0  0
  1 11  1  0  0  0  0
  2 10  1  0  0  0  0
  2 12  1  0  0  0  0
  3 10  2  0  0  0  0
  4 14  2  0  0  0  0
  5  8  2  0  0  0  0
  5  9  1  0  0  0  0
  6  8  1  0  0  0  0
  6 10  1  0  0  0  0
  7 13  1  0  0  0  0
  7 14  1  0  0  0  0
  9 11  2  0  0  0  0
  9 13  1  0  0  0  0
 12 15  1  0  0  0  0
 12 16  1  0  0  0  0
 12 17  1  0  0  0  0
 14 18  1  0  0  0  0
 18 19  2  0  0  0  0
M  END
> <PUBCHEM_COMPOUND_ID_TYPE>
0

> <PUBCHEM_TOTAL_CHARGE>
0

> <PUBCHEM_SUBSTANCE_ID>
310945293

> <PUBCHEM_SUBSTANCE_VERSION>
1

> <PUBCHEM_EXT_DATASOURCE_NAME>
4488

> <PUBCHEM_EXT_DATASOURCE_REGID>
SCHEMBL16123391

> <PUBCHEM_SUBSTANCE_COMMENT>
InChI=1S/C12H17N3O3S/c1-5-9(16)13-6-8-7-19-10(14-8)15-11(17)18-12(2,3)4/h5,7H,1,6H2,2-4H3,(H,13,16)(H,14,15,17)
InChIKey=CEXLZVRYVPIQMD-UHFFFAOYSA-N

> <PUBCHEM_SUBSTANCE_SYNONYM>
SCHEMBL16123391

> <PUBCHEM_XREF_EXT_ID>
SCHEMBL16123391

> <PUBCHEM_EXT_DATASOURCE_URL>
https://www.surechembl.org/

> <PUBCHEM_EXT_SUBSTANCE_URL>
https://www.surechembl.org/chemical/SCHEMBL16123391

> <PUBCHEM_CID_ASSOCIATIONS>
117611352  1

> <PUBCHEM_COORDINATE_TYPE>
1
3

$$$$
