310941544
  -OEChem-07211613022D

 27 30  0     0  0  0  0  0  0999 V2000
   -3.0640   -1.9710    0.0000 Cl  0  0  0  0  0  0  0  0  0  0  0  0
    0.7230    1.5062    0.0000 S   0  0  0  0  0  0  0  0  0  0  0  0
   -1.6181   -1.1619    0.0000 O   0  0  0  0  0  0  0  0  0  0  0  0
   -0.1722   -1.1447    0.0000 O   0  0  0  0  0  0  0  0  0  0  0  0
    3.6149    0.5250    0.0000 O   0  0  0  0  0  0  0  0  0  0  0  0
    0.5853    0.1808    0.0000 N   0  0  0  0  0  0  0  0  0  0  0  0
    1.9624    0.7144    0.0000 N   0  0  0  0  0  0  0  0  0  0  0  0
   -0.8952    0.1119    0.0000 C   0  0  0  0  0  0  0  0  0  0  0  0
   -0.1894    0.5250    0.0000 C   0  0  0  0  0  0  0  0  0  0  0  0
   -2.3410   -0.7144    0.0000 C   0  0  0  0  0  0  0  0  0  0  0  0
   -2.3238    0.1119    0.0000 C   0  0  0  0  0  0  0  0  0  0  0  0
   -0.9296   -0.7144    0.0000 C   0  0  0  0  0  0  0  0  0  0  0  0
   -1.6181    0.5078    0.0000 C   0  0  0  0  0  0  0  0  0  0  0  0
    1.1533    0.8177    0.0000 C   0  0  0  0  0  0  0  0  0  0  0  0
   -3.0468   -1.1275    0.0000 C   0  0  0  0  0  0  0  0  0  0  0  0
   -0.0689    1.3513    0.0000 C   0  0  0  0  0  0  0  0  0  0  0  0
   -3.0468    0.5078    0.0000 C   0  0  0  0  0  0  0  0  0  0  0  0
    2.2894   -0.0430    0.0000 C   0  0  0  0  0  0  0  0  0  0  0  0
   -3.7698   -0.7316    0.0000 C   0  0  0  0  0  0  0  0  0  0  0  0
   -3.7526    0.1119    0.0000 C   0  0  0  0  0  0  0  0  0  0  0  0
    3.1157   -0.1291    0.0000 C   0  0  0  0  0  0  0  0  0  0  0  0
    1.8246   -0.7488    0.0000 C   0  0  0  0  0  0  0  0  0  0  0  0
    3.4600   -0.9038    0.0000 C   0  0  0  0  0  0  0  0  0  0  0  0
    2.1518   -1.4718    0.0000 C   0  0  0  0  0  0  0  0  0  0  0  0
    2.9779   -1.5579    0.0000 C   0  0  0  0  0  0  0  0  0  0  0  0
    3.2878    1.2824    0.0000 C   0  0  0  0  0  0  0  0  0  0  0  0
    3.7698    1.9710    0.0000 C   0  0  0  0  0  0  0  0  0  0  0  0
  1 15  1  0  0  0  0
  2 14  1  0  0  0  0
  2 16  1  0  0  0  0
  3 10  1  0  0  0  0
  3 12  1  0  0  0  0
  4 12  2  0  0  0  0
  5 21  1  0  0  0  0
  5 26  1  0  0  0  0
  6  9  1  0  0  0  0
  6 14  2  0  0  0  0
  7 14  1  0  0  0  0
  7 18  1  0  0  0  0
  8  9  1  0  0  0  0
  8 12  1  0  0  0  0
  8 13  2  0  0  0  0
  9 16  2  0  0  0  0
 10 11  1  0  0  0  0
 10 15  2  0  0  0  0
 11 13  1  0  0  0  0
 11 17  2  0  0  0  0
 15 19  1  0  0  0  0
 17 20  1  0  0  0  0
 18 21  1  0  0  0  0
 18 22  2  0  0  0  0
 19 20  2  0  0  0  0
 21 23  2  0  0  0  0
 22 24  1  0  0  0  0
 23 25  1  0  0  0  0
 24 25  2  0  0  0  0
 26 27  1  0  0  0  0
M  END
> <PUBCHEM_COMPOUND_ID_TYPE>
0

> <PUBCHEM_TOTAL_CHARGE>
0

> <PUBCHEM_SUBSTANCE_ID>
310941544

> <PUBCHEM_SUBSTANCE_VERSION>
1

> <PUBCHEM_EXT_DATASOURCE_NAME>
4488

> <PUBCHEM_EXT_DATASOURCE_REGID>
SCHEMBL16119575

> <PUBCHEM_SUBSTANCE_COMMENT>
InChI=1S/C20H15ClN2O3S/c1-2-25-17-9-4-3-8-15(17)22-20-23-16(11-27-20)13-10-12-6-5-7-14(21)18(12)26-19(13)24/h3-11H,2H2,1H3,(H,22,23)
InChIKey=TZJXGTDDOFGQOL-UHFFFAOYSA-N

> <PUBCHEM_SUBSTANCE_SYNONYM>
SCHEMBL16119575

> <PUBCHEM_XREF_EXT_ID>
SCHEMBL16119575

> <PUBCHEM_EXT_DATASOURCE_URL>
https://www.surechembl.org/

> <PUBCHEM_EXT_SUBSTANCE_URL>
https://www.surechembl.org/chemical/SCHEMBL16119575

> <PUBCHEM_CID_ASSOCIATIONS>
117608351  1

> <PUBCHEM_COORDINATE_TYPE>
1
3

$$$$
