310941669
  -OEChem-07211613022D

 27 30  0     0  0  0  0  0  0999 V2000
    0.3922    1.9358    0.0000 S   0  0  0  0  0  0  0  0  0  0  0  0
   -1.9443   -0.7248    0.0000 O   0  0  0  0  0  0  0  0  0  0  0  0
   -0.5117   -0.7248    0.0000 O   0  0  0  0  0  0  0  0  0  0  0  0
   -3.3599   -1.5435    0.0000 O   0  0  0  0  0  0  0  0  0  0  0  0
    3.2575    0.9466    0.0000 O   0  0  0  0  0  0  0  0  0  0  0  0
    0.2558    0.5884    0.0000 N   0  0  0  0  0  0  0  0  0  0  0  0
    1.6373    1.1342    0.0000 N   0  0  0  0  0  0  0  0  0  0  0  0
   -1.1939    0.5373    0.0000 C   0  0  0  0  0  0  0  0  0  0  0  0
   -2.6606   -0.2984    0.0000 C   0  0  0  0  0  0  0  0  0  0  0  0
   -0.5117    0.9466    0.0000 C   0  0  0  0  0  0  0  0  0  0  0  0
   -2.6436    0.5373    0.0000 C   0  0  0  0  0  0  0  0  0  0  0  0
   -1.2279   -0.2814    0.0000 C   0  0  0  0  0  0  0  0  0  0  0  0
   -1.9272    0.9466    0.0000 C   0  0  0  0  0  0  0  0  0  0  0  0
   -3.3599   -0.6908    0.0000 C   0  0  0  0  0  0  0  0  0  0  0  0
    0.8016    1.2365    0.0000 C   0  0  0  0  0  0  0  0  0  0  0  0
   -0.4093    1.7652    0.0000 C   0  0  0  0  0  0  0  0  0  0  0  0
   -3.3769    0.9295    0.0000 C   0  0  0  0  0  0  0  0  0  0  0  0
   -4.0421   -0.3155    0.0000 C   0  0  0  0  0  0  0  0  0  0  0  0
    1.9443    0.4008    0.0000 C   0  0  0  0  0  0  0  0  0  0  0  0
   -4.0591    0.5202    0.0000 C   0  0  0  0  0  0  0  0  0  0  0  0
    2.7629    0.2984    0.0000 C   0  0  0  0  0  0  0  0  0  0  0  0
    1.4838   -0.3155    0.0000 C   0  0  0  0  0  0  0  0  0  0  0  0
    3.1040   -0.4690    0.0000 C   0  0  0  0  0  0  0  0  0  0  0  0
    1.8078   -1.0319    0.0000 C   0  0  0  0  0  0  0  0  0  0  0  0
    2.6436   -1.1171    0.0000 C   0  0  0  0  0  0  0  0  0  0  0  0
   -4.0421   -1.9358    0.0000 C   0  0  0  0  0  0  0  0  0  0  0  0
    4.0591    0.8272    0.0000 C   0  0  0  0  0  0  0  0  0  0  0  0
  1 15  1  0  0  0  0
  1 16  1  0  0  0  0
  2  9  1  0  0  0  0
  2 12  1  0  0  0  0
  3 12  2  0  0  0  0
  4 14  1  0  0  0  0
  4 26  1  0  0  0  0
  5 21  1  0  0  0  0
  5 27  1  0  0  0  0
  6 10  1  0  0  0  0
  6 15  2  0  0  0  0
  7 15  1  0  0  0  0
  7 19  1  0  0  0  0
  8 10  1  0  0  0  0
  8 12  1  0  0  0  0
  8 13  2  0  0  0  0
  9 11  1  0  0  0  0
  9 14  2  0  0  0  0
 10 16  2  0  0  0  0
 11 13  1  0  0  0  0
 11 17  2  0  0  0  0
 14 18  1  0  0  0  0
 17 20  1  0  0  0  0
 18 20  2  0  0  0  0
 19 21  1  0  0  0  0
 19 22  2  0  0  0  0
 21 23  2  0  0  0  0
 22 24  1  0  0  0  0
 23 25  1  0  0  0  0
 24 25  2  0  0  0  0
M  END
> <PUBCHEM_COMPOUND_ID_TYPE>
0

> <PUBCHEM_TOTAL_CHARGE>
0

> <PUBCHEM_SUBSTANCE_ID>
310941669

> <PUBCHEM_SUBSTANCE_VERSION>
1

> <PUBCHEM_EXT_DATASOURCE_NAME>
4488

> <PUBCHEM_EXT_DATASOURCE_REGID>
SCHEMBL16119700

> <PUBCHEM_SUBSTANCE_COMMENT>
InChI=1S/C20H16N2O4S/c1-24-16-8-4-3-7-14(16)21-20-22-15(11-27-20)13-10-12-6-5-9-17(25-2)18(12)26-19(13)23/h3-11H,1-2H3,(H,21,22)
InChIKey=QDRDQVFWKTXHLA-UHFFFAOYSA-N

> <PUBCHEM_SUBSTANCE_SYNONYM>
SCHEMBL16119700

> <PUBCHEM_XREF_EXT_ID>
SCHEMBL16119700

> <PUBCHEM_EXT_DATASOURCE_URL>
https://www.surechembl.org/

> <PUBCHEM_EXT_SUBSTANCE_URL>
https://www.surechembl.org/chemical/SCHEMBL16119700

> <PUBCHEM_CID_ASSOCIATIONS>
1256683  1

> <PUBCHEM_COORDINATE_TYPE>
1
3

$$$$
