310940514
  -OEChem-07211613022D

 21 23  0     0  0  0  0  0  0999 V2000
   -1.4509   -2.0622    0.0000 O   0  0  0  0  0  0  0  0  0  0  0  0
   -0.7173   -0.8233    0.0000 N   0  0  0  0  0  0  0  0  0  0  0  0
    0.7010   -3.3012    0.0000 N   0  0  0  0  0  0  0  0  0  0  0  0
    1.4346   -2.8936    0.0000 N   0  0  0  0  0  0  0  0  0  0  0  0
   -0.7336   -1.6221    0.0000 C   0  0  0  0  0  0  0  0  0  0  0  0
   -0.7173    0.8558    0.0000 C   0  0  0  0  0  0  0  0  0  0  0  0
   -0.7173    1.6547    0.0000 C   0  0  0  0  0  0  0  0  0  0  0  0
    0.0000   -2.0622    0.0000 C   0  0  0  0  0  0  0  0  0  0  0  0
    0.0000   -0.4157    0.0000 C   0  0  0  0  0  0  0  0  0  0  0  0
   -1.4509   -0.3994    0.0000 C   0  0  0  0  0  0  0  0  0  0  0  0
    0.0000    0.4157    0.0000 C   0  0  0  0  0  0  0  0  0  0  0  0
   -1.4346    0.3994    0.0000 C   0  0  0  0  0  0  0  0  0  0  0  0
    0.0000    2.0785    0.0000 C   0  0  0  0  0  0  0  0  0  0  0  0
   -1.4183    2.0785    0.0000 C   0  0  0  0  0  0  0  0  0  0  0  0
    0.0000   -2.8936    0.0000 C   0  0  0  0  0  0  0  0  0  0  0  0
    0.7173   -1.6547    0.0000 C   0  0  0  0  0  0  0  0  0  0  0  0
    0.0000    2.8773    0.0000 C   0  0  0  0  0  0  0  0  0  0  0  0
    1.4509   -2.0948    0.0000 C   0  0  0  0  0  0  0  0  0  0  0  0
   -1.4346    2.8936    0.0000 C   0  0  0  0  0  0  0  0  0  0  0  0
   -0.7010    3.3012    0.0000 C   0  0  0  0  0  0  0  0  0  0  0  0
    0.6032    1.7361    0.0000 C   0  0  0  0  0  0  0  0  0  0  0  0
  1  5  2  0  0  0  0
  2  5  1  0  0  0  0
  2  9  1  0  0  0  0
  2 10  1  0  0  0  0
  3  4  2  0  0  0  0
  3 15  1  0  0  0  0
  4 18  1  0  0  0  0
  5  8  1  0  0  0  0
  6  7  1  0  0  0  0
  6 11  1  0  0  0  0
  6 12  1  0  0  0  0
  7 13  2  0  0  0  0
  7 14  1  0  0  0  0
  8 15  2  0  0  0  0
  8 16  1  0  0  0  0
  9 11  1  0  0  0  0
 10 12  1  0  0  0  0
 13 17  1  0  0  0  0
 13 21  1  0  0  0  0
 14 19  2  0  0  0  0
 16 18  2  0  0  0  0
 17 20  2  0  0  0  0
 19 20  1  0  0  0  0
M  END
> <PUBCHEM_COMPOUND_ID_TYPE>
0

> <PUBCHEM_TOTAL_CHARGE>
0

> <PUBCHEM_SUBSTANCE_ID>
310940514

> <PUBCHEM_SUBSTANCE_VERSION>
1

> <PUBCHEM_EXT_DATASOURCE_NAME>
4488

> <PUBCHEM_EXT_DATASOURCE_REGID>
SCHEMBL16118468

> <PUBCHEM_SUBSTANCE_COMMENT>
InChI=1S/C17H19N3O/c1-13-4-2-3-5-16(13)14-7-10-20(11-8-14)17(21)15-6-9-18-19-12-15/h2-6,9,12,14H,7-8,10-11H2,1H3
InChIKey=RSJSDJZJPWMBKT-UHFFFAOYSA-N

> <PUBCHEM_SUBSTANCE_SYNONYM>
SCHEMBL16118468

> <PUBCHEM_XREF_EXT_ID>
SCHEMBL16118468

> <PUBCHEM_EXT_DATASOURCE_URL>
https://www.surechembl.org/

> <PUBCHEM_EXT_SUBSTANCE_URL>
https://www.surechembl.org/chemical/SCHEMBL16118468

> <PUBCHEM_CID_ASSOCIATIONS>
117607529  1

> <PUBCHEM_COORDINATE_TYPE>
1
3

$$$$
