310946304
  -OEChem-07211613022D

 21 22  0     0  0  0  0  0  0999 V2000
    0.1821   -1.2182    0.0000 I   0  0  0  0  0  0  0  0  0  0  0  0
   -1.2469   -3.6932    0.0000 I   0  0  0  0  0  0  0  0  0  0  0  0
   -1.2469   -2.0432    0.0000 O   0  0  0  0  0  0  0  0  0  0  0  0
   -4.1047   -3.6932    0.0000 O   0  0  0  0  0  0  0  0  0  0  0  0
    3.0400   -1.2182    0.0000 O   0  0  0  0  0  0  0  0  0  0  0  0
    3.7544   -2.4557    0.0000 O   0  0  0  0  0  0  0  0  0  0  0  0
   -0.5324   -2.4557    0.0000 C   0  0  0  0  0  0  0  0  0  0  0  0
    0.1821   -2.0432    0.0000 C   0  0  0  0  0  0  0  0  0  0  0  0
    0.8966   -2.4557    0.0000 C   0  0  0  0  0  0  0  0  0  0  0  0
   -0.5324   -3.2807    0.0000 C   0  0  0  0  0  0  0  0  0  0  0  0
   -1.9613   -2.4557    0.0000 C   0  0  0  0  0  0  0  0  0  0  0  0
    0.8966   -3.2807    0.0000 C   0  0  0  0  0  0  0  0  0  0  0  0
    0.1821   -3.6932    0.0000 C   0  0  0  0  0  0  0  0  0  0  0  0
    1.6110   -2.0432    0.0000 C   0  0  0  0  0  0  0  0  0  0  0  0
   -2.6758   -2.0432    0.0000 C   0  0  0  0  0  0  0  0  0  0  0  0
   -1.9613   -3.2807    0.0000 C   0  0  0  0  0  0  0  0  0  0  0  0
   -3.3903   -3.2807    0.0000 C   0  0  0  0  0  0  0  0  0  0  0  0
   -3.3903   -2.4557    0.0000 C   0  0  0  0  0  0  0  0  0  0  0  0
   -2.6758   -3.6932    0.0000 C   0  0  0  0  0  0  0  0  0  0  0  0
    2.3255   -2.4557    0.0000 C   0  0  0  0  0  0  0  0  0  0  0  0
    3.0400   -2.0432    0.0000 C   0  0  0  0  0  0  0  0  0  0  0  0
  1  8  1  0  0  0  0
  2 10  1  0  0  0  0
  3  7  1  0  0  0  0
  3 11  1  0  0  0  0
  4 17  1  0  0  0  0
  5 21  2  0  0  0  0
  6 21  1  0  0  0  0
  7  8  1  0  0  0  0
  7 10  2  0  0  0  0
  8  9  2  0  0  0  0
  9 12  1  0  0  0  0
  9 14  1  0  0  0  0
 10 13  1  0  0  0  0
 11 15  2  0  0  0  0
 11 16  1  0  0  0  0
 12 13  2  0  0  0  0
 14 20  1  0  0  0  0
 15 18  1  0  0  0  0
 16 19  2  0  0  0  0
 17 18  2  0  0  0  0
 17 19  1  0  0  0  0
 20 21  1  0  0  0  0
M  END
> <PUBCHEM_COMPOUND_ID_TYPE>
0

> <PUBCHEM_TOTAL_CHARGE>
0

> <PUBCHEM_SUBSTANCE_ID>
310946304

> <PUBCHEM_SUBSTANCE_VERSION>
1

> <PUBCHEM_EXT_DATASOURCE_NAME>
4488

> <PUBCHEM_EXT_DATASOURCE_REGID>
SCHEMBL16124423

> <PUBCHEM_SUBSTANCE_COMMENT>
InChI=1S/C15H12I2O4/c16-12-7-1-9(2-8-13(19)20)14(17)15(12)21-11-5-3-10(18)4-6-11/h1,3-7,18H,2,8H2,(H,19,20)
InChIKey=RDLUIMMKEZXFEA-UHFFFAOYSA-N

> <PUBCHEM_SUBSTANCE_SYNONYM>
SCHEMBL16124423

> <PUBCHEM_XREF_EXT_ID>
SCHEMBL16124423

> <PUBCHEM_EXT_DATASOURCE_URL>
https://www.surechembl.org/

> <PUBCHEM_EXT_SUBSTANCE_URL>
https://www.surechembl.org/chemical/SCHEMBL16124423

> <PUBCHEM_CID_ASSOCIATIONS>
117612246  1

> <PUBCHEM_COORDINATE_TYPE>
1
3

$$$$
