310935967
  -OEChem-07211613022D

 29 31  0     0  0  0  0  0  0999 V2000
    8.2453   -2.9409    0.0000 F   0  0  0  0  0  0  0  0  0  0  0  0
    0.7146    0.0000    0.0000 F   0  0  0  0  0  0  0  0  0  0  0  0
    0.0000   -1.2643    0.0000 F   0  0  0  0  0  0  0  0  0  0  0  0
    1.4292   -0.4123    0.0000 F   0  0  0  0  0  0  0  0  0  0  0  0
    4.3975   -2.2812    0.0000 O   0  0  0  0  0  0  0  0  0  0  0  0
    1.4292   -3.7929    0.0000 O   0  0  0  0  0  0  0  0  0  0  0  0
    4.0952   -5.0297    0.0000 O   0  0  0  0  0  0  0  0  0  0  0  0
    5.4694   -4.5624    0.0000 O   0  0  0  0  0  0  0  0  0  0  0  0
    3.6005   -3.3806    0.0000 C   0  0  0  0  0  0  0  0  0  0  0  0
    4.3975   -3.6005    0.0000 C   0  0  0  0  0  0  0  0  0  0  0  0
    3.6005   -2.5011    0.0000 C   0  0  0  0  0  0  0  0  0  0  0  0
    4.8923   -2.9409    0.0000 C   0  0  0  0  0  0  0  0  0  0  0  0
    2.8584   -3.7929    0.0000 C   0  0  0  0  0  0  0  0  0  0  0  0
    2.1438   -3.3806    0.0000 C   0  0  0  0  0  0  0  0  0  0  0  0
    5.7168   -2.9409    0.0000 C   0  0  0  0  0  0  0  0  0  0  0  0
    2.1438   -2.5011    0.0000 C   0  0  0  0  0  0  0  0  0  0  0  0
    2.8584   -2.1163    0.0000 C   0  0  0  0  0  0  0  0  0  0  0  0
    4.6449   -4.3975    0.0000 C   0  0  0  0  0  0  0  0  0  0  0  0
    6.1565   -2.2263    0.0000 C   0  0  0  0  0  0  0  0  0  0  0  0
    6.1565   -3.6554    0.0000 C   0  0  0  0  0  0  0  0  0  0  0  0
    1.4292   -2.0888    0.0000 C   0  0  0  0  0  0  0  0  0  0  0  0
    6.9811   -2.2263    0.0000 C   0  0  0  0  0  0  0  0  0  0  0  0
    6.9811   -3.6554    0.0000 C   0  0  0  0  0  0  0  0  0  0  0  0
    1.4292   -1.2643    0.0000 C   0  0  0  0  0  0  0  0  0  0  0  0
    7.3933   -2.9409    0.0000 C   0  0  0  0  0  0  0  0  0  0  0  0
    1.4292   -4.6449    0.0000 C   0  0  0  0  0  0  0  0  0  0  0  0
    0.7146   -0.8520    0.0000 C   0  0  0  0  0  0  0  0  0  0  0  0
    0.7146   -5.0571    0.0000 C   0  0  0  0  0  0  0  0  0  0  0  0
    2.1438   -5.0571    0.0000 C   0  0  0  0  0  0  0  0  0  0  0  0
  1 25  1  0  0  0  0
  2 27  1  0  0  0  0
  3 27  1  0  0  0  0
  4 27  1  0  0  0  0
  5 11  1  0  0  0  0
  5 12  1  0  0  0  0
  6 14  1  0  0  0  0
  6 26  1  0  0  0  0
  7 18  2  0  0  0  0
  8 18  1  0  0  0  0
  9 10  1  0  0  0  0
  9 11  2  0  0  0  0
  9 13  1  0  0  0  0
 10 12  2  0  0  0  0
 10 18  1  0  0  0  0
 11 17  1  0  0  0  0
 12 15  1  0  0  0  0
 13 14  2  0  0  0  0
 14 16  1  0  0  0  0
 15 19  2  0  0  0  0
 15 20  1  0  0  0  0
 16 17  2  0  0  0  0
 16 21  1  0  0  0  0
 19 22  1  0  0  0  0
 20 23  2  0  0  0  0
 21 24  1  0  0  0  0
 22 25  2  0  0  0  0
 23 25  1  0  0  0  0
 24 27  1  0  0  0  0
 26 28  1  0  0  0  0
 26 29  1  0  0  0  0
M  END
> <PUBCHEM_COMPOUND_ID_TYPE>
0

> <PUBCHEM_TOTAL_CHARGE>
0

> <PUBCHEM_SUBSTANCE_ID>
310935967

> <PUBCHEM_SUBSTANCE_VERSION>
1

> <PUBCHEM_EXT_DATASOURCE_NAME>
4488

> <PUBCHEM_EXT_DATASOURCE_REGID>
SCHEMBL16113566

> <PUBCHEM_SUBSTANCE_COMMENT>
InChI=1S/C21H18F4O4/c1-11(2)28-16-10-15-17(9-13(16)7-8-21(23,24)25)29-19(18(15)20(26)27)12-3-5-14(22)6-4-12/h3-6,9-11H,7-8H2,1-2H3,(H,26,27)
InChIKey=GTMNHFGABVSZGQ-UHFFFAOYSA-N

> <PUBCHEM_SUBSTANCE_SYNONYM>
SCHEMBL16113566

> <PUBCHEM_XREF_EXT_ID>
SCHEMBL16113566

> <PUBCHEM_EXT_DATASOURCE_URL>
https://www.surechembl.org/

> <PUBCHEM_EXT_SUBSTANCE_URL>
https://www.surechembl.org/chemical/SCHEMBL16113566

> <PUBCHEM_CID_ASSOCIATIONS>
117603942  1

> <PUBCHEM_COORDINATE_TYPE>
1
3

$$$$
