310942703
  -OEChem-07211613022D

 57 62  0     1  0  0  0  0  0999 V2000
   -1.7205    2.5059    0.0000 F   0  0  0  0  0  0  0  0  0  0  0  0
   -1.7205   -0.8154    0.0000 F   0  0  0  0  0  0  0  0  0  0  0  0
    4.7725    0.6059    0.0000 F   0  0  0  0  0  0  0  0  0  0  0  0
    0.8079    0.7406    0.0000 O   0  0  0  0  0  0  0  0  0  0  0  0
    0.5984   -0.5012    0.0000 O   0  0  0  0  0  0  0  0  0  0  0  0
    3.3063    3.8823    0.0000 O   0  0  0  0  0  0  0  0  0  0  0  0
   -1.6607    4.6005    0.0000 O   0  0  0  0  0  0  0  0  0  0  0  0
    0.9575   -1.8776    0.0000 O   0  0  0  0  0  0  0  0  0  0  0  0
   -3.3961   -6.0217    0.0000 O   0  0  0  0  0  0  0  0  0  0  0  0
   -3.9646   -3.1642    0.0000 O   0  0  0  0  0  0  0  0  0  0  0  0
   -1.6457   -3.3138    0.0000 O   0  0  0  0  0  0  0  0  0  0  0  0
    0.6283    2.6705    0.0000 N   0  0  0  0  0  0  0  0  0  0  0  0
    2.1992    1.1146    0.0000 N   0  0  0  0  0  0  0  0  0  0  0  0
    0.4787    1.3390    0.0000 N   0  0  0  0  0  0  0  0  0  0  0  0
    3.4410   -1.0847    0.0000 N   0  0  0  0  0  0  0  0  0  0  0  0
   -0.4189   -1.5036    0.0000 N   0  0  0  0  0  0  0  0  0  0  0  0
   -3.4410   -4.5406    0.0000 N   0  0  0  0  0  0  0  0  0  0  0  0
    1.0323    1.9674    0.0000 C   0  0  0  0  0  0  0  0  0  0  0  0
    1.8701    1.8626    0.0000 C   0  0  3  0  0  0  0  0  0  0  0  0
   -0.2842    1.6831    0.0000 C   0  0  0  0  0  0  0  0  0  0  0  0
    2.3489    2.5508    0.0000 C   0  0  0  0  0  0  0  0  0  0  0  0
   -0.1796    2.5059    0.0000 C   0  0  0  0  0  0  0  0  0  0  0  0
   -1.0024    1.2642    0.0000 C   0  0  0  0  0  0  0  0  0  0  0  0
    1.6158    0.5311    0.0000 C   0  0  0  0  0  0  0  0  0  0  0  0
    0.9575    3.4335    0.0000 C   0  0  0  0  0  0  0  0  0  0  0  0
    3.0221    1.0098    0.0000 C   0  0  0  0  0  0  0  0  0  0  0  0
   -1.7354    1.6831    0.0000 C   0  0  0  0  0  0  0  0  0  0  0  0
    3.3362    0.2618    0.0000 C   0  0  3  0  0  0  0  0  0  0  0  0
    0.4787    4.0918    0.0000 C   0  0  0  0  0  0  0  0  0  0  0  0
    2.0048    3.2988    0.0000 C   0  0  0  0  0  0  0  0  0  0  0  0
    3.1717    2.4611    0.0000 C   0  0  0  0  0  0  0  0  0  0  0  0
   -1.0173    0.4264    0.0000 C   0  0  0  0  0  0  0  0  0  0  0  0
    1.3913   -0.2768    0.0000 C   0  0  3  0  0  0  0  0  0  0  0  0
   -1.7055    0.0225    0.0000 C   0  0  0  0  0  0  0  0  0  0  0  0
    4.1292    0.0673    0.0000 C   0  0  3  0  0  0  0  0  0  0  0  0
   -2.4386    1.2642    0.0000 C   0  0  0  0  0  0  0  0  0  0  0  0
    2.4985    3.9721    0.0000 C   0  0  0  0  0  0  0  0  0  0  0  0
    3.6504    3.1492    0.0000 C   0  0  0  0  0  0  0  0  0  0  0  0
   -0.3441    4.0320    0.0000 C   0  0  0  0  0  0  0  0  0  0  0  0
    0.8079    4.8697    0.0000 C   0  0  0  0  0  0  0  0  0  0  0  0
    2.9024   -0.4563    0.0000 C   0  0  0  0  0  0  0  0  0  0  0  0
   -2.4386    0.4264    0.0000 C   0  0  0  0  0  0  0  0  0  0  0  0
    4.2040   -0.7555    0.0000 C   0  0  0  0  0  0  0  0  0  0  0  0
   -0.8228    4.6903    0.0000 C   0  0  0  0  0  0  0  0  0  0  0  0
    0.3142    5.5280    0.0000 C   0  0  0  0  0  0  0  0  0  0  0  0
    1.9599   -0.8453    0.0000 C   0  0  0  0  0  0  0  0  0  0  0  0
   -0.4937    5.4383    0.0000 C   0  0  0  0  0  0  0  0  0  0  0  0
    0.3590   -1.2642    0.0000 C   0  0  0  0  0  0  0  0  0  0  0  0
    0.5386    6.0217    0.0000 C   0  0  0  0  0  0  0  0  0  0  0  0
   -3.8150   -5.2587    0.0000 C   0  0  0  0  0  0  0  0  0  0  0  0
   -4.0694   -4.0020    0.0000 C   0  0  0  0  0  0  0  0  0  0  0  0
   -0.6283   -2.2965    0.0000 C   0  0  0  0  0  0  0  0  0  0  0  0
   -4.6229   -5.1839    0.0000 C   0  0  0  0  0  0  0  0  0  0  0  0
   -4.7725   -4.3611    0.0000 C   0  0  0  0  0  0  0  0  0  0  0  0
   -2.6481   -4.3162    0.0000 C   0  0  0  0  0  0  0  0  0  0  0  0
   -1.4212   -2.5059    0.0000 C   0  0  0  0  0  0  0  0  0  0  0  0
   -2.4236   -3.5232    0.0000 C   0  0  0  0  0  0  0  0  0  0  0  0
  1 27  1  0  0  0  0
  2 34  1  0  0  0  0
 35  3  1  1  0  0  0
  4 24  2  0  0  0  0
  5 33  1  0  0  0  0
  5 48  1  0  0  0  0
  6 37  1  0  0  0  0
  6 38  1  0  0  0  0
  7 44  1  0  0  0  0
  8 48  2  0  0  0  0
  9 50  2  0  0  0  0
 10 51  2  0  0  0  0
 11 56  1  0  0  0  0
 11 57  1  0  0  0  0
 12 18  1  0  0  0  0
 12 22  1  0  0  0  0
 12 25  1  0  0  0  0
 19 13  1  1  0  0  0
 13 24  1  0  0  0  0
 13 26  1  0  0  0  0
 14 18  2  0  0  0  0
 14 20  1  0  0  0  0
 15 41  1  0  0  0  0
 15 43  1  0  0  0  0
 16 48  1  0  0  0  0
 16 52  1  0  0  0  0
 17 50  1  0  0  0  0
 17 51  1  0  0  0  0
 17 55  1  0  0  0  0
 18 19  1  0  0  0  0
 19 21  1  0  0  0  0
 20 22  2  0  0  0  0
 20 23  1  0  0  0  0
 21 30  1  0  0  0  0
 21 31  1  0  0  0  0
 23 27  2  0  0  0  0
 23 32  1  0  0  0  0
 24 33  1  0  0  0  0
 25 29  1  0  0  0  0
 28 26  1  1  0  0  0
 27 36  1  0  0  0  0
 28 35  1  0  0  0  0
 28 41  1  0  0  0  0
 29 39  2  0  0  0  0
 29 40  1  0  0  0  0
 30 37  1  0  0  0  0
 31 38  1  0  0  0  0
 32 34  2  0  0  0  0
 33 46  1  6  0  0  0
 34 42  1  0  0  0  0
 35 43  1  0  0  0  0
 36 42  2  0  0  0  0
 39 44  1  0  0  0  0
 40 45  2  0  0  0  0
 44 47  2  0  0  0  0
 45 47  1  0  0  0  0
 45 49  1  0  0  0  0
 50 53  1  0  0  0  0
 51 54  1  0  0  0  0
 52 56  1  0  0  0  0
 53 54  2  0  0  0  0
 55 57  1  0  0  0  0
M  END
> <PUBCHEM_COMPOUND_ID_TYPE>
0

> <PUBCHEM_TOTAL_CHARGE>
0

> <PUBCHEM_SUBSTANCE_ID>
310942703

> <PUBCHEM_SUBSTANCE_VERSION>
1

> <PUBCHEM_EXT_DATASOURCE_NAME>
4488

> <PUBCHEM_EXT_DATASOURCE_REGID>
SCHEMBL16120749

> <PUBCHEM_SUBSTANCE_COMMENT>
InChI=1S/C40H47F3N6O8/c1-24-15-26(17-30(50)16-24)21-47-23-34(31-18-29(41)3-4-32(31)42)46-38(47)37(27-7-11-55-12-8-27)49(22-28-19-44-20-33(28)43)39(53)25(2)57-40(54)45-9-13-56-14-10-48-35(51)5-6-36(48)52/h3-6,15-18,23,25,27-28,33,37,44,50H,7-14,19-22H2,1-2H3,(H,45,54)/t25-,28-,33-,37+/m0/s1
InChIKey=FXRNZJCWZMJCLH-RCCLDIJBSA-N

> <PUBCHEM_SUBSTANCE_SYNONYM>
SCHEMBL16120749

> <PUBCHEM_XREF_EXT_ID>
SCHEMBL16120749

> <PUBCHEM_EXT_DATASOURCE_URL>
https://www.surechembl.org/

> <PUBCHEM_EXT_SUBSTANCE_URL>
https://www.surechembl.org/chemical/SCHEMBL16120749

> <PUBCHEM_CID_ASSOCIATIONS>
117609229  1

> <PUBCHEM_COORDINATE_TYPE>
1
3

> <PUBCHEM_BONDANNOTATIONS>
19  13  5
28  26  5
35  3  5
33  46  6

$$$$
