310942137
  -OEChem-07211613022D

 26 27  0     1  0  0  0  0  0999 V2000
    1.3573    1.4383    0.0000 Cl  0  0  0  0  0  0  0  0  0  0  0  0
   -0.0747   -1.0397    0.0000 F   0  0  0  0  0  0  0  0  0  0  0  0
    1.3573   -0.2179    0.0000 O   0  0  0  0  0  0  0  0  0  0  0  0
   -3.6360    0.2179    0.0000 O   0  0  0  0  0  0  0  0  0  0  0  0
   -2.2289    0.2055    0.0000 N   0  0  0  0  0  0  0  0  0  0  0  0
    4.3707    1.4383    0.0000 N   0  0  0  0  0  0  0  0  0  0  0  0
   -4.3707    1.4507    0.0000 N   0  0  0  0  0  0  0  0  0  0  0  0
    0.6350    0.2055    0.0000 C   0  0  0  0  0  0  0  0  0  0  0  0
   -0.0747   -0.2055    0.0000 C   0  0  0  0  0  0  0  0  0  0  0  0
   -0.8093    0.2055    0.0000 C   0  0  0  0  0  0  0  0  0  0  0  0
    0.6475    1.0397    0.0000 C   0  0  0  0  0  0  0  0  0  0  0  0
   -1.5068   -0.2055    0.0000 C   0  0  3  0  0  0  0  0  0  0  0  0
   -0.7845    1.0273    0.0000 C   0  0  0  0  0  0  0  0  0  0  0  0
   -0.0622    1.4383    0.0000 C   0  0  0  0  0  0  0  0  0  0  0  0
    2.0670    0.2055    0.0000 C   0  0  0  0  0  0  0  0  0  0  0  0
   -1.5068   -1.0397    0.0000 C   0  0  0  0  0  0  0  0  0  0  0  0
    2.8018   -0.2055    0.0000 C   0  0  0  0  0  0  0  0  0  0  0  0
    2.0919    1.0273    0.0000 C   0  0  0  0  0  0  0  0  0  0  0  0
   -2.2289    1.0397    0.0000 C   0  0  3  0  0  0  0  0  0  0  0  0
    3.5240    1.0397    0.0000 C   0  0  0  0  0  0  0  0  0  0  0  0
    3.5240    0.2055    0.0000 C   0  0  0  0  0  0  0  0  0  0  0  0
    2.8143    1.4383    0.0000 C   0  0  0  0  0  0  0  0  0  0  0  0
   -2.9512    1.4383    0.0000 C   0  0  0  0  0  0  0  0  0  0  0  0
   -0.7969   -1.4507    0.0000 C   0  0  0  0  0  0  0  0  0  0  0  0
   -1.5068    1.4383    0.0000 C   0  0  0  0  0  0  0  0  0  0  0  0
   -3.6610    1.0273    0.0000 C   0  0  0  0  0  0  0  0  0  0  0  0
  1 11  1  0  0  0  0
  2  9  1  0  0  0  0
  3  8  1  0  0  0  0
  3 15  1  0  0  0  0
  4 26  2  0  0  0  0
 12  5  1  1  0  0  0
  5 19  1  0  0  0  0
  6 20  1  0  0  0  0
  7 26  1  0  0  0  0
  8  9  2  0  0  0  0
  8 11  1  0  0  0  0
  9 10  1  0  0  0  0
 10 12  1  0  0  0  0
 10 13  2  0  0  0  0
 11 14  2  0  0  0  0
 12 16  1  0  0  0  0
 13 14  1  0  0  0  0
 15 17  2  0  0  0  0
 15 18  1  0  0  0  0
 16 24  1  0  0  0  0
 17 21  1  0  0  0  0
 18 22  2  0  0  0  0
 19 23  1  0  0  0  0
 19 25  1  1  0  0  0
 20 21  2  0  0  0  0
 20 22  1  0  0  0  0
 23 26  1  0  0  0  0
M  END
> <PUBCHEM_COMPOUND_ID_TYPE>
0

> <PUBCHEM_TOTAL_CHARGE>
0

> <PUBCHEM_SUBSTANCE_ID>
310942137

> <PUBCHEM_SUBSTANCE_VERSION>
1

> <PUBCHEM_EXT_DATASOURCE_NAME>
4488

> <PUBCHEM_EXT_DATASOURCE_REGID>
SCHEMBL16120172

> <PUBCHEM_SUBSTANCE_COMMENT>
InChI=1S/C19H23ClFN3O2/c1-3-16(24-11(2)10-17(23)25)14-8-9-15(20)19(18(14)21)26-13-6-4-12(22)5-7-13/h4-9,11,16,24H,3,10,22H2,1-2H3,(H2,23,25)/t11-,16-/m1/s1
InChIKey=NFRVNKYPSZHDRG-BDJLRTHQSA-N

> <PUBCHEM_SUBSTANCE_SYNONYM>
SCHEMBL16120172

> <PUBCHEM_XREF_EXT_ID>
SCHEMBL16120172

> <PUBCHEM_EXT_DATASOURCE_URL>
https://www.surechembl.org/

> <PUBCHEM_EXT_SUBSTANCE_URL>
https://www.surechembl.org/chemical/SCHEMBL16120172

> <PUBCHEM_CID_ASSOCIATIONS>
117608796  1

> <PUBCHEM_COORDINATE_TYPE>
1
3

> <PUBCHEM_BONDANNOTATIONS>
19  25  5
12  5  5

$$$$
