310934039
  -OEChem-07211613022D

 28 30  0     0  0  0  0  0  0999 V2000
    0.0000   -6.2327    0.0000 Cl  0  0  0  0  0  0  0  0  0  0  0  0
    2.4261   -4.8941    0.0000 S   0  0  0  0  0  0  0  0  0  0  0  0
    1.7569   -4.4758    0.0000 O   0  0  0  0  0  0  0  0  0  0  0  0
    3.1373   -5.3124    0.0000 O   0  0  0  0  0  0  0  0  0  0  0  0
    0.7529   -7.6549    0.0000 O   0  0  0  0  0  0  0  0  0  0  0  0
    5.3961    0.0000    0.0000 O   0  5  0  0  0  0  0  0  0  0  0  0
    5.3961   -1.4222    0.0000 O   0  0  0  0  0  0  0  0  0  0  0  0
    2.8444   -4.1830    0.0000 N   0  0  0  0  0  0  0  0  0  0  0  0
    4.1412   -2.0915    0.0000 N   0  0  0  0  0  0  0  0  0  0  0  0
    2.9281   -1.3804    0.0000 N   0  0  0  0  0  0  0  0  0  0  0  0
    4.9778   -0.7111    0.0000 N   0  3  0  0  0  0  0  0  0  0  0  0
    2.0078   -5.5634    0.0000 C   0  0  0  0  0  0  0  0  0  0  0  0
    1.2131   -5.5634    0.0000 C   0  0  0  0  0  0  0  0  0  0  0  0
    2.4261   -6.3163    0.0000 C   0  0  0  0  0  0  0  0  0  0  0  0
    2.4680   -3.4719    0.0000 C   0  0  0  0  0  0  0  0  0  0  0  0
    3.6810   -4.2248    0.0000 C   0  0  0  0  0  0  0  0  0  0  0  0
    0.7948   -6.2327    0.0000 C   0  0  0  0  0  0  0  0  0  0  0  0
    3.7229   -2.8026    0.0000 C   0  0  0  0  0  0  0  0  0  0  0  0
    1.2131   -6.9438    0.0000 C   0  0  0  0  0  0  0  0  0  0  0  0
    2.8863   -2.7608    0.0000 C   0  0  0  0  0  0  0  0  0  0  0  0
    4.0993   -3.5137    0.0000 C   0  0  0  0  0  0  0  0  0  0  0  0
    2.0078   -6.9856    0.0000 C   0  0  0  0  0  0  0  0  0  0  0  0
    3.7229   -1.3804    0.0000 C   0  0  0  0  0  0  0  0  0  0  0  0
    4.1412   -0.7111    0.0000 C   0  0  0  0  0  0  0  0  0  0  0  0
    3.7229    0.0000    0.0000 C   0  0  0  0  0  0  0  0  0  0  0  0
    2.5098   -0.7111    0.0000 C   0  0  0  0  0  0  0  0  0  0  0  0
    2.9281    0.0000    0.0000 C   0  0  0  0  0  0  0  0  0  0  0  0
    1.1712   -8.3660    0.0000 C   0  0  0  0  0  0  0  0  0  0  0  0
  1 17  1  0  0  0  0
  2  3  2  0  0  0  0
  2  4  2  0  0  0  0
  2  8  1  0  0  0  0
  2 12  1  0  0  0  0
  5 19  1  0  0  0  0
  5 28  1  0  0  0  0
  6 11  1  0  0  0  0
  7 11  2  0  0  0  0
  8 15  1  0  0  0  0
  8 16  1  0  0  0  0
  9 18  1  0  0  0  0
  9 23  1  0  0  0  0
 10 23  1  0  0  0  0
 10 26  2  0  0  0  0
 11 24  1  0  0  0  0
 12 13  1  0  0  0  0
 12 14  2  0  0  0  0
 13 17  2  0  0  0  0
 14 22  1  0  0  0  0
 15 20  1  0  0  0  0
 16 21  1  0  0  0  0
 17 19  1  0  0  0  0
 18 20  1  0  0  0  0
 18 21  1  0  0  0  0
 19 22  2  0  0  0  0
 23 24  2  0  0  0  0
 24 25  1  0  0  0  0
 25 27  2  0  0  0  0
 26 27  1  0  0  0  0
M  CHG  2   6  -1  11   1
M  END
> <PUBCHEM_COMPOUND_ID_TYPE>
0

> <PUBCHEM_TOTAL_CHARGE>
0

> <PUBCHEM_SUBSTANCE_ID>
310934039

> <PUBCHEM_SUBSTANCE_VERSION>
1

> <PUBCHEM_EXT_DATASOURCE_NAME>
4488

> <PUBCHEM_EXT_DATASOURCE_REGID>
SCHEMBL16111483

> <PUBCHEM_SUBSTANCE_COMMENT>
InChI=1S/C17H19ClN4O5S/c1-27-16-5-4-13(11-14(16)18)28(25,26)21-9-6-12(7-10-21)20-17-15(22(23)24)3-2-8-19-17/h2-5,8,11-12H,6-7,9-10H2,1H3,(H,19,20)
InChIKey=ZZYIANVDOXUMSE-UHFFFAOYSA-N

> <PUBCHEM_SUBSTANCE_SYNONYM>
SCHEMBL16111483

> <PUBCHEM_XREF_EXT_ID>
SCHEMBL16111483

> <PUBCHEM_EXT_DATASOURCE_URL>
https://www.surechembl.org/

> <PUBCHEM_EXT_SUBSTANCE_URL>
https://www.surechembl.org/chemical/SCHEMBL16111483

> <PUBCHEM_CID_ASSOCIATIONS>
117602338  1

> <PUBCHEM_COORDINATE_TYPE>
1
3

$$$$
