310930098
  -OEChem-07211613022D

 70 76  0     1  0  0  0  0  0999 V2000
    2.4840   -7.7723    0.0000 O   0  0  0  0  0  0  0  0  0  0  0  0
   11.2178   -3.1250    0.0000 O   0  0  0  0  0  0  0  0  0  0  0  0
    6.0897   -8.7339    0.0000 O   0  0  0  0  0  0  0  0  0  0  0  0
    8.5736   -5.7691    0.0000 O   0  0  0  0  0  0  0  0  0  0  0  0
    5.2884   -7.2916    0.0000 O   0  0  0  0  0  0  0  0  0  0  0  0
   10.2563   -5.8493    0.0000 O   0  0  0  0  0  0  0  0  0  0  0  0
   11.1376  -11.6184    0.0000 O   0  0  0  0  0  0  0  0  0  0  0  0
   13.7017  -11.6184    0.0000 O   0  0  0  0  0  0  0  0  0  0  0  0
   15.3844  -13.0607    0.0000 O   0  0  0  0  0  0  0  0  0  0  0  0
   17.4677  -13.8620    0.0000 O   0  0  0  0  0  0  0  0  0  0  0  0
   19.2305  -15.3042    0.0000 O   0  0  0  0  0  0  0  0  0  0  0  0
   21.3138  -14.5831    0.0000 O   0  0  0  0  0  0  0  0  0  0  0  0
   22.5958  -15.3042    0.0000 O   0  0  0  0  0  0  0  0  0  0  0  0
    2.0833   -9.2146    0.0000 N   0  0  0  0  0  0  0  0  0  0  0  0
   10.1762   -2.1634    0.0000 N   0  0  0  0  0  0  0  0  0  0  0  0
    3.6858  -10.2563    0.0000 N   0  0  0  0  0  0  0  0  0  0  0  0
    8.4935   -2.9647    0.0000 N   0  0  0  0  0  0  0  0  0  0  0  0
   11.1376  -10.1762    0.0000 N   0  0  0  0  0  0  0  0  0  0  0  0
   21.3138  -16.0254    0.0000 N   0  0  0  0  0  0  0  0  0  0  0  0
    3.5256   -8.7339    0.0000 C   0  0  0  0  0  0  0  0  0  0  0  0
    9.8556   -3.6057    0.0000 C   0  0  0  0  0  0  0  0  0  0  0  0
    2.7243   -8.5736    0.0000 C   0  0  0  0  0  0  0  0  0  0  0  0
   10.4165   -2.9647    0.0000 C   0  0  0  0  0  0  0  0  0  0  0  0
    4.0064   -9.4550    0.0000 C   0  0  0  0  0  0  0  0  0  0  0  0
    8.9742   -3.6057    0.0000 C   0  0  0  0  0  0  0  0  0  0  0  0
    2.1634  -10.0960    0.0000 C   0  0  3  0  0  0  0  0  0  0  0  0
    9.3749   -1.7628    0.0000 C   0  0  3  0  0  0  0  0  0  0  0  0
    4.0064   -8.0127    0.0000 C   0  0  0  0  0  0  0  0  0  0  0  0
   10.2563   -4.3268    0.0000 C   0  0  0  0  0  0  0  0  0  0  0  0
    5.2083   -8.7339    0.0000 C   0  0  0  0  0  0  0  0  0  0  0  0
    9.0543   -5.0480    0.0000 C   0  0  0  0  0  0  0  0  0  0  0  0
    4.8076   -8.0127    0.0000 C   0  0  0  0  0  0  0  0  0  0  0  0
    9.8556   -5.1281    0.0000 C   0  0  0  0  0  0  0  0  0  0  0  0
    4.8076   -9.4550    0.0000 C   0  0  0  0  0  0  0  0  0  0  0  0
    8.5736   -4.4070    0.0000 C   0  0  0  0  0  0  0  0  0  0  0  0
    1.2820   -8.9742    0.0000 C   0  0  0  0  0  0  0  0  0  0  0  0
   10.7371   -1.5224    0.0000 C   0  0  0  0  0  0  0  0  0  0  0  0
    2.8846  -10.4966    0.0000 C   0  0  0  0  0  0  0  0  0  0  0  0
    8.6537   -2.1634    0.0000 C   0  0  0  0  0  0  0  0  0  0  0  0
    1.3622  -10.3364    0.0000 C   0  0  0  0  0  0  0  0  0  0  0  0
    9.5351   -0.9615    0.0000 C   0  0  0  0  0  0  0  0  0  0  0  0
    0.8814   -9.7755    0.0000 C   0  0  0  0  0  0  0  0  0  0  0  0
   10.3364   -0.8013    0.0000 C   0  0  0  0  0  0  0  0  0  0  0  0
    7.3717   -8.0127    0.0000 C   0  0  0  0  0  0  0  0  0  0  0  0
    8.5736   -7.2916    0.0000 C   0  0  0  0  0  0  0  0  0  0  0  0
    6.4903   -8.0127    0.0000 C   0  0  0  0  0  0  0  0  0  0  0  0
    9.0543   -6.4903    0.0000 C   0  0  0  0  0  0  0  0  0  0  0  0
    0.0000   -9.8556    0.0000 C   0  0  0  0  0  0  0  0  0  0  0  0
   10.6569    0.0000    0.0000 C   0  0  0  0  0  0  0  0  0  0  0  0
    7.7723   -7.2916    0.0000 C   0  0  0  0  0  0  0  0  0  0  0  0
    8.6537   -8.7339    0.0000 C   0  0  0  0  0  0  0  0  0  0  0  0
    7.7723   -8.7339    0.0000 C   0  0  0  0  0  0  0  0  0  0  0  0
    9.0543   -8.0127    0.0000 C   0  0  0  0  0  0  0  0  0  0  0  0
    4.8877   -6.5704    0.0000 C   0  0  0  0  0  0  0  0  0  0  0  0
   11.1376   -5.8493    0.0000 C   0  0  0  0  0  0  0  0  0  0  0  0
    9.0543   -9.4550    0.0000 C   0  0  0  0  0  0  0  0  0  0  0  0
    9.8556   -9.4550    0.0000 C   0  0  0  0  0  0  0  0  0  0  0  0
   10.3364  -10.1762    0.0000 C   0  0  0  0  0  0  0  0  0  0  0  0
   11.6184  -10.8973    0.0000 C   0  0  0  0  0  0  0  0  0  0  0  0
   12.4197  -10.8973    0.0000 C   0  0  0  0  0  0  0  0  0  0  0  0
   12.8204  -11.6184    0.0000 C   0  0  0  0  0  0  0  0  0  0  0  0
   14.1024  -12.4197    0.0000 C   0  0  0  0  0  0  0  0  0  0  0  0
   14.9838  -12.4197    0.0000 C   0  0  0  0  0  0  0  0  0  0  0  0
   16.2658  -13.0607    0.0000 C   0  0  0  0  0  0  0  0  0  0  0  0
   16.6664  -13.8620    0.0000 C   0  0  0  0  0  0  0  0  0  0  0  0
   17.9484  -14.5831    0.0000 C   0  0  0  0  0  0  0  0  0  0  0  0
   18.7497  -14.5831    0.0000 C   0  0  0  0  0  0  0  0  0  0  0  0
   20.0317  -15.3042    0.0000 C   0  0  0  0  0  0  0  0  0  0  0  0
   20.4324  -16.0254    0.0000 C   0  0  0  0  0  0  0  0  0  0  0  0
   21.7145  -15.3042    0.0000 C   0  0  0  0  0  0  0  0  0  0  0  0
  1 22  2  0  0  0  0
  2 23  2  0  0  0  0
  3 30  1  0  0  0  0
  3 46  1  0  0  0  0
  4 31  1  0  0  0  0
  4 47  1  0  0  0  0
  5 32  1  0  0  0  0
  5 54  1  0  0  0  0
  6 33  1  0  0  0  0
  6 55  1  0  0  0  0
  7 59  2  0  0  0  0
  8 61  1  0  0  0  0
  8 62  1  0  0  0  0
  9 63  1  0  0  0  0
  9 64  1  0  0  0  0
 10 65  1  0  0  0  0
 10 66  1  0  0  0  0
 11 67  1  0  0  0  0
 11 68  1  0  0  0  0
 12 70  2  0  0  0  0
 13 70  1  0  0  0  0
 14 22  1  0  0  0  0
 26 14  1  6  0  0  0
 14 36  1  0  0  0  0
 15 23  1  0  0  0  0
 27 15  1  6  0  0  0
 15 37  1  0  0  0  0
 16 24  1  0  0  0  0
 16 38  2  0  0  0  0
 17 25  1  0  0  0  0
 17 39  2  0  0  0  0
 18 58  1  0  0  0  0
 18 59  1  0  0  0  0
 19 69  1  0  0  0  0
 19 70  1  0  0  0  0
 20 22  1  0  0  0  0
 20 24  2  0  0  0  0
 20 28  1  0  0  0  0
 21 23  1  0  0  0  0
 21 25  2  0  0  0  0
 21 29  1  0  0  0  0
 24 34  1  0  0  0  0
 25 35  1  0  0  0  0
 26 38  1  0  0  0  0
 26 40  1  0  0  0  0
 27 39  1  0  0  0  0
 27 41  1  0  0  0  0
 28 32  2  0  0  0  0
 29 33  2  0  0  0  0
 30 32  1  0  0  0  0
 30 34  2  0  0  0  0
 31 33  1  0  0  0  0
 31 35  2  0  0  0  0
 36 42  1  0  0  0  0
 37 43  1  0  0  0  0
 40 42  1  0  0  0  0
 41 43  1  0  0  0  0
 42 48  2  0  0  0  0
 43 49  2  0  0  0  0
 44 46  1  0  0  0  0
 44 50  2  0  0  0  0
 44 52  1  0  0  0  0
 45 47  1  0  0  0  0
 45 50  1  0  0  0  0
 45 53  2  0  0  0  0
 51 52  2  0  0  0  0
 51 53  1  0  0  0  0
 51 56  1  0  0  0  0
 56 57  3  0  0  0  0
 57 58  1  0  0  0  0
 59 60  1  0  0  0  0
 60 61  1  0  0  0  0
 62 63  1  0  0  0  0
 64 65  1  0  0  0  0
 66 67  1  0  0  0  0
 68 69  1  0  0  0  0
M  END
> <PUBCHEM_COMPOUND_ID_TYPE>
0

> <PUBCHEM_TOTAL_CHARGE>
0

> <PUBCHEM_SUBSTANCE_ID>
310930098

> <PUBCHEM_SUBSTANCE_VERSION>
1

> <PUBCHEM_EXT_DATASOURCE_NAME>
4488

> <PUBCHEM_EXT_DATASOURCE_REGID>
SCHEMBL16107344

> <PUBCHEM_SUBSTANCE_COMMENT>
InChI=1S/C51H58N6O13/c1-33-18-38-27-54-42-25-46(44(63-3)23-40(42)49(59)56(38)29-33)69-31-36-20-35(6-5-8-52-48(58)7-10-65-12-14-67-16-17-68-15-13-66-11-9-53-51(61)62)21-37(22-36)32-70-47-26-43-41(24-45(47)64-4)50(60)57-30-34(2)19-39(57)28-55-43/h20-28,38-39,53H,1-2,7-19,29-32H2,3-4H3,(H,52,58)(H,61,62)/t38-,39-/m0/s1
InChIKey=VQGNSCJKEUGYNU-YDAXCOIMSA-N

> <PUBCHEM_SUBSTANCE_SYNONYM>
SCHEMBL16107344

> <PUBCHEM_XREF_EXT_ID>
SCHEMBL16107344

> <PUBCHEM_EXT_DATASOURCE_URL>
https://www.surechembl.org/

> <PUBCHEM_EXT_SUBSTANCE_URL>
https://www.surechembl.org/chemical/SCHEMBL16107344

> <PUBCHEM_CID_ASSOCIATIONS>
117599329  1

> <PUBCHEM_COORDINATE_TYPE>
1
3

> <PUBCHEM_BONDANNOTATIONS>
26  14  6
27  15  6

$$$$
