310944534
  -OEChem-07211613022D

 31 33  0     0  0  0  0  0  0999 V2000
   -3.4000   -1.4713    0.0000 Cl  0  0  0  0  0  0  0  0  0  0  0  0
   -0.3957   -1.4589    0.0000 O   0  0  0  0  0  0  0  0  0  0  0  0
   -3.9563    2.2502    0.0000 O   0  0  0  0  0  0  0  0  0  0  0  0
    1.0385    1.0138    0.0000 O   0  0  0  0  0  0  0  0  0  0  0  0
    4.6116   -1.0509    0.0000 O   0  0  0  0  0  0  0  0  0  0  0  0
   -0.3833    0.1855    0.0000 N   0  0  0  0  0  0  0  0  0  0  0  0
    1.7680   -0.2226    0.0000 N   0  0  0  0  0  0  0  0  0  0  0  0
    3.2022   -1.0509    0.0000 N   0  0  0  0  0  0  0  0  0  0  0  0
   -4.6487    1.0138    0.0000 N   0  0  0  0  0  0  0  0  0  0  0  0
   -2.5221   -0.2226    0.0000 C   0  0  0  0  0  0  0  0  0  0  0  0
   -1.0880   -0.2226    0.0000 C   0  0  0  0  0  0  0  0  0  0  0  0
   -2.5221   -1.0385    0.0000 C   0  0  0  0  0  0  0  0  0  0  0  0
   -3.2392    0.1855    0.0000 C   0  0  0  0  0  0  0  0  0  0  0  0
   -1.1003   -1.0385    0.0000 C   0  0  0  0  0  0  0  0  0  0  0  0
   -1.8174    0.1731    0.0000 C   0  0  0  0  0  0  0  0  0  0  0  0
   -1.7927   -1.4465    0.0000 C   0  0  0  0  0  0  0  0  0  0  0  0
   -3.2269    1.0138    0.0000 C   0  0  0  0  0  0  0  0  0  0  0  0
   -3.9439   -0.2226    0.0000 C   0  0  0  0  0  0  0  0  0  0  0  0
    1.0385    0.1731    0.0000 C   0  0  0  0  0  0  0  0  0  0  0  0
   -3.9439    1.4218    0.0000 C   0  0  0  0  0  0  0  0  0  0  0  0
    0.3462   -0.2226    0.0000 C   0  0  0  0  0  0  0  0  0  0  0  0
   -4.6487    0.1855    0.0000 C   0  0  0  0  0  0  0  0  0  0  0  0
    1.7804   -1.0509    0.0000 C   0  0  0  0  0  0  0  0  0  0  0  0
    2.4727    0.1855    0.0000 C   0  0  0  0  0  0  0  0  0  0  0  0
    2.4850   -1.4589    0.0000 C   0  0  0  0  0  0  0  0  0  0  0  0
    3.1898   -0.2226    0.0000 C   0  0  0  0  0  0  0  0  0  0  0  0
    3.9068   -1.4589    0.0000 C   0  0  0  0  0  0  0  0  0  0  0  0
    0.3338   -1.0509    0.0000 C   0  0  0  0  0  0  0  0  0  0  0  0
    3.9068   -2.2873    0.0000 C   0  0  0  0  0  0  0  0  0  0  0  0
   -3.2392    2.6581    0.0000 C   0  0  0  0  0  0  0  0  0  0  0  0
    4.6487   -2.6581    0.0000 C   0  0  0  0  0  0  0  0  0  0  0  0
  1 12  1  0  0  0  0
  2 14  1  0  0  0  0
  2 28  1  0  0  0  0
  3 20  1  0  0  0  0
  3 30  1  0  0  0  0
  4 19  2  0  0  0  0
  5 27  2  0  0  0  0
  6 11  1  0  0  0  0
  6 21  1  0  0  0  0
  7 19  1  0  0  0  0
  7 23  1  0  0  0  0
  7 24  1  0  0  0  0
  8 25  1  0  0  0  0
  8 26  1  0  0  0  0
  8 27  1  0  0  0  0
  9 20  1  0  0  0  0
  9 22  2  0  0  0  0
 10 12  1  0  0  0  0
 10 13  1  0  0  0  0
 10 15  2  0  0  0  0
 11 14  2  0  0  0  0
 11 15  1  0  0  0  0
 12 16  2  0  0  0  0
 13 17  1  0  0  0  0
 13 18  2  0  0  0  0
 14 16  1  0  0  0  0
 17 20  2  0  0  0  0
 18 22  1  0  0  0  0
 19 21  1  0  0  0  0
 23 25  1  0  0  0  0
 24 26  1  0  0  0  0
 27 29  1  0  0  0  0
 29 31  2  0  0  0  0
M  END
> <PUBCHEM_COMPOUND_ID_TYPE>
0

> <PUBCHEM_TOTAL_CHARGE>
0

> <PUBCHEM_SUBSTANCE_ID>
310944534

> <PUBCHEM_SUBSTANCE_VERSION>
1

> <PUBCHEM_EXT_DATASOURCE_NAME>
4488

> <PUBCHEM_EXT_DATASOURCE_REGID>
SCHEMBL16122610

> <PUBCHEM_SUBSTANCE_COMMENT>
InChI=1S/C22H25ClN4O4/c1-4-21(28)26-7-9-27(10-8-26)22(29)14-25-18-12-16(17(23)13-19(18)30-2)15-5-6-24-20(11-15)31-3/h4-6,11-13,25H,1,7-10,14H2,2-3H3
InChIKey=FPUGUFOVFOMBCR-UHFFFAOYSA-N

> <PUBCHEM_SUBSTANCE_SYNONYM>
SCHEMBL16122610

> <PUBCHEM_XREF_EXT_ID>
SCHEMBL16122610

> <PUBCHEM_EXT_DATASOURCE_URL>
https://www.surechembl.org/

> <PUBCHEM_EXT_SUBSTANCE_URL>
https://www.surechembl.org/chemical/SCHEMBL16122610

> <PUBCHEM_CID_ASSOCIATIONS>
117610769  1

> <PUBCHEM_COORDINATE_TYPE>
1
3

$$$$
