310944315
  -OEChem-07211613022D

 33 37  0     1  0  0  0  0  0999 V2000
    2.1225    1.1964    0.0000 O   0  0  0  0  0  0  0  0  0  0  0  0
    4.6475    1.3617    0.0000 O   0  0  0  0  0  0  0  0  0  0  0  0
    5.8603    0.5347    0.0000 O   0  0  0  0  0  0  0  0  0  0  0  0
   -0.9758   -1.2404    0.0000 O   0  0  0  0  0  0  0  0  0  0  0  0
    3.0046    0.0165    0.0000 N   0  0  0  0  0  0  0  0  0  0  0  0
    0.0496    0.0386    0.0000 N   0  0  0  0  0  0  0  0  0  0  0  0
   -4.5372    0.0055    0.0000 N   0  0  0  0  0  0  0  0  0  0  0  0
   -2.3871    0.4025    0.0000 N   0  0  0  0  0  0  0  0  0  0  0  0
   -3.4236   -0.8765    0.0000 N   0  0  0  0  0  0  0  0  0  0  0  0
   -4.9231    0.7332    0.0000 N   0  0  0  0  0  0  0  0  0  0  0  0
   -5.7390    0.6009    0.0000 N   0  0  0  0  0  0  0  0  0  0  0  0
   -5.8603   -0.2150    0.0000 N   0  0  0  0  0  0  0  0  0  0  0  0
    1.6815   -0.1819    0.0000 C   0  0  0  0  0  0  0  0  0  0  0  0
    2.2549    0.3694    0.0000 C   0  0  0  0  0  0  0  0  0  0  0  0
    2.8833   -0.7883    0.0000 C   0  0  3  0  0  0  0  0  0  0  0  0
    3.7212    0.4135    0.0000 C   0  0  0  0  0  0  0  0  0  0  0  0
    2.0563   -0.9096    0.0000 C   0  0  0  0  0  0  0  0  0  0  0  0
    1.1743   -0.8325    0.0000 C   0  0  0  0  0  0  0  0  0  0  0  0
    1.3838    0.5678    0.0000 C   0  0  0  0  0  0  0  0  0  0  0  0
    4.4820    0.0606    0.0000 C   0  0  0  0  0  0  0  0  0  0  0  0
    3.8425    1.2184    0.0000 C   0  0  0  0  0  0  0  0  0  0  0  0
    5.0224    0.6670    0.0000 C   0  0  0  0  0  0  0  0  0  0  0  0
    0.3584   -0.7112    0.0000 C   0  0  0  0  0  0  0  0  0  0  0  0
    0.5678    0.6891    0.0000 C   0  0  0  0  0  0  0  0  0  0  0  0
    3.4897   -1.3617    0.0000 C   0  0  0  0  0  0  0  0  0  0  0  0
   -0.7663    0.1709    0.0000 C   0  0  0  0  0  0  0  0  0  0  0  0
    4.6475   -0.7663    0.0000 C   0  0  0  0  0  0  0  0  0  0  0  0
   -1.2846   -0.4797    0.0000 C   0  0  3  0  0  0  0  0  0  0  0  0
   -2.1005   -0.3363    0.0000 C   0  0  0  0  0  0  0  0  0  0  0  0
   -3.7323   -0.1158    0.0000 C   0  0  0  0  0  0  0  0  0  0  0  0
   -2.6076   -0.9978    0.0000 C   0  0  0  0  0  0  0  0  0  0  0  0
   -3.2141    0.5347    0.0000 C   0  0  0  0  0  0  0  0  0  0  0  0
   -5.1216   -0.5788    0.0000 C   0  0  0  0  0  0  0  0  0  0  0  0
  1 14  2  0  0  0  0
  2 21  1  0  0  0  0
  2 22  1  0  0  0  0
  3 22  2  0  0  0  0
 28  4  1  1  0  0  0
  5 14  1  0  0  0  0
  5 15  1  0  0  0  0
  5 16  1  0  0  0  0
  6 23  1  0  0  0  0
  6 24  1  0  0  0  0
  6 26  1  0  0  0  0
  7 10  1  0  0  0  0
  7 30  1  0  0  0  0
  7 33  1  0  0  0  0
  8 29  2  0  0  0  0
  8 32  1  0  0  0  0
  9 30  1  0  0  0  0
  9 31  2  0  0  0  0
 10 11  2  0  0  0  0
 11 12  1  0  0  0  0
 12 33  2  0  0  0  0
 13 14  1  0  0  0  0
 13 17  1  0  0  0  0
 13 18  1  0  0  0  0
 13 19  1  0  0  0  0
 15 17  1  0  0  0  0
 15 25  1  0  0  0  0
 16 20  2  0  0  0  0
 16 21  1  0  0  0  0
 18 23  1  0  0  0  0
 19 24  1  0  0  0  0
 20 22  1  0  0  0  0
 20 27  1  0  0  0  0
 26 28  1  0  0  0  0
 28 29  1  0  0  0  0
 29 31  1  0  0  0  0
 30 32  2  0  0  0  0
M  END
> <PUBCHEM_COMPOUND_ID_TYPE>
0

> <PUBCHEM_TOTAL_CHARGE>
0

> <PUBCHEM_SUBSTANCE_ID>
310944315

> <PUBCHEM_SUBSTANCE_VERSION>
1

> <PUBCHEM_EXT_DATASOURCE_NAME>
4488

> <PUBCHEM_EXT_DATASOURCE_REGID>
SCHEMBL16122390

> <PUBCHEM_SUBSTANCE_COMMENT>
InChI=1S/C21H26N8O4/c1-13-7-21(20(32)29(13)16-11-33-19(31)14(16)2)3-5-27(6-4-21)10-17(30)15-8-23-18(9-22-15)28-12-24-25-26-28/h8-9,12-13,17,30H,3-7,10-11H2,1-2H3/t13?,17-/m1/s1
InChIKey=XJIBSOOJEGEKDJ-LRHAYUFXSA-N

> <PUBCHEM_SUBSTANCE_SYNONYM>
SCHEMBL16122390

> <PUBCHEM_XREF_EXT_ID>
SCHEMBL16122390

> <PUBCHEM_EXT_DATASOURCE_URL>
https://www.surechembl.org/

> <PUBCHEM_EXT_SUBSTANCE_URL>
https://www.surechembl.org/chemical/SCHEMBL16122390

> <PUBCHEM_CID_ASSOCIATIONS>
86270603  1

> <PUBCHEM_COORDINATE_TYPE>
1
3

> <PUBCHEM_BONDANNOTATIONS>
28  4  5

$$$$
