310947399
  -OEChem-07211613022D

 18 19  0     1  0  0  0  0  0999 V2000
   -2.4851   13.2509    0.0000 N   0  0  0  0  0  0  0  0  0  0  0  0
   -0.3416   14.4884    0.0000 C   0  0  3  0  0  0  0  0  0  0  0  0
    0.3728   14.9009    0.0000 C   0  0  3  0  0  0  0  0  0  0  0  0
   -0.3416   13.6634    0.0000 C   0  0  0  0  0  0  0  0  0  0  0  0
    1.0873   14.4884    0.0000 C   0  0  3  0  0  0  0  0  0  0  0  0
   -1.0561   14.9009    0.0000 C   0  0  0  0  0  0  0  0  0  0  0  0
    0.3728   15.9773    0.0000 C   0  0  0  0  0  0  0  0  0  0  0  0
    0.3728   13.2509    0.0000 C   0  0  0  0  0  0  0  0  0  0  0  0
   -1.0561   13.2509    0.0000 C   0  0  0  0  0  0  0  0  0  0  0  0
    1.0873   13.6634    0.0000 C   0  0  0  0  0  0  0  0  0  0  0  0
   -0.3416   15.3134    0.0000 C   0  0  0  0  0  0  0  0  0  0  0  0
   -1.7706   13.6634    0.0000 C   0  0  0  0  0  0  0  0  0  0  0  0
    1.9758   14.9009    0.0000 C   0  0  0  0  0  0  0  0  0  0  0  0
   -1.7706   14.4884    0.0000 C   0  0  0  0  0  0  0  0  0  0  0  0
   -0.3416   16.3898    0.0000 C   0  0  0  0  0  0  0  0  0  0  0  0
    1.0873   15.5648    0.0000 C   0  0  0  0  0  0  0  0  0  0  0  0
    2.6903   14.4884    0.0000 C   0  0  0  0  0  0  0  0  0  0  0  0
    1.2613   15.3134    0.0000 C   0  0  0  0  0  0  0  0  0  0  0  0
  1 12  2  3  0  0  0
  2  3  1  0  0  0  0
  2  4  1  0  0  0  0
  2  6  1  0  0  0  0
  2 11  1  1  0  0  0
  3  5  1  0  0  0  0
  3  7  1  0  0  0  0
  4  8  1  0  0  0  0
  4  9  2  0  0  0  0
  5 10  1  0  0  0  0
  5 13  1  0  0  0  0
  6 14  1  0  0  0  0
  7 15  1  0  0  0  0
  7 16  1  0  0  0  0
  8 10  1  0  0  0  0
  9 12  1  0  0  0  0
 12 14  1  0  0  0  0
 13 17  1  0  0  0  0
 13 18  1  0  0  0  0
M  END
> <PUBCHEM_COMPOUND_ID_TYPE>
0

> <PUBCHEM_TOTAL_CHARGE>
0

> <PUBCHEM_SUBSTANCE_ID>
310947399

> <PUBCHEM_SUBSTANCE_VERSION>
1

> <PUBCHEM_EXT_DATASOURCE_NAME>
4488

> <PUBCHEM_EXT_DATASOURCE_REGID>
SCHEMBL16125555

> <PUBCHEM_SUBSTANCE_COMMENT>
InChI=1S/C17H29N/c1-11(2)15-7-6-13-10-14(18)8-9-17(13,5)16(15)12(3)4/h10-12,15-16,18H,6-9H2,1-5H3/t15?,16?,17-/m0/s1
InChIKey=ZCJKQQXWBJRSHN-JCYILVPMSA-N

> <PUBCHEM_SUBSTANCE_SYNONYM>
SCHEMBL16125555

> <PUBCHEM_XREF_EXT_ID>
SCHEMBL16125555

> <PUBCHEM_EXT_DATASOURCE_URL>
https://www.surechembl.org/

> <PUBCHEM_EXT_SUBSTANCE_URL>
https://www.surechembl.org/chemical/SCHEMBL16125555

> <PUBCHEM_CID_ASSOCIATIONS>
117613140  1

> <PUBCHEM_COORDINATE_TYPE>
1
3

> <PUBCHEM_BONDANNOTATIONS>
13  17  3
13  18  3
2  11  5
7  15  3
7  16  3

$$$$
