310949307
  -OEChem-07211613022D

 37 42  0     0  0  0  0  0  0999 V2000
    0.0072    0.1944    0.0000 N   0  0  0  0  0  0  0  0  0  0  0  0
    2.1391   -0.3097    0.0000 N   0  0  0  0  0  0  0  0  0  0  0  0
   -2.1391   -0.2665    0.0000 N   0  0  0  0  0  0  0  0  0  0  0  0
   -0.0216   -3.9686    0.0000 N   0  0  0  0  0  0  0  0  0  0  0  0
    0.6554    0.7130    0.0000 C   0  0  0  0  0  0  0  0  0  0  0  0
   -0.6843    0.6986    0.0000 C   0  0  0  0  0  0  0  0  0  0  0  0
   -0.4105    1.5053    0.0000 C   0  0  0  0  0  0  0  0  0  0  0  0
    0.4105    1.4765    0.0000 C   0  0  0  0  0  0  0  0  0  0  0  0
   -0.0216   -0.6266    0.0000 C   0  0  0  0  0  0  0  0  0  0  0  0
   -0.9579    2.1103    0.0000 C   0  0  0  0  0  0  0  0  0  0  0  0
    0.9868    2.0815    0.0000 C   0  0  0  0  0  0  0  0  0  0  0  0
    0.6986   -1.0443    0.0000 C   0  0  0  0  0  0  0  0  0  0  0  0
   -0.7275   -1.0443    0.0000 C   0  0  0  0  0  0  0  0  0  0  0  0
   -1.4909    0.5546    0.0000 C   0  0  0  0  0  0  0  0  0  0  0  0
    1.4621    0.5402    0.0000 C   0  0  0  0  0  0  0  0  0  0  0  0
    1.7790    1.9087    0.0000 C   0  0  0  0  0  0  0  0  0  0  0  0
   -1.7646    1.9375    0.0000 C   0  0  0  0  0  0  0  0  0  0  0  0
    2.0382    1.1163    0.0000 C   0  0  0  0  0  0  0  0  0  0  0  0
   -2.0382    1.1740    0.0000 C   0  0  0  0  0  0  0  0  0  0  0  0
    0.6986   -1.8942    0.0000 C   0  0  0  0  0  0  0  0  0  0  0  0
   -0.7275   -1.8798    0.0000 C   0  0  0  0  0  0  0  0  0  0  0  0
   -0.0216   -2.2975    0.0000 C   0  0  0  0  0  0  0  0  0  0  0  0
    2.3120    2.5568    0.0000 C   0  0  0  0  0  0  0  0  0  0  0  0
   -2.3264    2.5856    0.0000 C   0  0  0  0  0  0  0  0  0  0  0  0
    1.4189   -0.6554    0.0000 C   0  0  0  0  0  0  0  0  0  0  0  0
   -1.4477   -0.6410    0.0000 C   0  0  0  0  0  0  0  0  0  0  0  0
    3.1187    2.3840    0.0000 C   0  0  0  0  0  0  0  0  0  0  0  0
   -2.0815    3.3780    0.0000 C   0  0  0  0  0  0  0  0  0  0  0  0
    2.0959    3.3059    0.0000 C   0  0  0  0  0  0  0  0  0  0  0  0
   -3.1187    2.4128    0.0000 C   0  0  0  0  0  0  0  0  0  0  0  0
   -0.0216   -3.1619    0.0000 C   0  0  0  0  0  0  0  0  0  0  0  0
    3.6804    3.0034    0.0000 C   0  0  0  0  0  0  0  0  0  0  0  0
   -2.6288    3.9686    0.0000 C   0  0  0  0  0  0  0  0  0  0  0  0
    2.5856    3.9253    0.0000 C   0  0  0  0  0  0  0  0  0  0  0  0
   -3.6804    3.0322    0.0000 C   0  0  0  0  0  0  0  0  0  0  0  0
    3.4212    3.7668    0.0000 C   0  0  0  0  0  0  0  0  0  0  0  0
   -3.4212    3.8245    0.0000 C   0  0  0  0  0  0  0  0  0  0  0  0
  1  5  1  0  0  0  0
  1  6  1  0  0  0  0
  1  9  1  0  0  0  0
  2 25  3  0  0  0  0
  3 26  3  0  0  0  0
  4 31  3  0  0  0  0
  5  8  2  0  0  0  0
  5 15  1  0  0  0  0
  6  7  2  0  0  0  0
  6 14  1  0  0  0  0
  7  8  1  0  0  0  0
  7 10  1  0  0  0  0
  8 11  1  0  0  0  0
  9 12  2  0  0  0  0
  9 13  1  0  0  0  0
 10 17  2  0  0  0  0
 11 16  2  0  0  0  0
 12 20  1  0  0  0  0
 12 25  1  0  0  0  0
 13 21  2  0  0  0  0
 13 26  1  0  0  0  0
 14 19  2  0  0  0  0
 15 18  2  0  0  0  0
 16 18  1  0  0  0  0
 16 23  1  0  0  0  0
 17 19  1  0  0  0  0
 17 24  1  0  0  0  0
 20 22  2  0  0  0  0
 21 22  1  0  0  0  0
 22 31  1  0  0  0  0
 23 27  2  0  0  0  0
 23 29  1  0  0  0  0
 24 28  2  0  0  0  0
 24 30  1  0  0  0  0
 27 32  1  0  0  0  0
 28 33  1  0  0  0  0
 29 34  2  0  0  0  0
 30 35  2  0  0  0  0
 32 36  2  0  0  0  0
 33 37  2  0  0  0  0
 34 36  1  0  0  0  0
 35 37  1  0  0  0  0
M  END
> <PUBCHEM_COMPOUND_ID_TYPE>
0

> <PUBCHEM_TOTAL_CHARGE>
0

> <PUBCHEM_SUBSTANCE_ID>
310949307

> <PUBCHEM_SUBSTANCE_VERSION>
1

> <PUBCHEM_EXT_DATASOURCE_NAME>
4488

> <PUBCHEM_EXT_DATASOURCE_REGID>
SCHEMBL16127497

> <PUBCHEM_SUBSTANCE_COMMENT>
InChI=1S/C33H18N4/c34-19-22-15-27(20-35)33(28(16-22)21-36)37-31-13-11-25(23-7-3-1-4-8-23)17-29(31)30-18-26(12-14-32(30)37)24-9-5-2-6-10-24/h1-18H
InChIKey=MEGYWARBAWJCGF-UHFFFAOYSA-N

> <PUBCHEM_SUBSTANCE_SYNONYM>
SCHEMBL16127497

> <PUBCHEM_XREF_EXT_ID>
SCHEMBL16127497

> <PUBCHEM_EXT_DATASOURCE_URL>
https://www.surechembl.org/

> <PUBCHEM_EXT_SUBSTANCE_URL>
https://www.surechembl.org/chemical/SCHEMBL16127497

> <PUBCHEM_CID_ASSOCIATIONS>
117614790  1

> <PUBCHEM_COORDINATE_TYPE>
1
3

$$$$
