310932170
  -OEChem-07211613022D

 20 21  0     0  0  0  0  0  0999 V2000
    4.2903   -1.2210    0.0000 O   0  0  0  0  0  0  0  0  0  0  0  0
    2.1451    0.0000    0.0000 N   0  0  0  0  0  0  0  0  0  0  0  0
    3.5972   -2.4751    0.0000 N   0  0  0  0  0  0  0  0  0  0  0  0
    0.7261    0.0000    0.0000 N   0  0  0  0  0  0  0  0  0  0  0  0
    0.0000   -0.3960    0.0000 N   0  0  0  0  0  0  0  0  0  0  0  0
    5.0163   -6.6004    0.0000 N   0  0  0  0  0  0  0  0  0  0  0  0
    2.8712   -1.2210    0.0000 C   0  0  0  0  0  0  0  0  0  0  0  0
    3.5972   -1.6501    0.0000 C   0  0  0  0  0  0  0  0  0  0  0  0
    1.4521   -0.3960    0.0000 C   0  0  0  0  0  0  0  0  0  0  0  0
    2.8712   -0.3960    0.0000 C   0  0  0  0  0  0  0  0  0  0  0  0
    2.1451   -1.6501    0.0000 C   0  0  0  0  0  0  0  0  0  0  0  0
    4.3232   -3.7292    0.0000 C   0  0  0  0  0  0  0  0  0  0  0  0
    1.4521   -1.2210    0.0000 C   0  0  0  0  0  0  0  0  0  0  0  0
    4.3232   -2.8712    0.0000 C   0  0  0  0  0  0  0  0  0  0  0  0
    4.3232   -5.3793    0.0000 C   0  0  0  0  0  0  0  0  0  0  0  0
    3.5972   -4.1252    0.0000 C   0  0  0  0  0  0  0  0  0  0  0  0
    5.0163   -4.1252    0.0000 C   0  0  0  0  0  0  0  0  0  0  0  0
    3.5972   -4.9502    0.0000 C   0  0  0  0  0  0  0  0  0  0  0  0
    5.0163   -4.9502    0.0000 C   0  0  0  0  0  0  0  0  0  0  0  0
    4.3232   -6.2043    0.0000 C   0  0  0  0  0  0  0  0  0  0  0  0
  1  8  2  0  0  0  0
  2  9  2  0  0  0  0
  2 10  1  0  0  0  0
  3  8  1  0  0  0  0
  3 14  1  0  0  0  0
  4  5  1  0  0  0  0
  4  9  1  0  0  0  0
  6 20  3  0  0  0  0
  7  8  1  0  0  0  0
  7 10  2  0  0  0  0
  7 11  1  0  0  0  0
  9 13  1  0  0  0  0
 11 13  2  0  0  0  0
 12 14  1  0  0  0  0
 12 16  2  0  0  0  0
 12 17  1  0  0  0  0
 15 18  2  0  0  0  0
 15 19  1  0  0  0  0
 15 20  1  0  0  0  0
 16 18  1  0  0  0  0
 17 19  2  0  0  0  0
M  END
> <PUBCHEM_COMPOUND_ID_TYPE>
0

> <PUBCHEM_TOTAL_CHARGE>
0

> <PUBCHEM_SUBSTANCE_ID>
310932170

> <PUBCHEM_SUBSTANCE_VERSION>
1

> <PUBCHEM_EXT_DATASOURCE_NAME>
4488

> <PUBCHEM_EXT_DATASOURCE_REGID>
SCHEMBL16109524

> <PUBCHEM_SUBSTANCE_COMMENT>
InChI=1S/C14H13N5O/c15-7-10-1-3-11(4-2-10)8-18-14(20)12-5-6-13(19-16)17-9-12/h1-6,9H,8,16H2,(H,17,19)(H,18,20)
InChIKey=LVRVVVOFEFHJFG-UHFFFAOYSA-N

> <PUBCHEM_SUBSTANCE_SYNONYM>
SCHEMBL16109524

> <PUBCHEM_XREF_EXT_ID>
SCHEMBL16109524

> <PUBCHEM_EXT_DATASOURCE_URL>
https://www.surechembl.org/

> <PUBCHEM_EXT_SUBSTANCE_URL>
https://www.surechembl.org/chemical/SCHEMBL16109524

> <PUBCHEM_CID_ASSOCIATIONS>
62269658  1

> <PUBCHEM_COORDINATE_TYPE>
1
3

$$$$
