310937036
  -OEChem-07211613022D

 26 29  0     0  0  0  0  0  0999 V2000
    2.1107   -4.9087    0.0000 Cl  0  0  0  0  0  0  0  0  0  0  0  0
    0.7609   -0.8590    0.0000 F   0  0  0  0  0  0  0  0  0  0  0  0
    1.4726   -2.0862    0.0000 F   0  0  0  0  0  0  0  0  0  0  0  0
    1.4481   -0.4418    0.0000 F   0  0  0  0  0  0  0  0  0  0  0  0
    3.5342    0.0000    0.0000 O   0  0  0  0  0  0  0  0  0  0  0  0
    2.8716   -1.2272    0.0000 N   0  0  0  0  0  0  0  0  0  0  0  0
    3.5588   -3.2642    0.0000 N   0  0  0  0  0  0  0  0  0  0  0  0
    5.0559   -2.3316    0.0000 N   0  0  0  0  0  0  0  0  0  0  0  0
    5.5223   -1.6444    0.0000 N   0  0  0  0  0  0  0  0  0  0  0  0
    0.7118   -4.9087    0.0000 N   0  0  0  0  0  0  0  0  0  0  0  0
    2.8716   -2.0617    0.0000 C   0  0  0  0  0  0  0  0  0  0  0  0
    3.5588   -2.4789    0.0000 C   0  0  0  0  0  0  0  0  0  0  0  0
    4.2705   -2.0617    0.0000 C   0  0  0  0  0  0  0  0  0  0  0  0
    4.2705   -1.2272    0.0000 C   0  0  0  0  0  0  0  0  0  0  0  0
    3.5588   -0.8099    0.0000 C   0  0  0  0  0  0  0  0  0  0  0  0
    2.1353   -2.4789    0.0000 C   0  0  0  0  0  0  0  0  0  0  0  0
    2.1353   -3.2642    0.0000 C   0  0  0  0  0  0  0  0  0  0  0  0
    2.1598   -0.8345    0.0000 C   0  0  0  0  0  0  0  0  0  0  0  0
    5.0559   -0.9817    0.0000 C   0  0  0  0  0  0  0  0  0  0  0  0
    2.8716   -3.6815    0.0000 C   0  0  0  0  0  0  0  0  0  0  0  0
    1.4235   -3.6815    0.0000 C   0  0  0  0  0  0  0  0  0  0  0  0
    1.4481   -1.2517    0.0000 C   0  0  0  0  0  0  0  0  0  0  0  0
    1.3989   -4.4915    0.0000 C   0  0  0  0  0  0  0  0  0  0  0  0
    0.7118   -3.2888    0.0000 C   0  0  0  0  0  0  0  0  0  0  0  0
    0.0246   -3.6815    0.0000 C   0  0  0  0  0  0  0  0  0  0  0  0
    0.0000   -4.5160    0.0000 C   0  0  0  0  0  0  0  0  0  0  0  0
  1 23  1  0  0  0  0
  2 22  1  0  0  0  0
  3 22  1  0  0  0  0
  4 22  1  0  0  0  0
  5 15  2  0  0  0  0
  6 11  1  0  0  0  0
  6 15  1  0  0  0  0
  6 18  1  0  0  0  0
  7 12  2  0  0  0  0
  7 20  1  0  0  0  0
  8  9  1  0  0  0  0
  8 13  1  0  0  0  0
  9 19  2  0  0  0  0
 10 23  1  0  0  0  0
 10 26  2  0  0  0  0
 11 12  1  0  0  0  0
 11 16  2  0  0  0  0
 12 13  1  0  0  0  0
 13 14  2  0  0  0  0
 14 15  1  0  0  0  0
 14 19  1  0  0  0  0
 16 17  1  0  0  0  0
 17 20  2  0  0  0  0
 17 21  1  0  0  0  0
 18 22  1  0  0  0  0
 21 23  2  0  0  0  0
 21 24  1  0  0  0  0
 24 25  2  0  0  0  0
 25 26  1  0  0  0  0
M  END
> <PUBCHEM_COMPOUND_ID_TYPE>
0

> <PUBCHEM_TOTAL_CHARGE>
0

> <PUBCHEM_SUBSTANCE_ID>
310937036

> <PUBCHEM_SUBSTANCE_VERSION>
1

> <PUBCHEM_EXT_DATASOURCE_NAME>
4488

> <PUBCHEM_EXT_DATASOURCE_REGID>
SCHEMBL16114746

> <PUBCHEM_SUBSTANCE_COMMENT>
InChI=1S/C16H9ClF3N5O/c17-14-9(2-1-3-21-14)8-4-11-13(22-5-8)12-10(6-23-24-12)15(26)25(11)7-16(18,19)20/h1-6H,7H2,(H,23,24)
InChIKey=KYLMLANZPDZFLZ-UHFFFAOYSA-N

> <PUBCHEM_SUBSTANCE_SYNONYM>
SCHEMBL16114746

> <PUBCHEM_XREF_EXT_ID>
SCHEMBL16114746

> <PUBCHEM_EXT_DATASOURCE_URL>
https://www.surechembl.org/

> <PUBCHEM_EXT_SUBSTANCE_URL>
https://www.surechembl.org/chemical/SCHEMBL16114746

> <PUBCHEM_CID_ASSOCIATIONS>
86298832  1

> <PUBCHEM_COORDINATE_TYPE>
1
3

$$$$
