310944762
  -OEChem-07211613022D

 31 33  0     0  0  0  0  0  0999 V2000
   -3.3915   -1.0273    0.0000 Cl  0  0  0  0  0  0  0  0  0  0  0  0
   -0.3713   -1.0273    0.0000 O   0  0  0  0  0  0  0  0  0  0  0  0
    1.0521    1.4482    0.0000 O   0  0  0  0  0  0  0  0  0  0  0  0
    4.6417   -0.6189    0.0000 O   0  0  0  0  0  0  0  0  0  0  0  0
   -0.3589    0.6189    0.0000 N   0  0  0  0  0  0  0  0  0  0  0  0
    1.7948    0.2104    0.0000 N   0  0  0  0  0  0  0  0  0  0  0  0
    3.2306   -0.6189    0.0000 N   0  0  0  0  0  0  0  0  0  0  0  0
   -1.7948    2.2280    0.0000 N   0  0  0  0  0  0  0  0  0  0  0  0
   -2.5003    0.2104    0.0000 C   0  0  0  0  0  0  0  0  0  0  0  0
   -3.2306    0.6313    0.0000 C   0  0  0  0  0  0  0  0  0  0  0  0
   -1.0768    0.2228    0.0000 C   0  0  0  0  0  0  0  0  0  0  0  0
   -2.5127   -0.6065    0.0000 C   0  0  0  0  0  0  0  0  0  0  0  0
   -1.0893   -0.6065    0.0000 C   0  0  0  0  0  0  0  0  0  0  0  0
   -1.7948    0.6189    0.0000 C   0  0  0  0  0  0  0  0  0  0  0  0
   -1.7824   -1.0150    0.0000 C   0  0  0  0  0  0  0  0  0  0  0  0
   -3.2182    1.4606    0.0000 C   0  0  0  0  0  0  0  0  0  0  0  0
   -3.9485    0.2228    0.0000 C   0  0  0  0  0  0  0  0  0  0  0  0
    1.0645    0.6065    0.0000 C   0  0  0  0  0  0  0  0  0  0  0  0
    0.3589    0.2104    0.0000 C   0  0  0  0  0  0  0  0  0  0  0  0
   -3.9485    1.8443    0.0000 C   0  0  0  0  0  0  0  0  0  0  0  0
   -2.5127    1.8567    0.0000 C   0  0  0  0  0  0  0  0  0  0  0  0
   -4.6417    0.6313    0.0000 C   0  0  0  0  0  0  0  0  0  0  0  0
    2.5003    0.6189    0.0000 C   0  0  0  0  0  0  0  0  0  0  0  0
    1.8071   -0.6189    0.0000 C   0  0  0  0  0  0  0  0  0  0  0  0
   -4.6417    1.4482    0.0000 C   0  0  0  0  0  0  0  0  0  0  0  0
    3.2182    0.2104    0.0000 C   0  0  0  0  0  0  0  0  0  0  0  0
    2.5127   -1.0273    0.0000 C   0  0  0  0  0  0  0  0  0  0  0  0
    3.9237   -1.0273    0.0000 C   0  0  0  0  0  0  0  0  0  0  0  0
    0.3466   -0.6189    0.0000 C   0  0  0  0  0  0  0  0  0  0  0  0
    3.9361   -1.8567    0.0000 C   0  0  0  0  0  0  0  0  0  0  0  0
    3.1935   -2.2280    0.0000 C   0  0  0  0  0  0  0  0  0  0  0  0
  1 12  1  0  0  0  0
  2 13  1  0  0  0  0
  2 29  1  0  0  0  0
  3 18  2  0  0  0  0
  4 28  2  0  0  0  0
  5 11  1  0  0  0  0
  5 19  1  0  0  0  0
  6 18  1  0  0  0  0
  6 23  1  0  0  0  0
  6 24  1  0  0  0  0
  7 26  1  0  0  0  0
  7 27  1  0  0  0  0
  7 28  1  0  0  0  0
  8 21  3  0  0  0  0
  9 10  1  0  0  0  0
  9 12  1  0  0  0  0
  9 14  2  0  0  0  0
 10 16  1  0  0  0  0
 10 17  2  0  0  0  0
 11 13  2  0  0  0  0
 11 14  1  0  0  0  0
 12 15  2  0  0  0  0
 13 15  1  0  0  0  0
 16 20  2  0  0  0  0
 16 21  1  0  0  0  0
 17 22  1  0  0  0  0
 18 19  1  0  0  0  0
 20 25  1  0  0  0  0
 22 25  2  0  0  0  0
 23 26  1  0  0  0  0
 24 27  1  0  0  0  0
 28 30  1  0  0  0  0
 30 31  2  0  0  0  0
M  END
> <PUBCHEM_COMPOUND_ID_TYPE>
0

> <PUBCHEM_TOTAL_CHARGE>
0

> <PUBCHEM_SUBSTANCE_ID>
310944762

> <PUBCHEM_SUBSTANCE_VERSION>
1

> <PUBCHEM_EXT_DATASOURCE_NAME>
4488

> <PUBCHEM_EXT_DATASOURCE_REGID>
SCHEMBL16122841

> <PUBCHEM_SUBSTANCE_COMMENT>
InChI=1S/C23H23ClN4O3/c1-3-22(29)27-8-10-28(11-9-27)23(30)15-26-20-12-18(19(24)13-21(20)31-2)17-7-5-4-6-16(17)14-25/h3-7,12-13,26H,1,8-11,15H2,2H3
InChIKey=HEYLOICRVPZATJ-UHFFFAOYSA-N

> <PUBCHEM_SUBSTANCE_SYNONYM>
SCHEMBL16122841

> <PUBCHEM_XREF_EXT_ID>
SCHEMBL16122841

> <PUBCHEM_EXT_DATASOURCE_URL>
https://www.surechembl.org/

> <PUBCHEM_EXT_SUBSTANCE_URL>
https://www.surechembl.org/chemical/SCHEMBL16122841

> <PUBCHEM_CID_ASSOCIATIONS>
117610978  1

> <PUBCHEM_COORDINATE_TYPE>
1
3

$$$$
