310947366
  -OEChem-07211613022D

 35 38  0     0  0  0  0  0  0999 V2000
    2.3969    9.6358    0.0000 O   0  0  0  0  0  0  0  0  0  0  0  0
   -4.9878   11.4712    0.0000 O   0  0  0  0  0  0  0  0  0  0  0  0
   -5.7023   10.2338    0.0000 O   0  0  0  0  0  0  0  0  0  0  0  0
    1.0166    9.2660    0.0000 O   0  0  0  0  0  0  0  0  0  0  0  0
   -2.0597    9.1538    0.0000 N   0  0  0  0  0  0  0  0  0  0  0  0
   -1.5748    9.8213    0.0000 N   0  0  0  0  0  0  0  0  0  0  0  0
   -2.8444   10.2338    0.0000 C   0  0  0  0  0  0  0  0  0  0  0  0
   -2.8444    9.4088    0.0000 C   0  0  0  0  0  0  0  0  0  0  0  0
   -2.0597   10.4887    0.0000 C   0  0  0  0  0  0  0  0  0  0  0  0
   -3.5589   10.6462    0.0000 C   0  0  0  0  0  0  0  0  0  0  0  0
   -3.5589    8.9962    0.0000 C   0  0  0  0  0  0  0  0  0  0  0  0
   -4.2733   10.2338    0.0000 C   0  0  0  0  0  0  0  0  0  0  0  0
   -1.6472    8.4393    0.0000 C   0  0  0  0  0  0  0  0  0  0  0  0
   -1.8462   11.2856    0.0000 C   0  0  0  0  0  0  0  0  0  0  0  0
   -0.9760    8.3032    0.0000 C   0  0  0  0  0  0  0  0  0  0  0  0
   -4.2733    9.4088    0.0000 C   0  0  0  0  0  0  0  0  0  0  0  0
    1.4437    7.6722    0.0000 C   0  0  0  0  0  0  0  0  0  0  0  0
    0.6178    7.8761    0.0000 C   0  0  0  0  0  0  0  0  0  0  0  0
    2.0270    8.2555    0.0000 C   0  0  0  0  0  0  0  0  0  0  0  0
   -4.9878   10.6462    0.0000 C   0  0  0  0  0  0  0  0  0  0  0  0
   -0.7625    7.5062    0.0000 C   0  0  0  0  0  0  0  0  0  0  0  0
   -0.3926    8.8865    0.0000 C   0  0  0  0  0  0  0  0  0  0  0  0
    0.0344    7.2927    0.0000 C   0  0  0  0  0  0  0  0  0  0  0  0
    0.4042    8.6729    0.0000 C   0  0  0  0  0  0  0  0  0  0  0  0
    1.8136    9.0525    0.0000 C   0  0  0  0  0  0  0  0  0  0  0  0
    1.6572    6.8753    0.0000 C   0  0  0  0  0  0  0  0  0  0  0  0
    2.8240    8.0421    0.0000 C   0  0  0  0  0  0  0  0  0  0  0  0
   -1.0493   11.4991    0.0000 C   0  0  0  0  0  0  0  0  0  0  0  0
   -2.4296   11.8690    0.0000 C   0  0  0  0  0  0  0  0  0  0  0  0
    2.4541    6.6618    0.0000 C   0  0  0  0  0  0  0  0  0  0  0  0
    3.0375    7.2451    0.0000 C   0  0  0  0  0  0  0  0  0  0  0  0
    2.1833   10.4328    0.0000 C   0  0  0  0  0  0  0  0  0  0  0  0
    2.7667   11.0162    0.0000 C   0  0  0  0  0  0  0  0  0  0  0  0
    1.3865   10.6463    0.0000 C   0  0  0  0  0  0  0  0  0  0  0  0
    1.9699   11.2296    0.0000 C   0  0  0  0  0  0  0  0  0  0  0  0
  1 25  1  0  0  0  0
  1 32  1  0  0  0  0
  2 20  2  0  0  0  0
  3 20  1  0  0  0  0
  4 25  2  0  0  0  0
  5  6  1  0  0  0  0
  5  8  1  0  0  0  0
  5 13  1  0  0  0  0
  6  9  2  0  0  0  0
  7  8  1  0  0  0  0
  7  9  1  0  0  0  0
  7 10  2  0  0  0  0
  8 11  2  0  0  0  0
  9 14  1  0  0  0  0
 10 12  1  0  0  0  0
 11 16  1  0  0  0  0
 12 16  2  0  0  0  0
 12 20  1  0  0  0  0
 13 15  1  0  0  0  0
 14 28  2  0  0  0  0
 14 29  1  0  0  0  0
 15 21  2  0  0  0  0
 15 22  1  0  0  0  0
 17 18  1  0  0  0  0
 17 19  1  0  0  0  0
 17 26  2  0  0  0  0
 18 23  2  0  0  0  0
 18 24  1  0  0  0  0
 19 25  1  0  0  0  0
 19 27  2  0  0  0  0
 21 23  1  0  0  0  0
 22 24  2  0  0  0  0
 26 30  1  0  0  0  0
 27 31  1  0  0  0  0
 30 31  2  0  0  0  0
 32 33  1  0  0  0  0
 32 34  1  0  0  0  0
 32 35  1  0  0  0  0
M  END
> <PUBCHEM_COMPOUND_ID_TYPE>
0

> <PUBCHEM_TOTAL_CHARGE>
0

> <PUBCHEM_SUBSTANCE_ID>
310947366

> <PUBCHEM_SUBSTANCE_VERSION>
1

> <PUBCHEM_EXT_DATASOURCE_NAME>
4488

> <PUBCHEM_EXT_DATASOURCE_REGID>
SCHEMBL16125522

> <PUBCHEM_SUBSTANCE_COMMENT>
InChI=1S/C29H28N2O4/c1-18(2)26-24-16-21(27(32)33)14-15-25(24)31(30-26)17-19-10-12-20(13-11-19)22-8-6-7-9-23(22)28(34)35-29(3,4)5/h6-16H,1,17H2,2-5H3,(H,32,33)
InChIKey=CIXKVMXSDRDJEV-UHFFFAOYSA-N

> <PUBCHEM_SUBSTANCE_SYNONYM>
SCHEMBL16125522

> <PUBCHEM_XREF_EXT_ID>
SCHEMBL16125522

> <PUBCHEM_EXT_DATASOURCE_URL>
https://www.surechembl.org/

> <PUBCHEM_EXT_SUBSTANCE_URL>
https://www.surechembl.org/chemical/SCHEMBL16125522

> <PUBCHEM_CID_ASSOCIATIONS>
117613111  1

> <PUBCHEM_COORDINATE_TYPE>
1
3

$$$$
