310947076
  -OEChem-07211613022D

 35 39  0     1  0  0  0  0  0999 V2000
   -1.8486   -2.5584    0.0000 S   0  0  0  0  0  0  0  0  0  0  0  0
   -0.6942    3.8845    0.0000 O   0  0  0  0  0  0  0  0  0  0  0  0
   -1.4274   -0.2964    0.0000 O   0  0  0  0  0  0  0  0  0  0  0  0
   -2.4726   -2.0281    0.0000 O   0  0  0  0  0  0  0  0  0  0  0  0
   -2.3947   -3.1825    0.0000 O   0  0  0  0  0  0  0  0  0  0  0  0
    0.0234   -4.1965    0.0000 O   0  0  0  0  0  0  0  0  0  0  0  0
    0.0546    2.0437    0.0000 N   0  0  0  0  0  0  0  0  0  0  0  0
    0.5538    1.3884    0.0000 N   0  0  0  0  0  0  0  0  0  0  0  0
    0.3354   -0.0780    0.0000 N   0  0  0  0  0  0  0  0  0  0  0  0
   -2.1606    0.9360    0.0000 N   0  0  0  0  0  0  0  0  0  0  0  0
   -1.2090   -3.1045    0.0000 N   0  0  0  0  0  0  0  0  0  0  0  0
    2.4726    2.6052    0.0000 N   0  0  0  0  0  0  0  0  0  0  0  0
   -0.7254    1.7940    0.0000 C   0  0  0  0  0  0  0  0  0  0  0  0
    0.2886    2.8548    0.0000 C   0  0  3  0  0  0  0  0  0  0  0  0
   -0.7410    0.9672    0.0000 C   0  0  0  0  0  0  0  0  0  0  0  0
    0.0546    0.7176    0.0000 C   0  0  0  0  0  0  0  0  0  0  0  0
   -1.4430    0.5460    0.0000 C   0  0  0  0  0  0  0  0  0  0  0  0
   -1.4742    2.1840    0.0000 C   0  0  0  0  0  0  0  0  0  0  0  0
   -0.5070    3.0889    0.0000 C   0  0  0  0  0  0  0  0  0  0  0  0
    0.8970    3.4164    0.0000 C   0  0  0  0  0  0  0  0  0  0  0  0
    0.8346    2.2464    0.0000 C   0  0  0  0  0  0  0  0  0  0  0  0
   -0.2106   -0.6864    0.0000 C   0  0  0  0  0  0  0  0  0  0  0  0
   -2.1606    1.7628    0.0000 C   0  0  0  0  0  0  0  0  0  0  0  0
   -1.3026   -1.9188    0.0000 C   0  0  0  0  0  0  0  0  0  0  0  0
    0.7098    4.2121    0.0000 C   0  0  0  0  0  0  0  0  0  0  0  0
   -1.0218   -0.5460    0.0000 C   0  0  0  0  0  0  0  0  0  0  0  0
    0.0546   -1.4664    0.0000 C   0  0  0  0  0  0  0  0  0  0  0  0
   -1.5522   -1.1388    0.0000 C   0  0  0  0  0  0  0  0  0  0  0  0
   -0.4914   -2.0904    0.0000 C   0  0  0  0  0  0  0  0  0  0  0  0
    1.6459    2.4025    0.0000 C   0  0  0  0  0  0  0  0  0  0  0  0
   -0.0702    4.4616    0.0000 C   0  0  0  0  0  0  0  0  0  0  0  0
   -1.3806   -3.9157    0.0000 C   0  0  0  0  0  0  0  0  0  0  0  0
   -0.4446   -2.8393    0.0000 C   0  0  0  0  0  0  0  0  0  0  0  0
   -0.7566   -4.4616    0.0000 C   0  0  0  0  0  0  0  0  0  0  0  0
    0.1794   -3.3696    0.0000 C   0  0  0  0  0  0  0  0  0  0  0  0
  1  4  2  0  0  0  0
  1  5  2  0  0  0  0
  1 11  1  0  0  0  0
  1 24  1  0  0  0  0
  2 19  1  0  0  0  0
  2 31  1  0  0  0  0
  3 17  2  0  0  0  0
  6 34  1  0  0  0  0
  6 35  1  0  0  0  0
  7  8  1  0  0  0  0
  7 13  1  0  0  0  0
  7 14  1  0  0  0  0
  8 16  2  0  0  0  0
  9 16  1  0  0  0  0
  9 22  1  0  0  0  0
 10 17  1  0  0  0  0
 10 23  1  0  0  0  0
 11 32  1  0  0  0  0
 11 33  1  0  0  0  0
 12 30  3  0  0  0  0
 13 15  2  0  0  0  0
 13 18  1  0  0  0  0
 14 19  1  0  0  0  0
 14 20  1  0  0  0  0
 14 21  1  6  0  0  0
 15 16  1  0  0  0  0
 15 17  1  0  0  0  0
 18 23  2  0  0  0  0
 20 25  1  0  0  0  0
 21 30  1  0  0  0  0
 22 26  2  0  0  0  0
 22 27  1  0  0  0  0
 24 28  2  0  0  0  0
 24 29  1  0  0  0  0
 25 31  1  0  0  0  0
 26 28  1  0  0  0  0
 27 29  2  0  0  0  0
 32 34  1  0  0  0  0
 33 35  1  0  0  0  0
M  END
> <PUBCHEM_COMPOUND_ID_TYPE>
0

> <PUBCHEM_TOTAL_CHARGE>
0

> <PUBCHEM_SUBSTANCE_ID>
310947076

> <PUBCHEM_SUBSTANCE_VERSION>
1

> <PUBCHEM_EXT_DATASOURCE_NAME>
4488

> <PUBCHEM_EXT_DATASOURCE_REGID>
SCHEMBL16125230

> <PUBCHEM_SUBSTANCE_COMMENT>
InChI=1S/C23H26N6O5S/c24-9-8-23(7-1-13-34-16-23)29-19-6-10-25-22(30)20(19)21(27-29)26-17-2-4-18(5-3-17)35(31,32)28-11-14-33-15-12-28/h2-6,10H,1,7-8,11-16H2,(H,25,30)(H,26,27)/t23-/m0/s1
InChIKey=NRBYPQPEINPUBW-QHCPKHFHSA-N

> <PUBCHEM_SUBSTANCE_SYNONYM>
SCHEMBL16125230

> <PUBCHEM_XREF_EXT_ID>
SCHEMBL16125230

> <PUBCHEM_EXT_DATASOURCE_URL>
https://www.surechembl.org/

> <PUBCHEM_EXT_SUBSTANCE_URL>
https://www.surechembl.org/chemical/SCHEMBL16125230

> <PUBCHEM_CID_ASSOCIATIONS>
117612928  1

> <PUBCHEM_COORDINATE_TYPE>
1
3

> <PUBCHEM_BONDANNOTATIONS>
14  21  6

$$$$
