310940558
  -OEChem-07211613022D

 33 37  0     1  0  0  0  0  0999 V2000
    1.9496   -0.3675    0.0000 O   0  0  0  0  0  0  0  0  0  0  0  0
    2.0395    1.1172    0.0000 O   0  0  0  0  0  0  0  0  0  0  0  0
   -3.4793   -2.5870    0.0000 O   0  0  0  0  0  0  0  0  0  0  0  0
    0.8098    0.3074    0.0000 N   0  0  0  0  0  0  0  0  0  0  0  0
    0.6449   -2.1670    0.0000 N   0  0  0  0  0  0  0  0  0  0  0  0
    2.7744   -1.7321    0.0000 N   0  0  0  0  0  0  0  0  0  0  0  0
   -2.9994   -3.2768    0.0000 N   0  0  0  0  0  0  0  0  0  0  0  0
    0.6298   -0.4274    0.0000 C   0  0  0  0  0  0  0  0  0  0  0  0
    1.3497   -0.8473    0.0000 C   0  0  0  0  0  0  0  0  0  0  0  0
   -0.0750   -0.8323    0.0000 C   0  0  0  0  0  0  0  0  0  0  0  0
   -0.1050   -1.6722    0.0000 C   0  0  0  0  0  0  0  0  0  0  0  0
    1.3347   -1.6722    0.0000 C   0  0  0  0  0  0  0  0  0  0  0  0
    1.5897    0.4424    0.0000 C   0  0  0  0  0  0  0  0  0  0  0  0
    0.2400    0.9523    0.0000 C   0  0  3  0  0  0  0  0  0  0  0  0
   -1.4996   -1.6722    0.0000 C   0  0  0  0  0  0  0  0  0  0  0  0
   -0.7948   -0.4424    0.0000 C   0  0  0  0  0  0  0  0  0  0  0  0
   -0.7798   -2.0620    0.0000 C   0  0  0  0  0  0  0  0  0  0  0  0
   -2.2046   -2.0920    0.0000 C   0  0  0  0  0  0  0  0  0  0  0  0
   -1.4697   -0.8323    0.0000 C   0  0  0  0  0  0  0  0  0  0  0  0
    0.4499    1.7771    0.0000 C   0  0  0  0  0  0  0  0  0  0  0  0
    2.0546   -2.0771    0.0000 C   0  0  0  0  0  0  0  0  0  0  0  0
   -3.0144   -1.8221    0.0000 C   0  0  0  0  0  0  0  0  0  0  0  0
   -2.2195   -2.9169    0.0000 C   0  0  0  0  0  0  0  0  0  0  0  0
   -0.5399    0.7724    0.0000 C   0  0  0  0  0  0  0  0  0  0  0  0
   -0.1199    2.3320    0.0000 C   0  0  0  0  0  0  0  0  0  0  0  0
    1.2447    2.0021    0.0000 C   0  0  0  0  0  0  0  0  0  0  0  0
   -3.2543   -1.0123    0.0000 C   0  0  0  0  0  0  0  0  0  0  0  0
   -1.4847   -3.3368    0.0000 C   0  0  0  0  0  0  0  0  0  0  0  0
    0.0900    3.1418    0.0000 C   0  0  0  0  0  0  0  0  0  0  0  0
    1.4397    2.7819    0.0000 C   0  0  0  0  0  0  0  0  0  0  0  0
    0.8698    3.3368    0.0000 C   0  0  0  0  0  0  0  0  0  0  0  0
    3.4793   -2.0771    0.0000 C   0  0  0  0  0  0  0  0  0  0  0  0
    2.7594   -0.8323    0.0000 C   0  0  0  0  0  0  0  0  0  0  0  0
  1  9  1  0  0  0  0
  1 13  1  0  0  0  0
  2 13  2  0  0  0  0
  3  7  1  0  0  0  0
  3 22  1  0  0  0  0
  4  8  1  0  0  0  0
  4 13  1  0  0  0  0
  4 14  1  0  0  0  0
  5 11  1  0  0  0  0
  5 12  2  0  0  0  0
  6 21  1  0  0  0  0
  6 32  1  0  0  0  0
  6 33  1  0  0  0  0
  7 23  2  0  0  0  0
  8  9  2  0  0  0  0
  8 10  1  0  0  0  0
  9 12  1  0  0  0  0
 10 11  2  0  0  0  0
 10 16  1  0  0  0  0
 11 17  1  0  0  0  0
 12 21  1  0  0  0  0
 14 20  1  0  0  0  0
 14 24  1  6  0  0  0
 15 17  2  0  0  0  0
 15 18  1  0  0  0  0
 15 19  1  0  0  0  0
 16 19  2  0  0  0  0
 18 22  2  0  0  0  0
 18 23  1  0  0  0  0
 20 25  2  0  0  0  0
 20 26  1  0  0  0  0
 22 27  1  0  0  0  0
 23 28  1  0  0  0  0
 25 29  1  0  0  0  0
 26 30  2  0  0  0  0
 29 31  2  0  0  0  0
 30 31  1  0  0  0  0
M  END
> <PUBCHEM_COMPOUND_ID_TYPE>
0

> <PUBCHEM_TOTAL_CHARGE>
0

> <PUBCHEM_SUBSTANCE_ID>
310940558

> <PUBCHEM_SUBSTANCE_VERSION>
1

> <PUBCHEM_EXT_DATASOURCE_NAME>
4488

> <PUBCHEM_EXT_DATASOURCE_REGID>
SCHEMBL16118512

> <PUBCHEM_SUBSTANCE_COMMENT>
InChI=1S/C26H26N4O3/c1-15-23(17(3)33-28-15)19-11-12-20-21(13-19)27-22(14-29(4)5)25-24(20)30(26(31)32-25)16(2)18-9-7-6-8-10-18/h6-13,16H,14H2,1-5H3/t16-/m1/s1
InChIKey=KFQIXOZJSYYJTH-MRXNPFEDSA-N

> <PUBCHEM_SUBSTANCE_SYNONYM>
SCHEMBL16118512

> <PUBCHEM_XREF_EXT_ID>
SCHEMBL16118512

> <PUBCHEM_EXT_DATASOURCE_URL>
https://www.surechembl.org/

> <PUBCHEM_EXT_SUBSTANCE_URL>
https://www.surechembl.org/chemical/SCHEMBL16118512

> <PUBCHEM_CID_ASSOCIATIONS>
117607556  1

> <PUBCHEM_COORDINATE_TYPE>
1
3

> <PUBCHEM_BONDANNOTATIONS>
14  24  6

$$$$
