310941191
  -OEChem-07211613022D

 22 23  0     1  0  0  0  0  0999 V2000
    2.3352   -1.7998    0.0000 O   0  0  0  0  0  0  0  0  0  0  0  0
    1.0115    2.6378    0.0000 O   0  0  0  0  0  0  0  0  0  0  0  0
    2.4770    1.7777    0.0000 O   0  0  0  0  0  0  0  0  0  0  0  0
    1.8256   -2.6378    0.0000 O   0  0  0  0  0  0  0  0  0  0  0  0
    0.2628    0.0574    0.0000 N   0  0  0  0  0  0  0  0  0  0  0  0
    1.7442    1.3476    0.0000 N   0  0  0  0  0  0  0  0  0  0  0  0
   -1.2504    1.3476    0.0000 C   0  0  0  0  0  0  0  0  0  0  0  0
   -1.9513    0.9653    0.0000 C   0  0  3  0  0  0  0  0  0  0  0  0
   -1.9194    1.7618    0.0000 C   0  0  3  0  0  0  0  0  0  0  0  0
   -0.4699    1.7777    0.0000 C   0  0  0  0  0  0  0  0  0  0  0  0
   -2.7636    0.6785    0.0000 C   0  0  0  0  0  0  0  0  0  0  0  0
   -2.7636    2.0325    0.0000 C   0  0  0  0  0  0  0  0  0  0  0  0
    0.2788    1.3635    0.0000 C   0  0  3  0  0  0  0  0  0  0  0  0
   -3.2415    1.3476    0.0000 C   0  0  0  0  0  0  0  0  0  0  0  0
    0.9955    1.7777    0.0000 C   0  0  0  0  0  0  0  0  0  0  0  0
    1.8256   -2.0942    0.0000 C   0  0  0  0  0  0  0  0  0  0  0  0
    2.3465   -1.2336    0.0000 C   0  0  0  0  0  0  0  0  0  0  0  0
    1.7601    0.4874    0.0000 C   0  0  0  0  0  0  0  0  0  0  0  0
    2.8561   -1.2110    0.0000 C   0  0  0  0  0  0  0  0  0  0  0  0
    1.8256   -1.2336    0.0000 C   0  0  0  0  0  0  0  0  0  0  0  0
    2.3352   -0.6787    0.0000 C   0  0  0  0  0  0  0  0  0  0  0  0
    3.2415    1.3795    0.0000 C   0  0  0  0  0  0  0  0  0  0  0  0
  1 16  1  0  0  0  0
  1 17  1  0  0  0  0
  2 15  2  0  0  0  0
  3  6  1  0  0  0  0
  3 22  1  0  0  0  0
  4 16  2  0  0  0  0
 13  5  1  1  0  0  0
  5 16  1  0  0  0  0
  6 15  1  0  0  0  0
  6 18  1  0  0  0  0
  7  8  1  0  0  0  0
  7  9  1  0  0  0  0
  7 10  1  1  0  0  0
  8  9  1  0  0  0  0
  8 11  1  1  0  0  0
  9 12  1  1  0  0  0
 10 13  1  0  0  0  0
 11 14  1  0  0  0  0
 12 14  1  0  0  0  0
 13 15  1  0  0  0  0
 17 19  1  0  0  0  0
 17 20  1  0  0  0  0
 17 21  1  0  0  0  0
M  END
> <PUBCHEM_COMPOUND_ID_TYPE>
0

> <PUBCHEM_TOTAL_CHARGE>
0

> <PUBCHEM_SUBSTANCE_ID>
310941191

> <PUBCHEM_SUBSTANCE_VERSION>
1

> <PUBCHEM_EXT_DATASOURCE_NAME>
4488

> <PUBCHEM_EXT_DATASOURCE_REGID>
SCHEMBL16119151

> <PUBCHEM_SUBSTANCE_COMMENT>
InChI=1S/C16H28N2O4/c1-16(2,3)22-15(20)17-13(14(19)18(4)21-5)9-12-10-7-6-8-11(10)12/h10-13H,6-9H2,1-5H3,(H,17,20)/t10-,11+,12-,13-/m0/s1
InChIKey=YRLGGHILMYCGLI-RNJOBUHISA-N

> <PUBCHEM_SUBSTANCE_SYNONYM>
SCHEMBL16119151

> <PUBCHEM_XREF_EXT_ID>
SCHEMBL16119151

> <PUBCHEM_EXT_DATASOURCE_URL>
https://www.surechembl.org/

> <PUBCHEM_EXT_SUBSTANCE_URL>
https://www.surechembl.org/chemical/SCHEMBL16119151

> <PUBCHEM_CID_ASSOCIATIONS>
117608047  1

> <PUBCHEM_COORDINATE_TYPE>
1
3

> <PUBCHEM_BONDANNOTATIONS>
13  5  5
7  10  5
8  11  5
9  12  5

$$$$
