310947903
  -OEChem-07211613022D

 12 13  0     0  0  0  0  0  0999 V2000
   -1.3562   16.8819    0.0000 S   0  0  0  0  0  0  0  0  0  0  0  0
   -4.2842   17.0395    0.0000 F   0  0  0  0  0  0  0  0  0  0  0  0
   -1.3562   15.5470    0.0000 N   0  0  0  0  0  0  0  0  0  0  0  0
   -2.1408   15.8020    0.0000 C   0  0  0  0  0  0  0  0  0  0  0  0
   -2.1408   16.6270    0.0000 C   0  0  0  0  0  0  0  0  0  0  0  0
   -2.8553   15.3895    0.0000 C   0  0  0  0  0  0  0  0  0  0  0  0
   -0.8712   16.2145    0.0000 C   0  0  0  0  0  0  0  0  0  0  0  0
   -2.8553   17.0395    0.0000 C   0  0  0  0  0  0  0  0  0  0  0  0
   -3.5697   16.6270    0.0000 C   0  0  0  0  0  0  0  0  0  0  0  0
   -3.5697   15.8020    0.0000 C   0  0  0  0  0  0  0  0  0  0  0  0
   -2.8553   14.5645    0.0000 C   0  0  0  0  0  0  0  0  0  0  0  0
   -0.0462   16.2145    0.0000 C   0  0  0  0  0  0  0  0  0  0  0  0
  1  5  1  0  0  0  0
  1  7  1  0  0  0  0
  2  9  1  0  0  0  0
  3  4  1  0  0  0  0
  3  7  2  0  0  0  0
  4  5  1  0  0  0  0
  4  6  2  0  0  0  0
  5  8  2  0  0  0  0
  6 10  1  0  0  0  0
  6 11  1  0  0  0  0
  7 12  1  0  0  0  0
  8  9  1  0  0  0  0
  9 10  2  0  0  0  0
M  END
> <PUBCHEM_COMPOUND_ID_TYPE>
0

> <PUBCHEM_TOTAL_CHARGE>
0

> <PUBCHEM_SUBSTANCE_ID>
310947903

> <PUBCHEM_SUBSTANCE_VERSION>
1

> <PUBCHEM_EXT_DATASOURCE_NAME>
4488

> <PUBCHEM_EXT_DATASOURCE_REGID>
SCHEMBL16126077

> <PUBCHEM_SUBSTANCE_COMMENT>
InChI=1S/C9H8FNS/c1-5-3-7(10)4-8-9(5)11-6(2)12-8/h3-4H,1-2H3
InChIKey=GICGPKURCVGENX-UHFFFAOYSA-N

> <PUBCHEM_SUBSTANCE_SYNONYM>
SCHEMBL16126077

> <PUBCHEM_XREF_EXT_ID>
SCHEMBL16126077

> <PUBCHEM_EXT_DATASOURCE_URL>
https://www.surechembl.org/

> <PUBCHEM_EXT_SUBSTANCE_URL>
https://www.surechembl.org/chemical/SCHEMBL16126077

> <PUBCHEM_CID_ASSOCIATIONS>
117613566  1

> <PUBCHEM_COORDINATE_TYPE>
1
3

$$$$
