310930784
  -OEChem-07211613022D

 30 33  0     0  0  0  0  0  0999 V2000
   -6.4303    0.8250    0.0000 S   0  0  0  0  0  0  0  0  0  0  0  0
   -6.0178    1.5395    0.0000 O   0  0  0  0  0  0  0  0  0  0  0  0
   -6.8428    0.1106    0.0000 O   0  0  0  0  0  0  0  0  0  0  0  0
   -2.1434   -1.6500    0.0000 O   0  0  0  0  0  0  0  0  0  0  0  0
    0.0000   -0.4125    0.0000 N   0  0  0  0  0  0  0  0  0  0  0  0
   -0.7145    0.8250    0.0000 N   0  0  0  0  0  0  0  0  0  0  0  0
    0.7846    0.6674    0.0000 N   0  0  0  0  0  0  0  0  0  0  0  0
   -2.8579   -0.4125    0.0000 N   0  0  0  0  0  0  0  0  0  0  0  0
  -10.0027    0.4125    0.0000 N   0  0  0  0  0  0  0  0  0  0  0  0
   -5.7159    0.4125    0.0000 C   0  0  0  0  0  0  0  0  0  0  0  0
   -7.1448    1.2375    0.0000 C   0  0  0  0  0  0  0  0  0  0  0  0
    0.0000    0.4125    0.0000 C   0  0  0  0  0  0  0  0  0  0  0  0
   -1.4290   -0.4125    0.0000 C   0  0  0  0  0  0  0  0  0  0  0  0
   -7.8593    0.8250    0.0000 C   0  0  0  0  0  0  0  0  0  0  0  0
   -5.0013    0.8250    0.0000 C   0  0  0  0  0  0  0  0  0  0  0  0
   -5.7159   -0.4125    0.0000 C   0  0  0  0  0  0  0  0  0  0  0  0
   -0.7145   -0.8250    0.0000 C   0  0  0  0  0  0  0  0  0  0  0  0
   -7.1448    2.0625    0.0000 C   0  0  0  0  0  0  0  0  0  0  0  0
   -4.2869   -0.4125    0.0000 C   0  0  0  0  0  0  0  0  0  0  0  0
   -2.1434   -0.8250    0.0000 C   0  0  0  0  0  0  0  0  0  0  0  0
   -8.5738    1.2375    0.0000 C   0  0  0  0  0  0  0  0  0  0  0  0
   -1.4290    0.4125    0.0000 C   0  0  0  0  0  0  0  0  0  0  0  0
   -4.2869    0.4125    0.0000 C   0  0  0  0  0  0  0  0  0  0  0  0
   -5.0013   -0.8250    0.0000 C   0  0  0  0  0  0  0  0  0  0  0  0
    0.7846   -0.6674    0.0000 C   0  0  0  0  0  0  0  0  0  0  0  0
    1.2696    0.0000    0.0000 C   0  0  0  0  0  0  0  0  0  0  0  0
   -3.5724   -0.8250    0.0000 C   0  0  0  0  0  0  0  0  0  0  0  0
   -7.8593    2.4750    0.0000 C   0  0  0  0  0  0  0  0  0  0  0  0
   -8.5738    2.0625    0.0000 C   0  0  0  0  0  0  0  0  0  0  0  0
   -9.2883    0.8250    0.0000 C   0  0  0  0  0  0  0  0  0  0  0  0
  1  2  2  0  0  0  0
  1  3  2  0  0  0  0
  1 10  1  0  0  0  0
  1 11  1  0  0  0  0
  4 20  2  0  0  0  0
  5 12  1  0  0  0  0
  5 17  1  0  0  0  0
  5 25  1  0  0  0  0
  6 12  1  0  0  0  0
  6 22  2  0  0  0  0
  7 12  2  0  0  0  0
  7 26  1  0  0  0  0
  8 20  1  0  0  0  0
  8 27  1  0  0  0  0
  9 30  3  0  0  0  0
 10 15  2  0  0  0  0
 10 16  1  0  0  0  0
 11 14  1  0  0  0  0
 11 18  2  0  0  0  0
 13 17  2  0  0  0  0
 13 20  1  0  0  0  0
 13 22  1  0  0  0  0
 14 21  2  0  0  0  0
 15 23  1  0  0  0  0
 16 24  2  0  0  0  0
 18 28  1  0  0  0  0
 19 23  2  0  0  0  0
 19 24  1  0  0  0  0
 19 27  1  0  0  0  0
 21 29  1  0  0  0  0
 21 30  1  0  0  0  0
 25 26  2  0  0  0  0
 28 29  2  0  0  0  0
M  END
> <PUBCHEM_COMPOUND_ID_TYPE>
0

> <PUBCHEM_TOTAL_CHARGE>
0

> <PUBCHEM_SUBSTANCE_ID>
310930784

> <PUBCHEM_SUBSTANCE_VERSION>
1

> <PUBCHEM_EXT_DATASOURCE_NAME>
4488

> <PUBCHEM_EXT_DATASOURCE_REGID>
SCHEMBL16108081

> <PUBCHEM_SUBSTANCE_COMMENT>
InChI=1S/C21H15N5O3S/c22-11-16-2-1-3-19(10-16)30(28,29)18-6-4-15(5-7-18)12-24-20(27)17-13-25-21-23-8-9-26(21)14-17/h1-10,13-14H,12H2,(H,24,27)
InChIKey=WKZOWZIJKXORKA-UHFFFAOYSA-N

> <PUBCHEM_SUBSTANCE_SYNONYM>
SCHEMBL16108081

> <PUBCHEM_XREF_EXT_ID>
SCHEMBL16108081

> <PUBCHEM_EXT_DATASOURCE_URL>
https://www.surechembl.org/

> <PUBCHEM_EXT_SUBSTANCE_URL>
https://www.surechembl.org/chemical/SCHEMBL16108081

> <PUBCHEM_CID_ASSOCIATIONS>
117599798  1

> <PUBCHEM_COORDINATE_TYPE>
1
3

$$$$
