310942380
  -OEChem-07211613022D

 30 31  0     1  0  0  0  0  0999 V2000
    2.4943    2.4943    0.0000 S   0  0  0  0  0  0  0  0  0  0  0  0
   -2.7392   -0.1869    0.0000 P   0  0  3  0  0  0  0  0  0  0  0  0
    0.0194   -0.4189    0.0000 O   0  0  0  0  0  0  0  0  0  0  0  0
   -1.9013   -0.1869    0.0000 O   0  0  0  0  0  0  0  0  0  0  0  0
    0.6510   -2.4943    0.0000 O   0  0  0  0  0  0  0  0  0  0  0  0
   -0.6123   -2.4943    0.0000 O   0  0  0  0  0  0  0  0  0  0  0  0
   -2.7263    0.6381    0.0000 O   0  0  0  0  0  0  0  0  0  0  0  0
    0.9990    0.1740    0.0000 N   0  0  0  0  0  0  0  0  0  0  0  0
    0.9990    1.5146    0.0000 N   0  0  0  0  0  0  0  0  0  0  0  0
    2.4943    0.0064    0.0000 N   0  0  0  0  0  0  0  0  0  0  0  0
    3.2290    1.2569    0.0000 N   0  0  0  0  0  0  0  0  0  0  0  0
    1.7467    0.4447    0.0000 C   0  0  0  0  0  0  0  0  0  0  0  0
    1.7725    1.2697    0.0000 C   0  0  0  0  0  0  0  0  0  0  0  0
    0.6381   -0.8572    0.0000 C   0  0  3  0  0  0  0  0  0  0  0  0
    0.4963    0.8701    0.0000 C   0  0  0  0  0  0  0  0  0  0  0  0
    2.4943    1.6822    0.0000 C   0  0  0  0  0  0  0  0  0  0  0  0
    0.4189   -1.6693    0.0000 C   0  0  3  0  0  0  0  0  0  0  0  0
    3.2162    0.4319    0.0000 C   0  0  0  0  0  0  0  0  0  0  0  0
   -1.4501   -0.1612    0.0000 C   0  0  3  0  0  0  0  0  0  0  0  0
   -0.6381   -0.8959    0.0000 C   0  0  0  0  0  0  0  0  0  0  0  0
   -1.0635   -0.1740    0.0000 C   0  0  0  0  0  0  0  0  0  0  0  0
   -0.4061   -1.6693    0.0000 C   0  0  0  0  0  0  0  0  0  0  0  0
   -1.5146    0.4834    0.0000 C   0  0  0  0  0  0  0  0  0  0  0  0
   -3.2290   -0.1612    0.0000 C   0  0  0  0  0  0  0  0  0  0  0  0
   -1.8240   -1.3857    0.0000 C   0  0  0  0  0  0  0  0  0  0  0  0
   -3.1517   -0.7799    0.0000 C   0  0  0  0  0  0  0  0  0  0  0  0
   -3.0615    0.7927    0.0000 C   0  0  0  0  0  0  0  0  0  0  0  0
   -1.7853    1.1537    0.0000 C   0  0  0  0  0  0  0  0  0  0  0  0
   -2.8810   -1.3986    0.0000 C   0  0  0  0  0  0  0  0  0  0  0  0
   -2.9068    1.1666    0.0000 C   0  0  0  0  0  0  0  0  0  0  0  0
  1 16  1  0  0  0  0
  2  4  1  0  0  0  0
  2  7  2  0  0  0  0
  2 24  1  0  0  0  0
  3 14  1  0  0  0  0
  3 20  1  0  0  0  0
  4 19  1  0  0  0  0
 17  5  1  6  0  0  0
  6 22  1  0  0  0  0
  8 12  1  0  0  0  0
  8 14  1  0  0  0  0
  8 15  1  0  0  0  0
  9 13  1  0  0  0  0
  9 15  2  0  0  0  0
 10 12  1  0  0  0  0
 10 18  2  0  0  0  0
 11 16  2  0  0  0  0
 11 18  1  0  0  0  0
 12 13  2  0  0  0  0
 13 16  1  0  0  0  0
 14 17  1  0  0  0  0
 17 22  1  0  0  0  0
 19 21  1  0  0  0  0
 19 23  1  0  0  0  0
 19 25  1  0  0  0  0
 20 21  1  0  0  0  0
 23 28  1  0  0  0  0
 24 26  1  0  0  0  0
 24 27  1  0  0  0  0
 26 29  1  0  0  0  0
 27 30  1  0  0  0  0
M  END
> <PUBCHEM_COMPOUND_ID_TYPE>
0

> <PUBCHEM_TOTAL_CHARGE>
0

> <PUBCHEM_SUBSTANCE_ID>
310942380

> <PUBCHEM_SUBSTANCE_VERSION>
1

> <PUBCHEM_EXT_DATASOURCE_NAME>
4488

> <PUBCHEM_EXT_DATASOURCE_REGID>
SCHEMBL16120416

> <PUBCHEM_SUBSTANCE_COMMENT>
InChI=1S/C19H33N4O5PS/c1-5-13(6-2)29(26)28-19(4,7-3)8-9-27-18(14(25)10-24)23-12-22-15-16(23)20-11-21-17(15)30/h11-14,18,24-25,29H,5-10H2,1-4H3,(H,20,21,30)/t14-,18?,19?/m1/s1
InChIKey=GVUGHOZGHVOUKN-FTXHTYHOSA-N

> <PUBCHEM_SUBSTANCE_SYNONYM>
SCHEMBL16120416

> <PUBCHEM_XREF_EXT_ID>
SCHEMBL16120416

> <PUBCHEM_EXT_DATASOURCE_URL>
https://www.surechembl.org/

> <PUBCHEM_EXT_SUBSTANCE_URL>
https://www.surechembl.org/chemical/SCHEMBL16120416

> <PUBCHEM_CID_ASSOCIATIONS>
117608995  1

> <PUBCHEM_COORDINATE_TYPE>
1
3

> <PUBCHEM_BONDANNOTATIONS>
17  5  6

$$$$
