310943080
  -OEChem-07211613022D

  8  8  0     1  0  0  0  0  0999 V2000
   -0.4020    1.5661    0.0000 O   0  0  0  0  0  0  0  0  0  0  0  0
    1.1725   -1.5661    0.0000 N   0  0  0  0  0  0  0  0  0  0  0  0
    0.2680   -0.1926    0.0000 C   0  0  3  0  0  0  0  0  0  0  0  0
    0.6700    0.5611    0.0000 C   0  0  0  0  0  0  0  0  0  0  0  0
   -0.5360   -0.2763    0.0000 C   0  0  0  0  0  0  0  0  0  0  0  0
    0.3853    1.2981    0.0000 C   0  0  0  0  0  0  0  0  0  0  0  0
   -1.1725    0.3266    0.0000 C   0  0  0  0  0  0  0  0  0  0  0  0
   -1.0887    1.1473    0.0000 C   0  0  0  0  0  0  0  0  0  0  0  0
  1  6  1  0  0  0  0
  1  8  1  0  0  0  0
  3  2  1  6  0  0  0
  3  4  1  0  0  0  0
  3  5  1  0  0  0  0
  4  6  1  0  0  0  0
  5  7  1  0  0  0  0
  7  8  1  0  0  0  0
M  END
> <PUBCHEM_COMPOUND_ID_TYPE>
0

> <PUBCHEM_TOTAL_CHARGE>
0

> <PUBCHEM_SUBSTANCE_ID>
310943080

> <PUBCHEM_SUBSTANCE_VERSION>
1

> <PUBCHEM_EXT_DATASOURCE_NAME>
4488

> <PUBCHEM_EXT_DATASOURCE_REGID>
SCHEMBL16121139

> <PUBCHEM_SUBSTANCE_COMMENT>
InChI=1S/C6H13NO/c7-6-2-1-4-8-5-3-6/h6H,1-5,7H2/t6-/m1/s1
InChIKey=JWKWKYIUVWBSCM-ZCFIWIBFSA-N

> <PUBCHEM_SUBSTANCE_SYNONYM>
SCHEMBL16121139

> <PUBCHEM_XREF_EXT_ID>
SCHEMBL16121139

> <PUBCHEM_EXT_DATASOURCE_URL>
https://www.surechembl.org/

> <PUBCHEM_EXT_SUBSTANCE_URL>
https://www.surechembl.org/chemical/SCHEMBL16121139

> <PUBCHEM_CID_ASSOCIATIONS>
96637969  1

> <PUBCHEM_COORDINATE_TYPE>
1
3

> <PUBCHEM_BONDANNOTATIONS>
3  2  6

$$$$
