310946100
  -OEChem-07211613022D

 11 10  0     0  0  0  0  0  0999 V2000
   -0.4189    0.0290    0.0000 O   0  0  0  0  0  0  0  0  0  0  0  0
   -1.8478    0.0290    0.0000 O   0  0  0  0  0  0  0  0  0  0  0  0
   -1.1333    1.2665    0.0000 O   0  0  0  0  0  0  0  0  0  0  0  0
    3.1535    1.2665    0.0000 O   0  0  0  0  0  0  0  0  0  0  0  0
    1.7245    0.4415    0.0000 N   0  0  0  0  0  0  0  0  0  0  0  0
   -1.1333    0.4415    0.0000 C   0  0  0  0  0  0  0  0  0  0  0  0
    0.2956    0.4415    0.0000 C   0  0  0  0  0  0  0  0  0  0  0  0
    1.0101    0.0290    0.0000 C   0  0  0  0  0  0  0  0  0  0  0  0
   -2.5623    0.4415    0.0000 C   0  0  0  0  0  0  0  0  0  0  0  0
    2.4390    0.8540    0.0000 C   0  0  0  0  0  0  0  0  0  0  0  0
   -3.2768    0.0290    0.0000 C   0  0  0  0  0  0  0  0  0  0  0  0
  1  6  1  0  0  0  0
  1  7  1  0  0  0  0
  2  6  1  0  0  0  0
  2  9  1  0  0  0  0
  3  6  2  0  0  0  0
  4 10  2  0  0  0  0
  5  8  1  0  0  0  0
  5 10  2  0  0  0  0
  7  8  1  0  0  0  0
  9 11  1  0  0  0  0
M  END
> <PUBCHEM_COMPOUND_ID_TYPE>
0

> <PUBCHEM_TOTAL_CHARGE>
0

> <PUBCHEM_SUBSTANCE_ID>
310946100

> <PUBCHEM_SUBSTANCE_VERSION>
1

> <PUBCHEM_EXT_DATASOURCE_NAME>
4488

> <PUBCHEM_EXT_DATASOURCE_REGID>
SCHEMBL16124208

> <PUBCHEM_SUBSTANCE_COMMENT>
InChI=1S/C6H9NO4/c1-2-10-6(9)11-4-3-7-5-8/h2-4H2,1H3
InChIKey=RLIKFQQEJIREFL-UHFFFAOYSA-N

> <PUBCHEM_SUBSTANCE_SYNONYM>
SCHEMBL16124208

> <PUBCHEM_XREF_EXT_ID>
SCHEMBL16124208

> <PUBCHEM_EXT_DATASOURCE_URL>
https://www.surechembl.org/

> <PUBCHEM_EXT_SUBSTANCE_URL>
https://www.surechembl.org/chemical/SCHEMBL16124208

> <PUBCHEM_CID_ASSOCIATIONS>
117612063  1

> <PUBCHEM_COORDINATE_TYPE>
1
3

$$$$
