310934446
  -OEChem-07211613022D

 41 46  0     1  0  0  0  0  0999 V2000
    5.7282   -7.4812    0.0000 O   0  0  0  0  0  0  0  0  0  0  0  0
    4.6663   -8.4374    0.0000 O   0  0  0  0  0  0  0  0  0  0  0  0
   -0.3020   -2.9196    0.0000 N   0  0  0  0  0  0  0  0  0  0  0  0
   -1.1270   -2.9196    0.0000 N   0  0  0  0  0  0  0  0  0  0  0  0
    0.7599   -1.9634    0.0000 N   0  0  0  0  0  0  0  0  0  0  0  0
    3.2652   -5.8135    0.0000 N   0  0  0  0  0  0  0  0  0  0  0  0
    4.3693   -7.0397    0.0000 N   0  0  0  0  0  0  0  0  0  0  0  0
    0.7144    0.8250    0.0000 N   0  0  0  0  0  0  0  0  0  0  0  0
   -0.7144   -1.6500    0.0000 C   0  0  0  0  0  0  0  0  0  0  0  0
   -0.0470   -2.1349    0.0000 C   0  0  0  0  0  0  0  0  0  0  0  0
   -0.7144   -0.8250    0.0000 C   0  0  0  0  0  0  0  0  0  0  0  0
    0.0000   -0.4125    0.0000 C   0  0  0  0  0  0  0  0  0  0  0  0
    1.0571   -3.3611    0.0000 C   0  0  0  0  0  0  0  0  0  0  0  0
   -1.3819   -2.1349    0.0000 C   0  0  0  0  0  0  0  0  0  0  0  0
    0.2500   -3.5327    0.0000 C   0  0  0  0  0  0  0  0  0  0  0  0
    0.0000    0.4125    0.0000 C   0  0  0  0  0  0  0  0  0  0  0  0
    1.6090   -3.9742    0.0000 C   0  0  0  0  0  0  0  0  0  0  0  0
    2.7131   -5.2004    0.0000 C   0  0  0  0  0  0  0  0  0  0  0  0
    1.3120   -2.5765    0.0000 C   0  0  0  0  0  0  0  0  0  0  0  0
   -1.4290   -0.4125    0.0000 C   0  0  0  0  0  0  0  0  0  0  0  0
    3.0102   -6.5981    0.0000 C   0  0  3  0  0  0  0  0  0  0  0  0
    4.0721   -5.6419    0.0000 C   0  0  3  0  0  0  0  0  0  0  0  0
    0.7144   -0.8250    0.0000 C   0  0  0  0  0  0  0  0  0  0  0  0
   -0.7144    0.8250    0.0000 C   0  0  0  0  0  0  0  0  0  0  0  0
    2.4160   -3.8027    0.0000 C   0  0  0  0  0  0  0  0  0  0  0  0
    1.3541   -4.7588    0.0000 C   0  0  0  0  0  0  0  0  0  0  0  0
    2.9681   -4.4158    0.0000 C   0  0  0  0  0  0  0  0  0  0  0  0
    1.9062   -5.3719    0.0000 C   0  0  0  0  0  0  0  0  0  0  0  0
   -1.4290    0.4125    0.0000 C   0  0  0  0  0  0  0  0  0  0  0  0
    3.5622   -7.2112    0.0000 C   0  0  0  0  0  0  0  0  0  0  0  0
    4.6242   -6.2550    0.0000 C   0  0  0  0  0  0  0  0  0  0  0  0
    1.4290    0.4125    0.0000 C   0  0  0  0  0  0  0  0  0  0  0  0
    1.4290   -0.4125    0.0000 C   0  0  0  0  0  0  0  0  0  0  0  0
    4.9212   -7.6528    0.0000 C   0  0  0  0  0  0  0  0  0  0  0  0
    4.3271   -4.8574    0.0000 C   0  0  0  0  0  0  0  0  0  0  0  0
    2.2033   -6.7697    0.0000 C   0  0  0  0  0  0  0  0  0  0  0  0
    6.2803   -8.0944    0.0000 C   0  0  0  0  0  0  0  0  0  0  0  0
    2.1434    0.8250    0.0000 C   0  0  0  0  0  0  0  0  0  0  0  0
    6.8323   -8.7075    0.0000 C   0  0  0  0  0  0  0  0  0  0  0  0
    6.0253   -8.8789    0.0000 C   0  0  0  0  0  0  0  0  0  0  0  0
    7.0872   -7.9228    0.0000 C   0  0  0  0  0  0  0  0  0  0  0  0
  1 34  1  0  0  0  0
  1 37  1  0  0  0  0
  2 34  2  0  0  0  0
  3  4  1  0  0  0  0
  3 10  1  0  0  0  0
  3 15  1  0  0  0  0
  4 14  2  0  0  0  0
  5 10  1  0  0  0  0
  5 19  2  0  0  0  0
  6 18  1  0  0  0  0
  6 21  1  0  0  0  0
  6 22  1  0  0  0  0
  7 30  1  0  0  0  0
  7 31  1  0  0  0  0
  7 34  1  0  0  0  0
  8 16  1  0  0  0  0
  8 32  2  0  0  0  0
  9 10  2  0  0  0  0
  9 11  1  0  0  0  0
  9 14  1  0  0  0  0
 11 12  2  0  0  0  0
 11 20  1  0  0  0  0
 12 16  1  0  0  0  0
 12 23  1  0  0  0  0
 13 15  2  0  0  0  0
 13 17  1  0  0  0  0
 13 19  1  0  0  0  0
 16 24  2  0  0  0  0
 17 25  2  0  0  0  0
 17 26  1  0  0  0  0
 18 27  2  0  0  0  0
 18 28  1  0  0  0  0
 20 29  2  0  0  0  0
 21 30  1  0  0  0  0
 21 36  1  1  0  0  0
 22 31  1  0  0  0  0
 22 35  1  1  0  0  0
 23 33  2  0  0  0  0
 24 29  1  0  0  0  0
 25 27  1  0  0  0  0
 26 28  2  0  0  0  0
 32 33  1  0  0  0  0
 32 38  1  0  0  0  0
 37 39  1  0  0  0  0
 37 40  1  0  0  0  0
 37 41  1  0  0  0  0
M  END
> <PUBCHEM_COMPOUND_ID_TYPE>
0

> <PUBCHEM_TOTAL_CHARGE>
0

> <PUBCHEM_SUBSTANCE_ID>
310934446

> <PUBCHEM_SUBSTANCE_VERSION>
1

> <PUBCHEM_EXT_DATASOURCE_NAME>
4488

> <PUBCHEM_EXT_DATASOURCE_REGID>
SCHEMBL16111925

> <PUBCHEM_SUBSTANCE_COMMENT>
InChI=1S/C33H36N6O2/c1-21-10-15-28-27(8-7-9-30(28)36-21)29-17-35-38-20-25(16-34-31(29)38)24-11-13-26(14-12-24)39-22(2)18-37(19-23(39)3)32(40)41-33(4,5)6/h7-17,20,22-23H,18-19H2,1-6H3/t22-,23+
InChIKey=MXTZBHRFYOTXEF-ZRZAMGCNSA-N

> <PUBCHEM_SUBSTANCE_SYNONYM>
SCHEMBL16111925

> <PUBCHEM_XREF_EXT_ID>
SCHEMBL16111925

> <PUBCHEM_EXT_DATASOURCE_URL>
https://www.surechembl.org/

> <PUBCHEM_EXT_SUBSTANCE_URL>
https://www.surechembl.org/chemical/SCHEMBL16111925

> <PUBCHEM_CID_ASSOCIATIONS>
117602654  1

> <PUBCHEM_COORDINATE_TYPE>
1
3

> <PUBCHEM_BONDANNOTATIONS>
21  36  5
22  35  5

$$$$
