310944215
  -OEChem-07211613022D

 28 30  0     0  0  0  0  0  0999 V2000
    0.0435    4.1088    0.0000 F   0  0  0  0  0  0  0  0  0  0  0  0
   -0.0290   -4.1088    0.0000 F   0  0  0  0  0  0  0  0  0  0  0  0
   -0.6824    0.4210    0.0000 N   0  0  0  0  0  0  0  0  0  0  0  0
    0.7404   -0.4065    0.0000 N   0  0  0  0  0  0  0  0  0  0  0  0
    2.1778    3.6587    0.0000 N   0  0  0  0  0  0  0  0  0  0  0  0
   -2.1342    3.6441    0.0000 N   0  0  0  0  0  0  0  0  0  0  0  0
   -2.1778   -3.6151    0.0000 N   0  0  0  0  0  0  0  0  0  0  0  0
    2.0762   -3.7749    0.0000 N   0  0  0  0  0  0  0  0  0  0  0  0
    0.0290    1.6697    0.0000 C   0  0  0  0  0  0  0  0  0  0  0  0
    0.0000   -1.6406    0.0000 C   0  0  0  0  0  0  0  0  0  0  0  0
    0.0000    0.8420    0.0000 C   0  0  0  0  0  0  0  0  0  0  0  0
    0.0290   -0.8130    0.0000 C   0  0  0  0  0  0  0  0  0  0  0  0
    0.7550    2.9182    0.0000 C   0  0  0  0  0  0  0  0  0  0  0  0
   -0.6969    2.9037    0.0000 C   0  0  0  0  0  0  0  0  0  0  0  0
   -0.7259   -2.8311    0.0000 C   0  0  0  0  0  0  0  0  0  0  0  0
    0.6824   -2.8747    0.0000 C   0  0  0  0  0  0  0  0  0  0  0  0
    0.0290    3.3102    0.0000 C   0  0  0  0  0  0  0  0  0  0  0  0
   -0.0435   -3.2521    0.0000 C   0  0  0  0  0  0  0  0  0  0  0  0
    0.7259    2.0762    0.0000 C   0  0  0  0  0  0  0  0  0  0  0  0
   -0.6824    2.0907    0.0000 C   0  0  0  0  0  0  0  0  0  0  0  0
   -0.6969   -2.0181    0.0000 C   0  0  0  0  0  0  0  0  0  0  0  0
    0.6824   -2.0617    0.0000 C   0  0  0  0  0  0  0  0  0  0  0  0
    0.7404    0.4355    0.0000 C   0  0  0  0  0  0  0  0  0  0  0  0
   -0.6969   -0.3775    0.0000 C   0  0  0  0  0  0  0  0  0  0  0  0
    1.4518    3.2957    0.0000 C   0  0  0  0  0  0  0  0  0  0  0  0
   -1.4228    3.2957    0.0000 C   0  0  0  0  0  0  0  0  0  0  0  0
   -1.4809   -3.2376    0.0000 C   0  0  0  0  0  0  0  0  0  0  0  0
    1.3938   -3.3392    0.0000 C   0  0  0  0  0  0  0  0  0  0  0  0
  1 17  1  0  0  0  0
  2 18  1  0  0  0  0
  3 11  2  0  0  0  0
  3 24  1  0  0  0  0
  4 12  1  0  0  0  0
  4 23  2  0  0  0  0
  5 25  3  0  0  0  0
  6 26  3  0  0  0  0
  7 27  3  0  0  0  0
  8 28  3  0  0  0  0
  9 11  1  0  0  0  0
  9 19  2  0  0  0  0
  9 20  1  0  0  0  0
 10 12  1  0  0  0  0
 10 21  2  0  0  0  0
 10 22  1  0  0  0  0
 11 23  1  0  0  0  0
 12 24  2  0  0  0  0
 13 17  2  0  0  0  0
 13 19  1  0  0  0  0
 13 25  1  0  0  0  0
 14 17  1  0  0  0  0
 14 20  2  0  0  0  0
 14 26  1  0  0  0  0
 15 18  2  0  0  0  0
 15 21  1  0  0  0  0
 15 27  1  0  0  0  0
 16 18  1  0  0  0  0
 16 22  2  0  0  0  0
 16 28  1  0  0  0  0
M  END
> <PUBCHEM_COMPOUND_ID_TYPE>
0

> <PUBCHEM_TOTAL_CHARGE>
0

> <PUBCHEM_SUBSTANCE_ID>
310944215

> <PUBCHEM_SUBSTANCE_VERSION>
1

> <PUBCHEM_EXT_DATASOURCE_NAME>
4488

> <PUBCHEM_EXT_DATASOURCE_REGID>
SCHEMBL16122290

> <PUBCHEM_SUBSTANCE_COMMENT>
InChI=1S/C20H6F2N6/c21-19-13(5-23)1-11(2-14(19)6-24)17-9-28-18(10-27-17)12-3-15(7-25)20(22)16(4-12)8-26/h1-4,9-10H
InChIKey=PMDLGVHJJZRVTP-UHFFFAOYSA-N

> <PUBCHEM_SUBSTANCE_SYNONYM>
SCHEMBL16122290

> <PUBCHEM_XREF_EXT_ID>
SCHEMBL16122290

> <PUBCHEM_EXT_DATASOURCE_URL>
https://www.surechembl.org/

> <PUBCHEM_EXT_SUBSTANCE_URL>
https://www.surechembl.org/chemical/SCHEMBL16122290

> <PUBCHEM_CID_ASSOCIATIONS>
117610486  1

> <PUBCHEM_COORDINATE_TYPE>
1
3

$$$$
