310942569
  -OEChem-07211613022D

 16 16  0     0  0  0  0  0  0999 V2000
   -2.1628   -1.0087    0.0000 S   0  0  0  0  0  0  0  0  0  0  0  0
   -0.7268   -1.0087    0.0000 N   0  0  0  0  0  0  0  0  0  0  0  0
   -1.4404    0.2158    0.0000 N   0  0  0  0  0  0  0  0  0  0  0  0
    0.7092   -1.0087    0.0000 N   0  0  0  0  0  0  0  0  0  0  0  0
    2.8588    1.0087    0.0000 N   0  0  0  0  0  0  0  0  0  0  0  0
   -0.0044   -0.5946    0.0000 C   0  0  0  0  0  0  0  0  0  0  0  0
    0.0044    0.2158    0.0000 C   0  0  0  0  0  0  0  0  0  0  0  0
   -1.4404   -0.5946    0.0000 C   0  0  0  0  0  0  0  0  0  0  0  0
   -0.7268    0.6211    0.0000 C   0  0  0  0  0  0  0  0  0  0  0  0
    0.7092    0.6211    0.0000 C   0  0  0  0  0  0  0  0  0  0  0  0
    1.4228   -0.6034    0.0000 C   0  0  0  0  0  0  0  0  0  0  0  0
    1.4228    0.2247    0.0000 C   0  0  0  0  0  0  0  0  0  0  0  0
   -2.8852   -0.6123    0.0000 C   0  0  0  0  0  0  0  0  0  0  0  0
    2.1540   -1.0087    0.0000 C   0  0  0  0  0  0  0  0  0  0  0  0
    2.1452    0.6299    0.0000 C   0  0  0  0  0  0  0  0  0  0  0  0
    2.8852   -0.5946    0.0000 C   0  0  0  0  0  0  0  0  0  0  0  0
  1  8  1  0  0  0  0
  1 13  1  0  0  0  0
  2  6  2  0  0  0  0
  2  8  1  0  0  0  0
  3  8  2  0  0  0  0
  3  9  1  0  0  0  0
  4  6  1  0  0  0  0
  4 11  1  0  0  0  0
  5 15  3  0  0  0  0
  6  7  1  0  0  0  0
  7  9  2  0  0  0  0
  7 10  1  0  0  0  0
 10 12  2  0  0  0  0
 11 14  1  0  0  0  0
 12 15  1  0  0  0  0
 14 16  1  0  0  0  0
M  END
> <PUBCHEM_COMPOUND_ID_TYPE>
0

> <PUBCHEM_TOTAL_CHARGE>
0

> <PUBCHEM_SUBSTANCE_ID>
310942569

> <PUBCHEM_SUBSTANCE_VERSION>
1

> <PUBCHEM_EXT_DATASOURCE_NAME>
4488

> <PUBCHEM_EXT_DATASOURCE_REGID>
SCHEMBL16120614

> <PUBCHEM_SUBSTANCE_COMMENT>
InChI=1S/C11H14N4S/c1-3-7-13-10-9(5-4-6-12)8-14-11(15-10)16-2/h4-5,8H,3,7H2,1-2H3,(H,13,14,15)/b5-4+
InChIKey=UCNOIQNQORTOEZ-SNAWJCMRSA-N

> <PUBCHEM_SUBSTANCE_SYNONYM>
SCHEMBL16120614

> <PUBCHEM_XREF_EXT_ID>
SCHEMBL16120614

> <PUBCHEM_EXT_DATASOURCE_URL>
https://www.surechembl.org/

> <PUBCHEM_EXT_SUBSTANCE_URL>
https://www.surechembl.org/chemical/SCHEMBL16120614

> <PUBCHEM_CID_ASSOCIATIONS>
90456308  1

> <PUBCHEM_COORDINATE_TYPE>
1
3

$$$$
