310943914
  -OEChem-07211613022D

 34 38  0     1  0  0  0  0  0999 V2000
    2.4892    0.7872    0.0000 O   0  0  0  0  0  0  0  0  0  0  0  0
    5.4496    0.3326    0.0000 O   0  0  0  0  0  0  0  0  0  0  0  0
    5.3720    1.7962    0.0000 O   0  0  0  0  0  0  0  0  0  0  0  0
   -1.5578    0.4325    0.0000 O   0  0  0  0  0  0  0  0  0  0  0  0
   -0.4823   -1.7962    0.0000 O   0  0  0  0  0  0  0  0  0  0  0  0
    3.4206   -0.3548    0.0000 N   0  0  0  0  0  0  0  0  0  0  0  0
    0.4601   -0.4546    0.0000 N   0  0  0  0  0  0  0  0  0  0  0  0
   -4.1413   -0.7983    0.0000 N   0  0  0  0  0  0  0  0  0  0  0  0
   -4.6845   -1.4303    0.0000 N   0  0  0  0  0  0  0  0  0  0  0  0
   -5.4496   -1.1087    0.0000 N   0  0  0  0  0  0  0  0  0  0  0  0
   -5.3831   -0.2883    0.0000 N   0  0  0  0  0  0  0  0  0  0  0  0
    2.1122   -0.6209    0.0000 C   0  0  0  0  0  0  0  0  0  0  0  0
    2.6666   -0.0111    0.0000 C   0  0  0  0  0  0  0  0  0  0  0  0
    4.1413    0.0776    0.0000 C   0  0  0  0  0  0  0  0  0  0  0  0
    2.5225   -1.3305    0.0000 C   0  0  0  0  0  0  0  0  0  0  0  0
    3.3319   -1.1642    0.0000 C   0  0  0  0  0  0  0  0  0  0  0  0
    1.6243   -1.2862    0.0000 C   0  0  0  0  0  0  0  0  0  0  0  0
    1.7685    0.1220    0.0000 C   0  0  0  0  0  0  0  0  0  0  0  0
    4.2300    0.8870    0.0000 C   0  0  0  0  0  0  0  0  0  0  0  0
    4.9062   -0.2661    0.0000 C   0  0  0  0  0  0  0  0  0  0  0  0
    0.7927   -1.1974    0.0000 C   0  0  0  0  0  0  0  0  0  0  0  0
    0.9480    0.2106    0.0000 C   0  0  0  0  0  0  0  0  0  0  0  0
    5.0283    1.0311    0.0000 C   0  0  0  0  0  0  0  0  0  0  0  0
   -1.6687   -0.9757    0.0000 C   0  0  0  0  0  0  0  0  0  0  0  0
   -0.3714   -0.3659    0.0000 C   0  0  0  0  0  0  0  0  0  0  0  0
   -0.8372   -1.0422    0.0000 C   0  0  3  0  0  0  0  0  0  0  0  0
   -2.0235   -0.2439    0.0000 C   0  0  0  0  0  0  0  0  0  0  0  0
   -3.3208   -0.8537    0.0000 C   0  0  0  0  0  0  0  0  0  0  0  0
    3.6090    1.4414    0.0000 C   0  0  0  0  0  0  0  0  0  0  0  0
   -2.8440   -0.1774    0.0000 C   0  0  0  0  0  0  0  0  0  0  0  0
   -2.1233   -1.6521    0.0000 C   0  0  0  0  0  0  0  0  0  0  0  0
   -2.9549   -1.5966    0.0000 C   0  0  0  0  0  0  0  0  0  0  0  0
   -4.5737   -0.0887    0.0000 C   0  0  0  0  0  0  0  0  0  0  0  0
   -1.9237    1.1863    0.0000 C   0  0  0  0  0  0  0  0  0  0  0  0
  1 13  2  0  0  0  0
  2 20  1  0  0  0  0
  2 23  1  0  0  0  0
  3 23  2  0  0  0  0
  4 27  1  0  0  0  0
  4 34  1  0  0  0  0
 26  5  1  6  0  0  0
  6 13  1  0  0  0  0
  6 14  1  0  0  0  0
  6 16  1  0  0  0  0
  7 21  1  0  0  0  0
  7 22  1  0  0  0  0
  7 25  1  0  0  0  0
  8  9  1  0  0  0  0
  8 28  1  0  0  0  0
  8 33  1  0  0  0  0
  9 10  2  0  0  0  0
 10 11  1  0  0  0  0
 11 33  2  0  0  0  0
 12 13  1  0  0  0  0
 12 15  1  0  0  0  0
 12 17  1  0  0  0  0
 12 18  1  0  0  0  0
 14 19  2  0  0  0  0
 14 20  1  0  0  0  0
 15 16  1  0  0  0  0
 17 21  1  0  0  0  0
 18 22  1  0  0  0  0
 19 23  1  0  0  0  0
 19 29  1  0  0  0  0
 24 26  1  0  0  0  0
 24 27  2  0  0  0  0
 24 31  1  0  0  0  0
 25 26  1  0  0  0  0
 27 30  1  0  0  0  0
 28 30  2  0  0  0  0
 28 32  1  0  0  0  0
 31 32  2  0  0  0  0
M  END
> <PUBCHEM_COMPOUND_ID_TYPE>
0

> <PUBCHEM_TOTAL_CHARGE>
0

> <PUBCHEM_SUBSTANCE_ID>
310943914

> <PUBCHEM_SUBSTANCE_VERSION>
1

> <PUBCHEM_EXT_DATASOURCE_NAME>
4488

> <PUBCHEM_EXT_DATASOURCE_REGID>
SCHEMBL16121985

> <PUBCHEM_SUBSTANCE_COMMENT>
InChI=1S/C23H28N6O5/c1-15-18(13-34-21(15)31)28-10-7-23(22(28)32)5-8-27(9-6-23)12-19(30)17-4-3-16(11-20(17)33-2)29-14-24-25-26-29/h3-4,11,14,19,30H,5-10,12-13H2,1-2H3/t19-/m0/s1
InChIKey=FLFPFOSXQGFPRT-IBGZPJMESA-N

> <PUBCHEM_SUBSTANCE_SYNONYM>
SCHEMBL16121985

> <PUBCHEM_XREF_EXT_ID>
SCHEMBL16121985

> <PUBCHEM_EXT_DATASOURCE_URL>
https://www.surechembl.org/

> <PUBCHEM_EXT_SUBSTANCE_URL>
https://www.surechembl.org/chemical/SCHEMBL16121985

> <PUBCHEM_CID_ASSOCIATIONS>
117610229  1

> <PUBCHEM_COORDINATE_TYPE>
1
3

> <PUBCHEM_BONDANNOTATIONS>
26  5  6

$$$$
