310943459
  -OEChem-07211613022D

 42 46  0     0  0  0  0  0  0999 V2000
    0.3581   -0.6227    0.0000 O   0  0  0  0  0  0  0  0  0  0  0  0
   -4.6390    2.2728    0.0000 O   0  0  0  0  0  0  0  0  0  0  0  0
    1.0741   -0.2179    0.0000 O   0  0  0  0  0  0  0  0  0  0  0  0
   -0.3581   -2.7087    0.0000 O   0  0  0  0  0  0  0  0  0  0  0  0
   -1.0586    0.2024    0.0000 N   0  0  0  0  0  0  0  0  0  0  0  0
   -2.4907    0.2024    0.0000 N   0  0  0  0  0  0  0  0  0  0  0  0
   -1.7746   -1.0430    0.0000 N   0  0  0  0  0  0  0  0  0  0  0  0
   -3.2068    1.4478    0.0000 N   0  0  0  0  0  0  0  0  0  0  0  0
    1.7902    1.0275    0.0000 N   0  0  0  0  0  0  0  0  0  0  0  0
    3.9229   -1.0430    0.0000 N   0  0  0  0  0  0  0  0  0  0  0  0
    4.6390   -1.5100    0.0000 N   0  0  0  0  0  0  0  0  0  0  0  0
   -1.0586    1.0430    0.0000 C   0  0  0  0  0  0  0  0  0  0  0  0
   -0.3581    1.4478    0.0000 C   0  0  0  0  0  0  0  0  0  0  0  0
   -1.7746   -0.2179    0.0000 C   0  0  0  0  0  0  0  0  0  0  0  0
   -2.4907    1.0430    0.0000 C   0  0  0  0  0  0  0  0  0  0  0  0
   -1.0897   -1.4478    0.0000 C   0  0  0  0  0  0  0  0  0  0  0  0
   -1.7746    1.4478    0.0000 C   0  0  0  0  0  0  0  0  0  0  0  0
   -0.3581    2.2728    0.0000 C   0  0  0  0  0  0  0  0  0  0  0  0
    0.3425    1.0430    0.0000 C   0  0  0  0  0  0  0  0  0  0  0  0
    1.0586    1.4633    0.0000 C   0  0  0  0  0  0  0  0  0  0  0  0
    0.3581    2.6775    0.0000 C   0  0  0  0  0  0  0  0  0  0  0  0
   -1.0586   -0.6227    0.0000 C   0  0  0  0  0  0  0  0  0  0  0  0
   -0.3425   -1.8680    0.0000 C   0  0  0  0  0  0  0  0  0  0  0  0
    1.0586    2.2728    0.0000 C   0  0  0  0  0  0  0  0  0  0  0  0
    2.5063   -0.2179    0.0000 C   0  0  0  0  0  0  0  0  0  0  0  0
    1.7902    0.2179    0.0000 C   0  0  0  0  0  0  0  0  0  0  0  0
   -1.0741   -2.2883    0.0000 C   0  0  0  0  0  0  0  0  0  0  0  0
    3.2068   -1.4478    0.0000 C   0  0  0  0  0  0  0  0  0  0  0  0
    3.2068   -2.2728    0.0000 C   0  0  0  0  0  0  0  0  0  0  0  0
   -3.2224    2.2728    0.0000 C   0  0  0  0  0  0  0  0  0  0  0  0
   -3.9385    1.0275    0.0000 C   0  0  0  0  0  0  0  0  0  0  0  0
    2.4907   -1.0430    0.0000 C   0  0  0  0  0  0  0  0  0  0  0  0
   -1.0586    2.7087    0.0000 C   0  0  0  0  0  0  0  0  0  0  0  0
   -0.3736   -0.2179    0.0000 C   0  0  0  0  0  0  0  0  0  0  0  0
    0.3425   -1.4633    0.0000 C   0  0  0  0  0  0  0  0  0  0  0  0
    3.2068    0.2024    0.0000 C   0  0  0  0  0  0  0  0  0  0  0  0
   -3.9229    2.6931    0.0000 C   0  0  0  0  0  0  0  0  0  0  0  0
   -4.6390    1.4478    0.0000 C   0  0  0  0  0  0  0  0  0  0  0  0
    3.9229   -0.2179    0.0000 C   0  0  0  0  0  0  0  0  0  0  0  0
    3.9229   -1.8680    0.0000 C   0  0  0  0  0  0  0  0  0  0  0  0
    2.4907   -2.6931    0.0000 C   0  0  0  0  0  0  0  0  0  0  0  0
    3.9385   -2.7087    0.0000 C   0  0  0  0  0  0  0  0  0  0  0  0
  1 34  1  0  0  0  0
  1 35  1  0  0  0  0
  2 37  1  0  0  0  0
  2 38  1  0  0  0  0
  3 26  2  0  0  0  0
  4 27  1  0  0  0  0
  5 12  1  0  0  0  0
  5 14  2  0  0  0  0
  6 14  1  0  0  0  0
  6 15  2  0  0  0  0
  7 14  1  0  0  0  0
  7 16  1  0  0  0  0
  8 15  1  0  0  0  0
  8 30  1  0  0  0  0
  8 31  1  0  0  0  0
  9 20  1  0  0  0  0
  9 26  1  0  0  0  0
 10 28  2  0  0  0  0
 10 39  1  0  0  0  0
 11 40  3  0  0  0  0
 12 13  1  0  0  0  0
 12 17  2  0  0  0  0
 13 18  1  0  0  0  0
 13 19  2  0  0  0  0
 15 17  1  0  0  0  0
 16 22  1  0  0  0  0
 16 23  1  0  0  0  0
 16 27  1  0  0  0  0
 18 21  2  0  0  0  0
 18 33  1  0  0  0  0
 19 20  1  0  0  0  0
 20 24  2  0  0  0  0
 21 24  1  0  0  0  0
 22 34  1  0  0  0  0
 23 35  1  0  0  0  0
 25 26  1  0  0  0  0
 25 32  2  0  0  0  0
 25 36  1  0  0  0  0
 28 29  1  0  0  0  0
 28 32  1  0  0  0  0
 29 40  1  0  0  0  0
 29 41  1  0  0  0  0
 29 42  1  0  0  0  0
 30 37  1  0  0  0  0
 31 38  1  0  0  0  0
 36 39  2  0  0  0  0
M  END
> <PUBCHEM_COMPOUND_ID_TYPE>
0

> <PUBCHEM_TOTAL_CHARGE>
0

> <PUBCHEM_SUBSTANCE_ID>
310943459

> <PUBCHEM_SUBSTANCE_VERSION>
1

> <PUBCHEM_EXT_DATASOURCE_NAME>
4488

> <PUBCHEM_EXT_DATASOURCE_REGID>
SCHEMBL16121524

> <PUBCHEM_SUBSTANCE_COMMENT>
InChI=1S/C31H37N7O4/c1-21-4-5-23(34-28(40)22-6-9-33-26(16-22)30(2,3)19-32)17-24(21)25-18-27(38-10-14-42-15-11-38)36-29(35-25)37-31(20-39)7-12-41-13-8-31/h4-6,9,16-18,39H,7-8,10-15,20H2,1-3H3,(H,34,40)(H,35,36,37)
InChIKey=BFNFYDYTZWIATM-UHFFFAOYSA-N

> <PUBCHEM_SUBSTANCE_SYNONYM>
SCHEMBL16121524

> <PUBCHEM_XREF_EXT_ID>
SCHEMBL16121524

> <PUBCHEM_EXT_DATASOURCE_URL>
https://www.surechembl.org/

> <PUBCHEM_EXT_SUBSTANCE_URL>
https://www.surechembl.org/chemical/SCHEMBL16121524

> <PUBCHEM_CID_ASSOCIATIONS>
117609883  1

> <PUBCHEM_COORDINATE_TYPE>
1
3

$$$$
