310947492
  -OEChem-07211613022D

 14 14  0     0  0  0  0  0  0999 V2000
    4.6351   -2.0567    0.0000 O   0  0  0  0  0  0  0  0  0  0  0  0
   -0.3662   -1.6442    0.0000 N   0  3  0  0  0  0  0  0  0  0  0  0
   -1.6357   -1.2317    0.0000 N   0  0  0  0  0  0  0  0  0  0  0  0
    2.4917   -1.6442    0.0000 N   0  0  0  0  0  0  0  0  0  0  0  0
   -1.1508   -1.8991    0.0000 C   0  0  0  0  0  0  0  0  0  0  0  0
   -0.3662   -0.8192    0.0000 C   0  0  0  0  0  0  0  0  0  0  0  0
   -1.1508   -0.5642    0.0000 C   0  0  0  0  0  0  0  0  0  0  0  0
    0.3483   -2.0567    0.0000 C   0  0  0  0  0  0  0  0  0  0  0  0
   -1.5633   -2.6136    0.0000 C   0  0  0  0  0  0  0  0  0  0  0  0
   -2.4607   -1.2317    0.0000 C   0  0  0  0  0  0  0  0  0  0  0  0
    1.0628   -1.6442    0.0000 C   0  0  0  0  0  0  0  0  0  0  0  0
    1.7773   -2.0567    0.0000 C   0  0  0  0  0  0  0  0  0  0  0  0
    3.2062   -2.0567    0.0000 C   0  0  0  0  0  0  0  0  0  0  0  0
    3.9207   -1.6442    0.0000 C   0  0  0  0  0  0  0  0  0  0  0  0
  1 14  1  0  0  0  0
  2  5  2  0  0  0  0
  2  6  1  0  0  0  0
  2  8  1  0  0  0  0
  3  5  1  0  0  0  0
  3  7  1  0  0  0  0
  3 10  1  0  0  0  0
  4 12  1  0  0  0  0
  4 13  1  0  0  0  0
  5  9  1  0  0  0  0
  6  7  2  0  0  0  0
  8 11  1  0  0  0  0
 11 12  1  0  0  0  0
 13 14  1  0  0  0  0
M  CHG  1   2   1
M  END
> <PUBCHEM_COMPOUND_ID_TYPE>
0

> <PUBCHEM_TOTAL_CHARGE>
1

> <PUBCHEM_SUBSTANCE_ID>
310947492

> <PUBCHEM_SUBSTANCE_VERSION>
1

> <PUBCHEM_EXT_DATASOURCE_NAME>
4488

> <PUBCHEM_EXT_DATASOURCE_REGID>
SCHEMBL16125654

> <PUBCHEM_SUBSTANCE_COMMENT>
InChI=1S/C10H20N3O/c1-10-12(2)7-8-13(10)6-3-4-11-5-9-14/h7-8,11,14H,3-6,9H2,1-2H3/q+1
InChIKey=IJXAYBHTGKBFFQ-UHFFFAOYSA-N

> <PUBCHEM_SUBSTANCE_SYNONYM>
SCHEMBL16125654

> <PUBCHEM_XREF_EXT_ID>
SCHEMBL16125654

> <PUBCHEM_EXT_DATASOURCE_URL>
https://www.surechembl.org/

> <PUBCHEM_EXT_SUBSTANCE_URL>
https://www.surechembl.org/chemical/SCHEMBL16125654

> <PUBCHEM_CID_ASSOCIATIONS>
117613219  1

> <PUBCHEM_COORDINATE_TYPE>
1
3

$$$$
