310938954
  -OEChem-07211613022D

 28 29  0     1  0  0  0  0  0999 V2000
    1.9924    0.5635    0.0000 O   0  0  0  0  0  0  0  0  0  0  0  0
   -1.2780   -1.8010    0.0000 N   0  0  0  0  0  0  0  0  0  0  0  0
    0.9760   -1.8010    0.0000 N   0  0  0  0  0  0  0  0  0  0  0  0
   -0.1510    0.1510    0.0000 N   0  0  0  0  0  0  0  0  0  0  0  0
   -0.5635   -1.3885    0.0000 C   0  0  0  0  0  0  0  0  0  0  0  0
    0.2615   -1.3885    0.0000 C   0  0  0  0  0  0  0  0  0  0  0  0
   -0.1510   -0.6740    0.0000 C   0  0  0  0  0  0  0  0  0  0  0  0
   -1.9924   -1.3885    0.0000 C   0  0  0  0  0  0  0  0  0  0  0  0
   -1.2780   -2.6260    0.0000 C   0  0  0  0  0  0  0  0  0  0  0  0
    0.9760   -2.6260    0.0000 C   0  0  0  0  0  0  0  0  0  0  0  0
    1.6905   -1.3885    0.0000 C   0  0  0  0  0  0  0  0  0  0  0  0
    0.5635    0.5635    0.0000 C   0  0  3  0  0  0  0  0  0  0  0  0
    0.5635    1.3885    0.0000 C   0  0  0  0  0  0  0  0  0  0  0  0
   -2.7069   -1.8010    0.0000 C   0  0  0  0  0  0  0  0  0  0  0  0
   -1.9924   -0.5635    0.0000 C   0  0  0  0  0  0  0  0  0  0  0  0
   -0.5635   -3.0385    0.0000 C   0  0  0  0  0  0  0  0  0  0  0  0
   -1.9924   -3.0385    0.0000 C   0  0  0  0  0  0  0  0  0  0  0  0
    1.6905   -3.0385    0.0000 C   0  0  0  0  0  0  0  0  0  0  0  0
    0.2615   -3.0385    0.0000 C   0  0  0  0  0  0  0  0  0  0  0  0
    1.6905   -0.5635    0.0000 C   0  0  0  0  0  0  0  0  0  0  0  0
    2.4049   -1.8010    0.0000 C   0  0  0  0  0  0  0  0  0  0  0  0
    1.2780    0.1510    0.0000 C   0  0  0  0  0  0  0  0  0  0  0  0
    1.2780    1.8010    0.0000 C   0  0  0  0  0  0  0  0  0  0  0  0
    1.9924    1.3885    0.0000 C   0  0  0  0  0  0  0  0  0  0  0  0
    1.2780    2.6260    0.0000 C   0  0  0  0  0  0  0  0  0  0  0  0
    2.7069    1.8010    0.0000 C   0  0  0  0  0  0  0  0  0  0  0  0
    1.9924    3.0385    0.0000 C   0  0  0  0  0  0  0  0  0  0  0  0
    2.7069    2.6260    0.0000 C   0  0  0  0  0  0  0  0  0  0  0  0
  1 22  1  0  0  0  0
  2  5  1  0  0  0  0
  2  8  1  0  0  0  0
  2  9  1  0  0  0  0
  3  6  1  0  0  0  0
  3 10  1  0  0  0  0
  3 11  1  0  0  0  0
  4  7  2  0  0  0  0
 12  4  1  1  0  0  0
  5  6  2  0  0  0  0
  5  7  1  0  0  0  0
  6  7  1  0  0  0  0
  8 14  1  0  0  0  0
  8 15  1  0  0  0  0
  9 16  1  0  0  0  0
  9 17  1  0  0  0  0
 10 18  1  0  0  0  0
 10 19  1  0  0  0  0
 11 20  1  0  0  0  0
 11 21  1  0  0  0  0
 12 13  1  0  0  0  0
 12 22  1  0  0  0  0
 13 23  1  0  0  0  0
 23 24  2  0  0  0  0
 23 25  1  0  0  0  0
 24 26  1  0  0  0  0
 25 27  2  0  0  0  0
 26 28  2  0  0  0  0
 27 28  1  0  0  0  0
M  END
> <PUBCHEM_COMPOUND_ID_TYPE>
0

> <PUBCHEM_TOTAL_CHARGE>
0

> <PUBCHEM_SUBSTANCE_ID>
310938954

> <PUBCHEM_SUBSTANCE_VERSION>
1

> <PUBCHEM_EXT_DATASOURCE_NAME>
4488

> <PUBCHEM_EXT_DATASOURCE_REGID>
SCHEMBL16116873

> <PUBCHEM_SUBSTANCE_COMMENT>
InChI=1S/C24H39N3O/c1-16(2)26(17(3)4)23-22(24(23)27(18(5)6)19(7)8)25-21(15-28)14-20-12-10-9-11-13-20/h9-13,16-19,21,28H,14-15H2,1-8H3/t21-/m0/s1
InChIKey=QMWNERZXHSNYSB-NRFANRHFSA-N

> <PUBCHEM_SUBSTANCE_SYNONYM>
SCHEMBL16116873

> <PUBCHEM_XREF_EXT_ID>
SCHEMBL16116873

> <PUBCHEM_EXT_DATASOURCE_URL>
https://www.surechembl.org/

> <PUBCHEM_EXT_SUBSTANCE_URL>
https://www.surechembl.org/chemical/SCHEMBL16116873

> <PUBCHEM_CID_ASSOCIATIONS>
117606344  1

> <PUBCHEM_COORDINATE_TYPE>
1
3

> <PUBCHEM_BONDANNOTATIONS>
12  4  5

$$$$
