310942422
  -OEChem-07211613022D

 22 24  0     1  0  0  0  0  0999 V2000
    2.7856    1.5708    0.0000 O   0  0  0  0  0  0  0  0  0  0  0  0
    1.8530    0.4172    0.0000 N   0  0  0  0  0  0  0  0  0  0  0  0
    0.4172    0.4172    0.0000 N   0  0  0  0  0  0  0  0  0  0  0  0
   -1.0308    0.4172    0.0000 N   0  0  0  0  0  0  0  0  0  0  0  0
   -0.2945    1.6566    0.0000 N   0  0  0  0  0  0  0  0  0  0  0  0
    1.1290    0.8590    0.0000 C   0  0  3  0  0  0  0  0  0  0  0  0
    2.6016    0.7363    0.0000 C   0  0  0  0  0  0  0  0  0  0  0  0
    1.9143   -0.3681    0.0000 C   0  0  3  0  0  0  0  0  0  0  0  0
   -0.2945    0.8345    0.0000 C   0  0  0  0  0  0  0  0  0  0  0  0
    1.1167    1.6566    0.0000 C   0  0  0  0  0  0  0  0  0  0  0  0
    3.1660    0.1473    0.0000 C   0  0  0  0  0  0  0  0  0  0  0  0
    2.7365   -0.5768    0.0000 C   0  0  0  0  0  0  0  0  0  0  0  0
    0.4050    2.0739    0.0000 C   0  0  0  0  0  0  0  0  0  0  0  0
   -1.0308   -0.3927    0.0000 C   0  0  3  0  0  0  0  0  0  0  0  0
   -1.7425   -0.8099    0.0000 C   0  0  0  0  0  0  0  0  0  0  0  0
    1.3130   -0.9695    0.0000 C   0  0  0  0  0  0  0  0  0  0  0  0
   -2.4911   -0.4418    0.0000 C   0  0  0  0  0  0  0  0  0  0  0  0
   -1.7548   -1.6566    0.0000 C   0  0  0  0  0  0  0  0  0  0  0  0
   -0.2209   -0.7118    0.0000 C   0  0  0  0  0  0  0  0  0  0  0  0
   -3.1660   -0.8345    0.0000 C   0  0  0  0  0  0  0  0  0  0  0  0
   -2.4543   -2.0739    0.0000 C   0  0  0  0  0  0  0  0  0  0  0  0
   -3.1660   -1.6811    0.0000 C   0  0  0  0  0  0  0  0  0  0  0  0
  1  7  2  0  0  0  0
  2  6  1  0  0  0  0
  2  7  1  0  0  0  0
  2  8  1  0  0  0  0
  3  6  1  0  0  0  0
  3  9  1  0  0  0  0
  4  9  1  0  0  0  0
  4 14  1  0  0  0  0
  5  9  2  0  0  0  0
  5 13  1  0  0  0  0
  6 10  1  0  0  0  0
  7 11  1  0  0  0  0
  8 12  1  0  0  0  0
  8 16  1  1  0  0  0
 10 13  2  0  0  0  0
 11 12  1  0  0  0  0
 14 15  1  0  0  0  0
 14 19  1  0  0  0  0
 15 17  2  0  0  0  0
 15 18  1  0  0  0  0
 17 20  1  0  0  0  0
 18 21  2  0  0  0  0
 20 22  2  0  0  0  0
 21 22  1  0  0  0  0
M  END
> <PUBCHEM_COMPOUND_ID_TYPE>
0

> <PUBCHEM_TOTAL_CHARGE>
0

> <PUBCHEM_SUBSTANCE_ID>
310942422

> <PUBCHEM_SUBSTANCE_VERSION>
1

> <PUBCHEM_EXT_DATASOURCE_NAME>
4488

> <PUBCHEM_EXT_DATASOURCE_REGID>
SCHEMBL16120458

> <PUBCHEM_SUBSTANCE_COMMENT>
InChI=1S/C17H22N4O/c1-12-8-9-16(22)21(12)15-10-11-18-17(20-15)19-13(2)14-6-4-3-5-7-14/h3-7,10-13,15H,8-9H2,1-2H3,(H2,18,19,20)/t12-,13?,15?/m1/s1
InChIKey=GTJSUHXHCAEMLS-DNOWBOINSA-N

> <PUBCHEM_SUBSTANCE_SYNONYM>
SCHEMBL16120458

> <PUBCHEM_XREF_EXT_ID>
SCHEMBL16120458

> <PUBCHEM_EXT_DATASOURCE_URL>
https://www.surechembl.org/

> <PUBCHEM_EXT_SUBSTANCE_URL>
https://www.surechembl.org/chemical/SCHEMBL16120458

> <PUBCHEM_CID_ASSOCIATIONS>
117609022  1

> <PUBCHEM_COORDINATE_TYPE>
1
3

> <PUBCHEM_BONDANNOTATIONS>
8  16  5

$$$$
