310948422
  -OEChem-07211613022D

 33 37  0     1  0  0  0  0  0999 V2000
    2.7023   -2.4516    0.0000 F   0  0  0  0  0  0  0  0  0  0  0  0
    3.2781   -3.4174    0.0000 F   0  0  0  0  0  0  0  0  0  0  0  0
    2.2752   -3.9746    0.0000 F   0  0  0  0  0  0  0  0  0  0  0  0
   -2.5537   -2.6744    0.0000 O   0  0  0  0  0  0  0  0  0  0  0  0
   -1.0308   -0.3343    0.0000 N   0  0  0  0  0  0  0  0  0  0  0  0
   -0.5479   -1.0029    0.0000 N   0  0  0  0  0  0  0  0  0  0  0  0
   -0.7708   -2.4702    0.0000 N   0  0  0  0  0  0  0  0  0  0  0  0
   -3.2781   -1.4301    0.0000 N   0  0  0  0  0  0  0  0  0  0  0  0
   -0.0464    2.8417    0.0000 N   0  0  0  0  0  0  0  0  0  0  0  0
    1.1422   -0.6129    0.0000 N   0  0  0  0  0  0  0  0  0  0  0  0
   -1.8294   -0.5943    0.0000 C   0  0  0  0  0  0  0  0  0  0  0  0
   -1.8294   -1.4115    0.0000 C   0  0  0  0  0  0  0  0  0  0  0  0
   -1.0308   -1.6901    0.0000 C   0  0  0  0  0  0  0  0  0  0  0  0
   -0.7893    0.4829    0.0000 C   0  0  3  0  0  0  0  0  0  0  0  0
   -2.5352   -1.8015    0.0000 C   0  0  0  0  0  0  0  0  0  0  0  0
    0.0464    0.6315    0.0000 C   0  0  3  0  0  0  0  0  0  0  0  0
   -2.5723   -0.1857    0.0000 C   0  0  0  0  0  0  0  0  0  0  0  0
   -1.3280    1.0772    0.0000 C   0  0  0  0  0  0  0  0  0  0  0  0
   -0.2693    2.0430    0.0000 C   0  0  3  0  0  0  0  0  0  0  0  0
    0.2878    1.4301    0.0000 C   0  0  0  0  0  0  0  0  0  0  0  0
    0.0279   -2.6373    0.0000 C   0  0  0  0  0  0  0  0  0  0  0  0
   -3.2409   -0.5758    0.0000 C   0  0  0  0  0  0  0  0  0  0  0  0
   -1.0679    1.8572    0.0000 C   0  0  0  0  0  0  0  0  0  0  0  0
    0.6036    0.0000    0.0000 C   0  0  0  0  0  0  0  0  0  0  0  0
    1.6623   -2.9717    0.0000 C   0  0  0  0  0  0  0  0  0  0  0  0
    0.3064   -3.4174    0.0000 C   0  0  0  0  0  0  0  0  0  0  0  0
    0.6036   -2.0245    0.0000 C   0  0  0  0  0  0  0  0  0  0  0  0
    2.4795   -3.2131    0.0000 C   0  0  0  0  0  0  0  0  0  0  0  0
    1.1236   -3.5845    0.0000 C   0  0  0  0  0  0  0  0  0  0  0  0
    1.4023   -2.2102    0.0000 C   0  0  0  0  0  0  0  0  0  0  0  0
    0.6593    3.2688    0.0000 C   0  0  0  0  0  0  0  0  0  0  0  0
   -0.4551    3.5474    0.0000 C   0  0  0  0  0  0  0  0  0  0  0  0
    0.2507    3.9746    0.0000 C   0  0  0  0  0  0  0  0  0  0  0  0
  1 28  1  0  0  0  0
  2 28  1  0  0  0  0
  3 28  1  0  0  0  0
  4 15  2  0  0  0  0
  5  6  1  0  0  0  0
  5 11  1  0  0  0  0
 14  5  1  6  0  0  0
  6 13  2  0  0  0  0
  7 13  1  0  0  0  0
  7 21  1  0  0  0  0
  8 15  1  0  0  0  0
  8 22  1  0  0  0  0
  9 19  1  0  0  0  0
  9 31  1  0  0  0  0
  9 32  1  0  0  0  0
 10 24  3  0  0  0  0
 11 12  2  0  0  0  0
 11 17  1  0  0  0  0
 12 13  1  0  0  0  0
 12 15  1  0  0  0  0
 14 16  1  0  0  0  0
 14 18  1  0  0  0  0
 16 20  1  0  0  0  0
 16 24  1  1  0  0  0
 17 22  2  0  0  0  0
 18 23  1  0  0  0  0
 19 20  1  6  0  0  0
 19 23  1  0  0  0  0
 21 26  2  0  0  0  0
 21 27  1  0  0  0  0
 25 28  1  0  0  0  0
 25 29  2  0  0  0  0
 25 30  1  0  0  0  0
 26 29  1  0  0  0  0
 27 30  2  0  0  0  0
 31 33  1  0  0  0  0
 32 33  1  0  0  0  0
M  END
> <PUBCHEM_COMPOUND_ID_TYPE>
0

> <PUBCHEM_TOTAL_CHARGE>
0

> <PUBCHEM_SUBSTANCE_ID>
310948422

> <PUBCHEM_SUBSTANCE_VERSION>
1

> <PUBCHEM_EXT_DATASOURCE_NAME>
4488

> <PUBCHEM_EXT_DATASOURCE_REGID>
SCHEMBL16126603

> <PUBCHEM_SUBSTANCE_COMMENT>
InChI=1S/C23H23F3N6O/c24-23(25,26)15-2-4-16(5-3-15)29-21-20-19(8-9-28-22(20)33)32(30-21)18-7-6-17(12-14(18)13-27)31-10-1-11-31/h2-5,8-9,14,17-18H,1,6-7,10-12H2,(H,28,33)(H,29,30)/t14-,17-,18+/m0/s1
InChIKey=VCQNYQGTTSUEIM-JCGIZDLHSA-N

> <PUBCHEM_SUBSTANCE_SYNONYM>
SCHEMBL16126603

> <PUBCHEM_XREF_EXT_ID>
SCHEMBL16126603

> <PUBCHEM_EXT_DATASOURCE_URL>
https://www.surechembl.org/

> <PUBCHEM_EXT_SUBSTANCE_URL>
https://www.surechembl.org/chemical/SCHEMBL16126603

> <PUBCHEM_CID_ASSOCIATIONS>
117613982  1

> <PUBCHEM_COORDINATE_TYPE>
1
3

> <PUBCHEM_BONDANNOTATIONS>
16  24  5
19  20  6
14  5  6

$$$$
