310942123
  -OEChem-07211613022D

 25 27  0     1  0  0  0  0  0999 V2000
   -3.7500    1.3032    0.0000 S   0  0  3  0  0  0  0  0  0  0  0  0
   -1.6046   -0.7890    0.0000 O   0  0  0  0  0  0  0  0  0  0  0  0
   -4.1578    2.0124    0.0000 O   0  0  0  0  0  0  0  0  0  0  0  0
    1.9947   -2.0124    0.0000 O   0  0  0  0  0  0  0  0  0  0  0  0
   -3.0231    1.6933    0.0000 N   0  0  0  0  0  0  0  0  0  0  0  0
   -3.7500    0.4699    0.0000 N   0  0  0  0  0  0  0  0  0  0  0  0
   -3.0408   -0.7713    0.0000 N   0  0  0  0  0  0  0  0  0  0  0  0
    1.2678   -0.7890    0.0000 N   0  0  0  0  0  0  0  0  0  0  0  0
   -2.3316    0.4876    0.0000 C   0  0  0  0  0  0  0  0  0  0  0  0
   -2.2961    1.3209    0.0000 C   0  0  0  0  0  0  0  0  0  0  0  0
   -1.5869    0.0975    0.0000 C   0  0  0  0  0  0  0  0  0  0  0  0
   -3.0231    0.0975    0.0000 C   0  0  0  0  0  0  0  0  0  0  0  0
   -1.6046    1.7110    0.0000 C   0  0  0  0  0  0  0  0  0  0  0  0
   -0.8777    0.4876    0.0000 C   0  0  0  0  0  0  0  0  0  0  0  0
   -0.8777    1.3032    0.0000 C   0  0  0  0  0  0  0  0  0  0  0  0
   -0.1684   -0.7536    0.0000 C   0  0  3  0  0  0  0  0  0  0  0  0
   -0.8599   -1.1791    0.0000 C   0  0  0  0  0  0  0  0  0  0  0  0
    0.5762   -1.1614    0.0000 C   0  0  0  0  0  0  0  0  0  0  0  0
   -0.1507    0.0798    0.0000 C   0  0  0  0  0  0  0  0  0  0  0  0
    2.0124   -1.1436    0.0000 C   0  0  0  0  0  0  0  0  0  0  0  0
    1.2678    0.0620    0.0000 C   0  0  0  0  0  0  0  0  0  0  0  0
    0.5231    0.4699    0.0000 C   0  0  0  0  0  0  0  0  0  0  0  0
    2.7039   -0.7713    0.0000 C   0  0  0  0  0  0  0  0  0  0  0  0
    3.4308   -1.1614    0.0000 C   0  0  0  0  0  0  0  0  0  0  0  0
    4.1578   -0.7536    0.0000 C   0  0  0  0  0  0  0  0  0  0  0  0
  1  3  2  0  0  0  0
  1  5  1  6  0  0  0
  1  6  1  0  0  0  0
  2 11  1  0  0  0  0
  2 17  1  0  0  0  0
  4 20  2  0  0  0  0
  5 10  1  0  0  0  0
  6 12  2  0  0  0  0
  7 12  1  0  0  0  0
  8 18  1  0  0  0  0
  8 20  1  0  0  0  0
  8 21  1  0  0  0  0
  9 10  1  0  0  0  0
  9 11  2  0  0  0  0
  9 12  1  0  0  0  0
 10 13  2  0  0  0  0
 11 14  1  0  0  0  0
 13 15  1  0  0  0  0
 14 15  2  0  0  0  0
 16 17  1  1  0  0  0
 16 18  1  0  0  0  0
 16 19  1  0  0  0  0
 19 22  1  0  0  0  0
 20 23  1  0  0  0  0
 21 22  1  0  0  0  0
 23 24  1  0  0  0  0
 24 25  1  0  0  0  0
M  END
> <PUBCHEM_COMPOUND_ID_TYPE>
0

> <PUBCHEM_TOTAL_CHARGE>
0

> <PUBCHEM_SUBSTANCE_ID>
310942123

> <PUBCHEM_SUBSTANCE_VERSION>
1

> <PUBCHEM_EXT_DATASOURCE_NAME>
4488

> <PUBCHEM_EXT_DATASOURCE_REGID>
SCHEMBL16120158

> <PUBCHEM_SUBSTANCE_COMMENT>
InChI=1S/C17H24N4O3S/c1-2-5-15(22)21-9-4-6-12(10-21)11-24-14-8-3-7-13-16(14)17(18)20-25(23)19-13/h3,7-8,12,19H,2,4-6,9-11H2,1H3,(H2,18,20)/t12-,25+/m0/s1
InChIKey=YOAWSWPMFIHTFF-UOXLDJKESA-N

> <PUBCHEM_SUBSTANCE_SYNONYM>
SCHEMBL16120158

> <PUBCHEM_XREF_EXT_ID>
SCHEMBL16120158

> <PUBCHEM_EXT_DATASOURCE_URL>
https://www.surechembl.org/

> <PUBCHEM_EXT_SUBSTANCE_URL>
https://www.surechembl.org/chemical/SCHEMBL16120158

> <PUBCHEM_CID_ASSOCIATIONS>
117608783  1

> <PUBCHEM_COORDINATE_TYPE>
1
3

> <PUBCHEM_BONDANNOTATIONS>
1  5  6
16  17  5

$$$$
