310935920
  -OEChem-07211613022D

 27 30  0     0  0  0  0  0  0999 V2000
    2.2119   -1.2204    0.0000 S   0  0  0  0  0  0  0  0  0  0  0  0
    0.7246   -1.2204    0.0000 O   0  0  0  0  0  0  0  0  0  0  0  0
    2.8983   -2.7840    0.0000 N   0  0  0  0  0  0  0  0  0  0  0  0
    3.4323   -0.6865    0.0000 N   0  0  0  0  0  0  0  0  0  0  0  0
    1.4111    0.0000    0.0000 N   0  0  0  0  0  0  0  0  0  0  0  0
    1.3347   -6.2162    0.0000 C   0  0  0  0  0  0  0  0  0  0  0  0
    1.7924   -5.5679    0.0000 C   0  0  0  0  0  0  0  0  0  0  0  0
    1.6398   -6.9789    0.0000 C   0  0  0  0  0  0  0  0  0  0  0  0
    3.0509   -1.3729    0.0000 C   0  0  0  0  0  0  0  0  0  0  0  0
    1.9449   -4.1187    0.0000 C   0  0  0  0  0  0  0  0  0  0  0  0
    2.1356   -0.4195    0.0000 C   0  0  0  0  0  0  0  0  0  0  0  0
    1.4492   -4.8052    0.0000 C   0  0  0  0  0  0  0  0  0  0  0  0
    3.3560   -2.1356    0.0000 C   0  0  0  0  0  0  0  0  0  0  0  0
    2.6314   -5.6441    0.0000 C   0  0  0  0  0  0  0  0  0  0  0  0
    0.4958   -6.1399    0.0000 C   0  0  0  0  0  0  0  0  0  0  0  0
    2.8983   -0.0763    0.0000 C   0  0  0  0  0  0  0  0  0  0  0  0
    2.4789   -7.0552    0.0000 C   0  0  0  0  0  0  0  0  0  0  0  0
    2.7840   -4.2331    0.0000 C   0  0  0  0  0  0  0  0  0  0  0  0
    1.6017   -3.3941    0.0000 C   0  0  0  0  0  0  0  0  0  0  0  0
    3.2416   -3.5467    0.0000 C   0  0  0  0  0  0  0  0  0  0  0  0
    2.0975   -2.7076    0.0000 C   0  0  0  0  0  0  0  0  0  0  0  0
    1.1822   -7.6272    0.0000 C   0  0  0  0  0  0  0  0  0  0  0  0
    2.9365   -6.4069    0.0000 C   0  0  0  0  0  0  0  0  0  0  0  0
    0.0382   -6.7883    0.0000 C   0  0  0  0  0  0  0  0  0  0  0  0
    0.3432   -7.5510    0.0000 C   0  0  0  0  0  0  0  0  0  0  0  0
    0.7246   -0.4195    0.0000 C   0  0  0  0  0  0  0  0  0  0  0  0
    0.0000    0.0000    0.0000 C   0  0  0  0  0  0  0  0  0  0  0  0
  1  9  1  0  0  0  0
  1 11  1  0  0  0  0
  2 26  2  0  0  0  0
  3 13  1  0  0  0  0
  3 20  1  0  0  0  0
  3 21  1  0  0  0  0
  4  9  2  0  0  0  0
  4 16  1  0  0  0  0
  5 11  1  0  0  0  0
  5 26  1  0  0  0  0
  6  7  1  0  0  0  0
  6  8  2  0  0  0  0
  6 15  1  0  0  0  0
  7 12  1  0  0  0  0
  7 14  2  0  0  0  0
  8 17  1  0  0  0  0
  8 22  1  0  0  0  0
  9 13  1  0  0  0  0
 10 12  1  0  0  0  0
 10 18  1  0  0  0  0
 10 19  1  0  0  0  0
 11 16  2  0  0  0  0
 14 23  1  0  0  0  0
 15 24  2  0  0  0  0
 17 23  2  0  0  0  0
 18 20  1  0  0  0  0
 19 21  1  0  0  0  0
 22 25  2  0  0  0  0
 24 25  1  0  0  0  0
 26 27  1  0  0  0  0
M  END
> <PUBCHEM_COMPOUND_ID_TYPE>
0

> <PUBCHEM_TOTAL_CHARGE>
0

> <PUBCHEM_SUBSTANCE_ID>
310935920

> <PUBCHEM_SUBSTANCE_VERSION>
1

> <PUBCHEM_EXT_DATASOURCE_NAME>
4488

> <PUBCHEM_EXT_DATASOURCE_REGID>
SCHEMBL16113516

> <PUBCHEM_SUBSTANCE_COMMENT>
InChI=1S/C22H25N3OS/c1-16(26)24-21-14-23-22(27-21)15-25-11-9-17(10-12-25)13-19-7-4-6-18-5-2-3-8-20(18)19/h2-8,14,17H,9-13,15H2,1H3,(H,24,26)
InChIKey=AJDPESMVZWSZBS-UHFFFAOYSA-N

> <PUBCHEM_SUBSTANCE_SYNONYM>
SCHEMBL16113516

> <PUBCHEM_XREF_EXT_ID>
SCHEMBL16113516

> <PUBCHEM_EXT_DATASOURCE_URL>
https://www.surechembl.org/

> <PUBCHEM_EXT_SUBSTANCE_URL>
https://www.surechembl.org/chemical/SCHEMBL16113516

> <PUBCHEM_CID_ASSOCIATIONS>
117603903  1

> <PUBCHEM_COORDINATE_TYPE>
1
3

$$$$
