310948888
  -OEChem-07211613022D

 33 37  0     1  0  0  0  0  0999 V2000
    5.6792   -1.1549    0.0000 O   0  0  0  0  0  0  0  0  0  0  0  0
    5.6157   -2.5509    0.0000 O   0  0  0  0  0  0  0  0  0  0  0  0
    2.2273    0.5076    0.0000 O   0  0  0  0  0  0  0  0  0  0  0  0
    0.0698    1.7641    0.0000 O   0  0  0  0  0  0  0  0  0  0  0  0
   -0.6409    0.5076    0.0000 N   0  0  0  0  0  0  0  0  0  0  0  0
    0.8059   -0.3172    0.0000 N   0  0  3  0  0  0  0  0  0  0  0  0
   -2.0876    2.1829    0.0000 N   0  0  0  0  0  0  0  0  0  0  0  0
   -5.6792    2.5509    0.0000 N   0  0  0  0  0  0  0  0  0  0  0  0
    4.4101   -0.7361    0.0000 C   0  0  0  0  0  0  0  0  0  0  0  0
    4.3974   -1.5610    0.0000 C   0  0  0  0  0  0  0  0  0  0  0  0
    3.6867   -0.3172    0.0000 C   0  0  0  0  0  0  0  0  0  0  0  0
    2.9633   -0.7361    0.0000 C   0  0  0  0  0  0  0  0  0  0  0  0
    5.1969   -1.8148    0.0000 C   0  0  0  0  0  0  0  0  0  0  0  0
    2.2527   -0.3172    0.0000 C   0  0  3  0  0  0  0  0  0  0  0  0
   -1.3770    0.9391    0.0000 C   0  0  0  0  0  0  0  0  0  0  0  0
    3.6867   -1.9798    0.0000 C   0  0  0  0  0  0  0  0  0  0  0  0
    5.2223   -0.4950    0.0000 C   0  0  0  0  0  0  0  0  0  0  0  0
    2.9760   -1.5610    0.0000 C   0  0  0  0  0  0  0  0  0  0  0  0
    0.0698    0.9138    0.0000 C   0  0  0  0  0  0  0  0  0  0  0  0
   -2.8238    0.9391    0.0000 C   0  0  0  0  0  0  0  0  0  0  0  0
   -2.8110    1.7767    0.0000 C   0  0  0  0  0  0  0  0  0  0  0  0
   -2.0750    0.5204    0.0000 C   0  0  0  0  0  0  0  0  0  0  0  0
    1.5293   -0.7361    0.0000 C   0  0  0  0  0  0  0  0  0  0  0  0
    0.8059    0.5076    0.0000 C   0  0  0  0  0  0  0  0  0  0  0  0
   -0.6282   -0.3300    0.0000 C   0  0  0  0  0  0  0  0  0  0  0  0
   -1.3643    1.7641    0.0000 C   0  0  0  0  0  0  0  0  0  0  0  0
    0.0825   -0.7361    0.0000 C   0  0  0  0  0  0  0  0  0  0  0  0
    3.6867    0.5076    0.0000 C   0  0  0  0  0  0  0  0  0  0  0  0
   -3.5344    2.1702    0.0000 C   0  0  0  0  0  0  0  0  0  0  0  0
   -3.5218    0.5204    0.0000 C   0  0  0  0  0  0  0  0  0  0  0  0
   -4.2452    1.7641    0.0000 C   0  0  0  0  0  0  0  0  0  0  0  0
   -4.2452    0.9391    0.0000 C   0  0  0  0  0  0  0  0  0  0  0  0
   -4.9812    2.1829    0.0000 C   0  0  0  0  0  0  0  0  0  0  0  0
  1 13  1  0  0  0  0
  1 17  1  0  0  0  0
  2 13  2  0  0  0  0
 14  3  1  6  0  0  0
  4 19  2  0  0  0  0
  5 15  1  0  0  0  0
  5 19  1  0  0  0  0
  5 25  1  0  0  0  0
  6 23  1  0  0  0  0
  6 24  1  0  0  0  0
  6 27  1  0  0  0  0
  7 21  2  0  0  0  0
  7 26  1  0  0  0  0
  8 33  3  0  0  0  0
  9 10  1  0  0  0  0
  9 11  2  0  0  0  0
  9 17  1  0  0  0  0
 10 13  1  0  0  0  0
 10 16  2  0  0  0  0
 11 12  1  0  0  0  0
 11 28  1  0  0  0  0
 12 14  1  0  0  0  0
 12 18  2  0  0  0  0
 14 23  1  0  0  0  0
 15 22  1  0  0  0  0
 15 26  2  0  0  0  0
 16 18  1  0  0  0  0
 19 24  1  0  0  0  0
 20 21  1  0  0  0  0
 20 22  2  0  0  0  0
 20 30  1  0  0  0  0
 21 29  1  0  0  0  0
 25 27  1  0  0  0  0
 29 31  2  0  0  0  0
 30 32  2  0  0  0  0
 31 32  1  0  0  0  0
 31 33  1  0  0  0  0
M  END
> <PUBCHEM_COMPOUND_ID_TYPE>
0

> <PUBCHEM_TOTAL_CHARGE>
0

> <PUBCHEM_SUBSTANCE_ID>
310948888

> <PUBCHEM_SUBSTANCE_VERSION>
1

> <PUBCHEM_EXT_DATASOURCE_NAME>
4488

> <PUBCHEM_EXT_DATASOURCE_REGID>
SCHEMBL16127073

> <PUBCHEM_SUBSTANCE_COMMENT>
InChI=1S/C25H22N4O4/c1-15-19(4-5-20-21(15)14-33-25(20)32)23(30)12-28-6-7-29(24(31)13-28)18-9-17-3-2-16(10-26)8-22(17)27-11-18/h2-5,8-9,11,23,30H,6-7,12-14H2,1H3/t23-/m0/s1
InChIKey=BBNFUSLBLRCICI-QHCPKHFHSA-N

> <PUBCHEM_SUBSTANCE_SYNONYM>
SCHEMBL16127073

> <PUBCHEM_XREF_EXT_ID>
SCHEMBL16127073

> <PUBCHEM_EXT_DATASOURCE_URL>
https://www.surechembl.org/

> <PUBCHEM_EXT_SUBSTANCE_URL>
https://www.surechembl.org/chemical/SCHEMBL16127073

> <PUBCHEM_CID_ASSOCIATIONS>
117614418  1

> <PUBCHEM_COORDINATE_TYPE>
1
3

> <PUBCHEM_BONDANNOTATIONS>
14  3  6

$$$$
