310934037
  -OEChem-07211613022D

 22 24  0     1  0  0  0  0  0999 V2000
    0.7145    1.2375    0.0000 F   0  0  0  0  0  0  0  0  0  0  0  0
   -4.1166    1.0301    0.0000 O   0  0  0  0  0  0  0  0  0  0  0  0
   -2.4555   -0.4571    0.0000 O   0  0  0  0  0  0  0  0  0  0  0  0
   -3.8533   -0.1600    0.0000 N   0  0  0  0  0  0  0  0  0  0  0  0
   -0.7145   -0.4125    0.0000 N   0  0  0  0  0  0  0  0  0  0  0  0
   -3.4492    1.5151    0.0000 C   0  0  3  0  0  0  0  0  0  0  0  0
   -2.8971    0.9020    0.0000 C   0  0  0  0  0  0  0  0  0  0  0  0
   -2.1434    1.2375    0.0000 C   0  0  0  0  0  0  0  0  0  0  0  0
   -4.2028    1.8506    0.0000 C   0  0  0  0  0  0  0  0  0  0  0  0
   -3.0367    2.2295    0.0000 C   0  0  0  0  0  0  0  0  0  0  0  0
   -1.4290    0.8250    0.0000 C   0  0  0  0  0  0  0  0  0  0  0  0
   -2.2297    2.0580    0.0000 C   0  0  0  0  0  0  0  0  0  0  0  0
   -3.0686    0.0950    0.0000 C   0  0  0  0  0  0  0  0  0  0  0  0
   -4.2891    2.6711    0.0000 C   0  0  0  0  0  0  0  0  0  0  0  0
   -4.8703    1.3657    0.0000 C   0  0  0  0  0  0  0  0  0  0  0  0
   -0.7145    1.2375    0.0000 C   0  0  0  0  0  0  0  0  0  0  0  0
   -1.4290    0.0000    0.0000 C   0  0  0  0  0  0  0  0  0  0  0  0
    0.0000    0.8250    0.0000 C   0  0  0  0  0  0  0  0  0  0  0  0
   -5.0428    3.0067    0.0000 C   0  0  0  0  0  0  0  0  0  0  0  0
   -5.6240    1.7012    0.0000 C   0  0  0  0  0  0  0  0  0  0  0  0
    0.0000    0.0000    0.0000 C   0  0  0  0  0  0  0  0  0  0  0  0
   -5.7102    2.5218    0.0000 C   0  0  0  0  0  0  0  0  0  0  0  0
  1 18  1  0  0  0  0
  6  2  1  6  0  0  0
  3 13  2  0  0  0  0
  4 13  1  0  0  0  0
  5 17  2  0  0  0  0
  5 21  1  0  0  0  0
  6  7  1  0  0  0  0
  6  9  1  0  0  0  0
  6 10  1  0  0  0  0
  7  8  2  0  0  0  0
  7 13  1  0  0  0  0
  8 11  1  0  0  0  0
  8 12  1  0  0  0  0
  9 14  2  0  0  0  0
  9 15  1  0  0  0  0
 10 12  1  0  0  0  0
 11 16  2  0  0  0  0
 11 17  1  0  0  0  0
 14 19  1  0  0  0  0
 15 20  2  0  0  0  0
 16 18  1  0  0  0  0
 18 21  2  0  0  0  0
 19 22  2  0  0  0  0
 20 22  1  0  0  0  0
M  END
> <PUBCHEM_COMPOUND_ID_TYPE>
0

> <PUBCHEM_TOTAL_CHARGE>
0

> <PUBCHEM_SUBSTANCE_ID>
310934037

> <PUBCHEM_SUBSTANCE_VERSION>
1

> <PUBCHEM_EXT_DATASOURCE_NAME>
4488

> <PUBCHEM_EXT_DATASOURCE_REGID>
SCHEMBL16111481

> <PUBCHEM_SUBSTANCE_COMMENT>
InChI=1S/C17H15FN2O2/c18-13-8-11(9-20-10-13)14-6-7-17(22,15(14)16(19)21)12-4-2-1-3-5-12/h1-5,8-10,22H,6-7H2,(H2,19,21)/t17-/m0/s1
InChIKey=IPQGEOIXABAZSU-KRWDZBQOSA-N

> <PUBCHEM_SUBSTANCE_SYNONYM>
SCHEMBL16111481

> <PUBCHEM_XREF_EXT_ID>
SCHEMBL16111481

> <PUBCHEM_EXT_DATASOURCE_URL>
https://www.surechembl.org/

> <PUBCHEM_EXT_SUBSTANCE_URL>
https://www.surechembl.org/chemical/SCHEMBL16111481

> <PUBCHEM_CID_ASSOCIATIONS>
117602336  1

> <PUBCHEM_COORDINATE_TYPE>
1
3

> <PUBCHEM_BONDANNOTATIONS>
6  2  6

$$$$
