310939716
  -OEChem-07211613022D

 27 30  0     0  0  0  0  0  0999 V2000
   -0.7380    2.6058    0.0000 F   0  0  0  0  0  0  0  0  0  0  0  0
    0.0820    1.8040    0.0000 F   0  0  0  0  0  0  0  0  0  0  0  0
   -0.7380    1.0022    0.0000 F   0  0  0  0  0  0  0  0  0  0  0  0
   -0.7563   -2.4965    0.0000 O   0  0  0  0  0  0  0  0  0  0  0  0
    1.7949   -1.3484    0.0000 N   0  0  0  0  0  0  0  0  0  0  0  0
   -0.7380   -1.0570    0.0000 N   0  0  0  0  0  0  0  0  0  0  0  0
    1.0114   -2.4418    0.0000 N   0  0  0  0  0  0  0  0  0  0  0  0
    2.5238   -0.9476    0.0000 N   0  0  0  0  0  0  0  0  0  0  0  0
    0.5193   -1.7676    0.0000 C   0  0  0  0  0  0  0  0  0  0  0  0
   -2.0136    1.0934    0.0000 C   0  0  0  0  0  0  0  0  0  0  0  0
   -0.3189   -1.7493    0.0000 C   0  0  0  0  0  0  0  0  0  0  0  0
   -1.6127    1.8222    0.0000 C   0  0  0  0  0  0  0  0  0  0  0  0
    1.7949   -2.1685    0.0000 C   0  0  0  0  0  0  0  0  0  0  0  0
   -1.5580    0.4009    0.0000 C   0  0  0  0  0  0  0  0  0  0  0  0
    1.0114   -1.1116    0.0000 C   0  0  0  0  0  0  0  0  0  0  0  0
   -0.7380    1.8040    0.0000 C   0  0  0  0  0  0  0  0  0  0  0  0
   -0.7380    0.3826    0.0000 C   0  0  0  0  0  0  0  0  0  0  0  0
   -1.9954   -0.3462    0.0000 C   0  0  0  0  0  0  0  0  0  0  0  0
   -0.3189   -0.3280    0.0000 C   0  0  0  0  0  0  0  0  0  0  0  0
   -1.5944   -1.0387    0.0000 C   0  0  0  0  0  0  0  0  0  0  0  0
   -2.8336    1.1116    0.0000 C   0  0  0  0  0  0  0  0  0  0  0  0
   -1.9954    2.5148    0.0000 C   0  0  0  0  0  0  0  0  0  0  0  0
    2.5238   -2.6058    0.0000 C   0  0  0  0  0  0  0  0  0  0  0  0
   -3.2346    1.8222    0.0000 C   0  0  0  0  0  0  0  0  0  0  0  0
   -2.8336    2.5330    0.0000 C   0  0  0  0  0  0  0  0  0  0  0  0
    3.2346   -1.3667    0.0000 C   0  0  0  0  0  0  0  0  0  0  0  0
    3.2346   -2.1868    0.0000 C   0  0  0  0  0  0  0  0  0  0  0  0
  1 16  1  0  0  0  0
  2 16  1  0  0  0  0
  3 16  1  0  0  0  0
  4 11  2  0  0  0  0
  5  8  1  0  0  0  0
  5 13  1  0  0  0  0
  5 15  1  0  0  0  0
  6 11  1  0  0  0  0
  6 19  1  0  0  0  0
  6 20  1  0  0  0  0
  7  9  1  0  0  0  0
  7 13  2  0  0  0  0
  8 26  2  0  0  0  0
  9 11  1  0  0  0  0
  9 15  2  0  0  0  0
 10 12  2  0  0  0  0
 10 14  1  0  0  0  0
 10 21  1  0  0  0  0
 12 16  1  0  0  0  0
 12 22  1  0  0  0  0
 13 23  1  0  0  0  0
 14 17  1  0  0  0  0
 14 18  1  0  0  0  0
 17 19  1  0  0  0  0
 18 20  1  0  0  0  0
 21 24  2  0  0  0  0
 22 25  2  0  0  0  0
 23 27  2  0  0  0  0
 24 25  1  0  0  0  0
 26 27  1  0  0  0  0
M  END
> <PUBCHEM_COMPOUND_ID_TYPE>
0

> <PUBCHEM_TOTAL_CHARGE>
0

> <PUBCHEM_SUBSTANCE_ID>
310939716

> <PUBCHEM_SUBSTANCE_VERSION>
1

> <PUBCHEM_EXT_DATASOURCE_NAME>
4488

> <PUBCHEM_EXT_DATASOURCE_REGID>
SCHEMBL16117646

> <PUBCHEM_SUBSTANCE_COMMENT>
InChI=1S/C19H17F3N4O/c20-19(21,22)15-5-2-1-4-14(15)13-7-10-25(11-8-13)18(27)16-12-26-17(24-16)6-3-9-23-26/h1-6,9,12-13H,7-8,10-11H2
InChIKey=WLSZZCSTWATJTP-UHFFFAOYSA-N

> <PUBCHEM_SUBSTANCE_SYNONYM>
SCHEMBL16117646

> <PUBCHEM_XREF_EXT_ID>
SCHEMBL16117646

> <PUBCHEM_EXT_DATASOURCE_URL>
https://www.surechembl.org/

> <PUBCHEM_EXT_SUBSTANCE_URL>
https://www.surechembl.org/chemical/SCHEMBL16117646

> <PUBCHEM_CID_ASSOCIATIONS>
117606943  1

> <PUBCHEM_COORDINATE_TYPE>
1
3

$$$$
