310938962
  -OEChem-07211613022D

 28 31  0     1  0  0  0  0  0999 V2000
   -1.9118   -0.7443    0.0000 O   0  0  0  0  0  0  0  0  0  0  0  0
   -2.7971   -3.2796    0.0000 N   0  0  0  0  0  0  0  0  0  0  0  0
   -3.9241   -1.3276    0.0000 N   0  0  0  0  0  0  0  0  0  0  0  0
   -3.5116   -2.8671    0.0000 C   0  0  3  0  0  0  0  0  0  0  0  0
   -3.9241   -2.1526    0.0000 C   0  0  3  0  0  0  0  0  0  0  0  0
   -4.3366   -2.8671    0.0000 C   0  0  3  0  0  0  0  0  0  0  0  0
   -2.7971   -4.1046    0.0000 C   0  0  0  0  0  0  0  0  0  0  0  0
   -2.0826   -2.8671    0.0000 C   0  0  0  0  0  0  0  0  0  0  0  0
   -5.0511   -3.2796    0.0000 C   0  0  0  0  0  0  0  0  0  0  0  0
   -3.2096   -0.9151    0.0000 C   0  0  3  0  0  0  0  0  0  0  0  0
   -3.5116   -4.5171    0.0000 C   0  0  0  0  0  0  0  0  0  0  0  0
   -2.0826   -4.5171    0.0000 C   0  0  0  0  0  0  0  0  0  0  0  0
   -1.3682   -3.2796    0.0000 C   0  0  0  0  0  0  0  0  0  0  0  0
   -2.0826   -2.0421    0.0000 C   0  0  0  0  0  0  0  0  0  0  0  0
   -3.2096   -0.0901    0.0000 C   0  0  0  0  0  0  0  0  0  0  0  0
   -2.4951   -1.3276    0.0000 C   0  0  0  0  0  0  0  0  0  0  0  0
   -3.5116   -5.3421    0.0000 C   0  0  0  0  0  0  0  0  0  0  0  0
   -2.0826   -5.3421    0.0000 C   0  0  0  0  0  0  0  0  0  0  0  0
   -0.6537   -2.8671    0.0000 C   0  0  0  0  0  0  0  0  0  0  0  0
   -1.3682   -1.6296    0.0000 C   0  0  0  0  0  0  0  0  0  0  0  0
   -2.4951    0.3224    0.0000 C   0  0  0  0  0  0  0  0  0  0  0  0
   -2.7971   -5.7546    0.0000 C   0  0  0  0  0  0  0  0  0  0  0  0
   -0.6537   -2.0421    0.0000 C   0  0  0  0  0  0  0  0  0  0  0  0
   -1.7807   -0.0901    0.0000 C   0  0  0  0  0  0  0  0  0  0  0  0
   -2.4951    1.1474    0.0000 C   0  0  0  0  0  0  0  0  0  0  0  0
   -1.0662    0.3224    0.0000 C   0  0  0  0  0  0  0  0  0  0  0  0
   -1.7807    1.5599    0.0000 C   0  0  0  0  0  0  0  0  0  0  0  0
   -1.0662    1.1474    0.0000 C   0  0  0  0  0  0  0  0  0  0  0  0
  1 16  1  0  0  0  0
  2  4  1  0  0  0  0
  2  7  1  0  0  0  0
  2  8  1  0  0  0  0
  3  5  1  0  0  0  0
 10  3  1  1  0  0  0
  4  5  1  0  0  0  0
  4  6  1  0  0  0  0
  5  6  1  0  0  0  0
  6  9  1  0  0  0  0
  7 11  1  0  0  0  0
  7 12  1  0  0  0  0
  8 13  1  0  0  0  0
  8 14  1  0  0  0  0
 10 15  1  0  0  0  0
 10 16  1  0  0  0  0
 11 17  1  0  0  0  0
 12 18  1  0  0  0  0
 13 19  1  0  0  0  0
 14 20  1  0  0  0  0
 15 21  1  0  0  0  0
 17 22  1  0  0  0  0
 18 22  1  0  0  0  0
 19 23  1  0  0  0  0
 20 23  1  0  0  0  0
 21 24  2  0  0  0  0
 21 25  1  0  0  0  0
 24 26  1  0  0  0  0
 25 27  2  0  0  0  0
 26 28  2  0  0  0  0
 27 28  1  0  0  0  0
M  END
> <PUBCHEM_COMPOUND_ID_TYPE>
0

> <PUBCHEM_TOTAL_CHARGE>
0

> <PUBCHEM_SUBSTANCE_ID>
310938962

> <PUBCHEM_SUBSTANCE_VERSION>
1

> <PUBCHEM_EXT_DATASOURCE_NAME>
4488

> <PUBCHEM_EXT_DATASOURCE_REGID>
SCHEMBL16116881

> <PUBCHEM_SUBSTANCE_COMMENT>
InChI=1S/C25H40N2O/c1-19-24(26-21(18-28)17-20-11-5-2-6-12-20)25(19)27(22-13-7-3-8-14-22)23-15-9-4-10-16-23/h2,5-6,11-12,19,21-26,28H,3-4,7-10,13-18H2,1H3/t19?,21-,24?,25?/m0/s1
InChIKey=WVHFYGMMANYHKH-LWKNHUJESA-N

> <PUBCHEM_SUBSTANCE_SYNONYM>
SCHEMBL16116881

> <PUBCHEM_XREF_EXT_ID>
SCHEMBL16116881

> <PUBCHEM_EXT_DATASOURCE_URL>
https://www.surechembl.org/

> <PUBCHEM_EXT_SUBSTANCE_URL>
https://www.surechembl.org/chemical/SCHEMBL16116881

> <PUBCHEM_CID_ASSOCIATIONS>
117606350  1

> <PUBCHEM_COORDINATE_TYPE>
1
3

> <PUBCHEM_BONDANNOTATIONS>
10  3  5

$$$$
