310944347
  -OEChem-07211613022D

 18 18  0     0  0  0  0  0  0999 V2000
   -0.0066    1.8265    0.0000 F   0  0  0  0  0  0  0  0  0  0  0  0
    2.1801    1.3814    0.0000 N   0  0  0  0  0  0  0  0  0  0  0  0
   -2.1801    1.3682    0.0000 N   0  0  0  0  0  0  0  0  0  0  0  0
   -0.0066   -0.5827    0.0000 C   0  0  0  0  0  0  0  0  0  0  0  0
   -0.0328   -1.3944    0.0000 C   0  0  0  0  0  0  0  0  0  0  0  0
   -0.0066    1.0278    0.0000 C   0  0  0  0  0  0  0  0  0  0  0  0
    0.7267    0.6351    0.0000 C   0  0  0  0  0  0  0  0  0  0  0  0
   -0.7529    0.6219    0.0000 C   0  0  0  0  0  0  0  0  0  0  0  0
    0.7136   -0.1898    0.0000 C   0  0  0  0  0  0  0  0  0  0  0  0
   -0.7267   -0.1898    0.0000 C   0  0  0  0  0  0  0  0  0  0  0  0
   -0.8315   -1.1850    0.0000 C   0  0  0  0  0  0  0  0  0  0  0  0
    1.4599    1.0278    0.0000 C   0  0  0  0  0  0  0  0  0  0  0  0
   -1.4730    1.0016    0.0000 C   0  0  0  0  0  0  0  0  0  0  0  0
   -0.7397   -1.8265    0.0000 C   0  0  0  0  0  0  0  0  0  0  0  0
    0.7397   -1.8134    0.0000 C   0  0  0  0  0  0  0  0  0  0  0  0
   -1.0409   -0.4386    0.0000 C   0  0  0  0  0  0  0  0  0  0  0  0
   -1.8527   -0.2160    0.0000 C   0  0  0  0  0  0  0  0  0  0  0  0
   -2.0622    0.5695    0.0000 C   0  0  0  0  0  0  0  0  0  0  0  0
  1  6  1  0  0  0  0
  2 12  3  0  0  0  0
  3 13  3  0  0  0  0
  4  5  1  0  0  0  0
  4  9  2  0  0  0  0
  4 10  1  0  0  0  0
  5 11  1  0  0  0  0
  5 14  1  0  0  0  0
  5 15  1  0  0  0  0
  6  7  2  0  0  0  0
  6  8  1  0  0  0  0
  7  9  1  0  0  0  0
  7 12  1  0  0  0  0
  8 10  2  0  0  0  0
  8 13  1  0  0  0  0
 11 16  1  0  0  0  0
 16 17  1  0  0  0  0
 17 18  1  0  0  0  0
M  END
> <PUBCHEM_COMPOUND_ID_TYPE>
0

> <PUBCHEM_TOTAL_CHARGE>
0

> <PUBCHEM_SUBSTANCE_ID>
310944347

> <PUBCHEM_SUBSTANCE_VERSION>
1

> <PUBCHEM_EXT_DATASOURCE_NAME>
4488

> <PUBCHEM_EXT_DATASOURCE_REGID>
SCHEMBL16122422

> <PUBCHEM_SUBSTANCE_COMMENT>
InChI=1S/C15H17FN2/c1-4-5-6-15(2,3)13-7-11(9-17)14(16)12(8-13)10-18/h7-8H,4-6H2,1-3H3
InChIKey=ADFSWMHOMAZGLW-UHFFFAOYSA-N

> <PUBCHEM_SUBSTANCE_SYNONYM>
SCHEMBL16122422

> <PUBCHEM_XREF_EXT_ID>
SCHEMBL16122422

> <PUBCHEM_EXT_DATASOURCE_URL>
https://www.surechembl.org/

> <PUBCHEM_EXT_SUBSTANCE_URL>
https://www.surechembl.org/chemical/SCHEMBL16122422

> <PUBCHEM_CID_ASSOCIATIONS>
117610604  1

> <PUBCHEM_COORDINATE_TYPE>
1
3

$$$$
