310942304
  -OEChem-07211613022D

 12 12  0     0  0  0  0  0  0999 V2000
    1.3682   -0.0765    0.0000 O   0  0  0  0  0  0  0  0  0  0  0  0
    0.6203    1.1132    0.0000 O   0  0  0  0  0  0  0  0  0  0  0  0
   -2.3539   -1.1132    0.0000 N   0  0  0  0  0  0  0  0  0  0  0  0
   -2.7958   -0.3824    0.0000 N   0  0  0  0  0  0  0  0  0  0  0  0
   -1.4701   -0.1105    0.0000 C   0  0  0  0  0  0  0  0  0  0  0  0
   -0.7393    0.3145    0.0000 C   0  0  0  0  0  0  0  0  0  0  0  0
   -1.5891   -0.9433    0.0000 C   0  0  0  0  0  0  0  0  0  0  0  0
   -2.2179    0.2294    0.0000 C   0  0  0  0  0  0  0  0  0  0  0  0
    0.6203    0.2974    0.0000 C   0  0  0  0  0  0  0  0  0  0  0  0
   -0.0425   -0.0935    0.0000 C   0  0  0  0  0  0  0  0  0  0  0  0
    2.0480    0.3484    0.0000 C   0  0  0  0  0  0  0  0  0  0  0  0
    2.7958   -0.0085    0.0000 C   0  0  0  0  0  0  0  0  0  0  0  0
  1  9  1  0  0  0  0
  1 11  1  0  0  0  0
  2  9  2  0  0  0  0
  3  4  1  0  0  0  0
  3  7  1  0  0  0  0
  4  8  1  0  0  0  0
  5  6  1  0  0  0  0
  5  7  2  0  0  0  0
  5  8  1  0  0  0  0
  6 10  2  0  0  0  0
  9 10  1  0  0  0  0
 11 12  1  0  0  0  0
M  END
> <PUBCHEM_COMPOUND_ID_TYPE>
0

> <PUBCHEM_TOTAL_CHARGE>
0

> <PUBCHEM_SUBSTANCE_ID>
310942304

> <PUBCHEM_SUBSTANCE_VERSION>
1

> <PUBCHEM_EXT_DATASOURCE_NAME>
4488

> <PUBCHEM_EXT_DATASOURCE_REGID>
SCHEMBL16120340

> <PUBCHEM_SUBSTANCE_COMMENT>
InChI=1S/C8H12N2O2/c1-2-12-8(11)4-3-7-5-9-10-6-7/h3-5,9-10H,2,6H2,1H3/b4-3+
InChIKey=FSVRDKBSHAFPSB-ONEGZZNKSA-N

> <PUBCHEM_SUBSTANCE_SYNONYM>
SCHEMBL16120340

> <PUBCHEM_XREF_EXT_ID>
SCHEMBL16120340

> <PUBCHEM_EXT_DATASOURCE_URL>
https://www.surechembl.org/

> <PUBCHEM_EXT_SUBSTANCE_URL>
https://www.surechembl.org/chemical/SCHEMBL16120340

> <PUBCHEM_CID_ASSOCIATIONS>
117608951  1

> <PUBCHEM_COORDINATE_TYPE>
1
3

$$$$
