310930517
  -OEChem-07211613022D

 33 36  0     1  0  0  0  0  0999 V2000
    2.9055   -7.1741    0.0000 Cl  0  0  0  0  0  0  0  0  0  0  0  0
    6.2773   -2.8696    0.0000 S   0  0  0  0  0  0  0  0  0  0  0  0
    5.4164   -1.4348    0.0000 F   0  0  0  0  0  0  0  0  0  0  0  0
    3.7664   -4.3045    0.0000 F   0  0  0  0  0  0  0  0  0  0  0  0
    6.2773   -3.7664    0.0000 O   0  0  0  0  0  0  0  0  0  0  0  0
    6.2773   -2.0446    0.0000 O   0  0  0  0  0  0  0  0  0  0  0  0
    2.9055   -2.8696    0.0000 O   0  0  0  0  0  0  0  0  0  0  0  0
    7.0665   -2.8696    0.0000 N   0  0  0  0  0  0  0  0  0  0  0  0
    7.1382   -1.3989    0.0000 N   0  0  0  0  0  0  0  0  0  0  0  0
    8.2860   -2.0446    0.0000 N   0  0  0  0  0  0  0  0  0  0  0  0
    7.7480   -0.8250    0.0000 N   0  0  0  0  0  0  0  0  0  0  0  0
    8.4654   -1.2554    0.0000 N   0  0  0  0  0  0  0  0  0  0  0  0
    0.4304   -2.8696    0.0000 N   0  0  0  0  0  0  0  0  0  0  0  0
    5.4164   -2.8696    0.0000 C   0  0  0  0  0  0  0  0  0  0  0  0
    4.9860   -2.1522    0.0000 C   0  0  0  0  0  0  0  0  0  0  0  0
    4.9860   -3.5870    0.0000 C   0  0  0  0  0  0  0  0  0  0  0  0
    3.7305   -2.8696    0.0000 C   0  0  0  0  0  0  0  0  0  0  0  0
    4.1968   -3.5870    0.0000 C   0  0  0  0  0  0  0  0  0  0  0  0
    4.1968   -2.1522    0.0000 C   0  0  0  0  0  0  0  0  0  0  0  0
    7.4969   -2.1522    0.0000 C   0  0  0  0  0  0  0  0  0  0  0  0
    1.6501   -3.5870    0.0000 C   0  0  3  0  0  0  0  0  0  0  0  0
    1.2554   -4.3045    0.0000 C   0  0  3  0  0  0  0  0  0  0  0  0
    2.5109   -3.5870    0.0000 C   0  0  0  0  0  0  0  0  0  0  0  0
    1.6501   -5.0218    0.0000 C   0  0  0  0  0  0  0  0  0  0  0  0
    1.2554   -2.8696    0.0000 C   0  0  0  0  0  0  0  0  0  0  0  0
    0.4304   -4.3045    0.0000 C   0  0  0  0  0  0  0  0  0  0  0  0
    2.5109   -5.0218    0.0000 C   0  0  0  0  0  0  0  0  0  0  0  0
    1.2554   -5.7392    0.0000 C   0  0  0  0  0  0  0  0  0  0  0  0
    0.0000   -3.5870    0.0000 C   0  0  0  0  0  0  0  0  0  0  0  0
    7.6762    0.0000    0.0000 C   0  0  0  0  0  0  0  0  0  0  0  0
    2.5109   -6.4566    0.0000 C   0  0  0  0  0  0  0  0  0  0  0  0
    2.9055   -5.7392    0.0000 C   0  0  0  0  0  0  0  0  0  0  0  0
    1.6501   -6.4566    0.0000 C   0  0  0  0  0  0  0  0  0  0  0  0
  1 31  1  0  0  0  0
  2  5  2  0  0  0  0
  2  6  2  0  0  0  0
  2  8  1  0  0  0  0
  2 14  1  0  0  0  0
  3 15  1  0  0  0  0
  4 18  1  0  0  0  0
  7 17  1  0  0  0  0
  7 23  1  0  0  0  0
  8 20  1  0  0  0  0
  9 11  1  0  0  0  0
  9 20  2  0  0  0  0
 10 12  2  0  0  0  0
 10 20  1  0  0  0  0
 11 12  1  0  0  0  0
 11 30  1  0  0  0  0
 13 25  1  0  0  0  0
 13 29  1  0  0  0  0
 14 15  1  0  0  0  0
 14 16  2  0  0  0  0
 15 19  2  0  0  0  0
 16 18  1  0  0  0  0
 17 18  2  0  0  0  0
 17 19  1  0  0  0  0
 21 22  1  0  0  0  0
 21 23  1  6  0  0  0
 21 25  1  0  0  0  0
 22 24  1  0  0  0  0
 22 26  1  1  0  0  0
 24 27  2  0  0  0  0
 24 28  1  0  0  0  0
 26 29  1  0  0  0  0
 27 32  1  0  0  0  0
 28 33  2  0  0  0  0
 31 32  2  0  0  0  0
 31 33  1  0  0  0  0
M  END
> <PUBCHEM_COMPOUND_ID_TYPE>
0

> <PUBCHEM_TOTAL_CHARGE>
0

> <PUBCHEM_SUBSTANCE_ID>
310930517

> <PUBCHEM_SUBSTANCE_VERSION>
1

> <PUBCHEM_EXT_DATASOURCE_NAME>
4488

> <PUBCHEM_EXT_DATASOURCE_REGID>
SCHEMBL16107809

> <PUBCHEM_SUBSTANCE_COMMENT>
InChI=1S/C20H21ClF2N6O3S/c1-29-26-20(25-28-29)27-33(30,31)19-9-16(22)18(8-17(19)23)32-11-13-10-24-7-6-15(13)12-2-4-14(21)5-3-12/h2-5,8-9,13,15,24H,6-7,10-11H2,1H3,(H,26,27)/t13-,15-/m1/s1
InChIKey=CIWLISOIRPBFNI-UKRRQHHQSA-N

> <PUBCHEM_SUBSTANCE_SYNONYM>
SCHEMBL16107809

> <PUBCHEM_XREF_EXT_ID>
SCHEMBL16107809

> <PUBCHEM_EXT_DATASOURCE_URL>
https://www.surechembl.org/

> <PUBCHEM_EXT_SUBSTANCE_URL>
https://www.surechembl.org/chemical/SCHEMBL16107809

> <PUBCHEM_CID_ASSOCIATIONS>
71557947  1

> <PUBCHEM_COORDINATE_TYPE>
1
3

> <PUBCHEM_BONDANNOTATIONS>
21  23  6
22  26  5

$$$$
