310931717
  -OEChem-07211613022D

 27 29  0     0  0  0  0  0  0999 V2000
    0.0000   -4.1152    0.0000 Br  0  0  0  0  0  0  0  0  0  0  0  0
    2.8642   -1.6461    0.0000 O   0  0  0  0  0  0  0  0  0  0  0  0
    5.0041   -3.7202    0.0000 O   0  0  0  0  0  0  0  0  0  0  0  0
    3.5885   -2.8642    0.0000 N   0  0  0  0  0  0  0  0  0  0  0  0
    4.2799   -4.9383    0.0000 N   0  0  0  0  0  0  0  0  0  0  0  0
    2.8642   -2.4691    0.0000 C   0  0  0  0  0  0  0  0  0  0  0  0
    2.1400   -2.8642    0.0000 C   0  0  0  0  0  0  0  0  0  0  0  0
    4.2799   -2.4691    0.0000 C   0  0  0  0  0  0  0  0  0  0  0  0
    3.5885   -3.7202    0.0000 C   0  0  0  0  0  0  0  0  0  0  0  0
    4.2799   -1.6461    0.0000 C   0  0  0  0  0  0  0  0  0  0  0  0
    1.4486   -2.4691    0.0000 C   0  0  0  0  0  0  0  0  0  0  0  0
    2.1400   -3.7202    0.0000 C   0  0  0  0  0  0  0  0  0  0  0  0
    4.2799   -4.1152    0.0000 C   0  0  0  0  0  0  0  0  0  0  0  0
    0.7243   -3.7202    0.0000 C   0  0  0  0  0  0  0  0  0  0  0  0
    0.7243   -2.8642    0.0000 C   0  0  0  0  0  0  0  0  0  0  0  0
    1.4486   -4.1152    0.0000 C   0  0  0  0  0  0  0  0  0  0  0  0
    5.0041   -5.3663    0.0000 C   0  0  0  0  0  0  0  0  0  0  0  0
    5.0041   -1.2511    0.0000 C   0  0  0  0  0  0  0  0  0  0  0  0
    3.5885   -1.2181    0.0000 C   0  0  0  0  0  0  0  0  0  0  0  0
    5.0041   -0.3951    0.0000 C   0  0  0  0  0  0  0  0  0  0  0  0
    3.5885   -0.3951    0.0000 C   0  0  0  0  0  0  0  0  0  0  0  0
    5.7284   -4.9712    0.0000 C   0  0  0  0  0  0  0  0  0  0  0  0
    5.0041   -6.1894    0.0000 C   0  0  0  0  0  0  0  0  0  0  0  0
    4.2799    0.0000    0.0000 C   0  0  0  0  0  0  0  0  0  0  0  0
    6.4198   -5.3663    0.0000 C   0  0  0  0  0  0  0  0  0  0  0  0
    5.7284   -6.5844    0.0000 C   0  0  0  0  0  0  0  0  0  0  0  0
    6.4528   -6.1894    0.0000 C   0  0  0  0  0  0  0  0  0  0  0  0
  1 14  1  0  0  0  0
  2  6  2  0  0  0  0
  3 13  2  0  0  0  0
  4  6  1  0  0  0  0
  4  8  1  0  0  0  0
  4  9  1  0  0  0  0
  5 13  1  0  0  0  0
  5 17  1  0  0  0  0
  6  7  1  0  0  0  0
  7 11  2  0  0  0  0
  7 12  1  0  0  0  0
  8 10  1  0  0  0  0
  9 13  1  0  0  0  0
 10 18  2  0  0  0  0
 10 19  1  0  0  0  0
 11 15  1  0  0  0  0
 12 16  2  0  0  0  0
 14 15  2  0  0  0  0
 14 16  1  0  0  0  0
 17 22  1  0  0  0  0
 17 23  1  0  0  0  0
 18 20  1  0  0  0  0
 19 21  2  0  0  0  0
 20 24  2  0  0  0  0
 21 24  1  0  0  0  0
 22 25  1  0  0  0  0
 23 26  1  0  0  0  0
 25 27  1  0  0  0  0
 26 27  1  0  0  0  0
M  END
> <PUBCHEM_COMPOUND_ID_TYPE>
0

> <PUBCHEM_TOTAL_CHARGE>
0

> <PUBCHEM_SUBSTANCE_ID>
310931717

> <PUBCHEM_SUBSTANCE_VERSION>
1

> <PUBCHEM_EXT_DATASOURCE_NAME>
4488

> <PUBCHEM_EXT_DATASOURCE_REGID>
SCHEMBL16109046

> <PUBCHEM_SUBSTANCE_COMMENT>
InChI=1S/C22H25BrN2O2/c23-19-13-11-18(12-14-19)22(27)25(15-17-7-3-1-4-8-17)16-21(26)24-20-9-5-2-6-10-20/h1,3-4,7-8,11-14,20H,2,5-6,9-10,15-16H2,(H,24,26)
InChIKey=IEKUECWVRCNVTA-UHFFFAOYSA-N

> <PUBCHEM_SUBSTANCE_SYNONYM>
SCHEMBL16109046

> <PUBCHEM_XREF_EXT_ID>
SCHEMBL16109046

> <PUBCHEM_EXT_DATASOURCE_URL>
https://www.surechembl.org/

> <PUBCHEM_EXT_SUBSTANCE_URL>
https://www.surechembl.org/chemical/SCHEMBL16109046

> <PUBCHEM_CID_ASSOCIATIONS>
86296748  1

> <PUBCHEM_COORDINATE_TYPE>
1
3

$$$$
