310930302
  -OEChem-07211613022D

 51 50  0     0  0  0  0  0  0999 V2000
   10.3509   -0.9870    0.0000 O   0  0  0  0  0  0  0  0  0  0  0  0
   11.4311   -1.9224    0.0000 O   0  0  0  0  0  0  0  0  0  0  0  0
    6.3002   -2.3902    0.0000 O   0  0  0  0  0  0  0  0  0  0  0  0
    7.3804   -3.3256    0.0000 O   0  0  0  0  0  0  0  0  0  0  0  0
   11.7011   -0.5192    0.0000 N   0  0  0  0  0  0  0  0  0  0  0  0
    7.6504   -1.9224    0.0000 N   0  0  0  0  0  0  0  0  0  0  0  0
   11.1610   -1.1429    0.0000 C   0  0  0  0  0  0  0  0  0  0  0  0
   11.4311    0.2603    0.0000 C   0  0  0  0  0  0  0  0  0  0  0  0
   12.5112   -0.6751    0.0000 C   0  0  0  0  0  0  0  0  0  0  0  0
   10.6209    0.4162    0.0000 C   0  0  0  0  0  0  0  0  0  0  0  0
   12.7813   -1.4547    0.0000 C   0  0  0  0  0  0  0  0  0  0  0  0
    9.8108   -1.6106    0.0000 C   0  0  0  0  0  0  0  0  0  0  0  0
    9.0007   -1.4547    0.0000 C   0  0  0  0  0  0  0  0  0  0  0  0
   10.3509    1.1958    0.0000 C   0  0  0  0  0  0  0  0  0  0  0  0
   13.5914   -1.6106    0.0000 C   0  0  0  0  0  0  0  0  0  0  0  0
    8.4606   -2.0783    0.0000 C   0  0  0  0  0  0  0  0  0  0  0  0
    7.1104   -2.5461    0.0000 C   0  0  0  0  0  0  0  0  0  0  0  0
    9.5408    1.3517    0.0000 C   0  0  0  0  0  0  0  0  0  0  0  0
   14.1315   -0.9870    0.0000 C   0  0  0  0  0  0  0  0  0  0  0  0
    9.2707    2.1312    0.0000 C   0  0  0  0  0  0  0  0  0  0  0  0
   14.9417   -1.1429    0.0000 C   0  0  0  0  0  0  0  0  0  0  0  0
    5.7601   -3.0138    0.0000 C   0  0  0  0  0  0  0  0  0  0  0  0
    8.4606    2.2872    0.0000 C   0  0  0  0  0  0  0  0  0  0  0  0
   15.2117   -1.9224    0.0000 C   0  0  0  0  0  0  0  0  0  0  0  0
    8.1905    3.0667    0.0000 C   0  0  0  0  0  0  0  0  0  0  0  0
   16.0218   -2.0783    0.0000 C   0  0  0  0  0  0  0  0  0  0  0  0
    4.9500   -2.8579    0.0000 C   0  0  0  0  0  0  0  0  0  0  0  0
    7.3804    3.2226    0.0000 C   0  0  0  0  0  0  0  0  0  0  0  0
   16.2919   -2.8579    0.0000 C   0  0  0  0  0  0  0  0  0  0  0  0
    4.4099   -3.4815    0.0000 C   0  0  0  0  0  0  0  0  0  0  0  0
    6.8403    2.5990    0.0000 C   0  0  0  0  0  0  0  0  0  0  0  0
   17.1020   -3.0138    0.0000 C   0  0  0  0  0  0  0  0  0  0  0  0
    6.0302    2.7549    0.0000 C   0  0  0  0  0  0  0  0  0  0  0  0
   17.3721   -3.7933    0.0000 C   0  0  0  0  0  0  0  0  0  0  0  0
    5.4901    2.1312    0.0000 C   0  0  0  0  0  0  0  0  0  0  0  0
   18.1822   -3.9493    0.0000 C   0  0  0  0  0  0  0  0  0  0  0  0
    4.6800    2.2872    0.0000 C   0  0  0  0  0  0  0  0  0  0  0  0
   18.7223   -3.3256    0.0000 C   0  0  0  0  0  0  0  0  0  0  0  0
    3.5998   -3.3256    0.0000 C   0  0  0  0  0  0  0  0  0  0  0  0
    4.4099    3.0667    0.0000 C   0  0  0  0  0  0  0  0  0  0  0  0
   19.5324   -3.4815    0.0000 C   0  0  0  0  0  0  0  0  0  0  0  0
    3.5998    3.2226    0.0000 C   0  0  0  0  0  0  0  0  0  0  0  0
   20.0725   -2.8579    0.0000 C   0  0  0  0  0  0  0  0  0  0  0  0
    3.3297    4.0022    0.0000 C   0  0  0  0  0  0  0  0  0  0  0  0
   20.8826   -3.0138    0.0000 C   0  0  0  0  0  0  0  0  0  0  0  0
    2.5196    4.1581    0.0000 C   0  0  0  0  0  0  0  0  0  0  0  0
   21.4227   -2.3902    0.0000 C   0  0  0  0  0  0  0  0  0  0  0  0
    2.2496    4.9376    0.0000 C   0  0  0  0  0  0  0  0  0  0  0  0
   22.2329   -2.5461    0.0000 C   0  0  0  0  0  0  0  0  0  0  0  0
    1.4394    5.0935    0.0000 C   0  0  0  0  0  0  0  0  0  0  0  0
   22.7729   -1.9224    0.0000 C   0  0  0  0  0  0  0  0  0  0  0  0
  1  7  1  0  0  0  0
  1 12  1  0  0  0  0
  2  7  2  0  0  0  0
  3 17  1  0  0  0  0
  3 22  1  0  0  0  0
  4 17  2  0  0  0  0
  5  7  1  0  0  0  0
  5  8  1  0  0  0  0
  5  9  1  0  0  0  0
  6 16  1  0  0  0  0
  6 17  1  0  0  0  0
  8 10  1  0  0  0  0
  9 11  1  0  0  0  0
 10 14  1  0  0  0  0
 11 15  1  0  0  0  0
 12 13  1  0  0  0  0
 13 16  1  0  0  0  0
 14 18  1  0  0  0  0
 15 19  1  0  0  0  0
 18 20  1  0  0  0  0
 19 21  1  0  0  0  0
 20 23  1  0  0  0  0
 21 24  1  0  0  0  0
 22 27  1  0  0  0  0
 23 25  1  0  0  0  0
 24 26  1  0  0  0  0
 25 28  1  0  0  0  0
 26 29  1  0  0  0  0
 27 30  1  0  0  0  0
 28 31  1  0  0  0  0
 29 32  1  0  0  0  0
 30 39  1  0  0  0  0
 31 33  2  0  0  0  0
 32 34  2  0  0  0  0
 33 35  1  0  0  0  0
 34 36  1  0  0  0  0
 35 37  1  0  0  0  0
 36 38  1  0  0  0  0
 37 40  2  0  0  0  0
 38 41  2  0  0  0  0
 40 42  1  0  0  0  0
 41 43  1  0  0  0  0
 42 44  1  0  0  0  0
 43 45  1  0  0  0  0
 44 46  1  0  0  0  0
 45 47  1  0  0  0  0
 46 48  1  0  0  0  0
 47 49  1  0  0  0  0
 48 50  1  0  0  0  0
 49 51  1  0  0  0  0
M  END
> <PUBCHEM_COMPOUND_ID_TYPE>
0

> <PUBCHEM_TOTAL_CHARGE>
0

> <PUBCHEM_SUBSTANCE_ID>
310930302

> <PUBCHEM_SUBSTANCE_VERSION>
1

> <PUBCHEM_EXT_DATASOURCE_NAME>
4488

> <PUBCHEM_EXT_DATASOURCE_REGID>
SCHEMBL16107581

> <PUBCHEM_SUBSTANCE_COMMENT>
InChI=1S/C45H82N2O4/c1-4-7-10-12-14-16-18-20-22-24-26-28-30-32-34-36-40-47(45(49)51-43-38-39-46-44(48)50-42-9-6-3)41-37-35-33-31-29-27-25-23-21-19-17-15-13-11-8-5-2/h14-17,20-23H,4-13,18-19,24-43H2,1-3H3,(H,46,48)
InChIKey=DKIMUZZDWQPKLI-UHFFFAOYSA-N

> <PUBCHEM_SUBSTANCE_SYNONYM>
SCHEMBL16107581

> <PUBCHEM_XREF_EXT_ID>
SCHEMBL16107581

> <PUBCHEM_EXT_DATASOURCE_URL>
https://www.surechembl.org/

> <PUBCHEM_EXT_SUBSTANCE_URL>
https://www.surechembl.org/chemical/SCHEMBL16107581

> <PUBCHEM_CID_ASSOCIATIONS>
117599479  1

> <PUBCHEM_COORDINATE_TYPE>
1
3

> <PUBCHEM_BONDANNOTATIONS>
31  28  3
32  29  3
37  35  3
38  36  3

$$$$
