310941352
  -OEChem-07211613022D

 26 27  0     1  0  0  0  0  0999 V2000
   -2.4061    1.8713    0.0000 O   0  0  0  0  0  0  0  0  0  0  0  0
   -4.8809   -0.3742    0.0000 O   0  0  0  0  0  0  0  0  0  0  0  0
   -0.2215   -0.2062    0.0000 O   0  0  0  0  0  0  0  0  0  0  0  0
    1.9630    1.8713    0.0000 O   0  0  0  0  0  0  0  0  0  0  0  0
    2.6811    0.6339    0.0000 O   0  0  0  0  0  0  0  0  0  0  0  0
    4.1324   -1.8713    0.0000 O   0  0  0  0  0  0  0  0  0  0  0  0
   -1.6728    0.6339    0.0000 N   0  0  0  0  0  0  0  0  0  0  0  0
    0.5117    1.0465    0.0000 N   0  0  0  0  0  0  0  0  0  0  0  0
   -3.1241    0.6339    0.0000 C   0  0  0  0  0  0  0  0  0  0  0  0
   -2.3756    1.0465    0.0000 C   0  0  0  0  0  0  0  0  0  0  0  0
   -4.1324    0.0535    0.0000 C   0  0  0  0  0  0  0  0  0  0  0  0
   -3.9185    0.8326    0.0000 C   0  0  0  0  0  0  0  0  0  0  0  0
   -3.3379   -0.1604    0.0000 C   0  0  0  0  0  0  0  0  0  0  0  0
    1.2298    0.6339    0.0000 C   0  0  3  0  0  0  0  0  0  0  0  0
   -0.9549    1.0465    0.0000 C   0  0  3  0  0  0  0  0  0  0  0  0
   -0.2215    0.6645    0.0000 C   0  0  0  0  0  0  0  0  0  0  0  0
    1.9630   -0.6033    0.0000 C   0  0  0  0  0  0  0  0  0  0  0  0
    1.2451   -0.1757    0.0000 C   0  0  0  0  0  0  0  0  0  0  0  0
    1.9477    1.0465    0.0000 C   0  0  0  0  0  0  0  0  0  0  0  0
    1.9630   -1.4284    0.0000 C   0  0  0  0  0  0  0  0  0  0  0  0
    2.6811   -0.2062    0.0000 C   0  0  0  0  0  0  0  0  0  0  0  0
    3.3990   -1.4284    0.0000 C   0  0  0  0  0  0  0  0  0  0  0  0
    2.6964   -1.8561    0.0000 C   0  0  0  0  0  0  0  0  0  0  0  0
    3.4143   -0.6186    0.0000 C   0  0  0  0  0  0  0  0  0  0  0  0
   -0.9396    1.8713    0.0000 C   0  0  0  0  0  0  0  0  0  0  0  0
    4.8809   -1.4284    0.0000 C   0  0  0  0  0  0  0  0  0  0  0  0
  1 10  2  0  0  0  0
 11  2  1  6  0  0  0
  3 16  2  0  0  0  0
  4 19  2  0  0  0  0
  5 19  1  0  0  0  0
  6 22  1  0  0  0  0
  6 26  1  0  0  0  0
  7 10  1  0  0  0  0
  7 15  1  0  0  0  0
 14  8  1  6  0  0  0
  8 16  1  0  0  0  0
  9 10  1  1  0  0  0
  9 12  1  0  0  0  0
  9 13  1  0  0  0  0
 11 12  1  0  0  0  0
 11 13  1  0  0  0  0
 14 18  1  0  0  0  0
 14 19  1  0  0  0  0
 15 16  1  0  0  0  0
 15 25  1  6  0  0  0
 17 18  1  0  0  0  0
 17 20  2  0  0  0  0
 17 21  1  0  0  0  0
 20 23  1  0  0  0  0
 21 24  2  0  0  0  0
 22 23  2  0  0  0  0
 22 24  1  0  0  0  0
M  END
> <PUBCHEM_COMPOUND_ID_TYPE>
0

> <PUBCHEM_TOTAL_CHARGE>
0

> <PUBCHEM_SUBSTANCE_ID>
310941352

> <PUBCHEM_SUBSTANCE_VERSION>
1

> <PUBCHEM_EXT_DATASOURCE_NAME>
4488

> <PUBCHEM_EXT_DATASOURCE_REGID>
SCHEMBL16119312

> <PUBCHEM_SUBSTANCE_COMMENT>
InChI=1S/C18H24N2O6/c1-10(19-17(23)12-8-13(21)9-12)16(22)20-15(18(24)25)7-11-3-5-14(26-2)6-4-11/h3-6,10,12-13,15,21H,7-9H2,1-2H3,(H,19,23)(H,20,22)(H,24,25)/t10-,12-,13-,15+/m1/s1
InChIKey=SYTQHCFNOBFRMV-OPQSFPLASA-N

> <PUBCHEM_SUBSTANCE_SYNONYM>
SCHEMBL16119312

> <PUBCHEM_XREF_EXT_ID>
SCHEMBL16119312

> <PUBCHEM_EXT_DATASOURCE_URL>
https://www.surechembl.org/

> <PUBCHEM_EXT_SUBSTANCE_URL>
https://www.surechembl.org/chemical/SCHEMBL16119312

> <PUBCHEM_CID_ASSOCIATIONS>
117608195  1

> <PUBCHEM_COORDINATE_TYPE>
1
3

> <PUBCHEM_BONDANNOTATIONS>
15  25  6
11  2  6
14  8  6
9  10  5

$$$$
