310935981
  -OEChem-07211613022D

 11 11  0     0  0  0  0  0  0999 V2000
    2.0705    0.0000    0.0000 S   0  0  0  0  0  0  0  0  0  0  0  0
    3.3127   -0.7247    0.0000 N   0  0  0  0  0  0  0  0  0  0  0  0
    2.0705   -1.4345    0.0000 N   0  0  0  0  0  0  0  0  0  0  0  0
    0.8282   -2.1592    0.0000 N   0  0  0  0  0  0  0  0  0  0  0  0
    3.7269   -1.4493    0.0000 C   0  0  0  0  0  0  0  0  0  0  0  0
    2.4845   -0.7247    0.0000 C   0  0  0  0  0  0  0  0  0  0  0  0
    4.4367   -1.8634    0.0000 C   0  0  0  0  0  0  0  0  0  0  0  0
    3.7416   -2.2923    0.0000 C   0  0  0  0  0  0  0  0  0  0  0  0
    1.2423   -1.4345    0.0000 C   0  0  0  0  0  0  0  0  0  0  0  0
    0.0000   -2.1444    0.0000 C   0  0  0  0  0  0  0  0  0  0  0  0
    1.2423   -2.8690    0.0000 C   0  0  0  0  0  0  0  0  0  0  0  0
  1  6  2  0  0  0  0
  2  5  1  0  0  0  0
  2  6  1  0  0  0  0
  3  6  1  0  0  0  0
  3  9  2  0  0  0  0
  4  9  1  0  0  0  0
  4 10  1  0  0  0  0
  4 11  1  0  0  0  0
  5  7  1  0  0  0  0
  5  8  1  0  0  0  0
  7  8  1  0  0  0  0
M  END
> <PUBCHEM_COMPOUND_ID_TYPE>
0

> <PUBCHEM_TOTAL_CHARGE>
0

> <PUBCHEM_SUBSTANCE_ID>
310935981

> <PUBCHEM_SUBSTANCE_VERSION>
1

> <PUBCHEM_EXT_DATASOURCE_NAME>
4488

> <PUBCHEM_EXT_DATASOURCE_REGID>
SCHEMBL16113581

> <PUBCHEM_SUBSTANCE_COMMENT>
InChI=1S/C7H13N3S/c1-10(2)5-8-7(11)9-6-3-4-6/h5-6H,3-4H2,1-2H3,(H,9,11)/b8-5+
InChIKey=RSQYWPGPSGEXSR-VMPITWQZSA-N

> <PUBCHEM_SUBSTANCE_SYNONYM>
SCHEMBL16113581

> <PUBCHEM_XREF_EXT_ID>
SCHEMBL16113581

> <PUBCHEM_EXT_DATASOURCE_URL>
https://www.surechembl.org/

> <PUBCHEM_EXT_SUBSTANCE_URL>
https://www.surechembl.org/chemical/SCHEMBL16113581

> <PUBCHEM_CID_ASSOCIATIONS>
117603956  1

> <PUBCHEM_COORDINATE_TYPE>
1
3

$$$$
