310947262
  -OEChem-07211613022D

 44 48  0     1  0  0  0  0  0999 V2000
    2.6014   -1.8672    0.0000 Br  0  0  0  0  0  0  0  0  0  0  0  0
   -0.7392   -1.5991    0.0000 O   0  0  0  0  0  0  0  0  0  0  0  0
    6.3139   -2.4876    0.0000 O   0  0  0  0  0  0  0  0  0  0  0  0
    5.0764   -3.2021    0.0000 O   0  0  0  0  0  0  0  0  0  0  0  0
   -5.0260   -4.8991    0.0000 O   0  5  0  0  0  0  0  0  0  0  0  0
   -5.7405   -3.6616    0.0000 O   0  0  0  0  0  0  0  0  0  0  0  0
    2.1889   -3.9165    0.0000 N   0  0  0  0  0  0  0  0  0  0  0  0
    2.6738   -3.2491    0.0000 N   0  0  0  0  0  0  0  0  0  0  0  0
   -1.4536   -2.8366    0.0000 N   0  0  0  0  0  0  0  0  0  0  0  0
   -5.0260   -4.0741    0.0000 N   0  3  0  0  0  0  0  0  0  0  0  0
    1.4043   -3.6616    0.0000 C   0  0  0  0  0  0  0  0  0  0  0  0
    1.4043   -2.8366    0.0000 C   0  0  0  0  0  0  0  0  0  0  0  0
    2.1889   -2.5817    0.0000 C   0  0  0  0  0  0  0  0  0  0  0  0
    0.6898   -2.4241    0.0000 C   0  0  0  0  0  0  0  0  0  0  0  0
   -0.0247   -2.8366    0.0000 C   0  0  0  0  0  0  0  0  0  0  0  0
    0.6898   -4.0741    0.0000 C   0  0  0  0  0  0  0  0  0  0  0  0
    2.6014   -4.6310    0.0000 C   0  0  0  0  0  0  0  0  0  0  0  0
   -0.0247   -3.6616    0.0000 C   0  0  0  0  0  0  0  0  0  0  0  0
    3.4264   -4.6310    0.0000 C   0  0  0  0  0  0  0  0  0  0  0  0
   -0.7392   -2.4241    0.0000 C   0  0  0  0  0  0  0  0  0  0  0  0
    5.9014   -4.6310    0.0000 C   0  0  0  0  0  0  0  0  0  0  0  0
    5.0764   -4.6310    0.0000 C   0  0  0  0  0  0  0  0  0  0  0  0
    6.3139   -3.9165    0.0000 C   0  0  0  0  0  0  0  0  0  0  0  0
    3.8389   -5.3455    0.0000 C   0  0  0  0  0  0  0  0  0  0  0  0
    3.8389   -3.9165    0.0000 C   0  0  0  0  0  0  0  0  0  0  0  0
    4.6639   -5.3455    0.0000 C   0  0  0  0  0  0  0  0  0  0  0  0
    4.6639   -3.9165    0.0000 C   0  0  0  0  0  0  0  0  0  0  0  0
    5.9014   -3.2021    0.0000 C   0  0  0  0  0  0  0  0  0  0  0  0
   -2.1681   -2.4241    0.0000 C   0  0  3  0  0  0  0  0  0  0  0  0
    6.3139   -5.3455    0.0000 C   0  0  0  0  0  0  0  0  0  0  0  0
    7.1389   -3.9165    0.0000 C   0  0  0  0  0  0  0  0  0  0  0  0
   -2.8826   -2.8366    0.0000 C   0  0  0  0  0  0  0  0  0  0  0  0
    7.1389   -5.3455    0.0000 C   0  0  0  0  0  0  0  0  0  0  0  0
    7.5514   -4.6310    0.0000 C   0  0  0  0  0  0  0  0  0  0  0  0
    5.9014   -1.7731    0.0000 C   0  0  0  0  0  0  0  0  0  0  0  0
   -3.5970   -2.4241    0.0000 C   0  0  0  0  0  0  0  0  0  0  0  0
   -2.8826   -3.6616    0.0000 C   0  0  0  0  0  0  0  0  0  0  0  0
   -4.3115   -3.6616    0.0000 C   0  0  0  0  0  0  0  0  0  0  0  0
   -4.3115   -2.8366    0.0000 C   0  0  0  0  0  0  0  0  0  0  0  0
   -3.5970   -4.0741    0.0000 C   0  0  0  0  0  0  0  0  0  0  0  0
   -2.1681   -1.5991    0.0000 C   0  0  0  0  0  0  0  0  0  0  0  0
    6.3139   -1.0587    0.0000 C   0  0  0  0  0  0  0  0  0  0  0  0
    5.0764   -1.7731    0.0000 C   0  0  0  0  0  0  0  0  0  0  0  0
    6.7264   -1.7731    0.0000 C   0  0  0  0  0  0  0  0  0  0  0  0
  1 13  1  0  0  0  0
  2 20  2  0  0  0  0
  3 28  1  0  0  0  0
  3 35  1  0  0  0  0
  4 28  2  0  0  0  0
  5 10  1  0  0  0  0
  6 10  2  0  0  0  0
  7  8  1  0  0  0  0
  7 11  1  0  0  0  0
  7 17  1  0  0  0  0
  8 13  2  0  0  0  0
  9 20  1  0  0  0  0
  9 29  1  0  0  0  0
 10 38  1  0  0  0  0
 11 12  1  0  0  0  0
 11 16  2  0  0  0  0
 12 13  1  0  0  0  0
 12 14  2  0  0  0  0
 14 15  1  0  0  0  0
 15 18  2  0  0  0  0
 15 20  1  0  0  0  0
 16 18  1  0  0  0  0
 17 19  1  0  0  0  0
 19 24  2  0  0  0  0
 19 25  1  0  0  0  0
 21 22  1  0  0  0  0
 21 23  1  0  0  0  0
 21 30  2  0  0  0  0
 22 26  2  0  0  0  0
 22 27  1  0  0  0  0
 23 28  1  0  0  0  0
 23 31  2  0  0  0  0
 24 26  1  0  0  0  0
 25 27  2  0  0  0  0
 29 32  1  0  0  0  0
 29 41  1  6  0  0  0
 30 33  1  0  0  0  0
 31 34  1  0  0  0  0
 32 36  2  0  0  0  0
 32 37  1  0  0  0  0
 33 34  2  0  0  0  0
 35 42  1  0  0  0  0
 35 43  1  0  0  0  0
 35 44  1  0  0  0  0
 36 39  1  0  0  0  0
 37 40  2  0  0  0  0
 38 39  2  0  0  0  0
 38 40  1  0  0  0  0
M  CHG  2   5  -1  10   1
M  END
> <PUBCHEM_COMPOUND_ID_TYPE>
0

> <PUBCHEM_TOTAL_CHARGE>
0

> <PUBCHEM_SUBSTANCE_ID>
310947262

> <PUBCHEM_SUBSTANCE_VERSION>
1

> <PUBCHEM_EXT_DATASOURCE_NAME>
4488

> <PUBCHEM_EXT_DATASOURCE_REGID>
SCHEMBL16125417

> <PUBCHEM_SUBSTANCE_COMMENT>
InChI=1S/C34H31BrN4O5/c1-21(23-13-16-26(17-14-23)39(42)43)36-32(40)25-15-18-30-29(19-25)31(35)37-38(30)20-22-9-11-24(12-10-22)27-7-5-6-8-28(27)33(41)44-34(2,3)4/h5-19,21H,20H2,1-4H3,(H,36,40)/t21-/m0/s1
InChIKey=FLGLNNKCUVCUKW-NRFANRHFSA-N

> <PUBCHEM_SUBSTANCE_SYNONYM>
SCHEMBL16125417

> <PUBCHEM_XREF_EXT_ID>
SCHEMBL16125417

> <PUBCHEM_EXT_DATASOURCE_URL>
https://www.surechembl.org/

> <PUBCHEM_EXT_SUBSTANCE_URL>
https://www.surechembl.org/chemical/SCHEMBL16125417

> <PUBCHEM_CID_ASSOCIATIONS>
117613066  1

> <PUBCHEM_COORDINATE_TYPE>
1
3

> <PUBCHEM_BONDANNOTATIONS>
29  41  6

$$$$
