310935417
  -OEChem-07211613022D

 31 34  0     1  0  0  0  0  0999 V2000
    6.5042    1.9182    0.0000 O   0  0  0  0  0  0  0  0  0  0  0  0
    3.3523    3.5854    0.0000 O   0  0  0  0  0  0  0  0  0  0  0  0
    4.1008    0.1655    0.0000 O   0  0  0  0  0  0  0  0  0  0  0  0
    6.2560    0.5109    0.0000 O   0  0  0  0  0  0  0  0  0  0  0  0
    1.9233    1.1104    0.0000 C   0  0  3  0  0  0  0  0  0  0  0  0
    1.9233    1.9354    0.0000 C   0  0  3  0  0  0  0  0  0  0  0  0
    3.3523    1.9354    0.0000 C   0  0  3  0  0  0  0  0  0  0  0  0
    2.6378    2.3479    0.0000 C   0  0  3  0  0  0  0  0  0  0  0  0
    4.0668    2.3479    0.0000 C   0  0  3  0  0  0  0  0  0  0  0  0
    1.1387    0.8555    0.0000 C   0  0  0  0  0  0  0  0  0  0  0  0
    2.6378    0.6979    0.0000 C   0  0  0  0  0  0  0  0  0  0  0  0
    3.3523    1.1104    0.0000 C   0  0  0  0  0  0  0  0  0  0  0  0
    1.1387    2.1904    0.0000 C   0  0  0  0  0  0  0  0  0  0  0  0
    4.3489    1.5727    0.0000 C   0  0  3  0  0  0  0  0  0  0  0  0
    0.6538    1.5229    0.0000 C   0  0  0  0  0  0  0  0  0  0  0  0
    0.8838    0.0709    0.0000 C   0  0  0  0  0  0  0  0  0  0  0  0
    4.5971    2.9799    0.0000 C   0  0  0  0  0  0  0  0  0  0  0  0
    1.8371    0.2900    0.0000 C   0  0  0  0  0  0  0  0  0  0  0  0
    2.6378    3.1729    0.0000 C   0  0  0  0  0  0  0  0  0  0  0  0
    5.1614    1.4294    0.0000 C   0  0  0  0  0  0  0  0  0  0  0  0
    3.5365    2.9799    0.0000 C   0  0  0  0  0  0  0  0  0  0  0  0
    5.6917    2.0614    0.0000 C   0  0  3  0  0  0  0  0  0  0  0  0
    5.4095    2.8367    0.0000 C   0  0  0  0  0  0  0  0  0  0  0  0
    3.8186    0.9407    0.0000 C   0  0  0  0  0  0  0  0  0  0  0  0
    1.4358   -0.5422    0.0000 C   0  0  0  0  0  0  0  0  0  0  0  0
    0.0768   -0.1006    0.0000 C   0  0  0  0  0  0  0  0  0  0  0  0
    1.1809   -1.3268    0.0000 C   0  0  0  0  0  0  0  0  0  0  0  0
   -0.1781   -0.8853    0.0000 C   0  0  0  0  0  0  0  0  0  0  0  0
    0.3739   -1.4984    0.0000 C   0  0  0  0  0  0  0  0  0  0  0  0
    6.7863    1.1429    0.0000 C   0  0  0  0  0  0  0  0  0  0  0  0
    7.5988    0.9997    0.0000 C   0  0  0  0  0  0  0  0  0  0  0  0
 22  1  1  6  0  0  0
  1 30  1  0  0  0  0
  2 19  1  0  0  0  0
  3 24  1  0  0  0  0
  4 30  2  0  0  0  0
  5  6  1  0  0  0  0
  5 10  1  0  0  0  0
  5 11  1  0  0  0  0
  5 18  1  1  0  0  0
  6  8  1  0  0  0  0
  6 13  1  1  0  0  0
  7  8  1  0  0  0  0
  7  9  1  0  0  0  0
  7 12  1  1  0  0  0
  8 19  1  6  0  0  0
  9 14  1  0  0  0  0
  9 17  1  0  0  0  0
  9 21  1  6  0  0  0
 10 15  2  0  0  0  0
 10 16  1  0  0  0  0
 11 12  1  0  0  0  0
 13 15  1  0  0  0  0
 14 20  1  0  0  0  0
 14 24  1  6  0  0  0
 16 25  2  0  0  0  0
 16 26  1  0  0  0  0
 17 23  1  0  0  0  0
 20 22  1  0  0  0  0
 22 23  1  0  0  0  0
 25 27  1  0  0  0  0
 26 28  2  0  0  0  0
 27 29  2  0  0  0  0
 28 29  1  0  0  0  0
 30 31  1  0  0  0  0
M  END
> <PUBCHEM_COMPOUND_ID_TYPE>
0

> <PUBCHEM_TOTAL_CHARGE>
0

> <PUBCHEM_SUBSTANCE_ID>
310935417

> <PUBCHEM_SUBSTANCE_VERSION>
1

> <PUBCHEM_EXT_DATASOURCE_NAME>
4488

> <PUBCHEM_EXT_DATASOURCE_REGID>
SCHEMBL16112958

> <PUBCHEM_SUBSTANCE_COMMENT>
InChI=1S/C27H38O4/c1-18(30)31-21-11-13-26(2,20(15-21)16-28)25-12-14-27(3)23(19-7-5-4-6-8-19)9-10-24(27)22(25)17-29/h4-9,20-22,24-25,28-29H,10-17H2,1-3H3/t20-,21+,22+,24+,25+,26+,27-/m1/s1
InChIKey=FAHWCRGYXVNIJO-MFHFRHMRSA-N

> <PUBCHEM_SUBSTANCE_SYNONYM>
SCHEMBL16112958

> <PUBCHEM_XREF_EXT_ID>
SCHEMBL16112958

> <PUBCHEM_EXT_DATASOURCE_URL>
https://www.surechembl.org/

> <PUBCHEM_EXT_SUBSTANCE_URL>
https://www.surechembl.org/chemical/SCHEMBL16112958

> <PUBCHEM_CID_ASSOCIATIONS>
117603461  1

> <PUBCHEM_COORDINATE_TYPE>
1
3

> <PUBCHEM_BONDANNOTATIONS>
22  1  6
14  24  6
5  18  5
6  13  5
7  12  5
8  19  6
9  21  6

$$$$
