310936135
  -OEChem-07211613022D

 20 22  0     0  0  0  0  0  0999 V2000
    2.0369   -1.5695    0.0000 S   0  0  0  0  0  0  0  0  0  0  0  0
    0.6678   -2.6046    0.0000 N   0  0  0  0  0  0  0  0  0  0  0  0
    2.0369   -0.2003    0.0000 N   0  0  0  0  0  0  0  0  0  0  0  0
    3.3392   -0.8682    0.0000 N   0  0  0  0  0  0  0  0  0  0  0  0
    1.2689   -1.3023    0.0000 C   0  0  0  0  0  0  0  0  0  0  0  0
    1.2689   -0.4675    0.0000 C   0  0  0  0  0  0  0  0  0  0  0  0
    0.6011   -1.7698    0.0000 C   0  0  0  0  0  0  0  0  0  0  0  0
    2.5044   -0.8682    0.0000 C   0  0  0  0  0  0  0  0  0  0  0  0
    0.8348   -4.2074    0.0000 C   0  0  0  0  0  0  0  0  0  0  0  0
    0.9016   -5.0422    0.0000 C   0  0  0  0  0  0  0  0  0  0  0  0
    1.4359   -2.9385    0.0000 C   0  0  0  0  0  0  0  0  0  0  0  0
    0.0000   -3.0721    0.0000 C   0  0  0  0  0  0  0  0  0  0  0  0
    1.5026   -3.7399    0.0000 C   0  0  0  0  0  0  0  0  0  0  0  0
    0.0668   -3.8735    0.0000 C   0  0  0  0  0  0  0  0  0  0  0  0
    0.6011    0.0000    0.0000 C   0  0  0  0  0  0  0  0  0  0  0  0
    1.6696   -5.3762    0.0000 C   0  0  0  0  0  0  0  0  0  0  0  0
    0.2338   -5.5097    0.0000 C   0  0  0  0  0  0  0  0  0  0  0  0
    1.7364   -6.2110    0.0000 C   0  0  0  0  0  0  0  0  0  0  0  0
    0.3005   -6.3446    0.0000 C   0  0  0  0  0  0  0  0  0  0  0  0
    1.0685   -6.6785    0.0000 C   0  0  0  0  0  0  0  0  0  0  0  0
  1  5  1  0  0  0  0
  1  8  1  0  0  0  0
  2  7  1  0  0  0  0
  2 11  1  0  0  0  0
  2 12  1  0  0  0  0
  3  6  1  0  0  0  0
  3  8  2  0  0  0  0
  4  8  1  0  0  0  0
  5  6  2  0  0  0  0
  5  7  1  0  0  0  0
  6 15  1  0  0  0  0
  9 10  1  0  0  0  0
  9 13  1  0  0  0  0
  9 14  1  0  0  0  0
 10 16  2  0  0  0  0
 10 17  1  0  0  0  0
 11 13  1  0  0  0  0
 12 14  1  0  0  0  0
 16 18  1  0  0  0  0
 17 19  2  0  0  0  0
 18 20  2  0  0  0  0
 19 20  1  0  0  0  0
M  END
> <PUBCHEM_COMPOUND_ID_TYPE>
0

> <PUBCHEM_TOTAL_CHARGE>
0

> <PUBCHEM_SUBSTANCE_ID>
310936135

> <PUBCHEM_SUBSTANCE_VERSION>
1

> <PUBCHEM_EXT_DATASOURCE_NAME>
4488

> <PUBCHEM_EXT_DATASOURCE_REGID>
SCHEMBL16113745

> <PUBCHEM_SUBSTANCE_COMMENT>
InChI=1S/C16H21N3S/c1-12-15(20-16(17)18-12)11-19-9-7-14(8-10-19)13-5-3-2-4-6-13/h2-6,14H,7-11H2,1H3,(H2,17,18)
InChIKey=CGVSQINBTXUFNJ-UHFFFAOYSA-N

> <PUBCHEM_SUBSTANCE_SYNONYM>
SCHEMBL16113745

> <PUBCHEM_XREF_EXT_ID>
SCHEMBL16113745

> <PUBCHEM_EXT_DATASOURCE_URL>
https://www.surechembl.org/

> <PUBCHEM_EXT_SUBSTANCE_URL>
https://www.surechembl.org/chemical/SCHEMBL16113745

> <PUBCHEM_CID_ASSOCIATIONS>
117604099  1

> <PUBCHEM_COORDINATE_TYPE>
1
3

$$$$
