310933806
  -OEChem-07211613022D

 13 13  0     0  0  0  0  0  0999 V2000
   -1.4290    0.0000    0.0000 O   0  0  0  0  0  0  0  0  0  0  0  0
   -2.8579    1.6500    0.0000 O   0  0  0  0  0  0  0  0  0  0  0  0
   -2.1435    1.2375    0.0000 O   0  0  0  0  0  0  0  0  0  0  0  0
   -4.2869    1.6500    0.0000 N   0  0  0  0  0  0  0  0  0  0  0  0
   -3.5724    0.4125    0.0000 C   0  0  0  0  0  0  0  0  0  0  0  0
   -3.5724    1.2375    0.0000 C   0  0  0  0  0  0  0  0  0  0  0  0
   -2.8579    0.0000    0.0000 C   0  0  0  0  0  0  0  0  0  0  0  0
   -2.1435    0.4125    0.0000 C   0  0  0  0  0  0  0  0  0  0  0  0
   -4.2869    0.0000    0.0000 C   0  0  0  0  0  0  0  0  0  0  0  0
   -5.0014    0.4125    0.0000 C   0  0  0  0  0  0  0  0  0  0  0  0
   -5.0014    1.2375    0.0000 C   0  0  0  0  0  0  0  0  0  0  0  0
   -0.7145    0.4125    0.0000 C   0  0  0  0  0  0  0  0  0  0  0  0
    0.0000    0.0000    0.0000 C   0  0  0  0  0  0  0  0  0  0  0  0
  1  8  1  0  0  0  0
  1 12  1  0  0  0  0
  2  6  2  0  0  0  0
  3  8  2  0  0  0  0
  4  6  1  0  0  0  0
  4 11  1  0  0  0  0
  5  6  1  0  0  0  0
  5  7  1  0  0  0  0
  5  9  2  0  0  0  0
  7  8  1  0  0  0  0
  9 10  1  0  0  0  0
 10 11  2  0  0  0  0
 12 13  1  0  0  0  0
M  END
> <PUBCHEM_COMPOUND_ID_TYPE>
0

> <PUBCHEM_TOTAL_CHARGE>
0

> <PUBCHEM_SUBSTANCE_ID>
310933806

> <PUBCHEM_SUBSTANCE_VERSION>
1

> <PUBCHEM_EXT_DATASOURCE_NAME>
4488

> <PUBCHEM_EXT_DATASOURCE_REGID>
SCHEMBL16111244

> <PUBCHEM_SUBSTANCE_COMMENT>
InChI=1S/C9H11NO3/c1-2-13-8(11)6-7-4-3-5-10-9(7)12/h3-5H,2,6H2,1H3,(H,10,12)
InChIKey=GDICFGBYIAZZGX-UHFFFAOYSA-N

> <PUBCHEM_SUBSTANCE_SYNONYM>
SCHEMBL16111244

> <PUBCHEM_XREF_EXT_ID>
SCHEMBL16111244

> <PUBCHEM_EXT_DATASOURCE_URL>
https://www.surechembl.org/

> <PUBCHEM_EXT_SUBSTANCE_URL>
https://www.surechembl.org/chemical/SCHEMBL16111244

> <PUBCHEM_CID_ASSOCIATIONS>
117602154  1

> <PUBCHEM_COORDINATE_TYPE>
1
3

$$$$
