310948868
  -OEChem-07211613022D

 50 52  0     1  0  0  0  0  0999 V2000
    4.5498    1.2302    0.0000 P   0  0  3  0  0  0  0  0  0  0  0  0
    7.4799   -1.0818    0.0000 F   0  0  0  0  0  0  0  0  0  0  0  0
    7.4676    1.0695    0.0000 O   0  0  0  0  0  0  0  0  0  0  0  0
    5.9716   -0.4142    0.0000 O   0  0  0  0  0  0  0  0  0  0  0  0
    5.2545    0.8221    0.0000 O   0  0  0  0  0  0  0  0  0  0  0  0
    8.7781    1.8360    0.0000 O   0  0  0  0  0  0  0  0  0  0  0  0
    4.5374    0.4142    0.0000 O   0  0  0  0  0  0  0  0  0  0  0  0
    4.5374    2.0585    0.0000 O   0  0  0  0  0  0  0  0  0  0  0  0
   11.2508    0.4142    0.0000 O   0  0  0  0  0  0  0  0  0  0  0  0
    0.9767   -0.0062    0.0000 O   0  0  0  0  0  0  0  0  0  0  0  0
    8.8029    0.4142    0.0000 N   0  0  0  0  0  0  0  0  0  0  0  0
   10.1628    1.1189    0.0000 N   0  0  0  0  0  0  0  0  0  0  0  0
    3.8451    0.8221    0.0000 N   0  0  0  0  0  0  0  0  0  0  0  0
    1.6938    1.2302    0.0000 N   0  0  0  0  0  0  0  0  0  0  0  0
    7.4799   -0.2535    0.0000 C   0  0  3  0  0  0  0  0  0  0  0  0
    7.9621    0.4142    0.0000 C   0  0  3  0  0  0  0  0  0  0  0  0
    6.7010    0.0062    0.0000 C   0  0  3  0  0  0  0  0  0  0  0  0
    6.7134    0.8345    0.0000 C   0  0  3  0  0  0  0  0  0  0  0  0
    9.2108    1.1189    0.0000 C   0  0  0  0  0  0  0  0  0  0  0  0
    8.1971   -0.6738    0.0000 C   0  0  0  0  0  0  0  0  0  0  0  0
    5.9716    1.2302    0.0000 C   0  0  0  0  0  0  0  0  0  0  0  0
    9.1985   -0.3029    0.0000 C   0  0  0  0  0  0  0  0  0  0  0  0
   10.4225    0.4266    0.0000 C   0  0  0  0  0  0  0  0  0  0  0  0
   10.0269   -0.3029    0.0000 C   0  0  0  0  0  0  0  0  0  0  0  0
    4.5498   -0.4142    0.0000 C   0  0  0  0  0  0  0  0  0  0  0  0
    3.1156    1.2302    0.0000 C   0  0  0  0  0  0  0  0  0  0  0  0
    3.8574   -0.8221    0.0000 C   0  0  0  0  0  0  0  0  0  0  0  0
    5.2669   -0.8221    0.0000 C   0  0  0  0  0  0  0  0  0  0  0  0
    2.4233    0.8221    0.0000 C   0  0  0  0  0  0  0  0  0  0  0  0
    3.8574   -1.6506    0.0000 C   0  0  0  0  0  0  0  0  0  0  0  0
    5.2669   -1.6506    0.0000 C   0  0  0  0  0  0  0  0  0  0  0  0
    4.5621   -2.0585    0.0000 C   0  0  0  0  0  0  0  0  0  0  0  0
    0.9890    0.8469    0.0000 C   0  0  0  0  0  0  0  0  0  0  0  0
    0.2597    1.2302    0.0000 C   0  0  0  0  0  0  0  0  0  0  0  0
   -0.4327    0.8221    0.0000 C   0  0  0  0  0  0  0  0  0  0  0  0
   -1.1622    1.2302    0.0000 C   0  0  0  0  0  0  0  0  0  0  0  0
   -1.8545    0.8221    0.0000 C   0  0  0  0  0  0  0  0  0  0  0  0
   -2.5964    1.2302    0.0000 C   0  0  0  0  0  0  0  0  0  0  0  0
   -3.2887    0.8221    0.0000 C   0  0  0  0  0  0  0  0  0  0  0  0
   -4.0182    1.2302    0.0000 C   0  0  0  0  0  0  0  0  0  0  0  0
   -4.7228    0.8221    0.0000 C   0  0  0  0  0  0  0  0  0  0  0  0
   -5.5513    0.8221    0.0000 C   0  0  0  0  0  0  0  0  0  0  0  0
   -6.2683    1.2302    0.0000 C   0  0  0  0  0  0  0  0  0  0  0  0
   -6.9607    0.8221    0.0000 C   0  0  0  0  0  0  0  0  0  0  0  0
   -7.7025    1.2302    0.0000 C   0  0  0  0  0  0  0  0  0  0  0  0
   -8.3949    0.8221    0.0000 C   0  0  0  0  0  0  0  0  0  0  0  0
   -9.1243    1.2302    0.0000 C   0  0  0  0  0  0  0  0  0  0  0  0
   -9.8166    0.8221    0.0000 C   0  0  0  0  0  0  0  0  0  0  0  0
  -10.5585    1.2302    0.0000 C   0  0  0  0  0  0  0  0  0  0  0  0
  -11.2508    0.8345    0.0000 C   0  0  0  0  0  0  0  0  0  0  0  0
  1  5  1  0  0  0  0
  1  7  1  0  0  0  0
  1  8  2  0  0  0  0
  1 13  1  0  0  0  0
 15  2  1  6  0  0  0
 16  3  1  1  0  0  0
  3 18  1  0  0  0  0
 17  4  1  6  0  0  0
  5 21  1  0  0  0  0
  6 19  2  0  0  0  0
  7 25  1  0  0  0  0
  9 23  2  0  0  0  0
 10 33  2  0  0  0  0
 11 16  1  0  0  0  0
 11 19  1  0  0  0  0
 11 22  1  0  0  0  0
 12 19  1  0  0  0  0
 12 23  1  0  0  0  0
 13 26  1  0  0  0  0
 14 29  1  0  0  0  0
 14 33  1  0  0  0  0
 15 16  1  0  0  0  0
 15 17  1  0  0  0  0
 15 20  1  1  0  0  0
 17 18  1  0  0  0  0
 18 21  1  1  0  0  0
 22 24  2  0  0  0  0
 23 24  1  0  0  0  0
 25 27  2  0  0  0  0
 25 28  1  0  0  0  0
 26 29  1  0  0  0  0
 27 30  1  0  0  0  0
 28 31  2  0  0  0  0
 30 32  2  0  0  0  0
 31 32  1  0  0  0  0
 33 34  1  0  0  0  0
 34 35  1  0  0  0  0
 35 36  1  0  0  0  0
 36 37  1  0  0  0  0
 37 38  1  0  0  0  0
 38 39  1  0  0  0  0
 39 40  1  0  0  0  0
 40 41  1  0  0  0  0
 41 42  2  0  0  0  0
 42 43  1  0  0  0  0
 43 44  1  0  0  0  0
 44 45  1  0  0  0  0
 45 46  1  0  0  0  0
 46 47  1  0  0  0  0
 47 48  1  0  0  0  0
 48 49  1  0  0  0  0
 49 50  1  0  0  0  0
M  END
> <PUBCHEM_COMPOUND_ID_TYPE>
0

> <PUBCHEM_TOTAL_CHARGE>
0

> <PUBCHEM_SUBSTANCE_ID>
310948868

> <PUBCHEM_SUBSTANCE_VERSION>
1

> <PUBCHEM_EXT_DATASOURCE_NAME>
4488

> <PUBCHEM_EXT_DATASOURCE_REGID>
SCHEMBL16127053

> <PUBCHEM_SUBSTANCE_COMMENT>
InChI=1S/C36H56FN4O8P/c1-3-4-5-6-7-8-9-10-11-12-13-14-15-16-20-23-31(42)38-25-26-39-50(46,49-29-21-18-17-19-22-29)47-28-30-33(44)36(2,37)34(48-30)41-27-24-32(43)40-35(41)45/h10-11,17-19,21-22,24,27,30,33-34,44H,3-9,12-16,20,23,25-26,28H2,1-2H3,(H,38,42)(H,39,46)(H,40,43,45)/b11-10-/t30-,33-,34-,36-,50?/m1/s1
InChIKey=GBMQAMHLNXEFEM-URWCVUQRSA-N

> <PUBCHEM_SUBSTANCE_SYNONYM>
SCHEMBL16127053

> <PUBCHEM_XREF_EXT_ID>
SCHEMBL16127053

> <PUBCHEM_EXT_DATASOURCE_URL>
https://www.surechembl.org/

> <PUBCHEM_EXT_SUBSTANCE_URL>
https://www.surechembl.org/chemical/SCHEMBL16127053

> <PUBCHEM_CID_ASSOCIATIONS>
81689724  1

> <PUBCHEM_COORDINATE_TYPE>
1
3

> <PUBCHEM_BONDANNOTATIONS>
15  20  5
18  21  5
15  2  6
16  3  5
17  4  6

$$$$
