310948173
  -OEChem-07211613022D

 25 26  0     0  0  0  0  0  0999 V2000
   -1.0560   -2.5806    0.0000 F   0  0  0  0  0  0  0  0  0  0  0  0
   -1.8592   -3.3987    0.0000 F   0  0  0  0  0  0  0  0  0  0  0  0
   -2.6624   -2.5806    0.0000 F   0  0  0  0  0  0  0  0  0  0  0  0
   -3.3317   -0.1115    0.0000 O   0  0  0  0  0  0  0  0  0  0  0  0
    2.8111    2.5508    0.0000 O   0  0  0  0  0  0  0  0  0  0  0  0
    1.5171    3.1458    0.0000 O   0  0  0  0  0  0  0  0  0  0  0  0
    0.4908    0.8701    0.0000 N   0  0  0  0  0  0  0  0  0  0  0  0
   -0.3272    0.7065    0.0000 N   0  0  0  0  0  0  0  0  0  0  0  0
    0.3421   -0.4685    0.0000 N   0  0  0  0  0  0  0  0  0  0  0  0
   -1.1453   -0.4982    0.0000 C   0  0  0  0  0  0  0  0  0  0  0  0
   -1.8741   -1.7328    0.0000 C   0  0  0  0  0  0  0  0  0  0  0  0
   -0.4314   -0.0967    0.0000 C   0  0  0  0  0  0  0  0  0  0  0  0
   -1.1602   -1.3163    0.0000 C   0  0  0  0  0  0  0  0  0  0  0  0
   -1.8741   -2.5806    0.0000 C   0  0  0  0  0  0  0  0  0  0  0  0
   -2.6029   -0.5131    0.0000 C   0  0  0  0  0  0  0  0  0  0  0  0
   -1.8741   -0.1115    0.0000 C   0  0  0  0  0  0  0  0  0  0  0  0
   -2.5880   -1.3312    0.0000 C   0  0  0  0  0  0  0  0  0  0  0  0
    0.9073    0.1859    0.0000 C   0  0  0  0  0  0  0  0  0  0  0  0
    0.8181    1.6435    0.0000 C   0  0  0  0  0  0  0  0  0  0  0  0
    1.6212    1.7477    0.0000 C   0  0  0  0  0  0  0  0  0  0  0  0
    1.9782    2.4914    0.0000 C   0  0  0  0  0  0  0  0  0  0  0  0
    2.1270    1.0486    0.0000 C   0  0  0  0  0  0  0  0  0  0  0  0
   -4.0011   -0.5578    0.0000 C   0  0  0  0  0  0  0  0  0  0  0  0
    3.1532    3.3243    0.0000 C   0  0  0  0  0  0  0  0  0  0  0  0
    4.0011    3.3987    0.0000 C   0  0  0  0  0  0  0  0  0  0  0  0
  1 14  1  0  0  0  0
  2 14  1  0  0  0  0
  3 14  1  0  0  0  0
  4 15  1  0  0  0  0
  4 23  1  0  0  0  0
  5 21  1  0  0  0  0
  5 24  1  0  0  0  0
  6 21  2  0  0  0  0
  7  8  1  0  0  0  0
  7 18  1  0  0  0  0
  7 19  1  0  0  0  0
  8 12  2  0  0  0  0
  9 12  1  0  0  0  0
  9 18  2  0  0  0  0
 10 12  1  0  0  0  0
 10 13  2  0  0  0  0
 10 16  1  0  0  0  0
 11 13  1  0  0  0  0
 11 14  1  0  0  0  0
 11 17  2  0  0  0  0
 15 16  2  0  0  0  0
 15 17  1  0  0  0  0
 19 20  1  0  0  0  0
 20 21  1  0  0  0  0
 20 22  2  0  0  0  0
 24 25  1  0  0  0  0
M  END
> <PUBCHEM_COMPOUND_ID_TYPE>
0

> <PUBCHEM_TOTAL_CHARGE>
0

> <PUBCHEM_SUBSTANCE_ID>
310948173

> <PUBCHEM_SUBSTANCE_VERSION>
1

> <PUBCHEM_EXT_DATASOURCE_NAME>
4488

> <PUBCHEM_EXT_DATASOURCE_REGID>
SCHEMBL16126350

> <PUBCHEM_SUBSTANCE_COMMENT>
InChI=1S/C16H16F3N3O3/c1-4-25-15(23)10(2)8-22-9-20-14(21-22)11-5-12(16(17,18)19)7-13(6-11)24-3/h5-7,9H,2,4,8H2,1,3H3
InChIKey=NRPPGDFFXCTIKK-UHFFFAOYSA-N

> <PUBCHEM_SUBSTANCE_SYNONYM>
SCHEMBL16126350

> <PUBCHEM_XREF_EXT_ID>
SCHEMBL16126350

> <PUBCHEM_EXT_DATASOURCE_URL>
https://www.surechembl.org/

> <PUBCHEM_EXT_SUBSTANCE_URL>
https://www.surechembl.org/chemical/SCHEMBL16126350

> <PUBCHEM_CID_ASSOCIATIONS>
86294535  1

> <PUBCHEM_COORDINATE_TYPE>
1
3

$$$$
