310943005
  -OEChem-07211613022D

 28 30  0     0  0  0  0  0  0999 V2000
   -3.2700   -2.1946    0.0000 S   0  0  0  0  0  0  0  0  0  0  0  0
   -3.8624   -1.1850    0.0000 S   0  0  0  0  0  0  0  0  0  0  0  0
   -0.9437    1.4265    0.0000 F   0  0  0  0  0  0  0  0  0  0  0  0
    1.8215    2.1946    0.0000 O   0  0  0  0  0  0  0  0  0  0  0  0
    3.2700    2.1946    0.0000 O   0  0  0  0  0  0  0  0  0  0  0  0
    3.8624    1.1631    0.0000 O   0  0  0  0  0  0  0  0  0  0  0  0
    1.8435   -0.1975    0.0000 N   0  0  0  0  0  0  0  0  0  0  0  0
    0.3731   -0.1975    0.0000 N   0  0  0  0  0  0  0  0  0  0  0  0
   -1.0753   -0.2195    0.0000 N   0  0  0  0  0  0  0  0  0  0  0  0
   -2.5457   -1.0753    0.0000 N   0  0  0  0  0  0  0  0  0  0  0  0
    1.0972    0.2633    0.0000 C   0  0  0  0  0  0  0  0  0  0  0  0
    1.0972    1.1192    0.0000 C   0  0  0  0  0  0  0  0  0  0  0  0
    1.8215    1.5143    0.0000 C   0  0  0  0  0  0  0  0  0  0  0  0
   -0.3731    0.2633    0.0000 C   0  0  0  0  0  0  0  0  0  0  0  0
    2.5677    1.1192    0.0000 C   0  0  0  0  0  0  0  0  0  0  0  0
    1.8435   -1.0534    0.0000 C   0  0  0  0  0  0  0  0  0  0  0  0
    2.5457    0.2414    0.0000 C   0  0  0  0  0  0  0  0  0  0  0  0
   -0.3512    1.1192    0.0000 C   0  0  0  0  0  0  0  0  0  0  0  0
    0.3512    1.5143    0.0000 C   0  0  0  0  0  0  0  0  0  0  0  0
    3.2700    1.5143    0.0000 C   0  0  0  0  0  0  0  0  0  0  0  0
   -1.0972   -1.0314    0.0000 C   0  0  0  0  0  0  0  0  0  0  0  0
   -1.8435    0.2414    0.0000 C   0  0  0  0  0  0  0  0  0  0  0  0
    1.2290   -1.3825    0.0000 C   0  0  0  0  0  0  0  0  0  0  0  0
    2.4140   -1.4045    0.0000 C   0  0  0  0  0  0  0  0  0  0  0  0
    1.8435   -1.7557    0.0000 C   0  0  0  0  0  0  0  0  0  0  0  0
   -1.8215   -1.4704    0.0000 C   0  0  0  0  0  0  0  0  0  0  0  0
   -2.5237   -0.1756    0.0000 C   0  0  0  0  0  0  0  0  0  0  0  0
   -3.2480   -1.4484    0.0000 C   0  0  0  0  0  0  0  0  0  0  0  0
  1 28  2  0  0  0  0
  2 28  1  0  0  0  0
  3 18  1  0  0  0  0
  4 13  2  0  0  0  0
  5 20  2  0  0  0  0
  6 20  1  0  0  0  0
  7 11  1  0  0  0  0
  7 16  1  0  0  0  0
  7 17  1  0  0  0  0
  8 11  2  0  0  0  0
  8 14  1  0  0  0  0
  9 14  1  0  0  0  0
  9 21  1  0  0  0  0
  9 22  1  0  0  0  0
 10 26  1  0  0  0  0
 10 27  1  0  0  0  0
 10 28  1  0  0  0  0
 11 12  1  0  0  0  0
 12 13  1  0  0  0  0
 12 19  2  0  0  0  0
 13 15  1  0  0  0  0
 14 18  2  0  0  0  0
 15 17  2  0  0  0  0
 15 20  1  0  0  0  0
 16 23  1  0  0  0  0
 16 24  1  0  0  0  0
 16 25  1  0  0  0  0
 18 19  1  0  0  0  0
 21 26  1  0  0  0  0
 22 27  1  0  0  0  0
M  END
> <PUBCHEM_COMPOUND_ID_TYPE>
0

> <PUBCHEM_TOTAL_CHARGE>
0

> <PUBCHEM_SUBSTANCE_ID>
310943005

> <PUBCHEM_SUBSTANCE_VERSION>
1

> <PUBCHEM_EXT_DATASOURCE_NAME>
4488

> <PUBCHEM_EXT_DATASOURCE_REGID>
SCHEMBL16121064

> <PUBCHEM_SUBSTANCE_COMMENT>
InChI=1S/C18H21FN4O3S2/c1-18(2,3)23-9-11(16(25)26)13(24)10-8-12(19)15(20-14(10)23)21-4-6-22(7-5-21)17(27)28/h8-9H,4-7H2,1-3H3,(H,25,26)(H,27,28)
InChIKey=QDIPWJBZPDBYPU-UHFFFAOYSA-N

> <PUBCHEM_SUBSTANCE_SYNONYM>
SCHEMBL16121064

> <PUBCHEM_XREF_EXT_ID>
SCHEMBL16121064

> <PUBCHEM_EXT_DATASOURCE_URL>
https://www.surechembl.org/

> <PUBCHEM_EXT_SUBSTANCE_URL>
https://www.surechembl.org/chemical/SCHEMBL16121064

> <PUBCHEM_CID_ASSOCIATIONS>
117609454  1

> <PUBCHEM_COORDINATE_TYPE>
1
3

$$$$
