310929987
  -OEChem-07211613022D

 77 85  0     1  0  0  0  0  0999 V2000
    4.3861   -8.5600    0.0000 O   0  0  0  0  0  0  0  0  0  0  0  0
    3.4664   -4.8813    0.0000 O   0  0  0  0  0  0  0  0  0  0  0  0
    1.5563  -10.8945    0.0000 O   0  0  0  0  0  0  0  0  0  0  0  0
    2.8297   -1.3441    0.0000 O   0  0  0  0  0  0  0  0  0  0  0  0
    2.7590   -8.3477    0.0000 O   0  0  0  0  0  0  0  0  0  0  0  0
    4.3861   -3.6079    0.0000 O   0  0  0  0  0  0  0  0  0  0  0  0
    9.2674   -4.6691    0.0000 O   0  0  0  0  0  0  0  0  0  0  0  0
   20.8693   -4.5276    0.0000 O   0  0  0  0  0  0  0  0  0  0  0  0
   19.4544   -2.0516    0.0000 O   0  0  0  0  0  0  0  0  0  0  0  0
   11.3897   -5.0935    0.0000 O   0  0  0  0  0  0  0  0  0  0  0  0
   12.8046   -3.3957    0.0000 O   0  0  0  0  0  0  0  0  0  0  0  0
   15.6343   -2.6175    0.0000 O   0  0  0  0  0  0  0  0  0  0  0  0
    2.4760  -11.9556    0.0000 N   0  0  0  0  0  0  0  0  0  0  0  0
    1.4149   -1.6271    0.0000 N   0  0  0  0  0  0  0  0  0  0  0  0
    4.2446  -11.3189    0.0000 N   0  0  0  0  0  0  0  0  0  0  0  0
    1.1319   -3.3957    0.0000 N   0  0  0  0  0  0  0  0  0  0  0  0
    7.0036   -7.2866    0.0000 N   0  0  0  0  0  0  0  0  0  0  0  0
    7.8525   -6.2962    0.0000 N   0  0  0  0  0  0  0  0  0  0  0  0
    7.7818   -7.1451    0.0000 N   0  0  0  0  0  0  0  0  0  0  0  0
   19.9496   -3.3957    0.0000 N   0  0  0  0  0  0  0  0  0  0  0  0
   14.9268   -3.8201    0.0000 N   0  0  0  0  0  0  0  0  0  0  0  0
    2.9712  -10.5408    0.0000 C   0  0  0  0  0  0  0  0  0  0  0  0
    2.4053   -2.6883    0.0000 C   0  0  0  0  0  0  0  0  0  0  0  0
    2.3345  -11.1775    0.0000 C   0  0  0  0  0  0  0  0  0  0  0  0
    2.1930   -1.9101    0.0000 C   0  0  0  0  0  0  0  0  0  0  0  0
    3.8201  -10.6115    0.0000 C   0  0  0  0  0  0  0  0  0  0  0  0
    1.9101   -3.3957    0.0000 C   0  0  0  0  0  0  0  0  0  0  0  0
    3.2542  -12.3801    0.0000 C   0  0  3  0  0  0  0  0  0  0  0  0
    0.7075   -2.0516    0.0000 C   0  0  3  0  0  0  0  0  0  0  0  0
    3.8909   -9.2674    0.0000 C   0  0  0  0  0  0  0  0  0  0  0  0
    3.1127   -4.1738    0.0000 C   0  0  0  0  0  0  0  0  0  0  0  0
    3.1127   -9.1259    0.0000 C   0  0  0  0  0  0  0  0  0  0  0  0
    3.6079   -3.5372    0.0000 C   0  0  0  0  0  0  0  0  0  0  0  0
    2.6175   -9.8333    0.0000 C   0  0  0  0  0  0  0  0  0  0  0  0
    3.2542   -2.7590    0.0000 C   0  0  0  0  0  0  0  0  0  0  0  0
    4.2446   -9.9041    0.0000 C   0  0  0  0  0  0  0  0  0  0  0  0
    2.3345   -4.1031    0.0000 C   0  0  0  0  0  0  0  0  0  0  0  0
    1.9101  -12.5216    0.0000 C   0  0  0  0  0  0  0  0  0  0  0  0
    1.2734   -0.7782    0.0000 C   0  0  0  0  0  0  0  0  0  0  0  0
    3.9616  -12.0971    0.0000 C   0  0  0  0  0  0  0  0  0  0  0  0
    0.5659   -2.8297    0.0000 C   0  0  0  0  0  0  0  0  0  0  0  0
    3.0420  -13.1583    0.0000 C   0  0  0  0  0  0  0  0  0  0  0  0
    0.1415   -1.4856    0.0000 C   0  0  0  0  0  0  0  0  0  0  0  0
    2.2638  -13.2290    0.0000 C   0  0  0  0  0  0  0  0  0  0  0  0
    0.4245   -0.7075    0.0000 C   0  0  0  0  0  0  0  0  0  0  0  0
    4.4568   -7.1451    0.0000 C   0  0  0  0  0  0  0  0  0  0  0  0
    4.5983   -5.7302    0.0000 C   0  0  0  0  0  0  0  0  0  0  0  0
    5.8009   -6.5084    0.0000 C   0  0  0  0  0  0  0  0  0  0  0  0
    4.0324   -7.8525    0.0000 C   0  0  0  0  0  0  0  0  0  0  0  0
    4.2446   -4.9521    0.0000 C   0  0  0  0  0  0  0  0  0  0  0  0
    4.1031   -6.4376    0.0000 C   0  0  0  0  0  0  0  0  0  0  0  0
    5.3058   -7.2158    0.0000 C   0  0  0  0  0  0  0  0  0  0  0  0
    5.4472   -5.8009    0.0000 C   0  0  0  0  0  0  0  0  0  0  0  0
    6.5791   -6.5791    0.0000 C   0  0  0  0  0  0  0  0  0  0  0  0
    1.8393  -14.0072    0.0000 C   0  0  0  0  0  0  0  0  0  0  0  0
    0.0000    0.0000    0.0000 C   0  0  0  0  0  0  0  0  0  0  0  0
    7.1451   -6.0132    0.0000 C   0  0  0  0  0  0  0  0  0  0  0  0
    1.9101   -8.2770    0.0000 C   0  0  0  0  0  0  0  0  0  0  0  0
    4.8813   -2.9712    0.0000 C   0  0  0  0  0  0  0  0  0  0  0  0
    8.5600   -5.8717    0.0000 C   0  0  0  0  0  0  0  0  0  0  0  0
    8.5600   -5.0935    0.0000 C   0  0  0  0  0  0  0  0  0  0  0  0
   20.0204   -2.6175    0.0000 C   0  0  0  0  0  0  0  0  0  0  0  0
   20.6571   -3.7494    0.0000 C   0  0  0  0  0  0  0  0  0  0  0  0
   20.7985   -2.4053    0.0000 C   0  0  0  0  0  0  0  0  0  0  0  0
   21.2230   -3.1127    0.0000 C   0  0  0  0  0  0  0  0  0  0  0  0
   19.2422   -3.8201    0.0000 C   0  0  0  0  0  0  0  0  0  0  0  0
    9.9748   -5.0935    0.0000 C   0  0  0  0  0  0  0  0  0  0  0  0
   18.4640   -3.3957    0.0000 C   0  0  0  0  0  0  0  0  0  0  0  0
   10.6822   -4.6691    0.0000 C   0  0  0  0  0  0  0  0  0  0  0  0
   17.7566   -3.8201    0.0000 C   0  0  0  0  0  0  0  0  0  0  0  0
   17.0492   -3.3957    0.0000 C   0  0  0  0  0  0  0  0  0  0  0  0
   16.3417   -3.8201    0.0000 C   0  0  0  0  0  0  0  0  0  0  0  0
   12.0971   -4.6691    0.0000 C   0  0  0  0  0  0  0  0  0  0  0  0
   15.6343   -3.3957    0.0000 C   0  0  0  0  0  0  0  0  0  0  0  0
   12.0971   -3.8201    0.0000 C   0  0  0  0  0  0  0  0  0  0  0  0
   14.2194   -3.3957    0.0000 C   0  0  0  0  0  0  0  0  0  0  0  0
   13.5120   -3.8201    0.0000 C   0  0  0  0  0  0  0  0  0  0  0  0
  1 30  1  0  0  0  0
  1 49  1  0  0  0  0
  2 31  1  0  0  0  0
  2 50  1  0  0  0  0
  3 24  2  0  0  0  0
  4 25  2  0  0  0  0
  5 32  1  0  0  0  0
  5 58  1  0  0  0  0
  6 33  1  0  0  0  0
  6 59  1  0  0  0  0
  7 61  1  0  0  0  0
  7 67  1  0  0  0  0
  8 63  2  0  0  0  0
  9 62  2  0  0  0  0
 10 69  1  0  0  0  0
 10 73  1  0  0  0  0
 11 75  1  0  0  0  0
 11 77  1  0  0  0  0
 12 74  2  0  0  0  0
 13 24  1  0  0  0  0
 28 13  1  6  0  0  0
 13 38  1  0  0  0  0
 14 25  1  0  0  0  0
 29 14  1  6  0  0  0
 14 39  1  0  0  0  0
 15 26  1  0  0  0  0
 15 40  2  0  0  0  0
 16 27  1  0  0  0  0
 16 41  2  0  0  0  0
 17 19  2  0  0  0  0
 17 54  1  0  0  0  0
 18 19  1  0  0  0  0
 18 57  1  0  0  0  0
 18 60  1  0  0  0  0
 20 62  1  0  0  0  0
 20 63  1  0  0  0  0
 20 66  1  0  0  0  0
 21 74  1  0  0  0  0
 21 76  1  0  0  0  0
 22 24  1  0  0  0  0
 22 26  2  0  0  0  0
 22 34  1  0  0  0  0
 23 25  1  0  0  0  0
 23 27  2  0  0  0  0
 23 35  1  0  0  0  0
 26 36  1  0  0  0  0
 27 37  1  0  0  0  0
 28 40  1  0  0  0  0
 28 42  1  0  0  0  0
 29 41  1  0  0  0  0
 29 43  1  0  0  0  0
 30 32  1  0  0  0  0
 30 36  2  0  0  0  0
 31 33  1  0  0  0  0
 31 37  2  0  0  0  0
 32 34  2  0  0  0  0
 33 35  2  0  0  0  0
 38 44  1  0  0  0  0
 39 45  1  0  0  0  0
 42 44  1  0  0  0  0
 43 45  1  0  0  0  0
 44 55  2  0  0  0  0
 45 56  2  0  0  0  0
 46 49  1  0  0  0  0
 46 51  2  0  0  0  0
 46 52  1  0  0  0  0
 47 50  1  0  0  0  0
 47 51  1  0  0  0  0
 47 53  2  0  0  0  0
 48 52  2  0  0  0  0
 48 53  1  0  0  0  0
 48 54  1  0  0  0  0
 54 57  2  0  0  0  0
 60 61  1  0  0  0  0
 62 64  1  0  0  0  0
 63 65  1  0  0  0  0
 64 65  2  0  0  0  0
 66 68  1  0  0  0  0
 67 69  1  0  0  0  0
 68 70  1  0  0  0  0
 70 71  1  0  0  0  0
 71 72  1  0  0  0  0
 72 74  1  0  0  0  0
 73 75  1  0  0  0  0
 76 77  1  0  0  0  0
M  END
> <PUBCHEM_COMPOUND_ID_TYPE>
0

> <PUBCHEM_TOTAL_CHARGE>
0

> <PUBCHEM_SUBSTANCE_ID>
310929987

> <PUBCHEM_SUBSTANCE_VERSION>
1

> <PUBCHEM_EXT_DATASOURCE_NAME>
4488

> <PUBCHEM_EXT_DATASOURCE_REGID>
SCHEMBL16107223

> <PUBCHEM_SUBSTANCE_COMMENT>
InChI=1S/C56H63N9O12/c1-36-20-41-29-58-45-27-50(48(71-3)25-43(45)55(69)64(41)31-36)76-34-38-22-39(35-77-51-28-46-44(26-49(51)72-4)56(70)65-32-37(2)21-42(65)30-59-46)24-40(23-38)47-33-62(61-60-47)13-15-74-17-19-75-18-16-73-14-11-57-52(66)8-6-5-7-12-63-53(67)9-10-54(63)68/h9-10,22-30,33,41-42H,1-2,5-8,11-21,31-32,34-35H2,3-4H3,(H,57,66)/t41-,42-/m0/s1
InChIKey=RJDFYXZUYLXGQN-COCZKOEFSA-N

> <PUBCHEM_SUBSTANCE_SYNONYM>
SCHEMBL16107223

> <PUBCHEM_XREF_EXT_ID>
SCHEMBL16107223

> <PUBCHEM_EXT_DATASOURCE_URL>
https://www.surechembl.org/

> <PUBCHEM_EXT_SUBSTANCE_URL>
https://www.surechembl.org/chemical/SCHEMBL16107223

> <PUBCHEM_CID_ASSOCIATIONS>
117599244  1

> <PUBCHEM_COORDINATE_TYPE>
1
3

> <PUBCHEM_BONDANNOTATIONS>
28  13  6
29  14  6

$$$$
