310937373
  -OEChem-07211613022D

 38 41  0     1  0  0  0  0  0999 V2000
    4.4527   -7.0678    0.0000 F   0  0  0  0  0  0  0  0  0  0  0  0
    5.8663   -6.9265    0.0000 F   0  0  0  0  0  0  0  0  0  0  0  0
    4.3468   -6.2550    0.0000 F   0  0  0  0  0  0  0  0  0  0  0  0
    8.1634   -5.2655    0.0000 F   0  0  0  0  0  0  0  0  0  0  0  0
    7.3152   -4.0994    0.0000 F   0  0  0  0  0  0  0  0  0  0  0  0
    7.4919   -5.7250    0.0000 F   0  0  0  0  0  0  0  0  0  0  0  0
    3.8166    0.0000    0.0000 F   0  0  0  0  0  0  0  0  0  0  0  0
    5.0535   -2.9685    0.0000 O   0  0  0  0  0  0  0  0  0  0  0  0
    4.3821   -1.6610    0.0000 O   0  0  0  0  0  0  0  0  0  0  0  0
    2.3324   -3.2158    0.0000 O   0  0  0  0  0  0  0  0  0  0  0  0
    3.7106   -2.9685    0.0000 N   0  0  0  0  0  0  0  0  0  0  0  0
    1.3782   -2.1557    0.0000 N   0  0  3  0  0  0  0  0  0  0  0  0
    1.8376   -0.8482    0.0000 N   0  0  0  0  0  0  0  0  0  0  0  0
    4.8061   -3.7460    0.0000 C   0  0  3  0  0  0  0  0  0  0  0  0
    5.3009   -4.4174    0.0000 C   0  0  0  0  0  0  0  0  0  0  0  0
    3.9580   -3.7460    0.0000 C   0  0  3  0  0  0  0  0  0  0  0  0
    4.3821   -2.4738    0.0000 C   0  0  0  0  0  0  0  0  0  0  0  0
    5.4422   -5.8310    0.0000 C   0  0  0  0  0  0  0  0  0  0  0  0
    6.6085   -4.9829    0.0000 C   0  0  0  0  0  0  0  0  0  0  0  0
    6.1137   -4.3468    0.0000 C   0  0  0  0  0  0  0  0  0  0  0  0
    4.9475   -5.1596    0.0000 C   0  0  0  0  0  0  0  0  0  0  0  0
    2.9332   -2.7212    0.0000 C   0  0  0  0  0  0  0  0  0  0  0  0
    2.7565   -1.9083    0.0000 C   0  0  0  0  0  0  0  0  0  0  0  0
    6.2550   -5.7603    0.0000 C   0  0  0  0  0  0  0  0  0  0  0  0
    1.9790   -1.6256    0.0000 C   0  0  0  0  0  0  0  0  0  0  0  0
    5.0888   -6.5731    0.0000 C   0  0  0  0  0  0  0  0  0  0  0  0
    7.4213   -4.9122    0.0000 C   0  0  0  0  0  0  0  0  0  0  0  0
    3.4986   -4.4174    0.0000 C   0  0  0  0  0  0  0  0  0  0  0  0
    3.3572   -1.3429    0.0000 C   0  0  0  0  0  0  0  0  0  0  0  0
    1.5549   -2.9685    0.0000 C   0  0  3  0  0  0  0  0  0  0  0  0
    3.2158   -0.5301    0.0000 C   0  0  0  0  0  0  0  0  0  0  0  0
    2.4030   -0.2474    0.0000 C   0  0  0  0  0  0  0  0  0  0  0  0
    0.6008   -1.9083    0.0000 C   0  0  0  0  0  0  0  0  0  0  0  0
    0.9188   -3.4986    0.0000 C   0  0  0  0  0  0  0  0  0  0  0  0
    2.4738   -4.0286    0.0000 C   0  0  0  0  0  0  0  0  0  0  0  0
    1.0602   -4.3114    0.0000 C   0  0  0  0  0  0  0  0  0  0  0  0
    0.0000   -2.4384    0.0000 C   0  0  0  0  0  0  0  0  0  0  0  0
    1.8730   -4.5588    0.0000 C   0  0  0  0  0  0  0  0  0  0  0  0
  1 26  1  0  0  0  0
  2 26  1  0  0  0  0
  3 26  1  0  0  0  0
  4 27  1  0  0  0  0
  5 27  1  0  0  0  0
  6 27  1  0  0  0  0
  7 31  1  0  0  0  0
 14  8  1  6  0  0  0
  8 17  1  0  0  0  0
  9 17  2  0  0  0  0
 10 30  1  0  0  0  0
 10 35  1  0  0  0  0
 11 16  1  0  0  0  0
 11 17  1  0  0  0  0
 11 22  1  0  0  0  0
 12 25  1  0  0  0  0
 12 30  1  0  0  0  0
 12 33  1  0  0  0  0
 13 25  1  0  0  0  0
 13 32  2  0  0  0  0
 14 15  1  0  0  0  0
 14 16  1  0  0  0  0
 15 20  2  0  0  0  0
 15 21  1  0  0  0  0
 16 28  1  6  0  0  0
 18 21  2  0  0  0  0
 18 24  1  0  0  0  0
 18 26  1  0  0  0  0
 19 20  1  0  0  0  0
 19 24  2  0  0  0  0
 19 27  1  0  0  0  0
 22 23  1  0  0  0  0
 23 25  2  0  0  0  0
 23 29  1  0  0  0  0
 29 31  2  0  0  0  0
 30 34  1  0  0  0  0
 31 32  1  0  0  0  0
 33 37  1  0  0  0  0
 34 36  1  0  0  0  0
 35 38  1  0  0  0  0
 36 38  1  0  0  0  0
M  END
> <PUBCHEM_COMPOUND_ID_TYPE>
0

> <PUBCHEM_TOTAL_CHARGE>
0

> <PUBCHEM_SUBSTANCE_ID>
310937373

> <PUBCHEM_SUBSTANCE_VERSION>
1

> <PUBCHEM_EXT_DATASOURCE_NAME>
4488

> <PUBCHEM_EXT_DATASOURCE_REGID>
SCHEMBL16115129

> <PUBCHEM_SUBSTANCE_COMMENT>
InChI=1S/C25H26F7N3O3/c1-3-34(20-6-4-5-7-37-20)22-16(10-19(26)12-33-22)13-35-14(2)21(38-23(35)36)15-8-17(24(27,28)29)11-18(9-15)25(30,31)32/h8-12,14,20-21H,3-7,13H2,1-2H3/t14-,20?,21-/m0/s1
InChIKey=HAJCIWHNYRRMGM-YZIZEKMBSA-N

> <PUBCHEM_SUBSTANCE_SYNONYM>
SCHEMBL16115129

> <PUBCHEM_XREF_EXT_ID>
SCHEMBL16115129

> <PUBCHEM_EXT_DATASOURCE_URL>
https://www.surechembl.org/

> <PUBCHEM_EXT_SUBSTANCE_URL>
https://www.surechembl.org/chemical/SCHEMBL16115129

> <PUBCHEM_CID_ASSOCIATIONS>
117605144  1

> <PUBCHEM_COORDINATE_TYPE>
1
3

> <PUBCHEM_BONDANNOTATIONS>
16  28  6
14  8  6

$$$$
