310944899
  -OEChem-07211613022D

 37 42  0     0  0  0  0  0  0999 V2000
    1.8021   -1.6048    0.0000 O   0  0  0  0  0  0  0  0  0  0  0  0
   -5.2627   -1.8737    0.0000 N   0  0  0  0  0  0  0  0  0  0  0  0
   -4.8503   -2.5910    0.0000 N   0  0  0  0  0  0  0  0  0  0  0  0
    3.9537   -1.1745    0.0000 N   0  0  0  0  0  0  0  0  0  0  0  0
   -1.1027    0.0986    0.0000 C   0  0  0  0  0  0  0  0  0  0  0  0
   -1.0848    0.9414    0.0000 C   0  0  0  0  0  0  0  0  0  0  0  0
   -1.7841   -0.3138    0.0000 C   0  0  0  0  0  0  0  0  0  0  0  0
   -1.8379    1.3717    0.0000 C   0  0  0  0  0  0  0  0  0  0  0  0
   -0.3497   -0.3138    0.0000 C   0  0  0  0  0  0  0  0  0  0  0  0
   -0.3676    1.3538    0.0000 C   0  0  0  0  0  0  0  0  0  0  0  0
   -2.5013    0.0807    0.0000 C   0  0  0  0  0  0  0  0  0  0  0  0
   -1.8021   -1.1386    0.0000 C   0  0  0  0  0  0  0  0  0  0  0  0
   -2.5910    1.1565    0.0000 C   0  0  0  0  0  0  0  0  0  0  0  0
   -2.0172    2.1428    0.0000 C   0  0  0  0  0  0  0  0  0  0  0  0
   -3.2365   -1.1386    0.0000 C   0  0  0  0  0  0  0  0  0  0  0  0
   -0.3497   -1.1565    0.0000 C   0  0  0  0  0  0  0  0  0  0  0  0
    0.3676    0.0807    0.0000 C   0  0  0  0  0  0  0  0  0  0  0  0
    0.3676    0.9414    0.0000 C   0  0  0  0  0  0  0  0  0  0  0  0
   -0.3317    2.1965    0.0000 C   0  0  0  0  0  0  0  0  0  0  0  0
   -3.2186   -0.3138    0.0000 C   0  0  0  0  0  0  0  0  0  0  0  0
   -2.5013   -1.5510    0.0000 C   0  0  0  0  0  0  0  0  0  0  0  0
   -2.8061    1.9275    0.0000 C   0  0  0  0  0  0  0  0  0  0  0  0
   -3.9537   -1.5690    0.0000 C   0  0  0  0  0  0  0  0  0  0  0  0
    1.0669   -1.1386    0.0000 C   0  0  0  0  0  0  0  0  0  0  0  0
    0.3676   -1.5510    0.0000 C   0  0  0  0  0  0  0  0  0  0  0  0
    1.0669   -0.3138    0.0000 C   0  0  0  0  0  0  0  0  0  0  0  0
    1.0669    1.3538    0.0000 C   0  0  0  0  0  0  0  0  0  0  0  0
    0.3497    2.5910    0.0000 C   0  0  0  0  0  0  0  0  0  0  0  0
   -4.7069   -1.2283    0.0000 C   0  0  0  0  0  0  0  0  0  0  0  0
   -4.0434   -2.3938    0.0000 C   0  0  0  0  0  0  0  0  0  0  0  0
    1.0669    2.1786    0.0000 C   0  0  0  0  0  0  0  0  0  0  0  0
    2.5013   -1.1565    0.0000 C   0  0  0  0  0  0  0  0  0  0  0  0
    3.2365   -1.5690    0.0000 C   0  0  0  0  0  0  0  0  0  0  0  0
    4.7069   -1.4793    0.0000 C   0  0  0  0  0  0  0  0  0  0  0  0
    4.0434   -0.3317    0.0000 C   0  0  0  0  0  0  0  0  0  0  0  0
    5.2627   -0.8876    0.0000 C   0  0  0  0  0  0  0  0  0  0  0  0
    4.8503   -0.1524    0.0000 C   0  0  0  0  0  0  0  0  0  0  0  0
  1 24  1  0  0  0  0
  1 32  1  0  0  0  0
  2  3  1  0  0  0  0
  2 29  2  0  0  0  0
  3 30  1  0  0  0  0
  4 33  1  0  0  0  0
  4 34  1  0  0  0  0
  4 35  1  0  0  0  0
  5  6  2  0  0  0  0
  5  7  1  0  0  0  0
  5  9  1  0  0  0  0
  6  8  1  0  0  0  0
  6 10  1  0  0  0  0
  7 11  2  0  0  0  0
  7 12  1  0  0  0  0
  8 13  1  0  0  0  0
  8 14  1  0  0  0  0
  9 16  2  0  0  0  0
  9 17  1  0  0  0  0
 10 18  2  0  0  0  0
 10 19  1  0  0  0  0
 11 20  1  0  0  0  0
 12 21  2  0  0  0  0
 13 22  1  0  0  0  0
 14 22  1  0  0  0  0
 15 20  2  0  0  0  0
 15 21  1  0  0  0  0
 15 23  1  0  0  0  0
 16 25  1  0  0  0  0
 17 26  2  0  0  0  0
 18 27  1  0  0  0  0
 19 28  2  0  0  0  0
 23 29  1  0  0  0  0
 23 30  2  0  0  0  0
 24 25  2  0  0  0  0
 24 26  1  0  0  0  0
 27 31  2  0  0  0  0
 28 31  1  0  0  0  0
 32 33  1  0  0  0  0
 34 36  1  0  0  0  0
 35 37  1  0  0  0  0
 36 37  1  0  0  0  0
M  END
> <PUBCHEM_COMPOUND_ID_TYPE>
0

> <PUBCHEM_TOTAL_CHARGE>
0

> <PUBCHEM_SUBSTANCE_ID>
310944899

> <PUBCHEM_SUBSTANCE_VERSION>
1

> <PUBCHEM_EXT_DATASOURCE_NAME>
4488

> <PUBCHEM_EXT_DATASOURCE_REGID>
SCHEMBL16122983

> <PUBCHEM_SUBSTANCE_COMMENT>
InChI=1S/C33H35N3O/c1-2-7-26(8-3-1)32(27-9-6-10-27)33(28-13-11-25(12-14-28)30-23-34-35-24-30)29-15-17-31(18-16-29)37-22-21-36-19-4-5-20-36/h1-3,7-8,11-18,23-24,27H,4-6,9-10,19-22H2,(H,34,35)/b33-32+
InChIKey=IAQUDYRQQZZOBW-ULIFNZDWSA-N

> <PUBCHEM_SUBSTANCE_SYNONYM>
SCHEMBL16122983

> <PUBCHEM_XREF_EXT_ID>
SCHEMBL16122983

> <PUBCHEM_EXT_DATASOURCE_URL>
https://www.surechembl.org/

> <PUBCHEM_EXT_SUBSTANCE_URL>
https://www.surechembl.org/chemical/SCHEMBL16122983

> <PUBCHEM_CID_ASSOCIATIONS>
86271927  1

> <PUBCHEM_COORDINATE_TYPE>
1
3

$$$$
