310944951
  -OEChem-07211613022D

 13 13  0     0  0  0  0  0  0999 V2000
    1.1831   -1.5706    0.0000 O   0  0  0  0  0  0  0  0  0  0  0  0
   -0.5328   -1.3907    0.0000 N   0  0  0  0  0  0  0  0  0  0  0  0
   -0.0069   -0.7126    0.0000 C   0  0  0  0  0  0  0  0  0  0  0  0
    0.8095   -0.7956    0.0000 C   0  0  0  0  0  0  0  0  0  0  0  0
   -0.3114    0.0346    0.0000 C   0  0  0  0  0  0  0  0  0  0  0  0
   -1.1554    0.1730    0.0000 C   0  0  0  0  0  0  0  0  0  0  0  0
    1.3354   -0.1177    0.0000 C   0  0  0  0  0  0  0  0  0  0  0  0
   -1.6675   -0.5051    0.0000 C   0  0  0  0  0  0  0  0  0  0  0  0
   -1.3492   -1.2662    0.0000 C   0  0  0  0  0  0  0  0  0  0  0  0
   -1.4599    0.9063    0.0000 C   0  0  0  0  0  0  0  0  0  0  0  0
    0.9202    0.2145    0.0000 C   0  0  0  0  0  0  0  0  0  0  0  0
    1.6675   -0.3806    0.0000 C   0  0  0  0  0  0  0  0  0  0  0  0
   -0.8925    1.5706    0.0000 C   0  0  0  0  0  0  0  0  0  0  0  0
  1  4  2  0  0  0  0
  2  3  1  0  0  0  0
  2  9  2  0  0  0  0
  3  4  1  0  0  0  0
  3  5  2  0  0  0  0
  4  7  1  0  0  0  0
  5  6  1  0  0  0  0
  6  8  2  0  0  0  0
  6 10  1  0  0  0  0
  7 11  1  0  0  0  0
  7 12  1  0  0  0  0
  8  9  1  0  0  0  0
 10 13  2  0  0  0  0
M  END
> <PUBCHEM_COMPOUND_ID_TYPE>
0

> <PUBCHEM_TOTAL_CHARGE>
0

> <PUBCHEM_SUBSTANCE_ID>
310944951

> <PUBCHEM_SUBSTANCE_VERSION>
1

> <PUBCHEM_EXT_DATASOURCE_NAME>
4488

> <PUBCHEM_EXT_DATASOURCE_REGID>
SCHEMBL16123036

> <PUBCHEM_SUBSTANCE_COMMENT>
InChI=1S/C11H13NO/c1-4-9-5-6-12-10(7-9)11(13)8(2)3/h4-8H,1H2,2-3H3
InChIKey=AWQNVJAJMKBUAB-UHFFFAOYSA-N

> <PUBCHEM_SUBSTANCE_SYNONYM>
SCHEMBL16123036

> <PUBCHEM_XREF_EXT_ID>
SCHEMBL16123036

> <PUBCHEM_EXT_DATASOURCE_URL>
https://www.surechembl.org/

> <PUBCHEM_EXT_SUBSTANCE_URL>
https://www.surechembl.org/chemical/SCHEMBL16123036

> <PUBCHEM_CID_ASSOCIATIONS>
117611104  1

> <PUBCHEM_COORDINATE_TYPE>
1
3

$$$$
