310949685
  -OEChem-07211613022D

 22 23  0     0  0  0  0  0  0999 V2000
    0.3615   -1.8646    0.0000 Cl  0  0  0  0  0  0  0  0  0  0  0  0
    1.0989   -1.4534    0.0000 O   0  0  0  0  0  0  0  0  0  0  0  0
    1.0989    1.8646    0.0000 O   0  0  0  0  0  0  0  0  0  0  0  0
    0.3615    0.6169    0.0000 O   0  0  0  0  0  0  0  0  0  0  0  0
   -2.5737    0.6310    0.0000 O   0  0  0  0  0  0  0  0  0  0  0  0
   -3.2967   -0.6026    0.0000 O   0  0  0  0  0  0  0  0  0  0  0  0
    0.3615   -0.2056    0.0000 N   0  0  0  0  0  0  0  0  0  0  0  0
    1.8221   -0.1914    0.0000 C   0  0  0  0  0  0  0  0  0  0  0  0
   -0.3758   -0.6169    0.0000 C   0  0  0  0  0  0  0  0  0  0  0  0
    1.0989   -0.5884    0.0000 C   0  0  0  0  0  0  0  0  0  0  0  0
    1.8363    0.6169    0.0000 C   0  0  0  0  0  0  0  0  0  0  0  0
   -0.3758   -1.4393    0.0000 C   0  0  0  0  0  0  0  0  0  0  0  0
   -1.8221   -0.6310    0.0000 C   0  0  0  0  0  0  0  0  0  0  0  0
   -1.1131   -0.2198    0.0000 C   0  0  0  0  0  0  0  0  0  0  0  0
    2.5737   -0.6026    0.0000 C   0  0  0  0  0  0  0  0  0  0  0  0
    1.0989    1.0281    0.0000 C   0  0  0  0  0  0  0  0  0  0  0  0
   -1.0847   -1.8505    0.0000 C   0  0  0  0  0  0  0  0  0  0  0  0
   -1.8363   -1.4393    0.0000 C   0  0  0  0  0  0  0  0  0  0  0  0
    2.5452    1.0281    0.0000 C   0  0  0  0  0  0  0  0  0  0  0  0
   -2.5737   -0.2056    0.0000 C   0  0  0  0  0  0  0  0  0  0  0  0
    3.2967   -0.2056    0.0000 C   0  0  0  0  0  0  0  0  0  0  0  0
    3.2967    0.6169    0.0000 C   0  0  0  0  0  0  0  0  0  0  0  0
  1 12  1  0  0  0  0
  2 10  2  0  0  0  0
  3 16  2  0  0  0  0
  4 16  1  0  0  0  0
  5 20  2  0  0  0  0
  6 20  1  0  0  0  0
  7  9  1  0  0  0  0
  7 10  1  0  0  0  0
  8 10  1  0  0  0  0
  8 11  2  0  0  0  0
  8 15  1  0  0  0  0
  9 12  2  0  0  0  0
  9 14  1  0  0  0  0
 11 16  1  0  0  0  0
 11 19  1  0  0  0  0
 12 17  1  0  0  0  0
 13 14  2  0  0  0  0
 13 18  1  0  0  0  0
 13 20  1  0  0  0  0
 15 21  2  0  0  0  0
 17 18  2  0  0  0  0
 19 22  2  0  0  0  0
 21 22  1  0  0  0  0
M  END
> <PUBCHEM_COMPOUND_ID_TYPE>
0

> <PUBCHEM_TOTAL_CHARGE>
0

> <PUBCHEM_SUBSTANCE_ID>
310949685

> <PUBCHEM_SUBSTANCE_VERSION>
1

> <PUBCHEM_EXT_DATASOURCE_NAME>
4488

> <PUBCHEM_EXT_DATASOURCE_REGID>
SCHEMBL16127883

> <PUBCHEM_SUBSTANCE_COMMENT>
InChI=1S/C15H10ClNO5/c16-11-6-5-8(14(19)20)7-12(11)17-13(18)9-3-1-2-4-10(9)15(21)22/h1-7H,(H,17,18)(H,19,20)(H,21,22)
InChIKey=HOHYYXPOMLHHEZ-UHFFFAOYSA-N

> <PUBCHEM_SUBSTANCE_SYNONYM>
SCHEMBL16127883

> <PUBCHEM_XREF_EXT_ID>
SCHEMBL16127883

> <PUBCHEM_EXT_DATASOURCE_URL>
https://www.surechembl.org/

> <PUBCHEM_EXT_SUBSTANCE_URL>
https://www.surechembl.org/chemical/SCHEMBL16127883

> <PUBCHEM_CID_ASSOCIATIONS>
85472833  1

> <PUBCHEM_COORDINATE_TYPE>
1
3

$$$$
