310931046
  -OEChem-07211613022D

 15 16  0     0  0  0  0  0  0999 V2000
    2.2687   -2.4749    0.0000 O   0  0  0  0  0  0  0  0  0  0  0  0
    3.6977   -2.4749    0.0000 O   0  0  0  0  0  0  0  0  0  0  0  0
    1.5468   -0.4272    0.0000 O   0  0  0  0  0  0  0  0  0  0  0  0
    2.9906   -1.2522    0.0000 C   0  0  0  0  0  0  0  0  0  0  0  0
    2.2687   -1.6647    0.0000 C   0  0  0  0  0  0  0  0  0  0  0  0
    1.5468   -1.2522    0.0000 C   0  0  0  0  0  0  0  0  0  0  0  0
    0.8397   -1.6647    0.0000 C   0  0  0  0  0  0  0  0  0  0  0  0
    3.6977   -1.6499    0.0000 C   0  0  0  0  0  0  0  0  0  0  0  0
    0.4272   -2.3571    0.0000 C   0  0  0  0  0  0  0  0  0  0  0  0
    0.0000   -1.6647    0.0000 C   0  0  0  0  0  0  0  0  0  0  0  0
    2.9906   -0.4125    0.0000 C   0  0  0  0  0  0  0  0  0  0  0  0
    4.4048   -1.2522    0.0000 C   0  0  0  0  0  0  0  0  0  0  0  0
    3.6977    0.0000    0.0000 C   0  0  0  0  0  0  0  0  0  0  0  0
    4.4195   -0.4272    0.0000 C   0  0  0  0  0  0  0  0  0  0  0  0
    4.4195   -2.8874    0.0000 C   0  0  0  0  0  0  0  0  0  0  0  0
  1  5  2  0  0  0  0
  2  8  1  0  0  0  0
  2 15  1  0  0  0  0
  3  6  2  0  0  0  0
  4  5  1  0  0  0  0
  4  8  1  0  0  0  0
  4 11  2  0  0  0  0
  5  6  1  0  0  0  0
  6  7  1  0  0  0  0
  7  9  1  0  0  0  0
  7 10  1  0  0  0  0
  8 12  2  0  0  0  0
  9 10  1  0  0  0  0
 11 13  1  0  0  0  0
 12 14  1  0  0  0  0
 13 14  2  0  0  0  0
M  END
> <PUBCHEM_COMPOUND_ID_TYPE>
0

> <PUBCHEM_TOTAL_CHARGE>
0

> <PUBCHEM_SUBSTANCE_ID>
310931046

> <PUBCHEM_SUBSTANCE_VERSION>
1

> <PUBCHEM_EXT_DATASOURCE_NAME>
4488

> <PUBCHEM_EXT_DATASOURCE_REGID>
SCHEMBL16108348

> <PUBCHEM_SUBSTANCE_COMMENT>
InChI=1S/C12H12O3/c1-15-10-5-3-2-4-9(10)12(14)11(13)8-6-7-8/h2-5,8H,6-7H2,1H3
InChIKey=RXNCARAISOXHQY-UHFFFAOYSA-N

> <PUBCHEM_SUBSTANCE_SYNONYM>
SCHEMBL16108348

> <PUBCHEM_XREF_EXT_ID>
SCHEMBL16108348

> <PUBCHEM_EXT_DATASOURCE_URL>
https://www.surechembl.org/

> <PUBCHEM_EXT_SUBSTANCE_URL>
https://www.surechembl.org/chemical/SCHEMBL16108348

> <PUBCHEM_CID_ASSOCIATIONS>
117599958  1

> <PUBCHEM_COORDINATE_TYPE>
1
3

$$$$
