310934827
  -OEChem-07211613022D

 19 19  0     0  0  0  0  0  0999 V2000
    0.7125   -1.2375    0.0000 S   0  0  0  0  0  0  0  0  0  0  0  0
    1.4063   -1.6689    0.0000 O   0  0  0  0  0  0  0  0  0  0  0  0
    2.8501   -2.5126    0.0000 O   0  0  0  0  0  0  0  0  0  0  0  0
    2.1376   -3.7502    0.0000 O   0  0  0  0  0  0  0  0  0  0  0  0
    2.8501   -0.0187    0.0000 N   0  0  0  0  0  0  0  0  0  0  0  0
    1.4438    0.0000    0.0000 N   0  0  0  0  0  0  0  0  0  0  0  0
    0.0000    0.0000    0.0000 N   0  0  0  0  0  0  0  0  0  0  0  0
    2.1376   -1.2563    0.0000 C   0  0  0  0  0  0  0  0  0  0  0  0
    2.1563   -0.4125    0.0000 C   0  0  0  0  0  0  0  0  0  0  0  0
    2.8689   -1.6689    0.0000 C   0  0  0  0  0  0  0  0  0  0  0  0
    2.1376   -2.9252    0.0000 C   0  0  0  0  0  0  0  0  0  0  0  0
    3.5627   -2.9252    0.0000 C   0  0  0  0  0  0  0  0  0  0  0  0
    1.4063   -2.5126    0.0000 C   0  0  0  0  0  0  0  0  0  0  0  0
    3.5627   -1.2375    0.0000 C   0  0  0  0  0  0  0  0  0  0  0  0
    3.5814   -0.4125    0.0000 C   0  0  0  0  0  0  0  0  0  0  0  0
    0.7313   -0.4125    0.0000 C   0  0  0  0  0  0  0  0  0  0  0  0
    3.1501   -3.6377    0.0000 C   0  0  0  0  0  0  0  0  0  0  0  0
    4.2752   -3.3189    0.0000 C   0  0  0  0  0  0  0  0  0  0  0  0
    3.9752   -2.2126    0.0000 C   0  0  0  0  0  0  0  0  0  0  0  0
  1 16  2  0  0  0  0
  2  8  1  0  0  0  0
  2 13  1  0  0  0  0
  3 11  1  0  0  0  0
  3 12  1  0  0  0  0
  4 11  2  0  0  0  0
  5  9  1  0  0  0  0
  5 15  2  0  0  0  0
  6  9  1  0  0  0  0
  6 16  1  0  0  0  0
  7 16  1  0  0  0  0
  8  9  2  0  0  0  0
  8 10  1  0  0  0  0
 10 14  2  0  0  0  0
 11 13  1  0  0  0  0
 12 17  1  0  0  0  0
 12 18  1  0  0  0  0
 12 19  1  0  0  0  0
 14 15  1  0  0  0  0
M  END
> <PUBCHEM_COMPOUND_ID_TYPE>
0

> <PUBCHEM_TOTAL_CHARGE>
0

> <PUBCHEM_SUBSTANCE_ID>
310934827

> <PUBCHEM_SUBSTANCE_VERSION>
1

> <PUBCHEM_EXT_DATASOURCE_NAME>
4488

> <PUBCHEM_EXT_DATASOURCE_REGID>
SCHEMBL16112333

> <PUBCHEM_SUBSTANCE_COMMENT>
InChI=1S/C12H17N3O3S/c1-12(2,3)18-9(16)7-17-8-5-4-6-14-10(8)15-11(13)19/h4-6H,7H2,1-3H3,(H3,13,14,15,19)
InChIKey=WWGRLEDAVBYUCW-UHFFFAOYSA-N

> <PUBCHEM_SUBSTANCE_SYNONYM>
SCHEMBL16112333

> <PUBCHEM_XREF_EXT_ID>
SCHEMBL16112333

> <PUBCHEM_EXT_DATASOURCE_URL>
https://www.surechembl.org/

> <PUBCHEM_EXT_SUBSTANCE_URL>
https://www.surechembl.org/chemical/SCHEMBL16112333

> <PUBCHEM_CID_ASSOCIATIONS>
117602952  1

> <PUBCHEM_COORDINATE_TYPE>
1
3

$$$$
