310936269
  -OEChem-07211613022D

 23 25  0     0  0  0  0  0  0999 V2000
    0.0000    0.0000    0.0000 Br  0  0  0  0  0  0  0  0  0  0  0  0
    1.3932   -2.4942    0.0000 F   0  0  0  0  0  0  0  0  0  0  0  0
    6.7410   -0.8314    0.0000 F   0  0  0  0  0  0  0  0  0  0  0  0
    2.9211   -0.1797    0.0000 O   0  0  0  0  0  0  0  0  0  0  0  0
    0.0000   -1.6853    0.0000 O   0  0  0  0  0  0  0  0  0  0  0  0
    2.6065   -2.8986    0.0000 O   0  0  0  0  0  0  0  0  0  0  0  0
    3.9772   -2.4717    0.0000 N   0  0  0  0  0  0  0  0  0  0  0  0
    2.1347   -1.2808    0.0000 C   0  0  0  0  0  0  0  0  0  0  0  0
    2.9211   -1.5055    0.0000 C   0  0  0  0  0  0  0  0  0  0  0  0
    2.1347   -0.4044    0.0000 C   0  0  0  0  0  0  0  0  0  0  0  0
    3.4155   -0.8314    0.0000 C   0  0  0  0  0  0  0  0  0  0  0  0
    1.3932   -1.6628    0.0000 C   0  0  0  0  0  0  0  0  0  0  0  0
    0.6966   -1.2808    0.0000 C   0  0  0  0  0  0  0  0  0  0  0  0
    4.2243   -0.8314    0.0000 C   0  0  0  0  0  0  0  0  0  0  0  0
    3.1683   -2.2919    0.0000 C   0  0  0  0  0  0  0  0  0  0  0  0
    1.3932   -0.0224    0.0000 C   0  0  0  0  0  0  0  0  0  0  0  0
    0.6966   -0.4044    0.0000 C   0  0  0  0  0  0  0  0  0  0  0  0
    4.6738   -0.1123    0.0000 C   0  0  0  0  0  0  0  0  0  0  0  0
    4.6738   -1.5504    0.0000 C   0  0  0  0  0  0  0  0  0  0  0  0
    5.4827   -0.1123    0.0000 C   0  0  0  0  0  0  0  0  0  0  0  0
    5.4827   -1.5504    0.0000 C   0  0  0  0  0  0  0  0  0  0  0  0
    5.8872   -0.8314    0.0000 C   0  0  0  0  0  0  0  0  0  0  0  0
    4.2243   -3.2582    0.0000 C   0  0  0  0  0  0  0  0  0  0  0  0
  1 17  1  0  0  0  0
  2 12  1  0  0  0  0
  3 22  1  0  0  0  0
  4 10  1  0  0  0  0
  4 11  1  0  0  0  0
  5 13  1  0  0  0  0
  6 15  2  0  0  0  0
  7 15  1  0  0  0  0
  7 23  1  0  0  0  0
  8  9  1  0  0  0  0
  8 10  2  0  0  0  0
  8 12  1  0  0  0  0
  9 11  2  0  0  0  0
  9 15  1  0  0  0  0
 10 16  1  0  0  0  0
 11 14  1  0  0  0  0
 12 13  2  0  0  0  0
 13 17  1  0  0  0  0
 14 18  2  0  0  0  0
 14 19  1  0  0  0  0
 16 17  2  0  0  0  0
 18 20  1  0  0  0  0
 19 21  2  0  0  0  0
 20 22  2  0  0  0  0
 21 22  1  0  0  0  0
M  END
> <PUBCHEM_COMPOUND_ID_TYPE>
0

> <PUBCHEM_TOTAL_CHARGE>
0

> <PUBCHEM_SUBSTANCE_ID>
310936269

> <PUBCHEM_SUBSTANCE_VERSION>
1

> <PUBCHEM_EXT_DATASOURCE_NAME>
4488

> <PUBCHEM_EXT_DATASOURCE_REGID>
SCHEMBL16113888

> <PUBCHEM_SUBSTANCE_COMMENT>
InChI=1S/C16H10BrF2NO3/c1-20-16(22)12-11-10(6-9(17)14(21)13(11)19)23-15(12)7-2-4-8(18)5-3-7/h2-6,21H,1H3,(H,20,22)
InChIKey=NLKMJBWSSNAESY-UHFFFAOYSA-N

> <PUBCHEM_SUBSTANCE_SYNONYM>
SCHEMBL16113888

> <PUBCHEM_XREF_EXT_ID>
SCHEMBL16113888

> <PUBCHEM_EXT_DATASOURCE_URL>
https://www.surechembl.org/

> <PUBCHEM_EXT_SUBSTANCE_URL>
https://www.surechembl.org/chemical/SCHEMBL16113888

> <PUBCHEM_CID_ASSOCIATIONS>
117604215  1

> <PUBCHEM_COORDINATE_TYPE>
1
3

$$$$
