310930463
  -OEChem-07211613022D

 27 29  0     1  0  0  0  0  0999 V2000
    6.3672   -3.2779    0.0000 F   0  0  0  0  0  0  0  0  0  0  0  0
    0.0000   -2.0516    0.0000 F   0  0  0  0  0  0  0  0  0  0  0  0
    0.7075   -3.2779    0.0000 F   0  0  0  0  0  0  0  0  0  0  0  0
    0.7075   -1.6507    0.0000 F   0  0  0  0  0  0  0  0  0  0  0  0
    4.9758   -3.2779    0.0000 O   0  0  0  0  0  0  0  0  0  0  0  0
    4.2447   -2.0516    0.0000 N   0  0  0  0  0  0  0  0  0  0  0  0
    4.9758   -0.8254    0.0000 N   0  0  0  0  0  0  0  0  0  0  0  0
    3.5609    0.0000    0.0000 N   0  0  0  0  0  0  0  0  0  0  0  0
    5.6833   -2.0516    0.0000 C   0  0  0  0  0  0  0  0  0  0  0  0
    4.9758   -2.4525    0.0000 C   0  0  0  0  0  0  0  0  0  0  0  0
    4.2447   -1.2263    0.0000 C   0  0  0  0  0  0  0  0  0  0  0  0
    5.6833   -1.2263    0.0000 C   0  0  0  0  0  0  0  0  0  0  0  0
    3.5609   -2.4525    0.0000 C   0  0  0  0  0  0  0  0  0  0  0  0
    6.3672   -2.4525    0.0000 C   0  0  0  0  0  0  0  0  0  0  0  0
    3.5609   -0.8254    0.0000 C   0  0  3  0  0  0  0  0  0  0  0  0
    6.3672   -0.8254    0.0000 C   0  0  0  0  0  0  0  0  0  0  0  0
    2.9949   -2.2167    0.0000 C   0  0  0  0  0  0  0  0  0  0  0  0
    3.5609   -3.2779    0.0000 C   0  0  0  0  0  0  0  0  0  0  0  0
    2.1460   -2.4525    0.0000 C   0  0  0  0  0  0  0  0  0  0  0  0
    7.0746   -2.0516    0.0000 C   0  0  0  0  0  0  0  0  0  0  0  0
    7.0746   -1.2263    0.0000 C   0  0  0  0  0  0  0  0  0  0  0  0
    2.8534   -3.6788    0.0000 C   0  0  0  0  0  0  0  0  0  0  0  0
    2.1460   -3.2779    0.0000 C   0  0  0  0  0  0  0  0  0  0  0  0
    2.8298   -1.2263    0.0000 C   0  0  0  0  0  0  0  0  0  0  0  0
    1.4149   -2.0516    0.0000 C   0  0  0  0  0  0  0  0  0  0  0  0
    0.7075   -2.4761    0.0000 C   0  0  0  0  0  0  0  0  0  0  0  0
    2.8298   -2.0516    0.0000 C   0  0  0  0  0  0  0  0  0  0  0  0
  1 14  1  0  0  0  0
  2 26  1  0  0  0  0
  3 26  1  0  0  0  0
  4 26  1  0  0  0  0
  5 10  2  0  0  0  0
  6 10  1  0  0  0  0
  6 11  1  0  0  0  0
  6 13  1  0  0  0  0
  7 11  2  0  0  0  0
  7 12  1  0  0  0  0
 15  8  1  6  0  0  0
  9 10  1  0  0  0  0
  9 12  2  0  0  0  0
  9 14  1  0  0  0  0
 11 15  1  0  0  0  0
 12 16  1  0  0  0  0
 13 17  1  0  0  0  0
 13 18  2  0  0  0  0
 14 20  2  0  0  0  0
 15 24  1  0  0  0  0
 16 21  2  0  0  0  0
 17 19  2  0  0  0  0
 18 22  1  0  0  0  0
 19 23  1  0  0  0  0
 19 25  1  0  0  0  0
 20 21  1  0  0  0  0
 22 23  2  0  0  0  0
 24 27  1  0  0  0  0
 25 26  1  0  0  0  0
M  END
> <PUBCHEM_COMPOUND_ID_TYPE>
0

> <PUBCHEM_TOTAL_CHARGE>
0

> <PUBCHEM_SUBSTANCE_ID>
310930463

> <PUBCHEM_SUBSTANCE_VERSION>
1

> <PUBCHEM_EXT_DATASOURCE_NAME>
4488

> <PUBCHEM_EXT_DATASOURCE_REGID>
SCHEMBL16107753

> <PUBCHEM_SUBSTANCE_COMMENT>
InChI=1S/C19H17F4N3O/c1-2-14(24)17-25-15-8-4-7-13(20)16(15)18(27)26(17)12-6-3-5-11(9-12)10-19(21,22)23/h3-9,14H,2,10,24H2,1H3/t14-/m0/s1
InChIKey=QMNIECYTZPHZDJ-AWEZNQCLSA-N

> <PUBCHEM_SUBSTANCE_SYNONYM>
SCHEMBL16107753

> <PUBCHEM_XREF_EXT_ID>
SCHEMBL16107753

> <PUBCHEM_EXT_DATASOURCE_URL>
https://www.surechembl.org/

> <PUBCHEM_EXT_SUBSTANCE_URL>
https://www.surechembl.org/chemical/SCHEMBL16107753

> <PUBCHEM_CID_ASSOCIATIONS>
117599585  1

> <PUBCHEM_COORDINATE_TYPE>
1
3

> <PUBCHEM_BONDANNOTATIONS>
15  8  6

$$$$
