310935828
  -OEChem-07211613022D

 21 22  0     0  0  0  0  0  0999 V2000
    4.9501   -2.8501    0.0000 Cl  0  0  0  0  0  0  0  0  0  0  0  0
    0.0000    0.0000    0.0000 Cl  0  0  0  0  0  0  0  0  0  0  0  0
    2.0001   -5.0002    0.0000 F   0  0  0  0  0  0  0  0  0  0  0  0
    3.2501   -4.3001    0.0000 F   0  0  0  0  0  0  0  0  0  0  0  0
    2.8251   -5.0002    0.0000 F   0  0  0  0  0  0  0  0  0  0  0  0
    2.4251   -2.8501    0.0000 O   0  0  0  0  0  0  0  0  0  0  0  0
    1.2251   -2.1501    0.0000 N   0  0  0  0  0  0  0  0  0  0  0  0
    2.4751   -1.4250    0.0000 C   0  0  0  0  0  0  0  0  0  0  0  0
    2.0250   -2.1501    0.0000 C   0  0  0  0  0  0  0  0  0  0  0  0
    3.3001   -1.4250    0.0000 C   0  0  0  0  0  0  0  0  0  0  0  0
    2.0250   -0.7250    0.0000 C   0  0  0  0  0  0  0  0  0  0  0  0
    1.2251   -0.7250    0.0000 C   0  0  0  0  0  0  0  0  0  0  0  0
    3.7001   -2.1501    0.0000 C   0  0  0  0  0  0  0  0  0  0  0  0
    0.8000   -1.4250    0.0000 C   0  0  0  0  0  0  0  0  0  0  0  0
    3.7001   -0.7250    0.0000 C   0  0  0  0  0  0  0  0  0  0  0  0
    2.4251   -4.2751    0.0000 C   0  0  0  0  0  0  0  0  0  0  0  0
    2.0250   -3.5751    0.0000 C   0  0  0  0  0  0  0  0  0  0  0  0
    4.5251   -2.1501    0.0000 C   0  0  0  0  0  0  0  0  0  0  0  0
    4.5251   -0.7250    0.0000 C   0  0  0  0  0  0  0  0  0  0  0  0
    0.8250    0.0000    0.0000 C   0  0  0  0  0  0  0  0  0  0  0  0
    4.9501   -1.4250    0.0000 C   0  0  0  0  0  0  0  0  0  0  0  0
  1 18  1  0  0  0  0
  2 20  1  0  0  0  0
  3 16  1  0  0  0  0
  4 16  1  0  0  0  0
  5 16  1  0  0  0  0
  6  9  1  0  0  0  0
  6 17  1  0  0  0  0
  7  9  1  0  0  0  0
  7 14  2  0  0  0  0
  8  9  2  0  0  0  0
  8 10  1  0  0  0  0
  8 11  1  0  0  0  0
 10 13  1  0  0  0  0
 10 15  2  0  0  0  0
 11 12  2  0  0  0  0
 12 14  1  0  0  0  0
 12 20  1  0  0  0  0
 13 18  2  0  0  0  0
 15 19  1  0  0  0  0
 16 17  1  0  0  0  0
 18 21  1  0  0  0  0
 19 21  2  0  0  0  0
M  END
> <PUBCHEM_COMPOUND_ID_TYPE>
0

> <PUBCHEM_TOTAL_CHARGE>
0

> <PUBCHEM_SUBSTANCE_ID>
310935828

> <PUBCHEM_SUBSTANCE_VERSION>
1

> <PUBCHEM_EXT_DATASOURCE_NAME>
4488

> <PUBCHEM_EXT_DATASOURCE_REGID>
SCHEMBL16113418

> <PUBCHEM_SUBSTANCE_COMMENT>
InChI=1S/C14H10Cl2F3NO/c15-6-9-4-12(10-2-1-3-11(16)5-10)13(20-7-9)21-8-14(17,18)19/h1-5,7H,6,8H2
InChIKey=UXLQTSPRVYHSNX-UHFFFAOYSA-N

> <PUBCHEM_SUBSTANCE_SYNONYM>
SCHEMBL16113418

> <PUBCHEM_XREF_EXT_ID>
SCHEMBL16113418

> <PUBCHEM_EXT_DATASOURCE_URL>
https://www.surechembl.org/

> <PUBCHEM_EXT_SUBSTANCE_URL>
https://www.surechembl.org/chemical/SCHEMBL16113418

> <PUBCHEM_CID_ASSOCIATIONS>
117603818  1

> <PUBCHEM_COORDINATE_TYPE>
1
3

$$$$
