310932246
  -OEChem-07211613022D

 14 15  0     1  0  0  0  0  0999 V2000
    0.0000   -4.7433    0.0000 F   0  0  0  0  0  0  0  0  0  0  0  0
    2.3479   -0.8301    0.0000 N   0  0  3  0  0  0  0  0  0  0  0  0
    3.2491   -2.7511    0.0000 N   0  0  0  0  0  0  0  0  0  0  0  0
    1.9447   -2.0870    0.0000 C   0  0  3  0  0  0  0  0  0  0  0  0
    1.4467   -2.7511    0.0000 C   0  0  0  0  0  0  0  0  0  0  0  0
    2.7511   -2.0870    0.0000 C   0  0  3  0  0  0  0  0  0  0  0  0
    1.6838   -1.3044    0.0000 C   0  0  0  0  0  0  0  0  0  0  0  0
    3.0120   -1.3044    0.0000 C   0  0  0  0  0  0  0  0  0  0  0  0
    1.8025   -3.5100    0.0000 C   0  0  0  0  0  0  0  0  0  0  0  0
    0.6403   -2.6562    0.0000 C   0  0  0  0  0  0  0  0  0  0  0  0
    0.4980   -4.0792    0.0000 C   0  0  0  0  0  0  0  0  0  0  0  0
    1.3044   -4.1740    0.0000 C   0  0  0  0  0  0  0  0  0  0  0  0
    0.1660   -3.3203    0.0000 C   0  0  0  0  0  0  0  0  0  0  0  0
    2.3479    0.0000    0.0000 C   0  0  0  0  0  0  0  0  0  0  0  0
  1 11  1  0  0  0  0
  2  7  1  0  0  0  0
  2  8  1  0  0  0  0
  2 14  1  0  0  0  0
  6  3  1  1  0  0  0
  4  5  1  0  0  0  0
  4  6  1  0  0  0  0
  4  7  1  6  0  0  0
  5  9  2  0  0  0  0
  5 10  1  0  0  0  0
  6  8  1  0  0  0  0
  9 12  1  0  0  0  0
 10 13  2  0  0  0  0
 11 12  2  0  0  0  0
 11 13  1  0  0  0  0
M  END
> <PUBCHEM_COMPOUND_ID_TYPE>
0

> <PUBCHEM_TOTAL_CHARGE>
0

> <PUBCHEM_SUBSTANCE_ID>
310932246

> <PUBCHEM_SUBSTANCE_VERSION>
1

> <PUBCHEM_EXT_DATASOURCE_NAME>
4488

> <PUBCHEM_EXT_DATASOURCE_REGID>
SCHEMBL16109604

> <PUBCHEM_SUBSTANCE_COMMENT>
InChI=1S/C11H15FN2/c1-14-6-10(11(13)7-14)8-2-4-9(12)5-3-8/h2-5,10-11H,6-7,13H2,1H3/t10-,11+/m0/s1
InChIKey=ZKJZAPALZOUPMV-WDEREUQCSA-N

> <PUBCHEM_SUBSTANCE_SYNONYM>
SCHEMBL16109604

> <PUBCHEM_XREF_EXT_ID>
SCHEMBL16109604

> <PUBCHEM_EXT_DATASOURCE_URL>
https://www.surechembl.org/

> <PUBCHEM_EXT_SUBSTANCE_URL>
https://www.surechembl.org/chemical/SCHEMBL16109604

> <PUBCHEM_CID_ASSOCIATIONS>
96754720  1

> <PUBCHEM_COORDINATE_TYPE>
1
3

> <PUBCHEM_BONDANNOTATIONS>
6  3  5
4  7  6

$$$$
