310928637
  -OEChem-07211613022D

 11 12  0     0  0  0  0  0  0999 V2000
    1.2216    1.0799    0.0000 S   0  0  0  0  0  0  0  0  0  0  0  0
   -0.2775   -1.2375    0.0000 O   0  0  0  0  0  0  0  0  0  0  0  0
   -1.7065    1.2375    0.0000 O   0  0  0  0  0  0  0  0  0  0  0  0
   -0.2775    1.2375    0.0000 N   0  0  0  0  0  0  0  0  0  0  0  0
    0.4369    0.0000    0.0000 C   0  0  0  0  0  0  0  0  0  0  0  0
    0.4369    0.8250    0.0000 C   0  0  0  0  0  0  0  0  0  0  0  0
   -0.2775   -0.4125    0.0000 C   0  0  0  0  0  0  0  0  0  0  0  0
   -0.9920    0.8250    0.0000 C   0  0  0  0  0  0  0  0  0  0  0  0
   -0.9920    0.0000    0.0000 C   0  0  0  0  0  0  0  0  0  0  0  0
    1.2216   -0.2549    0.0000 C   0  0  0  0  0  0  0  0  0  0  0  0
    1.7065    0.4125    0.0000 C   0  0  0  0  0  0  0  0  0  0  0  0
  1  6  1  0  0  0  0
  1 11  1  0  0  0  0
  2  7  1  0  0  0  0
  3  8  2  0  0  0  0
  4  6  1  0  0  0  0
  4  8  1  0  0  0  0
  5  6  2  0  0  0  0
  5  7  1  0  0  0  0
  5 10  1  0  0  0  0
  7  9  2  0  0  0  0
  8  9  1  0  0  0  0
 10 11  2  0  0  0  0
M  END
> <PUBCHEM_COMPOUND_ID_TYPE>
0

> <PUBCHEM_TOTAL_CHARGE>
0

> <PUBCHEM_SUBSTANCE_ID>
310928637

> <PUBCHEM_SUBSTANCE_VERSION>
1

> <PUBCHEM_EXT_DATASOURCE_NAME>
11752

> <PUBCHEM_EXT_DATASOURCE_REGID>
BD98026

> <PUBCHEM_SUBSTANCE_SYNONYM>
4-Hydroxythieno[2,3-b]pyridin-6(7H)-one
99429-78-4

> <PUBCHEM_GENERIC_REGISTRY_NAME>
99429-78-4

> <PUBCHEM_XREF_EXT_ID>
BD98026

> <PUBCHEM_EXT_DATASOURCE_URL>
http://www.bidepharmatech.com/en/index.html

> <PUBCHEM_EXT_SUBSTANCE_URL>
http://www.bidepharmatech.com/en/goodsview_goodscode_BD98026.html

> <PUBCHEM_CID_ASSOCIATIONS>
54732941  1

> <PUBCHEM_COORDINATE_TYPE>
1
3

$$$$
