310928860
  -OEChem-07211613022D

 11 12  0     0  0  0  0  0  0999 V2000
   -0.1677   -1.1148    0.0000 S   0  0  0  0  0  0  0  0  0  0  0  0
    1.4399    1.1148    0.0000 O   0  0  0  0  0  0  0  0  0  0  0  0
    2.1544   -0.1227    0.0000 O   0  0  0  0  0  0  0  0  0  0  0  0
   -0.0282    0.2128    0.0000 N   0  0  0  0  0  0  0  0  0  0  0  0
   -0.5802   -0.4003    0.0000 C   0  0  0  0  0  0  0  0  0  0  0  0
    0.7255   -0.1227    0.0000 C   0  0  0  0  0  0  0  0  0  0  0  0
   -1.4007   -0.3140    0.0000 C   0  0  0  0  0  0  0  0  0  0  0  0
    0.6392   -0.9432    0.0000 C   0  0  0  0  0  0  0  0  0  0  0  0
    1.4399    0.2898    0.0000 C   0  0  0  0  0  0  0  0  0  0  0  0
   -2.0682    0.1709    0.0000 C   0  0  0  0  0  0  0  0  0  0  0  0
   -2.1544   -0.6496    0.0000 C   0  0  0  0  0  0  0  0  0  0  0  0
  1  5  1  0  0  0  0
  1  8  1  0  0  0  0
  2  9  2  0  0  0  0
  3  9  1  0  0  0  0
  4  5  2  0  0  0  0
  4  6  1  0  0  0  0
  5  7  1  0  0  0  0
  6  8  2  0  0  0  0
  6  9  1  0  0  0  0
  7 10  1  0  0  0  0
  7 11  1  0  0  0  0
 10 11  1  0  0  0  0
M  END
> <PUBCHEM_COMPOUND_ID_TYPE>
0

> <PUBCHEM_TOTAL_CHARGE>
0

> <PUBCHEM_SUBSTANCE_ID>
310928860

> <PUBCHEM_SUBSTANCE_VERSION>
1

> <PUBCHEM_EXT_DATASOURCE_NAME>
11752

> <PUBCHEM_EXT_DATASOURCE_REGID>
BD238781

> <PUBCHEM_SUBSTANCE_SYNONYM>
2-Cyclopropylthiazole-4-carboxylic acid
478366-05-1

> <PUBCHEM_GENERIC_REGISTRY_NAME>
478366-05-1

> <PUBCHEM_XREF_EXT_ID>
BD238781

> <PUBCHEM_EXT_DATASOURCE_URL>
http://www.bidepharmatech.com/en/index.html

> <PUBCHEM_EXT_SUBSTANCE_URL>
http://www.bidepharmatech.com/en/goodsview_goodscode_BD238781.html

> <PUBCHEM_CID_ASSOCIATIONS>
18771816  1

> <PUBCHEM_COORDINATE_TYPE>
1
3

$$$$
