310949849
  -OEChem-07211613022D

 36 38  0     1  0  0  0  0  0999 V2000
   -1.5459   -0.4716    0.0000 P   0  0  3  0  0  0  0  0  0  0  0  0
    2.4455   -1.3276    0.0000 F   0  0  0  0  0  0  0  0  0  0  0  0
    1.6857   -1.9914    0.0000 F   0  0  0  0  0  0  0  0  0  0  0  0
    1.2140    0.1572    0.0000 O   0  0  0  0  0  0  0  0  0  0  0  0
    0.3930   -1.8691    0.0000 O   0  0  0  0  0  0  0  0  0  0  0  0
   -0.7686   -0.7162    0.0000 O   0  0  0  0  0  0  0  0  0  0  0  0
   -1.7468   -1.3013    0.0000 O   0  0  0  0  0  0  0  0  0  0  0  0
    2.1923    1.3538    0.0000 O   0  0  0  0  0  0  0  0  0  0  0  0
   -1.3450    0.3406    0.0000 O   0  0  0  0  0  0  0  0  0  0  0  0
   -3.5984    1.5547    0.0000 O   0  0  0  0  0  0  0  0  0  0  0  0
   -3.9303    0.1048    0.0000 O   0  0  0  0  0  0  0  0  0  0  0  0
    2.6639   -0.0262    0.0000 N   0  0  0  0  0  0  0  0  0  0  0  0
    3.5809    1.0917    0.0000 N   0  0  0  0  0  0  0  0  0  0  0  0
   -2.3320   -0.2708    0.0000 N   0  0  0  0  0  0  0  0  0  0  0  0
    4.9609    0.8210    0.0000 N   0  0  0  0  0  0  0  0  0  0  0  0
    1.6595   -1.1267    0.0000 C   0  0  0  0  0  0  0  0  0  0  0  0
    1.8953   -0.3057    0.0000 C   0  0  3  0  0  0  0  0  0  0  0  0
    0.8646   -1.1442    0.0000 C   0  0  3  0  0  0  0  0  0  0  0  0
    0.5939   -0.3494    0.0000 C   0  0  3  0  0  0  0  0  0  0  0  0
    2.8211    0.8035    0.0000 C   0  0  0  0  0  0  0  0  0  0  0  0
   -0.1747   -0.1136    0.0000 C   0  0  0  0  0  0  0  0  0  0  0  0
    3.2927   -0.5589    0.0000 C   0  0  0  0  0  0  0  0  0  0  0  0
    4.0351   -0.2795    0.0000 C   0  0  0  0  0  0  0  0  0  0  0  0
    4.2011    0.5503    0.0000 C   0  0  0  0  0  0  0  0  0  0  0  0
   -2.5678    0.5328    0.0000 C   0  0  3  0  0  0  0  0  0  0  0  0
   -2.5329   -1.5197    0.0000 C   0  0  0  0  0  0  0  0  0  0  0  0
   -3.3451    0.7686    0.0000 C   0  0  0  0  0  0  0  0  0  0  0  0
   -3.1006   -0.9258    0.0000 C   0  0  0  0  0  0  0  0  0  0  0  0
   -2.7425   -2.3495    0.0000 C   0  0  0  0  0  0  0  0  0  0  0  0
   -2.0525    1.1879    0.0000 C   0  0  0  0  0  0  0  0  0  0  0  0
   -3.8779   -1.1529    0.0000 C   0  0  0  0  0  0  0  0  0  0  0  0
   -3.5110   -2.5678    0.0000 C   0  0  0  0  0  0  0  0  0  0  0  0
   -4.0963   -1.9565    0.0000 C   0  0  0  0  0  0  0  0  0  0  0  0
   -4.4020    1.7905    0.0000 C   0  0  0  0  0  0  0  0  0  0  0  0
   -4.6290    2.5678    0.0000 C   0  0  0  0  0  0  0  0  0  0  0  0
   -4.9609    1.1354    0.0000 C   0  0  0  0  0  0  0  0  0  0  0  0
  1  6  1  0  0  0  0
  1  7  1  0  0  0  0
  1  9  2  0  0  0  0
  1 14  1  0  0  0  0
  2 16  1  0  0  0  0
  3 16  1  0  0  0  0
 17  4  1  1  0  0  0
  4 19  1  0  0  0  0
 18  5  1  6  0  0  0
  6 21  1  0  0  0  0
  7 26  1  0  0  0  0
  8 20  2  0  0  0  0
 10 27  1  0  0  0  0
 10 34  1  0  0  0  0
 11 27  2  0  0  0  0
 12 17  1  0  0  0  0
 12 20  1  0  0  0  0
 12 22  1  0  0  0  0
 13 20  1  0  0  0  0
 13 24  2  0  0  0  0
 14 25  1  0  0  0  0
 15 24  1  0  0  0  0
 16 17  1  0  0  0  0
 16 18  1  0  0  0  0
 18 19  1  0  0  0  0
 19 21  1  1  0  0  0
 22 23  2  0  0  0  0
 23 24  1  0  0  0  0
 25 27  1  0  0  0  0
 25 30  1  6  0  0  0
 26 28  2  0  0  0  0
 26 29  1  0  0  0  0
 28 31  1  0  0  0  0
 29 32  2  0  0  0  0
 31 33  2  0  0  0  0
 32 33  1  0  0  0  0
 34 35  1  0  0  0  0
 34 36  1  0  0  0  0
M  END
> <PUBCHEM_COMPOUND_ID_TYPE>
0

> <PUBCHEM_TOTAL_CHARGE>
0

> <PUBCHEM_SUBSTANCE_ID>
310949849

> <PUBCHEM_SUBSTANCE_VERSION>
1

> <PUBCHEM_EXT_DATASOURCE_NAME>
4488

> <PUBCHEM_EXT_DATASOURCE_REGID>
SCHEMBL16128053

> <PUBCHEM_SUBSTANCE_COMMENT>
InChI=1S/C21H27F2N4O8P/c1-12(2)33-18(29)13(3)26-36(31,35-14-7-5-4-6-8-14)32-11-15-17(28)21(22,23)19(34-15)27-10-9-16(24)25-20(27)30/h4-10,12-13,15,17,19,28H,11H2,1-3H3,(H,26,31)(H2,24,25,30)/t13-,15+,17+,19+,36?/m0/s1
InChIKey=PCKGRRCPYVKHEH-MAUAYDCSSA-N

> <PUBCHEM_SUBSTANCE_SYNONYM>
SCHEMBL16128053

> <PUBCHEM_XREF_EXT_ID>
SCHEMBL16128053

> <PUBCHEM_EXT_DATASOURCE_URL>
https://www.surechembl.org/

> <PUBCHEM_EXT_SUBSTANCE_URL>
https://www.surechembl.org/chemical/SCHEMBL16128053

> <PUBCHEM_CID_ASSOCIATIONS>
76325484  1

> <PUBCHEM_COORDINATE_TYPE>
1
3

> <PUBCHEM_BONDANNOTATIONS>
19  21  5
25  30  6
17  4  5
18  5  6

$$$$
