310947087
  -OEChem-07211613022D

 61 62  0     1  0  0  0  0  0999 V2000
    0.7652   -0.2300    0.0000 O   0  0  0  0  0  0  0  0  0  0  0  0
   -1.4014    1.2375    0.0000 O   0  0  0  0  0  0  0  0  0  0  0  0
    2.8304    0.5521    0.0000 O   0  0  0  0  0  0  0  0  0  0  0  0
   -3.5448    0.0000    0.0000 O   0  0  0  0  0  0  0  0  0  0  0  0
    4.9738   -0.6854    0.0000 O   0  0  0  0  0  0  0  0  0  0  0  0
   -0.6869    0.0000    0.0000 N   0  0  0  0  0  0  0  0  0  0  0  0
   -2.1159    0.0000    0.0000 N   0  0  0  0  0  0  0  0  0  0  0  0
   -2.8304   -1.2375    0.0000 N   0  0  0  0  0  0  0  0  0  0  0  0
    0.0978    0.2549    0.0000 C   0  0  3  0  0  0  0  0  0  0  0  0
   -1.4014    0.4125    0.0000 C   0  0  0  0  0  0  0  0  0  0  0  0
    1.4326    0.2549    0.0000 C   0  0  3  0  0  0  0  0  0  0  0  0
   -0.6869   -0.8250    0.0000 C   0  0  0  0  0  0  0  0  0  0  0  0
   -2.1159   -0.8250    0.0000 C   0  0  0  0  0  0  0  0  0  0  0  0
    0.3527    1.0395    0.0000 C   0  0  0  0  0  0  0  0  0  0  0  0
    1.1777    1.0395    0.0000 C   0  0  0  0  0  0  0  0  0  0  0  0
   -1.4014   -1.2375    0.0000 C   0  0  0  0  0  0  0  0  0  0  0  0
    2.2172    0.0000    0.0000 C   0  0  0  0  0  0  0  0  0  0  0  0
   -3.5448   -0.8250    0.0000 C   0  0  0  0  0  0  0  0  0  0  0  0
   -4.2593   -1.2375    0.0000 C   0  0  0  0  0  0  0  0  0  0  0  0
    3.5448    0.1396    0.0000 C   0  0  0  0  0  0  0  0  0  0  0  0
   -4.9738   -0.8250    0.0000 C   0  0  0  0  0  0  0  0  0  0  0  0
    4.2593    0.5521    0.0000 C   0  0  0  0  0  0  0  0  0  0  0  0
    4.9738    0.1396    0.0000 C   0  0  0  0  0  0  0  0  0  0  0  0
   -5.6883   -1.2375    0.0000 C   0  0  0  0  0  0  0  0  0  0  0  0
    5.6883    0.5521    0.0000 C   0  0  0  0  0  0  0  0  0  0  0  0
   -6.4027   -0.8250    0.0000 C   0  0  0  0  0  0  0  0  0  0  0  0
    6.4027    0.1396    0.0000 C   0  0  0  0  0  0  0  0  0  0  0  0
   -6.4027    0.0000    0.0000 C   0  0  0  0  0  0  0  0  0  0  0  0
    6.4027   -0.6854    0.0000 C   0  0  0  0  0  0  0  0  0  0  0  0
   -7.1172    0.4125    0.0000 C   0  0  0  0  0  0  0  0  0  0  0  0
    7.1172   -1.0980    0.0000 C   0  0  0  0  0  0  0  0  0  0  0  0
   -7.8317    0.0000    0.0000 C   0  0  0  0  0  0  0  0  0  0  0  0
    7.8317   -0.6854    0.0000 C   0  0  0  0  0  0  0  0  0  0  0  0
   -7.8317   -0.8250    0.0000 C   0  0  0  0  0  0  0  0  0  0  0  0
    7.8317    0.1396    0.0000 C   0  0  0  0  0  0  0  0  0  0  0  0
   -8.5461   -1.2375    0.0000 C   0  0  0  0  0  0  0  0  0  0  0  0
    8.5461    0.5521    0.0000 C   0  0  0  0  0  0  0  0  0  0  0  0
   -9.2606   -0.8250    0.0000 C   0  0  0  0  0  0  0  0  0  0  0  0
    9.2606    0.1396    0.0000 C   0  0  0  0  0  0  0  0  0  0  0  0
   -9.2606    0.0000    0.0000 C   0  0  0  0  0  0  0  0  0  0  0  0
    9.2606   -0.6854    0.0000 C   0  0  0  0  0  0  0  0  0  0  0  0
   -9.9751    0.4125    0.0000 C   0  0  0  0  0  0  0  0  0  0  0  0
    9.9751   -1.0980    0.0000 C   0  0  0  0  0  0  0  0  0  0  0  0
  -10.6896    0.0000    0.0000 C   0  0  0  0  0  0  0  0  0  0  0  0
   10.6896   -0.6854    0.0000 C   0  0  0  0  0  0  0  0  0  0  0  0
   10.6896    0.1396    0.0000 C   0  0  0  0  0  0  0  0  0  0  0  0
  -10.6896   -0.8250    0.0000 C   0  0  0  0  0  0  0  0  0  0  0  0
   11.4040    0.5521    0.0000 C   0  0  0  0  0  0  0  0  0  0  0  0
  -11.4040   -1.2375    0.0000 C   0  0  0  0  0  0  0  0  0  0  0  0
   12.1185    0.1396    0.0000 C   0  0  0  0  0  0  0  0  0  0  0  0
  -12.1185   -0.8250    0.0000 C   0  0  0  0  0  0  0  0  0  0  0  0
   12.1185   -0.6854    0.0000 C   0  0  0  0  0  0  0  0  0  0  0  0
  -12.1185    0.0000    0.0000 C   0  0  0  0  0  0  0  0  0  0  0  0
   12.8330   -1.0980    0.0000 C   0  0  0  0  0  0  0  0  0  0  0  0
  -12.8330    0.4125    0.0000 C   0  0  0  0  0  0  0  0  0  0  0  0
   13.5475   -0.6854    0.0000 C   0  0  0  0  0  0  0  0  0  0  0  0
  -13.5475    0.0000    0.0000 C   0  0  0  0  0  0  0  0  0  0  0  0
   13.5475    0.1396    0.0000 C   0  0  0  0  0  0  0  0  0  0  0  0
  -13.5475   -0.8250    0.0000 C   0  0  0  0  0  0  0  0  0  0  0  0
   14.2619    0.5521    0.0000 C   0  0  0  0  0  0  0  0  0  0  0  0
  -14.2619   -1.2375    0.0000 C   0  0  0  0  0  0  0  0  0  0  0  0
  1  9  1  0  0  0  0
  1 11  1  0  0  0  0
  2 10  2  0  0  0  0
  3 17  1  0  0  0  0
  3 20  1  0  0  0  0
  4 18  2  0  0  0  0
  5 23  2  0  0  0  0
  6  9  1  0  0  0  0
  6 10  1  0  0  0  0
  6 12  1  0  0  0  0
  7 10  1  0  0  0  0
  7 13  2  0  0  0  0
  8 13  1  0  0  0  0
  8 18  1  0  0  0  0
  9 14  1  0  0  0  0
 11 15  1  0  0  0  0
 11 17  1  1  0  0  0
 12 16  2  0  0  0  0
 13 16  1  0  0  0  0
 14 15  1  0  0  0  0
 18 19  1  0  0  0  0
 19 21  1  0  0  0  0
 20 22  1  0  0  0  0
 21 24  1  0  0  0  0
 22 23  1  0  0  0  0
 23 25  1  0  0  0  0
 24 26  2  0  0  0  0
 25 27  2  0  0  0  0
 26 28  1  0  0  0  0
 27 29  1  0  0  0  0
 28 30  1  0  0  0  0
 29 31  1  0  0  0  0
 30 32  2  0  0  0  0
 31 33  2  0  0  0  0
 32 34  1  0  0  0  0
 33 35  1  0  0  0  0
 34 36  1  0  0  0  0
 35 37  1  0  0  0  0
 36 38  2  0  0  0  0
 37 39  2  0  0  0  0
 38 40  1  0  0  0  0
 39 41  1  0  0  0  0
 40 42  1  0  0  0  0
 41 43  1  0  0  0  0
 42 44  2  0  0  0  0
 43 45  2  0  0  0  0
 44 47  1  0  0  0  0
 45 46  1  0  0  0  0
 46 48  1  0  0  0  0
 47 49  1  0  0  0  0
 48 50  2  0  0  0  0
 49 51  2  0  0  0  0
 50 52  1  0  0  0  0
 51 53  1  0  0  0  0
 52 54  1  0  0  0  0
 53 55  1  0  0  0  0
 54 56  2  0  0  0  0
 55 57  2  0  0  0  0
 56 58  1  0  0  0  0
 57 59  1  0  0  0  0
 58 60  1  0  0  0  0
 59 61  1  0  0  0  0
M  END
> <PUBCHEM_COMPOUND_ID_TYPE>
0

> <PUBCHEM_TOTAL_CHARGE>
0

> <PUBCHEM_SUBSTANCE_ID>
310947087

> <PUBCHEM_SUBSTANCE_VERSION>
1

> <PUBCHEM_EXT_DATASOURCE_NAME>
4488

> <PUBCHEM_EXT_DATASOURCE_REGID>
SCHEMBL16125241

> <PUBCHEM_SUBSTANCE_COMMENT>
InChI=1S/C53H73N3O5/c1-3-5-7-9-11-13-15-17-19-21-22-24-26-28-30-32-34-36-38-40-51(58)54-50-43-45-56(53(59)55-50)52-42-41-49(61-52)47-60-46-44-48(57)39-37-35-33-31-29-27-25-23-20-18-16-14-12-10-8-6-4-2/h5-8,11-14,17-20,22,24-25,27-28,30-31,33-34,36-37,39,43,45,49,52H,3-4,9-10,15-16,21,23,26,29,32,35,38,40-42,44,46-47H2,1-2H3,(H,54,55,58,59)/b7-5-,8-6-,13-11-,14-12-,19-17-,20-18-,24-22-,27-25-,30-28-,33-31-,36-34-,39-37-/t49-,52?/m0/s1
InChIKey=ABFADEQUKBPBMI-DHVSQARESA-N

> <PUBCHEM_SUBSTANCE_SYNONYM>
SCHEMBL16125241

> <PUBCHEM_XREF_EXT_ID>
SCHEMBL16125241

> <PUBCHEM_EXT_DATASOURCE_URL>
https://www.surechembl.org/

> <PUBCHEM_EXT_SUBSTANCE_URL>
https://www.surechembl.org/chemical/SCHEMBL16125241

> <PUBCHEM_CID_ASSOCIATIONS>
117612939  1

> <PUBCHEM_COORDINATE_TYPE>
1
3

> <PUBCHEM_BONDANNOTATIONS>
11  17  5

$$$$
