310943568
  -OEChem-07211613022D

 36 39  0     0  0  0  0  0  0999 V2000
    4.3138   -1.8475    0.0000 F   0  0  0  0  0  0  0  0  0  0  0  0
    4.3138   -2.6559    0.0000 F   0  0  0  0  0  0  0  0  0  0  0  0
   -2.1693   -1.3527    0.0000 F   0  0  0  0  0  0  0  0  0  0  0  0
   -3.5714   -1.5177    0.0000 F   0  0  0  0  0  0  0  0  0  0  0  0
   -2.8786   -0.2144    0.0000 O   0  0  0  0  0  0  0  0  0  0  0  0
   -4.3138    2.2435    0.0000 O   0  0  0  0  0  0  0  0  0  0  0  0
    1.4269   -0.2144    0.0000 O   0  0  0  0  0  0  0  0  0  0  0  0
   -2.8786    1.4187    0.0000 N   0  0  0  0  0  0  0  0  0  0  0  0
   -1.4434   -0.2144    0.0000 N   0  0  0  0  0  0  0  0  0  0  0  0
    0.7176    2.6559    0.0000 N   0  0  0  0  0  0  0  0  0  0  0  0
    2.1528    1.0228    0.0000 N   0  0  0  0  0  0  0  0  0  0  0  0
    4.2973   -1.0228    0.0000 N   0  0  0  0  0  0  0  0  0  0  0  0
   -0.7176    1.0228    0.0000 C   0  0  0  0  0  0  0  0  0  0  0  0
   -2.1528    1.0228    0.0000 C   0  0  0  0  0  0  0  0  0  0  0  0
   -0.0082    1.4352    0.0000 C   0  0  0  0  0  0  0  0  0  0  0  0
   -2.1693    0.2144    0.0000 C   0  0  0  0  0  0  0  0  0  0  0  0
   -1.4434    1.4352    0.0000 C   0  0  0  0  0  0  0  0  0  0  0  0
    0.0082    2.2600    0.0000 C   0  0  0  0  0  0  0  0  0  0  0  0
    0.7011    1.0228    0.0000 C   0  0  0  0  0  0  0  0  0  0  0  0
   -0.7341    0.1980    0.0000 C   0  0  0  0  0  0  0  0  0  0  0  0
    1.4269    1.4352    0.0000 C   0  0  0  0  0  0  0  0  0  0  0  0
    2.8786   -0.1980    0.0000 C   0  0  0  0  0  0  0  0  0  0  0  0
    2.1693    0.2310    0.0000 C   0  0  0  0  0  0  0  0  0  0  0  0
    3.6044   -1.4187    0.0000 C   0  0  0  0  0  0  0  0  0  0  0  0
    1.4434    2.2435    0.0000 C   0  0  0  0  0  0  0  0  0  0  0  0
    3.5880   -2.2270    0.0000 C   0  0  0  0  0  0  0  0  0  0  0  0
    2.8786   -1.0228    0.0000 C   0  0  0  0  0  0  0  0  0  0  0  0
   -2.8621    2.2435    0.0000 C   0  0  0  0  0  0  0  0  0  0  0  0
   -3.5714    1.0228    0.0000 C   0  0  0  0  0  0  0  0  0  0  0  0
    3.5714    0.1980    0.0000 C   0  0  0  0  0  0  0  0  0  0  0  0
   -0.7341    2.6394    0.0000 C   0  0  0  0  0  0  0  0  0  0  0  0
   -2.8786   -1.0228    0.0000 C   0  0  0  0  0  0  0  0  0  0  0  0
    4.2973   -0.1980    0.0000 C   0  0  0  0  0  0  0  0  0  0  0  0
   -3.6044    2.6559    0.0000 C   0  0  0  0  0  0  0  0  0  0  0  0
   -4.3138    1.4352    0.0000 C   0  0  0  0  0  0  0  0  0  0  0  0
    2.8621   -2.6394    0.0000 C   0  0  0  0  0  0  0  0  0  0  0  0
  1 26  1  0  0  0  0
  2 26  1  0  0  0  0
  3 32  1  0  0  0  0
  4 32  1  0  0  0  0
  5 16  1  0  0  0  0
  5 32  1  0  0  0  0
  6 34  1  0  0  0  0
  6 35  1  0  0  0  0
  7 23  2  0  0  0  0
  8 14  1  0  0  0  0
  8 28  1  0  0  0  0
  8 29  1  0  0  0  0
  9 16  1  0  0  0  0
  9 20  2  0  0  0  0
 10 18  2  0  0  0  0
 10 25  1  0  0  0  0
 11 21  1  0  0  0  0
 11 23  1  0  0  0  0
 12 24  2  0  0  0  0
 12 33  1  0  0  0  0
 13 15  1  0  0  0  0
 13 17  2  0  0  0  0
 13 20  1  0  0  0  0
 14 16  2  0  0  0  0
 14 17  1  0  0  0  0
 15 18  1  0  0  0  0
 15 19  2  0  0  0  0
 18 31  1  0  0  0  0
 19 21  1  0  0  0  0
 21 25  2  0  0  0  0
 22 23  1  0  0  0  0
 22 27  2  0  0  0  0
 22 30  1  0  0  0  0
 24 26  1  0  0  0  0
 24 27  1  0  0  0  0
 26 36  1  0  0  0  0
 28 34  1  0  0  0  0
 29 35  1  0  0  0  0
 30 33  2  0  0  0  0
M  END
> <PUBCHEM_COMPOUND_ID_TYPE>
0

> <PUBCHEM_TOTAL_CHARGE>
0

> <PUBCHEM_SUBSTANCE_ID>
310943568

> <PUBCHEM_SUBSTANCE_VERSION>
1

> <PUBCHEM_EXT_DATASOURCE_NAME>
4488

> <PUBCHEM_EXT_DATASOURCE_REGID>
SCHEMBL16121635

> <PUBCHEM_SUBSTANCE_COMMENT>
InChI=1S/C24H23F4N5O3/c1-14-18(16-9-19(33-5-7-35-8-6-33)22(31-12-16)36-23(25)26)11-17(13-30-14)32-21(34)15-3-4-29-20(10-15)24(2,27)28/h3-4,9-13,23H,5-8H2,1-2H3,(H,32,34)
InChIKey=AQHIGRWVPFAESP-UHFFFAOYSA-N

> <PUBCHEM_SUBSTANCE_SYNONYM>
SCHEMBL16121635

> <PUBCHEM_XREF_EXT_ID>
SCHEMBL16121635

> <PUBCHEM_EXT_DATASOURCE_URL>
https://www.surechembl.org/

> <PUBCHEM_EXT_SUBSTANCE_URL>
https://www.surechembl.org/chemical/SCHEMBL16121635

> <PUBCHEM_CID_ASSOCIATIONS>
117609977  1

> <PUBCHEM_COORDINATE_TYPE>
1
3

$$$$
