310934995
  -OEChem-07211613022D

 20 22  0     0  0  0  0  0  0999 V2000
    2.8775   -3.5062    0.0000 S   0  0  0  0  0  0  0  0  0  0  0  0
    0.7012   -4.6911    0.0000 O   0  0  0  0  0  0  0  0  0  0  0  0
    4.5702   -3.3128    0.0000 N   0  0  0  0  0  0  0  0  0  0  0  0
    2.2004   -4.6669    0.0000 N   0  0  0  0  0  0  0  0  0  0  0  0
    1.4025   -3.4579    0.0000 N   0  0  0  0  0  0  0  0  0  0  0  0
    5.0538   -2.2489    0.0000 C   0  0  0  0  0  0  0  0  0  0  0  0
    3.4095   -4.1350    0.0000 C   0  0  0  0  0  0  0  0  0  0  0  0
    4.2800   -2.5390    0.0000 C   0  0  0  0  0  0  0  0  0  0  0  0
    5.3440   -3.0226    0.0000 C   0  0  0  0  0  0  0  0  0  0  0  0
    4.2317   -4.0382    0.0000 C   0  0  0  0  0  0  0  0  0  0  0  0
    5.3924   -1.4992    0.0000 C   0  0  0  0  0  0  0  0  0  0  0  0
    2.1279   -3.8689    0.0000 C   0  0  0  0  0  0  0  0  0  0  0  0
    3.0226   -4.8362    0.0000 C   0  0  0  0  0  0  0  0  0  0  0  0
    4.9088   -0.8221    0.0000 C   0  0  0  0  0  0  0  0  0  0  0  0
    6.2145   -1.4025    0.0000 C   0  0  0  0  0  0  0  0  0  0  0  0
    0.7012   -3.8689    0.0000 C   0  0  0  0  0  0  0  0  0  0  0  0
    5.2231   -0.0726    0.0000 C   0  0  0  0  0  0  0  0  0  0  0  0
    6.5289   -0.6529    0.0000 C   0  0  0  0  0  0  0  0  0  0  0  0
    6.0694    0.0000    0.0000 C   0  0  0  0  0  0  0  0  0  0  0  0
    0.0000   -3.4579    0.0000 C   0  0  0  0  0  0  0  0  0  0  0  0
  1  7  1  0  0  0  0
  1 12  1  0  0  0  0
  2 16  2  0  0  0  0
  3  8  1  0  0  0  0
  3  9  1  0  0  0  0
  3 10  1  0  0  0  0
  4 12  2  0  0  0  0
  4 13  1  0  0  0  0
  5 12  1  0  0  0  0
  5 16  1  0  0  0  0
  6  8  1  0  0  0  0
  6  9  1  0  0  0  0
  6 11  1  0  0  0  0
  7 10  1  0  0  0  0
  7 13  2  0  0  0  0
 11 14  2  0  0  0  0
 11 15  1  0  0  0  0
 14 17  1  0  0  0  0
 15 18  2  0  0  0  0
 16 20  1  0  0  0  0
 17 19  2  0  0  0  0
 18 19  1  0  0  0  0
M  END
> <PUBCHEM_COMPOUND_ID_TYPE>
0

> <PUBCHEM_TOTAL_CHARGE>
0

> <PUBCHEM_SUBSTANCE_ID>
310934995

> <PUBCHEM_SUBSTANCE_VERSION>
1

> <PUBCHEM_EXT_DATASOURCE_NAME>
4488

> <PUBCHEM_EXT_DATASOURCE_REGID>
SCHEMBL16112513

> <PUBCHEM_SUBSTANCE_COMMENT>
InChI=1S/C15H17N3OS/c1-11(19)17-15-16-7-14(20-15)10-18-8-13(9-18)12-5-3-2-4-6-12/h2-7,13H,8-10H2,1H3,(H,16,17,19)
InChIKey=KBJPZIHJIAGRCJ-UHFFFAOYSA-N

> <PUBCHEM_SUBSTANCE_SYNONYM>
SCHEMBL16112513

> <PUBCHEM_XREF_EXT_ID>
SCHEMBL16112513

> <PUBCHEM_EXT_DATASOURCE_URL>
https://www.surechembl.org/

> <PUBCHEM_EXT_SUBSTANCE_URL>
https://www.surechembl.org/chemical/SCHEMBL16112513

> <PUBCHEM_CID_ASSOCIATIONS>
86274812  1

> <PUBCHEM_COORDINATE_TYPE>
1
3

$$$$
