310947299
  -OEChem-07211613022D

 40 44  0     1  0  0  0  0  0999 V2000
   -1.4608    2.4894    0.0000 O   0  0  0  0  0  0  0  0  0  0  0  0
    4.7372    0.3419    0.0000 O   0  0  0  0  0  0  0  0  0  0  0  0
    6.1662    0.3419    0.0000 O   0  0  0  0  0  0  0  0  0  0  0  0
    1.4672    0.1720    0.0000 N   0  0  0  0  0  0  0  0  0  0  0  0
    1.9522    0.8394    0.0000 N   0  0  0  0  0  0  0  0  0  0  0  0
   -2.1753    1.2519    0.0000 N   0  0  0  0  0  0  0  0  0  0  0  0
    0.6826    0.4269    0.0000 C   0  0  0  0  0  0  0  0  0  0  0  0
    0.6826    1.2519    0.0000 C   0  0  0  0  0  0  0  0  0  0  0  0
    1.4672    1.5069    0.0000 C   0  0  0  0  0  0  0  0  0  0  0  0
   -0.0319    1.6644    0.0000 C   0  0  0  0  0  0  0  0  0  0  0  0
   -0.7463    1.2519    0.0000 C   0  0  0  0  0  0  0  0  0  0  0  0
   -0.0319    0.0144    0.0000 C   0  0  0  0  0  0  0  0  0  0  0  0
    1.6808   -0.6249    0.0000 C   0  0  0  0  0  0  0  0  0  0  0  0
   -0.7463    0.4269    0.0000 C   0  0  0  0  0  0  0  0  0  0  0  0
    2.4777   -0.8384    0.0000 C   0  0  0  0  0  0  0  0  0  0  0  0
   -1.4608    1.6644    0.0000 C   0  0  0  0  0  0  0  0  0  0  0  0
    4.0714   -1.2655    0.0000 C   0  0  0  0  0  0  0  0  0  0  0  0
    4.8683   -1.4790    0.0000 C   0  0  0  0  0  0  0  0  0  0  0  0
    1.8797    2.2213    0.0000 C   0  0  0  0  0  0  0  0  0  0  0  0
    2.6912   -1.6353    0.0000 C   0  0  0  0  0  0  0  0  0  0  0  0
    3.0610   -0.2551    0.0000 C   0  0  0  0  0  0  0  0  0  0  0  0
    5.4517   -0.8956    0.0000 C   0  0  0  0  0  0  0  0  0  0  0  0
    3.4881   -1.8488    0.0000 C   0  0  0  0  0  0  0  0  0  0  0  0
    3.8579   -0.4686    0.0000 C   0  0  0  0  0  0  0  0  0  0  0  0
   -2.8897    1.6644    0.0000 C   0  0  3  0  0  0  0  0  0  0  0  0
   -3.6042    1.2519    0.0000 C   0  0  0  0  0  0  0  0  0  0  0  0
    5.0818   -2.2759    0.0000 C   0  0  0  0  0  0  0  0  0  0  0  0
    5.4517   -0.0706    0.0000 C   0  0  0  0  0  0  0  0  0  0  0  0
    6.2486   -1.1092    0.0000 C   0  0  0  0  0  0  0  0  0  0  0  0
   -4.3187    1.6644    0.0000 C   0  0  0  0  0  0  0  0  0  0  0  0
   -5.0332    1.2519    0.0000 C   0  0  0  0  0  0  0  0  0  0  0  0
    5.8787   -2.4894    0.0000 C   0  0  0  0  0  0  0  0  0  0  0  0
   -3.6042    0.4269    0.0000 C   0  0  0  0  0  0  0  0  0  0  0  0
    6.4621   -1.9061    0.0000 C   0  0  0  0  0  0  0  0  0  0  0  0
   -2.8897    2.4894    0.0000 C   0  0  0  0  0  0  0  0  0  0  0  0
   -5.0332    0.4269    0.0000 C   0  0  0  0  0  0  0  0  0  0  0  0
   -4.3187    0.0144    0.0000 C   0  0  0  0  0  0  0  0  0  0  0  0
   -5.7476    1.6644    0.0000 C   0  0  0  0  0  0  0  0  0  0  0  0
   -6.4621    1.2519    0.0000 C   0  0  0  0  0  0  0  0  0  0  0  0
   -5.7476    2.4894    0.0000 C   0  0  0  0  0  0  0  0  0  0  0  0
  1 16  2  0  0  0  0
  2 28  2  0  0  0  0
  3 28  1  0  0  0  0
  4  5  1  0  0  0  0
  4  7  1  0  0  0  0
  4 13  1  0  0  0  0
  5  9  2  0  0  0  0
  6 16  1  0  0  0  0
  6 25  1  0  0  0  0
  7  8  1  0  0  0  0
  7 12  2  0  0  0  0
  8  9  1  0  0  0  0
  8 10  2  0  0  0  0
  9 19  1  0  0  0  0
 10 11  1  0  0  0  0
 11 14  2  0  0  0  0
 11 16  1  0  0  0  0
 12 14  1  0  0  0  0
 13 15  1  0  0  0  0
 15 20  2  0  0  0  0
 15 21  1  0  0  0  0
 17 18  1  0  0  0  0
 17 23  2  0  0  0  0
 17 24  1  0  0  0  0
 18 22  1  0  0  0  0
 18 27  2  0  0  0  0
 20 23  1  0  0  0  0
 21 24  2  0  0  0  0
 22 28  1  0  0  0  0
 22 29  2  0  0  0  0
 25 26  1  0  0  0  0
 25 35  1  6  0  0  0
 26 30  2  0  0  0  0
 26 33  1  0  0  0  0
 27 32  1  0  0  0  0
 29 34  1  0  0  0  0
 30 31  1  0  0  0  0
 31 36  2  0  0  0  0
 31 38  1  0  0  0  0
 32 34  2  0  0  0  0
 33 37  2  0  0  0  0
 36 37  1  0  0  0  0
 38 39  1  0  0  0  0
 38 40  1  0  0  0  0
M  END
> <PUBCHEM_COMPOUND_ID_TYPE>
0

> <PUBCHEM_TOTAL_CHARGE>
0

> <PUBCHEM_SUBSTANCE_ID>
310947299

> <PUBCHEM_SUBSTANCE_VERSION>
1

> <PUBCHEM_EXT_DATASOURCE_NAME>
4488

> <PUBCHEM_EXT_DATASOURCE_REGID>
SCHEMBL16125454

> <PUBCHEM_SUBSTANCE_COMMENT>
InChI=1S/C34H33N3O3/c1-21(2)26-8-7-9-27(18-26)22(3)35-33(38)28-16-17-32-31(19-28)23(4)36-37(32)20-24-12-14-25(15-13-24)29-10-5-6-11-30(29)34(39)40/h5-19,21-22H,20H2,1-4H3,(H,35,38)(H,39,40)/t22-/m0/s1
InChIKey=JATIUWNXYDBCLO-QFIPXVFZSA-N

> <PUBCHEM_SUBSTANCE_SYNONYM>
SCHEMBL16125454

> <PUBCHEM_XREF_EXT_ID>
SCHEMBL16125454

> <PUBCHEM_EXT_DATASOURCE_URL>
https://www.surechembl.org/

> <PUBCHEM_EXT_SUBSTANCE_URL>
https://www.surechembl.org/chemical/SCHEMBL16125454

> <PUBCHEM_CID_ASSOCIATIONS>
71577813  1

> <PUBCHEM_COORDINATE_TYPE>
1
3

> <PUBCHEM_BONDANNOTATIONS>
25  35  6

$$$$
