310944642
  -OEChem-07211613022D

 31 33  0     0  0  0  0  0  0999 V2000
   -3.0290   -0.8407    0.0000 Cl  0  0  0  0  0  0  0  0  0  0  0  0
   -2.1388    2.0399    0.0000 Cl  0  0  0  0  0  0  0  0  0  0  0  0
   -4.9948    2.0399    0.0000 F   0  0  0  0  0  0  0  0  0  0  0  0
   -0.0124   -0.8407    0.0000 O   0  0  0  0  0  0  0  0  0  0  0  0
    1.4094    1.6319    0.0000 O   0  0  0  0  0  0  0  0  0  0  0  0
    4.9948   -0.4327    0.0000 O   0  0  0  0  0  0  0  0  0  0  0  0
    0.0000    0.8036    0.0000 N   0  0  0  0  0  0  0  0  0  0  0  0
    2.1512    0.3956    0.0000 N   0  0  0  0  0  0  0  0  0  0  0  0
    3.5854   -0.4327    0.0000 N   0  0  0  0  0  0  0  0  0  0  0  0
   -2.1388    0.3956    0.0000 C   0  0  0  0  0  0  0  0  0  0  0  0
   -2.8682    0.8160    0.0000 C   0  0  0  0  0  0  0  0  0  0  0  0
   -0.7171    0.4080    0.0000 C   0  0  0  0  0  0  0  0  0  0  0  0
   -2.1512   -0.4204    0.0000 C   0  0  0  0  0  0  0  0  0  0  0  0
   -0.7294   -0.4204    0.0000 C   0  0  0  0  0  0  0  0  0  0  0  0
   -1.4217    0.8036    0.0000 C   0  0  0  0  0  0  0  0  0  0  0  0
   -2.8559    1.6443    0.0000 C   0  0  0  0  0  0  0  0  0  0  0  0
   -1.4217   -0.8407    0.0000 C   0  0  0  0  0  0  0  0  0  0  0  0
   -3.5854    0.4080    0.0000 C   0  0  0  0  0  0  0  0  0  0  0  0
   -3.5730    2.0399    0.0000 C   0  0  0  0  0  0  0  0  0  0  0  0
   -4.2901    1.6319    0.0000 C   0  0  0  0  0  0  0  0  0  0  0  0
    1.4217    0.7912    0.0000 C   0  0  0  0  0  0  0  0  0  0  0  0
   -4.2777    0.8160    0.0000 C   0  0  0  0  0  0  0  0  0  0  0  0
    0.7171    0.3956    0.0000 C   0  0  0  0  0  0  0  0  0  0  0  0
    2.8559    0.8036    0.0000 C   0  0  0  0  0  0  0  0  0  0  0  0
    2.1636   -0.4327    0.0000 C   0  0  0  0  0  0  0  0  0  0  0  0
    3.5730    0.3956    0.0000 C   0  0  0  0  0  0  0  0  0  0  0  0
    2.8682   -0.8407    0.0000 C   0  0  0  0  0  0  0  0  0  0  0  0
    4.2901   -0.8407    0.0000 C   0  0  0  0  0  0  0  0  0  0  0  0
    0.7171   -0.4327    0.0000 C   0  0  0  0  0  0  0  0  0  0  0  0
    4.2901   -1.6690    0.0000 C   0  0  0  0  0  0  0  0  0  0  0  0
    3.5483   -2.0399    0.0000 C   0  0  0  0  0  0  0  0  0  0  0  0
  1 13  1  0  0  0  0
  2 16  1  0  0  0  0
  3 20  1  0  0  0  0
  4 14  1  0  0  0  0
  4 29  1  0  0  0  0
  5 21  2  0  0  0  0
  6 28  2  0  0  0  0
  7 12  1  0  0  0  0
  7 23  1  0  0  0  0
  8 21  1  0  0  0  0
  8 24  1  0  0  0  0
  8 25  1  0  0  0  0
  9 26  1  0  0  0  0
  9 27  1  0  0  0  0
  9 28  1  0  0  0  0
 10 11  1  0  0  0  0
 10 13  2  0  0  0  0
 10 15  1  0  0  0  0
 11 16  1  0  0  0  0
 11 18  2  0  0  0  0
 12 14  1  0  0  0  0
 12 15  2  0  0  0  0
 13 17  1  0  0  0  0
 14 17  2  0  0  0  0
 16 19  2  0  0  0  0
 18 22  1  0  0  0  0
 19 20  1  0  0  0  0
 20 22  2  0  0  0  0
 21 23  1  0  0  0  0
 24 26  1  0  0  0  0
 25 27  1  0  0  0  0
 28 30  1  0  0  0  0
 30 31  2  0  0  0  0
M  END
> <PUBCHEM_COMPOUND_ID_TYPE>
0

> <PUBCHEM_TOTAL_CHARGE>
0

> <PUBCHEM_SUBSTANCE_ID>
310944642

> <PUBCHEM_SUBSTANCE_VERSION>
1

> <PUBCHEM_EXT_DATASOURCE_NAME>
4488

> <PUBCHEM_EXT_DATASOURCE_REGID>
SCHEMBL16122720

> <PUBCHEM_SUBSTANCE_COMMENT>
InChI=1S/C22H22Cl2FN3O3/c1-3-21(29)27-6-8-28(9-7-27)22(30)13-26-19-11-16(18(24)12-20(19)31-2)15-5-4-14(25)10-17(15)23/h3-5,10-12,26H,1,6-9,13H2,2H3
InChIKey=MDZRBJRLEIAAPO-UHFFFAOYSA-N

> <PUBCHEM_SUBSTANCE_SYNONYM>
SCHEMBL16122720

> <PUBCHEM_XREF_EXT_ID>
SCHEMBL16122720

> <PUBCHEM_EXT_DATASOURCE_URL>
https://www.surechembl.org/

> <PUBCHEM_EXT_SUBSTANCE_URL>
https://www.surechembl.org/chemical/SCHEMBL16122720

> <PUBCHEM_CID_ASSOCIATIONS>
117610872  1

> <PUBCHEM_COORDINATE_TYPE>
1
3

$$$$
