310942506
  -OEChem-07211613022D

 19 19  0     1  0  0  0  0  0999 V2000
    0.4717   -0.4417    0.0000 O   0  0  0  0  0  0  0  0  0  0  0  0
   -0.8311   -0.3070    0.0000 O   0  0  0  0  0  0  0  0  0  0  0  0
    0.0374    2.9126    0.0000 O   0  0  0  0  0  0  0  0  0  0  0  0
   -0.1572    0.7413    0.0000 N   0  0  0  0  0  0  0  0  0  0  0  0
   -0.9659    1.9243    0.0000 C   0  0  3  0  0  0  0  0  0  0  0  0
   -0.1722    2.1789    0.0000 C   0  0  3  0  0  0  0  0  0  0  0  0
   -0.0973   -0.0075    0.0000 C   0  0  0  0  0  0  0  0  0  0  0  0
    1.0407   -1.6248    0.0000 C   0  0  0  0  0  0  0  0  0  0  0  0
   -0.9659    1.0857    0.0000 C   0  0  0  0  0  0  0  0  0  0  0  0
    0.5017   -1.2354    0.0000 C   0  0  0  0  0  0  0  0  0  0  0  0
   -1.6547    2.3585    0.0000 C   0  0  0  0  0  0  0  0  0  0  0  0
    0.9808   -2.4484    0.0000 C   0  0  0  0  0  0  0  0  0  0  0  0
    1.7895   -1.2804    0.0000 C   0  0  0  0  0  0  0  0  0  0  0  0
    0.3219    1.4900    0.0000 C   0  0  0  0  0  0  0  0  0  0  0  0
    1.6397   -2.9126    0.0000 C   0  0  0  0  0  0  0  0  0  0  0  0
    2.4783   -1.7595    0.0000 C   0  0  0  0  0  0  0  0  0  0  0  0
    2.4035   -2.5682    0.0000 C   0  0  0  0  0  0  0  0  0  0  0  0
   -2.4783    2.1339    0.0000 C   0  0  0  0  0  0  0  0  0  0  0  0
    0.0524    1.0707    0.0000 C   0  0  0  0  0  0  0  0  0  0  0  0
  1  7  1  0  0  0  0
  1 10  1  0  0  0  0
  2  7  2  0  0  0  0
  6  3  1  1  0  0  0
  4  7  1  0  0  0  0
  4  9  1  0  0  0  0
  5  6  1  0  0  0  0
  5  9  1  0  0  0  0
  5 11  1  6  0  0  0
  6 14  1  0  0  0  0
  8 10  1  0  0  0  0
  8 12  2  0  0  0  0
  8 13  1  0  0  0  0
 11 18  2  0  0  0  0
 12 15  1  0  0  0  0
 13 16  2  0  0  0  0
 14 19  1  0  0  0  0
 15 17  2  0  0  0  0
 16 17  1  0  0  0  0
M  END
> <PUBCHEM_COMPOUND_ID_TYPE>
0

> <PUBCHEM_TOTAL_CHARGE>
0

> <PUBCHEM_SUBSTANCE_ID>
310942506

> <PUBCHEM_SUBSTANCE_VERSION>
1

> <PUBCHEM_EXT_DATASOURCE_NAME>
4488

> <PUBCHEM_EXT_DATASOURCE_REGID>
SCHEMBL16120542

> <PUBCHEM_SUBSTANCE_COMMENT>
InChI=1S/C15H21NO3/c1-3-13(14(17)4-2)10-16-15(18)19-11-12-8-6-5-7-9-12/h3,5-9,13-14,17H,1,4,10-11H2,2H3,(H,16,18)/t13-,14-/m0/s1
InChIKey=OSBKWWXUANOAQC-KBPBESRZSA-N

> <PUBCHEM_SUBSTANCE_SYNONYM>
SCHEMBL16120542

> <PUBCHEM_XREF_EXT_ID>
SCHEMBL16120542

> <PUBCHEM_EXT_DATASOURCE_URL>
https://www.surechembl.org/

> <PUBCHEM_EXT_SUBSTANCE_URL>
https://www.surechembl.org/chemical/SCHEMBL16120542

> <PUBCHEM_CID_ASSOCIATIONS>
117609076  1

> <PUBCHEM_COORDINATE_TYPE>
1
3

> <PUBCHEM_BONDANNOTATIONS>
6  3  5
5  11  6

$$$$
