310933601
  -OEChem-07211613022D

 44 49  0     1  0  0  0  0  0999 V2000
    0.0000   -3.0670    0.0000 Cl  0  0  0  0  0  0  0  0  0  0  0  0
    1.6142   -2.9378    0.0000 F   0  0  0  0  0  0  0  0  0  0  0  0
    4.0032   -3.9063    0.0000 O   0  0  0  0  0  0  0  0  0  0  0  0
    4.6165   -5.8110    0.0000 O   0  0  0  0  0  0  0  0  0  0  0  0
    3.9063   -3.7126    0.0000 O   0  0  0  0  0  0  0  0  0  0  0  0
    8.2323   -1.2268    0.0000 O   0  0  0  0  0  0  0  0  0  0  0  0
    7.5220    0.0000    0.0000 O   0  0  0  0  0  0  0  0  0  0  0  0
    5.3268   -4.5843    0.0000 N   0  0  0  0  0  0  0  0  0  0  0  0
    4.6165   -2.4858    0.0000 N   0  0  0  0  0  0  0  0  0  0  0  0
    3.0024   -3.5512    0.0000 N   0  0  0  0  0  0  0  0  0  0  0  0
    8.9103   -5.0363    0.0000 N   0  0  0  0  0  0  0  0  0  0  0  0
    9.6528   -3.8095    0.0000 N   0  0  0  0  0  0  0  0  0  0  0  0
    5.3591   -3.7126    0.0000 C   0  0  3  0  0  0  0  0  0  0  0  0
    6.0693   -3.3252    0.0000 C   0  0  0  0  0  0  0  0  0  0  0  0
    6.7795   -3.7449    0.0000 C   0  0  0  0  0  0  0  0  0  0  0  0
    4.6165   -4.9717    0.0000 C   0  0  0  0  0  0  0  0  0  0  0  0
    7.4898   -3.3575    0.0000 C   0  0  0  0  0  0  0  0  0  0  0  0
    4.6165   -3.3252    0.0000 C   0  0  0  0  0  0  0  0  0  0  0  0
    3.9063   -4.5520    0.0000 C   0  0  3  0  0  0  0  0  0  0  0  0
    6.0370   -4.9717    0.0000 C   0  0  0  0  0  0  0  0  0  0  0  0
    6.7795   -4.5843    0.0000 C   0  0  0  0  0  0  0  0  0  0  0  0
    6.2307   -2.6796    0.0000 C   0  0  0  0  0  0  0  0  0  0  0  0
    8.2000   -3.7772    0.0000 C   0  0  0  0  0  0  0  0  0  0  0  0
    2.5827   -4.2614    0.0000 C   0  0  0  0  0  0  0  0  0  0  0  0
    7.4898   -2.5181    0.0000 C   0  0  0  0  0  0  0  0  0  0  0  0
    3.1315   -4.9071    0.0000 C   0  0  0  0  0  0  0  0  0  0  0  0
    1.7756   -4.3583    0.0000 C   0  0  0  0  0  0  0  0  0  0  0  0
    6.9410   -2.2598    0.0000 C   0  0  0  0  0  0  0  0  0  0  0  0
    1.2914   -3.6803    0.0000 C   0  0  0  0  0  0  0  0  0  0  0  0
    5.3591   -2.0661    0.0000 C   0  0  0  0  0  0  0  0  0  0  0  0
    8.2323   -4.6165    0.0000 C   0  0  0  0  0  0  0  0  0  0  0  0
    8.9425   -3.3898    0.0000 C   0  0  0  0  0  0  0  0  0  0  0  0
    1.4205   -5.1008    0.0000 C   0  0  0  0  0  0  0  0  0  0  0  0
    0.4520   -3.7772    0.0000 C   0  0  0  0  0  0  0  0  0  0  0  0
    0.6134   -5.1977    0.0000 C   0  0  0  0  0  0  0  0  0  0  0  0
    5.3591   -1.2268    0.0000 C   0  0  0  0  0  0  0  0  0  0  0  0
    6.0693   -2.4858    0.0000 C   0  0  0  0  0  0  0  0  0  0  0  0
    0.0968   -4.5197    0.0000 C   0  0  0  0  0  0  0  0  0  0  0  0
    6.7795   -1.2268    0.0000 C   0  0  0  0  0  0  0  0  0  0  0  0
    9.6851   -4.6489    0.0000 C   0  0  0  0  0  0  0  0  0  0  0  0
    6.0693   -0.8394    0.0000 C   0  0  0  0  0  0  0  0  0  0  0  0
    6.7795   -2.0661    0.0000 C   0  0  0  0  0  0  0  0  0  0  0  0
    7.5220   -0.8394    0.0000 C   0  0  0  0  0  0  0  0  0  0  0  0
    8.9749   -0.8394    0.0000 C   0  0  0  0  0  0  0  0  0  0  0  0
  1 34  1  0  0  0  0
  2 29  1  0  0  0  0
  3 10  1  0  0  0  0
  3 19  1  0  0  0  0
  4 16  2  0  0  0  0
  5 18  2  0  0  0  0
  6 43  1  0  0  0  0
  6 44  1  0  0  0  0
  7 43  2  0  0  0  0
  8 13  1  0  0  0  0
  8 16  1  0  0  0  0
  8 20  1  0  0  0  0
  9 18  1  0  0  0  0
  9 30  1  0  0  0  0
 10 24  2  0  0  0  0
 11 31  2  0  0  0  0
 11 40  1  0  0  0  0
 12 32  1  0  0  0  0
 12 40  2  0  0  0  0
 13 14  1  0  0  0  0
 13 18  1  6  0  0  0
 14 15  2  0  0  0  0
 14 22  1  0  0  0  0
 15 17  1  0  0  0  0
 15 21  1  0  0  0  0
 19 16  1  1  0  0  0
 17 23  1  0  0  0  0
 17 25  2  0  0  0  0
 19 26  1  0  0  0  0
 20 21  1  0  0  0  0
 22 28  2  0  0  0  0
 23 31  1  0  0  0  0
 23 32  2  0  0  0  0
 24 26  1  0  0  0  0
 24 27  1  0  0  0  0
 25 28  1  0  0  0  0
 27 29  1  0  0  0  0
 27 33  2  0  0  0  0
 29 34  2  0  0  0  0
 30 36  2  0  0  0  0
 30 37  1  0  0  0  0
 33 35  1  0  0  0  0
 34 38  1  0  0  0  0
 35 38  2  0  0  0  0
 36 41  1  0  0  0  0
 37 42  2  0  0  0  0
 39 41  2  0  0  0  0
 39 42  1  0  0  0  0
 39 43  1  0  0  0  0
M  END
> <PUBCHEM_COMPOUND_ID_TYPE>
0

> <PUBCHEM_TOTAL_CHARGE>
0

> <PUBCHEM_SUBSTANCE_ID>
310933601

> <PUBCHEM_SUBSTANCE_VERSION>
1

> <PUBCHEM_EXT_DATASOURCE_NAME>
4488

> <PUBCHEM_EXT_DATASOURCE_REGID>
SCHEMBL16111030

> <PUBCHEM_SUBSTANCE_COMMENT>
InChI=1S/C32H25ClFN5O5/c1-43-32(42)18-8-10-20(11-9-18)37-30(40)29-23-5-2-4-21(19-15-35-17-36-16-19)22(23)12-13-39(29)31(41)27-14-26(38-44-27)24-6-3-7-25(33)28(24)34/h2-11,15-17,27,29H,12-14H2,1H3,(H,37,40)/t27-,29+/m1/s1
InChIKey=FAARZNRHKXNPTK-PXJZQJOASA-N

> <PUBCHEM_SUBSTANCE_SYNONYM>
SCHEMBL16111030

> <PUBCHEM_XREF_EXT_ID>
SCHEMBL16111030

> <PUBCHEM_EXT_DATASOURCE_URL>
https://www.surechembl.org/

> <PUBCHEM_EXT_SUBSTANCE_URL>
https://www.surechembl.org/chemical/SCHEMBL16111030

> <PUBCHEM_CID_ASSOCIATIONS>
117601981  1

> <PUBCHEM_COORDINATE_TYPE>
1
3

> <PUBCHEM_BONDANNOTATIONS>
13  18  6
19  16  5

$$$$
