310946352
  -OEChem-07211613022D

 25 27  0     0  0  0  0  0  0999 V2000
   -1.4289   -3.1608    0.0000 I   0  0  0  0  0  0  0  0  0  0  0  0
    0.0000   -0.6858    0.0000 I   0  0  0  0  0  0  0  0  0  0  0  0
   -1.4289   -1.5108    0.0000 O   0  0  0  0  0  0  0  0  0  0  0  0
    2.1434   -1.9233    0.0000 O   0  0  0  0  0  0  0  0  0  0  0  0
   -4.2868   -3.1608    0.0000 O   0  0  0  0  0  0  0  0  0  0  0  0
    2.8579   -3.1608    0.0000 N   0  0  0  0  0  0  0  0  0  0  0  0
   -0.7145   -1.9233    0.0000 C   0  0  0  0  0  0  0  0  0  0  0  0
   -0.7145   -2.7483    0.0000 C   0  0  0  0  0  0  0  0  0  0  0  0
    0.0000   -1.5108    0.0000 C   0  0  0  0  0  0  0  0  0  0  0  0
    0.7145   -2.7483    0.0000 C   0  0  0  0  0  0  0  0  0  0  0  0
    0.0000   -3.1608    0.0000 C   0  0  0  0  0  0  0  0  0  0  0  0
    0.7145   -1.9233    0.0000 C   0  0  0  0  0  0  0  0  0  0  0  0
   -2.1434   -1.9233    0.0000 C   0  0  0  0  0  0  0  0  0  0  0  0
    1.4289   -3.1608    0.0000 C   0  0  0  0  0  0  0  0  0  0  0  0
    2.1434   -2.7483    0.0000 C   0  0  0  0  0  0  0  0  0  0  0  0
   -2.8579   -1.5108    0.0000 C   0  0  0  0  0  0  0  0  0  0  0  0
   -2.1434   -2.7483    0.0000 C   0  0  0  0  0  0  0  0  0  0  0  0
   -3.5724   -2.7483    0.0000 C   0  0  0  0  0  0  0  0  0  0  0  0
   -3.5724   -1.9233    0.0000 C   0  0  0  0  0  0  0  0  0  0  0  0
   -2.8579   -3.1608    0.0000 C   0  0  0  0  0  0  0  0  0  0  0  0
    2.8579   -3.9858    0.0000 C   0  0  0  0  0  0  0  0  0  0  0  0
    3.5724   -2.7483    0.0000 C   0  0  0  0  0  0  0  0  0  0  0  0
    3.5724   -4.3983    0.0000 C   0  0  0  0  0  0  0  0  0  0  0  0
    4.2868   -3.1608    0.0000 C   0  0  0  0  0  0  0  0  0  0  0  0
    4.2868   -3.9858    0.0000 C   0  0  0  0  0  0  0  0  0  0  0  0
  1  8  1  0  0  0  0
  2  9  1  0  0  0  0
  3  7  1  0  0  0  0
  3 13  1  0  0  0  0
  4 15  2  0  0  0  0
  5 18  1  0  0  0  0
  6 15  1  0  0  0  0
  6 21  1  0  0  0  0
  6 22  1  0  0  0  0
  7  8  2  0  0  0  0
  7  9  1  0  0  0  0
  8 11  1  0  0  0  0
  9 12  2  0  0  0  0
 10 11  2  0  0  0  0
 10 12  1  0  0  0  0
 10 14  1  0  0  0  0
 13 16  2  0  0  0  0
 13 17  1  0  0  0  0
 14 15  1  0  0  0  0
 16 19  1  0  0  0  0
 17 20  2  0  0  0  0
 18 19  2  0  0  0  0
 18 20  1  0  0  0  0
 21 23  1  0  0  0  0
 22 24  1  0  0  0  0
 23 25  1  0  0  0  0
 24 25  1  0  0  0  0
M  END
> <PUBCHEM_COMPOUND_ID_TYPE>
0

> <PUBCHEM_TOTAL_CHARGE>
0

> <PUBCHEM_SUBSTANCE_ID>
310946352

> <PUBCHEM_SUBSTANCE_VERSION>
1

> <PUBCHEM_EXT_DATASOURCE_NAME>
4488

> <PUBCHEM_EXT_DATASOURCE_REGID>
SCHEMBL16124471

> <PUBCHEM_SUBSTANCE_COMMENT>
InChI=1S/C19H19I2NO3/c20-16-10-13(12-18(24)22-8-2-1-3-9-22)11-17(21)19(16)25-15-6-4-14(23)5-7-15/h4-7,10-11,23H,1-3,8-9,12H2
InChIKey=MNODJSPKKWNBQO-UHFFFAOYSA-N

> <PUBCHEM_SUBSTANCE_SYNONYM>
SCHEMBL16124471

> <PUBCHEM_XREF_EXT_ID>
SCHEMBL16124471

> <PUBCHEM_EXT_DATASOURCE_URL>
https://www.surechembl.org/

> <PUBCHEM_EXT_SUBSTANCE_URL>
https://www.surechembl.org/chemical/SCHEMBL16124471

> <PUBCHEM_CID_ASSOCIATIONS>
117612275  1

> <PUBCHEM_COORDINATE_TYPE>
1
3

$$$$
