310944854
  -OEChem-07211613022D

 32 31  0     1  0  0  0  0  0999 V2000
   -3.1965   -0.2406    0.0000 O   0  0  0  0  0  0  0  0  0  0  0  0
   -0.3644   -1.0517    0.0000 O   0  0  0  0  0  0  0  0  0  0  0  0
   -1.0380   -2.2753    0.0000 O   0  0  0  0  0  0  0  0  0  0  0  0
   -5.3138   -2.2479    0.0000 O   0  0  0  0  0  0  0  0  0  0  0  0
   -6.0837   -1.0930    0.0000 O   0  0  0  0  0  0  0  0  0  0  0  0
   -1.7804    1.4505    0.0000 O   0  0  0  0  0  0  0  0  0  0  0  0
   -6.0424    1.3542    0.0000 O   0  0  0  0  0  0  0  0  0  0  0  0
   -4.6676    1.4505    0.0000 O   0  0  0  0  0  0  0  0  0  0  0  0
    5.3688    2.2753    0.0000 O   0  0  0  0  0  0  0  0  0  0  0  0
   -2.4816   -1.4642    0.0000 N   0  0  0  0  0  0  0  0  0  0  0  0
   -3.8977   -1.4642    0.0000 N   0  0  0  0  0  0  0  0  0  0  0  0
   -0.3231    1.4367    0.0000 N   0  0  0  0  0  0  0  0  0  0  0  0
    6.0837    1.0105    0.0000 N   0  0  0  0  0  0  0  0  0  0  0  0
   -1.7804   -0.9967    0.0000 C   0  0  3  0  0  0  0  0  0  0  0  0
   -4.6401   -1.0105    0.0000 C   0  0  3  0  0  0  0  0  0  0  0  0
   -3.2103   -1.0105    0.0000 C   0  0  0  0  0  0  0  0  0  0  0  0
   -1.0517   -1.4505    0.0000 C   0  0  0  0  0  0  0  0  0  0  0  0
   -5.3550   -1.4505    0.0000 C   0  0  0  0  0  0  0  0  0  0  0  0
   -1.7667   -0.1718    0.0000 C   0  0  0  0  0  0  0  0  0  0  0  0
   -4.6401   -0.1856    0.0000 C   0  0  0  0  0  0  0  0  0  0  0  0
   -1.0655    0.2269    0.0000 C   0  0  0  0  0  0  0  0  0  0  0  0
   -1.0517    1.0655    0.0000 C   0  0  0  0  0  0  0  0  0  0  0  0
   -5.3413    0.2406    0.0000 C   0  0  0  0  0  0  0  0  0  0  0  0
   -5.3550    1.0105    0.0000 C   0  0  0  0  0  0  0  0  0  0  0  0
    0.3644    1.0655    0.0000 C   0  0  0  0  0  0  0  0  0  0  0  0
    1.0792    1.4779    0.0000 C   0  0  0  0  0  0  0  0  0  0  0  0
    1.7941    1.0655    0.0000 C   0  0  0  0  0  0  0  0  0  0  0  0
    2.5091    1.4917    0.0000 C   0  0  0  0  0  0  0  0  0  0  0  0
    3.2240    1.0792    0.0000 C   0  0  0  0  0  0  0  0  0  0  0  0
    3.9252    1.4779    0.0000 C   0  0  0  0  0  0  0  0  0  0  0  0
    4.6813    1.0792    0.0000 C   0  0  0  0  0  0  0  0  0  0  0  0
    5.3550    1.4779    0.0000 C   0  0  0  0  0  0  0  0  0  0  0  0
  1 16  2  0  0  0  0
  2 17  2  0  0  0  0
  3 17  1  0  0  0  0
  4 18  2  0  0  0  0
  5 18  1  0  0  0  0
  6 22  2  0  0  0  0
  7 24  2  0  0  0  0
  8 24  1  0  0  0  0
  9 32  2  0  0  0  0
 14 10  1  1  0  0  0
 10 16  1  0  0  0  0
 15 11  1  6  0  0  0
 11 16  1  0  0  0  0
 12 22  1  0  0  0  0
 12 25  1  0  0  0  0
 13 32  1  0  0  0  0
 14 17  1  0  0  0  0
 14 19  1  0  0  0  0
 15 18  1  0  0  0  0
 15 20  1  0  0  0  0
 19 21  1  0  0  0  0
 20 23  1  0  0  0  0
 21 22  1  0  0  0  0
 23 24  1  0  0  0  0
 25 26  1  0  0  0  0
 26 27  1  0  0  0  0
 27 28  1  0  0  0  0
 28 29  1  0  0  0  0
 29 30  1  0  0  0  0
 30 31  1  0  0  0  0
 31 32  1  0  0  0  0
M  END
> <PUBCHEM_COMPOUND_ID_TYPE>
0

> <PUBCHEM_TOTAL_CHARGE>
0

> <PUBCHEM_SUBSTANCE_ID>
310944854

> <PUBCHEM_SUBSTANCE_VERSION>
1

> <PUBCHEM_EXT_DATASOURCE_NAME>
4488

> <PUBCHEM_EXT_DATASOURCE_REGID>
SCHEMBL16122936

> <PUBCHEM_SUBSTANCE_COMMENT>
InChI=1S/C19H32N4O9/c20-14(24)6-4-2-1-3-5-11-21-15(25)9-7-12(17(28)29)22-19(32)23-13(18(30)31)8-10-16(26)27/h12-13H,1-11H2,(H2,20,24)(H,21,25)(H,26,27)(H,28,29)(H,30,31)(H2,22,23,32)/t12-,13-/m0/s1
InChIKey=BCKDQYZPFXOHIS-STQMWFEESA-N

> <PUBCHEM_SUBSTANCE_SYNONYM>
SCHEMBL16122936

> <PUBCHEM_XREF_EXT_ID>
SCHEMBL16122936

> <PUBCHEM_EXT_DATASOURCE_URL>
https://www.surechembl.org/

> <PUBCHEM_EXT_SUBSTANCE_URL>
https://www.surechembl.org/chemical/SCHEMBL16122936

> <PUBCHEM_CID_ASSOCIATIONS>
117611052  1

> <PUBCHEM_COORDINATE_TYPE>
1
3

> <PUBCHEM_BONDANNOTATIONS>
14  10  5
15  11  6

$$$$
