310945090
  -OEChem-07211613022D

 32 37  0     0  0  0  0  0  0999 V2000
   -2.9782   -1.9319    0.0000 O   0  0  0  0  0  0  0  0  0  0  0  0
    3.9442    1.5294    0.0000 O   0  0  0  0  0  0  0  0  0  0  0  0
   -2.8777    1.0464    0.0000 O   0  0  0  0  0  0  0  0  0  0  0  0
    1.9922   -0.4427    0.0000 N   0  0  0  0  0  0  0  0  0  0  0  0
    0.2415    0.0201    0.0000 N   0  0  0  0  0  0  0  0  0  0  0  0
   -0.7043    1.0866    0.0000 N   0  0  0  0  0  0  0  0  0  0  0  0
   -3.3204   -0.3220    0.0000 N   0  0  0  0  0  0  0  0  0  0  0  0
    4.3869    0.1610    0.0000 N   0  0  0  0  0  0  0  0  0  0  0  0
    1.6501    0.3421    0.0000 C   0  0  0  0  0  0  0  0  0  0  0  0
    2.2538    0.8854    0.0000 C   0  0  0  0  0  0  0  0  0  0  0  0
    2.9984    0.4628    0.0000 C   0  0  0  0  0  0  0  0  0  0  0  0
    0.8653    0.6238    0.0000 C   0  0  0  0  0  0  0  0  0  0  0  0
    2.8173   -0.3421    0.0000 C   0  0  0  0  0  0  0  0  0  0  0  0
    0.6842    1.3885    0.0000 C   0  0  0  0  0  0  0  0  0  0  0  0
   -0.5434    0.3019    0.0000 C   0  0  0  0  0  0  0  0  0  0  0  0
    2.0928    1.6703    0.0000 C   0  0  0  0  0  0  0  0  0  0  0  0
    3.7430    0.7043    0.0000 C   0  0  0  0  0  0  0  0  0  0  0  0
   -1.1269   -0.2616    0.0000 C   0  0  0  0  0  0  0  0  0  0  0  0
    1.3080    1.9319    0.0000 C   0  0  0  0  0  0  0  0  0  0  0  0
   -2.5355   -0.5635    0.0000 C   0  0  0  0  0  0  0  0  0  0  0  0
   -0.0805    1.6501    0.0000 C   0  0  0  0  0  0  0  0  0  0  0  0
    3.4813   -0.8854    0.0000 C   0  0  0  0  0  0  0  0  0  0  0  0
   -2.3746   -1.3684    0.0000 C   0  0  0  0  0  0  0  0  0  0  0  0
   -1.9319   -0.0201    0.0000 C   0  0  0  0  0  0  0  0  0  0  0  0
   -0.9861   -1.0665    0.0000 C   0  0  0  0  0  0  0  0  0  0  0  0
    4.2058   -0.6439    0.0000 C   0  0  0  0  0  0  0  0  0  0  0  0
   -1.5696   -1.6099    0.0000 C   0  0  0  0  0  0  0  0  0  0  0  0
   -3.5015    0.4830    0.0000 C   0  0  0  0  0  0  0  0  0  0  0  0
   -3.9241   -0.8854    0.0000 C   0  0  0  0  0  0  0  0  0  0  0  0
   -3.7631   -1.6703    0.0000 C   0  0  0  0  0  0  0  0  0  0  0  0
   -4.2863    0.7647    0.0000 C   0  0  0  0  0  0  0  0  0  0  0  0
   -4.3869    1.5897    0.0000 C   0  0  0  0  0  0  0  0  0  0  0  0
  1 23  1  0  0  0  0
  1 30  1  0  0  0  0
  2 17  2  0  0  0  0
  3 28  2  0  0  0  0
  4  9  1  0  0  0  0
  4 13  1  0  0  0  0
  5 12  1  0  0  0  0
  5 15  2  0  0  0  0
  6 15  1  0  0  0  0
  6 21  2  0  0  0  0
  7 20  1  0  0  0  0
  7 28  1  0  0  0  0
  7 29  1  0  0  0  0
  8 17  1  0  0  0  0
  8 26  1  0  0  0  0
  9 10  2  0  0  0  0
  9 12  1  0  0  0  0
 10 11  1  0  0  0  0
 10 16  1  0  0  0  0
 11 13  2  0  0  0  0
 11 17  1  0  0  0  0
 12 14  2  0  0  0  0
 13 22  1  0  0  0  0
 14 19  1  0  0  0  0
 14 21  1  0  0  0  0
 15 18  1  0  0  0  0
 16 19  1  0  0  0  0
 18 24  2  0  0  0  0
 18 25  1  0  0  0  0
 20 23  2  0  0  0  0
 20 24  1  0  0  0  0
 22 26  1  0  0  0  0
 23 27  1  0  0  0  0
 25 27  2  0  0  0  0
 28 31  1  0  0  0  0
 29 30  1  0  0  0  0
 31 32  2  0  0  0  0
M  END
> <PUBCHEM_COMPOUND_ID_TYPE>
0

> <PUBCHEM_TOTAL_CHARGE>
0

> <PUBCHEM_SUBSTANCE_ID>
310945090

> <PUBCHEM_SUBSTANCE_VERSION>
1

> <PUBCHEM_EXT_DATASOURCE_NAME>
4488

> <PUBCHEM_EXT_DATASOURCE_REGID>
SCHEMBL16123180

> <PUBCHEM_SUBSTANCE_COMMENT>
InChI=1S/C24H21N5O3/c1-2-19(30)29-9-10-32-18-6-4-13(11-17(18)29)23-26-12-14-3-5-15-20-16(7-8-25-24(20)31)27-22(15)21(14)28-23/h2,4,6,11-12,27H,1,3,5,7-10H2,(H,25,31)
InChIKey=VXNMYBBOBZATEJ-UHFFFAOYSA-N

> <PUBCHEM_SUBSTANCE_SYNONYM>
SCHEMBL16123180

> <PUBCHEM_XREF_EXT_ID>
SCHEMBL16123180

> <PUBCHEM_EXT_DATASOURCE_URL>
https://www.surechembl.org/

> <PUBCHEM_EXT_SUBSTANCE_URL>
https://www.surechembl.org/chemical/SCHEMBL16123180

> <PUBCHEM_CID_ASSOCIATIONS>
86300602  1

> <PUBCHEM_COORDINATE_TYPE>
1
3

$$$$
