310943194
  -OEChem-07211613022D

 35 38  0     0  0  0  0  0  0999 V2000
    4.7178   -1.5141    0.0000 F   0  0  0  0  0  0  0  0  0  0  0  0
    3.8986   -2.3187    0.0000 F   0  0  0  0  0  0  0  0  0  0  0  0
    3.1086   -1.4995    0.0000 F   0  0  0  0  0  0  0  0  0  0  0  0
   -3.3280   -0.5925    0.0000 O   0  0  0  0  0  0  0  0  0  0  0  0
   -4.7032    1.9090    0.0000 O   0  0  0  0  0  0  0  0  0  0  0  0
   -4.0156   -0.1682    0.0000 O   0  0  0  0  0  0  0  0  0  0  0  0
    2.4796    1.8066    0.0000 O   0  0  0  0  0  0  0  0  0  0  0  0
   -3.2988    1.0606    0.0000 N   0  0  0  0  0  0  0  0  0  0  0  0
   -1.8944   -0.6217    0.0000 N   0  0  0  0  0  0  0  0  0  0  0  0
    1.7628    0.5779    0.0000 N   0  0  0  0  0  0  0  0  0  0  0  0
   -2.5820    0.6364    0.0000 C   0  0  0  0  0  0  0  0  0  0  0  0
   -1.1483    0.6071    0.0000 C   0  0  0  0  0  0  0  0  0  0  0  0
   -0.3876    0.9874    0.0000 C   0  0  0  0  0  0  0  0  0  0  0  0
   -2.5966   -0.1828    0.0000 C   0  0  0  0  0  0  0  0  0  0  0  0
   -1.8651    1.0313    0.0000 C   0  0  0  0  0  0  0  0  0  0  0  0
   -1.1776   -0.2267    0.0000 C   0  0  0  0  0  0  0  0  0  0  0  0
   -0.3876    1.8213    0.0000 C   0  0  0  0  0  0  0  0  0  0  0  0
    0.3437    0.5779    0.0000 C   0  0  0  0  0  0  0  0  0  0  0  0
   -4.0156    0.6949    0.0000 C   0  0  0  0  0  0  0  0  0  0  0  0
    1.0313    1.0020    0.0000 C   0  0  0  0  0  0  0  0  0  0  0  0
   -3.2695    1.8798    0.0000 C   0  0  0  0  0  0  0  0  0  0  0  0
    3.1964    0.5779    0.0000 C   0  0  0  0  0  0  0  0  0  0  0  0
    0.3291    2.2163    0.0000 C   0  0  0  0  0  0  0  0  0  0  0  0
    2.4649    0.9582    0.0000 C   0  0  0  0  0  0  0  0  0  0  0  0
    3.9132   -0.6656    0.0000 C   0  0  0  0  0  0  0  0  0  0  0  0
    1.0313    1.8213    0.0000 C   0  0  0  0  0  0  0  0  0  0  0  0
    3.8986   -1.4995    0.0000 C   0  0  0  0  0  0  0  0  0  0  0  0
    3.1964   -0.2560    0.0000 C   0  0  0  0  0  0  0  0  0  0  0  0
   -4.7178    1.0898    0.0000 C   0  0  0  0  0  0  0  0  0  0  0  0
   -1.8944   -1.4556    0.0000 C   0  0  0  0  0  0  0  0  0  0  0  0
   -3.9864    2.3187    0.0000 C   0  0  0  0  0  0  0  0  0  0  0  0
    3.8986    0.9728    0.0000 C   0  0  0  0  0  0  0  0  0  0  0  0
    4.6154   -0.2413    0.0000 C   0  0  0  0  0  0  0  0  0  0  0  0
   -1.1191    2.2163    0.0000 C   0  0  0  0  0  0  0  0  0  0  0  0
    4.6154    0.5632    0.0000 C   0  0  0  0  0  0  0  0  0  0  0  0
  1 27  1  0  0  0  0
  2 27  1  0  0  0  0
  3 27  1  0  0  0  0
  4 14  2  0  0  0  0
  5 29  1  0  0  0  0
  5 31  1  0  0  0  0
  6 19  2  0  0  0  0
  7 24  2  0  0  0  0
  8 11  1  0  0  0  0
  8 19  1  0  0  0  0
  8 21  1  0  0  0  0
  9 14  1  0  0  0  0
  9 16  1  0  0  0  0
  9 30  1  0  0  0  0
 10 20  1  0  0  0  0
 10 24  1  0  0  0  0
 11 14  1  0  0  0  0
 11 15  2  0  0  0  0
 12 13  1  0  0  0  0
 12 15  1  0  0  0  0
 12 16  2  0  0  0  0
 13 17  2  0  0  0  0
 13 18  1  0  0  0  0
 17 23  1  0  0  0  0
 17 34  1  0  0  0  0
 18 20  2  0  0  0  0
 19 29  1  0  0  0  0
 20 26  1  0  0  0  0
 21 31  1  0  0  0  0
 22 24  1  0  0  0  0
 22 28  2  0  0  0  0
 22 32  1  0  0  0  0
 23 26  2  0  0  0  0
 25 27  1  0  0  0  0
 25 28  1  0  0  0  0
 25 33  2  0  0  0  0
 32 35  2  0  0  0  0
 33 35  1  0  0  0  0
M  END
> <PUBCHEM_COMPOUND_ID_TYPE>
0

> <PUBCHEM_TOTAL_CHARGE>
0

> <PUBCHEM_SUBSTANCE_ID>
310943194

> <PUBCHEM_SUBSTANCE_VERSION>
1

> <PUBCHEM_EXT_DATASOURCE_NAME>
4488

> <PUBCHEM_EXT_DATASOURCE_REGID>
SCHEMBL16121255

> <PUBCHEM_SUBSTANCE_COMMENT>
InChI=1S/C25H22F3N3O4/c1-15-6-7-19(29-23(33)16-4-3-5-18(10-16)25(26,27)28)12-20(15)17-11-21(24(34)30(2)13-17)31-8-9-35-14-22(31)32/h3-7,10-13H,8-9,14H2,1-2H3,(H,29,33)
InChIKey=NJKVYAPTPKCZKS-UHFFFAOYSA-N

> <PUBCHEM_SUBSTANCE_SYNONYM>
SCHEMBL16121255

> <PUBCHEM_XREF_EXT_ID>
SCHEMBL16121255

> <PUBCHEM_EXT_DATASOURCE_URL>
https://www.surechembl.org/

> <PUBCHEM_EXT_SUBSTANCE_URL>
https://www.surechembl.org/chemical/SCHEMBL16121255

> <PUBCHEM_CID_ASSOCIATIONS>
117609622  1

> <PUBCHEM_COORDINATE_TYPE>
1
3

$$$$
