310932950
  -OEChem-07211613022D

 29 31  0     0  0  0  0  0  0999 V2000
    2.8653   -2.1489    0.0000 O   0  0  0  0  0  0  0  0  0  0  0  0
    0.1364   -2.3877    0.0000 O   0  0  0  0  0  0  0  0  0  0  0  0
    7.3678   -2.2171    0.0000 O   0  0  0  0  0  0  0  0  0  0  0  0
    8.8004   -3.8544    0.0000 O   0  0  0  0  0  0  0  0  0  0  0  0
    3.7862   -0.9892    0.0000 N   0  0  0  0  0  0  0  0  0  0  0  0
    3.6839   -0.1706    0.0000 N   0  0  0  0  0  0  0  0  0  0  0  0
    5.2189   -0.9892    0.0000 N   0  0  0  0  0  0  0  0  0  0  0  0
    0.0000   -0.9892    0.0000 N   0  0  0  0  0  0  0  0  0  0  0  0
    6.6515   -3.4792    0.0000 N   0  0  0  0  0  0  0  0  0  0  0  0
    2.4559   -0.7163    0.0000 C   0  0  0  0  0  0  0  0  0  0  0  0
    3.0358   -1.3303    0.0000 C   0  0  0  0  0  0  0  0  0  0  0  0
    4.5026   -1.3985    0.0000 C   0  0  0  0  0  0  0  0  0  0  0  0
    1.6373   -0.8186    0.0000 C   0  0  0  0  0  0  0  0  0  0  0  0
    2.8653    0.0000    0.0000 C   0  0  0  0  0  0  0  0  0  0  0  0
    4.5026   -2.2171    0.0000 C   0  0  0  0  0  0  0  0  0  0  0  0
    1.3303   -1.6032    0.0000 C   0  0  0  0  0  0  0  0  0  0  0  0
    5.9351   -2.2171    0.0000 C   0  0  0  0  0  0  0  0  0  0  0  0
    1.1597   -0.1706    0.0000 C   0  0  0  0  0  0  0  0  0  0  0  0
    0.4776   -1.6373    0.0000 C   0  0  0  0  0  0  0  0  0  0  0  0
    5.9351   -1.3985    0.0000 C   0  0  0  0  0  0  0  0  0  0  0  0
    5.2189   -2.6265    0.0000 C   0  0  0  0  0  0  0  0  0  0  0  0
    6.6515   -2.6265    0.0000 C   0  0  0  0  0  0  0  0  0  0  0  0
    0.3411   -0.2047    0.0000 C   0  0  0  0  0  0  0  0  0  0  0  0
    7.3678   -3.8886    0.0000 C   0  0  0  0  0  0  0  0  0  0  0  0
    0.6140   -3.0699    0.0000 C   0  0  0  0  0  0  0  0  0  0  0  0
    8.0841   -3.4451    0.0000 C   0  0  0  0  0  0  0  0  0  0  0  0
    9.5509   -3.4451    0.0000 C   0  0  0  0  0  0  0  0  0  0  0  0
   10.2330   -3.8886    0.0000 C   0  0  0  0  0  0  0  0  0  0  0  0
    9.5509   -2.6606    0.0000 C   0  0  0  0  0  0  0  0  0  0  0  0
  1 11  1  0  0  0  0
  2 19  1  0  0  0  0
  2 25  1  0  0  0  0
  3 22  2  0  0  0  0
  4 26  1  0  0  0  0
  4 27  1  0  0  0  0
  5  6  1  0  0  0  0
  5 11  1  0  0  0  0
  5 12  1  0  0  0  0
  6 14  2  0  0  0  0
  7 12  2  0  0  0  0
  7 20  1  0  0  0  0
  8 19  1  0  0  0  0
  8 23  2  0  0  0  0
  9 22  1  0  0  0  0
  9 24  1  0  0  0  0
 10 11  2  0  0  0  0
 10 13  1  0  0  0  0
 10 14  1  0  0  0  0
 12 15  1  0  0  0  0
 13 16  1  0  0  0  0
 13 18  2  0  0  0  0
 15 21  2  0  0  0  0
 16 19  2  0  0  0  0
 17 20  2  0  0  0  0
 17 21  1  0  0  0  0
 17 22  1  0  0  0  0
 18 23  1  0  0  0  0
 24 26  1  0  0  0  0
 27 28  1  0  0  0  0
 27 29  1  0  0  0  0
M  END
> <PUBCHEM_COMPOUND_ID_TYPE>
0

> <PUBCHEM_TOTAL_CHARGE>
0

> <PUBCHEM_SUBSTANCE_ID>
310932950

> <PUBCHEM_SUBSTANCE_VERSION>
1

> <PUBCHEM_EXT_DATASOURCE_NAME>
4488

> <PUBCHEM_EXT_DATASOURCE_REGID>
SCHEMBL16110346

> <PUBCHEM_SUBSTANCE_COMMENT>
InChI=1S/C20H23N5O4/c1-13(2)29-9-8-22-19(26)15-4-5-17(23-11-15)25-20(27)16(12-24-25)14-6-7-21-18(10-14)28-3/h4-7,10-13,27H,8-9H2,1-3H3,(H,22,26)
InChIKey=GLUDFASYAAODGH-UHFFFAOYSA-N

> <PUBCHEM_SUBSTANCE_SYNONYM>
SCHEMBL16110346

> <PUBCHEM_XREF_EXT_ID>
SCHEMBL16110346

> <PUBCHEM_EXT_DATASOURCE_URL>
https://www.surechembl.org/

> <PUBCHEM_EXT_SUBSTANCE_URL>
https://www.surechembl.org/chemical/SCHEMBL16110346

> <PUBCHEM_CID_ASSOCIATIONS>
117601427  1

> <PUBCHEM_COORDINATE_TYPE>
1
3

$$$$
