310935979
  -OEChem-07211613022D

 21 22  0     0  0  0  0  0  0999 V2000
    2.1444   -1.6256    0.0000 O   0  0  0  0  0  0  0  0  0  0  0  0
    3.5625   -1.6256    0.0000 O   0  0  0  0  0  0  0  0  0  0  0  0
    2.8362   -2.8362    0.0000 N   0  0  0  0  0  0  0  0  0  0  0  0
    2.8362   -2.0061    0.0000 C   0  0  0  0  0  0  0  0  0  0  0  0
    2.8362   -4.4618    0.0000 C   0  0  0  0  0  0  0  0  0  0  0  0
    3.5625   -3.2512    0.0000 C   0  0  0  0  0  0  0  0  0  0  0  0
    2.1444   -3.2512    0.0000 C   0  0  0  0  0  0  0  0  0  0  0  0
    2.1444   -0.7955    0.0000 C   0  0  0  0  0  0  0  0  0  0  0  0
    3.5625   -4.0468    0.0000 C   0  0  0  0  0  0  0  0  0  0  0  0
    2.1444   -4.0468    0.0000 C   0  0  0  0  0  0  0  0  0  0  0  0
    2.1444   -5.6724    0.0000 C   0  0  0  0  0  0  0  0  0  0  0  0
    2.8362   -5.2919    0.0000 C   0  0  0  0  0  0  0  0  0  0  0  0
    1.4181   -5.2919    0.0000 C   0  0  0  0  0  0  0  0  0  0  0  0
    2.1444   -6.5025    0.0000 C   0  0  0  0  0  0  0  0  0  0  0  0
    0.7263   -6.5025    0.0000 C   0  0  0  0  0  0  0  0  0  0  0  0
    0.7263   -5.6724    0.0000 C   0  0  0  0  0  0  0  0  0  0  0  0
    1.4181   -6.9175    0.0000 C   0  0  0  0  0  0  0  0  0  0  0  0
    2.9745   -0.7955    0.0000 C   0  0  0  0  0  0  0  0  0  0  0  0
    2.1444    0.0000    0.0000 C   0  0  0  0  0  0  0  0  0  0  0  0
    1.3143   -0.7955    0.0000 C   0  0  0  0  0  0  0  0  0  0  0  0
    0.0000   -6.9175    0.0000 C   0  0  0  0  0  0  0  0  0  0  0  0
  1  4  1  0  0  0  0
  1  8  1  0  0  0  0
  2  4  2  0  0  0  0
  3  4  1  0  0  0  0
  3  6  1  0  0  0  0
  3  7  1  0  0  0  0
  5  9  1  0  0  0  0
  5 10  1  0  0  0  0
  5 12  1  0  0  0  0
  6  9  1  0  0  0  0
  7 10  1  0  0  0  0
  8 18  1  0  0  0  0
  8 19  1  0  0  0  0
  8 20  1  0  0  0  0
 11 12  1  0  0  0  0
 11 13  2  0  0  0  0
 11 14  1  0  0  0  0
 13 16  1  0  0  0  0
 14 17  2  0  0  0  0
 15 16  2  0  0  0  0
 15 17  1  0  0  0  0
 15 21  1  0  0  0  0
M  END
> <PUBCHEM_COMPOUND_ID_TYPE>
0

> <PUBCHEM_TOTAL_CHARGE>
0

> <PUBCHEM_SUBSTANCE_ID>
310935979

> <PUBCHEM_SUBSTANCE_VERSION>
1

> <PUBCHEM_EXT_DATASOURCE_NAME>
4488

> <PUBCHEM_EXT_DATASOURCE_REGID>
SCHEMBL16113579

> <PUBCHEM_SUBSTANCE_COMMENT>
InChI=1S/C18H27NO2/c1-14-5-7-15(8-6-14)13-16-9-11-19(12-10-16)17(20)21-18(2,3)4/h5-8,16H,9-13H2,1-4H3
InChIKey=GGRPPDHHVATCDN-UHFFFAOYSA-N

> <PUBCHEM_SUBSTANCE_SYNONYM>
SCHEMBL16113579

> <PUBCHEM_XREF_EXT_ID>
SCHEMBL16113579

> <PUBCHEM_EXT_DATASOURCE_URL>
https://www.surechembl.org/

> <PUBCHEM_EXT_SUBSTANCE_URL>
https://www.surechembl.org/chemical/SCHEMBL16113579

> <PUBCHEM_CID_ASSOCIATIONS>
117603954  1

> <PUBCHEM_COORDINATE_TYPE>
1
3

$$$$
