310938977
  -OEChem-07211613022D

 16 16  0     0  0  0  0  0  0999 V2000
    0.5635   -0.9760    0.0000 N   0  0  0  0  0  0  0  0  0  0  0  0
   -0.5635    0.9760    0.0000 N   0  0  0  0  0  0  0  0  0  0  0  0
   -0.1510   -0.5635    0.0000 C   0  0  0  0  0  0  0  0  0  0  0  0
   -0.5635    0.1510    0.0000 C   0  0  0  0  0  0  0  0  0  0  0  0
   -0.9760   -0.5635    0.0000 C   0  0  0  0  0  0  0  0  0  0  0  0
   -1.2780    1.3885    0.0000 C   0  0  0  0  0  0  0  0  0  0  0  0
    0.5635   -1.8010    0.0000 C   0  0  0  0  0  0  0  0  0  0  0  0
    1.2780   -0.5635    0.0000 C   0  0  0  0  0  0  0  0  0  0  0  0
   -1.6905   -0.9760    0.0000 C   0  0  0  0  0  0  0  0  0  0  0  0
   -1.9924    0.9760    0.0000 C   0  0  0  0  0  0  0  0  0  0  0  0
   -1.9924    1.8010    0.0000 C   0  0  0  0  0  0  0  0  0  0  0  0
   -1.2780    2.2135    0.0000 C   0  0  0  0  0  0  0  0  0  0  0  0
    1.2780   -2.2135    0.0000 C   0  0  0  0  0  0  0  0  0  0  0  0
   -0.1510   -2.2135    0.0000 C   0  0  0  0  0  0  0  0  0  0  0  0
    1.2780    0.2615    0.0000 C   0  0  0  0  0  0  0  0  0  0  0  0
    1.9924   -0.9760    0.0000 C   0  0  0  0  0  0  0  0  0  0  0  0
  1  3  1  0  0  0  0
  1  7  1  0  0  0  0
  1  8  1  0  0  0  0
  2  4  2  0  0  0  0
  2  6  1  0  0  0  0
  3  4  1  0  0  0  0
  3  5  2  0  0  0  0
  4  5  1  0  0  0  0
  5  9  1  0  0  0  0
  6 10  1  0  0  0  0
  6 11  1  0  0  0  0
  6 12  1  0  0  0  0
  7 13  1  0  0  0  0
  7 14  1  0  0  0  0
  8 15  1  0  0  0  0
  8 16  1  0  0  0  0
M  END
> <PUBCHEM_COMPOUND_ID_TYPE>
0

> <PUBCHEM_TOTAL_CHARGE>
0

> <PUBCHEM_SUBSTANCE_ID>
310938977

> <PUBCHEM_SUBSTANCE_VERSION>
1

> <PUBCHEM_EXT_DATASOURCE_NAME>
4488

> <PUBCHEM_EXT_DATASOURCE_REGID>
SCHEMBL16116896

> <PUBCHEM_SUBSTANCE_COMMENT>
InChI=1S/C14H26N2/c1-9(2)16(10(3)4)13-11(5)12(13)15-14(6,7)8/h9-10H,1-8H3/b15-12+
InChIKey=CBHDCRHTCUPSET-NTCAYCPXSA-N

> <PUBCHEM_SUBSTANCE_SYNONYM>
SCHEMBL16116896

> <PUBCHEM_XREF_EXT_ID>
SCHEMBL16116896

> <PUBCHEM_EXT_DATASOURCE_URL>
https://www.surechembl.org/

> <PUBCHEM_EXT_SUBSTANCE_URL>
https://www.surechembl.org/chemical/SCHEMBL16116896

> <PUBCHEM_CID_ASSOCIATIONS>
117606362  1

> <PUBCHEM_COORDINATE_TYPE>
1
3

$$$$
