310931791
  -OEChem-07211613022D

 29 32  0     0  0  0  0  0  0999 V2000
    3.9929   -2.1119    0.0000 O   0  0  0  0  0  0  0  0  0  0  0  0
    8.4148   -2.2109    0.0000 O   0  0  0  0  0  0  0  0  0  0  0  0
    4.8838   -0.9899    0.0000 N   0  0  0  0  0  0  0  0  0  0  0  0
    4.7848   -0.1650    0.0000 N   0  0  0  0  0  0  0  0  0  0  0  0
    6.3028   -0.9899    0.0000 N   0  0  0  0  0  0  0  0  0  0  0  0
    7.7218   -3.4319    0.0000 N   0  0  0  0  0  0  0  0  0  0  0  0
    0.0000   -1.8149    0.0000 N   0  0  0  0  0  0  0  0  0  0  0  0
    3.5639   -0.7260    0.0000 C   0  0  0  0  0  0  0  0  0  0  0  0
    4.1249   -1.3199    0.0000 C   0  0  0  0  0  0  0  0  0  0  0  0
    5.5768   -1.3859    0.0000 C   0  0  0  0  0  0  0  0  0  0  0  0
    2.7719   -0.7920    0.0000 C   0  0  0  0  0  0  0  0  0  0  0  0
    3.9929    0.0000    0.0000 C   0  0  0  0  0  0  0  0  0  0  0  0
    5.5768   -2.2109    0.0000 C   0  0  0  0  0  0  0  0  0  0  0  0
    6.9958   -2.2109    0.0000 C   0  0  0  0  0  0  0  0  0  0  0  0
    2.4419   -1.5509    0.0000 C   0  0  0  0  0  0  0  0  0  0  0  0
    2.2769   -0.1650    0.0000 C   0  0  0  0  0  0  0  0  0  0  0  0
    6.9958   -1.3859    0.0000 C   0  0  0  0  0  0  0  0  0  0  0  0
    6.3028   -2.6069    0.0000 C   0  0  0  0  0  0  0  0  0  0  0  0
    7.7218   -2.6069    0.0000 C   0  0  0  0  0  0  0  0  0  0  0  0
    1.1219   -0.9899    0.0000 C   0  0  0  0  0  0  0  0  0  0  0  0
    1.6169   -1.6499    0.0000 C   0  0  0  0  0  0  0  0  0  0  0  0
    1.4519   -0.2640    0.0000 C   0  0  0  0  0  0  0  0  0  0  0  0
    8.4478   -3.8279    0.0000 C   0  0  0  0  0  0  0  0  0  0  0  0
    0.3300   -1.0889    0.0000 C   0  0  0  0  0  0  0  0  0  0  0  0
    9.1737   -3.4649    0.0000 C   0  0  0  0  0  0  0  0  0  0  0  0
    8.4478   -4.6859    0.0000 C   0  0  0  0  0  0  0  0  0  0  0  0
    9.8667   -3.8609    0.0000 C   0  0  0  0  0  0  0  0  0  0  0  0
    9.1737   -5.0818    0.0000 C   0  0  0  0  0  0  0  0  0  0  0  0
    9.8997   -4.6859    0.0000 C   0  0  0  0  0  0  0  0  0  0  0  0
  1  9  1  0  0  0  0
  2 19  2  0  0  0  0
  3  4  1  0  0  0  0
  3  9  1  0  0  0  0
  3 10  1  0  0  0  0
  4 12  2  0  0  0  0
  5 10  2  0  0  0  0
  5 17  1  0  0  0  0
  6 19  1  0  0  0  0
  6 23  1  0  0  0  0
  7 24  3  0  0  0  0
  8  9  2  0  0  0  0
  8 11  1  0  0  0  0
  8 12  1  0  0  0  0
 10 13  1  0  0  0  0
 11 15  2  0  0  0  0
 11 16  1  0  0  0  0
 13 18  2  0  0  0  0
 14 17  2  0  0  0  0
 14 18  1  0  0  0  0
 14 19  1  0  0  0  0
 15 21  1  0  0  0  0
 16 22  2  0  0  0  0
 20 21  2  0  0  0  0
 20 22  1  0  0  0  0
 20 24  1  0  0  0  0
 23 25  1  0  0  0  0
 23 26  1  0  0  0  0
 25 27  1  0  0  0  0
 26 28  1  0  0  0  0
 27 29  1  0  0  0  0
 28 29  1  0  0  0  0
M  END
> <PUBCHEM_COMPOUND_ID_TYPE>
0

> <PUBCHEM_TOTAL_CHARGE>
0

> <PUBCHEM_SUBSTANCE_ID>
310931791

> <PUBCHEM_SUBSTANCE_VERSION>
1

> <PUBCHEM_EXT_DATASOURCE_NAME>
4488

> <PUBCHEM_EXT_DATASOURCE_REGID>
SCHEMBL16109123

> <PUBCHEM_SUBSTANCE_COMMENT>
InChI=1S/C22H21N5O2/c23-12-15-6-8-16(9-7-15)19-14-25-27(22(19)29)20-11-10-17(13-24-20)21(28)26-18-4-2-1-3-5-18/h6-11,13-14,18,29H,1-5H2,(H,26,28)
InChIKey=ABSHAENREMRRIZ-UHFFFAOYSA-N

> <PUBCHEM_SUBSTANCE_SYNONYM>
SCHEMBL16109123

> <PUBCHEM_XREF_EXT_ID>
SCHEMBL16109123

> <PUBCHEM_EXT_DATASOURCE_URL>
https://www.surechembl.org/

> <PUBCHEM_EXT_SUBSTANCE_URL>
https://www.surechembl.org/chemical/SCHEMBL16109123

> <PUBCHEM_CID_ASSOCIATIONS>
117600472  1

> <PUBCHEM_COORDINATE_TYPE>
1
3

$$$$
