310946396
  -OEChem-07211613022D

 27 31  0     0  0  0  0  0  0999 V2000
    2.1891    1.4516    0.0000 O   0  0  0  0  0  0  0  0  0  0  0  0
    1.4747    3.5141    0.0000 N   0  0  0  0  0  0  0  0  0  0  0  0
    0.6900    2.4342    0.0000 N   0  0  0  0  0  0  0  0  0  0  0  0
   -3.1269    1.9747    0.0000 N   0  0  0  0  0  0  0  0  0  0  0  0
   -2.3423    1.7197    0.0000 N   0  0  0  0  0  0  0  0  0  0  0  0
   -2.3423    3.0546    0.0000 N   0  0  0  0  0  0  0  0  0  0  0  0
   -4.5559    2.7997    0.0000 N   0  0  0  0  0  0  0  0  0  0  0  0
    1.4747    2.6891    0.0000 C   0  0  0  0  0  0  0  0  0  0  0  0
    2.1891    2.2766    0.0000 C   0  0  0  0  0  0  0  0  0  0  0  0
    0.6900    3.7691    0.0000 C   0  0  0  0  0  0  0  0  0  0  0  0
    0.2051    3.1016    0.0000 C   0  0  0  0  0  0  0  0  0  0  0  0
   -3.1269    2.7997    0.0000 C   0  0  0  0  0  0  0  0  0  0  0  0
    2.9036    2.6891    0.0000 C   0  0  0  0  0  0  0  0  0  0  0  0
   -1.8574    2.3872    0.0000 C   0  0  0  0  0  0  0  0  0  0  0  0
    2.1891    3.9266    0.0000 C   0  0  0  0  0  0  0  0  0  0  0  0
   -0.6199    3.1016    0.0000 C   0  0  0  0  0  0  0  0  0  0  0  0
   -3.8414    1.5622    0.0000 C   0  0  0  0  0  0  0  0  0  0  0  0
   -3.8414    3.2122    0.0000 C   0  0  0  0  0  0  0  0  0  0  0  0
    2.9036    3.5141    0.0000 C   0  0  0  0  0  0  0  0  0  0  0  0
   -1.0324    2.3872    0.0000 C   0  0  0  0  0  0  0  0  0  0  0  0
    3.6181    2.2766    0.0000 C   0  0  0  0  0  0  0  0  0  0  0  0
   -4.5559    1.9747    0.0000 C   0  0  0  0  0  0  0  0  0  0  0  0
    0.2775    4.4835    0.0000 C   0  0  0  0  0  0  0  0  0  0  0  0
    2.9036    1.0391    0.0000 C   0  0  0  0  0  0  0  0  0  0  0  0
    3.6181    1.4516    0.0000 C   0  0  0  0  0  0  0  0  0  0  0  0
   -3.8414    0.7372    0.0000 C   0  0  0  0  0  0  0  0  0  0  0  0
   -3.8414    4.0372    0.0000 C   0  0  0  0  0  0  0  0  0  0  0  0
  1  9  1  0  0  0  0
  1 24  1  0  0  0  0
  2  8  1  0  0  0  0
  2 10  1  0  0  0  0
  2 15  1  0  0  0  0
  3  8  2  0  0  0  0
  3 11  1  0  0  0  0
  4  5  1  0  0  0  0
  4 12  1  0  0  0  0
  4 17  1  0  0  0  0
  5 14  2  0  0  0  0
  6 12  2  0  0  0  0
  6 14  1  0  0  0  0
  7 18  2  0  0  0  0
  7 22  1  0  0  0  0
  8  9  1  0  0  0  0
  9 13  2  0  0  0  0
 10 11  2  0  0  0  0
 10 23  1  0  0  0  0
 11 16  1  0  0  0  0
 12 18  1  0  0  0  0
 13 19  1  0  0  0  0
 13 21  1  0  0  0  0
 14 20  1  0  0  0  0
 15 19  2  0  0  0  0
 16 20  1  0  0  0  0
 17 22  2  0  0  0  0
 17 26  1  0  0  0  0
 18 27  1  0  0  0  0
 21 25  1  0  0  0  0
 24 25  1  0  0  0  0
M  END
> <PUBCHEM_COMPOUND_ID_TYPE>
0

> <PUBCHEM_TOTAL_CHARGE>
0

> <PUBCHEM_SUBSTANCE_ID>
310946396

> <PUBCHEM_SUBSTANCE_VERSION>
1

> <PUBCHEM_EXT_DATASOURCE_NAME>
4488

> <PUBCHEM_EXT_DATASOURCE_REGID>
SCHEMBL16124517

> <PUBCHEM_SUBSTANCE_COMMENT>
InChI=1S/C20H22N6O/c1-12-11-21-13(2)19-23-17(24-26(12)19)7-6-16-14(3)25-9-8-15-5-4-10-27-18(15)20(25)22-16/h8-9,11H,4-7,10H2,1-3H3
InChIKey=NFBYIVUBUMCOCF-UHFFFAOYSA-N

> <PUBCHEM_SUBSTANCE_SYNONYM>
SCHEMBL16124517

> <PUBCHEM_XREF_EXT_ID>
SCHEMBL16124517

> <PUBCHEM_EXT_DATASOURCE_URL>
https://www.surechembl.org/

> <PUBCHEM_EXT_SUBSTANCE_URL>
https://www.surechembl.org/chemical/SCHEMBL16124517

> <PUBCHEM_CID_ASSOCIATIONS>
117612317  1

> <PUBCHEM_COORDINATE_TYPE>
1
3

$$$$
