310946335
  -OEChem-07211613022D

 30 32  0     0  0  0  0  0  0999 V2000
   -2.0000    2.0410    0.0000 I   0  0  0  0  0  0  0  0  0  0  0  0
   -0.5709    4.5161    0.0000 I   0  0  0  0  0  0  0  0  0  0  0  0
   -4.8582    3.6911    0.0000 I   0  0  0  0  0  0  0  0  0  0  0  0
    3.0016    2.4535    0.0000 S   0  0  0  0  0  0  0  0  0  0  0  0
   -2.0000    3.6911    0.0000 O   0  0  0  0  0  0  0  0  0  0  0  0
    2.5891    3.1680    0.0000 O   0  0  0  0  0  0  0  0  0  0  0  0
    3.4142    1.7389    0.0000 O   0  0  0  0  0  0  0  0  0  0  0  0
    1.5726    3.2785    0.0000 O   0  0  0  0  0  0  0  0  0  0  0  0
   -4.8582    2.0410    0.0000 O   0  0  0  0  0  0  0  0  0  0  0  0
    2.2871    2.0410    0.0000 N   0  0  0  0  0  0  0  0  0  0  0  0
   -1.2855    3.2785    0.0000 C   0  0  0  0  0  0  0  0  0  0  0  0
   -1.2855    2.4535    0.0000 C   0  0  0  0  0  0  0  0  0  0  0  0
   -0.5709    3.6911    0.0000 C   0  0  0  0  0  0  0  0  0  0  0  0
    0.1435    2.4535    0.0000 C   0  0  0  0  0  0  0  0  0  0  0  0
   -0.5709    2.0410    0.0000 C   0  0  0  0  0  0  0  0  0  0  0  0
    0.1435    3.2785    0.0000 C   0  0  0  0  0  0  0  0  0  0  0  0
    3.7162    2.8660    0.0000 C   0  0  0  0  0  0  0  0  0  0  0  0
   -2.7146    3.2785    0.0000 C   0  0  0  0  0  0  0  0  0  0  0  0
    1.5726    2.4535    0.0000 C   0  0  0  0  0  0  0  0  0  0  0  0
    0.8581    2.0410    0.0000 C   0  0  0  0  0  0  0  0  0  0  0  0
   -3.4291    3.6911    0.0000 C   0  0  0  0  0  0  0  0  0  0  0  0
   -4.1436    3.2785    0.0000 C   0  0  0  0  0  0  0  0  0  0  0  0
   -2.7146    2.4535    0.0000 C   0  0  0  0  0  0  0  0  0  0  0  0
   -4.1436    2.4535    0.0000 C   0  0  0  0  0  0  0  0  0  0  0  0
    4.4307    2.4535    0.0000 C   0  0  0  0  0  0  0  0  0  0  0  0
    3.7162    3.6911    0.0000 C   0  0  0  0  0  0  0  0  0  0  0  0
   -3.4291    2.0410    0.0000 C   0  0  0  0  0  0  0  0  0  0  0  0
    5.1452    2.8660    0.0000 C   0  0  0  0  0  0  0  0  0  0  0  0
    4.4307    4.1036    0.0000 C   0  0  0  0  0  0  0  0  0  0  0  0
    5.1452    3.6911    0.0000 C   0  0  0  0  0  0  0  0  0  0  0  0
  1 12  1  0  0  0  0
  2 13  1  0  0  0  0
  3 22  1  0  0  0  0
  4  6  2  0  0  0  0
  4  7  2  0  0  0  0
  4 10  1  0  0  0  0
  4 17  1  0  0  0  0
  5 11  1  0  0  0  0
  5 18  1  0  0  0  0
  8 19  2  0  0  0  0
  9 24  1  0  0  0  0
 10 19  1  0  0  0  0
 11 12  2  0  0  0  0
 11 13  1  0  0  0  0
 12 15  1  0  0  0  0
 13 16  2  0  0  0  0
 14 15  2  0  0  0  0
 14 16  1  0  0  0  0
 14 20  1  0  0  0  0
 17 25  2  0  0  0  0
 17 26  1  0  0  0  0
 18 21  2  0  0  0  0
 18 23  1  0  0  0  0
 19 20  1  0  0  0  0
 21 22  1  0  0  0  0
 22 24  2  0  0  0  0
 23 27  2  0  0  0  0
 24 27  1  0  0  0  0
 25 28  1  0  0  0  0
 26 29  2  0  0  0  0
 28 30  2  0  0  0  0
 29 30  1  0  0  0  0
M  END
> <PUBCHEM_COMPOUND_ID_TYPE>
0

> <PUBCHEM_TOTAL_CHARGE>
0

> <PUBCHEM_SUBSTANCE_ID>
310946335

> <PUBCHEM_SUBSTANCE_VERSION>
1

> <PUBCHEM_EXT_DATASOURCE_NAME>
4488

> <PUBCHEM_EXT_DATASOURCE_REGID>
SCHEMBL16124454

> <PUBCHEM_SUBSTANCE_COMMENT>
InChI=1S/C20H14I3NO5S/c21-15-11-13(6-7-18(15)25)29-20-16(22)8-12(9-17(20)23)10-19(26)24-30(27,28)14-4-2-1-3-5-14/h1-9,11,25H,10H2,(H,24,26)
InChIKey=XPUOSHHBAATYIK-UHFFFAOYSA-N

> <PUBCHEM_SUBSTANCE_SYNONYM>
SCHEMBL16124454

> <PUBCHEM_XREF_EXT_ID>
SCHEMBL16124454

> <PUBCHEM_EXT_DATASOURCE_URL>
https://www.surechembl.org/

> <PUBCHEM_EXT_SUBSTANCE_URL>
https://www.surechembl.org/chemical/SCHEMBL16124454

> <PUBCHEM_CID_ASSOCIATIONS>
71583868  1

> <PUBCHEM_COORDINATE_TYPE>
1
3

$$$$
