310935702
  -OEChem-07211613022D

 29 32  0     0  0  0  0  0  0999 V2000
    7.0101   -5.0662    0.0000 S   0  0  0  0  0  0  0  0  0  0  0  0
    7.0101   -4.1531    0.0000 O   0  0  0  0  0  0  0  0  0  0  0  0
    7.0101   -5.8909    0.0000 O   0  0  0  0  0  0  0  0  0  0  0  0
    3.2989   -4.3298    0.0000 N   0  0  0  0  0  0  0  0  0  0  0  0
    0.7952   -4.3298    0.0000 N   0  0  0  0  0  0  0  0  0  0  0  0
    2.0324   -5.0662    0.0000 N   0  0  0  0  0  0  0  0  0  0  0  0
    2.5036    0.0000    0.0000 N   0  0  0  0  0  0  0  0  0  0  0  0
    6.2149   -5.0662    0.0000 N   0  0  0  0  0  0  0  0  0  0  0  0
    2.0618   -3.5934    0.0000 C   0  0  0  0  0  0  0  0  0  0  0  0
    1.2371   -3.5934    0.0000 C   0  0  0  0  0  0  0  0  0  0  0  0
    2.4742   -4.3298    0.0000 C   0  0  0  0  0  0  0  0  0  0  0  0
    0.8247   -2.8865    0.0000 C   0  0  0  0  0  0  0  0  0  0  0  0
    2.0618   -2.1796    0.0000 C   0  0  0  0  0  0  0  0  0  0  0  0
    2.4742   -2.9160    0.0000 C   0  0  0  0  0  0  0  0  0  0  0  0
    1.2371   -2.1796    0.0000 C   0  0  0  0  0  0  0  0  0  0  0  0
    2.4742   -1.4727    0.0000 C   0  0  0  0  0  0  0  0  0  0  0  0
    1.2371   -5.0662    0.0000 C   0  0  0  0  0  0  0  0  0  0  0  0
    3.7112   -3.5934    0.0000 C   0  0  0  0  0  0  0  0  0  0  0  0
    3.7112   -5.0662    0.0000 C   0  0  0  0  0  0  0  0  0  0  0  0
    4.9484   -4.3593    0.0000 C   0  0  0  0  0  0  0  0  0  0  0  0
    4.5360   -3.6229    0.0000 C   0  0  0  0  0  0  0  0  0  0  0  0
    4.5360   -5.0662    0.0000 C   0  0  0  0  0  0  0  0  0  0  0  0
    0.0000   -2.9160    0.0000 C   0  0  0  0  0  0  0  0  0  0  0  0
    2.0913   -0.7069    0.0000 C   0  0  0  0  0  0  0  0  0  0  0  0
    3.3284   -1.4433    0.0000 C   0  0  0  0  0  0  0  0  0  0  0  0
    5.8025   -4.3593    0.0000 C   0  0  0  0  0  0  0  0  0  0  0  0
    3.7407   -0.7364    0.0000 C   0  0  0  0  0  0  0  0  0  0  0  0
    3.3284    0.0000    0.0000 C   0  0  0  0  0  0  0  0  0  0  0  0
    7.8644   -5.0662    0.0000 C   0  0  0  0  0  0  0  0  0  0  0  0
  1  2  2  0  0  0  0
  1  3  2  0  0  0  0
  1  8  1  0  0  0  0
  1 29  1  0  0  0  0
  4 11  1  0  0  0  0
  4 18  1  0  0  0  0
  4 19  1  0  0  0  0
  5 10  2  0  0  0  0
  5 17  1  0  0  0  0
  6 11  1  0  0  0  0
  6 17  2  0  0  0  0
  7 24  1  0  0  0  0
  7 28  2  0  0  0  0
  8 26  1  0  0  0  0
  9 10  1  0  0  0  0
  9 11  2  0  0  0  0
  9 14  1  0  0  0  0
 10 12  1  0  0  0  0
 12 15  2  0  0  0  0
 12 23  1  0  0  0  0
 13 14  2  0  0  0  0
 13 15  1  0  0  0  0
 13 16  1  0  0  0  0
 16 24  2  0  0  0  0
 16 25  1  0  0  0  0
 18 21  1  0  0  0  0
 19 22  1  0  0  0  0
 20 21  1  0  0  0  0
 20 22  1  0  0  0  0
 20 26  1  0  0  0  0
 25 27  2  0  0  0  0
 27 28  1  0  0  0  0
M  END
> <PUBCHEM_COMPOUND_ID_TYPE>
0

> <PUBCHEM_TOTAL_CHARGE>
0

> <PUBCHEM_SUBSTANCE_ID>
310935702

> <PUBCHEM_SUBSTANCE_VERSION>
1

> <PUBCHEM_EXT_DATASOURCE_NAME>
4488

> <PUBCHEM_EXT_DATASOURCE_REGID>
SCHEMBL16113286

> <PUBCHEM_SUBSTANCE_COMMENT>
InChI=1S/C21H25N5O2S/c1-15-10-18(17-4-3-7-22-13-17)11-19-20(15)23-14-24-21(19)26-8-5-16(6-9-26)12-25-29(2,27)28/h3-4,7,10-11,13-14,16,25H,5-6,8-9,12H2,1-2H3
InChIKey=OOIFVJNAIWTYDH-UHFFFAOYSA-N

> <PUBCHEM_SUBSTANCE_SYNONYM>
SCHEMBL16113286

> <PUBCHEM_XREF_EXT_ID>
SCHEMBL16113286

> <PUBCHEM_EXT_DATASOURCE_URL>
https://www.surechembl.org/

> <PUBCHEM_EXT_SUBSTANCE_URL>
https://www.surechembl.org/chemical/SCHEMBL16113286

> <PUBCHEM_CID_ASSOCIATIONS>
117603709  1

> <PUBCHEM_COORDINATE_TYPE>
1
3

$$$$
