310945544
  -OEChem-07211613022D

 24 26  0     0  0  0  0  0  0999 V2000
   -1.2851    0.9303    0.0000 Cl  0  0  0  0  0  0  0  0  0  0  0  0
    0.7097    1.1605    0.0000 F   0  0  0  0  0  0  0  0  0  0  0  0
    1.5537    2.0044    0.0000 F   0  0  0  0  0  0  0  0  0  0  0  0
    2.3593    1.1605    0.0000 F   0  0  0  0  0  0  0  0  0  0  0  0
   -3.6445   -1.5825    0.0000 F   0  0  0  0  0  0  0  0  0  0  0  0
    2.9347   -1.3906    0.0000 O   0  0  0  0  0  0  0  0  0  0  0  0
    0.0384    0.1439    0.0000 N   0  0  0  0  0  0  0  0  0  0  0  0
    0.0192   -1.2180    0.0000 N   0  0  0  0  0  0  0  0  0  0  0  0
    2.2442   -0.1055    0.0000 N   0  0  0  0  0  0  0  0  0  0  0  0
    1.5153   -1.3715    0.0000 N   0  0  0  0  0  0  0  0  0  0  0  0
    0.8248   -0.1439    0.0000 C   0  0  0  0  0  0  0  0  0  0  0  0
    1.4961    0.2973    0.0000 C   0  0  0  0  0  0  0  0  0  0  0  0
    0.7865   -0.9878    0.0000 C   0  0  0  0  0  0  0  0  0  0  0  0
   -0.4603   -0.5659    0.0000 C   0  0  0  0  0  0  0  0  0  0  0  0
    1.5153    1.1413    0.0000 C   0  0  0  0  0  0  0  0  0  0  0  0
   -1.2851   -0.5466    0.0000 C   0  0  0  0  0  0  0  0  0  0  0  0
    2.2250   -0.9686    0.0000 C   0  0  0  0  0  0  0  0  0  0  0  0
   -1.7071    0.1630    0.0000 C   0  0  0  0  0  0  0  0  0  0  0  0
   -1.7071   -1.2948    0.0000 C   0  0  0  0  0  0  0  0  0  0  0  0
   -2.5319   -1.2948    0.0000 C   0  0  0  0  0  0  0  0  0  0  0  0
   -2.5127    0.1439    0.0000 C   0  0  0  0  0  0  0  0  0  0  0  0
   -2.8963   -0.5659    0.0000 C   0  0  0  0  0  0  0  0  0  0  0  0
   -2.9347   -2.0044    0.0000 C   0  0  0  0  0  0  0  0  0  0  0  0
    3.6445   -0.9495    0.0000 C   0  0  0  0  0  0  0  0  0  0  0  0
  1 18  1  0  0  0  0
  2 15  1  0  0  0  0
  3 15  1  0  0  0  0
  4 15  1  0  0  0  0
  5 23  1  0  0  0  0
  6 17  1  0  0  0  0
  6 24  1  0  0  0  0
  7 11  1  0  0  0  0
  7 14  2  0  0  0  0
  8 13  1  0  0  0  0
  8 14  1  0  0  0  0
  9 12  2  0  0  0  0
  9 17  1  0  0  0  0
 10 13  1  0  0  0  0
 10 17  2  0  0  0  0
 11 12  1  0  0  0  0
 11 13  2  0  0  0  0
 12 15  1  0  0  0  0
 14 16  1  0  0  0  0
 16 18  2  0  0  0  0
 16 19  1  0  0  0  0
 18 21  1  0  0  0  0
 19 20  2  0  0  0  0
 20 22  1  0  0  0  0
 20 23  1  0  0  0  0
 21 22  2  0  0  0  0
M  END
> <PUBCHEM_COMPOUND_ID_TYPE>
0

> <PUBCHEM_TOTAL_CHARGE>
0

> <PUBCHEM_SUBSTANCE_ID>
310945544

> <PUBCHEM_SUBSTANCE_VERSION>
1

> <PUBCHEM_EXT_DATASOURCE_NAME>
4488

> <PUBCHEM_EXT_DATASOURCE_REGID>
SCHEMBL16123642

> <PUBCHEM_SUBSTANCE_COMMENT>
InChI=1S/C14H9ClF4N4O/c1-24-13-21-10(14(17,18)19)9-12(23-13)22-11(20-9)7-4-6(5-16)2-3-8(7)15/h2-4H,5H2,1H3,(H,20,21,22,23)
InChIKey=IRMFZDCOHFTURW-UHFFFAOYSA-N

> <PUBCHEM_SUBSTANCE_SYNONYM>
SCHEMBL16123642

> <PUBCHEM_XREF_EXT_ID>
SCHEMBL16123642

> <PUBCHEM_EXT_DATASOURCE_URL>
https://www.surechembl.org/

> <PUBCHEM_EXT_SUBSTANCE_URL>
https://www.surechembl.org/chemical/SCHEMBL16123642

> <PUBCHEM_CID_ASSOCIATIONS>
117611585  1

> <PUBCHEM_COORDINATE_TYPE>
1
3

$$$$
