310939425
  -OEChem-07211613022D

 18 19  0     0  0  0  0  0  0999 V2000
    2.8875  -13.0666    0.0000 O   0  0  0  0  0  0  0  0  0  0  0  0
   -2.0625  -13.0666    0.0000 N   0  0  0  0  0  0  0  0  0  0  0  0
   -2.0625  -11.6377    0.0000 N   0  0  0  0  0  0  0  0  0  0  0  0
   -3.3000  -12.3522    0.0000 N   0  0  0  0  0  0  0  0  0  0  0  0
   -1.6500  -12.3522    0.0000 C   0  0  0  0  0  0  0  0  0  0  0  0
   -2.8875  -13.0666    0.0000 C   0  0  0  0  0  0  0  0  0  0  0  0
   -2.8875  -11.6377    0.0000 C   0  0  0  0  0  0  0  0  0  0  0  0
    0.4125  -13.0666    0.0000 C   0  0  0  0  0  0  0  0  0  0  0  0
   -0.8250  -12.3522    0.0000 C   0  0  0  0  0  0  0  0  0  0  0  0
   -0.4125  -13.0666    0.0000 C   0  0  0  0  0  0  0  0  0  0  0  0
    2.0625  -13.0666    0.0000 C   0  0  0  0  0  0  0  0  0  0  0  0
    0.8250  -13.7811    0.0000 C   0  0  0  0  0  0  0  0  0  0  0  0
    0.8250  -12.3522    0.0000 C   0  0  0  0  0  0  0  0  0  0  0  0
    1.6500  -13.7811    0.0000 C   0  0  0  0  0  0  0  0  0  0  0  0
    1.6500  -12.3522    0.0000 C   0  0  0  0  0  0  0  0  0  0  0  0
   -3.3000  -13.7811    0.0000 C   0  0  0  0  0  0  0  0  0  0  0  0
   -3.3000  -10.9232    0.0000 C   0  0  0  0  0  0  0  0  0  0  0  0
    3.3000  -12.3522    0.0000 C   0  0  0  0  0  0  0  0  0  0  0  0
  1 11  1  0  0  0  0
  1 18  1  0  0  0  0
  2  5  2  0  0  0  0
  2  6  1  0  0  0  0
  3  5  1  0  0  0  0
  3  7  2  0  0  0  0
  4  6  2  0  0  0  0
  4  7  1  0  0  0  0
  5  9  1  0  0  0  0
  6 16  1  0  0  0  0
  7 17  1  0  0  0  0
  8 10  1  0  0  0  0
  8 12  2  0  0  0  0
  8 13  1  0  0  0  0
  9 10  2  0  0  0  0
 11 14  2  0  0  0  0
 11 15  1  0  0  0  0
 12 14  1  0  0  0  0
 13 15  2  0  0  0  0
M  END
> <PUBCHEM_COMPOUND_ID_TYPE>
0

> <PUBCHEM_TOTAL_CHARGE>
0

> <PUBCHEM_SUBSTANCE_ID>
310939425

> <PUBCHEM_SUBSTANCE_VERSION>
1

> <PUBCHEM_EXT_DATASOURCE_NAME>
4488

> <PUBCHEM_EXT_DATASOURCE_REGID>
SCHEMBL16117347

> <PUBCHEM_SUBSTANCE_COMMENT>
InChI=1S/C14H15N3O/c1-10-15-11(2)17-14(16-10)9-6-12-4-7-13(18-3)8-5-12/h4-9H,1-3H3/b9-6+
InChIKey=YDDGATCNIUUMMK-RMKNXTFCSA-N

> <PUBCHEM_SUBSTANCE_SYNONYM>
SCHEMBL16117347

> <PUBCHEM_XREF_EXT_ID>
SCHEMBL16117347

> <PUBCHEM_EXT_DATASOURCE_URL>
https://www.surechembl.org/

> <PUBCHEM_EXT_SUBSTANCE_URL>
https://www.surechembl.org/chemical/SCHEMBL16117347

> <PUBCHEM_CID_ASSOCIATIONS>
102183201  1

> <PUBCHEM_COORDINATE_TYPE>
1
3

$$$$
