310935910
  -OEChem-07211613022D

 40 43  0     0  0  0  0  0  0999 V2000
    5.0452   -3.3635    0.0000 S   0  0  0  0  0  0  0  0  0  0  0  0
    4.3412   -4.5758    0.0000 F   0  0  0  0  0  0  0  0  0  0  0  0
    5.7882   -4.5758    0.0000 F   0  0  0  0  0  0  0  0  0  0  0  0
    4.3412   -3.7545    0.0000 F   0  0  0  0  0  0  0  0  0  0  0  0
   11.7330   -1.6426    0.0000 F   0  0  0  0  0  0  0  0  0  0  0  0
    7.9393   -1.0169    0.0000 O   0  0  0  0  0  0  0  0  0  0  0  0
    5.0452   -2.5030    0.0000 O   0  0  0  0  0  0  0  0  0  0  0  0
    7.6655   -3.7154    0.0000 O   0  0  0  0  0  0  0  0  0  0  0  0
    4.2238   -3.3635    0.0000 O   0  0  0  0  0  0  0  0  0  0  0  0
    5.8665   -3.3243    0.0000 O   0  0  0  0  0  0  0  0  0  0  0  0
    2.8550   -1.2515    0.0000 O   0  0  0  0  0  0  0  0  0  0  0  0
    2.1511    0.0000    0.0000 O   0  0  0  0  0  0  0  0  0  0  0  0
    8.9953   -3.2852    0.0000 N   0  0  0  0  0  0  0  0  0  0  0  0
    7.1571   -2.1119    0.0000 C   0  0  0  0  0  0  0  0  0  0  0  0
    7.9393   -2.3466    0.0000 C   0  0  0  0  0  0  0  0  0  0  0  0
    7.1571   -1.2515    0.0000 C   0  0  0  0  0  0  0  0  0  0  0  0
    8.4086   -1.6817    0.0000 C   0  0  0  0  0  0  0  0  0  0  0  0
    5.7491   -2.1119    0.0000 C   0  0  0  0  0  0  0  0  0  0  0  0
    6.4140   -2.5030    0.0000 C   0  0  0  0  0  0  0  0  0  0  0  0
    5.7101   -1.2515    0.0000 C   0  0  0  0  0  0  0  0  0  0  0  0
    6.4140   -0.8604    0.0000 C   0  0  0  0  0  0  0  0  0  0  0  0
    9.2299   -1.6817    0.0000 C   0  0  0  0  0  0  0  0  0  0  0  0
    8.2131   -3.1288    0.0000 C   0  0  0  0  0  0  0  0  0  0  0  0
    5.0452   -4.1457    0.0000 C   0  0  0  0  0  0  0  0  0  0  0  0
    5.0060   -0.8213    0.0000 C   0  0  0  0  0  0  0  0  0  0  0  0
    9.6601   -0.9386    0.0000 C   0  0  0  0  0  0  0  0  0  0  0  0
    9.6601   -2.3857    0.0000 C   0  0  0  0  0  0  0  0  0  0  0  0
   10.4814   -0.9386    0.0000 C   0  0  0  0  0  0  0  0  0  0  0  0
   10.4814   -2.3466    0.0000 C   0  0  0  0  0  0  0  0  0  0  0  0
   10.9116   -1.6426    0.0000 C   0  0  0  0  0  0  0  0  0  0  0  0
    4.3021   -1.2515    0.0000 C   0  0  0  0  0  0  0  0  0  0  0  0
    9.2691   -4.0674    0.0000 C   0  0  0  0  0  0  0  0  0  0  0  0
    3.5981   -0.8213    0.0000 C   0  0  0  0  0  0  0  0  0  0  0  0
    2.1511   -0.8213    0.0000 C   0  0  0  0  0  0  0  0  0  0  0  0
    1.4470   -1.2515    0.0000 C   0  0  0  0  0  0  0  0  0  0  0  0
    0.7431   -0.8213    0.0000 C   0  0  0  0  0  0  0  0  0  0  0  0
    1.4470   -2.0728    0.0000 C   0  0  0  0  0  0  0  0  0  0  0  0
    0.0000   -1.2515    0.0000 C   0  0  0  0  0  0  0  0  0  0  0  0
    0.7431   -2.5030    0.0000 C   0  0  0  0  0  0  0  0  0  0  0  0
    0.0000   -2.0728    0.0000 C   0  0  0  0  0  0  0  0  0  0  0  0
  1  7  1  0  0  0  0
  1  9  2  0  0  0  0
  1 10  2  0  0  0  0
  1 24  1  0  0  0  0
  2 24  1  0  0  0  0
  3 24  1  0  0  0  0
  4 24  1  0  0  0  0
  5 30  1  0  0  0  0
  6 16  1  0  0  0  0
  6 17  1  0  0  0  0
  7 18  1  0  0  0  0
  8 23  2  0  0  0  0
 11 33  1  0  0  0  0
 11 34  1  0  0  0  0
 12 34  2  0  0  0  0
 13 23  1  0  0  0  0
 13 32  1  0  0  0  0
 14 15  1  0  0  0  0
 14 16  2  0  0  0  0
 14 19  1  0  0  0  0
 15 17  2  0  0  0  0
 15 23  1  0  0  0  0
 16 21  1  0  0  0  0
 17 22  1  0  0  0  0
 18 19  2  0  0  0  0
 18 20  1  0  0  0  0
 20 21  2  0  0  0  0
 20 25  1  0  0  0  0
 22 26  2  0  0  0  0
 22 27  1  0  0  0  0
 25 31  1  0  0  0  0
 26 28  1  0  0  0  0
 27 29  2  0  0  0  0
 28 30  2  0  0  0  0
 29 30  1  0  0  0  0
 31 33  1  0  0  0  0
 34 35  1  0  0  0  0
 35 36  2  0  0  0  0
 35 37  1  0  0  0  0
 36 38  1  0  0  0  0
 37 39  2  0  0  0  0
 38 40  2  0  0  0  0
 39 40  1  0  0  0  0
M  END
> <PUBCHEM_COMPOUND_ID_TYPE>
0

> <PUBCHEM_TOTAL_CHARGE>
0

> <PUBCHEM_SUBSTANCE_ID>
310935910

> <PUBCHEM_SUBSTANCE_VERSION>
1

> <PUBCHEM_EXT_DATASOURCE_NAME>
4488

> <PUBCHEM_EXT_DATASOURCE_REGID>
SCHEMBL16113505

> <PUBCHEM_SUBSTANCE_COMMENT>
InChI=1S/C27H21F4NO7S/c1-32-25(33)23-20-15-21(39-40(35,36)27(29,30)31)18(8-5-13-37-26(34)17-6-3-2-4-7-17)14-22(20)38-24(23)16-9-11-19(28)12-10-16/h2-4,6-7,9-12,14-15H,5,8,13H2,1H3,(H,32,33)
InChIKey=ZANBUHOIZDULOK-UHFFFAOYSA-N

> <PUBCHEM_SUBSTANCE_SYNONYM>
SCHEMBL16113505

> <PUBCHEM_XREF_EXT_ID>
SCHEMBL16113505

> <PUBCHEM_EXT_DATASOURCE_URL>
https://www.surechembl.org/

> <PUBCHEM_EXT_SUBSTANCE_URL>
https://www.surechembl.org/chemical/SCHEMBL16113505

> <PUBCHEM_CID_ASSOCIATIONS>
117603894  1

> <PUBCHEM_COORDINATE_TYPE>
1
3

$$$$
