310943982
  -OEChem-07211613022D

 24 27  0     0  0  0  0  0  0999 V2000
    1.3443    1.0775    0.0000 F   0  0  0  0  0  0  0  0  0  0  0  0
   -1.0159    2.3089    0.0000 O   0  0  0  0  0  0  0  0  0  0  0  0
    3.5402    0.5849    0.0000 N   0  0  0  0  0  0  0  0  0  0  0  0
    1.3237   -3.0682    0.0000 N   0  0  0  0  0  0  0  0  0  0  0  0
   -1.5700    1.0980    0.0000 C   0  0  0  0  0  0  0  0  0  0  0  0
   -0.8722    1.5084    0.0000 C   0  0  0  0  0  0  0  0  0  0  0  0
   -2.2267    1.6931    0.0000 C   0  0  0  0  0  0  0  0  0  0  0  0
   -0.1540    0.2771    0.0000 C   0  0  0  0  0  0  0  0  0  0  0  0
   -1.8778    2.4320    0.0000 C   0  0  0  0  0  0  0  0  0  0  0  0
    0.6054   -0.1540    0.0000 C   0  0  0  0  0  0  0  0  0  0  0  0
   -0.1334    1.0775    0.0000 C   0  0  0  0  0  0  0  0  0  0  0  0
    1.3032    0.2565    0.0000 C   0  0  0  0  0  0  0  0  0  0  0  0
   -1.5700    0.2771    0.0000 C   0  0  0  0  0  0  0  0  0  0  0  0
   -0.8312   -0.1334    0.0000 C   0  0  0  0  0  0  0  0  0  0  0  0
    2.0831   -0.1540    0.0000 C   0  0  0  0  0  0  0  0  0  0  0  0
    0.6259   -0.9953    0.0000 C   0  0  0  0  0  0  0  0  0  0  0  0
   -3.0477    1.6111    0.0000 C   0  0  0  0  0  0  0  0  0  0  0  0
    1.3443   -1.4058    0.0000 C   0  0  0  0  0  0  0  0  0  0  0  0
   -2.3704    3.0682    0.0000 C   0  0  0  0  0  0  0  0  0  0  0  0
    2.0625   -0.9953    0.0000 C   0  0  0  0  0  0  0  0  0  0  0  0
   -3.5402    2.2678    0.0000 C   0  0  0  0  0  0  0  0  0  0  0  0
   -3.1913    2.9861    0.0000 C   0  0  0  0  0  0  0  0  0  0  0  0
    2.8014    0.2360    0.0000 C   0  0  0  0  0  0  0  0  0  0  0  0
    1.3237   -2.2473    0.0000 C   0  0  0  0  0  0  0  0  0  0  0  0
  1 12  1  0  0  0  0
  2  6  1  0  0  0  0
  2  9  1  0  0  0  0
  3 23  3  0  0  0  0
  4 24  3  0  0  0  0
  5  6  2  0  0  0  0
  5  7  1  0  0  0  0
  5 13  1  0  0  0  0
  6 11  1  0  0  0  0
  7  9  2  0  0  0  0
  7 17  1  0  0  0  0
  8 10  1  0  0  0  0
  8 11  2  0  0  0  0
  8 14  1  0  0  0  0
  9 19  1  0  0  0  0
 10 12  1  0  0  0  0
 10 16  2  0  0  0  0
 12 15  2  0  0  0  0
 13 14  2  0  0  0  0
 15 20  1  0  0  0  0
 15 23  1  0  0  0  0
 16 18  1  0  0  0  0
 17 21  2  0  0  0  0
 18 20  2  0  0  0  0
 18 24  1  0  0  0  0
 19 22  2  0  0  0  0
 21 22  1  0  0  0  0
M  END
> <PUBCHEM_COMPOUND_ID_TYPE>
0

> <PUBCHEM_TOTAL_CHARGE>
0

> <PUBCHEM_SUBSTANCE_ID>
310943982

> <PUBCHEM_SUBSTANCE_VERSION>
1

> <PUBCHEM_EXT_DATASOURCE_NAME>
4488

> <PUBCHEM_EXT_DATASOURCE_REGID>
SCHEMBL16122053

> <PUBCHEM_SUBSTANCE_COMMENT>
InChI=1S/C20H9FN2O/c21-20-14(11-23)7-12(10-22)8-17(20)13-5-6-16-15-3-1-2-4-18(15)24-19(16)9-13/h1-9H
InChIKey=FLLYNXHIPXSNSS-UHFFFAOYSA-N

> <PUBCHEM_SUBSTANCE_SYNONYM>
SCHEMBL16122053

> <PUBCHEM_XREF_EXT_ID>
SCHEMBL16122053

> <PUBCHEM_EXT_DATASOURCE_URL>
https://www.surechembl.org/

> <PUBCHEM_EXT_SUBSTANCE_URL>
https://www.surechembl.org/chemical/SCHEMBL16122053

> <PUBCHEM_CID_ASSOCIATIONS>
117610288  1

> <PUBCHEM_COORDINATE_TYPE>
1
3

$$$$
