310940639
  -OEChem-07211613022D

 23 24  0     0  0  0  0  0  0999 V2000
    2.1496   -1.6435    0.0000 Br  0  0  0  0  0  0  0  0  0  0  0  0
   -0.0250   -0.3937    0.0000 O   0  0  0  0  0  0  0  0  0  0  0  0
    0.6999   -1.6435    0.0000 O   0  0  0  0  0  0  0  0  0  0  0  0
   -3.5870   -2.4809    0.0000 N   0  0  0  0  0  0  0  0  0  0  0  0
    3.5870    2.4809    0.0000 N   0  0  0  0  0  0  0  0  0  0  0  0
   -0.7374   -0.8062    0.0000 C   0  0  0  0  0  0  0  0  0  0  0  0
   -0.7374   -1.6310    0.0000 C   0  0  0  0  0  0  0  0  0  0  0  0
   -0.0125    0.4437    0.0000 C   0  0  0  0  0  0  0  0  0  0  0  0
   -1.4372   -2.0560    0.0000 C   0  0  0  0  0  0  0  0  0  0  0  0
   -2.1747   -1.6435    0.0000 C   0  0  0  0  0  0  0  0  0  0  0  0
   -1.4498   -0.4061    0.0000 C   0  0  0  0  0  0  0  0  0  0  0  0
   -2.1622   -0.8186    0.0000 C   0  0  0  0  0  0  0  0  0  0  0  0
    0.0000   -2.0560    0.0000 C   0  0  0  0  0  0  0  0  0  0  0  0
    0.7124    0.8561    0.0000 C   0  0  0  0  0  0  0  0  0  0  0  0
    0.7124    1.6935    0.0000 C   0  0  0  0  0  0  0  0  0  0  0  0
   -0.7249    0.8561    0.0000 C   0  0  0  0  0  0  0  0  0  0  0  0
   -2.8995   -2.0684    0.0000 C   0  0  0  0  0  0  0  0  0  0  0  0
    0.0000    2.0935    0.0000 C   0  0  0  0  0  0  0  0  0  0  0  0
   -0.7249    1.6810    0.0000 C   0  0  0  0  0  0  0  0  0  0  0  0
    1.4372    2.1059    0.0000 C   0  0  0  0  0  0  0  0  0  0  0  0
    1.4498   -2.0560    0.0000 C   0  0  0  0  0  0  0  0  0  0  0  0
    2.1622    1.6935    0.0000 C   0  0  0  0  0  0  0  0  0  0  0  0
    2.8746    2.1059    0.0000 C   0  0  0  0  0  0  0  0  0  0  0  0
  1 21  1  0  0  0  0
  2  6  1  0  0  0  0
  2  8  1  0  0  0  0
  3 13  1  0  0  0  0
  3 21  1  0  0  0  0
  4 17  3  0  0  0  0
  5 23  3  0  0  0  0
  6  7  1  0  0  0  0
  6 11  2  0  0  0  0
  7  9  2  0  0  0  0
  7 13  1  0  0  0  0
  8 14  2  0  0  0  0
  8 16  1  0  0  0  0
  9 10  1  0  0  0  0
 10 12  2  0  0  0  0
 10 17  1  0  0  0  0
 11 12  1  0  0  0  0
 14 15  1  0  0  0  0
 15 18  2  0  0  0  0
 15 20  1  0  0  0  0
 16 19  2  0  0  0  0
 18 19  1  0  0  0  0
 20 22  2  0  0  0  0
 22 23  1  0  0  0  0
M  END
> <PUBCHEM_COMPOUND_ID_TYPE>
0

> <PUBCHEM_TOTAL_CHARGE>
0

> <PUBCHEM_SUBSTANCE_ID>
310940639

> <PUBCHEM_SUBSTANCE_VERSION>
1

> <PUBCHEM_EXT_DATASOURCE_NAME>
4488

> <PUBCHEM_EXT_DATASOURCE_REGID>
SCHEMBL16118594

> <PUBCHEM_SUBSTANCE_COMMENT>
InChI=1S/C18H13BrN2O2/c19-13-22-12-16-9-15(11-21)6-7-18(16)23-17-5-1-3-14(10-17)4-2-8-20/h1-7,9-10H,12-13H2/b4-2+
InChIKey=ORPDBPCPHJQHFL-DUXPYHPUSA-N

> <PUBCHEM_SUBSTANCE_SYNONYM>
SCHEMBL16118594

> <PUBCHEM_XREF_EXT_ID>
SCHEMBL16118594

> <PUBCHEM_EXT_DATASOURCE_URL>
https://www.surechembl.org/

> <PUBCHEM_EXT_SUBSTANCE_URL>
https://www.surechembl.org/chemical/SCHEMBL16118594

> <PUBCHEM_CID_ASSOCIATIONS>
117607619  1

> <PUBCHEM_COORDINATE_TYPE>
1
3

$$$$
