310940413
  -OEChem-07211613022D

 16 17  0     0  0  0  0  0  0999 V2000
   -3.3672    0.7605    0.0000 Cl  0  0  0  0  0  0  0  0  0  0  0  0
    1.8876    0.0415    0.0000 O   0  0  0  0  0  0  0  0  0  0  0  0
    0.1867    0.2765    0.0000 N   0  0  0  0  0  0  0  0  0  0  0  0
    3.3672    0.9542    0.0000 N   0  0  0  0  0  0  0  0  0  0  0  0
    1.3483   -0.5669    0.0000 C   0  0  0  0  0  0  0  0  0  0  0  0
    2.6620   -0.2765    0.0000 C   0  0  0  0  0  0  0  0  0  0  0  0
   -0.6292    0.3733    0.0000 C   0  0  0  0  0  0  0  0  0  0  0  0
    1.7769   -1.2722    0.0000 C   0  0  0  0  0  0  0  0  0  0  0  0
    0.5186   -0.4563    0.0000 C   0  0  0  0  0  0  0  0  0  0  0  0
    2.5653   -1.1063    0.0000 C   0  0  0  0  0  0  0  0  0  0  0  0
   -0.9334    1.1339    0.0000 C   0  0  0  0  0  0  0  0  0  0  0  0
   -1.1547   -0.2627    0.0000 C   0  0  0  0  0  0  0  0  0  0  0  0
   -2.2747    0.6361    0.0000 C   0  0  0  0  0  0  0  0  0  0  0  0
    3.3672    0.1245    0.0000 C   0  0  0  0  0  0  0  0  0  0  0  0
   -1.7493    1.2722    0.0000 C   0  0  0  0  0  0  0  0  0  0  0  0
   -1.9705   -0.1244    0.0000 C   0  0  0  0  0  0  0  0  0  0  0  0
  1 13  1  0  0  0  0
  2  5  1  0  0  0  0
  2  6  1  0  0  0  0
  3  7  1  0  0  0  0
  3  9  2  0  0  0  0
  4 14  2  3  0  0  0
  5  8  2  0  0  0  0
  5  9  1  0  0  0  0
  6 10  2  0  0  0  0
  6 14  1  0  0  0  0
  7 11  2  0  0  0  0
  7 12  1  0  0  0  0
  8 10  1  0  0  0  0
 11 15  1  0  0  0  0
 12 16  2  0  0  0  0
 13 15  2  0  0  0  0
 13 16  1  0  0  0  0
M  END
> <PUBCHEM_COMPOUND_ID_TYPE>
0

> <PUBCHEM_TOTAL_CHARGE>
0

> <PUBCHEM_SUBSTANCE_ID>
310940413

> <PUBCHEM_SUBSTANCE_VERSION>
1

> <PUBCHEM_EXT_DATASOURCE_NAME>
4488

> <PUBCHEM_EXT_DATASOURCE_REGID>
SCHEMBL16118361

> <PUBCHEM_SUBSTANCE_COMMENT>
InChI=1S/C12H9ClN2O/c13-9-1-3-10(4-2-9)15-8-12-6-5-11(7-14)16-12/h1-8,14H/b14-7?,15-8+
InChIKey=PGRVLJOZNHGZKB-QMAYSTCJSA-N

> <PUBCHEM_SUBSTANCE_SYNONYM>
SCHEMBL16118361

> <PUBCHEM_XREF_EXT_ID>
SCHEMBL16118361

> <PUBCHEM_EXT_DATASOURCE_URL>
https://www.surechembl.org/

> <PUBCHEM_EXT_SUBSTANCE_URL>
https://www.surechembl.org/chemical/SCHEMBL16118361

> <PUBCHEM_CID_ASSOCIATIONS>
117607438  1

> <PUBCHEM_COORDINATE_TYPE>
1
3

> <PUBCHEM_BONDANNOTATIONS>
3  7  3

$$$$
