310937965
  -OEChem-07211613022D

 28 32  0     0  0  0  0  0  0999 V2000
    0.0000   -2.3132    0.0000 N   0  0  0  0  0  0  0  0  0  0  0  0
    2.1686   -1.9157    0.0000 C   0  0  0  0  0  0  0  0  0  0  0  0
    2.8915   -2.1325    0.0000 C   0  0  0  0  0  0  0  0  0  0  0  0
    2.1686   -1.0843    0.0000 C   0  0  0  0  0  0  0  0  0  0  0  0
    3.3976   -1.4819    0.0000 C   0  0  0  0  0  0  0  0  0  0  0  0
    2.8915   -0.8313    0.0000 C   0  0  0  0  0  0  0  0  0  0  0  0
    1.4096   -2.3494    0.0000 C   0  0  0  0  0  0  0  0  0  0  0  0
    0.7229   -1.9157    0.0000 C   0  0  0  0  0  0  0  0  0  0  0  0
    1.4096   -3.1445    0.0000 C   0  0  0  0  0  0  0  0  0  0  0  0
    1.4096   -0.6506    0.0000 C   0  0  0  0  0  0  0  0  0  0  0  0
    4.1927   -1.4096    0.0000 C   0  0  0  0  0  0  0  0  0  0  0  0
    3.2891   -0.1084    0.0000 C   0  0  0  0  0  0  0  0  0  0  0  0
    0.7229   -1.0843    0.0000 C   0  0  0  0  0  0  0  0  0  0  0  0
    3.1445   -2.9277    0.0000 C   0  0  0  0  0  0  0  0  0  0  0  0
    3.6867   -2.2771    0.0000 C   0  0  0  0  0  0  0  0  0  0  0  0
    2.0964   -3.5422    0.0000 C   0  0  0  0  0  0  0  0  0  0  0  0
    0.6867   -3.5422    0.0000 C   0  0  0  0  0  0  0  0  0  0  0  0
    4.5180   -0.6506    0.0000 C   0  0  0  0  0  0  0  0  0  0  0  0
    4.0481    0.0000    0.0000 C   0  0  0  0  0  0  0  0  0  0  0  0
    1.4096   -4.7710    0.0000 C   0  0  0  0  0  0  0  0  0  0  0  0
    2.0964   -4.3735    0.0000 C   0  0  0  0  0  0  0  0  0  0  0  0
    0.6867   -4.3735    0.0000 C   0  0  0  0  0  0  0  0  0  0  0  0
    1.4096   -5.6024    0.0000 C   0  0  0  0  0  0  0  0  0  0  0  0
    0.6867   -6.0000    0.0000 C   0  0  0  0  0  0  0  0  0  0  0  0
    2.0964   -6.0000    0.0000 C   0  0  0  0  0  0  0  0  0  0  0  0
    0.6867   -6.8313    0.0000 C   0  0  0  0  0  0  0  0  0  0  0  0
    2.1325   -6.7951    0.0000 C   0  0  0  0  0  0  0  0  0  0  0  0
    1.4096   -7.2288    0.0000 C   0  0  0  0  0  0  0  0  0  0  0  0
  1  8  1  0  0  0  0
  2  3  1  0  0  0  0
  2  4  2  0  0  0  0
  2  7  1  0  0  0  0
  3  5  1  0  0  0  0
  3 14  1  0  0  0  0
  3 15  1  0  0  0  0
  4  6  1  0  0  0  0
  4 10  1  0  0  0  0
  5  6  2  0  0  0  0
  5 11  1  0  0  0  0
  6 12  1  0  0  0  0
  7  8  2  0  0  0  0
  7  9  1  0  0  0  0
  8 13  1  0  0  0  0
  9 16  2  0  0  0  0
  9 17  1  0  0  0  0
 10 13  2  0  0  0  0
 11 18  2  0  0  0  0
 12 19  2  0  0  0  0
 16 21  1  0  0  0  0
 17 22  2  0  0  0  0
 18 19  1  0  0  0  0
 20 21  2  0  0  0  0
 20 22  1  0  0  0  0
 20 23  1  0  0  0  0
 23 24  2  0  0  0  0
 23 25  1  0  0  0  0
 24 26  1  0  0  0  0
 25 27  2  0  0  0  0
 26 28  2  0  0  0  0
 27 28  1  0  0  0  0
M  END
> <PUBCHEM_COMPOUND_ID_TYPE>
0

> <PUBCHEM_TOTAL_CHARGE>
0

> <PUBCHEM_SUBSTANCE_ID>
310937965

> <PUBCHEM_SUBSTANCE_VERSION>
1

> <PUBCHEM_EXT_DATASOURCE_NAME>
4488

> <PUBCHEM_EXT_DATASOURCE_REGID>
SCHEMBL16115797

> <PUBCHEM_SUBSTANCE_COMMENT>
InChI=1S/C27H23N/c1-27(2)23-11-7-6-10-21(23)22-16-17-24(28)25(26(22)27)20-14-12-19(13-15-20)18-8-4-3-5-9-18/h3-17H,28H2,1-2H3
InChIKey=AOUCAPVHEWYHDZ-UHFFFAOYSA-N

> <PUBCHEM_SUBSTANCE_SYNONYM>
SCHEMBL16115797

> <PUBCHEM_XREF_EXT_ID>
SCHEMBL16115797

> <PUBCHEM_EXT_DATASOURCE_URL>
https://www.surechembl.org/

> <PUBCHEM_EXT_SUBSTANCE_URL>
https://www.surechembl.org/chemical/SCHEMBL16115797

> <PUBCHEM_CID_ASSOCIATIONS>
117605566  1

> <PUBCHEM_COORDINATE_TYPE>
1
3

$$$$
