310930949
  -OEChem-07211613022D

 35 38  0     1  0  0  0  0  0999 V2000
    7.0551   -2.0248    0.0000 S   0  0  0  0  0  0  0  0  0  0  0  0
    7.9409   -0.5694    0.0000 S   0  0  0  0  0  0  0  0  0  0  0  0
    6.2009   -0.6011    0.0000 F   0  0  0  0  0  0  0  0  0  0  0  0
    4.5874   -3.4484    0.0000 F   0  0  0  0  0  0  0  0  0  0  0  0
    1.2339   -4.9037    0.0000 F   0  0  0  0  0  0  0  0  0  0  0  0
    4.5557   -4.9037    0.0000 F   0  0  0  0  0  0  0  0  0  0  0  0
    3.7332   -6.3274    0.0000 F   0  0  0  0  0  0  0  0  0  0  0  0
    3.7016   -2.0248    0.0000 O   0  0  0  0  0  0  0  0  0  0  0  0
    7.0551   -2.9423    0.0000 O   0  0  0  0  0  0  0  0  0  0  0  0
    7.0551   -1.2339    0.0000 O   0  0  0  0  0  0  0  0  0  0  0  0
    0.0000   -2.7524    0.0000 O   0  0  0  0  0  0  0  0  0  0  0  0
    7.8460   -2.0248    0.0000 N   0  0  0  0  0  0  0  0  0  0  0  0
    1.2339   -2.0564    0.0000 N   0  0  0  0  0  0  0  0  0  0  0  0
    9.0799   -1.2022    0.0000 N   0  0  0  0  0  0  0  0  0  0  0  0
    8.5420    0.0000    0.0000 N   0  0  0  0  0  0  0  0  0  0  0  0
    6.2325   -2.0248    0.0000 C   0  0  0  0  0  0  0  0  0  0  0  0
    5.7896   -1.3287    0.0000 C   0  0  0  0  0  0  0  0  0  0  0  0
    4.5557   -2.0248    0.0000 C   0  0  0  0  0  0  0  0  0  0  0  0
    5.7896   -2.7524    0.0000 C   0  0  0  0  0  0  0  0  0  0  0  0
    4.9670   -2.7524    0.0000 C   0  0  0  0  0  0  0  0  0  0  0  0
    2.0564   -3.4801    0.0000 C   0  0  3  0  0  0  0  0  0  0  0  0
    4.9670   -1.3287    0.0000 C   0  0  0  0  0  0  0  0  0  0  0  0
    2.4677   -4.1761    0.0000 C   0  0  0  0  0  0  0  0  0  0  0  0
    2.4677   -2.7524    0.0000 C   0  0  3  0  0  0  0  0  0  0  0  0
    8.2573   -1.3287    0.0000 C   0  0  0  0  0  0  0  0  0  0  0  0
    2.0564   -4.9037    0.0000 C   0  0  0  0  0  0  0  0  0  0  0  0
    3.2903   -2.7524    0.0000 C   0  0  0  0  0  0  0  0  0  0  0  0
    3.2903   -4.1761    0.0000 C   0  0  0  0  0  0  0  0  0  0  0  0
    1.2339   -3.4801    0.0000 C   0  0  0  0  0  0  0  0  0  0  0  0
    3.7016   -4.9037    0.0000 C   0  0  0  0  0  0  0  0  0  0  0  0
    2.0564   -2.0248    0.0000 C   0  0  0  0  0  0  0  0  0  0  0  0
    3.2903   -5.6314    0.0000 C   0  0  0  0  0  0  0  0  0  0  0  0
    2.4677   -5.6314    0.0000 C   0  0  0  0  0  0  0  0  0  0  0  0
    0.8226   -2.7524    0.0000 C   0  0  0  0  0  0  0  0  0  0  0  0
    9.2380   -0.4113    0.0000 C   0  0  0  0  0  0  0  0  0  0  0  0
  1  9  2  0  0  0  0
  1 10  2  0  0  0  0
  1 12  1  0  0  0  0
  1 16  1  0  0  0  0
  2 15  1  0  0  0  0
  2 25  1  0  0  0  0
  3 17  1  0  0  0  0
  4 20  1  0  0  0  0
  5 26  1  0  0  0  0
  6 30  1  0  0  0  0
  7 32  1  0  0  0  0
  8 18  1  0  0  0  0
  8 27  1  0  0  0  0
 11 34  2  0  0  0  0
 12 25  1  0  0  0  0
 13 31  1  0  0  0  0
 13 34  1  0  0  0  0
 14 25  2  0  0  0  0
 14 35  1  0  0  0  0
 15 35  2  0  0  0  0
 16 17  1  0  0  0  0
 16 19  2  0  0  0  0
 17 22  2  0  0  0  0
 18 20  2  0  0  0  0
 18 22  1  0  0  0  0
 19 20  1  0  0  0  0
 21 23  1  0  0  0  0
 21 24  1  0  0  0  0
 21 29  1  1  0  0  0
 23 26  1  0  0  0  0
 23 28  2  0  0  0  0
 24 27  1  6  0  0  0
 24 31  1  0  0  0  0
 26 33  2  0  0  0  0
 28 30  1  0  0  0  0
 29 34  1  0  0  0  0
 30 32  2  0  0  0  0
 32 33  1  0  0  0  0
M  END
> <PUBCHEM_COMPOUND_ID_TYPE>
0

> <PUBCHEM_TOTAL_CHARGE>
0

> <PUBCHEM_SUBSTANCE_ID>
310930949

> <PUBCHEM_SUBSTANCE_VERSION>
1

> <PUBCHEM_EXT_DATASOURCE_NAME>
4488

> <PUBCHEM_EXT_DATASOURCE_REGID>
SCHEMBL16108248

> <PUBCHEM_SUBSTANCE_COMMENT>
InChI=1S/C20H15F5N4O4S2/c21-12-3-14(23)13(22)1-11(12)10-2-19(30)26-6-9(10)7-33-17-4-16(25)18(5-15(17)24)35(31,32)29-20-27-8-28-34-20/h1,3-5,8-10H,2,6-7H2,(H,26,30)(H,27,28,29)/t9-,10+/m1/s1
InChIKey=MNLMEZHEVLCYTN-ZJUUUORDSA-N

> <PUBCHEM_SUBSTANCE_SYNONYM>
SCHEMBL16108248

> <PUBCHEM_XREF_EXT_ID>
SCHEMBL16108248

> <PUBCHEM_EXT_DATASOURCE_URL>
https://www.surechembl.org/

> <PUBCHEM_EXT_SUBSTANCE_URL>
https://www.surechembl.org/chemical/SCHEMBL16108248

> <PUBCHEM_CID_ASSOCIATIONS>
71559035  1

> <PUBCHEM_COORDINATE_TYPE>
1
3

> <PUBCHEM_BONDANNOTATIONS>
21  29  5
24  27  6

$$$$
