310933228
  -OEChem-07211613022D

 33 37  0     0  0  0  0  0  0999 V2000
    0.0000   -3.8774    0.0000 F   0  0  0  0  0  0  0  0  0  0  0  0
    0.7150   -5.1149    0.0000 F   0  0  0  0  0  0  0  0  0  0  0  0
    1.4300   -4.6750    0.0000 F   0  0  0  0  0  0  0  0  0  0  0  0
    1.4300   -3.8500    0.0000 O   0  0  0  0  0  0  0  0  0  0  0  0
    0.5775   -0.3850    0.0000 O   0  0  0  0  0  0  0  0  0  0  0  0
    5.6650   -2.2275    0.0000 O   0  0  0  0  0  0  0  0  0  0  0  0
    4.3724   -2.8600    0.0000 N   0  0  0  0  0  0  0  0  0  0  0  0
    4.3724   -1.5675    0.0000 N   0  0  0  0  0  0  0  0  0  0  0  0
    4.2625   -5.5000    0.0000 N   0  0  0  0  0  0  0  0  0  0  0  0
    0.1375   -1.1000    0.0000 N   0  0  0  0  0  0  0  0  0  0  0  0
    2.8600   -3.0250    0.0000 C   0  0  0  0  0  0  0  0  0  0  0  0
    3.5750   -2.6400    0.0000 C   0  0  0  0  0  0  0  0  0  0  0  0
    2.8600   -3.8500    0.0000 C   0  0  0  0  0  0  0  0  0  0  0  0
    3.5750   -1.7875    0.0000 C   0  0  0  0  0  0  0  0  0  0  0  0
    2.1725   -1.7875    0.0000 C   0  0  0  0  0  0  0  0  0  0  0  0
    3.5474   -4.2625    0.0000 C   0  0  0  0  0  0  0  0  0  0  0  0
    2.1725   -2.6400    0.0000 C   0  0  0  0  0  0  0  0  0  0  0  0
    2.1450   -4.2625    0.0000 C   0  0  0  0  0  0  0  0  0  0  0  0
    2.8600   -1.4025    0.0000 C   0  0  0  0  0  0  0  0  0  0  0  0
    4.8400   -2.2275    0.0000 C   0  0  0  0  0  0  0  0  0  0  0  0
    1.4575   -1.3750    0.0000 C   0  0  0  0  0  0  0  0  0  0  0  0
    3.5474   -5.0875    0.0000 C   0  0  0  0  0  0  0  0  0  0  0  0
    2.1450   -5.0875    0.0000 C   0  0  0  0  0  0  0  0  0  0  0  0
    1.3750   -0.5500    0.0000 C   0  0  0  0  0  0  0  0  0  0  0  0
    0.7150   -1.7050    0.0000 C   0  0  0  0  0  0  0  0  0  0  0  0
    2.8600   -5.5000    0.0000 C   0  0  0  0  0  0  0  0  0  0  0  0
    4.2625   -3.8500    0.0000 C   0  0  0  0  0  0  0  0  0  0  0  0
    4.6199   -3.6575    0.0000 C   0  0  0  0  0  0  0  0  0  0  0  0
    0.7150   -4.2899    0.0000 C   0  0  0  0  0  0  0  0  0  0  0  0
    4.9775   -4.2625    0.0000 C   0  0  0  0  0  0  0  0  0  0  0  0
    4.9775   -5.0875    0.0000 C   0  0  0  0  0  0  0  0  0  0  0  0
    1.9800    0.0000    0.0000 C   0  0  0  0  0  0  0  0  0  0  0  0
    0.5500   -2.5025    0.0000 C   0  0  0  0  0  0  0  0  0  0  0  0
  1 29  1  0  0  0  0
  2 29  1  0  0  0  0
  3 29  1  0  0  0  0
  4 18  1  0  0  0  0
  4 29  1  0  0  0  0
  5 10  1  0  0  0  0
  5 24  1  0  0  0  0
  6 20  2  0  0  0  0
  7 12  1  0  0  0  0
  7 20  1  0  0  0  0
  7 28  1  0  0  0  0
  8 14  1  0  0  0  0
  8 20  1  0  0  0  0
  9 22  2  0  0  0  0
  9 31  1  0  0  0  0
 10 25  2  0  0  0  0
 11 12  1  0  0  0  0
 11 13  1  0  0  0  0
 11 17  2  0  0  0  0
 12 14  2  0  0  0  0
 13 16  1  0  0  0  0
 13 18  2  0  0  0  0
 14 19  1  0  0  0  0
 15 17  1  0  0  0  0
 15 19  2  0  0  0  0
 15 21  1  0  0  0  0
 16 22  1  0  0  0  0
 16 27  2  0  0  0  0
 18 23  1  0  0  0  0
 21 24  2  0  0  0  0
 21 25  1  0  0  0  0
 22 26  1  0  0  0  0
 23 26  2  0  0  0  0
 24 32  1  0  0  0  0
 25 33  1  0  0  0  0
 27 30  1  0  0  0  0
 30 31  2  0  0  0  0
M  END
> <PUBCHEM_COMPOUND_ID_TYPE>
0

> <PUBCHEM_TOTAL_CHARGE>
0

> <PUBCHEM_SUBSTANCE_ID>
310933228

> <PUBCHEM_SUBSTANCE_VERSION>
1

> <PUBCHEM_EXT_DATASOURCE_NAME>
4488

> <PUBCHEM_EXT_DATASOURCE_REGID>
SCHEMBL16110637

> <PUBCHEM_SUBSTANCE_COMMENT>
InChI=1S/C23H17F3N4O3/c1-11-19(12(2)33-29-11)13-9-15(21-17(10-13)28-22(31)30(21)3)20-14-5-4-8-27-16(14)6-7-18(20)32-23(24,25)26/h4-10H,1-3H3,(H,28,31)
InChIKey=YMJQLXWNHJQGFW-UHFFFAOYSA-N

> <PUBCHEM_SUBSTANCE_SYNONYM>
SCHEMBL16110637

> <PUBCHEM_XREF_EXT_ID>
SCHEMBL16110637

> <PUBCHEM_EXT_DATASOURCE_URL>
https://www.surechembl.org/

> <PUBCHEM_EXT_SUBSTANCE_URL>
https://www.surechembl.org/chemical/SCHEMBL16110637

> <PUBCHEM_CID_ASSOCIATIONS>
117601662  1

> <PUBCHEM_COORDINATE_TYPE>
1
3

$$$$
