310946350
  -OEChem-07211613022D

 21 22  0     0  0  0  0  0  0999 V2000
   -1.0360  -15.0571    0.0000 O   0  0  0  0  0  0  0  0  0  0  0  0
   -3.8939  -16.7071    0.0000 O   0  0  0  0  0  0  0  0  0  0  0  0
    3.2509  -17.5321    0.0000 O   0  0  0  0  0  0  0  0  0  0  0  0
   -0.3215  -15.4696    0.0000 C   0  0  0  0  0  0  0  0  0  0  0  0
   -0.3215  -16.2946    0.0000 C   0  0  0  0  0  0  0  0  0  0  0  0
    0.3930  -15.0571    0.0000 C   0  0  0  0  0  0  0  0  0  0  0  0
    1.1074  -16.2946    0.0000 C   0  0  0  0  0  0  0  0  0  0  0  0
   -1.7504  -15.4696    0.0000 C   0  0  0  0  0  0  0  0  0  0  0  0
    0.3930  -16.7071    0.0000 C   0  0  0  0  0  0  0  0  0  0  0  0
    1.1074  -15.4696    0.0000 C   0  0  0  0  0  0  0  0  0  0  0  0
   -2.4649  -15.0571    0.0000 C   0  0  0  0  0  0  0  0  0  0  0  0
   -1.7504  -16.2946    0.0000 C   0  0  0  0  0  0  0  0  0  0  0  0
    1.8219  -16.7071    0.0000 C   0  0  0  0  0  0  0  0  0  0  0  0
   -3.1794  -16.2946    0.0000 C   0  0  0  0  0  0  0  0  0  0  0  0
   -1.0360  -16.7071    0.0000 C   0  0  0  0  0  0  0  0  0  0  0  0
    0.3930  -14.2321    0.0000 C   0  0  0  0  0  0  0  0  0  0  0  0
   -3.1794  -15.4696    0.0000 C   0  0  0  0  0  0  0  0  0  0  0  0
   -2.4649  -16.7071    0.0000 C   0  0  0  0  0  0  0  0  0  0  0  0
    2.5364  -16.2946    0.0000 C   0  0  0  0  0  0  0  0  0  0  0  0
    3.2509  -16.7071    0.0000 C   0  0  0  0  0  0  0  0  0  0  0  0
    3.9653  -16.2946    0.0000 C   0  0  0  0  0  0  0  0  0  0  0  0
  1  4  1  0  0  0  0
  1  8  1  0  0  0  0
  2 14  1  0  0  0  0
  3 20  2  0  0  0  0
  4  5  2  0  0  0  0
  4  6  1  0  0  0  0
  5  9  1  0  0  0  0
  5 15  1  0  0  0  0
  6 10  2  0  0  0  0
  6 16  1  0  0  0  0
  7  9  2  0  0  0  0
  7 10  1  0  0  0  0
  7 13  1  0  0  0  0
  8 11  2  0  0  0  0
  8 12  1  0  0  0  0
 11 17  1  0  0  0  0
 12 18  2  0  0  0  0
 13 19  1  0  0  0  0
 14 17  2  0  0  0  0
 14 18  1  0  0  0  0
 19 20  1  0  0  0  0
 20 21  1  0  0  0  0
M  END
> <PUBCHEM_COMPOUND_ID_TYPE>
0

> <PUBCHEM_TOTAL_CHARGE>
0

> <PUBCHEM_SUBSTANCE_ID>
310946350

> <PUBCHEM_SUBSTANCE_VERSION>
1

> <PUBCHEM_EXT_DATASOURCE_NAME>
4488

> <PUBCHEM_EXT_DATASOURCE_REGID>
SCHEMBL16124469

> <PUBCHEM_SUBSTANCE_COMMENT>
InChI=1S/C18H20O3/c1-12-10-15(5-4-14(3)19)11-13(2)18(12)21-17-8-6-16(20)7-9-17/h6-11,20H,4-5H2,1-3H3
InChIKey=MGFBJGPYIDCLHO-UHFFFAOYSA-N

> <PUBCHEM_SUBSTANCE_SYNONYM>
SCHEMBL16124469

> <PUBCHEM_XREF_EXT_ID>
SCHEMBL16124469

> <PUBCHEM_EXT_DATASOURCE_URL>
https://www.surechembl.org/

> <PUBCHEM_EXT_SUBSTANCE_URL>
https://www.surechembl.org/chemical/SCHEMBL16124469

> <PUBCHEM_CID_ASSOCIATIONS>
117612273  1

> <PUBCHEM_COORDINATE_TYPE>
1
3

$$$$
