310943898
  -OEChem-07211613022D

 33 38  0     1  0  0  0  0  0999 V2000
    2.7094    1.3377    0.0000 O   0  0  0  0  0  0  0  0  0  0  0  0
    5.8607   -0.2267    0.0000 O   0  0  0  0  0  0  0  0  0  0  0  0
   -1.5417   -1.3943    0.0000 O   0  0  0  0  0  0  0  0  0  0  0  0
    6.4388    1.1110    0.0000 O   0  0  0  0  0  0  0  0  0  0  0  0
   -0.7254    0.0340    0.0000 N   0  0  0  0  0  0  0  0  0  0  0  0
    3.8203   -0.1247    0.0000 N   0  0  0  0  0  0  0  0  0  0  0  0
   -3.1627    0.0113    0.0000 N   0  0  0  0  0  0  0  0  0  0  0  0
   -5.1920   -0.6915    0.0000 N   0  0  0  0  0  0  0  0  0  0  0  0
   -3.9677    0.0113    0.0000 N   0  0  0  0  0  0  0  0  0  0  0  0
   -5.6681   -0.0340    0.0000 N   0  0  0  0  0  0  0  0  0  0  0  0
   -6.4388   -0.2834    0.0000 N   0  0  0  0  0  0  0  0  0  0  0  0
   -6.4388   -1.0996    0.0000 N   0  0  0  0  0  0  0  0  0  0  0  0
    2.2446   -0.5441    0.0000 C   0  0  0  0  0  0  0  0  0  0  0  0
    2.8340    0.2948    0.0000 C   0  0  0  0  0  0  0  0  0  0  0  0
    0.3628   -0.3060    0.0000 C   0  0  3  0  0  0  0  0  0  0  0  0
    0.2947    0.5441    0.0000 C   0  0  3  0  0  0  0  0  0  0  0  0
    1.1337   -1.1676    0.0000 C   0  0  0  0  0  0  0  0  0  0  0  0
    1.0089   -0.3628    0.0000 C   0  0  0  0  0  0  0  0  0  0  0  0
    2.9247   -1.3150    0.0000 C   0  0  0  0  0  0  0  0  0  0  0  0
    3.8656   -0.9636    0.0000 C   0  0  0  0  0  0  0  0  0  0  0  0
    4.5798    0.1020    0.0000 C   0  0  0  0  0  0  0  0  0  0  0  0
    0.8616    0.7596    0.0000 C   0  0  0  0  0  0  0  0  0  0  0  0
    0.5554    1.3943    0.0000 C   0  0  0  0  0  0  0  0  0  0  0  0
   -1.5304    0.0113    0.0000 C   0  0  0  0  0  0  0  0  0  0  0  0
   -1.9384   -0.6915    0.0000 C   0  0  3  0  0  0  0  0  0  0  0  0
    5.0218    0.7936    0.0000 C   0  0  0  0  0  0  0  0  0  0  0  0
    5.1240   -0.5214    0.0000 C   0  0  0  0  0  0  0  0  0  0  0  0
   -2.7547   -0.6801    0.0000 C   0  0  0  0  0  0  0  0  0  0  0  0
    5.7927    0.5781    0.0000 C   0  0  0  0  0  0  0  0  0  0  0  0
   -4.3757   -0.7028    0.0000 C   0  0  0  0  0  0  0  0  0  0  0  0
   -3.1627   -1.3943    0.0000 C   0  0  0  0  0  0  0  0  0  0  0  0
   -3.9677   -1.3943    0.0000 C   0  0  0  0  0  0  0  0  0  0  0  0
   -5.6681   -1.3490    0.0000 C   0  0  0  0  0  0  0  0  0  0  0  0
  1 14  2  0  0  0  0
  2 27  1  0  0  0  0
  2 29  1  0  0  0  0
 25  3  1  6  0  0  0
  4 29  2  0  0  0  0
  5 15  1  0  0  0  0
  5 16  1  0  0  0  0
  5 24  1  0  0  0  0
  6 14  1  0  0  0  0
  6 20  1  0  0  0  0
  6 21  1  0  0  0  0
  7  9  2  0  0  0  0
  7 28  1  0  0  0  0
  8 10  1  0  0  0  0
  8 30  1  0  0  0  0
  8 33  1  0  0  0  0
  9 30  1  0  0  0  0
 10 11  2  0  0  0  0
 11 12  1  0  0  0  0
 12 33  2  0  0  0  0
 13 14  1  0  0  0  0
 13 17  1  0  0  0  0
 13 18  1  0  0  0  0
 13 19  1  0  0  0  0
 15 17  1  0  0  0  0
 15 22  1  0  0  0  0
 16 18  1  0  0  0  0
 16 23  1  0  0  0  0
 19 20  1  0  0  0  0
 21 26  2  0  0  0  0
 21 27  1  0  0  0  0
 22 23  1  0  0  0  0
 24 25  1  0  0  0  0
 25 28  1  0  0  0  0
 26 29  1  0  0  0  0
 28 31  2  0  0  0  0
 30 32  2  0  0  0  0
 31 32  1  0  0  0  0
M  END
> <PUBCHEM_COMPOUND_ID_TYPE>
0

> <PUBCHEM_TOTAL_CHARGE>
0

> <PUBCHEM_SUBSTANCE_ID>
310943898

> <PUBCHEM_SUBSTANCE_VERSION>
1

> <PUBCHEM_EXT_DATASOURCE_NAME>
4488

> <PUBCHEM_EXT_DATASOURCE_REGID>
SCHEMBL16121969

> <PUBCHEM_SUBSTANCE_COMMENT>
InChI=1S/C21H24N8O4/c30-17(16-3-4-18(24-23-16)29-12-22-25-26-29)10-28-13-1-2-14(28)9-21(8-13)5-6-27(20(21)32)15-7-19(31)33-11-15/h3-4,7,12-14,17,30H,1-2,5-6,8-11H2/t13?,14?,17-,21?/m0/s1
InChIKey=RQLKLUMAPJFIIP-QRWIOAOZSA-N

> <PUBCHEM_SUBSTANCE_SYNONYM>
SCHEMBL16121969

> <PUBCHEM_XREF_EXT_ID>
SCHEMBL16121969

> <PUBCHEM_EXT_DATASOURCE_URL>
https://www.surechembl.org/

> <PUBCHEM_EXT_SUBSTANCE_URL>
https://www.surechembl.org/chemical/SCHEMBL16121969

> <PUBCHEM_CID_ASSOCIATIONS>
117610218  1

> <PUBCHEM_COORDINATE_TYPE>
1
3

> <PUBCHEM_BONDANNOTATIONS>
25  3  6

$$$$
