310938966
  -OEChem-07211613022D

 28 29  0     1  0  0  0  0  0999 V2000
    2.3248   -3.3591    0.0000 O   0  0  0  0  0  0  0  0  0  0  0  0
    1.6103   -4.5966    0.0000 O   0  0  0  0  0  0  0  0  0  0  0  0
    3.7537   -6.6591    0.0000 N   0  0  0  0  0  0  0  0  0  0  0  0
    3.0392   -4.5966    0.0000 N   0  0  0  0  0  0  0  0  0  0  0  0
    4.4682   -7.0716    0.0000 C   0  0  0  0  0  0  0  0  0  0  0  0
    5.1826   -6.6591    0.0000 C   0  0  0  0  0  0  0  0  0  0  0  0
    4.4682   -7.8966    0.0000 C   0  0  0  0  0  0  0  0  0  0  0  0
    3.7537   -5.8341    0.0000 C   0  0  3  0  0  0  0  0  0  0  0  0
    3.0392   -5.4216    0.0000 C   0  0  3  0  0  0  0  0  0  0  0  0
    2.3248   -5.8341    0.0000 C   0  0  0  0  0  0  0  0  0  0  0  0
    5.8971   -7.0716    0.0000 C   0  0  0  0  0  0  0  0  0  0  0  0
    3.7537   -8.3091    0.0000 C   0  0  0  0  0  0  0  0  0  0  0  0
    5.1826   -5.8341    0.0000 C   0  0  0  0  0  0  0  0  0  0  0  0
    5.1826   -8.3091    0.0000 C   0  0  0  0  0  0  0  0  0  0  0  0
    2.3248   -4.1841    0.0000 C   0  0  0  0  0  0  0  0  0  0  0  0
    1.6103   -2.9466    0.0000 C   0  0  0  0  0  0  0  0  0  0  0  0
    4.4682   -5.4216    0.0000 C   0  0  0  0  0  0  0  0  0  0  0  0
    6.6116   -6.6591    0.0000 C   0  0  0  0  0  0  0  0  0  0  0  0
    3.7537   -9.1341    0.0000 C   0  0  0  0  0  0  0  0  0  0  0  0
    5.8971   -5.4216    0.0000 C   0  0  0  0  0  0  0  0  0  0  0  0
    5.1826   -9.1341    0.0000 C   0  0  0  0  0  0  0  0  0  0  0  0
    6.6116   -5.8341    0.0000 C   0  0  0  0  0  0  0  0  0  0  0  0
    4.4682   -9.5466    0.0000 C   0  0  0  0  0  0  0  0  0  0  0  0
    1.6103   -5.4216    0.0000 C   0  0  0  0  0  0  0  0  0  0  0  0
    2.3248   -6.6591    0.0000 C   0  0  0  0  0  0  0  0  0  0  0  0
    1.6103   -2.1216    0.0000 C   0  0  0  0  0  0  0  0  0  0  0  0
    0.8958   -2.5341    0.0000 C   0  0  0  0  0  0  0  0  0  0  0  0
    0.8958   -3.3591    0.0000 C   0  0  0  0  0  0  0  0  0  0  0  0
  1 15  1  0  0  0  0
  1 16  1  0  0  0  0
  2 15  2  0  0  0  0
  3  5  2  0  0  0  0
  3  8  1  0  0  0  0
  9  4  1  1  0  0  0
  4 15  1  0  0  0  0
  5  6  1  0  0  0  0
  5  7  1  0  0  0  0
  6 11  2  0  0  0  0
  6 13  1  0  0  0  0
  7 12  2  0  0  0  0
  7 14  1  0  0  0  0
  8  9  1  0  0  0  0
  8 17  1  1  0  0  0
  9 10  1  0  0  0  0
 10 24  1  0  0  0  0
 10 25  1  0  0  0  0
 11 18  1  0  0  0  0
 12 19  1  0  0  0  0
 13 20  2  0  0  0  0
 14 21  2  0  0  0  0
 16 26  1  0  0  0  0
 16 27  1  0  0  0  0
 16 28  1  0  0  0  0
 18 22  2  0  0  0  0
 19 23  2  0  0  0  0
 20 22  1  0  0  0  0
 21 23  1  0  0  0  0
M  END
> <PUBCHEM_COMPOUND_ID_TYPE>
0

> <PUBCHEM_TOTAL_CHARGE>
0

> <PUBCHEM_SUBSTANCE_ID>
310938966

> <PUBCHEM_SUBSTANCE_VERSION>
1

> <PUBCHEM_EXT_DATASOURCE_NAME>
4488

> <PUBCHEM_EXT_DATASOURCE_REGID>
SCHEMBL16116885

> <PUBCHEM_SUBSTANCE_COMMENT>
InChI=1S/C24H32N2O2/c1-17(2)21(26-23(27)28-24(4,5)6)18(3)25-22(19-13-9-7-10-14-19)20-15-11-8-12-16-20/h7-18,21H,1-6H3,(H,26,27)/t18-,21-/m1/s1
InChIKey=MQLBEGBGZGPWJQ-WIYYLYMNSA-N

> <PUBCHEM_SUBSTANCE_SYNONYM>
SCHEMBL16116885

> <PUBCHEM_XREF_EXT_ID>
SCHEMBL16116885

> <PUBCHEM_EXT_DATASOURCE_URL>
https://www.surechembl.org/

> <PUBCHEM_EXT_SUBSTANCE_URL>
https://www.surechembl.org/chemical/SCHEMBL16116885

> <PUBCHEM_CID_ASSOCIATIONS>
117606351  1

> <PUBCHEM_COORDINATE_TYPE>
1
3

> <PUBCHEM_BONDANNOTATIONS>
9  4  5
8  17  5

$$$$
