310935338
  -OEChem-07211613022D

 30 33  0     1  0  0  0  0  0999 V2000
    0.0992   -0.1841    0.0000 S   0  0  0  0  0  0  0  0  0  0  0  0
    3.3523    3.5854    0.0000 O   0  0  0  0  0  0  0  0  0  0  0  0
    6.5042    1.9182    0.0000 O   0  0  0  0  0  0  0  0  0  0  0  0
    4.1008    0.1655    0.0000 O   0  0  0  0  0  0  0  0  0  0  0  0
    6.2560    0.5109    0.0000 O   0  0  0  0  0  0  0  0  0  0  0  0
    1.9233    1.1104    0.0000 C   0  0  3  0  0  0  0  0  0  0  0  0
    1.9233    1.9354    0.0000 C   0  0  3  0  0  0  0  0  0  0  0  0
    3.3523    1.9354    0.0000 C   0  0  3  0  0  0  0  0  0  0  0  0
    2.6378    2.3479    0.0000 C   0  0  3  0  0  0  0  0  0  0  0  0
    4.0668    2.3479    0.0000 C   0  0  3  0  0  0  0  0  0  0  0  0
    1.1387    0.8555    0.0000 C   0  0  0  0  0  0  0  0  0  0  0  0
    2.6378    0.6979    0.0000 C   0  0  0  0  0  0  0  0  0  0  0  0
    3.3523    1.1104    0.0000 C   0  0  0  0  0  0  0  0  0  0  0  0
    1.1387    2.1904    0.0000 C   0  0  0  0  0  0  0  0  0  0  0  0
    4.3489    1.5727    0.0000 C   0  0  3  0  0  0  0  0  0  0  0  0
    0.6538    1.5229    0.0000 C   0  0  0  0  0  0  0  0  0  0  0  0
    0.8838    0.0709    0.0000 C   0  0  0  0  0  0  0  0  0  0  0  0
    4.5971    2.9799    0.0000 C   0  0  0  0  0  0  0  0  0  0  0  0
    1.8371    0.2900    0.0000 C   0  0  0  0  0  0  0  0  0  0  0  0
    2.6378    3.1729    0.0000 C   0  0  0  0  0  0  0  0  0  0  0  0
    3.5365    2.9799    0.0000 C   0  0  0  0  0  0  0  0  0  0  0  0
    5.1614    1.4294    0.0000 C   0  0  0  0  0  0  0  0  0  0  0  0
    5.6917    2.0614    0.0000 C   0  0  3  0  0  0  0  0  0  0  0  0
    5.4095    2.8367    0.0000 C   0  0  0  0  0  0  0  0  0  0  0  0
    1.3687   -0.5966    0.0000 C   0  0  0  0  0  0  0  0  0  0  0  0
    3.8186    0.9407    0.0000 C   0  0  0  0  0  0  0  0  0  0  0  0
    0.0992   -1.0091    0.0000 C   0  0  0  0  0  0  0  0  0  0  0  0
    0.8838   -1.2640    0.0000 C   0  0  0  0  0  0  0  0  0  0  0  0
    6.7863    1.1429    0.0000 C   0  0  0  0  0  0  0  0  0  0  0  0
    7.5988    0.9997    0.0000 C   0  0  0  0  0  0  0  0  0  0  0  0
  1 17  1  0  0  0  0
  1 27  1  0  0  0  0
  2 20  1  0  0  0  0
 23  3  1  6  0  0  0
  3 29  1  0  0  0  0
  4 26  1  0  0  0  0
  5 29  2  0  0  0  0
  6  7  1  0  0  0  0
  6 11  1  0  0  0  0
  6 12  1  0  0  0  0
  6 19  1  1  0  0  0
  7  9  1  0  0  0  0
  7 14  1  1  0  0  0
  8  9  1  0  0  0  0
  8 10  1  0  0  0  0
  8 13  1  1  0  0  0
  9 20  1  6  0  0  0
 10 15  1  0  0  0  0
 10 18  1  0  0  0  0
 10 21  1  6  0  0  0
 11 16  2  0  0  0  0
 11 17  1  0  0  0  0
 12 13  1  0  0  0  0
 14 16  1  0  0  0  0
 15 22  1  0  0  0  0
 15 26  1  6  0  0  0
 17 25  2  0  0  0  0
 18 24  1  0  0  0  0
 22 23  1  0  0  0  0
 23 24  1  0  0  0  0
 25 28  1  0  0  0  0
 27 28  2  0  0  0  0
 29 30  1  0  0  0  0
M  END
> <PUBCHEM_COMPOUND_ID_TYPE>
0

> <PUBCHEM_TOTAL_CHARGE>
0

> <PUBCHEM_SUBSTANCE_ID>
310935338

> <PUBCHEM_SUBSTANCE_VERSION>
1

> <PUBCHEM_EXT_DATASOURCE_NAME>
4488

> <PUBCHEM_EXT_DATASOURCE_REGID>
SCHEMBL16112876

> <PUBCHEM_SUBSTANCE_COMMENT>
InChI=1S/C25H36O4S/c1-16(28)29-18-8-10-24(2,17(13-18)14-26)21-9-11-25(3)20(19(21)15-27)6-7-22(25)23-5-4-12-30-23/h4-5,7,12,17-21,26-27H,6,8-11,13-15H2,1-3H3/t17-,18+,19+,20+,21+,24+,25+/m1/s1
InChIKey=CJZCOVZMQXUQCW-KPERJPBUSA-N

> <PUBCHEM_SUBSTANCE_SYNONYM>
SCHEMBL16112876

> <PUBCHEM_XREF_EXT_ID>
SCHEMBL16112876

> <PUBCHEM_EXT_DATASOURCE_URL>
https://www.surechembl.org/

> <PUBCHEM_EXT_SUBSTANCE_URL>
https://www.surechembl.org/chemical/SCHEMBL16112876

> <PUBCHEM_CID_ASSOCIATIONS>
117603393  1

> <PUBCHEM_COORDINATE_TYPE>
1
3

> <PUBCHEM_BONDANNOTATIONS>
10  21  6
15  26  6
23  3  6
6  19  5
7  14  5
8  13  5
9  20  6

$$$$
