310936716
  -OEChem-07211613022D

 24 26  0     0  0  0  0  0  0999 V2000
    0.0263   -0.6834    0.0000 Cl  0  0  0  0  0  0  0  0  0  0  0  0
    2.4447   -3.6013    0.0000 O   0  0  0  0  0  0  0  0  0  0  0  0
    3.7065   -2.8652    0.0000 N   0  0  0  0  0  0  0  0  0  0  0  0
    6.2037    0.0000    0.0000 N   0  0  0  0  0  0  0  0  0  0  0  0
    6.2037   -1.4195    0.0000 N   0  0  0  0  0  0  0  0  0  0  0  0
    7.8861    0.0000    0.0000 N   0  0  0  0  0  0  0  0  0  0  0  0
    2.4710   -2.1555    0.0000 C   0  0  0  0  0  0  0  0  0  0  0  0
    1.6561   -2.1293    0.0000 C   0  0  0  0  0  0  0  0  0  0  0  0
    2.8652   -2.8916    0.0000 C   0  0  0  0  0  0  0  0  0  0  0  0
    3.7065   -1.4195    0.0000 C   0  0  0  0  0  0  0  0  0  0  0  0
    2.8652   -1.4458    0.0000 C   0  0  0  0  0  0  0  0  0  0  0  0
    4.1008   -2.1555    0.0000 C   0  0  0  0  0  0  0  0  0  0  0  0
    4.1270   -0.7098    0.0000 C   0  0  0  0  0  0  0  0  0  0  0  0
    4.9682   -0.7098    0.0000 C   0  0  0  0  0  0  0  0  0  0  0  0
    1.2355   -1.4195    0.0000 C   0  0  0  0  0  0  0  0  0  0  0  0
    1.2092   -2.8390    0.0000 C   0  0  0  0  0  0  0  0  0  0  0  0
    0.4206   -1.3932    0.0000 C   0  0  0  0  0  0  0  0  0  0  0  0
    5.3888    0.0000    0.0000 C   0  0  0  0  0  0  0  0  0  0  0  0
    5.3888   -1.4195    0.0000 C   0  0  0  0  0  0  0  0  0  0  0  0
    0.3943   -2.8390    0.0000 C   0  0  0  0  0  0  0  0  0  0  0  0
    6.6506   -0.7098    0.0000 C   0  0  0  0  0  0  0  0  0  0  0  0
    0.0000   -2.1029    0.0000 C   0  0  0  0  0  0  0  0  0  0  0  0
    7.4655   -0.7098    0.0000 C   0  0  0  0  0  0  0  0  0  0  0  0
    2.8652   -4.3111    0.0000 C   0  0  0  0  0  0  0  0  0  0  0  0
  1 17  1  0  0  0  0
  2  9  1  0  0  0  0
  2 24  1  0  0  0  0
  3  9  2  0  0  0  0
  3 12  1  0  0  0  0
  4 18  1  0  0  0  0
  4 21  2  0  0  0  0
  5 19  2  0  0  0  0
  5 21  1  0  0  0  0
  6 23  3  0  0  0  0
  7  8  1  0  0  0  0
  7  9  1  0  0  0  0
  7 11  2  0  0  0  0
  8 15  1  0  0  0  0
  8 16  2  0  0  0  0
 10 11  1  0  0  0  0
 10 12  2  0  0  0  0
 10 13  1  0  0  0  0
 13 14  1  0  0  0  0
 14 18  2  0  0  0  0
 14 19  1  0  0  0  0
 15 17  2  0  0  0  0
 16 20  1  0  0  0  0
 17 22  1  0  0  0  0
 20 22  2  0  0  0  0
 21 23  1  0  0  0  0
M  END
> <PUBCHEM_COMPOUND_ID_TYPE>
0

> <PUBCHEM_TOTAL_CHARGE>
0

> <PUBCHEM_SUBSTANCE_ID>
310936716

> <PUBCHEM_SUBSTANCE_VERSION>
1

> <PUBCHEM_EXT_DATASOURCE_NAME>
4488

> <PUBCHEM_EXT_DATASOURCE_REGID>
SCHEMBL16114394

> <PUBCHEM_SUBSTANCE_COMMENT>
InChI=1S/C18H13ClN4O/c1-24-18-16(14-3-2-4-15(19)7-14)6-12(9-23-18)5-13-10-21-17(8-20)22-11-13/h2-4,6-7,9-11H,5H2,1H3
InChIKey=ZYAWQUPZQZNIFM-UHFFFAOYSA-N

> <PUBCHEM_SUBSTANCE_SYNONYM>
SCHEMBL16114394

> <PUBCHEM_XREF_EXT_ID>
SCHEMBL16114394

> <PUBCHEM_EXT_DATASOURCE_URL>
https://www.surechembl.org/

> <PUBCHEM_EXT_SUBSTANCE_URL>
https://www.surechembl.org/chemical/SCHEMBL16114394

> <PUBCHEM_CID_ASSOCIATIONS>
117604618  1

> <PUBCHEM_COORDINATE_TYPE>
1
3

$$$$
