310942317
  -OEChem-07211613022D

 25 28  0     0  0  0  0  0  0999 V2000
    2.0106    1.0238    0.0000 O   0  0  0  0  0  0  0  0  0  0  0  0
   -2.6440   -0.4934    0.0000 N   0  0  0  0  0  0  0  0  0  0  0  0
    2.7324   -0.2283    0.0000 N   0  0  0  0  0  0  0  0  0  0  0  0
    4.1905   -1.0827    0.0000 N   0  0  0  0  0  0  0  0  0  0  0  0
   -1.6570   -1.0532    0.0000 C   0  0  0  0  0  0  0  0  0  0  0  0
   -2.4230   -1.2741    0.0000 C   0  0  0  0  0  0  0  0  0  0  0  0
   -1.8338   -0.2577    0.0000 C   0  0  0  0  0  0  0  0  0  0  0  0
   -0.1841   -1.0532    0.0000 C   0  0  0  0  0  0  0  0  0  0  0  0
    1.3036   -0.2283    0.0000 C   0  0  0  0  0  0  0  0  0  0  0  0
   -0.8912   -1.4656    0.0000 C   0  0  0  0  0  0  0  0  0  0  0  0
    2.0106    0.1989    0.0000 C   0  0  0  0  0  0  0  0  0  0  0  0
   -4.1316   -0.4934    0.0000 C   0  0  0  0  0  0  0  0  0  0  0  0
   -3.3805   -0.0368    0.0000 C   0  0  0  0  0  0  0  0  0  0  0  0
    3.4689    0.2283    0.0000 C   0  0  0  0  0  0  0  0  0  0  0  0
    0.5523    0.1989    0.0000 C   0  0  0  0  0  0  0  0  0  0  0  0
    1.2888   -1.0532    0.0000 C   0  0  0  0  0  0  0  0  0  0  0  0
   -0.1547   -0.2283    0.0000 C   0  0  0  0  0  0  0  0  0  0  0  0
    0.5818   -1.4656    0.0000 C   0  0  0  0  0  0  0  0  0  0  0  0
    4.2053   -0.1841    0.0000 C   0  0  0  0  0  0  0  0  0  0  0  0
   -4.9124   -0.4787    0.0000 C   0  0  0  0  0  0  0  0  0  0  0  0
   -4.5147   -1.1563    0.0000 C   0  0  0  0  0  0  0  0  0  0  0  0
    3.4836    1.0680    0.0000 C   0  0  0  0  0  0  0  0  0  0  0  0
    4.9124    0.2283    0.0000 C   0  0  0  0  0  0  0  0  0  0  0  0
    4.1905    1.4656    0.0000 C   0  0  0  0  0  0  0  0  0  0  0  0
    4.9124    1.0532    0.0000 C   0  0  0  0  0  0  0  0  0  0  0  0
  1 11  2  0  0  0  0
  2  6  1  0  0  0  0
  2  7  1  0  0  0  0
  2 13  1  0  0  0  0
  3 11  1  0  0  0  0
  3 14  1  0  0  0  0
  4 19  1  0  0  0  0
  5  6  1  0  0  0  0
  5  7  1  0  0  0  0
  5 10  2  0  0  0  0
  8 10  1  0  0  0  0
  8 17  2  0  0  0  0
  8 18  1  0  0  0  0
  9 11  1  0  0  0  0
  9 15  2  0  0  0  0
  9 16  1  0  0  0  0
 12 13  1  0  0  0  0
 12 20  1  0  0  0  0
 12 21  1  0  0  0  0
 14 19  1  0  0  0  0
 14 22  2  0  0  0  0
 15 17  1  0  0  0  0
 16 18  2  0  0  0  0
 19 23  2  0  0  0  0
 20 21  1  0  0  0  0
 22 24  1  0  0  0  0
 23 25  1  0  0  0  0
 24 25  2  0  0  0  0
M  END
> <PUBCHEM_COMPOUND_ID_TYPE>
0

> <PUBCHEM_TOTAL_CHARGE>
0

> <PUBCHEM_SUBSTANCE_ID>
310942317

> <PUBCHEM_SUBSTANCE_VERSION>
1

> <PUBCHEM_EXT_DATASOURCE_NAME>
4488

> <PUBCHEM_EXT_DATASOURCE_REGID>
SCHEMBL16120353

> <PUBCHEM_SUBSTANCE_COMMENT>
InChI=1S/C21H23N3O/c22-19-3-1-2-4-20(19)23-21(25)18-9-7-15(8-10-18)11-17-13-24(14-17)12-16-5-6-16/h1-4,7-11,16H,5-6,12-14,22H2,(H,23,25)
InChIKey=RKCSLZBZLXPOTP-UHFFFAOYSA-N

> <PUBCHEM_SUBSTANCE_SYNONYM>
SCHEMBL16120353

> <PUBCHEM_XREF_EXT_ID>
SCHEMBL16120353

> <PUBCHEM_EXT_DATASOURCE_URL>
https://www.surechembl.org/

> <PUBCHEM_EXT_SUBSTANCE_URL>
https://www.surechembl.org/chemical/SCHEMBL16120353

> <PUBCHEM_CID_ASSOCIATIONS>
86268313  1

> <PUBCHEM_COORDINATE_TYPE>
1
3

$$$$
