310947816
  -OEChem-07211613022D

 27 28  0     1  0  0  0  0  0999 V2000
    3.4912   -1.9642    0.0000 S   0  0  0  0  0  0  0  0  0  0  0  0
    2.6662   -1.9642    0.0000 O   0  0  0  0  0  0  0  0  0  0  0  0
   -0.1786   -1.9642    0.0000 O   0  0  0  0  0  0  0  0  0  0  0  0
   -0.1786    1.3239    0.0000 O   0  0  0  0  0  0  0  0  0  0  0  0
   -1.6071    0.4988    0.0000 O   0  0  0  0  0  0  0  0  0  0  0  0
    3.8977   -2.6785    0.0000 O   0  0  0  0  0  0  0  0  0  0  0  0
    3.8977   -1.2500    0.0000 O   0  0  0  0  0  0  0  0  0  0  0  0
    4.3040   -1.9642    0.0000 O   0  0  0  0  0  0  0  0  0  0  0  0
    0.5480   -0.7328    0.0000 N   0  0  0  0  0  0  0  0  0  0  0  0
    1.9765   -1.5455    0.0000 N   0  0  0  0  0  0  0  0  0  0  0  0
   -0.8682    0.0924    0.0000 N   0  0  0  0  0  0  0  0  0  0  0  0
   -2.9248    2.4692    0.0000 N   0  0  0  0  0  0  0  0  0  0  0  0
   -3.6636   -0.2770    0.0000 N   0  0  0  0  0  0  0  0  0  0  0  0
    0.5603    0.0924    0.0000 C   0  0  3  0  0  0  0  0  0  0  0  0
    0.5603   -1.5332    0.0000 C   0  0  0  0  0  0  0  0  0  0  0  0
   -0.2032    0.4741    0.0000 C   0  0  0  0  0  0  0  0  0  0  0  0
    1.2623   -1.1391    0.0000 C   0  0  0  0  0  0  0  0  0  0  0  0
    1.2377    0.4988    0.0000 C   0  0  0  0  0  0  0  0  0  0  0  0
    1.9519   -0.7451    0.0000 C   0  0  0  0  0  0  0  0  0  0  0  0
    1.9642    0.0924    0.0000 C   0  0  0  0  0  0  0  0  0  0  0  0
   -3.0972    0.3140    0.0000 C   0  0  3  0  0  0  0  0  0  0  0  0
   -3.3065    1.0898    0.0000 C   0  0  0  0  0  0  0  0  0  0  0  0
   -2.2967    0.0924    0.0000 C   0  0  0  0  0  0  0  0  0  0  0  0
   -2.7277    1.6810    0.0000 C   0  0  0  0  0  0  0  0  0  0  0  0
   -4.0947    1.3116    0.0000 C   0  0  0  0  0  0  0  0  0  0  0  0
   -4.3040    2.1121    0.0000 C   0  0  0  0  0  0  0  0  0  0  0  0
   -3.7253    2.6785    0.0000 C   0  0  0  0  0  0  0  0  0  0  0  0
  1  2  1  0  0  0  0
  1  6  2  0  0  0  0
  1  7  2  0  0  0  0
  1  8  1  0  0  0  0
  2 10  1  0  0  0  0
  3 15  2  0  0  0  0
  4 16  2  0  0  0  0
  5 11  1  0  0  0  0
  5 23  1  0  0  0  0
  9 14  1  0  0  0  0
  9 15  1  0  0  0  0
  9 17  1  0  0  0  0
 10 15  1  0  0  0  0
 11 16  1  0  0  0  0
 12 24  1  0  0  0  0
 12 27  2  0  0  0  0
 13 21  1  0  0  0  0
 14 16  1  6  0  0  0
 14 18  1  0  0  0  0
 17 19  1  0  0  0  0
 18 20  1  0  0  0  0
 19 20  1  0  0  0  0
 21 22  1  0  0  0  0
 21 23  1  0  0  0  0
 22 24  2  0  0  0  0
 22 25  1  0  0  0  0
 25 26  2  0  0  0  0
 26 27  1  0  0  0  0
M  END
> <PUBCHEM_COMPOUND_ID_TYPE>
0

> <PUBCHEM_TOTAL_CHARGE>
0

> <PUBCHEM_SUBSTANCE_ID>
310947816

> <PUBCHEM_SUBSTANCE_VERSION>
1

> <PUBCHEM_EXT_DATASOURCE_NAME>
4488

> <PUBCHEM_EXT_DATASOURCE_REGID>
SCHEMBL16125988

> <PUBCHEM_SUBSTANCE_COMMENT>
InChI=1S/C14H21N5O7S/c15-11(10-4-3-6-16-8-10)9-25-17-13(20)12-5-1-2-7-19(12)14(21)18-26-27(22,23)24/h3-4,6,8,11-12H,1-2,5,7,9,15H2,(H,17,20)(H,18,21)(H,22,23,24)/t11?,12-/m0/s1
InChIKey=BAXSGAMRFKAYEV-KIYNQFGBSA-N

> <PUBCHEM_SUBSTANCE_SYNONYM>
SCHEMBL16125988

> <PUBCHEM_XREF_EXT_ID>
SCHEMBL16125988

> <PUBCHEM_EXT_DATASOURCE_URL>
https://www.surechembl.org/

> <PUBCHEM_EXT_SUBSTANCE_URL>
https://www.surechembl.org/chemical/SCHEMBL16125988

> <PUBCHEM_CID_ASSOCIATIONS>
117613484  1

> <PUBCHEM_COORDINATE_TYPE>
1
3

> <PUBCHEM_BONDANNOTATIONS>
14  16  6

$$$$
