310930440
  -OEChem-07211613022D

 33 37  0     0  0  0  0  0  0999 V2000
    6.4470   -2.1490    0.0000 S   0  0  0  0  0  0  0  0  0  0  0  0
    5.6624   -1.7056    0.0000 O   0  0  0  0  0  0  0  0  0  0  0  0
    7.1292   -2.5583    0.0000 O   0  0  0  0  0  0  0  0  0  0  0  0
    3.9227   -6.4470    0.0000 O   0  0  0  0  0  0  0  0  0  0  0  0
    8.9371   -0.7505    0.0000 N   0  0  0  0  0  0  0  0  0  0  0  0
    2.1831   -5.0825    0.0000 N   0  0  0  0  0  0  0  0  0  0  0  0
    6.8904    0.0000    0.0000 N   0  0  0  0  0  0  0  0  0  0  0  0
    3.9227   -5.0143    0.0000 N   0  0  0  0  0  0  0  0  0  0  0  0
    0.0000   -6.1741    0.0000 N   0  0  0  0  0  0  0  0  0  0  0  0
    6.8563   -1.4327    0.0000 C   0  0  0  0  0  0  0  0  0  0  0  0
    6.0376   -2.8653    0.0000 C   0  0  0  0  0  0  0  0  0  0  0  0
    7.7091   -1.3986    0.0000 C   0  0  0  0  0  0  0  0  0  0  0  0
    8.1184   -0.7163    0.0000 C   0  0  0  0  0  0  0  0  0  0  0  0
    2.6948   -5.7306    0.0000 C   0  0  0  0  0  0  0  0  0  0  0  0
    1.3986   -5.3213    0.0000 C   0  0  0  0  0  0  0  0  0  0  0  0
    1.3986   -6.1741    0.0000 C   0  0  0  0  0  0  0  0  0  0  0  0
    6.4811   -0.7163    0.0000 C   0  0  0  0  0  0  0  0  0  0  0  0
    5.1849   -2.8653    0.0000 C   0  0  0  0  0  0  0  0  0  0  0  0
    6.4129   -3.5816    0.0000 C   0  0  0  0  0  0  0  0  0  0  0  0
    2.1831   -6.3788    0.0000 C   0  0  0  0  0  0  0  0  0  0  0  0
    5.1849   -4.2980    0.0000 C   0  0  0  0  0  0  0  0  0  0  0  0
    7.7432    0.0000    0.0000 C   0  0  0  0  0  0  0  0  0  0  0  0
    3.5134   -5.7306    0.0000 C   0  0  0  0  0  0  0  0  0  0  0  0
    4.7755   -3.5816    0.0000 C   0  0  0  0  0  0  0  0  0  0  0  0
    6.0035   -4.2980    0.0000 C   0  0  0  0  0  0  0  0  0  0  0  0
    0.6822   -4.9120    0.0000 C   0  0  0  0  0  0  0  0  0  0  0  0
    0.6822   -6.5493    0.0000 C   0  0  0  0  0  0  0  0  0  0  0  0
    4.7755   -5.0143    0.0000 C   0  0  0  0  0  0  0  0  0  0  0  0
    9.4487   -0.0682    0.0000 C   0  0  0  0  0  0  0  0  0  0  0  0
    9.4146   -1.3986    0.0000 C   0  0  0  0  0  0  0  0  0  0  0  0
    0.0000   -5.3213    0.0000 C   0  0  0  0  0  0  0  0  0  0  0  0
   10.2333   -0.3752    0.0000 C   0  0  0  0  0  0  0  0  0  0  0  0
   10.1992   -1.1598    0.0000 C   0  0  0  0  0  0  0  0  0  0  0  0
  1  2  2  0  0  0  0
  1  3  2  0  0  0  0
  1 10  1  0  0  0  0
  1 11  1  0  0  0  0
  4 23  2  0  0  0  0
  5 13  1  0  0  0  0
  5 29  1  0  0  0  0
  5 30  1  0  0  0  0
  6 14  1  0  0  0  0
  6 15  1  0  0  0  0
  7 17  1  0  0  0  0
  7 22  2  0  0  0  0
  8 23  1  0  0  0  0
  8 28  1  0  0  0  0
  9 27  1  0  0  0  0
  9 31  2  0  0  0  0
 10 12  1  0  0  0  0
 10 17  2  0  0  0  0
 11 18  2  0  0  0  0
 11 19  1  0  0  0  0
 12 13  2  0  0  0  0
 13 22  1  0  0  0  0
 14 20  2  0  0  0  0
 14 23  1  0  0  0  0
 15 16  1  0  0  0  0
 15 26  2  0  0  0  0
 16 20  1  0  0  0  0
 16 27  2  0  0  0  0
 18 24  1  0  0  0  0
 19 25  2  0  0  0  0
 21 24  2  0  0  0  0
 21 25  1  0  0  0  0
 21 28  1  0  0  0  0
 26 31  1  0  0  0  0
 29 32  1  0  0  0  0
 30 33  1  0  0  0  0
 32 33  1  0  0  0  0
M  END
> <PUBCHEM_COMPOUND_ID_TYPE>
0

> <PUBCHEM_TOTAL_CHARGE>
0

> <PUBCHEM_SUBSTANCE_ID>
310930440

> <PUBCHEM_SUBSTANCE_VERSION>
1

> <PUBCHEM_EXT_DATASOURCE_NAME>
4488

> <PUBCHEM_EXT_DATASOURCE_REGID>
SCHEMBL16107730

> <PUBCHEM_SUBSTANCE_COMMENT>
InChI=1S/C24H23N5O3S/c30-24(23-11-18-14-25-8-7-22(18)28-23)27-13-17-3-5-20(6-4-17)33(31,32)21-12-19(15-26-16-21)29-9-1-2-10-29/h3-8,11-12,14-16,28H,1-2,9-10,13H2,(H,27,30)
InChIKey=PEOUITMQZBHOOG-UHFFFAOYSA-N

> <PUBCHEM_SUBSTANCE_SYNONYM>
SCHEMBL16107730

> <PUBCHEM_XREF_EXT_ID>
SCHEMBL16107730

> <PUBCHEM_EXT_DATASOURCE_URL>
https://www.surechembl.org/

> <PUBCHEM_EXT_SUBSTANCE_URL>
https://www.surechembl.org/chemical/SCHEMBL16107730

> <PUBCHEM_CID_ASSOCIATIONS>
56943502  1

> <PUBCHEM_COORDINATE_TYPE>
1
3

$$$$
