310929467
  -OEChem-07211613022D

 29 31  0     0  0  0  0  0  0999 V2000
   11.8380   -1.9242    0.0000 O   0  0  0  0  0  0  0  0  0  0  0  0
    0.0000   -3.1373    0.0000 O   0  0  0  0  0  0  0  0  0  0  0  0
   10.4994   -2.7190    0.0000 N   0  0  0  0  0  0  0  0  0  0  0  0
   11.2106   -3.1373    0.0000 C   0  0  0  0  0  0  0  0  0  0  0  0
   11.2106   -3.9321    0.0000 C   0  0  0  0  0  0  0  0  0  0  0  0
   11.8798   -2.7190    0.0000 C   0  0  0  0  0  0  0  0  0  0  0  0
    9.7883   -3.1373    0.0000 C   0  0  0  0  0  0  0  0  0  0  0  0
   10.4994   -4.3504    0.0000 C   0  0  0  0  0  0  0  0  0  0  0  0
   11.8798   -4.3504    0.0000 C   0  0  0  0  0  0  0  0  0  0  0  0
   12.5491   -3.1373    0.0000 C   0  0  0  0  0  0  0  0  0  0  0  0
    9.7883   -3.9321    0.0000 C   0  0  0  0  0  0  0  0  0  0  0  0
   12.5491   -3.9321    0.0000 C   0  0  0  0  0  0  0  0  0  0  0  0
   11.1269   -0.7111    0.0000 C   0  0  0  0  0  0  0  0  0  0  0  0
   11.1687   -1.5477    0.0000 C   0  0  0  0  0  0  0  0  0  0  0  0
    9.0772   -2.7190    0.0000 C   0  0  0  0  0  0  0  0  0  0  0  0
   10.7504   -0.0418    0.0000 C   0  0  0  0  0  0  0  0  0  0  0  0
   11.5452    0.0000    0.0000 C   0  0  0  0  0  0  0  0  0  0  0  0
    8.4079   -3.1373    0.0000 C   0  0  0  0  0  0  0  0  0  0  0  0
    7.6968   -2.7190    0.0000 C   0  0  0  0  0  0  0  0  0  0  0  0
    6.9857   -3.1373    0.0000 C   0  0  0  0  0  0  0  0  0  0  0  0
    6.3164   -2.7190    0.0000 C   0  0  0  0  0  0  0  0  0  0  0  0
    5.6052   -3.1373    0.0000 C   0  0  0  0  0  0  0  0  0  0  0  0
    4.8942   -2.7190    0.0000 C   0  0  0  0  0  0  0  0  0  0  0  0
    4.2249   -3.1373    0.0000 C   0  0  0  0  0  0  0  0  0  0  0  0
    3.5138   -2.7190    0.0000 C   0  0  0  0  0  0  0  0  0  0  0  0
    2.8026   -3.1373    0.0000 C   0  0  0  0  0  0  0  0  0  0  0  0
    2.0915   -2.7190    0.0000 C   0  0  0  0  0  0  0  0  0  0  0  0
    1.4222   -3.1373    0.0000 C   0  0  0  0  0  0  0  0  0  0  0  0
    0.7111   -2.7190    0.0000 C   0  0  0  0  0  0  0  0  0  0  0  0
  1  6  1  0  0  0  0
  1 14  1  0  0  0  0
  2 29  1  0  0  0  0
  3  4  2  0  0  0  0
  3  7  1  0  0  0  0
  4  5  1  0  0  0  0
  4  6  1  0  0  0  0
  5  8  2  0  0  0  0
  5  9  1  0  0  0  0
  6 10  2  0  0  0  0
  7 11  2  0  0  0  0
  7 15  1  0  0  0  0
  8 11  1  0  0  0  0
  9 12  2  0  0  0  0
 10 12  1  0  0  0  0
 13 14  1  0  0  0  0
 13 16  1  0  0  0  0
 13 17  1  0  0  0  0
 15 18  1  0  0  0  0
 16 17  1  0  0  0  0
 18 19  1  0  0  0  0
 19 20  1  0  0  0  0
 20 21  1  0  0  0  0
 21 22  1  0  0  0  0
 22 23  1  0  0  0  0
 23 24  1  0  0  0  0
 24 25  1  0  0  0  0
 25 26  1  0  0  0  0
 26 27  1  0  0  0  0
 27 28  1  0  0  0  0
 28 29  1  0  0  0  0
M  END
> <PUBCHEM_COMPOUND_ID_TYPE>
0

> <PUBCHEM_TOTAL_CHARGE>
0

> <PUBCHEM_SUBSTANCE_ID>
310929467

> <PUBCHEM_SUBSTANCE_VERSION>
1

> <PUBCHEM_EXT_DATASOURCE_NAME>
4488

> <PUBCHEM_EXT_DATASOURCE_REGID>
SCHEMBL16106641

> <PUBCHEM_SUBSTANCE_COMMENT>
InChI=1S/C26H39NO2/c28-20-11-9-7-5-3-1-2-4-6-8-10-14-24-19-18-23-13-12-15-25(26(23)27-24)29-21-22-16-17-22/h12-13,15,18-19,22,28H,1-11,14,16-17,20-21H2
InChIKey=BLHPNMZDUKSSQY-UHFFFAOYSA-N

> <PUBCHEM_SUBSTANCE_SYNONYM>
SCHEMBL16106641

> <PUBCHEM_XREF_EXT_ID>
SCHEMBL16106641

> <PUBCHEM_EXT_DATASOURCE_URL>
https://www.surechembl.org/

> <PUBCHEM_EXT_SUBSTANCE_URL>
https://www.surechembl.org/chemical/SCHEMBL16106641

> <PUBCHEM_CID_ASSOCIATIONS>
85472577  1

> <PUBCHEM_COORDINATE_TYPE>
1
3

$$$$
