310929932
  -OEChem-07211613022D

 30 34  0     0  0  0  0  0  0999 V2000
    0.6764   -5.8621    0.0000 O   0  0  0  0  0  0  0  0  0  0  0  0
    2.1044   -5.8621    0.0000 N   0  0  0  0  0  0  0  0  0  0  0  0
    3.4947   -3.4196    0.0000 N   0  0  0  0  0  0  0  0  0  0  0  0
    2.8183   -6.2755    0.0000 C   0  0  0  0  0  0  0  0  0  0  0  0
    3.5323   -5.8621    0.0000 C   0  0  0  0  0  0  0  0  0  0  0  0
    2.8183   -7.1022    0.0000 C   0  0  0  0  0  0  0  0  0  0  0  0
    3.4947   -5.0730    0.0000 C   0  0  0  0  0  0  0  0  0  0  0  0
    4.2087   -6.2755    0.0000 C   0  0  0  0  0  0  0  0  0  0  0  0
    1.3904   -6.2755    0.0000 C   0  0  0  0  0  0  0  0  0  0  0  0
    3.5323   -7.5155    0.0000 C   0  0  0  0  0  0  0  0  0  0  0  0
    2.7808   -2.2171    0.0000 C   0  0  0  0  0  0  0  0  0  0  0  0
    2.1044   -7.5155    0.0000 C   0  0  0  0  0  0  0  0  0  0  0  0
    2.7808   -1.3904    0.0000 C   0  0  0  0  0  0  0  0  0  0  0  0
    4.2087   -4.6596    0.0000 C   0  0  0  0  0  0  0  0  0  0  0  0
    2.8183   -4.6596    0.0000 C   0  0  0  0  0  0  0  0  0  0  0  0
    4.2087   -7.1022    0.0000 C   0  0  0  0  0  0  0  0  0  0  0  0
    1.3904   -7.1022    0.0000 C   0  0  0  0  0  0  0  0  0  0  0  0
    3.4947   -2.6305    0.0000 C   0  0  0  0  0  0  0  0  0  0  0  0
    4.2087   -3.8329    0.0000 C   0  0  0  0  0  0  0  0  0  0  0  0
    2.7808   -3.8329    0.0000 C   0  0  0  0  0  0  0  0  0  0  0  0
    3.4571   -0.9770    0.0000 C   0  0  0  0  0  0  0  0  0  0  0  0
    2.0668   -2.6305    0.0000 C   0  0  0  0  0  0  0  0  0  0  0  0
    2.0668   -0.9770    0.0000 C   0  0  0  0  0  0  0  0  0  0  0  0
    3.5323   -0.1503    0.0000 C   0  0  0  0  0  0  0  0  0  0  0  0
    4.2087   -1.3152    0.0000 C   0  0  0  0  0  0  0  0  0  0  0  0
    1.3528   -2.2171    0.0000 C   0  0  0  0  0  0  0  0  0  0  0  0
    1.3528   -1.3904    0.0000 C   0  0  0  0  0  0  0  0  0  0  0  0
    4.3590    0.0000    0.0000 C   0  0  0  0  0  0  0  0  0  0  0  0
    4.7724   -0.6764    0.0000 C   0  0  0  0  0  0  0  0  0  0  0  0
    0.0000   -6.2755    0.0000 C   0  0  0  0  0  0  0  0  0  0  0  0
  1  9  1  0  0  0  0
  1 30  1  0  0  0  0
  2  4  2  0  0  0  0
  2  9  1  0  0  0  0
  3 18  1  0  0  0  0
  3 19  1  0  0  0  0
  3 20  1  0  0  0  0
  4  5  1  0  0  0  0
  4  6  1  0  0  0  0
  5  7  1  0  0  0  0
  5  8  2  0  0  0  0
  6 10  1  0  0  0  0
  6 12  2  0  0  0  0
  7 14  1  0  0  0  0
  7 15  1  0  0  0  0
  8 16  1  0  0  0  0
  9 17  2  0  0  0  0
 10 16  2  0  0  0  0
 11 13  2  0  0  0  0
 11 18  1  0  0  0  0
 11 22  1  0  0  0  0
 12 17  1  0  0  0  0
 13 21  1  0  0  0  0
 13 23  1  0  0  0  0
 14 19  1  0  0  0  0
 15 20  1  0  0  0  0
 21 24  1  0  0  0  0
 21 25  1  0  0  0  0
 22 26  2  0  0  0  0
 23 27  2  0  0  0  0
 24 28  1  0  0  0  0
 25 29  1  0  0  0  0
 26 27  1  0  0  0  0
 28 29  2  0  0  0  0
M  END
> <PUBCHEM_COMPOUND_ID_TYPE>
0

> <PUBCHEM_TOTAL_CHARGE>
0

> <PUBCHEM_SUBSTANCE_ID>
310929932

> <PUBCHEM_SUBSTANCE_VERSION>
1

> <PUBCHEM_EXT_DATASOURCE_NAME>
4488

> <PUBCHEM_EXT_DATASOURCE_REGID>
SCHEMBL16107153

> <PUBCHEM_SUBSTANCE_COMMENT>
InChI=1S/C27H30N2O/c1-30-26-14-13-22-10-6-12-25(27(22)28-26)21-15-17-29(18-16-21)19-23-9-4-5-11-24(23)20-7-2-3-8-20/h2-6,9-14,20-21H,7-8,15-19H2,1H3
InChIKey=WCOAPVWROCTANW-UHFFFAOYSA-N

> <PUBCHEM_SUBSTANCE_SYNONYM>
SCHEMBL16107153

> <PUBCHEM_XREF_EXT_ID>
SCHEMBL16107153

> <PUBCHEM_EXT_DATASOURCE_URL>
https://www.surechembl.org/

> <PUBCHEM_EXT_SUBSTANCE_URL>
https://www.surechembl.org/chemical/SCHEMBL16107153

> <PUBCHEM_CID_ASSOCIATIONS>
117599193  1

> <PUBCHEM_COORDINATE_TYPE>
1
3

$$$$
