310949283
  -OEChem-07211613022D

 49 56  0     0  0  0  0  0  0999 V2000
    0.0072    0.1945    0.0000 N   0  0  0  0  0  0  0  0  0  0  0  0
    2.1393   -0.2665    0.0000 N   0  0  0  0  0  0  0  0  0  0  0  0
   -2.1393   -0.2521    0.0000 N   0  0  0  0  0  0  0  0  0  0  0  0
   -0.0360   -3.9690    0.0000 N   0  0  0  0  0  0  0  0  0  0  0  0
    0.0072   -0.6267    0.0000 C   0  0  0  0  0  0  0  0  0  0  0  0
   -0.7275    0.7132    0.0000 C   0  0  0  0  0  0  0  0  0  0  0  0
    0.6699    0.7132    0.0000 C   0  0  0  0  0  0  0  0  0  0  0  0
   -0.4105    1.5198    0.0000 C   0  0  0  0  0  0  0  0  0  0  0  0
    0.4249    1.4766    0.0000 C   0  0  0  0  0  0  0  0  0  0  0  0
    0.7132   -1.0444    0.0000 C   0  0  0  0  0  0  0  0  0  0  0  0
   -0.7419   -1.0301    0.0000 C   0  0  0  0  0  0  0  0  0  0  0  0
    0.6843   -1.8801    0.0000 C   0  0  0  0  0  0  0  0  0  0  0  0
   -0.7564   -1.8656    0.0000 C   0  0  0  0  0  0  0  0  0  0  0  0
   -0.0216   -2.2690    0.0000 C   0  0  0  0  0  0  0  0  0  0  0  0
   -0.9868    2.1249    0.0000 C   0  0  0  0  0  0  0  0  0  0  0  0
    0.9724    2.0961    0.0000 C   0  0  0  0  0  0  0  0  0  0  0  0
   -1.4766    0.5547    0.0000 C   0  0  0  0  0  0  0  0  0  0  0  0
    1.4766    0.5403    0.0000 C   0  0  0  0  0  0  0  0  0  0  0  0
    1.4334   -2.2977    0.0000 C   0  0  0  0  0  0  0  0  0  0  0  0
   -1.4622   -2.2834    0.0000 C   0  0  0  0  0  0  0  0  0  0  0  0
    1.7648    1.9233    0.0000 C   0  0  0  0  0  0  0  0  0  0  0  0
   -1.7648    1.9521    0.0000 C   0  0  0  0  0  0  0  0  0  0  0  0
    1.4334   -0.6411    0.0000 C   0  0  0  0  0  0  0  0  0  0  0  0
   -1.4478   -0.6267    0.0000 C   0  0  0  0  0  0  0  0  0  0  0  0
   -2.0385    1.1597    0.0000 C   0  0  0  0  0  0  0  0  0  0  0  0
    2.0241    1.1308    0.0000 C   0  0  0  0  0  0  0  0  0  0  0  0
   -0.0360   -3.1622    0.0000 C   0  0  0  0  0  0  0  0  0  0  0  0
    2.3698    2.5571    0.0000 C   0  0  0  0  0  0  0  0  0  0  0  0
   -2.3266    2.6003    0.0000 C   0  0  0  0  0  0  0  0  0  0  0  0
    1.4478   -3.1333    0.0000 C   0  0  0  0  0  0  0  0  0  0  0  0
    2.1393   -1.9088    0.0000 C   0  0  0  0  0  0  0  0  0  0  0  0
   -2.1825   -1.8656    0.0000 C   0  0  0  0  0  0  0  0  0  0  0  0
   -1.4766   -3.1045    0.0000 C   0  0  0  0  0  0  0  0  0  0  0  0
    3.1045    2.3698    0.0000 C   0  0  0  0  0  0  0  0  0  0  0  0
   -2.0673    3.3782    0.0000 C   0  0  0  0  0  0  0  0  0  0  0  0
    2.0961    3.3206    0.0000 C   0  0  0  0  0  0  0  0  0  0  0  0
   -3.1333    2.4274    0.0000 C   0  0  0  0  0  0  0  0  0  0  0  0
    2.1393   -3.5511    0.0000 C   0  0  0  0  0  0  0  0  0  0  0  0
    2.8164   -2.3122    0.0000 C   0  0  0  0  0  0  0  0  0  0  0  0
   -2.9029   -2.2690    0.0000 C   0  0  0  0  0  0  0  0  0  0  0  0
   -2.1825   -3.5079    0.0000 C   0  0  0  0  0  0  0  0  0  0  0  0
    2.8309   -3.1333    0.0000 C   0  0  0  0  0  0  0  0  0  0  0  0
   -2.8885   -3.1045    0.0000 C   0  0  0  0  0  0  0  0  0  0  0  0
    3.6951    2.9749    0.0000 C   0  0  0  0  0  0  0  0  0  0  0  0
   -2.6291    3.9690    0.0000 C   0  0  0  0  0  0  0  0  0  0  0  0
    2.6579    3.9545    0.0000 C   0  0  0  0  0  0  0  0  0  0  0  0
   -3.6951    3.0470    0.0000 C   0  0  0  0  0  0  0  0  0  0  0  0
    3.4359    3.7529    0.0000 C   0  0  0  0  0  0  0  0  0  0  0  0
   -3.4214    3.8393    0.0000 C   0  0  0  0  0  0  0  0  0  0  0  0
  1  5  1  0  0  0  0
  1  6  1  0  0  0  0
  1  7  1  0  0  0  0
  2 23  3  0  0  0  0
  3 24  3  0  0  0  0
  4 27  3  0  0  0  0
  5 10  2  0  0  0  0
  5 11  1  0  0  0  0
  6  8  2  0  0  0  0
  6 17  1  0  0  0  0
  7  9  2  0  0  0  0
  7 18  1  0  0  0  0
  8  9  1  0  0  0  0
  8 15  1  0  0  0  0
  9 16  1  0  0  0  0
 10 12  1  0  0  0  0
 10 23  1  0  0  0  0
 11 13  2  0  0  0  0
 11 24  1  0  0  0  0
 12 14  2  0  0  0  0
 12 19  1  0  0  0  0
 13 14  1  0  0  0  0
 13 20  1  0  0  0  0
 14 27  1  0  0  0  0
 15 22  2  0  0  0  0
 16 21  2  0  0  0  0
 17 25  2  0  0  0  0
 18 26  2  0  0  0  0
 19 30  2  0  0  0  0
 19 31  1  0  0  0  0
 20 32  2  0  0  0  0
 20 33  1  0  0  0  0
 21 26  1  0  0  0  0
 21 28  1  0  0  0  0
 22 25  1  0  0  0  0
 22 29  1  0  0  0  0
 28 34  2  0  0  0  0
 28 36  1  0  0  0  0
 29 35  2  0  0  0  0
 29 37  1  0  0  0  0
 30 38  1  0  0  0  0
 31 39  2  0  0  0  0
 32 40  1  0  0  0  0
 33 41  2  0  0  0  0
 34 44  1  0  0  0  0
 35 45  1  0  0  0  0
 36 46  2  0  0  0  0
 37 47  2  0  0  0  0
 38 42  2  0  0  0  0
 39 42  1  0  0  0  0
 40 43  2  0  0  0  0
 41 43  1  0  0  0  0
 44 48  2  0  0  0  0
 45 49  2  0  0  0  0
 46 48  1  0  0  0  0
 47 49  1  0  0  0  0
M  END
> <PUBCHEM_COMPOUND_ID_TYPE>
0

> <PUBCHEM_TOTAL_CHARGE>
0

> <PUBCHEM_SUBSTANCE_ID>
310949283

> <PUBCHEM_SUBSTANCE_VERSION>
1

> <PUBCHEM_EXT_DATASOURCE_NAME>
4488

> <PUBCHEM_EXT_DATASOURCE_REGID>
SCHEMBL16127473

> <PUBCHEM_SUBSTANCE_COMMENT>
InChI=1S/C45H26N4/c46-27-38-43(32-17-9-3-10-18-32)39(28-47)45(40(29-48)44(38)33-19-11-4-12-20-33)49-41-23-21-34(30-13-5-1-6-14-30)25-36(41)37-26-35(22-24-42(37)49)31-15-7-2-8-16-31/h1-26H
InChIKey=IBMJWHBJLQNTRG-UHFFFAOYSA-N

> <PUBCHEM_SUBSTANCE_SYNONYM>
SCHEMBL16127473

> <PUBCHEM_XREF_EXT_ID>
SCHEMBL16127473

> <PUBCHEM_EXT_DATASOURCE_URL>
https://www.surechembl.org/

> <PUBCHEM_EXT_SUBSTANCE_URL>
https://www.surechembl.org/chemical/SCHEMBL16127473

> <PUBCHEM_CID_ASSOCIATIONS>
117614769  1

> <PUBCHEM_COORDINATE_TYPE>
1
3

$$$$
