310934338
  -OEChem-07211613022D

 24 26  0     0  0  0  0  0  0999 V2000
    3.5868    0.0000    0.0000 Br  0  0  0  0  0  0  0  0  0  0  0  0
    0.0000   -2.8893    0.0000 O   0  0  0  0  0  0  0  0  0  0  0  0
    2.8644   -3.7362    0.0000 O   0  0  0  0  0  0  0  0  0  0  0  0
    2.1421   -4.9816    0.0000 O   0  0  0  0  0  0  0  0  0  0  0  0
    0.7224   -1.6440    0.0000 N   0  0  0  0  0  0  0  0  0  0  0  0
    2.1421   -2.4908    0.0000 C   0  0  0  0  0  0  0  0  0  0  0  0
    2.1670   -1.6440    0.0000 C   0  0  0  0  0  0  0  0  0  0  0  0
    1.4198   -2.9143    0.0000 C   0  0  0  0  0  0  0  0  0  0  0  0
    1.4447   -1.2205    0.0000 C   0  0  0  0  0  0  0  0  0  0  0  0
    0.7224   -2.4908    0.0000 C   0  0  0  0  0  0  0  0  0  0  0  0
    2.8644   -2.8893    0.0000 C   0  0  0  0  0  0  0  0  0  0  0  0
    2.8644   -1.2454    0.0000 C   0  0  0  0  0  0  0  0  0  0  0  0
    1.4198   -3.7362    0.0000 C   0  0  0  0  0  0  0  0  0  0  0  0
    1.4447   -0.4234    0.0000 C   0  0  0  0  0  0  0  0  0  0  0  0
    2.8644   -0.4234    0.0000 C   0  0  0  0  0  0  0  0  0  0  0  0
    2.1421    0.0000    0.0000 C   0  0  0  0  0  0  0  0  0  0  0  0
    3.6117   -2.4908    0.0000 C   0  0  0  0  0  0  0  0  0  0  0  0
    3.0388   -3.8857    0.0000 C   0  0  0  0  0  0  0  0  0  0  0  0
    2.1421   -4.1596    0.0000 C   0  0  0  0  0  0  0  0  0  0  0  0
    4.3091   -2.8893    0.0000 C   0  0  0  0  0  0  0  0  0  0  0  0
    3.5868   -4.1347    0.0000 C   0  0  0  0  0  0  0  0  0  0  0  0
    4.3091   -3.7362    0.0000 C   0  0  0  0  0  0  0  0  0  0  0  0
    3.7611   -4.3091    0.0000 C   0  0  0  0  0  0  0  0  0  0  0  0
    4.4835   -3.8857    0.0000 C   0  0  0  0  0  0  0  0  0  0  0  0
  1 15  1  0  0  0  0
  2 10  2  0  0  0  0
  3 19  1  0  0  0  0
  3 23  1  0  0  0  0
  4 19  2  0  0  0  0
  5  9  1  0  0  0  0
  5 10  1  0  0  0  0
  6  7  1  0  0  0  0
  6  8  2  0  0  0  0
  6 11  1  0  0  0  0
  7  9  2  0  0  0  0
  7 12  1  0  0  0  0
  8 10  1  0  0  0  0
  8 13  1  0  0  0  0
  9 14  1  0  0  0  0
 11 17  2  0  0  0  0
 11 18  1  0  0  0  0
 12 15  2  0  0  0  0
 13 19  1  0  0  0  0
 14 16  2  0  0  0  0
 15 16  1  0  0  0  0
 17 20  1  0  0  0  0
 18 21  2  0  0  0  0
 20 22  2  0  0  0  0
 21 22  1  0  0  0  0
 23 24  1  0  0  0  0
M  END
> <PUBCHEM_COMPOUND_ID_TYPE>
0

> <PUBCHEM_TOTAL_CHARGE>
0

> <PUBCHEM_SUBSTANCE_ID>
310934338

> <PUBCHEM_SUBSTANCE_VERSION>
1

> <PUBCHEM_EXT_DATASOURCE_NAME>
4488

> <PUBCHEM_EXT_DATASOURCE_REGID>
SCHEMBL16111801

> <PUBCHEM_SUBSTANCE_COMMENT>
InChI=1S/C19H16BrNO3/c1-2-24-17(22)11-15-18(12-6-4-3-5-7-12)14-10-13(20)8-9-16(14)21-19(15)23/h3-10H,2,11H2,1H3,(H,21,23)
InChIKey=CUEKMMRPFUPQLU-UHFFFAOYSA-N

> <PUBCHEM_SUBSTANCE_SYNONYM>
SCHEMBL16111801

> <PUBCHEM_XREF_EXT_ID>
SCHEMBL16111801

> <PUBCHEM_EXT_DATASOURCE_URL>
https://www.surechembl.org/

> <PUBCHEM_EXT_SUBSTANCE_URL>
https://www.surechembl.org/chemical/SCHEMBL16111801

> <PUBCHEM_CID_ASSOCIATIONS>
1162847  1

> <PUBCHEM_COORDINATE_TYPE>
1
3

$$$$
