310947278
  -OEChem-07211613022D

 40 45  0     1  0  0  0  0  0999 V2000
   -1.4055    2.4894    0.0000 O   0  0  0  0  0  0  0  0  0  0  0  0
    4.7925    0.3419    0.0000 O   0  0  0  0  0  0  0  0  0  0  0  0
    6.2214    0.3419    0.0000 O   0  0  0  0  0  0  0  0  0  0  0  0
    1.5225    0.1720    0.0000 N   0  0  0  0  0  0  0  0  0  0  0  0
    2.0074    0.8394    0.0000 N   0  0  0  0  0  0  0  0  0  0  0  0
   -2.1200    1.2519    0.0000 N   0  0  0  0  0  0  0  0  0  0  0  0
    0.7379    0.4269    0.0000 C   0  0  0  0  0  0  0  0  0  0  0  0
    0.7379    1.2519    0.0000 C   0  0  0  0  0  0  0  0  0  0  0  0
    1.5225    1.5069    0.0000 C   0  0  0  0  0  0  0  0  0  0  0  0
    0.0234    1.6644    0.0000 C   0  0  0  0  0  0  0  0  0  0  0  0
   -0.6911    1.2519    0.0000 C   0  0  0  0  0  0  0  0  0  0  0  0
    0.0234    0.0144    0.0000 C   0  0  0  0  0  0  0  0  0  0  0  0
    1.7360   -0.6249    0.0000 C   0  0  0  0  0  0  0  0  0  0  0  0
   -0.6911    0.4269    0.0000 C   0  0  0  0  0  0  0  0  0  0  0  0
   -1.4055    1.6644    0.0000 C   0  0  0  0  0  0  0  0  0  0  0  0
    2.5329   -0.8384    0.0000 C   0  0  0  0  0  0  0  0  0  0  0  0
    4.1267   -1.2655    0.0000 C   0  0  0  0  0  0  0  0  0  0  0  0
    4.9236   -1.4790    0.0000 C   0  0  0  0  0  0  0  0  0  0  0  0
    1.9350    2.2213    0.0000 C   0  0  0  0  0  0  0  0  0  0  0  0
    2.7464   -1.6353    0.0000 C   0  0  0  0  0  0  0  0  0  0  0  0
    3.1163   -0.2551    0.0000 C   0  0  0  0  0  0  0  0  0  0  0  0
    5.5069   -0.8956    0.0000 C   0  0  0  0  0  0  0  0  0  0  0  0
   -2.8345    1.6644    0.0000 C   0  0  3  0  0  0  0  0  0  0  0  0
   -3.5489    1.2519    0.0000 C   0  0  0  0  0  0  0  0  0  0  0  0
   -4.9779    1.2519    0.0000 C   0  0  0  0  0  0  0  0  0  0  0  0
    3.5433   -1.8488    0.0000 C   0  0  0  0  0  0  0  0  0  0  0  0
    3.9132   -0.4686    0.0000 C   0  0  0  0  0  0  0  0  0  0  0  0
   -5.6924    1.6644    0.0000 C   0  0  0  0  0  0  0  0  0  0  0  0
   -4.2634    1.6644    0.0000 C   0  0  0  0  0  0  0  0  0  0  0  0
    5.1371   -2.2759    0.0000 C   0  0  0  0  0  0  0  0  0  0  0  0
   -6.1049    2.3789    0.0000 C   0  0  0  0  0  0  0  0  0  0  0  0
   -6.5174    1.6644    0.0000 C   0  0  0  0  0  0  0  0  0  0  0  0
    5.5069   -0.0706    0.0000 C   0  0  0  0  0  0  0  0  0  0  0  0
   -3.5489    0.4269    0.0000 C   0  0  0  0  0  0  0  0  0  0  0  0
   -4.9779    0.4269    0.0000 C   0  0  0  0  0  0  0  0  0  0  0  0
    6.3038   -1.1092    0.0000 C   0  0  0  0  0  0  0  0  0  0  0  0
   -4.2634    0.0144    0.0000 C   0  0  0  0  0  0  0  0  0  0  0  0
    5.9340   -2.4894    0.0000 C   0  0  0  0  0  0  0  0  0  0  0  0
    6.5174   -1.9061    0.0000 C   0  0  0  0  0  0  0  0  0  0  0  0
   -2.8345    2.4894    0.0000 C   0  0  0  0  0  0  0  0  0  0  0  0
  1 15  2  0  0  0  0
  2 33  2  0  0  0  0
  3 33  1  0  0  0  0
  4  5  1  0  0  0  0
  4  7  1  0  0  0  0
  4 13  1  0  0  0  0
  5  9  2  0  0  0  0
  6 15  1  0  0  0  0
  6 23  1  0  0  0  0
  7  8  1  0  0  0  0
  7 12  2  0  0  0  0
  8  9  1  0  0  0  0
  8 10  2  0  0  0  0
  9 19  1  0  0  0  0
 10 11  1  0  0  0  0
 11 14  2  0  0  0  0
 11 15  1  0  0  0  0
 12 14  1  0  0  0  0
 13 16  1  0  0  0  0
 16 20  2  0  0  0  0
 16 21  1  0  0  0  0
 17 18  1  0  0  0  0
 17 26  2  0  0  0  0
 17 27  1  0  0  0  0
 18 22  1  0  0  0  0
 18 30  2  0  0  0  0
 20 26  1  0  0  0  0
 21 27  2  0  0  0  0
 22 33  1  0  0  0  0
 22 36  2  0  0  0  0
 23 24  1  0  0  0  0
 23 40  1  6  0  0  0
 24 29  2  0  0  0  0
 24 34  1  0  0  0  0
 25 28  1  0  0  0  0
 25 29  1  0  0  0  0
 25 35  2  0  0  0  0
 28 31  1  0  0  0  0
 28 32  1  0  0  0  0
 30 38  1  0  0  0  0
 31 32  1  0  0  0  0
 34 37  2  0  0  0  0
 35 37  1  0  0  0  0
 36 39  1  0  0  0  0
 38 39  2  0  0  0  0
M  END
> <PUBCHEM_COMPOUND_ID_TYPE>
0

> <PUBCHEM_TOTAL_CHARGE>
0

> <PUBCHEM_SUBSTANCE_ID>
310947278

> <PUBCHEM_SUBSTANCE_VERSION>
1

> <PUBCHEM_EXT_DATASOURCE_NAME>
4488

> <PUBCHEM_EXT_DATASOURCE_REGID>
SCHEMBL16125433

> <PUBCHEM_SUBSTANCE_COMMENT>
InChI=1S/C34H31N3O3/c1-21(26-6-5-7-27(18-26)24-14-15-24)35-33(38)28-16-17-32-31(19-28)22(2)36-37(32)20-23-10-12-25(13-11-23)29-8-3-4-9-30(29)34(39)40/h3-13,16-19,21,24H,14-15,20H2,1-2H3,(H,35,38)(H,39,40)/t21-/m0/s1
InChIKey=LSGZIERCNSYGTD-NRFANRHFSA-N

> <PUBCHEM_SUBSTANCE_SYNONYM>
SCHEMBL16125433

> <PUBCHEM_XREF_EXT_ID>
SCHEMBL16125433

> <PUBCHEM_EXT_DATASOURCE_URL>
https://www.surechembl.org/

> <PUBCHEM_EXT_SUBSTANCE_URL>
https://www.surechembl.org/chemical/SCHEMBL16125433

> <PUBCHEM_CID_ASSOCIATIONS>
71577815  1

> <PUBCHEM_COORDINATE_TYPE>
1
3

> <PUBCHEM_BONDANNOTATIONS>
23  40  6

$$$$
