310933048
  -OEChem-07211613022D

 25 28  0     0  0  0  0  0  0999 V2000
    0.8167   -0.8167    0.0000 O   0  0  0  0  0  0  0  0  0  0  0  0
    2.4890   -2.2556    0.0000 O   0  0  0  0  0  0  0  0  0  0  0  0
    0.8167   -2.2556    0.0000 N   0  0  0  0  0  0  0  0  0  0  0  0
    3.2668   -3.8890    0.0000 N   0  0  0  0  0  0  0  0  0  0  0  0
    3.3835   -4.7057    0.0000 N   0  0  0  0  0  0  0  0  0  0  0  0
    2.0612   -1.5556    0.0000 N   0  0  0  0  0  0  0  0  0  0  0  0
    0.8167   -3.7334    0.0000 N   0  0  0  0  0  0  0  0  0  0  0  0
    2.1001   -7.4670    0.0000 N   0  0  0  0  0  0  0  0  0  0  0  0
    2.0223   -4.4335    0.0000 C   0  0  0  0  0  0  0  0  0  0  0  0
    2.4890   -3.6946    0.0000 C   0  0  0  0  0  0  0  0  0  0  0  0
    2.6056   -5.0557    0.0000 C   0  0  0  0  0  0  0  0  0  0  0  0
    1.2445   -2.9945    0.0000 C   0  0  0  0  0  0  0  0  0  0  0  0
    2.0223   -2.9945    0.0000 C   0  0  0  0  0  0  0  0  0  0  0  0
    2.4501   -5.8336    0.0000 C   0  0  0  0  0  0  0  0  0  0  0  0
    1.2056   -4.4335    0.0000 C   0  0  0  0  0  0  0  0  0  0  0  0
    1.2445   -1.5556    0.0000 C   0  0  0  0  0  0  0  0  0  0  0  0
    2.4890   -0.8167    0.0000 C   0  0  0  0  0  0  0  0  0  0  0  0
    2.4890    0.0000    0.0000 C   0  0  0  0  0  0  0  0  0  0  0  0
    3.2279   -0.3889    0.0000 C   0  0  0  0  0  0  0  0  0  0  0  0
    3.0723   -6.3780    0.0000 C   0  0  0  0  0  0  0  0  0  0  0  0
    1.6723   -6.1058    0.0000 C   0  0  0  0  0  0  0  0  0  0  0  0
    2.8779   -7.1947    0.0000 C   0  0  0  0  0  0  0  0  0  0  0  0
    0.0000   -2.2556    0.0000 C   0  0  0  0  0  0  0  0  0  0  0  0
    1.4389   -6.8836    0.0000 C   0  0  0  0  0  0  0  0  0  0  0  0
    3.4613   -7.7781    0.0000 C   0  0  0  0  0  0  0  0  0  0  0  0
  1 16  2  0  0  0  0
  2  6  1  0  0  0  0
  3 12  1  0  0  0  0
  3 16  1  0  0  0  0
  3 23  1  0  0  0  0
  4  5  1  0  0  0  0
  4 10  1  0  0  0  0
  5 11  2  0  0  0  0
  6 16  1  0  0  0  0
  6 17  1  0  0  0  0
  7 12  2  0  0  0  0
  7 15  1  0  0  0  0
  8 22  1  0  0  0  0
  8 24  2  0  0  0  0
  9 10  1  0  0  0  0
  9 11  1  0  0  0  0
  9 15  2  0  0  0  0
 10 13  2  0  0  0  0
 11 14  1  0  0  0  0
 12 13  1  0  0  0  0
 14 20  1  0  0  0  0
 14 21  2  0  0  0  0
 17 18  1  0  0  0  0
 17 19  1  0  0  0  0
 18 19  1  0  0  0  0
 20 22  2  0  0  0  0
 21 24  1  0  0  0  0
 22 25  1  0  0  0  0
M  END
> <PUBCHEM_COMPOUND_ID_TYPE>
0

> <PUBCHEM_TOTAL_CHARGE>
0

> <PUBCHEM_SUBSTANCE_ID>
310933048

> <PUBCHEM_SUBSTANCE_VERSION>
1

> <PUBCHEM_EXT_DATASOURCE_NAME>
4488

> <PUBCHEM_EXT_DATASOURCE_REGID>
SCHEMBL16110449

> <PUBCHEM_SUBSTANCE_COMMENT>
InChI=1S/C17H18N6O2/c1-10-7-11(5-6-18-10)16-13-9-19-15(8-14(13)20-21-16)22(2)17(24)23(25)12-3-4-12/h5-9,12,25H,3-4H2,1-2H3,(H,20,21)
InChIKey=CGUYAUCTFLPRGU-UHFFFAOYSA-N

> <PUBCHEM_SUBSTANCE_SYNONYM>
SCHEMBL16110449

> <PUBCHEM_XREF_EXT_ID>
SCHEMBL16110449

> <PUBCHEM_EXT_DATASOURCE_URL>
https://www.surechembl.org/

> <PUBCHEM_EXT_SUBSTANCE_URL>
https://www.surechembl.org/chemical/SCHEMBL16110449

> <PUBCHEM_CID_ASSOCIATIONS>
117601509  1

> <PUBCHEM_COORDINATE_TYPE>
1
3

$$$$
