310942595
  -OEChem-07211613022D

 60 64  0     1  0  0  0  0  0999 V2000
   -5.2607   -0.1102    0.0000 F   0  0  0  0  0  0  0  0  0  0  0  0
    1.6605   -1.1241    0.0000 F   0  0  0  0  0  0  0  0  0  0  0  0
   -4.9226   -3.4165    0.0000 F   0  0  0  0  0  0  0  0  0  0  0  0
   -2.6009   -2.0352    0.0000 O   0  0  0  0  0  0  0  0  0  0  0  0
   -1.7633   -3.4753    0.0000 O   0  0  0  0  0  0  0  0  0  0  0  0
   -0.4114    1.7707    0.0000 O   0  0  0  0  0  0  0  0  0  0  0  0
    1.4547   -4.3569    0.0000 O   0  0  0  0  0  0  0  0  0  0  0  0
    0.0147   -4.2394    0.0000 O   0  0  0  0  0  0  0  0  0  0  0  0
    2.4981    2.4907    0.0000 O   0  0  0  0  0  0  0  0  0  0  0  0
    4.8051    1.7413    0.0000 O   0  0  0  0  0  0  0  0  0  0  0  0
    4.8051    4.6655    0.0000 O   0  0  0  0  0  0  0  0  0  0  0  0
   -1.2343   -1.0947    0.0000 N   0  0  0  0  0  0  0  0  0  0  0  0
   -2.9683    0.2866    0.0000 N   0  0  0  0  0  0  0  0  0  0  0  0
   -2.9830   -1.0506    0.0000 N   0  0  0  0  0  0  0  0  0  0  0  0
    0.7348   -3.0491    0.0000 N   0  0  0  0  0  0  0  0  0  0  0  0
    0.8376    1.0506    0.0000 N   0  0  0  0  0  0  0  0  0  0  0  0
    4.5700    3.2108    0.0000 N   0  0  0  0  0  0  0  0  0  0  0  0
   -1.6458   -0.3894    0.0000 C   0  0  3  0  0  0  0  0  0  0  0  0
   -2.4834   -0.3747    0.0000 C   0  0  0  0  0  0  0  0  0  0  0  0
   -1.2490    0.3600    0.0000 C   0  0  0  0  0  0  0  0  0  0  0  0
   -3.7618   -0.7861    0.0000 C   0  0  0  0  0  0  0  0  0  0  0  0
   -3.7471    0.0368    0.0000 C   0  0  0  0  0  0  0  0  0  0  0  0
   -4.4231   -1.2858    0.0000 C   0  0  0  0  0  0  0  0  0  0  0  0
   -1.7486   -2.0205    0.0000 C   0  0  0  0  0  0  0  0  0  0  0  0
   -0.1470   -1.1094    0.0000 C   0  0  0  0  0  0  0  0  0  0  0  0
   -0.4114    0.3307    0.0000 C   0  0  0  0  0  0  0  0  0  0  0  0
    0.3233   -1.7707    0.0000 C   0  0  3  0  0  0  0  0  0  0  0  0
   -2.7185    1.0800    0.0000 C   0  0  0  0  0  0  0  0  0  0  0  0
   -1.9691    0.7421    0.0000 C   0  0  0  0  0  0  0  0  0  0  0  0
   -1.2343    1.1829    0.0000 C   0  0  0  0  0  0  0  0  0  0  0  0
   -5.2018   -0.9184    0.0000 C   0  0  0  0  0  0  0  0  0  0  0  0
    1.1609   -1.7854    0.0000 C   0  0  3  0  0  0  0  0  0  0  0  0
   -1.3666   -2.7405    0.0000 C   0  0  3  0  0  0  0  0  0  0  0  0
   -4.3642   -2.1087    0.0000 C   0  0  0  0  0  0  0  0  0  0  0  0
    0.0735   -2.5495    0.0000 C   0  0  0  0  0  0  0  0  0  0  0  0
   -3.2769    1.6973    0.0000 C   0  0  0  0  0  0  0  0  0  0  0  0
    0.0147    1.0506    0.0000 C   0  0  0  0  0  0  0  0  0  0  0  0
    1.3960   -2.5495    0.0000 C   0  0  0  0  0  0  0  0  0  0  0  0
   -5.0108   -2.5936    0.0000 C   0  0  0  0  0  0  0  0  0  0  0  0
   -5.8484   -1.4181    0.0000 C   0  0  0  0  0  0  0  0  0  0  0  0
    0.7348   -3.8720    0.0000 C   0  0  0  0  0  0  0  0  0  0  0  0
   -5.7749   -2.2556    0.0000 C   0  0  0  0  0  0  0  0  0  0  0  0
   -3.0124    2.4907    0.0000 C   0  0  0  0  0  0  0  0  0  0  0  0
   -4.0703    1.5356    0.0000 C   0  0  0  0  0  0  0  0  0  0  0  0
   -0.5437   -2.7552    0.0000 C   0  0  0  0  0  0  0  0  0  0  0  0
   -3.5414    3.0785    0.0000 C   0  0  0  0  0  0  0  0  0  0  0  0
   -4.6140    2.1380    0.0000 C   0  0  0  0  0  0  0  0  0  0  0  0
    2.2336   -3.9896    0.0000 C   0  0  0  0  0  0  0  0  0  0  0  0
    1.2637    1.7707    0.0000 C   0  0  0  0  0  0  0  0  0  0  0  0
   -4.3642    2.9316    0.0000 C   0  0  0  0  0  0  0  0  0  0  0  0
    2.0866    1.7707    0.0000 C   0  0  0  0  0  0  0  0  0  0  0  0
    2.6156   -4.6655    0.0000 C   0  0  0  0  0  0  0  0  0  0  0  0
    1.8809   -3.3136    0.0000 C   0  0  0  0  0  0  0  0  0  0  0  0
    2.9830   -3.6075    0.0000 C   0  0  0  0  0  0  0  0  0  0  0  0
    5.0696    2.5789    0.0000 C   0  0  0  0  0  0  0  0  0  0  0  0
    5.0549    3.8720    0.0000 C   0  0  0  0  0  0  0  0  0  0  0  0
    3.7471    3.2108    0.0000 C   0  0  0  0  0  0  0  0  0  0  0  0
    5.8337    2.7846    0.0000 C   0  0  0  0  0  0  0  0  0  0  0  0
    5.8484    3.6222    0.0000 C   0  0  0  0  0  0  0  0  0  0  0  0
    3.3357    2.5054    0.0000 C   0  0  0  0  0  0  0  0  0  0  0  0
  1 31  1  0  0  0  0
 32  2  1  1  0  0  0
  3 39  1  0  0  0  0
  4 24  2  0  0  0  0
 33  5  1  6  0  0  0
  6 37  2  0  0  0  0
  7 41  1  0  0  0  0
  7 48  1  0  0  0  0
  8 41  2  0  0  0  0
  9 51  1  0  0  0  0
  9 60  1  0  0  0  0
 10 55  2  0  0  0  0
 11 56  2  0  0  0  0
 18 12  1  1  0  0  0
 12 24  1  0  0  0  0
 12 25  1  0  0  0  0
 13 19  1  0  0  0  0
 13 22  1  0  0  0  0
 13 28  1  0  0  0  0
 14 19  2  0  0  0  0
 14 21  1  0  0  0  0
 15 35  1  0  0  0  0
 15 38  1  0  0  0  0
 15 41  1  0  0  0  0
 16 37  1  0  0  0  0
 16 49  1  0  0  0  0
 17 55  1  0  0  0  0
 17 56  1  0  0  0  0
 17 57  1  0  0  0  0
 18 19  1  0  0  0  0
 18 20  1  0  0  0  0
 20 26  1  0  0  0  0
 20 29  1  0  0  0  0
 20 30  1  0  0  0  0
 21 22  2  0  0  0  0
 21 23  1  0  0  0  0
 23 31  2  0  0  0  0
 23 34  1  0  0  0  0
 24 33  1  0  0  0  0
 27 25  1  1  0  0  0
 26 37  1  0  0  0  0
 27 32  1  0  0  0  0
 27 35  1  0  0  0  0
 28 36  1  0  0  0  0
 31 40  1  0  0  0  0
 32 38  1  0  0  0  0
 33 45  1  0  0  0  0
 34 39  2  0  0  0  0
 36 43  2  0  0  0  0
 36 44  1  0  0  0  0
 39 42  1  0  0  0  0
 40 42  2  0  0  0  0
 43 46  1  0  0  0  0
 44 47  2  0  0  0  0
 46 50  2  0  0  0  0
 47 50  1  0  0  0  0
 48 52  1  0  0  0  0
 48 53  1  0  0  0  0
 48 54  1  0  0  0  0
 49 51  1  0  0  0  0
 55 58  1  0  0  0  0
 56 59  1  0  0  0  0
 57 60  1  0  0  0  0
 58 59  2  0  0  0  0
M  END
> <PUBCHEM_COMPOUND_ID_TYPE>
0

> <PUBCHEM_TOTAL_CHARGE>
0

> <PUBCHEM_SUBSTANCE_ID>
310942595

> <PUBCHEM_SUBSTANCE_VERSION>
1

> <PUBCHEM_EXT_DATASOURCE_NAME>
4488

> <PUBCHEM_EXT_DATASOURCE_REGID>
SCHEMBL16120640

> <PUBCHEM_SUBSTANCE_COMMENT>
InChI=1S/C43H53F3N6O8/c1-27(53)40(57)52(24-29-23-50(25-33(29)46)41(58)60-42(2,3)4)38(43(5,6)21-35(54)47-16-18-59-19-17-51-36(55)14-15-37(51)56)39-48-34(31-20-30(44)12-13-32(31)45)26-49(39)22-28-10-8-7-9-11-28/h7-15,20,26-27,29,33,38,53H,16-19,21-25H2,1-6H3,(H,47,54)/t27-,29-,33-,38-/m0/s1
InChIKey=XFVHGSUNULKWNW-LXWNWQNOSA-N

> <PUBCHEM_SUBSTANCE_SYNONYM>
SCHEMBL16120640

> <PUBCHEM_XREF_EXT_ID>
SCHEMBL16120640

> <PUBCHEM_EXT_DATASOURCE_URL>
https://www.surechembl.org/

> <PUBCHEM_EXT_SUBSTANCE_URL>
https://www.surechembl.org/chemical/SCHEMBL16120640

> <PUBCHEM_CID_ASSOCIATIONS>
117609135  1

> <PUBCHEM_COORDINATE_TYPE>
1
3

> <PUBCHEM_BONDANNOTATIONS>
18  12  5
32  2  5
27  25  5
33  5  6

$$$$
