310940630
  -OEChem-07211613022D

 15 16  0     1  0  0  0  0  0999 V2000
    0.3002    2.5040    0.0000 Cl  0  0  0  0  0  0  0  0  0  0  0  0
    1.1748   -1.9380    0.0000 O   0  0  0  0  0  0  0  0  0  0  0  0
    1.2606   -0.4631    0.0000 O   0  0  0  0  0  0  0  0  0  0  0  0
    0.0257   -1.2520    0.0000 N   0  0  0  0  0  0  0  0  0  0  0  0
   -0.5746   -0.6860    0.0000 C   0  0  3  0  0  0  0  0  0  0  0  0
   -0.3688    0.1372    0.0000 C   0  0  0  0  0  0  0  0  0  0  0  0
    0.7975   -1.2006    0.0000 C   0  0  0  0  0  0  0  0  0  0  0  0
   -0.1801   -2.0924    0.0000 C   0  0  0  0  0  0  0  0  0  0  0  0
    0.5403   -2.5040    0.0000 C   0  0  0  0  0  0  0  0  0  0  0  0
   -0.9176    0.6860    0.0000 C   0  0  0  0  0  0  0  0  0  0  0  0
    0.4374    0.3431    0.0000 C   0  0  0  0  0  0  0  0  0  0  0  0
    0.0600    1.6979    0.0000 C   0  0  0  0  0  0  0  0  0  0  0  0
   -1.2606   -0.8747    0.0000 C   0  0  0  0  0  0  0  0  0  0  0  0
   -0.7289    1.4750    0.0000 C   0  0  0  0  0  0  0  0  0  0  0  0
    0.6603    1.1320    0.0000 C   0  0  0  0  0  0  0  0  0  0  0  0
  1 12  1  0  0  0  0
  2  7  1  0  0  0  0
  2  9  1  0  0  0  0
  3  7  2  0  0  0  0
  4  5  1  0  0  0  0
  4  7  1  0  0  0  0
  4  8  1  0  0  0  0
  5  6  1  0  0  0  0
  5 13  1  6  0  0  0
  6 10  2  0  0  0  0
  6 11  1  0  0  0  0
  8  9  2  0  0  0  0
 10 14  1  0  0  0  0
 11 15  2  0  0  0  0
 12 14  2  0  0  0  0
 12 15  1  0  0  0  0
M  END
> <PUBCHEM_COMPOUND_ID_TYPE>
0

> <PUBCHEM_TOTAL_CHARGE>
0

> <PUBCHEM_SUBSTANCE_ID>
310940630

> <PUBCHEM_SUBSTANCE_VERSION>
1

> <PUBCHEM_EXT_DATASOURCE_NAME>
4488

> <PUBCHEM_EXT_DATASOURCE_REGID>
SCHEMBL16118585

> <PUBCHEM_SUBSTANCE_COMMENT>
InChI=1S/C11H10ClNO2/c1-8(13-6-7-15-11(13)14)9-2-4-10(12)5-3-9/h2-8H,1H3/t8-/m1/s1
InChIKey=QVLCCPZXGIAKFI-MRVPVSSYSA-N

> <PUBCHEM_SUBSTANCE_SYNONYM>
SCHEMBL16118585

> <PUBCHEM_XREF_EXT_ID>
SCHEMBL16118585

> <PUBCHEM_EXT_DATASOURCE_URL>
https://www.surechembl.org/

> <PUBCHEM_EXT_SUBSTANCE_URL>
https://www.surechembl.org/chemical/SCHEMBL16118585

> <PUBCHEM_CID_ASSOCIATIONS>
117607611  1

> <PUBCHEM_COORDINATE_TYPE>
1
3

> <PUBCHEM_BONDANNOTATIONS>
5  13  6

$$$$
