310949888
  -OEChem-07211613022D

 28 32  0     1  0  0  0  0  0999 V2000
   -0.6269    1.3999    0.0000 N   0  0  0  0  0  0  0  0  0  0  0  0
   -0.6269    2.7510    0.0000 N   0  0  0  0  0  0  0  0  0  0  0  0
    0.1393   -0.9821    0.0000 N   0  0  0  0  0  0  0  0  0  0  0  0
    1.9501    1.3581    0.0000 N   0  0  0  0  0  0  0  0  0  0  0  0
   -0.1393    2.0824    0.0000 C   0  0  0  0  0  0  0  0  0  0  0  0
   -1.4208    1.6785    0.0000 C   0  0  0  0  0  0  0  0  0  0  0  0
   -1.4208    2.5003    0.0000 C   0  0  0  0  0  0  0  0  0  0  0  0
   -0.3761    0.6338    0.0000 C   0  0  0  0  0  0  0  0  0  0  0  0
    0.7104    2.0685    0.0000 C   0  0  3  0  0  0  0  0  0  0  0  0
   -2.1312    1.2606    0.0000 C   0  0  0  0  0  0  0  0  0  0  0  0
   -2.1591    2.9043    0.0000 C   0  0  0  0  0  0  0  0  0  0  0  0
   -0.9054   -0.0070    0.0000 C   0  0  0  0  0  0  0  0  0  0  0  0
    0.4597    0.4388    0.0000 C   0  0  0  0  0  0  0  0  0  0  0  0
    1.1144    1.3720    0.0000 C   0  0  0  0  0  0  0  0  0  0  0  0
    1.1004    2.7929    0.0000 C   0  0  0  0  0  0  0  0  0  0  0  0
   -2.8555    1.6646    0.0000 C   0  0  0  0  0  0  0  0  0  0  0  0
   -2.8555    2.4864    0.0000 C   0  0  0  0  0  0  0  0  0  0  0  0
   -0.6686   -0.7870    0.0000 C   0  0  0  0  0  0  0  0  0  0  0  0
    0.7104   -0.3413    0.0000 C   0  0  0  0  0  0  0  0  0  0  0  0
    1.9640    2.7929    0.0000 C   0  0  0  0  0  0  0  0  0  0  0  0
    0.4040   -1.7621    0.0000 C   0  0  0  0  0  0  0  0  0  0  0  0
    2.3680    2.0824    0.0000 C   0  0  0  0  0  0  0  0  0  0  0  0
    1.2258   -1.9431    0.0000 C   0  0  0  0  0  0  0  0  0  0  0  0
    1.4904   -2.7232    0.0000 C   0  0  0  0  0  0  0  0  0  0  0  0
    1.7830   -1.3303    0.0000 C   0  0  0  0  0  0  0  0  0  0  0  0
    2.2983   -2.9043    0.0000 C   0  0  0  0  0  0  0  0  0  0  0  0
    2.5909   -1.4974    0.0000 C   0  0  0  0  0  0  0  0  0  0  0  0
    2.8555   -2.2775    0.0000 C   0  0  0  0  0  0  0  0  0  0  0  0
  1  5  1  0  0  0  0
  1  6  1  0  0  0  0
  1  8  1  0  0  0  0
  2  5  2  0  0  0  0
  2  7  1  0  0  0  0
  3 18  1  0  0  0  0
  3 19  1  0  0  0  0
  3 21  1  0  0  0  0
  4 14  1  0  0  0  0
  4 22  1  0  0  0  0
  9  5  1  6  0  0  0
  6  7  1  0  0  0  0
  6 10  2  0  0  0  0
  7 11  2  0  0  0  0
  8 12  1  0  0  0  0
  8 13  1  0  0  0  0
  9 14  1  0  0  0  0
  9 15  1  0  0  0  0
 10 16  1  0  0  0  0
 11 17  1  0  0  0  0
 12 18  1  0  0  0  0
 13 19  1  0  0  0  0
 15 20  1  0  0  0  0
 16 17  2  0  0  0  0
 20 22  1  0  0  0  0
 21 23  1  0  0  0  0
 23 24  2  0  0  0  0
 23 25  1  0  0  0  0
 24 26  1  0  0  0  0
 25 27  2  0  0  0  0
 26 28  2  0  0  0  0
 27 28  1  0  0  0  0
M  END
> <PUBCHEM_COMPOUND_ID_TYPE>
0

> <PUBCHEM_TOTAL_CHARGE>
0

> <PUBCHEM_SUBSTANCE_ID>
310949888

> <PUBCHEM_SUBSTANCE_VERSION>
1

> <PUBCHEM_EXT_DATASOURCE_NAME>
4488

> <PUBCHEM_EXT_DATASOURCE_REGID>
SCHEMBL16128099

> <PUBCHEM_SUBSTANCE_COMMENT>
InChI=1S/C24H30N4/c1-2-7-19(8-3-1)18-27-15-12-21(13-16-27)28-23-11-5-4-10-22(23)26-24(28)20-9-6-14-25-17-20/h1-5,7-8,10-11,20-21,25H,6,9,12-18H2/t20-/m1/s1
InChIKey=IPWVDJLPKXPARO-HXUWFJFHSA-N

> <PUBCHEM_SUBSTANCE_SYNONYM>
SCHEMBL16128099

> <PUBCHEM_XREF_EXT_ID>
SCHEMBL16128099

> <PUBCHEM_EXT_DATASOURCE_URL>
https://www.surechembl.org/

> <PUBCHEM_EXT_SUBSTANCE_URL>
https://www.surechembl.org/chemical/SCHEMBL16128099

> <PUBCHEM_CID_ASSOCIATIONS>
86274293  1

> <PUBCHEM_COORDINATE_TYPE>
1
3

> <PUBCHEM_BONDANNOTATIONS>
9  5  6

$$$$
