310929610
  -OEChem-07211613022D

 57 63  0     1  0  0  0  0  0999 V2000
    4.7207   -0.9166    0.0000 S   0  0  0  0  0  0  0  0  0  0  0  0
    4.3082   -2.5207    0.0000 O   0  0  0  0  0  0  0  0  0  0  0  0
    4.9498   -1.7416    0.0000 O   0  0  0  0  0  0  0  0  0  0  0  0
    4.4457   -0.1375    0.0000 O   0  0  0  0  0  0  0  0  0  0  0  0
    4.2623   -3.1624    0.0000 O   0  0  0  0  0  0  0  0  0  0  0  0
    5.3622   -5.5456    0.0000 O   0  0  0  0  0  0  0  0  0  0  0  0
    1.4666   -4.0332    0.0000 O   0  0  0  0  0  0  0  0  0  0  0  0
    0.9166   -7.6080    0.0000 O   0  0  0  0  0  0  0  0  0  0  0  0
    6.4164   -8.4330    0.0000 O   0  0  0  0  0  0  0  0  0  0  0  0
    0.0000   -6.7372    0.0000 O   0  0  0  0  0  0  0  0  0  0  0  0
    2.8415   -3.0249    0.0000 N   0  0  0  0  0  0  0  0  0  0  0  0
    3.8957   -1.1458    0.0000 N   0  0  0  0  0  0  0  0  0  0  0  0
    2.6582   -4.3082    0.0000 N   0  0  0  0  0  0  0  0  0  0  0  0
    6.4164   -5.9122    0.0000 N   0  0  0  0  0  0  0  0  0  0  0  0
    0.9166   -5.9122    0.0000 N   0  0  0  0  0  0  0  0  0  0  0  0
    2.9332   -2.1999    0.0000 C   0  0  3  0  0  0  0  0  0  0  0  0
    2.1999   -1.8332    0.0000 C   0  0  3  0  0  0  0  0  0  0  0  0
    2.8874   -1.3749    0.0000 C   0  0  0  0  0  0  0  0  0  0  0  0
    3.7124   -1.9707    0.0000 C   0  0  0  0  0  0  0  0  0  0  0  0
    5.4997   -0.6875    0.0000 C   0  0  0  0  0  0  0  0  0  0  0  0
    3.5290   -3.5290    0.0000 C   0  0  0  0  0  0  0  0  0  0  0  0
    1.3749   -1.8332    0.0000 C   0  0  0  0  0  0  0  0  0  0  0  0
    3.4374   -4.3082    0.0000 C   0  0  3  0  0  0  0  0  0  0  0  0
    6.0497   -0.0916    0.0000 C   0  0  0  0  0  0  0  0  0  0  0  0
    6.2789   -0.8708    0.0000 C   0  0  0  0  0  0  0  0  0  0  0  0
    4.2623   -4.4915    0.0000 C   0  0  0  0  0  0  0  0  0  0  0  0
    5.0415    0.0000    0.0000 C   0  0  0  0  0  0  0  0  0  0  0  0
    4.9040   -4.8581    0.0000 C   0  0  3  0  0  0  0  0  0  0  0  0
    1.9249   -4.7207    0.0000 C   0  0  0  0  0  0  0  0  0  0  0  0
    3.9415   -3.9415    0.0000 C   0  0  0  0  0  0  0  0  0  0  0  0
    1.2833   -5.2706    0.0000 C   0  0  3  0  0  0  0  0  0  0  0  0
    1.0083   -2.5666    0.0000 C   0  0  0  0  0  0  0  0  0  0  0  0
    5.6372   -6.3705    0.0000 C   0  0  0  0  0  0  0  0  0  0  0  0
    5.6372   -7.1039    0.0000 C   0  0  0  0  0  0  0  0  0  0  0  0
    0.6416   -4.7207    0.0000 C   0  0  0  0  0  0  0  0  0  0  0  0
    7.0580   -7.1039    0.0000 C   0  0  0  0  0  0  0  0  0  0  0  0
    6.4164   -7.6080    0.0000 C   0  0  0  0  0  0  0  0  0  0  0  0
    7.0580   -6.3705    0.0000 C   0  0  0  0  0  0  0  0  0  0  0  0
    7.7913   -5.9122    0.0000 C   0  0  0  0  0  0  0  0  0  0  0  0
    7.7913   -7.6080    0.0000 C   0  0  0  0  0  0  0  0  0  0  0  0
    0.8249   -6.7372    0.0000 C   0  0  0  0  0  0  0  0  0  0  0  0
    5.3622   -7.9747    0.0000 C   0  0  0  0  0  0  0  0  0  0  0  0
    8.5246   -6.3705    0.0000 C   0  0  0  0  0  0  0  0  0  0  0  0
    1.2833   -8.2496    0.0000 C   0  0  3  0  0  0  0  0  0  0  0  0
    1.9249   -8.7996    0.0000 C   0  0  3  0  0  0  0  0  0  0  0  0
    8.5246   -7.1039    0.0000 C   0  0  0  0  0  0  0  0  0  0  0  0
    1.1916   -4.0790    0.0000 C   0  0  0  0  0  0  0  0  0  0  0  0
    0.0000   -4.2165    0.0000 C   0  0  0  0  0  0  0  0  0  0  0  0
    0.1375   -5.3622    0.0000 C   0  0  0  0  0  0  0  0  0  0  0  0
    1.0999   -9.0746    0.0000 C   0  0  0  0  0  0  0  0  0  0  0  0
    9.2579   -5.9581    0.0000 C   0  0  0  0  0  0  0  0  0  0  0  0
    4.9040   -8.6163    0.0000 C   0  0  0  0  0  0  0  0  0  0  0  0
    2.6582   -9.1663    0.0000 C   0  0  0  0  0  0  0  0  0  0  0  0
    4.2623   -8.9830    0.0000 C   0  0  0  0  0  0  0  0  0  0  0  0
    3.4374   -9.1663    0.0000 C   0  0  0  0  0  0  0  0  0  0  0  0
    9.2579   -5.1331    0.0000 C   0  0  0  0  0  0  0  0  0  0  0  0
    9.9454   -6.3705    0.0000 C   0  0  0  0  0  0  0  0  0  0  0  0
  1  3  2  0  0  0  0
  1  4  2  0  0  0  0
  1 12  1  0  0  0  0
  1 20  1  0  0  0  0
  2 19  2  0  0  0  0
  5 21  2  0  0  0  0
  6 28  1  0  0  0  0
  6 33  1  0  0  0  0
  7 29  2  0  0  0  0
  8 41  1  0  0  0  0
  8 44  1  0  0  0  0
  9 37  1  0  0  0  0
 10 41  2  0  0  0  0
 16 11  1  1  0  0  0
 11 21  1  0  0  0  0
 12 19  1  0  0  0  0
 13 23  1  0  0  0  0
 13 29  1  0  0  0  0
 13 30  1  0  0  0  0
 14 33  1  0  0  0  0
 14 38  2  0  0  0  0
 15 31  1  0  0  0  0
 15 41  1  0  0  0  0
 16 17  1  0  0  0  0
 16 18  1  0  0  0  0
 16 19  1  6  0  0  0
 17 18  1  0  0  0  0
 17 22  1  6  0  0  0
 20 24  1  0  0  0  0
 20 25  1  0  0  0  0
 20 27  1  0  0  0  0
 23 21  1  6  0  0  0
 22 32  2  0  0  0  0
 23 26  1  0  0  0  0
 24 25  1  0  0  0  0
 28 26  1  1  0  0  0
 28 30  1  0  0  0  0
 29 31  1  0  0  0  0
 31 35  1  1  0  0  0
 33 34  2  0  0  0  0
 34 37  1  0  0  0  0
 34 42  1  0  0  0  0
 35 47  1  0  0  0  0
 35 48  1  0  0  0  0
 35 49  1  0  0  0  0
 36 37  2  0  0  0  0
 36 38  1  0  0  0  0
 36 40  1  0  0  0  0
 38 39  1  0  0  0  0
 39 43  2  0  0  0  0
 40 46  2  0  0  0  0
 42 52  1  0  0  0  0
 43 46  1  0  0  0  0
 43 51  1  0  0  0  0
 44 45  1  0  0  0  0
 44 50  1  1  0  0  0
 45 50  1  6  0  0  0
 45 53  1  0  0  0  0
 51 56  1  0  0  0  0
 51 57  1  0  0  0  0
 52 54  1  0  0  0  0
 53 55  1  0  0  0  0
 54 55  1  0  0  0  0
M  END
> <PUBCHEM_COMPOUND_ID_TYPE>
0

> <PUBCHEM_TOTAL_CHARGE>
0

> <PUBCHEM_SUBSTANCE_ID>
310929610

> <PUBCHEM_SUBSTANCE_VERSION>
1

> <PUBCHEM_EXT_DATASOURCE_NAME>
4488

> <PUBCHEM_EXT_DATASOURCE_REGID>
SCHEMBL16106797

> <PUBCHEM_SUBSTANCE_COMMENT>
InChI=1S/C42H57N5O9S/c1-8-26-21-42(26,38(51)46-57(53,54)41(7)16-17-41)45-35(49)31-20-27-22-47(31)37(50)34(40(4,5)6)44-39(52)56-32-19-25(32)12-10-9-11-13-29-33(48)28-15-14-24(23(2)3)18-30(28)43-36(29)55-27/h8,14-15,18,23,25-27,31-32,34H,1,9-13,16-17,19-22H2,2-7H3,(H,43,48)(H,44,52)(H,45,49)(H,46,51)/t25-,26-,27-,31+,32-,34-,42-/m1/s1
InChIKey=HIGCBNBVHNLUEZ-IROSWSEVSA-N

> <PUBCHEM_SUBSTANCE_SYNONYM>
SCHEMBL16106797

> <PUBCHEM_XREF_EXT_ID>
SCHEMBL16106797

> <PUBCHEM_EXT_DATASOURCE_URL>
https://www.surechembl.org/

> <PUBCHEM_EXT_SUBSTANCE_URL>
https://www.surechembl.org/chemical/SCHEMBL16106797

> <PUBCHEM_CID_ASSOCIATIONS>
117598917  1

> <PUBCHEM_COORDINATE_TYPE>
1
3

> <PUBCHEM_BONDANNOTATIONS>
16  11  5
16  19  6
17  22  6
23  21  6
28  26  5
31  35  5
44  50  5
45  50  6

$$$$
