310943413
  -OEChem-07211613022D

 38 42  0     0  0  0  0  0  0999 V2000
    4.6563    2.2514    0.0000 F   0  0  0  0  0  0  0  0  0  0  0  0
    5.3727    1.8421    0.0000 F   0  0  0  0  0  0  0  0  0  0  0  0
    5.3727    1.0233    0.0000 F   0  0  0  0  0  0  0  0  0  0  0  0
    1.7909    2.2514    0.0000 O   0  0  0  0  0  0  0  0  0  0  0  0
   -5.3727    2.2514    0.0000 O   0  0  0  0  0  0  0  0  0  0  0  0
   -2.5073   -2.6607    0.0000 O   0  0  0  0  0  0  0  0  0  0  0  0
   -3.2066    0.2047    0.0000 N   0  0  0  0  0  0  0  0  0  0  0  0
   -3.9229    1.4327    0.0000 N   0  0  0  0  0  0  0  0  0  0  0  0
   -2.4902   -1.0233    0.0000 N   0  0  0  0  0  0  0  0  0  0  0  0
   -0.3411    2.6607    0.0000 N   0  0  0  0  0  0  0  0  0  0  0  0
    1.0916    1.0233    0.0000 N   0  0  0  0  0  0  0  0  0  0  0  0
    3.9570    0.2047    0.0000 N   0  0  0  0  0  0  0  0  0  0  0  0
   -1.7738    1.0404    0.0000 C   0  0  0  0  0  0  0  0  0  0  0  0
   -1.0745    1.4327    0.0000 C   0  0  0  0  0  0  0  0  0  0  0  0
   -3.2066    1.0404    0.0000 C   0  0  0  0  0  0  0  0  0  0  0  0
   -2.4902   -0.1876    0.0000 C   0  0  0  0  0  0  0  0  0  0  0  0
   -2.5073    1.4327    0.0000 C   0  0  0  0  0  0  0  0  0  0  0  0
   -1.7909    0.1876    0.0000 C   0  0  0  0  0  0  0  0  0  0  0  0
   -1.0575    2.2514    0.0000 C   0  0  0  0  0  0  0  0  0  0  0  0
   -0.3411    1.0233    0.0000 C   0  0  0  0  0  0  0  0  0  0  0  0
    0.3581    1.4327    0.0000 C   0  0  0  0  0  0  0  0  0  0  0  0
    2.5243    1.0233    0.0000 C   0  0  0  0  0  0  0  0  0  0  0  0
    1.7909    1.4157    0.0000 C   0  0  0  0  0  0  0  0  0  0  0  0
    3.9570    1.0404    0.0000 C   0  0  0  0  0  0  0  0  0  0  0  0
    0.3752    2.2514    0.0000 C   0  0  0  0  0  0  0  0  0  0  0  0
    4.6733    1.4498    0.0000 C   0  0  0  0  0  0  0  0  0  0  0  0
    3.2236    1.4327    0.0000 C   0  0  0  0  0  0  0  0  0  0  0  0
   -3.9400    2.2514    0.0000 C   0  0  0  0  0  0  0  0  0  0  0  0
   -4.6392    1.0233    0.0000 C   0  0  0  0  0  0  0  0  0  0  0  0
   -3.1895   -1.4157    0.0000 C   0  0  0  0  0  0  0  0  0  0  0  0
   -1.7738   -1.4327    0.0000 C   0  0  0  0  0  0  0  0  0  0  0  0
    2.5243    0.2047    0.0000 C   0  0  0  0  0  0  0  0  0  0  0  0
   -1.7909    2.6437    0.0000 C   0  0  0  0  0  0  0  0  0  0  0  0
    3.2407   -0.2047    0.0000 C   0  0  0  0  0  0  0  0  0  0  0  0
   -4.6563    2.6607    0.0000 C   0  0  0  0  0  0  0  0  0  0  0  0
   -5.3556    1.4327    0.0000 C   0  0  0  0  0  0  0  0  0  0  0  0
   -3.2066   -2.2514    0.0000 C   0  0  0  0  0  0  0  0  0  0  0  0
   -1.7909   -2.2514    0.0000 C   0  0  0  0  0  0  0  0  0  0  0  0
  1 26  1  0  0  0  0
  2 26  1  0  0  0  0
  3 26  1  0  0  0  0
  4 23  2  0  0  0  0
  5 35  1  0  0  0  0
  5 36  1  0  0  0  0
  6 37  1  0  0  0  0
  6 38  1  0  0  0  0
  7 15  2  0  0  0  0
  7 16  1  0  0  0  0
  8 15  1  0  0  0  0
  8 28  1  0  0  0  0
  8 29  1  0  0  0  0
  9 16  1  0  0  0  0
  9 30  1  0  0  0  0
  9 31  1  0  0  0  0
 10 19  2  0  0  0  0
 10 25  1  0  0  0  0
 11 21  1  0  0  0  0
 11 23  1  0  0  0  0
 12 24  1  0  0  0  0
 12 34  2  0  0  0  0
 13 14  1  0  0  0  0
 13 17  2  0  0  0  0
 13 18  1  0  0  0  0
 14 19  1  0  0  0  0
 14 20  2  0  0  0  0
 15 17  1  0  0  0  0
 16 18  2  0  0  0  0
 19 33  1  0  0  0  0
 20 21  1  0  0  0  0
 21 25  2  0  0  0  0
 22 23  1  0  0  0  0
 22 27  1  0  0  0  0
 22 32  2  0  0  0  0
 24 26  1  0  0  0  0
 24 27  2  0  0  0  0
 28 35  1  0  0  0  0
 29 36  1  0  0  0  0
 30 37  1  0  0  0  0
 31 38  1  0  0  0  0
 32 34  1  0  0  0  0
M  END
> <PUBCHEM_COMPOUND_ID_TYPE>
0

> <PUBCHEM_TOTAL_CHARGE>
0

> <PUBCHEM_SUBSTANCE_ID>
310943413

> <PUBCHEM_SUBSTANCE_VERSION>
1

> <PUBCHEM_EXT_DATASOURCE_NAME>
4488

> <PUBCHEM_EXT_DATASOURCE_REGID>
SCHEMBL16121477

> <PUBCHEM_SUBSTANCE_COMMENT>
InChI=1S/C26H27F3N6O3/c1-17-21(15-20(16-31-17)32-25(36)18-2-3-30-22(12-18)26(27,28)29)19-13-23(34-4-8-37-9-5-34)33-24(14-19)35-6-10-38-11-7-35/h2-3,12-16H,4-11H2,1H3,(H,32,36)
InChIKey=JZVPNWVNWCDNRJ-UHFFFAOYSA-N

> <PUBCHEM_SUBSTANCE_SYNONYM>
SCHEMBL16121477

> <PUBCHEM_XREF_EXT_ID>
SCHEMBL16121477

> <PUBCHEM_EXT_DATASOURCE_URL>
https://www.surechembl.org/

> <PUBCHEM_EXT_SUBSTANCE_URL>
https://www.surechembl.org/chemical/SCHEMBL16121477

> <PUBCHEM_CID_ASSOCIATIONS>
117609837  1

> <PUBCHEM_COORDINATE_TYPE>
1
3

$$$$
