310949721
  -OEChem-07211613022D

 22 23  0     0  0  0  0  0  0999 V2000
    2.5018   -0.4125    0.0000 O   0  0  0  0  0  0  0  0  0  0  0  0
   -1.0779    0.8251    0.0000 O   0  0  0  0  0  0  0  0  0  0  0  0
   -3.2204    1.2375    0.0000 O   0  0  0  0  0  0  0  0  0  0  0  0
   -1.7964    1.2375    0.0000 O   0  0  0  0  0  0  0  0  0  0  0  0
   -0.3593   -0.4125    0.0000 N   0  0  0  0  0  0  0  0  0  0  0  0
    3.1937    1.6767    0.0000 N   0  0  0  0  0  0  0  0  0  0  0  0
   -1.7964   -0.4392    0.0000 C   0  0  0  0  0  0  0  0  0  0  0  0
   -2.5150   -0.0133    0.0000 C   0  0  0  0  0  0  0  0  0  0  0  0
   -1.0779   -0.0266    0.0000 C   0  0  0  0  0  0  0  0  0  0  0  0
    0.3460    0.0133    0.0000 C   0  0  0  0  0  0  0  0  0  0  0  0
    1.7831    0.0133    0.0000 C   0  0  0  0  0  0  0  0  0  0  0  0
    1.7831    0.8384    0.0000 C   0  0  0  0  0  0  0  0  0  0  0  0
    1.0512   -0.4125    0.0000 C   0  0  0  0  0  0  0  0  0  0  0  0
   -1.7964   -1.2642    0.0000 C   0  0  0  0  0  0  0  0  0  0  0  0
   -2.5018    0.8118    0.0000 C   0  0  0  0  0  0  0  0  0  0  0  0
    0.3593    0.8384    0.0000 C   0  0  0  0  0  0  0  0  0  0  0  0
   -3.2204   -0.4392    0.0000 C   0  0  0  0  0  0  0  0  0  0  0  0
    1.0646    1.2375    0.0000 C   0  0  0  0  0  0  0  0  0  0  0  0
   -2.5283   -1.6767    0.0000 C   0  0  0  0  0  0  0  0  0  0  0  0
   -3.2204   -1.2642    0.0000 C   0  0  0  0  0  0  0  0  0  0  0  0
    2.4752    1.2375    0.0000 C   0  0  0  0  0  0  0  0  0  0  0  0
    3.2204    0.0133    0.0000 C   0  0  0  0  0  0  0  0  0  0  0  0
  1 11  1  0  0  0  0
  1 22  1  0  0  0  0
  2  9  2  0  0  0  0
  3 15  2  0  0  0  0
  4 15  1  0  0  0  0
  5  9  1  0  0  0  0
  5 10  1  0  0  0  0
  6 21  3  0  0  0  0
  7  8  1  0  0  0  0
  7  9  1  0  0  0  0
  7 14  2  0  0  0  0
  8 15  1  0  0  0  0
  8 17  2  0  0  0  0
 10 13  1  0  0  0  0
 10 16  2  0  0  0  0
 11 12  1  0  0  0  0
 11 13  2  0  0  0  0
 12 18  2  0  0  0  0
 12 21  1  0  0  0  0
 14 19  1  0  0  0  0
 16 18  1  0  0  0  0
 17 20  1  0  0  0  0
 19 20  2  0  0  0  0
M  END
> <PUBCHEM_COMPOUND_ID_TYPE>
0

> <PUBCHEM_TOTAL_CHARGE>
0

> <PUBCHEM_SUBSTANCE_ID>
310949721

> <PUBCHEM_SUBSTANCE_VERSION>
1

> <PUBCHEM_EXT_DATASOURCE_NAME>
4488

> <PUBCHEM_EXT_DATASOURCE_REGID>
SCHEMBL16127919

> <PUBCHEM_SUBSTANCE_COMMENT>
InChI=1S/C16H12N2O4/c1-22-14-8-11(7-6-10(14)9-17)18-15(19)12-4-2-3-5-13(12)16(20)21/h2-8H,1H3,(H,18,19)(H,20,21)
InChIKey=RNSZHGOWXAGCNX-UHFFFAOYSA-N

> <PUBCHEM_SUBSTANCE_SYNONYM>
SCHEMBL16127919

> <PUBCHEM_XREF_EXT_ID>
SCHEMBL16127919

> <PUBCHEM_EXT_DATASOURCE_URL>
https://www.surechembl.org/

> <PUBCHEM_EXT_SUBSTANCE_URL>
https://www.surechembl.org/chemical/SCHEMBL16127919

> <PUBCHEM_CID_ASSOCIATIONS>
85473077  1

> <PUBCHEM_COORDINATE_TYPE>
1
3

$$$$
