310947318
  -OEChem-07211613022D

 39 44  0     1  0  0  0  0  0999 V2000
   -1.8180    2.2832    0.0000 O   0  0  0  0  0  0  0  0  0  0  0  0
   -3.9614    2.6957    0.0000 O   0  0  0  0  0  0  0  0  0  0  0  0
    4.3800    0.1356    0.0000 O   0  0  0  0  0  0  0  0  0  0  0  0
    5.8089    0.1356    0.0000 O   0  0  0  0  0  0  0  0  0  0  0  0
    1.1100   -0.0343    0.0000 N   0  0  0  0  0  0  0  0  0  0  0  0
    1.5949    0.6332    0.0000 N   0  0  0  0  0  0  0  0  0  0  0  0
   -2.5325    1.0457    0.0000 N   0  0  0  0  0  0  0  0  0  0  0  0
    0.3254    0.2207    0.0000 C   0  0  0  0  0  0  0  0  0  0  0  0
    0.3254    1.0457    0.0000 C   0  0  0  0  0  0  0  0  0  0  0  0
    1.1100    1.3006    0.0000 C   0  0  0  0  0  0  0  0  0  0  0  0
   -1.1036    1.0457    0.0000 C   0  0  0  0  0  0  0  0  0  0  0  0
   -0.3891    1.4582    0.0000 C   0  0  0  0  0  0  0  0  0  0  0  0
   -0.3891   -0.1918    0.0000 C   0  0  0  0  0  0  0  0  0  0  0  0
    1.3235   -0.8312    0.0000 C   0  0  0  0  0  0  0  0  0  0  0  0
   -1.1036    0.2207    0.0000 C   0  0  0  0  0  0  0  0  0  0  0  0
   -1.8180    1.4582    0.0000 C   0  0  0  0  0  0  0  0  0  0  0  0
    2.1204   -1.0447    0.0000 C   0  0  0  0  0  0  0  0  0  0  0  0
    3.7142   -1.4717    0.0000 C   0  0  0  0  0  0  0  0  0  0  0  0
    4.5111   -1.6853    0.0000 C   0  0  0  0  0  0  0  0  0  0  0  0
    1.5225    2.0151    0.0000 C   0  0  0  0  0  0  0  0  0  0  0  0
   -3.2470    1.4582    0.0000 C   0  0  3  0  0  0  0  0  0  0  0  0
    2.3339   -1.8416    0.0000 C   0  0  0  0  0  0  0  0  0  0  0  0
    2.7038   -0.4613    0.0000 C   0  0  0  0  0  0  0  0  0  0  0  0
    5.0944   -1.1019    0.0000 C   0  0  0  0  0  0  0  0  0  0  0  0
   -4.6759    1.4582    0.0000 C   0  0  0  0  0  0  0  0  0  0  0  0
    3.1308   -2.0551    0.0000 C   0  0  0  0  0  0  0  0  0  0  0  0
    3.5007   -0.6748    0.0000 C   0  0  0  0  0  0  0  0  0  0  0  0
   -4.6759    2.2832    0.0000 C   0  0  0  0  0  0  0  0  0  0  0  0
   -3.9614    1.0457    0.0000 C   0  0  0  0  0  0  0  0  0  0  0  0
   -3.2470    2.2832    0.0000 C   0  0  0  0  0  0  0  0  0  0  0  0
    4.7246   -2.4821    0.0000 C   0  0  0  0  0  0  0  0  0  0  0  0
    5.0944   -0.2769    0.0000 C   0  0  0  0  0  0  0  0  0  0  0  0
    5.8913   -1.3154    0.0000 C   0  0  0  0  0  0  0  0  0  0  0  0
   -5.3904    1.0457    0.0000 C   0  0  0  0  0  0  0  0  0  0  0  0
   -5.3904    2.6957    0.0000 C   0  0  0  0  0  0  0  0  0  0  0  0
    5.5215   -2.6957    0.0000 C   0  0  0  0  0  0  0  0  0  0  0  0
    6.1049   -2.1123    0.0000 C   0  0  0  0  0  0  0  0  0  0  0  0
   -6.1049    1.4582    0.0000 C   0  0  0  0  0  0  0  0  0  0  0  0
   -6.1049    2.2832    0.0000 C   0  0  0  0  0  0  0  0  0  0  0  0
  1 16  2  0  0  0  0
  2 28  1  0  0  0  0
  2 30  1  0  0  0  0
  3 32  2  0  0  0  0
  4 32  1  0  0  0  0
  5  6  1  0  0  0  0
  5  8  1  0  0  0  0
  5 14  1  0  0  0  0
  6 10  2  0  0  0  0
  7 16  1  0  0  0  0
 21  7  1  6  0  0  0
  8  9  1  0  0  0  0
  8 13  2  0  0  0  0
  9 10  1  0  0  0  0
  9 12  2  0  0  0  0
 10 20  1  0  0  0  0
 11 12  1  0  0  0  0
 11 15  2  0  0  0  0
 11 16  1  0  0  0  0
 13 15  1  0  0  0  0
 14 17  1  0  0  0  0
 17 22  2  0  0  0  0
 17 23  1  0  0  0  0
 18 19  1  0  0  0  0
 18 26  2  0  0  0  0
 18 27  1  0  0  0  0
 19 24  1  0  0  0  0
 19 31  2  0  0  0  0
 21 29  1  0  0  0  0
 21 30  1  0  0  0  0
 22 26  1  0  0  0  0
 23 27  2  0  0  0  0
 24 32  1  0  0  0  0
 24 33  2  0  0  0  0
 25 28  2  0  0  0  0
 25 29  1  0  0  0  0
 25 34  1  0  0  0  0
 28 35  1  0  0  0  0
 31 36  1  0  0  0  0
 33 37  1  0  0  0  0
 34 38  2  0  0  0  0
 35 39  2  0  0  0  0
 36 37  2  0  0  0  0
 38 39  1  0  0  0  0
M  END
> <PUBCHEM_COMPOUND_ID_TYPE>
0

> <PUBCHEM_TOTAL_CHARGE>
0

> <PUBCHEM_SUBSTANCE_ID>
310947318

> <PUBCHEM_SUBSTANCE_VERSION>
1

> <PUBCHEM_EXT_DATASOURCE_NAME>
4488

> <PUBCHEM_EXT_DATASOURCE_REGID>
SCHEMBL16125473

> <PUBCHEM_SUBSTANCE_COMMENT>
InChI=1S/C32H27N3O4/c1-20-28-17-24(31(36)33-25-16-23-6-2-5-9-30(23)39-19-25)14-15-29(28)35(34-20)18-21-10-12-22(13-11-21)26-7-3-4-8-27(26)32(37)38/h2-15,17,25H,16,18-19H2,1H3,(H,33,36)(H,37,38)/t25-/m1/s1
InChIKey=YWBOJAKXVWVTDK-RUZDIDTESA-N

> <PUBCHEM_SUBSTANCE_SYNONYM>
SCHEMBL16125473

> <PUBCHEM_XREF_EXT_ID>
SCHEMBL16125473

> <PUBCHEM_EXT_DATASOURCE_URL>
https://www.surechembl.org/

> <PUBCHEM_EXT_SUBSTANCE_URL>
https://www.surechembl.org/chemical/SCHEMBL16125473

> <PUBCHEM_CID_ASSOCIATIONS>
71576992  1

> <PUBCHEM_COORDINATE_TYPE>
1
3

> <PUBCHEM_BONDANNOTATIONS>
21  7  6

$$$$
