310940412
  -OEChem-07211613022D

 29 31  0     0  0  0  0  0  0999 V2000
    0.2633   -1.0323    0.0000 O   0  0  0  0  0  0  0  0  0  0  0  0
    5.3347    1.1155    0.0000 O   0  0  0  0  0  0  0  0  0  0  0  0
   -5.2515   -0.9630    0.0000 O   0  0  0  0  0  0  0  0  0  0  0  0
    4.6280    2.3487    0.0000 O   0  0  0  0  0  0  0  0  0  0  0  0
   -5.0298    0.4642    0.0000 O   0  0  0  0  0  0  0  0  0  0  0  0
   -1.4411   -0.7967    0.0000 N   0  0  0  0  0  0  0  0  0  0  0  0
    1.7459   -0.1178    0.0000 N   0  0  0  0  0  0  0  0  0  0  0  0
   -0.2771   -1.6558    0.0000 C   0  0  0  0  0  0  0  0  0  0  0  0
    1.0392   -1.3510    0.0000 C   0  0  0  0  0  0  0  0  0  0  0  0
    2.4803    0.2840    0.0000 C   0  0  0  0  0  0  0  0  0  0  0  0
   -2.2586   -0.6859    0.0000 C   0  0  0  0  0  0  0  0  0  0  0  0
    0.1247   -2.3487    0.0000 C   0  0  0  0  0  0  0  0  0  0  0  0
    0.9422   -2.1962    0.0000 C   0  0  0  0  0  0  0  0  0  0  0  0
    3.9213    1.1293    0.0000 C   0  0  0  0  0  0  0  0  0  0  0  0
   -3.9075   -0.4365    0.0000 C   0  0  0  0  0  0  0  0  0  0  0  0
   -1.1085   -1.5450    0.0000 C   0  0  0  0  0  0  0  0  0  0  0  0
    1.7459   -0.9492    0.0000 C   0  0  0  0  0  0  0  0  0  0  0  0
    3.2008   -0.1039    0.0000 C   0  0  0  0  0  0  0  0  0  0  0  0
   -2.5634    0.0623    0.0000 C   0  0  0  0  0  0  0  0  0  0  0  0
    2.4803    1.1155    0.0000 C   0  0  0  0  0  0  0  0  0  0  0  0
   -2.7990   -1.3510    0.0000 C   0  0  0  0  0  0  0  0  0  0  0  0
    3.9075    0.3117    0.0000 C   0  0  0  0  0  0  0  0  0  0  0  0
   -3.3809    0.1871    0.0000 C   0  0  0  0  0  0  0  0  0  0  0  0
    3.2008    1.5311    0.0000 C   0  0  0  0  0  0  0  0  0  0  0  0
   -3.6026   -1.2124    0.0000 C   0  0  0  0  0  0  0  0  0  0  0  0
    4.6280    1.5172    0.0000 C   0  0  0  0  0  0  0  0  0  0  0  0
   -4.7250   -0.3117    0.0000 C   0  0  0  0  0  0  0  0  0  0  0  0
   -6.0275   -0.8522    0.0000 C   0  0  0  0  0  0  0  0  0  0  0  0
    6.0275    1.5311    0.0000 C   0  0  0  0  0  0  0  0  0  0  0  0
  1  8  1  0  0  0  0
  1  9  1  0  0  0  0
  2 26  1  0  0  0  0
  2 29  1  0  0  0  0
  3 27  1  0  0  0  0
  3 28  1  0  0  0  0
  4 26  2  0  0  0  0
  5 27  2  0  0  0  0
  6 11  1  0  0  0  0
  6 16  2  0  0  0  0
  7 10  1  0  0  0  0
  7 17  2  0  0  0  0
  8 12  2  0  0  0  0
  8 16  1  0  0  0  0
  9 13  2  0  0  0  0
  9 17  1  0  0  0  0
 10 18  2  0  0  0  0
 10 20  1  0  0  0  0
 11 19  2  0  0  0  0
 11 21  1  0  0  0  0
 12 13  1  0  0  0  0
 14 22  2  0  0  0  0
 14 24  1  0  0  0  0
 14 26  1  0  0  0  0
 15 23  2  0  0  0  0
 15 25  1  0  0  0  0
 15 27  1  0  0  0  0
 18 22  1  0  0  0  0
 19 23  1  0  0  0  0
 20 24  2  0  0  0  0
 21 25  2  0  0  0  0
M  END
> <PUBCHEM_COMPOUND_ID_TYPE>
0

> <PUBCHEM_TOTAL_CHARGE>
0

> <PUBCHEM_SUBSTANCE_ID>
310940412

> <PUBCHEM_SUBSTANCE_VERSION>
1

> <PUBCHEM_EXT_DATASOURCE_NAME>
4488

> <PUBCHEM_EXT_DATASOURCE_REGID>
SCHEMBL16118360

> <PUBCHEM_SUBSTANCE_COMMENT>
InChI=1S/C22H18N2O5/c1-27-21(25)15-3-7-17(8-4-15)23-13-19-11-12-20(29-19)14-24-18-9-5-16(6-10-18)22(26)28-2/h3-14H,1-2H3/b23-13+,24-14+
InChIKey=OKIJPXHECJNCGJ-RNIAWFEPSA-N

> <PUBCHEM_SUBSTANCE_SYNONYM>
SCHEMBL16118360

> <PUBCHEM_XREF_EXT_ID>
SCHEMBL16118360

> <PUBCHEM_EXT_DATASOURCE_URL>
https://www.surechembl.org/

> <PUBCHEM_EXT_SUBSTANCE_URL>
https://www.surechembl.org/chemical/SCHEMBL16118360

> <PUBCHEM_CID_ASSOCIATIONS>
117607437  1

> <PUBCHEM_COORDINATE_TYPE>
1
3

> <PUBCHEM_BONDANNOTATIONS>
6  11  3
7  10  3

$$$$
