310945991
  -OEChem-07211613022D

 38 41  0     1  0  0  0  0  0999 V2000
    3.6300    1.0313    0.0000 O   0  0  0  0  0  0  0  0  0  0  0  0
    1.3750    1.0313    0.0000 O   0  0  0  0  0  0  0  0  0  0  0  0
    0.6600    0.6188    0.0000 O   0  0  0  0  0  0  0  0  0  0  0  0
   -0.0550    1.0313    0.0000 O   0  0  0  0  0  0  0  0  0  0  0  0
   -2.2000    3.0938    0.0000 O   0  0  0  0  0  0  0  0  0  0  0  0
   -2.9151   -3.0938    0.0000 O   0  0  0  0  0  0  0  0  0  0  0  0
    1.3750   -0.6050    0.0000 N   0  0  0  0  0  0  0  0  0  0  0  0
   -0.7700   -0.1925    0.0000 N   0  0  0  0  0  0  0  0  0  0  0  0
   -1.4850    1.8700    0.0000 N   0  0  0  0  0  0  0  0  0  0  0  0
    2.8188    1.0450    0.0000 C   0  0  3  0  0  0  0  0  0  0  0  0
    2.0762    0.5775    0.0000 C   0  0  0  0  0  0  0  0  0  0  0  0
    3.2175    0.3575    0.0000 C   0  0  0  0  0  0  0  0  0  0  0  0
    2.0900   -0.1925    0.0000 C   0  0  3  0  0  0  0  0  0  0  0  0
   -1.4850    1.0450    0.0000 C   0  0  3  0  0  0  0  0  0  0  0  0
    2.8050    1.8700    0.0000 C   0  0  0  0  0  0  0  0  0  0  0  0
    0.6462   -0.2063    0.0000 C   0  0  0  0  0  0  0  0  0  0  0  0
   -0.0275   -0.5913    0.0000 C   0  0  3  0  0  0  0  0  0  0  0  0
   -0.7700    0.6325    0.0000 C   0  0  0  0  0  0  0  0  0  0  0  0
    2.7913   -0.5913    0.0000 C   0  0  0  0  0  0  0  0  0  0  0  0
   -2.1863    0.6325    0.0000 C   0  0  0  0  0  0  0  0  0  0  0  0
    2.8050   -1.4300    0.0000 C   0  0  0  0  0  0  0  0  0  0  0  0
   -0.0275   -1.4438    0.0000 C   0  0  0  0  0  0  0  0  0  0  0  0
   -2.2000    2.2688    0.0000 C   0  0  0  0  0  0  0  0  0  0  0  0
   -0.7563   -1.8425    0.0000 C   0  0  0  0  0  0  0  0  0  0  0  0
   -0.7975    1.4438    0.0000 C   0  0  0  0  0  0  0  0  0  0  0  0
   -2.9013    1.0450    0.0000 C   0  0  0  0  0  0  0  0  0  0  0  0
   -2.9013    1.8700    0.0000 C   0  0  0  0  0  0  0  0  0  0  0  0
    3.5201   -1.8563    0.0000 C   0  0  0  0  0  0  0  0  0  0  0  0
    2.1038   -1.8425    0.0000 C   0  0  0  0  0  0  0  0  0  0  0  0
   -1.4850   -1.4438    0.0000 C   0  0  0  0  0  0  0  0  0  0  0  0
   -0.7700   -2.6538    0.0000 C   0  0  0  0  0  0  0  0  0  0  0  0
   -2.2000   -2.6675    0.0000 C   0  0  0  0  0  0  0  0  0  0  0  0
   -2.1863   -1.8425    0.0000 C   0  0  0  0  0  0  0  0  0  0  0  0
   -1.4850   -3.0663    0.0000 C   0  0  0  0  0  0  0  0  0  0  0  0
    3.5201   -2.6675    0.0000 C   0  0  0  0  0  0  0  0  0  0  0  0
    2.1038   -2.6675    0.0000 C   0  0  0  0  0  0  0  0  0  0  0  0
    2.8188   -3.0663    0.0000 C   0  0  0  0  0  0  0  0  0  0  0  0
   -3.6300   -2.6813    0.0000 C   0  0  0  0  0  0  0  0  0  0  0  0
  1 10  1  0  0  0  0
  1 12  1  0  0  0  0
  2 11  2  0  0  0  0
  3 16  2  0  0  0  0
  4 18  2  0  0  0  0
  5 23  2  0  0  0  0
  6 32  1  0  0  0  0
  6 38  1  0  0  0  0
 13  7  1  6  0  0  0
  7 16  1  0  0  0  0
 17  8  1  6  0  0  0
  8 18  1  0  0  0  0
  9 14  1  0  0  0  0
  9 23  1  0  0  0  0
 10 11  1  6  0  0  0
 10 12  1  0  0  0  0
 10 15  1  1  0  0  0
 11 13  1  0  0  0  0
 13 19  1  0  0  0  0
 14 18  1  1  0  0  0
 14 20  1  0  0  0  0
 14 25  1  6  0  0  0
 16 17  1  0  0  0  0
 17 22  1  0  0  0  0
 19 21  1  0  0  0  0
 20 26  1  0  0  0  0
 21 28  2  0  0  0  0
 21 29  1  0  0  0  0
 22 24  1  0  0  0  0
 23 27  1  0  0  0  0
 24 30  2  0  0  0  0
 24 31  1  0  0  0  0
 26 27  1  0  0  0  0
 28 35  1  0  0  0  0
 29 36  2  0  0  0  0
 30 33  1  0  0  0  0
 31 34  2  0  0  0  0
 32 33  2  0  0  0  0
 32 34  1  0  0  0  0
 35 37  2  0  0  0  0
 36 37  1  0  0  0  0
M  END
> <PUBCHEM_COMPOUND_ID_TYPE>
0

> <PUBCHEM_TOTAL_CHARGE>
0

> <PUBCHEM_SUBSTANCE_ID>
310945991

> <PUBCHEM_SUBSTANCE_VERSION>
1

> <PUBCHEM_EXT_DATASOURCE_NAME>
4488

> <PUBCHEM_EXT_DATASOURCE_REGID>
SCHEMBL16124097

> <PUBCHEM_SUBSTANCE_COMMENT>
InChI=1S/C29H35N3O6/c1-28(15-7-10-24(33)32-28)27(36)31-23(17-20-11-13-21(37-3)14-12-20)26(35)30-22(25(34)29(2)18-38-29)16-19-8-5-4-6-9-19/h4-6,8-9,11-14,22-23H,7,10,15-18H2,1-3H3,(H,30,35)(H,31,36)(H,32,33)/t22-,23-,28+,29+/m0/s1
InChIKey=XWPUPMGLKGABSO-BYSIJJKSSA-N

> <PUBCHEM_SUBSTANCE_SYNONYM>
SCHEMBL16124097

> <PUBCHEM_XREF_EXT_ID>
SCHEMBL16124097

> <PUBCHEM_EXT_DATASOURCE_URL>
https://www.surechembl.org/

> <PUBCHEM_EXT_SUBSTANCE_URL>
https://www.surechembl.org/chemical/SCHEMBL16124097

> <PUBCHEM_CID_ASSOCIATIONS>
117611962  1

> <PUBCHEM_COORDINATE_TYPE>
1
3

> <PUBCHEM_BONDANNOTATIONS>
10  11  6
10  15  5
14  18  5
14  25  6
13  7  6
17  8  6

$$$$
