310940752
  -OEChem-07211613022D

 40 45  0     1  0  0  0  0  0999 V2000
   -1.1492   -1.0092    0.0000 O   0  0  0  0  0  0  0  0  0  0  0  0
    3.5211   -3.9999    0.0000 O   0  0  0  0  0  0  0  0  0  0  0  0
    2.2836   -3.2781    0.0000 O   0  0  0  0  0  0  0  0  0  0  0  0
    1.7827   -1.1565    0.0000 N   0  0  0  0  0  0  0  0  0  0  0  0
    1.7827   -2.5119    0.0000 N   0  0  0  0  0  0  0  0  0  0  0  0
    1.4291    2.4383    0.0000 N   0  0  0  0  0  0  0  0  0  0  0  0
   -2.6077   -0.1694    0.0000 N   0  0  0  0  0  0  0  0  0  0  0  0
    2.2394   -1.8195    0.0000 C   0  0  0  0  0  0  0  0  0  0  0  0
    1.0019   -1.4217    0.0000 C   0  0  0  0  0  0  0  0  0  0  0  0
    0.9871   -2.2320    0.0000 C   0  0  0  0  0  0  0  0  0  0  0  0
    3.1234   -1.8195    0.0000 C   0  0  3  0  0  0  0  0  0  0  0  0
    0.2946   -1.0092    0.0000 C   0  0  0  0  0  0  0  0  0  0  0  0
    2.0331   -0.3610    0.0000 C   0  0  0  0  0  0  0  0  0  0  0  0
    3.5211   -2.5266    0.0000 C   0  0  3  0  0  0  0  0  0  0  0  0
    0.2946   -2.6446    0.0000 C   0  0  0  0  0  0  0  0  0  0  0  0
   -0.4272   -1.4217    0.0000 C   0  0  0  0  0  0  0  0  0  0  0  0
    1.4880    0.2431    0.0000 C   0  0  0  0  0  0  0  0  0  0  0  0
    3.5211   -1.1271    0.0000 C   0  0  0  0  0  0  0  0  0  0  0  0
   -0.4272   -2.2467    0.0000 C   0  0  0  0  0  0  0  0  0  0  0  0
    3.0792   -3.2633    0.0000 C   0  0  0  0  0  0  0  0  0  0  0  0
    4.3462   -2.5414    0.0000 C   0  0  0  0  0  0  0  0  0  0  0  0
    1.7384    1.0387    0.0000 C   0  0  0  0  0  0  0  0  0  0  0  0
    4.3462   -1.1271    0.0000 C   0  0  0  0  0  0  0  0  0  0  0  0
    1.1787    1.6575    0.0000 C   0  0  0  0  0  0  0  0  0  0  0  0
    0.6777    0.0810    0.0000 C   0  0  0  0  0  0  0  0  0  0  0  0
    4.7587   -1.8195    0.0000 C   0  0  0  0  0  0  0  0  0  0  0  0
    0.3831    1.4659    0.0000 C   0  0  0  0  0  0  0  0  0  0  0  0
    0.1326    0.6851    0.0000 C   0  0  0  0  0  0  0  0  0  0  0  0
   -1.8563   -1.4070    0.0000 C   0  0  0  0  0  0  0  0  0  0  0  0
   -2.6077   -0.9945    0.0000 C   0  0  0  0  0  0  0  0  0  0  0  0
    2.2394    2.6151    0.0000 C   0  0  0  0  0  0  0  0  0  0  0  0
    0.8987    3.0570    0.0000 C   0  0  0  0  0  0  0  0  0  0  0  0
   -3.3296   -1.4070    0.0000 C   0  0  0  0  0  0  0  0  0  0  0  0
    2.5046    3.4107    0.0000 C   0  0  0  0  0  0  0  0  0  0  0  0
    1.1492    3.8379    0.0000 C   0  0  0  0  0  0  0  0  0  0  0  0
    1.9595    3.9999    0.0000 C   0  0  0  0  0  0  0  0  0  0  0  0
   -3.3296    0.2431    0.0000 C   0  0  0  0  0  0  0  0  0  0  0  0
   -4.0368   -0.9945    0.0000 C   0  0  0  0  0  0  0  0  0  0  0  0
   -4.0220   -0.1694    0.0000 C   0  0  0  0  0  0  0  0  0  0  0  0
   -4.7587    0.2431    0.0000 C   0  0  0  0  0  0  0  0  0  0  0  0
  1 16  1  0  0  0  0
  1 29  1  0  0  0  0
  2 20  2  0  0  0  0
  3 20  1  0  0  0  0
  4  8  1  0  0  0  0
  4  9  1  0  0  0  0
  4 13  1  0  0  0  0
  5  8  2  0  0  0  0
  5 10  1  0  0  0  0
  6 24  1  0  0  0  0
  6 31  1  0  0  0  0
  6 32  1  0  0  0  0
  7 30  1  0  0  0  0
  7 37  2  0  0  0  0
 11  8  1  1  0  0  0
  9 10  1  0  0  0  0
  9 12  2  0  0  0  0
 10 15  2  0  0  0  0
 11 14  1  0  0  0  0
 11 18  1  0  0  0  0
 12 16  1  0  0  0  0
 13 17  1  0  0  0  0
 14 20  1  1  0  0  0
 14 21  1  0  0  0  0
 15 19  1  0  0  0  0
 16 19  2  0  0  0  0
 17 22  1  0  0  0  0
 17 25  2  0  0  0  0
 18 23  1  0  0  0  0
 21 26  1  0  0  0  0
 22 24  2  0  0  0  0
 23 26  1  0  0  0  0
 24 27  1  0  0  0  0
 25 28  1  0  0  0  0
 27 28  2  0  0  0  0
 29 30  1  0  0  0  0
 30 33  2  0  0  0  0
 31 34  1  0  0  0  0
 32 35  1  0  0  0  0
 33 38  1  0  0  0  0
 34 36  1  0  0  0  0
 35 36  1  0  0  0  0
 37 39  1  0  0  0  0
 38 39  2  0  0  0  0
 39 40  1  0  0  0  0
M  END
> <PUBCHEM_COMPOUND_ID_TYPE>
0

> <PUBCHEM_TOTAL_CHARGE>
0

> <PUBCHEM_SUBSTANCE_ID>
310940752

> <PUBCHEM_SUBSTANCE_VERSION>
1

> <PUBCHEM_EXT_DATASOURCE_NAME>
4488

> <PUBCHEM_EXT_DATASOURCE_REGID>
SCHEMBL16118711

> <PUBCHEM_SUBSTANCE_COMMENT>
InChI=1S/C33H38N4O3/c1-23-12-13-25(34-20-23)22-40-27-14-15-30-31(19-27)37(32(35-30)28-10-3-4-11-29(28)33(38)39)21-24-8-7-9-26(18-24)36-16-5-2-6-17-36/h7-9,12-15,18-20,28-29H,2-6,10-11,16-17,21-22H2,1H3,(H,38,39)/t28-,29+/m0/s1
InChIKey=HWUCUHUHIXBLPJ-URLMMPGGSA-N

> <PUBCHEM_SUBSTANCE_SYNONYM>
SCHEMBL16118711

> <PUBCHEM_XREF_EXT_ID>
SCHEMBL16118711

> <PUBCHEM_EXT_DATASOURCE_URL>
https://www.surechembl.org/

> <PUBCHEM_EXT_SUBSTANCE_URL>
https://www.surechembl.org/chemical/SCHEMBL16118711

> <PUBCHEM_CID_ASSOCIATIONS>
117607707  1

> <PUBCHEM_COORDINATE_TYPE>
1
3

> <PUBCHEM_BONDANNOTATIONS>
14  20  5
11  8  5

$$$$
