310947703
  -OEChem-07211613022D

 45 49  0     1  0  0  0  0  0999 V2000
    0.8591   -3.5471    0.0000 Cl  0  0  0  0  0  0  0  0  0  0  0  0
   -4.4478   -2.3001    0.0000 Cl  0  0  0  0  0  0  0  0  0  0  0  0
   -2.7435    1.8568    0.0000 S   0  0  0  0  0  0  0  0  0  0  0  0
    0.1385   -0.6374    0.0000 O   0  0  0  0  0  0  0  0  0  0  0  0
   -0.5820    1.4410    0.0000 O   0  0  0  0  0  0  0  0  0  0  0  0
   -3.4640    2.2724    0.0000 O   0  0  0  0  0  0  0  0  0  0  0  0
   -3.4640    1.4410    0.0000 O   0  0  0  0  0  0  0  0  0  0  0  0
    2.3001    1.4410    0.0000 O   0  5  0  0  0  0  0  0  0  0  0  0
    4.4478   -0.6374    0.0000 O   0  0  0  0  0  0  0  0  0  0  0  0
    3.7273   -1.8844    0.0000 O   0  0  0  0  0  0  0  0  0  0  0  0
   -1.3025    0.2078    0.0000 N   0  0  0  0  0  0  0  0  0  0  0  0
    2.3001    0.6235    0.0000 N   0  3  0  0  0  0  0  0  0  0  0  0
   -1.2886   -0.6235    0.0000 C   0  0  3  0  0  0  0  0  0  0  0  0
    0.1524    0.2078    0.0000 C   0  0  3  0  0  0  0  0  0  0  0  0
   -0.5820    0.5958    0.0000 C   0  0  0  0  0  0  0  0  0  0  0  0
   -0.5681   -1.0392    0.0000 C   0  0  3  0  0  0  0  0  0  0  0  0
   -2.0230    0.6374    0.0000 C   0  0  3  0  0  0  0  0  0  0  0  0
   -2.7851    0.1663    0.0000 C   0  0  0  0  0  0  0  0  0  0  0  0
   -2.0230   -1.0392    0.0000 C   0  0  0  0  0  0  0  0  0  0  0  0
   -0.5820   -1.8983    0.0000 C   0  0  0  0  0  0  0  0  0  0  0  0
    0.8591    0.6096    0.0000 C   0  0  0  0  0  0  0  0  0  0  0  0
   -2.0230    1.4410    0.0000 C   0  0  0  0  0  0  0  0  0  0  0  0
   -3.5471    0.1940    0.0000 C   0  0  0  0  0  0  0  0  0  0  0  0
   -3.1453   -0.4988    0.0000 C   0  0  0  0  0  0  0  0  0  0  0  0
    0.3602    0.9976    0.0000 C   0  0  0  0  0  0  0  0  0  0  0  0
    1.5796    0.2078    0.0000 C   0  0  0  0  0  0  0  0  0  0  0  0
   -2.7435    2.7297    0.0000 C   0  0  0  0  0  0  0  0  0  0  0  0
   -2.7297   -0.6374    0.0000 C   0  0  0  0  0  0  0  0  0  0  0  0
   -2.0230   -1.8705    0.0000 C   0  0  0  0  0  0  0  0  0  0  0  0
    0.1385   -2.3001    0.0000 C   0  0  0  0  0  0  0  0  0  0  0  0
   -1.2886   -2.3001    0.0000 C   0  0  0  0  0  0  0  0  0  0  0  0
    1.5796   -0.6235    0.0000 C   0  0  0  0  0  0  0  0  0  0  0  0
    0.1247   -3.1176    0.0000 C   0  0  0  0  0  0  0  0  0  0  0  0
   -3.4502   -1.0392    0.0000 C   0  0  0  0  0  0  0  0  0  0  0  0
   -2.7297   -2.2862    0.0000 C   0  0  0  0  0  0  0  0  0  0  0  0
   -3.4640   -1.8705    0.0000 C   0  0  0  0  0  0  0  0  0  0  0  0
   -1.2886   -3.1176    0.0000 C   0  0  0  0  0  0  0  0  0  0  0  0
    3.0206    0.2078    0.0000 C   0  0  0  0  0  0  0  0  0  0  0  0
    3.0068   -0.6235    0.0000 C   0  0  0  0  0  0  0  0  0  0  0  0
   -0.5820   -3.5334    0.0000 C   0  0  0  0  0  0  0  0  0  0  0  0
    2.3001   -1.0392    0.0000 C   0  0  0  0  0  0  0  0  0  0  0  0
   -3.4779    3.1038    0.0000 C   0  0  0  0  0  0  0  0  0  0  0  0
   -2.7297    3.5471    0.0000 C   0  0  0  0  0  0  0  0  0  0  0  0
   -1.9953    3.1038    0.0000 C   0  0  0  0  0  0  0  0  0  0  0  0
    3.7273   -1.0531    0.0000 C   0  0  0  0  0  0  0  0  0  0  0  0
  1 33  1  0  0  0  0
  2 36  1  0  0  0  0
  3  6  2  0  0  0  0
  3  7  2  0  0  0  0
  3 22  1  0  0  0  0
  3 27  1  0  0  0  0
  4 14  1  0  0  0  0
 16  4  1  6  0  0  0
  5 15  2  0  0  0  0
  8 12  1  0  0  0  0
  9 45  2  0  0  0  0
 10 45  1  0  0  0  0
 13 11  1  1  0  0  0
 11 15  1  0  0  0  0
 11 17  1  0  0  0  0
 12 26  1  0  0  0  0
 12 38  2  0  0  0  0
 13 16  1  0  0  0  0
 13 19  1  0  0  0  0
 14 15  1  0  0  0  0
 14 21  1  1  0  0  0
 14 25  1  6  0  0  0
 16 20  1  0  0  0  0
 17 18  1  0  0  0  0
 17 22  1  1  0  0  0
 18 23  1  0  0  0  0
 18 24  1  0  0  0  0
 19 28  2  0  0  0  0
 19 29  1  0  0  0  0
 20 30  1  0  0  0  0
 20 31  2  0  0  0  0
 21 26  1  0  0  0  0
 23 24  1  0  0  0  0
 26 32  2  0  0  0  0
 27 42  1  0  0  0  0
 27 43  1  0  0  0  0
 27 44  1  0  0  0  0
 28 34  1  0  0  0  0
 29 35  2  0  0  0  0
 30 33  2  0  0  0  0
 31 37  1  0  0  0  0
 32 41  1  0  0  0  0
 33 40  1  0  0  0  0
 34 36  2  0  0  0  0
 35 36  1  0  0  0  0
 37 40  2  0  0  0  0
 38 39  1  0  0  0  0
 39 41  2  0  0  0  0
 39 45  1  0  0  0  0
M  CHG  2   8  -1  12   1
M  END
> <PUBCHEM_COMPOUND_ID_TYPE>
0

> <PUBCHEM_TOTAL_CHARGE>
0

> <PUBCHEM_SUBSTANCE_ID>
310947703

> <PUBCHEM_SUBSTANCE_VERSION>
1

> <PUBCHEM_EXT_DATASOURCE_NAME>
4488

> <PUBCHEM_EXT_DATASOURCE_REGID>
SCHEMBL16125874

> <PUBCHEM_SUBSTANCE_COMMENT>
InChI=1S/C33H36Cl2N2O7S/c1-32(2,3)45(42,43)19-27(20-8-9-20)37-28(21-10-13-24(34)14-11-21)29(22-6-5-7-25(35)16-22)44-33(4,31(37)40)17-26-15-12-23(30(38)39)18-36(26)41/h5-7,10-16,18,20,27-29H,8-9,17,19H2,1-4H3,(H,38,39)/t27-,28-,29-,33-/m1/s1
InChIKey=UFMQNHQVIXKCIT-OZLMZZSTSA-N

> <PUBCHEM_SUBSTANCE_SYNONYM>
SCHEMBL16125874

> <PUBCHEM_XREF_EXT_ID>
SCHEMBL16125874

> <PUBCHEM_EXT_DATASOURCE_URL>
https://www.surechembl.org/

> <PUBCHEM_EXT_SUBSTANCE_URL>
https://www.surechembl.org/chemical/SCHEMBL16125874

> <PUBCHEM_CID_ASSOCIATIONS>
86294147  1

> <PUBCHEM_COORDINATE_TYPE>
1
3

> <PUBCHEM_BONDANNOTATIONS>
13  11  5
14  21  5
14  25  6
17  22  5
16  4  6

$$$$
