310936835
  -OEChem-07211613022D

 25 27  0     1  0  0  0  0  0999 V2000
    2.4751   -0.7112    0.0000 O   0  0  0  0  0  0  0  0  0  0  0  0
    1.2233    0.0000    0.0000 O   0  0  0  0  0  0  0  0  0  0  0  0
    4.0968   -2.1337    0.0000 N   0  0  0  0  0  0  0  0  0  0  0  0
    1.2233   -1.4225    0.0000 N   0  0  0  0  0  0  0  0  0  0  0  0
    2.4751   -3.5562    0.0000 C   0  0  0  0  0  0  0  0  0  0  0  0
    2.8734   -2.8450    0.0000 C   0  0  3  0  0  0  0  0  0  0  0  0
    1.2518   -4.2675    0.0000 C   0  0  0  0  0  0  0  0  0  0  0  0
    3.6985   -2.8734    0.0000 C   0  0  3  0  0  0  0  0  0  0  0  0
    1.6501   -4.9787    0.0000 C   0  0  0  0  0  0  0  0  0  0  0  0
    1.6216   -3.5562    0.0000 C   0  0  0  0  0  0  0  0  0  0  0  0
    2.8734   -4.2959    0.0000 C   0  0  0  0  0  0  0  0  0  0  0  0
    4.0968   -3.5847    0.0000 C   0  0  0  0  0  0  0  0  0  0  0  0
    2.4751   -4.9787    0.0000 C   0  0  0  0  0  0  0  0  0  0  0  0
    2.4751   -2.1337    0.0000 C   0  0  0  0  0  0  0  0  0  0  0  0
    0.4267   -4.2675    0.0000 C   0  0  0  0  0  0  0  0  0  0  0  0
    1.2233   -5.6899    0.0000 C   0  0  0  0  0  0  0  0  0  0  0  0
    4.9218   -3.5847    0.0000 C   0  0  0  0  0  0  0  0  0  0  0  0
    3.6985   -4.2959    0.0000 C   0  0  0  0  0  0  0  0  0  0  0  0
    0.0000   -4.9787    0.0000 C   0  0  0  0  0  0  0  0  0  0  0  0
    0.3983   -5.6899    0.0000 C   0  0  0  0  0  0  0  0  0  0  0  0
    2.8734   -1.4225    0.0000 C   0  0  0  0  0  0  0  0  0  0  0  0
    5.3486   -4.2959    0.0000 C   0  0  0  0  0  0  0  0  0  0  0  0
    4.0968   -5.0072    0.0000 C   0  0  0  0  0  0  0  0  0  0  0  0
    4.9218   -5.0072    0.0000 C   0  0  0  0  0  0  0  0  0  0  0  0
    1.6501   -0.7112    0.0000 C   0  0  0  0  0  0  0  0  0  0  0  0
  1 21  1  0  0  0  0
  1 25  1  0  0  0  0
  2 25  2  0  0  0  0
  8  3  1  6  0  0  0
  4 25  1  0  0  0  0
  5  6  1  0  0  0  0
  5 10  2  0  0  0  0
  5 11  1  0  0  0  0
  6  8  1  0  0  0  0
  6 14  1  6  0  0  0
  7  9  2  0  0  0  0
  7 10  1  0  0  0  0
  7 15  1  0  0  0  0
  8 12  1  0  0  0  0
  9 13  1  0  0  0  0
  9 16  1  0  0  0  0
 11 13  2  0  0  0  0
 12 17  2  0  0  0  0
 12 18  1  0  0  0  0
 14 21  1  0  0  0  0
 15 19  2  0  0  0  0
 16 20  2  0  0  0  0
 17 22  1  0  0  0  0
 18 23  2  0  0  0  0
 19 20  1  0  0  0  0
 22 24  2  0  0  0  0
 23 24  1  0  0  0  0
M  END
> <PUBCHEM_COMPOUND_ID_TYPE>
0

> <PUBCHEM_TOTAL_CHARGE>
0

> <PUBCHEM_SUBSTANCE_ID>
310936835

> <PUBCHEM_SUBSTANCE_VERSION>
1

> <PUBCHEM_EXT_DATASOURCE_NAME>
4488

> <PUBCHEM_EXT_DATASOURCE_REGID>
SCHEMBL16114526

> <PUBCHEM_SUBSTANCE_COMMENT>
InChI=1S/C21H22N2O2/c22-20(16-7-2-1-3-8-16)19(12-13-25-21(23)24)18-11-10-15-6-4-5-9-17(15)14-18/h1-11,14,19-20H,12-13,22H2,(H2,23,24)/t19-,20+/m0/s1
InChIKey=DBGDUQTYAUXSLT-VQTJNVASSA-N

> <PUBCHEM_SUBSTANCE_SYNONYM>
SCHEMBL16114526

> <PUBCHEM_XREF_EXT_ID>
SCHEMBL16114526

> <PUBCHEM_EXT_DATASOURCE_URL>
https://www.surechembl.org/

> <PUBCHEM_EXT_SUBSTANCE_URL>
https://www.surechembl.org/chemical/SCHEMBL16114526

> <PUBCHEM_CID_ASSOCIATIONS>
117604729  1

> <PUBCHEM_COORDINATE_TYPE>
1
3

> <PUBCHEM_BONDANNOTATIONS>
8  3  6
6  14  6

$$$$
