310935307
  -OEChem-07211613022D

 29 31  0     0  0  0  0  0  0999 V2000
    0.0000    0.0000    0.0000 F   0  0  0  0  0  0  0  0  0  0  0  0
    1.3500   -3.6376    0.0000 O   0  0  0  0  0  0  0  0  0  0  0  0
    4.1251   -5.4002    0.0000 O   0  0  0  0  0  0  0  0  0  0  0  0
    3.8626   -2.5126    0.0000 O   0  0  0  0  0  0  0  0  0  0  0  0
    4.0876   -6.2627    0.0000 O   0  0  0  0  0  0  0  0  0  0  0  0
    3.3751   -7.5002    0.0000 O   0  0  0  0  0  0  0  0  0  0  0  0
    2.8126   -1.5750    0.0000 N   0  0  0  0  0  0  0  0  0  0  0  0
    2.7001   -3.7501    0.0000 C   0  0  0  0  0  0  0  0  0  0  0  0
    2.5126   -2.9626    0.0000 C   0  0  0  0  0  0  0  0  0  0  0  0
    1.6875   -2.8876    0.0000 C   0  0  0  0  0  0  0  0  0  0  0  0
    1.9501   -4.2001    0.0000 C   0  0  0  0  0  0  0  0  0  0  0  0
    3.4126   -4.2001    0.0000 C   0  0  0  0  0  0  0  0  0  0  0  0
    1.2375   -2.1751    0.0000 C   0  0  0  0  0  0  0  0  0  0  0  0
    3.4126   -4.9876    0.0000 C   0  0  0  0  0  0  0  0  0  0  0  0
    2.6626   -5.4376    0.0000 C   0  0  0  0  0  0  0  0  0  0  0  0
    1.9501   -5.0252    0.0000 C   0  0  0  0  0  0  0  0  0  0  0  0
    3.0376   -2.3626    0.0000 C   0  0  0  0  0  0  0  0  0  0  0  0
    0.4125   -2.1376    0.0000 C   0  0  0  0  0  0  0  0  0  0  0  0
    1.6501   -1.4250    0.0000 C   0  0  0  0  0  0  0  0  0  0  0  0
    2.6626   -6.2627    0.0000 C   0  0  0  0  0  0  0  0  0  0  0  0
    0.0000   -1.4250    0.0000 C   0  0  0  0  0  0  0  0  0  0  0  0
    1.2375   -0.7125    0.0000 C   0  0  0  0  0  0  0  0  0  0  0  0
    0.4125   -0.7125    0.0000 C   0  0  0  0  0  0  0  0  0  0  0  0
    3.3751   -6.6752    0.0000 C   0  0  0  0  0  0  0  0  0  0  0  0
    4.8376   -4.9876    0.0000 C   0  0  0  0  0  0  0  0  0  0  0  0
    3.3376   -0.9375    0.0000 C   0  0  0  0  0  0  0  0  0  0  0  0
    5.5502   -5.4002    0.0000 C   0  0  0  0  0  0  0  0  0  0  0  0
    4.8752   -4.1626    0.0000 C   0  0  0  0  0  0  0  0  0  0  0  0
    4.8001   -6.6752    0.0000 C   0  0  0  0  0  0  0  0  0  0  0  0
  1 23  1  0  0  0  0
  2 10  1  0  0  0  0
  2 11  1  0  0  0  0
  3 14  1  0  0  0  0
  3 25  1  0  0  0  0
  4 17  2  0  0  0  0
  5 24  1  0  0  0  0
  5 29  1  0  0  0  0
  6 24  2  0  0  0  0
  7 17  1  0  0  0  0
  7 26  1  0  0  0  0
  8  9  1  0  0  0  0
  8 11  2  0  0  0  0
  8 12  1  0  0  0  0
  9 10  2  0  0  0  0
  9 17  1  0  0  0  0
 10 13  1  0  0  0  0
 11 16  1  0  0  0  0
 12 14  2  0  0  0  0
 13 18  2  0  0  0  0
 13 19  1  0  0  0  0
 14 15  1  0  0  0  0
 15 16  2  0  0  0  0
 15 20  1  0  0  0  0
 18 21  1  0  0  0  0
 19 22  2  0  0  0  0
 20 24  1  0  0  0  0
 21 23  2  0  0  0  0
 22 23  1  0  0  0  0
 25 27  1  0  0  0  0
 25 28  1  0  0  0  0
M  END
> <PUBCHEM_COMPOUND_ID_TYPE>
0

> <PUBCHEM_TOTAL_CHARGE>
0

> <PUBCHEM_SUBSTANCE_ID>
310935307

> <PUBCHEM_SUBSTANCE_VERSION>
1

> <PUBCHEM_EXT_DATASOURCE_NAME>
4488

> <PUBCHEM_EXT_DATASOURCE_REGID>
SCHEMBL16112841

> <PUBCHEM_SUBSTANCE_COMMENT>
InChI=1S/C22H22FNO5/c1-12(2)28-17-11-16-18(9-14(17)10-19(25)27-4)29-21(20(16)22(26)24-3)13-5-7-15(23)8-6-13/h5-9,11-12H,10H2,1-4H3,(H,24,26)
InChIKey=WZBQPTZXPCHLIW-UHFFFAOYSA-N

> <PUBCHEM_SUBSTANCE_SYNONYM>
SCHEMBL16112841

> <PUBCHEM_XREF_EXT_ID>
SCHEMBL16112841

> <PUBCHEM_EXT_DATASOURCE_URL>
https://www.surechembl.org/

> <PUBCHEM_EXT_SUBSTANCE_URL>
https://www.surechembl.org/chemical/SCHEMBL16112841

> <PUBCHEM_CID_ASSOCIATIONS>
117603370  1

> <PUBCHEM_COORDINATE_TYPE>
1
3

$$$$
