310949818
  -OEChem-07211613022D

 19 20  0     0  0  0  0  0  0999 V2000
    3.7437    0.9983    0.0000 O   0  0  0  0  0  0  0  0  0  0  0  0
    3.7220   -0.4123    0.0000 O   0  0  0  0  0  0  0  0  0  0  0  0
    0.8355    0.3255    0.0000 N   0  0  0  0  0  0  0  0  0  0  0  0
   -0.4015   -0.3689    0.0000 N   0  0  0  0  0  0  0  0  0  0  0  0
   -2.8973   -0.3472    0.0000 N   0  0  0  0  0  0  0  0  0  0  0  0
   -0.0109    0.3472    0.0000 C   0  0  0  0  0  0  0  0  0  0  0  0
    2.4850    0.3472    0.0000 C   0  0  0  0  0  0  0  0  0  0  0  0
    1.2262   -0.3472    0.0000 C   0  0  0  0  0  0  0  0  0  0  0  0
    1.2696    1.0417    0.0000 C   0  0  0  0  0  0  0  0  0  0  0  0
   -0.3798    1.0417    0.0000 C   0  0  0  0  0  0  0  0  0  0  0  0
   -1.6602    0.3689    0.0000 C   0  0  0  0  0  0  0  0  0  0  0  0
    2.0726   -0.3689    0.0000 C   0  0  0  0  0  0  0  0  0  0  0  0
    2.0943    1.0200    0.0000 C   0  0  0  0  0  0  0  0  0  0  0  0
   -1.2479   -0.3255    0.0000 C   0  0  0  0  0  0  0  0  0  0  0  0
   -1.2262    1.0634    0.0000 C   0  0  0  0  0  0  0  0  0  0  0  0
    3.3097    0.3039    0.0000 C   0  0  0  0  0  0  0  0  0  0  0  0
   -2.4850    0.3689    0.0000 C   0  0  0  0  0  0  0  0  0  0  0  0
   -3.7437   -0.3472    0.0000 C   0  0  0  0  0  0  0  0  0  0  0  0
   -2.5066   -1.0634    0.0000 C   0  0  0  0  0  0  0  0  0  0  0  0
  1 16  2  0  0  0  0
  2 16  1  0  0  0  0
  3  6  1  0  0  0  0
  3  8  1  0  0  0  0
  3  9  1  0  0  0  0
  4  6  2  0  0  0  0
  4 14  1  0  0  0  0
  5 17  1  0  0  0  0
  5 18  1  0  0  0  0
  5 19  1  0  0  0  0
  6 10  1  0  0  0  0
  7 12  1  0  0  0  0
  7 13  1  0  0  0  0
  7 16  1  0  0  0  0
  8 12  1  0  0  0  0
  9 13  1  0  0  0  0
 10 15  2  0  0  0  0
 11 14  2  0  0  0  0
 11 15  1  0  0  0  0
 11 17  1  0  0  0  0
M  END
> <PUBCHEM_COMPOUND_ID_TYPE>
0

> <PUBCHEM_TOTAL_CHARGE>
0

> <PUBCHEM_SUBSTANCE_ID>
310949818

> <PUBCHEM_SUBSTANCE_VERSION>
1

> <PUBCHEM_EXT_DATASOURCE_NAME>
4488

> <PUBCHEM_EXT_DATASOURCE_REGID>
SCHEMBL16128018

> <PUBCHEM_SUBSTANCE_COMMENT>
InChI=1S/C14H21N3O2/c1-16(2)10-11-3-4-13(15-9-11)17-7-5-12(6-8-17)14(18)19/h3-4,9,12H,5-8,10H2,1-2H3,(H,18,19)
InChIKey=YMXQNJHJWAVADX-UHFFFAOYSA-N

> <PUBCHEM_SUBSTANCE_SYNONYM>
SCHEMBL16128018

> <PUBCHEM_XREF_EXT_ID>
SCHEMBL16128018

> <PUBCHEM_EXT_DATASOURCE_URL>
https://www.surechembl.org/

> <PUBCHEM_EXT_SUBSTANCE_URL>
https://www.surechembl.org/chemical/SCHEMBL16128018

> <PUBCHEM_CID_ASSOCIATIONS>
117615136  1

> <PUBCHEM_COORDINATE_TYPE>
1
3

$$$$
