310944961
  -OEChem-07211613022D

 18 19  0     0  0  0  0  0  0999 V2000
    1.4325   -1.1894    0.0000 S   0  0  0  0  0  0  0  0  0  0  0  0
   -2.7205   -1.2945    0.0000 O   0  0  0  0  0  0  0  0  0  0  0  0
    2.8913    0.3877    0.0000 O   0  0  0  0  0  0  0  0  0  0  0  0
   -1.8925    0.2431    0.0000 O   0  0  0  0  0  0  0  0  0  0  0  0
    1.4456    0.1774    0.0000 N   0  0  0  0  0  0  0  0  0  0  0  0
    0.1314   -0.4797    0.0000 N   0  0  0  0  0  0  0  0  0  0  0  0
   -0.6834   -0.4665    0.0000 N   0  0  0  0  0  0  0  0  0  0  0  0
    0.9857   -0.4140    0.0000 C   0  0  0  0  0  0  0  0  0  0  0  0
    2.2210   -0.0066    0.0000 C   0  0  0  0  0  0  0  0  0  0  0  0
    2.2210   -0.8345    0.0000 C   0  0  0  0  0  0  0  0  0  0  0  0
   -1.4850   -0.4140    0.0000 C   0  0  0  0  0  0  0  0  0  0  0  0
   -1.9056   -1.1368    0.0000 C   0  0  0  0  0  0  0  0  0  0  0  0
    1.2091    1.0448    0.0000 C   0  0  0  0  0  0  0  0  0  0  0  0
   -1.5771   -1.8859    0.0000 C   0  0  0  0  0  0  0  0  0  0  0  0
   -2.8913   -2.0173    0.0000 C   0  0  0  0  0  0  0  0  0  0  0  0
   -2.1816   -2.4379    0.0000 C   0  0  0  0  0  0  0  0  0  0  0  0
    1.7479    1.6887    0.0000 C   0  0  0  0  0  0  0  0  0  0  0  0
    1.4456    2.4379    0.0000 C   0  0  0  0  0  0  0  0  0  0  0  0
  1  8  1  0  0  0  0
  1 10  1  0  0  0  0
  2 12  1  0  0  0  0
  2 15  1  0  0  0  0
  3  9  2  0  0  0  0
  4 11  2  0  0  0  0
  5  8  1  0  0  0  0
  5  9  1  0  0  0  0
  5 13  1  0  0  0  0
  6  7  1  0  0  0  0
  6  8  2  0  0  0  0
  7 11  1  0  0  0  0
  9 10  1  0  0  0  0
 11 12  1  0  0  0  0
 12 14  2  0  0  0  0
 13 17  1  0  0  0  0
 14 16  1  0  0  0  0
 15 16  2  0  0  0  0
 17 18  2  0  0  0  0
M  END
> <PUBCHEM_COMPOUND_ID_TYPE>
0

> <PUBCHEM_TOTAL_CHARGE>
0

> <PUBCHEM_SUBSTANCE_ID>
310944961

> <PUBCHEM_SUBSTANCE_VERSION>
1

> <PUBCHEM_EXT_DATASOURCE_NAME>
4488

> <PUBCHEM_EXT_DATASOURCE_REGID>
SCHEMBL16123048

> <PUBCHEM_SUBSTANCE_COMMENT>
InChI=1S/C11H11N3O3S/c1-2-5-14-9(15)7-18-11(14)13-12-10(16)8-4-3-6-17-8/h2-4,6H,1,5,7H2,(H,12,16)/b13-11+
InChIKey=BVNPQRRVHXWUEJ-ACCUITESSA-N

> <PUBCHEM_SUBSTANCE_SYNONYM>
SCHEMBL16123048

> <PUBCHEM_XREF_EXT_ID>
SCHEMBL16123048

> <PUBCHEM_EXT_DATASOURCE_URL>
https://www.surechembl.org/

> <PUBCHEM_EXT_SUBSTANCE_URL>
https://www.surechembl.org/chemical/SCHEMBL16123048

> <PUBCHEM_CID_ASSOCIATIONS>
117611112  1

> <PUBCHEM_COORDINATE_TYPE>
1
3

$$$$
