310931311
  -OEChem-07211613022D

 12 12  0     0  0  0  0  0  0999 V2000
    0.7899   -2.7370    0.0000 N   0  3  0  0  0  0  0  0  0  0  0  0
    0.7899   -1.3961    0.0000 N   0  0  0  0  0  0  0  0  0  0  0  0
    1.2675   -2.0574    0.0000 C   0  0  0  0  0  0  0  0  0  0  0  0
    0.0000   -2.4615    0.0000 C   0  0  0  0  0  0  0  0  0  0  0  0
    0.0000   -1.6532    0.0000 C   0  0  0  0  0  0  0  0  0  0  0  0
    2.0941   -2.0574    0.0000 C   0  0  0  0  0  0  0  0  0  0  0  0
    1.0470   -3.5086    0.0000 C   0  0  0  0  0  0  0  0  0  0  0  0
    1.0470   -0.6062    0.0000 C   0  0  0  0  0  0  0  0  0  0  0  0
    2.5166   -1.3593    0.0000 C   0  0  0  0  0  0  0  0  0  0  0  0
    1.8553   -3.6739    0.0000 C   0  0  0  0  0  0  0  0  0  0  0  0
    0.4959    0.0000    0.0000 C   0  0  0  0  0  0  0  0  0  0  0  0
    2.0941   -0.6429    0.0000 C   0  0  0  0  0  0  0  0  0  0  0  0
  1  3  2  0  0  0  0
  1  4  1  0  0  0  0
  1  7  1  0  0  0  0
  2  3  1  0  0  0  0
  2  5  1  0  0  0  0
  2  8  1  0  0  0  0
  3  6  1  0  0  0  0
  4  5  2  0  0  0  0
  6  9  1  0  0  0  0
  7 10  2  0  0  0  0
  8 11  2  0  0  0  0
  9 12  2  0  0  0  0
M  CHG  1   1   1
M  END
> <PUBCHEM_COMPOUND_ID_TYPE>
0

> <PUBCHEM_TOTAL_CHARGE>
1

> <PUBCHEM_SUBSTANCE_ID>
310931311

> <PUBCHEM_SUBSTANCE_VERSION>
1

> <PUBCHEM_EXT_DATASOURCE_NAME>
4488

> <PUBCHEM_EXT_DATASOURCE_REGID>
SCHEMBL16108629

> <PUBCHEM_SUBSTANCE_COMMENT>
InChI=1S/C10H13N2/c1-4-7-10-11(5-2)8-9-12(10)6-3/h4-6,8-9H,1-3,7H2/q+1
InChIKey=QUPSPLJTKKIROG-UHFFFAOYSA-N

> <PUBCHEM_SUBSTANCE_SYNONYM>
SCHEMBL16108629

> <PUBCHEM_XREF_EXT_ID>
SCHEMBL16108629

> <PUBCHEM_EXT_DATASOURCE_URL>
https://www.surechembl.org/

> <PUBCHEM_EXT_SUBSTANCE_URL>
https://www.surechembl.org/chemical/SCHEMBL16108629

> <PUBCHEM_CID_ASSOCIATIONS>
117600128  1

> <PUBCHEM_COORDINATE_TYPE>
1
3

$$$$
