310938950
  -OEChem-07211613022D

 10 10  0     0  0  0  0  0  0999 V2000
    0.1510    0.3572    0.0000 N   0  0  0  0  0  0  0  0  0  0  0  0
    0.1510   -0.4678    0.0000 C   0  0  0  0  0  0  0  0  0  0  0  0
   -0.2615   -1.1822    0.0000 C   0  0  0  0  0  0  0  0  0  0  0  0
    0.5635   -1.1822    0.0000 C   0  0  0  0  0  0  0  0  0  0  0  0
   -0.5635    0.7697    0.0000 C   0  0  0  0  0  0  0  0  0  0  0  0
    1.2780   -1.5947    0.0000 C   0  0  0  0  0  0  0  0  0  0  0  0
   -0.9760   -1.5947    0.0000 C   0  0  0  0  0  0  0  0  0  0  0  0
   -1.2780    0.3572    0.0000 C   0  0  0  0  0  0  0  0  0  0  0  0
   -1.2780    1.1822    0.0000 C   0  0  0  0  0  0  0  0  0  0  0  0
   -0.5635    1.5947    0.0000 C   0  0  0  0  0  0  0  0  0  0  0  0
  1  2  2  0  0  0  0
  1  5  1  0  0  0  0
  2  3  1  0  0  0  0
  2  4  1  0  0  0  0
  3  4  2  0  0  0  0
  3  7  1  0  0  0  0
  4  6  1  0  0  0  0
  5  8  1  0  0  0  0
  5  9  1  0  0  0  0
  5 10  1  0  0  0  0
M  END
> <PUBCHEM_COMPOUND_ID_TYPE>
0

> <PUBCHEM_TOTAL_CHARGE>
0

> <PUBCHEM_SUBSTANCE_ID>
310938950

> <PUBCHEM_SUBSTANCE_VERSION>
1

> <PUBCHEM_EXT_DATASOURCE_NAME>
4488

> <PUBCHEM_EXT_DATASOURCE_REGID>
SCHEMBL16116869

> <PUBCHEM_SUBSTANCE_COMMENT>
InChI=1S/C9H15N/c1-6-7(2)8(6)10-9(3,4)5/h1-5H3
InChIKey=AAQOHMHCVXPFBJ-UHFFFAOYSA-N

> <PUBCHEM_SUBSTANCE_SYNONYM>
SCHEMBL16116869

> <PUBCHEM_XREF_EXT_ID>
SCHEMBL16116869

> <PUBCHEM_EXT_DATASOURCE_URL>
https://www.surechembl.org/

> <PUBCHEM_EXT_SUBSTANCE_URL>
https://www.surechembl.org/chemical/SCHEMBL16116869

> <PUBCHEM_CID_ASSOCIATIONS>
117606342  1

> <PUBCHEM_COORDINATE_TYPE>
1
3

$$$$
