310936046
  -OEChem-07211613022D

 28 30  0     0  0  0  0  0  0999 V2000
    7.4727   -2.0923    0.0000 F   0  0  0  0  0  0  0  0  0  0  0  0
    3.6616   -1.4198    0.0000 O   0  0  0  0  0  0  0  0  0  0  0  0
    0.7473   -2.9393    0.0000 O   0  0  0  0  0  0  0  0  0  0  0  0
    3.3627   -4.1598    0.0000 O   0  0  0  0  0  0  0  0  0  0  0  0
    4.7078   -3.7115    0.0000 N   0  0  0  0  0  0  0  0  0  0  0  0
    2.8645   -2.5158    0.0000 C   0  0  0  0  0  0  0  0  0  0  0  0
    3.6616   -2.7400    0.0000 C   0  0  0  0  0  0  0  0  0  0  0  0
    2.8645   -1.6440    0.0000 C   0  0  0  0  0  0  0  0  0  0  0  0
    4.1598   -2.0923    0.0000 C   0  0  0  0  0  0  0  0  0  0  0  0
    2.1421   -2.9143    0.0000 C   0  0  0  0  0  0  0  0  0  0  0  0
    1.4447   -1.6440    0.0000 C   0  0  0  0  0  0  0  0  0  0  0  0
    1.4447   -2.5158    0.0000 C   0  0  0  0  0  0  0  0  0  0  0  0
    4.9818   -2.0923    0.0000 C   0  0  0  0  0  0  0  0  0  0  0  0
    2.1421   -1.2454    0.0000 C   0  0  0  0  0  0  0  0  0  0  0  0
    3.9107   -3.5371    0.0000 C   0  0  0  0  0  0  0  0  0  0  0  0
    0.7473   -1.2454    0.0000 C   0  0  0  0  0  0  0  0  0  0  0  0
    5.4053   -1.3700    0.0000 C   0  0  0  0  0  0  0  0  0  0  0  0
    5.4053   -2.7898    0.0000 C   0  0  0  0  0  0  0  0  0  0  0  0
    6.2273   -1.3700    0.0000 C   0  0  0  0  0  0  0  0  0  0  0  0
    6.2273   -2.7898    0.0000 C   0  0  0  0  0  0  0  0  0  0  0  0
    6.6507   -2.0923    0.0000 C   0  0  0  0  0  0  0  0  0  0  0  0
    0.7223   -3.7613    0.0000 C   0  0  0  0  0  0  0  0  0  0  0  0
    0.7473   -0.4234    0.0000 C   0  0  0  0  0  0  0  0  0  0  0  0
    0.0249   -1.6440    0.0000 C   0  0  0  0  0  0  0  0  0  0  0  0
    4.9818   -4.4836    0.0000 C   0  0  0  0  0  0  0  0  0  0  0  0
    0.0000   -4.1847    0.0000 C   0  0  0  0  0  0  0  0  0  0  0  0
    1.4447   -4.1847    0.0000 C   0  0  0  0  0  0  0  0  0  0  0  0
    1.4696    0.0000    0.0000 C   0  0  0  0  0  0  0  0  0  0  0  0
  1 21  1  0  0  0  0
  2  8  1  0  0  0  0
  2  9  1  0  0  0  0
  3 12  1  0  0  0  0
  3 22  1  0  0  0  0
  4 15  2  0  0  0  0
  5 15  1  0  0  0  0
  5 25  1  0  0  0  0
  6  7  1  0  0  0  0
  6  8  2  0  0  0  0
  6 10  1  0  0  0  0
  7  9  2  0  0  0  0
  7 15  1  0  0  0  0
  8 14  1  0  0  0  0
  9 13  1  0  0  0  0
 10 12  2  0  0  0  0
 11 12  1  0  0  0  0
 11 14  2  0  0  0  0
 11 16  1  0  0  0  0
 13 17  2  0  0  0  0
 13 18  1  0  0  0  0
 16 23  2  0  0  0  0
 16 24  1  0  0  0  0
 17 19  1  0  0  0  0
 18 20  2  0  0  0  0
 19 21  2  0  0  0  0
 20 21  1  0  0  0  0
 22 26  1  0  0  0  0
 22 27  1  0  0  0  0
 23 28  1  0  0  0  0
M  END
> <PUBCHEM_COMPOUND_ID_TYPE>
0

> <PUBCHEM_TOTAL_CHARGE>
0

> <PUBCHEM_SUBSTANCE_ID>
310936046

> <PUBCHEM_SUBSTANCE_VERSION>
1

> <PUBCHEM_EXT_DATASOURCE_NAME>
4488

> <PUBCHEM_EXT_DATASOURCE_REGID>
SCHEMBL16113650

> <PUBCHEM_SUBSTANCE_COMMENT>
InChI=1S/C23H24FNO3/c1-6-14(4)17-11-20-18(12-19(17)27-13(2)3)21(23(26)25-5)22(28-20)15-7-9-16(24)10-8-15/h6-13H,1-5H3,(H,25,26)/b14-6-
InChIKey=KSPDFNBFGRJNNA-NSIKDUERSA-N

> <PUBCHEM_SUBSTANCE_SYNONYM>
SCHEMBL16113650

> <PUBCHEM_XREF_EXT_ID>
SCHEMBL16113650

> <PUBCHEM_EXT_DATASOURCE_URL>
https://www.surechembl.org/

> <PUBCHEM_EXT_SUBSTANCE_URL>
https://www.surechembl.org/chemical/SCHEMBL16113650

> <PUBCHEM_CID_ASSOCIATIONS>
117604012  1

> <PUBCHEM_COORDINATE_TYPE>
1
3

$$$$
