310947413
  -OEChem-07211613022D

 16 17  0     0  0  0  0  0  0999 V2000
    6.1188   -5.8623    0.0000 Br  0  0  0  0  0  0  0  0  0  0  0  0
    1.9938   -5.8623    0.0000 Br  0  0  0  0  0  0  0  0  0  0  0  0
    4.8813   -8.0057    0.0000 N   0  0  0  0  0  0  0  0  0  0  0  0
    3.2313   -8.0057    0.0000 N   0  0  0  0  0  0  0  0  0  0  0  0
    6.5313   -9.4347    0.0000 N   0  0  0  0  0  0  0  0  0  0  0  0
    4.4688   -7.2912    0.0000 C   0  0  0  0  0  0  0  0  0  0  0  0
    3.6438   -7.2912    0.0000 C   0  0  0  0  0  0  0  0  0  0  0  0
    5.7063   -8.0057    0.0000 C   0  0  0  0  0  0  0  0  0  0  0  0
    4.8813   -6.5768    0.0000 C   0  0  0  0  0  0  0  0  0  0  0  0
    5.7063   -6.5768    0.0000 C   0  0  0  0  0  0  0  0  0  0  0  0
    3.2313   -6.5768    0.0000 C   0  0  0  0  0  0  0  0  0  0  0  0
    6.1188   -7.2912    0.0000 C   0  0  0  0  0  0  0  0  0  0  0  0
    2.4063   -6.5768    0.0000 C   0  0  0  0  0  0  0  0  0  0  0  0
    2.4063   -8.0057    0.0000 C   0  0  0  0  0  0  0  0  0  0  0  0
    1.9938   -7.2912    0.0000 C   0  0  0  0  0  0  0  0  0  0  0  0
    6.1188   -8.7202    0.0000 C   0  0  0  0  0  0  0  0  0  0  0  0
  1 10  1  0  0  0  0
  2 13  1  0  0  0  0
  3  6  1  0  0  0  0
  3  8  2  0  0  0  0
  4  7  1  0  0  0  0
  4 14  2  0  0  0  0
  5 16  3  0  0  0  0
  6  7  1  0  0  0  0
  6  9  2  0  0  0  0
  7 11  2  0  0  0  0
  8 12  1  0  0  0  0
  8 16  1  0  0  0  0
  9 10  1  0  0  0  0
 10 12  2  0  0  0  0
 11 13  1  0  0  0  0
 13 15  2  0  0  0  0
 14 15  1  0  0  0  0
M  END
> <PUBCHEM_COMPOUND_ID_TYPE>
0

> <PUBCHEM_TOTAL_CHARGE>
0

> <PUBCHEM_SUBSTANCE_ID>
310947413

> <PUBCHEM_SUBSTANCE_VERSION>
1

> <PUBCHEM_EXT_DATASOURCE_NAME>
4488

> <PUBCHEM_EXT_DATASOURCE_REGID>
SCHEMBL16125570

> <PUBCHEM_SUBSTANCE_COMMENT>
InChI=1S/C11H5Br2N3/c12-7-1-2-15-10(4-7)11-5-8(13)3-9(6-14)16-11/h1-5H
InChIKey=HXJVPCATPFVALH-UHFFFAOYSA-N

> <PUBCHEM_SUBSTANCE_SYNONYM>
SCHEMBL16125570

> <PUBCHEM_XREF_EXT_ID>
SCHEMBL16125570

> <PUBCHEM_EXT_DATASOURCE_URL>
https://www.surechembl.org/

> <PUBCHEM_EXT_SUBSTANCE_URL>
https://www.surechembl.org/chemical/SCHEMBL16125570

> <PUBCHEM_CID_ASSOCIATIONS>
117613149  1

> <PUBCHEM_COORDINATE_TYPE>
1
3

$$$$
