310948187
  -OEChem-07211613022D

 15 15  0     1  0  0  0  0  0999 V2000
    1.0502    2.2202    0.0000 Br  0  0  0  0  0  0  0  0  0  0  0  0
   -0.7002   -2.2202    0.0000 F   0  0  0  0  0  0  0  0  0  0  0  0
   -1.7688   -1.9438    0.0000 F   0  0  0  0  0  0  0  0  0  0  0  0
   -1.4924   -0.8568    0.0000 F   0  0  0  0  0  0  0  0  0  0  0  0
    0.3317   -1.5016    0.0000 N   0  0  0  0  0  0  0  0  0  0  0  0
    1.0502   -0.2488    0.0000 C   0  0  0  0  0  0  0  0  0  0  0  0
    1.0502   -1.0779    0.0000 C   0  0  3  0  0  0  0  0  0  0  0  0
   -1.1055   -1.5201    0.0000 C   0  0  0  0  0  0  0  0  0  0  0  0
   -0.4054   -1.0962    0.0000 C   0  0  0  0  0  0  0  0  0  0  0  0
    1.7504    0.1566    0.0000 C   0  0  0  0  0  0  0  0  0  0  0  0
    0.3317    0.1566    0.0000 C   0  0  0  0  0  0  0  0  0  0  0  0
    1.0502    1.4095    0.0000 C   0  0  0  0  0  0  0  0  0  0  0  0
    1.7504    0.9857    0.0000 C   0  0  0  0  0  0  0  0  0  0  0  0
    0.3500    0.9857    0.0000 C   0  0  0  0  0  0  0  0  0  0  0  0
    1.7688   -1.5201    0.0000 C   0  0  0  0  0  0  0  0  0  0  0  0
  1 12  1  0  0  0  0
  2  8  1  0  0  0  0
  3  8  1  0  0  0  0
  4  8  1  0  0  0  0
  5  7  1  0  0  0  0
  5  9  1  0  0  0  0
  6  7  1  0  0  0  0
  6 10  2  0  0  0  0
  6 11  1  0  0  0  0
  7 15  1  6  0  0  0
  8  9  1  0  0  0  0
 10 13  1  0  0  0  0
 11 14  2  0  0  0  0
 12 13  2  0  0  0  0
 12 14  1  0  0  0  0
M  END
> <PUBCHEM_COMPOUND_ID_TYPE>
0

> <PUBCHEM_TOTAL_CHARGE>
0

> <PUBCHEM_SUBSTANCE_ID>
310948187

> <PUBCHEM_SUBSTANCE_VERSION>
1

> <PUBCHEM_EXT_DATASOURCE_NAME>
4488

> <PUBCHEM_EXT_DATASOURCE_REGID>
SCHEMBL16126364

> <PUBCHEM_SUBSTANCE_COMMENT>
InChI=1S/C10H11BrF3N/c1-7(15-6-10(12,13)14)8-2-4-9(11)5-3-8/h2-5,7,15H,6H2,1H3/t7-/m0/s1
InChIKey=JCOOCEPQIJXBCG-ZETCQYMHSA-N

> <PUBCHEM_SUBSTANCE_SYNONYM>
SCHEMBL16126364

> <PUBCHEM_XREF_EXT_ID>
SCHEMBL16126364

> <PUBCHEM_EXT_DATASOURCE_URL>
https://www.surechembl.org/

> <PUBCHEM_EXT_SUBSTANCE_URL>
https://www.surechembl.org/chemical/SCHEMBL16126364

> <PUBCHEM_CID_ASSOCIATIONS>
28198693  1

> <PUBCHEM_COORDINATE_TYPE>
1
3

> <PUBCHEM_BONDANNOTATIONS>
7  15  6

$$$$
