310941131
  -OEChem-07211613022D

 42 45  0     1  0  0  0  0  0999 V2000
    5.0836    0.4852    0.0000 O   0  0  0  0  0  0  0  0  0  0  0  0
    3.9586   -1.4695    0.0000 O   0  0  0  0  0  0  0  0  0  0  0  0
    1.8071    0.5976    0.0000 O   0  0  0  0  0  0  0  0  0  0  0  0
   -0.3445   -1.4695    0.0000 O   0  0  0  0  0  0  0  0  0  0  0  0
    3.9586   -3.1149    0.0000 O   0  0  0  0  0  0  0  0  0  0  0  0
   -2.5101    0.5976    0.0000 O   0  0  0  0  0  0  0  0  0  0  0  0
   -5.3789    0.5976    0.0000 O   0  0  0  0  0  0  0  0  0  0  0  0
    2.5242   -0.6399    0.0000 N   0  0  0  0  0  0  0  0  0  0  0  0
    0.3727   -0.2180    0.0000 N   0  0  0  0  0  0  0  0  0  0  0  0
   -1.7789   -0.6399    0.0000 N   0  0  0  0  0  0  0  0  0  0  0  0
   -3.9305   -0.2180    0.0000 N   0  0  0  0  0  0  0  0  0  0  0  0
    4.6617   -0.2039    0.0000 C   0  0  3  0  0  0  0  0  0  0  0  0
    3.9445   -0.6117    0.0000 C   0  0  0  0  0  0  0  0  0  0  0  0
    4.2820    0.4852    0.0000 C   0  0  0  0  0  0  0  0  0  0  0  0
    3.2414   -0.2180    0.0000 C   0  0  3  0  0  0  0  0  0  0  0  0
    3.2555    0.6539    0.0000 C   0  0  0  0  0  0  0  0  0  0  0  0
    5.3789   -0.6117    0.0000 C   0  0  0  0  0  0  0  0  0  0  0  0
    1.8071   -0.2321    0.0000 C   0  0  0  0  0  0  0  0  0  0  0  0
    3.9586    1.0336    0.0000 C   0  0  0  0  0  0  0  0  0  0  0  0
    2.5383    1.0336    0.0000 C   0  0  0  0  0  0  0  0  0  0  0  0
    1.1039   -0.6258    0.0000 C   0  0  3  0  0  0  0  0  0  0  0  0
    3.9586    1.8492    0.0000 C   0  0  0  0  0  0  0  0  0  0  0  0
    2.5383    1.8633    0.0000 C   0  0  0  0  0  0  0  0  0  0  0  0
    3.2414    2.2711    0.0000 C   0  0  0  0  0  0  0  0  0  0  0  0
    1.0898   -1.4695    0.0000 C   0  0  0  0  0  0  0  0  0  0  0  0
    1.8211   -1.8633    0.0000 C   0  0  0  0  0  0  0  0  0  0  0  0
   -0.3445   -0.5976    0.0000 C   0  0  0  0  0  0  0  0  0  0  0  0
   -1.0617   -0.2180    0.0000 C   0  0  3  0  0  0  0  0  0  0  0  0
    2.5242   -1.4695    0.0000 C   0  0  0  0  0  0  0  0  0  0  0  0
    1.8211   -2.6930    0.0000 C   0  0  0  0  0  0  0  0  0  0  0  0
    3.2414    3.1149    0.0000 C   0  0  0  0  0  0  0  0  0  0  0  0
    3.2274   -2.6930    0.0000 C   0  0  0  0  0  0  0  0  0  0  0  0
    3.2414   -1.8633    0.0000 C   0  0  0  0  0  0  0  0  0  0  0  0
    2.5383   -3.1008    0.0000 C   0  0  0  0  0  0  0  0  0  0  0  0
   -2.4961   -0.2321    0.0000 C   0  0  0  0  0  0  0  0  0  0  0  0
   -1.0617    0.6117    0.0000 C   0  0  0  0  0  0  0  0  0  0  0  0
   -3.1992   -0.6258    0.0000 C   0  0  0  0  0  0  0  0  0  0  0  0
   -4.6336   -0.6258    0.0000 C   0  0  0  0  0  0  0  0  0  0  0  0
   -3.9305    0.6117    0.0000 C   0  0  0  0  0  0  0  0  0  0  0  0
   -5.3649   -0.2180    0.0000 C   0  0  0  0  0  0  0  0  0  0  0  0
   -4.6758    1.0195    0.0000 C   0  0  0  0  0  0  0  0  0  0  0  0
    4.6899   -2.6789    0.0000 C   0  0  0  0  0  0  0  0  0  0  0  0
  1 12  1  0  0  0  0
  1 14  1  0  0  0  0
  2 13  2  0  0  0  0
  3 18  2  0  0  0  0
  4 27  2  0  0  0  0
  5 32  1  0  0  0  0
  5 42  1  0  0  0  0
  6 35  2  0  0  0  0
  7 40  1  0  0  0  0
  7 41  1  0  0  0  0
 15  8  1  1  0  0  0
  8 18  1  0  0  0  0
 21  9  1  6  0  0  0
  9 27  1  0  0  0  0
 10 28  1  0  0  0  0
 10 35  1  0  0  0  0
 11 37  1  0  0  0  0
 11 38  1  0  0  0  0
 11 39  1  0  0  0  0
 12 13  1  1  0  0  0
 12 14  1  0  0  0  0
 12 17  1  6  0  0  0
 13 15  1  0  0  0  0
 15 16  1  0  0  0  0
 16 19  2  0  0  0  0
 16 20  1  0  0  0  0
 18 21  1  0  0  0  0
 19 22  1  0  0  0  0
 20 23  2  0  0  0  0
 21 25  1  0  0  0  0
 22 24  2  0  0  0  0
 23 24  1  0  0  0  0
 24 31  1  0  0  0  0
 25 26  1  0  0  0  0
 26 29  2  0  0  0  0
 26 30  1  0  0  0  0
 27 28  1  0  0  0  0
 28 36  1  1  0  0  0
 29 33  1  0  0  0  0
 30 34  2  0  0  0  0
 32 33  2  0  0  0  0
 32 34  1  0  0  0  0
 35 37  1  0  0  0  0
 38 40  1  0  0  0  0
 39 41  1  0  0  0  0
M  END
> <PUBCHEM_COMPOUND_ID_TYPE>
0

> <PUBCHEM_TOTAL_CHARGE>
0

> <PUBCHEM_SUBSTANCE_ID>
310941131

> <PUBCHEM_SUBSTANCE_VERSION>
1

> <PUBCHEM_EXT_DATASOURCE_NAME>
4488

> <PUBCHEM_EXT_DATASOURCE_REGID>
SCHEMBL16119091

> <PUBCHEM_SUBSTANCE_COMMENT>
InChI=1S/C31H40N4O7/c1-20-5-9-23(10-6-20)27(28(37)31(3)19-42-31)34-30(39)25(17-22-7-11-24(40-4)12-8-22)33-29(38)21(2)32-26(36)18-35-13-15-41-16-14-35/h5-12,21,25,27H,13-19H2,1-4H3,(H,32,36)(H,33,38)(H,34,39)/t21-,25-,27-,31+/m0/s1
InChIKey=RKQVWYGPAQIZNZ-WXPZEMMXSA-N

> <PUBCHEM_SUBSTANCE_SYNONYM>
SCHEMBL16119091

> <PUBCHEM_XREF_EXT_ID>
SCHEMBL16119091

> <PUBCHEM_EXT_DATASOURCE_URL>
https://www.surechembl.org/

> <PUBCHEM_EXT_SUBSTANCE_URL>
https://www.surechembl.org/chemical/SCHEMBL16119091

> <PUBCHEM_CID_ASSOCIATIONS>
117608014  1

> <PUBCHEM_COORDINATE_TYPE>
1
3

> <PUBCHEM_BONDANNOTATIONS>
12  13  5
12  17  6
28  36  5
15  8  5
21  9  6

$$$$
