310940314
  -OEChem-07211613022D

 16 17  0     0  0  0  0  0  0999 V2000
   -1.1260   -1.0217    0.0000 O   0  0  0  0  0  0  0  0  0  0  0  0
    0.3614    1.5500    0.0000 O   0  0  0  0  0  0  0  0  0  0  0  0
    0.3614   -0.1043    0.0000 N   0  0  0  0  0  0  0  0  0  0  0  0
    1.0982    0.2989    0.0000 C   0  0  0  0  0  0  0  0  0  0  0  0
   -0.3614   -1.3414    0.0000 C   0  0  0  0  0  0  0  0  0  0  0  0
    1.0843    1.1468    0.0000 C   0  0  0  0  0  0  0  0  0  0  0  0
    0.3475   -0.9383    0.0000 C   0  0  0  0  0  0  0  0  0  0  0  0
   -1.6820   -1.6333    0.0000 C   0  0  0  0  0  0  0  0  0  0  0  0
   -0.4587   -2.1755    0.0000 C   0  0  0  0  0  0  0  0  0  0  0  0
    1.8071   -0.0904    0.0000 C   0  0  0  0  0  0  0  0  0  0  0  0
   -1.2650   -2.3423    0.0000 C   0  0  0  0  0  0  0  0  0  0  0  0
    1.7932    1.5500    0.0000 C   0  0  0  0  0  0  0  0  0  0  0  0
    2.5161    0.3127    0.0000 C   0  0  0  0  0  0  0  0  0  0  0  0
    2.5161    1.1468    0.0000 C   0  0  0  0  0  0  0  0  0  0  0  0
   -2.5161   -1.5638    0.0000 C   0  0  0  0  0  0  0  0  0  0  0  0
    0.3475    2.3423    0.0000 C   0  0  0  0  0  0  0  0  0  0  0  0
  1  5  1  0  0  0  0
  1  8  1  0  0  0  0
  2  6  1  0  0  0  0
  2 16  1  0  0  0  0
  3  4  1  0  0  0  0
  3  7  2  0  0  0  0
  4  6  1  0  0  0  0
  4 10  2  0  0  0  0
  5  7  1  0  0  0  0
  5  9  2  0  0  0  0
  6 12  2  0  0  0  0
  8 11  2  0  0  0  0
  8 15  1  0  0  0  0
  9 11  1  0  0  0  0
 10 13  1  0  0  0  0
 12 14  1  0  0  0  0
 13 14  2  0  0  0  0
M  END
> <PUBCHEM_COMPOUND_ID_TYPE>
0

> <PUBCHEM_TOTAL_CHARGE>
0

> <PUBCHEM_SUBSTANCE_ID>
310940314

> <PUBCHEM_SUBSTANCE_VERSION>
1

> <PUBCHEM_EXT_DATASOURCE_NAME>
4488

> <PUBCHEM_EXT_DATASOURCE_REGID>
SCHEMBL16118258

> <PUBCHEM_SUBSTANCE_COMMENT>
InChI=1S/C13H13NO2/c1-10-7-8-11(16-10)9-14-12-5-3-4-6-13(12)15-2/h3-9H,1-2H3/b14-9+
InChIKey=QDMNDYRDNYBFEP-NTEUORMPSA-N

> <PUBCHEM_SUBSTANCE_SYNONYM>
SCHEMBL16118258

> <PUBCHEM_XREF_EXT_ID>
SCHEMBL16118258

> <PUBCHEM_EXT_DATASOURCE_URL>
https://www.surechembl.org/

> <PUBCHEM_EXT_SUBSTANCE_URL>
https://www.surechembl.org/chemical/SCHEMBL16118258

> <PUBCHEM_CID_ASSOCIATIONS>
117607383  1

> <PUBCHEM_COORDINATE_TYPE>
1
3

> <PUBCHEM_BONDANNOTATIONS>
3  4  3

$$$$
