310948855
  -OEChem-07211613022D

 30 32  0     1  0  0  0  0  0999 V2000
    4.3913    0.7377    0.0000 F   0  0  0  0  0  0  0  0  0  0  0  0
    4.7084   -0.3378    0.0000 F   0  0  0  0  0  0  0  0  0  0  0  0
    3.6054   -0.6411    0.0000 F   0  0  0  0  0  0  0  0  0  0  0  0
   -3.3159    0.4757    0.0000 O   0  0  0  0  0  0  0  0  0  0  0  0
   -4.0328    1.7165    0.0000 O   0  0  0  0  0  0  0  0  0  0  0  0
    1.1237    0.0621    0.0000 N   0  0  3  0  0  0  0  0  0  0  0  0
    1.1237    1.7304    0.0000 N   0  0  0  0  0  0  0  0  0  0  0  0
   -1.7855    1.7441    0.0000 C   0  0  3  0  0  0  0  0  0  0  0  0
   -2.5851    1.7441    0.0000 C   0  0  3  0  0  0  0  0  0  0  0  0
   -1.0272    1.2892    0.0000 C   0  0  0  0  0  0  0  0  0  0  0  0
   -2.1853    2.4197    0.0000 C   0  0  0  0  0  0  0  0  0  0  0  0
    0.3930    0.4894    0.0000 C   0  0  0  0  0  0  0  0  0  0  0  0
   -3.3159    1.3029    0.0000 C   0  0  0  0  0  0  0  0  0  0  0  0
    0.4068    1.3166    0.0000 C   0  0  0  0  0  0  0  0  0  0  0  0
   -0.3102    1.7165    0.0000 C   0  0  0  0  0  0  0  0  0  0  0  0
   -1.0409    0.4894    0.0000 C   0  0  0  0  0  0  0  0  0  0  0  0
   -0.3102    0.0759    0.0000 C   0  0  0  0  0  0  0  0  0  0  0  0
    1.1099   -0.7653    0.0000 C   0  0  0  0  0  0  0  0  0  0  0  0
    1.8268    0.4757    0.0000 C   0  0  0  0  0  0  0  0  0  0  0  0
    2.5576    0.0621    0.0000 C   0  0  3  0  0  0  0  0  0  0  0  0
    0.4068   -1.1926    0.0000 C   0  0  0  0  0  0  0  0  0  0  0  0
    1.8405   -1.1926    0.0000 C   0  0  0  0  0  0  0  0  0  0  0  0
    3.2607    0.4757    0.0000 C   0  0  0  0  0  0  0  0  0  0  0  0
    3.9914    0.0482    0.0000 C   0  0  0  0  0  0  0  0  0  0  0  0
   -4.0053    0.0895    0.0000 C   0  0  0  0  0  0  0  0  0  0  0  0
    0.4068   -2.0060    0.0000 C   0  0  0  0  0  0  0  0  0  0  0  0
    1.8405   -2.0198    0.0000 C   0  0  0  0  0  0  0  0  0  0  0  0
    1.1099   -2.4197    0.0000 C   0  0  0  0  0  0  0  0  0  0  0  0
    2.5713   -0.7790    0.0000 C   0  0  0  0  0  0  0  0  0  0  0  0
   -4.7084    0.5033    0.0000 C   0  0  0  0  0  0  0  0  0  0  0  0
  1 24  1  0  0  0  0
  2 24  1  0  0  0  0
  3 24  1  0  0  0  0
  4 13  1  0  0  0  0
  4 25  1  0  0  0  0
  5 13  2  0  0  0  0
  6 12  1  0  0  0  0
  6 18  1  0  0  0  0
  6 19  1  0  0  0  0
  7 14  1  0  0  0  0
  8  9  1  0  0  0  0
  8 10  1  0  0  0  0
  8 11  1  1  0  0  0
  9 11  1  0  0  0  0
  9 13  1  1  0  0  0
 10 15  1  0  0  0  0
 10 16  2  0  0  0  0
 12 14  1  0  0  0  0
 12 17  2  0  0  0  0
 14 15  2  0  0  0  0
 16 17  1  0  0  0  0
 18 21  1  0  0  0  0
 18 22  1  0  0  0  0
 19 20  1  0  0  0  0
 20 23  1  0  0  0  0
 20 29  1  0  0  0  0
 21 26  1  0  0  0  0
 22 27  1  0  0  0  0
 23 24  1  0  0  0  0
 25 30  1  0  0  0  0
 26 28  1  0  0  0  0
 27 28  1  0  0  0  0
M  END
> <PUBCHEM_COMPOUND_ID_TYPE>
0

> <PUBCHEM_TOTAL_CHARGE>
0

> <PUBCHEM_SUBSTANCE_ID>
310948855

> <PUBCHEM_SUBSTANCE_VERSION>
1

> <PUBCHEM_EXT_DATASOURCE_NAME>
4488

> <PUBCHEM_EXT_DATASOURCE_REGID>
SCHEMBL16127040

> <PUBCHEM_SUBSTANCE_COMMENT>
InChI=1S/C23H33F3N2O2/c1-3-30-22(29)19-12-18(19)16-9-10-21(20(27)11-16)28(17-7-5-4-6-8-17)14-15(2)13-23(24,25)26/h9-11,15,17-19H,3-8,12-14,27H2,1-2H3/t15?,18-,19-/m0/s1
InChIKey=UVIUVTOQXIIHIJ-IROOXBOJSA-N

> <PUBCHEM_SUBSTANCE_SYNONYM>
SCHEMBL16127040

> <PUBCHEM_XREF_EXT_ID>
SCHEMBL16127040

> <PUBCHEM_EXT_DATASOURCE_URL>
https://www.surechembl.org/

> <PUBCHEM_EXT_SUBSTANCE_URL>
https://www.surechembl.org/chemical/SCHEMBL16127040

> <PUBCHEM_CID_ASSOCIATIONS>
117614390  1

> <PUBCHEM_COORDINATE_TYPE>
1
3

> <PUBCHEM_BONDANNOTATIONS>
20  29  3
8  11  5
9  13  5

$$$$
