310941803
  -OEChem-07211613022D

 34 39  0     0  0  0  0  0  0999 V2000
    3.5026    1.4245    0.0000 S   0  0  0  0  0  0  0  0  0  0  0  0
   -0.8877   -0.0344    0.0000 O   0  0  0  0  0  0  0  0  0  0  0  0
    1.9749   -0.8739    0.0000 O   0  0  0  0  0  0  0  0  0  0  0  0
    3.6815    2.2365    0.0000 O   0  0  0  0  0  0  0  0  0  0  0  0
    4.3009    1.6722    0.0000 O   0  0  0  0  0  0  0  0  0  0  0  0
    1.2593    1.2180    0.0000 N   0  0  0  0  0  0  0  0  0  0  0  0
    0.7226    2.4429    0.0000 N   0  0  0  0  0  0  0  0  0  0  0  0
    1.5621    2.5255    0.0000 N   0  0  0  0  0  0  0  0  0  0  0  0
    2.6769    1.5896    0.0000 N   0  0  0  0  0  0  0  0  0  0  0  0
    1.2593   -2.1126    0.0000 N   0  0  0  0  0  0  0  0  0  0  0  0
   -2.3466   -0.0206    0.0000 C   0  0  0  0  0  0  0  0  0  0  0  0
    0.5436   -0.0482    0.0000 C   0  0  0  0  0  0  0  0  0  0  0  0
   -0.1858    0.3785    0.0000 C   0  0  0  0  0  0  0  0  0  0  0  0
    0.5298    1.6309    0.0000 C   0  0  0  0  0  0  0  0  0  0  0  0
    1.8649    1.7823    0.0000 C   0  0  0  0  0  0  0  0  0  0  0  0
    1.2456    0.3785    0.0000 C   0  0  0  0  0  0  0  0  0  0  0  0
    0.5298   -0.8739    0.0000 C   0  0  0  0  0  0  0  0  0  0  0  0
   -0.1583    1.2180    0.0000 C   0  0  0  0  0  0  0  0  0  0  0  0
   -3.9155   -0.0344    0.0000 C   0  0  0  0  0  0  0  0  0  0  0  0
   -3.1448   -1.0528    0.0000 C   0  0  0  0  0  0  0  0  0  0  0  0
   -3.5302    0.4611    0.0000 C   0  0  0  0  0  0  0  0  0  0  0  0
   -2.7320    0.6537    0.0000 C   0  0  0  0  0  0  0  0  0  0  0  0
   -2.3466   -0.8739    0.0000 C   0  0  0  0  0  0  0  0  0  0  0  0
   -3.1035    0.1858    0.0000 C   0  0  0  0  0  0  0  0  0  0  0  0
   -1.6171    0.3647    0.0000 C   0  0  0  0  0  0  0  0  0  0  0  0
   -3.9155   -0.8602    0.0000 C   0  0  0  0  0  0  0  0  0  0  0  0
   -4.3009    0.6400    0.0000 C   0  0  0  0  0  0  0  0  0  0  0  0
   -3.5302   -0.4060    0.0000 C   0  0  0  0  0  0  0  0  0  0  0  0
    1.2593   -1.2868    0.0000 C   0  0  0  0  0  0  0  0  0  0  0  0
   -0.1720   -1.2730    0.0000 C   0  0  0  0  0  0  0  0  0  0  0  0
   -0.1720   -2.1263    0.0000 C   0  0  0  0  0  0  0  0  0  0  0  0
    0.5298   -2.5255    0.0000 C   0  0  0  0  0  0  0  0  0  0  0  0
    3.7642    0.6125    0.0000 C   0  0  0  0  0  0  0  0  0  0  0  0
    2.7044   -1.3006    0.0000 C   0  0  0  0  0  0  0  0  0  0  0  0
  1  4  2  0  0  0  0
  1  5  2  0  0  0  0
  1  9  1  0  0  0  0
  1 33  1  0  0  0  0
  2 13  1  0  0  0  0
  2 25  1  0  0  0  0
  3 29  1  0  0  0  0
  3 34  1  0  0  0  0
  6 14  1  0  0  0  0
  6 15  1  0  0  0  0
  6 16  1  0  0  0  0
  7  8  1  0  0  0  0
  7 14  2  0  0  0  0
  8 15  2  0  0  0  0
  9 15  1  0  0  0  0
 10 29  2  0  0  0  0
 10 32  1  0  0  0  0
 11 22  1  0  0  0  0
 11 23  1  0  0  0  0
 11 24  1  0  0  0  0
 11 25  1  0  0  0  0
 12 13  1  0  0  0  0
 12 16  2  0  0  0  0
 12 17  1  0  0  0  0
 13 18  2  0  0  0  0
 14 18  1  0  0  0  0
 17 29  1  0  0  0  0
 17 30  2  0  0  0  0
 19 24  1  0  0  0  0
 19 26  1  0  0  0  0
 19 27  1  0  0  0  0
 20 23  1  0  0  0  0
 20 26  1  0  0  0  0
 20 28  1  0  0  0  0
 21 22  1  0  0  0  0
 21 27  1  0  0  0  0
 21 28  1  0  0  0  0
 30 31  1  0  0  0  0
 31 32  2  0  0  0  0
M  END
> <PUBCHEM_COMPOUND_ID_TYPE>
0

> <PUBCHEM_TOTAL_CHARGE>
0

> <PUBCHEM_SUBSTANCE_ID>
310941803

> <PUBCHEM_SUBSTANCE_VERSION>
1

> <PUBCHEM_EXT_DATASOURCE_NAME>
4488

> <PUBCHEM_EXT_DATASOURCE_REGID>
SCHEMBL16119834

> <PUBCHEM_SUBSTANCE_COMMENT>
InChI=1S/C24H29N5O4S/c1-32-22-18(4-3-5-25-22)19-13-29-21(26-27-23(29)28-34(2,30)31)9-20(19)33-14-24-10-15-6-16(11-24)8-17(7-15)12-24/h3-5,9,13,15-17H,6-8,10-12,14H2,1-2H3,(H,27,28)
InChIKey=RYEMTCRQJPHIDB-UHFFFAOYSA-N

> <PUBCHEM_SUBSTANCE_SYNONYM>
SCHEMBL16119834

> <PUBCHEM_XREF_EXT_ID>
SCHEMBL16119834

> <PUBCHEM_EXT_DATASOURCE_URL>
https://www.surechembl.org/

> <PUBCHEM_EXT_SUBSTANCE_URL>
https://www.surechembl.org/chemical/SCHEMBL16119834

> <PUBCHEM_CID_ASSOCIATIONS>
86270327  1

> <PUBCHEM_COORDINATE_TYPE>
1
3

$$$$
