310937123
  -OEChem-07211613022D

 18 18  0     1  0  0  0  0  0999 V2000
    3.5370    0.0000    0.0000 O   0  0  0  0  0  0  0  0  0  0  0  0
    4.2594   -1.2455    0.0000 O   0  0  0  0  0  0  0  0  0  0  0  0
    1.4198   -2.0923    0.0000 O   0  0  0  0  0  0  0  0  0  0  0  0
    2.8396   -2.0675    0.0000 N   0  0  0  0  0  0  0  0  0  0  0  0
    2.8396   -1.2455    0.0000 C   0  0  3  0  0  0  0  0  0  0  0  0
    2.0923   -0.8469    0.0000 C   0  0  0  0  0  0  0  0  0  0  0  0
    3.5370   -0.8220    0.0000 C   0  0  0  0  0  0  0  0  0  0  0  0
    2.1422   -2.4909    0.0000 C   0  0  0  0  0  0  0  0  0  0  0  0
    2.1671   -3.3129    0.0000 C   0  0  0  0  0  0  0  0  0  0  0  0
    1.4447   -3.7363    0.0000 C   0  0  0  0  0  0  0  0  0  0  0  0
    1.3700   -1.2455    0.0000 C   0  0  0  0  0  0  0  0  0  0  0  0
    2.0675   -0.0249    0.0000 C   0  0  0  0  0  0  0  0  0  0  0  0
    2.0923   -1.6689    0.0000 C   0  0  0  0  0  0  0  0  0  0  0  0
    1.4198   -4.5833    0.0000 C   0  0  0  0  0  0  0  0  0  0  0  0
    0.7224   -3.3378    0.0000 C   0  0  0  0  0  0  0  0  0  0  0  0
    0.7224   -4.9818    0.0000 C   0  0  0  0  0  0  0  0  0  0  0  0
    0.0000   -3.7363    0.0000 C   0  0  0  0  0  0  0  0  0  0  0  0
    0.0000   -4.5833    0.0000 C   0  0  0  0  0  0  0  0  0  0  0  0
  1  7  2  0  0  0  0
  2  7  1  0  0  0  0
  3  8  2  0  0  0  0
  5  4  1  1  0  0  0
  4  8  1  0  0  0  0
  5  6  1  0  0  0  0
  5  7  1  0  0  0  0
  6 11  1  0  0  0  0
  6 12  1  0  0  0  0
  6 13  1  0  0  0  0
  8  9  1  0  0  0  0
  9 10  1  0  0  0  0
 10 14  2  0  0  0  0
 10 15  1  0  0  0  0
 14 16  1  0  0  0  0
 15 17  2  0  0  0  0
 16 18  2  0  0  0  0
 17 18  1  0  0  0  0
M  END
> <PUBCHEM_COMPOUND_ID_TYPE>
0

> <PUBCHEM_TOTAL_CHARGE>
0

> <PUBCHEM_SUBSTANCE_ID>
310937123

> <PUBCHEM_SUBSTANCE_VERSION>
1

> <PUBCHEM_EXT_DATASOURCE_NAME>
4488

> <PUBCHEM_EXT_DATASOURCE_REGID>
SCHEMBL16114842

> <PUBCHEM_SUBSTANCE_COMMENT>
InChI=1S/C14H19NO3/c1-14(2,3)12(13(17)18)15-11(16)9-10-7-5-4-6-8-10/h4-8,12H,9H2,1-3H3,(H,15,16)(H,17,18)/t12-/m1/s1
InChIKey=CNAOYIPUUSAXFK-GFCCVEGCSA-N

> <PUBCHEM_SUBSTANCE_SYNONYM>
SCHEMBL16114842

> <PUBCHEM_XREF_EXT_ID>
SCHEMBL16114842

> <PUBCHEM_EXT_DATASOURCE_URL>
https://www.surechembl.org/

> <PUBCHEM_EXT_SUBSTANCE_URL>
https://www.surechembl.org/chemical/SCHEMBL16114842

> <PUBCHEM_CID_ASSOCIATIONS>
61144905  1

> <PUBCHEM_COORDINATE_TYPE>
1
3

> <PUBCHEM_BONDANNOTATIONS>
5  4  5

$$$$
