310949881
  -OEChem-07211613022D

 30 34  0     1  0  0  0  0  0999 V2000
   -0.8775    1.5531    0.0000 N   0  0  0  0  0  0  0  0  0  0  0  0
   -0.8775    2.8902    0.0000 N   0  0  0  0  0  0  0  0  0  0  0  0
   -0.0975   -0.8009    0.0000 N   0  0  0  0  0  0  0  0  0  0  0  0
    1.7271    1.4974    0.0000 N   0  0  0  0  0  0  0  0  0  0  0  0
   -0.3900    2.2217    0.0000 C   0  0  0  0  0  0  0  0  0  0  0  0
   -1.6853    1.8177    0.0000 C   0  0  0  0  0  0  0  0  0  0  0  0
   -1.6853    2.6395    0.0000 C   0  0  0  0  0  0  0  0  0  0  0  0
   -0.6268    0.7870    0.0000 C   0  0  0  0  0  0  0  0  0  0  0  0
    0.4736    2.2077    0.0000 C   0  0  3  0  0  0  0  0  0  0  0  0
   -2.3957    1.3999    0.0000 C   0  0  0  0  0  0  0  0  0  0  0  0
   -2.4097    3.0295    0.0000 C   0  0  0  0  0  0  0  0  0  0  0  0
   -1.1839    0.1463    0.0000 C   0  0  0  0  0  0  0  0  0  0  0  0
    0.2090    0.5920    0.0000 C   0  0  0  0  0  0  0  0  0  0  0  0
    0.8775    1.5113    0.0000 C   0  0  0  0  0  0  0  0  0  0  0  0
    0.8636    2.9180    0.0000 C   0  0  0  0  0  0  0  0  0  0  0  0
   -3.1340    1.8177    0.0000 C   0  0  0  0  0  0  0  0  0  0  0  0
   -3.1340    2.6256    0.0000 C   0  0  0  0  0  0  0  0  0  0  0  0
   -0.9193   -0.6198    0.0000 C   0  0  0  0  0  0  0  0  0  0  0  0
    0.4596   -0.1881    0.0000 C   0  0  0  0  0  0  0  0  0  0  0  0
    1.7271    2.9320    0.0000 C   0  0  0  0  0  0  0  0  0  0  0  0
    0.1672   -1.5809    0.0000 C   0  0  0  0  0  0  0  0  0  0  0  0
    2.1311    2.2356    0.0000 C   0  0  0  0  0  0  0  0  0  0  0  0
    0.9750   -1.7620    0.0000 C   0  0  0  0  0  0  0  0  0  0  0  0
    1.1421   -2.5699    0.0000 C   0  0  0  0  0  0  0  0  0  0  0  0
    1.4625   -1.0934    0.0000 C   0  0  0  0  0  0  0  0  0  0  0  0
    1.8247   -3.0295    0.0000 C   0  0  0  0  0  0  0  0  0  0  0  0
    2.2982   -0.9402    0.0000 C   0  0  0  0  0  0  0  0  0  0  0  0
    2.9807   -1.3999    0.0000 C   0  0  0  0  0  0  0  0  0  0  0  0
    2.6604   -2.8902    0.0000 C   0  0  0  0  0  0  0  0  0  0  0  0
    3.1340   -2.2077    0.0000 C   0  0  0  0  0  0  0  0  0  0  0  0
  1  5  1  0  0  0  0
  1  6  1  0  0  0  0
  1  8  1  0  0  0  0
  2  5  2  0  0  0  0
  2  7  1  0  0  0  0
  3 18  1  0  0  0  0
  3 19  1  0  0  0  0
  3 21  1  0  0  0  0
  4 14  1  0  0  0  0
  4 22  1  0  0  0  0
  9  5  1  6  0  0  0
  6  7  1  0  0  0  0
  6 10  2  0  0  0  0
  7 11  2  0  0  0  0
  8 12  1  0  0  0  0
  8 13  1  0  0  0  0
  9 14  1  0  0  0  0
  9 15  1  0  0  0  0
 10 16  1  0  0  0  0
 11 17  1  0  0  0  0
 12 18  1  0  0  0  0
 13 19  1  0  0  0  0
 15 20  1  0  0  0  0
 16 17  2  0  0  0  0
 20 22  1  0  0  0  0
 21 23  1  0  0  0  0
 23 24  1  0  0  0  0
 23 25  1  0  0  0  0
 24 26  1  0  0  0  0
 25 27  1  0  0  0  0
 26 29  1  0  0  0  0
 27 28  1  0  0  0  0
 28 30  1  0  0  0  0
 29 30  1  0  0  0  0
M  END
> <PUBCHEM_COMPOUND_ID_TYPE>
0

> <PUBCHEM_TOTAL_CHARGE>
0

> <PUBCHEM_SUBSTANCE_ID>
310949881

> <PUBCHEM_SUBSTANCE_VERSION>
1

> <PUBCHEM_EXT_DATASOURCE_NAME>
4488

> <PUBCHEM_EXT_DATASOURCE_REGID>
SCHEMBL16128092

> <PUBCHEM_SUBSTANCE_COMMENT>
InChI=1S/C26H40N4/c1-2-4-9-21(10-5-3-1)20-29-17-14-23(15-18-29)30-25-13-7-6-12-24(25)28-26(30)22-11-8-16-27-19-22/h6-7,12-13,21-23,27H,1-5,8-11,14-20H2/t22-/m1/s1
InChIKey=VYLDZNYMCKRFAR-JOCHJYFZSA-N

> <PUBCHEM_SUBSTANCE_SYNONYM>
SCHEMBL16128092

> <PUBCHEM_XREF_EXT_ID>
SCHEMBL16128092

> <PUBCHEM_EXT_DATASOURCE_URL>
https://www.surechembl.org/

> <PUBCHEM_EXT_SUBSTANCE_URL>
https://www.surechembl.org/chemical/SCHEMBL16128092

> <PUBCHEM_CID_ASSOCIATIONS>
86272617  1

> <PUBCHEM_COORDINATE_TYPE>
1
3

> <PUBCHEM_BONDANNOTATIONS>
9  5  6

$$$$
