310942579
  -OEChem-07211613022D

 58 63  0     1  0  0  0  0  0999 V2000
    5.7784    1.5044    0.0000 F   0  0  0  0  0  0  0  0  0  0  0  0
    3.0260    3.4021    0.0000 F   0  0  0  0  0  0  0  0  0  0  0  0
    1.1625   -3.2140    0.0000 F   0  0  0  0  0  0  0  0  0  0  0  0
    2.5644    0.3590    0.0000 O   0  0  0  0  0  0  0  0  0  0  0  0
    4.3766   -3.4021    0.0000 O   0  0  0  0  0  0  0  0  0  0  0  0
   -0.3761   -0.1368    0.0000 O   0  0  0  0  0  0  0  0  0  0  0  0
    0.1881    1.9832    0.0000 O   0  0  0  0  0  0  0  0  0  0  0  0
   -6.9580    1.5216    0.0000 O   0  0  0  0  0  0  0  0  0  0  0  0
   -5.6929   -1.1283    0.0000 O   0  0  0  0  0  0  0  0  0  0  0  0
   -1.0087    1.1625    0.0000 O   0  0  0  0  0  0  0  0  0  0  0  0
   -3.9320    0.5471    0.0000 O   0  0  0  0  0  0  0  0  0  0  0  0
    4.5988   -0.5129    0.0000 N   0  0  0  0  0  0  0  0  0  0  0  0
    2.4618   -1.0770    0.0000 N   0  0  0  0  0  0  0  0  0  0  0  0
    3.5731    0.3590    0.0000 N   0  0  0  0  0  0  0  0  0  0  0  0
    1.2822   -0.2735    0.0000 N   0  0  0  0  0  0  0  0  0  0  0  0
   -0.1710   -1.5386    0.0000 N   0  0  0  0  0  0  0  0  0  0  0  0
   -6.1032    0.2906    0.0000 N   0  0  0  0  0  0  0  0  0  0  0  0
   -1.8122   -0.0342    0.0000 N   0  0  0  0  0  0  0  0  0  0  0  0
    3.7611   -0.4274    0.0000 C   0  0  0  0  0  0  0  0  0  0  0  0
    3.2824   -1.1455    0.0000 C   0  0  3  0  0  0  0  0  0  0  0  0
    4.2740    0.8035    0.0000 C   0  0  0  0  0  0  0  0  0  0  0  0
    4.9065    0.2564    0.0000 C   0  0  0  0  0  0  0  0  0  0  0  0
    3.6414   -1.8805    0.0000 C   0  0  0  0  0  0  0  0  0  0  0  0
    4.3423    1.6412    0.0000 C   0  0  0  0  0  0  0  0  0  0  0  0
    2.0857   -0.3419    0.0000 C   0  0  0  0  0  0  0  0  0  0  0  0
    4.9578   -1.2651    0.0000 C   0  0  0  0  0  0  0  0  0  0  0  0
    1.9832   -1.7609    0.0000 C   0  0  0  0  0  0  0  0  0  0  0  0
    5.0775    2.0002    0.0000 C   0  0  0  0  0  0  0  0  0  0  0  0
    3.6585    2.1028    0.0000 C   0  0  0  0  0  0  0  0  0  0  0  0
    1.1625   -1.6925    0.0000 C   0  0  3  0  0  0  0  0  0  0  0  0
    3.1970   -2.5986    0.0000 C   0  0  0  0  0  0  0  0  0  0  0  0
    4.4962   -1.9660    0.0000 C   0  0  0  0  0  0  0  0  0  0  0  0
    5.7784   -1.3335    0.0000 C   0  0  0  0  0  0  0  0  0  0  0  0
    3.7269    2.9234    0.0000 C   0  0  0  0  0  0  0  0  0  0  0  0
    5.1459    2.8209    0.0000 C   0  0  0  0  0  0  0  0  0  0  0  0
    0.8035   -2.4618    0.0000 C   0  0  3  0  0  0  0  0  0  0  0  0
    4.4449    3.2824    0.0000 C   0  0  0  0  0  0  0  0  0  0  0  0
    3.5559   -3.3337    0.0000 C   0  0  0  0  0  0  0  0  0  0  0  0
    4.8382   -2.7012    0.0000 C   0  0  0  0  0  0  0  0  0  0  0  0
    0.5813   -1.1796    0.0000 C   0  0  0  0  0  0  0  0  0  0  0  0
    6.2571   -0.6497    0.0000 C   0  0  0  0  0  0  0  0  0  0  0  0
    6.1545   -2.0857    0.0000 C   0  0  0  0  0  0  0  0  0  0  0  0
   -0.0171   -2.3421    0.0000 C   0  0  0  0  0  0  0  0  0  0  0  0
    0.9232    0.4787    0.0000 C   0  0  0  0  0  0  0  0  0  0  0  0
    7.0777   -0.7180    0.0000 C   0  0  0  0  0  0  0  0  0  0  0  0
    6.9752   -2.1370    0.0000 C   0  0  0  0  0  0  0  0  0  0  0  0
    0.0855    0.5813    0.0000 C   0  0  3  0  0  0  0  0  0  0  0  0
    7.4368   -1.4703    0.0000 C   0  0  0  0  0  0  0  0  0  0  0  0
   -0.2564    1.2822    0.0000 C   0  0  0  0  0  0  0  0  0  0  0  0
   -6.2742   -0.4958    0.0000 C   0  0  0  0  0  0  0  0  0  0  0  0
   -6.8555    0.6667    0.0000 C   0  0  0  0  0  0  0  0  0  0  0  0
   -1.0770    0.3248    0.0000 C   0  0  0  0  0  0  0  0  0  0  0  0
   -7.4368    0.1026    0.0000 C   0  0  0  0  0  0  0  0  0  0  0  0
   -7.0948   -0.6154    0.0000 C   0  0  0  0  0  0  0  0  0  0  0  0
   -5.3853    0.6496    0.0000 C   0  0  0  0  0  0  0  0  0  0  0  0
   -4.6672    0.1881    0.0000 C   0  0  0  0  0  0  0  0  0  0  0  0
   -2.5302    0.4274    0.0000 C   0  0  0  0  0  0  0  0  0  0  0  0
   -3.2483    0.0855    0.0000 C   0  0  0  0  0  0  0  0  0  0  0  0
  1 28  1  0  0  0  0
  2 34  1  0  0  0  0
 36  3  1  1  0  0  0
  4 25  2  0  0  0  0
  5 38  1  0  0  0  0
  5 39  1  0  0  0  0
 47  6  1  1  0  0  0
  6 52  1  0  0  0  0
  7 49  1  0  0  0  0
  8 51  2  0  0  0  0
  9 50  2  0  0  0  0
 10 52  2  0  0  0  0
 11 56  1  0  0  0  0
 11 58  1  0  0  0  0
 12 19  1  0  0  0  0
 12 22  1  0  0  0  0
 12 26  1  0  0  0  0
 20 13  1  1  0  0  0
 13 25  1  0  0  0  0
 13 27  1  0  0  0  0
 14 19  2  0  0  0  0
 14 21  1  0  0  0  0
 15 25  1  0  0  0  0
 15 44  1  0  0  0  0
 16 40  1  0  0  0  0
 16 43  1  0  0  0  0
 17 50  1  0  0  0  0
 17 51  1  0  0  0  0
 17 55  1  0  0  0  0
 18 52  1  0  0  0  0
 18 57  1  0  0  0  0
 19 20  1  0  0  0  0
 20 23  1  0  0  0  0
 21 22  2  0  0  0  0
 21 24  1  0  0  0  0
 23 31  1  0  0  0  0
 23 32  1  0  0  0  0
 24 28  1  0  0  0  0
 24 29  2  0  0  0  0
 26 33  1  0  0  0  0
 30 27  1  1  0  0  0
 28 35  2  0  0  0  0
 29 34  1  0  0  0  0
 30 36  1  0  0  0  0
 30 40  1  0  0  0  0
 31 38  1  0  0  0  0
 32 39  1  0  0  0  0
 33 41  2  0  0  0  0
 33 42  1  0  0  0  0
 34 37  2  0  0  0  0
 35 37  1  0  0  0  0
 36 43  1  0  0  0  0
 41 45  1  0  0  0  0
 42 46  2  0  0  0  0
 44 47  1  0  0  0  0
 45 48  2  0  0  0  0
 46 48  1  0  0  0  0
 47 49  1  0  0  0  0
 50 54  1  0  0  0  0
 51 53  1  0  0  0  0
 53 54  2  0  0  0  0
 55 56  1  0  0  0  0
 57 58  1  0  0  0  0
M  END
> <PUBCHEM_COMPOUND_ID_TYPE>
0

> <PUBCHEM_TOTAL_CHARGE>
0

> <PUBCHEM_SUBSTANCE_ID>
310942579

> <PUBCHEM_SUBSTANCE_VERSION>
1

> <PUBCHEM_EXT_DATASOURCE_NAME>
4488

> <PUBCHEM_EXT_DATASOURCE_REGID>
SCHEMBL16120624

> <PUBCHEM_SUBSTANCE_COMMENT>
InChI=1S/C40H48F3N7O8/c41-29-6-7-32(42)31(18-29)34-24-48(22-26-4-2-1-3-5-26)38(47-34)37(27-10-14-56-15-11-27)50(23-28-19-44-21-33(28)43)39(54)46-20-30(25-51)58-40(55)45-12-16-57-17-13-49-35(52)8-9-36(49)53/h1-9,18,24,27-28,30,33,37,44,51H,10-17,19-23,25H2,(H,45,55)(H,46,54)/t28-,30+,33-,37+/m0/s1
InChIKey=BYYAIQMKIRIURJ-HHUGNONPSA-N

> <PUBCHEM_SUBSTANCE_SYNONYM>
SCHEMBL16120624

> <PUBCHEM_XREF_EXT_ID>
SCHEMBL16120624

> <PUBCHEM_EXT_DATASOURCE_URL>
https://www.surechembl.org/

> <PUBCHEM_EXT_SUBSTANCE_URL>
https://www.surechembl.org/chemical/SCHEMBL16120624

> <PUBCHEM_CID_ASSOCIATIONS>
117609132  1

> <PUBCHEM_COORDINATE_TYPE>
1
3

> <PUBCHEM_BONDANNOTATIONS>
20  13  5
30  27  5
36  3  5
47  6  5

$$$$
