310937984
  -OEChem-07211613022D

 18 18  0     1  0  0  0  0  0999 V2000
    2.0226   -0.3992    0.0000 O   0  0  0  0  0  0  0  0  0  0  0  0
    1.3838   -2.4484    0.0000 O   0  0  0  0  0  0  0  0  0  0  0  0
    3.4863   -0.3726    0.0000 O   0  0  0  0  0  0  0  0  0  0  0  0
    4.2048   -1.6234    0.0000 O   0  0  0  0  0  0  0  0  0  0  0  0
    2.7944   -2.4218    0.0000 N   0  0  0  0  0  0  0  0  0  0  0  0
    2.7944   -1.6234    0.0000 C   0  0  3  0  0  0  0  0  0  0  0  0
    2.0492   -1.2242    0.0000 C   0  0  3  0  0  0  0  0  0  0  0  0
    2.1024   -2.8475    0.0000 C   0  0  0  0  0  0  0  0  0  0  0  0
    3.4863   -1.1976    0.0000 C   0  0  0  0  0  0  0  0  0  0  0  0
    1.4105   -4.0984    0.0000 C   0  0  0  0  0  0  0  0  0  0  0  0
    2.1290   -3.6725    0.0000 C   0  0  0  0  0  0  0  0  0  0  0  0
    1.3838   -4.9234    0.0000 C   0  0  0  0  0  0  0  0  0  0  0  0
    0.6919   -3.6725    0.0000 C   0  0  0  0  0  0  0  0  0  0  0  0
    1.3306   -1.6234    0.0000 C   0  0  0  0  0  0  0  0  0  0  0  0
    0.6919   -5.3225    0.0000 C   0  0  0  0  0  0  0  0  0  0  0  0
    0.0000   -4.0984    0.0000 C   0  0  0  0  0  0  0  0  0  0  0  0
    0.0000   -4.9234    0.0000 C   0  0  0  0  0  0  0  0  0  0  0  0
    1.3306    0.0000    0.0000 C   0  0  0  0  0  0  0  0  0  0  0  0
  1  7  1  0  0  0  0
  1 18  1  0  0  0  0
  2  8  2  0  0  0  0
  3  9  2  0  0  0  0
  4  9  1  0  0  0  0
  6  5  1  1  0  0  0
  5  8  1  0  0  0  0
  6  7  1  0  0  0  0
  6  9  1  0  0  0  0
  7 14  1  1  0  0  0
  8 11  1  0  0  0  0
 10 11  1  0  0  0  0
 10 12  2  0  0  0  0
 10 13  1  0  0  0  0
 12 15  1  0  0  0  0
 13 16  2  0  0  0  0
 15 17  2  0  0  0  0
 16 17  1  0  0  0  0
M  END
> <PUBCHEM_COMPOUND_ID_TYPE>
0

> <PUBCHEM_TOTAL_CHARGE>
0

> <PUBCHEM_SUBSTANCE_ID>
310937984

> <PUBCHEM_SUBSTANCE_VERSION>
1

> <PUBCHEM_EXT_DATASOURCE_NAME>
4488

> <PUBCHEM_EXT_DATASOURCE_REGID>
SCHEMBL16115820

> <PUBCHEM_SUBSTANCE_COMMENT>
InChI=1S/C13H17NO4/c1-9(18-2)12(13(16)17)14-11(15)8-10-6-4-3-5-7-10/h3-7,9,12H,8H2,1-2H3,(H,14,15)(H,16,17)/t9-,12+/m1/s1
InChIKey=UBZXFUJXWHRUPA-SKDRFNHKSA-N

> <PUBCHEM_SUBSTANCE_SYNONYM>
SCHEMBL16115820

> <PUBCHEM_XREF_EXT_ID>
SCHEMBL16115820

> <PUBCHEM_EXT_DATASOURCE_URL>
https://www.surechembl.org/

> <PUBCHEM_EXT_SUBSTANCE_URL>
https://www.surechembl.org/chemical/SCHEMBL16115820

> <PUBCHEM_CID_ASSOCIATIONS>
117605581  1

> <PUBCHEM_COORDINATE_TYPE>
1
3

> <PUBCHEM_BONDANNOTATIONS>
6  5  5
7  14  5

$$$$
