310935186
  -OEChem-07211613022D

 32 35  0     1  0  0  0  0  0999 V2000
   -4.4466    2.5580    0.0000 F   0  0  0  0  0  0  0  0  0  0  0  0
    2.1434    1.2375    0.0000 F   0  0  0  0  0  0  0  0  0  0  0  0
   -0.7799    3.3943    0.0000 O   0  0  0  0  0  0  0  0  0  0  0  0
   -1.7932    3.8328    0.0000 O   0  0  0  0  0  0  0  0  0  0  0  0
    2.1434   -0.4125    0.0000 O   0  0  0  0  0  0  0  0  0  0  0  0
    0.7145   -0.4125    0.0000 N   0  0  0  0  0  0  0  0  0  0  0  0
    2.8579   -2.4750    0.0000 N   0  0  0  0  0  0  0  0  0  0  0  0
   -1.6077    2.2295    0.0000 C   0  0  3  0  0  0  0  0  0  0  0  0
   -0.8007    2.0580    0.0000 C   0  0  3  0  0  0  0  0  0  0  0  0
   -2.2700    2.7214    0.0000 C   0  0  0  0  0  0  0  0  0  0  0  0
   -0.7145    1.2375    0.0000 C   0  0  3  0  0  0  0  0  0  0  0  0
   -2.0202    1.5150    0.0000 C   0  0  0  0  0  0  0  0  0  0  0  0
   -1.5300    3.0508    0.0000 C   0  0  0  0  0  0  0  0  0  0  0  0
   -1.4681    0.9019    0.0000 C   0  0  0  0  0  0  0  0  0  0  0  0
   -3.0272    2.3937    0.0000 C   0  0  0  0  0  0  0  0  0  0  0  0
    0.0000    0.8250    0.0000 C   0  0  0  0  0  0  0  0  0  0  0  0
   -2.1752    3.5409    0.0000 C   0  0  0  0  0  0  0  0  0  0  0  0
   -3.6895    2.8856    0.0000 C   0  0  0  0  0  0  0  0  0  0  0  0
   -0.1876    2.6100    0.0000 C   0  0  0  0  0  0  0  0  0  0  0  0
    0.7145    1.2375    0.0000 C   0  0  0  0  0  0  0  0  0  0  0  0
    0.0000    0.0000    0.0000 C   0  0  0  0  0  0  0  0  0  0  0  0
   -2.8375    4.0328    0.0000 C   0  0  0  0  0  0  0  0  0  0  0  0
    1.4289    0.8250    0.0000 C   0  0  0  0  0  0  0  0  0  0  0  0
   -3.5947    3.7052    0.0000 C   0  0  0  0  0  0  0  0  0  0  0  0
    1.4289    0.0000    0.0000 C   0  0  0  0  0  0  0  0  0  0  0  0
   -3.1220    1.5742    0.0000 C   0  0  0  0  0  0  0  0  0  0  0  0
    2.1434   -1.2375    0.0000 C   0  0  0  0  0  0  0  0  0  0  0  0
    2.8579   -1.6500    0.0000 C   0  0  0  0  0  0  0  0  0  0  0  0
    3.5253   -2.9599    0.0000 C   0  0  0  0  0  0  0  0  0  0  0  0
    2.1904   -2.9599    0.0000 C   0  0  0  0  0  0  0  0  0  0  0  0
    3.2704   -3.7445    0.0000 C   0  0  0  0  0  0  0  0  0  0  0  0
    2.4454   -3.7445    0.0000 C   0  0  0  0  0  0  0  0  0  0  0  0
  1 18  1  0  0  0  0
  2 23  1  0  0  0  0
  3 13  2  0  0  0  0
  4 13  1  0  0  0  0
  5 25  1  0  0  0  0
  5 27  1  0  0  0  0
  6 21  2  0  0  0  0
  6 25  1  0  0  0  0
  7 28  1  0  0  0  0
  7 29  1  0  0  0  0
  7 30  1  0  0  0  0
  8  9  1  0  0  0  0
  8 10  1  1  0  0  0
  8 12  1  0  0  0  0
  8 13  1  6  0  0  0
  9 11  1  0  0  0  0
  9 19  1  0  0  0  0
 10 15  2  0  0  0  0
 10 17  1  0  0  0  0
 11 14  1  0  0  0  0
 11 16  1  0  0  0  0
 12 14  1  0  0  0  0
 15 18  1  0  0  0  0
 15 26  1  0  0  0  0
 16 20  2  0  0  0  0
 16 21  1  0  0  0  0
 17 22  2  0  0  0  0
 18 24  2  0  0  0  0
 20 23  1  0  0  0  0
 22 24  1  0  0  0  0
 23 25  2  0  0  0  0
 27 28  1  0  0  0  0
 29 31  1  0  0  0  0
 30 32  1  0  0  0  0
 31 32  1  0  0  0  0
M  END
> <PUBCHEM_COMPOUND_ID_TYPE>
0

> <PUBCHEM_TOTAL_CHARGE>
0

> <PUBCHEM_SUBSTANCE_ID>
310935186

> <PUBCHEM_SUBSTANCE_VERSION>
1

> <PUBCHEM_EXT_DATASOURCE_NAME>
4488

> <PUBCHEM_EXT_DATASOURCE_REGID>
SCHEMBL16112714

> <PUBCHEM_SUBSTANCE_COMMENT>
InChI=1S/C25H30F2N2O3/c1-16-20(6-5-7-21(16)26)25(24(30)31)9-8-19(17(25)2)18-14-22(27)23(28-15-18)32-13-12-29-10-3-4-11-29/h5-7,14-15,17,19H,3-4,8-13H2,1-2H3,(H,30,31)/t17?,19?,25-/m0/s1
InChIKey=VBKFELBNLSZZFI-HGEUABKPSA-N

> <PUBCHEM_SUBSTANCE_SYNONYM>
SCHEMBL16112714

> <PUBCHEM_XREF_EXT_ID>
SCHEMBL16112714

> <PUBCHEM_EXT_DATASOURCE_URL>
https://www.surechembl.org/

> <PUBCHEM_EXT_SUBSTANCE_URL>
https://www.surechembl.org/chemical/SCHEMBL16112714

> <PUBCHEM_CID_ASSOCIATIONS>
117603267  1

> <PUBCHEM_COORDINATE_TYPE>
1
3

> <PUBCHEM_BONDANNOTATIONS>
8  10  5
8  13  6

$$$$
