310940016
  -OEChem-07211613022D

 27 29  0     0  0  0  0  0  0999 V2000
   -5.0178   -7.7199    0.0000 Cl  0  0  0  0  0  0  0  0  0  0  0  0
   -5.0178   -9.3699    0.0000 Cl  0  0  0  0  0  0  0  0  0  0  0  0
    1.0406   -9.9973    0.0000 O   0  0  0  0  0  0  0  0  0  0  0  0
   -0.8658   -6.0701    0.0000 O   0  0  0  0  0  0  0  0  0  0  0  0
    2.0510   -8.9869    0.0000 O   0  0  0  0  0  0  0  0  0  0  0  0
   -2.0897   -9.2123    0.0000 N   0  0  0  0  0  0  0  0  0  0  0  0
   -1.6048   -8.5449    0.0000 N   0  0  0  0  0  0  0  0  0  0  0  0
   -0.4959   -7.4504    0.0000 N   0  0  0  0  0  0  0  0  0  0  0  0
    0.6708   -8.6171    0.0000 N   0  0  0  0  0  0  0  0  0  0  0  0
   -2.8743   -8.1324    0.0000 C   0  0  0  0  0  0  0  0  0  0  0  0
   -2.8743   -8.9574    0.0000 C   0  0  0  0  0  0  0  0  0  0  0  0
   -2.0897   -7.8774    0.0000 C   0  0  0  0  0  0  0  0  0  0  0  0
   -3.5888   -7.7199    0.0000 C   0  0  0  0  0  0  0  0  0  0  0  0
   -3.5888   -9.3699    0.0000 C   0  0  0  0  0  0  0  0  0  0  0  0
   -4.3033   -8.1324    0.0000 C   0  0  0  0  0  0  0  0  0  0  0  0
   -1.8762   -7.0805    0.0000 C   0  0  0  0  0  0  0  0  0  0  0  0
   -4.3033   -8.9574    0.0000 C   0  0  0  0  0  0  0  0  0  0  0  0
   -1.0793   -6.8670    0.0000 C   0  0  0  0  0  0  0  0  0  0  0  0
   -0.7095   -8.2473    0.0000 C   0  0  0  0  0  0  0  0  0  0  0  0
    0.3009   -7.2368    0.0000 C   0  0  0  0  0  0  0  0  0  0  0  0
    1.2542   -9.2005    0.0000 C   0  0  0  0  0  0  0  0  0  0  0  0
   -0.1261   -8.8306    0.0000 C   0  0  0  0  0  0  0  0  0  0  0  0
    0.8843   -7.8202    0.0000 C   0  0  0  0  0  0  0  0  0  0  0  0
    1.6240  -10.5807    0.0000 C   0  0  0  0  0  0  0  0  0  0  0  0
    2.2074  -11.1641    0.0000 C   0  0  0  0  0  0  0  0  0  0  0  0
    2.4209  -10.3672    0.0000 C   0  0  0  0  0  0  0  0  0  0  0  0
    1.4105  -11.3776    0.0000 C   0  0  0  0  0  0  0  0  0  0  0  0
  1 15  1  0  0  0  0
  2 17  1  0  0  0  0
  3 21  1  0  0  0  0
  3 24  1  0  0  0  0
  4 18  2  0  0  0  0
  5 21  2  0  0  0  0
  6  7  1  0  0  0  0
  6 11  1  0  0  0  0
  7 12  2  0  0  0  0
  8 18  1  0  0  0  0
  8 19  1  0  0  0  0
  8 20  1  0  0  0  0
  9 21  1  0  0  0  0
  9 22  1  0  0  0  0
  9 23  1  0  0  0  0
 10 11  1  0  0  0  0
 10 12  1  0  0  0  0
 10 13  2  0  0  0  0
 11 14  2  0  0  0  0
 12 16  1  0  0  0  0
 13 15  1  0  0  0  0
 14 17  1  0  0  0  0
 15 17  2  0  0  0  0
 16 18  1  0  0  0  0
 19 22  1  0  0  0  0
 20 23  1  0  0  0  0
 24 25  1  0  0  0  0
 24 26  1  0  0  0  0
 24 27  1  0  0  0  0
M  END
> <PUBCHEM_COMPOUND_ID_TYPE>
0

> <PUBCHEM_TOTAL_CHARGE>
0

> <PUBCHEM_SUBSTANCE_ID>
310940016

> <PUBCHEM_SUBSTANCE_VERSION>
1

> <PUBCHEM_EXT_DATASOURCE_NAME>
4488

> <PUBCHEM_EXT_DATASOURCE_REGID>
SCHEMBL16117946

> <PUBCHEM_SUBSTANCE_COMMENT>
InChI=1S/C18H22Cl2N4O3/c1-18(2,3)27-17(26)24-6-4-23(5-7-24)16(25)10-15-11-8-12(19)13(20)9-14(11)21-22-15/h8-9H,4-7,10H2,1-3H3,(H,21,22)
InChIKey=SBZKNGGZZBWAKC-UHFFFAOYSA-N

> <PUBCHEM_SUBSTANCE_SYNONYM>
SCHEMBL16117946

> <PUBCHEM_XREF_EXT_ID>
SCHEMBL16117946

> <PUBCHEM_EXT_DATASOURCE_URL>
https://www.surechembl.org/

> <PUBCHEM_EXT_SUBSTANCE_URL>
https://www.surechembl.org/chemical/SCHEMBL16117946

> <PUBCHEM_CID_ASSOCIATIONS>
117607174  1

> <PUBCHEM_COORDINATE_TYPE>
1
3

$$$$
