310949110
  -OEChem-07211613022D

 22 23  0     0  0  0  0  0  0999 V2000
    1.2371    2.4945    0.0000 O   0  0  0  0  0  0  0  0  0  0  0  0
   -1.2573   -0.3621    0.0000 O   0  0  0  0  0  0  0  0  0  0  0  0
   -1.2573   -1.7904    0.0000 O   0  0  0  0  0  0  0  0  0  0  0  0
    0.8147    4.6268    0.0000 O   0  0  0  0  0  0  0  0  0  0  0  0
   -0.0101    0.3822    0.0000 C   0  0  0  0  0  0  0  0  0  0  0  0
   -0.4124   -0.3621    0.0000 C   0  0  0  0  0  0  0  0  0  0  0  0
   -0.3922   -1.7904    0.0000 C   0  0  0  0  0  0  0  0  0  0  0  0
   -0.0101   -2.4945    0.0000 C   0  0  0  0  0  0  0  0  0  0  0  0
   -0.0101   -1.0259    0.0000 C   0  0  0  0  0  0  0  0  0  0  0  0
    0.7946    1.7904    0.0000 C   0  0  0  0  0  0  0  0  0  0  0  0
   -0.3922    1.0863    0.0000 C   0  0  0  0  0  0  0  0  0  0  0  0
    0.8147    0.3621    0.0000 C   0  0  0  0  0  0  0  0  0  0  0  0
    0.0101    1.7703    0.0000 C   0  0  0  0  0  0  0  0  0  0  0  0
    1.2171    1.0863    0.0000 C   0  0  0  0  0  0  0  0  0  0  0  0
   -0.3922   -3.1784    0.0000 C   0  0  0  0  0  0  0  0  0  0  0  0
    0.8348   -2.5145    0.0000 C   0  0  0  0  0  0  0  0  0  0  0  0
    0.8147   -3.9227    0.0000 C   0  0  0  0  0  0  0  0  0  0  0  0
   -0.0101   -3.9026    0.0000 C   0  0  0  0  0  0  0  0  0  0  0  0
    1.2171   -3.1784    0.0000 C   0  0  0  0  0  0  0  0  0  0  0  0
    0.8348    3.1986    0.0000 C   0  0  0  0  0  0  0  0  0  0  0  0
    1.2573   -4.6268    0.0000 C   0  0  0  0  0  0  0  0  0  0  0  0
    1.2371    3.9428    0.0000 C   0  0  0  0  0  0  0  0  0  0  0  0
  1 10  1  0  0  0  0
  1 20  1  0  0  0  0
  2  6  2  0  0  0  0
  3  7  2  0  0  0  0
  4 22  1  0  0  0  0
  5  6  1  0  0  0  0
  5 11  2  0  0  0  0
  5 12  1  0  0  0  0
  6  9  1  0  0  0  0
  7  8  1  0  0  0  0
  7  9  1  0  0  0  0
  8 15  2  0  0  0  0
  8 16  1  0  0  0  0
 10 13  2  0  0  0  0
 10 14  1  0  0  0  0
 11 13  1  0  0  0  0
 12 14  2  0  0  0  0
 15 18  1  0  0  0  0
 16 19  2  0  0  0  0
 17 18  2  0  0  0  0
 17 19  1  0  0  0  0
 17 21  1  0  0  0  0
 20 22  1  0  0  0  0
M  END
> <PUBCHEM_COMPOUND_ID_TYPE>
0

> <PUBCHEM_TOTAL_CHARGE>
0

> <PUBCHEM_SUBSTANCE_ID>
310949110

> <PUBCHEM_SUBSTANCE_VERSION>
1

> <PUBCHEM_EXT_DATASOURCE_NAME>
4488

> <PUBCHEM_EXT_DATASOURCE_REGID>
SCHEMBL16127300

> <PUBCHEM_SUBSTANCE_COMMENT>
InChI=1S/C18H18O4/c1-13-2-4-14(5-3-13)17(20)12-18(21)15-6-8-16(9-7-15)22-11-10-19/h2-9,19H,10-12H2,1H3
InChIKey=JDUPYCIFIZKKJR-UHFFFAOYSA-N

> <PUBCHEM_SUBSTANCE_SYNONYM>
SCHEMBL16127300

> <PUBCHEM_XREF_EXT_ID>
SCHEMBL16127300

> <PUBCHEM_EXT_DATASOURCE_URL>
https://www.surechembl.org/

> <PUBCHEM_EXT_SUBSTANCE_URL>
https://www.surechembl.org/chemical/SCHEMBL16127300

> <PUBCHEM_CID_ASSOCIATIONS>
86272816  1

> <PUBCHEM_COORDINATE_TYPE>
1
3

$$$$
