310949261
  -OEChem-07211613022D

 37 42  0     0  0  0  0  0  0999 V2000
   -0.0354   -2.9210    0.0000 O   0  0  0  0  0  0  0  0  0  0  0  0
   -0.0071    0.3828    0.0000 N   0  0  0  0  0  0  0  0  0  0  0  0
   -0.0071    2.0419    0.0000 N   0  0  0  0  0  0  0  0  0  0  0  0
    2.2192   -0.1134    0.0000 N   0  0  0  0  0  0  0  0  0  0  0  0
   -2.2192   -0.1134    0.0000 N   0  0  0  0  0  0  0  0  0  0  0  0
    0.7161    0.8082    0.0000 C   0  0  0  0  0  0  0  0  0  0  0  0
   -0.7728    0.8082    0.0000 C   0  0  0  0  0  0  0  0  0  0  0  0
    0.7445    1.6307    0.0000 C   0  0  0  0  0  0  0  0  0  0  0  0
   -0.7445    1.6449    0.0000 C   0  0  0  0  0  0  0  0  0  0  0  0
   -0.0213   -0.4254    0.0000 C   0  0  0  0  0  0  0  0  0  0  0  0
    0.7445   -0.8508    0.0000 C   0  0  0  0  0  0  0  0  0  0  0  0
   -0.7445   -0.8508    0.0000 C   0  0  0  0  0  0  0  0  0  0  0  0
    0.0071    2.8927    0.0000 C   0  0  0  0  0  0  0  0  0  0  0  0
    1.5385    0.4254    0.0000 C   0  0  0  0  0  0  0  0  0  0  0  0
   -1.4960    0.4112    0.0000 C   0  0  0  0  0  0  0  0  0  0  0  0
    1.4534    2.0277    0.0000 C   0  0  0  0  0  0  0  0  0  0  0  0
   -1.4960    2.0419    0.0000 C   0  0  0  0  0  0  0  0  0  0  0  0
    0.7161   -1.6732    0.0000 C   0  0  0  0  0  0  0  0  0  0  0  0
   -0.7586   -1.6591    0.0000 C   0  0  0  0  0  0  0  0  0  0  0  0
   -0.0071   -2.0703    0.0000 C   0  0  0  0  0  0  0  0  0  0  0  0
    2.2050    0.8082    0.0000 C   0  0  0  0  0  0  0  0  0  0  0  0
   -2.1908    0.8082    0.0000 C   0  0  0  0  0  0  0  0  0  0  0  0
    2.2192    1.6165    0.0000 C   0  0  0  0  0  0  0  0  0  0  0  0
   -2.1766    1.6449    0.0000 C   0  0  0  0  0  0  0  0  0  0  0  0
    0.7161    3.2756    0.0000 C   0  0  0  0  0  0  0  0  0  0  0  0
   -0.7445    3.3039    0.0000 C   0  0  0  0  0  0  0  0  0  0  0  0
    1.4818   -0.4679    0.0000 C   0  0  0  0  0  0  0  0  0  0  0  0
   -1.4960   -0.4538    0.0000 C   0  0  0  0  0  0  0  0  0  0  0  0
    0.7445    4.0980    0.0000 C   0  0  0  0  0  0  0  0  0  0  0  0
   -0.7302    4.1122    0.0000 C   0  0  0  0  0  0  0  0  0  0  0  0
   -0.7586   -3.3181    0.0000 C   0  0  0  0  0  0  0  0  0  0  0  0
   -0.0213    4.5234    0.0000 C   0  0  0  0  0  0  0  0  0  0  0  0
   -1.5385   -2.9069    0.0000 C   0  0  0  0  0  0  0  0  0  0  0  0
   -0.7728   -4.1263    0.0000 C   0  0  0  0  0  0  0  0  0  0  0  0
   -2.1766   -3.2897    0.0000 C   0  0  0  0  0  0  0  0  0  0  0  0
   -1.4960   -4.5234    0.0000 C   0  0  0  0  0  0  0  0  0  0  0  0
   -2.1908   -4.1122    0.0000 C   0  0  0  0  0  0  0  0  0  0  0  0
  1 20  1  0  0  0  0
  1 31  1  0  0  0  0
  2  6  1  0  0  0  0
  2  7  1  0  0  0  0
  2 10  1  0  0  0  0
  3  8  1  0  0  0  0
  3  9  1  0  0  0  0
  3 13  1  0  0  0  0
  4 27  3  0  0  0  0
  5 28  3  0  0  0  0
  6  8  2  0  0  0  0
  6 14  1  0  0  0  0
  7  9  2  0  0  0  0
  7 15  1  0  0  0  0
  8 16  1  0  0  0  0
  9 17  1  0  0  0  0
 10 11  2  0  0  0  0
 10 12  1  0  0  0  0
 11 18  1  0  0  0  0
 11 27  1  0  0  0  0
 12 19  2  0  0  0  0
 12 28  1  0  0  0  0
 13 25  2  0  0  0  0
 13 26  1  0  0  0  0
 14 21  2  0  0  0  0
 15 22  2  0  0  0  0
 16 23  2  0  0  0  0
 17 24  2  0  0  0  0
 18 20  2  0  0  0  0
 19 20  1  0  0  0  0
 21 23  1  0  0  0  0
 22 24  1  0  0  0  0
 25 29  1  0  0  0  0
 26 30  2  0  0  0  0
 29 32  2  0  0  0  0
 30 32  1  0  0  0  0
 31 33  2  0  0  0  0
 31 34  1  0  0  0  0
 33 35  1  0  0  0  0
 34 36  2  0  0  0  0
 35 37  2  0  0  0  0
 36 37  1  0  0  0  0
M  END
> <PUBCHEM_COMPOUND_ID_TYPE>
0

> <PUBCHEM_TOTAL_CHARGE>
0

> <PUBCHEM_SUBSTANCE_ID>
310949261

> <PUBCHEM_SUBSTANCE_VERSION>
1

> <PUBCHEM_EXT_DATASOURCE_NAME>
4488

> <PUBCHEM_EXT_DATASOURCE_REGID>
SCHEMBL16127451

> <PUBCHEM_SUBSTANCE_COMMENT>
InChI=1S/C32H20N4O/c33-21-23-19-27(37-26-13-5-2-6-14-26)20-24(22-34)32(23)36-30-17-9-7-15-28(30)35(25-11-3-1-4-12-25)29-16-8-10-18-31(29)36/h1-20H
InChIKey=FFVYHUURPPTAMN-UHFFFAOYSA-N

> <PUBCHEM_SUBSTANCE_SYNONYM>
SCHEMBL16127451

> <PUBCHEM_XREF_EXT_ID>
SCHEMBL16127451

> <PUBCHEM_EXT_DATASOURCE_URL>
https://www.surechembl.org/

> <PUBCHEM_EXT_SUBSTANCE_URL>
https://www.surechembl.org/chemical/SCHEMBL16127451

> <PUBCHEM_CID_ASSOCIATIONS>
117614747  1

> <PUBCHEM_COORDINATE_TYPE>
1
3

$$$$
