310943480
  -OEChem-07211613022D

 33 38  0     0  0  0  0  0  0999 V2000
    3.9487   -0.4277    0.0000 O   0  0  0  0  0  0  0  0  0  0  0  0
   -4.5444    2.3677    0.0000 O   0  0  0  0  0  0  0  0  0  0  0  0
    1.1075   -0.1375    0.0000 O   0  0  0  0  0  0  0  0  0  0  0  0
   -1.7184    1.5580    0.0000 N   0  0  0  0  0  0  0  0  0  0  0  0
   -3.1390    1.5580    0.0000 N   0  0  0  0  0  0  0  0  0  0  0  0
   -3.0321   -0.2138    0.0000 N   0  0  0  0  0  0  0  0  0  0  0  0
   -1.8865   -0.8859    0.0000 N   0  0  0  0  0  0  0  0  0  0  0  0
    0.4201    2.7801    0.0000 N   0  0  0  0  0  0  0  0  0  0  0  0
    1.8407    1.1456    0.0000 N   0  0  0  0  0  0  0  0  0  0  0  0
    3.3682    0.2138    0.0000 N   0  0  0  0  0  0  0  0  0  0  0  0
   -2.4364    0.3207    0.0000 C   0  0  0  0  0  0  0  0  0  0  0  0
   -2.4212    1.1456    0.0000 C   0  0  0  0  0  0  0  0  0  0  0  0
   -0.9853    1.1456    0.0000 C   0  0  0  0  0  0  0  0  0  0  0  0
   -1.7032   -0.0764    0.0000 C   0  0  0  0  0  0  0  0  0  0  0  0
   -0.2979    1.5580    0.0000 C   0  0  0  0  0  0  0  0  0  0  0  0
   -1.0005    0.3361    0.0000 C   0  0  0  0  0  0  0  0  0  0  0  0
   -0.2826    2.3677    0.0000 C   0  0  0  0  0  0  0  0  0  0  0  0
    0.4201    1.1456    0.0000 C   0  0  0  0  0  0  0  0  0  0  0  0
    1.1227    1.5580    0.0000 C   0  0  0  0  0  0  0  0  0  0  0  0
    3.5057   -1.1609    0.0000 C   0  0  0  0  0  0  0  0  0  0  0  0
   -2.7114   -0.9623    0.0000 C   0  0  0  0  0  0  0  0  0  0  0  0
    3.8723   -1.9552    0.0000 C   0  0  0  0  0  0  0  0  0  0  0  0
    2.5891   -0.1375    0.0000 C   0  0  0  0  0  0  0  0  0  0  0  0
    1.8407    0.3055    0.0000 C   0  0  0  0  0  0  0  0  0  0  0  0
    2.6808   -0.9776    0.0000 C   0  0  0  0  0  0  0  0  0  0  0  0
   -3.1390    2.3677    0.0000 C   0  0  0  0  0  0  0  0  0  0  0  0
   -3.8417    1.1456    0.0000 C   0  0  0  0  0  0  0  0  0  0  0  0
    1.1380    2.3677    0.0000 C   0  0  0  0  0  0  0  0  0  0  0  0
    3.7959   -2.7801    0.0000 C   0  0  0  0  0  0  0  0  0  0  0  0
    4.5444   -2.4440    0.0000 C   0  0  0  0  0  0  0  0  0  0  0  0
   -1.0158    2.7648    0.0000 C   0  0  0  0  0  0  0  0  0  0  0  0
   -3.8417    2.7801    0.0000 C   0  0  0  0  0  0  0  0  0  0  0  0
   -4.5444    1.5428    0.0000 C   0  0  0  0  0  0  0  0  0  0  0  0
  1 10  1  0  0  0  0
  1 20  1  0  0  0  0
  2 32  1  0  0  0  0
  2 33  1  0  0  0  0
  3 24  2  0  0  0  0
  4 12  2  0  0  0  0
  4 13  1  0  0  0  0
  5 12  1  0  0  0  0
  5 26  1  0  0  0  0
  5 27  1  0  0  0  0
  6 11  1  0  0  0  0
  6 21  2  0  0  0  0
  7 14  1  0  0  0  0
  7 21  1  0  0  0  0
  8 17  1  0  0  0  0
  8 28  2  0  0  0  0
  9 19  1  0  0  0  0
  9 24  1  0  0  0  0
 10 23  2  0  0  0  0
 11 12  1  0  0  0  0
 11 14  2  0  0  0  0
 13 15  1  0  0  0  0
 13 16  2  0  0  0  0
 14 16  1  0  0  0  0
 15 17  2  0  0  0  0
 15 18  1  0  0  0  0
 17 31  1  0  0  0  0
 18 19  2  0  0  0  0
 19 28  1  0  0  0  0
 20 22  1  0  0  0  0
 20 25  2  0  0  0  0
 22 29  1  0  0  0  0
 22 30  1  0  0  0  0
 23 24  1  0  0  0  0
 23 25  1  0  0  0  0
 26 32  1  0  0  0  0
 27 33  1  0  0  0  0
 29 30  1  0  0  0  0
M  END
> <PUBCHEM_COMPOUND_ID_TYPE>
0

> <PUBCHEM_TOTAL_CHARGE>
0

> <PUBCHEM_SUBSTANCE_ID>
310943480

> <PUBCHEM_SUBSTANCE_VERSION>
1

> <PUBCHEM_EXT_DATASOURCE_NAME>
4488

> <PUBCHEM_EXT_DATASOURCE_REGID>
SCHEMBL16121545

> <PUBCHEM_SUBSTANCE_COMMENT>
InChI=1S/C23H23N7O3/c1-13-16(8-15(11-24-13)27-23(31)19-10-20(33-29-19)14-2-3-14)17-9-18-21(26-12-25-18)22(28-17)30-4-6-32-7-5-30/h8-12,14H,2-7H2,1H3,(H,25,26)(H,27,31)
InChIKey=YHCWAZKQQRNLLI-UHFFFAOYSA-N

> <PUBCHEM_SUBSTANCE_SYNONYM>
SCHEMBL16121545

> <PUBCHEM_XREF_EXT_ID>
SCHEMBL16121545

> <PUBCHEM_EXT_DATASOURCE_URL>
https://www.surechembl.org/

> <PUBCHEM_EXT_SUBSTANCE_URL>
https://www.surechembl.org/chemical/SCHEMBL16121545

> <PUBCHEM_CID_ASSOCIATIONS>
117609902  1

> <PUBCHEM_COORDINATE_TYPE>
1
3

$$$$
