310940487
  -OEChem-07211613022D

 30 33  0     0  0  0  0  0  0999 V2000
    2.3779   -1.5044    0.0000 F   0  0  0  0  0  0  0  0  0  0  0  0
    0.1618    3.0087    0.0000 F   0  0  0  0  0  0  0  0  0  0  0  0
    0.5176    1.9573    0.0000 F   0  0  0  0  0  0  0  0  0  0  0  0
   -0.5662    1.6176    0.0000 F   0  0  0  0  0  0  0  0  0  0  0  0
   -2.3779   -1.3911    0.0000 O   0  0  0  0  0  0  0  0  0  0  0  0
   -0.3559   -2.6043    0.0000 N   0  0  0  0  0  0  0  0  0  0  0  0
   -1.0838   -2.2161    0.0000 N   0  0  0  0  0  0  0  0  0  0  0  0
   -1.6499   -0.1779    0.0000 N   0  0  0  0  0  0  0  0  0  0  0  0
   -0.0971   -1.2779    0.0000 C   0  0  0  0  0  0  0  0  0  0  0  0
   -0.9059   -1.3911    0.0000 C   0  0  0  0  0  0  0  0  0  0  0  0
    0.2265   -2.0382    0.0000 C   0  0  0  0  0  0  0  0  0  0  0  0
   -1.6823   -0.9706    0.0000 C   0  0  0  0  0  0  0  0  0  0  0  0
    1.0514   -2.1029    0.0000 C   0  0  0  0  0  0  0  0  0  0  0  0
    0.3559   -0.6632    0.0000 C   0  0  0  0  0  0  0  0  0  0  0  0
   -1.6661    2.3132    0.0000 C   0  0  0  0  0  0  0  0  0  0  0  0
   -1.6661    1.4882    0.0000 C   0  0  0  0  0  0  0  0  0  0  0  0
   -0.9544    2.7176    0.0000 C   0  0  0  0  0  0  0  0  0  0  0  0
    1.5529   -1.4235    0.0000 C   0  0  0  0  0  0  0  0  0  0  0  0
   -0.2103    2.3132    0.0000 C   0  0  0  0  0  0  0  0  0  0  0  0
    1.2132   -0.7279    0.0000 C   0  0  0  0  0  0  0  0  0  0  0  0
   -0.9382    0.2426    0.0000 C   0  0  0  0  0  0  0  0  0  0  0  0
   -2.3779    0.2588    0.0000 C   0  0  0  0  0  0  0  0  0  0  0  0
   -0.2588   -3.4293    0.0000 C   0  0  0  0  0  0  0  0  0  0  0  0
   -0.9220    1.0514    0.0000 C   0  0  0  0  0  0  0  0  0  0  0  0
   -2.3617    1.0676    0.0000 C   0  0  0  0  0  0  0  0  0  0  0  0
   -2.3617    2.7176    0.0000 C   0  0  0  0  0  0  0  0  0  0  0  0
   -0.9382    3.5425    0.0000 C   0  0  0  0  0  0  0  0  0  0  0  0
   -2.3779    3.5264    0.0000 C   0  0  0  0  0  0  0  0  0  0  0  0
   -1.6499    3.9308    0.0000 C   0  0  0  0  0  0  0  0  0  0  0  0
   -0.9382   -3.9308    0.0000 C   0  0  0  0  0  0  0  0  0  0  0  0
  1 18  1  0  0  0  0
  2 19  1  0  0  0  0
  3 19  1  0  0  0  0
  4 19  1  0  0  0  0
  5 12  2  0  0  0  0
  6  7  1  0  0  0  0
  6 11  1  0  0  0  0
  6 23  1  0  0  0  0
  7 10  2  0  0  0  0
  8 12  1  0  0  0  0
  8 21  1  0  0  0  0
  8 22  1  0  0  0  0
  9 10  1  0  0  0  0
  9 11  2  0  0  0  0
  9 14  1  0  0  0  0
 10 12  1  0  0  0  0
 11 13  1  0  0  0  0
 13 18  2  0  0  0  0
 14 20  2  0  0  0  0
 15 16  1  0  0  0  0
 15 17  2  0  0  0  0
 15 26  1  0  0  0  0
 16 24  1  0  0  0  0
 16 25  1  0  0  0  0
 17 19  1  0  0  0  0
 17 27  1  0  0  0  0
 18 20  1  0  0  0  0
 21 24  1  0  0  0  0
 22 25  1  0  0  0  0
 23 30  1  0  0  0  0
 26 28  2  0  0  0  0
 27 29  2  0  0  0  0
 28 29  1  0  0  0  0
M  END
> <PUBCHEM_COMPOUND_ID_TYPE>
0

> <PUBCHEM_TOTAL_CHARGE>
0

> <PUBCHEM_SUBSTANCE_ID>
310940487

> <PUBCHEM_SUBSTANCE_VERSION>
1

> <PUBCHEM_EXT_DATASOURCE_NAME>
4488

> <PUBCHEM_EXT_DATASOURCE_REGID>
SCHEMBL16118440

> <PUBCHEM_SUBSTANCE_COMMENT>
InChI=1S/C22H21F4N3O/c1-2-29-19-13-15(23)7-8-17(19)20(27-29)21(30)28-11-9-14(10-12-28)16-5-3-4-6-18(16)22(24,25)26/h3-8,13-14H,2,9-12H2,1H3
InChIKey=NHXWBJFQTYKGOB-UHFFFAOYSA-N

> <PUBCHEM_SUBSTANCE_SYNONYM>
SCHEMBL16118440

> <PUBCHEM_XREF_EXT_ID>
SCHEMBL16118440

> <PUBCHEM_EXT_DATASOURCE_URL>
https://www.surechembl.org/

> <PUBCHEM_EXT_SUBSTANCE_URL>
https://www.surechembl.org/chemical/SCHEMBL16118440

> <PUBCHEM_CID_ASSOCIATIONS>
117607502  1

> <PUBCHEM_COORDINATE_TYPE>
1
3

$$$$
