310949957
  -OEChem-07211613022D

 27 30  0     0  0  0  0  0  0999 V2000
   -0.8577    1.5631    0.0000 N   0  0  0  0  0  0  0  0  0  0  0  0
   -0.8577    2.9049    0.0000 N   0  0  0  0  0  0  0  0  0  0  0  0
   -0.0968   -0.8023    0.0000 N   0  0  0  0  0  0  0  0  0  0  0  0
    1.6876    1.5077    0.0000 N   0  0  0  0  0  0  0  0  0  0  0  0
   -1.6600    1.8259    0.0000 C   0  0  0  0  0  0  0  0  0  0  0  0
   -0.3873    2.2409    0.0000 C   0  0  0  0  0  0  0  0  0  0  0  0
   -1.6461    2.6559    0.0000 C   0  0  0  0  0  0  0  0  0  0  0  0
   -0.6087    0.7885    0.0000 C   0  0  0  0  0  0  0  0  0  0  0  0
   -2.3654    1.4110    0.0000 C   0  0  0  0  0  0  0  0  0  0  0  0
   -2.3930    3.0432    0.0000 C   0  0  0  0  0  0  0  0  0  0  0  0
   -1.1481    0.1660    0.0000 C   0  0  0  0  0  0  0  0  0  0  0  0
    0.1936    0.5948    0.0000 C   0  0  0  0  0  0  0  0  0  0  0  0
    0.4564    2.2132    0.0000 C   0  0  0  0  0  0  0  0  0  0  0  0
   -3.0847    1.8259    0.0000 C   0  0  0  0  0  0  0  0  0  0  0  0
   -3.0847    2.6282    0.0000 C   0  0  0  0  0  0  0  0  0  0  0  0
   -0.9130   -0.6225    0.0000 C   0  0  0  0  0  0  0  0  0  0  0  0
    0.4564   -0.1798    0.0000 C   0  0  0  0  0  0  0  0  0  0  0  0
    0.1521   -1.5769    0.0000 C   0  0  0  0  0  0  0  0  0  0  0  0
    0.8577    1.5216    0.0000 C   0  0  0  0  0  0  0  0  0  0  0  0
    0.9683   -1.7567    0.0000 C   0  0  0  0  0  0  0  0  0  0  0  0
    1.1205   -2.5729    0.0000 C   0  0  0  0  0  0  0  0  0  0  0  0
    1.4386   -1.0789    0.0000 C   0  0  0  0  0  0  0  0  0  0  0  0
    1.8121   -3.0432    0.0000 C   0  0  0  0  0  0  0  0  0  0  0  0
    2.2547   -0.9406    0.0000 C   0  0  0  0  0  0  0  0  0  0  0  0
    2.9325   -1.3971    0.0000 C   0  0  0  0  0  0  0  0  0  0  0  0
    2.6144   -2.8910    0.0000 C   0  0  0  0  0  0  0  0  0  0  0  0
    3.0847   -2.2132    0.0000 C   0  0  0  0  0  0  0  0  0  0  0  0
  1  5  1  0  0  0  0
  1  6  1  0  0  0  0
  1  8  1  0  0  0  0
  2  6  2  0  0  0  0
  2  7  1  0  0  0  0
  3 16  1  0  0  0  0
  3 17  1  0  0  0  0
  3 18  1  0  0  0  0
  4 19  1  0  0  0  0
  5  7  1  0  0  0  0
  5  9  2  0  0  0  0
  6 13  1  0  0  0  0
  7 10  2  0  0  0  0
  8 11  1  0  0  0  0
  8 12  1  0  0  0  0
  9 14  1  0  0  0  0
 10 15  1  0  0  0  0
 11 16  1  0  0  0  0
 12 17  1  0  0  0  0
 13 19  1  0  0  0  0
 14 15  2  0  0  0  0
 18 20  1  0  0  0  0
 20 21  1  0  0  0  0
 20 22  1  0  0  0  0
 21 23  1  0  0  0  0
 22 24  1  0  0  0  0
 23 26  1  0  0  0  0
 24 25  1  0  0  0  0
 25 27  1  0  0  0  0
 26 27  1  0  0  0  0
M  END
> <PUBCHEM_COMPOUND_ID_TYPE>
0

> <PUBCHEM_TOTAL_CHARGE>
0

> <PUBCHEM_SUBSTANCE_ID>
310949957

> <PUBCHEM_SUBSTANCE_VERSION>
1

> <PUBCHEM_EXT_DATASOURCE_NAME>
4488

> <PUBCHEM_EXT_DATASOURCE_REGID>
SCHEMBL16128186

> <PUBCHEM_SUBSTANCE_COMMENT>
InChI=1S/C23H36N4/c24-15-12-23-25-21-10-6-7-11-22(21)27(23)20-13-16-26(17-14-20)18-19-8-4-2-1-3-5-9-19/h6-7,10-11,19-20H,1-5,8-9,12-18,24H2
InChIKey=MKNATXBQOYJESO-UHFFFAOYSA-N

> <PUBCHEM_SUBSTANCE_SYNONYM>
SCHEMBL16128186

> <PUBCHEM_XREF_EXT_ID>
SCHEMBL16128186

> <PUBCHEM_EXT_DATASOURCE_URL>
https://www.surechembl.org/

> <PUBCHEM_EXT_SUBSTANCE_URL>
https://www.surechembl.org/chemical/SCHEMBL16128186

> <PUBCHEM_CID_ASSOCIATIONS>
86272384  1

> <PUBCHEM_COORDINATE_TYPE>
1
3

$$$$
