310939067
  -OEChem-07211613022D

 31 33  0     0  0  0  0  0  0999 V2000
    1.4804   -1.6705    0.0000 S   0  0  0  0  0  0  0  0  0  0  0  0
   -2.0150   -2.2965    0.0000 O   0  0  0  0  0  0  0  0  0  0  0  0
   -3.4440    0.1785    0.0000 O   0  0  0  0  0  0  0  0  0  0  0  0
    3.0741   -1.2434    0.0000 O   0  0  0  0  0  0  0  0  0  0  0  0
    0.1985   -1.2166    0.0000 N   0  0  0  0  0  0  0  0  0  0  0  0
    1.2137    1.9092    0.0000 N   0  0  0  0  0  0  0  0  0  0  0  0
   -0.5861   -2.2965    0.0000 N   0  0  0  0  0  0  0  0  0  0  0  0
    0.1985   -2.5514    0.0000 N   0  0  0  0  0  0  0  0  0  0  0  0
    3.4440   -2.6237    0.0000 N   0  0  0  0  0  0  0  0  0  0  0  0
   -0.5861   -1.4715    0.0000 C   0  0  0  0  0  0  0  0  0  0  0  0
    0.4121   -0.4197    0.0000 C   0  0  0  0  0  0  0  0  0  0  0  0
   -1.3006   -1.0590    0.0000 C   0  0  0  0  0  0  0  0  0  0  0  0
    1.4225    0.5908    0.0000 C   0  0  0  0  0  0  0  0  0  0  0  0
    0.8391    1.1741    0.0000 C   0  0  0  0  0  0  0  0  0  0  0  0
    1.2090   -0.2061    0.0000 C   0  0  0  0  0  0  0  0  0  0  0  0
   -2.0150   -1.4715    0.0000 C   0  0  0  0  0  0  0  0  0  0  0  0
    0.6835   -1.8840    0.0000 C   0  0  0  0  0  0  0  0  0  0  0  0
   -2.0150    0.1785    0.0000 C   0  0  0  0  0  0  0  0  0  0  0  0
   -1.3006   -0.2340    0.0000 C   0  0  0  0  0  0  0  0  0  0  0  0
   -0.1713    0.1637    0.0000 C   0  0  0  0  0  0  0  0  0  0  0  0
    0.0422    0.9606    0.0000 C   0  0  0  0  0  0  0  0  0  0  0  0
   -2.7295   -0.2340    0.0000 C   0  0  0  0  0  0  0  0  0  0  0  0
   -2.7295   -1.0590    0.0000 C   0  0  0  0  0  0  0  0  0  0  0  0
    2.1576    0.9653    0.0000 C   0  0  0  0  0  0  0  0  0  0  0  0
    2.0285    1.7801    0.0000 C   0  0  0  0  0  0  0  0  0  0  0  0
   -2.0150    1.0035    0.0000 C   0  0  0  0  0  0  0  0  0  0  0  0
    0.8012    2.6237    0.0000 C   0  0  0  0  0  0  0  0  0  0  0  0
    2.0637   -2.2538    0.0000 C   0  0  0  0  0  0  0  0  0  0  0  0
   -2.7295    1.4160    0.0000 C   0  0  0  0  0  0  0  0  0  0  0  0
   -1.3006    1.4160    0.0000 C   0  0  0  0  0  0  0  0  0  0  0  0
    2.8606   -2.0403    0.0000 C   0  0  0  0  0  0  0  0  0  0  0  0
  1 17  1  0  0  0  0
  1 28  1  0  0  0  0
  2 16  1  0  0  0  0
  3 22  1  0  0  0  0
  4 31  2  0  0  0  0
  5 10  1  0  0  0  0
  5 11  1  0  0  0  0
  5 17  1  0  0  0  0
  6 14  1  0  0  0  0
  6 25  1  0  0  0  0
  6 27  1  0  0  0  0
  7 10  2  3  0  0  0
  8 17  2  3  0  0  0
  9 31  1  0  0  0  0
 10 12  1  0  0  0  0
 11 15  2  0  0  0  0
 11 20  1  0  0  0  0
 12 16  2  0  0  0  0
 12 19  1  0  0  0  0
 13 14  2  0  0  0  0
 13 15  1  0  0  0  0
 13 24  1  0  0  0  0
 14 21  1  0  0  0  0
 16 23  1  0  0  0  0
 18 19  2  0  0  0  0
 18 22  1  0  0  0  0
 18 26  1  0  0  0  0
 20 21  2  0  0  0  0
 22 23  2  0  0  0  0
 24 25  2  0  0  0  0
 26 29  1  0  0  0  0
 26 30  1  0  0  0  0
 28 31  1  0  0  0  0
M  END
> <PUBCHEM_COMPOUND_ID_TYPE>
0

> <PUBCHEM_TOTAL_CHARGE>
0

> <PUBCHEM_SUBSTANCE_ID>
310939067

> <PUBCHEM_SUBSTANCE_VERSION>
1

> <PUBCHEM_EXT_DATASOURCE_NAME>
4488

> <PUBCHEM_EXT_DATASOURCE_REGID>
SCHEMBL16116986

> <PUBCHEM_SUBSTANCE_COMMENT>
InChI=1S/C22H25N5O3S/c1-12(2)15-9-16(19(29)10-18(15)28)21(24)27(22(25)31-11-20(23)30)14-4-5-17-13(8-14)6-7-26(17)3/h4-10,12,24-25,28-29H,11H2,1-3H3,(H2,23,30)
InChIKey=KTFYWWMLNLHZSP-UHFFFAOYSA-N

> <PUBCHEM_SUBSTANCE_SYNONYM>
SCHEMBL16116986

> <PUBCHEM_XREF_EXT_ID>
SCHEMBL16116986

> <PUBCHEM_EXT_DATASOURCE_URL>
https://www.surechembl.org/

> <PUBCHEM_EXT_SUBSTANCE_URL>
https://www.surechembl.org/chemical/SCHEMBL16116986

> <PUBCHEM_CID_ASSOCIATIONS>
117606430  1

> <PUBCHEM_COORDINATE_TYPE>
1
3

$$$$
