310929930
  -OEChem-07211613022D

 30 34  0     0  0  0  0  0  0999 V2000
    0.0000   -7.3706    0.0000 O   0  0  0  0  0  0  0  0  0  0  0  0
    1.4382   -7.3706    0.0000 N   0  0  0  0  0  0  0  0  0  0  0  0
    2.8314   -4.8988    0.0000 N   0  0  0  0  0  0  0  0  0  0  0  0
    0.6741   -3.6853    0.0000 N   0  0  0  0  0  0  0  0  0  0  0  0
    2.1573   -7.7751    0.0000 C   0  0  0  0  0  0  0  0  0  0  0  0
    2.8314   -7.3706    0.0000 C   0  0  0  0  0  0  0  0  0  0  0  0
    2.1573   -8.5841    0.0000 C   0  0  0  0  0  0  0  0  0  0  0  0
    2.8314   -6.5167    0.0000 C   0  0  0  0  0  0  0  0  0  0  0  0
    3.5505   -7.7751    0.0000 C   0  0  0  0  0  0  0  0  0  0  0  0
    2.8314   -8.9886    0.0000 C   0  0  0  0  0  0  0  0  0  0  0  0
    1.4382   -8.9886    0.0000 C   0  0  0  0  0  0  0  0  0  0  0  0
    3.5505   -6.1122    0.0000 C   0  0  0  0  0  0  0  0  0  0  0  0
    2.1123   -6.1122    0.0000 C   0  0  0  0  0  0  0  0  0  0  0  0
    0.7191   -7.7751    0.0000 C   0  0  0  0  0  0  0  0  0  0  0  0
    3.5505   -8.5841    0.0000 C   0  0  0  0  0  0  0  0  0  0  0  0
    3.5505   -5.3032    0.0000 C   0  0  0  0  0  0  0  0  0  0  0  0
    2.1123   -5.3032    0.0000 C   0  0  0  0  0  0  0  0  0  0  0  0
    0.7191   -8.5841    0.0000 C   0  0  0  0  0  0  0  0  0  0  0  0
    2.1123   -3.6853    0.0000 C   0  0  0  0  0  0  0  0  0  0  0  0
    1.3483   -2.4718    0.0000 C   0  0  0  0  0  0  0  0  0  0  0  0
    2.8314   -4.0898    0.0000 C   0  0  0  0  0  0  0  0  0  0  0  0
    2.0674   -2.8314    0.0000 C   0  0  0  0  0  0  0  0  0  0  0  0
    1.3483   -1.6179    0.0000 C   0  0  0  0  0  0  0  0  0  0  0  0
    1.3483   -4.0898    0.0000 C   0  0  0  0  0  0  0  0  0  0  0  0
    0.6292   -2.8763    0.0000 C   0  0  0  0  0  0  0  0  0  0  0  0
    0.6741   -1.2135    0.0000 C   0  0  0  0  0  0  0  0  0  0  0  0
    2.0674   -1.2135    0.0000 C   0  0  0  0  0  0  0  0  0  0  0  0
    0.6741   -0.4045    0.0000 C   0  0  0  0  0  0  0  0  0  0  0  0
    2.1123   -0.4045    0.0000 C   0  0  0  0  0  0  0  0  0  0  0  0
    1.3932    0.0000    0.0000 C   0  0  0  0  0  0  0  0  0  0  0  0
  1 14  2  0  0  0  0
  2  5  1  0  0  0  0
  2 14  1  0  0  0  0
  3 16  1  0  0  0  0
  3 17  1  0  0  0  0
  3 21  1  0  0  0  0
  4 24  1  0  0  0  0
  4 25  2  0  0  0  0
  5  6  1  0  0  0  0
  5  7  2  0  0  0  0
  6  8  1  0  0  0  0
  6  9  2  0  0  0  0
  7 10  1  0  0  0  0
  7 11  1  0  0  0  0
  8 12  1  0  0  0  0
  8 13  1  0  0  0  0
  9 15  1  0  0  0  0
 10 15  2  0  0  0  0
 11 18  1  0  0  0  0
 12 16  1  0  0  0  0
 13 17  1  0  0  0  0
 14 18  1  0  0  0  0
 19 21  1  0  0  0  0
 19 22  1  0  0  0  0
 19 24  2  0  0  0  0
 20 22  2  0  0  0  0
 20 23  1  0  0  0  0
 20 25  1  0  0  0  0
 23 26  2  0  0  0  0
 23 27  1  0  0  0  0
 26 28  1  0  0  0  0
 27 29  2  0  0  0  0
 28 30  2  0  0  0  0
 29 30  1  0  0  0  0
M  END
> <PUBCHEM_COMPOUND_ID_TYPE>
0

> <PUBCHEM_TOTAL_CHARGE>
0

> <PUBCHEM_SUBSTANCE_ID>
310929930

> <PUBCHEM_SUBSTANCE_VERSION>
1

> <PUBCHEM_EXT_DATASOURCE_NAME>
4488

> <PUBCHEM_EXT_DATASOURCE_REGID>
SCHEMBL16107151

> <PUBCHEM_SUBSTANCE_COMMENT>
InChI=1S/C26H27N3O/c30-25-10-9-22-7-4-8-24(26(22)28-25)21-11-13-29(14-12-21)18-19-15-23(17-27-16-19)20-5-2-1-3-6-20/h1-8,15-17,21H,9-14,18H2,(H,28,30)
InChIKey=INAGKEAVQNXAID-UHFFFAOYSA-N

> <PUBCHEM_SUBSTANCE_SYNONYM>
SCHEMBL16107151

> <PUBCHEM_XREF_EXT_ID>
SCHEMBL16107151

> <PUBCHEM_EXT_DATASOURCE_URL>
https://www.surechembl.org/

> <PUBCHEM_EXT_SUBSTANCE_URL>
https://www.surechembl.org/chemical/SCHEMBL16107151

> <PUBCHEM_CID_ASSOCIATIONS>
101581309  1

> <PUBCHEM_COORDINATE_TYPE>
1
3

$$$$
