310932296
  -OEChem-07211613022D

 33 37  0     1  0  0  0  0  0999 V2000
    2.6147   -5.0529    0.0000 O   0  0  0  0  0  0  0  0  0  0  0  0
    4.7812   -1.1104    0.0000 O   0  0  0  0  0  0  0  0  0  0  0  0
    4.0668   -4.8229    0.0000 N   0  0  0  0  0  0  0  0  0  0  0  0
    4.7342   -5.3079    0.0000 N   0  0  0  0  0  0  0  0  0  0  0  0
    3.3523   -1.1104    0.0000 N   0  0  0  0  0  0  0  0  0  0  0  0
    4.7812   -3.5854    0.0000 N   0  0  0  0  0  0  0  0  0  0  0  0
    0.6538   -0.6979    0.0000 N   0  0  3  0  0  0  0  0  0  0  0  0
    1.2296   -9.4297    0.0000 N   0  0  0  0  0  0  0  0  0  0  0  0
    3.6543   -6.0925    0.0000 C   0  0  0  0  0  0  0  0  0  0  0  0
    3.3993   -5.3079    0.0000 C   0  0  0  0  0  0  0  0  0  0  0  0
    4.0668   -3.9979    0.0000 C   0  0  0  0  0  0  0  0  0  0  0  0
    3.1693   -6.7599    0.0000 C   0  0  0  0  0  0  0  0  0  0  0  0
    4.4793   -6.0925    0.0000 C   0  0  0  0  0  0  0  0  0  0  0  0
    4.0668   -2.3479    0.0000 C   0  0  0  0  0  0  0  0  0  0  0  0
    4.0668   -1.5229    0.0000 C   0  0  0  0  0  0  0  0  0  0  0  0
    1.9233   -1.1104    0.0000 C   0  0  3  0  0  0  0  0  0  0  0  0
    3.5049   -7.5136    0.0000 C   0  0  0  0  0  0  0  0  0  0  0  0
    1.9233   -0.2854    0.0000 C   0  0  3  0  0  0  0  0  0  0  0  0
    3.3523   -3.5854    0.0000 C   0  0  0  0  0  0  0  0  0  0  0  0
    2.6378   -1.5229    0.0000 C   0  0  0  0  0  0  0  0  0  0  0  0
    2.3489   -6.6737    0.0000 C   0  0  0  0  0  0  0  0  0  0  0  0
    4.7812   -2.7604    0.0000 C   0  0  0  0  0  0  0  0  0  0  0  0
    3.3523   -2.7604    0.0000 C   0  0  0  0  0  0  0  0  0  0  0  0
    3.3523   -0.2854    0.0000 C   0  0  0  0  0  0  0  0  0  0  0  0
    1.1387   -1.3654    0.0000 C   0  0  0  0  0  0  0  0  0  0  0  0
    2.6378    0.1271    0.0000 C   0  0  0  0  0  0  0  0  0  0  0  0
    1.1387   -0.0305    0.0000 C   0  0  0  0  0  0  0  0  0  0  0  0
    3.0200   -8.1810    0.0000 C   0  0  0  0  0  0  0  0  0  0  0  0
    2.1995   -8.0948    0.0000 C   0  0  0  0  0  0  0  0  0  0  0  0
    1.8639   -7.3411    0.0000 C   0  0  0  0  0  0  0  0  0  0  0  0
    4.3254   -7.5998    0.0000 C   0  0  0  0  0  0  0  0  0  0  0  0
    1.7146   -8.7622    0.0000 C   0  0  0  0  0  0  0  0  0  0  0  0
   -0.1712   -0.6979    0.0000 C   0  0  0  0  0  0  0  0  0  0  0  0
  1 10  1  0  0  0  0
  2 15  2  0  0  0  0
  3  4  1  0  0  0  0
  3 10  1  0  0  0  0
  3 11  1  0  0  0  0
  4 13  2  0  0  0  0
  5 15  1  0  0  0  0
  5 20  1  0  0  0  0
  5 24  1  0  0  0  0
  6 11  2  0  0  0  0
  6 22  1  0  0  0  0
  7 25  1  0  0  0  0
  7 27  1  0  0  0  0
  7 33  1  0  0  0  0
  8 32  3  0  0  0  0
  9 10  2  0  0  0  0
  9 12  1  0  0  0  0
  9 13  1  0  0  0  0
 11 19  1  0  0  0  0
 12 17  2  0  0  0  0
 12 21  1  0  0  0  0
 14 15  1  0  0  0  0
 14 22  2  0  0  0  0
 14 23  1  0  0  0  0
 16 18  1  0  0  0  0
 16 20  1  0  0  0  0
 16 25  1  6  0  0  0
 17 28  1  0  0  0  0
 17 31  1  0  0  0  0
 18 26  1  0  0  0  0
 18 27  1  1  0  0  0
 19 23  2  0  0  0  0
 21 30  2  0  0  0  0
 24 26  1  0  0  0  0
 28 29  2  0  0  0  0
 29 30  1  0  0  0  0
 29 32  1  0  0  0  0
M  END
> <PUBCHEM_COMPOUND_ID_TYPE>
0

> <PUBCHEM_TOTAL_CHARGE>
0

> <PUBCHEM_SUBSTANCE_ID>
310932296

> <PUBCHEM_SUBSTANCE_VERSION>
1

> <PUBCHEM_EXT_DATASOURCE_NAME>
4488

> <PUBCHEM_EXT_DATASOURCE_REGID>
SCHEMBL16109660

> <PUBCHEM_SUBSTANCE_COMMENT>
InChI=1S/C25H26N6O2/c1-16-9-17(10-26)3-5-21(16)22-12-28-31(25(22)33)23-6-4-18(11-27-23)24(32)30-8-7-19-13-29(2)14-20(19)15-30/h3-6,9,11-12,19-20,33H,7-8,13-15H2,1-2H3/t19-,20+/m1/s1
InChIKey=CBWZZQYCIXCZHB-UXHICEINSA-N

> <PUBCHEM_SUBSTANCE_SYNONYM>
SCHEMBL16109660

> <PUBCHEM_XREF_EXT_ID>
SCHEMBL16109660

> <PUBCHEM_EXT_DATASOURCE_URL>
https://www.surechembl.org/

> <PUBCHEM_EXT_SUBSTANCE_URL>
https://www.surechembl.org/chemical/SCHEMBL16109660

> <PUBCHEM_CID_ASSOCIATIONS>
117600856  1

> <PUBCHEM_COORDINATE_TYPE>
1
3

> <PUBCHEM_BONDANNOTATIONS>
16  25  6
18  27  5

$$$$
