310948288
  -OEChem-07211613022D

 43 48  0     0  0  0  0  0  0999 V2000
    3.9705   -2.0290    0.0000 S   0  0  0  0  0  0  0  0  0  0  0  0
    4.4252    1.6966    0.0000 F   0  0  0  0  0  0  0  0  0  0  0  0
    4.3553    0.8746    0.0000 F   0  0  0  0  0  0  0  0  0  0  0  0
   -3.6731    0.9445    0.0000 F   0  0  0  0  0  0  0  0  0  0  0  0
   -2.8510    0.9445    0.0000 F   0  0  0  0  0  0  0  0  0  0  0  0
    3.0084    0.8395    0.0000 O   0  0  0  0  0  0  0  0  0  0  0  0
    3.4282    2.1164    0.0000 O   0  0  0  0  0  0  0  0  0  0  0  0
   -4.6875    0.2099    0.0000 O   0  0  0  0  0  0  0  0  0  0  0  0
    4.6875   -1.6091    0.0000 O   0  0  0  0  0  0  0  0  0  0  0  0
    3.2533   -2.4312    0.0000 O   0  0  0  0  0  0  0  0  0  0  0  0
   -0.1749    0.8395    0.0000 N   0  0  0  0  0  0  0  0  0  0  0  0
   -1.7141   -1.2419    0.0000 N   0  0  0  0  0  0  0  0  0  0  0  0
   -0.9795    0.9270    0.0000 N   0  0  0  0  0  0  0  0  0  0  0  0
   -2.5012   -0.9970    0.0000 N   0  0  0  0  0  0  0  0  0  0  0  0
   -1.1719    1.7490    0.0000 N   0  0  0  0  0  0  0  0  0  0  0  0
    0.2449    0.1399    0.0000 C   0  0  0  0  0  0  0  0  0  0  0  0
   -0.1574   -0.5947    0.0000 C   0  0  0  0  0  0  0  0  0  0  0  0
    0.1749    1.6091    0.0000 C   0  0  0  0  0  0  0  0  0  0  0  0
   -1.2419   -0.5772    0.0000 C   0  0  0  0  0  0  0  0  0  0  0  0
    0.9620    1.8016    0.0000 C   0  0  0  0  0  0  0  0  0  0  0  0
    2.3438    1.3468    0.0000 C   0  0  0  0  0  0  0  0  0  0  0  0
    1.0669    0.1399    0.0000 C   0  0  0  0  0  0  0  0  0  0  0  0
    2.5886    2.1514    0.0000 C   0  0  0  0  0  0  0  0  0  0  0  0
   -2.5187   -0.1924    0.0000 C   0  0  0  0  0  0  0  0  0  0  0  0
    1.4867   -0.5597    0.0000 C   0  0  0  0  0  0  0  0  0  0  0  0
   -1.7490    0.1050    0.0000 C   0  0  0  0  0  0  0  0  0  0  0  0
    1.5392    1.1894    0.0000 C   0  0  0  0  0  0  0  0  0  0  0  0
    0.2798   -1.3118    0.0000 C   0  0  0  0  0  0  0  0  0  0  0  0
    3.7081    1.3643    0.0000 C   0  0  0  0  0  0  0  0  0  0  0  0
   -0.4723    2.1514    0.0000 C   0  0  0  0  0  0  0  0  0  0  0  0
   -3.2533    0.2449    0.0000 C   0  0  0  0  0  0  0  0  0  0  0  0
    1.2419    2.5712    0.0000 C   0  0  0  0  0  0  0  0  0  0  0  0
    1.1020   -1.2768    0.0000 C   0  0  0  0  0  0  0  0  0  0  0  0
    2.3263   -0.5597    0.0000 C   0  0  0  0  0  0  0  0  0  0  0  0
    2.0639    2.7286    0.0000 C   0  0  0  0  0  0  0  0  0  0  0  0
    2.7286   -1.2768    0.0000 C   0  0  0  0  0  0  0  0  0  0  0  0
    3.5506   -1.2943    0.0000 C   0  0  0  0  0  0  0  0  0  0  0  0
   -1.4517   -2.0290    0.0000 C   0  0  0  0  0  0  0  0  0  0  0  0
    2.7286    0.1224    0.0000 C   0  0  0  0  0  0  0  0  0  0  0  0
   -3.9529   -0.1924    0.0000 C   0  0  0  0  0  0  0  0  0  0  0  0
    3.9705   -0.5772    0.0000 C   0  0  0  0  0  0  0  0  0  0  0  0
    3.5682    0.1224    0.0000 C   0  0  0  0  0  0  0  0  0  0  0  0
    4.3902   -2.7286    0.0000 C   0  0  0  0  0  0  0  0  0  0  0  0
  1  9  2  0  0  0  0
  1 10  2  0  0  0  0
  1 37  1  0  0  0  0
  1 43  1  0  0  0  0
  2 29  1  0  0  0  0
  3 29  1  0  0  0  0
  4 31  1  0  0  0  0
  5 31  1  0  0  0  0
  6 21  1  0  0  0  0
  6 29  1  0  0  0  0
  7 23  1  0  0  0  0
  7 29  1  0  0  0  0
  8 40  1  0  0  0  0
 11 13  1  0  0  0  0
 11 16  1  0  0  0  0
 11 18  1  0  0  0  0
 12 14  1  0  0  0  0
 12 19  1  0  0  0  0
 12 38  1  0  0  0  0
 13 15  2  0  0  0  0
 14 24  2  0  0  0  0
 15 30  1  0  0  0  0
 16 17  2  0  0  0  0
 16 22  1  0  0  0  0
 17 19  1  0  0  0  0
 17 28  1  0  0  0  0
 18 20  1  0  0  0  0
 18 30  2  0  0  0  0
 19 26  2  0  0  0  0
 20 27  1  0  0  0  0
 20 32  2  0  0  0  0
 21 23  1  0  0  0  0
 21 27  2  0  0  0  0
 22 25  2  0  0  0  0
 23 35  2  0  0  0  0
 24 26  1  0  0  0  0
 24 31  1  0  0  0  0
 25 33  1  0  0  0  0
 25 34  1  0  0  0  0
 28 33  2  0  0  0  0
 31 40  1  0  0  0  0
 32 35  1  0  0  0  0
 34 36  1  0  0  0  0
 34 39  2  0  0  0  0
 36 37  2  0  0  0  0
 37 41  1  0  0  0  0
 39 42  1  0  0  0  0
 41 42  2  0  0  0  0
M  END
> <PUBCHEM_COMPOUND_ID_TYPE>
0

> <PUBCHEM_TOTAL_CHARGE>
0

> <PUBCHEM_SUBSTANCE_ID>
310948288

> <PUBCHEM_SUBSTANCE_VERSION>
1

> <PUBCHEM_EXT_DATASOURCE_NAME>
4488

> <PUBCHEM_EXT_DATASOURCE_REGID>
SCHEMBL16126465

> <PUBCHEM_SUBSTANCE_COMMENT>
InChI=1S/C28H21F4N5O5S/c1-36-21(13-26(34-36)27(29,30)15-38)20-8-6-17(16-4-3-5-19(10-16)43(2,39)40)11-22(20)37-23(14-33-35-37)18-7-9-24-25(12-18)42-28(31,32)41-24/h3-14,38H,15H2,1-2H3
InChIKey=WSBAEAJYIOOXRG-UHFFFAOYSA-N

> <PUBCHEM_SUBSTANCE_SYNONYM>
SCHEMBL16126465

> <PUBCHEM_XREF_EXT_ID>
SCHEMBL16126465

> <PUBCHEM_EXT_DATASOURCE_URL>
https://www.surechembl.org/

> <PUBCHEM_EXT_SUBSTANCE_URL>
https://www.surechembl.org/chemical/SCHEMBL16126465

> <PUBCHEM_CID_ASSOCIATIONS>
86276098  1

> <PUBCHEM_COORDINATE_TYPE>
1
3

$$$$
