310942768
  -OEChem-07211613022D

 42 47  0     1  0  0  0  0  0999 V2000
    1.8882    1.0412    0.0000 O   0  0  0  0  0  0  0  0  0  0  0  0
    2.4010   -1.0412    0.0000 O   0  0  0  0  0  0  0  0  0  0  0  0
    1.1267   -0.9791    0.0000 O   0  0  0  0  0  0  0  0  0  0  0  0
    3.3180    0.7149    0.0000 N   0  0  0  0  0  0  0  0  0  0  0  0
    4.0484   -0.6216    0.0000 N   0  0  0  0  0  0  0  0  0  0  0  0
   -0.3186    0.5905    0.0000 N   0  0  3  0  0  0  0  0  0  0  0  0
    5.5092   -0.5128    0.0000 N   0  0  0  0  0  0  0  0  0  0  0  0
    6.1619    0.7460    0.0000 N   0  0  0  0  0  0  0  0  0  0  0  0
   -2.7430   -0.9014    0.0000 N   0  0  0  0  0  0  0  0  0  0  0  0
   -3.4423   -2.0514    0.0000 N   0  0  0  0  0  0  0  0  0  0  0  0
    2.5098    0.5128    0.0000 C   0  0  3  0  0  0  0  0  0  0  0  0
    3.9863    0.2020    0.0000 C   0  0  0  0  0  0  0  0  0  0  0  0
    4.6856    0.6682    0.0000 C   0  0  0  0  0  0  0  0  0  0  0  0
    2.1835   -0.2332    0.0000 C   0  0  3  0  0  0  0  0  0  0  0  0
    4.4680    1.4453    0.0000 C   0  0  0  0  0  0  0  0  0  0  0  0
    1.1578    0.6216    0.0000 C   0  0  3  0  0  0  0  0  0  0  0  0
    1.3288   -0.1554    0.0000 C   0  0  3  0  0  0  0  0  0  0  0  0
    3.6443    1.4919    0.0000 C   0  0  0  0  0  0  0  0  0  0  0  0
    5.4626    0.2798    0.0000 C   0  0  0  0  0  0  0  0  0  0  0  0
    0.3963    1.0101    0.0000 C   0  0  0  0  0  0  0  0  0  0  0  0
   -0.5361   -0.1865    0.0000 C   0  0  0  0  0  0  0  0  0  0  0  0
    4.8099   -0.9635    0.0000 C   0  0  0  0  0  0  0  0  0  0  0  0
    4.9964    2.0981    0.0000 C   0  0  0  0  0  0  0  0  0  0  0  0
   -0.8315   -1.2899    0.0000 C   0  0  0  0  0  0  0  0  0  0  0  0
   -1.2511   -0.5905    0.0000 C   0  0  0  0  0  0  0  0  0  0  0  0
   -0.1165   -0.8858    0.0000 C   0  0  0  0  0  0  0  0  0  0  0  0
   -1.0801    1.0257    0.0000 C   0  0  0  0  0  0  0  0  0  0  0  0
   -3.5977   -0.7149    0.0000 C   0  0  0  0  0  0  0  0  0  0  0  0
   -4.0173   -1.4453    0.0000 C   0  0  0  0  0  0  0  0  0  0  0  0
   -2.6808   -1.7095    0.0000 C   0  0  0  0  0  0  0  0  0  0  0  0
   -4.8721   -0.0155    0.0000 C   0  0  0  0  0  0  0  0  0  0  0  0
   -4.0329   -0.0311    0.0000 C   0  0  0  0  0  0  0  0  0  0  0  0
   -1.0490   -2.0825    0.0000 C   0  0  0  0  0  0  0  0  0  0  0  0
   -5.3228    0.6994    0.0000 C   0  0  0  0  0  0  0  0  0  0  0  0
   -1.9348   -2.0981    0.0000 C   0  0  0  0  0  0  0  0  0  0  0  0
   -4.8721   -1.4298    0.0000 C   0  0  0  0  0  0  0  0  0  0  0  0
   -5.2762   -0.7149    0.0000 C   0  0  0  0  0  0  0  0  0  0  0  0
   -1.0801    1.8494    0.0000 C   0  0  0  0  0  0  0  0  0  0  0  0
   -1.7794    0.5905    0.0000 C   0  0  0  0  0  0  0  0  0  0  0  0
   -6.1619    0.6682    0.0000 C   0  0  0  0  0  0  0  0  0  0  0  0
   -5.7268    1.3987    0.0000 C   0  0  0  0  0  0  0  0  0  0  0  0
   -4.8876    1.3987    0.0000 C   0  0  0  0  0  0  0  0  0  0  0  0
 11  1  1  1  0  0  0
  1 16  1  0  0  0  0
 14  2  1  6  0  0  0
 17  3  1  6  0  0  0
  4 11  1  0  0  0  0
  4 12  1  0  0  0  0
  4 18  1  0  0  0  0
  5 12  1  0  0  0  0
  5 22  2  0  0  0  0
  6 20  1  0  0  0  0
 21  6  1  1  0  0  0
  6 27  1  0  0  0  0
  7 19  2  0  0  0  0
  7 22  1  0  0  0  0
  8 19  1  0  0  0  0
  9 28  1  0  0  0  0
  9 30  2  0  0  0  0
 10 29  1  0  0  0  0
 10 30  1  0  0  0  0
 11 14  1  0  0  0  0
 12 13  2  0  0  0  0
 13 15  1  0  0  0  0
 13 19  1  0  0  0  0
 14 17  1  0  0  0  0
 15 18  2  0  0  0  0
 15 23  1  0  0  0  0
 16 17  1  0  0  0  0
 16 20  1  1  0  0  0
 21 25  1  0  0  0  0
 21 26  1  0  0  0  0
 24 25  1  0  0  0  0
 24 26  1  0  0  0  0
 24 33  1  6  0  0  0
 27 38  1  0  0  0  0
 27 39  1  0  0  0  0
 28 29  2  0  0  0  0
 28 32  1  0  0  0  0
 29 36  1  0  0  0  0
 30 35  1  0  0  0  0
 31 32  2  0  0  0  0
 31 34  1  0  0  0  0
 31 37  1  0  0  0  0
 33 35  1  0  0  0  0
 34 40  1  0  0  0  0
 34 41  1  0  0  0  0
 34 42  1  0  0  0  0
 36 37  2  0  0  0  0
M  END
> <PUBCHEM_COMPOUND_ID_TYPE>
0

> <PUBCHEM_TOTAL_CHARGE>
0

> <PUBCHEM_SUBSTANCE_ID>
310942768

> <PUBCHEM_SUBSTANCE_VERSION>
1

> <PUBCHEM_EXT_DATASOURCE_NAME>
4488

> <PUBCHEM_EXT_DATASOURCE_REGID>
SCHEMBL16120821

> <PUBCHEM_SUBSTANCE_COMMENT>
InChI=1S/C32H45N7O3/c1-17(2)38(15-24-27(40)28(41)31(42-24)39-14-18(3)26-29(33)34-16-35-30(26)39)21-11-19(12-21)7-10-25-36-22-9-8-20(32(4,5)6)13-23(22)37-25/h8-9,13-14,16-17,19,21,24,27-28,31,40-41H,7,10-12,15H2,1-6H3,(H,36,37)(H2,33,34,35)/t19-,21-,24-,27-,28-,31-/m1/s1
InChIKey=MTTOUFWIXUQGDN-PJFAPDDISA-N

> <PUBCHEM_SUBSTANCE_SYNONYM>
SCHEMBL16120821

> <PUBCHEM_XREF_EXT_ID>
SCHEMBL16120821

> <PUBCHEM_EXT_DATASOURCE_URL>
https://www.surechembl.org/

> <PUBCHEM_EXT_SUBSTANCE_URL>
https://www.surechembl.org/chemical/SCHEMBL16120821

> <PUBCHEM_CID_ASSOCIATIONS>
86274955  1

> <PUBCHEM_COORDINATE_TYPE>
1
3

> <PUBCHEM_BONDANNOTATIONS>
11  1  5
16  20  5
14  2  6
24  33  6
17  3  6
21  6  5

$$$$
