310943671
  -OEChem-07211613022D

 39 42  0     0  0  0  0  0  0999 V2000
    4.2942    2.1268    0.0000 F   0  0  0  0  0  0  0  0  0  0  0  0
    5.3778    1.8196    0.0000 F   0  0  0  0  0  0  0  0  0  0  0  0
    5.0382    0.7359    0.0000 F   0  0  0  0  0  0  0  0  0  0  0  0
    4.6661   -0.2184    0.0000 O   0  0  0  0  0  0  0  0  0  0  0  0
    1.7872    2.2562    0.0000 O   0  0  0  0  0  0  0  0  0  0  0  0
   -5.3778    2.2562    0.0000 O   0  0  0  0  0  0  0  0  0  0  0  0
   -1.0756   -2.6930    0.0000 O   0  0  0  0  0  0  0  0  0  0  0  0
    3.2267   -0.2184    0.0000 N   0  0  0  0  0  0  0  0  0  0  0  0
    1.0756    1.0270    0.0000 N   0  0  0  0  0  0  0  0  0  0  0  0
   -3.2267    0.2022    0.0000 N   0  0  0  0  0  0  0  0  0  0  0  0
   -3.9384    1.4314    0.0000 N   0  0  0  0  0  0  0  0  0  0  0  0
   -0.3478    2.6768    0.0000 N   0  0  0  0  0  0  0  0  0  0  0  0
   -2.4989   -1.0432    0.0000 N   0  0  0  0  0  0  0  0  0  0  0  0
    3.9545    1.0270    0.0000 C   0  0  0  0  0  0  0  0  0  0  0  0
    3.9222    0.2184    0.0000 C   0  0  0  0  0  0  0  0  0  0  0  0
    2.5150    1.0270    0.0000 C   0  0  0  0  0  0  0  0  0  0  0  0
    4.6661    1.4314    0.0000 C   0  0  0  0  0  0  0  0  0  0  0  0
   -1.0756    1.4314    0.0000 C   0  0  0  0  0  0  0  0  0  0  0  0
    3.2267    1.4314    0.0000 C   0  0  0  0  0  0  0  0  0  0  0  0
   -1.7711    1.0270    0.0000 C   0  0  0  0  0  0  0  0  0  0  0  0
    1.7872    1.4152    0.0000 C   0  0  0  0  0  0  0  0  0  0  0  0
    2.5150    0.2022    0.0000 C   0  0  0  0  0  0  0  0  0  0  0  0
    0.3639    1.4476    0.0000 C   0  0  0  0  0  0  0  0  0  0  0  0
   -3.2106    1.0270    0.0000 C   0  0  0  0  0  0  0  0  0  0  0  0
   -1.0594    2.2724    0.0000 C   0  0  0  0  0  0  0  0  0  0  0  0
   -0.3478    1.0270    0.0000 C   0  0  0  0  0  0  0  0  0  0  0  0
   -2.5150    1.4314    0.0000 C   0  0  0  0  0  0  0  0  0  0  0  0
   -1.7872    0.2022    0.0000 C   0  0  0  0  0  0  0  0  0  0  0  0
   -2.4989   -0.2184    0.0000 C   0  0  0  0  0  0  0  0  0  0  0  0
    0.3801    2.2562    0.0000 C   0  0  0  0  0  0  0  0  0  0  0  0
    3.2428   -1.0432    0.0000 C   0  0  0  0  0  0  0  0  0  0  0  0
   -3.9222    2.2562    0.0000 C   0  0  0  0  0  0  0  0  0  0  0  0
   -4.6338    1.0270    0.0000 C   0  0  0  0  0  0  0  0  0  0  0  0
   -1.7711    2.6930    0.0000 C   0  0  0  0  0  0  0  0  0  0  0  0
    3.9707   -1.4476    0.0000 C   0  0  0  0  0  0  0  0  0  0  0  0
   -4.6500    2.6768    0.0000 C   0  0  0  0  0  0  0  0  0  0  0  0
   -5.3617    1.4314    0.0000 C   0  0  0  0  0  0  0  0  0  0  0  0
   -1.7711   -1.4638    0.0000 C   0  0  0  0  0  0  0  0  0  0  0  0
   -1.7711   -2.2886    0.0000 C   0  0  0  0  0  0  0  0  0  0  0  0
  1 17  1  0  0  0  0
  2 17  1  0  0  0  0
  3 17  1  0  0  0  0
  4 15  2  0  0  0  0
  5 21  2  0  0  0  0
  6 36  1  0  0  0  0
  6 37  1  0  0  0  0
  7 39  1  0  0  0  0
  8 15  1  0  0  0  0
  8 22  1  0  0  0  0
  8 31  1  0  0  0  0
  9 21  1  0  0  0  0
  9 23  1  0  0  0  0
 10 24  2  0  0  0  0
 10 29  1  0  0  0  0
 11 24  1  0  0  0  0
 11 32  1  0  0  0  0
 11 33  1  0  0  0  0
 12 25  2  0  0  0  0
 12 30  1  0  0  0  0
 13 29  1  0  0  0  0
 13 38  1  0  0  0  0
 14 15  1  0  0  0  0
 14 17  1  0  0  0  0
 14 19  2  0  0  0  0
 16 19  1  0  0  0  0
 16 21  1  0  0  0  0
 16 22  2  0  0  0  0
 18 20  1  0  0  0  0
 18 25  1  0  0  0  0
 18 26  2  0  0  0  0
 20 27  2  0  0  0  0
 20 28  1  0  0  0  0
 23 26  1  0  0  0  0
 23 30  2  0  0  0  0
 24 27  1  0  0  0  0
 25 34  1  0  0  0  0
 28 29  2  0  0  0  0
 31 35  1  0  0  0  0
 32 36  1  0  0  0  0
 33 37  1  0  0  0  0
 38 39  1  0  0  0  0
M  END
> <PUBCHEM_COMPOUND_ID_TYPE>
0

> <PUBCHEM_TOTAL_CHARGE>
0

> <PUBCHEM_SUBSTANCE_ID>
310943671

> <PUBCHEM_SUBSTANCE_VERSION>
1

> <PUBCHEM_EXT_DATASOURCE_NAME>
4488

> <PUBCHEM_EXT_DATASOURCE_REGID>
SCHEMBL16121739

> <PUBCHEM_SUBSTANCE_COMMENT>
InChI=1S/C26H29F3N6O4/c1-3-34-15-18(10-21(25(34)38)26(27,28)29)24(37)32-19-13-20(16(2)31-14-19)17-11-22(30-4-7-36)33-23(12-17)35-5-8-39-9-6-35/h10-15,36H,3-9H2,1-2H3,(H,30,33)(H,32,37)
InChIKey=SMLZFRASYJHFGO-UHFFFAOYSA-N

> <PUBCHEM_SUBSTANCE_SYNONYM>
SCHEMBL16121739

> <PUBCHEM_XREF_EXT_ID>
SCHEMBL16121739

> <PUBCHEM_EXT_DATASOURCE_URL>
https://www.surechembl.org/

> <PUBCHEM_EXT_SUBSTANCE_URL>
https://www.surechembl.org/chemical/SCHEMBL16121739

> <PUBCHEM_CID_ASSOCIATIONS>
117610060  1

> <PUBCHEM_COORDINATE_TYPE>
1
3

$$$$
