310941786
  -OEChem-07211613022D

 33 39  0     0  0  0  0  0  0999 V2000
    3.0779    1.3918    0.0000 S   0  0  0  0  0  0  0  0  0  0  0  0
   -1.7576    0.1829    0.0000 O   0  0  0  0  0  0  0  0  0  0  0  0
    3.3801    2.1712    0.0000 O   0  0  0  0  0  0  0  0  0  0  0  0
    3.8891    1.5032    0.0000 O   0  0  0  0  0  0  0  0  0  0  0  0
    0.7396    0.5329    0.0000 N   0  0  0  0  0  0  0  0  0  0  0  0
    1.0578   -0.7874    0.0000 N   0  0  0  0  0  0  0  0  0  0  0  0
    2.0440    1.2964    0.0000 N   0  0  0  0  0  0  0  0  0  0  0  0
    1.7736   -0.3420    0.0000 N   0  0  0  0  0  0  0  0  0  0  0  0
    3.5709    0.7396    0.0000 N   0  0  0  0  0  0  0  0  0  0  0  0
   -2.9188   -0.7396    0.0000 C   0  0  0  0  0  0  0  0  0  0  0  0
   -0.5965    1.0737    0.0000 C   0  0  0  0  0  0  0  0  0  0  0  0
    0.4215   -0.2625    0.0000 C   0  0  0  0  0  0  0  0  0  0  0  0
   -0.9305    0.2943    0.0000 C   0  0  0  0  0  0  0  0  0  0  0  0
    1.5668    0.4533    0.0000 C   0  0  0  0  0  0  0  0  0  0  0  0
    0.2307    1.1532    0.0000 C   0  0  0  0  0  0  0  0  0  0  0  0
   -1.1532    1.7418    0.0000 C   0  0  0  0  0  0  0  0  0  0  0  0
   -0.4215   -0.3579    0.0000 C   0  0  0  0  0  0  0  0  0  0  0  0
   -4.3980   -0.3102    0.0000 C   0  0  0  0  0  0  0  0  0  0  0  0
   -4.1913   -1.7100    0.0000 C   0  0  0  0  0  0  0  0  0  0  0  0
   -3.5869   -1.8372    0.0000 C   0  0  0  0  0  0  0  0  0  0  0  0
   -3.4119   -0.0875    0.0000 C   0  0  0  0  0  0  0  0  0  0  0  0
   -2.8075   -1.5350    0.0000 C   0  0  0  0  0  0  0  0  0  0  0  0
   -3.3960   -1.3759    0.0000 C   0  0  0  0  0  0  0  0  0  0  0  0
   -2.0599   -0.5965    0.0000 C   0  0  0  0  0  0  0  0  0  0  0  0
   -4.6844   -1.0418    0.0000 C   0  0  0  0  0  0  0  0  0  0  0  0
   -4.0640   -2.5052    0.0000 C   0  0  0  0  0  0  0  0  0  0  0  0
   -4.0958   -1.2009    0.0000 C   0  0  0  0  0  0  0  0  0  0  0  0
   -1.8690    2.0440    0.0000 C   0  0  0  0  0  0  0  0  0  0  0  0
   -1.2486    2.5052    0.0000 C   0  0  0  0  0  0  0  0  0  0  0  0
    3.3483   -0.0715    0.0000 C   0  0  0  0  0  0  0  0  0  0  0  0
    4.4140    0.7237    0.0000 C   0  0  0  0  0  0  0  0  0  0  0  0
    4.0322   -0.5329    0.0000 C   0  0  0  0  0  0  0  0  0  0  0  0
    4.6844   -0.0557    0.0000 C   0  0  0  0  0  0  0  0  0  0  0  0
  1  3  2  0  0  0  0
  1  4  2  0  0  0  0
  1  7  1  0  0  0  0
  1  9  1  0  0  0  0
  2 13  1  0  0  0  0
  2 24  1  0  0  0  0
  5 12  1  0  0  0  0
  5 14  1  0  0  0  0
  5 15  1  0  0  0  0
  6  8  1  0  0  0  0
  6 12  2  0  0  0  0
  7 14  1  0  0  0  0
  8 14  2  0  0  0  0
  9 30  1  0  0  0  0
  9 31  1  0  0  0  0
 10 21  1  0  0  0  0
 10 22  1  0  0  0  0
 10 23  1  0  0  0  0
 10 24  1  0  0  0  0
 11 13  1  0  0  0  0
 11 15  2  0  0  0  0
 11 16  1  0  0  0  0
 12 17  1  0  0  0  0
 13 17  2  0  0  0  0
 16 28  1  0  0  0  0
 16 29  1  0  0  0  0
 18 21  1  0  0  0  0
 18 25  1  0  0  0  0
 18 27  1  0  0  0  0
 19 23  1  0  0  0  0
 19 25  1  0  0  0  0
 19 26  1  0  0  0  0
 20 22  1  0  0  0  0
 20 26  1  0  0  0  0
 20 27  1  0  0  0  0
 28 29  1  0  0  0  0
 30 32  1  0  0  0  0
 31 33  1  0  0  0  0
 32 33  1  0  0  0  0
M  END
> <PUBCHEM_COMPOUND_ID_TYPE>
0

> <PUBCHEM_TOTAL_CHARGE>
0

> <PUBCHEM_SUBSTANCE_ID>
310941786

> <PUBCHEM_SUBSTANCE_VERSION>
1

> <PUBCHEM_EXT_DATASOURCE_NAME>
4488

> <PUBCHEM_EXT_DATASOURCE_REGID>
SCHEMBL16119817

> <PUBCHEM_SUBSTANCE_COMMENT>
InChI=1S/C24H33N5O3S/c30-33(31,28-5-1-2-6-28)27-23-26-25-22-10-21(20(14-29(22)23)19-3-4-19)32-15-24-11-16-7-17(12-24)9-18(8-16)13-24/h10,14,16-19H,1-9,11-13,15H2,(H,26,27)
InChIKey=RCWRZNYDJMOATI-UHFFFAOYSA-N

> <PUBCHEM_SUBSTANCE_SYNONYM>
SCHEMBL16119817

> <PUBCHEM_XREF_EXT_ID>
SCHEMBL16119817

> <PUBCHEM_EXT_DATASOURCE_URL>
https://www.surechembl.org/

> <PUBCHEM_EXT_SUBSTANCE_URL>
https://www.surechembl.org/chemical/SCHEMBL16119817

> <PUBCHEM_CID_ASSOCIATIONS>
86270137  1

> <PUBCHEM_COORDINATE_TYPE>
1
3

$$$$
