310944609
  -OEChem-07211613022D

 14 14  0     0  0  0  0  0  0999 V2000
    0.0133    1.8560    0.0000 F   0  0  0  0  0  0  0  0  0  0  0  0
    2.1421    1.4169    0.0000 N   0  0  0  0  0  0  0  0  0  0  0  0
   -2.1421    1.3903    0.0000 N   0  0  0  0  0  0  0  0  0  0  0  0
    0.0000    1.0311    0.0000 C   0  0  0  0  0  0  0  0  0  0  0  0
    0.7051    0.6187    0.0000 C   0  0  0  0  0  0  0  0  0  0  0  0
   -0.7051    0.6320    0.0000 C   0  0  0  0  0  0  0  0  0  0  0  0
    0.0000   -0.5920    0.0000 C   0  0  0  0  0  0  0  0  0  0  0  0
    0.6918   -0.2062    0.0000 C   0  0  0  0  0  0  0  0  0  0  0  0
   -0.7051   -0.1929    0.0000 C   0  0  0  0  0  0  0  0  0  0  0  0
   -0.0133   -1.4169    0.0000 C   0  0  0  0  0  0  0  0  0  0  0  0
    1.4369    1.0311    0.0000 C   0  0  0  0  0  0  0  0  0  0  0  0
   -1.4369    1.0311    0.0000 C   0  0  0  0  0  0  0  0  0  0  0  0
   -0.7184   -1.8560    0.0000 C   0  0  0  0  0  0  0  0  0  0  0  0
    0.7184   -1.8427    0.0000 C   0  0  0  0  0  0  0  0  0  0  0  0
  1  4  1  0  0  0  0
  2 11  3  0  0  0  0
  3 12  3  0  0  0  0
  4  5  2  0  0  0  0
  4  6  1  0  0  0  0
  5  8  1  0  0  0  0
  5 11  1  0  0  0  0
  6  9  2  0  0  0  0
  6 12  1  0  0  0  0
  7  8  2  0  0  0  0
  7  9  1  0  0  0  0
  7 10  1  0  0  0  0
 10 13  1  0  0  0  0
 10 14  1  0  0  0  0
M  END
> <PUBCHEM_COMPOUND_ID_TYPE>
0

> <PUBCHEM_TOTAL_CHARGE>
0

> <PUBCHEM_SUBSTANCE_ID>
310944609

> <PUBCHEM_SUBSTANCE_VERSION>
1

> <PUBCHEM_EXT_DATASOURCE_NAME>
4488

> <PUBCHEM_EXT_DATASOURCE_REGID>
SCHEMBL16122687

> <PUBCHEM_SUBSTANCE_COMMENT>
InChI=1S/C11H9FN2/c1-7(2)8-3-9(5-13)11(12)10(4-8)6-14/h3-4,7H,1-2H3
InChIKey=CFFTWINZWXEUSG-UHFFFAOYSA-N

> <PUBCHEM_SUBSTANCE_SYNONYM>
SCHEMBL16122687

> <PUBCHEM_XREF_EXT_ID>
SCHEMBL16122687

> <PUBCHEM_EXT_DATASOURCE_URL>
https://www.surechembl.org/

> <PUBCHEM_EXT_SUBSTANCE_URL>
https://www.surechembl.org/chemical/SCHEMBL16122687

> <PUBCHEM_CID_ASSOCIATIONS>
117610839  1

> <PUBCHEM_COORDINATE_TYPE>
1
3

$$$$
