310940365
  -OEChem-07211613022D

 29 31  0     0  0  0  0  0  0999 V2000
   -4.2320    0.2510    0.0000 F   0  0  0  0  0  0  0  0  0  0  0  0
   -3.7858    1.2968    0.0000 F   0  0  0  0  0  0  0  0  0  0  0  0
   -2.7261    0.8366    0.0000 F   0  0  0  0  0  0  0  0  0  0  0  0
    2.6145    1.9661    0.0000 F   0  0  0  0  0  0  0  0  0  0  0  0
    3.4232    2.7748    0.0000 F   0  0  0  0  0  0  0  0  0  0  0  0
    4.2320    1.9661    0.0000 F   0  0  0  0  0  0  0  0  0  0  0  0
    0.4810   -1.4502    0.0000 O   0  0  0  0  0  0  0  0  0  0  0  0
   -1.2341   -1.2131    0.0000 N   0  0  0  0  0  0  0  0  0  0  0  0
    1.9731   -0.5299    0.0000 N   0  0  0  0  0  0  0  0  0  0  0  0
   -3.1862   -0.1952    0.0000 C   0  0  0  0  0  0  0  0  0  0  0  0
    3.4232    1.1295    0.0000 C   0  0  0  0  0  0  0  0  0  0  0  0
   -3.4790    0.5578    0.0000 C   0  0  0  0  0  0  0  0  0  0  0  0
    3.4232    1.9661    0.0000 C   0  0  0  0  0  0  0  0  0  0  0  0
   -2.0568   -1.1016    0.0000 C   0  0  0  0  0  0  0  0  0  0  0  0
    2.7121   -0.1255    0.0000 C   0  0  0  0  0  0  0  0  0  0  0  0
   -2.3635   -0.3486    0.0000 C   0  0  0  0  0  0  0  0  0  0  0  0
    2.7121    0.7112    0.0000 C   0  0  0  0  0  0  0  0  0  0  0  0
   -0.0627   -2.0776    0.0000 C   0  0  0  0  0  0  0  0  0  0  0  0
    1.2619   -1.7709    0.0000 C   0  0  0  0  0  0  0  0  0  0  0  0
   -3.7021   -0.8646    0.0000 C   0  0  0  0  0  0  0  0  0  0  0  0
    4.1483    0.7112    0.0000 C   0  0  0  0  0  0  0  0  0  0  0  0
   -0.8994   -1.9661    0.0000 C   0  0  0  0  0  0  0  0  0  0  0  0
    1.9731   -1.3665    0.0000 C   0  0  0  0  0  0  0  0  0  0  0  0
   -2.6005   -1.7709    0.0000 C   0  0  0  0  0  0  0  0  0  0  0  0
    3.4372   -0.5159    0.0000 C   0  0  0  0  0  0  0  0  0  0  0  0
    0.3417   -2.7748    0.0000 C   0  0  0  0  0  0  0  0  0  0  0  0
    1.1643   -2.6215    0.0000 C   0  0  0  0  0  0  0  0  0  0  0  0
   -3.4093   -1.6314    0.0000 C   0  0  0  0  0  0  0  0  0  0  0  0
    4.1483   -0.1115    0.0000 C   0  0  0  0  0  0  0  0  0  0  0  0
  1 12  1  0  0  0  0
  2 12  1  0  0  0  0
  3 12  1  0  0  0  0
  4 13  1  0  0  0  0
  5 13  1  0  0  0  0
  6 13  1  0  0  0  0
  7 18  1  0  0  0  0
  7 19  1  0  0  0  0
  8 14  1  0  0  0  0
  8 22  2  0  0  0  0
  9 15  1  0  0  0  0
  9 23  2  0  0  0  0
 10 12  1  0  0  0  0
 10 16  1  0  0  0  0
 10 20  2  0  0  0  0
 11 13  1  0  0  0  0
 11 17  2  0  0  0  0
 11 21  1  0  0  0  0
 14 16  2  0  0  0  0
 14 24  1  0  0  0  0
 15 17  1  0  0  0  0
 15 25  2  0  0  0  0
 18 22  1  0  0  0  0
 18 26  2  0  0  0  0
 19 23  1  0  0  0  0
 19 27  2  0  0  0  0
 20 28  1  0  0  0  0
 21 29  2  0  0  0  0
 24 28  2  0  0  0  0
 25 29  1  0  0  0  0
 26 27  1  0  0  0  0
M  END
> <PUBCHEM_COMPOUND_ID_TYPE>
0

> <PUBCHEM_TOTAL_CHARGE>
0

> <PUBCHEM_SUBSTANCE_ID>
310940365

> <PUBCHEM_SUBSTANCE_VERSION>
1

> <PUBCHEM_EXT_DATASOURCE_NAME>
4488

> <PUBCHEM_EXT_DATASOURCE_REGID>
SCHEMBL16118309

> <PUBCHEM_SUBSTANCE_COMMENT>
InChI=1S/C20H12F6N2O/c21-19(22,23)13-3-1-5-15(9-13)27-11-17-7-8-18(29-17)12-28-16-6-2-4-14(10-16)20(24,25)26/h1-12H/b27-11+,28-12+
InChIKey=JVWZZAHKYIQPMY-NXMZODBASA-N

> <PUBCHEM_SUBSTANCE_SYNONYM>
SCHEMBL16118309

> <PUBCHEM_XREF_EXT_ID>
SCHEMBL16118309

> <PUBCHEM_EXT_DATASOURCE_URL>
https://www.surechembl.org/

> <PUBCHEM_EXT_SUBSTANCE_URL>
https://www.surechembl.org/chemical/SCHEMBL16118309

> <PUBCHEM_CID_ASSOCIATIONS>
117607405  1

> <PUBCHEM_COORDINATE_TYPE>
1
3

> <PUBCHEM_BONDANNOTATIONS>
8  14  3
9  15  3

$$$$
