310946210
  -OEChem-07211613022D

 17 18  0     0  0  0  0  0  0999 V2000
   -1.0710   -0.2254    0.0000 O   0  0  0  0  0  0  0  0  0  0  0  0
   -1.7975    1.0271    0.0000 O   0  0  0  0  0  0  0  0  0  0  0  0
    0.3194   -0.2130    0.0000 C   0  0  0  0  0  0  0  0  0  0  0  0
   -0.3444    0.2130    0.0000 C   0  0  0  0  0  0  0  0  0  0  0  0
    1.0333    0.2004    0.0000 C   0  0  0  0  0  0  0  0  0  0  0  0
    1.7599   -0.2004    0.0000 C   0  0  0  0  0  0  0  0  0  0  0  0
    0.3194   -1.0396    0.0000 C   0  0  0  0  0  0  0  0  0  0  0  0
    1.0459    1.0396    0.0000 C   0  0  0  0  0  0  0  0  0  0  0  0
    1.7599   -1.0396    0.0000 C   0  0  0  0  0  0  0  0  0  0  0  0
    1.0459   -1.4530    0.0000 C   0  0  0  0  0  0  0  0  0  0  0  0
    2.4738    0.2130    0.0000 C   0  0  0  0  0  0  0  0  0  0  0  0
   -0.7453    0.9019    0.0000 C   0  0  0  0  0  0  0  0  0  0  0  0
    0.0814    0.9144    0.0000 C   0  0  0  0  0  0  0  0  0  0  0  0
   -1.7975    0.1879    0.0000 C   0  0  0  0  0  0  0  0  0  0  0  0
    1.7724    1.4530    0.0000 C   0  0  0  0  0  0  0  0  0  0  0  0
    2.4738    1.0396    0.0000 C   0  0  0  0  0  0  0  0  0  0  0  0
   -2.4738   -0.2380    0.0000 C   0  0  0  0  0  0  0  0  0  0  0  0
  1  4  1  0  0  0  0
  1 14  1  0  0  0  0
  2 14  2  0  0  0  0
  3  4  1  0  0  0  0
  3  5  1  0  0  0  0
  3  7  2  0  0  0  0
  4 12  1  0  0  0  0
  4 13  1  0  0  0  0
  5  6  2  0  0  0  0
  5  8  1  0  0  0  0
  6  9  1  0  0  0  0
  6 11  1  0  0  0  0
  7 10  1  0  0  0  0
  8 15  2  0  0  0  0
  9 10  2  0  0  0  0
 11 16  2  0  0  0  0
 14 17  1  0  0  0  0
 15 16  1  0  0  0  0
M  END
> <PUBCHEM_COMPOUND_ID_TYPE>
0

> <PUBCHEM_TOTAL_CHARGE>
0

> <PUBCHEM_SUBSTANCE_ID>
310946210

> <PUBCHEM_SUBSTANCE_VERSION>
1

> <PUBCHEM_EXT_DATASOURCE_NAME>
4488

> <PUBCHEM_EXT_DATASOURCE_REGID>
SCHEMBL16124322

> <PUBCHEM_SUBSTANCE_COMMENT>
InChI=1S/C15H16O2/c1-11(16)17-15(2,3)14-10-6-8-12-7-4-5-9-13(12)14/h4-10H,1-3H3
InChIKey=CHEPAAGCPWYTCM-UHFFFAOYSA-N

> <PUBCHEM_SUBSTANCE_SYNONYM>
SCHEMBL16124322

> <PUBCHEM_XREF_EXT_ID>
SCHEMBL16124322

> <PUBCHEM_EXT_DATASOURCE_URL>
https://www.surechembl.org/

> <PUBCHEM_EXT_SUBSTANCE_URL>
https://www.surechembl.org/chemical/SCHEMBL16124322

> <PUBCHEM_CID_ASSOCIATIONS>
53720915  1

> <PUBCHEM_COORDINATE_TYPE>
1
3

$$$$
