310947782
  -OEChem-07211613022D

 23 24  0     1  0  0  0  0  0999 V2000
    3.6083   -1.2940    0.0000 S   0  0  0  0  0  0  0  0  0  0  0  0
   -1.5429    1.1945    0.0000 O   0  0  0  0  0  0  0  0  0  0  0  0
    2.7622   -1.2940    0.0000 O   0  0  0  0  0  0  0  0  0  0  0  0
   -0.0996    2.0157    0.0000 O   0  0  0  0  0  0  0  0  0  0  0  0
   -0.0996   -1.2940    0.0000 O   0  0  0  0  0  0  0  0  0  0  0  0
    4.0064   -0.5848    0.0000 O   0  0  0  0  0  0  0  0  0  0  0  0
    4.0064   -2.0157    0.0000 O   0  0  0  0  0  0  0  0  0  0  0  0
    4.4296   -1.2940    0.0000 O   0  0  0  0  0  0  0  0  0  0  0  0
    0.6346   -0.0498    0.0000 N   0  0  0  0  0  0  0  0  0  0  0  0
   -0.8088    0.7838    0.0000 N   0  0  0  0  0  0  0  0  0  0  0  0
    2.0654   -0.8834    0.0000 N   0  0  0  0  0  0  0  0  0  0  0  0
   -3.5088    1.5801    0.0000 N   0  0  0  0  0  0  0  0  0  0  0  0
    0.6346    0.7714    0.0000 C   0  0  3  0  0  0  0  0  0  0  0  0
   -2.2645    0.7714    0.0000 C   0  0  3  0  0  0  0  0  0  0  0  0
   -3.0360    0.9829    0.0000 C   0  0  3  0  0  0  0  0  0  0  0  0
   -0.1369    1.1696    0.0000 C   0  0  0  0  0  0  0  0  0  0  0  0
    0.6346   -0.8585    0.0000 C   0  0  0  0  0  0  0  0  0  0  0  0
   -2.8245    0.1991    0.0000 C   0  0  0  0  0  0  0  0  0  0  0  0
    1.3562   -0.4603    0.0000 C   0  0  0  0  0  0  0  0  0  0  0  0
    1.3438    1.1945    0.0000 C   0  0  0  0  0  0  0  0  0  0  0  0
    2.0529   -0.0622    0.0000 C   0  0  0  0  0  0  0  0  0  0  0  0
    2.0654    0.7714    0.0000 C   0  0  0  0  0  0  0  0  0  0  0  0
   -4.4296    1.3686    0.0000 C   0  0  0  0  0  0  0  0  0  0  0  0
  1  3  1  0  0  0  0
  1  6  2  0  0  0  0
  1  7  2  0  0  0  0
  1  8  1  0  0  0  0
  2 10  1  0  0  0  0
  2 14  1  0  0  0  0
  3 11  1  0  0  0  0
  4 16  2  0  0  0  0
  5 17  2  0  0  0  0
  9 13  1  0  0  0  0
  9 17  1  0  0  0  0
  9 19  1  0  0  0  0
 10 16  1  0  0  0  0
 11 17  1  0  0  0  0
 12 15  1  0  0  0  0
 12 23  1  0  0  0  0
 13 16  1  6  0  0  0
 13 20  1  0  0  0  0
 14 15  1  0  0  0  0
 14 18  1  0  0  0  0
 15 18  1  0  0  0  0
 19 21  1  0  0  0  0
 20 22  1  0  0  0  0
 21 22  1  0  0  0  0
M  END
> <PUBCHEM_COMPOUND_ID_TYPE>
0

> <PUBCHEM_TOTAL_CHARGE>
0

> <PUBCHEM_SUBSTANCE_ID>
310947782

> <PUBCHEM_SUBSTANCE_VERSION>
1

> <PUBCHEM_EXT_DATASOURCE_NAME>
4488

> <PUBCHEM_EXT_DATASOURCE_REGID>
SCHEMBL16125954

> <PUBCHEM_SUBSTANCE_COMMENT>
InChI=1S/C11H20N4O7S/c1-12-7-6-9(7)21-13-10(16)8-4-2-3-5-15(8)11(17)14-22-23(18,19)20/h7-9,12H,2-6H2,1H3,(H,13,16)(H,14,17)(H,18,19,20)/t7?,8-,9?/m0/s1
InChIKey=RCRFYCIIHTVZAU-MGURRDGZSA-N

> <PUBCHEM_SUBSTANCE_SYNONYM>
SCHEMBL16125954

> <PUBCHEM_XREF_EXT_ID>
SCHEMBL16125954

> <PUBCHEM_EXT_DATASOURCE_URL>
https://www.surechembl.org/

> <PUBCHEM_EXT_SUBSTANCE_URL>
https://www.surechembl.org/chemical/SCHEMBL16125954

> <PUBCHEM_CID_ASSOCIATIONS>
117613451  1

> <PUBCHEM_COORDINATE_TYPE>
1
3

> <PUBCHEM_BONDANNOTATIONS>
13  16  6

$$$$
