310932566
  -OEChem-07211613022D

 32 35  0     1  0  0  0  0  0999 V2000
   -3.0532   -1.1154    0.0000 O   0  0  0  0  0  0  0  0  0  0  0  0
    2.2178    2.6729    0.0000 O   0  0  0  0  0  0  0  0  0  0  0  0
    3.5414    3.2114    0.0000 O   0  0  0  0  0  0  0  0  0  0  0  0
    1.5392   -1.0201    0.0000 C   0  0  3  0  0  0  0  0  0  0  0  0
    0.7271   -1.1653    0.0000 C   0  0  3  0  0  0  0  0  0  0  0  0
    1.8195   -0.2441    0.0000 C   0  0  3  0  0  0  0  0  0  0  0  0
    0.1953   -0.5346    0.0000 C   0  0  3  0  0  0  0  0  0  0  0  0
    2.6441   -0.2709    0.0000 C   0  0  3  0  0  0  0  0  0  0  0  0
   -0.6168   -0.6798    0.0000 C   0  0  3  0  0  0  0  0  0  0  0  0
    2.1906   -1.5264    0.0000 C   0  0  0  0  0  0  0  0  0  0  0  0
    1.2877    0.3866    0.0000 C   0  0  0  0  0  0  0  0  0  0  0  0
    0.4756    0.2414    0.0000 C   0  0  0  0  0  0  0  0  0  0  0  0
    3.1505    0.3804    0.0000 C   0  0  3  0  0  0  0  0  0  0  0  0
    2.8734   -1.0634    0.0000 C   0  0  0  0  0  0  0  0  0  0  0  0
    0.4468   -1.9412    0.0000 C   0  0  0  0  0  0  0  0  0  0  0  0
   -0.8971   -1.4557    0.0000 C   0  0  3  0  0  0  0  0  0  0  0  0
    2.1794    0.4982    0.0000 C   0  0  0  0  0  0  0  0  0  0  0  0
   -0.3653   -2.0864    0.0000 C   0  0  0  0  0  0  0  0  0  0  0  0
   -1.1486   -0.0491    0.0000 C   0  0  0  0  0  0  0  0  0  0  0  0
   -0.3365    0.0961    0.0000 C   0  0  0  0  0  0  0  0  0  0  0  0
   -1.7092   -1.6009    0.0000 C   0  0  0  0  0  0  0  0  0  0  0  0
    2.8396    1.1446    0.0000 C   0  0  0  0  0  0  0  0  0  0  0  0
    3.9677    0.2675    0.0000 C   0  0  0  0  0  0  0  0  0  0  0  0
   -1.9608   -0.1943    0.0000 C   0  0  0  0  0  0  0  0  0  0  0  0
   -2.2411   -0.9702    0.0000 C   0  0  3  0  0  0  0  0  0  0  0  0
    3.3459    1.7959    0.0000 C   0  0  0  0  0  0  0  0  0  0  0  0
    3.0350    2.5601    0.0000 C   0  0  0  0  0  0  0  0  0  0  0  0
    1.6274   -1.8403    0.0000 H   0  0  0  0  0  0  0  0  0  0  0  0
    1.4426   -1.5761    0.0000 H   0  0  0  0  0  0  0  0  0  0  0  0
   -0.0887    0.2400    0.0000 H   0  0  0  0  0  0  0  0  0  0  0  0
    3.4543   -0.4264    0.0000 H   0  0  0  0  0  0  0  0  0  0  0  0
    2.4211    0.7659    0.0000 H   0  0  0  0  0  0  0  0  0  0  0  0
  1 25  1  0  0  0  0
  2 27  2  0  0  0  0
  3 27  1  0  0  0  0
  4  5  1  0  0  0  0
  4  6  1  0  0  0  0
  4 10  1  0  0  0  0
  4 28  1  6  0  0  0
  5  7  1  0  0  0  0
  5 15  1  0  0  0  0
  5 29  1  1  0  0  0
  6  8  1  0  0  0  0
  6 11  1  0  0  0  0
  6 17  1  1  0  0  0
  7  9  1  0  0  0  0
  7 12  1  0  0  0  0
  7 30  1  6  0  0  0
  8 13  1  1  0  0  0
  8 14  1  0  0  0  0
  8 31  1  6  0  0  0
  9 16  1  0  0  0  0
  9 19  1  0  0  0  0
  9 20  1  1  0  0  0
 10 14  1  0  0  0  0
 11 12  1  0  0  0  0
 13 22  1  0  0  0  0
 13 23  1  6  0  0  0
 13 32  1  6  0  0  0
 15 18  1  0  0  0  0
 16 18  1  0  0  0  0
 16 21  1  0  0  0  0
 19 24  1  0  0  0  0
 21 25  1  0  0  0  0
 22 26  2  0  0  0  0
 24 25  1  0  0  0  0
 26 27  1  0  0  0  0
M  END
> <PUBCHEM_COMPOUND_ID_TYPE>
0

> <PUBCHEM_TOTAL_CHARGE>
0

> <PUBCHEM_SUBSTANCE_ID>
310932566

> <PUBCHEM_SUBSTANCE_VERSION>
1

> <PUBCHEM_EXT_DATASOURCE_NAME>
4488

> <PUBCHEM_EXT_DATASOURCE_REGID>
SCHEMBL16109943

> <PUBCHEM_SUBSTANCE_COMMENT>
InChI=1S/C24H38O3/c1-15(4-9-22(26)27)19-7-8-20-18-6-5-16-14-17(25)10-12-23(16,2)21(18)11-13-24(19,20)3/h4,9,15-21,25H,5-8,10-14H2,1-3H3,(H,26,27)/t15-,16?,17?,18+,19-,20+,21+,23+,24-/m1/s1
InChIKey=RDDXJZKKQGXAHS-XEAXLUCLSA-N

> <PUBCHEM_SUBSTANCE_SYNONYM>
SCHEMBL16109943

> <PUBCHEM_XREF_EXT_ID>
SCHEMBL16109943

> <PUBCHEM_EXT_DATASOURCE_URL>
https://www.surechembl.org/

> <PUBCHEM_EXT_SUBSTANCE_URL>
https://www.surechembl.org/chemical/SCHEMBL16109943

> <PUBCHEM_CID_ASSOCIATIONS>
117601089  1

> <PUBCHEM_COORDINATE_TYPE>
1
3

> <PUBCHEM_BONDANNOTATIONS>
13  23  6
13  32  6
26  27  3
4  28  6
5  29  5
6  17  5
7  30  6
8  13  5
8  31  6
9  20  5

$$$$
