310949768
  -OEChem-07211613022D

 32 35  0     0  0  0  0  0  0999 V2000
    2.5047    4.6336    0.0000 F   0  0  0  0  0  0  0  0  0  0  0  0
    0.3415   -0.8539    0.0000 N   0  0  0  0  0  0  0  0  0  0  0  0
   -1.0702   -0.8539    0.0000 N   0  0  0  0  0  0  0  0  0  0  0  0
   -0.3643   -2.9031    0.0000 N   0  0  0  0  0  0  0  0  0  0  0  0
   -0.3643    0.5124    0.0000 N   0  0  0  0  0  0  0  0  0  0  0  0
    1.0702   -2.9031    0.0000 N   0  0  0  0  0  0  0  0  0  0  0  0
   -1.7988   -2.0834    0.0000 N   0  0  0  0  0  0  0  0  0  0  0  0
    1.7761   -1.6736    0.0000 N   0  0  0  0  0  0  0  0  0  0  0  0
    0.3415   -4.1327    0.0000 N   0  0  0  0  0  0  0  0  0  0  0  0
   -0.3643    2.1744    0.0000 N   0  0  0  0  0  0  0  0  0  0  0  0
    0.3643   -1.6508    0.0000 C   0  0  0  0  0  0  0  0  0  0  0  0
   -0.3415   -2.0378    0.0000 C   0  0  0  0  0  0  0  0  0  0  0  0
   -1.0702   -1.6508    0.0000 C   0  0  0  0  0  0  0  0  0  0  0  0
   -0.3643   -0.3985    0.0000 C   0  0  0  0  0  0  0  0  0  0  0  0
    1.0929   -2.0378    0.0000 C   0  0  0  0  0  0  0  0  0  0  0  0
    0.3870   -3.2674    0.0000 C   0  0  0  0  0  0  0  0  0  0  0  0
   -1.0474    0.9677    0.0000 C   0  0  0  0  0  0  0  0  0  0  0  0
    0.3643    0.9677    0.0000 C   0  0  0  0  0  0  0  0  0  0  0  0
   -1.0246    1.8102    0.0000 C   0  0  0  0  0  0  0  0  0  0  0  0
    0.3870    1.7646    0.0000 C   0  0  0  0  0  0  0  0  0  0  0  0
   -0.3188    3.0169    0.0000 C   0  0  0  0  0  0  0  0  0  0  0  0
   -2.6868   -1.5370    0.0000 C   0  0  0  0  0  0  0  0  0  0  0  0
    0.3643    3.4269    0.0000 C   0  0  0  0  0  0  0  0  0  0  0  0
    1.1840   -4.6336    0.0000 C   0  0  0  0  0  0  0  0  0  0  0  0
    2.6868   -2.2428    0.0000 C   0  0  0  0  0  0  0  0  0  0  0  0
    1.0929    3.0397    0.0000 C   0  0  0  0  0  0  0  0  0  0  0  0
    0.4098    4.2465    0.0000 C   0  0  0  0  0  0  0  0  0  0  0  0
    1.7988    4.2694    0.0000 C   0  0  0  0  0  0  0  0  0  0  0  0
    1.8899   -4.2237    0.0000 C   0  0  0  0  0  0  0  0  0  0  0  0
    1.7761    3.4269    0.0000 C   0  0  0  0  0  0  0  0  0  0  0  0
    1.0702    4.6564    0.0000 C   0  0  0  0  0  0  0  0  0  0  0  0
    2.6185   -4.6336    0.0000 C   0  0  0  0  0  0  0  0  0  0  0  0
  1 28  1  0  0  0  0
  2 11  1  0  0  0  0
  2 14  2  0  0  0  0
  3 13  2  0  0  0  0
  3 14  1  0  0  0  0
  4 12  1  0  0  0  0
  4 16  2  0  0  0  0
  5 14  1  0  0  0  0
  5 17  1  0  0  0  0
  5 18  1  0  0  0  0
  6 15  2  0  0  0  0
  6 16  1  0  0  0  0
  7 13  1  0  0  0  0
  7 22  1  0  0  0  0
  8 15  1  0  0  0  0
  8 25  1  0  0  0  0
  9 16  1  0  0  0  0
  9 24  1  0  0  0  0
 10 19  1  0  0  0  0
 10 20  1  0  0  0  0
 10 21  1  0  0  0  0
 11 12  2  0  0  0  0
 11 15  1  0  0  0  0
 12 13  1  0  0  0  0
 17 19  1  0  0  0  0
 18 20  1  0  0  0  0
 21 23  1  0  0  0  0
 23 26  2  0  0  0  0
 23 27  1  0  0  0  0
 24 29  1  0  0  0  0
 26 30  1  0  0  0  0
 27 31  2  0  0  0  0
 28 30  2  0  0  0  0
 28 31  1  0  0  0  0
 29 32  1  0  0  0  0
M  END
> <PUBCHEM_COMPOUND_ID_TYPE>
0

> <PUBCHEM_TOTAL_CHARGE>
0

> <PUBCHEM_SUBSTANCE_ID>
310949768

> <PUBCHEM_SUBSTANCE_VERSION>
1

> <PUBCHEM_EXT_DATASOURCE_NAME>
4488

> <PUBCHEM_EXT_DATASOURCE_REGID>
SCHEMBL16127966

> <PUBCHEM_SUBSTANCE_COMMENT>
InChI=1S/C22H30FN9/c1-4-9-26-21-27-17-18(19(24-2)29-21)28-22(30-20(17)25-3)32-12-10-31(11-13-32)14-15-5-7-16(23)8-6-15/h5-8H,4,9-14H2,1-3H3,(H,25,28,30)(H2,24,26,27,29)
InChIKey=QTIYWKOOOGQPDO-UHFFFAOYSA-N

> <PUBCHEM_SUBSTANCE_SYNONYM>
SCHEMBL16127966

> <PUBCHEM_XREF_EXT_ID>
SCHEMBL16127966

> <PUBCHEM_EXT_DATASOURCE_URL>
https://www.surechembl.org/

> <PUBCHEM_EXT_SUBSTANCE_URL>
https://www.surechembl.org/chemical/SCHEMBL16127966

> <PUBCHEM_CID_ASSOCIATIONS>
117615093  1

> <PUBCHEM_COORDINATE_TYPE>
1
3

$$$$
