310932302
  -OEChem-07211613022D

 32 37  0     0  0  0  0  0  0999 V2000
    0.0000   -2.9417    0.0000 Cl  0  0  0  0  0  0  0  0  0  0  0  0
    2.9417   -3.1237    0.0000 N   0  0  0  0  0  0  0  0  0  0  0  0
    3.4269   -3.7909    0.0000 N   0  0  0  0  0  0  0  0  0  0  0  0
    0.7279   -4.2154    0.0000 N   0  0  0  0  0  0  0  0  0  0  0  0
    3.1844   -2.3352    0.0000 C   0  0  0  0  0  0  0  0  0  0  0  0
    2.1532   -3.3663    0.0000 C   0  0  0  0  0  0  0  0  0  0  0  0
    2.1532   -4.2154    0.0000 C   0  0  0  0  0  0  0  0  0  0  0  0
    2.9417   -4.4581    0.0000 C   0  0  0  0  0  0  0  0  0  0  0  0
    3.4573   -1.5467    0.0000 C   0  0  0  0  0  0  0  0  0  0  0  0
    2.3958   -2.0926    0.0000 C   0  0  0  0  0  0  0  0  0  0  0  0
    3.9729   -2.6081    0.0000 C   0  0  0  0  0  0  0  0  0  0  0  0
    3.1844   -5.2466    0.0000 C   0  0  0  0  0  0  0  0  0  0  0  0
    1.4254   -2.9721    0.0000 C   0  0  0  0  0  0  0  0  0  0  0  0
    1.4254   -4.6097    0.0000 C   0  0  0  0  0  0  0  0  0  0  0  0
    1.7893   -2.6385    0.0000 C   0  0  0  0  0  0  0  0  0  0  0  0
    2.8811   -0.9401    0.0000 C   0  0  0  0  0  0  0  0  0  0  0  0
    4.5794   -2.0623    0.0000 C   0  0  0  0  0  0  0  0  0  0  0  0
    4.2458   -1.3951    0.0000 C   0  0  0  0  0  0  0  0  0  0  0  0
    2.2442   -1.3041    0.0000 C   0  0  0  0  0  0  0  0  0  0  0  0
    4.1548   -3.4269    0.0000 C   0  0  0  0  0  0  0  0  0  0  0  0
    3.7909   -5.7925    0.0000 C   0  0  0  0  0  0  0  0  0  0  0  0
    3.0327   -6.0654    0.0000 C   0  0  0  0  0  0  0  0  0  0  0  0
    0.7279   -3.3663    0.0000 C   0  0  0  0  0  0  0  0  0  0  0  0
    1.0008   -2.3958    0.0000 C   0  0  0  0  0  0  0  0  0  0  0  0
    3.1540   -0.1516    0.0000 C   0  0  0  0  0  0  0  0  0  0  0  0
    5.3679   -2.3048    0.0000 C   0  0  0  0  0  0  0  0  0  0  0  0
    4.5187   -0.6066    0.0000 C   0  0  0  0  0  0  0  0  0  0  0  0
    1.4557   -1.0311    0.0000 C   0  0  0  0  0  0  0  0  0  0  0  0
    4.9433   -3.6696    0.0000 C   0  0  0  0  0  0  0  0  0  0  0  0
    0.8188   -1.5770    0.0000 C   0  0  0  0  0  0  0  0  0  0  0  0
    3.9729    0.0000    0.0000 C   0  0  0  0  0  0  0  0  0  0  0  0
    5.5499   -3.1237    0.0000 C   0  0  0  0  0  0  0  0  0  0  0  0
  1 23  1  0  0  0  0
  2  3  1  0  0  0  0
  2  5  1  0  0  0  0
  2  6  1  0  0  0  0
  3  8  2  0  0  0  0
  4 14  1  0  0  0  0
  4 23  2  0  0  0  0
  5  9  1  0  0  0  0
  5 10  1  0  0  0  0
  5 11  1  0  0  0  0
  6  7  1  0  0  0  0
  6 13  2  0  0  0  0
  7  8  1  0  0  0  0
  7 14  2  0  0  0  0
  8 12  1  0  0  0  0
  9 16  2  0  0  0  0
  9 18  1  0  0  0  0
 10 15  2  0  0  0  0
 10 19  1  0  0  0  0
 11 17  2  0  0  0  0
 11 20  1  0  0  0  0
 12 21  1  0  0  0  0
 12 22  1  0  0  0  0
 13 23  1  0  0  0  0
 15 24  1  0  0  0  0
 16 25  1  0  0  0  0
 17 26  1  0  0  0  0
 18 27  2  0  0  0  0
 19 28  2  0  0  0  0
 20 29  2  0  0  0  0
 21 22  1  0  0  0  0
 24 30  2  0  0  0  0
 25 31  2  0  0  0  0
 26 32  2  0  0  0  0
 27 31  1  0  0  0  0
 28 30  1  0  0  0  0
 29 32  1  0  0  0  0
M  END
> <PUBCHEM_COMPOUND_ID_TYPE>
0

> <PUBCHEM_TOTAL_CHARGE>
0

> <PUBCHEM_SUBSTANCE_ID>
310932302

> <PUBCHEM_SUBSTANCE_VERSION>
1

> <PUBCHEM_EXT_DATASOURCE_NAME>
4488

> <PUBCHEM_EXT_DATASOURCE_REGID>
SCHEMBL16109666

> <PUBCHEM_SUBSTANCE_COMMENT>
InChI=1S/C28H22ClN3/c29-26-18-25-24(19-30-26)27(20-16-17-20)31-32(25)28(21-10-4-1-5-11-21,22-12-6-2-7-13-22)23-14-8-3-9-15-23/h1-15,18-20H,16-17H2
InChIKey=IRRDOISQEUDPNQ-UHFFFAOYSA-N

> <PUBCHEM_SUBSTANCE_SYNONYM>
SCHEMBL16109666

> <PUBCHEM_XREF_EXT_ID>
SCHEMBL16109666

> <PUBCHEM_EXT_DATASOURCE_URL>
https://www.surechembl.org/

> <PUBCHEM_EXT_SUBSTANCE_URL>
https://www.surechembl.org/chemical/SCHEMBL16109666

> <PUBCHEM_CID_ASSOCIATIONS>
117600860  1

> <PUBCHEM_COORDINATE_TYPE>
1
3

$$$$
