310940501
  -OEChem-07211613022D

 27 30  0     0  0  0  0  0  0999 V2000
    0.6112    2.3957    0.0000 F   0  0  0  0  0  0  0  0  0  0  0  0
    0.9534    1.3201    0.0000 F   0  0  0  0  0  0  0  0  0  0  0  0
   -0.1385    0.9942    0.0000 F   0  0  0  0  0  0  0  0  0  0  0  0
   -1.2142   -0.7823    0.0000 N   0  0  0  0  0  0  0  0  0  0  0  0
    0.0407   -3.3572    0.0000 N   0  0  0  0  0  0  0  0  0  0  0  0
    1.6379   -1.3527    0.0000 N   0  0  0  0  0  0  0  0  0  0  0  0
   -0.5297   -2.0209    0.0000 C   0  0  0  0  0  0  0  0  0  0  0  0
    0.3015   -1.9557    0.0000 C   0  0  0  0  0  0  0  0  0  0  0  0
   -1.2305   -1.6134    0.0000 C   0  0  0  0  0  0  0  0  0  0  0  0
   -1.2305    1.7112    0.0000 C   0  0  0  0  0  0  0  0  0  0  0  0
    0.6601   -2.6565    0.0000 C   0  0  0  0  0  0  0  0  0  0  0  0
   -0.5133    2.1187    0.0000 C   0  0  0  0  0  0  0  0  0  0  0  0
   -1.2467    0.8801    0.0000 C   0  0  0  0  0  0  0  0  0  0  0  0
    0.2200    1.6949    0.0000 C   0  0  0  0  0  0  0  0  0  0  0  0
   -0.6112   -2.8847    0.0000 C   0  0  0  0  0  0  0  0  0  0  0  0
   -0.5133   -0.3422    0.0000 C   0  0  0  0  0  0  0  0  0  0  0  0
   -1.9476   -0.3586    0.0000 C   0  0  0  0  0  0  0  0  0  0  0  0
   -0.5133    0.4400    0.0000 C   0  0  0  0  0  0  0  0  0  0  0  0
   -1.9312    0.4727    0.0000 C   0  0  0  0  0  0  0  0  0  0  0  0
    0.8067   -1.2712    0.0000 C   0  0  0  0  0  0  0  0  0  0  0  0
   -1.9312    2.1350    0.0000 C   0  0  0  0  0  0  0  0  0  0  0  0
   -0.5133    2.9498    0.0000 C   0  0  0  0  0  0  0  0  0  0  0  0
    1.4749   -2.7868    0.0000 C   0  0  0  0  0  0  0  0  0  0  0  0
   -1.8987   -1.9883    0.0000 C   0  0  0  0  0  0  0  0  0  0  0  0
    1.9476   -2.0861    0.0000 C   0  0  0  0  0  0  0  0  0  0  0  0
   -1.9149    2.9498    0.0000 C   0  0  0  0  0  0  0  0  0  0  0  0
   -1.2305    3.3572    0.0000 C   0  0  0  0  0  0  0  0  0  0  0  0
  1 14  1  0  0  0  0
  2 14  1  0  0  0  0
  3 14  1  0  0  0  0
  4  9  1  0  0  0  0
  4 16  1  0  0  0  0
  4 17  1  0  0  0  0
  5 11  1  0  0  0  0
  5 15  1  0  0  0  0
  6 20  1  0  0  0  0
  6 25  1  0  0  0  0
  7  8  1  0  0  0  0
  7  9  1  0  0  0  0
  7 15  2  0  0  0  0
  8 11  2  0  0  0  0
  8 20  1  0  0  0  0
  9 24  2  0  0  0  0
 10 12  2  0  0  0  0
 10 13  1  0  0  0  0
 10 21  1  0  0  0  0
 11 23  1  0  0  0  0
 12 14  1  0  0  0  0
 12 22  1  0  0  0  0
 13 18  1  0  0  0  0
 13 19  1  0  0  0  0
 16 18  1  0  0  0  0
 17 19  1  0  0  0  0
 21 26  2  0  0  0  0
 22 27  2  0  0  0  0
 23 25  1  0  0  0  0
 26 27  1  0  0  0  0
M  END
> <PUBCHEM_COMPOUND_ID_TYPE>
0

> <PUBCHEM_TOTAL_CHARGE>
0

> <PUBCHEM_SUBSTANCE_ID>
310940501

> <PUBCHEM_SUBSTANCE_VERSION>
1

> <PUBCHEM_EXT_DATASOURCE_NAME>
4488

> <PUBCHEM_EXT_DATASOURCE_REGID>
SCHEMBL16118455

> <PUBCHEM_SUBSTANCE_COMMENT>
InChI=1S/C21H24F3N3/c1-14(17-13-26-20-6-9-25-12-18(17)20)27-10-7-15(8-11-27)16-4-2-3-5-19(16)21(22,23)24/h2-5,13,15,25-26H,1,6-12H2
InChIKey=AFKIHIKJZQAGCY-UHFFFAOYSA-N

> <PUBCHEM_SUBSTANCE_SYNONYM>
SCHEMBL16118455

> <PUBCHEM_XREF_EXT_ID>
SCHEMBL16118455

> <PUBCHEM_EXT_DATASOURCE_URL>
https://www.surechembl.org/

> <PUBCHEM_EXT_SUBSTANCE_URL>
https://www.surechembl.org/chemical/SCHEMBL16118455

> <PUBCHEM_CID_ASSOCIATIONS>
117607516  1

> <PUBCHEM_COORDINATE_TYPE>
1
3

$$$$
