310944026
  -OEChem-07211613022D

 48 55  0     0  0  0  0  0  0999 V2000
    0.0885    2.1666    0.0000 N   0  0  0  0  0  0  0  0  0  0  0  0
    0.0341   -1.1310    0.0000 N   0  0  0  0  0  0  0  0  0  0  0  0
    2.2961    1.6489    0.0000 N   0  0  0  0  0  0  0  0  0  0  0  0
   -2.0781    1.7443    0.0000 N   0  0  0  0  0  0  0  0  0  0  0  0
    0.8108    2.6572    0.0000 C   0  0  0  0  0  0  0  0  0  0  0  0
   -0.5519    2.7118    0.0000 C   0  0  0  0  0  0  0  0  0  0  0  0
    0.0885    1.3627    0.0000 C   0  0  0  0  0  0  0  0  0  0  0  0
    0.5791    3.4612    0.0000 C   0  0  0  0  0  0  0  0  0  0  0  0
   -0.2657    3.4612    0.0000 C   0  0  0  0  0  0  0  0  0  0  0  0
    0.7972    0.9402    0.0000 C   0  0  0  0  0  0  0  0  0  0  0  0
   -0.6337    0.9811    0.0000 C   0  0  0  0  0  0  0  0  0  0  0  0
    0.0477   -0.2726    0.0000 C   0  0  0  0  0  0  0  0  0  0  0  0
   -1.3695    2.5483    0.0000 C   0  0  0  0  0  0  0  0  0  0  0  0
    1.6557    2.4665    0.0000 C   0  0  0  0  0  0  0  0  0  0  0  0
    0.7972    0.1362    0.0000 C   0  0  0  0  0  0  0  0  0  0  0  0
   -0.6337    0.1635    0.0000 C   0  0  0  0  0  0  0  0  0  0  0  0
   -0.8108    4.0744    0.0000 C   0  0  0  0  0  0  0  0  0  0  0  0
    1.1651    4.0335    0.0000 C   0  0  0  0  0  0  0  0  0  0  0  0
    0.7563   -1.5398    0.0000 C   0  0  0  0  0  0  0  0  0  0  0  0
   -0.7018   -1.4854    0.0000 C   0  0  0  0  0  0  0  0  0  0  0  0
    1.5602    1.3082    0.0000 C   0  0  0  0  0  0  0  0  0  0  0  0
   -1.3695    1.3763    0.0000 C   0  0  0  0  0  0  0  0  0  0  0  0
   -1.8873    3.1614    0.0000 C   0  0  0  0  0  0  0  0  0  0  0  0
    2.2007    3.0524    0.0000 C   0  0  0  0  0  0  0  0  0  0  0  0
   -1.6284    3.9246    0.0000 C   0  0  0  0  0  0  0  0  0  0  0  0
    1.9691    3.8428    0.0000 C   0  0  0  0  0  0  0  0  0  0  0  0
    0.7699   -2.3574    0.0000 C   0  0  0  0  0  0  0  0  0  0  0  0
   -1.4240   -1.0765    0.0000 C   0  0  0  0  0  0  0  0  0  0  0  0
    1.5058   -1.1583    0.0000 C   0  0  0  0  0  0  0  0  0  0  0  0
   -0.7290   -2.3302    0.0000 C   0  0  0  0  0  0  0  0  0  0  0  0
    2.2007   -2.3983    0.0000 C   0  0  0  0  0  0  0  0  0  0  0  0
   -2.1599   -2.2893    0.0000 C   0  0  0  0  0  0  0  0  0  0  0  0
    1.4377   -2.7799    0.0000 C   0  0  0  0  0  0  0  0  0  0  0  0
   -2.1326   -1.4717    0.0000 C   0  0  0  0  0  0  0  0  0  0  0  0
    2.2007   -1.5671    0.0000 C   0  0  0  0  0  0  0  0  0  0  0  0
   -1.4513   -2.7118    0.0000 C   0  0  0  0  0  0  0  0  0  0  0  0
    2.9230   -2.8207    0.0000 C   0  0  0  0  0  0  0  0  0  0  0  0
   -2.8957   -2.6845    0.0000 C   0  0  0  0  0  0  0  0  0  0  0  0
    2.9230   -3.6520    0.0000 C   0  0  0  0  0  0  0  0  0  0  0  0
   -3.6043   -2.2620    0.0000 C   0  0  0  0  0  0  0  0  0  0  0  0
    3.6316   -2.4529    0.0000 C   0  0  0  0  0  0  0  0  0  0  0  0
   -2.9094   -3.5158    0.0000 C   0  0  0  0  0  0  0  0  0  0  0  0
    3.6316   -4.0744    0.0000 C   0  0  0  0  0  0  0  0  0  0  0  0
   -4.3401   -2.6572    0.0000 C   0  0  0  0  0  0  0  0  0  0  0  0
    4.3401   -2.8617    0.0000 C   0  0  0  0  0  0  0  0  0  0  0  0
   -3.6316   -3.8973    0.0000 C   0  0  0  0  0  0  0  0  0  0  0  0
    4.3401   -3.7065    0.0000 C   0  0  0  0  0  0  0  0  0  0  0  0
   -4.3265   -3.4885    0.0000 C   0  0  0  0  0  0  0  0  0  0  0  0
  1  5  1  0  0  0  0
  1  6  1  0  0  0  0
  1  7  1  0  0  0  0
  2 12  1  0  0  0  0
  2 19  1  0  0  0  0
  2 20  1  0  0  0  0
  3 21  3  0  0  0  0
  4 22  3  0  0  0  0
  5  8  2  0  0  0  0
  5 14  1  0  0  0  0
  6  9  2  0  0  0  0
  6 13  1  0  0  0  0
  7 10  2  0  0  0  0
  7 11  1  0  0  0  0
  8  9  1  0  0  0  0
  8 18  1  0  0  0  0
  9 17  1  0  0  0  0
 10 15  1  0  0  0  0
 10 21  1  0  0  0  0
 11 16  2  0  0  0  0
 11 22  1  0  0  0  0
 12 15  2  0  0  0  0
 12 16  1  0  0  0  0
 13 23  2  0  0  0  0
 14 24  2  0  0  0  0
 17 25  2  0  0  0  0
 18 26  2  0  0  0  0
 19 27  2  0  0  0  0
 19 29  1  0  0  0  0
 20 28  2  0  0  0  0
 20 30  1  0  0  0  0
 23 25  1  0  0  0  0
 24 26  1  0  0  0  0
 27 33  1  0  0  0  0
 28 34  1  0  0  0  0
 29 35  2  0  0  0  0
 30 36  2  0  0  0  0
 31 33  2  0  0  0  0
 31 35  1  0  0  0  0
 31 37  1  0  0  0  0
 32 34  2  0  0  0  0
 32 36  1  0  0  0  0
 32 38  1  0  0  0  0
 37 39  2  0  0  0  0
 37 41  1  0  0  0  0
 38 40  2  0  0  0  0
 38 42  1  0  0  0  0
 39 43  1  0  0  0  0
 40 44  1  0  0  0  0
 41 45  2  0  0  0  0
 42 46  2  0  0  0  0
 43 47  2  0  0  0  0
 44 48  2  0  0  0  0
 45 47  1  0  0  0  0
 46 48  1  0  0  0  0
M  END
> <PUBCHEM_COMPOUND_ID_TYPE>
0

> <PUBCHEM_TOTAL_CHARGE>
0

> <PUBCHEM_SUBSTANCE_ID>
310944026

> <PUBCHEM_SUBSTANCE_VERSION>
1

> <PUBCHEM_EXT_DATASOURCE_NAME>
4488

> <PUBCHEM_EXT_DATASOURCE_REGID>
SCHEMBL16122099

> <PUBCHEM_SUBSTANCE_COMMENT>
InChI=1S/C44H28N4/c45-29-35-27-39(28-36(30-46)44(35)48-42-17-9-7-15-40(42)41-16-8-10-18-43(41)48)47(37-23-19-33(20-24-37)31-11-3-1-4-12-31)38-25-21-34(22-26-38)32-13-5-2-6-14-32/h1-28H
InChIKey=ZKGMUIUSRNTXAD-UHFFFAOYSA-N

> <PUBCHEM_SUBSTANCE_SYNONYM>
SCHEMBL16122099

> <PUBCHEM_XREF_EXT_ID>
SCHEMBL16122099

> <PUBCHEM_EXT_DATASOURCE_URL>
https://www.surechembl.org/

> <PUBCHEM_EXT_SUBSTANCE_URL>
https://www.surechembl.org/chemical/SCHEMBL16122099

> <PUBCHEM_CID_ASSOCIATIONS>
117610327  1

> <PUBCHEM_COORDINATE_TYPE>
1
3

$$$$
