310939669
  -OEChem-07211613022D

 33 36  0     1  0  0  0  0  0999 V2000
    0.1636    8.1276    0.0000 O   0  0  0  0  0  0  0  0  0  0  0  0
   -1.4248   11.0152    0.0000 O   0  0  0  0  0  0  0  0  0  0  0  0
   -2.8538   10.1902    0.0000 O   0  0  0  0  0  0  0  0  0  0  0  0
    1.4332   10.1902    0.0000 N   0  0  0  0  0  0  0  0  0  0  0  0
    2.1477    8.9527    0.0000 N   0  0  0  0  0  0  0  0  0  0  0  0
    2.1477   11.4277    0.0000 N   0  0  0  0  0  0  0  0  0  0  0  0
    3.5766   11.4277    0.0000 N   0  0  0  0  0  0  0  0  0  0  0  0
   -4.2827   11.0152    0.0000 N   0  0  0  0  0  0  0  0  0  0  0  0
    2.1477    9.7777    0.0000 C   0  0  0  0  0  0  0  0  0  0  0  0
    2.8622   11.0152    0.0000 C   0  0  0  0  0  0  0  0  0  0  0  0
    2.8622   10.1902    0.0000 C   0  0  0  0  0  0  0  0  0  0  0  0
    1.4332   11.0152    0.0000 C   0  0  0  0  0  0  0  0  0  0  0  0
    0.7188   11.4277    0.0000 C   0  0  0  0  0  0  0  0  0  0  0  0
    1.4332    8.5402    0.0000 C   0  0  3  0  0  0  0  0  0  0  0  0
    0.0042   11.0152    0.0000 C   0  0  0  0  0  0  0  0  0  0  0  0
    0.7188   12.2528    0.0000 C   0  0  0  0  0  0  0  0  0  0  0  0
    3.5766    9.7777    0.0000 C   0  0  0  0  0  0  0  0  0  0  0  0
    4.2912   11.0152    0.0000 C   0  0  0  0  0  0  0  0  0  0  0  0
    3.5766   12.2528    0.0000 C   0  0  0  0  0  0  0  0  0  0  0  0
   -0.7102   11.4277    0.0000 C   0  0  0  0  0  0  0  0  0  0  0  0
    0.6486    8.7952    0.0000 C   0  0  0  0  0  0  0  0  0  0  0  0
    1.4332    7.7152    0.0000 C   0  0  0  0  0  0  0  0  0  0  0  0
    2.8622    8.5402    0.0000 C   0  0  0  0  0  0  0  0  0  0  0  0
    0.0042   12.6652    0.0000 C   0  0  0  0  0  0  0  0  0  0  0  0
   -0.7102   12.2528    0.0000 C   0  0  0  0  0  0  0  0  0  0  0  0
    5.0056   11.4277    0.0000 C   0  0  0  0  0  0  0  0  0  0  0  0
    4.2912   12.6652    0.0000 C   0  0  0  0  0  0  0  0  0  0  0  0
    0.6486    7.4603    0.0000 C   0  0  0  0  0  0  0  0  0  0  0  0
    5.0056   12.2528    0.0000 C   0  0  0  0  0  0  0  0  0  0  0  0
   -2.1392   11.4277    0.0000 C   0  0  0  0  0  0  0  0  0  0  0  0
   -2.8538   11.0152    0.0000 C   0  0  3  0  0  0  0  0  0  0  0  0
   -3.5682   11.4277    0.0000 C   0  0  0  0  0  0  0  0  0  0  0  0
   -4.9972   11.4277    0.0000 C   0  0  0  0  0  0  0  0  0  0  0  0
  1 21  1  0  0  0  0
  1 28  1  0  0  0  0
  2 20  1  0  0  0  0
  2 30  1  0  0  0  0
  3 31  1  0  0  0  0
  4  9  2  0  0  0  0
  4 12  1  0  0  0  0
  5  9  1  0  0  0  0
 14  5  1  1  0  0  0
  5 23  1  0  0  0  0
  6 10  1  0  0  0  0
  6 12  2  0  0  0  0
  7 10  1  0  0  0  0
  7 18  1  0  0  0  0
  7 19  1  0  0  0  0
  8 32  1  0  0  0  0
  8 33  1  0  0  0  0
  9 11  1  0  0  0  0
 10 11  2  0  0  0  0
 11 17  1  0  0  0  0
 12 13  1  0  0  0  0
 13 15  2  0  0  0  0
 13 16  1  0  0  0  0
 14 21  1  0  0  0  0
 14 22  1  0  0  0  0
 15 20  1  0  0  0  0
 16 24  2  0  0  0  0
 18 26  1  0  0  0  0
 19 27  1  0  0  0  0
 20 25  2  0  0  0  0
 22 28  1  0  0  0  0
 24 25  1  0  0  0  0
 26 29  1  0  0  0  0
 27 29  1  0  0  0  0
 30 31  1  0  0  0  0
 31 32  1  0  0  0  0
M  END
> <PUBCHEM_COMPOUND_ID_TYPE>
0

> <PUBCHEM_TOTAL_CHARGE>
0

> <PUBCHEM_SUBSTANCE_ID>
310939669

> <PUBCHEM_SUBSTANCE_VERSION>
1

> <PUBCHEM_EXT_DATASOURCE_NAME>
4488

> <PUBCHEM_EXT_DATASOURCE_REGID>
SCHEMBL16117599

> <PUBCHEM_SUBSTANCE_COMMENT>
InChI=1S/C25H37N5O3/c1-18-24(29(3)20-10-13-32-16-20)27-23(28-25(18)30-11-5-4-6-12-30)19-8-7-9-22(14-19)33-17-21(31)15-26-2/h7-9,14,20-21,26,31H,4-6,10-13,15-17H2,1-3H3/t20-,21?/m0/s1
InChIKey=DOTQLWJHMYVWTO-BGERDNNASA-N

> <PUBCHEM_SUBSTANCE_SYNONYM>
SCHEMBL16117599

> <PUBCHEM_XREF_EXT_ID>
SCHEMBL16117599

> <PUBCHEM_EXT_DATASOURCE_URL>
https://www.surechembl.org/

> <PUBCHEM_EXT_SUBSTANCE_URL>
https://www.surechembl.org/chemical/SCHEMBL16117599

> <PUBCHEM_CID_ASSOCIATIONS>
117606902  1

> <PUBCHEM_COORDINATE_TYPE>
1
3

> <PUBCHEM_BONDANNOTATIONS>
14  5  5

$$$$
