310947948
  -OEChem-07211613022D

 27 29  0     1  0  0  0  0  0999 V2000
    2.6812   -3.7672    0.0000 O   0  0  0  0  0  0  0  0  0  0  0  0
   -1.8563   -1.6238    0.0000 O   0  0  0  0  0  0  0  0  0  0  0  0
   -3.5062   -3.0527    0.0000 O   0  0  0  0  0  0  0  0  0  0  0  0
   -4.3312   -1.6238    0.0000 O   0  0  0  0  0  0  0  0  0  0  0  0
   -1.0313   -3.0527    0.0000 N   0  0  0  0  0  0  0  0  0  0  0  0
    4.3312   -5.1961    0.0000 N   0  0  0  0  0  0  0  0  0  0  0  0
   -3.0938   -0.9093    0.0000 N   0  0  0  0  0  0  0  0  0  0  0  0
   -0.6187   -3.7672    0.0000 C   0  0  0  0  0  0  0  0  0  0  0  0
   -1.8563   -3.0527    0.0000 C   0  0  0  0  0  0  0  0  0  0  0  0
    0.2062   -3.7672    0.0000 C   0  0  0  0  0  0  0  0  0  0  0  0
   -2.2687   -2.3382    0.0000 C   0  0  3  0  0  0  0  0  0  0  0  0
   -3.0938   -2.3382    0.0000 C   0  0  3  0  0  0  0  0  0  0  0  0
    1.8563   -3.7672    0.0000 C   0  0  0  0  0  0  0  0  0  0  0  0
   -1.0313   -4.4816    0.0000 C   0  0  0  0  0  0  0  0  0  0  0  0
   -2.2687   -3.7672    0.0000 C   0  0  0  0  0  0  0  0  0  0  0  0
    0.6187   -3.0527    0.0000 C   0  0  0  0  0  0  0  0  0  0  0  0
    0.6187   -4.4816    0.0000 C   0  0  0  0  0  0  0  0  0  0  0  0
    1.4437   -3.0527    0.0000 C   0  0  0  0  0  0  0  0  0  0  0  0
    1.4437   -4.4816    0.0000 C   0  0  0  0  0  0  0  0  0  0  0  0
   -1.8563   -4.4816    0.0000 C   0  0  0  0  0  0  0  0  0  0  0  0
    3.0938   -4.4816    0.0000 C   0  0  0  0  0  0  0  0  0  0  0  0
   -3.5062   -1.6238    0.0000 C   0  0  0  0  0  0  0  0  0  0  0  0
    3.9187   -4.4816    0.0000 C   0  0  0  0  0  0  0  0  0  0  0  0
    2.6812   -5.1961    0.0000 C   0  0  0  0  0  0  0  0  0  0  0  0
    3.9187   -5.9106    0.0000 C   0  0  0  0  0  0  0  0  0  0  0  0
    3.0938   -5.9106    0.0000 C   0  0  0  0  0  0  0  0  0  0  0  0
    4.3312   -6.6251    0.0000 C   0  0  0  0  0  0  0  0  0  0  0  0
  1 13  1  0  0  0  0
  1 21  1  0  0  0  0
 11  2  1  1  0  0  0
 12  3  1  1  0  0  0
  4 22  2  0  0  0  0
  5  8  2  0  0  0  0
  5  9  1  0  0  0  0
  6 23  2  0  0  0  0
  6 25  1  0  0  0  0
  7 22  1  0  0  0  0
  8 10  1  0  0  0  0
  8 14  1  0  0  0  0
  9 11  1  0  0  0  0
  9 15  2  0  0  0  0
 10 16  2  0  0  0  0
 10 17  1  0  0  0  0
 11 12  1  0  0  0  0
 12 22  1  0  0  0  0
 13 18  2  0  0  0  0
 13 19  1  0  0  0  0
 14 20  2  0  0  0  0
 15 20  1  0  0  0  0
 16 18  1  0  0  0  0
 17 19  2  0  0  0  0
 21 23  1  0  0  0  0
 21 24  2  0  0  0  0
 24 26  1  0  0  0  0
 25 26  2  0  0  0  0
 25 27  1  0  0  0  0
M  END
> <PUBCHEM_COMPOUND_ID_TYPE>
0

> <PUBCHEM_TOTAL_CHARGE>
0

> <PUBCHEM_SUBSTANCE_ID>
310947948

> <PUBCHEM_SUBSTANCE_VERSION>
1

> <PUBCHEM_EXT_DATASOURCE_NAME>
4488

> <PUBCHEM_EXT_DATASOURCE_REGID>
SCHEMBL16126122

> <PUBCHEM_SUBSTANCE_COMMENT>
InChI=1S/C20H19N3O4/c1-12-5-8-15(11-22-12)27-14-9-6-13(7-10-14)16-3-2-4-17(23-16)18(24)19(25)20(21)26/h2-11,18-19,24-25H,1H3,(H2,21,26)/t18-,19+/m0/s1
InChIKey=PNLINSUZSRRGTG-RBUKOAKNSA-N

> <PUBCHEM_SUBSTANCE_SYNONYM>
SCHEMBL16126122

> <PUBCHEM_XREF_EXT_ID>
SCHEMBL16126122

> <PUBCHEM_EXT_DATASOURCE_URL>
https://www.surechembl.org/

> <PUBCHEM_EXT_SUBSTANCE_URL>
https://www.surechembl.org/chemical/SCHEMBL16126122

> <PUBCHEM_CID_ASSOCIATIONS>
117613603  1

> <PUBCHEM_COORDINATE_TYPE>
1
3

> <PUBCHEM_BONDANNOTATIONS>
11  2  5
12  3  5

$$$$
