310941774
  -OEChem-07211613022D

 24 26  0     1  0  0  0  0  0999 V2000
   -2.8724    0.8176    0.0000 F   0  0  0  0  0  0  0  0  0  0  0  0
    2.8724   -2.7178    0.0000 O   0  0  0  0  0  0  0  0  0  0  0  0
    2.7840   -0.2578    0.0000 O   0  0  0  0  0  0  0  0  0  0  0  0
   -0.7365    0.9795    0.0000 N   0  0  0  0  0  0  0  0  0  0  0  0
    0.0000    2.2316    0.0000 N   0  0  0  0  0  0  0  0  0  0  0  0
   -0.0148    1.4804    0.0000 C   0  0  0  0  0  0  0  0  0  0  0  0
    0.7218    1.0680    0.0000 C   0  0  0  0  0  0  0  0  0  0  0  0
   -1.4878    1.4068    0.0000 C   0  0  0  0  0  0  0  0  0  0  0  0
    1.4288   -1.0091    0.0000 C   0  0  0  0  0  0  0  0  0  0  0  0
    2.1506   -1.4215    0.0000 C   0  0  0  0  0  0  0  0  0  0  0  0
   -0.8249    0.2430    0.0000 C   0  0  0  0  0  0  0  0  0  0  0  0
   -2.0475    0.7881    0.0000 C   0  0  3  0  0  0  0  0  0  0  0  0
    0.7071    0.2430    0.0000 C   0  0  0  0  0  0  0  0  0  0  0  0
    1.4288    1.4804    0.0000 C   0  0  0  0  0  0  0  0  0  0  0  0
    2.1359   -2.2464    0.0000 C   0  0  0  0  0  0  0  0  0  0  0  0
   -1.6204    0.0663    0.0000 C   0  0  0  0  0  0  0  0  0  0  0  0
    1.4288   -0.4787    0.0000 C   0  0  0  0  0  0  0  0  0  0  0  0
    0.6923    2.7178    0.0000 C   0  0  0  0  0  0  0  0  0  0  0  0
    1.2079   -0.0368    0.0000 C   0  0  0  0  0  0  0  0  0  0  0  0
    0.7218   -1.4362    0.0000 C   0  0  0  0  0  0  0  0  0  0  0  0
    1.4436    2.3053    0.0000 C   0  0  0  0  0  0  0  0  0  0  0  0
    1.4436   -2.6589    0.0000 C   0  0  0  0  0  0  0  0  0  0  0  0
    2.8577   -1.0091    0.0000 C   0  0  0  0  0  0  0  0  0  0  0  0
    0.7218   -2.2611    0.0000 C   0  0  0  0  0  0  0  0  0  0  0  0
 12  1  1  1  0  0  0
  2 15  1  0  0  0  0
  3 23  2  0  0  0  0
  4  6  1  0  0  0  0
  4  8  1  0  0  0  0
  4 11  1  0  0  0  0
  5  6  2  0  0  0  0
  5 18  1  0  0  0  0
  6  7  1  0  0  0  0
  7 13  1  0  0  0  0
  7 14  2  0  0  0  0
  8 12  1  0  0  0  0
  9 10  1  0  0  0  0
  9 17  1  0  0  0  0
  9 20  2  0  0  0  0
 10 15  2  0  0  0  0
 10 23  1  0  0  0  0
 11 16  1  0  0  0  0
 12 16  1  0  0  0  0
 13 19  1  0  0  0  0
 14 21  1  0  0  0  0
 15 22  1  0  0  0  0
 17 19  1  0  0  0  0
 18 21  2  0  0  0  0
 20 24  1  0  0  0  0
 22 24  2  0  0  0  0
M  END
> <PUBCHEM_COMPOUND_ID_TYPE>
0

> <PUBCHEM_TOTAL_CHARGE>
0

> <PUBCHEM_SUBSTANCE_ID>
310941774

> <PUBCHEM_SUBSTANCE_VERSION>
1

> <PUBCHEM_EXT_DATASOURCE_NAME>
4488

> <PUBCHEM_EXT_DATASOURCE_REGID>
SCHEMBL16119805

> <PUBCHEM_SUBSTANCE_COMMENT>
InChI=1S/C19H21FN2O2/c20-16-9-11-22(12-16)19-15(7-3-10-21-19)6-1-4-14-5-2-8-18(24)17(14)13-23/h2-3,5,7-8,10,13,16,24H,1,4,6,9,11-12H2/t16-/m1/s1
InChIKey=ACOIMJQHJDNFOV-MRXNPFEDSA-N

> <PUBCHEM_SUBSTANCE_SYNONYM>
SCHEMBL16119805

> <PUBCHEM_XREF_EXT_ID>
SCHEMBL16119805

> <PUBCHEM_EXT_DATASOURCE_URL>
https://www.surechembl.org/

> <PUBCHEM_EXT_SUBSTANCE_URL>
https://www.surechembl.org/chemical/SCHEMBL16119805

> <PUBCHEM_CID_ASSOCIATIONS>
117608527  1

> <PUBCHEM_COORDINATE_TYPE>
1
3

> <PUBCHEM_BONDANNOTATIONS>
12  1  5
19  17  3

$$$$
