310948616
  -OEChem-07211613022D

 24 25  0     0  0  0  0  0  0999 V2000
   -0.6902    1.7429    0.0000 S   0  0  0  0  0  0  0  0  0  0  0  0
    0.1464    1.7429    0.0000 O   0  0  0  0  0  0  0  0  0  0  0  0
   -0.7181    0.8645    0.0000 O   0  0  0  0  0  0  0  0  0  0  0  0
   -0.6623    2.6074    0.0000 O   0  0  0  0  0  0  0  0  0  0  0  0
    2.6422   -1.1434    0.0000 O   0  0  0  0  0  0  0  0  0  0  0  0
    1.3874   -1.8684    0.0000 O   0  0  0  0  0  0  0  0  0  0  0  0
   -1.4850    1.7429    0.0000 C   0  0  0  0  0  0  0  0  0  0  0  0
    0.5508    1.0179    0.0000 C   0  0  0  0  0  0  0  0  0  0  0  0
    1.3874   -0.4183    0.0000 C   0  0  0  0  0  0  0  0  0  0  0  0
   -1.8754    1.0736    0.0000 C   0  0  0  0  0  0  0  0  0  0  0  0
   -1.8754    2.4540    0.0000 C   0  0  0  0  0  0  0  0  0  0  0  0
    0.1464    0.3207    0.0000 C   0  0  0  0  0  0  0  0  0  0  0  0
    1.3874    1.0179    0.0000 C   0  0  0  0  0  0  0  0  0  0  0  0
    1.8196   -1.1294    0.0000 C   0  0  0  0  0  0  0  0  0  0  0  0
    0.5508   -0.4043    0.0000 C   0  0  0  0  0  0  0  0  0  0  0  0
    1.8057    0.2928    0.0000 C   0  0  0  0  0  0  0  0  0  0  0  0
   -3.1163    1.7568    0.0000 C   0  0  0  0  0  0  0  0  0  0  0  0
   -2.6981    1.0876    0.0000 C   0  0  0  0  0  0  0  0  0  0  0  0
   -2.6981    2.4680    0.0000 C   0  0  0  0  0  0  0  0  0  0  0  0
    3.0885   -1.8684    0.0000 C   0  0  0  0  0  0  0  0  0  0  0  0
   -3.8971    1.7987    0.0000 C   0  0  0  0  0  0  0  0  0  0  0  0
    3.8971   -1.6592    0.0000 C   0  0  0  0  0  0  0  0  0  0  0  0
    3.6462   -2.4680    0.0000 C   0  0  0  0  0  0  0  0  0  0  0  0
    2.6562   -2.6074    0.0000 C   0  0  0  0  0  0  0  0  0  0  0  0
  1  2  1  0  0  0  0
  1  3  2  0  0  0  0
  1  4  2  0  0  0  0
  1  7  1  0  0  0  0
  8  2  1  6  0  0  0
  5 14  1  0  0  0  0
  5 20  1  0  0  0  0
  6 14  2  0  0  0  0
  7 10  2  0  0  0  0
  7 11  1  0  0  0  0
  8 12  1  0  0  0  0
  8 13  1  0  0  0  0
  9 14  1  1  0  0  0
  9 15  1  0  0  0  0
  9 16  1  0  0  0  0
 10 18  1  0  0  0  0
 11 19  2  0  0  0  0
 12 15  1  0  0  0  0
 13 16  1  0  0  0  0
 17 18  2  0  0  0  0
 17 19  1  0  0  0  0
 17 21  1  0  0  0  0
 20 22  1  0  0  0  0
 20 23  1  0  0  0  0
 20 24  1  0  0  0  0
M  END
> <PUBCHEM_COMPOUND_ID_TYPE>
0

> <PUBCHEM_TOTAL_CHARGE>
0

> <PUBCHEM_SUBSTANCE_ID>
310948616

> <PUBCHEM_SUBSTANCE_VERSION>
1

> <PUBCHEM_EXT_DATASOURCE_NAME>
4488

> <PUBCHEM_EXT_DATASOURCE_REGID>
SCHEMBL16126799

> <PUBCHEM_SUBSTANCE_COMMENT>
InChI=1S/C18H26O5S/c1-13-5-11-16(12-6-13)24(20,21)23-15-9-7-14(8-10-15)17(19)22-18(2,3)4/h5-6,11-12,14-15H,7-10H2,1-4H3/t14-,15-
InChIKey=SWKRNHWAVLWNIJ-SHTZXODSSA-N

> <PUBCHEM_SUBSTANCE_SYNONYM>
SCHEMBL16126799

> <PUBCHEM_XREF_EXT_ID>
SCHEMBL16126799

> <PUBCHEM_EXT_DATASOURCE_URL>
https://www.surechembl.org/

> <PUBCHEM_EXT_SUBSTANCE_URL>
https://www.surechembl.org/chemical/SCHEMBL16126799

> <PUBCHEM_CID_ASSOCIATIONS>
117614160  1

> <PUBCHEM_COORDINATE_TYPE>
1
3

> <PUBCHEM_BONDANNOTATIONS>
8  2  6
9  14  5

$$$$
