310948220
  -OEChem-07211613022D

 47 51  0     0  0  0  0  0  0999 V2000
   -2.6095   -3.1809    0.0000 S   0  0  0  0  0  0  0  0  0  0  0  0
    0.2388   -3.1809    0.0000 F   0  0  0  0  0  0  0  0  0  0  0  0
   -0.9039    4.2383    0.0000 F   0  0  0  0  0  0  0  0  0  0  0  0
    0.2047    4.4088    0.0000 F   0  0  0  0  0  0  0  0  0  0  0  0
    0.3581    3.2832    0.0000 F   0  0  0  0  0  0  0  0  0  0  0  0
    3.2576   -3.0785    0.0000 F   0  0  0  0  0  0  0  0  0  0  0  0
    2.7289   -2.0552    0.0000 F   0  0  0  0  0  0  0  0  0  0  0  0
    2.2172   -3.5561    0.0000 F   0  0  0  0  0  0  0  0  0  0  0  0
    1.5691    1.2195    0.0000 O   0  0  0  0  0  0  0  0  0  0  0  0
   -3.0018   -2.5327    0.0000 O   0  0  0  0  0  0  0  0  0  0  0  0
   -2.2002   -3.8631    0.0000 O   0  0  0  0  0  0  0  0  0  0  0  0
    1.7056   -2.5668    0.0000 O   0  0  0  0  0  0  0  0  0  0  0  0
   -0.4775   -4.4088    0.0000 O   0  0  0  0  0  0  0  0  0  0  0  0
   -1.1939    1.7993    0.0000 N   0  0  0  0  0  0  0  0  0  0  0  0
    0.3581    1.7652    0.0000 N   0  0  0  0  0  0  0  0  0  0  0  0
   -0.4946    2.2940    0.0000 N   0  0  0  0  0  0  0  0  0  0  0  0
   -0.4434    0.5543    0.0000 C   0  0  0  0  0  0  0  0  0  0  0  0
    0.2729    0.9637    0.0000 C   0  0  0  0  0  0  0  0  0  0  0  0
   -1.1939    0.9807    0.0000 C   0  0  0  0  0  0  0  0  0  0  0  0
    1.0233    0.6055    0.0000 C   0  0  0  0  0  0  0  0  0  0  0  0
   -1.1769   -0.7249    0.0000 C   0  0  0  0  0  0  0  0  0  0  0  0
   -0.4434   -0.2985    0.0000 C   0  0  0  0  0  0  0  0  0  0  0  0
   -1.1939   -1.5435    0.0000 C   0  0  0  0  0  0  0  0  0  0  0  0
    1.1598    1.9358    0.0000 C   0  0  0  0  0  0  0  0  0  0  0  0
    1.1939   -0.1449    0.0000 C   0  0  0  0  0  0  0  0  0  0  0  0
   -1.9273    0.5543    0.0000 C   0  0  0  0  0  0  0  0  0  0  0  0
   -1.8931   -2.7545    0.0000 C   0  0  0  0  0  0  0  0  0  0  0  0
   -1.9102   -0.2985    0.0000 C   0  0  0  0  0  0  0  0  0  0  0  0
   -1.1769   -3.1638    0.0000 C   0  0  0  0  0  0  0  0  0  0  0  0
   -1.8761   -1.9529    0.0000 C   0  0  0  0  0  0  0  0  0  0  0  0
   -0.7675    3.0956    0.0000 C   0  0  0  0  0  0  0  0  0  0  0  0
   -0.4775   -1.9529    0.0000 C   0  0  0  0  0  0  0  0  0  0  0  0
   -0.4946   -2.7545    0.0000 C   0  0  0  0  0  0  0  0  0  0  0  0
   -1.8761    2.2940    0.0000 C   0  0  0  0  0  0  0  0  0  0  0  0
    1.5009    2.7033    0.0000 C   0  0  0  0  0  0  0  0  0  0  0  0
   -1.6033    3.1126    0.0000 C   0  0  0  0  0  0  0  0  0  0  0  0
   -0.2729    3.7607    0.0000 C   0  0  0  0  0  0  0  0  0  0  0  0
    0.5969   -0.7078    0.0000 C   0  0  0  0  0  0  0  0  0  0  0  0
    1.9784   -0.4349    0.0000 C   0  0  0  0  0  0  0  0  0  0  0  0
   -1.1769   -3.9824    0.0000 C   0  0  0  0  0  0  0  0  0  0  0  0
    1.5350   -1.7482    0.0000 C   0  0  0  0  0  0  0  0  0  0  0  0
    0.7505   -1.4924    0.0000 C   0  0  0  0  0  0  0  0  0  0  0  0
    2.1319   -1.2195    0.0000 C   0  0  0  0  0  0  0  0  0  0  0  0
   -3.2576   -3.5902    0.0000 C   0  0  0  0  0  0  0  0  0  0  0  0
    1.0745    3.3855    0.0000 C   0  0  0  0  0  0  0  0  0  0  0  0
    2.3195    2.9080    0.0000 C   0  0  0  0  0  0  0  0  0  0  0  0
    2.4901   -2.8227    0.0000 C   0  0  0  0  0  0  0  0  0  0  0  0
  1 10  2  0  0  0  0
  1 11  2  0  0  0  0
  1 27  1  0  0  0  0
  1 44  1  0  0  0  0
  2 33  1  0  0  0  0
  3 37  1  0  0  0  0
  4 37  1  0  0  0  0
  5 37  1  0  0  0  0
  6 47  1  0  0  0  0
  7 47  1  0  0  0  0
  8 47  1  0  0  0  0
  9 20  1  0  0  0  0
  9 24  1  0  0  0  0
 12 41  1  0  0  0  0
 12 47  1  0  0  0  0
 13 40  1  0  0  0  0
 14 16  1  0  0  0  0
 14 19  1  0  0  0  0
 14 34  1  0  0  0  0
 15 18  1  0  0  0  0
 15 24  2  0  0  0  0
 16 31  2  0  0  0  0
 17 18  1  0  0  0  0
 17 19  1  0  0  0  0
 17 22  2  0  0  0  0
 18 20  2  0  0  0  0
 19 26  2  0  0  0  0
 20 25  1  0  0  0  0
 21 22  1  0  0  0  0
 21 23  1  0  0  0  0
 21 28  2  0  0  0  0
 23 30  2  0  0  0  0
 23 32  1  0  0  0  0
 24 35  1  0  0  0  0
 25 38  2  0  0  0  0
 25 39  1  0  0  0  0
 26 28  1  0  0  0  0
 27 29  2  0  0  0  0
 27 30  1  0  0  0  0
 29 33  1  0  0  0  0
 29 40  1  0  0  0  0
 31 36  1  0  0  0  0
 31 37  1  0  0  0  0
 32 33  2  0  0  0  0
 34 36  2  0  0  0  0
 35 45  1  0  0  0  0
 35 46  1  0  0  0  0
 38 42  1  0  0  0  0
 39 43  2  0  0  0  0
 41 42  2  0  0  0  0
 41 43  1  0  0  0  0
M  END
> <PUBCHEM_COMPOUND_ID_TYPE>
0

> <PUBCHEM_TOTAL_CHARGE>
0

> <PUBCHEM_SUBSTANCE_ID>
310948220

> <PUBCHEM_SUBSTANCE_VERSION>
1

> <PUBCHEM_EXT_DATASOURCE_NAME>
4488

> <PUBCHEM_EXT_DATASOURCE_REGID>
SCHEMBL16126397

> <PUBCHEM_SUBSTANCE_COMMENT>
InChI=1S/C31H24F7N3O5S/c1-16(2)29-39-27(28(45-29)17-4-7-20(8-5-17)46-31(36,37)38)21-12-18(6-9-24(21)41-11-10-26(40-41)30(33,34)35)19-13-23(32)22(15-42)25(14-19)47(3,43)44/h4-14,16,42H,15H2,1-3H3
InChIKey=HPKKFBMGMWTSPM-UHFFFAOYSA-N

> <PUBCHEM_SUBSTANCE_SYNONYM>
SCHEMBL16126397

> <PUBCHEM_XREF_EXT_ID>
SCHEMBL16126397

> <PUBCHEM_EXT_DATASOURCE_URL>
https://www.surechembl.org/

> <PUBCHEM_EXT_SUBSTANCE_URL>
https://www.surechembl.org/chemical/SCHEMBL16126397

> <PUBCHEM_CID_ASSOCIATIONS>
117613800  1

> <PUBCHEM_COORDINATE_TYPE>
1
3

$$$$
