310941484
  -OEChem-07211613022D

 29 32  0     1  0  0  0  0  0999 V2000
    1.7232    1.2493    0.0000 O   0  0  0  0  0  0  0  0  0  0  0  0
   -0.9231   -0.6338    0.0000 N   0  0  0  0  0  0  0  0  0  0  0  0
    0.5662   -0.6338    0.0000 N   0  0  0  0  0  0  0  0  0  0  0  0
   -0.2585    0.6707    0.0000 N   0  0  0  0  0  0  0  0  0  0  0  0
   -0.6892   -1.3970    0.0000 C   0  0  3  0  0  0  0  0  0  0  0  0
    0.1354   -1.4216    0.0000 C   0  0  3  0  0  0  0  0  0  0  0  0
   -0.2708   -0.1538    0.0000 C   0  0  0  0  0  0  0  0  0  0  0  0
   -1.2923   -2.1354    0.0000 C   0  0  0  0  0  0  0  0  0  0  0  0
    0.5416   -2.1354    0.0000 C   0  0  0  0  0  0  0  0  0  0  0  0
   -2.0923   -2.0246    0.0000 C   0  0  0  0  0  0  0  0  0  0  0  0
   -0.9847   -2.9108    0.0000 C   0  0  0  0  0  0  0  0  0  0  0  0
   -1.6370   -0.3015    0.0000 C   0  0  0  0  0  0  0  0  0  0  0  0
    0.1231   -2.8493    0.0000 C   0  0  0  0  0  0  0  0  0  0  0  0
    1.3662   -2.1600    0.0000 C   0  0  0  0  0  0  0  0  0  0  0  0
    0.4431    1.0770    0.0000 C   0  0  3  0  0  0  0  0  0  0  0  0
   -2.6339   -2.6647    0.0000 C   0  0  0  0  0  0  0  0  0  0  0  0
   -1.5139   -3.5754    0.0000 C   0  0  0  0  0  0  0  0  0  0  0  0
    0.4308    1.9015    0.0000 C   0  0  0  0  0  0  0  0  0  0  0  0
    0.5293   -3.5754    0.0000 C   0  0  0  0  0  0  0  0  0  0  0  0
    1.7724   -2.8986    0.0000 C   0  0  0  0  0  0  0  0  0  0  0  0
   -2.3262   -3.4646    0.0000 C   0  0  0  0  0  0  0  0  0  0  0  0
    1.1569    0.6707    0.0000 C   0  0  0  0  0  0  0  0  0  0  0  0
    1.3416   -3.6123    0.0000 C   0  0  0  0  0  0  0  0  0  0  0  0
    1.2185    2.3570    0.0000 C   0  0  0  0  0  0  0  0  0  0  0  0
    1.1939    3.1692    0.0000 C   0  0  0  0  0  0  0  0  0  0  0  0
    1.9446    1.9754    0.0000 C   0  0  0  0  0  0  0  0  0  0  0  0
    1.8954    3.6123    0.0000 C   0  0  0  0  0  0  0  0  0  0  0  0
    2.6339    2.4185    0.0000 C   0  0  0  0  0  0  0  0  0  0  0  0
    2.6093    3.2185    0.0000 C   0  0  0  0  0  0  0  0  0  0  0  0
  1 22  1  0  0  0  0
  5  2  1  6  0  0  0
  2  7  1  0  0  0  0
  2 12  1  0  0  0  0
  6  3  1  1  0  0  0
  3  7  1  0  0  0  0
  4  7  2  0  0  0  0
 15  4  1  6  0  0  0
  5  6  1  0  0  0  0
  5  8  1  0  0  0  0
  6  9  1  0  0  0  0
  8 10  2  0  0  0  0
  8 11  1  0  0  0  0
  9 13  2  0  0  0  0
  9 14  1  0  0  0  0
 10 16  1  0  0  0  0
 11 17  2  0  0  0  0
 13 19  1  0  0  0  0
 14 20  2  0  0  0  0
 15 18  1  0  0  0  0
 15 22  1  0  0  0  0
 16 21  2  0  0  0  0
 17 21  1  0  0  0  0
 18 24  1  0  0  0  0
 19 23  2  0  0  0  0
 20 23  1  0  0  0  0
 24 25  2  0  0  0  0
 24 26  1  0  0  0  0
 25 27  1  0  0  0  0
 26 28  2  0  0  0  0
 27 29  2  0  0  0  0
 28 29  1  0  0  0  0
M  END
> <PUBCHEM_COMPOUND_ID_TYPE>
0

> <PUBCHEM_TOTAL_CHARGE>
0

> <PUBCHEM_SUBSTANCE_ID>
310941484

> <PUBCHEM_SUBSTANCE_VERSION>
1

> <PUBCHEM_EXT_DATASOURCE_NAME>
4488

> <PUBCHEM_EXT_DATASOURCE_REGID>
SCHEMBL16119515

> <PUBCHEM_SUBSTANCE_COMMENT>
InChI=1S/C25H27N3O/c1-28-24(21-15-9-4-10-16-21)23(20-13-7-3-8-14-20)27-25(28)26-22(18-29)17-19-11-5-2-6-12-19/h2-16,22-24,29H,17-18H2,1H3,(H,26,27)/t22-,23+,24+/m1/s1
InChIKey=MVELGMCOBCPIED-SGNDLWITSA-N

> <PUBCHEM_SUBSTANCE_SYNONYM>
SCHEMBL16119515

> <PUBCHEM_XREF_EXT_ID>
SCHEMBL16119515

> <PUBCHEM_EXT_DATASOURCE_URL>
https://www.surechembl.org/

> <PUBCHEM_EXT_SUBSTANCE_URL>
https://www.surechembl.org/chemical/SCHEMBL16119515

> <PUBCHEM_CID_ASSOCIATIONS>
90471020  1

> <PUBCHEM_COORDINATE_TYPE>
1
3

> <PUBCHEM_BONDANNOTATIONS>
5  2  6
6  3  5
15  4  6

$$$$
