310929286
  -OEChem-07211613022D

 23 24  0     0  0  0  0  0  0999 V2000
    5.7004    0.0000    0.0000 O   0  0  0  0  0  0  0  0  0  0  0  0
    0.0000   -9.9137    0.0000 O   0  0  0  0  0  0  0  0  0  0  0  0
    4.3125   -0.7931    0.0000 N   0  0  0  0  0  0  0  0  0  0  0  0
    5.0064   -2.0323    0.0000 C   0  0  0  0  0  0  0  0  0  0  0  0
    5.0064   -1.2392    0.0000 C   0  0  0  0  0  0  0  0  0  0  0  0
    4.3125   -2.4784    0.0000 C   0  0  0  0  0  0  0  0  0  0  0  0
    5.7004   -0.7931    0.0000 C   0  0  0  0  0  0  0  0  0  0  0  0
    5.7004   -2.4784    0.0000 C   0  0  0  0  0  0  0  0  0  0  0  0
    3.5689   -2.0323    0.0000 C   0  0  0  0  0  0  0  0  0  0  0  0
    6.4439   -1.2392    0.0000 C   0  0  0  0  0  0  0  0  0  0  0  0
    3.5689   -1.2392    0.0000 C   0  0  0  0  0  0  0  0  0  0  0  0
    6.4439   -2.0323    0.0000 C   0  0  0  0  0  0  0  0  0  0  0  0
    4.3125   -3.2715    0.0000 C   0  0  0  0  0  0  0  0  0  0  0  0
    3.5689   -3.7176    0.0000 C   0  0  0  0  0  0  0  0  0  0  0  0
    3.5689   -4.5108    0.0000 C   0  0  0  0  0  0  0  0  0  0  0  0
    2.8750   -4.9568    0.0000 C   0  0  0  0  0  0  0  0  0  0  0  0
    2.8750   -5.7995    0.0000 C   0  0  0  0  0  0  0  0  0  0  0  0
    2.1810   -6.1961    0.0000 C   0  0  0  0  0  0  0  0  0  0  0  0
    2.1810   -7.0387    0.0000 C   0  0  0  0  0  0  0  0  0  0  0  0
    1.4375   -7.4352    0.0000 C   0  0  0  0  0  0  0  0  0  0  0  0
    1.4375   -8.2779    0.0000 C   0  0  0  0  0  0  0  0  0  0  0  0
    0.7435   -8.6745    0.0000 C   0  0  0  0  0  0  0  0  0  0  0  0
    0.7435   -9.5172    0.0000 C   0  0  0  0  0  0  0  0  0  0  0  0
  1  7  1  0  0  0  0
  2 23  1  0  0  0  0
  3  5  2  0  0  0  0
  3 11  1  0  0  0  0
  4  5  1  0  0  0  0
  4  6  2  0  0  0  0
  4  8  1  0  0  0  0
  5  7  1  0  0  0  0
  6  9  1  0  0  0  0
  6 13  1  0  0  0  0
  7 10  2  0  0  0  0
  8 12  2  0  0  0  0
  9 11  2  0  0  0  0
 10 12  1  0  0  0  0
 13 14  1  0  0  0  0
 14 15  1  0  0  0  0
 15 16  1  0  0  0  0
 16 17  1  0  0  0  0
 17 18  1  0  0  0  0
 18 19  1  0  0  0  0
 19 20  1  0  0  0  0
 20 21  1  0  0  0  0
 21 22  1  0  0  0  0
 22 23  1  0  0  0  0
M  END
> <PUBCHEM_COMPOUND_ID_TYPE>
0

> <PUBCHEM_TOTAL_CHARGE>
0

> <PUBCHEM_SUBSTANCE_ID>
310929286

> <PUBCHEM_SUBSTANCE_VERSION>
1

> <PUBCHEM_EXT_DATASOURCE_NAME>
4488

> <PUBCHEM_EXT_DATASOURCE_REGID>
SCHEMBL16106450

> <PUBCHEM_SUBSTANCE_COMMENT>
InChI=1S/C20H29NO2/c22-16-9-7-5-3-1-2-4-6-8-11-17-14-15-21-20-18(17)12-10-13-19(20)23/h10,12-15,22-23H,1-9,11,16H2
InChIKey=YWQRGGFXAKGBBR-UHFFFAOYSA-N

> <PUBCHEM_SUBSTANCE_SYNONYM>
SCHEMBL16106450

> <PUBCHEM_XREF_EXT_ID>
SCHEMBL16106450

> <PUBCHEM_EXT_DATASOURCE_URL>
https://www.surechembl.org/

> <PUBCHEM_EXT_SUBSTANCE_URL>
https://www.surechembl.org/chemical/SCHEMBL16106450

> <PUBCHEM_CID_ASSOCIATIONS>
117598698  1

> <PUBCHEM_COORDINATE_TYPE>
1
3

$$$$
