310932939
  -OEChem-07211613022D

 29 31  0     0  0  0  0  0  0999 V2000
    3.9913   -2.7419    0.0000 O   0  0  0  0  0  0  0  0  0  0  0  0
    8.4686   -2.8113    0.0000 O   0  0  0  0  0  0  0  0  0  0  0  0
    9.2321   -6.5250    0.0000 O   0  0  0  0  0  0  0  0  0  0  0  0
    4.8937   -1.5965    0.0000 N   0  0  0  0  0  0  0  0  0  0  0  0
    4.8244   -0.7636    0.0000 N   0  0  0  0  0  0  0  0  0  0  0  0
    6.3515   -1.5965    0.0000 N   0  0  0  0  0  0  0  0  0  0  0  0
    7.7745   -4.0608    0.0000 N   0  0  0  0  0  0  0  0  0  0  0  0
    0.0000   -2.4642    0.0000 N   0  0  0  0  0  0  0  0  0  0  0  0
    3.6095   -1.3189    0.0000 C   0  0  0  0  0  0  0  0  0  0  0  0
    4.1649   -1.9436    0.0000 C   0  0  0  0  0  0  0  0  0  0  0  0
    2.7766   -1.4230    0.0000 C   0  0  0  0  0  0  0  0  0  0  0  0
    5.6226   -2.0131    0.0000 C   0  0  0  0  0  0  0  0  0  0  0  0
    3.9913   -0.6247    0.0000 C   0  0  0  0  0  0  0  0  0  0  0  0
    2.2907   -0.7636    0.0000 C   0  0  0  0  0  0  0  0  0  0  0  0
    2.4642   -2.1866    0.0000 C   0  0  0  0  0  0  0  0  0  0  0  0
    5.6226   -2.8113    0.0000 C   0  0  0  0  0  0  0  0  0  0  0  0
    7.0456   -2.8113    0.0000 C   0  0  0  0  0  0  0  0  0  0  0  0
    1.4577   -0.8677    0.0000 C   0  0  0  0  0  0  0  0  0  0  0  0
    1.1453   -1.5965    0.0000 C   0  0  0  0  0  0  0  0  0  0  0  0
    7.0456   -2.0131    0.0000 C   0  0  0  0  0  0  0  0  0  0  0  0
    6.3515   -3.2278    0.0000 C   0  0  0  0  0  0  0  0  0  0  0  0
    1.6313   -2.2560    0.0000 C   0  0  0  0  0  0  0  0  0  0  0  0
    7.7745   -3.2278    0.0000 C   0  0  0  0  0  0  0  0  0  0  0  0
    2.6030    0.0000    0.0000 C   0  0  0  0  0  0  0  0  0  0  0  0
    0.3124   -1.7006    0.0000 C   0  0  0  0  0  0  0  0  0  0  0  0
    8.5033   -4.4773    0.0000 C   0  0  0  0  0  0  0  0  0  0  0  0
    8.5033   -5.3102    0.0000 C   0  0  0  0  0  0  0  0  0  0  0  0
    9.1975   -5.6920    0.0000 C   0  0  0  0  0  0  0  0  0  0  0  0
    9.9263   -6.9414    0.0000 C   0  0  0  0  0  0  0  0  0  0  0  0
  1 10  1  0  0  0  0
  2 23  2  0  0  0  0
  3 28  1  0  0  0  0
  3 29  1  0  0  0  0
  4  5  1  0  0  0  0
  4 10  1  0  0  0  0
  4 12  1  0  0  0  0
  5 13  2  0  0  0  0
  6 12  2  0  0  0  0
  6 20  1  0  0  0  0
  7 23  1  0  0  0  0
  7 26  1  0  0  0  0
  8 25  3  0  0  0  0
  9 10  2  0  0  0  0
  9 11  1  0  0  0  0
  9 13  1  0  0  0  0
 11 14  1  0  0  0  0
 11 15  2  0  0  0  0
 12 16  1  0  0  0  0
 14 18  2  0  0  0  0
 14 24  1  0  0  0  0
 15 22  1  0  0  0  0
 16 21  2  0  0  0  0
 17 20  2  0  0  0  0
 17 21  1  0  0  0  0
 17 23  1  0  0  0  0
 18 19  1  0  0  0  0
 19 22  2  0  0  0  0
 19 25  1  0  0  0  0
 26 27  1  0  0  0  0
 27 28  1  0  0  0  0
M  END
> <PUBCHEM_COMPOUND_ID_TYPE>
0

> <PUBCHEM_TOTAL_CHARGE>
0

> <PUBCHEM_SUBSTANCE_ID>
310932939

> <PUBCHEM_SUBSTANCE_VERSION>
1

> <PUBCHEM_EXT_DATASOURCE_NAME>
4488

> <PUBCHEM_EXT_DATASOURCE_REGID>
SCHEMBL16110334

> <PUBCHEM_SUBSTANCE_COMMENT>
InChI=1S/C21H21N5O3/c1-14-10-15(11-22)4-6-17(14)18-13-25-26(21(18)28)19-7-5-16(12-24-19)20(27)23-8-3-9-29-2/h4-7,10,12-13,28H,3,8-9H2,1-2H3,(H,23,27)
InChIKey=KVYUYSAIWWDMNX-UHFFFAOYSA-N

> <PUBCHEM_SUBSTANCE_SYNONYM>
SCHEMBL16110334

> <PUBCHEM_XREF_EXT_ID>
SCHEMBL16110334

> <PUBCHEM_EXT_DATASOURCE_URL>
https://www.surechembl.org/

> <PUBCHEM_EXT_SUBSTANCE_URL>
https://www.surechembl.org/chemical/SCHEMBL16110334

> <PUBCHEM_CID_ASSOCIATIONS>
117601419  1

> <PUBCHEM_COORDINATE_TYPE>
1
3

$$$$
