310932711
  -OEChem-07211613022D

 30 32  0     0  0  0  0  0  0999 V2000
    4.0737   -2.7873    0.0000 O   0  0  0  0  0  0  0  0  0  0  0  0
    8.5762   -2.8587    0.0000 O   0  0  0  0  0  0  0  0  0  0  0  0
    4.9671   -1.6080    0.0000 N   0  0  0  0  0  0  0  0  0  0  0  0
    4.8956   -0.7861    0.0000 N   0  0  0  0  0  0  0  0  0  0  0  0
    6.4322   -1.6080    0.0000 N   0  0  0  0  0  0  0  0  0  0  0  0
    7.8615   -4.1094    0.0000 N   0  0  0  0  0  0  0  0  0  0  0  0
    0.0000   -2.4656    0.0000 N   0  0  0  0  0  0  0  0  0  0  0  0
   10.0056   -4.5025    0.0000 N   0  0  0  0  0  0  0  0  0  0  0  0
    3.6449   -1.3579    0.0000 C   0  0  0  0  0  0  0  0  0  0  0  0
    4.2166   -1.9654    0.0000 C   0  0  0  0  0  0  0  0  0  0  0  0
    2.8230   -1.4293    0.0000 C   0  0  0  0  0  0  0  0  0  0  0  0
    5.6817   -2.0368    0.0000 C   0  0  0  0  0  0  0  0  0  0  0  0
    4.0737   -0.6432    0.0000 C   0  0  0  0  0  0  0  0  0  0  0  0
    2.3227   -0.7861    0.0000 C   0  0  0  0  0  0  0  0  0  0  0  0
    5.6817   -2.8587    0.0000 C   0  0  0  0  0  0  0  0  0  0  0  0
    2.5014   -2.2155    0.0000 C   0  0  0  0  0  0  0  0  0  0  0  0
    7.1468   -2.8587    0.0000 C   0  0  0  0  0  0  0  0  0  0  0  0
    7.1468   -2.0368    0.0000 C   0  0  0  0  0  0  0  0  0  0  0  0
    6.4322   -3.2518    0.0000 C   0  0  0  0  0  0  0  0  0  0  0  0
    1.5008   -0.8933    0.0000 C   0  0  0  0  0  0  0  0  0  0  0  0
    7.8615   -3.2518    0.0000 C   0  0  0  0  0  0  0  0  0  0  0  0
    1.1793   -1.6438    0.0000 C   0  0  0  0  0  0  0  0  0  0  0  0
    1.6795   -2.2870    0.0000 C   0  0  0  0  0  0  0  0  0  0  0  0
    2.6801    0.0000    0.0000 C   0  0  0  0  0  0  0  0  0  0  0  0
    0.3574   -1.7152    0.0000 C   0  0  0  0  0  0  0  0  0  0  0  0
    8.5762   -4.5382    0.0000 C   0  0  0  0  0  0  0  0  0  0  0  0
    7.1468   -4.5382    0.0000 C   0  0  0  0  0  0  0  0  0  0  0  0
    9.3266   -4.1094    0.0000 C   0  0  0  0  0  0  0  0  0  0  0  0
   10.0413   -5.3601    0.0000 C   0  0  0  0  0  0  0  0  0  0  0  0
   10.7203   -4.1094    0.0000 C   0  0  0  0  0  0  0  0  0  0  0  0
  1 10  1  0  0  0  0
  2 21  2  0  0  0  0
  3  4  1  0  0  0  0
  3 10  1  0  0  0  0
  3 12  1  0  0  0  0
  4 13  2  0  0  0  0
  5 12  2  0  0  0  0
  5 18  1  0  0  0  0
  6 21  1  0  0  0  0
  6 26  1  0  0  0  0
  6 27  1  0  0  0  0
  7 25  3  0  0  0  0
  8 28  1  0  0  0  0
  8 29  1  0  0  0  0
  8 30  1  0  0  0  0
  9 10  2  0  0  0  0
  9 11  1  0  0  0  0
  9 13  1  0  0  0  0
 11 14  1  0  0  0  0
 11 16  2  0  0  0  0
 12 15  1  0  0  0  0
 14 20  2  0  0  0  0
 14 24  1  0  0  0  0
 15 19  2  0  0  0  0
 16 23  1  0  0  0  0
 17 18  2  0  0  0  0
 17 19  1  0  0  0  0
 17 21  1  0  0  0  0
 20 22  1  0  0  0  0
 22 23  2  0  0  0  0
 22 25  1  0  0  0  0
 26 28  1  0  0  0  0
M  END
> <PUBCHEM_COMPOUND_ID_TYPE>
0

> <PUBCHEM_TOTAL_CHARGE>
0

> <PUBCHEM_SUBSTANCE_ID>
310932711

> <PUBCHEM_SUBSTANCE_VERSION>
1

> <PUBCHEM_EXT_DATASOURCE_NAME>
4488

> <PUBCHEM_EXT_DATASOURCE_REGID>
SCHEMBL16110094

> <PUBCHEM_SUBSTANCE_COMMENT>
InChI=1S/C22H24N6O2/c1-15-11-16(12-23)5-7-18(15)19-14-25-28(22(19)30)20-8-6-17(13-24-20)21(29)27(4)10-9-26(2)3/h5-8,11,13-14,30H,9-10H2,1-4H3
InChIKey=COFQESHAGBQTLZ-UHFFFAOYSA-N

> <PUBCHEM_SUBSTANCE_SYNONYM>
SCHEMBL16110094

> <PUBCHEM_XREF_EXT_ID>
SCHEMBL16110094

> <PUBCHEM_EXT_DATASOURCE_URL>
https://www.surechembl.org/

> <PUBCHEM_EXT_SUBSTANCE_URL>
https://www.surechembl.org/chemical/SCHEMBL16110094

> <PUBCHEM_CID_ASSOCIATIONS>
117601218  1

> <PUBCHEM_COORDINATE_TYPE>
1
3

$$$$
