310935080
  -OEChem-07211613022D

 36 40  0     1  0  0  0  0  0999 V2000
   -2.1434   -3.3000    0.0000 F   0  0  0  0  0  0  0  0  0  0  0  0
    0.7144   -1.6500    0.0000 O   0  0  0  0  0  0  0  0  0  0  0  0
    3.3321   -2.1434    0.0000 O   0  0  0  0  0  0  0  0  0  0  0  0
    7.4571   -0.7144    0.0000 O   0  0  0  0  0  0  0  0  0  0  0  0
    7.4571   -2.1434    0.0000 O   0  0  0  0  0  0  0  0  0  0  0  0
    0.7846    0.6674    0.0000 N   0  0  0  0  0  0  0  0  0  0  0  0
   -1.4290   -0.4125    0.0000 N   0  0  0  0  0  0  0  0  0  0  0  0
   -0.7144    0.8250    0.0000 N   0  0  0  0  0  0  0  0  0  0  0  0
    3.7446    0.0000    0.0000 N   0  0  0  0  0  0  0  0  0  0  0  0
    0.0000   -0.4125    0.0000 C   0  0  0  0  0  0  0  0  0  0  0  0
   -0.7144   -0.8250    0.0000 C   0  0  0  0  0  0  0  0  0  0  0  0
    0.0000    0.4125    0.0000 C   0  0  0  0  0  0  0  0  0  0  0  0
    1.2696    0.0000    0.0000 C   0  0  0  0  0  0  0  0  0  0  0  0
   -0.7144   -1.6500    0.0000 C   0  0  0  0  0  0  0  0  0  0  0  0
    0.7846   -0.6674    0.0000 C   0  0  0  0  0  0  0  0  0  0  0  0
    2.0946    0.0000    0.0000 C   0  0  0  0  0  0  0  0  0  0  0  0
    0.0000   -2.0625    0.0000 C   0  0  0  0  0  0  0  0  0  0  0  0
   -1.4290   -2.0625    0.0000 C   0  0  0  0  0  0  0  0  0  0  0  0
    2.5071   -0.7144    0.0000 C   0  0  0  0  0  0  0  0  0  0  0  0
   -1.4290    0.4125    0.0000 C   0  0  0  0  0  0  0  0  0  0  0  0
    3.3321   -0.7144    0.0000 C   0  0  3  0  0  0  0  0  0  0  0  0
    2.5071    0.7144    0.0000 C   0  0  0  0  0  0  0  0  0  0  0  0
    3.7446   -1.4290    0.0000 C   0  0  0  0  0  0  0  0  0  0  0  0
   -1.4290   -2.8875    0.0000 C   0  0  0  0  0  0  0  0  0  0  0  0
    0.0000   -2.8875    0.0000 C   0  0  0  0  0  0  0  0  0  0  0  0
    4.5696   -1.4290    0.0000 C   0  0  0  0  0  0  0  0  0  0  0  0
   -0.7144   -3.3000    0.0000 C   0  0  0  0  0  0  0  0  0  0  0  0
    3.3321    0.7144    0.0000 C   0  0  0  0  0  0  0  0  0  0  0  0
    4.9821   -2.1434    0.0000 C   0  0  0  0  0  0  0  0  0  0  0  0
    4.9821   -0.7144    0.0000 C   0  0  0  0  0  0  0  0  0  0  0  0
    6.2196   -1.4290    0.0000 C   0  0  0  0  0  0  0  0  0  0  0  0
    5.8071   -2.1434    0.0000 C   0  0  0  0  0  0  0  0  0  0  0  0
    5.8071   -0.7144    0.0000 C   0  0  0  0  0  0  0  0  0  0  0  0
    7.0446   -1.4290    0.0000 C   0  0  0  0  0  0  0  0  0  0  0  0
    1.4290   -2.0625    0.0000 C   0  0  0  0  0  0  0  0  0  0  0  0
    8.2821   -0.7144    0.0000 C   0  0  0  0  0  0  0  0  0  0  0  0
  1 24  1  0  0  0  0
  2 17  1  0  0  0  0
  2 35  1  0  0  0  0
  3 23  2  0  0  0  0
  4 34  1  0  0  0  0
  4 36  1  0  0  0  0
  5 34  2  0  0  0  0
  6 12  1  0  0  0  0
  6 13  1  0  0  0  0
  7 11  1  0  0  0  0
  7 20  2  0  0  0  0
  8 12  2  0  0  0  0
  8 20  1  0  0  0  0
  9 21  1  0  0  0  0
  9 28  1  0  0  0  0
 10 11  2  0  0  0  0
 10 12  1  0  0  0  0
 10 15  1  0  0  0  0
 11 14  1  0  0  0  0
 13 15  2  0  0  0  0
 13 16  1  0  0  0  0
 14 17  1  0  0  0  0
 14 18  2  0  0  0  0
 16 19  1  0  0  0  0
 16 22  2  0  0  0  0
 17 25  2  0  0  0  0
 18 24  1  0  0  0  0
 19 21  1  0  0  0  0
 21 23  1  0  0  0  0
 22 28  1  0  0  0  0
 26 23  1  6  0  0  0
 24 27  2  0  0  0  0
 25 27  1  0  0  0  0
 26 29  1  0  0  0  0
 26 30  1  0  0  0  0
 29 32  1  0  0  0  0
 30 33  1  0  0  0  0
 31 32  1  0  0  0  0
 31 33  1  0  0  0  0
 31 34  1  1  0  0  0
M  END
> <PUBCHEM_COMPOUND_ID_TYPE>
0

> <PUBCHEM_TOTAL_CHARGE>
0

> <PUBCHEM_SUBSTANCE_ID>
310935080

> <PUBCHEM_SUBSTANCE_VERSION>
1

> <PUBCHEM_EXT_DATASOURCE_NAME>
4488

> <PUBCHEM_EXT_DATASOURCE_REGID>
SCHEMBL16112606

> <PUBCHEM_SUBSTANCE_COMMENT>
InChI=1S/C27H29FN4O4/c1-35-23-8-7-18(28)12-19(23)24-20-13-21(32-26(20)31-14-30-24)17-9-10-29-22(11-17)25(33)15-3-5-16(6-4-15)27(34)36-2/h7-9,12-16,22,29H,3-6,10-11H2,1-2H3,(H,30,31,32)/t15-,16-,22?
InChIKey=FNASCDLXFSKAFY-STFKQGPRSA-N

> <PUBCHEM_SUBSTANCE_SYNONYM>
SCHEMBL16112606

> <PUBCHEM_XREF_EXT_ID>
SCHEMBL16112606

> <PUBCHEM_EXT_DATASOURCE_URL>
https://www.surechembl.org/

> <PUBCHEM_EXT_SUBSTANCE_URL>
https://www.surechembl.org/chemical/SCHEMBL16112606

> <PUBCHEM_CID_ASSOCIATIONS>
117603176  1

> <PUBCHEM_COORDINATE_TYPE>
1
3

> <PUBCHEM_BONDANNOTATIONS>
26  23  6
31  34  5

$$$$
