310938862
  -OEChem-07211613022D

 36 40  0     1  0  0  0  0  0999 V2000
   -0.7080    1.8561    0.0000 O   0  0  0  0  0  0  0  0  0  0  0  0
   -3.5678    3.5060    0.0000 O   0  0  0  0  0  0  0  0  0  0  0  0
   -0.0069    0.6187    0.0000 N   0  0  0  0  0  0  0  0  0  0  0  0
    0.7080   -1.4437    0.0000 N   0  0  0  0  0  0  0  0  0  0  0  0
    2.1380   -1.4437    0.0000 N   0  0  0  0  0  0  0  0  0  0  0  0
   -2.1517    3.5060    0.0000 N   0  0  0  0  0  0  0  0  0  0  0  0
    2.8529   -2.6810    0.0000 N   0  0  0  0  0  0  0  0  0  0  0  0
    3.5678   -1.4437    0.0000 N   0  0  0  0  0  0  0  0  0  0  0  0
    0.0344   -3.5060    0.0000 N   0  0  0  0  0  0  0  0  0  0  0  0
   -1.4230    0.6187    0.0000 C   0  0  0  0  0  0  0  0  0  0  0  0
   -0.7355    1.0174    0.0000 C   0  0  0  0  0  0  0  0  0  0  0  0
   -0.0069   -0.2063    0.0000 C   0  0  0  0  0  0  0  0  0  0  0  0
   -1.4368   -0.1925    0.0000 C   0  0  0  0  0  0  0  0  0  0  0  0
   -2.1517    1.0312    0.0000 C   0  0  0  0  0  0  0  0  0  0  0  0
   -0.7218   -0.6187    0.0000 C   0  0  0  0  0  0  0  0  0  0  0  0
    0.7218    1.0312    0.0000 C   0  0  0  0  0  0  0  0  0  0  0  0
    0.7218   -0.6187    0.0000 C   0  0  3  0  0  0  0  0  0  0  0  0
   -2.1380    1.8561    0.0000 C   0  0  0  0  0  0  0  0  0  0  0  0
   -2.1517   -0.6187    0.0000 C   0  0  0  0  0  0  0  0  0  0  0  0
   -2.8529    0.6187    0.0000 C   0  0  0  0  0  0  0  0  0  0  0  0
   -2.8529   -0.2063    0.0000 C   0  0  0  0  0  0  0  0  0  0  0  0
    1.4368    0.6324    0.0000 C   0  0  0  0  0  0  0  0  0  0  0  0
    0.7355    1.8561    0.0000 C   0  0  0  0  0  0  0  0  0  0  0  0
    1.4368   -1.8424    0.0000 C   0  0  0  0  0  0  0  0  0  0  0  0
   -2.8529    2.2686    0.0000 C   0  0  0  0  0  0  0  0  0  0  0  0
   -1.4368    2.2686    0.0000 C   0  0  0  0  0  0  0  0  0  0  0  0
    1.4368   -0.2063    0.0000 C   0  0  0  0  0  0  0  0  0  0  0  0
    1.4230   -2.6810    0.0000 C   0  0  0  0  0  0  0  0  0  0  0  0
   -2.8392    3.0798    0.0000 C   0  0  0  0  0  0  0  0  0  0  0  0
    2.1380    1.0312    0.0000 C   0  0  0  0  0  0  0  0  0  0  0  0
    1.4230    2.2549    0.0000 C   0  0  0  0  0  0  0  0  0  0  0  0
   -1.4230    3.0935    0.0000 C   0  0  0  0  0  0  0  0  0  0  0  0
    2.8667   -1.8424    0.0000 C   0  0  0  0  0  0  0  0  0  0  0  0
    2.1380    1.8561    0.0000 C   0  0  0  0  0  0  0  0  0  0  0  0
    2.1517   -3.0935    0.0000 C   0  0  0  0  0  0  0  0  0  0  0  0
    0.7218   -3.0935    0.0000 C   0  0  0  0  0  0  0  0  0  0  0  0
  1 11  2  0  0  0  0
  2 29  2  0  0  0  0
  3 11  1  0  0  0  0
  3 12  1  0  0  0  0
  3 16  1  0  0  0  0
  4 17  1  0  0  0  0
  4 24  1  0  0  0  0
  5 24  1  0  0  0  0
  5 33  2  0  0  0  0
  6 29  1  0  0  0  0
  6 32  1  0  0  0  0
  7 33  1  0  0  0  0
  7 35  2  0  0  0  0
  8 33  1  0  0  0  0
  9 36  3  0  0  0  0
 10 11  1  0  0  0  0
 10 13  1  0  0  0  0
 10 14  2  0  0  0  0
 12 15  2  0  0  0  0
 12 17  1  0  0  0  0
 13 15  1  0  0  0  0
 13 19  2  0  0  0  0
 14 18  1  0  0  0  0
 14 20  1  0  0  0  0
 16 22  2  0  0  0  0
 16 23  1  0  0  0  0
 17 27  1  6  0  0  0
 18 25  2  0  0  0  0
 18 26  1  0  0  0  0
 19 21  1  0  0  0  0
 20 21  2  0  0  0  0
 22 30  1  0  0  0  0
 23 31  2  0  0  0  0
 24 28  2  0  0  0  0
 25 29  1  0  0  0  0
 26 32  2  0  0  0  0
 28 35  1  0  0  0  0
 28 36  1  0  0  0  0
 30 34  2  0  0  0  0
 31 34  1  0  0  0  0
M  END
> <PUBCHEM_COMPOUND_ID_TYPE>
0

> <PUBCHEM_TOTAL_CHARGE>
0

> <PUBCHEM_SUBSTANCE_ID>
310938862

> <PUBCHEM_SUBSTANCE_VERSION>
1

> <PUBCHEM_EXT_DATASOURCE_NAME>
4488

> <PUBCHEM_EXT_DATASOURCE_REGID>
SCHEMBL16116781

> <PUBCHEM_SUBSTANCE_COMMENT>
InChI=1S/C27H21N7O2/c1-16(32-25-19(14-28)15-31-27(29)33-25)22-12-18-6-5-9-21(17-10-11-30-23(35)13-17)24(18)26(36)34(22)20-7-3-2-4-8-20/h2-13,15-16H,1H3,(H,30,35)(H3,29,31,32,33)/t16-/m0/s1
InChIKey=OIOOAABOVLPSQO-INIZCTEOSA-N

> <PUBCHEM_SUBSTANCE_SYNONYM>
SCHEMBL16116781

> <PUBCHEM_XREF_EXT_ID>
SCHEMBL16116781

> <PUBCHEM_EXT_DATASOURCE_URL>
https://www.surechembl.org/

> <PUBCHEM_EXT_SUBSTANCE_URL>
https://www.surechembl.org/chemical/SCHEMBL16116781

> <PUBCHEM_CID_ASSOCIATIONS>
71275977  1

> <PUBCHEM_COORDINATE_TYPE>
1
3

> <PUBCHEM_BONDANNOTATIONS>
17  27  6

$$$$
