310940167
  -OEChem-07211613022D

 43 46  0     0  0  0  0  0  0999 V2000
    3.5954    3.2686    0.0000 S   0  0  0  0  0  0  0  0  0  0  0  0
    1.5876   -1.3542    0.0000 O   0  0  0  0  0  0  0  0  0  0  0  0
   -4.0780    2.5682    0.0000 O   0  0  0  0  0  0  0  0  0  0  0  0
   -3.3152    3.7978    0.0000 O   0  0  0  0  0  0  0  0  0  0  0  0
    2.8795    3.6732    0.0000 O   0  0  0  0  0  0  0  0  0  0  0  0
    3.8133    4.0625    0.0000 O   0  0  0  0  0  0  0  0  0  0  0  0
   -0.1556    0.8094    0.0000 N   0  0  0  0  0  0  0  0  0  0  0  0
    0.6226    1.0584    0.0000 N   0  0  0  0  0  0  0  0  0  0  0  0
    1.9455    0.3891    0.0000 N   0  0  0  0  0  0  0  0  0  0  0  0
    0.1867   -1.6499    0.0000 N   0  0  0  0  0  0  0  0  0  0  0  0
   -2.0701    2.3970    0.0000 N   0  0  0  0  0  0  0  0  0  0  0  0
    4.4204    3.2686    0.0000 N   0  0  0  0  0  0  0  0  0  0  0  0
    0.3268    3.0507    0.0000 N   0  0  0  0  0  0  0  0  0  0  0  0
   -0.8250    1.3074    0.0000 C   0  0  0  0  0  0  0  0  0  0  0  0
   -0.1712   -0.0155    0.0000 C   0  0  0  0  0  0  0  0  0  0  0  0
    0.6226   -0.2957    0.0000 C   0  0  0  0  0  0  0  0  0  0  0  0
    1.1051    0.3891    0.0000 C   0  0  0  0  0  0  0  0  0  0  0  0
    0.7939   -1.0740    0.0000 C   0  0  0  0  0  0  0  0  0  0  0  0
   -1.6187    1.0429    0.0000 C   0  0  0  0  0  0  0  0  0  0  0  0
   -0.6692    2.1167    0.0000 C   0  0  0  0  0  0  0  0  0  0  0  0
   -0.7627   -0.5603    0.0000 C   0  0  0  0  0  0  0  0  0  0  0  0
   -0.1089    1.5098    0.0000 C   0  0  0  0  0  0  0  0  0  0  0  0
   -0.6070   -1.3852    0.0000 C   0  0  0  0  0  0  0  0  0  0  0  0
   -2.2413    1.6032    0.0000 C   0  0  0  0  0  0  0  0  0  0  0  0
   -1.2919    2.6616    0.0000 C   0  0  0  0  0  0  0  0  0  0  0  0
    2.3502    1.1207    0.0000 C   0  0  0  0  0  0  0  0  0  0  0  0
    0.3113    2.2257    0.0000 C   0  0  0  0  0  0  0  0  0  0  0  0
   -3.3152    2.9884    0.0000 C   0  0  0  0  0  0  0  0  0  0  0  0
    3.1752    2.5371    0.0000 C   0  0  0  0  0  0  0  0  0  0  0  0
    3.1752    1.1207    0.0000 C   0  0  0  0  0  0  0  0  0  0  0  0
    1.9612    1.8211    0.0000 C   0  0  0  0  0  0  0  0  0  0  0  0
    3.5954    1.8211    0.0000 C   0  0  0  0  0  0  0  0  0  0  0  0
    2.3659    2.5371    0.0000 C   0  0  0  0  0  0  0  0  0  0  0  0
    1.7433   -2.1635    0.0000 C   0  0  0  0  0  0  0  0  0  0  0  0
   -4.0936    1.6965    0.0000 C   0  0  0  0  0  0  0  0  0  0  0  0
    1.1207   -2.7083    0.0000 C   0  0  0  0  0  0  0  0  0  0  0  0
    4.8407    4.0002    0.0000 C   0  0  0  0  0  0  0  0  0  0  0  0
    4.8562    2.5371    0.0000 C   0  0  0  0  0  0  0  0  0  0  0  0
   -4.8562    1.6654    0.0000 C   0  0  0  0  0  0  0  0  0  0  0  0
   -3.3152    1.6965    0.0000 C   0  0  0  0  0  0  0  0  0  0  0  0
   -4.0780    0.8561    0.0000 C   0  0  0  0  0  0  0  0  0  0  0  0
    1.2763   -3.5176    0.0000 C   0  0  0  0  0  0  0  0  0  0  0  0
    0.6381   -4.0625    0.0000 C   0  0  0  0  0  0  0  0  0  0  0  0
  1  5  2  0  0  0  0
  1  6  2  0  0  0  0
  1 12  1  0  0  0  0
  1 29  1  0  0  0  0
  2 18  1  0  0  0  0
  2 34  1  0  0  0  0
  3 28  1  0  0  0  0
  3 35  1  0  0  0  0
  4 28  2  0  0  0  0
  7  8  1  0  0  0  0
  7 14  1  0  0  0  0
  7 15  1  0  0  0  0
  8 17  2  0  0  0  0
  9 17  1  0  0  0  0
  9 26  1  0  0  0  0
 10 18  2  0  0  0  0
 10 23  1  0  0  0  0
 11 24  1  0  0  0  0
 11 25  1  0  0  0  0
 11 28  1  0  0  0  0
 12 37  1  0  0  0  0
 12 38  1  0  0  0  0
 13 27  3  0  0  0  0
 14 19  1  0  0  0  0
 14 20  1  0  0  0  0
 14 22  1  0  0  0  0
 15 16  2  0  0  0  0
 15 21  1  0  0  0  0
 16 17  1  0  0  0  0
 16 18  1  0  0  0  0
 19 24  1  0  0  0  0
 20 25  1  0  0  0  0
 21 23  2  0  0  0  0
 22 27  1  0  0  0  0
 26 30  2  0  0  0  0
 26 31  1  0  0  0  0
 29 32  2  0  0  0  0
 29 33  1  0  0  0  0
 30 32  1  0  0  0  0
 31 33  2  0  0  0  0
 34 36  1  0  0  0  0
 35 39  1  0  0  0  0
 35 40  1  0  0  0  0
 35 41  1  0  0  0  0
 36 42  1  0  0  0  0
 42 43  1  0  0  0  0
M  END
> <PUBCHEM_COMPOUND_ID_TYPE>
0

> <PUBCHEM_TOTAL_CHARGE>
0

> <PUBCHEM_SUBSTANCE_ID>
310940167

> <PUBCHEM_SUBSTANCE_VERSION>
1

> <PUBCHEM_EXT_DATASOURCE_NAME>
4488

> <PUBCHEM_EXT_DATASOURCE_REGID>
SCHEMBL16118101

> <PUBCHEM_SUBSTANCE_COMMENT>
InChI=1S/C30H41N7O5S/c1-7-8-21-41-27-25-24(13-18-32-27)37(30(14-17-31)15-19-36(20-16-30)28(38)42-29(2,3)4)34-26(25)33-22-9-11-23(12-10-22)43(39,40)35(5)6/h9-13,18H,7-8,14-16,19-21H2,1-6H3,(H,33,34)
InChIKey=CJVXRQSTMSMPSM-UHFFFAOYSA-N

> <PUBCHEM_SUBSTANCE_SYNONYM>
SCHEMBL16118101

> <PUBCHEM_XREF_EXT_ID>
SCHEMBL16118101

> <PUBCHEM_EXT_DATASOURCE_URL>
https://www.surechembl.org/

> <PUBCHEM_EXT_SUBSTANCE_URL>
https://www.surechembl.org/chemical/SCHEMBL16118101

> <PUBCHEM_CID_ASSOCIATIONS>
117607280  1

> <PUBCHEM_COORDINATE_TYPE>
1
3

$$$$
