310936459
  -OEChem-07211613022D

 27 29  0     0  0  0  0  0  0999 V2000
    5.7695   -5.7337    0.0000 F   0  0  0  0  0  0  0  0  0  0  0  0
    0.0000   -1.3618    0.0000 F   0  0  0  0  0  0  0  0  0  0  0  0
    1.2184   -2.1143    0.0000 F   0  0  0  0  0  0  0  0  0  0  0  0
    4.9811   -1.4693    0.0000 O   0  0  0  0  0  0  0  0  0  0  0  0
    1.2542   -0.6809    0.0000 O   0  0  0  0  0  0  0  0  0  0  0  0
    4.9811   -2.8668    0.0000 N   0  0  0  0  0  0  0  0  0  0  0  0
    2.5084    0.0000    0.0000 N   0  0  0  0  0  0  0  0  0  0  0  0
    3.6910   -6.4504    0.0000 N   0  0  0  0  0  0  0  0  0  0  0  0
    4.9094   -7.1670    0.0000 N   0  0  0  0  0  0  0  0  0  0  0  0
    3.7269   -2.1501    0.0000 C   0  0  0  0  0  0  0  0  0  0  0  0
    3.2968   -1.4334    0.0000 C   0  0  0  0  0  0  0  0  0  0  0  0
    4.5511   -2.1860    0.0000 C   0  0  0  0  0  0  0  0  0  0  0  0
    3.7269   -3.5835    0.0000 C   0  0  0  0  0  0  0  0  0  0  0  0
    3.3327   -2.9026    0.0000 C   0  0  0  0  0  0  0  0  0  0  0  0
    2.4726   -1.4334    0.0000 C   0  0  0  0  0  0  0  0  0  0  0  0
    2.0785   -0.7167    0.0000 C   0  0  0  0  0  0  0  0  0  0  0  0
    3.6910   -5.0169    0.0000 C   0  0  0  0  0  0  0  0  0  0  0  0
    4.5511   -3.6193    0.0000 C   0  0  0  0  0  0  0  0  0  0  0  0
    3.2968   -4.3002    0.0000 C   0  0  0  0  0  0  0  0  0  0  0  0
    3.7269   -0.7525    0.0000 C   0  0  0  0  0  0  0  0  0  0  0  0
    4.5152   -5.0169    0.0000 C   0  0  0  0  0  0  0  0  0  0  0  0
    4.9453   -5.7337    0.0000 C   0  0  0  0  0  0  0  0  0  0  0  0
    3.3327    0.0000    0.0000 C   0  0  0  0  0  0  0  0  0  0  0  0
    4.5152   -6.4504    0.0000 C   0  0  0  0  0  0  0  0  0  0  0  0
    3.2610   -5.7337    0.0000 C   0  0  0  0  0  0  0  0  0  0  0  0
    0.8242   -1.3976    0.0000 C   0  0  0  0  0  0  0  0  0  0  0  0
    4.5869   -0.7525    0.0000 C   0  0  0  0  0  0  0  0  0  0  0  0
  1 22  1  0  0  0  0
  2 26  1  0  0  0  0
  3 26  1  0  0  0  0
  4 12  1  0  0  0  0
  4 27  1  0  0  0  0
  5 16  1  0  0  0  0
  5 26  1  0  0  0  0
  6 12  1  0  0  0  0
  6 18  2  0  0  0  0
  7 16  1  0  0  0  0
  7 23  2  0  0  0  0
  8 24  1  0  0  0  0
  8 25  2  0  0  0  0
  9 24  1  0  0  0  0
 10 11  1  0  0  0  0
 10 12  2  0  0  0  0
 10 14  1  0  0  0  0
 11 15  1  0  0  0  0
 11 20  2  0  0  0  0
 13 14  2  0  0  0  0
 13 18  1  0  0  0  0
 13 19  1  0  0  0  0
 15 16  2  0  0  0  0
 17 19  1  0  0  0  0
 17 21  2  0  0  0  0
 17 25  1  0  0  0  0
 20 23  1  0  0  0  0
 21 22  1  0  0  0  0
 22 24  2  0  0  0  0
M  END
> <PUBCHEM_COMPOUND_ID_TYPE>
0

> <PUBCHEM_TOTAL_CHARGE>
0

> <PUBCHEM_SUBSTANCE_ID>
310936459

> <PUBCHEM_SUBSTANCE_VERSION>
1

> <PUBCHEM_EXT_DATASOURCE_NAME>
4488

> <PUBCHEM_EXT_DATASOURCE_REGID>
SCHEMBL16114102

> <PUBCHEM_SUBSTANCE_COMMENT>
InChI=1S/C18H15F3N4O2/c1-26-17-13(12-2-3-23-15(7-12)27-18(20)21)5-10(9-25-17)4-11-6-14(19)16(22)24-8-11/h2-3,5-9,18H,4H2,1H3,(H2,22,24)
InChIKey=OMGARGSFJXSCRR-UHFFFAOYSA-N

> <PUBCHEM_SUBSTANCE_SYNONYM>
SCHEMBL16114102

> <PUBCHEM_XREF_EXT_ID>
SCHEMBL16114102

> <PUBCHEM_EXT_DATASOURCE_URL>
https://www.surechembl.org/

> <PUBCHEM_EXT_SUBSTANCE_URL>
https://www.surechembl.org/chemical/SCHEMBL16114102

> <PUBCHEM_CID_ASSOCIATIONS>
117604390  1

> <PUBCHEM_COORDINATE_TYPE>
1
3

$$$$
