310930955
  -OEChem-07211613022D

 24 26  0     0  0  0  0  0  0999 V2000
    2.1449   -1.2257    0.0000 O   0  0  0  0  0  0  0  0  0  0  0  0
    2.8496   -3.2786    0.0000 O   0  0  0  0  0  0  0  0  0  0  0  0
    5.6993   -0.8273    0.0000 O   0  0  0  0  0  0  0  0  0  0  0  0
    1.4095   -2.4513    0.0000 C   0  0  0  0  0  0  0  0  0  0  0  0
    2.1449   -2.0530    0.0000 C   0  0  0  0  0  0  0  0  0  0  0  0
    2.8496   -2.4513    0.0000 C   0  0  0  0  0  0  0  0  0  0  0  0
    3.5544   -2.0530    0.0000 C   0  0  0  0  0  0  0  0  0  0  0  0
    0.7354   -3.6770    0.0000 C   0  0  0  0  0  0  0  0  0  0  0  0
    1.4095   -3.2480    0.0000 C   0  0  0  0  0  0  0  0  0  0  0  0
    0.7354   -4.4736    0.0000 C   0  0  0  0  0  0  0  0  0  0  0  0
    0.7354   -2.0530    0.0000 C   0  0  0  0  0  0  0  0  0  0  0  0
    0.0000   -3.2480    0.0000 C   0  0  0  0  0  0  0  0  0  0  0  0
    3.5544   -1.2257    0.0000 C   0  0  0  0  0  0  0  0  0  0  0  0
    4.2591   -2.4513    0.0000 C   0  0  0  0  0  0  0  0  0  0  0  0
    0.0000   -2.4513    0.0000 C   0  0  0  0  0  0  0  0  0  0  0  0
    4.9639   -1.2257    0.0000 C   0  0  0  0  0  0  0  0  0  0  0  0
    4.2591   -0.7967    0.0000 C   0  0  0  0  0  0  0  0  0  0  0  0
    4.9639   -2.0530    0.0000 C   0  0  0  0  0  0  0  0  0  0  0  0
    1.4401   -4.9026    0.0000 C   0  0  0  0  0  0  0  0  0  0  0  0
    0.0307   -4.9026    0.0000 C   0  0  0  0  0  0  0  0  0  0  0  0
    1.4401   -5.7299    0.0000 C   0  0  0  0  0  0  0  0  0  0  0  0
    0.0000   -5.6993    0.0000 C   0  0  0  0  0  0  0  0  0  0  0  0
    0.7354   -6.1282    0.0000 C   0  0  0  0  0  0  0  0  0  0  0  0
    5.6993    0.0000    0.0000 C   0  0  0  0  0  0  0  0  0  0  0  0
  1  5  2  0  0  0  0
  2  6  2  0  0  0  0
  3 16  1  0  0  0  0
  3 24  1  0  0  0  0
  4  5  1  0  0  0  0
  4  9  2  0  0  0  0
  4 11  1  0  0  0  0
  5  6  1  0  0  0  0
  6  7  1  0  0  0  0
  7 13  2  0  0  0  0
  7 14  1  0  0  0  0
  8  9  1  0  0  0  0
  8 10  1  0  0  0  0
  8 12  2  0  0  0  0
 10 19  2  0  0  0  0
 10 20  1  0  0  0  0
 11 15  2  0  0  0  0
 12 15  1  0  0  0  0
 13 17  1  0  0  0  0
 14 18  2  0  0  0  0
 16 17  2  0  0  0  0
 16 18  1  0  0  0  0
 19 21  1  0  0  0  0
 20 22  2  0  0  0  0
 21 23  2  0  0  0  0
 22 23  1  0  0  0  0
M  END
> <PUBCHEM_COMPOUND_ID_TYPE>
0

> <PUBCHEM_TOTAL_CHARGE>
0

> <PUBCHEM_SUBSTANCE_ID>
310930955

> <PUBCHEM_SUBSTANCE_VERSION>
1

> <PUBCHEM_EXT_DATASOURCE_NAME>
4488

> <PUBCHEM_EXT_DATASOURCE_REGID>
SCHEMBL16108254

> <PUBCHEM_SUBSTANCE_COMMENT>
InChI=1S/C21H16O3/c1-24-19-12-10-16(11-13-19)20(22)21(23)18-9-5-8-17(14-18)15-6-3-2-4-7-15/h2-14H,1H3
InChIKey=STGSOLZOEVIXIO-UHFFFAOYSA-N

> <PUBCHEM_SUBSTANCE_SYNONYM>
SCHEMBL16108254

> <PUBCHEM_XREF_EXT_ID>
SCHEMBL16108254

> <PUBCHEM_EXT_DATASOURCE_URL>
https://www.surechembl.org/

> <PUBCHEM_EXT_SUBSTANCE_URL>
https://www.surechembl.org/chemical/SCHEMBL16108254

> <PUBCHEM_CID_ASSOCIATIONS>
117599902  1

> <PUBCHEM_COORDINATE_TYPE>
1
3

$$$$
