310943374
  -OEChem-07211613022D

 35 38  0     0  0  0  0  0  0999 V2000
    3.8812    0.2997    0.0000 F   0  0  0  0  0  0  0  0  0  0  0  0
    4.6998    0.2997    0.0000 F   0  0  0  0  0  0  0  0  0  0  0  0
    5.0067   -0.8260    0.0000 F   0  0  0  0  0  0  0  0  0  0  0  0
   -3.5742   -0.8260    0.0000 O   0  0  0  0  0  0  0  0  0  0  0  0
    0.7090   -0.8260    0.0000 O   0  0  0  0  0  0  0  0  0  0  0  0
   -5.0067    1.6446    0.0000 O   0  0  0  0  0  0  0  0  0  0  0  0
   -2.1416    0.8260    0.0000 N   0  0  0  0  0  0  0  0  0  0  0  0
   -3.5742    0.8260    0.0000 N   0  0  0  0  0  0  0  0  0  0  0  0
   -2.1416   -0.8260    0.0000 N   0  0  0  0  0  0  0  0  0  0  0  0
    1.4253    0.4166    0.0000 N   0  0  0  0  0  0  0  0  0  0  0  0
   -0.0073    2.0539    0.0000 N   0  0  0  0  0  0  0  0  0  0  0  0
    3.5742   -1.6446    0.0000 N   0  0  0  0  0  0  0  0  0  0  0  0
   -1.4253    0.4166    0.0000 C   0  0  0  0  0  0  0  0  0  0  0  0
   -0.7236    0.8260    0.0000 C   0  0  0  0  0  0  0  0  0  0  0  0
   -2.8578    0.4166    0.0000 C   0  0  0  0  0  0  0  0  0  0  0  0
   -2.8725   -0.4166    0.0000 C   0  0  0  0  0  0  0  0  0  0  0  0
   -0.7090    1.6592    0.0000 C   0  0  0  0  0  0  0  0  0  0  0  0
    0.0073    0.4166    0.0000 C   0  0  0  0  0  0  0  0  0  0  0  0
    0.7090    0.8260    0.0000 C   0  0  0  0  0  0  0  0  0  0  0  0
   -1.4399   -0.4166    0.0000 C   0  0  0  0  0  0  0  0  0  0  0  0
    2.1416   -0.8113    0.0000 C   0  0  0  0  0  0  0  0  0  0  0  0
    3.5742   -0.8113    0.0000 C   0  0  0  0  0  0  0  0  0  0  0  0
    1.4399   -0.4020    0.0000 C   0  0  0  0  0  0  0  0  0  0  0  0
    0.7236    1.6446    0.0000 C   0  0  0  0  0  0  0  0  0  0  0  0
    4.2759   -0.4020    0.0000 C   0  0  0  0  0  0  0  0  0  0  0  0
    2.8433   -0.4166    0.0000 C   0  0  0  0  0  0  0  0  0  0  0  0
   -3.5742    1.6446    0.0000 C   0  0  0  0  0  0  0  0  0  0  0  0
   -4.2759    0.4166    0.0000 C   0  0  0  0  0  0  0  0  0  0  0  0
    2.1416   -1.6446    0.0000 C   0  0  0  0  0  0  0  0  0  0  0  0
   -1.4399    2.0393    0.0000 C   0  0  0  0  0  0  0  0  0  0  0  0
    2.8725   -2.0539    0.0000 C   0  0  0  0  0  0  0  0  0  0  0  0
   -4.3051    2.0539    0.0000 C   0  0  0  0  0  0  0  0  0  0  0  0
   -4.9921    0.8113    0.0000 C   0  0  0  0  0  0  0  0  0  0  0  0
   -3.5742   -1.6446    0.0000 C   0  0  0  0  0  0  0  0  0  0  0  0
   -4.3051   -2.0539    0.0000 C   0  0  0  0  0  0  0  0  0  0  0  0
  1 25  1  0  0  0  0
  2 25  1  0  0  0  0
  3 25  1  0  0  0  0
  4 16  1  0  0  0  0
  4 34  1  0  0  0  0
  5 23  2  0  0  0  0
  6 32  1  0  0  0  0
  6 33  1  0  0  0  0
  7 13  1  0  0  0  0
  7 15  2  0  0  0  0
  8 15  1  0  0  0  0
  8 27  1  0  0  0  0
  8 28  1  0  0  0  0
  9 16  2  0  0  0  0
  9 20  1  0  0  0  0
 10 19  1  0  0  0  0
 10 23  1  0  0  0  0
 11 17  1  0  0  0  0
 11 24  2  0  0  0  0
 12 22  1  0  0  0  0
 12 31  2  0  0  0  0
 13 14  1  0  0  0  0
 13 20  2  0  0  0  0
 14 17  2  0  0  0  0
 14 18  1  0  0  0  0
 15 16  1  0  0  0  0
 17 30  1  0  0  0  0
 18 19  2  0  0  0  0
 19 24  1  0  0  0  0
 21 23  1  0  0  0  0
 21 26  1  0  0  0  0
 21 29  2  0  0  0  0
 22 25  1  0  0  0  0
 22 26  2  0  0  0  0
 27 32  1  0  0  0  0
 28 33  1  0  0  0  0
 29 31  1  0  0  0  0
 34 35  1  0  0  0  0
M  END
> <PUBCHEM_COMPOUND_ID_TYPE>
0

> <PUBCHEM_TOTAL_CHARGE>
0

> <PUBCHEM_SUBSTANCE_ID>
310943374

> <PUBCHEM_SUBSTANCE_VERSION>
1

> <PUBCHEM_EXT_DATASOURCE_NAME>
4488

> <PUBCHEM_EXT_DATASOURCE_REGID>
SCHEMBL16121437

> <PUBCHEM_SUBSTANCE_COMMENT>
InChI=1S/C23H23F3N6O3/c1-3-35-22-20(32-6-8-34-9-7-32)31-18(13-29-22)17-11-16(12-28-14(17)2)30-21(33)15-4-5-27-19(10-15)23(24,25)26/h4-5,10-13H,3,6-9H2,1-2H3,(H,30,33)
InChIKey=ULMMQBNQRGBPFX-UHFFFAOYSA-N

> <PUBCHEM_SUBSTANCE_SYNONYM>
SCHEMBL16121437

> <PUBCHEM_XREF_EXT_ID>
SCHEMBL16121437

> <PUBCHEM_EXT_DATASOURCE_URL>
https://www.surechembl.org/

> <PUBCHEM_EXT_SUBSTANCE_URL>
https://www.surechembl.org/chemical/SCHEMBL16121437

> <PUBCHEM_CID_ASSOCIATIONS>
117609798  1

> <PUBCHEM_COORDINATE_TYPE>
1
3

$$$$
