310947394
  -OEChem-07211613022D

 30 31  0     0  0  0  0  0  0999 V2000
   -2.4979   -2.5056    0.0000 O   0  0  0  0  0  0  0  0  0  0  0  0
    2.5033   -2.0931    0.0000 O   0  0  0  0  0  0  0  0  0  0  0  0
   -5.3558   -5.8056    0.0000 O   0  0  0  0  0  0  0  0  0  0  0  0
    6.7902   -1.2681    0.0000 O   0  0  0  0  0  0  0  0  0  0  0  0
   -1.0690   -2.5056    0.0000 O   0  0  0  0  0  0  0  0  0  0  0  0
    1.0744   -2.0931    0.0000 O   0  0  0  0  0  0  0  0  0  0  0  0
   -6.7848   -5.8056    0.0000 O   0  0  0  0  0  0  0  0  0  0  0  0
   -3.2124   -3.7431    0.0000 C   0  0  0  0  0  0  0  0  0  0  0  0
   -4.6414   -4.5681    0.0000 C   0  0  0  0  0  0  0  0  0  0  0  0
    3.9323   -2.0931    0.0000 C   0  0  0  0  0  0  0  0  0  0  0  0
    5.3612   -1.2681    0.0000 C   0  0  0  0  0  0  0  0  0  0  0  0
   -3.9269   -3.3306    0.0000 C   0  0  0  0  0  0  0  0  0  0  0  0
   -3.2124   -4.5681    0.0000 C   0  0  0  0  0  0  0  0  0  0  0  0
   -4.6414   -3.7431    0.0000 C   0  0  0  0  0  0  0  0  0  0  0  0
   -3.9269   -4.9806    0.0000 C   0  0  0  0  0  0  0  0  0  0  0  0
    3.9323   -1.2681    0.0000 C   0  0  0  0  0  0  0  0  0  0  0  0
    4.6468   -2.5056    0.0000 C   0  0  0  0  0  0  0  0  0  0  0  0
    4.6468   -0.8556    0.0000 C   0  0  0  0  0  0  0  0  0  0  0  0
    5.3612   -2.0931    0.0000 C   0  0  0  0  0  0  0  0  0  0  0  0
   -2.4979   -3.3306    0.0000 C   0  0  0  0  0  0  0  0  0  0  0  0
   -5.3558   -4.9806    0.0000 C   0  0  0  0  0  0  0  0  0  0  0  0
    3.2178   -2.5056    0.0000 C   0  0  0  0  0  0  0  0  0  0  0  0
    6.0757   -0.8556    0.0000 C   0  0  0  0  0  0  0  0  0  0  0  0
   -1.7835   -2.0931    0.0000 C   0  0  0  0  0  0  0  0  0  0  0  0
    1.7889   -2.5056    0.0000 C   0  0  0  0  0  0  0  0  0  0  0  0
   -6.0703   -6.2181    0.0000 C   0  0  0  0  0  0  0  0  0  0  0  0
   -0.3545   -2.0931    0.0000 C   0  0  0  0  0  0  0  0  0  0  0  0
    0.3599   -2.5056    0.0000 C   0  0  0  0  0  0  0  0  0  0  0  0
    7.5046   -0.8556    0.0000 C   0  0  0  0  0  0  0  0  0  0  0  0
   -7.4992   -6.2181    0.0000 C   0  0  0  0  0  0  0  0  0  0  0  0
  1 20  1  0  0  0  0
  1 24  1  0  0  0  0
  2 22  1  0  0  0  0
  2 25  1  0  0  0  0
  3 21  1  0  0  0  0
  3 26  1  0  0  0  0
  4 23  1  0  0  0  0
  4 29  1  0  0  0  0
  5 24  1  0  0  0  0
  5 27  1  0  0  0  0
  6 25  1  0  0  0  0
  6 28  1  0  0  0  0
  7 26  1  0  0  0  0
  7 30  1  0  0  0  0
  8 12  2  0  0  0  0
  8 13  1  0  0  0  0
  8 20  1  0  0  0  0
  9 14  2  0  0  0  0
  9 15  1  0  0  0  0
  9 21  1  0  0  0  0
 10 16  2  0  0  0  0
 10 17  1  0  0  0  0
 10 22  1  0  0  0  0
 11 18  2  0  0  0  0
 11 19  1  0  0  0  0
 11 23  1  0  0  0  0
 12 14  1  0  0  0  0
 13 15  2  0  0  0  0
 16 18  1  0  0  0  0
 17 19  2  0  0  0  0
 27 28  1  0  0  0  0
M  END
> <PUBCHEM_COMPOUND_ID_TYPE>
0

> <PUBCHEM_TOTAL_CHARGE>
0

> <PUBCHEM_SUBSTANCE_ID>
310947394

> <PUBCHEM_SUBSTANCE_VERSION>
1

> <PUBCHEM_EXT_DATASOURCE_NAME>
4488

> <PUBCHEM_EXT_DATASOURCE_REGID>
SCHEMBL16125550

> <PUBCHEM_SUBSTANCE_COMMENT>
InChI=1S/C23H32O7/c1-24-13-20-3-5-22(6-4-20)15-29-18-26-11-12-27-19-30-16-23-9-7-21(8-10-23)14-28-17-25-2/h3-10H,11-19H2,1-2H3
InChIKey=OLGPNUOKZLRENJ-UHFFFAOYSA-N

> <PUBCHEM_SUBSTANCE_SYNONYM>
SCHEMBL16125550

> <PUBCHEM_XREF_EXT_ID>
SCHEMBL16125550

> <PUBCHEM_EXT_DATASOURCE_URL>
https://www.surechembl.org/

> <PUBCHEM_EXT_SUBSTANCE_URL>
https://www.surechembl.org/chemical/SCHEMBL16125550

> <PUBCHEM_CID_ASSOCIATIONS>
117613136  1

> <PUBCHEM_COORDINATE_TYPE>
1
3

$$$$
