310932227
  -OEChem-07211613022D

 35 40  0     1  0  0  0  0  0999 V2000
    0.7242   -3.6871    0.0000 F   0  0  0  0  0  0  0  0  0  0  0  0
    2.4032   -3.6871    0.0000 O   0  0  0  0  0  0  0  0  0  0  0  0
    4.0492   -0.7572    0.0000 O   0  0  0  0  0  0  0  0  0  0  0  0
    5.7281   -2.2386    0.0000 O   0  0  0  0  0  0  0  0  0  0  0  0
    9.4811   -2.9299    0.0000 O   0  0  0  0  0  0  0  0  0  0  0  0
    4.0821   -2.2057    0.0000 N   0  0  0  0  0  0  0  0  0  0  0  0
    0.7572   -2.2715    0.0000 N   0  0  0  0  0  0  0  0  0  0  0  0
    5.7281   -3.6542    0.0000 N   0  0  0  0  0  0  0  0  0  0  0  0
    5.3002   -1.5143    0.0000 N   0  0  0  0  0  0  0  0  0  0  0  0
    7.4071   -3.6542    0.0000 N   0  0  0  0  0  0  0  0  0  0  0  0
    8.1972   -2.2386    0.0000 N   0  0  0  0  0  0  0  0  0  0  0  0
    3.2262   -2.2386    0.0000 C   0  0  3  0  0  0  0  0  0  0  0  0
    2.4032   -2.2386    0.0000 C   0  0  0  0  0  0  0  0  0  0  0  0
    3.6542   -2.9628    0.0000 C   0  0  0  0  0  0  0  0  0  0  0  0
    1.9752   -2.9628    0.0000 C   0  0  0  0  0  0  0  0  0  0  0  0
    3.2591   -3.6871    0.0000 C   0  0  0  0  0  0  0  0  0  0  0  0
    2.8312   -1.5143    0.0000 C   0  0  0  0  0  0  0  0  0  0  0  0
    1.9752   -1.5143    0.0000 C   0  0  0  0  0  0  0  0  0  0  0  0
    1.1522   -2.9628    0.0000 C   0  0  0  0  0  0  0  0  0  0  0  0
    1.1522   -1.5473    0.0000 C   0  0  0  0  0  0  0  0  0  0  0  0
    4.5101   -2.9628    0.0000 C   0  0  0  0  0  0  0  0  0  0  0  0
    3.6871   -4.4113    0.0000 C   0  0  0  0  0  0  0  0  0  0  0  0
    4.4772   -1.5143    0.0000 C   0  0  0  0  0  0  0  0  0  0  0  0
    4.8722   -3.6542    0.0000 C   0  0  0  0  0  0  0  0  0  0  0  0
    0.7242   -0.8559    0.0000 C   0  0  0  0  0  0  0  0  0  0  0  0
    3.2262   -0.7901    0.0000 C   0  0  0  0  0  0  0  0  0  0  0  0
    4.4772   -4.3784    0.0000 C   0  0  0  0  0  0  0  0  0  0  0  0
    0.0000   -0.4609    0.0000 C   0  0  0  0  0  0  0  0  0  0  0  0
    0.6913    0.0000    0.0000 C   0  0  0  0  0  0  0  0  0  0  0  0
    6.1232   -2.9299    0.0000 C   0  0  0  0  0  0  0  0  0  0  0  0
    6.9462   -2.9299    0.0000 C   0  0  0  0  0  0  0  0  0  0  0  0
    7.4071   -2.2386    0.0000 C   0  0  0  0  0  0  0  0  0  0  0  0
    8.6581   -2.9299    0.0000 C   0  0  0  0  0  0  0  0  0  0  0  0
    8.1972   -3.6542    0.0000 C   0  0  0  0  0  0  0  0  0  0  0  0
    9.8761   -2.2386    0.0000 C   0  0  0  0  0  0  0  0  0  0  0  0
  1 19  1  0  0  0  0
  2 15  1  0  0  0  0
  2 16  1  0  0  0  0
  3 23  1  0  0  0  0
  3 26  1  0  0  0  0
  4 30  2  0  0  0  0
  5 33  1  0  0  0  0
  5 35  1  0  0  0  0
 12  6  1  1  0  0  0
  6 23  2  0  0  0  0
  7 19  1  0  0  0  0
  7 20  2  0  0  0  0
  8 24  1  0  0  0  0
  8 30  1  0  0  0  0
  9 23  1  0  0  0  0
 10 31  2  0  0  0  0
 10 34  1  0  0  0  0
 11 32  2  0  0  0  0
 11 33  1  0  0  0  0
 12 13  1  0  0  0  0
 12 14  1  0  0  0  0
 12 17  1  0  0  0  0
 13 15  1  0  0  0  0
 13 18  2  0  0  0  0
 14 16  2  0  0  0  0
 14 21  1  0  0  0  0
 15 19  2  0  0  0  0
 16 22  1  0  0  0  0
 17 26  1  0  0  0  0
 18 20  1  0  0  0  0
 20 25  1  0  0  0  0
 21 24  2  0  0  0  0
 22 27  2  0  0  0  0
 24 27  1  0  0  0  0
 25 28  1  0  0  0  0
 25 29  1  0  0  0  0
 28 29  1  0  0  0  0
 30 31  1  0  0  0  0
 31 32  1  0  0  0  0
 33 34  2  0  0  0  0
M  END
> <PUBCHEM_COMPOUND_ID_TYPE>
0

> <PUBCHEM_TOTAL_CHARGE>
0

> <PUBCHEM_SUBSTANCE_ID>
310932227

> <PUBCHEM_SUBSTANCE_VERSION>
1

> <PUBCHEM_EXT_DATASOURCE_NAME>
4488

> <PUBCHEM_EXT_DATASOURCE_REGID>
SCHEMBL16109584

> <PUBCHEM_SUBSTANCE_COMMENT>
InChI=1S/C24H21FN6O4/c1-33-19-11-27-17(10-28-19)22(32)29-13-4-5-18-14(8-13)24(6-7-34-23(26)31-24)15-9-16(12-2-3-12)30-21(25)20(15)35-18/h4-5,8-12H,2-3,6-7H2,1H3,(H2,26,31)(H,29,32)/t24-/m0/s1
InChIKey=SODWNIJXKDYAMU-DEOSSOPVSA-N

> <PUBCHEM_SUBSTANCE_SYNONYM>
SCHEMBL16109584

> <PUBCHEM_XREF_EXT_ID>
SCHEMBL16109584

> <PUBCHEM_EXT_DATASOURCE_URL>
https://www.surechembl.org/

> <PUBCHEM_EXT_SUBSTANCE_URL>
https://www.surechembl.org/chemical/SCHEMBL16109584

> <PUBCHEM_CID_ASSOCIATIONS>
71543070  1

> <PUBCHEM_COORDINATE_TYPE>
1
3

> <PUBCHEM_BONDANNOTATIONS>
12  6  5

$$$$
