310945447
  -OEChem-07211613022D

 30 33  0     0  0  0  0  0  0999 V2000
    0.4022    1.6376    0.0000 F   0  0  0  0  0  0  0  0  0  0  0  0
    1.2065    2.5568    0.0000 F   0  0  0  0  0  0  0  0  0  0  0  0
    2.0110    1.6376    0.0000 F   0  0  0  0  0  0  0  0  0  0  0  0
   -3.8878   -1.1586    0.0000 F   0  0  0  0  0  0  0  0  0  0  0  0
   -4.6731   -0.2202    0.0000 F   0  0  0  0  0  0  0  0  0  0  0  0
   -3.8878    0.6991    0.0000 F   0  0  0  0  0  0  0  0  0  0  0  0
    4.6731   -2.5376    0.0000 F   0  0  0  0  0  0  0  0  0  0  0  0
   -0.2489    0.5267    0.0000 N   0  0  0  0  0  0  0  0  0  0  0  0
   -0.2489   -0.9863    0.0000 N   0  0  0  0  0  0  0  0  0  0  0  0
    1.8960    0.2394    0.0000 N   0  0  0  0  0  0  0  0  0  0  0  0
    1.1874   -1.1395    0.0000 N   0  0  0  0  0  0  0  0  0  0  0  0
   -2.7005   -1.0246    0.0000 N   0  0  0  0  0  0  0  0  0  0  0  0
    0.5171    0.2202    0.0000 C   0  0  0  0  0  0  0  0  0  0  0  0
    1.1874    0.6799    0.0000 C   0  0  0  0  0  0  0  0  0  0  0  0
    0.4787   -0.7183    0.0000 C   0  0  0  0  0  0  0  0  0  0  0  0
   -0.7278   -0.2394    0.0000 C   0  0  0  0  0  0  0  0  0  0  0  0
    1.2065    1.5992    0.0000 C   0  0  0  0  0  0  0  0  0  0  0  0
    1.8769   -0.7183    0.0000 C   0  0  0  0  0  0  0  0  0  0  0  0
   -1.5131   -0.2202    0.0000 C   0  0  0  0  0  0  0  0  0  0  0  0
    2.6047   -1.1779    0.0000 C   0  0  0  0  0  0  0  0  0  0  0  0
   -1.8960   -1.0629    0.0000 C   0  0  0  0  0  0  0  0  0  0  0  0
   -1.8769    0.5459    0.0000 C   0  0  0  0  0  0  0  0  0  0  0  0
   -3.1217   -0.2586    0.0000 C   0  0  0  0  0  0  0  0  0  0  0  0
   -2.6813    0.5459    0.0000 C   0  0  0  0  0  0  0  0  0  0  0  0
   -3.8878   -0.2586    0.0000 C   0  0  0  0  0  0  0  0  0  0  0  0
    2.6238   -2.1163    0.0000 C   0  0  0  0  0  0  0  0  0  0  0  0
    3.2941   -0.7374    0.0000 C   0  0  0  0  0  0  0  0  0  0  0  0
    3.3132   -2.5568    0.0000 C   0  0  0  0  0  0  0  0  0  0  0  0
    3.9836   -1.1779    0.0000 C   0  0  0  0  0  0  0  0  0  0  0  0
    3.9644   -2.1163    0.0000 C   0  0  0  0  0  0  0  0  0  0  0  0
  1 17  1  0  0  0  0
  2 17  1  0  0  0  0
  3 17  1  0  0  0  0
  4 25  1  0  0  0  0
  5 25  1  0  0  0  0
  6 25  1  0  0  0  0
  7 30  1  0  0  0  0
  8 13  1  0  0  0  0
  8 16  2  0  0  0  0
  9 15  1  0  0  0  0
  9 16  1  0  0  0  0
 10 14  2  0  0  0  0
 10 18  1  0  0  0  0
 11 15  1  0  0  0  0
 11 18  2  0  0  0  0
 12 21  2  0  0  0  0
 12 23  1  0  0  0  0
 13 14  1  0  0  0  0
 13 15  2  0  0  0  0
 14 17  1  0  0  0  0
 16 19  1  0  0  0  0
 18 20  1  0  0  0  0
 19 21  1  0  0  0  0
 19 22  2  0  0  0  0
 20 26  2  0  0  0  0
 20 27  1  0  0  0  0
 22 24  1  0  0  0  0
 23 24  2  0  0  0  0
 23 25  1  0  0  0  0
 26 28  1  0  0  0  0
 27 29  2  0  0  0  0
 28 30  2  0  0  0  0
 29 30  1  0  0  0  0
M  END
> <PUBCHEM_COMPOUND_ID_TYPE>
0

> <PUBCHEM_TOTAL_CHARGE>
0

> <PUBCHEM_SUBSTANCE_ID>
310945447

> <PUBCHEM_SUBSTANCE_VERSION>
1

> <PUBCHEM_EXT_DATASOURCE_NAME>
4488

> <PUBCHEM_EXT_DATASOURCE_REGID>
SCHEMBL16123545

> <PUBCHEM_SUBSTANCE_COMMENT>
InChI=1S/C18H8F7N5/c19-10-4-1-8(2-5-10)14-28-13(18(23,24)25)12-16(29-14)30-15(27-12)9-3-6-11(26-7-9)17(20,21)22/h1-7H,(H,27,28,29,30)
InChIKey=ISYHXXKTQOSZHT-UHFFFAOYSA-N

> <PUBCHEM_SUBSTANCE_SYNONYM>
SCHEMBL16123545

> <PUBCHEM_XREF_EXT_ID>
SCHEMBL16123545

> <PUBCHEM_EXT_DATASOURCE_URL>
https://www.surechembl.org/

> <PUBCHEM_EXT_SUBSTANCE_URL>
https://www.surechembl.org/chemical/SCHEMBL16123545

> <PUBCHEM_CID_ASSOCIATIONS>
117611492  1

> <PUBCHEM_COORDINATE_TYPE>
1
3

$$$$
