310928704
  -OEChem-07211613022D

 12 12  0     0  0  0  0  0  0999 V2000
    1.8827    0.5052    0.0000 O   0  0  0  0  0  0  0  0  0  0  0  0
   -1.5807   -0.4228    0.0000 O   0  0  0  0  0  0  0  0  0  0  0  0
   -0.8662    0.8147    0.0000 O   0  0  0  0  0  0  0  0  0  0  0  0
    0.6452    1.2197    0.0000 O   0  0  0  0  0  0  0  0  0  0  0  0
   -0.1517   -0.4228    0.0000 C   0  0  0  0  0  0  0  0  0  0  0  0
    0.6452   -0.2093    0.0000 C   0  0  0  0  0  0  0  0  0  0  0  0
    0.8587   -1.0062    0.0000 C   0  0  0  0  0  0  0  0  0  0  0  0
    0.0618   -1.2197    0.0000 C   0  0  0  0  0  0  0  0  0  0  0  0
   -0.8662   -0.0103    0.0000 C   0  0  0  0  0  0  0  0  0  0  0  0
    1.0577    0.5052    0.0000 C   0  0  0  0  0  0  0  0  0  0  0  0
    2.2952    1.2197    0.0000 C   0  0  0  0  0  0  0  0  0  0  0  0
   -2.2952   -0.0103    0.0000 C   0  0  0  0  0  0  0  0  0  0  0  0
  1 10  1  0  0  0  0
  1 11  1  0  0  0  0
  2  9  1  0  0  0  0
  2 12  1  0  0  0  0
  3  9  2  0  0  0  0
  4 10  2  0  0  0  0
  5  6  2  0  0  0  0
  5  8  1  0  0  0  0
  5  9  1  0  0  0  0
  6  7  1  0  0  0  0
  6 10  1  0  0  0  0
  7  8  1  0  0  0  0
M  END
> <PUBCHEM_COMPOUND_ID_TYPE>
0

> <PUBCHEM_TOTAL_CHARGE>
0

> <PUBCHEM_SUBSTANCE_ID>
310928704

> <PUBCHEM_SUBSTANCE_VERSION>
1

> <PUBCHEM_EXT_DATASOURCE_NAME>
11752

> <PUBCHEM_EXT_DATASOURCE_REGID>
BD232744

> <PUBCHEM_SUBSTANCE_SYNONYM>
1128-10-5
Dimethyl cyclobut-1-ene-1,2-dicarboxylate

> <PUBCHEM_GENERIC_REGISTRY_NAME>
1128-10-5

> <PUBCHEM_XREF_EXT_ID>
BD232744

> <PUBCHEM_EXT_DATASOURCE_URL>
http://www.bidepharmatech.com/en/index.html

> <PUBCHEM_EXT_SUBSTANCE_URL>
http://www.bidepharmatech.com/en/goodsview_goodscode_BD232744.html

> <PUBCHEM_CID_ASSOCIATIONS>
317455  1

> <PUBCHEM_COORDINATE_TYPE>
1
3

$$$$
