310939981
  -OEChem-07211613022D

 27 29  0     0  0  0  0  0  0999 V2000
   -2.8582    1.0312    0.0000 Cl  0  0  0  0  0  0  0  0  0  0  0  0
   -2.1437   -1.8562    0.0000 Cl  0  0  0  0  0  0  0  0  0  0  0  0
   -0.0003   -0.6187    0.0000 O   0  0  0  0  0  0  0  0  0  0  0  0
   -0.0003    1.8562    0.0000 O   0  0  0  0  0  0  0  0  0  0  0  0
    2.8576   -1.4438    0.0000 O   0  0  0  0  0  0  0  0  0  0  0  0
    0.7142    0.6187    0.0000 N   0  0  0  0  0  0  0  0  0  0  0  0
    2.1431   -0.2063    0.0000 N   0  0  0  0  0  0  0  0  0  0  0  0
   -0.7148    0.6187    0.0000 C   0  0  0  0  0  0  0  0  0  0  0  0
   -2.1437   -0.2063    0.0000 C   0  0  0  0  0  0  0  0  0  0  0  0
   -0.7148   -0.2063    0.0000 C   0  0  0  0  0  0  0  0  0  0  0  0
   -0.0003    1.0312    0.0000 C   0  0  0  0  0  0  0  0  0  0  0  0
   -2.1437    0.6187    0.0000 C   0  0  0  0  0  0  0  0  0  0  0  0
   -2.8582   -0.6188    0.0000 C   0  0  0  0  0  0  0  0  0  0  0  0
   -1.4292    1.0312    0.0000 C   0  0  0  0  0  0  0  0  0  0  0  0
   -1.4292   -0.6188    0.0000 C   0  0  0  0  0  0  0  0  0  0  0  0
   -2.8582   -1.4437    0.0000 C   0  0  0  0  0  0  0  0  0  0  0  0
    0.7142   -0.2063    0.0000 C   0  0  0  0  0  0  0  0  0  0  0  0
    1.4287    1.0312    0.0000 C   0  0  0  0  0  0  0  0  0  0  0  0
   -3.5726   -0.2063    0.0000 C   0  0  0  0  0  0  0  0  0  0  0  0
    1.4287   -0.6188    0.0000 C   0  0  0  0  0  0  0  0  0  0  0  0
    2.1431    0.6187    0.0000 C   0  0  0  0  0  0  0  0  0  0  0  0
   -3.5726   -1.8562    0.0000 C   0  0  0  0  0  0  0  0  0  0  0  0
    2.8576   -0.6188    0.0000 C   0  0  0  0  0  0  0  0  0  0  0  0
   -4.2871   -0.6188    0.0000 C   0  0  0  0  0  0  0  0  0  0  0  0
   -4.2871   -1.4437    0.0000 C   0  0  0  0  0  0  0  0  0  0  0  0
    3.5726   -0.2063    0.0000 C   0  0  0  0  0  0  0  0  0  0  0  0
    4.2871   -0.6188    0.0000 C   0  0  0  0  0  0  0  0  0  0  0  0
  1 12  1  0  0  0  0
  2 16  1  0  0  0  0
  3 10  1  0  0  0  0
  4 11  2  0  0  0  0
  5 23  2  0  0  0  0
  6 11  1  0  0  0  0
  6 17  1  0  0  0  0
  6 18  1  0  0  0  0
  7 20  1  0  0  0  0
  7 21  1  0  0  0  0
  7 23  1  0  0  0  0
  8 10  1  0  0  0  0
  8 11  1  0  0  0  0
  8 14  2  0  0  0  0
  9 12  2  0  0  0  0
  9 13  1  0  0  0  0
  9 15  1  0  0  0  0
 10 15  2  0  0  0  0
 12 14  1  0  0  0  0
 13 16  1  0  0  0  0
 13 19  2  0  0  0  0
 16 22  2  0  0  0  0
 17 20  1  0  0  0  0
 18 21  1  0  0  0  0
 19 24  1  0  0  0  0
 22 25  1  0  0  0  0
 23 26  1  0  0  0  0
 24 25  2  0  0  0  0
 26 27  2  0  0  0  0
M  END
> <PUBCHEM_COMPOUND_ID_TYPE>
0

> <PUBCHEM_TOTAL_CHARGE>
0

> <PUBCHEM_SUBSTANCE_ID>
310939981

> <PUBCHEM_SUBSTANCE_VERSION>
1

> <PUBCHEM_EXT_DATASOURCE_NAME>
4488

> <PUBCHEM_EXT_DATASOURCE_REGID>
SCHEMBL16117911

> <PUBCHEM_SUBSTANCE_COMMENT>
InChI=1S/C20H18Cl2N2O3/c1-2-19(26)23-7-9-24(10-8-23)20(27)15-11-17(22)14(12-18(15)25)13-5-3-4-6-16(13)21/h2-6,11-12,25H,1,7-10H2
InChIKey=KSYVSJSGSLVJDE-UHFFFAOYSA-N

> <PUBCHEM_SUBSTANCE_SYNONYM>
SCHEMBL16117911

> <PUBCHEM_XREF_EXT_ID>
SCHEMBL16117911

> <PUBCHEM_EXT_DATASOURCE_URL>
https://www.surechembl.org/

> <PUBCHEM_EXT_SUBSTANCE_URL>
https://www.surechembl.org/chemical/SCHEMBL16117911

> <PUBCHEM_CID_ASSOCIATIONS>
117607147  1

> <PUBCHEM_COORDINATE_TYPE>
1
3

$$$$
