310931985
  -OEChem-07211613022D

 32 36  0     1  0  0  0  0  0999 V2000
    0.0000   -0.0907    0.0000 Br  0  0  0  0  0  0  0  0  0  0  0  0
    1.6926   -2.9016    0.0000 O   0  0  0  0  0  0  0  0  0  0  0  0
    3.3248    0.0000    0.0000 O   0  0  0  0  0  0  0  0  0  0  0  0
    4.9569   -1.4508    0.0000 O   0  0  0  0  0  0  0  0  0  0  0  0
    8.6746   -2.1762    0.0000 O   0  0  0  0  0  0  0  0  0  0  0  0
    3.3248   -1.4508    0.0000 N   0  0  0  0  0  0  0  0  0  0  0  0
    0.4232   -2.2064    0.0000 N   0  0  0  0  0  0  0  0  0  0  0  0
    4.9569   -2.8714    0.0000 N   0  0  0  0  0  0  0  0  0  0  0  0
    4.5338   -0.7254    0.0000 N   0  0  0  0  0  0  0  0  0  0  0  0
    6.6193   -2.8714    0.0000 N   0  0  0  0  0  0  0  0  0  0  0  0
    7.4052   -1.4508    0.0000 N   0  0  0  0  0  0  0  0  0  0  0  0
    2.4785   -1.4810    0.0000 C   0  0  3  0  0  0  0  0  0  0  0  0
    2.9318   -2.1762    0.0000 C   0  0  0  0  0  0  0  0  0  0  0  0
    1.6624   -1.4810    0.0000 C   0  0  0  0  0  0  0  0  0  0  0  0
    2.5087   -2.9016    0.0000 C   0  0  0  0  0  0  0  0  0  0  0  0
    1.2392   -2.1762    0.0000 C   0  0  0  0  0  0  0  0  0  0  0  0
    2.0855   -0.7556    0.0000 C   0  0  0  0  0  0  0  0  0  0  0  0
    3.7479   -2.1762    0.0000 C   0  0  0  0  0  0  0  0  0  0  0  0
    1.2392   -0.7556    0.0000 C   0  0  0  0  0  0  0  0  0  0  0  0
    4.1409   -2.8714    0.0000 C   0  0  0  0  0  0  0  0  0  0  0  0
    2.9318   -3.6270    0.0000 C   0  0  0  0  0  0  0  0  0  0  0  0
    3.7177   -0.7254    0.0000 C   0  0  0  0  0  0  0  0  0  0  0  0
    0.4534   -0.7859    0.0000 C   0  0  0  0  0  0  0  0  0  0  0  0
    2.4785   -0.0302    0.0000 C   0  0  0  0  0  0  0  0  0  0  0  0
    3.7177   -3.5968    0.0000 C   0  0  0  0  0  0  0  0  0  0  0  0
    0.0302   -1.5113    0.0000 C   0  0  0  0  0  0  0  0  0  0  0  0
    5.3499   -2.1762    0.0000 C   0  0  0  0  0  0  0  0  0  0  0  0
    6.1660   -2.1762    0.0000 C   0  0  0  0  0  0  0  0  0  0  0  0
    6.6193   -1.4508    0.0000 C   0  0  0  0  0  0  0  0  0  0  0  0
    7.8586   -2.1762    0.0000 C   0  0  0  0  0  0  0  0  0  0  0  0
    7.4052   -2.8714    0.0000 C   0  0  0  0  0  0  0  0  0  0  0  0
    9.0675   -1.4508    0.0000 C   0  0  0  0  0  0  0  0  0  0  0  0
  1 23  1  0  0  0  0
  2 15  1  0  0  0  0
  2 16  1  0  0  0  0
  3 22  1  0  0  0  0
  3 24  1  0  0  0  0
  4 27  2  0  0  0  0
  5 30  1  0  0  0  0
  5 32  1  0  0  0  0
 12  6  1  1  0  0  0
  6 22  2  0  0  0  0
  7 16  1  0  0  0  0
  7 26  2  0  0  0  0
  8 20  1  0  0  0  0
  8 27  1  0  0  0  0
  9 22  1  0  0  0  0
 10 28  2  0  0  0  0
 10 31  1  0  0  0  0
 11 29  2  0  0  0  0
 11 30  1  0  0  0  0
 12 13  1  0  0  0  0
 12 14  1  0  0  0  0
 12 17  1  0  0  0  0
 13 15  2  0  0  0  0
 13 18  1  0  0  0  0
 14 16  2  0  0  0  0
 14 19  1  0  0  0  0
 15 21  1  0  0  0  0
 17 24  1  0  0  0  0
 18 20  2  0  0  0  0
 19 23  2  0  0  0  0
 20 25  1  0  0  0  0
 21 25  2  0  0  0  0
 23 26  1  0  0  0  0
 27 28  1  0  0  0  0
 28 29  1  0  0  0  0
 30 31  2  0  0  0  0
M  END
> <PUBCHEM_COMPOUND_ID_TYPE>
0

> <PUBCHEM_TOTAL_CHARGE>
0

> <PUBCHEM_SUBSTANCE_ID>
310931985

> <PUBCHEM_SUBSTANCE_VERSION>
1

> <PUBCHEM_EXT_DATASOURCE_NAME>
4488

> <PUBCHEM_EXT_DATASOURCE_REGID>
SCHEMBL16109325

> <PUBCHEM_SUBSTANCE_COMMENT>
InChI=1S/C21H17BrN6O4/c1-30-17-10-24-15(9-25-17)18(29)27-12-2-3-16-13(7-12)21(4-5-31-20(23)28-21)14-6-11(22)8-26-19(14)32-16/h2-3,6-10H,4-5H2,1H3,(H2,23,28)(H,27,29)/t21-/m0/s1
InChIKey=NPRHMVHRHMXTBN-NRFANRHFSA-N

> <PUBCHEM_SUBSTANCE_SYNONYM>
SCHEMBL16109325

> <PUBCHEM_XREF_EXT_ID>
SCHEMBL16109325

> <PUBCHEM_EXT_DATASOURCE_URL>
https://www.surechembl.org/

> <PUBCHEM_EXT_SUBSTANCE_URL>
https://www.surechembl.org/chemical/SCHEMBL16109325

> <PUBCHEM_CID_ASSOCIATIONS>
71542227  1

> <PUBCHEM_COORDINATE_TYPE>
1
3

> <PUBCHEM_BONDANNOTATIONS>
12  6  5

$$$$
