310929341
  -OEChem-07211613022D

 64 72  0     1  0  0  0  0  0999 V2000
    5.4527   -0.9418    0.0000 S   0  0  0  0  0  0  0  0  0  0  0  0
    8.5260   -5.0561    0.0000 F   0  0  0  0  0  0  0  0  0  0  0  0
    5.0561   -2.5280    0.0000 O   0  0  0  0  0  0  0  0  0  0  0  0
    5.6510   -1.6854    0.0000 O   0  0  0  0  0  0  0  0  0  0  0  0
    5.2048   -0.1487    0.0000 O   0  0  0  0  0  0  0  0  0  0  0  0
    5.0065   -3.1725    0.0000 O   0  0  0  0  0  0  0  0  0  0  0  0
    6.0971   -5.5023    0.0000 O   0  0  0  0  0  0  0  0  0  0  0  0
    7.1380   -8.3277    0.0000 O   0  0  0  0  0  0  0  0  0  0  0  0
    2.2307   -3.9656    0.0000 O   0  0  0  0  0  0  0  0  0  0  0  0
    1.6854   -7.5346    0.0000 O   0  0  0  0  0  0  0  0  0  0  0  0
    0.7931   -6.6919    0.0000 O   0  0  0  0  0  0  0  0  0  0  0  0
    3.6186   -2.9742    0.0000 N   0  0  0  0  0  0  0  0  0  0  0  0
    4.6595   -1.1401    0.0000 N   0  0  0  0  0  0  0  0  0  0  0  0
    3.4203   -4.2630    0.0000 N   0  0  0  0  0  0  0  0  0  0  0  0
    7.1380   -5.8492    0.0000 N   0  0  0  0  0  0  0  0  0  0  0  0
    1.6854   -5.8492    0.0000 N   0  0  0  0  0  0  0  0  0  0  0  0
    9.2695   -9.4678    0.0000 N   0  0  0  0  0  0  0  0  0  0  0  0
    3.6681   -2.1811    0.0000 C   0  0  3  0  0  0  0  0  0  0  0  0
    2.9742   -1.7845    0.0000 C   0  0  3  0  0  0  0  0  0  0  0  0
    3.6681   -1.3384    0.0000 C   0  0  0  0  0  0  0  0  0  0  0  0
    4.4613   -1.9332    0.0000 C   0  0  0  0  0  0  0  0  0  0  0  0
    6.1962   -0.6940    0.0000 C   0  0  0  0  0  0  0  0  0  0  0  0
    4.2630   -3.4699    0.0000 C   0  0  0  0  0  0  0  0  0  0  0  0
    2.1811   -1.8341    0.0000 C   0  0  0  0  0  0  0  0  0  0  0  0
    6.7911   -0.0991    0.0000 C   0  0  0  0  0  0  0  0  0  0  0  0
    7.0389   -0.8923    0.0000 C   0  0  0  0  0  0  0  0  0  0  0  0
    4.1639   -4.2630    0.0000 C   0  0  3  0  0  0  0  0  0  0  0  0
    5.7996    0.0000    0.0000 C   0  0  0  0  0  0  0  0  0  0  0  0
    5.0065   -4.4613    0.0000 C   0  0  0  0  0  0  0  0  0  0  0  0
    5.6510   -4.8082    0.0000 C   0  0  3  0  0  0  0  0  0  0  0  0
    4.7092   -3.9160    0.0000 C   0  0  0  0  0  0  0  0  0  0  0  0
    2.6768   -4.6595    0.0000 C   0  0  0  0  0  0  0  0  0  0  0  0
    6.3945   -6.2954    0.0000 C   0  0  0  0  0  0  0  0  0  0  0  0
    6.3945   -7.0389    0.0000 C   0  0  0  0  0  0  0  0  0  0  0  0
    1.7845   -2.5280    0.0000 C   0  0  0  0  0  0  0  0  0  0  0  0
    7.1380   -7.5346    0.0000 C   0  0  0  0  0  0  0  0  0  0  0  0
    7.7825   -7.0389    0.0000 C   0  0  0  0  0  0  0  0  0  0  0  0
    2.0324   -5.2048    0.0000 C   0  0  3  0  0  0  0  0  0  0  0  0
    7.7825   -6.2954    0.0000 C   0  0  0  0  0  0  0  0  0  0  0  0
    8.5260   -5.8492    0.0000 C   0  0  0  0  0  0  0  0  0  0  0  0
    1.4375   -4.7092    0.0000 C   0  0  0  0  0  0  0  0  0  0  0  0
    8.5260   -7.5346    0.0000 C   0  0  0  0  0  0  0  0  0  0  0  0
    6.0971   -7.8816    0.0000 C   0  0  0  0  0  0  0  0  0  0  0  0
    9.2695   -6.2954    0.0000 C   0  0  0  0  0  0  0  0  0  0  0  0
    7.8816   -8.7243    0.0000 C   0  0  0  0  0  0  0  0  0  0  0  0
    9.2695   -7.0389    0.0000 C   0  0  0  0  0  0  0  0  0  0  0  0
    1.5862   -6.6919    0.0000 C   0  0  0  0  0  0  0  0  0  0  0  0
    2.0324   -8.1790    0.0000 C   0  0  3  0  0  0  0  0  0  0  0  0
    0.6444   -4.9570    0.0000 C   0  0  0  0  0  0  0  0  0  0  0  0
    1.5367   -3.8664    0.0000 C   0  0  0  0  0  0  0  0  0  0  0  0
    2.6768   -8.7243    0.0000 C   0  0  3  0  0  0  0  0  0  0  0  0
    5.6510   -8.5260    0.0000 C   0  0  0  0  0  0  0  0  0  0  0  0
    1.8837   -8.9721    0.0000 C   0  0  0  0  0  0  0  0  0  0  0  0
    7.8816   -9.5174    0.0000 C   0  0  0  0  0  0  0  0  0  0  0  0
    8.5756   -8.2781    0.0000 C   0  0  0  0  0  0  0  0  0  0  0  0
    0.0000   -4.4613    0.0000 C   0  0  0  0  0  0  0  0  0  0  0  0
    0.9418   -3.3708    0.0000 C   0  0  0  0  0  0  0  0  0  0  0  0
    3.4203   -9.0713    0.0000 C   0  0  0  0  0  0  0  0  0  0  0  0
    5.0065   -8.8730    0.0000 C   0  0  0  0  0  0  0  0  0  0  0  0
    0.1487   -3.6186    0.0000 C   0  0  0  0  0  0  0  0  0  0  0  0
    4.1639   -9.0713    0.0000 C   0  0  0  0  0  0  0  0  0  0  0  0
    8.6251   -9.9140    0.0000 C   0  0  0  0  0  0  0  0  0  0  0  0
    9.2695   -8.6747    0.0000 C   0  0  0  0  0  0  0  0  0  0  0  0
   10.0131   -9.8644    0.0000 C   0  0  0  0  0  0  0  0  0  0  0  0
  1  4  2  0  0  0  0
  1  5  2  0  0  0  0
  1 13  1  0  0  0  0
  1 22  1  0  0  0  0
  2 40  1  0  0  0  0
  3 21  2  0  0  0  0
  6 23  2  0  0  0  0
  7 30  1  0  0  0  0
  7 33  1  0  0  0  0
  8 36  1  0  0  0  0
  8 45  1  0  0  0  0
  9 32  2  0  0  0  0
 10 47  1  0  0  0  0
 10 48  1  0  0  0  0
 11 47  2  0  0  0  0
 18 12  1  1  0  0  0
 12 23  1  0  0  0  0
 13 21  1  0  0  0  0
 14 27  1  0  0  0  0
 14 31  1  0  0  0  0
 14 32  1  0  0  0  0
 15 33  1  0  0  0  0
 15 39  2  0  0  0  0
 16 38  1  0  0  0  0
 16 47  1  0  0  0  0
 17 62  1  0  0  0  0
 17 63  1  0  0  0  0
 17 64  1  0  0  0  0
 18 19  1  0  0  0  0
 18 20  1  0  0  0  0
 18 21  1  6  0  0  0
 19 20  1  0  0  0  0
 19 24  1  6  0  0  0
 22 25  1  0  0  0  0
 22 26  1  0  0  0  0
 22 28  1  0  0  0  0
 27 23  1  6  0  0  0
 24 35  2  0  0  0  0
 25 26  1  0  0  0  0
 27 29  1  0  0  0  0
 30 29  1  1  0  0  0
 30 31  1  0  0  0  0
 38 32  1  1  0  0  0
 33 34  2  0  0  0  0
 34 36  1  0  0  0  0
 34 43  1  0  0  0  0
 36 37  2  0  0  0  0
 37 39  1  0  0  0  0
 37 42  1  0  0  0  0
 38 41  1  0  0  0  0
 39 40  1  0  0  0  0
 40 44  2  0  0  0  0
 41 49  1  0  0  0  0
 41 50  1  0  0  0  0
 42 46  2  0  0  0  0
 43 52  1  0  0  0  0
 44 46  1  0  0  0  0
 45 54  1  0  0  0  0
 45 55  1  0  0  0  0
 48 51  1  0  0  0  0
 48 53  1  1  0  0  0
 49 56  1  0  0  0  0
 50 57  1  0  0  0  0
 51 53  1  6  0  0  0
 51 58  1  0  0  0  0
 52 59  1  0  0  0  0
 54 62  1  0  0  0  0
 55 63  1  0  0  0  0
 56 60  1  0  0  0  0
 57 60  1  0  0  0  0
 58 61  1  0  0  0  0
 59 61  1  0  0  0  0
M  END
> <PUBCHEM_COMPOUND_ID_TYPE>
0

> <PUBCHEM_TOTAL_CHARGE>
0

> <PUBCHEM_SUBSTANCE_ID>
310929341

> <PUBCHEM_SUBSTANCE_VERSION>
1

> <PUBCHEM_EXT_DATASOURCE_NAME>
4488

> <PUBCHEM_EXT_DATASOURCE_REGID>
SCHEMBL16106508

> <PUBCHEM_SUBSTANCE_COMMENT>
InChI=1S/C47H63FN6O9S/c1-4-30-26-47(30,44(57)52-64(59,60)46(2)20-21-46)51-41(55)36-25-32-27-54(36)43(56)38(28-12-7-5-8-13-28)50-45(58)63-37-24-29(37)14-9-6-10-15-34-40(61-31-18-22-53(3)23-19-31)33-16-11-17-35(48)39(33)49-42(34)62-32/h4,11,16-17,28-32,36-38H,1,5-10,12-15,18-27H2,2-3H3,(H,50,58)(H,51,55)(H,52,57)/t29-,30-,32-,36+,37-,38+,47-/m1/s1
InChIKey=BGMVDRCKVOSJSS-HRKMDQCTSA-N

> <PUBCHEM_SUBSTANCE_SYNONYM>
SCHEMBL16106508

> <PUBCHEM_XREF_EXT_ID>
SCHEMBL16106508

> <PUBCHEM_EXT_DATASOURCE_URL>
https://www.surechembl.org/

> <PUBCHEM_EXT_SUBSTANCE_URL>
https://www.surechembl.org/chemical/SCHEMBL16106508

> <PUBCHEM_CID_ASSOCIATIONS>
117598727  1

> <PUBCHEM_COORDINATE_TYPE>
1
3

> <PUBCHEM_BONDANNOTATIONS>
18  12  5
18  21  6
19  24  6
27  23  6
30  29  5
38  32  5
48  53  5
51  53  6

$$$$
