310949649
  -OEChem-07211613022D

 22 23  0     0  0  0  0  0  0999 V2000
    2.3189    1.0595    0.0000 S   0  0  0  0  0  0  0  0  0  0  0  0
    1.6125    1.4726    0.0000 O   0  0  0  0  0  0  0  0  0  0  0  0
    3.0518    0.6463    0.0000 O   0  0  0  0  0  0  0  0  0  0  0  0
   -0.1599   -1.7924    0.0000 O   0  0  0  0  0  0  0  0  0  0  0  0
   -1.8124    1.0595    0.0000 O   0  0  0  0  0  0  0  0  0  0  0  0
   -0.5730    0.3531    0.0000 O   0  0  0  0  0  0  0  0  0  0  0  0
   -0.1599   -0.3664    0.0000 N   0  0  0  0  0  0  0  0  0  0  0  0
   -1.4126   -1.0728    0.0000 C   0  0  0  0  0  0  0  0  0  0  0  0
    1.8924    0.3531    0.0000 C   0  0  0  0  0  0  0  0  0  0  0  0
    0.6663   -0.3664    0.0000 C   0  0  0  0  0  0  0  0  0  0  0  0
   -1.8390   -0.3664    0.0000 C   0  0  0  0  0  0  0  0  0  0  0  0
   -0.5864   -1.0728    0.0000 C   0  0  0  0  0  0  0  0  0  0  0  0
    1.0928    0.3398    0.0000 C   0  0  0  0  0  0  0  0  0  0  0  0
    2.3189   -0.3798    0.0000 C   0  0  0  0  0  0  0  0  0  0  0  0
   -1.8124   -1.7924    0.0000 C   0  0  0  0  0  0  0  0  0  0  0  0
    1.0795   -1.0728    0.0000 C   0  0  0  0  0  0  0  0  0  0  0  0
   -1.3993    0.3398    0.0000 C   0  0  0  0  0  0  0  0  0  0  0  0
   -2.6520   -0.3798    0.0000 C   0  0  0  0  0  0  0  0  0  0  0  0
    1.9190   -1.0728    0.0000 C   0  0  0  0  0  0  0  0  0  0  0  0
   -2.6520   -1.7924    0.0000 C   0  0  0  0  0  0  0  0  0  0  0  0
   -3.0518   -1.0862    0.0000 C   0  0  0  0  0  0  0  0  0  0  0  0
    2.7719    1.7924    0.0000 C   0  0  0  0  0  0  0  0  0  0  0  0
  1  2  2  0  0  0  0
  1  3  2  0  0  0  0
  1  9  1  0  0  0  0
  1 22  1  0  0  0  0
  4 12  2  0  0  0  0
  5 17  2  0  0  0  0
  6 17  1  0  0  0  0
  7 10  1  0  0  0  0
  7 12  1  0  0  0  0
  8 11  1  0  0  0  0
  8 12  1  0  0  0  0
  8 15  2  0  0  0  0
  9 13  1  0  0  0  0
  9 14  2  0  0  0  0
 10 13  2  0  0  0  0
 10 16  1  0  0  0  0
 11 17  1  0  0  0  0
 11 18  2  0  0  0  0
 14 19  1  0  0  0  0
 15 20  1  0  0  0  0
 16 19  2  0  0  0  0
 18 21  1  0  0  0  0
 20 21  2  0  0  0  0
M  END
> <PUBCHEM_COMPOUND_ID_TYPE>
0

> <PUBCHEM_TOTAL_CHARGE>
0

> <PUBCHEM_SUBSTANCE_ID>
310949649

> <PUBCHEM_SUBSTANCE_VERSION>
1

> <PUBCHEM_EXT_DATASOURCE_NAME>
4488

> <PUBCHEM_EXT_DATASOURCE_REGID>
SCHEMBL16127847

> <PUBCHEM_SUBSTANCE_COMMENT>
InChI=1S/C15H13NO5S/c1-22(20,21)11-6-4-5-10(9-11)16-14(17)12-7-2-3-8-13(12)15(18)19/h2-9H,1H3,(H,16,17)(H,18,19)
InChIKey=RCTRYQCPDNXEFQ-UHFFFAOYSA-N

> <PUBCHEM_SUBSTANCE_SYNONYM>
SCHEMBL16127847

> <PUBCHEM_XREF_EXT_ID>
SCHEMBL16127847

> <PUBCHEM_EXT_DATASOURCE_URL>
https://www.surechembl.org/

> <PUBCHEM_EXT_SUBSTANCE_URL>
https://www.surechembl.org/chemical/SCHEMBL16127847

> <PUBCHEM_CID_ASSOCIATIONS>
117615027  1

> <PUBCHEM_COORDINATE_TYPE>
1
3

$$$$
