310946883
  -OEChem-07211613022D

 40 43  0     1  0  0  0  0  0999 V2000
   -2.1849    1.7742    0.0000 O   0  0  0  0  0  0  0  0  0  0  0  0
   -2.9734   -2.3820    0.0000 O   0  0  0  0  0  0  0  0  0  0  0  0
   -2.5462    3.3512    0.0000 O   0  0  0  0  0  0  0  0  0  0  0  0
   -1.1663    3.7126    0.0000 O   0  0  0  0  0  0  0  0  0  0  0  0
   -1.4784   -0.0822    0.0000 N   0  0  0  0  0  0  0  0  0  0  0  0
   -0.9856   -0.7393    0.0000 N   0  0  0  0  0  0  0  0  0  0  0  0
   -1.2320   -2.2012    0.0000 N   0  0  0  0  0  0  0  0  0  0  0  0
   -3.6798   -1.1663    0.0000 N   0  0  0  0  0  0  0  0  0  0  0  0
    0.9364    0.4435    0.0000 N   0  0  0  0  0  0  0  0  0  0  0  0
    2.5627   -2.2669    0.0000 N   0  0  0  0  0  0  0  0  0  0  0  0
   -1.2156    0.7393    0.0000 C   0  0  3  0  0  0  0  0  0  0  0  0
   -2.2506   -0.3285    0.0000 C   0  0  0  0  0  0  0  0  0  0  0  0
   -2.2669   -1.1499    0.0000 C   0  0  0  0  0  0  0  0  0  0  0  0
   -1.4784   -1.4127    0.0000 C   0  0  0  0  0  0  0  0  0  0  0  0
   -2.9734   -1.5441    0.0000 C   0  0  0  0  0  0  0  0  0  0  0  0
   -2.0041    0.9692    0.0000 C   0  0  0  0  0  0  0  0  0  0  0  0
   -0.6078    1.2813    0.0000 C   0  0  0  0  0  0  0  0  0  0  0  0
   -2.9734    0.0822    0.0000 C   0  0  0  0  0  0  0  0  0  0  0  0
   -0.6736    0.0822    0.0000 C   0  0  0  0  0  0  0  0  0  0  0  0
   -1.5770    2.3163    0.0000 C   0  0  3  0  0  0  0  0  0  0  0  0
   -0.7721    2.0698    0.0000 C   0  0  0  0  0  0  0  0  0  0  0  0
   -3.6798   -0.3285    0.0000 C   0  0  0  0  0  0  0  0  0  0  0  0
   -0.4107   -2.3656    0.0000 C   0  0  0  0  0  0  0  0  0  0  0  0
   -1.8070    3.1541    0.0000 C   0  0  0  0  0  0  0  0  0  0  0  0
    0.1314    0.2628    0.0000 C   0  0  0  0  0  0  0  0  0  0  0  0
   -0.1479   -3.1376    0.0000 C   0  0  0  0  0  0  0  0  0  0  0  0
    0.1479   -1.7577    0.0000 C   0  0  0  0  0  0  0  0  0  0  0  0
    1.1828   -2.7105    0.0000 C   0  0  0  0  0  0  0  0  0  0  0  0
    2.0041   -2.8748    0.0000 C   0  0  0  0  0  0  0  0  0  0  0  0
    0.6571   -3.3183    0.0000 C   0  0  0  0  0  0  0  0  0  0  0  0
    0.9528   -1.9220    0.0000 C   0  0  0  0  0  0  0  0  0  0  0  0
   -3.1376    2.7434    0.0000 C   0  0  0  0  0  0  0  0  0  0  0  0
    2.6448   -3.4169    0.0000 C   0  0  0  0  0  0  0  0  0  0  0  0
    1.8563   -3.7126    0.0000 C   0  0  0  0  0  0  0  0  0  0  0  0
    3.3676   -2.4313    0.0000 C   0  0  0  0  0  0  0  0  0  0  0  0
   -3.9261    2.9569    0.0000 C   0  0  0  0  0  0  0  0  0  0  0  0
   -3.6962    2.1520    0.0000 C   0  0  0  0  0  0  0  0  0  0  0  0
   -2.8912    1.9548    0.0000 C   0  0  0  0  0  0  0  0  0  0  0  0
    3.9261   -1.8070    0.0000 C   0  0  0  0  0  0  0  0  0  0  0  0
    3.6469   -3.2362    0.0000 C   0  0  0  0  0  0  0  0  0  0  0  0
  1 16  1  0  0  0  0
  1 20  1  0  0  0  0
  2 15  2  0  0  0  0
  3 24  1  0  0  0  0
  3 32  1  0  0  0  0
  4 24  2  0  0  0  0
  5  6  1  0  0  0  0
  5 11  1  0  0  0  0
  5 12  1  0  0  0  0
  6 14  2  0  0  0  0
  7 14  1  0  0  0  0
  7 23  1  0  0  0  0
  8 15  1  0  0  0  0
  8 22  1  0  0  0  0
  9 25  3  0  0  0  0
 10 29  1  0  0  0  0
 10 35  1  0  0  0  0
 11 16  1  0  0  0  0
 11 17  1  0  0  0  0
 11 19  1  6  0  0  0
 12 13  2  0  0  0  0
 12 18  1  0  0  0  0
 13 14  1  0  0  0  0
 13 15  1  0  0  0  0
 17 21  1  0  0  0  0
 18 22  2  0  0  0  0
 19 25  1  0  0  0  0
 20 21  1  0  0  0  0
 20 24  1  6  0  0  0
 23 26  2  0  0  0  0
 23 27  1  0  0  0  0
 26 30  1  0  0  0  0
 27 31  2  0  0  0  0
 28 29  1  0  0  0  0
 28 30  2  0  0  0  0
 28 31  1  0  0  0  0
 29 33  1  0  0  0  0
 29 34  1  0  0  0  0
 32 36  1  0  0  0  0
 32 37  1  0  0  0  0
 32 38  1  0  0  0  0
 35 39  1  0  0  0  0
 35 40  1  0  0  0  0
M  END
> <PUBCHEM_COMPOUND_ID_TYPE>
0

> <PUBCHEM_TOTAL_CHARGE>
0

> <PUBCHEM_SUBSTANCE_ID>
310946883

> <PUBCHEM_SUBSTANCE_VERSION>
1

> <PUBCHEM_EXT_DATASOURCE_NAME>
4488

> <PUBCHEM_EXT_DATASOURCE_REGID>
SCHEMBL16125007

> <PUBCHEM_SUBSTANCE_COMMENT>
InChI=1S/C30H40N6O4/c1-19(2)34-29(6,7)20-8-10-21(11-9-20)33-25-24-22(13-17-32-26(24)37)36(35-25)30(15-16-31)14-12-23(39-18-30)27(38)40-28(3,4)5/h8-11,13,17,19,23,34H,12,14-15,18H2,1-7H3,(H,32,37)(H,33,35)/t23-,30-/m0/s1
InChIKey=BYNHGTHMKXBXFK-JHOBJCJYSA-N

> <PUBCHEM_SUBSTANCE_SYNONYM>
SCHEMBL16125007

> <PUBCHEM_XREF_EXT_ID>
SCHEMBL16125007

> <PUBCHEM_EXT_DATASOURCE_URL>
https://www.surechembl.org/

> <PUBCHEM_EXT_SUBSTANCE_URL>
https://www.surechembl.org/chemical/SCHEMBL16125007

> <PUBCHEM_CID_ASSOCIATIONS>
117612741  1

> <PUBCHEM_COORDINATE_TYPE>
1
3

> <PUBCHEM_BONDANNOTATIONS>
11  19  6
20  24  6

$$$$
