310933789
  -OEChem-07211613022D

 31 34  0     0  0  0  0  0  0999 V2000
    0.9134   -0.2342    0.0000 O   0  0  0  0  0  0  0  0  0  0  0  0
    0.0000   -3.9346    0.0000 O   0  0  0  0  0  0  0  0  0  0  0  0
    3.4428   -4.2156    0.0000 O   0  0  0  0  0  0  0  0  0  0  0  0
    2.7636   -1.2647    0.0000 N   0  0  0  0  0  0  0  0  0  0  0  0
    2.3654    0.0000    0.0000 N   0  0  0  0  0  0  0  0  0  0  0  0
    3.8175   -0.2342    0.0000 N   0  0  0  0  0  0  0  0  0  0  0  0
    1.9439   -1.2647    0.0000 C   0  0  0  0  0  0  0  0  0  0  0  0
    1.7097   -0.4918    0.0000 C   0  0  0  0  0  0  0  0  0  0  0  0
    1.4755   -1.9439    0.0000 C   0  0  0  0  0  0  0  0  0  0  0  0
    2.3186   -2.0141    0.0000 C   0  0  0  0  0  0  0  0  0  0  0  0
    3.0212   -0.4918    0.0000 C   0  0  0  0  0  0  0  0  0  0  0  0
    3.2554   -1.9439    0.0000 C   0  0  0  0  0  0  0  0  0  0  0  0
    1.8033   -2.6933    0.0000 C   0  0  0  0  0  0  0  0  0  0  0  0
    3.1617   -2.0610    0.0000 C   0  0  0  0  0  0  0  0  0  0  0  0
    0.6557   -1.8502    0.0000 C   0  0  0  0  0  0  0  0  0  0  0  0
    2.0375   -2.8573    0.0000 C   0  0  0  0  0  0  0  0  0  0  0  0
    4.0751   -1.8502    0.0000 C   0  0  0  0  0  0  0  0  0  0  0  0
    1.3115   -3.3725    0.0000 C   0  0  0  0  0  0  0  0  0  0  0  0
    3.5130   -2.7870    0.0000 C   0  0  0  0  0  0  0  0  0  0  0  0
    0.1639   -2.5294    0.0000 C   0  0  0  0  0  0  0  0  0  0  0  0
    2.2483   -3.4193    0.0000 C   0  0  0  0  0  0  0  0  0  0  0  0
    0.4918   -3.2788    0.0000 C   0  0  0  0  0  0  0  0  0  0  0  0
    3.0680   -3.4896    0.0000 C   0  0  0  0  0  0  0  0  0  0  0  0
    4.5669   -2.5060    0.0000 C   0  0  0  0  0  0  0  0  0  0  0  0
    4.4264   -1.1007    0.0000 C   0  0  0  0  0  0  0  0  0  0  0  0
    5.3866   -2.4357    0.0000 C   0  0  0  0  0  0  0  0  0  0  0  0
    5.2461   -1.0071    0.0000 C   0  0  0  0  0  0  0  0  0  0  0  0
    5.7145   -1.6863    0.0000 C   0  0  0  0  0  0  0  0  0  0  0  0
    4.2390   -3.2554    0.0000 C   0  0  0  0  0  0  0  0  0  0  0  0
    0.3279   -4.6840    0.0000 C   0  0  0  0  0  0  0  0  0  0  0  0
    4.2625   -4.2625    0.0000 C   0  0  0  0  0  0  0  0  0  0  0  0
  1  8  2  0  0  0  0
  2 22  1  0  0  0  0
  2 30  1  0  0  0  0
  3 23  1  0  0  0  0
  3 31  1  0  0  0  0
  4  7  1  0  0  0  0
  4 11  1  0  0  0  0
  4 12  1  0  0  0  0
  5  8  1  0  0  0  0
  5 11  1  0  0  0  0
  6 11  2  3  0  0  0
  7  8  1  0  0  0  0
  7  9  1  0  0  0  0
  7 10  1  0  0  0  0
  9 13  2  0  0  0  0
  9 15  1  0  0  0  0
 10 14  2  0  0  0  0
 10 16  1  0  0  0  0
 12 17  1  0  0  0  0
 13 18  1  0  0  0  0
 14 19  1  0  0  0  0
 15 20  2  0  0  0  0
 16 21  2  0  0  0  0
 17 24  1  0  0  0  0
 17 25  2  0  0  0  0
 18 22  2  0  0  0  0
 19 23  2  0  0  0  0
 20 22  1  0  0  0  0
 21 23  1  0  0  0  0
 24 26  2  0  0  0  0
 24 29  1  0  0  0  0
 25 27  1  0  0  0  0
 26 28  1  0  0  0  0
 27 28  2  0  0  0  0
M  END
> <PUBCHEM_COMPOUND_ID_TYPE>
0

> <PUBCHEM_TOTAL_CHARGE>
0

> <PUBCHEM_SUBSTANCE_ID>
310933789

> <PUBCHEM_SUBSTANCE_VERSION>
1

> <PUBCHEM_EXT_DATASOURCE_NAME>
4488

> <PUBCHEM_EXT_DATASOURCE_REGID>
SCHEMBL16111226

> <PUBCHEM_SUBSTANCE_COMMENT>
InChI=1S/C25H25N3O3/c1-17-6-4-5-7-18(17)16-28-24(26)27-23(29)25(28,19-8-12-21(30-2)13-9-19)20-10-14-22(31-3)15-11-20/h4-15H,16H2,1-3H3,(H2,26,27,29)
InChIKey=JBMHZGIXHCDMMH-UHFFFAOYSA-N

> <PUBCHEM_SUBSTANCE_SYNONYM>
SCHEMBL16111226

> <PUBCHEM_XREF_EXT_ID>
SCHEMBL16111226

> <PUBCHEM_EXT_DATASOURCE_URL>
https://www.surechembl.org/

> <PUBCHEM_EXT_SUBSTANCE_URL>
https://www.surechembl.org/chemical/SCHEMBL16111226

> <PUBCHEM_CID_ASSOCIATIONS>
117602139  1

> <PUBCHEM_COORDINATE_TYPE>
1
3

$$$$
