310944344
  -OEChem-07211613022D

 24 26  0     0  0  0  0  0  0999 V2000
   -0.0260    1.8411    0.0000 F   0  0  0  0  0  0  0  0  0  0  0  0
   -2.1912    1.3743    0.0000 N   0  0  0  0  0  0  0  0  0  0  0  0
    2.1393    1.4003    0.0000 N   0  0  0  0  0  0  0  0  0  0  0  0
    0.6742   -0.1945    0.0000 C   0  0  0  0  0  0  0  0  0  0  0  0
   -0.7520   -0.1945    0.0000 C   0  0  0  0  0  0  0  0  0  0  0  0
   -0.0389   -0.5964    0.0000 C   0  0  0  0  0  0  0  0  0  0  0  0
    0.6742    0.6483    0.0000 C   0  0  0  0  0  0  0  0  0  0  0  0
   -0.7520    0.6223    0.0000 C   0  0  0  0  0  0  0  0  0  0  0  0
   -0.0260    1.0502    0.0000 C   0  0  0  0  0  0  0  0  0  0  0  0
    1.4133   -0.5964    0.0000 C   0  0  0  0  0  0  0  0  0  0  0  0
   -1.4651   -0.6223    0.0000 C   0  0  0  0  0  0  0  0  0  0  0  0
   -1.4781    1.0114    0.0000 C   0  0  0  0  0  0  0  0  0  0  0  0
    1.4133    1.0372    0.0000 C   0  0  0  0  0  0  0  0  0  0  0  0
   -0.0130   -1.4392    0.0000 C   0  0  0  0  0  0  0  0  0  0  0  0
    1.4133   -1.4133    0.0000 C   0  0  0  0  0  0  0  0  0  0  0  0
   -2.1912   -0.2204    0.0000 C   0  0  0  0  0  0  0  0  0  0  0  0
    2.1523   -0.1815    0.0000 C   0  0  0  0  0  0  0  0  0  0  0  0
   -1.4781   -1.4262    0.0000 C   0  0  0  0  0  0  0  0  0  0  0  0
    2.1523   -1.8152    0.0000 C   0  0  0  0  0  0  0  0  0  0  0  0
   -2.8784   -0.6483    0.0000 C   0  0  0  0  0  0  0  0  0  0  0  0
    2.8784   -0.6223    0.0000 C   0  0  0  0  0  0  0  0  0  0  0  0
   -2.1523   -1.8411    0.0000 C   0  0  0  0  0  0  0  0  0  0  0  0
    2.8654   -1.4003    0.0000 C   0  0  0  0  0  0  0  0  0  0  0  0
   -2.8784   -1.4392    0.0000 C   0  0  0  0  0  0  0  0  0  0  0  0
  1  9  1  0  0  0  0
  2 12  3  0  0  0  0
  3 13  3  0  0  0  0
  4  6  2  0  0  0  0
  4  7  1  0  0  0  0
  4 10  1  0  0  0  0
  5  6  1  0  0  0  0
  5  8  2  0  0  0  0
  5 11  1  0  0  0  0
  6 14  1  0  0  0  0
  7  9  2  0  0  0  0
  7 13  1  0  0  0  0
  8  9  1  0  0  0  0
  8 12  1  0  0  0  0
 10 15  2  0  0  0  0
 10 17  1  0  0  0  0
 11 16  2  0  0  0  0
 11 18  1  0  0  0  0
 15 19  1  0  0  0  0
 16 20  1  0  0  0  0
 17 21  2  0  0  0  0
 18 22  2  0  0  0  0
 19 23  2  0  0  0  0
 20 24  2  0  0  0  0
 21 23  1  0  0  0  0
 22 24  1  0  0  0  0
M  END
> <PUBCHEM_COMPOUND_ID_TYPE>
0

> <PUBCHEM_TOTAL_CHARGE>
0

> <PUBCHEM_SUBSTANCE_ID>
310944344

> <PUBCHEM_SUBSTANCE_VERSION>
1

> <PUBCHEM_EXT_DATASOURCE_NAME>
4488

> <PUBCHEM_EXT_DATASOURCE_REGID>
SCHEMBL16122419

> <PUBCHEM_SUBSTANCE_COMMENT>
InChI=1S/C21H13FN2/c1-14-19(15-8-4-2-5-9-15)17(12-23)21(22)18(13-24)20(14)16-10-6-3-7-11-16/h2-11H,1H3
InChIKey=XADCFPPFEKXSIQ-UHFFFAOYSA-N

> <PUBCHEM_SUBSTANCE_SYNONYM>
SCHEMBL16122419

> <PUBCHEM_XREF_EXT_ID>
SCHEMBL16122419

> <PUBCHEM_EXT_DATASOURCE_URL>
https://www.surechembl.org/

> <PUBCHEM_EXT_SUBSTANCE_URL>
https://www.surechembl.org/chemical/SCHEMBL16122419

> <PUBCHEM_CID_ASSOCIATIONS>
117610601  1

> <PUBCHEM_COORDINATE_TYPE>
1
3

$$$$
