310944877
  -OEChem-07211613022D

 36 40  0     0  0  0  0  0  0999 V2000
    4.3177   -2.2608    0.0000 O   0  0  0  0  0  0  0  0  0  0  0  0
    5.0448   -1.0196    0.0000 O   0  0  0  0  0  0  0  0  0  0  0  0
   -2.8815   -1.4274    0.0000 N   0  0  0  0  0  0  0  0  0  0  0  0
   -0.0089    0.2216    0.0000 C   0  0  0  0  0  0  0  0  0  0  0  0
    0.0089    1.0551    0.0000 C   0  0  0  0  0  0  0  0  0  0  0  0
   -0.7182   -0.1861    0.0000 C   0  0  0  0  0  0  0  0  0  0  0  0
   -0.7359    1.4807    0.0000 C   0  0  0  0  0  0  0  0  0  0  0  0
    0.7359   -0.2039    0.0000 C   0  0  0  0  0  0  0  0  0  0  0  0
    0.7182    1.4630    0.0000 C   0  0  0  0  0  0  0  0  0  0  0  0
   -1.4452    0.2039    0.0000 C   0  0  0  0  0  0  0  0  0  0  0  0
   -0.7359   -1.0373    0.0000 C   0  0  0  0  0  0  0  0  0  0  0  0
   -1.5162    1.2501    0.0000 C   0  0  0  0  0  0  0  0  0  0  0  0
   -0.9310    2.2431    0.0000 C   0  0  0  0  0  0  0  0  0  0  0  0
   -2.1544   -1.0196    0.0000 C   0  0  0  0  0  0  0  0  0  0  0  0
    0.7359   -1.0373    0.0000 C   0  0  0  0  0  0  0  0  0  0  0  0
    1.4274    0.2039    0.0000 C   0  0  0  0  0  0  0  0  0  0  0  0
    1.4630    1.0551    0.0000 C   0  0  0  0  0  0  0  0  0  0  0  0
    0.7536    2.2962    0.0000 C   0  0  0  0  0  0  0  0  0  0  0  0
   -2.1367   -0.2039    0.0000 C   0  0  0  0  0  0  0  0  0  0  0  0
   -1.4274   -1.4274    0.0000 C   0  0  0  0  0  0  0  0  0  0  0  0
   -1.7289    2.0303    0.0000 C   0  0  0  0  0  0  0  0  0  0  0  0
    2.1544   -1.0196    0.0000 C   0  0  0  0  0  0  0  0  0  0  0  0
    1.4630   -1.4274    0.0000 C   0  0  0  0  0  0  0  0  0  0  0  0
    2.1544   -0.2039    0.0000 C   0  0  0  0  0  0  0  0  0  0  0  0
    2.1544    1.4452    0.0000 C   0  0  0  0  0  0  0  0  0  0  0  0
    1.4274    2.6864    0.0000 C   0  0  0  0  0  0  0  0  0  0  0  0
   -3.6085   -1.0373    0.0000 C   0  0  0  0  0  0  0  0  0  0  0  0
   -2.8815   -2.2785    0.0000 C   0  0  0  0  0  0  0  0  0  0  0  0
    2.1544    2.2785    0.0000 C   0  0  0  0  0  0  0  0  0  0  0  0
    2.9170   -1.4274    0.0000 C   0  0  0  0  0  0  0  0  0  0  0  0
   -4.3000   -1.4274    0.0000 C   0  0  0  0  0  0  0  0  0  0  0  0
   -3.5908   -2.6864    0.0000 C   0  0  0  0  0  0  0  0  0  0  0  0
   -4.3355   -2.2608    0.0000 C   0  0  0  0  0  0  0  0  0  0  0  0
    3.5908   -1.0373    0.0000 C   0  0  0  0  0  0  0  0  0  0  0  0
   -5.0448   -2.6687    0.0000 C   0  0  0  0  0  0  0  0  0  0  0  0
    4.3355   -1.4097    0.0000 C   0  0  0  0  0  0  0  0  0  0  0  0
  1 36  2  0  0  0  0
  2 36  1  0  0  0  0
  3 14  1  0  0  0  0
  3 27  1  0  0  0  0
  3 28  1  0  0  0  0
  4  5  2  0  0  0  0
  4  6  1  0  0  0  0
  4  8  1  0  0  0  0
  5  7  1  0  0  0  0
  5  9  1  0  0  0  0
  6 10  2  0  0  0  0
  6 11  1  0  0  0  0
  7 12  1  0  0  0  0
  7 13  1  0  0  0  0
  8 15  2  0  0  0  0
  8 16  1  0  0  0  0
  9 17  2  0  0  0  0
  9 18  1  0  0  0  0
 10 19  1  0  0  0  0
 11 20  2  0  0  0  0
 12 21  1  0  0  0  0
 13 21  1  0  0  0  0
 14 19  2  0  0  0  0
 14 20  1  0  0  0  0
 15 23  1  0  0  0  0
 16 24  2  0  0  0  0
 17 25  1  0  0  0  0
 18 26  2  0  0  0  0
 22 23  2  0  0  0  0
 22 24  1  0  0  0  0
 22 30  1  0  0  0  0
 25 29  2  0  0  0  0
 26 29  1  0  0  0  0
 27 31  1  0  0  0  0
 28 32  1  0  0  0  0
 30 34  2  0  0  0  0
 31 33  1  0  0  0  0
 32 33  1  0  0  0  0
 33 35  1  0  0  0  0
 34 36  1  0  0  0  0
M  END
> <PUBCHEM_COMPOUND_ID_TYPE>
0

> <PUBCHEM_TOTAL_CHARGE>
0

> <PUBCHEM_SUBSTANCE_ID>
310944877

> <PUBCHEM_SUBSTANCE_VERSION>
1

> <PUBCHEM_EXT_DATASOURCE_NAME>
4488

> <PUBCHEM_EXT_DATASOURCE_REGID>
SCHEMBL16122961

> <PUBCHEM_SUBSTANCE_COMMENT>
InChI=1S/C33H35NO2/c1-24-20-22-34(23-21-24)30-17-15-29(16-18-30)33(28-13-10-25(11-14-28)12-19-31(35)36)32(27-8-5-9-27)26-6-3-2-4-7-26/h2-4,6-7,10-19,24,27H,5,8-9,20-23H2,1H3,(H,35,36)/b19-12+,33-32-
InChIKey=VMOMMOASLYYQBQ-HCUDYMRRSA-N

> <PUBCHEM_SUBSTANCE_SYNONYM>
SCHEMBL16122961

> <PUBCHEM_XREF_EXT_ID>
SCHEMBL16122961

> <PUBCHEM_EXT_DATASOURCE_URL>
https://www.surechembl.org/

> <PUBCHEM_EXT_SUBSTANCE_URL>
https://www.surechembl.org/chemical/SCHEMBL16122961

> <PUBCHEM_CID_ASSOCIATIONS>
86270527  1

> <PUBCHEM_COORDINATE_TYPE>
1
3

$$$$
