310944639
  -OEChem-07211613022D

 25 28  0     0  0  0  0  0  0999 V2000
    0.7374    2.4248    0.0000 F   0  0  0  0  0  0  0  0  0  0  0  0
   -0.7516   -0.8225    0.0000 N   0  0  0  0  0  0  0  0  0  0  0  0
    0.7232   -1.6450    0.0000 N   0  0  0  0  0  0  0  0  0  0  0  0
    2.9070    1.9711    0.0000 N   0  0  0  0  0  0  0  0  0  0  0  0
   -0.7374    0.0142    0.0000 C   0  0  0  0  0  0  0  0  0  0  0  0
   -1.4747    0.4112    0.0000 C   0  0  0  0  0  0  0  0  0  0  0  0
   -2.1696    0.0142    0.0000 C   0  0  0  0  0  0  0  0  0  0  0  0
    0.0000    0.4112    0.0000 C   0  0  0  0  0  0  0  0  0  0  0  0
   -2.1838   -0.7799    0.0000 C   0  0  0  0  0  0  0  0  0  0  0  0
   -1.4605   -1.2053    0.0000 C   0  0  0  0  0  0  0  0  0  0  0  0
    0.7232    0.0142    0.0000 C   0  0  0  0  0  0  0  0  0  0  0  0
    0.0142    1.2195    0.0000 C   0  0  0  0  0  0  0  0  0  0  0  0
   -1.4605    1.1911    0.0000 C   0  0  0  0  0  0  0  0  0  0  0  0
   -2.8928    0.4254    0.0000 C   0  0  0  0  0  0  0  0  0  0  0  0
    0.7232    1.6308    0.0000 C   0  0  0  0  0  0  0  0  0  0  0  0
    1.4747    1.2337    0.0000 C   0  0  0  0  0  0  0  0  0  0  0  0
    1.4605    0.3970    0.0000 C   0  0  0  0  0  0  0  0  0  0  0  0
   -2.9070   -1.2195    0.0000 C   0  0  0  0  0  0  0  0  0  0  0  0
   -1.4747   -2.0278    0.0000 C   0  0  0  0  0  0  0  0  0  0  0  0
   -2.1554    1.6024    0.0000 C   0  0  0  0  0  0  0  0  0  0  0  0
   -2.8928    1.2195    0.0000 C   0  0  0  0  0  0  0  0  0  0  0  0
    0.7232   -0.8367    0.0000 C   0  0  0  0  0  0  0  0  0  0  0  0
   -2.8928   -2.0278    0.0000 C   0  0  0  0  0  0  0  0  0  0  0  0
   -2.1696   -2.4248    0.0000 C   0  0  0  0  0  0  0  0  0  0  0  0
    2.1838    1.6166    0.0000 C   0  0  0  0  0  0  0  0  0  0  0  0
  1 15  1  0  0  0  0
  2  5  1  0  0  0  0
  2 10  2  0  0  0  0
  3 22  3  0  0  0  0
  4 25  3  0  0  0  0
  5  6  2  0  0  0  0
  5  8  1  0  0  0  0
  6  7  1  0  0  0  0
  6 13  1  0  0  0  0
  7  9  2  0  0  0  0
  7 14  1  0  0  0  0
  8 11  1  0  0  0  0
  8 12  2  0  0  0  0
  9 10  1  0  0  0  0
  9 18  1  0  0  0  0
 10 19  1  0  0  0  0
 11 17  2  0  0  0  0
 11 22  1  0  0  0  0
 12 15  1  0  0  0  0
 13 20  2  0  0  0  0
 14 21  2  0  0  0  0
 15 16  2  0  0  0  0
 16 17  1  0  0  0  0
 16 25  1  0  0  0  0
 18 23  2  0  0  0  0
 19 24  2  0  0  0  0
 20 21  1  0  0  0  0
 23 24  1  0  0  0  0
M  END
> <PUBCHEM_COMPOUND_ID_TYPE>
0

> <PUBCHEM_TOTAL_CHARGE>
0

> <PUBCHEM_SUBSTANCE_ID>
310944639

> <PUBCHEM_SUBSTANCE_VERSION>
1

> <PUBCHEM_EXT_DATASOURCE_NAME>
4488

> <PUBCHEM_EXT_DATASOURCE_REGID>
SCHEMBL16122717

> <PUBCHEM_SUBSTANCE_COMMENT>
InChI=1S/C21H10FN3/c22-19-10-18(13(11-23)9-14(19)12-24)21-17-7-2-1-5-15(17)16-6-3-4-8-20(16)25-21/h1-10H
InChIKey=PGITVOKRFDVGLJ-UHFFFAOYSA-N

> <PUBCHEM_SUBSTANCE_SYNONYM>
SCHEMBL16122717

> <PUBCHEM_XREF_EXT_ID>
SCHEMBL16122717

> <PUBCHEM_EXT_DATASOURCE_URL>
https://www.surechembl.org/

> <PUBCHEM_EXT_SUBSTANCE_URL>
https://www.surechembl.org/chemical/SCHEMBL16122717

> <PUBCHEM_CID_ASSOCIATIONS>
117610869  1

> <PUBCHEM_COORDINATE_TYPE>
1
3

$$$$
