310931135
  -OEChem-07211613022D

 33 36  0     0  0  0  0  0  0999 V2000
    4.9821   -3.5724    0.0000 S   0  0  0  0  0  0  0  0  0  0  0  0
    4.2675   -3.9849    0.0000 O   0  0  0  0  0  0  0  0  0  0  0  0
    5.6965   -3.1599    0.0000 O   0  0  0  0  0  0  0  0  0  0  0  0
    4.1571   -5.0013    0.0000 O   0  0  0  0  0  0  0  0  0  0  0  0
    6.6321   -3.5724    0.0000 O   0  0  0  0  0  0  0  0  0  0  0  0
    0.7846    0.6674    0.0000 O   0  0  0  0  0  0  0  0  0  0  0  0
    2.5071    0.7145    0.0000 O   0  0  0  0  0  0  0  0  0  0  0  0
    2.5071   -0.7145    0.0000 N   0  0  0  0  0  0  0  0  0  0  0  0
   -1.4290    0.4125    0.0000 N   0  0  0  0  0  0  0  0  0  0  0  0
    5.3946   -4.2868    0.0000 C   0  0  0  0  0  0  0  0  0  0  0  0
    4.5696   -2.8579    0.0000 C   0  0  0  0  0  0  0  0  0  0  0  0
    4.9821   -5.0013    0.0000 C   0  0  0  0  0  0  0  0  0  0  0  0
    6.2196   -4.2868    0.0000 C   0  0  0  0  0  0  0  0  0  0  0  0
    5.3946   -5.7158    0.0000 C   0  0  0  0  0  0  0  0  0  0  0  0
    6.6321   -5.0013    0.0000 C   0  0  0  0  0  0  0  0  0  0  0  0
    6.2196   -5.7158    0.0000 C   0  0  0  0  0  0  0  0  0  0  0  0
    3.7446   -2.8579    0.0000 C   0  0  0  0  0  0  0  0  0  0  0  0
    4.9821   -2.1434    0.0000 C   0  0  0  0  0  0  0  0  0  0  0  0
    1.2696    0.0000    0.0000 C   0  0  0  0  0  0  0  0  0  0  0  0
    0.0000    0.4125    0.0000 C   0  0  0  0  0  0  0  0  0  0  0  0
    0.0000   -0.4125    0.0000 C   0  0  0  0  0  0  0  0  0  0  0  0
    3.7446   -1.4290    0.0000 C   0  0  0  0  0  0  0  0  0  0  0  0
    3.3321   -2.1434    0.0000 C   0  0  0  0  0  0  0  0  0  0  0  0
    4.5696   -1.4290    0.0000 C   0  0  0  0  0  0  0  0  0  0  0  0
    0.7846   -0.6674    0.0000 C   0  0  0  0  0  0  0  0  0  0  0  0
    2.0946    0.0000    0.0000 C   0  0  0  0  0  0  0  0  0  0  0  0
    3.3321   -0.7145    0.0000 C   0  0  0  0  0  0  0  0  0  0  0  0
   -0.7145    0.8250    0.0000 C   0  0  0  0  0  0  0  0  0  0  0  0
   -0.7145   -0.8250    0.0000 C   0  0  0  0  0  0  0  0  0  0  0  0
    6.6321   -6.4302    0.0000 C   0  0  0  0  0  0  0  0  0  0  0  0
   -1.4290   -0.4125    0.0000 C   0  0  0  0  0  0  0  0  0  0  0  0
    3.7446   -5.7158    0.0000 C   0  0  0  0  0  0  0  0  0  0  0  0
    7.4571   -3.5724    0.0000 C   0  0  0  0  0  0  0  0  0  0  0  0
  1  2  2  0  0  0  0
  1  3  2  0  0  0  0
  1 10  1  0  0  0  0
  1 11  1  0  0  0  0
  4 12  1  0  0  0  0
  4 32  1  0  0  0  0
  5 13  1  0  0  0  0
  5 33  1  0  0  0  0
  6 19  1  0  0  0  0
  6 20  1  0  0  0  0
  7 26  2  0  0  0  0
  8 26  1  0  0  0  0
  8 27  1  0  0  0  0
  9 28  2  0  0  0  0
  9 31  1  0  0  0  0
 10 12  2  0  0  0  0
 10 13  1  0  0  0  0
 11 17  2  0  0  0  0
 11 18  1  0  0  0  0
 12 14  1  0  0  0  0
 13 15  2  0  0  0  0
 14 16  2  0  0  0  0
 15 16  1  0  0  0  0
 16 30  1  0  0  0  0
 17 23  1  0  0  0  0
 18 24  2  0  0  0  0
 19 25  2  0  0  0  0
 19 26  1  0  0  0  0
 20 21  2  0  0  0  0
 20 28  1  0  0  0  0
 21 25  1  0  0  0  0
 21 29  1  0  0  0  0
 22 23  2  0  0  0  0
 22 24  1  0  0  0  0
 22 27  1  0  0  0  0
 29 31  2  0  0  0  0
M  END
> <PUBCHEM_COMPOUND_ID_TYPE>
0

> <PUBCHEM_TOTAL_CHARGE>
0

> <PUBCHEM_SUBSTANCE_ID>
310931135

> <PUBCHEM_SUBSTANCE_VERSION>
1

> <PUBCHEM_EXT_DATASOURCE_NAME>
4488

> <PUBCHEM_EXT_DATASOURCE_REGID>
SCHEMBL16108439

> <PUBCHEM_SUBSTANCE_COMMENT>
InChI=1S/C24H22N2O6S/c1-15-10-19(30-2)23(20(11-15)31-3)33(28,29)18-6-4-16(5-7-18)13-26-24(27)21-12-17-8-9-25-14-22(17)32-21/h4-12,14H,13H2,1-3H3,(H,26,27)
InChIKey=YWIBXHQRXDBPEM-UHFFFAOYSA-N

> <PUBCHEM_SUBSTANCE_SYNONYM>
SCHEMBL16108439

> <PUBCHEM_XREF_EXT_ID>
SCHEMBL16108439

> <PUBCHEM_EXT_DATASOURCE_URL>
https://www.surechembl.org/

> <PUBCHEM_EXT_SUBSTANCE_URL>
https://www.surechembl.org/chemical/SCHEMBL16108439

> <PUBCHEM_CID_ASSOCIATIONS>
68276720  1

> <PUBCHEM_COORDINATE_TYPE>
1
3

$$$$
