310945335
  -OEChem-07211613022D

 35 38  0     0  0  0  0  0  0999 V2000
   -0.0103    2.5000    0.0000 F   0  0  0  0  0  0  0  0  0  0  0  0
    0.6276    2.9527    0.0000 F   0  0  0  0  0  0  0  0  0  0  0  0
    1.2654    2.5000    0.0000 F   0  0  0  0  0  0  0  0  0  0  0  0
    3.9197   -1.1420    0.0000 F   0  0  0  0  0  0  0  0  0  0  0  0
    4.5782   -1.5947    0.0000 F   0  0  0  0  0  0  0  0  0  0  0  0
    3.9403   -2.9527    0.0000 F   0  0  0  0  0  0  0  0  0  0  0  0
   -3.4465    1.8004    0.0000 O   0  0  0  0  0  0  0  0  0  0  0  0
   -3.4465   -1.3477    0.0000 O   0  0  0  0  0  0  0  0  0  0  0  0
   -4.1872    0.2160    0.0000 O   0  0  0  0  0  0  0  0  0  0  0  0
   -0.7510    0.9568    0.0000 N   0  0  0  0  0  0  0  0  0  0  0  0
   -0.7510   -0.5041    0.0000 N   0  0  0  0  0  0  0  0  0  0  0  0
    1.2860    0.6893    0.0000 N   0  0  0  0  0  0  0  0  0  0  0  0
    0.6276   -0.6893    0.0000 N   0  0  0  0  0  0  0  0  0  0  0  0
    2.6029   -2.0473    0.0000 N   0  0  0  0  0  0  0  0  0  0  0  0
   -0.0103    0.6481    0.0000 C   0  0  0  0  0  0  0  0  0  0  0  0
    0.6070    1.1214    0.0000 C   0  0  0  0  0  0  0  0  0  0  0  0
   -0.0514   -0.2366    0.0000 C   0  0  0  0  0  0  0  0  0  0  0  0
   -1.1832    0.1955    0.0000 C   0  0  0  0  0  0  0  0  0  0  0  0
    1.2654   -0.2572    0.0000 C   0  0  0  0  0  0  0  0  0  0  0  0
    0.6276    2.0473    0.0000 C   0  0  0  0  0  0  0  0  0  0  0  0
   -1.9444    0.2160    0.0000 C   0  0  0  0  0  0  0  0  0  0  0  0
    1.9444   -0.6893    0.0000 C   0  0  0  0  0  0  0  0  0  0  0  0
   -2.3148    0.9774    0.0000 C   0  0  0  0  0  0  0  0  0  0  0  0
   -2.3148   -0.5865    0.0000 C   0  0  0  0  0  0  0  0  0  0  0  0
   -3.0761    0.9980    0.0000 C   0  0  0  0  0  0  0  0  0  0  0  0
   -3.0761   -0.5865    0.0000 C   0  0  0  0  0  0  0  0  0  0  0  0
   -3.4465    0.1955    0.0000 C   0  0  0  0  0  0  0  0  0  0  0  0
    1.9444   -1.6153    0.0000 C   0  0  0  0  0  0  0  0  0  0  0  0
    2.5823   -0.2572    0.0000 C   0  0  0  0  0  0  0  0  0  0  0  0
    3.2408   -1.6153    0.0000 C   0  0  0  0  0  0  0  0  0  0  0  0
    3.2614   -0.6893    0.0000 C   0  0  0  0  0  0  0  0  0  0  0  0
    3.8992   -2.0679    0.0000 C   0  0  0  0  0  0  0  0  0  0  0  0
   -3.0761    2.5823    0.0000 C   0  0  0  0  0  0  0  0  0  0  0  0
   -3.0761   -2.1296    0.0000 C   0  0  0  0  0  0  0  0  0  0  0  0
   -4.5782   -0.5659    0.0000 C   0  0  0  0  0  0  0  0  0  0  0  0
  1 20  1  0  0  0  0
  2 20  1  0  0  0  0
  3 20  1  0  0  0  0
  4 32  1  0  0  0  0
  5 32  1  0  0  0  0
  6 32  1  0  0  0  0
  7 25  1  0  0  0  0
  7 33  1  0  0  0  0
  8 26  1  0  0  0  0
  8 34  1  0  0  0  0
  9 27  1  0  0  0  0
  9 35  1  0  0  0  0
 10 15  1  0  0  0  0
 10 18  2  0  0  0  0
 11 17  1  0  0  0  0
 11 18  1  0  0  0  0
 12 16  2  0  0  0  0
 12 19  1  0  0  0  0
 13 17  1  0  0  0  0
 13 19  2  0  0  0  0
 14 28  1  0  0  0  0
 14 30  2  0  0  0  0
 15 16  1  0  0  0  0
 15 17  2  0  0  0  0
 16 20  1  0  0  0  0
 18 21  1  0  0  0  0
 19 22  1  0  0  0  0
 21 23  2  0  0  0  0
 21 24  1  0  0  0  0
 22 28  2  0  0  0  0
 22 29  1  0  0  0  0
 23 25  1  0  0  0  0
 24 26  2  0  0  0  0
 25 27  2  0  0  0  0
 26 27  1  0  0  0  0
 29 31  2  0  0  0  0
 30 31  1  0  0  0  0
 30 32  1  0  0  0  0
M  END
> <PUBCHEM_COMPOUND_ID_TYPE>
0

> <PUBCHEM_TOTAL_CHARGE>
0

> <PUBCHEM_SUBSTANCE_ID>
310945335

> <PUBCHEM_SUBSTANCE_VERSION>
1

> <PUBCHEM_EXT_DATASOURCE_NAME>
4488

> <PUBCHEM_EXT_DATASOURCE_REGID>
SCHEMBL16123433

> <PUBCHEM_SUBSTANCE_COMMENT>
InChI=1S/C21H15F6N5O3/c1-33-11-6-10(7-12(34-2)15(11)35-3)18-29-14-16(21(25,26)27)30-17(31-19(14)32-18)9-4-5-13(28-8-9)20(22,23)24/h4-8H,1-3H3,(H,29,30,31,32)
InChIKey=CNMLMGZZTWJADC-UHFFFAOYSA-N

> <PUBCHEM_SUBSTANCE_SYNONYM>
SCHEMBL16123433

> <PUBCHEM_XREF_EXT_ID>
SCHEMBL16123433

> <PUBCHEM_EXT_DATASOURCE_URL>
https://www.surechembl.org/

> <PUBCHEM_EXT_SUBSTANCE_URL>
https://www.surechembl.org/chemical/SCHEMBL16123433

> <PUBCHEM_CID_ASSOCIATIONS>
117611394  1

> <PUBCHEM_COORDINATE_TYPE>
1
3

$$$$
