310934127
  -OEChem-07211613022D

 15 16  0     0  0  0  0  0  0999 V2000
    0.9094   -2.4949    0.0000 O   0  0  0  0  0  0  0  0  0  0  0  0
    1.3626   -0.1549    0.0000 O   0  0  0  0  0  0  0  0  0  0  0  0
   -0.5231   -4.9678    0.0000 O   0  0  0  0  0  0  0  0  0  0  0  0
   -1.2358   -3.7293    0.0000 O   0  0  0  0  0  0  0  0  0  0  0  0
    0.9106   -1.6699    0.0000 C   0  0  0  0  0  0  0  0  0  0  0  0
    1.1407   -0.9495    0.0000 C   0  0  0  0  0  0  0  0  0  0  0  0
    0.9807   -0.1341    0.0000 C   0  0  0  0  0  0  0  0  0  0  0  0
    0.1351   -2.0602    0.0000 C   0  0  0  0  0  0  0  0  0  0  0  0
    1.6411   -2.0402    0.0000 C   0  0  0  0  0  0  0  0  0  0  0  0
    0.5004   -1.3997    0.0000 C   0  0  0  0  0  0  0  0  0  0  0  0
    1.9362   -1.4148    0.0000 C   0  0  0  0  0  0  0  0  0  0  0  0
    0.1943   -2.9064    0.0000 C   0  0  0  0  0  0  0  0  0  0  0  0
    0.1932   -3.7314    0.0000 C   0  0  0  0  0  0  0  0  0  0  0  0
   -0.5219   -4.1428    0.0000 C   0  0  0  0  0  0  0  0  0  0  0  0
   -1.2382   -5.3793    0.0000 C   0  0  0  0  0  0  0  0  0  0  0  0
  1  5  1  0  0  0  0
  1 12  1  0  0  0  0
  2  6  1  0  0  0  0
  3 14  1  0  0  0  0
  3 15  1  0  0  0  0
  4 14  2  0  0  0  0
  5  7  1  0  0  0  0
  5  8  1  0  0  0  0
  5  9  1  0  0  0  0
  6  7  1  0  0  0  0
  6 10  1  0  0  0  0
  6 11  1  0  0  0  0
  8 10  1  0  0  0  0
  9 11  1  0  0  0  0
 12 13  1  0  0  0  0
 13 14  1  0  0  0  0
M  END
> <PUBCHEM_COMPOUND_ID_TYPE>
0

> <PUBCHEM_TOTAL_CHARGE>
0

> <PUBCHEM_SUBSTANCE_ID>
310934127

> <PUBCHEM_SUBSTANCE_VERSION>
1

> <PUBCHEM_EXT_DATASOURCE_NAME>
4488

> <PUBCHEM_EXT_DATASOURCE_REGID>
SCHEMBL16111573

> <PUBCHEM_SUBSTANCE_COMMENT>
InChI=1S/C11H18O4/c1-14-9(12)2-7-15-11-5-3-10(13,8-11)4-6-11/h13H,2-8H2,1H3
InChIKey=GJEYGQBLMAUQON-UHFFFAOYSA-N

> <PUBCHEM_SUBSTANCE_SYNONYM>
SCHEMBL16111573

> <PUBCHEM_XREF_EXT_ID>
SCHEMBL16111573

> <PUBCHEM_EXT_DATASOURCE_URL>
https://www.surechembl.org/

> <PUBCHEM_EXT_SUBSTANCE_URL>
https://www.surechembl.org/chemical/SCHEMBL16111573

> <PUBCHEM_CID_ASSOCIATIONS>
117602405  1

> <PUBCHEM_COORDINATE_TYPE>
1
3

$$$$
