310938775
  -OEChem-07211613022D

 21 22  0     0  0  0  0  0  0999 V2000
   -1.1357   -0.3504    0.0000 Cl  0  0  0  0  0  0  0  0  0  0  0  0
    0.2933   -2.8254    0.0000 O   0  0  0  0  0  0  0  0  0  0  0  0
    0.2933   -4.4754    0.0000 O   0  0  0  0  0  0  0  0  0  0  0  0
   -2.5646   -5.3004    0.0000 N   0  0  0  0  0  0  0  0  0  0  0  0
    3.8656    0.0621    0.0000 N   0  0  0  0  0  0  0  0  0  0  0  0
   -0.4212   -3.2379    0.0000 C   0  0  0  0  0  0  0  0  0  0  0  0
    0.2933   -2.0004    0.0000 C   0  0  0  0  0  0  0  0  0  0  0  0
   -0.4212   -4.0629    0.0000 C   0  0  0  0  0  0  0  0  0  0  0  0
    1.0077   -0.7629    0.0000 C   0  0  0  0  0  0  0  0  0  0  0  0
    1.0077   -1.5879    0.0000 C   0  0  0  0  0  0  0  0  0  0  0  0
   -0.4212   -1.5879    0.0000 C   0  0  0  0  0  0  0  0  0  0  0  0
   -0.4212   -0.7629    0.0000 C   0  0  0  0  0  0  0  0  0  0  0  0
   -1.1357   -2.8254    0.0000 C   0  0  0  0  0  0  0  0  0  0  0  0
   -1.8502   -4.0629    0.0000 C   0  0  0  0  0  0  0  0  0  0  0  0
   -1.1357   -4.4754    0.0000 C   0  0  0  0  0  0  0  0  0  0  0  0
    0.2933   -0.3504    0.0000 C   0  0  0  0  0  0  0  0  0  0  0  0
   -1.8502   -3.2379    0.0000 C   0  0  0  0  0  0  0  0  0  0  0  0
    1.7222   -0.3504    0.0000 C   0  0  0  0  0  0  0  0  0  0  0  0
   -2.5646   -4.4754    0.0000 C   0  0  0  0  0  0  0  0  0  0  0  0
    2.4367   -0.7629    0.0000 C   0  0  0  0  0  0  0  0  0  0  0  0
    3.1511   -0.3504    0.0000 C   0  0  0  0  0  0  0  0  0  0  0  0
  1 12  1  0  0  0  0
  2  6  1  0  0  0  0
  2  7  1  0  0  0  0
  3  8  1  0  0  0  0
  4 19  1  0  0  0  0
  5 21  3  0  0  0  0
  6  8  1  0  0  0  0
  6 13  2  0  0  0  0
  7 10  2  0  0  0  0
  7 11  1  0  0  0  0
  8 15  2  0  0  0  0
  9 10  1  0  0  0  0
  9 16  2  0  0  0  0
  9 18  1  0  0  0  0
 11 12  2  0  0  0  0
 12 16  1  0  0  0  0
 13 17  1  0  0  0  0
 14 15  1  0  0  0  0
 14 17  2  0  0  0  0
 14 19  1  0  0  0  0
 18 20  2  0  0  0  0
 20 21  1  0  0  0  0
M  END
> <PUBCHEM_COMPOUND_ID_TYPE>
0

> <PUBCHEM_TOTAL_CHARGE>
0

> <PUBCHEM_SUBSTANCE_ID>
310938775

> <PUBCHEM_SUBSTANCE_VERSION>
1

> <PUBCHEM_EXT_DATASOURCE_NAME>
4488

> <PUBCHEM_EXT_DATASOURCE_REGID>
SCHEMBL16116691

> <PUBCHEM_SUBSTANCE_COMMENT>
InChI=1S/C16H13ClN2O2/c17-13-6-11(2-1-5-18)7-14(9-13)21-16-4-3-12(10-19)8-15(16)20/h1-4,6-9,20H,10,19H2/b2-1+
InChIKey=RZRCAVZHZGCGHK-OWOJBTEDSA-N

> <PUBCHEM_SUBSTANCE_SYNONYM>
SCHEMBL16116691

> <PUBCHEM_XREF_EXT_ID>
SCHEMBL16116691

> <PUBCHEM_EXT_DATASOURCE_URL>
https://www.surechembl.org/

> <PUBCHEM_EXT_SUBSTANCE_URL>
https://www.surechembl.org/chemical/SCHEMBL16116691

> <PUBCHEM_CID_ASSOCIATIONS>
117606187  1

> <PUBCHEM_COORDINATE_TYPE>
1
3

$$$$
