310949937
  -OEChem-07211613022D

 30 35  0     1  0  0  0  0  0999 V2000
   -0.1823    1.8724    0.0000 N   0  0  0  0  0  0  0  0  0  0  0  0
    0.5891   -0.4980    0.0000 N   0  0  0  0  0  0  0  0  0  0  0  0
   -0.1823    3.2189    0.0000 N   0  0  0  0  0  0  0  0  0  0  0  0
    2.4124    2.1249    0.0000 N   0  0  0  0  0  0  0  0  0  0  0  0
    0.0701    1.0870    0.0000 C   0  0  0  0  0  0  0  0  0  0  0  0
    0.2946    2.5597    0.0000 C   0  0  0  0  0  0  0  0  0  0  0  0
   -0.9818    2.1389    0.0000 C   0  0  0  0  0  0  0  0  0  0  0  0
   -0.9678    2.9665    0.0000 C   0  0  0  0  0  0  0  0  0  0  0  0
   -0.2244   -0.2876    0.0000 C   0  0  3  0  0  0  0  0  0  0  0  0
    1.1080    0.1473    0.0000 C   0  0  3  0  0  0  0  0  0  0  0  0
   -0.4628    0.4839    0.0000 C   0  0  0  0  0  0  0  0  0  0  0  0
    0.8836    0.9046    0.0000 C   0  0  0  0  0  0  0  0  0  0  0  0
    1.1501    2.5317    0.0000 C   0  0  3  0  0  0  0  0  0  0  0  0
    0.8415   -1.2834    0.0000 C   0  0  0  0  0  0  0  0  0  0  0  0
    0.5891    0.5260    0.0000 C   0  0  0  0  0  0  0  0  0  0  0  0
   -0.0281    0.3015    0.0000 C   0  0  0  0  0  0  0  0  0  0  0  0
   -1.6831    1.7181    0.0000 C   0  0  0  0  0  0  0  0  0  0  0  0
   -1.6972    3.3592    0.0000 C   0  0  0  0  0  0  0  0  0  0  0  0
    1.6550    1.8724    0.0000 C   0  0  0  0  0  0  0  0  0  0  0  0
    1.6130    3.2049    0.0000 C   0  0  0  0  0  0  0  0  0  0  0  0
   -2.4124    2.1389    0.0000 C   0  0  0  0  0  0  0  0  0  0  0  0
   -2.4124    2.9524    0.0000 C   0  0  0  0  0  0  0  0  0  0  0  0
    0.2244   -1.8304    0.0000 C   0  0  0  0  0  0  0  0  0  0  0  0
    1.6831   -1.3676    0.0000 C   0  0  0  0  0  0  0  0  0  0  0  0
    2.4124    2.9524    0.0000 C   0  0  0  0  0  0  0  0  0  0  0  0
    0.1543   -2.6719    0.0000 C   0  0  0  0  0  0  0  0  0  0  0  0
    2.2161   -1.9846    0.0000 C   0  0  0  0  0  0  0  0  0  0  0  0
    0.6873   -3.2891    0.0000 C   0  0  0  0  0  0  0  0  0  0  0  0
    2.1460   -2.8122    0.0000 C   0  0  0  0  0  0  0  0  0  0  0  0
    1.5148   -3.3592    0.0000 C   0  0  0  0  0  0  0  0  0  0  0  0
  1  5  1  0  0  0  0
  1  6  1  0  0  0  0
  1  7  1  0  0  0  0
  2  9  1  0  0  0  0
  2 10  1  0  0  0  0
  2 14  1  0  0  0  0
  3  6  2  0  0  0  0
  3  8  1  0  0  0  0
  4 19  1  0  0  0  0
  4 25  1  0  0  0  0
  5 11  1  0  0  0  0
  5 12  1  0  0  0  0
 13  6  1  6  0  0  0
  7  8  1  0  0  0  0
  7 17  2  0  0  0  0
  8 18  2  0  0  0  0
  9 11  1  0  0  0  0
  9 16  1  0  0  0  0
 10 12  1  0  0  0  0
 10 15  1  0  0  0  0
 13 19  1  0  0  0  0
 13 20  1  0  0  0  0
 14 23  1  0  0  0  0
 14 24  1  0  0  0  0
 15 16  1  0  0  0  0
 17 21  1  0  0  0  0
 18 22  1  0  0  0  0
 20 25  1  0  0  0  0
 21 22  2  0  0  0  0
 23 26  1  0  0  0  0
 24 27  1  0  0  0  0
 26 28  1  0  0  0  0
 27 29  1  0  0  0  0
 28 30  1  0  0  0  0
 29 30  1  0  0  0  0
M  END
> <PUBCHEM_COMPOUND_ID_TYPE>
0

> <PUBCHEM_TOTAL_CHARGE>
0

> <PUBCHEM_SUBSTANCE_ID>
310949937

> <PUBCHEM_SUBSTANCE_VERSION>
1

> <PUBCHEM_EXT_DATASOURCE_NAME>
4488

> <PUBCHEM_EXT_DATASOURCE_REGID>
SCHEMBL16128164

> <PUBCHEM_SUBSTANCE_COMMENT>
InChI=1S/C26H38N4/c1-2-4-8-20(9-5-3-1)29-21-12-13-22(29)17-23(16-21)30-25-11-7-6-10-24(25)28-26(30)19-14-15-27-18-19/h6-7,10-11,19-23,27H,1-5,8-9,12-18H2/t19-,21?,22?,23?/m1/s1
InChIKey=BDYHMVGDZCEETH-ZLTPTFFQSA-N

> <PUBCHEM_SUBSTANCE_SYNONYM>
SCHEMBL16128164

> <PUBCHEM_XREF_EXT_ID>
SCHEMBL16128164

> <PUBCHEM_EXT_DATASOURCE_URL>
https://www.surechembl.org/

> <PUBCHEM_EXT_SUBSTANCE_URL>
https://www.surechembl.org/chemical/SCHEMBL16128164

> <PUBCHEM_CID_ASSOCIATIONS>
86274530  1

> <PUBCHEM_COORDINATE_TYPE>
1
3

> <PUBCHEM_BONDANNOTATIONS>
13  6  6

$$$$
