310929251
  -OEChem-07211613022D

 28 29  0     0  0  0  0  0  0999 V2000
   10.5777   -4.4875    0.0000 Cl  0  0  0  0  0  0  0  0  0  0  0  0
   12.0202   -2.0434    0.0000 Cl  0  0  0  0  0  0  0  0  0  0  0  0
   10.5777   -1.2421    0.0000 O   0  0  0  0  0  0  0  0  0  0  0  0
    0.0000   -2.4441    0.0000 O   0  0  0  0  0  0  0  0  0  0  0  0
    9.1754   -2.0434    0.0000 N   0  0  0  0  0  0  0  0  0  0  0  0
    9.8966   -2.4441    0.0000 C   0  0  0  0  0  0  0  0  0  0  0  0
    9.8966   -3.2855    0.0000 C   0  0  0  0  0  0  0  0  0  0  0  0
   10.5777   -2.0434    0.0000 C   0  0  0  0  0  0  0  0  0  0  0  0
   10.5777   -3.6862    0.0000 C   0  0  0  0  0  0  0  0  0  0  0  0
   11.2990   -2.4441    0.0000 C   0  0  0  0  0  0  0  0  0  0  0  0
   11.2990   -3.2454    0.0000 C   0  0  0  0  0  0  0  0  0  0  0  0
    9.2155   -3.6862    0.0000 C   0  0  0  0  0  0  0  0  0  0  0  0
    8.4943   -2.4441    0.0000 C   0  0  0  0  0  0  0  0  0  0  0  0
    8.4943   -3.2855    0.0000 C   0  0  0  0  0  0  0  0  0  0  0  0
    9.8565   -0.8014    0.0000 C   0  0  0  0  0  0  0  0  0  0  0  0
    7.7730   -2.0434    0.0000 C   0  0  0  0  0  0  0  0  0  0  0  0
    7.0518   -2.4441    0.0000 C   0  0  0  0  0  0  0  0  0  0  0  0
    9.8565    0.0000    0.0000 C   0  0  0  0  0  0  0  0  0  0  0  0
    9.1754   -1.2421    0.0000 C   0  0  0  0  0  0  0  0  0  0  0  0
    6.3707   -2.0434    0.0000 C   0  0  0  0  0  0  0  0  0  0  0  0
    5.6495   -2.4441    0.0000 C   0  0  0  0  0  0  0  0  0  0  0  0
    4.9283   -2.0434    0.0000 C   0  0  0  0  0  0  0  0  0  0  0  0
    4.2471   -2.4441    0.0000 C   0  0  0  0  0  0  0  0  0  0  0  0
    3.5259   -2.0434    0.0000 C   0  0  0  0  0  0  0  0  0  0  0  0
    2.8047   -2.4441    0.0000 C   0  0  0  0  0  0  0  0  0  0  0  0
    2.1236   -2.0434    0.0000 C   0  0  0  0  0  0  0  0  0  0  0  0
    1.4024   -2.4441    0.0000 C   0  0  0  0  0  0  0  0  0  0  0  0
    0.6811   -2.0434    0.0000 C   0  0  0  0  0  0  0  0  0  0  0  0
  1  9  1  0  0  0  0
  2 10  1  0  0  0  0
  3  8  1  0  0  0  0
  3 15  1  0  0  0  0
  4 28  1  0  0  0  0
  5  6  2  0  0  0  0
  5 13  1  0  0  0  0
  6  7  1  0  0  0  0
  6  8  1  0  0  0  0
  7  9  1  0  0  0  0
  7 12  2  0  0  0  0
  8 10  2  0  0  0  0
  9 11  2  0  0  0  0
 10 11  1  0  0  0  0
 12 14  1  0  0  0  0
 13 14  2  0  0  0  0
 13 16  1  0  0  0  0
 15 18  1  0  0  0  0
 15 19  1  0  0  0  0
 16 17  1  0  0  0  0
 17 20  1  0  0  0  0
 20 21  1  0  0  0  0
 21 22  1  0  0  0  0
 22 23  1  0  0  0  0
 23 24  1  0  0  0  0
 24 25  1  0  0  0  0
 25 26  1  0  0  0  0
 26 27  1  0  0  0  0
 27 28  1  0  0  0  0
M  END
> <PUBCHEM_COMPOUND_ID_TYPE>
0

> <PUBCHEM_TOTAL_CHARGE>
0

> <PUBCHEM_SUBSTANCE_ID>
310929251

> <PUBCHEM_SUBSTANCE_VERSION>
1

> <PUBCHEM_EXT_DATASOURCE_NAME>
4488

> <PUBCHEM_EXT_DATASOURCE_REGID>
SCHEMBL16106415

> <PUBCHEM_SUBSTANCE_COMMENT>
InChI=1S/C23H33Cl2NO2/c1-17(2)28-23-21(25)16-20(24)19-14-13-18(26-22(19)23)12-10-8-6-4-3-5-7-9-11-15-27/h13-14,16-17,27H,3-12,15H2,1-2H3
InChIKey=HVZFCSBJWIFSLN-UHFFFAOYSA-N

> <PUBCHEM_SUBSTANCE_SYNONYM>
SCHEMBL16106415

> <PUBCHEM_XREF_EXT_ID>
SCHEMBL16106415

> <PUBCHEM_EXT_DATASOURCE_URL>
https://www.surechembl.org/

> <PUBCHEM_EXT_SUBSTANCE_URL>
https://www.surechembl.org/chemical/SCHEMBL16106415

> <PUBCHEM_CID_ASSOCIATIONS>
86299867  1

> <PUBCHEM_COORDINATE_TYPE>
1
3

$$$$
