310946923
  -OEChem-07211613022D

 15 16  0     0  0  0  0  0  0999 V2000
   -2.8059   -1.5450    0.0000 Br  0  0  0  0  0  0  0  0  0  0  0  0
    0.3672    0.1178    0.0000 S   0  0  0  0  0  0  0  0  0  0  0  0
   -0.0346    0.8383    0.0000 O   0  0  0  0  0  0  0  0  0  0  0  0
    0.7967   -0.6028    0.0000 O   0  0  0  0  0  0  0  0  0  0  0  0
    1.0877    0.5335    0.0000 N   0  0  0  0  0  0  0  0  0  0  0  0
   -0.3394   -0.2979    0.0000 C   0  0  0  0  0  0  0  0  0  0  0  0
    1.8914    0.3256    0.0000 C   0  0  0  0  0  0  0  0  0  0  0  0
    1.3094    1.3371    0.0000 C   0  0  0  0  0  0  0  0  0  0  0  0
    2.1130    1.1293    0.0000 C   0  0  0  0  0  0  0  0  0  0  0  0
   -1.0877    0.1039    0.0000 C   0  0  0  0  0  0  0  0  0  0  0  0
   -0.3533   -1.1154    0.0000 C   0  0  0  0  0  0  0  0  0  0  0  0
   -1.7666   -0.2979    0.0000 C   0  0  0  0  0  0  0  0  0  0  0  0
   -1.0600   -1.5311    0.0000 C   0  0  0  0  0  0  0  0  0  0  0  0
   -1.7944   -1.1154    0.0000 C   0  0  0  0  0  0  0  0  0  0  0  0
    2.8059    1.5450    0.0000 C   0  0  0  0  0  0  0  0  0  0  0  0
  1 14  1  0  0  0  0
  2  3  2  0  0  0  0
  2  4  2  0  0  0  0
  2  5  1  0  0  0  0
  2  6  1  0  0  0  0
  5  7  1  0  0  0  0
  5  8  1  0  0  0  0
  6 10  2  0  0  0  0
  6 11  1  0  0  0  0
  7  9  1  0  0  0  0
  8  9  1  0  0  0  0
  9 15  1  0  0  0  0
 10 12  1  0  0  0  0
 11 13  2  0  0  0  0
 12 14  2  0  0  0  0
 13 14  1  0  0  0  0
M  END
> <PUBCHEM_COMPOUND_ID_TYPE>
0

> <PUBCHEM_TOTAL_CHARGE>
0

> <PUBCHEM_SUBSTANCE_ID>
310946923

> <PUBCHEM_SUBSTANCE_VERSION>
1

> <PUBCHEM_EXT_DATASOURCE_NAME>
4488

> <PUBCHEM_EXT_DATASOURCE_REGID>
SCHEMBL16125047

> <PUBCHEM_SUBSTANCE_COMMENT>
InChI=1S/C10H12BrNO2S/c1-8-6-12(7-8)15(13,14)10-4-2-9(11)3-5-10/h2-5,8H,6-7H2,1H3
InChIKey=VSYCHHJMTJLXHA-UHFFFAOYSA-N

> <PUBCHEM_SUBSTANCE_SYNONYM>
SCHEMBL16125047

> <PUBCHEM_XREF_EXT_ID>
SCHEMBL16125047

> <PUBCHEM_EXT_DATASOURCE_URL>
https://www.surechembl.org/

> <PUBCHEM_EXT_SUBSTANCE_URL>
https://www.surechembl.org/chemical/SCHEMBL16125047

> <PUBCHEM_CID_ASSOCIATIONS>
117612778  1

> <PUBCHEM_COORDINATE_TYPE>
1
3

$$$$
