310940857
  -OEChem-07211613022D

 42 45  0     1  0  0  0  0  0999 V2000
    5.0513   -1.7006    0.0000 O   0  0  0  0  0  0  0  0  0  0  0  0
    3.9128    0.2594    0.0000 O   0  0  0  0  0  0  0  0  0  0  0  0
    1.7510   -1.8159    0.0000 O   0  0  0  0  0  0  0  0  0  0  0  0
    2.4716    2.7526    0.0000 O   0  0  0  0  0  0  0  0  0  0  0  0
    3.9128    1.9168    0.0000 O   0  0  0  0  0  0  0  0  0  0  0  0
   -0.4107    0.2594    0.0000 O   0  0  0  0  0  0  0  0  0  0  0  0
   -2.5581   -1.8159    0.0000 O   0  0  0  0  0  0  0  0  0  0  0  0
   -5.4404   -1.8159    0.0000 O   0  0  0  0  0  0  0  0  0  0  0  0
    2.4716   -0.5765    0.0000 N   0  0  0  0  0  0  0  0  0  0  0  0
    0.3099   -0.9800    0.0000 N   0  0  0  0  0  0  0  0  0  0  0  0
   -1.8375   -0.5765    0.0000 N   0  0  0  0  0  0  0  0  0  0  0  0
   -3.9992   -0.9800    0.0000 N   0  0  0  0  0  0  0  0  0  0  0  0
    4.6333   -0.9656    0.0000 C   0  0  3  0  0  0  0  0  0  0  0  0
    3.8695   -0.5476    0.0000 C   0  0  0  0  0  0  0  0  0  0  0  0
    3.2066   -0.9511    0.0000 C   0  0  3  0  0  0  0  0  0  0  0  0
    1.0305   -0.5476    0.0000 C   0  0  3  0  0  0  0  0  0  0  0  0
    1.7510   -0.9367    0.0000 C   0  0  0  0  0  0  0  0  0  0  0  0
    5.4404   -0.9800    0.0000 C   0  0  0  0  0  0  0  0  0  0  0  0
    1.7510    0.7062    0.0000 C   0  0  0  0  0  0  0  0  0  0  0  0
    3.1778   -1.8159    0.0000 C   0  0  0  0  0  0  0  0  0  0  0  0
    1.0449    0.2882    0.0000 C   0  0  0  0  0  0  0  0  0  0  0  0
    2.4716    1.9456    0.0000 C   0  0  0  0  0  0  0  0  0  0  0  0
    3.9128   -2.2050    0.0000 C   0  0  0  0  0  0  0  0  0  0  0  0
    1.7654    1.5420    0.0000 C   0  0  0  0  0  0  0  0  0  0  0  0
    3.1922    1.5276    0.0000 C   0  0  0  0  0  0  0  0  0  0  0  0
   -0.4252   -0.5621    0.0000 C   0  0  0  0  0  0  0  0  0  0  0  0
    2.4716    0.2882    0.0000 C   0  0  0  0  0  0  0  0  0  0  0  0
    3.1922    0.7062    0.0000 C   0  0  0  0  0  0  0  0  0  0  0  0
   -1.1025   -0.9511    0.0000 C   0  0  3  0  0  0  0  0  0  0  0  0
    3.9992   -3.0265    0.0000 C   0  0  0  0  0  0  0  0  0  0  0  0
    4.6477   -1.8879    0.0000 C   0  0  0  0  0  0  0  0  0  0  0  0
    5.2098   -2.4788    0.0000 C   0  0  0  0  0  0  0  0  0  0  0  0
    4.8063   -3.1993    0.0000 C   0  0  0  0  0  0  0  0  0  0  0  0
   -2.5581   -0.9367    0.0000 C   0  0  0  0  0  0  0  0  0  0  0  0
   -3.2931   -0.5476    0.0000 C   0  0  0  0  0  0  0  0  0  0  0  0
   -1.1313   -1.7726    0.0000 C   0  0  0  0  0  0  0  0  0  0  0  0
    3.1778    3.1993    0.0000 C   0  0  0  0  0  0  0  0  0  0  0  0
    4.6477    1.5132    0.0000 C   0  0  0  0  0  0  0  0  0  0  0  0
   -3.9992   -1.7870    0.0000 C   0  0  0  0  0  0  0  0  0  0  0  0
   -4.7342   -0.5476    0.0000 C   0  0  0  0  0  0  0  0  0  0  0  0
   -4.7054   -2.1905    0.0000 C   0  0  0  0  0  0  0  0  0  0  0  0
   -5.4260   -0.9511    0.0000 C   0  0  0  0  0  0  0  0  0  0  0  0
  1 13  1  0  0  0  0
  1 18  1  0  0  0  0
  2 14  2  0  0  0  0
  3 17  2  0  0  0  0
  4 22  1  0  0  0  0
  4 37  1  0  0  0  0
  5 25  1  0  0  0  0
  5 38  1  0  0  0  0
  6 26  2  0  0  0  0
  7 34  2  0  0  0  0
  8 41  1  0  0  0  0
  8 42  1  0  0  0  0
 15  9  1  6  0  0  0
  9 17  1  0  0  0  0
 16 10  1  1  0  0  0
 10 26  1  0  0  0  0
 11 29  1  0  0  0  0
 11 34  1  0  0  0  0
 12 35  1  0  0  0  0
 12 39  1  0  0  0  0
 12 40  1  0  0  0  0
 13 14  1  1  0  0  0
 13 18  1  0  0  0  0
 14 15  1  0  0  0  0
 15 20  1  0  0  0  0
 16 17  1  0  0  0  0
 16 21  1  0  0  0  0
 19 21  1  0  0  0  0
 19 24  1  0  0  0  0
 19 27  2  0  0  0  0
 20 23  1  0  0  0  0
 22 24  2  0  0  0  0
 22 25  1  0  0  0  0
 23 30  1  0  0  0  0
 23 31  1  0  0  0  0
 25 28  2  0  0  0  0
 26 29  1  0  0  0  0
 27 28  1  0  0  0  0
 29 36  1  6  0  0  0
 30 33  1  0  0  0  0
 31 32  1  0  0  0  0
 32 33  1  0  0  0  0
 34 35  1  0  0  0  0
 39 41  1  0  0  0  0
 40 42  1  0  0  0  0
M  END
> <PUBCHEM_COMPOUND_ID_TYPE>
0

> <PUBCHEM_TOTAL_CHARGE>
0

> <PUBCHEM_SUBSTANCE_ID>
310940857

> <PUBCHEM_SUBSTANCE_VERSION>
1

> <PUBCHEM_EXT_DATASOURCE_NAME>
4488

> <PUBCHEM_EXT_DATASOURCE_REGID>
SCHEMBL16118816

> <PUBCHEM_SUBSTANCE_COMMENT>
InChI=1S/C30H44N4O8/c1-19(31-27(35)17-34-10-12-41-13-11-34)29(37)33-23(15-21-8-9-24(39-2)25(16-21)40-3)30(38)32-22(28(36)26-18-42-26)14-20-6-4-5-7-20/h8-9,16,19-20,22-23,26H,4-7,10-15,17-18H2,1-3H3,(H,31,35)(H,32,38)(H,33,37)/t19-,22-,23-,26+/m0/s1
InChIKey=LWYYBSXXDCVXEF-RZOLNQLPSA-N

> <PUBCHEM_SUBSTANCE_SYNONYM>
SCHEMBL16118816

> <PUBCHEM_XREF_EXT_ID>
SCHEMBL16118816

> <PUBCHEM_EXT_DATASOURCE_URL>
https://www.surechembl.org/

> <PUBCHEM_EXT_SUBSTANCE_URL>
https://www.surechembl.org/chemical/SCHEMBL16118816

> <PUBCHEM_CID_ASSOCIATIONS>
117607774  1

> <PUBCHEM_COORDINATE_TYPE>
1
3

> <PUBCHEM_BONDANNOTATIONS>
16  10  5
13  14  5
29  36  6
15  9  6

$$$$
