310947373
  -OEChem-07211613022D

 20 22  0     0  0  0  0  0  0999 V2000
   -3.5518    6.3161    0.0000 O   0  0  0  0  0  0  0  0  0  0  0  0
   -0.6238    3.9987    0.0000 N   0  0  0  0  0  0  0  0  0  0  0  0
   -0.1389    4.6661    0.0000 N   0  0  0  0  0  0  0  0  0  0  0  0
   -1.4084    4.2536    0.0000 C   0  0  0  0  0  0  0  0  0  0  0  0
   -1.4084    5.0786    0.0000 C   0  0  0  0  0  0  0  0  0  0  0  0
   -0.6238    5.3335    0.0000 C   0  0  0  0  0  0  0  0  0  0  0  0
   -2.1229    5.4911    0.0000 C   0  0  0  0  0  0  0  0  0  0  0  0
   -2.8374    5.0786    0.0000 C   0  0  0  0  0  0  0  0  0  0  0  0
   -2.1229    3.8411    0.0000 C   0  0  0  0  0  0  0  0  0  0  0  0
   -0.2113    3.2842    0.0000 C   0  0  0  0  0  0  0  0  0  0  0  0
   -2.8374    4.2536    0.0000 C   0  0  0  0  0  0  0  0  0  0  0  0
   -0.6238    2.5697    0.0000 C   0  0  0  0  0  0  0  0  0  0  0  0
   -3.5518    5.4911    0.0000 C   0  0  0  0  0  0  0  0  0  0  0  0
   -0.2113    6.0480    0.0000 C   0  0  0  0  0  0  0  0  0  0  0  0
   -1.4488    2.5697    0.0000 C   0  0  0  0  0  0  0  0  0  0  0  0
   -0.2113    1.8553    0.0000 C   0  0  0  0  0  0  0  0  0  0  0  0
   -4.2663    5.0786    0.0000 C   0  0  0  0  0  0  0  0  0  0  0  0
   -1.8613    1.8553    0.0000 C   0  0  0  0  0  0  0  0  0  0  0  0
   -0.6238    1.1408    0.0000 C   0  0  0  0  0  0  0  0  0  0  0  0
   -1.4488    1.1408    0.0000 C   0  0  0  0  0  0  0  0  0  0  0  0
  1 13  2  0  0  0  0
  2  3  1  0  0  0  0
  2  4  1  0  0  0  0
  2 10  1  0  0  0  0
  3  6  2  0  0  0  0
  4  5  1  0  0  0  0
  4  9  2  0  0  0  0
  5  6  1  0  0  0  0
  5  7  2  0  0  0  0
  6 14  1  0  0  0  0
  7  8  1  0  0  0  0
  8 11  2  0  0  0  0
  8 13  1  0  0  0  0
  9 11  1  0  0  0  0
 10 12  1  0  0  0  0
 12 15  2  0  0  0  0
 12 16  1  0  0  0  0
 13 17  1  0  0  0  0
 15 18  1  0  0  0  0
 16 19  2  0  0  0  0
 18 20  2  0  0  0  0
 19 20  1  0  0  0  0
M  END
> <PUBCHEM_COMPOUND_ID_TYPE>
0

> <PUBCHEM_TOTAL_CHARGE>
0

> <PUBCHEM_SUBSTANCE_ID>
310947373

> <PUBCHEM_SUBSTANCE_VERSION>
1

> <PUBCHEM_EXT_DATASOURCE_NAME>
4488

> <PUBCHEM_EXT_DATASOURCE_REGID>
SCHEMBL16125529

> <PUBCHEM_SUBSTANCE_COMMENT>
InChI=1S/C17H16N2O/c1-12-16-10-15(13(2)20)8-9-17(16)19(18-12)11-14-6-4-3-5-7-14/h3-10H,11H2,1-2H3
InChIKey=ACMMEXCUYQEHJE-UHFFFAOYSA-N

> <PUBCHEM_SUBSTANCE_SYNONYM>
SCHEMBL16125529

> <PUBCHEM_XREF_EXT_ID>
SCHEMBL16125529

> <PUBCHEM_EXT_DATASOURCE_URL>
https://www.surechembl.org/

> <PUBCHEM_EXT_SUBSTANCE_URL>
https://www.surechembl.org/chemical/SCHEMBL16125529

> <PUBCHEM_CID_ASSOCIATIONS>
117613117  1

> <PUBCHEM_COORDINATE_TYPE>
1
3

$$$$
