310944114
  -OEChem-07211613022D

 14 15  0     0  0  0  0  0  0999 V2000
    2.4362    0.6984    0.0000 O   0  0  0  0  0  0  0  0  0  0  0  0
   -1.1383   -0.5225    0.0000 N   0  0  0  0  0  0  0  0  0  0  0  0
   -1.8862   -0.1925    0.0000 N   0  0  0  0  0  0  0  0  0  0  0  0
    0.2915    1.1054    0.0000 N   0  0  0  0  0  0  0  0  0  0  0  0
   -2.4362   -0.7974    0.0000 N   0  0  0  0  0  0  0  0  0  0  0  0
   -2.0292   -1.5013    0.0000 N   0  0  0  0  0  0  0  0  0  0  0  0
   -0.4235   -0.1155    0.0000 C   0  0  0  0  0  0  0  0  0  0  0  0
    1.0064   -0.1155    0.0000 C   0  0  0  0  0  0  0  0  0  0  0  0
    0.2915   -0.5225    0.0000 C   0  0  0  0  0  0  0  0  0  0  0  0
    1.0174    0.7094    0.0000 C   0  0  0  0  0  0  0  0  0  0  0  0
   -0.4125    0.7094    0.0000 C   0  0  0  0  0  0  0  0  0  0  0  0
   -1.2263   -1.3363    0.0000 C   0  0  0  0  0  0  0  0  0  0  0  0
    2.4362    1.5013    0.0000 C   0  0  0  0  0  0  0  0  0  0  0  0
    1.7322   -0.5445    0.0000 C   0  0  0  0  0  0  0  0  0  0  0  0
  1 13  1  0  0  0  0
  2  3  1  0  0  0  0
  2  7  1  0  0  0  0
  2 12  1  0  0  0  0
  3  5  2  0  0  0  0
  4 10  2  0  0  0  0
  4 11  1  0  0  0  0
  5  6  1  0  0  0  0
  6 12  2  0  0  0  0
  7  9  1  0  0  0  0
  7 11  2  0  0  0  0
  8  9  2  0  0  0  0
  8 10  1  0  0  0  0
  8 14  1  0  0  0  0
 10 13  1  0  0  0  0
M  END
> <PUBCHEM_COMPOUND_ID_TYPE>
0

> <PUBCHEM_TOTAL_CHARGE>
0

> <PUBCHEM_SUBSTANCE_ID>
310944114

> <PUBCHEM_SUBSTANCE_VERSION>
1

> <PUBCHEM_EXT_DATASOURCE_NAME>
4488

> <PUBCHEM_EXT_DATASOURCE_REGID>
SCHEMBL16122189

> <PUBCHEM_SUBSTANCE_COMMENT>
InChI=1S/C8H9N5O/c1-6-2-7(3-9-8(6)4-14)13-5-10-11-12-13/h2-3,5,14H,4H2,1H3
InChIKey=KJIKJTKUSPXEDU-UHFFFAOYSA-N

> <PUBCHEM_SUBSTANCE_SYNONYM>
SCHEMBL16122189

> <PUBCHEM_XREF_EXT_ID>
SCHEMBL16122189

> <PUBCHEM_EXT_DATASOURCE_URL>
https://www.surechembl.org/

> <PUBCHEM_EXT_SUBSTANCE_URL>
https://www.surechembl.org/chemical/SCHEMBL16122189

> <PUBCHEM_CID_ASSOCIATIONS>
117610397  1

> <PUBCHEM_COORDINATE_TYPE>
1
3

$$$$
