310947793
  -OEChem-07211613022D

 24 24  0     0  0  0  0  0  0999 V2000
   -0.3832  -15.9999    0.0000 S   0  0  0  0  0  0  0  0  0  0  0  0
   -1.5102  -17.1268    0.0000 F   0  0  0  0  0  0  0  0  0  0  0  0
   -0.6852  -17.1268    0.0000 F   0  0  0  0  0  0  0  0  0  0  0  0
   -1.3997  -15.2854    0.0000 F   0  0  0  0  0  0  0  0  0  0  0  0
   -2.2247  -15.2854    0.0000 F   0  0  0  0  0  0  0  0  0  0  0  0
   -2.5266  -16.4124    0.0000 O   0  0  0  0  0  0  0  0  0  0  0  0
   -0.7957  -15.2854    0.0000 O   0  0  0  0  0  0  0  0  0  0  0  0
    0.0293  -16.7143    0.0000 O   0  0  0  0  0  0  0  0  0  0  0  0
    0.3313  -15.5874    0.0000 O   0  0  0  0  0  0  0  0  0  0  0  0
   -1.8122  -14.8794    0.0000 O   0  0  0  0  0  0  0  0  0  0  0  0
   -2.5266  -13.6419    0.0000 O   0  0  0  0  0  0  0  0  0  0  0  0
   -1.0977  -16.4124    0.0000 C   0  0  0  0  0  0  0  0  0  0  0  0
   -1.8122  -15.9999    0.0000 C   0  0  0  0  0  0  0  0  0  0  0  0
   -3.2411  -15.9999    0.0000 C   0  0  0  0  0  0  0  0  0  0  0  0
   -3.2411  -14.8794    0.0000 C   0  0  0  0  0  0  0  0  0  0  0  0
   -1.0977  -14.4669    0.0000 C   0  0  0  0  0  0  0  0  0  0  0  0
   -2.5266  -14.4669    0.0000 C   0  0  0  0  0  0  0  0  0  0  0  0
   -1.0977  -15.2919    0.0000 C   0  0  0  0  0  0  0  0  0  0  0  0
   -0.3832  -14.0544    0.0000 C   0  0  0  0  0  0  0  0  0  0  0  0
   -3.9556  -14.4669    0.0000 C   0  0  0  0  0  0  0  0  0  0  0  0
   -1.0977  -13.6419    0.0000 C   0  0  0  0  0  0  0  0  0  0  0  0
   -0.3832  -15.7044    0.0000 C   0  0  0  0  0  0  0  0  0  0  0  0
    0.3313  -14.4669    0.0000 C   0  0  0  0  0  0  0  0  0  0  0  0
    0.3313  -15.2919    0.0000 C   0  0  0  0  0  0  0  0  0  0  0  0
  1  7  2  0  0  0  0
  1  8  2  0  0  0  0
  1  9  1  0  0  0  0
  1 12  1  0  0  0  0
  2 12  1  0  0  0  0
  3 12  1  0  0  0  0
  4 13  1  0  0  0  0
  5 13  1  0  0  0  0
  6 13  1  0  0  0  0
  6 14  1  0  0  0  0
 10 16  1  0  0  0  0
 10 17  1  0  0  0  0
 11 17  2  0  0  0  0
 12 13  1  0  0  0  0
 14 15  1  0  0  0  0
 15 17  1  0  0  0  0
 15 20  2  0  0  0  0
 16 18  1  0  0  0  0
 16 19  1  0  0  0  0
 16 21  1  0  0  0  0
 18 22  1  0  0  0  0
 19 23  1  0  0  0  0
 22 24  1  0  0  0  0
 23 24  1  0  0  0  0
M  END
> <PUBCHEM_COMPOUND_ID_TYPE>
0

> <PUBCHEM_TOTAL_CHARGE>
0

> <PUBCHEM_SUBSTANCE_ID>
310947793

> <PUBCHEM_SUBSTANCE_VERSION>
1

> <PUBCHEM_EXT_DATASOURCE_NAME>
4488

> <PUBCHEM_EXT_DATASOURCE_REGID>
SCHEMBL16125965

> <PUBCHEM_SUBSTANCE_COMMENT>
InChI=1S/C13H18F4O6S/c1-9(10(18)23-11(2)6-4-3-5-7-11)8-22-12(14,15)13(16,17)24(19,20)21/h1,3-8H2,2H3,(H,19,20,21)
InChIKey=UOLDVUSIEUVXOU-UHFFFAOYSA-N

> <PUBCHEM_SUBSTANCE_SYNONYM>
SCHEMBL16125965

> <PUBCHEM_XREF_EXT_ID>
SCHEMBL16125965

> <PUBCHEM_EXT_DATASOURCE_URL>
https://www.surechembl.org/

> <PUBCHEM_EXT_SUBSTANCE_URL>
https://www.surechembl.org/chemical/SCHEMBL16125965

> <PUBCHEM_CID_ASSOCIATIONS>
117613462  1

> <PUBCHEM_COORDINATE_TYPE>
1
3

$$$$
