310948915
  -OEChem-07211613022D

 53 54  0     1  0  0  0  0  0999 V2000
    4.2835    0.8283    0.0000 P   0  0  3  0  0  0  0  0  0  0  0  0
    7.9181   -1.0755    0.0000 F   0  0  0  0  0  0  0  0  0  0  0  0
    7.0898    0.9025    0.0000 O   0  0  0  0  0  0  0  0  0  0  0  0
    6.2615   -1.0879    0.0000 O   0  0  0  0  0  0  0  0  0  0  0  0
    4.9882    0.4203    0.0000 O   0  0  0  0  0  0  0  0  0  0  0  0
    9.3398   -0.0123    0.0000 O   0  0  0  0  0  0  0  0  0  0  0  0
   10.0815    2.7444    0.0000 O   0  0  0  0  0  0  0  0  0  0  0  0
    4.2712    1.6566    0.0000 O   0  0  0  0  0  0  0  0  0  0  0  0
    4.2712   -2.0274    0.0000 O   0  0  0  0  0  0  0  0  0  0  0  0
    3.1463   -0.9025    0.0000 O   0  0  0  0  0  0  0  0  0  0  0  0
    0.5996    1.6566    0.0000 O   0  0  0  0  0  0  0  0  0  0  0  0
    8.3508    1.0013    0.0000 N   0  0  0  0  0  0  0  0  0  0  0  0
    9.8590    1.3722    0.0000 N   0  0  0  0  0  0  0  0  0  0  0  0
    3.8880    0.1113    0.0000 N   0  0  0  0  0  0  0  0  0  0  0  0
    3.4676    0.8283    0.0000 N   0  0  0  0  0  0  0  0  0  0  0  0
    1.3290    0.4203    0.0000 N   0  0  0  0  0  0  0  0  0  0  0  0
    7.5101   -0.3585    0.0000 C   0  0  3  0  0  0  0  0  0  0  0  0
    7.7574    0.4203    0.0000 C   0  0  3  0  0  0  0  0  0  0  0  0
    6.6818   -0.3585    0.0000 C   0  0  3  0  0  0  0  0  0  0  0  0
    6.4346    0.4203    0.0000 C   0  0  3  0  0  0  0  0  0  0  0  0
    9.1420    0.7912    0.0000 C   0  0  0  0  0  0  0  0  0  0  0  0
    8.3384   -0.3709    0.0000 C   0  0  0  0  0  0  0  0  0  0  0  0
    5.7176    0.8283    0.0000 C   0  0  0  0  0  0  0  0  0  0  0  0
    8.1406    1.7802    0.0000 C   0  0  0  0  0  0  0  0  0  0  0  0
    9.5004    2.1634    0.0000 C   0  0  0  0  0  0  0  0  0  0  0  0
    8.7217    2.3735    0.0000 C   0  0  0  0  0  0  0  0  0  0  0  0
    4.2835   -0.5810    0.0000 C   0  0  0  0  0  0  0  0  0  0  0  0
    2.7630    0.4203    0.0000 C   0  0  0  0  0  0  0  0  0  0  0  0
    3.8880   -1.3228    0.0000 C   0  0  0  0  0  0  0  0  0  0  0  0
    2.0212    0.8283    0.0000 C   0  0  0  0  0  0  0  0  0  0  0  0
    0.5996    0.8159    0.0000 C   0  0  0  0  0  0  0  0  0  0  0  0
    3.8880   -2.7444    0.0000 C   0  0  0  0  0  0  0  0  0  0  0  0
   -0.0927    0.4203    0.0000 C   0  0  0  0  0  0  0  0  0  0  0  0
   -0.8221    0.8283    0.0000 C   0  0  0  0  0  0  0  0  0  0  0  0
   -1.5267    0.4203    0.0000 C   0  0  0  0  0  0  0  0  0  0  0  0
   -2.2438    0.8283    0.0000 C   0  0  0  0  0  0  0  0  0  0  0  0
   -2.2438    1.6566    0.0000 C   0  0  0  0  0  0  0  0  0  0  0  0
   -2.9731    2.0645    0.0000 C   0  0  0  0  0  0  0  0  0  0  0  0
   -3.6654    1.6566    0.0000 C   0  0  0  0  0  0  0  0  0  0  0  0
   -3.6778    0.8159    0.0000 C   0  0  0  0  0  0  0  0  0  0  0  0
   -4.3825    0.4203    0.0000 C   0  0  0  0  0  0  0  0  0  0  0  0
   -5.0995    0.8283    0.0000 C   0  0  0  0  0  0  0  0  0  0  0  0
   -5.0995    1.6566    0.0000 C   0  0  0  0  0  0  0  0  0  0  0  0
   -5.8289    2.0645    0.0000 C   0  0  0  0  0  0  0  0  0  0  0  0
   -6.5211    1.6566    0.0000 C   0  0  0  0  0  0  0  0  0  0  0  0
   -6.5335    0.8283    0.0000 C   0  0  0  0  0  0  0  0  0  0  0  0
   -7.2382    0.4203    0.0000 C   0  0  0  0  0  0  0  0  0  0  0  0
   -7.9552    0.8283    0.0000 C   0  0  0  0  0  0  0  0  0  0  0  0
   -7.9552    1.6566    0.0000 C   0  0  0  0  0  0  0  0  0  0  0  0
   -8.6846    2.0645    0.0000 C   0  0  0  0  0  0  0  0  0  0  0  0
   -9.3768    1.6566    0.0000 C   0  0  0  0  0  0  0  0  0  0  0  0
   -9.3892    0.8283    0.0000 C   0  0  0  0  0  0  0  0  0  0  0  0
  -10.0815    0.4080    0.0000 C   0  0  0  0  0  0  0  0  0  0  0  0
  1  5  1  0  0  0  0
  1  8  2  0  0  0  0
  1 14  1  0  0  0  0
  1 15  1  0  0  0  0
 17  2  1  6  0  0  0
  3 18  1  0  0  0  0
  3 20  1  0  0  0  0
 19  4  1  6  0  0  0
  5 23  1  0  0  0  0
  6 21  2  0  0  0  0
  7 25  2  0  0  0  0
  9 29  1  0  0  0  0
  9 32  1  0  0  0  0
 10 29  2  0  0  0  0
 11 31  2  0  0  0  0
 12 18  1  0  0  0  0
 12 21  1  0  0  0  0
 12 24  1  0  0  0  0
 13 21  1  0  0  0  0
 13 25  1  0  0  0  0
 14 27  1  0  0  0  0
 15 28  1  0  0  0  0
 16 30  1  0  0  0  0
 16 31  1  0  0  0  0
 17 18  1  0  0  0  0
 17 19  1  0  0  0  0
 17 22  1  1  0  0  0
 19 20  1  0  0  0  0
 20 23  1  1  0  0  0
 24 26  2  0  0  0  0
 25 26  1  0  0  0  0
 27 29  1  0  0  0  0
 28 30  1  0  0  0  0
 31 33  1  0  0  0  0
 33 34  1  0  0  0  0
 34 35  1  0  0  0  0
 35 36  2  0  0  0  0
 36 37  1  0  0  0  0
 37 38  1  0  0  0  0
 38 39  2  0  0  0  0
 39 40  1  0  0  0  0
 40 41  1  0  0  0  0
 41 42  2  0  0  0  0
 42 43  1  0  0  0  0
 43 44  1  0  0  0  0
 44 45  2  0  0  0  0
 45 46  1  0  0  0  0
 46 47  1  0  0  0  0
 47 48  2  0  0  0  0
 48 49  1  0  0  0  0
 49 50  1  0  0  0  0
 50 51  2  0  0  0  0
 51 52  1  0  0  0  0
 52 53  1  0  0  0  0
M  END
> <PUBCHEM_COMPOUND_ID_TYPE>
0

> <PUBCHEM_TOTAL_CHARGE>
0

> <PUBCHEM_SUBSTANCE_ID>
310948915

> <PUBCHEM_SUBSTANCE_VERSION>
1

> <PUBCHEM_EXT_DATASOURCE_NAME>
4488

> <PUBCHEM_EXT_DATASOURCE_REGID>
SCHEMBL16127101

> <PUBCHEM_SUBSTANCE_COMMENT>
InChI=1S/C37H55FN5O9P/c1-4-5-6-7-8-9-10-11-12-13-14-15-16-17-18-19-20-21-22-23-31(44)39-25-26-40-53(49,41-28-33(46)50-3)51-29-30-34(47)37(2,38)35(52-30)43-27-24-32(45)42-36(43)48/h5-6,8-9,11-12,14-15,17-18,20-21,24,27,30,34-35,47H,4,7,10,13,16,19,22-23,25-26,28-29H2,1-3H3,(H,39,44)(H2,40,41,49)(H,42,45,48)/b6-5-,9-8-,12-11-,15-14-,18-17-,21-20-/t30-,34-,35?,37-,53?/m1/s1
InChIKey=ZPONUTJUFODBFG-CHTIAVQNSA-N

> <PUBCHEM_SUBSTANCE_SYNONYM>
SCHEMBL16127101

> <PUBCHEM_XREF_EXT_ID>
SCHEMBL16127101

> <PUBCHEM_EXT_DATASOURCE_URL>
https://www.surechembl.org/

> <PUBCHEM_EXT_SUBSTANCE_URL>
https://www.surechembl.org/chemical/SCHEMBL16127101

> <PUBCHEM_CID_ASSOCIATIONS>
117614432  1

> <PUBCHEM_COORDINATE_TYPE>
1
3

> <PUBCHEM_BONDANNOTATIONS>
17  22  5
17  2  6
20  23  5
19  4  6

$$$$
