310948485
  -OEChem-07211613022D

 33 36  0     0  0  0  0  0  0999 V2000
   -0.0360    0.7013    0.0000 O   0  0  0  0  0  0  0  0  0  0  0  0
    2.3915   -2.8051    0.0000 O   0  0  0  0  0  0  0  0  0  0  0  0
   -2.0319    3.4524    0.0000 O   0  0  0  0  0  0  0  0  0  0  0  0
   -1.5644    0.7552    0.0000 N   0  0  0  0  0  0  0  0  0  0  0  0
    1.1867    0.1079    0.0000 N   0  0  0  0  0  0  0  0  0  0  0  0
   -2.2297    1.2587    0.0000 N   0  0  0  0  0  0  0  0  0  0  0  0
   -0.1439   -0.1079    0.0000 C   0  0  0  0  0  0  0  0  0  0  0  0
   -0.8811   -0.4855    0.0000 C   0  0  0  0  0  0  0  0  0  0  0  0
    0.6113   -0.4496    0.0000 C   0  0  0  0  0  0  0  0  0  0  0  0
   -1.6004   -0.0719    0.0000 C   0  0  0  0  0  0  0  0  0  0  0  0
    0.7552   -1.2947    0.0000 C   0  0  0  0  0  0  0  0  0  0  0  0
   -0.9170   -1.3127    0.0000 C   0  0  0  0  0  0  0  0  0  0  0  0
    0.8092    0.8271    0.0000 C   0  0  0  0  0  0  0  0  0  0  0  0
   -1.6363   -1.6902    0.0000 C   0  0  0  0  0  0  0  0  0  0  0  0
   -2.3196   -0.4496    0.0000 C   0  0  0  0  0  0  0  0  0  0  0  0
   -2.3376   -1.2767    0.0000 C   0  0  0  0  0  0  0  0  0  0  0  0
    1.5464   -1.5644    0.0000 C   0  0  0  0  0  0  0  0  0  0  0  0
    0.1258   -1.8161    0.0000 C   0  0  0  0  0  0  0  0  0  0  0  0
   -0.8631    1.2228    0.0000 C   0  0  0  0  0  0  0  0  0  0  0  0
   -1.6902   -2.5174    0.0000 C   0  0  0  0  0  0  0  0  0  0  0  0
    1.6723   -2.3556    0.0000 C   0  0  0  0  0  0  0  0  0  0  0  0
   -1.9240    2.0499    0.0000 C   0  0  0  0  0  0  0  0  0  0  0  0
    1.0429   -2.8950    0.0000 C   0  0  0  0  0  0  0  0  0  0  0  0
   -1.0969    1.9960    0.0000 C   0  0  0  0  0  0  0  0  0  0  0  0
    0.2697   -2.6073    0.0000 C   0  0  0  0  0  0  0  0  0  0  0  0
    1.1508    1.5824    0.0000 C   0  0  0  0  0  0  0  0  0  0  0  0
   -0.9531   -2.9310    0.0000 C   0  0  0  0  0  0  0  0  0  0  0  0
   -2.3736   -2.9310    0.0000 C   0  0  0  0  0  0  0  0  0  0  0  0
   -2.3915    2.7152    0.0000 C   0  0  0  0  0  0  0  0  0  0  0  0
    1.2767   -3.3985    0.0000 C   0  0  0  0  0  0  0  0  0  0  0  0
    2.2657   -3.4524    0.0000 C   0  0  0  0  0  0  0  0  0  0  0  0
   -0.9351   -3.4524    0.0000 C   0  0  0  0  0  0  0  0  0  0  0  0
   -2.3017   -3.4524    0.0000 C   0  0  0  0  0  0  0  0  0  0  0  0
  1  7  1  0  0  0  0
  1 13  1  0  0  0  0
  2 21  1  0  0  0  0
  2 31  1  0  0  0  0
  3 29  1  0  0  0  0
  4  6  1  0  0  0  0
  4 10  1  0  0  0  0
  4 19  1  0  0  0  0
  5  9  1  0  0  0  0
  5 13  2  0  0  0  0
  6 22  2  0  0  0  0
  7  8  1  0  0  0  0
  7  9  2  0  0  0  0
  8 10  1  0  0  0  0
  8 12  2  0  0  0  0
  9 11  1  0  0  0  0
 10 15  2  0  0  0  0
 11 17  2  0  0  0  0
 11 18  1  0  0  0  0
 12 14  1  0  0  0  0
 13 26  1  0  0  0  0
 14 16  2  0  0  0  0
 14 20  1  0  0  0  0
 15 16  1  0  0  0  0
 17 21  1  0  0  0  0
 18 25  2  0  0  0  0
 19 24  2  0  0  0  0
 20 27  2  0  0  0  0
 20 28  1  0  0  0  0
 21 23  2  0  0  0  0
 22 24  1  0  0  0  0
 22 29  1  0  0  0  0
 23 25  1  0  0  0  0
 23 30  1  0  0  0  0
 27 32  1  0  0  0  0
 28 33  2  0  0  0  0
M  END
> <PUBCHEM_COMPOUND_ID_TYPE>
0

> <PUBCHEM_TOTAL_CHARGE>
0

> <PUBCHEM_SUBSTANCE_ID>
310948485

> <PUBCHEM_SUBSTANCE_VERSION>
1

> <PUBCHEM_EXT_DATASOURCE_NAME>
4488

> <PUBCHEM_EXT_DATASOURCE_REGID>
SCHEMBL16126667

> <PUBCHEM_SUBSTANCE_COMMENT>
InChI=1S/C27H27N3O3/c1-6-19(7-2)20-10-11-24(30-13-12-22(16-31)29-30)23(14-20)27-26(28-18(4)33-27)21-9-8-17(3)25(15-21)32-5/h6-15,31H,1,16H2,2-5H3/b19-7+
InChIKey=STIQVPGDABDZKV-FBCYGCLPSA-N

> <PUBCHEM_SUBSTANCE_SYNONYM>
SCHEMBL16126667

> <PUBCHEM_XREF_EXT_ID>
SCHEMBL16126667

> <PUBCHEM_EXT_DATASOURCE_URL>
https://www.surechembl.org/

> <PUBCHEM_EXT_SUBSTANCE_URL>
https://www.surechembl.org/chemical/SCHEMBL16126667

> <PUBCHEM_CID_ASSOCIATIONS>
117614043  1

> <PUBCHEM_COORDINATE_TYPE>
1
3

$$$$
