310932639
  -OEChem-07211613022D

 32 35  0     0  0  0  0  0  0999 V2000
    4.0533   -2.5467    0.0000 O   0  0  0  0  0  0  0  0  0  0  0  0
    1.0044    0.0000    0.0000 O   0  0  0  0  0  0  0  0  0  0  0  0
    8.5728   -2.6544    0.0000 O   0  0  0  0  0  0  0  0  0  0  0  0
   10.7608   -3.0489    0.0000 O   0  0  0  0  0  0  0  0  0  0  0  0
    4.9858   -1.3989    0.0000 N   0  0  0  0  0  0  0  0  0  0  0  0
    4.8783   -0.5739    0.0000 N   0  0  0  0  0  0  0  0  0  0  0  0
    6.4206   -1.3989    0.0000 N   0  0  0  0  0  0  0  0  0  0  0  0
    7.8554   -3.9097    0.0000 N   0  0  0  0  0  0  0  0  0  0  0  0
    0.0000   -2.2598    0.0000 N   0  0  0  0  0  0  0  0  0  0  0  0
    3.6587   -1.1478    0.0000 C   0  0  0  0  0  0  0  0  0  0  0  0
    4.2326   -1.7576    0.0000 C   0  0  0  0  0  0  0  0  0  0  0  0
    2.8337   -1.2196    0.0000 C   0  0  0  0  0  0  0  0  0  0  0  0
    5.7033   -1.8294    0.0000 C   0  0  0  0  0  0  0  0  0  0  0  0
    4.0533   -0.4304    0.0000 C   0  0  0  0  0  0  0  0  0  0  0  0
    2.3315   -0.5739    0.0000 C   0  0  0  0  0  0  0  0  0  0  0  0
    1.5065   -0.6815    0.0000 C   0  0  0  0  0  0  0  0  0  0  0  0
    2.5108   -2.0087    0.0000 C   0  0  0  0  0  0  0  0  0  0  0  0
    5.7033   -2.6544    0.0000 C   0  0  0  0  0  0  0  0  0  0  0  0
    1.1837   -1.4348    0.0000 C   0  0  0  0  0  0  0  0  0  0  0  0
    7.1380   -2.6544    0.0000 C   0  0  0  0  0  0  0  0  0  0  0  0
    1.6500   -2.0804    0.0000 C   0  0  0  0  0  0  0  0  0  0  0  0
    7.1380   -1.8294    0.0000 C   0  0  0  0  0  0  0  0  0  0  0  0
    6.4206   -3.0489    0.0000 C   0  0  0  0  0  0  0  0  0  0  0  0
    7.8554   -3.0489    0.0000 C   0  0  0  0  0  0  0  0  0  0  0  0
    0.3587   -1.5065    0.0000 C   0  0  0  0  0  0  0  0  0  0  0  0
    8.5728   -4.3044    0.0000 C   0  0  0  0  0  0  0  0  0  0  0  0
    9.2902   -3.9097    0.0000 C   0  0  0  0  0  0  0  0  0  0  0  0
    0.1794   -0.0717    0.0000 C   0  0  0  0  0  0  0  0  0  0  0  0
   10.0435   -4.3044    0.0000 C   0  0  0  0  0  0  0  0  0  0  0  0
    9.3261   -3.0489    0.0000 C   0  0  0  0  0  0  0  0  0  0  0  0
   10.7608   -3.8739    0.0000 C   0  0  0  0  0  0  0  0  0  0  0  0
   10.0435   -2.6544    0.0000 C   0  0  0  0  0  0  0  0  0  0  0  0
  1 11  1  0  0  0  0
  2 16  1  0  0  0  0
  2 28  1  0  0  0  0
  3 24  2  0  0  0  0
  4 31  1  0  0  0  0
  4 32  1  0  0  0  0
  5  6  1  0  0  0  0
  5 11  1  0  0  0  0
  5 13  1  0  0  0  0
  6 14  2  0  0  0  0
  7 13  2  0  0  0  0
  7 22  1  0  0  0  0
  8 24  1  0  0  0  0
  8 26  1  0  0  0  0
  9 25  3  0  0  0  0
 10 11  2  0  0  0  0
 10 12  1  0  0  0  0
 10 14  1  0  0  0  0
 12 15  1  0  0  0  0
 12 17  2  0  0  0  0
 13 18  1  0  0  0  0
 15 16  2  0  0  0  0
 16 19  1  0  0  0  0
 17 21  1  0  0  0  0
 18 23  2  0  0  0  0
 19 21  2  0  0  0  0
 19 25  1  0  0  0  0
 20 22  2  0  0  0  0
 20 23  1  0  0  0  0
 20 24  1  0  0  0  0
 26 27  1  0  0  0  0
 27 29  1  0  0  0  0
 27 30  1  0  0  0  0
 29 31  1  0  0  0  0
 30 32  1  0  0  0  0
M  END
> <PUBCHEM_COMPOUND_ID_TYPE>
0

> <PUBCHEM_TOTAL_CHARGE>
0

> <PUBCHEM_SUBSTANCE_ID>
310932639

> <PUBCHEM_SUBSTANCE_VERSION>
1

> <PUBCHEM_EXT_DATASOURCE_NAME>
4488

> <PUBCHEM_EXT_DATASOURCE_REGID>
SCHEMBL16110017

> <PUBCHEM_SUBSTANCE_COMMENT>
InChI=1S/C23H23N5O4/c1-31-20-10-16(2-3-17(20)11-24)19-14-27-28(23(19)30)21-5-4-18(13-25-21)22(29)26-12-15-6-8-32-9-7-15/h2-5,10,13-15,30H,6-9,12H2,1H3,(H,26,29)
InChIKey=RDZQNVKVZHGWCT-UHFFFAOYSA-N

> <PUBCHEM_SUBSTANCE_SYNONYM>
SCHEMBL16110017

> <PUBCHEM_XREF_EXT_ID>
SCHEMBL16110017

> <PUBCHEM_EXT_DATASOURCE_URL>
https://www.surechembl.org/

> <PUBCHEM_EXT_SUBSTANCE_URL>
https://www.surechembl.org/chemical/SCHEMBL16110017

> <PUBCHEM_CID_ASSOCIATIONS>
117601157  1

> <PUBCHEM_COORDINATE_TYPE>
1
3

$$$$
