310941495
  -OEChem-07211613022D

 24 27  0     0  0  0  0  0  0999 V2000
    0.3069    1.5349    0.0000 S   0  0  0  0  0  0  0  0  0  0  0  0
   -2.0173   -1.1256    0.0000 O   0  0  0  0  0  0  0  0  0  0  0  0
   -3.5375   -0.9648    0.0000 O   0  0  0  0  0  0  0  0  0  0  0  0
   -0.5847   -1.1256    0.0000 O   0  0  0  0  0  0  0  0  0  0  0  0
    3.2014    0.5555    0.0000 O   0  0  0  0  0  0  0  0  0  0  0  0
    0.1754    0.2047    0.0000 N   0  0  0  0  0  0  0  0  0  0  0  0
   -3.5375    0.3801    0.0000 N   0  0  0  0  0  0  0  0  0  0  0  0
    1.5495    0.7309    0.0000 N   0  0  0  0  0  0  0  0  0  0  0  0
   -1.3156    0.1315    0.0000 C   0  0  0  0  0  0  0  0  0  0  0  0
   -0.5993    0.5408    0.0000 C   0  0  0  0  0  0  0  0  0  0  0  0
   -2.7336    0.1169    0.0000 C   0  0  0  0  0  0  0  0  0  0  0  0
   -2.7482   -0.7017    0.0000 C   0  0  0  0  0  0  0  0  0  0  0  0
   -1.3302   -0.6870    0.0000 C   0  0  0  0  0  0  0  0  0  0  0  0
   -2.0466    0.5408    0.0000 C   0  0  0  0  0  0  0  0  0  0  0  0
    0.7163    0.8332    0.0000 C   0  0  0  0  0  0  0  0  0  0  0  0
   -0.4824    1.3741    0.0000 C   0  0  0  0  0  0  0  0  0  0  0  0
    1.8857   -0.0146    0.0000 C   0  0  0  0  0  0  0  0  0  0  0  0
   -4.0200   -0.2924    0.0000 C   0  0  0  0  0  0  0  0  0  0  0  0
    2.7043   -0.1169    0.0000 C   0  0  0  0  0  0  0  0  0  0  0  0
    1.4179   -0.7017    0.0000 C   0  0  0  0  0  0  0  0  0  0  0  0
    3.0259   -0.8917    0.0000 C   0  0  0  0  0  0  0  0  0  0  0  0
    1.7395   -1.4472    0.0000 C   0  0  0  0  0  0  0  0  0  0  0  0
    2.5582   -1.5349    0.0000 C   0  0  0  0  0  0  0  0  0  0  0  0
    4.0200    0.4678    0.0000 C   0  0  0  0  0  0  0  0  0  0  0  0
  1 15  1  0  0  0  0
  1 16  1  0  0  0  0
  2 12  1  0  0  0  0
  2 13  1  0  0  0  0
  3 12  1  0  0  0  0
  3 18  1  0  0  0  0
  4 13  2  0  0  0  0
  5 19  1  0  0  0  0
  5 24  1  0  0  0  0
  6 10  1  0  0  0  0
  6 15  2  0  0  0  0
  7 11  1  0  0  0  0
  7 18  2  0  0  0  0
  8 15  1  0  0  0  0
  8 17  1  0  0  0  0
  9 10  1  0  0  0  0
  9 13  1  0  0  0  0
  9 14  2  0  0  0  0
 10 16  2  0  0  0  0
 11 12  2  0  0  0  0
 11 14  1  0  0  0  0
 17 19  1  0  0  0  0
 17 20  2  0  0  0  0
 19 21  2  0  0  0  0
 20 22  1  0  0  0  0
 21 23  1  0  0  0  0
 22 23  2  0  0  0  0
M  END
> <PUBCHEM_COMPOUND_ID_TYPE>
0

> <PUBCHEM_TOTAL_CHARGE>
0

> <PUBCHEM_SUBSTANCE_ID>
310941495

> <PUBCHEM_SUBSTANCE_VERSION>
1

> <PUBCHEM_EXT_DATASOURCE_NAME>
4488

> <PUBCHEM_EXT_DATASOURCE_REGID>
SCHEMBL16119526

> <PUBCHEM_SUBSTANCE_COMMENT>
InChI=1S/C16H11N3O4S/c1-21-13-5-3-2-4-10(13)18-16-19-12(7-24-16)9-6-11-15(22-8-17-11)23-14(9)20/h2-8H,1H3,(H,18,19)
InChIKey=YJTPSENFINOEBO-UHFFFAOYSA-N

> <PUBCHEM_SUBSTANCE_SYNONYM>
SCHEMBL16119526

> <PUBCHEM_XREF_EXT_ID>
SCHEMBL16119526

> <PUBCHEM_EXT_DATASOURCE_URL>
https://www.surechembl.org/

> <PUBCHEM_EXT_SUBSTANCE_URL>
https://www.surechembl.org/chemical/SCHEMBL16119526

> <PUBCHEM_CID_ASSOCIATIONS>
117608315  1

> <PUBCHEM_COORDINATE_TYPE>
1
3

$$$$
