310932477
  -OEChem-07211613022D

 30 32  0     0  0  0  0  0  0999 V2000
    4.0324   -2.7590    0.0000 O   0  0  0  0  0  0  0  0  0  0  0  0
    8.5247   -2.8651    0.0000 O   0  0  0  0  0  0  0  0  0  0  0  0
    9.7627   -5.1997    0.0000 O   0  0  0  0  0  0  0  0  0  0  0  0
    4.9167   -1.5917    0.0000 N   0  0  0  0  0  0  0  0  0  0  0  0
    4.8460   -0.7782    0.0000 N   0  0  0  0  0  0  0  0  0  0  0  0
    6.3670   -1.5917    0.0000 N   0  0  0  0  0  0  0  0  0  0  0  0
    7.8172   -4.1032    0.0000 N   0  0  0  0  0  0  0  0  0  0  0  0
    0.0000   -2.4760    0.0000 N   0  0  0  0  0  0  0  0  0  0  0  0
    3.6079   -1.3442    0.0000 C   0  0  0  0  0  0  0  0  0  0  0  0
    4.1739   -1.9455    0.0000 C   0  0  0  0  0  0  0  0  0  0  0  0
    2.7944   -1.4502    0.0000 C   0  0  0  0  0  0  0  0  0  0  0  0
    5.6595   -2.0162    0.0000 C   0  0  0  0  0  0  0  0  0  0  0  0
    4.0324   -0.6367    0.0000 C   0  0  0  0  0  0  0  0  0  0  0  0
    2.2992   -0.7782    0.0000 C   0  0  0  0  0  0  0  0  0  0  0  0
    5.6595   -2.8651    0.0000 C   0  0  0  0  0  0  0  0  0  0  0  0
    7.0744   -2.8651    0.0000 C   0  0  0  0  0  0  0  0  0  0  0  0
    2.4760   -2.1930    0.0000 C   0  0  0  0  0  0  0  0  0  0  0  0
    7.0744   -2.0162    0.0000 C   0  0  0  0  0  0  0  0  0  0  0  0
    6.3670   -3.2542    0.0000 C   0  0  0  0  0  0  0  0  0  0  0  0
    1.4856   -0.8843    0.0000 C   0  0  0  0  0  0  0  0  0  0  0  0
    7.8172   -3.2542    0.0000 C   0  0  0  0  0  0  0  0  0  0  0  0
    1.1673   -1.6271    0.0000 C   0  0  0  0  0  0  0  0  0  0  0  0
    1.6271   -2.2992    0.0000 C   0  0  0  0  0  0  0  0  0  0  0  0
    8.5247   -4.4922    0.0000 C   0  0  0  0  0  0  0  0  0  0  0  0
    2.6176    0.0000    0.0000 C   0  0  0  0  0  0  0  0  0  0  0  0
    0.3184   -1.7332    0.0000 C   0  0  0  0  0  0  0  0  0  0  0  0
    9.3382   -4.4922    0.0000 C   0  0  0  0  0  0  0  0  0  0  0  0
    8.1356   -5.1997    0.0000 C   0  0  0  0  0  0  0  0  0  0  0  0
    8.9491   -3.7848    0.0000 C   0  0  0  0  0  0  0  0  0  0  0  0
   10.6116   -5.1997    0.0000 C   0  0  0  0  0  0  0  0  0  0  0  0
  1 10  1  0  0  0  0
  2 21  2  0  0  0  0
  3 27  1  0  0  0  0
  3 30  1  0  0  0  0
  4  5  1  0  0  0  0
  4 10  1  0  0  0  0
  4 12  1  0  0  0  0
  5 13  2  0  0  0  0
  6 12  2  0  0  0  0
  6 18  1  0  0  0  0
  7 21  1  0  0  0  0
  7 24  1  0  0  0  0
  8 26  3  0  0  0  0
  9 10  2  0  0  0  0
  9 11  1  0  0  0  0
  9 13  1  0  0  0  0
 11 14  1  0  0  0  0
 11 17  2  0  0  0  0
 12 15  1  0  0  0  0
 14 20  2  0  0  0  0
 14 25  1  0  0  0  0
 15 19  2  0  0  0  0
 16 18  2  0  0  0  0
 16 19  1  0  0  0  0
 16 21  1  0  0  0  0
 17 23  1  0  0  0  0
 20 22  1  0  0  0  0
 22 23  2  0  0  0  0
 22 26  1  0  0  0  0
 24 27  1  0  0  0  0
 24 28  1  0  0  0  0
 24 29  1  0  0  0  0
M  END
> <PUBCHEM_COMPOUND_ID_TYPE>
0

> <PUBCHEM_TOTAL_CHARGE>
0

> <PUBCHEM_SUBSTANCE_ID>
310932477

> <PUBCHEM_SUBSTANCE_VERSION>
1

> <PUBCHEM_EXT_DATASOURCE_NAME>
4488

> <PUBCHEM_EXT_DATASOURCE_REGID>
SCHEMBL16109849

> <PUBCHEM_SUBSTANCE_COMMENT>
InChI=1S/C22H23N5O3/c1-14-9-15(10-23)5-7-17(14)18-12-25-27(21(18)29)19-8-6-16(11-24-19)20(28)26-22(2,3)13-30-4/h5-9,11-12,29H,13H2,1-4H3,(H,26,28)
InChIKey=WMIKKAXTTCKDMH-UHFFFAOYSA-N

> <PUBCHEM_SUBSTANCE_SYNONYM>
SCHEMBL16109849

> <PUBCHEM_XREF_EXT_ID>
SCHEMBL16109849

> <PUBCHEM_EXT_DATASOURCE_URL>
https://www.surechembl.org/

> <PUBCHEM_EXT_SUBSTANCE_URL>
https://www.surechembl.org/chemical/SCHEMBL16109849

> <PUBCHEM_CID_ASSOCIATIONS>
117601018  1

> <PUBCHEM_COORDINATE_TYPE>
1
3

$$$$
