310929613
  -OEChem-07211613022D

 67 75  0     1  0  0  0  0  0999 V2000
    5.6947   -0.9492    0.0000 S   0  0  0  0  0  0  0  0  0  0  0  0
    5.3151   -2.5310    0.0000 O   0  0  0  0  0  0  0  0  0  0  0  0
    5.9479   -1.7084    0.0000 O   0  0  0  0  0  0  0  0  0  0  0  0
    5.4417   -0.1266    0.0000 O   0  0  0  0  0  0  0  0  0  0  0  0
    5.2518   -3.1637    0.0000 O   0  0  0  0  0  0  0  0  0  0  0  0
    6.3908   -5.5049    0.0000 O   0  0  0  0  0  0  0  0  0  0  0  0
    2.4677   -3.9863    0.0000 O   0  0  0  0  0  0  0  0  0  0  0  0
    7.4032   -8.3523    0.0000 O   0  0  0  0  0  0  0  0  0  0  0  0
    1.8982   -7.5297    0.0000 O   0  0  0  0  0  0  0  0  0  0  0  0
    1.0124   -6.7072    0.0000 O   0  0  0  0  0  0  0  0  0  0  0  0
    5.6947  -12.6550    0.0000 O   0  0  0  0  0  0  0  0  0  0  0  0
    3.8598   -3.0372    0.0000 N   0  0  0  0  0  0  0  0  0  0  0  0
    4.9354   -1.1389    0.0000 N   0  0  0  0  0  0  0  0  0  0  0  0
    3.6699   -4.3027    0.0000 N   0  0  0  0  0  0  0  0  0  0  0  0
    1.8982   -5.8846    0.0000 N   0  0  0  0  0  0  0  0  0  0  0  0
    7.4032   -5.8846    0.0000 N   0  0  0  0  0  0  0  0  0  0  0  0
    6.0744  -10.8833    0.0000 N   0  0  3  0  0  0  0  0  0  0  0  0
    3.9231   -2.2147    0.0000 C   0  0  3  0  0  0  0  0  0  0  0  0
    3.2270   -1.7717    0.0000 C   0  0  3  0  0  0  0  0  0  0  0  0
    3.9231   -1.3288    0.0000 C   0  0  0  0  0  0  0  0  0  0  0  0
    4.7457   -1.9615    0.0000 C   0  0  0  0  0  0  0  0  0  0  0  0
    6.4541   -0.6960    0.0000 C   0  0  0  0  0  0  0  0  0  0  0  0
    4.4925   -3.4802    0.0000 C   0  0  0  0  0  0  0  0  0  0  0  0
    2.4044   -1.8350    0.0000 C   0  0  0  0  0  0  0  0  0  0  0  0
    4.4292   -4.3027    0.0000 C   0  0  3  0  0  0  0  0  0  0  0  0
    7.0235   -0.1266    0.0000 C   0  0  0  0  0  0  0  0  0  0  0  0
    7.2767   -0.8859    0.0000 C   0  0  0  0  0  0  0  0  0  0  0  0
    5.2518   -4.4925    0.0000 C   0  0  0  0  0  0  0  0  0  0  0  0
    6.0112    0.0000    0.0000 C   0  0  0  0  0  0  0  0  0  0  0  0
    2.9106   -4.6824    0.0000 C   0  0  0  0  0  0  0  0  0  0  0  0
    5.8846   -4.8722    0.0000 C   0  0  3  0  0  0  0  0  0  0  0  0
    4.9354   -3.9231    0.0000 C   0  0  0  0  0  0  0  0  0  0  0  0
    2.2779   -5.2518    0.0000 C   0  0  3  0  0  0  0  0  0  0  0  0
    1.6451   -4.6824    0.0000 C   0  0  0  0  0  0  0  0  0  0  0  0
    2.0248   -2.5943    0.0000 C   0  0  0  0  0  0  0  0  0  0  0  0
    6.6439   -6.3275    0.0000 C   0  0  0  0  0  0  0  0  0  0  0  0
    6.6439   -7.0868    0.0000 C   0  0  0  0  0  0  0  0  0  0  0  0
    7.4032   -7.5297    0.0000 C   0  0  0  0  0  0  0  0  0  0  0  0
    8.0359   -7.0868    0.0000 C   0  0  0  0  0  0  0  0  0  0  0  0
    8.0359   -6.3275    0.0000 C   0  0  0  0  0  0  0  0  0  0  0  0
    1.1389   -5.3151    0.0000 C   0  0  0  0  0  0  0  0  0  0  0  0
    1.3288   -3.9231    0.0000 C   0  0  0  0  0  0  0  0  0  0  0  0
    1.8350   -6.7072    0.0000 C   0  0  0  0  0  0  0  0  0  0  0  0
    2.1514   -4.0496    0.0000 C   0  0  0  0  0  0  0  0  0  0  0  0
    6.3908   -7.9094    0.0000 C   0  0  0  0  0  0  0  0  0  0  0  0
    2.2779   -8.1625    0.0000 C   0  0  3  0  0  0  0  0  0  0  0  0
    8.7952   -7.5297    0.0000 C   0  0  0  0  0  0  0  0  0  0  0  0
    8.7952   -5.8846    0.0000 C   0  0  0  0  0  0  0  0  0  0  0  0
    2.9106   -8.7319    0.0000 C   0  0  3  0  0  0  0  0  0  0  0  0
    0.3164   -5.1886    0.0000 C   0  0  0  0  0  0  0  0  0  0  0  0
    0.5695   -3.7965    0.0000 C   0  0  0  0  0  0  0  0  0  0  0  0
    2.0881   -9.0483    0.0000 C   0  0  0  0  0  0  0  0  0  0  0  0
    0.0000   -4.4292    0.0000 C   0  0  0  0  0  0  0  0  0  0  0  0
    9.4912   -7.0868    0.0000 C   0  0  0  0  0  0  0  0  0  0  0  0
    9.4912   -6.3275    0.0000 C   0  0  0  0  0  0  0  0  0  0  0  0
    5.8846   -8.5422    0.0000 C   0  0  0  0  0  0  0  0  0  0  0  0
    3.6699   -9.1116    0.0000 C   0  0  0  0  0  0  0  0  0  0  0  0
    6.7072   -8.7952    0.0000 C   0  0  0  0  0  0  0  0  0  0  0  0
    5.2518   -8.9218    0.0000 C   0  0  0  0  0  0  0  0  0  0  0  0
    4.4292   -9.1116    0.0000 C   0  0  0  0  0  0  0  0  0  0  0  0
    6.7072   -9.6178    0.0000 C   0  0  0  0  0  0  0  0  0  0  0  0
    6.0112  -10.0607    0.0000 C   0  0  0  0  0  0  0  0  0  0  0  0
    5.3784  -11.2629    0.0000 C   0  0  0  0  0  0  0  0  0  0  0  0
    6.8337  -11.1997    0.0000 C   0  0  0  0  0  0  0  0  0  0  0  0
    5.1886  -12.0222    0.0000 C   0  0  0  0  0  0  0  0  0  0  0  0
    7.0235  -12.0222    0.0000 C   0  0  0  0  0  0  0  0  0  0  0  0
    6.5173  -12.6550    0.0000 C   0  0  0  0  0  0  0  0  0  0  0  0
  1  3  2  0  0  0  0
  1  4  2  0  0  0  0
  1 13  1  0  0  0  0
  1 22  1  0  0  0  0
  2 21  2  0  0  0  0
  5 23  2  0  0  0  0
  6 31  1  0  0  0  0
  6 36  1  0  0  0  0
  7 30  2  0  0  0  0
  8 38  1  0  0  0  0
  8 58  1  0  0  0  0
  9 43  1  0  0  0  0
  9 46  1  0  0  0  0
 10 43  2  0  0  0  0
 11 65  1  0  0  0  0
 11 67  1  0  0  0  0
 18 12  1  1  0  0  0
 12 23  1  0  0  0  0
 13 21  1  0  0  0  0
 14 25  1  0  0  0  0
 14 30  1  0  0  0  0
 14 32  1  0  0  0  0
 15 33  1  0  0  0  0
 15 43  1  0  0  0  0
 16 36  1  0  0  0  0
 16 40  2  0  0  0  0
 17 62  1  0  0  0  0
 17 63  1  0  0  0  0
 17 64  1  0  0  0  0
 18 19  1  0  0  0  0
 18 20  1  0  0  0  0
 18 21  1  6  0  0  0
 19 20  1  0  0  0  0
 19 24  1  6  0  0  0
 22 26  1  0  0  0  0
 22 27  1  0  0  0  0
 22 29  1  0  0  0  0
 25 23  1  6  0  0  0
 24 35  2  0  0  0  0
 25 28  1  0  0  0  0
 26 27  1  0  0  0  0
 31 28  1  1  0  0  0
 33 30  1  1  0  0  0
 31 32  1  0  0  0  0
 33 34  1  0  0  0  0
 34 41  1  0  0  0  0
 34 42  1  0  0  0  0
 34 44  1  0  0  0  0
 36 37  2  0  0  0  0
 37 38  1  0  0  0  0
 37 45  1  0  0  0  0
 38 39  2  0  0  0  0
 39 40  1  0  0  0  0
 39 47  1  0  0  0  0
 40 48  1  0  0  0  0
 41 50  1  0  0  0  0
 42 51  1  0  0  0  0
 45 56  1  0  0  0  0
 46 49  1  0  0  0  0
 46 52  1  1  0  0  0
 47 54  2  0  0  0  0
 48 55  2  0  0  0  0
 49 52  1  6  0  0  0
 49 57  1  0  0  0  0
 50 53  1  0  0  0  0
 51 53  1  0  0  0  0
 54 55  1  0  0  0  0
 56 59  1  0  0  0  0
 57 60  1  0  0  0  0
 58 61  1  0  0  0  0
 59 60  1  0  0  0  0
 61 62  1  0  0  0  0
 63 65  1  0  0  0  0
 64 66  1  0  0  0  0
 66 67  1  0  0  0  0
M  END
> <PUBCHEM_COMPOUND_ID_TYPE>
0

> <PUBCHEM_TOTAL_CHARGE>
0

> <PUBCHEM_SUBSTANCE_ID>
310929613

> <PUBCHEM_SUBSTANCE_VERSION>
1

> <PUBCHEM_EXT_DATASOURCE_NAME>
4488

> <PUBCHEM_EXT_DATASOURCE_REGID>
SCHEMBL16106801

> <PUBCHEM_SUBSTANCE_COMMENT>
InChI=1S/C50H70N6O10S/c1-4-34-31-50(34,46(59)54-67(61,62)49(3)21-22-49)53-43(57)39-30-35-32-56(39)45(58)42(48(2)19-11-6-12-20-48)52-47(60)66-40-29-33(40)15-7-5-8-17-37-41(36-16-9-10-18-38(36)51-44(37)65-35)64-27-14-24-55-23-13-26-63-28-25-55/h4,9-10,16,18,33-35,39-40,42H,1,5-8,11-15,17,19-32H2,2-3H3,(H,52,60)(H,53,57)(H,54,59)/t33-,34-,35-,39+,40-,42-,50-/m1/s1
InChIKey=KOEDVVVQJGXHFP-LTHUXANDSA-N

> <PUBCHEM_SUBSTANCE_SYNONYM>
SCHEMBL16106801

> <PUBCHEM_XREF_EXT_ID>
SCHEMBL16106801

> <PUBCHEM_EXT_DATASOURCE_URL>
https://www.surechembl.org/

> <PUBCHEM_EXT_SUBSTANCE_URL>
https://www.surechembl.org/chemical/SCHEMBL16106801

> <PUBCHEM_CID_ASSOCIATIONS>
117598920  1

> <PUBCHEM_COORDINATE_TYPE>
1
3

> <PUBCHEM_BONDANNOTATIONS>
18  12  5
18  21  6
19  24  6
25  23  6
31  28  5
33  30  5
46  52  5
49  52  6

$$$$
