310945208
  -OEChem-07211613022D

 30 34  0     0  0  0  0  0  0999 V2000
   -3.3987   -1.6386    0.0000 O   0  0  0  0  0  0  0  0  0  0  0  0
    4.1156    0.0512    0.0000 O   0  0  0  0  0  0  0  0  0  0  0  0
   -4.1029    1.2673    0.0000 O   0  0  0  0  0  0  0  0  0  0  0  0
   -3.3987    0.0256    0.0000 N   0  0  0  0  0  0  0  0  0  0  0  0
    1.6577   -1.2162    0.0000 N   0  0  0  0  0  0  0  0  0  0  0  0
    0.1472   -0.3968    0.0000 N   0  0  0  0  0  0  0  0  0  0  0  0
   -0.5569    0.8577    0.0000 N   0  0  0  0  0  0  0  0  0  0  0  0
    4.1156   -1.3954    0.0000 N   0  0  0  0  0  0  0  0  0  0  0  0
   -2.6819   -0.3840    0.0000 C   0  0  0  0  0  0  0  0  0  0  0  0
    1.5937   -0.3840    0.0000 C   0  0  0  0  0  0  0  0  0  0  0  0
    2.8739   -0.6657    0.0000 C   0  0  0  0  0  0  0  0  0  0  0  0
   -1.2609   -0.3840    0.0000 C   0  0  0  0  0  0  0  0  0  0  0  0
    0.8641    0.0256    0.0000 C   0  0  0  0  0  0  0  0  0  0  0  0
    2.4642   -1.3954    0.0000 C   0  0  0  0  0  0  0  0  0  0  0  0
   -0.5697    0.0256    0.0000 C   0  0  0  0  0  0  0  0  0  0  0  0
   -2.6819   -1.2162    0.0000 C   0  0  0  0  0  0  0  0  0  0  0  0
   -1.9778    0.0128    0.0000 C   0  0  0  0  0  0  0  0  0  0  0  0
    2.3234   -0.0512    0.0000 C   0  0  0  0  0  0  0  0  0  0  0  0
    3.6932   -0.6785    0.0000 C   0  0  0  0  0  0  0  0  0  0  0  0
   -1.2737   -1.2162    0.0000 C   0  0  0  0  0  0  0  0  0  0  0  0
   -1.9778   -1.6257    0.0000 C   0  0  0  0  0  0  0  0  0  0  0  0
    0.8769    0.8449    0.0000 C   0  0  0  0  0  0  0  0  0  0  0  0
   -3.3987    0.8577    0.0000 C   0  0  0  0  0  0  0  0  0  0  0  0
    2.8739   -2.0994    0.0000 C   0  0  0  0  0  0  0  0  0  0  0  0
   -4.1029   -0.3840    0.0000 C   0  0  0  0  0  0  0  0  0  0  0  0
    0.1472    1.2673    0.0000 C   0  0  0  0  0  0  0  0  0  0  0  0
   -4.1156   -1.2162    0.0000 C   0  0  0  0  0  0  0  0  0  0  0  0
    3.7060   -2.1122    0.0000 C   0  0  0  0  0  0  0  0  0  0  0  0
   -2.6947    1.2673    0.0000 C   0  0  0  0  0  0  0  0  0  0  0  0
   -2.7459    2.1122    0.0000 C   0  0  0  0  0  0  0  0  0  0  0  0
  1 16  1  0  0  0  0
  1 27  1  0  0  0  0
  2 19  2  0  0  0  0
  3 23  2  0  0  0  0
  4  9  1  0  0  0  0
  4 23  1  0  0  0  0
  4 25  1  0  0  0  0
  5 10  1  0  0  0  0
  5 14  1  0  0  0  0
  6 13  2  0  0  0  0
  6 15  1  0  0  0  0
  7 15  2  0  0  0  0
  7 26  1  0  0  0  0
  8 19  1  0  0  0  0
  8 28  1  0  0  0  0
  9 16  2  0  0  0  0
  9 17  1  0  0  0  0
 10 13  1  0  0  0  0
 10 18  2  0  0  0  0
 11 14  2  0  0  0  0
 11 18  1  0  0  0  0
 11 19  1  0  0  0  0
 12 15  1  0  0  0  0
 12 17  2  0  0  0  0
 12 20  1  0  0  0  0
 13 22  1  0  0  0  0
 14 24  1  0  0  0  0
 16 21  1  0  0  0  0
 20 21  2  0  0  0  0
 22 26  2  0  0  0  0
 23 29  1  0  0  0  0
 24 28  1  0  0  0  0
 25 27  1  0  0  0  0
 29 30  2  0  0  0  0
M  END
> <PUBCHEM_COMPOUND_ID_TYPE>
0

> <PUBCHEM_TOTAL_CHARGE>
0

> <PUBCHEM_SUBSTANCE_ID>
310945208

> <PUBCHEM_SUBSTANCE_VERSION>
1

> <PUBCHEM_EXT_DATASOURCE_NAME>
4488

> <PUBCHEM_EXT_DATASOURCE_REGID>
SCHEMBL16123298

> <PUBCHEM_SUBSTANCE_COMMENT>
InChI=1S/C22H19N5O3/c1-2-20(28)27-9-10-30-19-4-3-13(11-18(19)27)21-23-7-6-16(26-21)17-12-14-15(25-17)5-8-24-22(14)29/h2-4,6-7,11-12,25H,1,5,8-10H2,(H,24,29)
InChIKey=KHTHUDOBYGYDKS-UHFFFAOYSA-N

> <PUBCHEM_SUBSTANCE_SYNONYM>
SCHEMBL16123298

> <PUBCHEM_XREF_EXT_ID>
SCHEMBL16123298

> <PUBCHEM_EXT_DATASOURCE_URL>
https://www.surechembl.org/

> <PUBCHEM_EXT_SUBSTANCE_URL>
https://www.surechembl.org/chemical/SCHEMBL16123298

> <PUBCHEM_CID_ASSOCIATIONS>
117611285  1

> <PUBCHEM_COORDINATE_TYPE>
1
3

$$$$
