310948800
  -OEChem-07211613022D

 34 36  0     1  0  0  0  0  0999 V2000
   -3.9351   -0.4226    0.0000 O   0  0  0  0  0  0  0  0  0  0  0  0
   -2.5079   -0.4226    0.0000 O   0  0  0  0  0  0  0  0  0  0  0  0
   -0.3464    2.4456    0.0000 O   0  0  0  0  0  0  0  0  0  0  0  0
    0.3603   -0.4087    0.0000 N   0  0  0  0  0  0  0  0  0  0  0  0
    0.3603    1.2262    0.0000 N   0  0  0  0  0  0  0  0  0  0  0  0
    1.0807    2.4456    0.0000 N   0  0  0  0  0  0  0  0  0  0  0  0
   -3.2284    1.6280    0.0000 C   0  0  0  0  0  0  0  0  0  0  0  0
   -2.5079    1.2124    0.0000 C   0  0  3  0  0  0  0  0  0  0  0  0
   -3.2284    0.8106    0.0000 C   0  0  3  0  0  0  0  0  0  0  0  0
   -1.7597    0.7967    0.0000 C   0  0  0  0  0  0  0  0  0  0  0  0
   -3.2284   -0.0208    0.0000 C   0  0  0  0  0  0  0  0  0  0  0  0
   -3.9628    2.0299    0.0000 C   0  0  0  0  0  0  0  0  0  0  0  0
   -3.2284    2.4733    0.0000 C   0  0  0  0  0  0  0  0  0  0  0  0
   -1.0946    1.2124    0.0000 C   0  0  0  0  0  0  0  0  0  0  0  0
   -1.7874   -0.0069    0.0000 C   0  0  0  0  0  0  0  0  0  0  0  0
   -0.3603    0.8244    0.0000 C   0  0  0  0  0  0  0  0  0  0  0  0
   -0.3603    0.0069    0.0000 C   0  0  0  0  0  0  0  0  0  0  0  0
   -1.0669   -0.4087    0.0000 C   0  0  0  0  0  0  0  0  0  0  0  0
    0.3741    2.0437    0.0000 C   0  0  0  0  0  0  0  0  0  0  0  0
    0.3464   -1.2401    0.0000 C   0  0  0  0  0  0  0  0  0  0  0  0
    1.0669   -0.0069    0.0000 C   0  0  0  0  0  0  0  0  0  0  0  0
   -0.3603   -1.6280    0.0000 C   0  0  0  0  0  0  0  0  0  0  0  0
    1.8013   -0.4087    0.0000 C   0  0  0  0  0  0  0  0  0  0  0  0
    1.8013    2.0437    0.0000 C   0  0  0  0  0  0  0  0  0  0  0  0
    1.8013    1.2262    0.0000 C   0  0  0  0  0  0  0  0  0  0  0  0
    2.5218    2.4456    0.0000 C   0  0  0  0  0  0  0  0  0  0  0  0
   -1.0946   -1.2401    0.0000 C   0  0  0  0  0  0  0  0  0  0  0  0
   -0.3464   -2.4733    0.0000 C   0  0  0  0  0  0  0  0  0  0  0  0
    2.5356   -0.0208    0.0000 C   0  0  0  0  0  0  0  0  0  0  0  0
    1.8151   -1.2540    0.0000 C   0  0  0  0  0  0  0  0  0  0  0  0
    3.2145    1.2401    0.0000 C   0  0  0  0  0  0  0  0  0  0  0  0
    2.5079    0.8244    0.0000 C   0  0  0  0  0  0  0  0  0  0  0  0
    3.2145    2.0437    0.0000 C   0  0  0  0  0  0  0  0  0  0  0  0
    3.9628    0.8106    0.0000 C   0  0  0  0  0  0  0  0  0  0  0  0
  1 11  2  0  0  0  0
  2 11  1  0  0  0  0
  3 19  2  0  0  0  0
  4 17  1  0  0  0  0
  4 20  1  0  0  0  0
  4 21  1  0  0  0  0
  5 16  1  0  0  0  0
  5 19  1  0  0  0  0
  6 19  1  0  0  0  0
  6 24  1  0  0  0  0
  7  8  1  0  0  0  0
  7  9  1  0  0  0  0
  7 12  1  0  0  0  0
  7 13  1  0  0  0  0
  8  9  1  0  0  0  0
  8 10  1  1  0  0  0
  9 11  1  1  0  0  0
 10 14  1  0  0  0  0
 10 15  2  0  0  0  0
 14 16  2  0  0  0  0
 15 18  1  0  0  0  0
 16 17  1  0  0  0  0
 17 18  2  0  0  0  0
 20 22  1  0  0  0  0
 21 23  1  0  0  0  0
 22 27  1  0  0  0  0
 22 28  1  0  0  0  0
 23 29  1  0  0  0  0
 23 30  1  0  0  0  0
 24 25  2  0  0  0  0
 24 26  1  0  0  0  0
 25 32  1  0  0  0  0
 26 33  2  0  0  0  0
 31 32  2  0  0  0  0
 31 33  1  0  0  0  0
 31 34  1  0  0  0  0
M  END
> <PUBCHEM_COMPOUND_ID_TYPE>
0

> <PUBCHEM_TOTAL_CHARGE>
0

> <PUBCHEM_SUBSTANCE_ID>
310948800

> <PUBCHEM_SUBSTANCE_VERSION>
1

> <PUBCHEM_EXT_DATASOURCE_NAME>
4488

> <PUBCHEM_EXT_DATASOURCE_REGID>
SCHEMBL16126984

> <PUBCHEM_SUBSTANCE_COMMENT>
InChI=1S/C28H39N3O3/c1-17(2)15-31(16-18(3)4)23-13-10-20(24-25(26(32)33)28(24,6)7)14-22(23)30-27(34)29-21-11-8-19(5)9-12-21/h8-14,17-18,24-25H,15-16H2,1-7H3,(H,32,33)(H2,29,30,34)/t24-,25-/m0/s1
InChIKey=JWVURUHIYFCNDR-DQEYMECFSA-N

> <PUBCHEM_SUBSTANCE_SYNONYM>
SCHEMBL16126984

> <PUBCHEM_XREF_EXT_ID>
SCHEMBL16126984

> <PUBCHEM_EXT_DATASOURCE_URL>
https://www.surechembl.org/

> <PUBCHEM_EXT_SUBSTANCE_URL>
https://www.surechembl.org/chemical/SCHEMBL16126984

> <PUBCHEM_CID_ASSOCIATIONS>
117614339  1

> <PUBCHEM_COORDINATE_TYPE>
1
3

> <PUBCHEM_BONDANNOTATIONS>
8  10  5
9  11  5

$$$$
