310948451
  -OEChem-07211613022D

 33 37  0     1  0  0  0  0  0999 V2000
   -0.3638   -2.6848    0.0000 S   0  0  0  0  0  0  0  0  0  0  0  0
   -1.1192   -3.0144    0.0000 O   0  0  0  0  0  0  0  0  0  0  0  0
   -0.1030   -3.4538    0.0000 O   0  0  0  0  0  0  0  0  0  0  0  0
    1.2428   -1.2702    0.0000 O   0  0  0  0  0  0  0  0  0  0  0  0
   -2.5886    1.8059    0.0000 O   0  0  0  0  0  0  0  0  0  0  0  0
    0.1716    1.6685    0.0000 N   0  0  0  0  0  0  0  0  0  0  0  0
   -1.5450    0.3914    0.0000 N   0  0  0  0  0  0  0  0  0  0  0  0
   -0.1716    0.9132    0.0000 N   0  0  0  0  0  0  0  0  0  0  0  0
   -1.8746    3.0418    0.0000 N   0  0  0  0  0  0  0  0  0  0  0  0
    1.0231   -0.3364    0.0000 N   0  0  0  0  0  0  0  0  0  0  0  0
    0.4463   -2.5063    0.0000 C   0  0  0  0  0  0  0  0  0  0  0  0
   -0.7759   -1.9569    0.0000 C   0  0  0  0  0  0  0  0  0  0  0  0
   -0.2403   -1.3389    0.0000 C   0  0  0  0  0  0  0  0  0  0  0  0
    0.5425   -1.6823    0.0000 C   0  0  3  0  0  0  0  0  0  0  0  0
   -0.4876   -0.5700    0.0000 C   0  0  0  0  0  0  0  0  0  0  0  0
   -1.1467    1.8059    0.0000 C   0  0  0  0  0  0  0  0  0  0  0  0
   -1.5862   -1.7784    0.0000 C   0  0  0  0  0  0  0  0  0  0  0  0
   -1.2977   -0.3776    0.0000 C   0  0  0  0  0  0  0  0  0  0  0  0
   -0.9956    1.0231    0.0000 C   0  0  0  0  0  0  0  0  0  0  0  0
   -0.4463    2.2178    0.0000 C   0  0  0  0  0  0  0  0  0  0  0  0
    1.2840   -2.4926    0.0000 C   0  0  0  0  0  0  0  0  0  0  0  0
    0.5425   -3.3440    0.0000 C   0  0  0  0  0  0  0  0  0  0  0  0
   -1.8196   -0.9819    0.0000 C   0  0  0  0  0  0  0  0  0  0  0  0
    0.9682    1.8470    0.0000 C   0  0  3  0  0  0  0  0  0  0  0  0
   -1.8746    2.2315    0.0000 C   0  0  0  0  0  0  0  0  0  0  0  0
   -0.4463    3.0418    0.0000 C   0  0  0  0  0  0  0  0  0  0  0  0
    1.5450    1.2290    0.0000 C   0  0  3  0  0  0  0  0  0  0  0  0
   -1.1741    3.4538    0.0000 C   0  0  0  0  0  0  0  0  0  0  0  0
    1.2428    2.6162    0.0000 C   0  0  0  0  0  0  0  0  0  0  0  0
    2.3277    1.4077    0.0000 C   0  0  0  0  0  0  0  0  0  0  0  0
    1.2565    0.4600    0.0000 C   0  0  0  0  0  0  0  0  0  0  0  0
    2.0393    2.7809    0.0000 C   0  0  0  0  0  0  0  0  0  0  0  0
    2.5886    2.1903    0.0000 C   0  0  0  0  0  0  0  0  0  0  0  0
  1  2  2  0  0  0  0
  1  3  2  0  0  0  0
  1 11  1  0  0  0  0
  1 12  1  0  0  0  0
  4 14  1  0  0  0  0
  5 25  2  0  0  0  0
  6  8  1  0  0  0  0
  6 20  1  0  0  0  0
 24  6  1  1  0  0  0
  7 18  1  0  0  0  0
  7 19  1  0  0  0  0
  8 19  2  0  0  0  0
  9 25  1  0  0  0  0
  9 28  1  0  0  0  0
 10 31  3  0  0  0  0
 11 14  1  0  0  0  0
 11 21  1  0  0  0  0
 11 22  1  0  0  0  0
 12 13  2  0  0  0  0
 12 17  1  0  0  0  0
 13 14  1  0  0  0  0
 13 15  1  0  0  0  0
 15 18  2  0  0  0  0
 16 19  1  0  0  0  0
 16 20  2  0  0  0  0
 16 25  1  0  0  0  0
 17 23  2  0  0  0  0
 18 23  1  0  0  0  0
 20 26  1  0  0  0  0
 24 27  1  0  0  0  0
 24 29  1  0  0  0  0
 26 28  2  0  0  0  0
 27 30  1  0  0  0  0
 27 31  1  6  0  0  0
 29 32  1  0  0  0  0
 30 33  1  0  0  0  0
 32 33  1  0  0  0  0
M  END
> <PUBCHEM_COMPOUND_ID_TYPE>
0

> <PUBCHEM_TOTAL_CHARGE>
0

> <PUBCHEM_SUBSTANCE_ID>
310948451

> <PUBCHEM_SUBSTANCE_VERSION>
1

> <PUBCHEM_EXT_DATASOURCE_NAME>
4488

> <PUBCHEM_EXT_DATASOURCE_REGID>
SCHEMBL16126632

> <PUBCHEM_SUBSTANCE_COMMENT>
InChI=1S/C23H25N5O4S/c1-23(2)20(29)15-11-14(7-8-18(15)33(23,31)32)26-21-19-17(9-10-25-22(19)30)28(27-21)16-6-4-3-5-13(16)12-24/h7-11,13,16,20,29H,3-6H2,1-2H3,(H,25,30)(H,26,27)/t13-,16+,20?/m1/s1
InChIKey=FWTHBNGYJPCRJH-YDCKXFNSSA-N

> <PUBCHEM_SUBSTANCE_SYNONYM>
SCHEMBL16126632

> <PUBCHEM_XREF_EXT_ID>
SCHEMBL16126632

> <PUBCHEM_EXT_DATASOURCE_URL>
https://www.surechembl.org/

> <PUBCHEM_EXT_SUBSTANCE_URL>
https://www.surechembl.org/chemical/SCHEMBL16126632

> <PUBCHEM_CID_ASSOCIATIONS>
117614009  1

> <PUBCHEM_COORDINATE_TYPE>
1
3

> <PUBCHEM_BONDANNOTATIONS>
27  31  6
24  6  5

$$$$
