310946654
  -OEChem-07211613022D

 18 19  0     0  0  0  0  0  0999 V2000
    1.6286    8.3088    0.0000 O   0  0  0  0  0  0  0  0  0  0  0  0
   -1.2293    8.3088    0.0000 O   0  0  0  0  0  0  0  0  0  0  0  0
    0.9142    8.7213    0.0000 C   0  0  0  0  0  0  0  0  0  0  0  0
    0.9142    9.5463    0.0000 C   0  0  0  0  0  0  0  0  0  0  0  0
   -0.5148    9.5463    0.0000 C   0  0  0  0  0  0  0  0  0  0  0  0
   -0.5148    8.7213    0.0000 C   0  0  0  0  0  0  0  0  0  0  0  0
    0.1997    9.9588    0.0000 C   0  0  0  0  0  0  0  0  0  0  0  0
    0.1997    8.3088    0.0000 C   0  0  0  0  0  0  0  0  0  0  0  0
    1.6286    9.9588    0.0000 C   0  0  0  0  0  0  0  0  0  0  0  0
    2.3431    8.7213    0.0000 C   0  0  0  0  0  0  0  0  0  0  0  0
    2.3431    9.5463    0.0000 C   0  0  0  0  0  0  0  0  0  0  0  0
   -1.2293    9.9588    0.0000 C   0  0  0  0  0  0  0  0  0  0  0  0
   -1.9437    9.5463    0.0000 C   0  0  0  0  0  0  0  0  0  0  0  0
    3.0576    8.3088    0.0000 C   0  0  0  0  0  0  0  0  0  0  0  0
   -1.9437    8.7213    0.0000 C   0  0  0  0  0  0  0  0  0  0  0  0
   -2.6582    9.9588    0.0000 C   0  0  0  0  0  0  0  0  0  0  0  0
   -3.3727    9.5463    0.0000 C   0  0  0  0  0  0  0  0  0  0  0  0
   -2.6582   10.7838    0.0000 C   0  0  0  0  0  0  0  0  0  0  0  0
  1  3  1  0  0  0  0
  1 10  1  0  0  0  0
  2  6  1  0  0  0  0
  2 15  1  0  0  0  0
  3  4  1  0  0  0  0
  3  8  2  0  0  0  0
  4  7  2  0  0  0  0
  4  9  1  0  0  0  0
  5  6  2  0  0  0  0
  5  7  1  0  0  0  0
  5 12  1  0  0  0  0
  6  8  1  0  0  0  0
  9 11  2  0  0  0  0
 10 11  1  0  0  0  0
 10 14  2  0  0  0  0
 12 13  1  0  0  0  0
 13 16  2  0  0  0  0
 16 17  1  0  0  0  0
 16 18  1  0  0  0  0
M  END
> <PUBCHEM_COMPOUND_ID_TYPE>
0

> <PUBCHEM_TOTAL_CHARGE>
0

> <PUBCHEM_SUBSTANCE_ID>
310946654

> <PUBCHEM_SUBSTANCE_VERSION>
1

> <PUBCHEM_EXT_DATASOURCE_NAME>
4488

> <PUBCHEM_EXT_DATASOURCE_REGID>
SCHEMBL16124775

> <PUBCHEM_SUBSTANCE_COMMENT>
InChI=1S/C16H18O2/c1-11(2)5-7-13-9-14-8-6-12(3)18-16(14)10-15(13)17-4/h5-6,8-10H,3,7H2,1-2,4H3
InChIKey=QMBJUAABOAQMPH-UHFFFAOYSA-N

> <PUBCHEM_SUBSTANCE_SYNONYM>
SCHEMBL16124775

> <PUBCHEM_XREF_EXT_ID>
SCHEMBL16124775

> <PUBCHEM_EXT_DATASOURCE_URL>
https://www.surechembl.org/

> <PUBCHEM_EXT_SUBSTANCE_URL>
https://www.surechembl.org/chemical/SCHEMBL16124775

> <PUBCHEM_CID_ASSOCIATIONS>
117612554  1

> <PUBCHEM_COORDINATE_TYPE>
1
3

$$$$
