310933984
  -OEChem-07211613022D

 38 40  0     0  0  0  0  0  0999 V2000
    2.1696    2.1112    0.0000 Cl  0  0  0  0  0  0  0  0  0  0  0  0
    5.1528   -1.0761    0.0000 Cl  0  0  0  0  0  0  0  0  0  0  0  0
    1.6077    1.4045    0.0000 S   0  0  0  0  0  0  0  0  0  0  0  0
    5.7147   -0.3694    0.0000 S   0  0  0  0  0  0  0  0  0  0  0  0
    3.4750    2.6924    0.0000 O   0  0  0  0  0  0  0  0  0  0  0  0
    3.8474   -1.6573    0.0000 O   0  0  0  0  0  0  0  0  0  0  0  0
    2.8407    0.6038    0.0000 C   0  0  0  0  0  0  0  0  0  0  0  0
    4.4817    0.4314    0.0000 C   0  0  0  0  0  0  0  0  0  0  0  0
    3.3256    1.2713    0.0000 C   0  0  0  0  0  0  0  0  0  0  0  0
    3.9968   -0.2361    0.0000 C   0  0  0  0  0  0  0  0  0  0  0  0
    3.1762   -0.1499    0.0000 C   0  0  0  0  0  0  0  0  0  0  0  0
    4.1461    1.1850    0.0000 C   0  0  0  0  0  0  0  0  0  0  0  0
    2.0202    0.6901    0.0000 C   0  0  0  0  0  0  0  0  0  0  0  0
    5.3022    0.3451    0.0000 C   0  0  0  0  0  0  0  0  0  0  0  0
    2.9901    2.0249    0.0000 C   0  0  0  0  0  0  0  0  0  0  0  0
    4.3323   -0.9898    0.0000 C   0  0  0  0  0  0  0  0  0  0  0  0
    1.4682    0.0770    0.0000 C   0  0  0  0  0  0  0  0  0  0  0  0
    5.8542    0.9582    0.0000 C   0  0  0  0  0  0  0  0  0  0  0  0
    0.7145    0.4125    0.0000 C   0  0  0  0  0  0  0  0  0  0  0  0
    6.6080    0.6227    0.0000 C   0  0  0  0  0  0  0  0  0  0  0  0
    0.8007    1.2330    0.0000 C   0  0  0  0  0  0  0  0  0  0  0  0
    6.5217   -0.1978    0.0000 C   0  0  0  0  0  0  0  0  0  0  0  0
    0.0000    0.0000    0.0000 C   0  0  0  0  0  0  0  0  0  0  0  0
    7.3224    1.0352    0.0000 C   0  0  0  0  0  0  0  0  0  0  0  0
   -0.7145    0.4125    0.0000 C   0  0  0  0  0  0  0  0  0  0  0  0
    8.0369    0.6227    0.0000 C   0  0  0  0  0  0  0  0  0  0  0  0
   -1.4290    0.0000    0.0000 C   0  0  0  0  0  0  0  0  0  0  0  0
    8.7514    1.0352    0.0000 C   0  0  0  0  0  0  0  0  0  0  0  0
   -2.1434    0.4125    0.0000 C   0  0  0  0  0  0  0  0  0  0  0  0
    9.4659    0.6227    0.0000 C   0  0  0  0  0  0  0  0  0  0  0  0
   -2.8579    0.0000    0.0000 C   0  0  0  0  0  0  0  0  0  0  0  0
   10.1803    1.0352    0.0000 C   0  0  0  0  0  0  0  0  0  0  0  0
   -3.5724    0.4125    0.0000 C   0  0  0  0  0  0  0  0  0  0  0  0
   10.8948    0.6227    0.0000 C   0  0  0  0  0  0  0  0  0  0  0  0
   -4.2869    0.0000    0.0000 C   0  0  0  0  0  0  0  0  0  0  0  0
   11.6093    1.0352    0.0000 C   0  0  0  0  0  0  0  0  0  0  0  0
   -5.0014    0.4125    0.0000 C   0  0  0  0  0  0  0  0  0  0  0  0
   12.3238    0.6227    0.0000 C   0  0  0  0  0  0  0  0  0  0  0  0
  1 15  1  0  0  0  0
  2 16  1  0  0  0  0
  3 13  1  0  0  0  0
  3 21  1  0  0  0  0
  4 14  1  0  0  0  0
  4 22  1  0  0  0  0
  5 15  2  0  0  0  0
  6 16  2  0  0  0  0
  7  9  2  0  0  0  0
  7 11  1  0  0  0  0
  7 13  1  0  0  0  0
  8 10  1  0  0  0  0
  8 12  2  0  0  0  0
  8 14  1  0  0  0  0
  9 12  1  0  0  0  0
  9 15  1  0  0  0  0
 10 11  2  0  0  0  0
 10 16  1  0  0  0  0
 13 17  2  0  0  0  0
 14 18  2  0  0  0  0
 17 19  1  0  0  0  0
 18 20  1  0  0  0  0
 19 21  2  0  0  0  0
 19 23  1  0  0  0  0
 20 22  2  0  0  0  0
 20 24  1  0  0  0  0
 23 25  1  0  0  0  0
 24 26  1  0  0  0  0
 25 27  1  0  0  0  0
 26 28  1  0  0  0  0
 27 29  1  0  0  0  0
 28 30  1  0  0  0  0
 29 31  1  0  0  0  0
 30 32  1  0  0  0  0
 31 33  1  0  0  0  0
 32 34  1  0  0  0  0
 33 35  1  0  0  0  0
 34 36  1  0  0  0  0
 35 37  1  0  0  0  0
 36 38  1  0  0  0  0
M  END
> <PUBCHEM_COMPOUND_ID_TYPE>
0

> <PUBCHEM_TOTAL_CHARGE>
0

> <PUBCHEM_SUBSTANCE_ID>
310933984

> <PUBCHEM_SUBSTANCE_VERSION>
1

> <PUBCHEM_EXT_DATASOURCE_NAME>
4488

> <PUBCHEM_EXT_DATASOURCE_REGID>
SCHEMBL16111426

> <PUBCHEM_SUBSTANCE_COMMENT>
InChI=1S/C32H40Cl2O2S2/c1-3-5-7-9-11-13-15-23-17-29(37-21-23)25-19-28(32(34)36)26(20-27(25)31(33)35)30-18-24(22-38-30)16-14-12-10-8-6-4-2/h17-22H,3-16H2,1-2H3
InChIKey=ZRGXYPZJJBOTEO-UHFFFAOYSA-N

> <PUBCHEM_SUBSTANCE_SYNONYM>
SCHEMBL16111426

> <PUBCHEM_XREF_EXT_ID>
SCHEMBL16111426

> <PUBCHEM_EXT_DATASOURCE_URL>
https://www.surechembl.org/

> <PUBCHEM_EXT_SUBSTANCE_URL>
https://www.surechembl.org/chemical/SCHEMBL16111426

> <PUBCHEM_CID_ASSOCIATIONS>
102421296  1

> <PUBCHEM_COORDINATE_TYPE>
1
3

$$$$
