310941604
  -OEChem-07211613022D

 20 21  0     0  0  0  0  0  0999 V2000
    0.4212   -0.7107    0.0000 O   0  0  0  0  0  0  0  0  0  0  0  0
    2.9307    0.7283    0.0000 O   0  0  0  0  0  0  0  0  0  0  0  0
   -0.8248    0.0263    0.0000 N   0  0  0  0  0  0  0  0  0  0  0  0
    0.4387    0.7107    0.0000 C   0  0  0  0  0  0  0  0  0  0  0  0
    0.8424    0.0088    0.0000 C   0  0  0  0  0  0  0  0  0  0  0  0
   -1.6847   -0.0088    0.0000 C   0  0  0  0  0  0  0  0  0  0  0  0
    2.0883    0.7283    0.0000 C   0  0  0  0  0  0  0  0  0  0  0  0
    1.6847    0.0088    0.0000 C   0  0  0  0  0  0  0  0  0  0  0  0
   -0.4036    0.7107    0.0000 C   0  0  0  0  0  0  0  0  0  0  0  0
    0.8424    1.4303    0.0000 C   0  0  0  0  0  0  0  0  0  0  0  0
    1.6847    1.4127    0.0000 C   0  0  0  0  0  0  0  0  0  0  0  0
   -2.0708    0.6932    0.0000 C   0  0  0  0  0  0  0  0  0  0  0  0
   -2.0708   -0.6932    0.0000 C   0  0  0  0  0  0  0  0  0  0  0  0
   -2.8956    0.7107    0.0000 C   0  0  0  0  0  0  0  0  0  0  0  0
   -2.8956   -0.6932    0.0000 C   0  0  0  0  0  0  0  0  0  0  0  0
   -3.2992   -0.0088    0.0000 C   0  0  0  0  0  0  0  0  0  0  0  0
   -3.3343    1.4303    0.0000 C   0  0  0  0  0  0  0  0  0  0  0  0
   -3.2992   -1.4303    0.0000 C   0  0  0  0  0  0  0  0  0  0  0  0
    0.8248   -1.4127    0.0000 C   0  0  0  0  0  0  0  0  0  0  0  0
    3.3343    1.4127    0.0000 C   0  0  0  0  0  0  0  0  0  0  0  0
  1  5  1  0  0  0  0
  1 19  1  0  0  0  0
  2  7  1  0  0  0  0
  2 20  1  0  0  0  0
  3  6  1  0  0  0  0
  3  9  2  0  0  0  0
  4  5  2  0  0  0  0
  4  9  1  0  0  0  0
  4 10  1  0  0  0  0
  5  8  1  0  0  0  0
  6 12  2  0  0  0  0
  6 13  1  0  0  0  0
  7  8  2  0  0  0  0
  7 11  1  0  0  0  0
 10 11  2  0  0  0  0
 12 14  1  0  0  0  0
 13 15  2  0  0  0  0
 14 16  2  0  0  0  0
 14 17  1  0  0  0  0
 15 16  1  0  0  0  0
 15 18  1  0  0  0  0
M  END
> <PUBCHEM_COMPOUND_ID_TYPE>
0

> <PUBCHEM_TOTAL_CHARGE>
0

> <PUBCHEM_SUBSTANCE_ID>
310941604

> <PUBCHEM_SUBSTANCE_VERSION>
1

> <PUBCHEM_EXT_DATASOURCE_NAME>
4488

> <PUBCHEM_EXT_DATASOURCE_REGID>
SCHEMBL16119635

> <PUBCHEM_SUBSTANCE_COMMENT>
InChI=1S/C17H19NO2/c1-12-7-13(2)9-15(8-12)18-11-14-5-6-16(19-3)10-17(14)20-4/h5-11H,1-4H3/b18-11+
InChIKey=LSOJMTOXXJMMDH-WOJGMQOQSA-N

> <PUBCHEM_SUBSTANCE_SYNONYM>
SCHEMBL16119635

> <PUBCHEM_XREF_EXT_ID>
SCHEMBL16119635

> <PUBCHEM_EXT_DATASOURCE_URL>
https://www.surechembl.org/

> <PUBCHEM_EXT_SUBSTANCE_URL>
https://www.surechembl.org/chemical/SCHEMBL16119635

> <PUBCHEM_CID_ASSOCIATIONS>
117608403  1

> <PUBCHEM_COORDINATE_TYPE>
1
3

$$$$
