310930865
  -OEChem-07211613022D

 23 24  0     1  0  0  0  0  0999 V2000
    8.1429    1.7739    0.0000 Cl  0  0  0  0  0  0  0  0  0  0  0  0
    2.1262    1.8413    0.0000 O   0  0  0  0  0  0  0  0  0  0  0  0
    5.6045    3.6732    0.0000 O   0  0  0  0  0  0  0  0  0  0  0  0
    2.8407    0.6038    0.0000 O   0  0  0  0  0  0  0  0  0  0  0  0
    4.2990    4.2545    0.0000 O   0  0  0  0  0  0  0  0  0  0  0  0
    3.5551    1.8413    0.0000 N   0  0  0  0  0  0  0  0  0  0  0  0
    4.8609    2.1189    0.0000 C   0  0  3  0  0  0  0  0  0  0  0  0
    4.4484    2.8333    0.0000 C   0  0  3  0  0  0  0  0  0  0  0  0
    4.3089    1.5058    0.0000 C   0  0  0  0  0  0  0  0  0  0  0  0
    5.6814    2.0327    0.0000 C   0  0  0  0  0  0  0  0  0  0  0  0
    3.6414    2.6618    0.0000 C   0  0  0  0  0  0  0  0  0  0  0  0
    2.8407    1.4288    0.0000 C   0  0  0  0  0  0  0  0  0  0  0  0
    4.7839    3.5870    0.0000 C   0  0  0  0  0  0  0  0  0  0  0  0
    6.0170    1.2789    0.0000 C   0  0  0  0  0  0  0  0  0  0  0  0
    6.1663    2.7001    0.0000 C   0  0  0  0  0  0  0  0  0  0  0  0
    1.4117    1.4288    0.0000 C   0  0  0  0  0  0  0  0  0  0  0  0
    6.8375    1.1927    0.0000 C   0  0  0  0  0  0  0  0  0  0  0  0
    6.9868    2.6138    0.0000 C   0  0  0  0  0  0  0  0  0  0  0  0
    7.3224    1.8602    0.0000 C   0  0  0  0  0  0  0  0  0  0  0  0
    1.4117    0.6038    0.0000 C   0  0  0  0  0  0  0  0  0  0  0  0
    0.6973    1.0163    0.0000 C   0  0  0  0  0  0  0  0  0  0  0  0
    0.6973    1.8413    0.0000 C   0  0  0  0  0  0  0  0  0  0  0  0
    5.9400    4.4270    0.0000 C   0  0  0  0  0  0  0  0  0  0  0  0
  1 19  1  0  0  0  0
  2 12  1  0  0  0  0
  2 16  1  0  0  0  0
  3 13  1  0  0  0  0
  3 23  1  0  0  0  0
  4 12  2  0  0  0  0
  5 13  2  0  0  0  0
  6  9  1  0  0  0  0
  6 11  1  0  0  0  0
  6 12  1  0  0  0  0
  7  8  1  0  0  0  0
  7  9  1  1  0  0  0
  7 10  1  0  0  0  0
  8 11  1  0  0  0  0
  8 13  1  6  0  0  0
 10 14  2  0  0  0  0
 10 15  1  0  0  0  0
 14 17  1  0  0  0  0
 15 18  2  0  0  0  0
 16 20  1  0  0  0  0
 16 21  1  0  0  0  0
 16 22  1  0  0  0  0
 17 19  2  0  0  0  0
 18 19  1  0  0  0  0
M  END
> <PUBCHEM_COMPOUND_ID_TYPE>
0

> <PUBCHEM_TOTAL_CHARGE>
0

> <PUBCHEM_SUBSTANCE_ID>
310930865

> <PUBCHEM_SUBSTANCE_VERSION>
1

> <PUBCHEM_EXT_DATASOURCE_NAME>
4488

> <PUBCHEM_EXT_DATASOURCE_REGID>
SCHEMBL16108163

> <PUBCHEM_SUBSTANCE_COMMENT>
InChI=1S/C17H22ClNO4/c1-17(2,3)23-16(21)19-9-13(14(10-19)15(20)22-4)11-5-7-12(18)8-6-11/h5-8,13-14H,9-10H2,1-4H3/t13-,14+/m1/s1
InChIKey=YUICVKFPXCOPAT-KGLIPLIRSA-N

> <PUBCHEM_SUBSTANCE_SYNONYM>
SCHEMBL16108163

> <PUBCHEM_XREF_EXT_ID>
SCHEMBL16108163

> <PUBCHEM_EXT_DATASOURCE_URL>
https://www.surechembl.org/

> <PUBCHEM_EXT_SUBSTANCE_URL>
https://www.surechembl.org/chemical/SCHEMBL16108163

> <PUBCHEM_CID_ASSOCIATIONS>
117599847  1

> <PUBCHEM_COORDINATE_TYPE>
1
3

> <PUBCHEM_BONDANNOTATIONS>
7  9  5
8  13  6

$$$$
