310935508
  -OEChem-07211613022D

 27 29  0     0  0  0  0  0  0999 V2000
    9.5407   -1.6219    0.0000 F   0  0  0  0  0  0  0  0  0  0  0  0
    5.7244   -0.9859    0.0000 O   0  0  0  0  0  0  0  0  0  0  0  0
    5.4700   -3.6891    0.0000 O   0  0  0  0  0  0  0  0  0  0  0  0
    2.8304   -2.4806    0.0000 O   0  0  0  0  0  0  0  0  0  0  0  0
    0.6997   -1.2085    0.0000 O   0  0  0  0  0  0  0  0  0  0  0  0
    1.3993    0.0000    0.0000 O   0  0  0  0  0  0  0  0  0  0  0  0
    6.8057   -3.2438    0.0000 N   0  0  0  0  0  0  0  0  0  0  0  0
    5.7562   -2.2898    0.0000 C   0  0  0  0  0  0  0  0  0  0  0  0
    4.9611   -2.0672    0.0000 C   0  0  0  0  0  0  0  0  0  0  0  0
    6.2332   -1.6219    0.0000 C   0  0  0  0  0  0  0  0  0  0  0  0
    4.9611   -1.2085    0.0000 C   0  0  0  0  0  0  0  0  0  0  0  0
    7.0601   -1.6219    0.0000 C   0  0  0  0  0  0  0  0  0  0  0  0
    4.2297   -2.4806    0.0000 C   0  0  0  0  0  0  0  0  0  0  0  0
    6.0106   -3.0848    0.0000 C   0  0  0  0  0  0  0  0  0  0  0  0
    4.2297   -0.8269    0.0000 C   0  0  0  0  0  0  0  0  0  0  0  0
    3.5300   -1.2085    0.0000 C   0  0  0  0  0  0  0  0  0  0  0  0
    3.5618   -2.0672    0.0000 C   0  0  0  0  0  0  0  0  0  0  0  0
    7.4735   -0.9222    0.0000 C   0  0  0  0  0  0  0  0  0  0  0  0
    7.4735   -2.3534    0.0000 C   0  0  0  0  0  0  0  0  0  0  0  0
    2.8304   -0.8269    0.0000 C   0  0  0  0  0  0  0  0  0  0  0  0
    8.3004   -0.9222    0.0000 C   0  0  0  0  0  0  0  0  0  0  0  0
    8.3004   -2.3215    0.0000 C   0  0  0  0  0  0  0  0  0  0  0  0
    8.7138   -1.6219    0.0000 C   0  0  0  0  0  0  0  0  0  0  0  0
    2.1307   -1.2085    0.0000 C   0  0  0  0  0  0  0  0  0  0  0  0
    7.0601   -4.0389    0.0000 C   0  0  0  0  0  0  0  0  0  0  0  0
    1.3993   -0.8269    0.0000 C   0  0  0  0  0  0  0  0  0  0  0  0
    0.0000   -0.8269    0.0000 C   0  0  0  0  0  0  0  0  0  0  0  0
  1 23  1  0  0  0  0
  2 10  1  0  0  0  0
  2 11  1  0  0  0  0
  3 14  2  0  0  0  0
  4 17  1  0  0  0  0
  5 26  1  0  0  0  0
  5 27  1  0  0  0  0
  6 26  2  0  0  0  0
  7 14  1  0  0  0  0
  7 25  1  0  0  0  0
  8  9  1  0  0  0  0
  8 10  2  0  0  0  0
  8 14  1  0  0  0  0
  9 11  2  0  0  0  0
  9 13  1  0  0  0  0
 10 12  1  0  0  0  0
 11 15  1  0  0  0  0
 12 18  2  0  0  0  0
 12 19  1  0  0  0  0
 13 17  2  0  0  0  0
 15 16  2  0  0  0  0
 16 17  1  0  0  0  0
 16 20  1  0  0  0  0
 18 21  1  0  0  0  0
 19 22  2  0  0  0  0
 20 24  1  0  0  0  0
 21 23  2  0  0  0  0
 22 23  1  0  0  0  0
 24 26  1  0  0  0  0
M  END
> <PUBCHEM_COMPOUND_ID_TYPE>
0

> <PUBCHEM_TOTAL_CHARGE>
0

> <PUBCHEM_SUBSTANCE_ID>
310935508

> <PUBCHEM_SUBSTANCE_VERSION>
1

> <PUBCHEM_EXT_DATASOURCE_NAME>
4488

> <PUBCHEM_EXT_DATASOURCE_REGID>
SCHEMBL16113075

> <PUBCHEM_SUBSTANCE_COMMENT>
InChI=1S/C20H18FNO5/c1-22-20(25)18-14-10-15(23)12(5-8-17(24)26-2)9-16(14)27-19(18)11-3-6-13(21)7-4-11/h3-4,6-7,9-10,23H,5,8H2,1-2H3,(H,22,25)
InChIKey=IUCMAAPOJRAFND-UHFFFAOYSA-N

> <PUBCHEM_SUBSTANCE_SYNONYM>
SCHEMBL16113075

> <PUBCHEM_XREF_EXT_ID>
SCHEMBL16113075

> <PUBCHEM_EXT_DATASOURCE_URL>
https://www.surechembl.org/

> <PUBCHEM_EXT_SUBSTANCE_URL>
https://www.surechembl.org/chemical/SCHEMBL16113075

> <PUBCHEM_CID_ASSOCIATIONS>
117603539  1

> <PUBCHEM_COORDINATE_TYPE>
1
3

$$$$
