310940052
  -OEChem-07211613022D

 17 18  0     0  0  0  0  0  0999 V2000
   -6.3715    5.5615    0.0000 Cl  0  0  0  0  0  0  0  0  0  0  0  0
   -3.5136    7.2115    0.0000 S   0  0  0  0  0  0  0  0  0  0  0  0
   -3.5136    5.5615    0.0000 O   0  0  0  0  0  0  0  0  0  0  0  0
   -2.0846    8.0364    0.0000 O   0  0  0  0  0  0  0  0  0  0  0  0
   -1.3703    6.7990    0.0000 O   0  0  0  0  0  0  0  0  0  0  0  0
   -5.6570    6.7990    0.0000 C   0  0  0  0  0  0  0  0  0  0  0  0
   -6.3715    7.2115    0.0000 C   0  0  0  0  0  0  0  0  0  0  0  0
   -4.2280    6.7990    0.0000 C   0  0  0  0  0  0  0  0  0  0  0  0
   -5.6570    5.9740    0.0000 C   0  0  0  0  0  0  0  0  0  0  0  0
   -4.2280    5.9740    0.0000 C   0  0  0  0  0  0  0  0  0  0  0  0
   -4.9425    7.2115    0.0000 C   0  0  0  0  0  0  0  0  0  0  0  0
   -4.9425    5.5615    0.0000 C   0  0  0  0  0  0  0  0  0  0  0  0
   -6.7840    7.9259    0.0000 C   0  0  0  0  0  0  0  0  0  0  0  0
   -7.1965    7.2115    0.0000 C   0  0  0  0  0  0  0  0  0  0  0  0
   -2.7992    6.7990    0.0000 C   0  0  0  0  0  0  0  0  0  0  0  0
   -2.0846    7.2115    0.0000 C   0  0  0  0  0  0  0  0  0  0  0  0
   -2.7992    5.9740    0.0000 C   0  0  0  0  0  0  0  0  0  0  0  0
  1  9  1  0  0  0  0
  2  8  1  0  0  0  0
  2 15  1  0  0  0  0
  3 10  1  0  0  0  0
  3 17  1  0  0  0  0
  4 16  2  0  0  0  0
  5 16  1  0  0  0  0
  6  7  1  0  0  0  0
  6  9  2  0  0  0  0
  6 11  1  0  0  0  0
  7 13  1  0  0  0  0
  7 14  1  0  0  0  0
  8 10  1  0  0  0  0
  8 11  2  0  0  0  0
  9 12  1  0  0  0  0
 10 12  2  0  0  0  0
 13 14  1  0  0  0  0
 15 16  1  0  0  0  0
M  END
> <PUBCHEM_COMPOUND_ID_TYPE>
0

> <PUBCHEM_TOTAL_CHARGE>
0

> <PUBCHEM_SUBSTANCE_ID>
310940052

> <PUBCHEM_SUBSTANCE_VERSION>
1

> <PUBCHEM_EXT_DATASOURCE_NAME>
4488

> <PUBCHEM_EXT_DATASOURCE_REGID>
SCHEMBL16117982

> <PUBCHEM_SUBSTANCE_COMMENT>
InChI=1S/C12H13ClO3S/c1-16-10-5-9(13)8(7-2-3-7)4-11(10)17-6-12(14)15/h4-5,7H,2-3,6H2,1H3,(H,14,15)
InChIKey=IPMWGJDPWYOBDP-UHFFFAOYSA-N

> <PUBCHEM_SUBSTANCE_SYNONYM>
SCHEMBL16117982

> <PUBCHEM_XREF_EXT_ID>
SCHEMBL16117982

> <PUBCHEM_EXT_DATASOURCE_URL>
https://www.surechembl.org/

> <PUBCHEM_EXT_SUBSTANCE_URL>
https://www.surechembl.org/chemical/SCHEMBL16117982

> <PUBCHEM_CID_ASSOCIATIONS>
117607202  1

> <PUBCHEM_COORDINATE_TYPE>
1
3

$$$$
