310931725
  -OEChem-07211613022D

 37 40  0     0  0  0  0  0  0999 V2000
    2.8874   -7.0637    0.0000 O   0  0  0  0  0  0  0  0  0  0  0  0
    0.1031   -9.6417    0.0000 O   0  0  0  0  0  0  0  0  0  0  0  0
    3.5061   -9.2292    0.0000 O   0  0  0  0  0  0  0  0  0  0  0  0
    2.3717   -1.6499    0.0000 O   0  0  0  0  0  0  0  0  0  0  0  0
    3.7639   -1.6499    0.0000 O   0  0  0  0  0  0  0  0  0  0  0  0
    2.3717   -5.6716    0.0000 N   0  0  0  0  0  0  0  0  0  0  0  0
    1.0828   -5.9809    0.0000 N   0  0  0  0  0  0  0  0  0  0  0  0
    1.4437   -4.5373    0.0000 N   0  0  0  0  0  0  0  0  0  0  0  0
    3.0420   -2.8358    0.0000 N   0  0  0  0  0  0  0  0  0  0  0  0
    1.4437   -6.6512    0.0000 C   0  0  0  0  0  0  0  0  0  0  0  0
    2.2686   -6.4965    0.0000 C   0  0  0  0  0  0  0  0  0  0  0  0
    1.1343   -7.4246    0.0000 C   0  0  0  0  0  0  0  0  0  0  0  0
    1.9593   -7.3215    0.0000 C   0  0  0  0  0  0  0  0  0  0  0  0
    1.5984   -5.3622    0.0000 C   0  0  0  0  0  0  0  0  0  0  0  0
    3.0420   -5.3107    0.0000 C   0  0  0  0  0  0  0  0  0  0  0  0
    1.5984   -8.0949    0.0000 C   0  0  0  0  0  0  0  0  0  0  0  0
    2.7842   -7.1668    0.0000 C   0  0  0  0  0  0  0  0  0  0  0  0
    0.3093   -7.4761    0.0000 C   0  0  0  0  0  0  0  0  0  0  0  0
    1.8561   -8.2496    0.0000 C   0  0  0  0  0  0  0  0  0  0  0  0
    3.0420   -4.4857    0.0000 C   0  0  0  0  0  0  0  0  0  0  0  0
    1.2890   -8.8167    0.0000 C   0  0  0  0  0  0  0  0  0  0  0  0
    3.2998   -7.8371    0.0000 C   0  0  0  0  0  0  0  0  0  0  0  0
    0.0000   -8.2496    0.0000 C   0  0  0  0  0  0  0  0  0  0  0  0
    2.1655   -8.7136    0.0000 C   0  0  0  0  0  0  0  0  0  0  0  0
    0.4640   -8.9198    0.0000 C   0  0  0  0  0  0  0  0  0  0  0  0
    2.9905   -8.5589    0.0000 C   0  0  0  0  0  0  0  0  0  0  0  0
    3.7639   -4.0732    0.0000 C   0  0  0  0  0  0  0  0  0  0  0  0
    2.3717   -4.0732    0.0000 C   0  0  0  0  0  0  0  0  0  0  0  0
    3.7639   -3.2482    0.0000 C   0  0  0  0  0  0  0  0  0  0  0  0
    2.3717   -3.2482    0.0000 C   0  0  0  0  0  0  0  0  0  0  0  0
    3.0420   -2.0109    0.0000 C   0  0  0  0  0  0  0  0  0  0  0  0
    2.3717   -0.8249    0.0000 C   0  0  0  0  0  0  0  0  0  0  0  0
    0.5672  -10.3119    0.0000 C   0  0  0  0  0  0  0  0  0  0  0  0
    4.2795   -9.1261    0.0000 C   0  0  0  0  0  0  0  0  0  0  0  0
    3.1967   -0.8249    0.0000 C   0  0  0  0  0  0  0  0  0  0  0  0
    2.3717    0.0000    0.0000 C   0  0  0  0  0  0  0  0  0  0  0  0
    1.5468   -0.8249    0.0000 C   0  0  0  0  0  0  0  0  0  0  0  0
  1 11  2  0  0  0  0
  2 25  1  0  0  0  0
  2 33  1  0  0  0  0
  3 26  1  0  0  0  0
  3 34  1  0  0  0  0
  4 31  1  0  0  0  0
  4 32  1  0  0  0  0
  5 31  2  0  0  0  0
  6 11  1  0  0  0  0
  6 14  1  0  0  0  0
  6 15  1  0  0  0  0
  7 10  1  0  0  0  0
  7 14  1  0  0  0  0
  8 14  2  3  0  0  0
  9 29  1  0  0  0  0
  9 30  1  0  0  0  0
  9 31  1  0  0  0  0
 10 11  1  0  0  0  0
 10 12  1  0  0  0  0
 10 13  1  0  0  0  0
 12 16  2  0  0  0  0
 12 18  1  0  0  0  0
 13 17  2  0  0  0  0
 13 19  1  0  0  0  0
 15 20  1  0  0  0  0
 16 21  1  0  0  0  0
 17 22  1  0  0  0  0
 18 23  2  0  0  0  0
 19 24  2  0  0  0  0
 20 27  1  0  0  0  0
 20 28  1  0  0  0  0
 21 25  2  0  0  0  0
 22 26  2  0  0  0  0
 23 25  1  0  0  0  0
 24 26  1  0  0  0  0
 27 29  1  0  0  0  0
 28 30  1  0  0  0  0
 32 35  1  0  0  0  0
 32 36  1  0  0  0  0
 32 37  1  0  0  0  0
M  END
> <PUBCHEM_COMPOUND_ID_TYPE>
0

> <PUBCHEM_TOTAL_CHARGE>
0

> <PUBCHEM_SUBSTANCE_ID>
310931725

> <PUBCHEM_SUBSTANCE_VERSION>
1

> <PUBCHEM_EXT_DATASOURCE_NAME>
4488

> <PUBCHEM_EXT_DATASOURCE_REGID>
SCHEMBL16109054

> <PUBCHEM_SUBSTANCE_COMMENT>
InChI=1S/C28H36N4O5/c1-27(2,3)37-26(34)31-16-14-19(15-17-31)18-32-24(33)28(30-25(32)29,20-6-10-22(35-4)11-7-20)21-8-12-23(36-5)13-9-21/h6-13,19H,14-18H2,1-5H3,(H2,29,30)
InChIKey=FHVISDKTJAQQPR-UHFFFAOYSA-N

> <PUBCHEM_SUBSTANCE_SYNONYM>
SCHEMBL16109054

> <PUBCHEM_XREF_EXT_ID>
SCHEMBL16109054

> <PUBCHEM_EXT_DATASOURCE_URL>
https://www.surechembl.org/

> <PUBCHEM_EXT_SUBSTANCE_URL>
https://www.surechembl.org/chemical/SCHEMBL16109054

> <PUBCHEM_CID_ASSOCIATIONS>
86274799  1

> <PUBCHEM_COORDINATE_TYPE>
1
3

$$$$
