310930048
  -OEChem-07211613022D

 36 39  0     1  0  0  0  0  0999 V2000
    6.0130   -4.0997    0.0000 F   0  0  0  0  0  0  0  0  0  0  0  0
    4.8286   -3.2798    0.0000 F   0  0  0  0  0  0  0  0  0  0  0  0
    5.5574   -4.7830    0.0000 F   0  0  0  0  0  0  0  0  0  0  0  0
    5.1019   -4.8741    0.0000 O   0  0  0  0  0  0  0  0  0  0  0  0
    2.1410   -6.2407    0.0000 O   0  0  0  0  0  0  0  0  0  0  0  0
    0.6833    0.0000    0.0000 O   0  0  0  0  0  0  0  0  0  0  0  0
    1.9588   -8.4272    0.0000 O   0  0  0  0  0  0  0  0  0  0  0  0
    1.4121   -2.0954    0.0000 N   0  0  0  0  0  0  0  0  0  0  0  0
    0.7289   -2.5965    0.0000 N   0  0  0  0  0  0  0  0  0  0  0  0
    0.0000   -1.2299    0.0000 N   0  0  0  0  0  0  0  0  0  0  0  0
    4.4641   -4.3731    0.0000 C   0  0  3  0  0  0  0  0  0  0  0  0
    3.6898   -4.6463    0.0000 C   0  0  0  0  0  0  0  0  0  0  0  0
    3.1887   -3.9175    0.0000 C   0  0  0  0  0  0  0  0  0  0  0  0
    4.5097   -3.5075    0.0000 C   0  0  0  0  0  0  0  0  0  0  0  0
    3.6898   -3.2798    0.0000 C   0  0  0  0  0  0  0  0  0  0  0  0
    5.1930   -4.0086    0.0000 C   0  0  0  0  0  0  0  0  0  0  0  0
    2.3232   -4.0086    0.0000 C   0  0  0  0  0  0  0  0  0  0  0  0
    3.3253   -5.4208    0.0000 C   0  0  0  0  0  0  0  0  0  0  0  0
    1.8221   -3.3709    0.0000 C   0  0  0  0  0  0  0  0  0  0  0  0
    5.1019   -3.0065    0.0000 C   0  0  0  0  0  0  0  0  0  0  0  0
    2.5054   -5.4663    0.0000 C   0  0  0  0  0  0  0  0  0  0  0  0
    2.0043   -4.7830    0.0000 C   0  0  0  0  0  0  0  0  0  0  0  0
    3.5531   -2.4599    0.0000 C   0  0  0  0  0  0  0  0  0  0  0  0
    4.9197   -2.1865    0.0000 C   0  0  0  0  0  0  0  0  0  0  0  0
    2.0954   -2.5510    0.0000 C   0  0  0  0  0  0  0  0  0  0  0  0
    4.1453   -1.9132    0.0000 C   0  0  0  0  0  0  0  0  0  0  0  0
    1.0021   -3.3709    0.0000 C   0  0  0  0  0  0  0  0  0  0  0  0
    1.4121   -1.2299    0.0000 C   0  0  0  0  0  0  0  0  0  0  0  0
    0.6833   -0.8200    0.0000 C   0  0  0  0  0  0  0  0  0  0  0  0
    2.6421   -6.9240    0.0000 C   0  0  0  0  0  0  0  0  0  0  0  0
    2.1410   -0.8200    0.0000 C   0  0  0  0  0  0  0  0  0  0  0  0
    1.4121   -0.4099    0.0000 C   0  0  0  0  0  0  0  0  0  0  0  0
    2.3232   -7.6528    0.0000 C   0  0  0  0  0  0  0  0  0  0  0  0
    2.7787   -8.3361    0.0000 C   0  0  0  0  0  0  0  0  0  0  0  0
    2.4599   -9.1105    0.0000 C   0  0  0  0  0  0  0  0  0  0  0  0
    3.5987   -8.2450    0.0000 C   0  0  0  0  0  0  0  0  0  0  0  0
  1 16  1  0  0  0  0
  2 16  1  0  0  0  0
  3 16  1  0  0  0  0
 11  4  1  1  0  0  0
  5 21  1  0  0  0  0
  5 30  1  0  0  0  0
  6 29  2  0  0  0  0
  7 34  1  0  0  0  0
  8  9  1  0  0  0  0
  8 25  1  0  0  0  0
  8 28  1  0  0  0  0
  9 27  2  0  0  0  0
 10 29  1  0  0  0  0
 11 12  1  0  0  0  0
 11 14  1  0  0  0  0
 11 16  1  6  0  0  0
 12 13  2  0  0  0  0
 12 18  1  0  0  0  0
 13 15  1  0  0  0  0
 13 17  1  0  0  0  0
 14 15  2  0  0  0  0
 14 20  1  0  0  0  0
 15 23  1  0  0  0  0
 17 19  1  0  0  0  0
 17 22  2  0  0  0  0
 18 21  2  0  0  0  0
 19 25  2  0  0  0  0
 19 27  1  0  0  0  0
 20 24  2  0  0  0  0
 21 22  1  0  0  0  0
 23 26  2  0  0  0  0
 24 26  1  0  0  0  0
 28 29  1  0  0  0  0
 28 31  1  0  0  0  0
 28 32  1  0  0  0  0
 30 33  1  0  0  0  0
 33 34  1  0  0  0  0
 34 35  1  0  0  0  0
 34 36  1  0  0  0  0
M  END
> <PUBCHEM_COMPOUND_ID_TYPE>
0

> <PUBCHEM_TOTAL_CHARGE>
0

> <PUBCHEM_SUBSTANCE_ID>
310930048

> <PUBCHEM_SUBSTANCE_VERSION>
1

> <PUBCHEM_EXT_DATASOURCE_NAME>
4488

> <PUBCHEM_EXT_DATASOURCE_REGID>
SCHEMBL16107288

> <PUBCHEM_SUBSTANCE_COMMENT>
InChI=1S/C26H28F3N3O4/c1-23(2,34)9-10-36-16-11-18(15-13-31-32(14-15)24(3,4)22(30)33)21-17-7-5-6-8-19(17)25(35,20(21)12-16)26(27,28)29/h5-8,11-14,34-35H,9-10H2,1-4H3,(H2,30,33)/t25-/m1/s1
InChIKey=KNPYQCPWTWANOG-RUZDIDTESA-N

> <PUBCHEM_SUBSTANCE_SYNONYM>
SCHEMBL16107288

> <PUBCHEM_XREF_EXT_ID>
SCHEMBL16107288

> <PUBCHEM_EXT_DATASOURCE_URL>
https://www.surechembl.org/

> <PUBCHEM_EXT_SUBSTANCE_URL>
https://www.surechembl.org/chemical/SCHEMBL16107288

> <PUBCHEM_CID_ASSOCIATIONS>
78210288  1

> <PUBCHEM_COORDINATE_TYPE>
1
3

> <PUBCHEM_BONDANNOTATIONS>
11  16  6
11  4  5

$$$$
