310930836
  -OEChem-07211613022D

 32 35  0     0  0  0  0  0  0999 V2000
    0.9203   -3.9320    0.0000 O   0  0  0  0  0  0  0  0  0  0  0  0
    0.0000   -7.6130    0.0000 O   0  0  0  0  0  0  0  0  0  0  0  0
    3.4300   -7.9058    0.0000 O   0  0  0  0  0  0  0  0  0  0  0  0
    1.6314    0.0000    0.0000 O   0  0  0  0  0  0  0  0  0  0  0  0
    2.3425   -3.6810    0.0000 N   0  0  0  0  0  0  0  0  0  0  0  0
    2.7607   -4.9359    0.0000 N   0  0  0  0  0  0  0  0  0  0  0  0
    3.8065   -3.9320    0.0000 N   0  0  0  0  0  0  0  0  0  0  0  0
    2.3425   -1.2549    0.0000 N   0  0  0  0  0  0  0  0  0  0  0  0
    1.9660   -4.9359    0.0000 C   0  0  0  0  0  0  0  0  0  0  0  0
    1.7151   -4.1830    0.0000 C   0  0  0  0  0  0  0  0  0  0  0  0
    1.4641   -5.6052    0.0000 C   0  0  0  0  0  0  0  0  0  0  0  0
    2.3006   -5.6888    0.0000 C   0  0  0  0  0  0  0  0  0  0  0  0
    3.0117   -4.1830    0.0000 C   0  0  0  0  0  0  0  0  0  0  0  0
    2.3425   -2.8862    0.0000 C   0  0  0  0  0  0  0  0  0  0  0  0
    1.7987   -6.3581    0.0000 C   0  0  0  0  0  0  0  0  0  0  0  0
    3.1372   -5.7307    0.0000 C   0  0  0  0  0  0  0  0  0  0  0  0
    0.6693   -5.5216    0.0000 C   0  0  0  0  0  0  0  0  0  0  0  0
    2.0497   -6.5255    0.0000 C   0  0  0  0  0  0  0  0  0  0  0  0
    3.0954   -2.4680    0.0000 C   0  0  0  0  0  0  0  0  0  0  0  0
    1.6732   -2.4680    0.0000 C   0  0  0  0  0  0  0  0  0  0  0  0
    1.2967   -7.0274    0.0000 C   0  0  0  0  0  0  0  0  0  0  0  0
    3.5137   -6.4836    0.0000 C   0  0  0  0  0  0  0  0  0  0  0  0
    0.1673   -6.1908    0.0000 C   0  0  0  0  0  0  0  0  0  0  0  0
    2.2588   -7.1111    0.0000 C   0  0  0  0  0  0  0  0  0  0  0  0
    0.5020   -6.9437    0.0000 C   0  0  0  0  0  0  0  0  0  0  0  0
    3.0536   -7.1529    0.0000 C   0  0  0  0  0  0  0  0  0  0  0  0
    3.0954   -1.6314    0.0000 C   0  0  0  0  0  0  0  0  0  0  0  0
    1.6732   -1.6314    0.0000 C   0  0  0  0  0  0  0  0  0  0  0  0
    2.3425   -0.4183    0.0000 C   0  0  0  0  0  0  0  0  0  0  0  0
    0.3346   -8.3659    0.0000 C   0  0  0  0  0  0  0  0  0  0  0  0
    4.2667   -7.9477    0.0000 C   0  0  0  0  0  0  0  0  0  0  0  0
    3.0536    0.0000    0.0000 C   0  0  0  0  0  0  0  0  0  0  0  0
  1 10  2  0  0  0  0
  2 25  1  0  0  0  0
  2 30  1  0  0  0  0
  3 26  1  0  0  0  0
  3 31  1  0  0  0  0
  4 29  2  0  0  0  0
  5 10  1  0  0  0  0
  5 13  1  0  0  0  0
  5 14  1  0  0  0  0
  6  9  1  0  0  0  0
  6 13  1  0  0  0  0
  7 13  2  3  0  0  0
  8 27  1  0  0  0  0
  8 28  1  0  0  0  0
  8 29  1  0  0  0  0
  9 10  1  0  0  0  0
  9 11  1  0  0  0  0
  9 12  1  0  0  0  0
 11 15  2  0  0  0  0
 11 17  1  0  0  0  0
 12 16  2  0  0  0  0
 12 18  1  0  0  0  0
 14 19  1  0  0  0  0
 14 20  1  0  0  0  0
 15 21  1  0  0  0  0
 16 22  1  0  0  0  0
 17 23  2  0  0  0  0
 18 24  2  0  0  0  0
 19 27  1  0  0  0  0
 20 28  1  0  0  0  0
 21 25  2  0  0  0  0
 22 26  2  0  0  0  0
 23 25  1  0  0  0  0
 24 26  1  0  0  0  0
 29 32  1  0  0  0  0
M  END
> <PUBCHEM_COMPOUND_ID_TYPE>
0

> <PUBCHEM_TOTAL_CHARGE>
0

> <PUBCHEM_SUBSTANCE_ID>
310930836

> <PUBCHEM_SUBSTANCE_VERSION>
1

> <PUBCHEM_EXT_DATASOURCE_NAME>
4488

> <PUBCHEM_EXT_DATASOURCE_REGID>
SCHEMBL16108133

> <PUBCHEM_SUBSTANCE_COMMENT>
InChI=1S/C24H28N4O4/c1-16(29)27-14-12-19(13-15-27)28-22(30)24(26-23(28)25,17-4-8-20(31-2)9-5-17)18-6-10-21(32-3)11-7-18/h4-11,19H,12-15H2,1-3H3,(H2,25,26)
InChIKey=FBXXOKJXOKYINU-UHFFFAOYSA-N

> <PUBCHEM_SUBSTANCE_SYNONYM>
SCHEMBL16108133

> <PUBCHEM_XREF_EXT_ID>
SCHEMBL16108133

> <PUBCHEM_EXT_DATASOURCE_URL>
https://www.surechembl.org/

> <PUBCHEM_EXT_SUBSTANCE_URL>
https://www.surechembl.org/chemical/SCHEMBL16108133

> <PUBCHEM_CID_ASSOCIATIONS>
86273113  1

> <PUBCHEM_COORDINATE_TYPE>
1
3

$$$$
