310932633
  -OEChem-07211613022D

 17 17  0     0  0  0  0  0  0999 V2000
    2.8607   -1.6632    0.0000 O   0  0  0  0  0  0  0  0  0  0  0  0
    2.1511   -0.4214    0.0000 O   0  0  0  0  0  0  0  0  0  0  0  0
    1.4415   -2.5059    0.0000 N   0  0  0  0  0  0  0  0  0  0  0  0
    0.7762   -2.9938    0.0000 N   0  0  0  0  0  0  0  0  0  0  0  0
    0.7097   -0.4214    0.0000 N   0  0  0  0  0  0  0  0  0  0  0  0
    3.1712   -4.3465    0.0000 N   0  0  0  0  0  0  0  0  0  0  0  0
    1.4415   -1.6632    0.0000 C   0  0  0  0  0  0  0  0  0  0  0  0
    2.1511   -1.2640    0.0000 C   0  0  0  0  0  0  0  0  0  0  0  0
    2.1067   -2.9716    0.0000 C   0  0  0  0  0  0  0  0  0  0  0  0
    1.8628   -3.7700    0.0000 C   0  0  0  0  0  0  0  0  0  0  0  0
    0.7097   -1.2419    0.0000 C   0  0  0  0  0  0  0  0  0  0  0  0
    1.0423   -3.7700    0.0000 C   0  0  0  0  0  0  0  0  0  0  0  0
    2.3507   -4.4353    0.0000 C   0  0  0  0  0  0  0  0  0  0  0  0
    3.5925   -1.2640    0.0000 C   0  0  0  0  0  0  0  0  0  0  0  0
    1.4193    0.0000    0.0000 C   0  0  0  0  0  0  0  0  0  0  0  0
    0.0000   -0.0222    0.0000 C   0  0  0  0  0  0  0  0  0  0  0  0
    3.5925   -0.4214    0.0000 C   0  0  0  0  0  0  0  0  0  0  0  0
  1  8  1  0  0  0  0
  1 14  1  0  0  0  0
  2  8  2  0  0  0  0
  3  4  1  0  0  0  0
  3  7  1  0  0  0  0
  3  9  1  0  0  0  0
  4 12  2  0  0  0  0
  5 11  1  0  0  0  0
  5 15  1  0  0  0  0
  5 16  1  0  0  0  0
  6 13  3  0  0  0  0
  7  8  1  0  0  0  0
  7 11  2  0  0  0  0
  9 10  2  0  0  0  0
 10 12  1  0  0  0  0
 10 13  1  0  0  0  0
 14 17  1  0  0  0  0
M  END
> <PUBCHEM_COMPOUND_ID_TYPE>
0

> <PUBCHEM_TOTAL_CHARGE>
0

> <PUBCHEM_SUBSTANCE_ID>
310932633

> <PUBCHEM_SUBSTANCE_VERSION>
1

> <PUBCHEM_EXT_DATASOURCE_NAME>
4488

> <PUBCHEM_EXT_DATASOURCE_REGID>
SCHEMBL16110011

> <PUBCHEM_SUBSTANCE_COMMENT>
InChI=1S/C11H14N4O2/c1-4-17-11(16)10(8-14(2)3)15-7-9(5-12)6-13-15/h6-8H,4H2,1-3H3/b10-8+
InChIKey=WMXWCZSFDPKPQE-CSKARUKUSA-N

> <PUBCHEM_SUBSTANCE_SYNONYM>
SCHEMBL16110011

> <PUBCHEM_XREF_EXT_ID>
SCHEMBL16110011

> <PUBCHEM_EXT_DATASOURCE_URL>
https://www.surechembl.org/

> <PUBCHEM_EXT_SUBSTANCE_URL>
https://www.surechembl.org/chemical/SCHEMBL16110011

> <PUBCHEM_CID_ASSOCIATIONS>
117601151  1

> <PUBCHEM_COORDINATE_TYPE>
1
3

$$$$
