310945653
  -OEChem-07211613022D

 39 43  0     1  0  0  0  0  0999 V2000
   -5.6178    0.5927    0.0000 S   0  0  0  0  0  0  0  0  0  0  0  0
    5.3085    0.8504    0.0000 O   0  0  0  0  0  0  0  0  0  0  0  0
    2.3451    1.0050    0.0000 O   0  0  0  0  0  0  0  0  0  0  0  0
   -3.4016   -0.6700    0.0000 O   0  0  0  0  0  0  0  0  0  0  0  0
   -5.5920    1.4173    0.0000 O   0  0  0  0  0  0  0  0  0  0  0  0
   -4.8447    0.8246    0.0000 O   0  0  0  0  0  0  0  0  0  0  0  0
    6.8547   -0.9277    0.0000 O   0  0  0  0  0  0  0  0  0  0  0  0
    6.6486   -2.2420    0.0000 O   0  0  0  0  0  0  0  0  0  0  0  0
   -5.5662   -0.2320    0.0000 N   0  0  3  0  0  0  0  0  0  0  0  0
    4.4839   -0.2061    0.0000 C   0  0  0  0  0  0  0  0  0  0  0  0
    4.5097    0.6185    0.0000 C   0  0  0  0  0  0  0  0  0  0  0  0
   -1.2369    0.6185    0.0000 C   0  0  0  0  0  0  0  0  0  0  0  0
    5.3085   -0.4897    0.0000 C   0  0  3  0  0  0  0  0  0  0  0  0
   -0.5411    1.0308    0.0000 C   0  0  0  0  0  0  0  0  0  0  0  0
   -1.2627   -0.2061    0.0000 C   0  0  0  0  0  0  0  0  0  0  0  0
   -1.9585    1.0308    0.0000 C   0  0  0  0  0  0  0  0  0  0  0  0
    3.0666    0.5927    0.0000 C   0  0  0  0  0  0  0  0  0  0  0  0
    3.7881    1.0050    0.0000 C   0  0  0  0  0  0  0  0  0  0  0  0
    3.7881   -0.6185    0.0000 C   0  0  0  0  0  0  0  0  0  0  0  0
    5.7982    0.1804    0.0000 C   0  0  0  0  0  0  0  0  0  0  0  0
   -2.6800   -0.2061    0.0000 C   0  0  0  0  0  0  0  0  0  0  0  0
   -1.9585   -0.6185    0.0000 C   0  0  0  0  0  0  0  0  0  0  0  0
   -2.6543    0.6185    0.0000 C   0  0  0  0  0  0  0  0  0  0  0  0
    3.0923   -0.2320    0.0000 C   0  0  0  0  0  0  0  0  0  0  0  0
    0.2061    0.6185    0.0000 C   0  0  0  0  0  0  0  0  0  0  0  0
    0.9277    1.0308    0.0000 C   0  0  0  0  0  0  0  0  0  0  0  0
    5.5662   -1.2627    0.0000 C   0  0  0  0  0  0  0  0  0  0  0  0
   -0.4897    1.8554    0.0000 C   0  0  0  0  0  0  0  0  0  0  0  0
   -6.4424    0.7731    0.0000 C   0  0  0  0  0  0  0  0  0  0  0  0
    1.6234    0.6185    0.0000 C   0  0  0  0  0  0  0  0  0  0  0  0
   -6.2878   -0.5669    0.0000 C   0  0  0  0  0  0  0  0  0  0  0  0
   -4.8189   -0.6442    0.0000 C   0  0  0  0  0  0  0  0  0  0  0  0
    0.9277    1.8297    0.0000 C   0  0  0  0  0  0  0  0  0  0  0  0
   -6.8547    0.0516    0.0000 C   0  0  0  0  0  0  0  0  0  0  0  0
    0.2320    2.2420    0.0000 C   0  0  0  0  0  0  0  0  0  0  0  0
   -4.1231   -0.2320    0.0000 C   0  0  0  0  0  0  0  0  0  0  0  0
    6.3651   -1.4689    0.0000 C   0  0  0  0  0  0  0  0  0  0  0  0
   -0.4897   -0.6442    0.0000 C   0  0  0  0  0  0  0  0  0  0  0  0
   -1.9327    1.8554    0.0000 C   0  0  0  0  0  0  0  0  0  0  0  0
  1  5  2  0  0  0  0
  1  6  2  0  0  0  0
  1  9  1  0  0  0  0
  1 29  1  0  0  0  0
  2 11  1  0  0  0  0
  2 20  1  0  0  0  0
  3 17  1  0  0  0  0
  3 30  1  0  0  0  0
  4 21  1  0  0  0  0
  4 36  1  0  0  0  0
  7 37  2  0  0  0  0
  8 37  1  0  0  0  0
  9 31  1  0  0  0  0
  9 32  1  0  0  0  0
 10 11  1  0  0  0  0
 10 13  1  0  0  0  0
 10 19  2  0  0  0  0
 11 18  2  0  0  0  0
 12 14  1  0  0  0  0
 12 15  2  0  0  0  0
 12 16  1  0  0  0  0
 13 20  1  0  0  0  0
 13 27  1  1  0  0  0
 14 25  2  0  0  0  0
 14 28  1  0  0  0  0
 15 22  1  0  0  0  0
 15 38  1  0  0  0  0
 16 23  2  0  0  0  0
 16 39  1  0  0  0  0
 17 18  1  0  0  0  0
 17 24  2  0  0  0  0
 19 24  1  0  0  0  0
 21 22  2  0  0  0  0
 21 23  1  0  0  0  0
 25 26  1  0  0  0  0
 26 30  1  0  0  0  0
 26 33  2  0  0  0  0
 27 37  1  0  0  0  0
 28 35  2  0  0  0  0
 29 34  1  0  0  0  0
 31 34  1  0  0  0  0
 32 36  1  0  0  0  0
 33 35  1  0  0  0  0
M  END
> <PUBCHEM_COMPOUND_ID_TYPE>
0

> <PUBCHEM_TOTAL_CHARGE>
0

> <PUBCHEM_SUBSTANCE_ID>
310945653

> <PUBCHEM_SUBSTANCE_VERSION>
1

> <PUBCHEM_EXT_DATASOURCE_NAME>
4488

> <PUBCHEM_EXT_DATASOURCE_REGID>
SCHEMBL16123752

> <PUBCHEM_SUBSTANCE_COMMENT>
InChI=1S/C30H33NO7S/c1-20-13-26(36-11-10-31-9-4-12-39(31,34)35)14-21(2)30(20)23-6-3-5-22(15-23)18-37-25-7-8-27-24(16-29(32)33)19-38-28(27)17-25/h3,5-8,13-15,17,24H,4,9-12,16,18-19H2,1-2H3,(H,32,33)/t24-/m1/s1
InChIKey=CETZWQRPGCJEAW-XMMPIXPASA-N

> <PUBCHEM_SUBSTANCE_SYNONYM>
SCHEMBL16123752

> <PUBCHEM_XREF_EXT_ID>
SCHEMBL16123752

> <PUBCHEM_EXT_DATASOURCE_URL>
https://www.surechembl.org/

> <PUBCHEM_EXT_SUBSTANCE_URL>
https://www.surechembl.org/chemical/SCHEMBL16123752

> <PUBCHEM_CID_ASSOCIATIONS>
85471921  1

> <PUBCHEM_COORDINATE_TYPE>
1
3

> <PUBCHEM_BONDANNOTATIONS>
13  27  5

$$$$
