310937487
  -OEChem-07211613022D

 15 17  0     0  0  0  0  0  0999 V2000
    2.3280   -5.1165    0.0000 Br  0  0  0  0  0  0  0  0  0  0  0  0
    2.3280   -2.2513    0.0000 O   0  0  0  0  0  0  0  0  0  0  0  0
    1.1001   -4.4002    0.0000 N   0  0  0  0  0  0  0  0  0  0  0  0
    1.1001   -2.9676    0.0000 C   0  0  0  0  0  0  0  0  0  0  0  0
    0.6908   -2.2513    0.0000 C   0  0  0  0  0  0  0  0  0  0  0  0
    1.9187   -2.9676    0.0000 C   0  0  0  0  0  0  0  0  0  0  0  0
    0.6651   -3.6839    0.0000 C   0  0  0  0  0  0  0  0  0  0  0  0
    0.0000   -1.8420    0.0000 C   0  0  0  0  0  0  0  0  0  0  0  0
    0.6908   -1.4071    0.0000 C   0  0  0  0  0  0  0  0  0  0  0  0
    2.3536   -3.6839    0.0000 C   0  0  0  0  0  0  0  0  0  0  0  0
    1.9187   -4.4002    0.0000 C   0  0  0  0  0  0  0  0  0  0  0  0
    2.3025   -0.8187    0.0000 C   0  0  0  0  0  0  0  0  0  0  0  0
    1.8931   -1.5350    0.0000 C   0  0  0  0  0  0  0  0  0  0  0  0
    2.3025    0.0000    0.0000 C   0  0  0  0  0  0  0  0  0  0  0  0
    3.0188   -0.3837    0.0000 C   0  0  0  0  0  0  0  0  0  0  0  0
  1 11  1  0  0  0  0
  2  6  1  0  0  0  0
  2 13  1  0  0  0  0
  3  7  2  0  0  0  0
  3 11  1  0  0  0  0
  4  5  1  0  0  0  0
  4  6  2  0  0  0  0
  4  7  1  0  0  0  0
  5  8  1  0  0  0  0
  5  9  1  0  0  0  0
  6 10  1  0  0  0  0
  8  9  1  0  0  0  0
 10 11  2  0  0  0  0
 12 13  1  0  0  0  0
 12 14  1  0  0  0  0
 12 15  1  0  0  0  0
 14 15  1  0  0  0  0
M  END
> <PUBCHEM_COMPOUND_ID_TYPE>
0

> <PUBCHEM_TOTAL_CHARGE>
0

> <PUBCHEM_SUBSTANCE_ID>
310937487

> <PUBCHEM_SUBSTANCE_VERSION>
1

> <PUBCHEM_EXT_DATASOURCE_NAME>
4488

> <PUBCHEM_EXT_DATASOURCE_REGID>
SCHEMBL16115257

> <PUBCHEM_SUBSTANCE_COMMENT>
InChI=1S/C12H14BrNO/c13-12-5-11(15-7-8-1-2-8)10(6-14-12)9-3-4-9/h5-6,8-9H,1-4,7H2
InChIKey=RSXQXSKKEQPSDD-UHFFFAOYSA-N

> <PUBCHEM_SUBSTANCE_SYNONYM>
SCHEMBL16115257

> <PUBCHEM_XREF_EXT_ID>
SCHEMBL16115257

> <PUBCHEM_EXT_DATASOURCE_URL>
https://www.surechembl.org/

> <PUBCHEM_EXT_SUBSTANCE_URL>
https://www.surechembl.org/chemical/SCHEMBL16115257

> <PUBCHEM_CID_ASSOCIATIONS>
117605226  1

> <PUBCHEM_COORDINATE_TYPE>
1
3

$$$$
