310945847
  -OEChem-07211613022D

 36 38  0     1  0  0  0  0  0999 V2000
    4.0182    0.6720    0.0000 O   0  0  0  0  0  0  0  0  0  0  0  0
    2.8821   -1.2955    0.0000 O   0  0  0  0  0  0  0  0  0  0  0  0
    0.7205    0.7828    0.0000 O   0  0  0  0  0  0  0  0  0  0  0  0
   -1.4410   -1.2955    0.0000 O   0  0  0  0  0  0  0  0  0  0  0  0
    2.8821   -2.9444    0.0000 O   0  0  0  0  0  0  0  0  0  0  0  0
   -3.5887    0.7828    0.0000 O   0  0  0  0  0  0  0  0  0  0  0  0
    1.4410   -0.4503    0.0000 N   0  0  0  0  0  0  0  0  0  0  0  0
   -0.7066   -0.0346    0.0000 N   0  0  0  0  0  0  0  0  0  0  0  0
   -2.8682   -0.4503    0.0000 N   0  0  0  0  0  0  0  0  0  0  0  0
    3.5887   -0.0070    0.0000 C   0  0  3  0  0  0  0  0  0  0  0  0
    2.8821   -0.4226    0.0000 C   0  0  0  0  0  0  0  0  0  0  0  0
    3.2146    0.6859    0.0000 C   0  0  0  0  0  0  0  0  0  0  0  0
    2.1615   -0.0208    0.0000 C   0  0  3  0  0  0  0  0  0  0  0  0
    4.3092   -0.4226    0.0000 C   0  0  0  0  0  0  0  0  0  0  0  0
    2.1615    1.2955    0.0000 C   0  0  0  0  0  0  0  0  0  0  0  0
    0.7205   -0.0346    0.0000 C   0  0  0  0  0  0  0  0  0  0  0  0
    0.0277   -0.4226    0.0000 C   0  0  3  0  0  0  0  0  0  0  0  0
    1.4549    1.7251    0.0000 C   0  0  0  0  0  0  0  0  0  0  0  0
    0.0000   -1.2817    0.0000 C   0  0  0  0  0  0  0  0  0  0  0  0
    0.7344   -1.6696    0.0000 C   0  0  0  0  0  0  0  0  0  0  0  0
   -1.4272   -0.4088    0.0000 C   0  0  0  0  0  0  0  0  0  0  0  0
    1.4549    2.5287    0.0000 C   0  0  0  0  0  0  0  0  0  0  0  0
    0.7344    1.3094    0.0000 C   0  0  0  0  0  0  0  0  0  0  0  0
   -2.1477   -0.0208    0.0000 C   0  0  3  0  0  0  0  0  0  0  0  0
    0.7482   -2.5149    0.0000 C   0  0  0  0  0  0  0  0  0  0  0  0
    1.4410   -1.2817    0.0000 C   0  0  0  0  0  0  0  0  0  0  0  0
    2.1477   -2.5010    0.0000 C   0  0  0  0  0  0  0  0  0  0  0  0
    0.7205    2.9444    0.0000 C   0  0  0  0  0  0  0  0  0  0  0  0
    0.0277    1.7112    0.0000 C   0  0  0  0  0  0  0  0  0  0  0  0
    1.4549   -2.9167    0.0000 C   0  0  0  0  0  0  0  0  0  0  0  0
    2.1615   -1.6835    0.0000 C   0  0  0  0  0  0  0  0  0  0  0  0
    0.0277    2.5425    0.0000 C   0  0  0  0  0  0  0  0  0  0  0  0
   -2.1477    0.7968    0.0000 C   0  0  0  0  0  0  0  0  0  0  0  0
   -3.5887   -0.0346    0.0000 C   0  0  0  0  0  0  0  0  0  0  0  0
    3.6303   -2.5010    0.0000 C   0  0  0  0  0  0  0  0  0  0  0  0
   -4.3092   -0.4503    0.0000 C   0  0  0  0  0  0  0  0  0  0  0  0
  1 10  1  0  0  0  0
  1 12  1  0  0  0  0
  2 11  2  0  0  0  0
  3 16  2  0  0  0  0
  4 21  2  0  0  0  0
  5 27  1  0  0  0  0
  5 35  1  0  0  0  0
  6 34  2  0  0  0  0
 13  7  1  1  0  0  0
  7 16  1  0  0  0  0
 17  8  1  6  0  0  0
  8 21  1  0  0  0  0
  9 24  1  0  0  0  0
  9 34  1  0  0  0  0
 10 11  1  1  0  0  0
 10 12  1  0  0  0  0
 10 14  1  6  0  0  0
 11 13  1  0  0  0  0
 13 15  1  0  0  0  0
 15 18  1  0  0  0  0
 16 17  1  0  0  0  0
 17 19  1  0  0  0  0
 18 22  2  0  0  0  0
 18 23  1  0  0  0  0
 19 20  1  0  0  0  0
 20 25  2  0  0  0  0
 20 26  1  0  0  0  0
 21 24  1  0  0  0  0
 22 28  1  0  0  0  0
 23 29  2  0  0  0  0
 24 33  1  1  0  0  0
 25 30  1  0  0  0  0
 26 31  2  0  0  0  0
 27 30  2  0  0  0  0
 27 31  1  0  0  0  0
 28 32  2  0  0  0  0
 29 32  1  0  0  0  0
 34 36  1  0  0  0  0
M  END
> <PUBCHEM_COMPOUND_ID_TYPE>
0

> <PUBCHEM_TOTAL_CHARGE>
0

> <PUBCHEM_SUBSTANCE_ID>
310945847

> <PUBCHEM_SUBSTANCE_VERSION>
1

> <PUBCHEM_EXT_DATASOURCE_NAME>
4488

> <PUBCHEM_EXT_DATASOURCE_REGID>
SCHEMBL16123952

> <PUBCHEM_SUBSTANCE_COMMENT>
InChI=1S/C27H33N3O6/c1-17(28-18(2)31)25(33)30-23(15-20-10-12-21(35-4)13-11-20)26(34)29-22(24(32)27(3)16-36-27)14-19-8-6-5-7-9-19/h5-13,17,22-23H,14-16H2,1-4H3,(H,28,31)(H,29,34)(H,30,33)/t17-,22-,23-,27+/m0/s1
InChIKey=BBEJVYFCEKANAH-UWFJBWRYSA-N

> <PUBCHEM_SUBSTANCE_SYNONYM>
SCHEMBL16123952

> <PUBCHEM_XREF_EXT_ID>
SCHEMBL16123952

> <PUBCHEM_EXT_DATASOURCE_URL>
https://www.surechembl.org/

> <PUBCHEM_EXT_SUBSTANCE_URL>
https://www.surechembl.org/chemical/SCHEMBL16123952

> <PUBCHEM_CID_ASSOCIATIONS>
117611833  1

> <PUBCHEM_COORDINATE_TYPE>
1
3

> <PUBCHEM_BONDANNOTATIONS>
10  11  5
10  14  6
24  33  5
13  7  5
17  8  6

$$$$
