310936520
  -OEChem-07211613022D

 34 39  0     1  0  0  0  0  0999 V2000
    1.5406    0.0881    0.0000 O   0  0  0  0  0  0  0  0  0  0  0  0
    2.2943    0.5775    0.0000 O   0  0  0  0  0  0  0  0  0  0  0  0
   -4.8004   -2.2294    0.0000 O   0  0  0  0  0  0  0  0  0  0  0  0
    0.2711    0.5006    0.0000 C   0  0  3  0  0  0  0  0  0  0  0  0
   -0.5136    0.2456    0.0000 C   0  0  3  0  0  0  0  0  0  0  0  0
   -0.5136   -0.5794    0.0000 C   0  0  3  0  0  0  0  0  0  0  0  0
    0.7560   -0.1669    0.0000 C   0  0  3  0  0  0  0  0  0  0  0  0
    0.7560    1.1680    0.0000 C   0  0  3  0  0  0  0  0  0  0  0  0
   -1.2280   -0.9919    0.0000 C   0  0  3  0  0  0  0  0  0  0  0  0
    0.2711   -0.8343    0.0000 C   0  0  0  0  0  0  0  0  0  0  0  0
    1.5406    0.9131    0.0000 C   0  0  3  0  0  0  0  0  0  0  0  0
   -1.9425   -0.5794    0.0000 C   0  0  3  0  0  0  0  0  0  0  0  0
   -1.2280    0.6581    0.0000 C   0  0  0  0  0  0  0  0  0  0  0  0
   -2.6570   -0.9919    0.0000 C   0  0  3  0  0  0  0  0  0  0  0  0
   -1.9425    0.2456    0.0000 C   0  0  0  0  0  0  0  0  0  0  0  0
   -0.6568    1.0581    0.0000 C   0  0  0  0  0  0  0  0  0  0  0  0
   -1.2280   -1.8169    0.0000 C   0  0  0  0  0  0  0  0  0  0  0  0
   -2.6570   -1.8169    0.0000 C   0  0  0  0  0  0  0  0  0  0  0  0
    1.4544    1.7336    0.0000 C   0  0  0  0  0  0  0  0  0  0  0  0
    0.5011    1.9527    0.0000 C   0  0  0  0  0  0  0  0  0  0  0  0
   -1.9425   -2.2294    0.0000 C   0  0  0  0  0  0  0  0  0  0  0  0
   -3.3714   -0.5794    0.0000 C   0  0  0  0  0  0  0  0  0  0  0  0
   -2.6570   -0.1669    0.0000 C   0  0  0  0  0  0  0  0  0  0  0  0
   -3.3714   -2.2294    0.0000 C   0  0  0  0  0  0  0  0  0  0  0  0
    2.9617    1.0624    0.0000 C   0  0  0  0  0  0  0  0  0  0  0  0
    2.1218    2.2185    0.0000 C   0  0  0  0  0  0  0  0  0  0  0  0
    2.8755    1.8829    0.0000 C   0  0  3  0  0  0  0  0  0  0  0  0
   -4.0859   -0.9919    0.0000 C   0  0  0  0  0  0  0  0  0  0  0  0
   -4.0859   -1.8169    0.0000 C   0  0  3  0  0  0  0  0  0  0  0  0
    3.5430    2.3679    0.0000 C   0  0  0  0  0  0  0  0  0  0  0  0
   -0.0906    1.2421    0.0000 H   0  0  0  0  0  0  0  0  0  0  0  0
   -0.5136   -1.4044    0.0000 H   0  0  0  0  0  0  0  0  0  0  0  0
    1.2409   -0.8343    0.0000 H   0  0  0  0  0  0  0  0  0  0  0  0
   -1.9425   -1.4044    0.0000 H   0  0  0  0  0  0  0  0  0  0  0  0
  1  7  1  0  0  0  0
 11  1  1  1  0  0  0
  2 11  1  0  0  0  0
  2 25  1  0  0  0  0
 29  3  1  1  0  0  0
  4  5  1  0  0  0  0
  4  7  1  0  0  0  0
  4  8  1  0  0  0  0
  4 31  1  6  0  0  0
  5  6  1  0  0  0  0
  5 13  1  0  0  0  0
  5 16  1  1  0  0  0
  6  9  1  0  0  0  0
  6 10  1  0  0  0  0
  6 32  1  6  0  0  0
  7 10  1  0  0  0  0
  7 33  1  6  0  0  0
  8 11  1  0  0  0  0
  8 20  1  6  0  0  0
  9 12  1  0  0  0  0
  9 17  1  0  0  0  0
 11 19  1  0  0  0  0
 12 14  1  0  0  0  0
 12 15  1  0  0  0  0
 12 34  1  6  0  0  0
 13 15  1  0  0  0  0
 14 18  1  0  0  0  0
 14 22  1  0  0  0  0
 14 23  1  1  0  0  0
 17 21  1  0  0  0  0
 18 21  2  0  0  0  0
 18 24  1  0  0  0  0
 19 26  1  0  0  0  0
 22 28  1  0  0  0  0
 24 29  1  0  0  0  0
 25 27  1  0  0  0  0
 26 27  1  0  0  0  0
 27 30  1  1  0  0  0
 28 29  1  0  0  0  0
M  END
> <PUBCHEM_COMPOUND_ID_TYPE>
0

> <PUBCHEM_TOTAL_CHARGE>
0

> <PUBCHEM_SUBSTANCE_ID>
310936520

> <PUBCHEM_SUBSTANCE_VERSION>
1

> <PUBCHEM_EXT_DATASOURCE_NAME>
4488

> <PUBCHEM_EXT_DATASOURCE_REGID>
SCHEMBL16114171

> <PUBCHEM_SUBSTANCE_COMMENT>
InChI=1S/C27H42O3/c1-16-7-12-27(29-15-16)17(2)24-23(30-27)14-22-20-6-5-18-13-19(28)8-10-25(18,3)21(20)9-11-26(22,24)4/h5,16-17,19-24,28H,6-15H2,1-4H3/t16-,17+,19+,20?,21+,22+,23+,24+,25+,26+,27-/m1/s1
InChIKey=WQLVFSAGQJTQCK-XYMBHJFASA-N

> <PUBCHEM_SUBSTANCE_SYNONYM>
SCHEMBL16114171

> <PUBCHEM_XREF_EXT_ID>
SCHEMBL16114171

> <PUBCHEM_EXT_DATASOURCE_URL>
https://www.surechembl.org/

> <PUBCHEM_EXT_SUBSTANCE_URL>
https://www.surechembl.org/chemical/SCHEMBL16114171

> <PUBCHEM_CID_ASSOCIATIONS>
117604447  1

> <PUBCHEM_COORDINATE_TYPE>
1
3

> <PUBCHEM_BONDANNOTATIONS>
11  1  5
12  34  6
14  23  5
27  30  5
29  3  5
4  31  6
5  16  5
6  32  6
7  33  6
8  20  6

$$$$
