310932956
  -OEChem-07211613022D

 27 29  0     0  0  0  0  0  0999 V2000
    3.9914   -2.1186    0.0000 O   0  0  0  0  0  0  0  0  0  0  0  0
    8.4741   -2.2107    0.0000 O   0  0  0  0  0  0  0  0  0  0  0  0
    4.9125   -0.9825    0.0000 N   0  0  0  0  0  0  0  0  0  0  0  0
    4.8204   -0.1535    0.0000 N   0  0  0  0  0  0  0  0  0  0  0  0
    6.3249   -0.9825    0.0000 N   0  0  0  0  0  0  0  0  0  0  0  0
    7.7680   -3.4695    0.0000 N   0  0  0  0  0  0  0  0  0  0  0  0
    0.0000   -1.8422    0.0000 N   0  0  0  0  0  0  0  0  0  0  0  0
    4.1756   -1.3203    0.0000 C   0  0  0  0  0  0  0  0  0  0  0  0
    3.5923   -0.7369    0.0000 C   0  0  0  0  0  0  0  0  0  0  0  0
    5.6187   -1.4124    0.0000 C   0  0  0  0  0  0  0  0  0  0  0  0
    2.7940   -0.7983    0.0000 C   0  0  0  0  0  0  0  0  0  0  0  0
    3.9914    0.0000    0.0000 C   0  0  0  0  0  0  0  0  0  0  0  0
    5.6187   -2.2107    0.0000 C   0  0  0  0  0  0  0  0  0  0  0  0
    7.0618   -2.2107    0.0000 C   0  0  0  0  0  0  0  0  0  0  0  0
    7.0618   -1.4124    0.0000 C   0  0  0  0  0  0  0  0  0  0  0  0
    6.3249   -2.6098    0.0000 C   0  0  0  0  0  0  0  0  0  0  0  0
    2.4563   -1.5659    0.0000 C   0  0  0  0  0  0  0  0  0  0  0  0
    2.2720   -0.1535    0.0000 C   0  0  0  0  0  0  0  0  0  0  0  0
    7.7680   -2.6098    0.0000 C   0  0  0  0  0  0  0  0  0  0  0  0
    1.1360   -1.0132    0.0000 C   0  0  0  0  0  0  0  0  0  0  0  0
    1.6273   -1.6580    0.0000 C   0  0  0  0  0  0  0  0  0  0  0  0
    1.4738   -0.2456    0.0000 C   0  0  0  0  0  0  0  0  0  0  0  0
    8.5048   -3.8687    0.0000 C   0  0  0  0  0  0  0  0  0  0  0  0
    0.3071   -1.1053    0.0000 C   0  0  0  0  0  0  0  0  0  0  0  0
    8.0750   -4.6055    0.0000 C   0  0  0  0  0  0  0  0  0  0  0  0
    9.2110   -4.2677    0.0000 C   0  0  0  0  0  0  0  0  0  0  0  0
    8.9040   -3.1624    0.0000 C   0  0  0  0  0  0  0  0  0  0  0  0
  1  8  1  0  0  0  0
  2 19  2  0  0  0  0
  3  4  1  0  0  0  0
  3  8  1  0  0  0  0
  3 10  1  0  0  0  0
  4 12  2  0  0  0  0
  5 10  2  0  0  0  0
  5 15  1  0  0  0  0
  6 19  1  0  0  0  0
  6 23  1  0  0  0  0
  7 24  3  0  0  0  0
  8  9  2  0  0  0  0
  9 11  1  0  0  0  0
  9 12  1  0  0  0  0
 10 13  1  0  0  0  0
 11 17  2  0  0  0  0
 11 18  1  0  0  0  0
 13 16  2  0  0  0  0
 14 15  2  0  0  0  0
 14 16  1  0  0  0  0
 14 19  1  0  0  0  0
 17 21  1  0  0  0  0
 18 22  2  0  0  0  0
 20 21  2  0  0  0  0
 20 22  1  0  0  0  0
 20 24  1  0  0  0  0
 23 25  1  0  0  0  0
 23 26  1  0  0  0  0
 23 27  1  0  0  0  0
M  END
> <PUBCHEM_COMPOUND_ID_TYPE>
0

> <PUBCHEM_TOTAL_CHARGE>
0

> <PUBCHEM_SUBSTANCE_ID>
310932956

> <PUBCHEM_SUBSTANCE_VERSION>
1

> <PUBCHEM_EXT_DATASOURCE_NAME>
4488

> <PUBCHEM_EXT_DATASOURCE_REGID>
SCHEMBL16110352

> <PUBCHEM_SUBSTANCE_COMMENT>
InChI=1S/C20H19N5O2/c1-20(2,3)24-18(26)15-8-9-17(22-11-15)25-19(27)16(12-23-25)14-6-4-13(10-21)5-7-14/h4-9,11-12,27H,1-3H3,(H,24,26)
InChIKey=LZLHONJVBPVSSE-UHFFFAOYSA-N

> <PUBCHEM_SUBSTANCE_SYNONYM>
SCHEMBL16110352

> <PUBCHEM_XREF_EXT_ID>
SCHEMBL16110352

> <PUBCHEM_EXT_DATASOURCE_URL>
https://www.surechembl.org/

> <PUBCHEM_EXT_SUBSTANCE_URL>
https://www.surechembl.org/chemical/SCHEMBL16110352

> <PUBCHEM_CID_ASSOCIATIONS>
117601433  1

> <PUBCHEM_COORDINATE_TYPE>
1
3

$$$$
