310948432
  -OEChem-07211613022D

 44 48  0     0  0  0  0  0  0999 V2000
    3.2047   -2.5748    0.0000 S   0  0  0  0  0  0  0  0  0  0  0  0
   -4.2639   -1.7165    0.0000 F   0  0  0  0  0  0  0  0  0  0  0  0
   -4.6108   -0.6391    0.0000 F   0  0  0  0  0  0  0  0  0  0  0  0
   -3.5334   -0.2922    0.0000 F   0  0  0  0  0  0  0  0  0  0  0  0
    2.7117    3.2322    0.0000 F   0  0  0  0  0  0  0  0  0  0  0  0
    1.6709    2.6661    0.0000 F   0  0  0  0  0  0  0  0  0  0  0  0
    3.2230    2.1548    0.0000 F   0  0  0  0  0  0  0  0  0  0  0  0
   -2.0361   -0.1643    0.0000 O   0  0  0  0  0  0  0  0  0  0  0  0
    2.2004    1.6435    0.0000 O   0  0  0  0  0  0  0  0  0  0  0  0
    2.5291   -3.0496    0.0000 O   0  0  0  0  0  0  0  0  0  0  0  0
    3.6978   -3.2322    0.0000 O   0  0  0  0  0  0  0  0  0  0  0  0
   -2.2917   -2.3739    0.0000 N   0  0  0  0  0  0  0  0  0  0  0  0
   -1.6161    1.1139    0.0000 N   0  0  0  0  0  0  0  0  0  0  0  0
   -3.0952   -2.2096    0.0000 N   0  0  0  0  0  0  0  0  0  0  0  0
    3.8621   -2.0817    0.0000 N   0  0  0  0  0  0  0  0  0  0  0  0
   -0.7213   -0.8217    0.0000 C   0  0  0  0  0  0  0  0  0  0  0  0
   -1.0317   -1.5522    0.0000 C   0  0  0  0  0  0  0  0  0  0  0  0
   -1.1961   -0.1461    0.0000 C   0  0  0  0  0  0  0  0  0  0  0  0
   -1.8717   -1.6435    0.0000 C   0  0  0  0  0  0  0  0  0  0  0  0
   -0.9404    0.6391    0.0000 C   0  0  0  0  0  0  0  0  0  0  0  0
    0.1187   -0.7487    0.0000 C   0  0  0  0  0  0  0  0  0  0  0  0
    0.5935   -1.3878    0.0000 C   0  0  0  0  0  0  0  0  0  0  0  0
   -3.1683   -1.3696    0.0000 C   0  0  0  0  0  0  0  0  0  0  0  0
   -2.4013   -1.0591    0.0000 C   0  0  0  0  0  0  0  0  0  0  0  0
   -0.5569   -2.2278    0.0000 C   0  0  0  0  0  0  0  0  0  0  0  0
   -0.1918    0.8948    0.0000 C   0  0  0  0  0  0  0  0  0  0  0  0
   -2.2917    0.6391    0.0000 C   0  0  0  0  0  0  0  0  0  0  0  0
    1.4152   -1.2965    0.0000 C   0  0  0  0  0  0  0  0  0  0  0  0
    0.2648   -2.1365    0.0000 C   0  0  0  0  0  0  0  0  0  0  0  0
   -3.8987   -0.9861    0.0000 C   0  0  0  0  0  0  0  0  0  0  0  0
    1.9083   -1.9722    0.0000 C   0  0  0  0  0  0  0  0  0  0  0  0
    2.7117   -1.8809    0.0000 C   0  0  0  0  0  0  0  0  0  0  0  0
    0.4656    0.3469    0.0000 C   0  0  0  0  0  0  0  0  0  0  0  0
    0.0274    1.6800    0.0000 C   0  0  0  0  0  0  0  0  0  0  0  0
    1.7622   -0.5661    0.0000 C   0  0  0  0  0  0  0  0  0  0  0  0
   -1.9448   -3.1226    0.0000 C   0  0  0  0  0  0  0  0  0  0  0  0
    1.4152    1.4061    0.0000 C   0  0  0  0  0  0  0  0  0  0  0  0
    1.2326    0.6026    0.0000 C   0  0  0  0  0  0  0  0  0  0  0  0
    0.8126    1.9356    0.0000 C   0  0  0  0  0  0  0  0  0  0  0  0
   -3.4604    0.8765    0.0000 C   0  0  0  0  0  0  0  0  0  0  0  0
    3.0586   -1.1322    0.0000 C   0  0  0  0  0  0  0  0  0  0  0  0
    2.5839   -0.4930    0.0000 C   0  0  0  0  0  0  0  0  0  0  0  0
    2.4561    2.4287    0.0000 C   0  0  0  0  0  0  0  0  0  0  0  0
    4.6108   -2.4104    0.0000 C   0  0  0  0  0  0  0  0  0  0  0  0
  1 10  2  0  0  0  0
  1 11  2  0  0  0  0
  1 15  1  0  0  0  0
  1 32  1  0  0  0  0
  2 30  1  0  0  0  0
  3 30  1  0  0  0  0
  4 30  1  0  0  0  0
  5 43  1  0  0  0  0
  6 43  1  0  0  0  0
  7 43  1  0  0  0  0
  8 18  1  0  0  0  0
  8 27  1  0  0  0  0
  9 37  1  0  0  0  0
  9 43  1  0  0  0  0
 12 14  1  0  0  0  0
 12 19  1  0  0  0  0
 12 36  1  0  0  0  0
 13 20  1  0  0  0  0
 13 27  2  0  0  0  0
 14 23  2  0  0  0  0
 15 44  1  0  0  0  0
 16 17  1  0  0  0  0
 16 18  1  0  0  0  0
 16 21  2  0  0  0  0
 17 19  1  0  0  0  0
 17 25  2  0  0  0  0
 18 20  2  0  0  0  0
 19 24  2  0  0  0  0
 20 26  1  0  0  0  0
 21 22  1  0  0  0  0
 22 28  1  0  0  0  0
 22 29  2  0  0  0  0
 23 24  1  0  0  0  0
 23 30  1  0  0  0  0
 25 29  1  0  0  0  0
 26 33  2  0  0  0  0
 26 34  1  0  0  0  0
 27 40  1  0  0  0  0
 28 31  2  0  0  0  0
 28 35  1  0  0  0  0
 31 32  1  0  0  0  0
 32 41  2  0  0  0  0
 33 38  1  0  0  0  0
 34 39  2  0  0  0  0
 35 42  2  0  0  0  0
 37 38  2  0  0  0  0
 37 39  1  0  0  0  0
 41 42  1  0  0  0  0
M  END
> <PUBCHEM_COMPOUND_ID_TYPE>
0

> <PUBCHEM_TOTAL_CHARGE>
0

> <PUBCHEM_SUBSTANCE_ID>
310948432

> <PUBCHEM_SUBSTANCE_VERSION>
1

> <PUBCHEM_EXT_DATASOURCE_NAME>
4488

> <PUBCHEM_EXT_DATASOURCE_REGID>
SCHEMBL16126613

> <PUBCHEM_SUBSTANCE_COMMENT>
InChI=1S/C29H22F6N4O4S/c1-16-37-26(17-7-10-20(11-8-17)43-29(33,34)35)27(42-16)23-14-19(18-5-4-6-21(13-18)44(40,41)36-2)9-12-22(23)24-15-25(28(30,31)32)38-39(24)3/h4-15,36H,1-3H3
InChIKey=VUKWICUOCQVSIU-UHFFFAOYSA-N

> <PUBCHEM_SUBSTANCE_SYNONYM>
SCHEMBL16126613

> <PUBCHEM_XREF_EXT_ID>
SCHEMBL16126613

> <PUBCHEM_EXT_DATASOURCE_URL>
https://www.surechembl.org/

> <PUBCHEM_EXT_SUBSTANCE_URL>
https://www.surechembl.org/chemical/SCHEMBL16126613

> <PUBCHEM_CID_ASSOCIATIONS>
117613990  1

> <PUBCHEM_COORDINATE_TYPE>
1
3

$$$$
