310936674
  -OEChem-07211613022D

 17 18  0     0  0  0  0  0  0999 V2000
   -3.5724    4.2911    0.0000 Br  0  0  0  0  0  0  0  0  0  0  0  0
   -3.5724    5.9411    0.0000 O   0  0  0  0  0  0  0  0  0  0  0  0
   -0.7145    3.4661    0.0000 N   0  0  0  0  0  0  0  0  0  0  0  0
   -2.1434    5.9411    0.0000 N   0  0  0  0  0  0  0  0  0  0  0  0
   -0.0470    2.9812    0.0000 N   0  0  0  0  0  0  0  0  0  0  0  0
   -1.1270    2.1965    0.0000 N   0  0  0  0  0  0  0  0  0  0  0  0
   -1.4289    4.7036    0.0000 C   0  0  0  0  0  0  0  0  0  0  0  0
   -2.8579    5.5286    0.0000 C   0  0  0  0  0  0  0  0  0  0  0  0
   -2.8579    4.7036    0.0000 C   0  0  0  0  0  0  0  0  0  0  0  0
   -0.7145    4.2911    0.0000 C   0  0  0  0  0  0  0  0  0  0  0  0
   -2.1434    4.2911    0.0000 C   0  0  0  0  0  0  0  0  0  0  0  0
   -1.4289    5.5286    0.0000 C   0  0  0  0  0  0  0  0  0  0  0  0
   -0.3020    2.1965    0.0000 C   0  0  0  0  0  0  0  0  0  0  0  0
   -1.3819    2.9812    0.0000 C   0  0  0  0  0  0  0  0  0  0  0  0
    0.1830    1.5291    0.0000 C   0  0  0  0  0  0  0  0  0  0  0  0
   -3.5724    6.7661    0.0000 C   0  0  0  0  0  0  0  0  0  0  0  0
   -4.2868    7.1786    0.0000 C   0  0  0  0  0  0  0  0  0  0  0  0
  1  9  1  0  0  0  0
  2  8  1  0  0  0  0
  2 16  1  0  0  0  0
  3  5  1  0  0  0  0
  3 10  1  0  0  0  0
  3 14  1  0  0  0  0
  4  8  1  0  0  0  0
  4 12  2  0  0  0  0
  5 13  2  0  0  0  0
  6 13  1  0  0  0  0
  6 14  2  0  0  0  0
  7 10  1  0  0  0  0
  7 11  2  0  0  0  0
  7 12  1  0  0  0  0
  8  9  2  0  0  0  0
  9 11  1  0  0  0  0
 13 15  1  0  0  0  0
 16 17  1  0  0  0  0
M  END
> <PUBCHEM_COMPOUND_ID_TYPE>
0

> <PUBCHEM_TOTAL_CHARGE>
0

> <PUBCHEM_SUBSTANCE_ID>
310936674

> <PUBCHEM_SUBSTANCE_VERSION>
1

> <PUBCHEM_EXT_DATASOURCE_NAME>
4488

> <PUBCHEM_EXT_DATASOURCE_REGID>
SCHEMBL16114346

> <PUBCHEM_SUBSTANCE_COMMENT>
InChI=1S/C11H13BrN4O/c1-3-17-11-10(12)4-9(5-13-11)6-16-7-14-8(2)15-16/h4-5,7H,3,6H2,1-2H3
InChIKey=ZSWUIJRLHJDGGS-UHFFFAOYSA-N

> <PUBCHEM_SUBSTANCE_SYNONYM>
SCHEMBL16114346

> <PUBCHEM_XREF_EXT_ID>
SCHEMBL16114346

> <PUBCHEM_EXT_DATASOURCE_URL>
https://www.surechembl.org/

> <PUBCHEM_EXT_SUBSTANCE_URL>
https://www.surechembl.org/chemical/SCHEMBL16114346

> <PUBCHEM_CID_ASSOCIATIONS>
117604582  1

> <PUBCHEM_COORDINATE_TYPE>
1
3

$$$$
