310947798
  -OEChem-07211613022D

 23 24  0     1  0  0  0  0  0999 V2000
    3.1209   -1.3019    0.0000 S   0  0  0  0  0  0  0  0  0  0  0  0
   -2.0369    1.1898    0.0000 O   0  0  0  0  0  0  0  0  0  0  0  0
    2.2862   -1.3019    0.0000 O   0  0  0  0  0  0  0  0  0  0  0  0
   -0.5918   -1.3019    0.0000 O   0  0  0  0  0  0  0  0  0  0  0  0
   -0.5918    2.0245    0.0000 O   0  0  0  0  0  0  0  0  0  0  0  0
    3.5320   -2.0245    0.0000 O   0  0  0  0  0  0  0  0  0  0  0  0
    3.5320   -0.5793    0.0000 O   0  0  0  0  0  0  0  0  0  0  0  0
    3.9432   -1.3019    0.0000 O   0  0  0  0  0  0  0  0  0  0  0  0
    0.1433   -0.0561    0.0000 N   0  0  0  0  0  0  0  0  0  0  0  0
    1.5884   -0.8784    0.0000 N   0  0  0  0  0  0  0  0  0  0  0  0
   -1.2895    0.7787    0.0000 N   0  0  0  0  0  0  0  0  0  0  0  0
   -3.9432    1.7131    0.0000 N   0  0  0  0  0  0  0  0  0  0  0  0
    0.1558    0.7787    0.0000 C   0  0  3  0  0  0  0  0  0  0  0  0
    0.1558   -0.8658    0.0000 C   0  0  0  0  0  0  0  0  0  0  0  0
   -0.6167    1.1649    0.0000 C   0  0  0  0  0  0  0  0  0  0  0  0
   -2.7471    0.7787    0.0000 C   0  0  3  0  0  0  0  0  0  0  0  0
    0.8658   -0.4672    0.0000 C   0  0  0  0  0  0  0  0  0  0  0  0
    0.8534    1.1898    0.0000 C   0  0  0  0  0  0  0  0  0  0  0  0
   -3.5444    0.9905    0.0000 C   0  0  3  0  0  0  0  0  0  0  0  0
   -2.9464   -0.0187    0.0000 C   0  0  0  0  0  0  0  0  0  0  0  0
    1.5636   -0.0685    0.0000 C   0  0  0  0  0  0  0  0  0  0  0  0
    1.5760    0.7787    0.0000 C   0  0  0  0  0  0  0  0  0  0  0  0
   -3.7438    0.1931    0.0000 C   0  0  0  0  0  0  0  0  0  0  0  0
  1  3  1  0  0  0  0
  1  6  2  0  0  0  0
  1  7  2  0  0  0  0
  1  8  1  0  0  0  0
  2 11  1  0  0  0  0
  2 16  1  0  0  0  0
  3 10  1  0  0  0  0
  4 14  2  0  0  0  0
  5 15  2  0  0  0  0
  9 13  1  0  0  0  0
  9 14  1  0  0  0  0
  9 17  1  0  0  0  0
 10 14  1  0  0  0  0
 11 15  1  0  0  0  0
 12 19  1  0  0  0  0
 13 15  1  6  0  0  0
 13 18  1  0  0  0  0
 16 19  1  0  0  0  0
 16 20  1  0  0  0  0
 17 21  1  0  0  0  0
 18 22  1  0  0  0  0
 19 23  1  0  0  0  0
 20 23  1  0  0  0  0
 21 22  1  0  0  0  0
M  END
> <PUBCHEM_COMPOUND_ID_TYPE>
0

> <PUBCHEM_TOTAL_CHARGE>
0

> <PUBCHEM_SUBSTANCE_ID>
310947798

> <PUBCHEM_SUBSTANCE_VERSION>
1

> <PUBCHEM_EXT_DATASOURCE_NAME>
4488

> <PUBCHEM_EXT_DATASOURCE_REGID>
SCHEMBL16125970

> <PUBCHEM_SUBSTANCE_COMMENT>
InChI=1S/C11H20N4O7S/c12-7-4-5-9(7)21-13-10(16)8-3-1-2-6-15(8)11(17)14-22-23(18,19)20/h7-9H,1-6,12H2,(H,13,16)(H,14,17)(H,18,19,20)/t7?,8-,9?/m0/s1
InChIKey=HRDMDDBFDRQXGP-MGURRDGZSA-N

> <PUBCHEM_SUBSTANCE_SYNONYM>
SCHEMBL16125970

> <PUBCHEM_XREF_EXT_ID>
SCHEMBL16125970

> <PUBCHEM_EXT_DATASOURCE_URL>
https://www.surechembl.org/

> <PUBCHEM_EXT_SUBSTANCE_URL>
https://www.surechembl.org/chemical/SCHEMBL16125970

> <PUBCHEM_CID_ASSOCIATIONS>
117613467  1

> <PUBCHEM_COORDINATE_TYPE>
1
3

> <PUBCHEM_BONDANNOTATIONS>
13  15  6

$$$$
