310929383
  -OEChem-07211613022D

 53 57  0     0  0  0  0  0  0999 V2000
    9.9763   -2.1971    0.0000 O   0  0  0  0  0  0  0  0  0  0  0  0
   13.6581   -2.9691    0.0000 O   0  0  0  0  0  0  0  0  0  0  0  0
   13.2424   -0.8313    0.0000 O   0  0  0  0  0  0  0  0  0  0  0  0
    4.9882   -2.0784    0.0000 O   0  0  0  0  0  0  0  0  0  0  0  0
    7.5416   -0.7126    0.0000 O   0  0  0  0  0  0  0  0  0  0  0  0
    4.5131   -4.2162    0.0000 O   0  0  0  0  0  0  0  0  0  0  0  0
    2.4347   -4.8694    0.0000 O   0  0  0  0  0  0  0  0  0  0  0  0
    0.8313   -3.3848    0.0000 O   0  0  0  0  0  0  0  0  0  0  0  0
   13.2424   -2.2566    0.0000 N   0  0  0  0  0  0  0  0  0  0  0  0
   14.4894   -1.5440    0.0000 N   0  0  0  0  0  0  0  0  0  0  0  0
    8.7293   -2.9098    0.0000 N   0  0  0  0  0  0  0  0  0  0  0  0
    7.4229   -3.5630    0.0000 N   0  0  0  0  0  0  0  0  0  0  0  0
    8.6699   -4.3350    0.0000 N   0  0  0  0  0  0  0  0  0  0  0  0
   11.2234   -1.5440    0.0000 C   0  0  0  0  0  0  0  0  0  0  0  0
   12.0547   -1.5440    0.0000 C   0  0  0  0  0  0  0  0  0  0  0  0
   10.8077   -2.1971    0.0000 C   0  0  0  0  0  0  0  0  0  0  0  0
   12.4110   -2.2566    0.0000 C   0  0  0  0  0  0  0  0  0  0  0  0
   11.1640   -2.9098    0.0000 C   0  0  0  0  0  0  0  0  0  0  0  0
   11.9953   -2.9691    0.0000 C   0  0  0  0  0  0  0  0  0  0  0  0
   10.8077   -0.8313    0.0000 C   0  0  0  0  0  0  0  0  0  0  0  0
   12.4704   -0.8313    0.0000 C   0  0  0  0  0  0  0  0  0  0  0  0
    9.5013   -2.9098    0.0000 C   0  0  0  0  0  0  0  0  0  0  0  0
   14.9051   -2.2566    0.0000 C   0  0  0  0  0  0  0  0  0  0  0  0
   13.6581   -1.5440    0.0000 C   0  0  0  0  0  0  0  0  0  0  0  0
   16.1521   -2.9691    0.0000 C   0  0  0  0  0  0  0  0  0  0  0  0
   14.4894   -2.9691    0.0000 C   0  0  0  0  0  0  0  0  0  0  0  0
   11.2234   -0.1187    0.0000 C   0  0  0  0  0  0  0  0  0  0  0  0
   12.0547   -0.1187    0.0000 C   0  0  0  0  0  0  0  0  0  0  0  0
   15.7365   -2.2566    0.0000 C   0  0  0  0  0  0  0  0  0  0  0  0
   16.9835   -2.9691    0.0000 C   0  0  0  0  0  0  0  0  0  0  0  0
    8.2542   -3.5630    0.0000 C   0  0  0  0  0  0  0  0  0  0  0  0
    9.9763   -3.6224    0.0000 C   0  0  0  0  0  0  0  0  0  0  0  0
   15.7365   -3.6817    0.0000 C   0  0  0  0  0  0  0  0  0  0  0  0
   14.9051   -3.6817    0.0000 C   0  0  0  0  0  0  0  0  0  0  0  0
    7.0666   -2.8504    0.0000 C   0  0  0  0  0  0  0  0  0  0  0  0
    9.5013   -4.3350    0.0000 C   0  0  0  0  0  0  0  0  0  0  0  0
    5.8195   -2.0784    0.0000 C   0  0  0  0  0  0  0  0  0  0  0  0
    6.2352   -2.7910    0.0000 C   0  0  0  0  0  0  0  0  0  0  0  0
    7.4823   -2.1378    0.0000 C   0  0  0  0  0  0  0  0  0  0  0  0
    7.0666   -1.4252    0.0000 C   0  0  0  0  0  0  0  0  0  0  0  0
    6.2946   -1.4252    0.0000 C   0  0  0  0  0  0  0  0  0  0  0  0
   16.9835   -3.8005    0.0000 C   0  0  0  0  0  0  0  0  0  0  0  0
   17.8149   -2.9691    0.0000 C   0  0  0  0  0  0  0  0  0  0  0  0
   16.9835   -2.1378    0.0000 C   0  0  0  0  0  0  0  0  0  0  0  0
   13.2424   -3.6817    0.0000 C   0  0  0  0  0  0  0  0  0  0  0  0
    4.5725   -2.7910    0.0000 C   0  0  0  0  0  0  0  0  0  0  0  0
    7.1259    0.0000    0.0000 C   0  0  0  0  0  0  0  0  0  0  0  0
    4.9288   -3.5036    0.0000 C   0  0  0  0  0  0  0  0  0  0  0  0
    3.6817   -4.1568    0.0000 C   0  0  0  0  0  0  0  0  0  0  0  0
    3.2661   -4.8694    0.0000 C   0  0  0  0  0  0  0  0  0  0  0  0
    2.0190   -4.1568    0.0000 C   0  0  0  0  0  0  0  0  0  0  0  0
    1.2471   -4.1568    0.0000 C   0  0  0  0  0  0  0  0  0  0  0  0
    0.0000   -3.3848    0.0000 C   0  0  0  0  0  0  0  0  0  0  0  0
  1 16  1  0  0  0  0
  1 22  1  0  0  0  0
  2 26  1  0  0  0  0
  2 45  1  0  0  0  0
  3 24  2  0  0  0  0
  4 37  1  0  0  0  0
  4 46  1  0  0  0  0
  5 40  1  0  0  0  0
  5 47  1  0  0  0  0
  6 48  1  0  0  0  0
  6 49  1  0  0  0  0
  7 50  1  0  0  0  0
  7 51  1  0  0  0  0
  8 52  1  0  0  0  0
  8 53  1  0  0  0  0
  9 17  1  0  0  0  0
  9 24  1  0  0  0  0
 10 23  1  0  0  0  0
 10 24  1  0  0  0  0
 11 22  2  0  0  0  0
 11 31  1  0  0  0  0
 12 31  1  0  0  0  0
 12 35  1  0  0  0  0
 13 31  2  0  0  0  0
 13 36  1  0  0  0  0
 14 15  2  0  0  0  0
 14 16  1  0  0  0  0
 14 20  1  0  0  0  0
 15 17  1  0  0  0  0
 15 21  1  0  0  0  0
 16 18  2  0  0  0  0
 17 19  2  0  0  0  0
 18 19  1  0  0  0  0
 20 27  2  0  0  0  0
 21 28  2  0  0  0  0
 22 32  1  0  0  0  0
 23 26  1  0  0  0  0
 23 29  2  0  0  0  0
 25 29  1  0  0  0  0
 25 30  1  0  0  0  0
 25 33  2  0  0  0  0
 26 34  2  0  0  0  0
 27 28  1  0  0  0  0
 30 42  1  0  0  0  0
 30 43  1  0  0  0  0
 30 44  1  0  0  0  0
 32 36  2  0  0  0  0
 33 34  1  0  0  0  0
 35 38  2  0  0  0  0
 35 39  1  0  0  0  0
 37 38  1  0  0  0  0
 37 41  2  0  0  0  0
 39 40  2  0  0  0  0
 40 41  1  0  0  0  0
 46 48  1  0  0  0  0
 49 50  1  0  0  0  0
 51 52  1  0  0  0  0
M  END
> <PUBCHEM_COMPOUND_ID_TYPE>
0

> <PUBCHEM_TOTAL_CHARGE>
0

> <PUBCHEM_SUBSTANCE_ID>
310929383

> <PUBCHEM_SUBSTANCE_VERSION>
1

> <PUBCHEM_EXT_DATASOURCE_NAME>
4488

> <PUBCHEM_EXT_DATASOURCE_REGID>
SCHEMBL16106556

> <PUBCHEM_SUBSTANCE_COMMENT>
InChI=1S/C40H47N5O8/c1-40(2,3)27-11-13-36(49-6)34(23-27)44-39(46)43-33-12-14-35(32-10-8-7-9-31(32)33)53-37-15-16-41-38(45-37)42-28-24-29(48-5)26-30(25-28)52-22-21-51-20-19-50-18-17-47-4/h7-16,23-26H,17-22H2,1-6H3,(H,41,42,45)(H2,43,44,46)
InChIKey=DMAHUOCKDIYWJK-UHFFFAOYSA-N

> <PUBCHEM_SUBSTANCE_SYNONYM>
SCHEMBL16106556

> <PUBCHEM_XREF_EXT_ID>
SCHEMBL16106556

> <PUBCHEM_EXT_DATASOURCE_URL>
https://www.surechembl.org/

> <PUBCHEM_EXT_SUBSTANCE_URL>
https://www.surechembl.org/chemical/SCHEMBL16106556

> <PUBCHEM_CID_ASSOCIATIONS>
86274264  1

> <PUBCHEM_COORDINATE_TYPE>
1
3

$$$$
