310941910
  -OEChem-07211613022D

 12 12  0     0  0  0  0  0  0999 V2000
    1.8090    0.0000    0.0000 O   0  0  0  0  0  0  0  0  0  0  0  0
    1.8090    1.4655    0.0000 N   0  0  0  0  0  0  0  0  0  0  0  0
    0.9389    0.0458    0.0000 C   0  0  0  0  0  0  0  0  0  0  0  0
    0.5267    0.7328    0.0000 C   0  0  0  0  0  0  0  0  0  0  0  0
    0.5725   -0.6870    0.0000 C   0  0  0  0  0  0  0  0  0  0  0  0
   -0.7099    0.0000    0.0000 C   0  0  0  0  0  0  0  0  0  0  0  0
   -0.2977    0.6870    0.0000 C   0  0  0  0  0  0  0  0  0  0  0  0
   -0.2977   -0.6870    0.0000 C   0  0  0  0  0  0  0  0  0  0  0  0
    0.9847    1.4655    0.0000 C   0  0  0  0  0  0  0  0  0  0  0  0
   -1.5800    0.0458    0.0000 C   0  0  0  0  0  0  0  0  0  0  0  0
    0.9847   -1.4655    0.0000 C   0  0  0  0  0  0  0  0  0  0  0  0
   -1.8090    0.4122    0.0000 C   0  0  0  0  0  0  0  0  0  0  0  0
  1  3  1  0  0  0  0
  2  9  2  3  0  0  0
  3  4  1  0  0  0  0
  3  5  2  0  0  0  0
  4  7  2  0  0  0  0
  4  9  1  0  0  0  0
  5  8  1  0  0  0  0
  5 11  1  0  0  0  0
  6  7  1  0  0  0  0
  6  8  2  0  0  0  0
  6 10  1  0  0  0  0
 10 12  1  0  0  0  0
M  END
> <PUBCHEM_COMPOUND_ID_TYPE>
0

> <PUBCHEM_TOTAL_CHARGE>
0

> <PUBCHEM_SUBSTANCE_ID>
310941910

> <PUBCHEM_SUBSTANCE_VERSION>
1

> <PUBCHEM_EXT_DATASOURCE_NAME>
4488

> <PUBCHEM_EXT_DATASOURCE_REGID>
SCHEMBL16119942

> <PUBCHEM_SUBSTANCE_COMMENT>
InChI=1S/C10H13NO/c1-3-8-4-7(2)10(12)9(5-8)6-11/h4-6,11-12H,3H2,1-2H3
InChIKey=YXEBQQQCNWDPOP-UHFFFAOYSA-N

> <PUBCHEM_SUBSTANCE_SYNONYM>
SCHEMBL16119942

> <PUBCHEM_XREF_EXT_ID>
SCHEMBL16119942

> <PUBCHEM_EXT_DATASOURCE_URL>
https://www.surechembl.org/

> <PUBCHEM_EXT_SUBSTANCE_URL>
https://www.surechembl.org/chemical/SCHEMBL16119942

> <PUBCHEM_CID_ASSOCIATIONS>
117608642  1

> <PUBCHEM_COORDINATE_TYPE>
1
3

$$$$
