310933420
  -OEChem-07211613022D

 13 14  0     0  0  0  0  0  0999 V2000
    0.7294   -2.4726    0.0000 Br  0  0  0  0  0  0  0  0  0  0  0  0
    2.1265   -2.4726    0.0000 F   0  0  0  0  0  0  0  0  0  0  0  0
    3.5730    0.0000    0.0000 F   0  0  0  0  0  0  0  0  0  0  0  0
    0.7294    0.0000    0.0000 N   0  0  0  0  0  0  0  0  0  0  0  0
    1.4465   -1.2364    0.0000 C   0  0  0  0  0  0  0  0  0  0  0  0
    1.4465   -0.4080    0.0000 C   0  0  0  0  0  0  0  0  0  0  0  0
    2.1389   -1.6443    0.0000 C   0  0  0  0  0  0  0  0  0  0  0  0
    0.7294   -1.6443    0.0000 C   0  0  0  0  0  0  0  0  0  0  0  0
    2.1389    0.0000    0.0000 C   0  0  0  0  0  0  0  0  0  0  0  0
    2.8559   -0.4080    0.0000 C   0  0  0  0  0  0  0  0  0  0  0  0
    2.8559   -1.2364    0.0000 C   0  0  0  0  0  0  0  0  0  0  0  0
    0.0000   -1.2364    0.0000 C   0  0  0  0  0  0  0  0  0  0  0  0
    0.0000   -0.4080    0.0000 C   0  0  0  0  0  0  0  0  0  0  0  0
  1  8  1  0  0  0  0
  2  7  1  0  0  0  0
  3 10  1  0  0  0  0
  4  6  2  0  0  0  0
  4 13  1  0  0  0  0
  5  6  1  0  0  0  0
  5  7  1  0  0  0  0
  5  8  2  0  0  0  0
  6  9  1  0  0  0  0
  7 11  2  0  0  0  0
  8 12  1  0  0  0  0
  9 10  2  0  0  0  0
 10 11  1  0  0  0  0
 12 13  2  0  0  0  0
M  END
> <PUBCHEM_COMPOUND_ID_TYPE>
0

> <PUBCHEM_TOTAL_CHARGE>
0

> <PUBCHEM_SUBSTANCE_ID>
310933420

> <PUBCHEM_SUBSTANCE_VERSION>
1

> <PUBCHEM_EXT_DATASOURCE_NAME>
4488

> <PUBCHEM_EXT_DATASOURCE_REGID>
SCHEMBL16110837

> <PUBCHEM_SUBSTANCE_COMMENT>
InChI=1S/C9H4BrF2N/c10-6-1-2-13-8-4-5(11)3-7(12)9(6)8/h1-4H
InChIKey=IDCPJMXIWPFVIX-UHFFFAOYSA-N

> <PUBCHEM_SUBSTANCE_SYNONYM>
SCHEMBL16110837

> <PUBCHEM_XREF_EXT_ID>
SCHEMBL16110837

> <PUBCHEM_EXT_DATASOURCE_URL>
https://www.surechembl.org/

> <PUBCHEM_EXT_SUBSTANCE_URL>
https://www.surechembl.org/chemical/SCHEMBL16110837

> <PUBCHEM_CID_ASSOCIATIONS>
45599362  1

> <PUBCHEM_COORDINATE_TYPE>
1
3

$$$$
