310940858
  -OEChem-07211613022D

 43 46  0     1  0  0  0  0  0999 V2000
    5.0881    0.6779    0.0000 O   0  0  0  0  0  0  0  0  0  0  0  0
    3.9464   -1.2916    0.0000 O   0  0  0  0  0  0  0  0  0  0  0  0
    1.7912    0.7778    0.0000 O   0  0  0  0  0  0  0  0  0  0  0  0
    0.3496   -1.7056    0.0000 O   0  0  0  0  0  0  0  0  0  0  0  0
   -0.3639   -1.2916    0.0000 O   0  0  0  0  0  0  0  0  0  0  0  0
    3.9464   -2.9473    0.0000 O   0  0  0  0  0  0  0  0  0  0  0  0
   -2.5191    0.7778    0.0000 O   0  0  0  0  0  0  0  0  0  0  0  0
   -5.3878    0.7778    0.0000 O   0  0  0  0  0  0  0  0  0  0  0  0
    2.5191   -0.4639    0.0000 N   0  0  0  0  0  0  0  0  0  0  0  0
    0.3639   -0.0499    0.0000 N   0  0  0  0  0  0  0  0  0  0  0  0
   -1.7912   -0.4639    0.0000 N   0  0  0  0  0  0  0  0  0  0  0  0
   -3.9464   -0.0499    0.0000 N   0  0  0  0  0  0  0  0  0  0  0  0
    4.6600    0.0071    0.0000 C   0  0  3  0  0  0  0  0  0  0  0  0
    3.9464   -0.4210    0.0000 C   0  0  0  0  0  0  0  0  0  0  0  0
    4.2889    0.6779    0.0000 C   0  0  0  0  0  0  0  0  0  0  0  0
    3.2327   -0.0214    0.0000 C   0  0  3  0  0  0  0  0  0  0  0  0
    5.3878   -0.4353    0.0000 C   0  0  0  0  0  0  0  0  0  0  0  0
    1.7912   -0.0357    0.0000 C   0  0  0  0  0  0  0  0  0  0  0  0
    1.0919   -0.4353    0.0000 C   0  0  3  0  0  0  0  0  0  0  0  0
    3.2327    1.3059    0.0000 C   0  0  0  0  0  0  0  0  0  0  0  0
    1.0776   -1.2631    0.0000 C   0  0  3  0  0  0  0  0  0  0  0  0
    2.5048    1.7199    0.0000 C   0  0  0  0  0  0  0  0  0  0  0  0
    1.8054   -1.6770    0.0000 C   0  0  0  0  0  0  0  0  0  0  0  0
   -0.3496   -0.4210    0.0000 C   0  0  0  0  0  0  0  0  0  0  0  0
    2.5191   -1.2916    0.0000 C   0  0  0  0  0  0  0  0  0  0  0  0
    1.8197   -2.5191    0.0000 C   0  0  0  0  0  0  0  0  0  0  0  0
   -1.0919   -0.0214    0.0000 C   0  0  3  0  0  0  0  0  0  0  0  0
    1.8054    1.3059    0.0000 C   0  0  0  0  0  0  0  0  0  0  0  0
    2.5191    2.5334    0.0000 C   0  0  0  0  0  0  0  0  0  0  0  0
    3.2470   -2.5048    0.0000 C   0  0  0  0  0  0  0  0  0  0  0  0
    3.2470   -1.6913    0.0000 C   0  0  0  0  0  0  0  0  0  0  0  0
    2.5334   -2.9187    0.0000 C   0  0  0  0  0  0  0  0  0  0  0  0
    1.0919    1.7199    0.0000 C   0  0  0  0  0  0  0  0  0  0  0  0
    1.7912    2.9473    0.0000 C   0  0  0  0  0  0  0  0  0  0  0  0
   -2.5191   -0.0499    0.0000 C   0  0  0  0  0  0  0  0  0  0  0  0
    1.0919    2.5334    0.0000 C   0  0  0  0  0  0  0  0  0  0  0  0
   -1.0776    0.8064    0.0000 C   0  0  0  0  0  0  0  0  0  0  0  0
   -3.2185   -0.4353    0.0000 C   0  0  0  0  0  0  0  0  0  0  0  0
   -3.9464    0.7921    0.0000 C   0  0  0  0  0  0  0  0  0  0  0  0
   -4.6600   -0.4353    0.0000 C   0  0  0  0  0  0  0  0  0  0  0  0
    4.7028   -2.5048    0.0000 C   0  0  0  0  0  0  0  0  0  0  0  0
   -4.6885    1.2203    0.0000 C   0  0  0  0  0  0  0  0  0  0  0  0
   -5.3735   -0.0214    0.0000 C   0  0  0  0  0  0  0  0  0  0  0  0
  1 13  1  0  0  0  0
  1 15  1  0  0  0  0
  2 14  2  0  0  0  0
  3 18  2  0  0  0  0
 21  4  1  1  0  0  0
  5 24  2  0  0  0  0
  6 30  1  0  0  0  0
  6 41  1  0  0  0  0
  7 35  2  0  0  0  0
  8 42  1  0  0  0  0
  8 43  1  0  0  0  0
 16  9  1  1  0  0  0
  9 18  1  0  0  0  0
 19 10  1  6  0  0  0
 10 24  1  0  0  0  0
 11 27  1  0  0  0  0
 11 35  1  0  0  0  0
 12 38  1  0  0  0  0
 12 39  1  0  0  0  0
 12 40  1  0  0  0  0
 13 14  1  1  0  0  0
 13 15  1  0  0  0  0
 13 17  1  6  0  0  0
 14 16  1  0  0  0  0
 16 20  1  0  0  0  0
 18 19  1  0  0  0  0
 19 21  1  0  0  0  0
 20 22  1  0  0  0  0
 21 23  1  0  0  0  0
 22 28  2  0  0  0  0
 22 29  1  0  0  0  0
 23 25  2  0  0  0  0
 23 26  1  0  0  0  0
 24 27  1  0  0  0  0
 25 31  1  0  0  0  0
 26 32  2  0  0  0  0
 27 37  1  1  0  0  0
 28 33  1  0  0  0  0
 29 34  1  0  0  0  0
 30 31  2  0  0  0  0
 30 32  1  0  0  0  0
 33 36  1  0  0  0  0
 34 36  1  0  0  0  0
 35 38  1  0  0  0  0
 39 42  1  0  0  0  0
 40 43  1  0  0  0  0
M  END
> <PUBCHEM_COMPOUND_ID_TYPE>
0

> <PUBCHEM_TOTAL_CHARGE>
0

> <PUBCHEM_SUBSTANCE_ID>
310940858

> <PUBCHEM_SUBSTANCE_VERSION>
1

> <PUBCHEM_EXT_DATASOURCE_NAME>
4488

> <PUBCHEM_EXT_DATASOURCE_REGID>
SCHEMBL16118817

> <PUBCHEM_SUBSTANCE_COMMENT>
InChI=1S/C31H44N4O8/c1-20(32-25(36)18-35-13-15-42-16-14-35)29(39)34-26(27(37)22-9-11-23(41-3)12-10-22)30(40)33-24(28(38)31(2)19-43-31)17-21-7-5-4-6-8-21/h7,9-12,20,24,26-27,37H,4-6,8,13-19H2,1-3H3,(H,32,36)(H,33,40)(H,34,39)/t20-,24-,26-,27+,31+/m0/s1
InChIKey=HPONCKDIQFBPEM-YOMOGWHRSA-N

> <PUBCHEM_SUBSTANCE_SYNONYM>
SCHEMBL16118817

> <PUBCHEM_XREF_EXT_ID>
SCHEMBL16118817

> <PUBCHEM_EXT_DATASOURCE_URL>
https://www.surechembl.org/

> <PUBCHEM_EXT_SUBSTANCE_URL>
https://www.surechembl.org/chemical/SCHEMBL16118817

> <PUBCHEM_CID_ASSOCIATIONS>
117607775  1

> <PUBCHEM_COORDINATE_TYPE>
1
3

> <PUBCHEM_BONDANNOTATIONS>
19  10  6
13  14  5
13  17  6
27  37  5
21  4  5
16  9  5

$$$$
