310948647
  -OEChem-07211613022D

 31 35  0     1  0  0  0  0  0999 V2000
   -2.6673   -2.8971    0.0000 F   0  0  0  0  0  0  0  0  0  0  0  0
   -1.6505   -3.9139    0.0000 F   0  0  0  0  0  0  0  0  0  0  0  0
   -2.5559    2.2424    0.0000 O   0  0  0  0  0  0  0  0  0  0  0  0
    0.2298    2.1171    0.0000 N   0  0  0  0  0  0  0  0  0  0  0  0
   -0.1184    1.3511    0.0000 N   0  0  0  0  0  0  0  0  0  0  0  0
   -1.4973    0.8218    0.0000 N   0  0  0  0  0  0  0  0  0  0  0  0
   -1.8455    3.5099    0.0000 N   0  0  0  0  0  0  0  0  0  0  0  0
   -0.4805   -2.5767    0.0000 N   0  0  0  0  0  0  0  0  0  0  0  0
    1.0933    0.1672    0.0000 N   0  0  0  0  0  0  0  0  0  0  0  0
   -1.1212    2.2564    0.0000 C   0  0  0  0  0  0  0  0  0  0  0  0
   -0.4109    2.6743    0.0000 C   0  0  0  0  0  0  0  0  0  0  0  0
   -0.9541    1.4486    0.0000 C   0  0  0  0  0  0  0  0  0  0  0  0
    1.0377    2.2843    0.0000 C   0  0  3  0  0  0  0  0  0  0  0  0
   -1.8316    2.6743    0.0000 C   0  0  0  0  0  0  0  0  0  0  0  0
   -0.3969    3.4961    0.0000 C   0  0  0  0  0  0  0  0  0  0  0  0
   -1.4834   -0.0139    0.0000 C   0  0  0  0  0  0  0  0  0  0  0  0
   -1.4694   -1.6714    0.0000 C   0  0  0  0  0  0  0  0  0  0  0  0
   -0.7591   -1.2535    0.0000 C   0  0  0  0  0  0  0  0  0  0  0  0
    1.5948    1.6853    0.0000 C   0  0  3  0  0  0  0  0  0  0  0  0
   -1.3023   -2.4792    0.0000 C   0  0  3  0  0  0  0  0  0  0  0  0
   -0.7591   -0.4317    0.0000 C   0  0  0  0  0  0  0  0  0  0  0  0
   -1.1212    3.9139    0.0000 C   0  0  0  0  0  0  0  0  0  0  0  0
    1.3023    3.0782    0.0000 C   0  0  0  0  0  0  0  0  0  0  0  0
   -2.1937   -0.4317    0.0000 C   0  0  0  0  0  0  0  0  0  0  0  0
   -2.1937   -1.2535    0.0000 C   0  0  0  0  0  0  0  0  0  0  0  0
   -0.1462   -1.8107    0.0000 C   0  0  0  0  0  0  0  0  0  0  0  0
    2.4026    1.8386    0.0000 C   0  0  0  0  0  0  0  0  0  0  0  0
   -1.8594   -3.1339    0.0000 C   0  0  0  0  0  0  0  0  0  0  0  0
    1.3301    0.8914    0.0000 C   0  0  0  0  0  0  0  0  0  0  0  0
    2.1102    3.2453    0.0000 C   0  0  0  0  0  0  0  0  0  0  0  0
    2.6673    2.6325    0.0000 C   0  0  0  0  0  0  0  0  0  0  0  0
  1 28  1  0  0  0  0
  2 28  1  0  0  0  0
  3 14  2  0  0  0  0
  4  5  1  0  0  0  0
  4 11  1  0  0  0  0
 13  4  1  1  0  0  0
  5 12  2  0  0  0  0
  6 12  1  0  0  0  0
  6 16  1  0  0  0  0
  7 14  1  0  0  0  0
  7 22  1  0  0  0  0
  8 20  1  0  0  0  0
  8 26  1  0  0  0  0
  9 29  3  0  0  0  0
 10 11  2  0  0  0  0
 10 12  1  0  0  0  0
 10 14  1  0  0  0  0
 11 15  1  0  0  0  0
 13 19  1  0  0  0  0
 13 23  1  0  0  0  0
 15 22  2  0  0  0  0
 16 21  1  0  0  0  0
 16 24  2  0  0  0  0
 17 18  1  0  0  0  0
 17 20  1  0  0  0  0
 17 25  2  0  0  0  0
 18 21  2  0  0  0  0
 18 26  1  0  0  0  0
 19 27  1  0  0  0  0
 19 29  1  6  0  0  0
 20 28  1  0  0  0  0
 23 30  1  0  0  0  0
 24 25  1  0  0  0  0
 27 31  1  0  0  0  0
 30 31  1  0  0  0  0
M  END
> <PUBCHEM_COMPOUND_ID_TYPE>
0

> <PUBCHEM_TOTAL_CHARGE>
0

> <PUBCHEM_SUBSTANCE_ID>
310948647

> <PUBCHEM_SUBSTANCE_VERSION>
1

> <PUBCHEM_EXT_DATASOURCE_NAME>
4488

> <PUBCHEM_EXT_DATASOURCE_REGID>
SCHEMBL16126831

> <PUBCHEM_SUBSTANCE_COMMENT>
InChI=1S/C22H22F2N6O/c23-20(24)19-15-6-5-14(9-13(15)11-27-19)28-21-18-17(7-8-26-22(18)31)30(29-21)16-4-2-1-3-12(16)10-25/h5-9,12,16,19-20,27H,1-4,11H2,(H,26,31)(H,28,29)/t12-,16+,19?/m1/s1
InChIKey=NISSGNRGHLJWNR-HNENUHGKSA-N

> <PUBCHEM_SUBSTANCE_SYNONYM>
SCHEMBL16126831

> <PUBCHEM_XREF_EXT_ID>
SCHEMBL16126831

> <PUBCHEM_EXT_DATASOURCE_URL>
https://www.surechembl.org/

> <PUBCHEM_EXT_SUBSTANCE_URL>
https://www.surechembl.org/chemical/SCHEMBL16126831

> <PUBCHEM_CID_ASSOCIATIONS>
117614191  1

> <PUBCHEM_COORDINATE_TYPE>
1
3

> <PUBCHEM_BONDANNOTATIONS>
19  29  6
13  4  5

$$$$
