310935499
  -OEChem-07211613022D

 42 45  0     0  0  0  0  0  0999 V2000
    3.5724   -6.1875    0.0000 S   0  0  0  0  0  0  0  0  0  0  0  0
   11.2682  -11.9416    0.0000 F   0  0  0  0  0  0  0  0  0  0  0  0
   12.4205  -11.7591    0.0000 F   0  0  0  0  0  0  0  0  0  0  0  0
   11.0857  -10.7892    0.0000 F   0  0  0  0  0  0  0  0  0  0  0  0
   12.2380  -10.6067    0.0000 O   0  0  0  0  0  0  0  0  0  0  0  0
    5.0013   -6.1875    0.0000 O   0  0  0  0  0  0  0  0  0  0  0  0
   10.0026   -6.6000    0.0000 N   0  0  0  0  0  0  0  0  0  0  0  0
   10.8958   -7.5920    0.0000 N   0  0  0  0  0  0  0  0  0  0  0  0
   10.0888   -7.4205    0.0000 N   0  0  0  0  0  0  0  0  0  0  0  0
    2.8579   -4.9500    0.0000 N   0  0  0  0  0  0  0  0  0  0  0  0
    4.2868   -4.9500    0.0000 N   0  0  0  0  0  0  0  0  0  0  0  0
    5.7158   -4.9500    0.0000 N   0  0  0  0  0  0  0  0  0  0  0  0
    9.2881   -6.1875    0.0000 C   0  0  0  0  0  0  0  0  0  0  0  0
   11.2314   -8.3457    0.0000 C   0  0  0  0  0  0  0  0  0  0  0  0
   10.7563   -6.2644    0.0000 C   0  0  0  0  0  0  0  0  0  0  0  0
   11.3083   -6.8775    0.0000 C   0  0  0  0  0  0  0  0  0  0  0  0
    9.2881   -5.3625    0.0000 C   0  0  0  0  0  0  0  0  0  0  0  0
    8.5737   -4.9500    0.0000 C   0  0  0  0  0  0  0  0  0  0  0  0
    7.8592   -5.3625    0.0000 C   0  0  0  0  0  0  0  0  0  0  0  0
    8.5737   -6.6000    0.0000 C   0  0  0  0  0  0  0  0  0  0  0  0
   12.0518   -8.4319    0.0000 C   0  0  0  0  0  0  0  0  0  0  0  0
   10.7464   -9.0131    0.0000 C   0  0  0  0  0  0  0  0  0  0  0  0
   11.9025   -9.8530    0.0000 C   0  0  0  0  0  0  0  0  0  0  0  0
    7.8592   -6.1875    0.0000 C   0  0  0  0  0  0  0  0  0  0  0  0
   12.3874   -9.1856    0.0000 C   0  0  0  0  0  0  0  0  0  0  0  0
   11.0820   -9.7668    0.0000 C   0  0  0  0  0  0  0  0  0  0  0  0
    2.1434   -5.3625    0.0000 C   0  0  0  0  0  0  0  0  0  0  0  0
    1.4289   -4.9500    0.0000 C   0  0  0  0  0  0  0  0  0  0  0  0
    7.1447   -4.9500    0.0000 C   0  0  0  0  0  0  0  0  0  0  0  0
   11.7531  -11.2741    0.0000 C   0  0  0  0  0  0  0  0  0  0  0  0
    2.1434   -6.1875    0.0000 C   0  0  0  0  0  0  0  0  0  0  0  0
    1.4289   -4.1250    0.0000 C   0  0  0  0  0  0  0  0  0  0  0  0
    0.7145   -5.3625    0.0000 C   0  0  0  0  0  0  0  0  0  0  0  0
    1.4289   -6.6000    0.0000 C   0  0  0  0  0  0  0  0  0  0  0  0
    8.5737   -4.1250    0.0000 C   0  0  0  0  0  0  0  0  0  0  0  0
    3.5724   -5.3625    0.0000 C   0  0  0  0  0  0  0  0  0  0  0  0
    0.7145   -6.1875    0.0000 C   0  0  0  0  0  0  0  0  0  0  0  0
    6.4302   -5.3625    0.0000 C   0  0  0  0  0  0  0  0  0  0  0  0
    5.0013   -5.3625    0.0000 C   0  0  0  0  0  0  0  0  0  0  0  0
    0.7145   -3.7125    0.0000 C   0  0  0  0  0  0  0  0  0  0  0  0
    2.1434   -3.7125    0.0000 C   0  0  0  0  0  0  0  0  0  0  0  0
    1.4289   -7.4250    0.0000 C   0  0  0  0  0  0  0  0  0  0  0  0
  1 36  2  0  0  0  0
  2 30  1  0  0  0  0
  3 30  1  0  0  0  0
  4 30  1  0  0  0  0
  5 23  1  0  0  0  0
  5 30  1  0  0  0  0
  6 39  2  0  0  0  0
  7  9  1  0  0  0  0
  7 13  1  0  0  0  0
  7 15  1  0  0  0  0
  8  9  1  0  0  0  0
  8 14  1  0  0  0  0
  8 16  1  0  0  0  0
 10 27  1  0  0  0  0
 10 36  1  0  0  0  0
 11 36  1  0  0  0  0
 11 39  1  0  0  0  0
 12 38  1  0  0  0  0
 12 39  1  0  0  0  0
 13 17  2  0  0  0  0
 13 20  1  0  0  0  0
 14 21  2  0  0  0  0
 14 22  1  0  0  0  0
 15 16  2  0  0  0  0
 17 18  1  0  0  0  0
 18 19  2  0  0  0  0
 18 35  1  0  0  0  0
 19 24  1  0  0  0  0
 19 29  1  0  0  0  0
 20 24  2  0  0  0  0
 21 25  1  0  0  0  0
 22 26  2  0  0  0  0
 23 25  2  0  0  0  0
 23 26  1  0  0  0  0
 27 28  2  0  0  0  0
 27 31  1  0  0  0  0
 28 32  1  0  0  0  0
 28 33  1  0  0  0  0
 29 38  1  0  0  0  0
 31 34  2  0  0  0  0
 32 40  1  0  0  0  0
 32 41  1  0  0  0  0
 33 37  2  0  0  0  0
 34 37  1  0  0  0  0
 34 42  1  0  0  0  0
M  END
> <PUBCHEM_COMPOUND_ID_TYPE>
0

> <PUBCHEM_TOTAL_CHARGE>
0

> <PUBCHEM_SUBSTANCE_ID>
310935499

> <PUBCHEM_SUBSTANCE_VERSION>
1

> <PUBCHEM_EXT_DATASOURCE_NAME>
4488

> <PUBCHEM_EXT_DATASOURCE_REGID>
SCHEMBL16113065

> <PUBCHEM_SUBSTANCE_COMMENT>
InChI=1S/C30H33F3N6O2S/c1-19(2)26-12-5-20(3)17-27(26)35-29(42)36-28(40)34-14-13-22-6-7-24(18-21(22)4)39-16-15-38(37-39)23-8-10-25(11-9-23)41-30(31,32)33/h5-12,15-19,37H,13-14H2,1-4H3,(H3,34,35,36,40,42)
InChIKey=HVKRIIUKECEPSV-UHFFFAOYSA-N

> <PUBCHEM_SUBSTANCE_SYNONYM>
SCHEMBL16113065

> <PUBCHEM_XREF_EXT_ID>
SCHEMBL16113065

> <PUBCHEM_EXT_DATASOURCE_URL>
https://www.surechembl.org/

> <PUBCHEM_EXT_SUBSTANCE_URL>
https://www.surechembl.org/chemical/SCHEMBL16113065

> <PUBCHEM_CID_ASSOCIATIONS>
117603532  1

> <PUBCHEM_COORDINATE_TYPE>
1
3

$$$$
