310942139
  -OEChem-07211613022D

 28 30  0     1  0  0  0  0  0999 V2000
    2.1560    1.4435    0.0000 Cl  0  0  0  0  0  0  0  0  0  0  0  0
   -2.1685    1.4435    0.0000 Cl  0  0  0  0  0  0  0  0  0  0  0  0
    0.7187   -1.0437    0.0000 F   0  0  0  0  0  0  0  0  0  0  0  0
    2.1435   -0.2188    0.0000 O   0  0  0  0  0  0  0  0  0  0  0  0
   -1.4435    0.2062    0.0000 N   0  0  0  0  0  0  0  0  0  0  0  0
   -3.6059    1.4561    0.0000 N   0  0  0  0  0  0  0  0  0  0  0  0
   -0.0062    0.2062    0.0000 C   0  0  0  0  0  0  0  0  0  0  0  0
    0.7187   -0.2062    0.0000 C   0  0  0  0  0  0  0  0  0  0  0  0
    1.4311    0.2062    0.0000 C   0  0  0  0  0  0  0  0  0  0  0  0
   -0.7187   -0.2062    0.0000 C   0  0  3  0  0  0  0  0  0  0  0  0
    1.4435    1.0437    0.0000 C   0  0  0  0  0  0  0  0  0  0  0  0
    0.0062    1.0311    0.0000 C   0  0  0  0  0  0  0  0  0  0  0  0
    0.7312    1.4435    0.0000 C   0  0  0  0  0  0  0  0  0  0  0  0
   -2.1560   -0.2062    0.0000 C   0  0  3  0  0  0  0  0  0  0  0  0
   -2.8934    0.2062    0.0000 C   0  0  0  0  0  0  0  0  0  0  0  0
    2.8809    0.2062    0.0000 C   0  0  0  0  0  0  0  0  0  0  0  0
   -0.7312   -1.0561    0.0000 C   0  0  0  0  0  0  0  0  0  0  0  0
   -2.8809    1.0437    0.0000 C   0  0  0  0  0  0  0  0  0  0  0  0
   -3.5934   -0.2062    0.0000 C   0  0  0  0  0  0  0  0  0  0  0  0
    3.6183   -0.2062    0.0000 C   0  0  0  0  0  0  0  0  0  0  0  0
    2.8934    1.0311    0.0000 C   0  0  0  0  0  0  0  0  0  0  0  0
   -2.1685   -1.0311    0.0000 C   0  0  0  0  0  0  0  0  0  0  0  0
   -4.3307    0.2062    0.0000 C   0  0  0  0  0  0  0  0  0  0  0  0
   -4.3182    1.0437    0.0000 C   0  0  0  0  0  0  0  0  0  0  0  0
   -1.4311   -1.4561    0.0000 C   0  0  0  0  0  0  0  0  0  0  0  0
    4.3307    0.2062    0.0000 C   0  0  0  0  0  0  0  0  0  0  0  0
    3.6183    1.4435    0.0000 C   0  0  0  0  0  0  0  0  0  0  0  0
    4.3307    1.0311    0.0000 C   0  0  0  0  0  0  0  0  0  0  0  0
  1 11  1  0  0  0  0
  2 18  1  0  0  0  0
  3  8  1  0  0  0  0
  4  9  1  0  0  0  0
  4 16  1  0  0  0  0
 10  5  1  1  0  0  0
  5 14  1  0  0  0  0
  6 18  1  0  0  0  0
  6 24  2  0  0  0  0
  7  8  1  0  0  0  0
  7 10  1  0  0  0  0
  7 12  2  0  0  0  0
  8  9  2  0  0  0  0
  9 11  1  0  0  0  0
 10 17  1  0  0  0  0
 11 13  2  0  0  0  0
 12 13  1  0  0  0  0
 14 15  1  0  0  0  0
 14 22  1  6  0  0  0
 15 18  2  0  0  0  0
 15 19  1  0  0  0  0
 16 20  2  0  0  0  0
 16 21  1  0  0  0  0
 17 25  1  0  0  0  0
 19 23  2  0  0  0  0
 20 26  1  0  0  0  0
 21 27  2  0  0  0  0
 23 24  1  0  0  0  0
 26 28  2  0  0  0  0
 27 28  1  0  0  0  0
M  END
> <PUBCHEM_COMPOUND_ID_TYPE>
0

> <PUBCHEM_TOTAL_CHARGE>
0

> <PUBCHEM_SUBSTANCE_ID>
310942139

> <PUBCHEM_SUBSTANCE_VERSION>
1

> <PUBCHEM_EXT_DATASOURCE_NAME>
4488

> <PUBCHEM_EXT_DATASOURCE_REGID>
SCHEMBL16120174

> <PUBCHEM_SUBSTANCE_COMMENT>
InChI=1S/C22H21Cl2FN2O/c1-3-19(27-14(2)16-10-7-13-26-22(16)24)17-11-12-18(23)21(20(17)25)28-15-8-5-4-6-9-15/h4-14,19,27H,3H2,1-2H3/t14-,19-/m1/s1
InChIKey=MIYLMXSLYPANBK-AUUYWEPGSA-N

> <PUBCHEM_SUBSTANCE_SYNONYM>
SCHEMBL16120174

> <PUBCHEM_XREF_EXT_ID>
SCHEMBL16120174

> <PUBCHEM_EXT_DATASOURCE_URL>
https://www.surechembl.org/

> <PUBCHEM_EXT_SUBSTANCE_URL>
https://www.surechembl.org/chemical/SCHEMBL16120174

> <PUBCHEM_CID_ASSOCIATIONS>
117608798  1

> <PUBCHEM_COORDINATE_TYPE>
1
3

> <PUBCHEM_BONDANNOTATIONS>
14  22  6
10  5  5

$$$$
