310949830
  -OEChem-07211613022D

 31 35  0     1  0  0  0  0  0999 V2000
    2.7494    3.2099    0.0000 F   0  0  0  0  0  0  0  0  0  0  0  0
    3.5467    3.0449    0.0000 F   0  0  0  0  0  0  0  0  0  0  0  0
    3.8080    2.2614    0.0000 F   0  0  0  0  0  0  0  0  0  0  0  0
   -3.5193   -3.2099    0.0000 F   0  0  0  0  0  0  0  0  0  0  0  0
   -0.3025    0.9967    0.0000 N   0  0  0  0  0  0  0  0  0  0  0  0
   -1.7321    0.1719    0.0000 N   0  0  0  0  0  0  0  0  0  0  0  0
   -0.8523    2.2202    0.0000 N   0  0  0  0  0  0  0  0  0  0  0  0
   -0.0275    2.3026    0.0000 N   0  0  0  0  0  0  0  0  0  0  0  0
   -2.5020    1.2578    0.0000 N   0  0  0  0  0  0  0  0  0  0  0  0
   -2.9831    0.5843    0.0000 N   0  0  0  0  0  0  0  0  0  0  0  0
   -2.2133   -1.4778    0.0000 N   0  0  0  0  0  0  0  0  0  0  0  0
   -1.0173    1.4090    0.0000 C   0  0  0  0  0  0  0  0  0  0  0  0
   -1.7184    0.9967    0.0000 C   0  0  0  0  0  0  0  0  0  0  0  0
    0.3025    1.5465    0.0000 C   0  0  0  0  0  0  0  0  0  0  0  0
   -0.3162    0.1719    0.0000 C   0  0  3  0  0  0  0  0  0  0  0  0
   -2.5020   -0.0756    0.0000 C   0  0  0  0  0  0  0  0  0  0  0  0
    1.1135    1.3816    0.0000 C   0  0  0  0  0  0  0  0  0  0  0  0
   -1.0035   -0.2406    0.0000 C   0  0  0  0  0  0  0  0  0  0  0  0
    1.6497    1.9864    0.0000 C   0  0  0  0  0  0  0  0  0  0  0  0
   -2.7631   -0.8730    0.0000 C   0  0  0  0  0  0  0  0  0  0  0  0
    2.4470    1.8078    0.0000 C   0  0  0  0  0  0  0  0  0  0  0  0
    1.3747    0.5980    0.0000 C   0  0  0  0  0  0  0  0  0  0  0  0
    3.0244    2.4539    0.0000 C   0  0  0  0  0  0  0  0  0  0  0  0
    0.4124   -0.2406    0.0000 C   0  0  0  0  0  0  0  0  0  0  0  0
    2.7082    1.0242    0.0000 C   0  0  0  0  0  0  0  0  0  0  0  0
   -3.5467   -1.0516    0.0000 C   0  0  0  0  0  0  0  0  0  0  0  0
    2.1583    0.4193    0.0000 C   0  0  0  0  0  0  0  0  0  0  0  0
    1.4022    2.7838    0.0000 C   0  0  0  0  0  0  0  0  0  0  0  0
   -2.4608   -2.2751    0.0000 C   0  0  0  0  0  0  0  0  0  0  0  0
   -3.8080   -1.8352    0.0000 C   0  0  0  0  0  0  0  0  0  0  0  0
   -3.2718   -2.4263    0.0000 C   0  0  0  0  0  0  0  0  0  0  0  0
  1 23  1  0  0  0  0
  2 23  1  0  0  0  0
  3 23  1  0  0  0  0
  4 31  1  0  0  0  0
  5 12  1  0  0  0  0
  5 14  1  0  0  0  0
  5 15  1  0  0  0  0
  6 13  1  0  0  0  0
  6 16  1  0  0  0  0
  6 18  1  0  0  0  0
  7  8  1  0  0  0  0
  7 12  2  0  0  0  0
  8 14  2  0  0  0  0
  9 10  1  0  0  0  0
  9 13  2  0  0  0  0
 10 16  2  0  0  0  0
 11 20  1  0  0  0  0
 11 29  2  0  0  0  0
 12 13  1  0  0  0  0
 14 17  1  0  0  0  0
 15 18  1  0  0  0  0
 15 24  1  1  0  0  0
 16 20  1  0  0  0  0
 17 19  1  0  0  0  0
 17 22  2  0  0  0  0
 19 21  2  0  0  0  0
 19 28  1  0  0  0  0
 20 26  2  0  0  0  0
 21 23  1  0  0  0  0
 21 25  1  0  0  0  0
 22 27  1  0  0  0  0
 25 27  2  0  0  0  0
 26 30  1  0  0  0  0
 29 31  1  0  0  0  0
 30 31  2  0  0  0  0
M  END
> <PUBCHEM_COMPOUND_ID_TYPE>
0

> <PUBCHEM_TOTAL_CHARGE>
0

> <PUBCHEM_SUBSTANCE_ID>
310949830

> <PUBCHEM_SUBSTANCE_VERSION>
1

> <PUBCHEM_EXT_DATASOURCE_NAME>
4488

> <PUBCHEM_EXT_DATASOURCE_REGID>
SCHEMBL16128031

> <PUBCHEM_SUBSTANCE_COMMENT>
InChI=1S/C20H15F4N7/c1-10-9-30-17(15-7-6-12(21)8-25-15)27-28-18(30)19-29-26-16(31(10)19)13-4-3-5-14(11(13)2)20(22,23)24/h3-8,10H,9H2,1-2H3/t10-/m0/s1
InChIKey=GBHRHXRCXFOENV-JTQLQIEISA-N

> <PUBCHEM_SUBSTANCE_SYNONYM>
SCHEMBL16128031

> <PUBCHEM_XREF_EXT_ID>
SCHEMBL16128031

> <PUBCHEM_EXT_DATASOURCE_URL>
https://www.surechembl.org/

> <PUBCHEM_EXT_SUBSTANCE_URL>
https://www.surechembl.org/chemical/SCHEMBL16128031

> <PUBCHEM_CID_ASSOCIATIONS>
117615148  1

> <PUBCHEM_COORDINATE_TYPE>
1
3

> <PUBCHEM_BONDANNOTATIONS>
15  24  5

$$$$
