310941727
  -OEChem-07211613022D

 40 44  0     1  0  0  0  0  0999 V2000
    5.0326   -1.7959    0.0000 F   0  0  0  0  0  0  0  0  0  0  0  0
    4.8005   -2.4241    0.0000 F   0  0  0  0  0  0  0  0  0  0  0  0
    4.1449   -2.5334    0.0000 F   0  0  0  0  0  0  0  0  0  0  0  0
   -5.0326   -0.8536    0.0000 F   0  0  0  0  0  0  0  0  0  0  0  0
   -4.5683   -3.3938    0.0000 F   0  0  0  0  0  0  0  0  0  0  0  0
    0.9082    3.2435    0.0000 O   0  0  0  0  0  0  0  0  0  0  0  0
    3.8308   -1.2906    0.0000 O   0  0  0  0  0  0  0  0  0  0  0  0
    1.5638    0.4849    0.0000 O   0  0  0  0  0  0  0  0  0  0  0  0
    0.2390   -0.6214    0.0000 O   0  0  0  0  0  0  0  0  0  0  0  0
    1.9461    2.0281    0.0000 N   0  0  3  0  0  0  0  0  0  0  0  0
    2.7519   -0.0068    0.0000 N   0  0  0  0  0  0  0  0  0  0  0  0
    0.5668   -1.8778    0.0000 N   0  0  0  0  0  0  0  0  0  0  0  0
   -2.1510   -0.9082    0.0000 N   0  0  0  0  0  0  0  0  0  0  0  0
    1.1950    1.9461    0.0000 C   0  0  3  0  0  0  0  0  0  0  0  0
    1.7003    3.3938    0.0000 C   0  0  3  0  0  0  0  0  0  0  0  0
    2.4924    1.4271    0.0000 C   0  0  3  0  0  0  0  0  0  0  0  0
    2.2192    2.8475    0.0000 C   0  0  0  0  0  0  0  0  0  0  0  0
    1.8642    2.4924    0.0000 C   0  0  0  0  0  0  0  0  0  0  0  0
    2.2056    0.6350    0.0000 C   0  0  0  0  0  0  0  0  0  0  0  0
    2.4650   -0.7716    0.0000 C   0  0  0  0  0  0  0  0  0  0  0  0
    0.6487    2.4924    0.0000 C   0  0  0  0  0  0  0  0  0  0  0  0
    3.0114   -1.4135    0.0000 C   0  0  0  0  0  0  0  0  0  0  0  0
    1.3725   -1.7139    0.0000 C   0  0  0  0  0  0  0  0  0  0  0  0
    1.6593   -0.9355    0.0000 C   0  0  0  0  0  0  0  0  0  0  0  0
    2.7382   -2.1783    0.0000 C   0  0  0  0  0  0  0  0  0  0  0  0
    1.9188   -2.3421    0.0000 C   0  0  0  0  0  0  0  0  0  0  0  0
   -0.7989   -1.3725    0.0000 C   0  0  0  0  0  0  0  0  0  0  0  0
    0.0205   -1.2360    0.0000 C   0  0  0  0  0  0  0  0  0  0  0  0
   -2.4514   -1.6730    0.0000 C   0  0  0  0  0  0  0  0  0  0  0  0
    3.1480    1.5091    0.0000 C   0  0  0  0  0  0  0  0  0  0  0  0
   -3.2435   -1.8232    0.0000 C   0  0  0  0  0  0  0  0  0  0  0  0
    4.3770   -1.9052    0.0000 C   0  0  0  0  0  0  0  0  0  0  0  0
   -1.3315   -0.7307    0.0000 C   0  0  0  0  0  0  0  0  0  0  0  0
   -1.0721   -2.1510    0.0000 C   0  0  0  0  0  0  0  0  0  0  0  0
   -1.8915   -2.3012    0.0000 C   0  0  0  0  0  0  0  0  0  0  0  0
   -3.5303   -2.5880    0.0000 C   0  0  0  0  0  0  0  0  0  0  0  0
   -3.7898   -1.2086    0.0000 C   0  0  0  0  0  0  0  0  0  0  0  0
   -4.6092   -1.3452    0.0000 C   0  0  0  0  0  0  0  0  0  0  0  0
   -4.3498   -2.7519    0.0000 C   0  0  0  0  0  0  0  0  0  0  0  0
   -4.8687   -2.1236    0.0000 C   0  0  0  0  0  0  0  0  0  0  0  0
  1 32  1  0  0  0  0
  2 32  1  0  0  0  0
  3 32  1  0  0  0  0
  4 38  1  0  0  0  0
  5 39  1  0  0  0  0
  6 15  1  0  0  0  0
  6 21  1  0  0  0  0
  7 22  1  0  0  0  0
  7 32  1  0  0  0  0
  8 19  2  0  0  0  0
  9 28  2  0  0  0  0
 10 14  1  0  0  0  0
 10 16  1  0  0  0  0
 10 17  1  0  0  0  0
 11 19  1  0  0  0  0
 11 20  1  0  0  0  0
 12 23  1  0  0  0  0
 12 28  1  0  0  0  0
 13 29  2  0  0  0  0
 13 33  1  0  0  0  0
 14 18  1  1  0  0  0
 14 21  1  0  0  0  0
 15 17  1  0  0  0  0
 15 18  1  1  0  0  0
 16 19  1  0  0  0  0
 16 30  1  0  0  0  0
 20 22  2  0  0  0  0
 20 24  1  0  0  0  0
 22 25  1  0  0  0  0
 23 24  2  0  0  0  0
 23 26  1  0  0  0  0
 25 26  2  0  0  0  0
 27 28  1  0  0  0  0
 27 33  2  0  0  0  0
 27 34  1  0  0  0  0
 29 31  1  0  0  0  0
 29 35  1  0  0  0  0
 31 36  2  0  0  0  0
 31 37  1  0  0  0  0
 34 35  2  0  0  0  0
 36 39  1  0  0  0  0
 37 38  2  0  0  0  0
 38 40  1  0  0  0  0
 39 40  2  0  0  0  0
M  END
> <PUBCHEM_COMPOUND_ID_TYPE>
0

> <PUBCHEM_TOTAL_CHARGE>
0

> <PUBCHEM_SUBSTANCE_ID>
310941727

> <PUBCHEM_SUBSTANCE_VERSION>
1

> <PUBCHEM_EXT_DATASOURCE_NAME>
4488

> <PUBCHEM_EXT_DATASOURCE_REGID>
SCHEMBL16119758

> <PUBCHEM_SUBSTANCE_COMMENT>
InChI=1S/C27H23F5N4O4/c1-14(36-12-21-10-20(36)13-39-21)25(37)35-23-9-19(3-5-24(23)40-27(30,31)32)34-26(38)15-2-4-22(33-11-15)16-6-17(28)8-18(29)7-16/h2-9,11,14,20-21H,10,12-13H2,1H3,(H,34,38)(H,35,37)/t14?,20-,21-/m0/s1
InChIKey=YGCKEZVKGKFJRJ-CWKJCNCHSA-N

> <PUBCHEM_SUBSTANCE_SYNONYM>
SCHEMBL16119758

> <PUBCHEM_XREF_EXT_ID>
SCHEMBL16119758

> <PUBCHEM_EXT_DATASOURCE_URL>
https://www.surechembl.org/

> <PUBCHEM_EXT_SUBSTANCE_URL>
https://www.surechembl.org/chemical/SCHEMBL16119758

> <PUBCHEM_CID_ASSOCIATIONS>
117608497  1

> <PUBCHEM_COORDINATE_TYPE>
1
3

> <PUBCHEM_BONDANNOTATIONS>
14  18  5
15  18  5

$$$$
