310944204
  -OEChem-07211613022D

 32 36  0     1  0  0  0  0  0999 V2000
   -1.3244   -1.2413    0.0000 F   0  0  0  0  0  0  0  0  0  0  0  0
    2.4882   -0.0997    0.0000 O   0  0  0  0  0  0  0  0  0  0  0  0
    5.0263   -1.6625    0.0000 O   0  0  0  0  0  0  0  0  0  0  0  0
    5.5029   -0.2660    0.0000 O   0  0  0  0  0  0  0  0  0  0  0  0
    2.8761   -1.5184    0.0000 N   0  0  0  0  0  0  0  0  0  0  0  0
    0.1163   -0.4101    0.0000 N   0  0  0  0  0  0  0  0  0  0  0  0
   -4.1951    1.2413    0.0000 N   0  0  0  0  0  0  0  0  0  0  0  0
   -2.7542   -0.4212    0.0000 N   0  0  0  0  0  0  0  0  0  0  0  0
   -2.7542    1.2413    0.0000 N   0  0  0  0  0  0  0  0  0  0  0  0
   -4.2726    2.0615    0.0000 N   0  0  0  0  0  0  0  0  0  0  0  0
   -5.0928    2.2277    0.0000 N   0  0  0  0  0  0  0  0  0  0  0  0
   -5.5029    1.5184    0.0000 N   0  0  0  0  0  0  0  0  0  0  0  0
    1.5572   -1.2302    0.0000 C   0  0  0  0  0  0  0  0  0  0  0  0
    2.2998   -0.9199    0.0000 C   0  0  0  0  0  0  0  0  0  0  0  0
    3.7073   -1.4297    0.0000 C   0  0  0  0  0  0  0  0  0  0  0  0
    1.6459   -2.0504    0.0000 C   0  0  0  0  0  0  0  0  0  0  0  0
    2.4660   -2.2277    0.0000 C   0  0  0  0  0  0  0  0  0  0  0  0
    0.8590   -1.6404    0.0000 C   0  0  0  0  0  0  0  0  0  0  0  0
    1.5572   -0.4101    0.0000 C   0  0  0  0  0  0  0  0  0  0  0  0
    4.0842   -0.6983    0.0000 C   0  0  0  0  0  0  0  0  0  0  0  0
    4.2948   -2.0172    0.0000 C   0  0  0  0  0  0  0  0  0  0  0  0
    4.8933   -0.8534    0.0000 C   0  0  0  0  0  0  0  0  0  0  0  0
    0.1274   -1.2302    0.0000 C   0  0  0  0  0  0  0  0  0  0  0  0
    0.8368    0.0000    0.0000 C   0  0  0  0  0  0  0  0  0  0  0  0
   -0.6041    0.0000    0.0000 C   0  0  0  0  0  0  0  0  0  0  0  0
   -1.3134   -0.3990    0.0000 C   0  0  3  0  0  0  0  0  0  0  0  0
   -2.0338    0.0111    0.0000 C   0  0  0  0  0  0  0  0  0  0  0  0
    3.7184    0.0443    0.0000 C   0  0  0  0  0  0  0  0  0  0  0  0
   -3.4635    0.8312    0.0000 C   0  0  0  0  0  0  0  0  0  0  0  0
   -2.0338    0.8312    0.0000 C   0  0  0  0  0  0  0  0  0  0  0  0
   -3.4746    0.0111    0.0000 C   0  0  0  0  0  0  0  0  0  0  0  0
   -4.9376    0.9088    0.0000 C   0  0  0  0  0  0  0  0  0  0  0  0
 26  1  1  1  0  0  0
  2 14  2  0  0  0  0
  3 21  1  0  0  0  0
  3 22  1  0  0  0  0
  4 22  2  0  0  0  0
  5 14  1  0  0  0  0
  5 15  1  0  0  0  0
  5 17  1  0  0  0  0
  6 23  1  0  0  0  0
  6 24  1  0  0  0  0
  6 25  1  0  0  0  0
  7 10  1  0  0  0  0
  7 29  1  0  0  0  0
  7 32  1  0  0  0  0
  8 27  1  0  0  0  0
  8 31  2  0  0  0  0
  9 29  2  0  0  0  0
  9 30  1  0  0  0  0
 10 11  2  0  0  0  0
 11 12  1  0  0  0  0
 12 32  2  0  0  0  0
 13 14  1  0  0  0  0
 13 16  1  0  0  0  0
 13 18  1  0  0  0  0
 13 19  1  0  0  0  0
 15 20  2  0  0  0  0
 15 21  1  0  0  0  0
 16 17  1  0  0  0  0
 18 23  1  0  0  0  0
 19 24  1  0  0  0  0
 20 22  1  0  0  0  0
 20 28  1  0  0  0  0
 25 26  1  0  0  0  0
 26 27  1  0  0  0  0
 27 30  2  0  0  0  0
 29 31  1  0  0  0  0
M  END
> <PUBCHEM_COMPOUND_ID_TYPE>
0

> <PUBCHEM_TOTAL_CHARGE>
0

> <PUBCHEM_SUBSTANCE_ID>
310944204

> <PUBCHEM_SUBSTANCE_VERSION>
1

> <PUBCHEM_EXT_DATASOURCE_NAME>
4488

> <PUBCHEM_EXT_DATASOURCE_REGID>
SCHEMBL16122279

> <PUBCHEM_SUBSTANCE_COMMENT>
InChI=1S/C20H23FN8O3/c1-13-16(11-32-18(13)30)28-7-4-20(19(28)31)2-5-27(6-3-20)10-14(21)15-8-23-17(9-22-15)29-12-24-25-26-29/h8-9,12,14H,2-7,10-11H2,1H3/t14-/m1/s1
InChIKey=HQVXZOKKQHGZJE-CQSZACIVSA-N

> <PUBCHEM_SUBSTANCE_SYNONYM>
SCHEMBL16122279

> <PUBCHEM_XREF_EXT_ID>
SCHEMBL16122279

> <PUBCHEM_EXT_DATASOURCE_URL>
https://www.surechembl.org/

> <PUBCHEM_EXT_SUBSTANCE_URL>
https://www.surechembl.org/chemical/SCHEMBL16122279

> <PUBCHEM_CID_ASSOCIATIONS>
117610475  1

> <PUBCHEM_COORDINATE_TYPE>
1
3

> <PUBCHEM_BONDANNOTATIONS>
26  1  5

$$$$
