310941281
  -OEChem-07211613022D

 39 42  0     1  0  0  0  0  0999 V2000
    5.0136    0.9845    0.0000 O   0  0  0  0  0  0  0  0  0  0  0  0
    3.8746   -0.9845    0.0000 O   0  0  0  0  0  0  0  0  0  0  0  0
    1.4837    0.9704    0.0000 O   0  0  0  0  0  0  0  0  0  0  0  0
   -0.6820   -1.1111    0.0000 O   0  0  0  0  0  0  0  0  0  0  0  0
   -2.8478    0.9704    0.0000 O   0  0  0  0  0  0  0  0  0  0  0  0
   -5.3091   -1.2798    0.0000 O   0  0  0  0  0  0  0  0  0  0  0  0
    3.6495   -2.7705    0.0000 O   0  0  0  0  0  0  0  0  0  0  0  0
    2.2149   -0.2812    0.0000 N   0  0  0  0  0  0  0  0  0  0  0  0
    0.0492    0.1407    0.0000 N   0  0  0  0  0  0  0  0  0  0  0  0
   -2.1165   -0.2812    0.0000 N   0  0  0  0  0  0  0  0  0  0  0  0
    4.5776    0.3094    0.0000 C   0  0  3  0  0  0  0  0  0  0  0  0
    3.8746   -0.1125    0.0000 C   0  0  0  0  0  0  0  0  0  0  0  0
    4.2121    0.9986    0.0000 C   0  0  0  0  0  0  0  0  0  0  0  0
    3.1432    0.2953    0.0000 C   0  0  3  0  0  0  0  0  0  0  0  0
    5.3091   -0.1125    0.0000 C   0  0  0  0  0  0  0  0  0  0  0  0
    3.1572    1.3782    0.0000 C   0  0  0  0  0  0  0  0  0  0  0  0
    1.4837    0.1407    0.0000 C   0  0  0  0  0  0  0  0  0  0  0  0
    0.7946   -0.2391    0.0000 C   0  0  3  0  0  0  0  0  0  0  0  0
    2.4260    1.8001    0.0000 C   0  0  0  0  0  0  0  0  0  0  0  0
   -3.5651   -0.2532    0.0000 C   0  0  0  0  0  0  0  0  0  0  0  0
    0.7665   -1.0970    0.0000 C   0  0  0  0  0  0  0  0  0  0  0  0
   -0.6539   -0.2250    0.0000 C   0  0  0  0  0  0  0  0  0  0  0  0
   -2.8478    0.1407    0.0000 C   0  0  0  0  0  0  0  0  0  0  0  0
   -1.3853    0.1687    0.0000 C   0  0  3  0  0  0  0  0  0  0  0  0
    1.5119   -1.4907    0.0000 C   0  0  0  0  0  0  0  0  0  0  0  0
   -4.5355   -0.8157    0.0000 C   0  0  0  0  0  0  0  0  0  0  0  0
   -4.3527   -0.0562    0.0000 C   0  0  0  0  0  0  0  0  0  0  0  0
   -3.7761   -1.0407    0.0000 C   0  0  0  0  0  0  0  0  0  0  0  0
    1.6665    1.4766    0.0000 C   0  0  0  0  0  0  0  0  0  0  0  0
    2.3416    2.6158    0.0000 C   0  0  0  0  0  0  0  0  0  0  0  0
    1.5119   -2.3346    0.0000 C   0  0  0  0  0  0  0  0  0  0  0  0
    2.2009   -1.0970    0.0000 C   0  0  0  0  0  0  0  0  0  0  0  0
    1.1321    2.0532    0.0000 C   0  0  0  0  0  0  0  0  0  0  0  0
    1.5399    2.7705    0.0000 C   0  0  0  0  0  0  0  0  0  0  0  0
    2.9463   -2.3206    0.0000 C   0  0  0  0  0  0  0  0  0  0  0  0
    2.2291   -2.7424    0.0000 C   0  0  0  0  0  0  0  0  0  0  0  0
    2.9463   -1.5189    0.0000 C   0  0  0  0  0  0  0  0  0  0  0  0
   -1.3853    0.9845    0.0000 C   0  0  0  0  0  0  0  0  0  0  0  0
    4.3949   -2.3206    0.0000 C   0  0  0  0  0  0  0  0  0  0  0  0
  1 11  1  0  0  0  0
  1 13  1  0  0  0  0
  2 12  2  0  0  0  0
  3 17  2  0  0  0  0
  4 22  2  0  0  0  0
  5 23  2  0  0  0  0
  6 26  2  0  0  0  0
  7 35  1  0  0  0  0
  7 39  1  0  0  0  0
 14  8  1  1  0  0  0
  8 17  1  0  0  0  0
 18  9  1  6  0  0  0
  9 22  1  0  0  0  0
 10 23  1  0  0  0  0
 10 24  1  0  0  0  0
 11 12  1  1  0  0  0
 11 13  1  0  0  0  0
 11 15  1  6  0  0  0
 12 14  1  0  0  0  0
 14 16  1  0  0  0  0
 16 19  1  0  0  0  0
 17 18  1  0  0  0  0
 18 21  1  0  0  0  0
 19 29  1  0  0  0  0
 19 30  1  0  0  0  0
 20 23  1  0  0  0  0
 20 27  1  0  0  0  0
 20 28  1  0  0  0  0
 21 25  1  0  0  0  0
 22 24  1  0  0  0  0
 24 38  1  6  0  0  0
 25 31  2  0  0  0  0
 25 32  1  0  0  0  0
 26 27  1  0  0  0  0
 26 28  1  0  0  0  0
 29 33  1  0  0  0  0
 30 34  1  0  0  0  0
 31 36  1  0  0  0  0
 32 37  2  0  0  0  0
 33 34  1  0  0  0  0
 35 36  2  0  0  0  0
 35 37  1  0  0  0  0
M  END
> <PUBCHEM_COMPOUND_ID_TYPE>
0

> <PUBCHEM_TOTAL_CHARGE>
0

> <PUBCHEM_SUBSTANCE_ID>
310941281

> <PUBCHEM_SUBSTANCE_VERSION>
1

> <PUBCHEM_EXT_DATASOURCE_NAME>
4488

> <PUBCHEM_EXT_DATASOURCE_REGID>
SCHEMBL16119241

> <PUBCHEM_SUBSTANCE_COMMENT>
InChI=1S/C29H39N3O7/c1-17(30-27(36)20-14-21(33)15-20)26(35)32-24(13-19-8-10-22(38-3)11-9-19)28(37)31-23(12-18-6-4-5-7-18)25(34)29(2)16-39-29/h8-11,17-18,20,23-24H,4-7,12-16H2,1-3H3,(H,30,36)(H,31,37)(H,32,35)/t17-,23+,24+,29-/m1/s1
InChIKey=GDYKMAYHTRKLDG-RYGKCHDYSA-N

> <PUBCHEM_SUBSTANCE_SYNONYM>
SCHEMBL16119241

> <PUBCHEM_XREF_EXT_ID>
SCHEMBL16119241

> <PUBCHEM_EXT_DATASOURCE_URL>
https://www.surechembl.org/

> <PUBCHEM_EXT_SUBSTANCE_URL>
https://www.surechembl.org/chemical/SCHEMBL16119241

> <PUBCHEM_CID_ASSOCIATIONS>
117608130  1

> <PUBCHEM_COORDINATE_TYPE>
1
3

> <PUBCHEM_BONDANNOTATIONS>
11  12  5
11  15  6
24  38  6
14  8  5
18  9  6

$$$$
