310948796
  -OEChem-07211613022D

 28 28  0     1  0  0  0  0  0999 V2000
    0.3214    2.1242    0.0000 O   0  0  0  0  0  0  0  0  0  0  0  0
    1.7748    0.4612    0.0000 O   0  0  0  0  0  0  0  0  0  0  0  0
   -1.1040    0.4472    0.0000 O   0  0  0  0  0  0  0  0  0  0  0  0
    0.3354   -0.3773    0.0000 O   0  0  0  0  0  0  0  0  0  0  0  0
    1.7748    2.1102    0.0000 O   0  0  0  0  0  0  0  0  0  0  0  0
   -1.8307    1.7049    0.0000 O   0  0  0  0  0  0  0  0  0  0  0  0
    1.1320   -0.7686    0.0000 O   0  0  0  0  0  0  0  0  0  0  0  0
   -1.8586    1.6350    0.0000 O   0  0  0  0  0  0  0  0  0  0  0  0
    2.5294    0.8944    0.0000 O   0  0  0  0  0  0  0  0  0  0  0  0
   -2.5434    2.8788    0.0000 O   0  0  0  0  0  0  0  0  0  0  0  0
    0.3494    0.4612    0.0000 C   0  0  3  0  0  0  0  0  0  0  0  0
    1.0481    0.8804    0.0000 C   0  0  3  0  0  0  0  0  0  0  0  0
   -0.3913    0.8804    0.0000 C   0  0  3  0  0  0  0  0  0  0  0  0
    1.0621    1.6909    0.0000 C   0  0  3  0  0  0  0  0  0  0  0  0
   -0.3773    1.7189    0.0000 C   0  0  3  0  0  0  0  0  0  0  0  0
   -1.1180    2.1242    0.0000 C   0  0  0  0  0  0  0  0  0  0  0  0
    1.7887   -0.3913    0.0000 C   0  0  0  0  0  0  0  0  0  0  0  0
   -1.8447    0.8524    0.0000 C   0  0  0  0  0  0  0  0  0  0  0  0
    2.5294    1.6770    0.0000 C   0  0  0  0  0  0  0  0  0  0  0  0
    1.0201   -0.8106    0.0000 C   0  0  0  0  0  0  0  0  0  0  0  0
   -2.5574    2.1242    0.0000 C   0  0  0  0  0  0  0  0  0  0  0  0
    0.9782   -1.6350    0.0000 C   0  0  0  0  0  0  0  0  0  0  0  0
    2.4735   -0.7546    0.0000 C   0  0  0  0  0  0  0  0  0  0  0  0
   -2.5294    0.4332    0.0000 C   0  0  0  0  0  0  0  0  0  0  0  0
    3.2142    2.1102    0.0000 C   0  0  0  0  0  0  0  0  0  0  0  0
    1.6909   -2.0543    0.0000 C   0  0  0  0  0  0  0  0  0  0  0  0
   -3.2142    1.7049    0.0000 C   0  0  0  0  0  0  0  0  0  0  0  0
    1.6630   -2.8788    0.0000 C   0  0  0  0  0  0  0  0  0  0  0  0
  1 14  1  0  0  0  0
  1 15  1  0  0  0  0
 12  2  1  1  0  0  0
  2 17  1  0  0  0  0
 13  3  1  6  0  0  0
  3 18  1  0  0  0  0
 11  4  1  1  0  0  0
  4 20  1  0  0  0  0
 14  5  1  6  0  0  0
  5 19  1  0  0  0  0
  6 16  1  0  0  0  0
  6 21  1  0  0  0  0
  7 17  2  0  0  0  0
  8 18  2  0  0  0  0
  9 19  2  0  0  0  0
 10 21  2  0  0  0  0
 11 12  1  0  0  0  0
 11 13  1  0  0  0  0
 12 14  1  0  0  0  0
 13 15  1  0  0  0  0
 15 16  1  1  0  0  0
 17 23  1  0  0  0  0
 18 24  1  0  0  0  0
 19 25  1  0  0  0  0
 20 22  1  0  0  0  0
 21 27  1  0  0  0  0
 22 26  1  0  0  0  0
 26 28  1  0  0  0  0
M  END
> <PUBCHEM_COMPOUND_ID_TYPE>
0

> <PUBCHEM_TOTAL_CHARGE>
0

> <PUBCHEM_SUBSTANCE_ID>
310948796

> <PUBCHEM_SUBSTANCE_VERSION>
1

> <PUBCHEM_EXT_DATASOURCE_NAME>
4488

> <PUBCHEM_EXT_DATASOURCE_REGID>
SCHEMBL16126980

> <PUBCHEM_SUBSTANCE_COMMENT>
InChI=1S/C18H28O10/c1-6-7-8-23-16-15(25-11(3)20)14(9-24-10(2)19)28-18(27-13(5)22)17(16)26-12(4)21/h14-18H,6-9H2,1-5H3/t14-,15-,16+,17+,18+/m1/s1
InChIKey=QTZOFXGKKUYLOH-ZBRFXRBCSA-N

> <PUBCHEM_SUBSTANCE_SYNONYM>
SCHEMBL16126980

> <PUBCHEM_XREF_EXT_ID>
SCHEMBL16126980

> <PUBCHEM_EXT_DATASOURCE_URL>
https://www.surechembl.org/

> <PUBCHEM_EXT_SUBSTANCE_URL>
https://www.surechembl.org/chemical/SCHEMBL16126980

> <PUBCHEM_CID_ASSOCIATIONS>
117614335  1

> <PUBCHEM_COORDINATE_TYPE>
1
3

> <PUBCHEM_BONDANNOTATIONS>
15  16  5
12  2  5
13  3  6
11  4  5
14  5  6

$$$$
