310947267
  -OEChem-07211613022D

 33 36  0     0  0  0  0  0  0999 V2000
    4.2870   -2.6676    0.0000 O   0  0  0  0  0  0  0  0  0  0  0  0
   -3.4803   -3.0167    0.0000 O   0  0  0  0  0  0  0  0  0  0  0  0
    3.0495   -3.3821    0.0000 O   0  0  0  0  0  0  0  0  0  0  0  0
   -2.7660   -1.7792    0.0000 O   0  0  0  0  0  0  0  0  0  0  0  0
    0.1621   -4.0966    0.0000 N   0  0  0  0  0  0  0  0  0  0  0  0
    0.6470   -3.4291    0.0000 N   0  0  0  0  0  0  0  0  0  0  0  0
   -0.6226   -3.8416    0.0000 C   0  0  0  0  0  0  0  0  0  0  0  0
   -0.6226   -3.0167    0.0000 C   0  0  0  0  0  0  0  0  0  0  0  0
    3.8745   -4.8110    0.0000 C   0  0  0  0  0  0  0  0  0  0  0  0
   -1.3370   -2.6042    0.0000 C   0  0  0  0  0  0  0  0  0  0  0  0
   -2.0515   -3.0167    0.0000 C   0  0  0  0  0  0  0  0  0  0  0  0
    0.1621   -2.7618    0.0000 C   0  0  0  0  0  0  0  0  0  0  0  0
    3.0495   -4.8110    0.0000 C   0  0  0  0  0  0  0  0  0  0  0  0
   -1.3370   -4.2541    0.0000 C   0  0  0  0  0  0  0  0  0  0  0  0
    4.2870   -4.0966    0.0000 C   0  0  0  0  0  0  0  0  0  0  0  0
    0.5746   -4.8110    0.0000 C   0  0  0  0  0  0  0  0  0  0  0  0
    1.3996   -4.8110    0.0000 C   0  0  0  0  0  0  0  0  0  0  0  0
   -2.0515   -3.8416    0.0000 C   0  0  0  0  0  0  0  0  0  0  0  0
    3.8745   -3.3821    0.0000 C   0  0  0  0  0  0  0  0  0  0  0  0
    2.6371   -5.5255    0.0000 C   0  0  0  0  0  0  0  0  0  0  0  0
    2.6371   -4.0966    0.0000 C   0  0  0  0  0  0  0  0  0  0  0  0
    1.8120   -5.5255    0.0000 C   0  0  0  0  0  0  0  0  0  0  0  0
    1.8120   -4.0966    0.0000 C   0  0  0  0  0  0  0  0  0  0  0  0
   -2.7660   -2.6042    0.0000 C   0  0  0  0  0  0  0  0  0  0  0  0
    4.2870   -5.5255    0.0000 C   0  0  0  0  0  0  0  0  0  0  0  0
    5.1120   -4.0966    0.0000 C   0  0  0  0  0  0  0  0  0  0  0  0
    5.1120   -5.5255    0.0000 C   0  0  0  0  0  0  0  0  0  0  0  0
    3.8745   -1.9531    0.0000 C   0  0  0  0  0  0  0  0  0  0  0  0
    5.5245   -4.8110    0.0000 C   0  0  0  0  0  0  0  0  0  0  0  0
    4.2870   -1.2388    0.0000 C   0  0  0  0  0  0  0  0  0  0  0  0
    3.0495   -1.9531    0.0000 C   0  0  0  0  0  0  0  0  0  0  0  0
    4.6995   -1.9531    0.0000 C   0  0  0  0  0  0  0  0  0  0  0  0
   -4.1948   -2.6042    0.0000 C   0  0  0  0  0  0  0  0  0  0  0  0
  1 19  1  0  0  0  0
  1 28  1  0  0  0  0
  2 24  1  0  0  0  0
  2 33  1  0  0  0  0
  3 19  2  0  0  0  0
  4 24  2  0  0  0  0
  5  6  1  0  0  0  0
  5  7  1  0  0  0  0
  5 16  1  0  0  0  0
  6 12  2  0  0  0  0
  7  8  1  0  0  0  0
  7 14  2  0  0  0  0
  8 10  2  0  0  0  0
  8 12  1  0  0  0  0
  9 13  1  0  0  0  0
  9 15  1  0  0  0  0
  9 25  2  0  0  0  0
 10 11  1  0  0  0  0
 11 18  2  0  0  0  0
 11 24  1  0  0  0  0
 13 20  2  0  0  0  0
 13 21  1  0  0  0  0
 14 18  1  0  0  0  0
 15 19  1  0  0  0  0
 15 26  2  0  0  0  0
 16 17  1  0  0  0  0
 17 22  2  0  0  0  0
 17 23  1  0  0  0  0
 20 22  1  0  0  0  0
 21 23  2  0  0  0  0
 25 27  1  0  0  0  0
 26 29  1  0  0  0  0
 27 29  2  0  0  0  0
 28 30  1  0  0  0  0
 28 31  1  0  0  0  0
 28 32  1  0  0  0  0
M  END
> <PUBCHEM_COMPOUND_ID_TYPE>
0

> <PUBCHEM_TOTAL_CHARGE>
0

> <PUBCHEM_SUBSTANCE_ID>
310947267

> <PUBCHEM_SUBSTANCE_VERSION>
1

> <PUBCHEM_EXT_DATASOURCE_NAME>
4488

> <PUBCHEM_EXT_DATASOURCE_REGID>
SCHEMBL16125422

> <PUBCHEM_SUBSTANCE_COMMENT>
InChI=1S/C27H26N2O4/c1-27(2,3)33-26(31)23-8-6-5-7-22(23)19-11-9-18(10-12-19)17-29-24-14-13-20(25(30)32-4)15-21(24)16-28-29/h5-16H,17H2,1-4H3
InChIKey=DRVKLULOQFNVGZ-UHFFFAOYSA-N

> <PUBCHEM_SUBSTANCE_SYNONYM>
SCHEMBL16125422

> <PUBCHEM_XREF_EXT_ID>
SCHEMBL16125422

> <PUBCHEM_EXT_DATASOURCE_URL>
https://www.surechembl.org/

> <PUBCHEM_EXT_SUBSTANCE_URL>
https://www.surechembl.org/chemical/SCHEMBL16125422

> <PUBCHEM_CID_ASSOCIATIONS>
117613070  1

> <PUBCHEM_COORDINATE_TYPE>
1
3

$$$$
