310943166
  -OEChem-07211613022D

 22 24  0     0  0  0  0  0  0999 V2000
   -0.3500   -1.8568    0.0000 O   0  0  0  0  0  0  0  0  0  0  0  0
   -3.2266    1.4459    0.0000 O   0  0  0  0  0  0  0  0  0  0  0  0
   -1.0654   -0.6240    0.0000 N   0  0  0  0  0  0  0  0  0  0  0  0
   -1.7807    0.6240    0.0000 N   0  0  0  0  0  0  0  0  0  0  0  0
    3.2266    0.1979    0.0000 N   0  0  0  0  0  0  0  0  0  0  0  0
   -1.0654    0.2131    0.0000 C   0  0  0  0  0  0  0  0  0  0  0  0
    0.3652    0.2131    0.0000 C   0  0  0  0  0  0  0  0  0  0  0  0
    1.0806    0.6240    0.0000 C   0  0  0  0  0  0  0  0  0  0  0  0
   -0.3500    0.6240    0.0000 C   0  0  0  0  0  0  0  0  0  0  0  0
   -0.3500   -1.0045    0.0000 C   0  0  0  0  0  0  0  0  0  0  0  0
    0.3500   -0.6240    0.0000 C   0  0  0  0  0  0  0  0  0  0  0  0
    1.0806    1.4459    0.0000 C   0  0  0  0  0  0  0  0  0  0  0  0
    1.7959    0.2131    0.0000 C   0  0  0  0  0  0  0  0  0  0  0  0
   -1.7807    1.4459    0.0000 C   0  0  0  0  0  0  0  0  0  0  0  0
   -2.4960    0.2131    0.0000 C   0  0  0  0  0  0  0  0  0  0  0  0
    2.5112    0.6392    0.0000 C   0  0  0  0  0  0  0  0  0  0  0  0
    1.7959    1.8416    0.0000 C   0  0  0  0  0  0  0  0  0  0  0  0
   -1.7959   -1.0501    0.0000 C   0  0  0  0  0  0  0  0  0  0  0  0
    2.5112    1.4459    0.0000 C   0  0  0  0  0  0  0  0  0  0  0  0
   -2.5112    1.8568    0.0000 C   0  0  0  0  0  0  0  0  0  0  0  0
   -3.2114    0.6240    0.0000 C   0  0  0  0  0  0  0  0  0  0  0  0
    0.3500    1.8568    0.0000 C   0  0  0  0  0  0  0  0  0  0  0  0
  1 10  2  0  0  0  0
  2 20  1  0  0  0  0
  2 21  1  0  0  0  0
  3  6  1  0  0  0  0
  3 10  1  0  0  0  0
  3 18  1  0  0  0  0
  4  6  1  0  0  0  0
  4 14  1  0  0  0  0
  4 15  1  0  0  0  0
  5 16  1  0  0  0  0
  6  9  2  0  0  0  0
  7  8  1  0  0  0  0
  7  9  1  0  0  0  0
  7 11  2  0  0  0  0
  8 12  1  0  0  0  0
  8 13  2  0  0  0  0
 10 11  1  0  0  0  0
 12 17  2  0  0  0  0
 12 22  1  0  0  0  0
 13 16  1  0  0  0  0
 14 20  1  0  0  0  0
 15 21  1  0  0  0  0
 16 19  2  0  0  0  0
 17 19  1  0  0  0  0
M  END
> <PUBCHEM_COMPOUND_ID_TYPE>
0

> <PUBCHEM_TOTAL_CHARGE>
0

> <PUBCHEM_SUBSTANCE_ID>
310943166

> <PUBCHEM_SUBSTANCE_VERSION>
1

> <PUBCHEM_EXT_DATASOURCE_NAME>
4488

> <PUBCHEM_EXT_DATASOURCE_REGID>
SCHEMBL16121226

> <PUBCHEM_SUBSTANCE_COMMENT>
InChI=1S/C17H21N3O2/c1-12-3-4-14(18)11-15(12)13-9-16(19(2)17(21)10-13)20-5-7-22-8-6-20/h3-4,9-11H,5-8,18H2,1-2H3
InChIKey=KWZCKQUVXXLQTC-UHFFFAOYSA-N

> <PUBCHEM_SUBSTANCE_SYNONYM>
SCHEMBL16121226

> <PUBCHEM_XREF_EXT_ID>
SCHEMBL16121226

> <PUBCHEM_EXT_DATASOURCE_URL>
https://www.surechembl.org/

> <PUBCHEM_EXT_SUBSTANCE_URL>
https://www.surechembl.org/chemical/SCHEMBL16121226

> <PUBCHEM_CID_ASSOCIATIONS>
117609594  1

> <PUBCHEM_COORDINATE_TYPE>
1
3

$$$$
