310944360
  -OEChem-07211613022D

 37 43  0     0  0  0  0  0  0999 V2000
    1.1060    3.6385    0.0000 F   0  0  0  0  0  0  0  0  0  0  0  0
   -0.3730    1.1780    0.0000 N   0  0  0  0  0  0  0  0  0  0  0  0
   -1.0798   -2.0287    0.0000 N   0  0  0  0  0  0  0  0  0  0  0  0
   -1.0929    3.1412    0.0000 N   0  0  0  0  0  0  0  0  0  0  0  0
    3.2655    3.1936    0.0000 N   0  0  0  0  0  0  0  0  0  0  0  0
   -0.4646    0.3795    0.0000 C   0  0  0  0  0  0  0  0  0  0  0  0
   -1.2892    0.2094    0.0000 C   0  0  0  0  0  0  0  0  0  0  0  0
   -1.0013   -1.1780    0.0000 C   0  0  0  0  0  0  0  0  0  0  0  0
   -0.1898   -1.0078    0.0000 C   0  0  0  0  0  0  0  0  0  0  0  0
   -1.6949    0.9162    0.0000 C   0  0  0  0  0  0  0  0  0  0  0  0
   -1.1583    1.5314    0.0000 C   0  0  0  0  0  0  0  0  0  0  0  0
    0.2422   -1.7277    0.0000 C   0  0  0  0  0  0  0  0  0  0  0  0
   -0.3075   -2.3427    0.0000 C   0  0  0  0  0  0  0  0  0  0  0  0
    0.0851   -0.2356    0.0000 C   0  0  0  0  0  0  0  0  0  0  0  0
   -1.5248   -0.5759    0.0000 C   0  0  0  0  0  0  0  0  0  0  0  0
    0.3469    1.6098    0.0000 C   0  0  0  0  0  0  0  0  0  0  0  0
   -1.8127   -2.4082    0.0000 C   0  0  0  0  0  0  0  0  0  0  0  0
    0.3730    2.4344    0.0000 C   0  0  0  0  0  0  0  0  0  0  0  0
   -2.5064    1.0994    0.0000 C   0  0  0  0  0  0  0  0  0  0  0  0
   -1.4070    2.3035    0.0000 C   0  0  0  0  0  0  0  0  0  0  0  0
    1.0667   -1.9240    0.0000 C   0  0  0  0  0  0  0  0  0  0  0  0
   -0.0327   -3.1281    0.0000 C   0  0  0  0  0  0  0  0  0  0  0  0
    1.0929    1.2041    0.0000 C   0  0  0  0  0  0  0  0  0  0  0  0
    1.0929    2.8402    0.0000 C   0  0  0  0  0  0  0  0  0  0  0  0
   -2.7681    1.8585    0.0000 C   0  0  0  0  0  0  0  0  0  0  0  0
   -2.2184    2.4606    0.0000 C   0  0  0  0  0  0  0  0  0  0  0  0
    1.8258    2.4344    0.0000 C   0  0  0  0  0  0  0  0  0  0  0  0
    1.3284   -2.6961    0.0000 C   0  0  0  0  0  0  0  0  0  0  0  0
   -2.5064   -2.0156    0.0000 C   0  0  0  0  0  0  0  0  0  0  0  0
   -1.8258   -3.2458    0.0000 C   0  0  0  0  0  0  0  0  0  0  0  0
    0.7787   -3.2852    0.0000 C   0  0  0  0  0  0  0  0  0  0  0  0
    1.8127    1.6098    0.0000 C   0  0  0  0  0  0  0  0  0  0  0  0
   -0.3730    2.8140    0.0000 C   0  0  0  0  0  0  0  0  0  0  0  0
   -3.2655   -2.4213    0.0000 C   0  0  0  0  0  0  0  0  0  0  0  0
   -2.5064   -3.6385    0.0000 C   0  0  0  0  0  0  0  0  0  0  0  0
    2.5457    2.8271    0.0000 C   0  0  0  0  0  0  0  0  0  0  0  0
   -3.2524   -3.2197    0.0000 C   0  0  0  0  0  0  0  0  0  0  0  0
  1 24  1  0  0  0  0
  2  6  1  0  0  0  0
  2 11  1  0  0  0  0
  2 16  1  0  0  0  0
  3  8  1  0  0  0  0
  3 13  1  0  0  0  0
  3 17  1  0  0  0  0
  4 33  3  0  0  0  0
  5 36  3  0  0  0  0
  6  7  2  0  0  0  0
  6 14  1  0  0  0  0
  7 10  1  0  0  0  0
  7 15  1  0  0  0  0
  8  9  1  0  0  0  0
  8 15  2  0  0  0  0
  9 12  1  0  0  0  0
  9 14  2  0  0  0  0
 10 11  2  0  0  0  0
 10 19  1  0  0  0  0
 11 20  1  0  0  0  0
 12 13  2  0  0  0  0
 12 21  1  0  0  0  0
 13 22  1  0  0  0  0
 16 18  2  0  0  0  0
 16 23  1  0  0  0  0
 17 29  2  0  0  0  0
 17 30  1  0  0  0  0
 18 24  1  0  0  0  0
 18 33  1  0  0  0  0
 19 25  2  0  0  0  0
 20 26  2  0  0  0  0
 21 28  2  0  0  0  0
 22 31  2  0  0  0  0
 23 32  2  0  0  0  0
 24 27  2  0  0  0  0
 25 26  1  0  0  0  0
 27 32  1  0  0  0  0
 27 36  1  0  0  0  0
 28 31  1  0  0  0  0
 29 34  1  0  0  0  0
 30 35  2  0  0  0  0
 34 37  2  0  0  0  0
 35 37  1  0  0  0  0
M  END
> <PUBCHEM_COMPOUND_ID_TYPE>
0

> <PUBCHEM_TOTAL_CHARGE>
0

> <PUBCHEM_SUBSTANCE_ID>
310944360

> <PUBCHEM_SUBSTANCE_VERSION>
1

> <PUBCHEM_EXT_DATASOURCE_NAME>
4488

> <PUBCHEM_EXT_DATASOURCE_REGID>
SCHEMBL16122435

> <PUBCHEM_SUBSTANCE_COMMENT>
InChI=1S/C32H17FN4/c33-32-20(18-34)14-15-29(26(32)19-35)37-28-13-7-5-11-23(28)25-16-30-24(17-31(25)37)22-10-4-6-12-27(22)36(30)21-8-2-1-3-9-21/h1-17H
InChIKey=UWVNOBFVPKVLEU-UHFFFAOYSA-N

> <PUBCHEM_SUBSTANCE_SYNONYM>
SCHEMBL16122435

> <PUBCHEM_XREF_EXT_ID>
SCHEMBL16122435

> <PUBCHEM_EXT_DATASOURCE_URL>
https://www.surechembl.org/

> <PUBCHEM_EXT_SUBSTANCE_URL>
https://www.surechembl.org/chemical/SCHEMBL16122435

> <PUBCHEM_CID_ASSOCIATIONS>
117610617  1

> <PUBCHEM_COORDINATE_TYPE>
1
3

$$$$
