310938254
  -OEChem-07211613022D

 19 20  0     0  0  0  0  0  0999 V2000
    2.1751   -2.5126    0.0000 N   0  0  0  0  0  0  0  0  0  0  0  0
    2.1751   -4.1626    0.0000 N   0  0  0  0  0  0  0  0  0  0  0  0
    2.1751   -1.6501    0.0000 C   0  0  0  0  0  0  0  0  0  0  0  0
    1.4626   -1.2376    0.0000 C   0  0  0  0  0  0  0  0  0  0  0  0
    1.4626   -2.9251    0.0000 C   0  0  0  0  0  0  0  0  0  0  0  0
    2.8876   -2.9251    0.0000 C   0  0  0  0  0  0  0  0  0  0  0  0
    2.8876   -3.7501    0.0000 C   0  0  0  0  0  0  0  0  0  0  0  0
    1.4626   -3.7501    0.0000 C   0  0  0  0  0  0  0  0  0  0  0  0
    2.1751   -4.9877    0.0000 C   0  0  0  0  0  0  0  0  0  0  0  0
    1.4626   -0.4125    0.0000 C   0  0  0  0  0  0  0  0  0  0  0  0
    0.7500   -1.6501    0.0000 C   0  0  0  0  0  0  0  0  0  0  0  0
    0.7500    0.0000    0.0000 C   0  0  0  0  0  0  0  0  0  0  0  0
    0.0000   -1.2376    0.0000 C   0  0  0  0  0  0  0  0  0  0  0  0
    1.4626   -5.4377    0.0000 C   0  0  0  0  0  0  0  0  0  0  0  0
    0.0000   -0.4125    0.0000 C   0  0  0  0  0  0  0  0  0  0  0  0
    1.4626   -6.2627    0.0000 C   0  0  0  0  0  0  0  0  0  0  0  0
    0.7500   -6.6753    0.0000 C   0  0  0  0  0  0  0  0  0  0  0  0
    0.7500   -7.5003    0.0000 C   0  0  0  0  0  0  0  0  0  0  0  0
    0.0000   -6.2627    0.0000 C   0  0  0  0  0  0  0  0  0  0  0  0
  1  3  1  0  0  0  0
  1  5  1  0  0  0  0
  1  6  1  0  0  0  0
  2  7  1  0  0  0  0
  2  8  1  0  0  0  0
  2  9  1  0  0  0  0
  3  4  1  0  0  0  0
  4 10  2  0  0  0  0
  4 11  1  0  0  0  0
  5  8  1  0  0  0  0
  6  7  1  0  0  0  0
  9 14  2  0  0  0  0
 10 12  1  0  0  0  0
 11 13  2  0  0  0  0
 12 15  2  0  0  0  0
 13 15  1  0  0  0  0
 14 16  1  0  0  0  0
 16 17  2  0  0  0  0
 17 18  1  0  0  0  0
 17 19  1  0  0  0  0
M  END
> <PUBCHEM_COMPOUND_ID_TYPE>
0

> <PUBCHEM_TOTAL_CHARGE>
0

> <PUBCHEM_SUBSTANCE_ID>
310938254

> <PUBCHEM_SUBSTANCE_VERSION>
1

> <PUBCHEM_EXT_DATASOURCE_NAME>
4488

> <PUBCHEM_EXT_DATASOURCE_REGID>
SCHEMBL16116119

> <PUBCHEM_SUBSTANCE_COMMENT>
InChI=1S/C17H24N2/c1-16(2)7-6-10-18-11-13-19(14-12-18)15-17-8-4-3-5-9-17/h3-10H,11-15H2,1-2H3/b10-6+
InChIKey=UUFSXYHKWYHSSW-UXBLZVDNSA-N

> <PUBCHEM_SUBSTANCE_SYNONYM>
SCHEMBL16116119

> <PUBCHEM_XREF_EXT_ID>
SCHEMBL16116119

> <PUBCHEM_EXT_DATASOURCE_URL>
https://www.surechembl.org/

> <PUBCHEM_EXT_SUBSTANCE_URL>
https://www.surechembl.org/chemical/SCHEMBL16116119

> <PUBCHEM_CID_ASSOCIATIONS>
117605768  1

> <PUBCHEM_COORDINATE_TYPE>
1
3

$$$$
