310933455
  -OEChem-07211613022D

 32 36  0     0  0  0  0  0  0999 V2000
    3.5942   -0.4054    0.0000 O   0  0  0  0  0  0  0  0  0  0  0  0
    2.8646   -4.1347    0.0000 O   0  0  0  0  0  0  0  0  0  0  0  0
    2.8916   -1.6485    0.0000 N   0  0  0  0  0  0  0  0  0  0  0  0
    5.0805   -1.4053    0.0000 N   0  0  0  0  0  0  0  0  0  0  0  0
    2.8916   -2.4862    0.0000 N   0  0  0  0  0  0  0  0  0  0  0  0
    4.2968   -4.1617    0.0000 N   0  0  0  0  0  0  0  0  0  0  0  0
    4.3509   -2.4862    0.0000 C   0  0  0  0  0  0  0  0  0  0  0  0
    4.3509   -1.6485    0.0000 C   0  0  0  0  0  0  0  0  0  0  0  0
    3.5942   -2.9186    0.0000 C   0  0  0  0  0  0  0  0  0  0  0  0
    5.0805   -2.7294    0.0000 C   0  0  0  0  0  0  0  0  0  0  0  0
    3.5942   -1.2161    0.0000 C   0  0  0  0  0  0  0  0  0  0  0  0
    5.6210   -2.0538    0.0000 C   0  0  0  0  0  0  0  0  0  0  0  0
    3.5942   -3.7293    0.0000 C   0  0  0  0  0  0  0  0  0  0  0  0
    2.1619   -1.2431    0.0000 C   0  0  0  0  0  0  0  0  0  0  0  0
    5.4859   -3.4591    0.0000 C   0  0  0  0  0  0  0  0  0  0  0  0
    6.4047   -2.1619    0.0000 C   0  0  0  0  0  0  0  0  0  0  0  0
    4.9995   -3.7563    0.0000 C   0  0  0  0  0  0  0  0  0  0  0  0
    6.2696   -3.5672    0.0000 C   0  0  0  0  0  0  0  0  0  0  0  0
    6.7290   -2.9186    0.0000 C   0  0  0  0  0  0  0  0  0  0  0  0
    2.1619   -0.4054    0.0000 C   0  0  0  0  0  0  0  0  0  0  0  0
    1.4593   -1.6485    0.0000 C   0  0  0  0  0  0  0  0  0  0  0  0
    4.2698   -4.9724    0.0000 C   0  0  0  0  0  0  0  0  0  0  0  0
    1.4323    0.0000    0.0000 C   0  0  0  0  0  0  0  0  0  0  0  0
    0.7567   -1.2701    0.0000 C   0  0  0  0  0  0  0  0  0  0  0  0
    0.7297   -0.4324    0.0000 C   0  0  0  0  0  0  0  0  0  0  0  0
    5.0265   -2.9186    0.0000 C   0  0  0  0  0  0  0  0  0  0  0  0
    5.7291   -4.1888    0.0000 C   0  0  0  0  0  0  0  0  0  0  0  0
    5.7561   -2.5403    0.0000 C   0  0  0  0  0  0  0  0  0  0  0  0
    6.4317   -3.7834    0.0000 C   0  0  0  0  0  0  0  0  0  0  0  0
    4.9724   -5.4048    0.0000 C   0  0  0  0  0  0  0  0  0  0  0  0
    6.4588   -2.9726    0.0000 C   0  0  0  0  0  0  0  0  0  0  0  0
    0.0000   -0.0270    0.0000 C   0  0  0  0  0  0  0  0  0  0  0  0
  1 11  2  0  0  0  0
  2 13  2  0  0  0  0
  3  5  1  0  0  0  0
  3 11  1  0  0  0  0
  3 14  1  0  0  0  0
  4  8  1  0  0  0  0
  4 12  1  0  0  0  0
  5  9  2  0  0  0  0
  6 13  1  0  0  0  0
  6 17  1  0  0  0  0
  6 22  1  0  0  0  0
  7  8  2  0  0  0  0
  7  9  1  0  0  0  0
  7 10  1  0  0  0  0
  8 11  1  0  0  0  0
  9 13  1  0  0  0  0
 10 12  2  0  0  0  0
 10 15  1  0  0  0  0
 12 16  1  0  0  0  0
 14 20  2  0  0  0  0
 14 21  1  0  0  0  0
 15 18  2  0  0  0  0
 16 19  2  0  0  0  0
 17 26  2  0  0  0  0
 17 27  1  0  0  0  0
 18 19  1  0  0  0  0
 20 23  1  0  0  0  0
 21 24  2  0  0  0  0
 22 30  1  0  0  0  0
 23 25  2  0  0  0  0
 24 25  1  0  0  0  0
 25 32  1  0  0  0  0
 26 28  1  0  0  0  0
 27 29  2  0  0  0  0
 28 31  2  0  0  0  0
 29 31  1  0  0  0  0
M  END
> <PUBCHEM_COMPOUND_ID_TYPE>
0

> <PUBCHEM_TOTAL_CHARGE>
0

> <PUBCHEM_SUBSTANCE_ID>
310933455

> <PUBCHEM_SUBSTANCE_VERSION>
1

> <PUBCHEM_EXT_DATASOURCE_NAME>
4488

> <PUBCHEM_EXT_DATASOURCE_REGID>
SCHEMBL16110873

> <PUBCHEM_SUBSTANCE_COMMENT>
InChI=1S/C26H22N4O2/c1-3-29(18-9-5-4-6-10-18)25(31)24-22-20-11-7-8-12-21(20)27-23(22)26(32)30(28-24)19-15-13-17(2)14-16-19/h4-16,27H,3H2,1-2H3
InChIKey=FFBFIFGTGTXFKA-UHFFFAOYSA-N

> <PUBCHEM_SUBSTANCE_SYNONYM>
SCHEMBL16110873

> <PUBCHEM_XREF_EXT_ID>
SCHEMBL16110873

> <PUBCHEM_EXT_DATASOURCE_URL>
https://www.surechembl.org/

> <PUBCHEM_EXT_SUBSTANCE_URL>
https://www.surechembl.org/chemical/SCHEMBL16110873

> <PUBCHEM_CID_ASSOCIATIONS>
117601855  1

> <PUBCHEM_COORDINATE_TYPE>
1
3

$$$$
