310947183
  -OEChem-07211613022D

 23 22  0     0  0  0  0  0  0999 V2000
    7.1341    0.0530    0.0000 F   0  0  0  0  0  0  0  0  0  0  0  0
    6.8321    1.1800    0.0000 F   0  0  0  0  0  0  0  0  0  0  0  0
    5.7051    0.0530    0.0000 F   0  0  0  0  0  0  0  0  0  0  0  0
    5.4031    1.1800    0.0000 F   0  0  0  0  0  0  0  0  0  0  0  0
    9.6900   -0.2490    0.0000 F   0  0  0  0  0  0  0  0  0  0  0  0
    9.9920    0.8780    0.0000 F   0  0  0  0  0  0  0  0  0  0  0  0
    8.8650    1.1800    0.0000 F   0  0  0  0  0  0  0  0  0  0  0  0
    5.7051    0.8780    0.0000 O   0  0  0  0  0  0  0  0  0  0  0  0
    7.8486    0.4655    0.0000 O   0  0  0  0  0  0  0  0  0  0  0  0
    3.5617    0.4655    0.0000 O   0  0  0  0  0  0  0  0  0  0  0  0
    2.8473    1.7030    0.0000 O   0  0  0  0  0  0  0  0  0  0  0  0
    0.7039   -0.3595    0.0000 O   0  0  0  0  0  0  0  0  0  0  0  0
   -0.0106    0.8780    0.0000 O   0  0  0  0  0  0  0  0  0  0  0  0
    6.4196    0.4655    0.0000 C   0  0  0  0  0  0  0  0  0  0  0  0
    4.9906    0.4655    0.0000 C   0  0  0  0  0  0  0  0  0  0  0  0
    7.1341    0.8780    0.0000 C   0  0  0  0  0  0  0  0  0  0  0  0
    4.2762    0.8780    0.0000 C   0  0  0  0  0  0  0  0  0  0  0  0
    9.2775    0.4655    0.0000 C   0  0  0  0  0  0  0  0  0  0  0  0
    8.5630    0.8780    0.0000 C   0  0  0  0  0  0  0  0  0  0  0  0
    2.8473    0.8780    0.0000 C   0  0  0  0  0  0  0  0  0  0  0  0
    2.1328    0.4655    0.0000 C   0  0  0  0  0  0  0  0  0  0  0  0
    1.4183    0.8780    0.0000 C   0  0  0  0  0  0  0  0  0  0  0  0
    0.7039    0.4655    0.0000 C   0  0  0  0  0  0  0  0  0  0  0  0
  1 14  1  0  0  0  0
  2 14  1  0  0  0  0
  3 15  1  0  0  0  0
  4 15  1  0  0  0  0
  5 18  1  0  0  0  0
  6 18  1  0  0  0  0
  7 18  1  0  0  0  0
  8 14  1  0  0  0  0
  8 15  1  0  0  0  0
  9 16  1  0  0  0  0
  9 19  1  0  0  0  0
 10 17  1  0  0  0  0
 10 20  1  0  0  0  0
 11 20  2  0  0  0  0
 12 23  2  0  0  0  0
 13 23  1  0  0  0  0
 14 16  1  0  0  0  0
 15 17  1  0  0  0  0
 18 19  1  0  0  0  0
 20 21  1  0  0  0  0
 21 22  1  0  0  0  0
 22 23  1  0  0  0  0
M  END
> <PUBCHEM_COMPOUND_ID_TYPE>
0

> <PUBCHEM_TOTAL_CHARGE>
0

> <PUBCHEM_SUBSTANCE_ID>
310947183

> <PUBCHEM_SUBSTANCE_VERSION>
1

> <PUBCHEM_EXT_DATASOURCE_NAME>
4488

> <PUBCHEM_EXT_DATASOURCE_REGID>
SCHEMBL16125337

> <PUBCHEM_SUBSTANCE_COMMENT>
InChI=1S/C10H11F7O6/c11-8(12,13)3-21-4-9(14,15)23-10(16,17)5-22-7(20)2-1-6(18)19/h1-5H2,(H,18,19)
InChIKey=VWNUIWLDDWQADS-UHFFFAOYSA-N

> <PUBCHEM_SUBSTANCE_SYNONYM>
SCHEMBL16125337

> <PUBCHEM_XREF_EXT_ID>
SCHEMBL16125337

> <PUBCHEM_EXT_DATASOURCE_URL>
https://www.surechembl.org/

> <PUBCHEM_EXT_SUBSTANCE_URL>
https://www.surechembl.org/chemical/SCHEMBL16125337

> <PUBCHEM_CID_ASSOCIATIONS>
117613008  1

> <PUBCHEM_COORDINATE_TYPE>
1
3

$$$$
