310933661
  -OEChem-07211613022D

 42 47  0     1  0  0  0  0  0999 V2000
    0.0000   -3.0624    0.0000 Cl  0  0  0  0  0  0  0  0  0  0  0  0
    1.6250   -2.9062    0.0000 F   0  0  0  0  0  0  0  0  0  0  0  0
    3.9686   -3.8436    0.0000 O   0  0  0  0  0  0  0  0  0  0  0  0
    4.5623   -5.7498    0.0000 O   0  0  0  0  0  0  0  0  0  0  0  0
    3.8749   -3.6874    0.0000 O   0  0  0  0  0  0  0  0  0  0  0  0
    7.4373    0.0000    0.0000 O   0  0  0  0  0  0  0  0  0  0  0  0
    8.1247   -1.2500    0.0000 O   0  0  0  0  0  0  0  0  0  0  0  0
    5.2811   -4.4999    0.0000 N   0  0  0  0  0  0  0  0  0  0  0  0
    8.0935   -3.7186    0.0000 N   0  0  0  0  0  0  0  0  0  0  0  0
    4.5936   -2.4687    0.0000 N   0  0  0  0  0  0  0  0  0  0  0  0
    2.9999   -3.4999    0.0000 N   0  0  0  0  0  0  0  0  0  0  0  0
    9.3747   -3.9999    0.0000 N   0  0  0  0  0  0  0  0  0  0  0  0
    8.9684   -4.7186    0.0000 N   0  0  0  0  0  0  0  0  0  0  0  0
    5.2811   -3.6874    0.0000 C   0  0  3  0  0  0  0  0  0  0  0  0
    5.9998   -3.2811    0.0000 C   0  0  0  0  0  0  0  0  0  0  0  0
    6.6873   -3.6874    0.0000 C   0  0  0  0  0  0  0  0  0  0  0  0
    7.4060   -3.3124    0.0000 C   0  0  0  0  0  0  0  0  0  0  0  0
    4.5623   -4.9373    0.0000 C   0  0  0  0  0  0  0  0  0  0  0  0
    4.5936   -3.2811    0.0000 C   0  0  0  0  0  0  0  0  0  0  0  0
    3.8436   -4.4999    0.0000 C   0  0  3  0  0  0  0  0  0  0  0  0
    5.9686   -4.9373    0.0000 C   0  0  0  0  0  0  0  0  0  0  0  0
    6.6873   -4.5311    0.0000 C   0  0  0  0  0  0  0  0  0  0  0  0
    6.1560   -2.6249    0.0000 C   0  0  0  0  0  0  0  0  0  0  0  0
    2.5937   -4.2186    0.0000 C   0  0  0  0  0  0  0  0  0  0  0  0
    7.4060   -2.4687    0.0000 C   0  0  0  0  0  0  0  0  0  0  0  0
    3.1249   -4.8436    0.0000 C   0  0  0  0  0  0  0  0  0  0  0  0
    1.7499   -4.3123    0.0000 C   0  0  0  0  0  0  0  0  0  0  0  0
    6.8748   -2.2187    0.0000 C   0  0  0  0  0  0  0  0  0  0  0  0
    1.2812   -3.6561    0.0000 C   0  0  0  0  0  0  0  0  0  0  0  0
    8.1873   -4.5311    0.0000 C   0  0  0  0  0  0  0  0  0  0  0  0
    8.8747   -3.4061    0.0000 C   0  0  0  0  0  0  0  0  0  0  0  0
    5.2811   -2.0624    0.0000 C   0  0  0  0  0  0  0  0  0  0  0  0
    1.4062   -5.0624    0.0000 C   0  0  0  0  0  0  0  0  0  0  0  0
    0.4687   -3.7186    0.0000 C   0  0  0  0  0  0  0  0  0  0  0  0
    0.6250   -5.1248    0.0000 C   0  0  0  0  0  0  0  0  0  0  0  0
    0.1250   -4.4686    0.0000 C   0  0  0  0  0  0  0  0  0  0  0  0
    5.2811   -1.2500    0.0000 C   0  0  0  0  0  0  0  0  0  0  0  0
    5.9998   -2.4687    0.0000 C   0  0  0  0  0  0  0  0  0  0  0  0
    6.7185   -1.2500    0.0000 C   0  0  0  0  0  0  0  0  0  0  0  0
    5.9998   -0.8125    0.0000 C   0  0  0  0  0  0  0  0  0  0  0  0
    6.7185   -2.0624    0.0000 C   0  0  0  0  0  0  0  0  0  0  0  0
    7.4373   -0.8125    0.0000 C   0  0  0  0  0  0  0  0  0  0  0  0
  1 34  1  0  0  0  0
  2 29  1  0  0  0  0
  3 11  1  0  0  0  0
  3 20  1  0  0  0  0
  4 18  2  0  0  0  0
  5 19  2  0  0  0  0
  6 42  2  0  0  0  0
  7 42  1  0  0  0  0
  8 14  1  0  0  0  0
  8 18  1  0  0  0  0
  8 21  1  0  0  0  0
  9 17  1  0  0  0  0
  9 30  1  0  0  0  0
  9 31  1  0  0  0  0
 10 19  1  0  0  0  0
 10 32  1  0  0  0  0
 11 24  2  0  0  0  0
 12 13  1  0  0  0  0
 12 31  2  0  0  0  0
 13 30  2  0  0  0  0
 14 15  1  0  0  0  0
 14 19  1  6  0  0  0
 15 16  2  0  0  0  0
 15 23  1  0  0  0  0
 16 17  1  0  0  0  0
 16 22  1  0  0  0  0
 17 25  2  0  0  0  0
 20 18  1  1  0  0  0
 20 26  1  0  0  0  0
 21 22  1  0  0  0  0
 23 28  2  0  0  0  0
 24 26  1  0  0  0  0
 24 27  1  0  0  0  0
 25 28  1  0  0  0  0
 27 29  1  0  0  0  0
 27 33  2  0  0  0  0
 29 34  2  0  0  0  0
 32 37  2  0  0  0  0
 32 38  1  0  0  0  0
 33 35  1  0  0  0  0
 34 36  1  0  0  0  0
 35 36  2  0  0  0  0
 37 40  1  0  0  0  0
 38 41  2  0  0  0  0
 39 40  2  0  0  0  0
 39 41  1  0  0  0  0
 39 42  1  0  0  0  0
M  END
> <PUBCHEM_COMPOUND_ID_TYPE>
0

> <PUBCHEM_TOTAL_CHARGE>
0

> <PUBCHEM_SUBSTANCE_ID>
310933661

> <PUBCHEM_SUBSTANCE_VERSION>
1

> <PUBCHEM_EXT_DATASOURCE_NAME>
4488

> <PUBCHEM_EXT_DATASOURCE_REGID>
SCHEMBL16111094

> <PUBCHEM_SUBSTANCE_COMMENT>
InChI=1S/C29H22ClFN6O5/c30-21-5-1-4-20(25(21)31)22-13-24(42-35-22)28(39)37-12-11-18-19(3-2-6-23(18)36-14-32-33-15-36)26(37)27(38)34-17-9-7-16(8-10-17)29(40)41/h1-10,14-15,24,26H,11-13H2,(H,34,38)(H,40,41)/t24-,26+/m1/s1
InChIKey=VZRPGIGGABVQRY-RSXGOPAZSA-N

> <PUBCHEM_SUBSTANCE_SYNONYM>
SCHEMBL16111094

> <PUBCHEM_XREF_EXT_ID>
SCHEMBL16111094

> <PUBCHEM_EXT_DATASOURCE_URL>
https://www.surechembl.org/

> <PUBCHEM_EXT_SUBSTANCE_URL>
https://www.surechembl.org/chemical/SCHEMBL16111094

> <PUBCHEM_CID_ASSOCIATIONS>
117602032  1

> <PUBCHEM_COORDINATE_TYPE>
1
3

> <PUBCHEM_BONDANNOTATIONS>
14  19  6
20  18  5

$$$$
