310940750
  -OEChem-07211613022D

 36 38  0     1  0  0  0  0  0999 V2000
    0.6632    0.2911    0.0000 S   0  0  0  0  0  0  0  0  0  0  0  0
    2.9112   -0.7763    0.0000 S   0  0  0  0  0  0  0  0  0  0  0  0
   -4.4963   -0.8734    0.0000 S   0  0  0  0  0  0  0  0  0  0  0  0
   -1.4880   -1.5204    0.0000 O   0  0  0  0  0  0  0  0  0  0  0  0
    1.3586   -2.5716    0.0000 O   0  0  0  0  0  0  0  0  0  0  0  0
   -0.0324   -2.6202    0.0000 O   0  0  0  0  0  0  0  0  0  0  0  0
   -2.2319   -0.6308    0.0000 O   0  0  0  0  0  0  0  0  0  0  0  0
   -2.2158    1.7791    0.0000 O   0  0  0  0  0  0  0  0  0  0  0  0
    5.8063   -0.7763    0.0000 O   0  0  0  0  0  0  0  0  0  0  0  0
    5.8063   -2.4099    0.0000 O   0  0  0  0  0  0  0  0  0  0  0  0
   -0.0485   -0.9381    0.0000 N   0  0  0  0  0  0  0  0  0  0  0  0
   -1.2939    0.5823    0.0000 N   0  0  0  0  0  0  0  0  0  0  0  0
   -2.9436    1.3747    0.0000 N   0  0  0  0  0  0  0  0  0  0  0  0
   -4.4478    0.4529    0.0000 N   0  0  0  0  0  0  0  0  0  0  0  0
    4.3669   -0.7763    0.0000 N   0  0  0  0  0  0  0  0  0  0  0  0
    3.6391   -2.0055    0.0000 N   0  0  0  0  0  0  0  0  0  0  0  0
   -5.8063   -0.1779    0.0000 N   0  0  0  0  0  0  0  0  0  0  0  0
    4.3669   -2.4261    0.0000 N   0  0  0  0  0  0  0  0  0  0  0  0
   -0.0647   -0.1294    0.0000 C   0  0  3  0  0  0  0  0  0  0  0  0
   -0.8734   -0.1133    0.0000 C   0  0  3  0  0  0  0  0  0  0  0  0
   -0.8734   -0.9057    0.0000 C   0  0  0  0  0  0  0  0  0  0  0  0
    0.6793   -1.3424    0.0000 C   0  0  0  0  0  0  0  0  0  0  0  0
    1.3747   -0.9381    0.0000 C   0  0  0  0  0  0  0  0  0  0  0  0
    0.6632   -2.1673    0.0000 C   0  0  0  0  0  0  0  0  0  0  0  0
    1.3910   -0.1294    0.0000 C   0  0  0  0  0  0  0  0  0  0  0  0
   -2.2158    0.2103    0.0000 C   0  0  0  0  0  0  0  0  0  0  0  0
    2.2158   -1.1807    0.0000 C   0  0  0  0  0  0  0  0  0  0  0  0
   -2.9598    0.5984    0.0000 C   0  0  0  0  0  0  0  0  0  0  0  0
   -3.6553    0.1779    0.0000 C   0  0  0  0  0  0  0  0  0  0  0  0
   -3.7038   -0.6469    0.0000 C   0  0  0  0  0  0  0  0  0  0  0  0
    3.6553   -1.1807    0.0000 C   0  0  0  0  0  0  0  0  0  0  0  0
   -4.9654   -0.1941    0.0000 C   0  0  0  0  0  0  0  0  0  0  0  0
    5.0785   -1.1807    0.0000 C   0  0  0  0  0  0  0  0  0  0  0  0
    5.0624   -1.9894    0.0000 C   0  0  0  0  0  0  0  0  0  0  0  0
   -2.2319    2.6202    0.0000 C   0  0  0  0  0  0  0  0  0  0  0  0
    2.8951   -2.4099    0.0000 C   0  0  0  0  0  0  0  0  0  0  0  0
  1 19  1  0  0  0  0
  1 25  1  0  0  0  0
  2 27  1  0  0  0  0
  2 31  1  0  0  0  0
  3 30  1  0  0  0  0
  3 32  1  0  0  0  0
  4 21  2  0  0  0  0
  5 24  2  0  0  0  0
  6 24  1  0  0  0  0
  7 26  2  0  0  0  0
  8 13  1  0  0  0  0
  8 35  1  0  0  0  0
  9 33  2  0  0  0  0
 10 34  2  0  0  0  0
 19 11  1  1  0  0  0
 11 21  1  0  0  0  0
 11 22  1  0  0  0  0
 20 12  1  1  0  0  0
 12 26  1  0  0  0  0
 13 28  2  0  0  0  0
 14 29  1  0  0  0  0
 14 32  2  0  0  0  0
 15 31  2  0  0  0  0
 15 33  1  0  0  0  0
 16 31  1  0  0  0  0
 16 36  1  0  0  0  0
 17 32  1  0  0  0  0
 18 34  1  0  0  0  0
 19 20  1  0  0  0  0
 20 21  1  0  0  0  0
 22 23  2  0  0  0  0
 22 24  1  0  0  0  0
 23 25  1  0  0  0  0
 23 27  1  0  0  0  0
 26 28  1  0  0  0  0
 28 29  1  0  0  0  0
 29 30  2  0  0  0  0
 33 34  1  0  0  0  0
M  END
> <PUBCHEM_COMPOUND_ID_TYPE>
0

> <PUBCHEM_TOTAL_CHARGE>
0

> <PUBCHEM_SUBSTANCE_ID>
310940750

> <PUBCHEM_SUBSTANCE_VERSION>
1

> <PUBCHEM_EXT_DATASOURCE_NAME>
4488

> <PUBCHEM_EXT_DATASOURCE_REGID>
SCHEMBL16118708

> <PUBCHEM_SUBSTANCE_COMMENT>
InChI=1S/C18H20N8O7S3/c1-21-18(24-13(29)11(19)27)36-4-6-3-34-15-9(14(30)26(15)10(6)16(31)32)23-12(28)8(25-33-2)7-5-35-17(20)22-7/h5,9,15H,3-4H2,1-2H3,(H2,19,27)(H2,20,22)(H,23,28)(H,31,32)(H,21,24,29)/b25-8-/t9-,15-/m1/s1
InChIKey=AUPBGFJUNBCHKO-SOWIQRQDSA-N

> <PUBCHEM_SUBSTANCE_SYNONYM>
SCHEMBL16118708

> <PUBCHEM_XREF_EXT_ID>
SCHEMBL16118708

> <PUBCHEM_EXT_DATASOURCE_URL>
https://www.surechembl.org/

> <PUBCHEM_EXT_SUBSTANCE_URL>
https://www.surechembl.org/chemical/SCHEMBL16118708

> <PUBCHEM_CID_ASSOCIATIONS>
117607705  1

> <PUBCHEM_COORDINATE_TYPE>
1
3

> <PUBCHEM_BONDANNOTATIONS>
19  11  5
20  12  5

$$$$
