310941437
  -OEChem-07211613022D

 39 43  0     1  0  0  0  0  0999 V2000
   -0.4359    3.3942    0.0000 S   0  0  0  0  0  0  0  0  0  0  0  0
   -0.4484    1.7251    0.0000 O   0  0  0  0  0  0  0  0  0  0  0  0
   -0.0125    2.6842    0.0000 O   0  0  0  0  0  0  0  0  0  0  0  0
   -0.8345    4.0792    0.0000 O   0  0  0  0  0  0  0  0  0  0  0  0
    0.2989    0.4919    0.0000 N   0  0  0  0  0  0  0  0  0  0  0  0
   -0.4235   -0.7536    0.0000 N   0  0  0  0  0  0  0  0  0  0  0  0
    1.1459   -1.5881    0.0000 N   0  0  0  0  0  0  0  0  0  0  0  0
    1.7313   -2.8336    0.0000 N   0  0  0  0  0  0  0  0  0  0  0  0
    0.2740    3.8052    0.0000 N   0  0  0  0  0  0  0  0  0  0  0  0
    1.0214   -4.0792    0.0000 N   0  0  0  0  0  0  0  0  0  0  0  0
    2.5783   -4.0792    0.0000 N   0  0  0  0  0  0  0  0  0  0  0  0
   -1.1335   -2.0490    0.0000 N   0  0  0  0  0  0  0  0  0  0  0  0
   -1.1459    0.4919    0.0000 C   0  0  0  0  0  0  0  0  0  0  0  0
   -0.4359    0.8906    0.0000 C   0  0  0  0  0  0  0  0  0  0  0  0
   -1.1584   -0.3300    0.0000 C   0  0  0  0  0  0  0  0  0  0  0  0
    0.2865   -0.3425    0.0000 C   0  0  0  0  0  0  0  0  0  0  0  0
   -1.8808    0.9031    0.0000 C   0  0  0  0  0  0  0  0  0  0  0  0
    1.0089    0.9155    0.0000 C   0  0  0  0  0  0  0  0  0  0  0  0
   -1.8683    1.7500    0.0000 C   0  0  0  0  0  0  0  0  0  0  0  0
    1.0214   -0.7536    0.0000 C   0  0  3  0  0  0  0  0  0  0  0  0
   -1.8558   -0.7536    0.0000 C   0  0  0  0  0  0  0  0  0  0  0  0
   -2.5783    0.4795    0.0000 C   0  0  0  0  0  0  0  0  0  0  0  0
   -2.5783   -0.3425    0.0000 C   0  0  0  0  0  0  0  0  0  0  0  0
   -1.1459    2.1486    0.0000 C   0  0  0  0  0  0  0  0  0  0  0  0
   -1.1459    2.9830    0.0000 C   0  0  0  0  0  0  0  0  0  0  0  0
   -2.5783    2.1486    0.0000 C   0  0  0  0  0  0  0  0  0  0  0  0
    1.7313    0.4919    0.0000 C   0  0  0  0  0  0  0  0  0  0  0  0
    1.0214    1.7375    0.0000 C   0  0  0  0  0  0  0  0  0  0  0  0
    1.0089   -2.4226    0.0000 C   0  0  0  0  0  0  0  0  0  0  0  0
    1.7189   -0.3550    0.0000 C   0  0  0  0  0  0  0  0  0  0  0  0
   -1.8683    3.3817    0.0000 C   0  0  0  0  0  0  0  0  0  0  0  0
   -2.5783    2.9707    0.0000 C   0  0  0  0  0  0  0  0  0  0  0  0
    0.2989   -2.8211    0.0000 C   0  0  0  0  0  0  0  0  0  0  0  0
    2.4413    0.9031    0.0000 C   0  0  0  0  0  0  0  0  0  0  0  0
    1.7189    2.1361    0.0000 C   0  0  0  0  0  0  0  0  0  0  0  0
    2.4413    1.7375    0.0000 C   0  0  0  0  0  0  0  0  0  0  0  0
    1.7189   -3.6682    0.0000 C   0  0  0  0  0  0  0  0  0  0  0  0
    0.2865   -3.6557    0.0000 C   0  0  0  0  0  0  0  0  0  0  0  0
   -0.4235   -2.4226    0.0000 C   0  0  0  0  0  0  0  0  0  0  0  0
  1  3  2  0  0  0  0
  1  4  2  0  0  0  0
  1  9  1  0  0  0  0
  1 25  1  0  0  0  0
  2 14  2  0  0  0  0
  5 14  1  0  0  0  0
  5 16  1  0  0  0  0
  5 18  1  0  0  0  0
  6 15  1  0  0  0  0
  6 16  2  0  0  0  0
  7 20  1  0  0  0  0
  7 29  1  0  0  0  0
  8 29  1  0  0  0  0
  8 37  2  0  0  0  0
 10 37  1  0  0  0  0
 10 38  2  0  0  0  0
 11 37  1  0  0  0  0
 12 39  3  0  0  0  0
 13 14  1  0  0  0  0
 13 15  1  0  0  0  0
 13 17  2  0  0  0  0
 15 21  2  0  0  0  0
 16 20  1  0  0  0  0
 17 19  1  0  0  0  0
 17 22  1  0  0  0  0
 18 27  2  0  0  0  0
 18 28  1  0  0  0  0
 19 24  2  0  0  0  0
 19 26  1  0  0  0  0
 20 30  1  6  0  0  0
 21 23  1  0  0  0  0
 22 23  2  0  0  0  0
 24 25  1  0  0  0  0
 25 31  2  0  0  0  0
 26 32  2  0  0  0  0
 27 34  1  0  0  0  0
 28 35  2  0  0  0  0
 29 33  2  0  0  0  0
 31 32  1  0  0  0  0
 33 38  1  0  0  0  0
 33 39  1  0  0  0  0
 34 36  2  0  0  0  0
 35 36  1  0  0  0  0
M  END
> <PUBCHEM_COMPOUND_ID_TYPE>
0

> <PUBCHEM_TOTAL_CHARGE>
0

> <PUBCHEM_SUBSTANCE_ID>
310941437

> <PUBCHEM_SUBSTANCE_VERSION>
1

> <PUBCHEM_EXT_DATASOURCE_NAME>
4488

> <PUBCHEM_EXT_DATASOURCE_REGID>
SCHEMBL16119397

> <PUBCHEM_SUBSTANCE_COMMENT>
InChI=1S/C27H22N8O3S/c1-16(32-24-18(14-28)15-31-27(29)34-24)25-33-22-12-6-11-21(17-7-5-10-20(13-17)39(30,37)38)23(22)26(36)35(25)19-8-3-2-4-9-19/h2-13,15-16H,1H3,(H2,30,37,38)(H3,29,31,32,34)/t16-/m0/s1
InChIKey=QIYPCIPPCNPZGN-INIZCTEOSA-N

> <PUBCHEM_SUBSTANCE_SYNONYM>
SCHEMBL16119397

> <PUBCHEM_XREF_EXT_ID>
SCHEMBL16119397

> <PUBCHEM_EXT_DATASOURCE_URL>
https://www.surechembl.org/

> <PUBCHEM_EXT_SUBSTANCE_URL>
https://www.surechembl.org/chemical/SCHEMBL16119397

> <PUBCHEM_CID_ASSOCIATIONS>
117608262  1

> <PUBCHEM_COORDINATE_TYPE>
1
3

> <PUBCHEM_BONDANNOTATIONS>
20  30  6

$$$$
