310933785
  -OEChem-07211613022D

 26 28  0     0  0  0  0  0  0999 V2000
    0.6975    0.0000    0.0000 Cl  0  0  0  0  0  0  0  0  0  0  0  0
    2.8646   -3.7364    0.0000 S   0  0  0  0  0  0  0  0  0  0  0  0
    3.5869   -2.4910    0.0000 S   0  0  0  0  0  0  0  0  0  0  0  0
    1.4198   -4.5584    0.0000 O   0  0  0  0  0  0  0  0  0  0  0  0
    0.6975   -3.3129    0.0000 N   0  0  0  0  0  0  0  0  0  0  0  0
    4.3093   -3.7364    0.0000 N   0  0  0  0  0  0  0  0  0  0  0  0
    2.1422   -2.4910    0.0000 C   0  0  0  0  0  0  0  0  0  0  0  0
    1.4198   -2.0675    0.0000 C   0  0  0  0  0  0  0  0  0  0  0  0
    2.1422   -3.3129    0.0000 C   0  0  0  0  0  0  0  0  0  0  0  0
    0.6975   -2.4660    0.0000 C   0  0  0  0  0  0  0  0  0  0  0  0
    1.4198   -3.7364    0.0000 C   0  0  0  0  0  0  0  0  0  0  0  0
    2.8646   -2.0675    0.0000 C   0  0  0  0  0  0  0  0  0  0  0  0
    1.4198   -1.2454    0.0000 C   0  0  0  0  0  0  0  0  0  0  0  0
    0.0000   -2.0675    0.0000 C   0  0  0  0  0  0  0  0  0  0  0  0
    0.6975   -0.8220    0.0000 C   0  0  0  0  0  0  0  0  0  0  0  0
    3.5869   -3.3129    0.0000 C   0  0  0  0  0  0  0  0  0  0  0  0
    2.8646   -1.2206    0.0000 C   0  0  0  0  0  0  0  0  0  0  0  0
    3.7364   -2.6404    0.0000 C   0  0  0  0  0  0  0  0  0  0  0  0
    0.0000   -1.2454    0.0000 C   0  0  0  0  0  0  0  0  0  0  0  0
    3.5869   -0.8220    0.0000 C   0  0  0  0  0  0  0  0  0  0  0  0
    4.2844   -2.0675    0.0000 C   0  0  0  0  0  0  0  0  0  0  0  0
    4.2844   -1.2454    0.0000 C   0  0  0  0  0  0  0  0  0  0  0  0
    4.3093   -4.5584    0.0000 C   0  0  0  0  0  0  0  0  0  0  0  0
    5.0317   -3.3129    0.0000 C   0  0  0  0  0  0  0  0  0  0  0  0
    5.0317   -4.9819    0.0000 C   0  0  0  0  0  0  0  0  0  0  0  0
    5.0317   -2.4910    0.0000 C   0  0  0  0  0  0  0  0  0  0  0  0
  1 15  1  0  0  0  0
  2  9  1  0  0  0  0
  2 16  1  0  0  0  0
  3 16  2  0  0  0  0
  4 11  2  0  0  0  0
  5 10  1  0  0  0  0
  5 11  1  0  0  0  0
  6 16  1  0  0  0  0
  6 23  1  0  0  0  0
  6 24  1  0  0  0  0
  7  8  1  0  0  0  0
  7  9  2  0  0  0  0
  7 12  1  0  0  0  0
  8 10  2  0  0  0  0
  8 13  1  0  0  0  0
  9 11  1  0  0  0  0
 10 14  1  0  0  0  0
 12 17  2  0  0  0  0
 12 18  1  0  0  0  0
 13 15  2  0  0  0  0
 14 19  2  0  0  0  0
 15 19  1  0  0  0  0
 17 20  1  0  0  0  0
 18 21  2  0  0  0  0
 20 22  2  0  0  0  0
 21 22  1  0  0  0  0
 23 25  1  0  0  0  0
 24 26  1  0  0  0  0
M  END
> <PUBCHEM_COMPOUND_ID_TYPE>
0

> <PUBCHEM_TOTAL_CHARGE>
0

> <PUBCHEM_SUBSTANCE_ID>
310933785

> <PUBCHEM_SUBSTANCE_VERSION>
1

> <PUBCHEM_EXT_DATASOURCE_NAME>
4488

> <PUBCHEM_EXT_DATASOURCE_REGID>
SCHEMBL16111221

> <PUBCHEM_SUBSTANCE_COMMENT>
InChI=1S/C20H19ClN2OS2/c1-3-23(4-2)20(25)26-18-17(13-8-6-5-7-9-13)15-12-14(21)10-11-16(15)22-19(18)24/h5-12H,3-4H2,1-2H3,(H,22,24)
InChIKey=JATKKVINBHBUSH-UHFFFAOYSA-N

> <PUBCHEM_SUBSTANCE_SYNONYM>
SCHEMBL16111221

> <PUBCHEM_XREF_EXT_ID>
SCHEMBL16111221

> <PUBCHEM_EXT_DATASOURCE_URL>
https://www.surechembl.org/

> <PUBCHEM_EXT_SUBSTANCE_URL>
https://www.surechembl.org/chemical/SCHEMBL16111221

> <PUBCHEM_CID_ASSOCIATIONS>
1616439  1

> <PUBCHEM_COORDINATE_TYPE>
1
3

$$$$
