310940229
  -OEChem-07211613022D

 22 26  0     0  0  0  0  0  0999 V2000
    2.5867   -0.7145    0.0000 F   0  0  0  0  0  0  0  0  0  0  0  0
   -1.1578    1.1270    0.0000 N   0  0  0  0  0  0  0  0  0  0  0  0
   -0.3732    1.3819    0.0000 N   0  0  0  0  0  0  0  0  0  0  0  0
    2.1742    1.4289    0.0000 N   0  0  0  0  0  0  0  0  0  0  0  0
   -0.3732    0.0470    0.0000 C   0  0  0  0  0  0  0  0  0  0  0  0
    0.1117    0.7145    0.0000 C   0  0  0  0  0  0  0  0  0  0  0  0
    0.9367    0.7145    0.0000 C   0  0  0  0  0  0  0  0  0  0  0  0
   -1.1578    0.3020    0.0000 C   0  0  0  0  0  0  0  0  0  0  0  0
    1.3492    0.0000    0.0000 C   0  0  0  0  0  0  0  0  0  0  0  0
   -0.3732   -0.7780    0.0000 C   0  0  0  0  0  0  0  0  0  0  0  0
    0.9367   -0.7145    0.0000 C   0  0  0  0  0  0  0  0  0  0  0  0
    2.1742    0.0000    0.0000 C   0  0  0  0  0  0  0  0  0  0  0  0
   -0.7857   -1.4924    0.0000 C   0  0  0  0  0  0  0  0  0  0  0  0
    0.0393   -1.4924    0.0000 C   0  0  0  0  0  0  0  0  0  0  0  0
    1.3492    1.4289    0.0000 C   0  0  0  0  0  0  0  0  0  0  0  0
   -1.8723   -0.1105    0.0000 C   0  0  0  0  0  0  0  0  0  0  0  0
    0.2223   -1.1270    0.0000 C   0  0  0  0  0  0  0  0  0  0  0  0
    0.9367   -1.5395    0.0000 C   0  0  0  0  0  0  0  0  0  0  0  0
   -1.8723    1.5395    0.0000 C   0  0  0  0  0  0  0  0  0  0  0  0
    2.5867    0.7145    0.0000 C   0  0  0  0  0  0  0  0  0  0  0  0
   -2.5867    0.3020    0.0000 C   0  0  0  0  0  0  0  0  0  0  0  0
   -2.5867    1.1270    0.0000 C   0  0  0  0  0  0  0  0  0  0  0  0
  1 12  1  0  0  0  0
  2  3  1  0  0  0  0
  2  8  1  0  0  0  0
  2 19  1  0  0  0  0
  3  6  2  0  0  0  0
  4 15  2  0  0  0  0
  4 20  1  0  0  0  0
  5  6  1  0  0  0  0
  5  8  2  0  0  0  0
  5 10  1  0  0  0  0
  6  7  1  0  0  0  0
  7  9  2  0  0  0  0
  7 15  1  0  0  0  0
  8 16  1  0  0  0  0
  9 11  1  0  0  0  0
  9 12  1  0  0  0  0
 10 13  1  0  0  0  0
 10 14  1  0  0  0  0
 11 17  1  0  0  0  0
 11 18  1  0  0  0  0
 12 20  2  0  0  0  0
 13 14  1  0  0  0  0
 16 21  2  0  0  0  0
 17 18  1  0  0  0  0
 19 22  2  0  0  0  0
 21 22  1  0  0  0  0
M  END
> <PUBCHEM_COMPOUND_ID_TYPE>
0

> <PUBCHEM_TOTAL_CHARGE>
0

> <PUBCHEM_SUBSTANCE_ID>
310940229

> <PUBCHEM_SUBSTANCE_VERSION>
1

> <PUBCHEM_EXT_DATASOURCE_NAME>
4488

> <PUBCHEM_EXT_DATASOURCE_REGID>
SCHEMBL16118163

> <PUBCHEM_SUBSTANCE_COMMENT>
InChI=1S/C18H16FN3/c19-14-10-20-9-13(16(14)11-4-5-11)18-17(12-6-7-12)15-3-1-2-8-22(15)21-18/h1-3,8-12H,4-7H2
InChIKey=VYUDCKYQPJHLSC-UHFFFAOYSA-N

> <PUBCHEM_SUBSTANCE_SYNONYM>
SCHEMBL16118163

> <PUBCHEM_XREF_EXT_ID>
SCHEMBL16118163

> <PUBCHEM_EXT_DATASOURCE_URL>
https://www.surechembl.org/

> <PUBCHEM_EXT_SUBSTANCE_URL>
https://www.surechembl.org/chemical/SCHEMBL16118163

> <PUBCHEM_CID_ASSOCIATIONS>
117607322  1

> <PUBCHEM_COORDINATE_TYPE>
1
3

$$$$
