310941654
  -OEChem-07211613022D

 26 29  0     0  0  0  0  0  0999 V2000
   -3.3768   -1.7981    0.0000 Cl  0  0  0  0  0  0  0  0  0  0  0  0
   -1.9296   -0.9648    0.0000 O   0  0  0  0  0  0  0  0  0  0  0  0
    0.2924    0.4386    0.0000 O   0  0  0  0  0  0  0  0  0  0  0  0
   -0.4971   -0.9648    0.0000 O   0  0  0  0  0  0  0  0  0  0  0  0
    3.2744    1.1256    0.0000 O   0  0  0  0  0  0  0  0  0  0  0  0
   -0.4971    1.5349    0.0000 N   0  0  0  0  0  0  0  0  0  0  0  0
    0.2924    1.7981    0.0000 N   0  0  0  0  0  0  0  0  0  0  0  0
    1.6080    1.1110    0.0000 N   0  0  0  0  0  0  0  0  0  0  0  0
   -1.1987    0.2924    0.0000 C   0  0  0  0  0  0  0  0  0  0  0  0
   -0.5117    0.7017    0.0000 C   0  0  0  0  0  0  0  0  0  0  0  0
   -2.6605   -0.5262    0.0000 C   0  0  0  0  0  0  0  0  0  0  0  0
   -2.6459    0.2777    0.0000 C   0  0  0  0  0  0  0  0  0  0  0  0
   -1.2425   -0.5262    0.0000 C   0  0  0  0  0  0  0  0  0  0  0  0
   -1.9588    0.7017    0.0000 C   0  0  0  0  0  0  0  0  0  0  0  0
    0.7748    1.1256    0.0000 C   0  0  0  0  0  0  0  0  0  0  0  0
   -3.3768   -0.9502    0.0000 C   0  0  0  0  0  0  0  0  0  0  0  0
   -3.3622    0.6871    0.0000 C   0  0  0  0  0  0  0  0  0  0  0  0
    2.0173    0.4093    0.0000 C   0  0  0  0  0  0  0  0  0  0  0  0
   -4.0931   -0.5408    0.0000 C   0  0  0  0  0  0  0  0  0  0  0  0
   -4.0931    0.2777    0.0000 C   0  0  0  0  0  0  0  0  0  0  0  0
    2.8506    0.3947    0.0000 C   0  0  0  0  0  0  0  0  0  0  0  0
    1.6226   -0.3070    0.0000 C   0  0  0  0  0  0  0  0  0  0  0  0
    3.2599   -0.3070    0.0000 C   0  0  0  0  0  0  0  0  0  0  0  0
    2.0319   -1.0379    0.0000 C   0  0  0  0  0  0  0  0  0  0  0  0
    2.8652   -1.0379    0.0000 C   0  0  0  0  0  0  0  0  0  0  0  0
    4.0931    1.1110    0.0000 C   0  0  0  0  0  0  0  0  0  0  0  0
  1 16  1  0  0  0  0
  2 11  1  0  0  0  0
  2 13  1  0  0  0  0
  3 10  1  0  0  0  0
  3 15  1  0  0  0  0
  4 13  2  0  0  0  0
  5 21  1  0  0  0  0
  5 26  1  0  0  0  0
  6  7  1  0  0  0  0
  6 10  2  0  0  0  0
  7 15  2  0  0  0  0
  8 15  1  0  0  0  0
  8 18  1  0  0  0  0
  9 10  1  0  0  0  0
  9 13  1  0  0  0  0
  9 14  2  0  0  0  0
 11 12  1  0  0  0  0
 11 16  2  0  0  0  0
 12 14  1  0  0  0  0
 12 17  2  0  0  0  0
 16 19  1  0  0  0  0
 17 20  1  0  0  0  0
 18 21  1  0  0  0  0
 18 22  2  0  0  0  0
 19 20  2  0  0  0  0
 21 23  2  0  0  0  0
 22 24  1  0  0  0  0
 23 25  1  0  0  0  0
 24 25  2  0  0  0  0
M  END
> <PUBCHEM_COMPOUND_ID_TYPE>
0

> <PUBCHEM_TOTAL_CHARGE>
0

> <PUBCHEM_SUBSTANCE_ID>
310941654

> <PUBCHEM_SUBSTANCE_VERSION>
1

> <PUBCHEM_EXT_DATASOURCE_NAME>
4488

> <PUBCHEM_EXT_DATASOURCE_REGID>
SCHEMBL16119685

> <PUBCHEM_SUBSTANCE_COMMENT>
InChI=1S/C18H12ClN3O4/c1-24-14-8-3-2-7-13(14)20-18-22-21-16(26-18)11-9-10-5-4-6-12(19)15(10)25-17(11)23/h2-9H,1H3,(H,20,22)
InChIKey=KLVKMWFKOLMWJZ-UHFFFAOYSA-N

> <PUBCHEM_SUBSTANCE_SYNONYM>
SCHEMBL16119685

> <PUBCHEM_XREF_EXT_ID>
SCHEMBL16119685

> <PUBCHEM_EXT_DATASOURCE_URL>
https://www.surechembl.org/

> <PUBCHEM_EXT_SUBSTANCE_URL>
https://www.surechembl.org/chemical/SCHEMBL16119685

> <PUBCHEM_CID_ASSOCIATIONS>
117608436  1

> <PUBCHEM_COORDINATE_TYPE>
1
3

$$$$
