310931319
  -OEChem-07211613022D

 30 33  0     0  0  0  0  0  0999 V2000
    0.8959   -2.6877    0.0000 O   0  0  0  0  0  0  0  0  0  0  0  0
    0.0000   -6.4147    0.0000 O   0  0  0  0  0  0  0  0  0  0  0  0
    3.4402   -6.7013    0.0000 O   0  0  0  0  0  0  0  0  0  0  0  0
    0.1792   -0.3942    0.0000 O   0  0  0  0  0  0  0  0  0  0  0  0
    2.3652   -2.4727    0.0000 N   0  0  0  0  0  0  0  0  0  0  0  0
    2.7594   -3.7628    0.0000 N   0  0  0  0  0  0  0  0  0  0  0  0
    3.7986   -2.6877    0.0000 N   0  0  0  0  0  0  0  0  0  0  0  0
    1.9352   -3.7628    0.0000 C   0  0  0  0  0  0  0  0  0  0  0  0
    1.6843   -2.9744    0.0000 C   0  0  0  0  0  0  0  0  0  0  0  0
    1.4693   -4.4078    0.0000 C   0  0  0  0  0  0  0  0  0  0  0  0
    2.3294   -4.4795    0.0000 C   0  0  0  0  0  0  0  0  0  0  0  0
    3.0102   -2.9744    0.0000 C   0  0  0  0  0  0  0  0  0  0  0  0
    1.7918   -5.1604    0.0000 C   0  0  0  0  0  0  0  0  0  0  0  0
    3.1536   -4.5153    0.0000 C   0  0  0  0  0  0  0  0  0  0  0  0
    0.6451   -4.3362    0.0000 C   0  0  0  0  0  0  0  0  0  0  0  0
    2.0427   -5.3396    0.0000 C   0  0  0  0  0  0  0  0  0  0  0  0
    2.3652   -1.6484    0.0000 C   0  0  0  0  0  0  0  0  0  0  0  0
    1.6484   -1.2184    0.0000 C   0  0  0  0  0  0  0  0  0  0  0  0
    1.3259   -5.8413    0.0000 C   0  0  0  0  0  0  0  0  0  0  0  0
    3.5120   -5.2679    0.0000 C   0  0  0  0  0  0  0  0  0  0  0  0
    0.1434   -5.0170    0.0000 C   0  0  0  0  0  0  0  0  0  0  0  0
    2.2577   -5.9130    0.0000 C   0  0  0  0  0  0  0  0  0  0  0  0
    0.5017   -5.7338    0.0000 C   0  0  0  0  0  0  0  0  0  0  0  0
    3.0461   -5.9488    0.0000 C   0  0  0  0  0  0  0  0  0  0  0  0
    1.6127   -0.3942    0.0000 C   0  0  0  0  0  0  0  0  0  0  0  0
    0.8959   -1.6484    0.0000 C   0  0  0  0  0  0  0  0  0  0  0  0
    0.9317    0.0000    0.0000 C   0  0  0  0  0  0  0  0  0  0  0  0
    0.2150   -1.2184    0.0000 C   0  0  0  0  0  0  0  0  0  0  0  0
    0.3225   -7.1672    0.0000 C   0  0  0  0  0  0  0  0  0  0  0  0
    4.2645   -6.7372    0.0000 C   0  0  0  0  0  0  0  0  0  0  0  0
  1  9  2  0  0  0  0
  2 23  1  0  0  0  0
  2 29  1  0  0  0  0
  3 24  1  0  0  0  0
  3 30  1  0  0  0  0
  4 27  1  0  0  0  0
  4 28  1  0  0  0  0
  5  9  1  0  0  0  0
  5 12  1  0  0  0  0
  5 17  1  0  0  0  0
  6  8  1  0  0  0  0
  6 12  1  0  0  0  0
  7 12  2  3  0  0  0
  8  9  1  0  0  0  0
  8 10  1  0  0  0  0
  8 11  1  0  0  0  0
 10 13  2  0  0  0  0
 10 15  1  0  0  0  0
 11 14  2  0  0  0  0
 11 16  1  0  0  0  0
 13 19  1  0  0  0  0
 14 20  1  0  0  0  0
 15 21  2  0  0  0  0
 16 22  2  0  0  0  0
 17 18  1  0  0  0  0
 18 25  1  0  0  0  0
 18 26  1  0  0  0  0
 19 23  2  0  0  0  0
 20 24  2  0  0  0  0
 21 23  1  0  0  0  0
 22 24  1  0  0  0  0
 25 27  1  0  0  0  0
 26 28  1  0  0  0  0
M  END
> <PUBCHEM_COMPOUND_ID_TYPE>
0

> <PUBCHEM_TOTAL_CHARGE>
0

> <PUBCHEM_SUBSTANCE_ID>
310931319

> <PUBCHEM_SUBSTANCE_VERSION>
1

> <PUBCHEM_EXT_DATASOURCE_NAME>
4488

> <PUBCHEM_EXT_DATASOURCE_REGID>
SCHEMBL16108637

> <PUBCHEM_SUBSTANCE_COMMENT>
InChI=1S/C23H27N3O4/c1-28-19-7-3-17(4-8-19)23(18-5-9-20(29-2)10-6-18)21(27)26(22(24)25-23)15-16-11-13-30-14-12-16/h3-10,16H,11-15H2,1-2H3,(H2,24,25)
InChIKey=KKROSRYNPGAQGH-UHFFFAOYSA-N

> <PUBCHEM_SUBSTANCE_SYNONYM>
SCHEMBL16108637

> <PUBCHEM_XREF_EXT_ID>
SCHEMBL16108637

> <PUBCHEM_EXT_DATASOURCE_URL>
https://www.surechembl.org/

> <PUBCHEM_EXT_SUBSTANCE_URL>
https://www.surechembl.org/chemical/SCHEMBL16108637

> <PUBCHEM_CID_ASSOCIATIONS>
76310284  1

> <PUBCHEM_COORDINATE_TYPE>
1
3

$$$$
