310935500
  -OEChem-07211613022D

 23 25  0     0  0  0  0  0  0999 V2000
    7.4475   -3.6366    0.0000 Cl  0  0  0  0  0  0  0  0  0  0  0  0
    5.0314   -0.7224    0.0000 O   0  0  0  0  0  0  0  0  0  0  0  0
    3.7612   -1.4446    0.0000 N   0  0  0  0  0  0  0  0  0  0  0  0
    2.0923   -2.9142    0.0000 N   0  0  0  0  0  0  0  0  0  0  0  0
    1.2703   -4.3340    0.0000 N   0  0  0  0  0  0  0  0  0  0  0  0
    0.0000   -3.6117    0.0000 N   0  0  0  0  0  0  0  0  0  0  0  0
    5.0066   -2.1670    0.0000 C   0  0  0  0  0  0  0  0  0  0  0  0
    5.8285   -2.1919    0.0000 C   0  0  0  0  0  0  0  0  0  0  0  0
    4.6080   -1.4446    0.0000 C   0  0  0  0  0  0  0  0  0  0  0  0
    3.7612   -2.8893    0.0000 C   0  0  0  0  0  0  0  0  0  0  0  0
    4.6080   -2.8893    0.0000 C   0  0  0  0  0  0  0  0  0  0  0  0
    3.3626   -2.1670    0.0000 C   0  0  0  0  0  0  0  0  0  0  0  0
    3.3377   -3.6117    0.0000 C   0  0  0  0  0  0  0  0  0  0  0  0
    2.5157   -3.6117    0.0000 C   0  0  0  0  0  0  0  0  0  0  0  0
    6.2270   -2.9142    0.0000 C   0  0  0  0  0  0  0  0  0  0  0  0
    6.2520   -1.4696    0.0000 C   0  0  0  0  0  0  0  0  0  0  0  0
    7.0490   -2.9142    0.0000 C   0  0  0  0  0  0  0  0  0  0  0  0
    2.0923   -4.3340    0.0000 C   0  0  0  0  0  0  0  0  0  0  0  0
    7.0739   -1.4696    0.0000 C   0  0  0  0  0  0  0  0  0  0  0  0
    7.4724   -2.2168    0.0000 C   0  0  0  0  0  0  0  0  0  0  0  0
    0.8469   -3.6117    0.0000 C   0  0  0  0  0  0  0  0  0  0  0  0
    1.2703   -2.9142    0.0000 C   0  0  0  0  0  0  0  0  0  0  0  0
    4.6080    0.0000    0.0000 C   0  0  0  0  0  0  0  0  0  0  0  0
  1 17  1  0  0  0  0
  2  9  1  0  0  0  0
  2 23  1  0  0  0  0
  3  9  2  0  0  0  0
  3 12  1  0  0  0  0
  4 14  1  0  0  0  0
  4 22  2  0  0  0  0
  5 18  1  0  0  0  0
  5 21  2  0  0  0  0
  6 21  1  0  0  0  0
  7  8  1  0  0  0  0
  7  9  1  0  0  0  0
  7 11  2  0  0  0  0
  8 15  1  0  0  0  0
  8 16  2  0  0  0  0
 10 11  1  0  0  0  0
 10 12  2  0  0  0  0
 10 13  1  0  0  0  0
 13 14  1  0  0  0  0
 14 18  2  0  0  0  0
 15 17  2  0  0  0  0
 16 19  1  0  0  0  0
 17 20  1  0  0  0  0
 19 20  2  0  0  0  0
 21 22  1  0  0  0  0
M  END
> <PUBCHEM_COMPOUND_ID_TYPE>
0

> <PUBCHEM_TOTAL_CHARGE>
0

> <PUBCHEM_SUBSTANCE_ID>
310935500

> <PUBCHEM_SUBSTANCE_VERSION>
1

> <PUBCHEM_EXT_DATASOURCE_NAME>
4488

> <PUBCHEM_EXT_DATASOURCE_REGID>
SCHEMBL16113066

> <PUBCHEM_SUBSTANCE_COMMENT>
InChI=1S/C17H15ClN4O/c1-23-17-15(12-3-2-4-13(18)7-12)6-11(8-22-17)5-14-9-21-16(19)10-20-14/h2-4,6-10H,5H2,1H3,(H2,19,21)
InChIKey=ITTOUFNXXNCHES-UHFFFAOYSA-N

> <PUBCHEM_SUBSTANCE_SYNONYM>
SCHEMBL16113066

> <PUBCHEM_XREF_EXT_ID>
SCHEMBL16113066

> <PUBCHEM_EXT_DATASOURCE_URL>
https://www.surechembl.org/

> <PUBCHEM_EXT_SUBSTANCE_URL>
https://www.surechembl.org/chemical/SCHEMBL16113066

> <PUBCHEM_CID_ASSOCIATIONS>
117603533  1

> <PUBCHEM_COORDINATE_TYPE>
1
3

$$$$
