310929182
  -OEChem-07211613022D

 16 16  0     0  0  0  0  0  0999 V2000
    2.1562   -3.7500    0.0000 Br  0  0  0  0  0  0  0  0  0  0  0  0
    2.1562   -0.4125    0.0000 O   0  0  0  0  0  0  0  0  0  0  0  0
    4.3312   -1.6687    0.0000 O   0  0  0  0  0  0  0  0  0  0  0  0
    3.5999   -0.4125    0.0000 O   0  0  0  0  0  0  0  0  0  0  0  0
    0.0000   -1.6687    0.0000 O   0  5  0  0  0  0  0  0  0  0  0  0
    0.7125   -0.4125    0.0000 O   0  0  0  0  0  0  0  0  0  0  0  0
    0.7125   -1.2562    0.0000 N   0  3  0  0  0  0  0  0  0  0  0  0
    2.1562   -1.2562    0.0000 C   0  0  0  0  0  0  0  0  0  0  0  0
    2.8875   -1.6687    0.0000 C   0  0  0  0  0  0  0  0  0  0  0  0
    1.4438   -1.6687    0.0000 C   0  0  0  0  0  0  0  0  0  0  0  0
    2.8875   -2.4937    0.0000 C   0  0  0  0  0  0  0  0  0  0  0  0
    2.1562   -2.9250    0.0000 C   0  0  0  0  0  0  0  0  0  0  0  0
    1.4438   -2.4937    0.0000 C   0  0  0  0  0  0  0  0  0  0  0  0
    3.5999   -1.2562    0.0000 C   0  0  0  0  0  0  0  0  0  0  0  0
    1.4438    0.0000    0.0000 C   0  0  0  0  0  0  0  0  0  0  0  0
    5.0625   -1.2562    0.0000 C   0  0  0  0  0  0  0  0  0  0  0  0
  1 12  1  0  0  0  0
  2  8  1  0  0  0  0
  2 15  1  0  0  0  0
  3 14  1  0  0  0  0
  3 16  1  0  0  0  0
  4 14  2  0  0  0  0
  5  7  1  0  0  0  0
  6  7  2  0  0  0  0
  7 10  1  0  0  0  0
  8  9  2  0  0  0  0
  8 10  1  0  0  0  0
  9 11  1  0  0  0  0
  9 14  1  0  0  0  0
 10 13  2  0  0  0  0
 11 12  2  0  0  0  0
 12 13  1  0  0  0  0
M  CHG  2   5  -1   7   1
M  END
> <PUBCHEM_COMPOUND_ID_TYPE>
0

> <PUBCHEM_TOTAL_CHARGE>
0

> <PUBCHEM_SUBSTANCE_ID>
310929182

> <PUBCHEM_SUBSTANCE_VERSION>
1

> <PUBCHEM_EXT_DATASOURCE_NAME>
4488

> <PUBCHEM_EXT_DATASOURCE_REGID>
SCHEMBL16106345

> <PUBCHEM_SUBSTANCE_COMMENT>
InChI=1S/C9H8BrNO5/c1-15-8-6(9(12)16-2)3-5(10)4-7(8)11(13)14/h3-4H,1-2H3
InChIKey=LNXQLOPQTUYEAM-UHFFFAOYSA-N

> <PUBCHEM_SUBSTANCE_SYNONYM>
SCHEMBL16106345

> <PUBCHEM_XREF_EXT_ID>
SCHEMBL16106345

> <PUBCHEM_EXT_DATASOURCE_URL>
https://www.surechembl.org/

> <PUBCHEM_EXT_SUBSTANCE_URL>
https://www.surechembl.org/chemical/SCHEMBL16106345

> <PUBCHEM_CID_ASSOCIATIONS>
71463975  1

> <PUBCHEM_COORDINATE_TYPE>
1
3

$$$$
