310947062
  -OEChem-07211613022D

 40 43  0     1  0  0  0  0  0999 V2000
    2.4810   -2.8672    0.0000 S   0  0  0  0  0  0  0  0  0  0  0  0
   -0.4035    2.0603    0.0000 O   0  0  0  0  0  0  0  0  0  0  0  0
   -2.5496   -2.4552    0.0000 O   0  0  0  0  0  0  0  0  0  0  0  0
   -2.1719    3.3652    0.0000 O   0  0  0  0  0  0  0  0  0  0  0  0
    3.3050   -3.0217    0.0000 O   0  0  0  0  0  0  0  0  0  0  0  0
    2.3264   -3.6742    0.0000 O   0  0  0  0  0  0  0  0  0  0  0  0
   -0.7641    3.6742    0.0000 O   0  0  0  0  0  0  0  0  0  0  0  0
   -1.0559   -0.1030    0.0000 N   0  0  0  0  0  0  0  0  0  0  0  0
   -0.5580   -0.7554    0.0000 N   0  0  0  0  0  0  0  0  0  0  0  0
   -0.7641   -2.2320    0.0000 N   0  0  0  0  0  0  0  0  0  0  0  0
   -3.2879   -1.2190    0.0000 N   0  0  0  0  0  0  0  0  0  0  0  0
    2.6526   -2.0431    0.0000 N   0  0  3  0  0  0  0  0  0  0  0  0
    1.3649    0.4636    0.0000 N   0  0  0  0  0  0  0  0  0  0  0  0
   -0.8156    0.7039    0.0000 C   0  0  3  0  0  0  0  0  0  0  0  0
   -1.8456   -0.3606    0.0000 C   0  0  0  0  0  0  0  0  0  0  0  0
   -1.8456   -1.1847    0.0000 C   0  0  0  0  0  0  0  0  0  0  0  0
   -1.0559   -1.4594    0.0000 C   0  0  0  0  0  0  0  0  0  0  0  0
   -2.5496   -1.5968    0.0000 C   0  0  0  0  0  0  0  0  0  0  0  0
   -0.2146    1.2705    0.0000 C   0  0  0  0  0  0  0  0  0  0  0  0
   -1.6225    0.9443    0.0000 C   0  0  0  0  0  0  0  0  0  0  0  0
   -2.6011    0.0344    0.0000 C   0  0  0  0  0  0  0  0  0  0  0  0
   -0.2318    0.0859    0.0000 C   0  0  0  0  0  0  0  0  0  0  0  0
   -1.1933    2.3350    0.0000 C   0  0  3  0  0  0  0  0  0  0  0  0
   -1.7941    1.7513    0.0000 C   0  0  0  0  0  0  0  0  0  0  0  0
   -3.2707   -0.3777    0.0000 C   0  0  0  0  0  0  0  0  0  0  0  0
    0.0429   -2.3865    0.0000 C   0  0  0  0  0  0  0  0  0  0  0  0
    1.6568   -2.6956    0.0000 C   0  0  0  0  0  0  0  0  0  0  0  0
   -1.3993    3.1248    0.0000 C   0  0  0  0  0  0  0  0  0  0  0  0
    0.5408    0.2747    0.0000 C   0  0  0  0  0  0  0  0  0  0  0  0
    0.5923   -1.7684    0.0000 C   0  0  0  0  0  0  0  0  0  0  0  0
    0.3176   -3.1591    0.0000 C   0  0  0  0  0  0  0  0  0  0  0  0
    1.3993   -1.9229    0.0000 C   0  0  0  0  0  0  0  0  0  0  0  0
    1.1246   -3.3136    0.0000 C   0  0  0  0  0  0  0  0  0  0  0  0
   -2.8071    2.7813    0.0000 C   0  0  0  0  0  0  0  0  0  0  0  0
    3.4252   -1.7855    0.0000 C   0  0  0  0  0  0  0  0  0  0  0  0
    2.0001   -1.5109    0.0000 C   0  0  0  0  0  0  0  0  0  0  0  0
   -3.5798    3.0217    0.0000 C   0  0  0  0  0  0  0  0  0  0  0  0
   -3.3909    2.2148    0.0000 C   0  0  0  0  0  0  0  0  0  0  0  0
   -2.5840    1.9744    0.0000 C   0  0  0  0  0  0  0  0  0  0  0  0
    3.5798   -0.9614    0.0000 C   0  0  0  0  0  0  0  0  0  0  0  0
  1  5  2  0  0  0  0
  1  6  2  0  0  0  0
  1 12  1  0  0  0  0
  1 27  1  0  0  0  0
  2 19  1  0  0  0  0
  2 23  1  0  0  0  0
  3 18  2  0  0  0  0
  4 28  1  0  0  0  0
  4 34  1  0  0  0  0
  7 28  2  0  0  0  0
  8  9  1  0  0  0  0
  8 14  1  0  0  0  0
  8 15  1  0  0  0  0
  9 17  2  0  0  0  0
 10 17  1  0  0  0  0
 10 26  1  0  0  0  0
 11 18  1  0  0  0  0
 11 25  1  0  0  0  0
 12 35  1  0  0  0  0
 12 36  1  0  0  0  0
 13 29  3  0  0  0  0
 14 19  1  0  0  0  0
 14 20  1  0  0  0  0
 14 22  1  1  0  0  0
 15 16  2  0  0  0  0
 15 21  1  0  0  0  0
 16 17  1  0  0  0  0
 16 18  1  0  0  0  0
 20 24  1  0  0  0  0
 21 25  2  0  0  0  0
 22 29  1  0  0  0  0
 23 24  1  0  0  0  0
 23 28  1  1  0  0  0
 26 30  2  0  0  0  0
 26 31  1  0  0  0  0
 27 32  2  0  0  0  0
 27 33  1  0  0  0  0
 30 32  1  0  0  0  0
 31 33  2  0  0  0  0
 34 37  1  0  0  0  0
 34 38  1  0  0  0  0
 34 39  1  0  0  0  0
 35 40  1  0  0  0  0
M  END
> <PUBCHEM_COMPOUND_ID_TYPE>
0

> <PUBCHEM_TOTAL_CHARGE>
0

> <PUBCHEM_SUBSTANCE_ID>
310947062

> <PUBCHEM_SUBSTANCE_VERSION>
1

> <PUBCHEM_EXT_DATASOURCE_NAME>
4488

> <PUBCHEM_EXT_DATASOURCE_REGID>
SCHEMBL16125216

> <PUBCHEM_SUBSTANCE_COMMENT>
InChI=1S/C27H34N6O6S/c1-6-32(5)40(36,37)19-9-7-18(8-10-19)30-23-22-20(12-16-29-24(22)34)33(31-23)27(14-15-28)13-11-21(38-17-27)25(35)39-26(2,3)4/h7-10,12,16,21H,6,11,13-14,17H2,1-5H3,(H,29,34)(H,30,31)/t21-,27-/m0/s1
InChIKey=JWHFFSSHJCWKJU-IDISGSTGSA-N

> <PUBCHEM_SUBSTANCE_SYNONYM>
SCHEMBL16125216

> <PUBCHEM_XREF_EXT_ID>
SCHEMBL16125216

> <PUBCHEM_EXT_DATASOURCE_URL>
https://www.surechembl.org/

> <PUBCHEM_EXT_SUBSTANCE_URL>
https://www.surechembl.org/chemical/SCHEMBL16125216

> <PUBCHEM_CID_ASSOCIATIONS>
117612915  1

> <PUBCHEM_COORDINATE_TYPE>
1
3

> <PUBCHEM_BONDANNOTATIONS>
14  22  5
23  28  5

$$$$
