310945898
  -OEChem-07211613022D

 35 38  0     1  0  0  0  0  0999 V2000
    3.6701    1.5206    0.0000 O   0  0  0  0  0  0  0  0  0  0  0  0
    1.4030    1.5482    0.0000 O   0  0  0  0  0  0  0  0  0  0  0  0
    0.6842    1.1335    0.0000 O   0  0  0  0  0  0  0  0  0  0  0  0
   -0.0346    1.5620    0.0000 O   0  0  0  0  0  0  0  0  0  0  0  0
   -2.9513   -2.5435    0.0000 O   0  0  0  0  0  0  0  0  0  0  0  0
    1.3893   -0.0967    0.0000 N   0  0  0  0  0  0  0  0  0  0  0  0
   -0.7672    0.3318    0.0000 N   0  0  0  0  0  0  0  0  0  0  0  0
   -2.2325    1.2579    0.0000 N   0  0  0  0  0  0  0  0  0  0  0  0
   -2.3569    2.5850    0.0000 N   0  0  0  0  0  0  0  0  0  0  0  0
    2.8546    1.5482    0.0000 C   0  0  3  0  0  0  0  0  0  0  0  0
    2.1081    1.0783    0.0000 C   0  0  0  0  0  0  0  0  0  0  0  0
    3.2554    0.8570    0.0000 C   0  0  0  0  0  0  0  0  0  0  0  0
    2.1081    0.3041    0.0000 C   0  0  3  0  0  0  0  0  0  0  0  0
    2.8684    2.3776    0.0000 C   0  0  0  0  0  0  0  0  0  0  0  0
    2.8269   -0.0967    0.0000 C   0  0  0  0  0  0  0  0  0  0  0  0
    0.6566    0.3041    0.0000 C   0  0  0  0  0  0  0  0  0  0  0  0
   -0.0346   -0.0692    0.0000 C   0  0  3  0  0  0  0  0  0  0  0  0
    2.8269   -0.9400    0.0000 C   0  0  0  0  0  0  0  0  0  0  0  0
   -0.0207   -0.9124    0.0000 C   0  0  0  0  0  0  0  0  0  0  0  0
   -0.7810    1.1612    0.0000 C   0  0  0  0  0  0  0  0  0  0  0  0
   -0.7810   -1.3132    0.0000 C   0  0  0  0  0  0  0  0  0  0  0  0
   -1.4860    1.5897    0.0000 C   0  0  0  0  0  0  0  0  0  0  0  0
    3.5319   -1.3685    0.0000 C   0  0  0  0  0  0  0  0  0  0  0  0
    2.1081   -1.3547    0.0000 C   0  0  0  0  0  0  0  0  0  0  0  0
   -1.4999   -0.9124    0.0000 C   0  0  0  0  0  0  0  0  0  0  0  0
   -0.7810   -2.1426    0.0000 C   0  0  0  0  0  0  0  0  0  0  0  0
   -1.5414    2.4053    0.0000 C   0  0  0  0  0  0  0  0  0  0  0  0
   -2.2325   -2.1288    0.0000 C   0  0  0  0  0  0  0  0  0  0  0  0
   -2.2048   -1.2994    0.0000 C   0  0  0  0  0  0  0  0  0  0  0  0
   -1.4722   -2.5297    0.0000 C   0  0  0  0  0  0  0  0  0  0  0  0
    3.5319   -2.1841    0.0000 C   0  0  0  0  0  0  0  0  0  0  0  0
    2.1081   -2.1703    0.0000 C   0  0  0  0  0  0  0  0  0  0  0  0
   -2.7854    1.8800    0.0000 C   0  0  0  0  0  0  0  0  0  0  0  0
    2.8269   -2.5850    0.0000 C   0  0  0  0  0  0  0  0  0  0  0  0
   -3.6701   -2.1426    0.0000 C   0  0  0  0  0  0  0  0  0  0  0  0
  1 10  1  0  0  0  0
  1 12  1  0  0  0  0
  2 11  2  0  0  0  0
  3 16  2  0  0  0  0
  4 20  2  0  0  0  0
  5 28  1  0  0  0  0
  5 35  1  0  0  0  0
 13  6  1  6  0  0  0
  6 16  1  0  0  0  0
 17  7  1  6  0  0  0
  7 20  1  0  0  0  0
  8 22  1  0  0  0  0
  8 33  2  0  0  0  0
  9 27  1  0  0  0  0
  9 33  1  0  0  0  0
 10 11  1  6  0  0  0
 10 12  1  0  0  0  0
 10 14  1  1  0  0  0
 11 13  1  0  0  0  0
 13 15  1  0  0  0  0
 15 18  1  0  0  0  0
 16 17  1  0  0  0  0
 17 19  1  0  0  0  0
 18 23  2  0  0  0  0
 18 24  1  0  0  0  0
 19 21  1  0  0  0  0
 20 22  1  0  0  0  0
 21 25  2  0  0  0  0
 21 26  1  0  0  0  0
 22 27  2  0  0  0  0
 23 31  1  0  0  0  0
 24 32  2  0  0  0  0
 25 29  1  0  0  0  0
 26 30  2  0  0  0  0
 28 29  2  0  0  0  0
 28 30  1  0  0  0  0
 31 34  2  0  0  0  0
 32 34  1  0  0  0  0
M  END
> <PUBCHEM_COMPOUND_ID_TYPE>
0

> <PUBCHEM_TOTAL_CHARGE>
0

> <PUBCHEM_SUBSTANCE_ID>
310945898

> <PUBCHEM_SUBSTANCE_VERSION>
1

> <PUBCHEM_EXT_DATASOURCE_NAME>
4488

> <PUBCHEM_EXT_DATASOURCE_REGID>
SCHEMBL16124003

> <PUBCHEM_SUBSTANCE_COMMENT>
InChI=1S/C26H28N4O5/c1-26(15-35-26)23(31)20(12-17-6-4-3-5-7-17)29-24(32)21(30-25(33)22-14-27-16-28-22)13-18-8-10-19(34-2)11-9-18/h3-11,14,16,20-21H,12-13,15H2,1-2H3,(H,27,28)(H,29,32)(H,30,33)/t20-,21-,26+/m0/s1
InChIKey=SXSHUSXZJXQEBP-ISJBWFOZSA-N

> <PUBCHEM_SUBSTANCE_SYNONYM>
SCHEMBL16124003

> <PUBCHEM_XREF_EXT_ID>
SCHEMBL16124003

> <PUBCHEM_EXT_DATASOURCE_URL>
https://www.surechembl.org/

> <PUBCHEM_EXT_SUBSTANCE_URL>
https://www.surechembl.org/chemical/SCHEMBL16124003

> <PUBCHEM_CID_ASSOCIATIONS>
117611882  1

> <PUBCHEM_COORDINATE_TYPE>
1
3

> <PUBCHEM_BONDANNOTATIONS>
10  11  6
10  14  5
13  6  6
17  7  6

$$$$
