310937437
  -OEChem-07211613022D

 21 22  0     0  0  0  0  0  0999 V2000
    0.0000   -4.9085    0.0000 Br  0  0  0  0  0  0  0  0  0  0  0  0
    3.2396   -1.2517    0.0000 O   0  0  0  0  0  0  0  0  0  0  0  0
    3.9514   -2.4788    0.0000 O   0  0  0  0  0  0  0  0  0  0  0  0
    4.4913   -4.1232    0.0000 O   0  0  0  0  0  0  0  0  0  0  0  0
    4.0250   -2.7487    0.0000 O   0  0  0  0  0  0  0  0  0  0  0  0
    1.6443   -3.4851    0.0000 N   0  0  0  0  0  0  0  0  0  0  0  0
    1.7916   -2.1352    0.0000 N   0  0  0  0  0  0  0  0  0  0  0  0
    2.4542   -3.2887    0.0000 C   0  0  0  0  0  0  0  0  0  0  0  0
    2.5279   -2.4788    0.0000 C   0  0  0  0  0  0  0  0  0  0  0  0
    1.2271   -2.7733    0.0000 C   0  0  0  0  0  0  0  0  0  0  0  0
    3.2396   -2.0616    0.0000 C   0  0  0  0  0  0  0  0  0  0  0  0
    1.2271   -4.1968    0.0000 C   0  0  0  0  0  0  0  0  0  0  0  0
    3.0924   -3.8287    0.0000 C   0  0  0  0  0  0  0  0  0  0  0  0
    0.4172   -2.7733    0.0000 C   0  0  0  0  0  0  0  0  0  0  0  0
    0.4172   -4.1968    0.0000 C   0  0  0  0  0  0  0  0  0  0  0  0
    0.0000   -3.4851    0.0000 C   0  0  0  0  0  0  0  0  0  0  0  0
    3.8532   -3.5832    0.0000 C   0  0  0  0  0  0  0  0  0  0  0  0
    3.9514   -0.8344    0.0000 C   0  0  0  0  0  0  0  0  0  0  0  0
    5.2521   -3.8532    0.0000 C   0  0  0  0  0  0  0  0  0  0  0  0
    3.9268    0.0000    0.0000 C   0  0  0  0  0  0  0  0  0  0  0  0
    5.4239   -3.0433    0.0000 C   0  0  0  0  0  0  0  0  0  0  0  0
  1 15  1  0  0  0  0
  2 11  1  0  0  0  0
  2 18  1  0  0  0  0
  3 11  2  0  0  0  0
  4 17  1  0  0  0  0
  4 19  1  0  0  0  0
  5 17  2  0  0  0  0
  6  8  1  0  0  0  0
  6 10  1  0  0  0  0
  6 12  1  0  0  0  0
  7  9  1  0  0  0  0
  7 10  2  0  0  0  0
  8  9  2  0  0  0  0
  8 13  1  0  0  0  0
  9 11  1  0  0  0  0
 10 14  1  0  0  0  0
 12 15  2  0  0  0  0
 13 17  1  0  0  0  0
 14 16  2  0  0  0  0
 15 16  1  0  0  0  0
 18 20  1  0  0  0  0
 19 21  1  0  0  0  0
M  END
> <PUBCHEM_COMPOUND_ID_TYPE>
0

> <PUBCHEM_TOTAL_CHARGE>
0

> <PUBCHEM_SUBSTANCE_ID>
310937437

> <PUBCHEM_SUBSTANCE_VERSION>
1

> <PUBCHEM_EXT_DATASOURCE_NAME>
4488

> <PUBCHEM_EXT_DATASOURCE_REGID>
SCHEMBL16115202

> <PUBCHEM_SUBSTANCE_COMMENT>
InChI=1S/C14H15BrN2O4/c1-3-20-12(18)7-10-13(14(19)21-4-2)16-11-6-5-9(15)8-17(10)11/h5-6,8H,3-4,7H2,1-2H3
InChIKey=SMPWKDHNHKMXIP-UHFFFAOYSA-N

> <PUBCHEM_SUBSTANCE_SYNONYM>
SCHEMBL16115202

> <PUBCHEM_XREF_EXT_ID>
SCHEMBL16115202

> <PUBCHEM_EXT_DATASOURCE_URL>
https://www.surechembl.org/

> <PUBCHEM_EXT_SUBSTANCE_URL>
https://www.surechembl.org/chemical/SCHEMBL16115202

> <PUBCHEM_CID_ASSOCIATIONS>
117605187  1

> <PUBCHEM_COORDINATE_TYPE>
1
3

$$$$
