310949546
  -OEChem-07211613022D

 30 33  0     1  0  0  0  0  0999 V2000
   -2.1356    2.3566    0.0000 Cl  0  0  0  0  0  0  0  0  0  0  0  0
   -3.5790    0.7070    0.0000 F   0  0  0  0  0  0  0  0  0  0  0  0
   -4.2860    1.1194    0.0000 F   0  0  0  0  0  0  0  0  0  0  0  0
   -3.5790    2.3713    0.0000 F   0  0  0  0  0  0  0  0  0  0  0  0
   -0.7070    2.3566    0.0000 O   0  0  0  0  0  0  0  0  0  0  0  0
    0.0147    1.1194    0.0000 N   0  0  0  0  0  0  0  0  0  0  0  0
    2.2387    0.0441    0.0000 N   0  0  0  0  0  0  0  0  0  0  0  0
    2.2387    1.3845    0.0000 N   0  0  0  0  0  0  0  0  0  0  0  0
    2.7248    0.7070    0.0000 N   0  0  0  0  0  0  0  0  0  0  0  0
    3.2550   -0.9868    0.0000 N   0  0  0  0  0  0  0  0  0  0  0  0
    1.8706   -1.3550    0.0000 N   0  0  0  0  0  0  0  0  0  0  0  0
    1.4582    1.1194    0.0000 C   0  0  0  0  0  0  0  0  0  0  0  0
    1.4434    0.2945    0.0000 C   0  0  0  0  0  0  0  0  0  0  0  0
    0.7217    1.5318    0.0000 C   0  0  3  0  0  0  0  0  0  0  0  0
   -0.7217    1.5171    0.0000 C   0  0  0  0  0  0  0  0  0  0  0  0
   -1.4139    1.1194    0.0000 C   0  0  0  0  0  0  0  0  0  0  0  0
    0.7512   -0.1179    0.0000 C   0  0  0  0  0  0  0  0  0  0  0  0
    2.4450   -0.7512    0.0000 C   0  0  0  0  0  0  0  0  0  0  0  0
   -2.1503    1.5318    0.0000 C   0  0  0  0  0  0  0  0  0  0  0  0
    0.0147    0.2945    0.0000 C   0  0  0  0  0  0  0  0  0  0  0  0
   -2.8574    1.1194    0.0000 C   0  0  0  0  0  0  0  0  0  0  0  0
   -3.5790    1.5171    0.0000 C   0  0  0  0  0  0  0  0  0  0  0  0
   -1.4287    0.2945    0.0000 C   0  0  0  0  0  0  0  0  0  0  0  0
    0.7364    2.3566    0.0000 C   0  0  0  0  0  0  0  0  0  0  0  0
   -2.8574    0.2945    0.0000 C   0  0  0  0  0  0  0  0  0  0  0  0
   -2.1356   -0.1179    0.0000 C   0  0  0  0  0  0  0  0  0  0  0  0
    3.4612   -1.7674    0.0000 C   0  0  0  0  0  0  0  0  0  0  0  0
    2.0767   -2.1503    0.0000 C   0  0  0  0  0  0  0  0  0  0  0  0
    2.8868   -2.3713    0.0000 C   0  0  0  0  0  0  0  0  0  0  0  0
    4.2860   -1.9883    0.0000 C   0  0  0  0  0  0  0  0  0  0  0  0
  1 19  1  0  0  0  0
  2 22  1  0  0  0  0
  3 22  1  0  0  0  0
  4 22  1  0  0  0  0
  5 15  2  0  0  0  0
  6 14  1  0  0  0  0
  6 15  1  0  0  0  0
  6 20  1  0  0  0  0
  7  9  1  0  0  0  0
  7 13  1  0  0  0  0
  7 18  1  0  0  0  0
  8  9  2  0  0  0  0
  8 12  1  0  0  0  0
 10 18  2  0  0  0  0
 10 27  1  0  0  0  0
 11 18  1  0  0  0  0
 11 28  2  0  0  0  0
 12 13  2  0  0  0  0
 12 14  1  0  0  0  0
 13 17  1  0  0  0  0
 14 24  1  1  0  0  0
 15 16  1  0  0  0  0
 16 19  1  0  0  0  0
 16 23  2  0  0  0  0
 17 20  1  0  0  0  0
 19 21  2  0  0  0  0
 21 22  1  0  0  0  0
 21 25  1  0  0  0  0
 23 26  1  0  0  0  0
 25 26  2  0  0  0  0
 27 29  2  0  0  0  0
 27 30  1  0  0  0  0
 28 29  1  0  0  0  0
M  END
> <PUBCHEM_COMPOUND_ID_TYPE>
0

> <PUBCHEM_TOTAL_CHARGE>
0

> <PUBCHEM_SUBSTANCE_ID>
310949546

> <PUBCHEM_SUBSTANCE_VERSION>
1

> <PUBCHEM_EXT_DATASOURCE_NAME>
4488

> <PUBCHEM_EXT_DATASOURCE_REGID>
SCHEMBL16127741

> <PUBCHEM_SUBSTANCE_COMMENT>
InChI=1S/C19H16ClF3N6O/c1-10-6-8-24-18(25-10)29-14-7-9-28(11(2)16(14)26-27-29)17(30)12-4-3-5-13(15(12)20)19(21,22)23/h3-6,8,11H,7,9H2,1-2H3/t11-/m0/s1
InChIKey=NNUKCIPJCGVOKK-NSHDSACASA-N

> <PUBCHEM_SUBSTANCE_SYNONYM>
SCHEMBL16127741

> <PUBCHEM_XREF_EXT_ID>
SCHEMBL16127741

> <PUBCHEM_EXT_DATASOURCE_URL>
https://www.surechembl.org/

> <PUBCHEM_EXT_SUBSTANCE_URL>
https://www.surechembl.org/chemical/SCHEMBL16127741

> <PUBCHEM_CID_ASSOCIATIONS>
117614969  1

> <PUBCHEM_COORDINATE_TYPE>
1
3

> <PUBCHEM_BONDANNOTATIONS>
14  24  5

$$$$
