310949134
  -OEChem-07211613022D

 45 53  0     0  0  0  0  0  0999 V2000
   -0.0890    0.7281    0.0000 N   0  0  0  0  0  0  0  0  0  0  0  0
   -1.5290   -1.7636    0.0000 N   0  0  0  0  0  0  0  0  0  0  0  0
   -1.8688    2.4593    0.0000 N   0  0  0  0  0  0  0  0  0  0  0  0
   -2.2409    0.2750    0.0000 N   0  0  0  0  0  0  0  0  0  0  0  0
    2.0791    0.2427    0.0000 N   0  0  0  0  0  0  0  0  0  0  0  0
    0.5744    1.2620    0.0000 C   0  0  0  0  0  0  0  0  0  0  0  0
    0.3317    2.0063    0.0000 C   0  0  0  0  0  0  0  0  0  0  0  0
    1.9497    1.6989    0.0000 C   0  0  0  0  0  0  0  0  0  0  0  0
    1.7070    2.4593    0.0000 C   0  0  0  0  0  0  0  0  0  0  0  0
    2.7910    1.6827    0.0000 C   0  0  0  0  0  0  0  0  0  0  0  0
   -0.8009    1.2459    0.0000 C   0  0  0  0  0  0  0  0  0  0  0  0
   -0.5096    2.0386    0.0000 C   0  0  0  0  0  0  0  0  0  0  0  0
   -0.1052   -0.0809    0.0000 C   0  0  0  0  0  0  0  0  0  0  0  0
    2.3703    2.9448    0.0000 C   0  0  0  0  0  0  0  0  0  0  0  0
    3.0499    2.4917    0.0000 C   0  0  0  0  0  0  0  0  0  0  0  0
    1.3996    1.0841    0.0000 C   0  0  0  0  0  0  0  0  0  0  0  0
    0.8656    2.6212    0.0000 C   0  0  0  0  0  0  0  0  0  0  0  0
   -0.8170   -0.4854    0.0000 C   0  0  0  0  0  0  0  0  0  0  0  0
   -0.8494   -1.3106    0.0000 C   0  0  0  0  0  0  0  0  0  0  0  0
    0.6391   -0.4692    0.0000 C   0  0  0  0  0  0  0  0  0  0  0  0
   -2.3057   -1.3753    0.0000 C   0  0  0  0  0  0  0  0  0  0  0  0
   -1.6423   -2.5564    0.0000 C   0  0  0  0  0  0  0  0  0  0  0  0
   -2.8558   -1.9902    0.0000 C   0  0  0  0  0  0  0  0  0  0  0  0
   -2.4512   -2.7020    0.0000 C   0  0  0  0  0  0  0  0  0  0  0  0
   -1.5937    1.0841    0.0000 C   0  0  0  0  0  0  0  0  0  0  0  0
   -1.0436    2.6050    0.0000 C   0  0  0  0  0  0  0  0  0  0  0  0
    2.4836    3.7699    0.0000 C   0  0  0  0  0  0  0  0  0  0  0  0
    3.8104    2.7991    0.0000 C   0  0  0  0  0  0  0  0  0  0  0  0
   -0.0890   -1.6989    0.0000 C   0  0  0  0  0  0  0  0  0  0  0  0
    0.6067   -1.3106    0.0000 C   0  0  0  0  0  0  0  0  0  0  0  0
    3.6647    1.6342    0.0000 C   0  0  0  0  0  0  0  0  0  0  0  0
    3.3088    1.0194    0.0000 C   0  0  0  0  0  0  0  0  0  0  0  0
   -1.5452   -0.0971    0.0000 C   0  0  0  0  0  0  0  0  0  0  0  0
   -2.1115    1.6666    0.0000 C   0  0  0  0  0  0  0  0  0  0  0  0
   -2.5645   -0.6148    0.0000 C   0  0  0  0  0  0  0  0  0  0  0  0
   -1.0760   -3.1713    0.0000 C   0  0  0  0  0  0  0  0  0  0  0  0
    1.3511   -0.0971    0.0000 C   0  0  0  0  0  0  0  0  0  0  0  0
    3.1956    4.1097    0.0000 C   0  0  0  0  0  0  0  0  0  0  0  0
    3.9236    3.6081    0.0000 C   0  0  0  0  0  0  0  0  0  0  0  0
   -3.6485   -1.8283    0.0000 C   0  0  0  0  0  0  0  0  0  0  0  0
   -2.6777   -3.5273    0.0000 C   0  0  0  0  0  0  0  0  0  0  0  0
   -3.3735   -0.4369    0.0000 C   0  0  0  0  0  0  0  0  0  0  0  0
   -1.3349   -3.9641    0.0000 C   0  0  0  0  0  0  0  0  0  0  0  0
   -3.9236   -1.0679    0.0000 C   0  0  0  0  0  0  0  0  0  0  0  0
   -2.1276   -4.1097    0.0000 C   0  0  0  0  0  0  0  0  0  0  0  0
  1  6  1  0  0  0  0
  1 11  1  0  0  0  0
  1 13  1  0  0  0  0
  2 19  1  0  0  0  0
  2 21  1  0  0  0  0
  2 22  1  0  0  0  0
  3 26  2  0  0  0  0
  3 34  1  0  0  0  0
  4 33  3  0  0  0  0
  5 37  3  0  0  0  0
  6  7  2  0  0  0  0
  6 16  1  0  0  0  0
  7 12  1  0  0  0  0
  7 17  1  0  0  0  0
  8  9  1  0  0  0  0
  8 10  1  0  0  0  0
  8 16  2  0  0  0  0
  9 14  1  0  0  0  0
  9 17  2  0  0  0  0
 10 15  1  0  0  0  0
 10 31  1  0  0  0  0
 10 32  1  0  0  0  0
 11 12  2  0  0  0  0
 11 25  1  0  0  0  0
 12 26  1  0  0  0  0
 13 18  1  0  0  0  0
 13 20  2  0  0  0  0
 14 15  2  0  0  0  0
 14 27  1  0  0  0  0
 15 28  1  0  0  0  0
 18 19  2  0  0  0  0
 18 33  1  0  0  0  0
 19 29  1  0  0  0  0
 20 30  1  0  0  0  0
 20 37  1  0  0  0  0
 21 23  2  0  0  0  0
 21 35  1  0  0  0  0
 22 24  2  0  0  0  0
 22 36  1  0  0  0  0
 23 24  1  0  0  0  0
 23 40  1  0  0  0  0
 24 41  1  0  0  0  0
 25 34  2  0  0  0  0
 27 38  2  0  0  0  0
 28 39  2  0  0  0  0
 29 30  2  0  0  0  0
 35 42  2  0  0  0  0
 36 43  2  0  0  0  0
 38 39  1  0  0  0  0
 40 44  2  0  0  0  0
 41 45  2  0  0  0  0
 42 44  1  0  0  0  0
 43 45  1  0  0  0  0
M  END
> <PUBCHEM_COMPOUND_ID_TYPE>
0

> <PUBCHEM_TOTAL_CHARGE>
0

> <PUBCHEM_SUBSTANCE_ID>
310949134

> <PUBCHEM_SUBSTANCE_VERSION>
1

> <PUBCHEM_EXT_DATASOURCE_NAME>
4488

> <PUBCHEM_EXT_DATASOURCE_REGID>
SCHEMBL16127324

> <PUBCHEM_SUBSTANCE_COMMENT>
InChI=1S/C40H25N5/c1-40(2)32-12-6-3-9-25(32)28-19-29-31-23-43-18-17-37(31)45(38(29)20-33(28)40)39-24(21-41)15-16-36(30(39)22-42)44-34-13-7-4-10-26(34)27-11-5-8-14-35(27)44/h3-20,23H,1-2H3
InChIKey=LMNXMANPXKUXOS-UHFFFAOYSA-N

> <PUBCHEM_SUBSTANCE_SYNONYM>
SCHEMBL16127324

> <PUBCHEM_XREF_EXT_ID>
SCHEMBL16127324

> <PUBCHEM_EXT_DATASOURCE_URL>
https://www.surechembl.org/

> <PUBCHEM_EXT_SUBSTANCE_URL>
https://www.surechembl.org/chemical/SCHEMBL16127324

> <PUBCHEM_CID_ASSOCIATIONS>
117614631  1

> <PUBCHEM_COORDINATE_TYPE>
1
3

$$$$
