310931675
  -OEChem-07211613022D

 36 40  0     1  0  0  0  0  0999 V2000
    6.3705   -5.8397    0.0000 F   0  0  0  0  0  0  0  0  0  0  0  0
    0.0000   -4.6217    0.0000 F   0  0  0  0  0  0  0  0  0  0  0  0
    0.7182   -5.8397    0.0000 F   0  0  0  0  0  0  0  0  0  0  0  0
    0.7182   -4.1845    0.0000 F   0  0  0  0  0  0  0  0  0  0  0  0
    4.9965   -5.8397    0.0000 O   0  0  0  0  0  0  0  0  0  0  0  0
    4.2783   -4.5905    0.0000 N   0  0  0  0  0  0  0  0  0  0  0  0
    4.9965   -3.3726    0.0000 N   0  0  0  0  0  0  0  0  0  0  0  0
    3.5600   -2.5607    0.0000 N   0  0  0  0  0  0  0  0  0  0  0  0
    5.7147   -1.3428    0.0000 N   0  0  0  0  0  0  0  0  0  0  0  0
    4.8403   -0.1249    0.0000 N   0  0  0  0  0  0  0  0  0  0  0  0
    4.2783   -3.7786    0.0000 C   0  0  0  0  0  0  0  0  0  0  0  0
    5.7147   -4.5905    0.0000 C   0  0  0  0  0  0  0  0  0  0  0  0
    4.9965   -4.9965    0.0000 C   0  0  0  0  0  0  0  0  0  0  0  0
    5.7147   -3.7786    0.0000 C   0  0  0  0  0  0  0  0  0  0  0  0
    3.5600   -4.9965    0.0000 C   0  0  0  0  0  0  0  0  0  0  0  0
    3.5600   -3.3726    0.0000 C   0  0  3  0  0  0  0  0  0  0  0  0
    6.4017   -4.9965    0.0000 C   0  0  0  0  0  0  0  0  0  0  0  0
    6.4017   -3.3726    0.0000 C   0  0  0  0  0  0  0  0  0  0  0  0
    4.2783   -2.1547    0.0000 C   0  0  0  0  0  0  0  0  0  0  0  0
    3.0291   -4.7779    0.0000 C   0  0  0  0  0  0  0  0  0  0  0  0
    4.2783   -1.3116    0.0000 C   0  0  0  0  0  0  0  0  0  0  0  0
    3.5600   -5.8397    0.0000 C   0  0  0  0  0  0  0  0  0  0  0  0
    7.1200   -4.5905    0.0000 C   0  0  0  0  0  0  0  0  0  0  0  0
    2.1547   -5.0277    0.0000 C   0  0  0  0  0  0  0  0  0  0  0  0
    7.1200   -3.7786    0.0000 C   0  0  0  0  0  0  0  0  0  0  0  0
    4.9965   -0.9056    0.0000 C   0  0  0  0  0  0  0  0  0  0  0  0
    2.8418   -3.7786    0.0000 C   0  0  0  0  0  0  0  0  0  0  0  0
    4.9340   -2.5607    0.0000 C   0  0  0  0  0  0  0  0  0  0  0  0
    2.8730   -6.2456    0.0000 C   0  0  0  0  0  0  0  0  0  0  0  0
    2.1547   -5.8397    0.0000 C   0  0  0  0  0  0  0  0  0  0  0  0
    3.6849   -0.7495    0.0000 C   0  0  0  0  0  0  0  0  0  0  0  0
    1.4365   -4.6217    0.0000 C   0  0  0  0  0  0  0  0  0  0  0  0
    5.7147   -2.1547    0.0000 C   0  0  0  0  0  0  0  0  0  0  0  0
    4.0284    0.0000    0.0000 C   0  0  0  0  0  0  0  0  0  0  0  0
    0.7182   -5.0277    0.0000 C   0  0  0  0  0  0  0  0  0  0  0  0
    2.8418   -4.5905    0.0000 C   0  0  0  0  0  0  0  0  0  0  0  0
  1 17  1  0  0  0  0
  2 35  1  0  0  0  0
  3 35  1  0  0  0  0
  4 35  1  0  0  0  0
  5 13  2  0  0  0  0
  6 11  1  0  0  0  0
  6 13  1  0  0  0  0
  6 15  1  0  0  0  0
  7 11  2  0  0  0  0
  7 14  1  0  0  0  0
 16  8  1  6  0  0  0
  8 19  1  0  0  0  0
  9 26  1  0  0  0  0
  9 33  2  0  0  0  0
 10 26  1  0  0  0  0
 10 34  1  0  0  0  0
 11 16  1  0  0  0  0
 12 13  1  0  0  0  0
 12 14  2  0  0  0  0
 12 17  1  0  0  0  0
 14 18  1  0  0  0  0
 15 20  1  0  0  0  0
 15 22  2  0  0  0  0
 16 27  1  0  0  0  0
 17 23  2  0  0  0  0
 18 25  2  0  0  0  0
 19 21  1  0  0  0  0
 19 28  2  0  0  0  0
 20 24  2  0  0  0  0
 21 26  2  0  0  0  0
 21 31  1  0  0  0  0
 22 29  1  0  0  0  0
 23 25  1  0  0  0  0
 24 30  1  0  0  0  0
 24 32  1  0  0  0  0
 27 36  1  0  0  0  0
 28 33  1  0  0  0  0
 29 30  2  0  0  0  0
 31 34  2  0  0  0  0
 32 35  1  0  0  0  0
M  END
> <PUBCHEM_COMPOUND_ID_TYPE>
0

> <PUBCHEM_TOTAL_CHARGE>
0

> <PUBCHEM_SUBSTANCE_ID>
310931675

> <PUBCHEM_SUBSTANCE_VERSION>
1

> <PUBCHEM_EXT_DATASOURCE_NAME>
4488

> <PUBCHEM_EXT_DATASOURCE_REGID>
SCHEMBL16109001

> <PUBCHEM_SUBSTANCE_COMMENT>
InChI=1S/C26H21F4N5O/c1-2-19(33-20-10-12-32-23-17(20)9-11-31-23)24-34-21-8-4-7-18(27)22(21)25(36)35(24)16-6-3-5-15(13-16)14-26(28,29)30/h3-13,19H,2,14H2,1H3,(H2,31,32,33)/t19-/m0/s1
InChIKey=NJTNHBOFCGUTIG-IBGZPJMESA-N

> <PUBCHEM_SUBSTANCE_SYNONYM>
SCHEMBL16109001

> <PUBCHEM_XREF_EXT_ID>
SCHEMBL16109001

> <PUBCHEM_EXT_DATASOURCE_URL>
https://www.surechembl.org/

> <PUBCHEM_EXT_SUBSTANCE_URL>
https://www.surechembl.org/chemical/SCHEMBL16109001

> <PUBCHEM_CID_ASSOCIATIONS>
86272147  1

> <PUBCHEM_COORDINATE_TYPE>
1
3

> <PUBCHEM_BONDANNOTATIONS>
16  8  6

$$$$
