310934565
  -OEChem-07211613022D

 26 28  0     0  0  0  0  0  0999 V2000
    2.5952   -1.6493    0.0000 Cl  0  0  0  0  0  0  0  0  0  0  0  0
    0.0000   -4.4386    0.0000 Cl  0  0  0  0  0  0  0  0  0  0  0  0
    7.2764   -0.7277    0.0000 S   0  0  0  0  0  0  0  0  0  0  0  0
    1.6251   -2.1102    0.0000 F   0  0  0  0  0  0  0  0  0  0  0  0
    3.6867   -3.4684    0.0000 O   0  0  0  0  0  0  0  0  0  0  0  0
    4.3415    0.0000    0.0000 O   0  0  0  0  0  0  0  0  0  0  0  0
    3.5169   -1.4310    0.0000 O   0  0  0  0  0  0  0  0  0  0  0  0
    5.1905   -1.4310    0.0000 N   0  0  0  0  0  0  0  0  0  0  0  0
    4.3173   -2.9105    0.0000 N   0  0  0  0  0  0  0  0  0  0  0  0
    4.3415   -1.4310    0.0000 N   0  0  0  0  0  0  0  0  0  0  0  0
    2.9833   -3.0561    0.0000 C   0  0  0  0  0  0  0  0  0  0  0  0
    5.6028   -0.7277    0.0000 C   0  0  0  0  0  0  0  0  0  0  0  0
    3.1288   -2.2557    0.0000 C   0  0  0  0  0  0  0  0  0  0  0  0
    3.9535   -2.1586    0.0000 C   0  0  0  0  0  0  0  0  0  0  0  0
    2.2314   -3.3956    0.0000 C   0  0  0  0  0  0  0  0  0  0  0  0
    4.5356   -1.6008    0.0000 C   0  0  0  0  0  0  0  0  0  0  0  0
    4.7539   -0.7277    0.0000 C   0  0  0  0  0  0  0  0  0  0  0  0
    1.5765   -2.9348    0.0000 C   0  0  0  0  0  0  0  0  0  0  0  0
    6.0394   -1.4310    0.0000 C   0  0  0  0  0  0  0  0  0  0  0  0
    6.0394    0.0000    0.0000 C   0  0  0  0  0  0  0  0  0  0  0  0
    2.1586   -4.2203    0.0000 C   0  0  0  0  0  0  0  0  0  0  0  0
    0.8246   -3.2743    0.0000 C   0  0  0  0  0  0  0  0  0  0  0  0
    0.7519   -4.0748    0.0000 C   0  0  0  0  0  0  0  0  0  0  0  0
    1.4310   -4.5599    0.0000 C   0  0  0  0  0  0  0  0  0  0  0  0
    6.8398   -1.4310    0.0000 C   0  0  0  0  0  0  0  0  0  0  0  0
    6.8398    0.0000    0.0000 C   0  0  0  0  0  0  0  0  0  0  0  0
  1 13  1  0  0  0  0
  2 23  1  0  0  0  0
  3 25  1  0  0  0  0
  3 26  1  0  0  0  0
  4 18  1  0  0  0  0
  5  9  1  0  0  0  0
  5 11  1  0  0  0  0
  6 17  2  0  0  0  0
  7 10  1  0  0  0  0
  8 12  1  0  0  0  0
  8 16  1  0  0  0  0
  9 14  2  0  0  0  0
 10 17  1  0  0  0  0
 11 13  2  0  0  0  0
 11 15  1  0  0  0  0
 12 17  1  0  0  0  0
 12 19  1  0  0  0  0
 12 20  1  0  0  0  0
 13 14  1  0  0  0  0
 14 16  1  0  0  0  0
 15 18  1  0  0  0  0
 15 21  2  0  0  0  0
 18 22  2  0  0  0  0
 19 25  1  0  0  0  0
 20 26  1  0  0  0  0
 21 24  1  0  0  0  0
 22 23  1  0  0  0  0
 23 24  2  0  0  0  0
M  END
> <PUBCHEM_COMPOUND_ID_TYPE>
0

> <PUBCHEM_TOTAL_CHARGE>
0

> <PUBCHEM_SUBSTANCE_ID>
310934565

> <PUBCHEM_SUBSTANCE_VERSION>
1

> <PUBCHEM_EXT_DATASOURCE_NAME>
4488

> <PUBCHEM_EXT_DATASOURCE_REGID>
SCHEMBL16112056

> <PUBCHEM_SUBSTANCE_COMMENT>
InChI=1S/C16H16Cl2FN3O3S/c17-9-1-2-10(11(19)7-9)14-13(18)12(22-25-14)8-20-16(15(23)21-24)3-5-26-6-4-16/h1-2,7,20,24H,3-6,8H2,(H,21,23)
InChIKey=PBMOGLZQRLIIJO-UHFFFAOYSA-N

> <PUBCHEM_SUBSTANCE_SYNONYM>
SCHEMBL16112056

> <PUBCHEM_XREF_EXT_ID>
SCHEMBL16112056

> <PUBCHEM_EXT_DATASOURCE_URL>
https://www.surechembl.org/

> <PUBCHEM_EXT_SUBSTANCE_URL>
https://www.surechembl.org/chemical/SCHEMBL16112056

> <PUBCHEM_CID_ASSOCIATIONS>
117602755  1

> <PUBCHEM_COORDINATE_TYPE>
1
3

$$$$
