310946374
  -OEChem-07211613022D

 37 39  0     1  0  0  0  0  0999 V2000
   -9.9913    8.2504    0.0000 I   0  0  0  0  0  0  0  0  0  0  0  0
   -8.5626   10.7253    0.0000 I   0  0  0  0  0  0  0  0  0  0  0  0
   -9.9913    9.9003    0.0000 O   0  0  0  0  0  0  0  0  0  0  0  0
  -12.8489    8.2504    0.0000 O   0  0  0  0  0  0  0  0  0  0  0  0
   -7.1797   10.8049    0.0000 O   0  0  0  0  0  0  0  0  0  0  0  0
   -7.9401    9.4879    0.0000 O   0  0  0  0  0  0  0  0  0  0  0  0
   -4.9904    8.6629    0.0000 O   0  0  0  0  0  0  0  0  0  0  0  0
  -13.5632   12.1750    0.0000 O   0  0  0  0  0  0  0  0  0  0  0  0
   -6.4193    9.4879    0.0000 N   0  0  0  0  0  0  0  0  0  0  0  0
   -9.2768    9.4879    0.0000 C   0  0  0  0  0  0  0  0  0  0  0  0
   -9.2768    8.6629    0.0000 C   0  0  0  0  0  0  0  0  0  0  0  0
   -8.5626    9.9003    0.0000 C   0  0  0  0  0  0  0  0  0  0  0  0
   -7.8481    8.6629    0.0000 C   0  0  0  0  0  0  0  0  0  0  0  0
   -8.5626    8.2504    0.0000 C   0  0  0  0  0  0  0  0  0  0  0  0
   -7.8481    9.4879    0.0000 C   0  0  0  0  0  0  0  0  0  0  0  0
  -10.7057    9.4879    0.0000 C   0  0  0  0  0  0  0  0  0  0  0  0
   -7.1337    8.2504    0.0000 C   0  0  0  0  0  0  0  0  0  0  0  0
   -6.4193    8.6629    0.0000 C   0  0  3  0  0  0  0  0  0  0  0  0
  -11.4201    9.9003    0.0000 C   0  0  0  0  0  0  0  0  0  0  0  0
  -10.7057    8.6629    0.0000 C   0  0  0  0  0  0  0  0  0  0  0  0
  -12.1345    8.6629    0.0000 C   0  0  0  0  0  0  0  0  0  0  0  0
  -12.1345    9.4879    0.0000 C   0  0  0  0  0  0  0  0  0  0  0  0
  -11.4201    8.2504    0.0000 C   0  0  0  0  0  0  0  0  0  0  0  0
   -7.1797    9.9268    0.0000 C   0  0  0  0  0  0  0  0  0  0  0  0
   -5.7049    8.2504    0.0000 C   0  0  0  0  0  0  0  0  0  0  0  0
  -13.5632    9.5410    0.0000 C   0  0  0  0  0  0  0  0  0  0  0  0
  -13.5632    8.6629    0.0000 C   0  0  0  0  0  0  0  0  0  0  0  0
   -7.9401   11.2438    0.0000 C   0  0  0  0  0  0  0  0  0  0  0  0
  -12.8030    9.9799    0.0000 C   0  0  0  0  0  0  0  0  0  0  0  0
  -14.3237    9.9799    0.0000 C   0  0  0  0  0  0  0  0  0  0  0  0
  -13.5632   11.2969    0.0000 C   0  0  0  0  0  0  0  0  0  0  0  0
  -12.8030   10.8580    0.0000 C   0  0  0  0  0  0  0  0  0  0  0  0
  -14.3237   10.8580    0.0000 C   0  0  0  0  0  0  0  0  0  0  0  0
   -7.9401   12.1218    0.0000 C   0  0  0  0  0  0  0  0  0  0  0  0
   -8.7005   11.6828    0.0000 C   0  0  0  0  0  0  0  0  0  0  0  0
   -8.7005   10.8049    0.0000 C   0  0  0  0  0  0  0  0  0  0  0  0
  -14.3237   12.6140    0.0000 C   0  0  0  0  0  0  0  0  0  0  0  0
  1 11  1  0  0  0  0
  2 12  1  0  0  0  0
  3 10  1  0  0  0  0
  3 16  1  0  0  0  0
  4 21  1  0  0  0  0
  4 27  1  0  0  0  0
  5 24  1  0  0  0  0
  5 28  1  0  0  0  0
  6 24  2  0  0  0  0
  7 25  1  0  0  0  0
  8 31  1  0  0  0  0
  8 37  1  0  0  0  0
 18  9  1  6  0  0  0
  9 24  1  0  0  0  0
 10 11  2  0  0  0  0
 10 12  1  0  0  0  0
 11 14  1  0  0  0  0
 12 15  2  0  0  0  0
 13 14  2  0  0  0  0
 13 15  1  0  0  0  0
 13 17  1  0  0  0  0
 16 19  2  0  0  0  0
 16 20  1  0  0  0  0
 17 18  1  0  0  0  0
 18 25  1  0  0  0  0
 19 22  1  0  0  0  0
 20 23  2  0  0  0  0
 21 22  2  0  0  0  0
 21 23  1  0  0  0  0
 26 27  1  0  0  0  0
 26 29  2  0  0  0  0
 26 30  1  0  0  0  0
 28 34  1  0  0  0  0
 28 35  1  0  0  0  0
 28 36  1  0  0  0  0
 29 32  1  0  0  0  0
 30 33  2  0  0  0  0
 31 32  2  0  0  0  0
 31 33  1  0  0  0  0
M  END
> <PUBCHEM_COMPOUND_ID_TYPE>
0

> <PUBCHEM_TOTAL_CHARGE>
0

> <PUBCHEM_SUBSTANCE_ID>
310946374

> <PUBCHEM_SUBSTANCE_VERSION>
1

> <PUBCHEM_EXT_DATASOURCE_NAME>
4488

> <PUBCHEM_EXT_DATASOURCE_REGID>
SCHEMBL16124493

> <PUBCHEM_SUBSTANCE_COMMENT>
InChI=1S/C28H31I2NO6/c1-28(2,3)37-27(33)31-20(16-32)13-19-14-24(29)26(25(30)15-19)36-23-11-9-22(10-12-23)35-17-18-5-7-21(34-4)8-6-18/h5-12,14-15,20,32H,13,16-17H2,1-4H3,(H,31,33)/t20-/m0/s1
InChIKey=WWYIXDPWHKIKHA-FQEVSTJZSA-N

> <PUBCHEM_SUBSTANCE_SYNONYM>
SCHEMBL16124493

> <PUBCHEM_XREF_EXT_ID>
SCHEMBL16124493

> <PUBCHEM_EXT_DATASOURCE_URL>
https://www.surechembl.org/

> <PUBCHEM_EXT_SUBSTANCE_URL>
https://www.surechembl.org/chemical/SCHEMBL16124493

> <PUBCHEM_CID_ASSOCIATIONS>
117612296  1

> <PUBCHEM_COORDINATE_TYPE>
1
3

> <PUBCHEM_BONDANNOTATIONS>
18  9  6

$$$$
