310943736
  -OEChem-07211613022D

 43 46  0     0  0  0  0  0  0999 V2000
    4.4161    2.6957    0.0000 F   0  0  0  0  0  0  0  0  0  0  0  0
    5.4760    2.3732    0.0000 F   0  0  0  0  0  0  0  0  0  0  0  0
    5.1381    1.3133    0.0000 F   0  0  0  0  0  0  0  0  0  0  0  0
   -4.0168    0.4071    0.0000 O   0  0  0  0  0  0  0  0  0  0  0  0
   -5.4760    2.8494    0.0000 O   0  0  0  0  0  0  0  0  0  0  0  0
    1.8510    2.8187    0.0000 O   0  0  0  0  0  0  0  0  0  0  0  0
   -4.7387   -3.2488    0.0000 O   0  0  0  0  0  0  0  0  0  0  0  0
   -4.0168    2.0352    0.0000 N   0  0  0  0  0  0  0  0  0  0  0  0
   -2.5422    0.4071    0.0000 N   0  0  0  0  0  0  0  0  0  0  0  0
    1.1290    1.6052    0.0000 N   0  0  0  0  0  0  0  0  0  0  0  0
   -4.0168   -2.0352    0.0000 N   0  0  0  0  0  0  0  0  0  0  0  0
   -3.2795    1.6359    0.0000 C   0  0  0  0  0  0  0  0  0  0  0  0
   -3.2948    0.8218    0.0000 C   0  0  0  0  0  0  0  0  0  0  0  0
   -1.8202    1.6359    0.0000 C   0  0  0  0  0  0  0  0  0  0  0  0
   -2.5729    2.0199    0.0000 C   0  0  0  0  0  0  0  0  0  0  0  0
   -1.0830    2.0199    0.0000 C   0  0  0  0  0  0  0  0  0  0  0  0
   -1.8356    0.8064    0.0000 C   0  0  0  0  0  0  0  0  0  0  0  0
   -0.3149    1.6052    0.0000 C   0  0  0  0  0  0  0  0  0  0  0  0
   -4.0321   -0.4071    0.0000 C   0  0  0  0  0  0  0  0  0  0  0  0
   -1.0676    2.8340    0.0000 C   0  0  0  0  0  0  0  0  0  0  0  0
    0.3764    2.0199    0.0000 C   0  0  0  0  0  0  0  0  0  0  0  0
    2.5883    1.6052    0.0000 C   0  0  0  0  0  0  0  0  0  0  0  0
    4.0475    1.6052    0.0000 C   0  0  0  0  0  0  0  0  0  0  0  0
   -4.0014    2.8340    0.0000 C   0  0  0  0  0  0  0  0  0  0  0  0
   -4.7387    1.6205    0.0000 C   0  0  0  0  0  0  0  0  0  0  0  0
    1.8356    1.9892    0.0000 C   0  0  0  0  0  0  0  0  0  0  0  0
    4.7694    2.0045    0.0000 C   0  0  0  0  0  0  0  0  0  0  0  0
    3.3102    2.0045    0.0000 C   0  0  0  0  0  0  0  0  0  0  0  0
   -3.2795   -0.8218    0.0000 C   0  0  0  0  0  0  0  0  0  0  0  0
   -4.7387   -0.8064    0.0000 C   0  0  0  0  0  0  0  0  0  0  0  0
    4.0321    0.7911    0.0000 C   0  0  0  0  0  0  0  0  0  0  0  0
    2.5883    0.7911    0.0000 C   0  0  0  0  0  0  0  0  0  0  0  0
   -4.7541    3.2488    0.0000 C   0  0  0  0  0  0  0  0  0  0  0  0
   -5.4760    2.0352    0.0000 C   0  0  0  0  0  0  0  0  0  0  0  0
   -3.2948   -1.6205    0.0000 C   0  0  0  0  0  0  0  0  0  0  0  0
   -4.7387   -1.6205    0.0000 C   0  0  0  0  0  0  0  0  0  0  0  0
    3.3102    0.3917    0.0000 C   0  0  0  0  0  0  0  0  0  0  0  0
    0.3917    2.8187    0.0000 C   0  0  0  0  0  0  0  0  0  0  0  0
   -1.8049    3.2027    0.0000 C   0  0  0  0  0  0  0  0  0  0  0  0
   -0.5914    3.0797    0.0000 C   0  0  0  0  0  0  0  0  0  0  0  0
   -4.0014   -2.8187    0.0000 C   0  0  0  0  0  0  0  0  0  0  0  0
   -0.1306    3.0030    0.0000 C   0  0  0  0  0  0  0  0  0  0  0  0
   -3.2641   -3.2488    0.0000 C   0  0  0  0  0  0  0  0  0  0  0  0
  1 27  1  0  0  0  0
  2 27  1  0  0  0  0
  3 27  1  0  0  0  0
  4 13  1  0  0  0  0
  4 19  1  0  0  0  0
  5 33  1  0  0  0  0
  5 34  1  0  0  0  0
  6 26  2  0  0  0  0
  7 41  2  0  0  0  0
  8 12  1  0  0  0  0
  8 24  1  0  0  0  0
  8 25  1  0  0  0  0
  9 13  1  0  0  0  0
  9 17  2  0  0  0  0
 10 21  1  0  0  0  0
 10 26  1  0  0  0  0
 11 35  1  0  0  0  0
 11 36  1  0  0  0  0
 11 41  1  0  0  0  0
 12 13  2  0  0  0  0
 12 15  1  0  0  0  0
 14 15  2  0  0  0  0
 14 16  1  0  0  0  0
 14 17  1  0  0  0  0
 16 18  1  0  0  0  0
 16 20  2  0  0  0  0
 18 21  2  0  0  0  0
 19 29  1  0  0  0  0
 19 30  1  0  0  0  0
 20 39  1  0  0  0  0
 20 40  1  0  0  0  0
 21 38  1  0  0  0  0
 22 26  1  0  0  0  0
 22 28  1  0  0  0  0
 22 32  2  0  0  0  0
 23 27  1  0  0  0  0
 23 28  2  0  0  0  0
 23 31  1  0  0  0  0
 24 33  1  0  0  0  0
 25 34  1  0  0  0  0
 29 35  1  0  0  0  0
 30 36  1  0  0  0  0
 31 37  2  0  0  0  0
 32 37  1  0  0  0  0
 38 42  2  0  0  0  0
 41 43  1  0  0  0  0
M  END
> <PUBCHEM_COMPOUND_ID_TYPE>
0

> <PUBCHEM_TOTAL_CHARGE>
0

> <PUBCHEM_SUBSTANCE_ID>
310943736

> <PUBCHEM_SUBSTANCE_VERSION>
1

> <PUBCHEM_EXT_DATASOURCE_NAME>
4488

> <PUBCHEM_EXT_DATASOURCE_REGID>
SCHEMBL16121804

> <PUBCHEM_SUBSTANCE_COMMENT>
InChI=1S/C32H37F3N4O4/c1-5-26(37-30(41)23-7-6-8-25(17-23)32(33,34)35)19-28(21(2)3)24-18-29(39-13-15-42-16-14-39)31(36-20-24)43-27-9-11-38(12-10-27)22(4)40/h5-8,17-20,27H,1,9-16H2,2-4H3,(H,37,41)/b26-19+
InChIKey=GNHRKHLIFBRPBL-LGUFXXKBSA-N

> <PUBCHEM_SUBSTANCE_SYNONYM>
SCHEMBL16121804

> <PUBCHEM_XREF_EXT_ID>
SCHEMBL16121804

> <PUBCHEM_EXT_DATASOURCE_URL>
https://www.surechembl.org/

> <PUBCHEM_EXT_SUBSTANCE_URL>
https://www.surechembl.org/chemical/SCHEMBL16121804

> <PUBCHEM_CID_ASSOCIATIONS>
117610101  1

> <PUBCHEM_COORDINATE_TYPE>
1
3

$$$$
