310942688
  -OEChem-07211613022D

 47 51  0     1  0  0  0  0  0999 V2000
    1.0964    3.7496    0.0000 F   0  0  0  0  0  0  0  0  0  0  0  0
   -0.0585   -3.1357    0.0000 F   0  0  0  0  0  0  0  0  0  0  0  0
   -2.1781    3.4134    0.0000 F   0  0  0  0  0  0  0  0  0  0  0  0
   -0.8040    1.0891    0.0000 O   0  0  0  0  0  0  0  0  0  0  0  0
    2.9822   -1.1037    0.0000 O   0  0  0  0  0  0  0  0  0  0  0  0
   -3.9031   -2.7410    0.0000 O   0  0  0  0  0  0  0  0  0  0  0  0
   -2.2220    0.2704    0.0000 O   0  0  0  0  0  0  0  0  0  0  0  0
   -3.6546   -1.2791    0.0000 O   0  0  0  0  0  0  0  0  0  0  0  0
    1.5057    1.4546    0.0000 N   0  0  0  0  0  0  0  0  0  0  0  0
    0.1315   -0.2704    0.0000 N   0  0  0  0  0  0  0  0  0  0  0  0
    0.1754    1.4546    0.0000 N   0  0  0  0  0  0  0  0  0  0  0  0
   -1.8858   -2.0393    0.0000 N   0  0  0  0  0  0  0  0  0  0  0  0
    0.8479    0.9721    0.0000 C   0  0  0  0  0  0  0  0  0  0  0  0
    0.8333    0.1535    0.0000 C   0  0  3  0  0  0  0  0  0  0  0  0
    0.4240    2.2585    0.0000 C   0  0  0  0  0  0  0  0  0  0  0  0
    1.5496   -0.2704    0.0000 C   0  0  0  0  0  0  0  0  0  0  0  0
    1.2572    2.2439    0.0000 C   0  0  0  0  0  0  0  0  0  0  0  0
   -0.0585    2.9164    0.0000 C   0  0  0  0  0  0  0  0  0  0  0  0
   -0.8040    0.2412    0.0000 C   0  0  0  0  0  0  0  0  0  0  0  0
    0.1169   -1.3522    0.0000 C   0  0  0  0  0  0  0  0  0  0  0  0
   -0.5847   -1.7469    0.0000 C   0  0  3  0  0  0  0  0  0  0  0  0
    2.2805    1.2060    0.0000 C   0  0  0  0  0  0  0  0  0  0  0  0
    0.2778    3.6765    0.0000 C   0  0  0  0  0  0  0  0  0  0  0  0
   -0.6724   -2.5802    0.0000 C   0  0  3  0  0  0  0  0  0  0  0  0
    1.5496   -1.0891    0.0000 C   0  0  0  0  0  0  0  0  0  0  0  0
    2.2512    0.1389    0.0000 C   0  0  0  0  0  0  0  0  0  0  0  0
   -1.3449   -1.4253    0.0000 C   0  0  0  0  0  0  0  0  0  0  0  0
   -0.8771    2.8286    0.0000 C   0  0  0  0  0  0  0  0  0  0  0  0
   -1.5057   -0.1389    0.0000 C   0  0  3  0  0  0  0  0  0  0  0  0
    2.8945    1.7469    0.0000 C   0  0  0  0  0  0  0  0  0  0  0  0
   -1.4911   -2.7410    0.0000 C   0  0  0  0  0  0  0  0  0  0  0  0
   -1.3742    3.5011    0.0000 C   0  0  0  0  0  0  0  0  0  0  0  0
   -3.3622   -2.0393    0.0000 C   0  0  0  0  0  0  0  0  0  0  0  0
   -0.2047    4.3343    0.0000 C   0  0  0  0  0  0  0  0  0  0  0  0
    2.9675   -0.2704    0.0000 C   0  0  0  0  0  0  0  0  0  0  0  0
    2.2805   -1.4984    0.0000 C   0  0  0  0  0  0  0  0  0  0  0  0
   -1.0233    4.2467    0.0000 C   0  0  0  0  0  0  0  0  0  0  0  0
    3.6838    1.4984    0.0000 C   0  0  0  0  0  0  0  0  0  0  0  0
    2.7336    2.5509    0.0000 C   0  0  0  0  0  0  0  0  0  0  0  0
   -1.5057   -0.9575    0.0000 C   0  0  0  0  0  0  0  0  0  0  0  0
   -3.6254   -3.5450    0.0000 C   0  0  0  0  0  0  0  0  0  0  0  0
    4.3124    2.0539    0.0000 C   0  0  0  0  0  0  0  0  0  0  0  0
    3.3476    3.1211    0.0000 C   0  0  0  0  0  0  0  0  0  0  0  0
    4.1517    2.8725    0.0000 C   0  0  0  0  0  0  0  0  0  0  0  0
   -4.3124   -3.8520    0.0000 C   0  0  0  0  0  0  0  0  0  0  0  0
   -2.8945   -3.2526    0.0000 C   0  0  0  0  0  0  0  0  0  0  0  0
   -3.3184   -4.3343    0.0000 C   0  0  0  0  0  0  0  0  0  0  0  0
  1 23  1  0  0  0  0
 24  2  1  1  0  0  0
  3 32  1  0  0  0  0
  4 19  2  0  0  0  0
  5 35  1  0  0  0  0
  5 36  1  0  0  0  0
  6 33  1  0  0  0  0
  6 41  1  0  0  0  0
 29  7  1  6  0  0  0
  8 33  2  0  0  0  0
  9 13  1  0  0  0  0
  9 17  1  0  0  0  0
  9 22  1  0  0  0  0
 14 10  1  1  0  0  0
 10 19  1  0  0  0  0
 10 20  1  0  0  0  0
 11 13  2  0  0  0  0
 11 15  1  0  0  0  0
 12 27  1  0  0  0  0
 12 31  1  0  0  0  0
 12 33  1  0  0  0  0
 13 14  1  0  0  0  0
 14 16  1  0  0  0  0
 15 17  2  0  0  0  0
 15 18  1  0  0  0  0
 16 25  1  0  0  0  0
 16 26  1  0  0  0  0
 18 23  1  0  0  0  0
 18 28  2  0  0  0  0
 19 29  1  0  0  0  0
 21 20  1  1  0  0  0
 21 24  1  0  0  0  0
 21 27  1  0  0  0  0
 22 30  1  0  0  0  0
 23 34  2  0  0  0  0
 24 31  1  0  0  0  0
 25 36  1  0  0  0  0
 26 35  1  0  0  0  0
 28 32  1  0  0  0  0
 29 40  1  0  0  0  0
 30 38  2  0  0  0  0
 30 39  1  0  0  0  0
 32 37  2  0  0  0  0
 34 37  1  0  0  0  0
 38 42  1  0  0  0  0
 39 43  2  0  0  0  0
 41 45  1  0  0  0  0
 41 46  1  0  0  0  0
 41 47  1  0  0  0  0
 42 44  2  0  0  0  0
 43 44  1  0  0  0  0
M  END
> <PUBCHEM_COMPOUND_ID_TYPE>
0

> <PUBCHEM_TOTAL_CHARGE>
0

> <PUBCHEM_SUBSTANCE_ID>
310942688

> <PUBCHEM_SUBSTANCE_VERSION>
1

> <PUBCHEM_EXT_DATASOURCE_NAME>
4488

> <PUBCHEM_EXT_DATASOURCE_REGID>
SCHEMBL16120734

> <PUBCHEM_SUBSTANCE_COMMENT>
InChI=1S/C35H43F3N4O5/c1-22(43)33(44)42(19-25-18-41(20-29(25)38)34(45)47-35(2,3)4)31(24-12-14-46-15-13-24)32-39-30(27-16-26(36)10-11-28(27)37)21-40(32)17-23-8-6-5-7-9-23/h5-11,16,21-22,24-25,29,31,43H,12-15,17-20H2,1-4H3/t22-,25-,29-,31+/m0/s1
InChIKey=IDURNAKKAXDYPG-JLGGRTRLSA-N

> <PUBCHEM_SUBSTANCE_SYNONYM>
SCHEMBL16120734

> <PUBCHEM_XREF_EXT_ID>
SCHEMBL16120734

> <PUBCHEM_EXT_DATASOURCE_URL>
https://www.surechembl.org/

> <PUBCHEM_EXT_SUBSTANCE_URL>
https://www.surechembl.org/chemical/SCHEMBL16120734

> <PUBCHEM_CID_ASSOCIATIONS>
117609216  1

> <PUBCHEM_COORDINATE_TYPE>
1
3

> <PUBCHEM_BONDANNOTATIONS>
14  10  5
24  2  5
21  20  5
29  7  6

$$$$
