310947694
  -OEChem-07211613022D

 12 11  0     0  0  0  0  0  0999 V2000
    0.5914   -2.4737    0.0000 S   0  0  0  0  0  0  0  0  0  0  0  0
   -1.5520   -2.8862    0.0000 O   0  0  0  0  0  0  0  0  0  0  0  0
    2.7348   -2.8862    0.0000 O   0  0  0  0  0  0  0  0  0  0  0  0
   -3.6954   -2.4737    0.0000 N   0  0  0  0  0  0  0  0  0  0  0  0
   -4.4099   -2.8862    0.0000 N   0  3  0  0  0  0  0  0  0  0  0  0
   -5.1243   -3.2987    0.0000 N   0  5  0  0  0  0  0  0  0  0  0  0
   -0.8375   -2.4737    0.0000 C   0  0  0  0  0  0  0  0  0  0  0  0
   -0.1230   -2.8862    0.0000 C   0  0  0  0  0  0  0  0  0  0  0  0
   -2.2665   -2.4737    0.0000 C   0  0  0  0  0  0  0  0  0  0  0  0
   -2.9809   -2.8862    0.0000 C   0  0  0  0  0  0  0  0  0  0  0  0
    1.3059   -2.8862    0.0000 C   0  0  0  0  0  0  0  0  0  0  0  0
    2.0204   -2.4737    0.0000 C   0  0  0  0  0  0  0  0  0  0  0  0
  1  8  1  0  0  0  0
  1 11  1  0  0  0  0
  2  7  1  0  0  0  0
  2  9  1  0  0  0  0
  3 12  1  0  0  0  0
  4  5  2  0  0  0  0
  4 10  1  0  0  0  0
  5  6  2  0  0  0  0
  7  8  1  0  0  0  0
  9 10  1  0  0  0  0
 11 12  1  0  0  0  0
M  CHG  2   5   1   6  -1
M  END
> <PUBCHEM_COMPOUND_ID_TYPE>
0

> <PUBCHEM_TOTAL_CHARGE>
0

> <PUBCHEM_SUBSTANCE_ID>
310947694

> <PUBCHEM_SUBSTANCE_VERSION>
1

> <PUBCHEM_EXT_DATASOURCE_NAME>
4488

> <PUBCHEM_EXT_DATASOURCE_REGID>
SCHEMBL16125865

> <PUBCHEM_SUBSTANCE_COMMENT>
InChI=1S/C6H13N3O2S/c7-9-8-1-3-11-4-6-12-5-2-10/h10H,1-6H2
InChIKey=OAOAKEDEEQISDC-UHFFFAOYSA-N

> <PUBCHEM_SUBSTANCE_SYNONYM>
SCHEMBL16125865

> <PUBCHEM_XREF_EXT_ID>
SCHEMBL16125865

> <PUBCHEM_EXT_DATASOURCE_URL>
https://www.surechembl.org/

> <PUBCHEM_EXT_SUBSTANCE_URL>
https://www.surechembl.org/chemical/SCHEMBL16125865

> <PUBCHEM_CID_ASSOCIATIONS>
86670299  1

> <PUBCHEM_COORDINATE_TYPE>
1
3

$$$$
