310941172
  -OEChem-07211613022D

 19 19  0     1  0  0  0  0  0999 V2000
    1.4036   -2.2200    0.0000 O   0  0  0  0  0  0  0  0  0  0  0  0
    0.9049   -3.0401    0.0000 O   0  0  0  0  0  0  0  0  0  0  0  0
    1.5126    0.0219    0.0000 O   0  0  0  0  0  0  0  0  0  0  0  0
    0.9253   -1.2343    0.0000 O   0  0  0  0  0  0  0  0  0  0  0  0
   -0.6246   -0.4023    0.0000 N   0  0  0  0  0  0  0  0  0  0  0  0
    0.0933    0.0055    0.0000 C   0  0  3  0  0  0  0  0  0  0  0  0
   -0.6083    1.2781    0.0000 C   0  0  0  0  0  0  0  0  0  0  0  0
    0.1096    0.8539    0.0000 C   0  0  0  0  0  0  0  0  0  0  0  0
    0.9049   -2.5081    0.0000 C   0  0  0  0  0  0  0  0  0  0  0  0
    1.4147   -1.6657    0.0000 C   0  0  0  0  0  0  0  0  0  0  0  0
    0.8437   -0.4023    0.0000 C   0  0  0  0  0  0  0  0  0  0  0  0
   -0.7062    2.0938    0.0000 C   0  0  0  0  0  0  0  0  0  0  0  0
   -1.3588    0.9355    0.0000 C   0  0  0  0  0  0  0  0  0  0  0  0
   -1.5219    2.2896    0.0000 C   0  0  3  0  0  0  0  0  0  0  0  0
   -1.9135    1.5392    0.0000 C   0  0  0  0  0  0  0  0  0  0  0  0
    1.9135   -1.6436    0.0000 C   0  0  0  0  0  0  0  0  0  0  0  0
    0.9049   -1.6657    0.0000 C   0  0  0  0  0  0  0  0  0  0  0  0
    1.4036   -1.1227    0.0000 C   0  0  0  0  0  0  0  0  0  0  0  0
   -1.8645    3.0401    0.0000 C   0  0  0  0  0  0  0  0  0  0  0  0
  1  9  1  0  0  0  0
  1 10  1  0  0  0  0
  2  9  2  0  0  0  0
  3 11  2  0  0  0  0
  4 11  1  0  0  0  0
  6  5  1  1  0  0  0
  5  9  1  0  0  0  0
  6  8  1  0  0  0  0
  6 11  1  0  0  0  0
  7  8  1  0  0  0  0
  7 12  2  0  0  0  0
  7 13  1  0  0  0  0
 10 16  1  0  0  0  0
 10 17  1  0  0  0  0
 10 18  1  0  0  0  0
 12 14  1  0  0  0  0
 13 15  1  0  0  0  0
 14 15  1  0  0  0  0
 14 19  1  0  0  0  0
M  END
> <PUBCHEM_COMPOUND_ID_TYPE>
0

> <PUBCHEM_TOTAL_CHARGE>
0

> <PUBCHEM_SUBSTANCE_ID>
310941172

> <PUBCHEM_SUBSTANCE_VERSION>
1

> <PUBCHEM_EXT_DATASOURCE_NAME>
4488

> <PUBCHEM_EXT_DATASOURCE_REGID>
SCHEMBL16119132

> <PUBCHEM_SUBSTANCE_COMMENT>
InChI=1S/C14H23NO4/c1-9-5-6-10(7-9)8-11(12(16)17)15-13(18)19-14(2,3)4/h7,9,11H,5-6,8H2,1-4H3,(H,15,18)(H,16,17)/t9?,11-/m0/s1
InChIKey=UQYJHAGCDCPZLA-UMJHXOGRSA-N

> <PUBCHEM_SUBSTANCE_SYNONYM>
SCHEMBL16119132

> <PUBCHEM_XREF_EXT_ID>
SCHEMBL16119132

> <PUBCHEM_EXT_DATASOURCE_URL>
https://www.surechembl.org/

> <PUBCHEM_EXT_SUBSTANCE_URL>
https://www.surechembl.org/chemical/SCHEMBL16119132

> <PUBCHEM_CID_ASSOCIATIONS>
117608046  1

> <PUBCHEM_COORDINATE_TYPE>
1
3

> <PUBCHEM_BONDANNOTATIONS>
6  5  5

$$$$
