310936389
  -OEChem-07211613022D

 34 38  0     1  0  0  0  0  0999 V2000
    0.1014    2.2020    0.0000 O   0  0  0  0  0  0  0  0  0  0  0  0
    1.2574    2.8695    0.0000 O   0  0  0  0  0  0  0  0  0  0  0  0
    4.2868    2.0625    0.0000 O   0  0  0  0  0  0  0  0  0  0  0  0
    5.0013    0.8250    0.0000 O   0  0  0  0  0  0  0  0  0  0  0  0
    0.7144    0.8250    0.0000 C   0  0  3  0  0  0  0  0  0  0  0  0
    0.7144    1.6500    0.0000 C   0  0  3  0  0  0  0  0  0  0  0  0
    1.4290    0.4125    0.0000 C   0  0  3  0  0  0  0  0  0  0  0  0
    1.4290    2.0625    0.0000 C   0  0  3  0  0  0  0  0  0  0  0  0
    2.1434    0.8250    0.0000 C   0  0  3  0  0  0  0  0  0  0  0  0
    2.1434    1.6500    0.0000 C   0  0  3  0  0  0  0  0  0  0  0  0
    0.0000    0.4125    0.0000 C   0  0  3  0  0  0  0  0  0  0  0  0
    0.0000   -0.4125    0.0000 C   0  0  3  0  0  0  0  0  0  0  0  0
    1.4290   -0.4125    0.0000 C   0  0  0  0  0  0  0  0  0  0  0  0
    0.4370    2.9557    0.0000 C   0  0  0  0  0  0  0  0  0  0  0  0
    2.8579    0.4125    0.0000 C   0  0  0  0  0  0  0  0  0  0  0  0
    2.8579    2.0625    0.0000 C   0  0  0  0  0  0  0  0  0  0  0  0
    0.7144   -0.8250    0.0000 C   0  0  0  0  0  0  0  0  0  0  0  0
   -0.7846    0.6674    0.0000 C   0  0  0  0  0  0  0  0  0  0  0  0
   -0.7846   -0.6674    0.0000 C   0  0  0  0  0  0  0  0  0  0  0  0
    2.1434    0.0000    0.0000 C   0  0  0  0  0  0  0  0  0  0  0  0
    3.5724    0.8250    0.0000 C   0  0  0  0  0  0  0  0  0  0  0  0
    3.5724    1.6500    0.0000 C   0  0  0  0  0  0  0  0  0  0  0  0
   -1.2696    0.0000    0.0000 C   0  0  0  0  0  0  0  0  0  0  0  0
   -0.0862   -1.2330    0.0000 C   0  0  0  0  0  0  0  0  0  0  0  0
   -0.2776    3.3682    0.0000 C   0  0  0  0  0  0  0  0  0  0  0  0
    0.4370    3.7807    0.0000 C   0  0  0  0  0  0  0  0  0  0  0  0
   -1.0396   -1.4521    0.0000 C   0  0  0  0  0  0  0  0  0  0  0  0
    4.2868    0.4125    0.0000 C   0  0  0  0  0  0  0  0  0  0  0  0
    0.7144    0.0000    0.0000 H   0  0  0  0  0  0  0  0  0  0  0  0
    0.7144    2.4750    0.0000 H   0  0  0  0  0  0  0  0  0  0  0  0
    1.7111    1.1878    0.0000 H   0  0  0  0  0  0  0  0  0  0  0  0
    1.9593    1.4305    0.0000 H   0  0  0  0  0  0  0  0  0  0  0  0
    2.1434    2.4750    0.0000 H   0  0  0  0  0  0  0  0  0  0  0  0
    0.0000    1.2375    0.0000 H   0  0  0  0  0  0  0  0  0  0  0  0
  1  6  1  0  0  0  0
  1 14  1  0  0  0  0
  2  8  1  0  0  0  0
  2 14  1  0  0  0  0
  3 22  2  0  0  0  0
  4 28  1  0  0  0  0
  5  6  1  0  0  0  0
  5  7  1  0  0  0  0
  5 11  1  0  0  0  0
  5 29  1  1  0  0  0
  6  8  1  0  0  0  0
  6 30  1  6  0  0  0
  7  9  1  0  0  0  0
  7 13  1  0  0  0  0
  7 31  1  6  0  0  0
  8 10  1  0  0  0  0
  8 32  1  1  0  0  0
  9 10  1  0  0  0  0
  9 15  1  0  0  0  0
  9 20  1  1  0  0  0
 10 16  1  0  0  0  0
 10 33  1  6  0  0  0
 11 12  1  0  0  0  0
 11 18  1  0  0  0  0
 11 34  1  6  0  0  0
 12 17  1  0  0  0  0
 12 19  1  0  0  0  0
 12 24  1  1  0  0  0
 13 17  1  0  0  0  0
 14 25  1  0  0  0  0
 14 26  1  0  0  0  0
 15 21  1  0  0  0  0
 16 22  1  0  0  0  0
 18 23  1  0  0  0  0
 19 23  1  0  0  0  0
 19 27  2  0  0  0  0
 21 22  1  0  0  0  0
 21 28  2  3  0  0  0
M  END
> <PUBCHEM_COMPOUND_ID_TYPE>
0

> <PUBCHEM_TOTAL_CHARGE>
0

> <PUBCHEM_SUBSTANCE_ID>
310936389

> <PUBCHEM_SUBSTANCE_VERSION>
1

> <PUBCHEM_EXT_DATASOURCE_NAME>
4488

> <PUBCHEM_EXT_DATASOURCE_REGID>
SCHEMBL16114027

> <PUBCHEM_SUBSTANCE_COMMENT>
InChI=1S/C24H34O4/c1-13-6-7-15-19-16(8-9-23(13,15)4)24(5)11-14(12-25)18(26)10-17(24)20-21(19)28-22(2,3)27-20/h12,15-17,19-21,25H,1,6-11H2,2-5H3/b14-12-/t15-,16-,17+,19-,20+,21+,23+,24+/m0/s1
InChIKey=NDGCMBPWAYETBY-URGZUJAKSA-N

> <PUBCHEM_SUBSTANCE_SYNONYM>
SCHEMBL16114027

> <PUBCHEM_XREF_EXT_ID>
SCHEMBL16114027

> <PUBCHEM_EXT_DATASOURCE_URL>
https://www.surechembl.org/

> <PUBCHEM_EXT_SUBSTANCE_URL>
https://www.surechembl.org/chemical/SCHEMBL16114027

> <PUBCHEM_CID_ASSOCIATIONS>
117604329  1

> <PUBCHEM_COORDINATE_TYPE>
1
3

> <PUBCHEM_BONDANNOTATIONS>
10  33  6
11  34  6
12  24  5
21  28  1
5  29  5
6  30  6
7  31  6
8  32  5
9  20  5

$$$$
