310932323
  -OEChem-07211613022D

 37 42  0     1  0  0  0  0  0999 V2000
    4.5376   -1.3407    0.0000 S   0  0  0  0  0  0  0  0  0  0  0  0
    2.9219   -4.2282    0.0000 O   0  0  0  0  0  0  0  0  0  0  0  0
    0.0000   -0.7562    0.0000 O   0  0  0  0  0  0  0  0  0  0  0  0
    6.1876   -2.7845    0.0000 O   0  0  0  0  0  0  0  0  0  0  0  0
    9.9002   -3.4719    0.0000 O   0  0  0  0  0  0  0  0  0  0  0  0
    4.5720   -2.7500    0.0000 N   0  0  0  0  0  0  0  0  0  0  0  0
    1.2719   -2.8188    0.0000 N   0  0  0  0  0  0  0  0  0  0  0  0
    6.1876   -4.1938    0.0000 N   0  0  0  0  0  0  0  0  0  0  0  0
    5.7751   -2.0626    0.0000 N   0  0  0  0  0  0  0  0  0  0  0  0
    7.8376   -4.1938    0.0000 N   0  0  0  0  0  0  0  0  0  0  0  0
    8.6283   -2.7845    0.0000 N   0  0  0  0  0  0  0  0  0  0  0  0
    3.7470   -2.7845    0.0000 C   0  0  3  0  0  0  0  0  0  0  0  0
    2.9219   -2.7845    0.0000 C   0  0  0  0  0  0  0  0  0  0  0  0
    4.1595   -3.5063    0.0000 C   0  0  0  0  0  0  0  0  0  0  0  0
    2.5094   -3.5063    0.0000 C   0  0  0  0  0  0  0  0  0  0  0  0
    3.7470   -4.2282    0.0000 C   0  0  0  0  0  0  0  0  0  0  0  0
    3.3344   -2.0626    0.0000 C   0  0  0  0  0  0  0  0  0  0  0  0
    2.4751   -2.0626    0.0000 C   0  0  0  0  0  0  0  0  0  0  0  0
    4.9845   -3.5063    0.0000 C   0  0  0  0  0  0  0  0  0  0  0  0
    1.6844   -2.1313    0.0000 C   0  0  0  0  0  0  0  0  0  0  0  0
    1.6500   -3.5063    0.0000 C   0  0  0  0  0  0  0  0  0  0  0  0
    4.9501   -2.0626    0.0000 C   0  0  0  0  0  0  0  0  0  0  0  0
    4.1595   -4.9157    0.0000 C   0  0  0  0  0  0  0  0  0  0  0  0
    5.3626   -4.1938    0.0000 C   0  0  0  0  0  0  0  0  0  0  0  0
    3.7126   -1.3750    0.0000 C   0  0  0  0  0  0  0  0  0  0  0  0
    4.9501   -4.8814    0.0000 C   0  0  0  0  0  0  0  0  0  0  0  0
    1.2375   -1.4094    0.0000 C   0  0  0  0  0  0  0  0  0  0  0  0
    6.6001   -3.4719    0.0000 C   0  0  0  0  0  0  0  0  0  0  0  0
    0.4469   -1.4438    0.0000 C   0  0  0  0  0  0  0  0  0  0  0  0
    1.6500   -0.6875    0.0000 C   0  0  0  0  0  0  0  0  0  0  0  0
    7.3908   -3.4719    0.0000 C   0  0  0  0  0  0  0  0  0  0  0  0
    1.2032    0.0000    0.0000 C   0  0  0  0  0  0  0  0  0  0  0  0
    7.8376   -2.7845    0.0000 C   0  0  0  0  0  0  0  0  0  0  0  0
    0.3782   -0.0343    0.0000 C   0  0  0  0  0  0  0  0  0  0  0  0
    9.0752   -3.4719    0.0000 C   0  0  0  0  0  0  0  0  0  0  0  0
    8.6283   -4.1938    0.0000 C   0  0  0  0  0  0  0  0  0  0  0  0
   10.3127   -2.7845    0.0000 C   0  0  0  0  0  0  0  0  0  0  0  0
  1 22  1  0  0  0  0
  1 25  1  0  0  0  0
  2 15  1  0  0  0  0
  2 16  1  0  0  0  0
  3 29  1  0  0  0  0
  3 34  1  0  0  0  0
  4 28  2  0  0  0  0
  5 35  1  0  0  0  0
  5 37  1  0  0  0  0
 12  6  1  1  0  0  0
  6 22  2  0  0  0  0
  7 20  2  0  0  0  0
  7 21  1  0  0  0  0
  8 24  1  0  0  0  0
  8 28  1  0  0  0  0
  9 22  1  0  0  0  0
 10 31  2  0  0  0  0
 10 36  1  0  0  0  0
 11 33  2  0  0  0  0
 11 35  1  0  0  0  0
 12 13  1  0  0  0  0
 12 14  1  0  0  0  0
 12 17  1  0  0  0  0
 13 15  1  0  0  0  0
 13 18  2  0  0  0  0
 14 16  2  0  0  0  0
 14 19  1  0  0  0  0
 15 21  2  0  0  0  0
 16 23  1  0  0  0  0
 17 25  1  0  0  0  0
 18 20  1  0  0  0  0
 19 24  2  0  0  0  0
 20 27  1  0  0  0  0
 23 26  2  0  0  0  0
 24 26  1  0  0  0  0
 27 29  1  0  0  0  0
 27 30  2  0  0  0  0
 28 31  1  0  0  0  0
 30 32  1  0  0  0  0
 31 33  1  0  0  0  0
 32 34  1  0  0  0  0
 35 36  2  0  0  0  0
M  END
> <PUBCHEM_COMPOUND_ID_TYPE>
0

> <PUBCHEM_TOTAL_CHARGE>
0

> <PUBCHEM_SUBSTANCE_ID>
310932323

> <PUBCHEM_SUBSTANCE_VERSION>
1

> <PUBCHEM_EXT_DATASOURCE_NAME>
4488

> <PUBCHEM_EXT_DATASOURCE_REGID>
SCHEMBL16109689

> <PUBCHEM_SUBSTANCE_COMMENT>
InChI=1S/C26H24N6O4S/c1-34-23-13-29-20(11-30-23)24(33)31-16-4-5-21-17(9-16)26(6-8-37-25(27)32-26)18-10-19(28-12-22(18)36-21)15-3-2-7-35-14-15/h3-5,9-13H,2,6-8,14H2,1H3,(H2,27,32)(H,31,33)/t26-/m0/s1
InChIKey=AHQKKXXPHPBRNZ-SANMLTNESA-N

> <PUBCHEM_SUBSTANCE_SYNONYM>
SCHEMBL16109689

> <PUBCHEM_XREF_EXT_ID>
SCHEMBL16109689

> <PUBCHEM_EXT_DATASOURCE_URL>
https://www.surechembl.org/

> <PUBCHEM_EXT_SUBSTANCE_URL>
https://www.surechembl.org/chemical/SCHEMBL16109689

> <PUBCHEM_CID_ASSOCIATIONS>
71542323  1

> <PUBCHEM_COORDINATE_TYPE>
1
3

> <PUBCHEM_BONDANNOTATIONS>
12  6  5

$$$$
