310941476
  -OEChem-07211613022D

 17 18  0     1  0  0  0  0  0999 V2000
    1.1607    0.2981    0.0000 O   0  0  0  0  0  0  0  0  0  0  0  0
   -0.8816   -0.2981    0.0000 N   0  0  0  0  0  0  0  0  0  0  0  0
   -2.0360   -2.3023    0.0000 N   0  0  0  0  0  0  0  0  0  0  0  0
    1.0084   -2.6956    0.0000 N   0  0  0  0  0  0  0  0  0  0  0  0
   -0.8943   -1.1607    0.0000 C   0  0  3  0  0  0  0  0  0  0  0  0
   -0.4884   -1.8711    0.0000 C   0  0  3  0  0  0  0  0  0  0  0  0
   -1.3003   -1.8584    0.0000 C   0  0  3  0  0  0  0  0  0  0  0  0
    0.2728   -2.3023    0.0000 C   0  0  0  0  0  0  0  0  0  0  0  0
   -0.1586    0.1079    0.0000 C   0  0  3  0  0  0  0  0  0  0  0  0
   -0.1712    0.9704    0.0000 C   0  0  0  0  0  0  0  0  0  0  0  0
    0.6279    1.4270    0.0000 C   0  0  0  0  0  0  0  0  0  0  0  0
    0.5771   -0.2981    0.0000 C   0  0  0  0  0  0  0  0  0  0  0  0
    0.6025    2.2517    0.0000 C   0  0  0  0  0  0  0  0  0  0  0  0
    1.3510    1.0466    0.0000 C   0  0  0  0  0  0  0  0  0  0  0  0
    1.3003    2.6956    0.0000 C   0  0  0  0  0  0  0  0  0  0  0  0
    2.0360    1.4778    0.0000 C   0  0  0  0  0  0  0  0  0  0  0  0
    2.0106    2.3023    0.0000 C   0  0  0  0  0  0  0  0  0  0  0  0
  1 12  1  0  0  0  0
  2  5  1  0  0  0  0
  9  2  1  1  0  0  0
  3  7  1  0  0  0  0
  4  8  3  0  0  0  0
  5  6  1  0  0  0  0
  5  7  1  0  0  0  0
  6  7  1  0  0  0  0
  6  8  1  0  0  0  0
  9 10  1  0  0  0  0
  9 12  1  0  0  0  0
 10 11  1  0  0  0  0
 11 13  2  0  0  0  0
 11 14  1  0  0  0  0
 13 15  1  0  0  0  0
 14 16  2  0  0  0  0
 15 17  2  0  0  0  0
 16 17  1  0  0  0  0
M  END
> <PUBCHEM_COMPOUND_ID_TYPE>
0

> <PUBCHEM_TOTAL_CHARGE>
0

> <PUBCHEM_SUBSTANCE_ID>
310941476

> <PUBCHEM_SUBSTANCE_VERSION>
1

> <PUBCHEM_EXT_DATASOURCE_NAME>
4488

> <PUBCHEM_EXT_DATASOURCE_REGID>
SCHEMBL16119507

> <PUBCHEM_SUBSTANCE_COMMENT>
InChI=1S/C13H17N3O/c14-7-11-12(15)13(11)16-10(8-17)6-9-4-2-1-3-5-9/h1-5,10-13,16-17H,6,8,15H2/t10-,11?,12?,13?/m0/s1
InChIKey=KLTRQHFWMOXBTB-DCNVRKPOSA-N

> <PUBCHEM_SUBSTANCE_SYNONYM>
SCHEMBL16119507

> <PUBCHEM_XREF_EXT_ID>
SCHEMBL16119507

> <PUBCHEM_EXT_DATASOURCE_URL>
https://www.surechembl.org/

> <PUBCHEM_EXT_SUBSTANCE_URL>
https://www.surechembl.org/chemical/SCHEMBL16119507

> <PUBCHEM_CID_ASSOCIATIONS>
117608298  1

> <PUBCHEM_COORDINATE_TYPE>
1
3

> <PUBCHEM_BONDANNOTATIONS>
9  2  5

$$$$
