310938873
  -OEChem-07211613022D

 14 14  0     0  0  0  0  0  0999 V2000
   -0.0123   -2.4665    0.0000 O   0  0  0  0  0  0  0  0  0  0  0  0
    0.0000   -0.8098    0.0000 N   0  0  0  0  0  0  0  0  0  0  0  0
    0.7171    1.2549    0.0000 N   0  0  0  0  0  0  0  0  0  0  0  0
    0.0000    0.0185    0.0000 C   0  0  0  0  0  0  0  0  0  0  0  0
    0.7171   -1.2302    0.0000 C   0  0  0  0  0  0  0  0  0  0  0  0
   -0.7047   -1.2178    0.0000 C   0  0  0  0  0  0  0  0  0  0  0  0
   -0.7171    0.4265    0.0000 C   0  0  0  0  0  0  0  0  0  0  0  0
    0.7047    0.4142    0.0000 C   0  0  0  0  0  0  0  0  0  0  0  0
    0.7047   -2.0585    0.0000 C   0  0  0  0  0  0  0  0  0  0  0  0
   -0.7171   -2.0462    0.0000 C   0  0  0  0  0  0  0  0  0  0  0  0
   -0.7047    1.2549    0.0000 C   0  0  0  0  0  0  0  0  0  0  0  0
   -0.0123    1.6629    0.0000 C   0  0  0  0  0  0  0  0  0  0  0  0
    0.7047    0.9953    0.0000 C   0  0  0  0  0  0  0  0  0  0  0  0
    0.0123    2.4665    0.0000 C   0  0  0  0  0  0  0  0  0  0  0  0
  1  9  1  0  0  0  0
  1 10  1  0  0  0  0
  2  4  1  0  0  0  0
  2  5  1  0  0  0  0
  2  6  1  0  0  0  0
  3 12  2  3  0  0  0
  4  7  1  0  0  0  0
  4  8  2  0  0  0  0
  5  9  1  0  0  0  0
  6 10  1  0  0  0  0
  7 11  2  0  0  0  0
  8 13  1  0  0  0  0
 11 12  1  0  0  0  0
 12 14  1  0  0  0  0
M  END
> <PUBCHEM_COMPOUND_ID_TYPE>
0

> <PUBCHEM_TOTAL_CHARGE>
0

> <PUBCHEM_SUBSTANCE_ID>
310938873

> <PUBCHEM_SUBSTANCE_VERSION>
1

> <PUBCHEM_EXT_DATASOURCE_NAME>
4488

> <PUBCHEM_EXT_DATASOURCE_REGID>
SCHEMBL16116792

> <PUBCHEM_SUBSTANCE_COMMENT>
InChI=1S/C11H18N2O/c1-3-11(5-4-10(2)12)13-6-8-14-9-7-13/h3-5,12H,6-9H2,1-2H3/b5-4-,11-3+,12-10?
InChIKey=FRYFQWDKRIZZFE-JMIXUOHQSA-N

> <PUBCHEM_SUBSTANCE_SYNONYM>
SCHEMBL16116792

> <PUBCHEM_XREF_EXT_ID>
SCHEMBL16116792

> <PUBCHEM_EXT_DATASOURCE_URL>
https://www.surechembl.org/

> <PUBCHEM_EXT_SUBSTANCE_URL>
https://www.surechembl.org/chemical/SCHEMBL16116792

> <PUBCHEM_CID_ASSOCIATIONS>
117606270  1

> <PUBCHEM_COORDINATE_TYPE>
1
3

$$$$
