310948310
  -OEChem-07211613022D

 40 44  0     0  0  0  0  0  0999 V2000
   -2.1863   -3.4238    0.0000 S   0  0  0  0  0  0  0  0  0  0  0  0
   -2.2688    3.0113    0.0000 F   0  0  0  0  0  0  0  0  0  0  0  0
   -2.1368    4.1169    0.0000 F   0  0  0  0  0  0  0  0  0  0  0  0
   -1.0148    3.9683    0.0000 F   0  0  0  0  0  0  0  0  0  0  0  0
    2.8463   -2.1698    0.0000 F   0  0  0  0  0  0  0  0  0  0  0  0
    2.0048    0.8663    0.0000 O   0  0  0  0  0  0  0  0  0  0  0  0
    1.3943   -2.9948    0.0000 O   0  0  0  0  0  0  0  0  0  0  0  0
   -2.5658   -2.7638    0.0000 O   0  0  0  0  0  0  0  0  0  0  0  0
   -1.7738   -4.1169    0.0000 O   0  0  0  0  0  0  0  0  0  0  0  0
   -0.7342    1.5593    0.0000 N   0  0  0  0  0  0  0  0  0  0  0  0
    0.8663    1.5428    0.0000 N   0  0  0  0  0  0  0  0  0  0  0  0
   -1.4108    2.0543    0.0000 N   0  0  0  0  0  0  0  0  0  0  0  0
    0.6848   -1.7573    0.0000 N   0  0  0  0  0  0  0  0  0  0  0  0
   -0.0248    0.3217    0.0000 C   0  0  0  0  0  0  0  0  0  0  0  0
    0.6683    0.7342    0.0000 C   0  0  0  0  0  0  0  0  0  0  0  0
   -0.7507    0.7342    0.0000 C   0  0  0  0  0  0  0  0  0  0  0  0
    1.4108    0.3382    0.0000 C   0  0  0  0  0  0  0  0  0  0  0  0
   -0.0248   -0.5033    0.0000 C   0  0  0  0  0  0  0  0  0  0  0  0
   -0.7342   -0.9158    0.0000 C   0  0  0  0  0  0  0  0  0  0  0  0
    1.3943   -0.5033    0.0000 C   0  0  0  0  0  0  0  0  0  0  0  0
    1.6583    1.6418    0.0000 C   0  0  0  0  0  0  0  0  0  0  0  0
   -1.4438    0.3217    0.0000 C   0  0  0  0  0  0  0  0  0  0  0  0
   -1.1467    2.8628    0.0000 C   0  0  0  0  0  0  0  0  0  0  0  0
   -0.7507   -1.7408    0.0000 C   0  0  0  0  0  0  0  0  0  0  0  0
   -1.4438   -0.5033    0.0000 C   0  0  0  0  0  0  0  0  0  0  0  0
   -0.0743    2.0708    0.0000 C   0  0  0  0  0  0  0  0  0  0  0  0
   -1.6418    3.5064    0.0000 C   0  0  0  0  0  0  0  0  0  0  0  0
    2.1203   -0.9158    0.0000 C   0  0  0  0  0  0  0  0  0  0  0  0
   -0.3217    2.8463    0.0000 C   0  0  0  0  0  0  0  0  0  0  0  0
    0.7013   -0.9158    0.0000 C   0  0  0  0  0  0  0  0  0  0  0  0
   -1.4438   -2.1533    0.0000 C   0  0  0  0  0  0  0  0  0  0  0  0
    2.1038   -1.7573    0.0000 C   0  0  0  0  0  0  0  0  0  0  0  0
   -1.4603   -2.9948    0.0000 C   0  0  0  0  0  0  0  0  0  0  0  0
    1.4108   -2.1533    0.0000 C   0  0  0  0  0  0  0  0  0  0  0  0
   -0.0248   -2.1698    0.0000 C   0  0  0  0  0  0  0  0  0  0  0  0
    2.0873    2.3678    0.0000 C   0  0  0  0  0  0  0  0  0  0  0  0
   -0.7507   -3.3908    0.0000 C   0  0  0  0  0  0  0  0  0  0  0  0
   -0.0248   -2.9948    0.0000 C   0  0  0  0  0  0  0  0  0  0  0  0
   -2.8463   -3.8198    0.0000 C   0  0  0  0  0  0  0  0  0  0  0  0
    2.0873   -3.4073    0.0000 C   0  0  0  0  0  0  0  0  0  0  0  0
  1  8  2  0  0  0  0
  1  9  2  0  0  0  0
  1 33  1  0  0  0  0
  1 39  1  0  0  0  0
  2 27  1  0  0  0  0
  3 27  1  0  0  0  0
  4 27  1  0  0  0  0
  5 32  1  0  0  0  0
  6 17  1  0  0  0  0
  6 21  1  0  0  0  0
  7 34  1  0  0  0  0
  7 40  1  0  0  0  0
 10 12  1  0  0  0  0
 10 16  1  0  0  0  0
 10 26  1  0  0  0  0
 11 15  1  0  0  0  0
 11 21  2  0  0  0  0
 12 23  2  0  0  0  0
 13 30  2  0  0  0  0
 13 34  1  0  0  0  0
 14 15  1  0  0  0  0
 14 16  1  0  0  0  0
 14 18  2  0  0  0  0
 15 17  2  0  0  0  0
 16 22  2  0  0  0  0
 17 20  1  0  0  0  0
 18 19  1  0  0  0  0
 19 24  1  0  0  0  0
 19 25  2  0  0  0  0
 20 28  2  0  0  0  0
 20 30  1  0  0  0  0
 21 36  1  0  0  0  0
 22 25  1  0  0  0  0
 23 27  1  0  0  0  0
 23 29  1  0  0  0  0
 24 31  1  0  0  0  0
 24 35  2  0  0  0  0
 26 29  2  0  0  0  0
 28 32  1  0  0  0  0
 31 33  2  0  0  0  0
 32 34  2  0  0  0  0
 33 37  1  0  0  0  0
 35 38  1  0  0  0  0
 37 38  2  0  0  0  0
M  END
> <PUBCHEM_COMPOUND_ID_TYPE>
0

> <PUBCHEM_TOTAL_CHARGE>
0

> <PUBCHEM_SUBSTANCE_ID>
310948310

> <PUBCHEM_SUBSTANCE_VERSION>
1

> <PUBCHEM_EXT_DATASOURCE_NAME>
4488

> <PUBCHEM_EXT_DATASOURCE_REGID>
SCHEMBL16126488

> <PUBCHEM_SUBSTANCE_COMMENT>
InChI=1S/C27H20F4N4O4S/c1-15-33-24(25(39-15)18-13-21(28)26(38-2)32-14-18)20-12-17(16-5-4-6-19(11-16)40(3,36)37)7-8-22(20)35-10-9-23(34-35)27(29,30)31/h4-14H,1-3H3
InChIKey=HMXDIPBJCIKTFM-UHFFFAOYSA-N

> <PUBCHEM_SUBSTANCE_SYNONYM>
SCHEMBL16126488

> <PUBCHEM_XREF_EXT_ID>
SCHEMBL16126488

> <PUBCHEM_EXT_DATASOURCE_URL>
https://www.surechembl.org/

> <PUBCHEM_EXT_SUBSTANCE_URL>
https://www.surechembl.org/chemical/SCHEMBL16126488

> <PUBCHEM_CID_ASSOCIATIONS>
117613875  1

> <PUBCHEM_COORDINATE_TYPE>
1
3

$$$$
