310941509
  -OEChem-07211613022D

 32 35  0     0  0  0  0  0  0999 V2000
    1.4889    1.9705    0.0000 S   0  0  0  0  0  0  0  0  0  0  0  0
   -0.8470   -0.6866    0.0000 O   0  0  0  0  0  0  0  0  0  0  0  0
    0.5795   -0.6866    0.0000 O   0  0  0  0  0  0  0  0  0  0  0  0
   -2.9868   -1.9705    0.0000 O   0  5  0  0  0  0  0  0  0  0  0  0
   -1.5781   -1.9169    0.0000 O   0  0  0  0  0  0  0  0  0  0  0  0
    4.3777    0.9897    0.0000 O   0  0  0  0  0  0  0  0  0  0  0  0
   -5.1980   -0.6866    0.0000 O   0  0  0  0  0  0  0  0  0  0  0  0
   -2.2914   -1.5246    0.0000 N   0  3  0  0  0  0  0  0  0  0  0  0
    1.3463    0.6330    0.0000 N   0  0  0  0  0  0  0  0  0  0  0  0
   -3.7536   -0.6866    0.0000 N   0  0  0  0  0  0  0  0  0  0  0  0
    2.7372    1.1680    0.0000 N   0  0  0  0  0  0  0  0  0  0  0  0
   -1.5960   -0.2585    0.0000 C   0  0  0  0  0  0  0  0  0  0  0  0
   -1.5781    0.5795    0.0000 C   0  0  0  0  0  0  0  0  0  0  0  0
   -2.3092   -0.6866    0.0000 C   0  0  0  0  0  0  0  0  0  0  0  0
   -0.1338    0.5795    0.0000 C   0  0  0  0  0  0  0  0  0  0  0  0
   -0.1694   -0.2585    0.0000 C   0  0  0  0  0  0  0  0  0  0  0  0
    0.5795    0.9719    0.0000 C   0  0  0  0  0  0  0  0  0  0  0  0
   -0.8827    0.9540    0.0000 C   0  0  0  0  0  0  0  0  0  0  0  0
   -3.0224   -0.2764    0.0000 C   0  0  0  0  0  0  0  0  0  0  0  0
   -2.3092    0.9540    0.0000 C   0  0  0  0  0  0  0  0  0  0  0  0
   -3.0046    0.5616    0.0000 C   0  0  0  0  0  0  0  0  0  0  0  0
    1.8991    1.2750    0.0000 C   0  0  0  0  0  0  0  0  0  0  0  0
    0.6866    1.8099    0.0000 C   0  0  0  0  0  0  0  0  0  0  0  0
    3.0582    0.4012    0.0000 C   0  0  0  0  0  0  0  0  0  0  0  0
   -4.4668   -0.2585    0.0000 C   0  0  0  0  0  0  0  0  0  0  0  0
    3.8784    0.3120    0.0000 C   0  0  0  0  0  0  0  0  0  0  0  0
    2.5946   -0.2764    0.0000 C   0  0  0  0  0  0  0  0  0  0  0  0
    4.2172   -0.4547    0.0000 C   0  0  0  0  0  0  0  0  0  0  0  0
    2.9333   -1.0253    0.0000 C   0  0  0  0  0  0  0  0  0  0  0  0
    3.7358   -1.0967    0.0000 C   0  0  0  0  0  0  0  0  0  0  0  0
   -4.4668    0.5616    0.0000 C   0  0  0  0  0  0  0  0  0  0  0  0
    5.1980    0.9006    0.0000 C   0  0  0  0  0  0  0  0  0  0  0  0
  1 22  1  0  0  0  0
  1 23  1  0  0  0  0
  2 12  1  0  0  0  0
  2 16  1  0  0  0  0
  3 16  2  0  0  0  0
  4  8  1  0  0  0  0
  5  8  2  0  0  0  0
  6 26  1  0  0  0  0
  6 32  1  0  0  0  0
  7 25  2  0  0  0  0
  8 14  1  0  0  0  0
  9 17  1  0  0  0  0
  9 22  2  0  0  0  0
 10 19  1  0  0  0  0
 10 25  1  0  0  0  0
 11 22  1  0  0  0  0
 11 24  1  0  0  0  0
 12 13  1  0  0  0  0
 12 14  2  0  0  0  0
 13 18  1  0  0  0  0
 13 20  2  0  0  0  0
 14 19  1  0  0  0  0
 15 16  1  0  0  0  0
 15 17  1  0  0  0  0
 15 18  2  0  0  0  0
 17 23  2  0  0  0  0
 19 21  2  0  0  0  0
 20 21  1  0  0  0  0
 24 26  1  0  0  0  0
 24 27  2  0  0  0  0
 25 31  1  0  0  0  0
 26 28  2  0  0  0  0
 27 29  1  0  0  0  0
 28 30  1  0  0  0  0
 29 30  2  0  0  0  0
M  CHG  2   4  -1   8   1
M  END
> <PUBCHEM_COMPOUND_ID_TYPE>
0

> <PUBCHEM_TOTAL_CHARGE>
0

> <PUBCHEM_SUBSTANCE_ID>
310941509

> <PUBCHEM_SUBSTANCE_VERSION>
1

> <PUBCHEM_EXT_DATASOURCE_NAME>
4488

> <PUBCHEM_EXT_DATASOURCE_REGID>
SCHEMBL16119540

> <PUBCHEM_SUBSTANCE_COMMENT>
InChI=1S/C21H16N4O6S/c1-11(26)22-15-8-7-12-9-13(20(27)31-19(12)18(15)25(28)29)16-10-32-21(24-16)23-14-5-3-4-6-17(14)30-2/h3-10H,1-2H3,(H,22,26)(H,23,24)
InChIKey=CHKYYYKICSFTBC-UHFFFAOYSA-N

> <PUBCHEM_SUBSTANCE_SYNONYM>
SCHEMBL16119540

> <PUBCHEM_XREF_EXT_ID>
SCHEMBL16119540

> <PUBCHEM_EXT_DATASOURCE_URL>
https://www.surechembl.org/

> <PUBCHEM_EXT_SUBSTANCE_URL>
https://www.surechembl.org/chemical/SCHEMBL16119540

> <PUBCHEM_CID_ASSOCIATIONS>
117608328  1

> <PUBCHEM_COORDINATE_TYPE>
1
3

$$$$
