310929197
  -OEChem-07211613022D

 60 65  0     0  0  0  0  0  0999 V2000
    9.9760   -2.1971    0.0000 O   0  0  0  0  0  0  0  0  0  0  0  0
   13.6576   -2.9691    0.0000 O   0  0  0  0  0  0  0  0  0  0  0  0
   13.2419   -0.7719    0.0000 O   0  0  0  0  0  0  0  0  0  0  0  0
    4.9880   -2.0783    0.0000 O   0  0  0  0  0  0  0  0  0  0  0  0
    7.5414   -0.7126    0.0000 O   0  0  0  0  0  0  0  0  0  0  0  0
    4.5129   -4.2160    0.0000 O   0  0  0  0  0  0  0  0  0  0  0  0
    2.4346   -4.8692    0.0000 O   0  0  0  0  0  0  0  0  0  0  0  0
    0.8313   -3.3847    0.0000 O   0  0  0  0  0  0  0  0  0  0  0  0
   14.4889   -1.5439    0.0000 N   0  0  0  0  0  0  0  0  0  0  0  0
   13.2419   -2.1971    0.0000 N   0  0  0  0  0  0  0  0  0  0  0  0
   14.4889   -4.3942    0.0000 N   0  0  0  0  0  0  0  0  0  0  0  0
    8.7289   -2.9097    0.0000 N   0  0  0  0  0  0  0  0  0  0  0  0
    7.4226   -3.5628    0.0000 N   0  0  0  0  0  0  0  0  0  0  0  0
    8.6696   -4.2754    0.0000 N   0  0  0  0  0  0  0  0  0  0  0  0
   14.4889   -5.8193    0.0000 N   0  0  0  0  0  0  0  0  0  0  0  0
   15.7359   -5.1067    0.0000 N   0  0  0  0  0  0  0  0  0  0  0  0
   12.0543   -1.5439    0.0000 C   0  0  0  0  0  0  0  0  0  0  0  0
   11.2230   -1.5439    0.0000 C   0  0  0  0  0  0  0  0  0  0  0  0
   14.9046   -2.2565    0.0000 C   0  0  0  0  0  0  0  0  0  0  0  0
   14.4889   -2.9691    0.0000 C   0  0  0  0  0  0  0  0  0  0  0  0
   12.4106   -2.1971    0.0000 C   0  0  0  0  0  0  0  0  0  0  0  0
   16.1515   -2.9691    0.0000 C   0  0  0  0  0  0  0  0  0  0  0  0
   14.9046   -3.6816    0.0000 C   0  0  0  0  0  0  0  0  0  0  0  0
   10.8073   -2.1971    0.0000 C   0  0  0  0  0  0  0  0  0  0  0  0
   15.7359   -2.2565    0.0000 C   0  0  0  0  0  0  0  0  0  0  0  0
   16.9829   -2.9691    0.0000 C   0  0  0  0  0  0  0  0  0  0  0  0
   15.7359   -3.6816    0.0000 C   0  0  0  0  0  0  0  0  0  0  0  0
   11.9949   -2.9097    0.0000 C   0  0  0  0  0  0  0  0  0  0  0  0
   13.6576   -1.5439    0.0000 C   0  0  0  0  0  0  0  0  0  0  0  0
   11.1636   -2.9097    0.0000 C   0  0  0  0  0  0  0  0  0  0  0  0
   12.4699   -0.8313    0.0000 C   0  0  0  0  0  0  0  0  0  0  0  0
   10.8073   -0.7719    0.0000 C   0  0  0  0  0  0  0  0  0  0  0  0
    9.5009   -2.9097    0.0000 C   0  0  0  0  0  0  0  0  0  0  0  0
   12.0543   -0.0594    0.0000 C   0  0  0  0  0  0  0  0  0  0  0  0
   11.2230   -0.0594    0.0000 C   0  0  0  0  0  0  0  0  0  0  0  0
   14.9046   -5.1067    0.0000 C   0  0  0  0  0  0  0  0  0  0  0  0
    8.2539   -3.5628    0.0000 C   0  0  0  0  0  0  0  0  0  0  0  0
   16.9829   -3.8004    0.0000 C   0  0  0  0  0  0  0  0  0  0  0  0
   17.8143   -2.9691    0.0000 C   0  0  0  0  0  0  0  0  0  0  0  0
   16.9829   -2.1377    0.0000 C   0  0  0  0  0  0  0  0  0  0  0  0
    9.9760   -3.6222    0.0000 C   0  0  0  0  0  0  0  0  0  0  0  0
    7.0663   -2.8503    0.0000 C   0  0  0  0  0  0  0  0  0  0  0  0
    9.5009   -4.3348    0.0000 C   0  0  0  0  0  0  0  0  0  0  0  0
   13.2419   -3.6816    0.0000 C   0  0  0  0  0  0  0  0  0  0  0  0
    6.2350   -2.7909    0.0000 C   0  0  0  0  0  0  0  0  0  0  0  0
    5.8193   -2.0783    0.0000 C   0  0  0  0  0  0  0  0  0  0  0  0
    7.4820   -2.1377    0.0000 C   0  0  0  0  0  0  0  0  0  0  0  0
    7.0663   -1.4251    0.0000 C   0  0  0  0  0  0  0  0  0  0  0  0
    6.2944   -1.3658    0.0000 C   0  0  0  0  0  0  0  0  0  0  0  0
   14.9046   -6.5319    0.0000 C   0  0  0  0  0  0  0  0  0  0  0  0
   16.1515   -5.8193    0.0000 C   0  0  0  0  0  0  0  0  0  0  0  0
   15.7359   -6.5319    0.0000 C   0  0  0  0  0  0  0  0  0  0  0  0
    4.5723   -2.7315    0.0000 C   0  0  0  0  0  0  0  0  0  0  0  0
    7.1257    0.0000    0.0000 C   0  0  0  0  0  0  0  0  0  0  0  0
    4.9286   -3.5035    0.0000 C   0  0  0  0  0  0  0  0  0  0  0  0
    3.6816   -4.1566    0.0000 C   0  0  0  0  0  0  0  0  0  0  0  0
    3.2659   -4.8692    0.0000 C   0  0  0  0  0  0  0  0  0  0  0  0
    2.0190   -4.1566    0.0000 C   0  0  0  0  0  0  0  0  0  0  0  0
    1.2470   -4.0973    0.0000 C   0  0  0  0  0  0  0  0  0  0  0  0
    0.0000   -3.3847    0.0000 C   0  0  0  0  0  0  0  0  0  0  0  0
  1 24  1  0  0  0  0
  1 33  1  0  0  0  0
  2 20  1  0  0  0  0
  2 44  1  0  0  0  0
  3 29  2  0  0  0  0
  4 46  1  0  0  0  0
  4 53  1  0  0  0  0
  5 48  1  0  0  0  0
  5 54  1  0  0  0  0
  6 55  1  0  0  0  0
  6 56  1  0  0  0  0
  7 57  1  0  0  0  0
  7 58  1  0  0  0  0
  8 59  1  0  0  0  0
  8 60  1  0  0  0  0
  9 19  1  0  0  0  0
  9 29  1  0  0  0  0
 10 21  1  0  0  0  0
 10 29  1  0  0  0  0
 11 23  1  0  0  0  0
 11 36  1  0  0  0  0
 12 33  2  0  0  0  0
 12 37  1  0  0  0  0
 13 37  1  0  0  0  0
 13 42  1  0  0  0  0
 14 37  2  0  0  0  0
 14 43  1  0  0  0  0
 15 36  2  0  0  0  0
 15 50  1  0  0  0  0
 16 36  1  0  0  0  0
 16 51  2  0  0  0  0
 17 18  2  0  0  0  0
 17 21  1  0  0  0  0
 17 31  1  0  0  0  0
 18 24  1  0  0  0  0
 18 32  1  0  0  0  0
 19 20  1  0  0  0  0
 19 25  2  0  0  0  0
 20 23  2  0  0  0  0
 21 28  2  0  0  0  0
 22 25  1  0  0  0  0
 22 26  1  0  0  0  0
 22 27  2  0  0  0  0
 23 27  1  0  0  0  0
 24 30  2  0  0  0  0
 26 38  1  0  0  0  0
 26 39  1  0  0  0  0
 26 40  1  0  0  0  0
 28 30  1  0  0  0  0
 31 34  2  0  0  0  0
 32 35  2  0  0  0  0
 33 41  1  0  0  0  0
 34 35  1  0  0  0  0
 41 43  2  0  0  0  0
 42 45  2  0  0  0  0
 42 47  1  0  0  0  0
 45 46  1  0  0  0  0
 46 49  2  0  0  0  0
 47 48  2  0  0  0  0
 48 49  1  0  0  0  0
 50 52  2  0  0  0  0
 51 52  1  0  0  0  0
 53 55  1  0  0  0  0
 56 57  1  0  0  0  0
 58 59  1  0  0  0  0
M  END
> <PUBCHEM_COMPOUND_ID_TYPE>
0

> <PUBCHEM_TOTAL_CHARGE>
0

> <PUBCHEM_SUBSTANCE_ID>
310929197

> <PUBCHEM_SUBSTANCE_VERSION>
1

> <PUBCHEM_EXT_DATASOURCE_NAME>
4488

> <PUBCHEM_EXT_DATASOURCE_REGID>
SCHEMBL16106360

> <PUBCHEM_SUBSTANCE_COMMENT>
InChI=1S/C44H50N8O8/c1-44(2,3)29-24-36(49-41-45-15-9-16-46-41)40(56-6)37(25-29)51-43(53)50-35-12-13-38(34-11-8-7-10-33(34)35)60-39-14-17-47-42(52-39)48-30-26-31(55-5)28-32(27-30)59-23-22-58-21-20-57-19-18-54-4/h7-17,24-28H,18-23H2,1-6H3,(H,45,46,49)(H,47,48,52)(H2,50,51,53)
InChIKey=PKOUTHZCBPYDLA-UHFFFAOYSA-N

> <PUBCHEM_SUBSTANCE_SYNONYM>
SCHEMBL16106360

> <PUBCHEM_XREF_EXT_ID>
SCHEMBL16106360

> <PUBCHEM_EXT_DATASOURCE_URL>
https://www.surechembl.org/

> <PUBCHEM_EXT_SUBSTANCE_URL>
https://www.surechembl.org/chemical/SCHEMBL16106360

> <PUBCHEM_CID_ASSOCIATIONS>
86273305  1

> <PUBCHEM_COORDINATE_TYPE>
1
3

$$$$
