310942107
  -OEChem-07211613022D

 19 20  0     0  0  0  0  0  0999 V2000
   -2.9096   -0.0148    0.0000 F   0  0  0  0  0  0  0  0  0  0  0  0
    0.4051   -1.4584    0.0000 O   0  5  0  0  0  0  0  0  0  0  0  0
   -0.8471   -2.1509    0.0000 O   0  0  0  0  0  0  0  0  0  0  0  0
    2.9096    1.3848    0.0000 O   0  0  0  0  0  0  0  0  0  0  0  0
   -0.4346   -1.4732    0.0000 N   0  3  0  0  0  0  0  0  0  0  0  0
   -0.4346    0.0442    0.0000 C   0  0  0  0  0  0  0  0  0  0  0  0
   -0.8471   -0.6777    0.0000 C   0  0  0  0  0  0  0  0  0  0  0  0
    0.4199    0.0442    0.0000 C   0  0  0  0  0  0  0  0  0  0  0  0
   -0.8323    0.7661    0.0000 C   0  0  0  0  0  0  0  0  0  0  0  0
   -1.6721   -0.6482    0.0000 C   0  0  0  0  0  0  0  0  0  0  0  0
    0.8323    0.7513    0.0000 C   0  0  0  0  0  0  0  0  0  0  0  0
   -2.0846    0.0589    0.0000 C   0  0  0  0  0  0  0  0  0  0  0  0
    1.6426    0.7366    0.0000 C   0  0  0  0  0  0  0  0  0  0  0  0
    0.8323   -0.6777    0.0000 C   0  0  0  0  0  0  0  0  0  0  0  0
   -1.6573    0.7661    0.0000 C   0  0  0  0  0  0  0  0  0  0  0  0
    2.0551    0.0000    0.0000 C   0  0  0  0  0  0  0  0  0  0  0  0
    1.6426   -0.6777    0.0000 C   0  0  0  0  0  0  0  0  0  0  0  0
    2.0404    1.4732    0.0000 C   0  0  0  0  0  0  0  0  0  0  0  0
    1.6426    2.1509    0.0000 C   0  0  0  0  0  0  0  0  0  0  0  0
  1 12  1  0  0  0  0
  2  5  1  0  0  0  0
  3  5  2  0  0  0  0
  4 18  2  0  0  0  0
  5  7  1  0  0  0  0
  6  7  1  0  0  0  0
  6  8  1  0  0  0  0
  6  9  2  0  0  0  0
  7 10  2  0  0  0  0
  8 11  1  0  0  0  0
  8 14  2  0  0  0  0
  9 15  1  0  0  0  0
 10 12  1  0  0  0  0
 11 13  2  0  0  0  0
 12 15  2  0  0  0  0
 13 16  1  0  0  0  0
 13 18  1  0  0  0  0
 14 17  1  0  0  0  0
 16 17  2  0  0  0  0
 18 19  1  0  0  0  0
M  CHG  2   2  -1   5   1
M  END
> <PUBCHEM_COMPOUND_ID_TYPE>
0

> <PUBCHEM_TOTAL_CHARGE>
0

> <PUBCHEM_SUBSTANCE_ID>
310942107

> <PUBCHEM_SUBSTANCE_VERSION>
1

> <PUBCHEM_EXT_DATASOURCE_NAME>
4488

> <PUBCHEM_EXT_DATASOURCE_REGID>
SCHEMBL16120142

> <PUBCHEM_SUBSTANCE_COMMENT>
InChI=1S/C14H10FNO3/c1-9(17)10-3-2-4-11(7-10)13-6-5-12(15)8-14(13)16(18)19/h2-8H,1H3
InChIKey=CZDMHOWYQYRNRZ-UHFFFAOYSA-N

> <PUBCHEM_SUBSTANCE_SYNONYM>
SCHEMBL16120142

> <PUBCHEM_XREF_EXT_ID>
SCHEMBL16120142

> <PUBCHEM_EXT_DATASOURCE_URL>
https://www.surechembl.org/

> <PUBCHEM_EXT_SUBSTANCE_URL>
https://www.surechembl.org/chemical/SCHEMBL16120142

> <PUBCHEM_CID_ASSOCIATIONS>
117608768  1

> <PUBCHEM_COORDINATE_TYPE>
1
3

$$$$
