310945751
  -OEChem-07211613022D

 17 19  0     0  0  0  0  0  0999 V2000
    1.9434    1.4318    0.0000 O   0  0  0  0  0  0  0  0  0  0  0  0
   -2.7179   -1.2684    0.0000 O   0  0  0  0  0  0  0  0  0  0  0  0
    1.4105   -0.0107    0.0000 N   0  0  0  0  0  0  0  0  0  0  0  0
    0.5791    1.0481    0.0000 N   0  0  0  0  0  0  0  0  0  0  0  0
   -2.0073   -0.0249    0.0000 N   0  0  0  0  0  0  0  0  0  0  0  0
   -1.1618    1.0410    0.0000 N   0  0  0  0  0  0  0  0  0  0  0  0
    0.4654   -1.1049    0.0000 N   0  0  0  0  0  0  0  0  0  0  0  0
   -1.0268   -1.1120    0.0000 N   0  0  0  0  0  0  0  0  0  0  0  0
    0.1244    0.4014    0.0000 C   0  0  0  0  0  0  0  0  0  0  0  0
   -0.7212    0.3872    0.0000 C   0  0  0  0  0  0  0  0  0  0  0  0
    0.6431   -0.2523    0.0000 C   0  0  0  0  0  0  0  0  0  0  0  0
   -1.2257   -0.2594    0.0000 C   0  0  0  0  0  0  0  0  0  0  0  0
    1.3537    0.8492    0.0000 C   0  0  0  0  0  0  0  0  0  0  0  0
   -1.9576    0.8563    0.0000 C   0  0  0  0  0  0  0  0  0  0  0  0
   -0.2877   -1.4318    0.0000 C   0  0  0  0  0  0  0  0  0  0  0  0
   -2.7108   -0.3730    0.0000 C   0  0  0  0  0  0  0  0  0  0  0  0
    2.1352   -0.3730    0.0000 C   0  0  0  0  0  0  0  0  0  0  0  0
  1 13  2  0  0  0  0
  2 16  2  0  0  0  0
  3 11  1  0  0  0  0
  3 13  1  0  0  0  0
  3 17  1  0  0  0  0
  4  9  2  0  0  0  0
  4 13  1  0  0  0  0
  5 12  1  0  0  0  0
  5 14  1  0  0  0  0
  5 16  1  0  0  0  0
  6 10  1  0  0  0  0
  6 14  2  0  0  0  0
  7 11  2  0  0  0  0
  7 15  1  0  0  0  0
  8 12  1  0  0  0  0
  8 15  2  0  0  0  0
  9 10  1  0  0  0  0
  9 11  1  0  0  0  0
 10 12  2  0  0  0  0
M  END
> <PUBCHEM_COMPOUND_ID_TYPE>
0

> <PUBCHEM_TOTAL_CHARGE>
0

> <PUBCHEM_SUBSTANCE_ID>
310945751

> <PUBCHEM_SUBSTANCE_VERSION>
1

> <PUBCHEM_EXT_DATASOURCE_NAME>
4488

> <PUBCHEM_EXT_DATASOURCE_REGID>
SCHEMBL16123855

> <PUBCHEM_SUBSTANCE_COMMENT>
InChI=1S/C9H6N6O2/c1-14-7-6(13-9(14)17)5-8(11-2-10-7)15(4-16)3-12-5/h2-4H,1H3
InChIKey=IQSAAUOQVSUYPD-UHFFFAOYSA-N

> <PUBCHEM_SUBSTANCE_SYNONYM>
SCHEMBL16123855

> <PUBCHEM_XREF_EXT_ID>
SCHEMBL16123855

> <PUBCHEM_EXT_DATASOURCE_URL>
https://www.surechembl.org/

> <PUBCHEM_EXT_SUBSTANCE_URL>
https://www.surechembl.org/chemical/SCHEMBL16123855

> <PUBCHEM_CID_ASSOCIATIONS>
117611744  1

> <PUBCHEM_COORDINATE_TYPE>
1
3

$$$$
