310935610
  -OEChem-07211613022D

 29 31  0     0  0  0  0  0  0999 V2000
    3.5844   -0.8489    0.0000 F   0  0  0  0  0  0  0  0  0  0  0  0
    2.2167    0.0000    0.0000 F   0  0  0  0  0  0  0  0  0  0  0  0
    0.7075   -3.2543    0.0000 O   0  0  0  0  0  0  0  0  0  0  0  0
    4.9522   -8.2064    0.0000 O   0  0  0  0  0  0  0  0  0  0  0  0
    4.2447   -9.4327    0.0000 O   0  0  0  0  0  0  0  0  0  0  0  0
    1.4149   -4.4805    0.0000 N   0  0  0  0  0  0  0  0  0  0  0  0
    2.1224   -3.2543    0.0000 C   0  0  0  0  0  0  0  0  0  0  0  0
    2.1695   -2.4525    0.0000 C   0  0  0  0  0  0  0  0  0  0  0  0
    1.4149   -3.6316    0.0000 C   0  0  0  0  0  0  0  0  0  0  0  0
    2.8298   -3.6788    0.0000 C   0  0  0  0  0  0  0  0  0  0  0  0
    2.8298   -4.4805    0.0000 C   0  0  0  0  0  0  0  0  0  0  0  0
    2.8770   -2.0752    0.0000 C   0  0  0  0  0  0  0  0  0  0  0  0
    2.8770   -1.2263    0.0000 C   0  0  0  0  0  0  0  0  0  0  0  0
    1.4149   -2.0280    0.0000 C   0  0  0  0  0  0  0  0  0  0  0  0
    2.1224   -4.9050    0.0000 C   0  0  0  0  0  0  0  0  0  0  0  0
    2.1695   -0.8489    0.0000 C   0  0  0  0  0  0  0  0  0  0  0  0
    3.5373   -4.9050    0.0000 C   0  0  0  0  0  0  0  0  0  0  0  0
    1.4621   -1.2263    0.0000 C   0  0  0  0  0  0  0  0  0  0  0  0
    3.5373   -5.7539    0.0000 C   0  0  0  0  0  0  0  0  0  0  0  0
    2.8298   -6.1784    0.0000 C   0  0  0  0  0  0  0  0  0  0  0  0
    4.2447   -6.1784    0.0000 C   0  0  0  0  0  0  0  0  0  0  0  0
    3.5373   -7.4047    0.0000 C   0  0  0  0  0  0  0  0  0  0  0  0
    2.8298   -6.9802    0.0000 C   0  0  0  0  0  0  0  0  0  0  0  0
    4.2447   -6.9802    0.0000 C   0  0  0  0  0  0  0  0  0  0  0  0
    3.5373   -8.2064    0.0000 C   0  0  0  0  0  0  0  0  0  0  0  0
    0.0000   -3.6316    0.0000 C   0  0  0  0  0  0  0  0  0  0  0  0
    4.2447   -8.6309    0.0000 C   0  0  0  0  0  0  0  0  0  0  0  0
    5.6596   -8.6309    0.0000 C   0  0  0  0  0  0  0  0  0  0  0  0
    6.3671   -8.2064    0.0000 C   0  0  0  0  0  0  0  0  0  0  0  0
  1 13  1  0  0  0  0
  2 16  1  0  0  0  0
  3  9  1  0  0  0  0
  3 26  1  0  0  0  0
  4 27  1  0  0  0  0
  4 28  1  0  0  0  0
  5 27  2  0  0  0  0
  6  9  2  0  0  0  0
  6 15  1  0  0  0  0
  7  8  1  0  0  0  0
  7  9  1  0  0  0  0
  7 10  2  0  0  0  0
  8 12  1  0  0  0  0
  8 14  2  0  0  0  0
 10 11  1  0  0  0  0
 11 15  2  0  0  0  0
 11 17  1  0  0  0  0
 12 13  2  0  0  0  0
 13 16  1  0  0  0  0
 14 18  1  0  0  0  0
 16 18  2  0  0  0  0
 17 19  1  0  0  0  0
 19 20  2  0  0  0  0
 19 21  1  0  0  0  0
 20 23  1  0  0  0  0
 21 24  2  0  0  0  0
 22 23  2  0  0  0  0
 22 24  1  0  0  0  0
 22 25  1  0  0  0  0
 25 27  1  0  0  0  0
 28 29  1  0  0  0  0
M  END
> <PUBCHEM_COMPOUND_ID_TYPE>
0

> <PUBCHEM_TOTAL_CHARGE>
0

> <PUBCHEM_SUBSTANCE_ID>
310935610

> <PUBCHEM_SUBSTANCE_VERSION>
1

> <PUBCHEM_EXT_DATASOURCE_NAME>
4488

> <PUBCHEM_EXT_DATASOURCE_REGID>
SCHEMBL16113184

> <PUBCHEM_SUBSTANCE_COMMENT>
InChI=1S/C23H21F2NO3/c1-3-29-22(27)12-16-6-4-15(5-7-16)10-17-11-19(23(28-2)26-14-17)18-8-9-20(24)21(25)13-18/h4-9,11,13-14H,3,10,12H2,1-2H3
InChIKey=HTHCNXXGOXUVCK-UHFFFAOYSA-N

> <PUBCHEM_SUBSTANCE_SYNONYM>
SCHEMBL16113184

> <PUBCHEM_XREF_EXT_ID>
SCHEMBL16113184

> <PUBCHEM_EXT_DATASOURCE_URL>
https://www.surechembl.org/

> <PUBCHEM_EXT_SUBSTANCE_URL>
https://www.surechembl.org/chemical/SCHEMBL16113184

> <PUBCHEM_CID_ASSOCIATIONS>
117603628  1

> <PUBCHEM_COORDINATE_TYPE>
1
3

$$$$
