310946218
  -OEChem-07211613022D

 26 25  0     1  0  0  0  0  0999 V2000
    1.9020   -1.6696    0.0000 S   0  0  0  0  0  0  0  0  0  0  0  0
    1.3800    1.4036    0.0000 O   0  0  0  0  0  0  0  0  0  0  0  0
    1.4895   -2.3841    0.0000 O   0  0  0  0  0  0  0  0  0  0  0  0
    1.1050   -1.4561    0.0000 O   0  0  0  0  0  0  0  0  0  0  0  0
   -0.0953    1.0653    0.0000 O   0  0  0  0  0  0  0  0  0  0  0  0
   -1.2470    0.3508    0.0000 O   0  0  0  0  0  0  0  0  0  0  0  0
   -1.2470    1.7799    0.0000 O   0  0  0  0  0  0  0  0  0  0  0  0
   -2.4330   -0.3638    0.0000 O   0  0  0  0  0  0  0  0  0  0  0  0
    2.1155   -0.8726    0.0000 N   0  0  3  0  0  0  0  0  0  0  0  0
    2.7606   -0.3582    0.0000 C   0  0  0  0  0  0  0  0  0  0  0  0
    1.3800   -0.6890    0.0000 C   0  0  0  0  0  0  0  0  0  0  0  0
    1.0219    0.3508    0.0000 C   0  0  3  0  0  0  0  0  0  0  0  0
    2.1155    1.5872    0.0000 C   0  0  3  0  0  0  0  0  0  0  0  0
    2.7606    1.0728    0.0000 C   0  0  0  0  0  0  0  0  0  0  0  0
    0.2828    0.3508    0.0000 C   0  0  0  0  0  0  0  0  0  0  0  0
    2.6990   -1.8831    0.0000 C   0  0  0  0  0  0  0  0  0  0  0  0
    3.2581   -0.9417    0.0000 C   0  0  0  0  0  0  0  0  0  0  0  0
    2.1772    0.2252    0.0000 C   0  0  0  0  0  0  0  0  0  0  0  0
    3.2581    0.2252    0.0000 C   0  0  0  0  0  0  0  0  0  0  0  0
    2.3291    2.3841    0.0000 C   0  0  0  0  0  0  0  0  0  0  0  0
   -0.8345    1.0653    0.0000 C   0  0  0  0  0  0  0  0  0  0  0  0
    2.1772    0.4894    0.0000 C   0  0  0  0  0  0  0  0  0  0  0  0
    3.2581    1.6561    0.0000 C   0  0  0  0  0  0  0  0  0  0  0  0
    3.2581    0.4894    0.0000 C   0  0  0  0  0  0  0  0  0  0  0  0
   -2.0204    0.3508    0.0000 C   0  0  0  0  0  0  0  0  0  0  0  0
   -3.2581   -0.3638    0.0000 C   0  0  0  0  0  0  0  0  0  0  0  0
  1  3  2  0  0  0  0
  1  4  2  0  0  0  0
  1  9  1  0  0  0  0
  1 16  1  0  0  0  0
 12  2  1  1  0  0  0
  2 13  1  0  0  0  0
  5 15  1  0  0  0  0
  5 21  1  0  0  0  0
  6 21  1  0  0  0  0
  6 25  1  0  0  0  0
  7 21  2  0  0  0  0
  8 25  1  0  0  0  0
  8 26  1  0  0  0  0
  9 10  1  0  0  0  0
  9 11  1  0  0  0  0
 10 17  1  0  0  0  0
 10 18  1  0  0  0  0
 10 19  1  0  0  0  0
 11 12  1  0  0  0  0
 12 15  1  0  0  0  0
 13 14  1  0  0  0  0
 13 20  1  1  0  0  0
 14 22  1  0  0  0  0
 14 23  1  0  0  0  0
 14 24  1  0  0  0  0
M  END
> <PUBCHEM_COMPOUND_ID_TYPE>
0

> <PUBCHEM_TOTAL_CHARGE>
0

> <PUBCHEM_SUBSTANCE_ID>
310946218

> <PUBCHEM_SUBSTANCE_VERSION>
1

> <PUBCHEM_EXT_DATASOURCE_NAME>
4488

> <PUBCHEM_EXT_DATASOURCE_REGID>
SCHEMBL16124330

> <PUBCHEM_SUBSTANCE_COMMENT>
InChI=1S/C17H35NO7S/c1-13(16(2,3)4)25-14(11-23-15(19)24-12-22-8)10-18(17(5,6)7)26(9,20)21/h13-14H,10-12H2,1-9H3/t13-,14-/m0/s1
InChIKey=ROOQXPMABMVBLR-KBPBESRZSA-N

> <PUBCHEM_SUBSTANCE_SYNONYM>
SCHEMBL16124330

> <PUBCHEM_XREF_EXT_ID>
SCHEMBL16124330

> <PUBCHEM_EXT_DATASOURCE_URL>
https://www.surechembl.org/

> <PUBCHEM_EXT_SUBSTANCE_URL>
https://www.surechembl.org/chemical/SCHEMBL16124330

> <PUBCHEM_CID_ASSOCIATIONS>
117612166  1

> <PUBCHEM_COORDINATE_TYPE>
1
3

> <PUBCHEM_BONDANNOTATIONS>
10  17  3
10  18  3
13  20  5
14  22  3
14  23  3
12  2  5

$$$$
