310948759
  -OEChem-07211613022D

 32 36  0     1  0  0  0  0  0999 V2000
    2.8382   -3.7751    0.0000 Cl  0  0  0  0  0  0  0  0  0  0  0  0
   -2.1218   -3.2424    0.0000 O   0  0  0  0  0  0  0  0  0  0  0  0
    0.8726    4.1609    0.0000 O   0  0  0  0  0  0  0  0  0  0  0  0
   -0.6338   -0.9277    0.0000 N   0  0  0  0  0  0  0  0  0  0  0  0
   -0.1378   -1.5890    0.0000 N   0  0  0  0  0  0  0  0  0  0  0  0
    0.3582    2.2320    0.0000 N   0  0  0  0  0  0  0  0  0  0  0  0
   -0.3766   -3.0403    0.0000 N   0  0  0  0  0  0  0  0  0  0  0  0
   -2.8382   -2.0116    0.0000 N   0  0  0  0  0  0  0  0  0  0  0  0
    1.5156   -1.1849    0.0000 N   0  0  0  0  0  0  0  0  0  0  0  0
   -1.3870   -1.1665    0.0000 C   0  0  0  0  0  0  0  0  0  0  0  0
   -1.4237   -1.9932    0.0000 C   0  0  0  0  0  0  0  0  0  0  0  0
   -0.6338   -2.2504    0.0000 C   0  0  0  0  0  0  0  0  0  0  0  0
   -0.3766   -0.1194    0.0000 C   0  0  3  0  0  0  0  0  0  0  0  0
    0.4317    0.0459    0.0000 C   0  0  3  0  0  0  0  0  0  0  0  0
   -2.1034   -2.3789    0.0000 C   0  0  0  0  0  0  0  0  0  0  0  0
    0.1378    1.4421    0.0000 C   0  0  3  0  0  0  0  0  0  0  0  0
   -2.1401   -0.7623    0.0000 C   0  0  0  0  0  0  0  0  0  0  0  0
   -0.9094    0.4684    0.0000 C   0  0  0  0  0  0  0  0  0  0  0  0
    0.6705    3.3710    0.0000 C   0  0  0  0  0  0  0  0  0  0  0  0
    0.6889    0.8175    0.0000 C   0  0  0  0  0  0  0  0  0  0  0  0
   -0.6521    1.2584    0.0000 C   0  0  0  0  0  0  0  0  0  0  0  0
    1.0563    2.6545    0.0000 C   0  0  0  0  0  0  0  0  0  0  0  0
   -0.0459    2.9668    0.0000 C   0  0  0  0  0  0  0  0  0  0  0  0
   -2.8198   -1.1665    0.0000 C   0  0  0  0  0  0  0  0  0  0  0  0
    0.4317   -3.2056    0.0000 C   0  0  0  0  0  0  0  0  0  0  0  0
    0.9828   -0.5787    0.0000 C   0  0  0  0  0  0  0  0  0  0  0  0
    1.4788    3.5914    0.0000 C   0  0  0  0  0  0  0  0  0  0  0  0
    0.6889   -3.9955    0.0000 C   0  0  0  0  0  0  0  0  0  0  0  0
    1.0012   -2.5994    0.0000 C   0  0  0  0  0  0  0  0  0  0  0  0
    1.4972   -4.1609    0.0000 C   0  0  0  0  0  0  0  0  0  0  0  0
    1.7911   -2.7831    0.0000 C   0  0  0  0  0  0  0  0  0  0  0  0
    2.0483   -3.5547    0.0000 C   0  0  0  0  0  0  0  0  0  0  0  0
  1 32  1  0  0  0  0
  2 15  2  0  0  0  0
  3 19  1  0  0  0  0
  4  5  1  0  0  0  0
  4 10  1  0  0  0  0
 13  4  1  1  0  0  0
  5 12  2  0  0  0  0
  6 16  1  0  0  0  0
  6 22  1  0  0  0  0
  6 23  1  0  0  0  0
  7 12  1  0  0  0  0
  7 25  1  0  0  0  0
  8 15  1  0  0  0  0
  8 24  1  0  0  0  0
  9 26  3  0  0  0  0
 10 11  2  0  0  0  0
 10 17  1  0  0  0  0
 11 12  1  0  0  0  0
 11 15  1  0  0  0  0
 13 14  1  0  0  0  0
 13 18  1  0  0  0  0
 14 20  1  0  0  0  0
 14 26  1  6  0  0  0
 16 20  1  1  0  0  0
 16 21  1  0  0  0  0
 17 24  2  0  0  0  0
 18 21  1  0  0  0  0
 19 22  1  0  0  0  0
 19 23  1  0  0  0  0
 19 27  1  0  0  0  0
 25 28  2  0  0  0  0
 25 29  1  0  0  0  0
 28 30  1  0  0  0  0
 29 31  2  0  0  0  0
 30 32  2  0  0  0  0
 31 32  1  0  0  0  0
M  END
> <PUBCHEM_COMPOUND_ID_TYPE>
0

> <PUBCHEM_TOTAL_CHARGE>
0

> <PUBCHEM_SUBSTANCE_ID>
310948759

> <PUBCHEM_SUBSTANCE_VERSION>
1

> <PUBCHEM_EXT_DATASOURCE_NAME>
4488

> <PUBCHEM_EXT_DATASOURCE_REGID>
SCHEMBL16126943

> <PUBCHEM_SUBSTANCE_COMMENT>
InChI=1S/C23H25ClN6O2/c1-23(32)12-29(13-23)17-6-7-18(14(10-17)11-25)30-19-8-9-26-22(31)20(19)21(28-30)27-16-4-2-15(24)3-5-16/h2-5,8-9,14,17-18,32H,6-7,10,12-13H2,1H3,(H,26,31)(H,27,28)/t14-,17-,18+/m1/s1
InChIKey=CTAVNIWHFDNHFG-OLMNPRSZSA-N

> <PUBCHEM_SUBSTANCE_SYNONYM>
SCHEMBL16126943

> <PUBCHEM_XREF_EXT_ID>
SCHEMBL16126943

> <PUBCHEM_EXT_DATASOURCE_URL>
https://www.surechembl.org/

> <PUBCHEM_EXT_SUBSTANCE_URL>
https://www.surechembl.org/chemical/SCHEMBL16126943

> <PUBCHEM_CID_ASSOCIATIONS>
117614301  1

> <PUBCHEM_COORDINATE_TYPE>
1
3

> <PUBCHEM_BONDANNOTATIONS>
14  26  6
16  20  5
13  4  5

$$$$
