310949841
  -OEChem-07211613022D

 27 28  0     0  0  0  0  0  0999 V2000
   -2.5186    1.6624    0.0000 O   0  0  0  0  0  0  0  0  0  0  0  0
    1.8062    0.8250    0.0000 O   0  0  0  0  0  0  0  0  0  0  0  0
   -4.6935    2.0749    0.0000 O   0  0  0  0  0  0  0  0  0  0  0  0
    3.2561    0.8250    0.0000 O   0  0  0  0  0  0  0  0  0  0  0  0
    4.6935    1.6624    0.0000 O   0  0  0  0  0  0  0  0  0  0  0  0
   -3.2186    0.4125    0.0000 N   0  0  0  0  0  0  0  0  0  0  0  0
    1.0937    2.0749    0.0000 N   0  0  0  0  0  0  0  0  0  0  0  0
    3.9811    2.0749    0.0000 N   0  0  0  0  0  0  0  0  0  0  0  0
   -2.5186    0.8250    0.0000 C   0  0  0  0  0  0  0  0  0  0  0  0
   -3.2311   -0.4250    0.0000 C   0  0  0  0  0  0  0  0  0  0  0  0
   -1.0812    0.8374    0.0000 C   0  0  0  0  0  0  0  0  0  0  0  0
   -1.7812    0.4125    0.0000 C   0  0  0  0  0  0  0  0  0  0  0  0
    0.3812    1.6749    0.0000 C   0  0  0  0  0  0  0  0  0  0  0  0
   -1.0562    1.6624    0.0000 C   0  0  0  0  0  0  0  0  0  0  0  0
   -0.3312    0.4250    0.0000 C   0  0  0  0  0  0  0  0  0  0  0  0
   -3.9561    0.8374    0.0000 C   0  0  0  0  0  0  0  0  0  0  0  0
   -0.3312    2.0749    0.0000 C   0  0  0  0  0  0  0  0  0  0  0  0
    0.3812    0.8374    0.0000 C   0  0  0  0  0  0  0  0  0  0  0  0
   -3.9436   -0.8374    0.0000 C   0  0  0  0  0  0  0  0  0  0  0  0
   -2.5061   -0.8374    0.0000 C   0  0  0  0  0  0  0  0  0  0  0  0
    1.8187    1.6874    0.0000 C   0  0  0  0  0  0  0  0  0  0  0  0
   -3.9436   -1.6624    0.0000 C   0  0  0  0  0  0  0  0  0  0  0  0
   -2.5061   -1.6624    0.0000 C   0  0  0  0  0  0  0  0  0  0  0  0
    2.5311    2.0749    0.0000 C   0  0  0  0  0  0  0  0  0  0  0  0
   -3.2186   -2.0749    0.0000 C   0  0  0  0  0  0  0  0  0  0  0  0
   -3.9561    1.6624    0.0000 C   0  0  0  0  0  0  0  0  0  0  0  0
    3.2687    1.6874    0.0000 C   0  0  0  0  0  0  0  0  0  0  0  0
  1  9  2  0  0  0  0
  2 21  2  0  0  0  0
  3 26  1  0  0  0  0
  4 27  2  0  0  0  0
  5  8  1  0  0  0  0
  6  9  1  0  0  0  0
  6 10  1  0  0  0  0
  6 16  1  0  0  0  0
  7 13  1  0  0  0  0
  7 21  1  0  0  0  0
  8 27  1  0  0  0  0
  9 12  1  0  0  0  0
 10 19  2  0  0  0  0
 10 20  1  0  0  0  0
 11 12  1  0  0  0  0
 11 14  2  0  0  0  0
 11 15  1  0  0  0  0
 13 17  2  0  0  0  0
 13 18  1  0  0  0  0
 14 17  1  0  0  0  0
 15 18  2  0  0  0  0
 16 26  1  0  0  0  0
 19 22  1  0  0  0  0
 20 23  2  0  0  0  0
 21 24  1  0  0  0  0
 22 25  2  0  0  0  0
 23 25  1  0  0  0  0
 24 27  1  0  0  0  0
M  END
> <PUBCHEM_COMPOUND_ID_TYPE>
0

> <PUBCHEM_TOTAL_CHARGE>
0

> <PUBCHEM_SUBSTANCE_ID>
310949841

> <PUBCHEM_SUBSTANCE_VERSION>
1

> <PUBCHEM_EXT_DATASOURCE_NAME>
4488

> <PUBCHEM_EXT_DATASOURCE_REGID>
SCHEMBL16128043

> <PUBCHEM_SUBSTANCE_COMMENT>
InChI=1S/C19H21N3O5/c23-11-10-22(16-4-2-1-3-5-16)19(26)12-14-6-8-15(9-7-14)20-17(24)13-18(25)21-27/h1-9,23,27H,10-13H2,(H,20,24)(H,21,25)
InChIKey=NXPQDMQABCSWLD-UHFFFAOYSA-N

> <PUBCHEM_SUBSTANCE_SYNONYM>
SCHEMBL16128043

> <PUBCHEM_XREF_EXT_ID>
SCHEMBL16128043

> <PUBCHEM_EXT_DATASOURCE_URL>
https://www.surechembl.org/

> <PUBCHEM_EXT_SUBSTANCE_URL>
https://www.surechembl.org/chemical/SCHEMBL16128043

> <PUBCHEM_CID_ASSOCIATIONS>
71523617  1

> <PUBCHEM_COORDINATE_TYPE>
1
3

$$$$
