310947054
  -OEChem-07211613022D

 44 48  0     0  0  0  0  0  0999 V2000
   -2.4210   -1.0313    0.0000 F   0  0  0  0  0  0  0  0  0  0  0  0
   -3.8499   -1.8563    0.0000 O   0  0  0  0  0  0  0  0  0  0  0  0
   -2.4210   -4.3313    0.0000 O   0  0  0  0  0  0  0  0  0  0  0  0
    0.4369   -1.0313    0.0000 O   0  0  0  0  0  0  0  0  0  0  0  0
    0.4369    3.0938    0.0000 O   0  0  0  0  0  0  0  0  0  0  0  0
   -0.9920    3.0938    0.0000 O   0  0  0  0  0  0  0  0  0  0  0  0
   -0.9920   -1.8563    0.0000 N   0  0  0  0  0  0  0  0  0  0  0  0
    0.4369   -1.8563    0.0000 N   0  0  0  0  0  0  0  0  0  0  0  0
    1.8659   -1.8563    0.0000 N   0  0  0  0  0  0  0  0  0  0  0  0
    1.8659   -3.5063    0.0000 N   0  0  0  0  0  0  0  0  0  0  0  0
   -0.2775    0.2062    0.0000 N   0  0  0  0  0  0  0  0  0  0  0  0
   -0.2775    1.8563    0.0000 N   0  0  0  0  0  0  0  0  0  0  0  0
    4.0794   -0.7763    0.0000 N   0  0  0  0  0  0  0  0  0  0  0  0
    4.5644   -1.4438    0.0000 N   0  0  0  0  0  0  0  0  0  0  0  0
   -1.7065   -2.2688    0.0000 C   0  0  0  0  0  0  0  0  0  0  0  0
   -0.2775   -2.2688    0.0000 C   0  0  0  0  0  0  0  0  0  0  0  0
    1.1514   -2.2688    0.0000 C   0  0  0  0  0  0  0  0  0  0  0  0
   -2.4210   -1.8563    0.0000 C   0  0  0  0  0  0  0  0  0  0  0  0
    1.1514   -3.0938    0.0000 C   0  0  0  0  0  0  0  0  0  0  0  0
   -3.1354   -2.2688    0.0000 C   0  0  0  0  0  0  0  0  0  0  0  0
   -0.9920   -1.0313    0.0000 C   0  0  0  0  0  0  0  0  0  0  0  0
   -1.7065   -3.0938    0.0000 C   0  0  0  0  0  0  0  0  0  0  0  0
   -0.2775   -3.0938    0.0000 C   0  0  0  0  0  0  0  0  0  0  0  0
    2.5803   -2.2688    0.0000 C   0  0  0  0  0  0  0  0  0  0  0  0
   -2.4210   -3.5063    0.0000 C   0  0  0  0  0  0  0  0  0  0  0  0
    0.4369   -3.5062    0.0000 C   0  0  0  0  0  0  0  0  0  0  0  0
   -0.2775   -0.6188    0.0000 C   0  0  0  0  0  0  0  0  0  0  0  0
   -3.1354   -3.0938    0.0000 C   0  0  0  0  0  0  0  0  0  0  0  0
    3.2948   -1.8563    0.0000 C   0  0  0  0  0  0  0  0  0  0  0  0
    2.5803   -3.0938    0.0000 C   0  0  0  0  0  0  0  0  0  0  0  0
    3.2948   -1.0313    0.0000 C   0  0  0  0  0  0  0  0  0  0  0  0
    4.0794   -2.1112    0.0000 C   0  0  0  0  0  0  0  0  0  0  0  0
    0.4369    0.6187    0.0000 C   0  0  0  0  0  0  0  0  0  0  0  0
   -0.9920    0.6187    0.0000 C   0  0  0  0  0  0  0  0  0  0  0  0
    0.4369    1.4437    0.0000 C   0  0  0  0  0  0  0  0  0  0  0  0
   -0.9920    1.4437    0.0000 C   0  0  0  0  0  0  0  0  0  0  0  0
   -0.2775    2.6813    0.0000 C   0  0  0  0  0  0  0  0  0  0  0  0
   -4.5644   -2.2688    0.0000 C   0  0  0  0  0  0  0  0  0  0  0  0
    0.4369    3.9188    0.0000 C   0  0  0  0  0  0  0  0  0  0  0  0
   -3.1354   -4.7438    0.0000 C   0  0  0  0  0  0  0  0  0  0  0  0
    4.4919   -0.0618    0.0000 C   0  0  0  0  0  0  0  0  0  0  0  0
   -0.2775    4.3313    0.0000 C   0  0  0  0  0  0  0  0  0  0  0  0
    0.4369    4.7438    0.0000 C   0  0  0  0  0  0  0  0  0  0  0  0
    1.1514    4.3313    0.0000 C   0  0  0  0  0  0  0  0  0  0  0  0
  1 18  1  0  0  0  0
  2 20  1  0  0  0  0
  2 38  1  0  0  0  0
  3 25  1  0  0  0  0
  3 40  1  0  0  0  0
  4 27  2  0  0  0  0
  5 37  1  0  0  0  0
  5 39  1  0  0  0  0
  6 37  2  0  0  0  0
  7 15  1  0  0  0  0
  7 16  1  0  0  0  0
  7 21  1  0  0  0  0
  8 16  1  0  0  0  0
  8 17  2  0  0  0  0
  9 17  1  0  0  0  0
  9 24  2  0  0  0  0
 10 19  1  0  0  0  0
 10 30  2  0  0  0  0
 11 27  1  0  0  0  0
 11 33  1  0  0  0  0
 11 34  1  0  0  0  0
 12 35  1  0  0  0  0
 12 36  1  0  0  0  0
 12 37  1  0  0  0  0
 13 14  1  0  0  0  0
 13 31  1  0  0  0  0
 13 41  1  0  0  0  0
 14 32  2  0  0  0  0
 15 18  2  0  0  0  0
 15 22  1  0  0  0  0
 16 23  2  0  0  0  0
 17 19  1  0  0  0  0
 18 20  1  0  0  0  0
 19 26  2  0  0  0  0
 20 28  2  0  0  0  0
 21 27  1  0  0  0  0
 22 25  2  0  0  0  0
 23 26  1  0  0  0  0
 24 29  1  0  0  0  0
 24 30  1  0  0  0  0
 25 28  1  0  0  0  0
 29 31  2  0  0  0  0
 29 32  1  0  0  0  0
 33 35  1  0  0  0  0
 34 36  1  0  0  0  0
 39 42  1  0  0  0  0
 39 43  1  0  0  0  0
 39 44  1  0  0  0  0
M  END
> <PUBCHEM_COMPOUND_ID_TYPE>
0

> <PUBCHEM_TOTAL_CHARGE>
0

> <PUBCHEM_SUBSTANCE_ID>
310947054

> <PUBCHEM_SUBSTANCE_VERSION>
1

> <PUBCHEM_EXT_DATASOURCE_NAME>
4488

> <PUBCHEM_EXT_DATASOURCE_REGID>
SCHEMBL16125207

> <PUBCHEM_SUBSTANCE_COMMENT>
InChI=1S/C30H35FN8O5/c1-30(2,3)44-29(41)38-11-9-37(10-12-38)26(40)18-39(23-13-20(42-5)14-24(43-6)27(23)31)25-8-7-21-28(35-25)34-22(16-32-21)19-15-33-36(4)17-19/h7-8,13-17H,9-12,18H2,1-6H3
InChIKey=CAOUMRAZCONNEZ-UHFFFAOYSA-N

> <PUBCHEM_SUBSTANCE_SYNONYM>
SCHEMBL16125207

> <PUBCHEM_XREF_EXT_ID>
SCHEMBL16125207

> <PUBCHEM_EXT_DATASOURCE_URL>
https://www.surechembl.org/

> <PUBCHEM_EXT_SUBSTANCE_URL>
https://www.surechembl.org/chemical/SCHEMBL16125207

> <PUBCHEM_CID_ASSOCIATIONS>
117612905  1

> <PUBCHEM_COORDINATE_TYPE>
1
3

$$$$
