310941977
  -OEChem-07211613022D

 24 27  0     0  0  0  0  0  0999 V2000
   -1.9838   -2.9756    0.0000 F   0  0  0  0  0  0  0  0  0  0  0  0
    2.5839    1.6980    0.0000 O   0  0  0  0  0  0  0  0  0  0  0  0
   -0.5436   -0.4907    0.0000 N   0  0  0  0  0  0  0  0  0  0  0  0
    1.5108    2.6439    0.0000 N   0  0  0  0  0  0  0  0  0  0  0  0
   -1.0024    2.9756    0.0000 N   0  0  0  0  0  0  0  0  0  0  0  0
   -0.1271    0.7871    0.0000 C   0  0  0  0  0  0  0  0  0  0  0  0
   -0.9742    0.7871    0.0000 C   0  0  0  0  0  0  0  0  0  0  0  0
    0.1200    0.0035    0.0000 C   0  0  0  0  0  0  0  0  0  0  0  0
   -1.2213   -0.0035    0.0000 C   0  0  0  0  0  0  0  0  0  0  0  0
    0.4236    1.4084    0.0000 C   0  0  0  0  0  0  0  0  0  0  0  0
    1.2284    1.2460    0.0000 C   0  0  0  0  0  0  0  0  0  0  0  0
   -1.5249    1.4014    0.0000 C   0  0  0  0  0  0  0  0  0  0  0  0
    0.9318   -0.1730    0.0000 C   0  0  0  0  0  0  0  0  0  0  0  0
    1.4826    0.4413    0.0000 C   0  0  0  0  0  0  0  0  0  0  0  0
   -2.0403   -0.1730    0.0000 C   0  0  0  0  0  0  0  0  0  0  0  0
    1.7578    1.8672    0.0000 C   0  0  0  0  0  0  0  0  0  0  0  0
    0.1624    2.1779    0.0000 C   0  0  0  0  0  0  0  0  0  0  0  0
   -0.5507   -1.3237    0.0000 C   0  0  0  0  0  0  0  0  0  0  0  0
   -2.3227    1.2319    0.0000 C   0  0  0  0  0  0  0  0  0  0  0  0
   -2.5839    0.4413    0.0000 C   0  0  0  0  0  0  0  0  0  0  0  0
   -1.2637    2.1779    0.0000 C   0  0  0  0  0  0  0  0  0  0  0  0
    0.6989    2.7922    0.0000 C   0  0  0  0  0  0  0  0  0  0  0  0
   -1.2567   -1.7331    0.0000 C   0  0  0  0  0  0  0  0  0  0  0  0
   -1.2637   -2.5592    0.0000 C   0  0  0  0  0  0  0  0  0  0  0  0
  1 24  1  0  0  0  0
  2 16  2  0  0  0  0
  3  8  1  0  0  0  0
  3  9  1  0  0  0  0
  3 18  1  0  0  0  0
  4 16  1  0  0  0  0
  4 22  1  0  0  0  0
  5 21  3  0  0  0  0
  6  7  1  0  0  0  0
  6  8  2  0  0  0  0
  6 10  1  0  0  0  0
  7  9  1  0  0  0  0
  7 12  2  0  0  0  0
  8 13  1  0  0  0  0
  9 15  2  0  0  0  0
 10 11  2  0  0  0  0
 10 17  1  0  0  0  0
 11 14  1  0  0  0  0
 11 16  1  0  0  0  0
 12 19  1  0  0  0  0
 12 21  1  0  0  0  0
 13 14  2  0  0  0  0
 15 20  1  0  0  0  0
 17 22  2  0  0  0  0
 18 23  1  0  0  0  0
 19 20  2  0  0  0  0
 23 24  1  0  0  0  0
M  END
> <PUBCHEM_COMPOUND_ID_TYPE>
0

> <PUBCHEM_TOTAL_CHARGE>
0

> <PUBCHEM_SUBSTANCE_ID>
310941977

> <PUBCHEM_SUBSTANCE_VERSION>
1

> <PUBCHEM_EXT_DATASOURCE_NAME>
4488

> <PUBCHEM_EXT_DATASOURCE_REGID>
SCHEMBL16120011

> <PUBCHEM_SUBSTANCE_COMMENT>
InChI=1S/C19H14FN3O/c20-8-2-10-23-15-4-1-3-12(11-21)17(15)18-13-7-9-22-19(24)14(13)5-6-16(18)23/h1,3-7,9H,2,8,10H2,(H,22,24)
InChIKey=METCJSVMMLFCJO-UHFFFAOYSA-N

> <PUBCHEM_SUBSTANCE_SYNONYM>
SCHEMBL16120011

> <PUBCHEM_XREF_EXT_ID>
SCHEMBL16120011

> <PUBCHEM_EXT_DATASOURCE_URL>
https://www.surechembl.org/

> <PUBCHEM_EXT_SUBSTANCE_URL>
https://www.surechembl.org/chemical/SCHEMBL16120011

> <PUBCHEM_CID_ASSOCIATIONS>
86274290  1

> <PUBCHEM_COORDINATE_TYPE>
1
3

$$$$
