310929366
  -OEChem-07211613022D

 52 57  0     0  0  0  0  0  0999 V2000
    4.0583   -8.4395    0.0000 S   0  0  0  0  0  0  0  0  0  0  0  0
    6.5487   -4.1967    0.0000 O   0  0  0  0  0  0  0  0  0  0  0  0
    4.0583   -7.0099    0.0000 O   0  0  0  0  0  0  0  0  0  0  0  0
    2.0292   -4.8885    0.0000 O   0  0  0  0  0  0  0  0  0  0  0  0
   11.9905   -0.8301    0.0000 O   0  0  0  0  0  0  0  0  0  0  0  0
    4.0583   -7.5171    0.0000 O   0  0  0  0  0  0  0  0  0  0  0  0
    4.0583   -9.2235    0.0000 O   0  0  0  0  0  0  0  0  0  0  0  0
    9.1312   -0.0461    0.0000 O   0  0  0  0  0  0  0  0  0  0  0  0
    3.2743   -5.5802    0.0000 N   0  0  0  0  0  0  0  0  0  0  0  0
    3.2743   -4.1505    0.0000 N   0  0  0  0  0  0  0  0  0  0  0  0
    3.2743   -8.4395    0.0000 N   0  0  0  0  0  0  0  0  0  0  0  0
    7.7938   -3.5510    0.0000 N   0  0  0  0  0  0  0  0  0  0  0  0
    9.0390   -2.8593    0.0000 N   0  0  0  0  0  0  0  0  0  0  0  0
    7.8399   -2.1214    0.0000 N   0  0  0  0  0  0  0  0  0  0  0  0
    4.4734   -4.8423    0.0000 C   0  0  0  0  0  0  0  0  0  0  0  0
    2.8593   -6.2719    0.0000 C   0  0  0  0  0  0  0  0  0  0  0  0
    3.2282   -7.0099    0.0000 C   0  0  0  0  0  0  0  0  0  0  0  0
    5.3035   -4.8885    0.0000 C   0  0  0  0  0  0  0  0  0  0  0  0
    2.8593   -7.7016    0.0000 C   0  0  0  0  0  0  0  0  0  0  0  0
    1.6141   -7.0099    0.0000 C   0  0  0  0  0  0  0  0  0  0  0  0
    4.1044   -4.1505    0.0000 C   0  0  0  0  0  0  0  0  0  0  0  0
    5.7185   -4.1967    0.0000 C   0  0  0  0  0  0  0  0  0  0  0  0
    2.0292   -6.2719    0.0000 C   0  0  0  0  0  0  0  0  0  0  0  0
    2.0292   -7.7016    0.0000 C   0  0  0  0  0  0  0  0  0  0  0  0
    0.7840   -7.0099    0.0000 C   0  0  0  0  0  0  0  0  0  0  0  0
    2.8593   -4.8885    0.0000 C   0  0  0  0  0  0  0  0  0  0  0  0
    4.5195   -3.4588    0.0000 C   0  0  0  0  0  0  0  0  0  0  0  0
    5.3496   -3.4588    0.0000 C   0  0  0  0  0  0  0  0  0  0  0  0
    4.0583   -5.5802    0.0000 C   0  0  0  0  0  0  0  0  0  0  0  0
    5.6724   -5.5802    0.0000 C   0  0  0  0  0  0  0  0  0  0  0  0
   10.6992   -1.5219    0.0000 C   0  0  0  0  0  0  0  0  0  0  0  0
    6.9637   -3.5049    0.0000 C   0  0  0  0  0  0  0  0  0  0  0  0
   11.5293   -1.5219    0.0000 C   0  0  0  0  0  0  0  0  0  0  0  0
   11.9444   -2.2597    0.0000 C   0  0  0  0  0  0  0  0  0  0  0  0
    9.4541   -2.1675    0.0000 C   0  0  0  0  0  0  0  0  0  0  0  0
    8.2089   -2.8593    0.0000 C   0  0  0  0  0  0  0  0  0  0  0  0
   10.2842   -2.2136    0.0000 C   0  0  0  0  0  0  0  0  0  0  0  0
    4.4734   -6.2719    0.0000 C   0  0  0  0  0  0  0  0  0  0  0  0
    5.3035   -6.3181    0.0000 C   0  0  0  0  0  0  0  0  0  0  0  0
   10.3303   -0.7840    0.0000 C   0  0  0  0  0  0  0  0  0  0  0  0
    9.5002   -0.7379    0.0000 C   0  0  0  0  0  0  0  0  0  0  0  0
   12.6362   -2.6748    0.0000 C   0  0  0  0  0  0  0  0  0  0  0  0
   11.8983   -3.0899    0.0000 C   0  0  0  0  0  0  0  0  0  0  0  0
    9.0851   -1.4297    0.0000 C   0  0  0  0  0  0  0  0  0  0  0  0
    0.7840   -6.1797    0.0000 C   0  0  0  0  0  0  0  0  0  0  0  0
    0.0000   -7.0099    0.0000 C   0  0  0  0  0  0  0  0  0  0  0  0
    0.7840   -7.7938    0.0000 C   0  0  0  0  0  0  0  0  0  0  0  0
    6.5487   -2.8132    0.0000 C   0  0  0  0  0  0  0  0  0  0  0  0
    7.0099   -2.1214    0.0000 C   0  0  0  0  0  0  0  0  0  0  0  0
    4.6579   -6.4564    0.0000 C   0  0  0  0  0  0  0  0  0  0  0  0
    4.8885   -8.4395    0.0000 C   0  0  0  0  0  0  0  0  0  0  0  0
    8.3011    0.0000    0.0000 C   0  0  0  0  0  0  0  0  0  0  0  0
  1  6  2  0  0  0  0
  1  7  2  0  0  0  0
  1 11  1  0  0  0  0
  1 51  1  0  0  0  0
  2 22  1  0  0  0  0
  2 32  1  0  0  0  0
  3 17  1  0  0  0  0
  3 50  1  0  0  0  0
  4 26  2  0  0  0  0
  5 33  2  0  0  0  0
  8 41  1  0  0  0  0
  8 52  1  0  0  0  0
  9 16  1  0  0  0  0
  9 26  1  0  0  0  0
 10 21  1  0  0  0  0
 10 26  1  0  0  0  0
 11 19  1  0  0  0  0
 12 32  2  0  0  0  0
 12 36  1  0  0  0  0
 13 35  1  0  0  0  0
 13 36  1  0  0  0  0
 14 36  2  0  0  0  0
 14 49  1  0  0  0  0
 15 18  2  0  0  0  0
 15 21  1  0  0  0  0
 15 29  1  0  0  0  0
 16 17  2  0  0  0  0
 16 23  1  0  0  0  0
 17 19  1  0  0  0  0
 18 22  1  0  0  0  0
 18 30  1  0  0  0  0
 19 24  2  0  0  0  0
 20 23  2  0  0  0  0
 20 24  1  0  0  0  0
 20 25  1  0  0  0  0
 21 27  2  0  0  0  0
 22 28  2  0  0  0  0
 25 45  1  0  0  0  0
 25 46  1  0  0  0  0
 25 47  1  0  0  0  0
 27 28  1  0  0  0  0
 29 38  2  0  0  0  0
 30 39  2  0  0  0  0
 31 33  1  0  0  0  0
 31 37  2  0  0  0  0
 31 40  1  0  0  0  0
 32 48  1  0  0  0  0
 33 34  1  0  0  0  0
 34 42  1  0  0  0  0
 34 43  1  0  0  0  0
 35 37  1  0  0  0  0
 35 44  2  0  0  0  0
 38 39  1  0  0  0  0
 40 41  2  0  0  0  0
 41 44  1  0  0  0  0
 42 43  1  0  0  0  0
 48 49  2  0  0  0  0
M  END
> <PUBCHEM_COMPOUND_ID_TYPE>
0

> <PUBCHEM_TOTAL_CHARGE>
0

> <PUBCHEM_SUBSTANCE_ID>
310929366

> <PUBCHEM_SUBSTANCE_VERSION>
1

> <PUBCHEM_EXT_DATASOURCE_NAME>
4488

> <PUBCHEM_EXT_DATASOURCE_REGID>
SCHEMBL16106538

> <PUBCHEM_SUBSTANCE_COMMENT>
InChI=1S/C38H40N6O7S/c1-38(2,3)24-19-30(35(50-5)31(20-24)44-52(6,47)48)42-37(46)41-29-13-14-32(28-10-8-7-9-27(28)29)51-33-15-16-39-36(43-33)40-25-17-23(18-26(21-25)49-4)34(45)22-11-12-22/h7-10,13-22,44H,11-12H2,1-6H3,(H,39,40,43)(H2,41,42,46)
InChIKey=ZVHJSCQINRIIPI-UHFFFAOYSA-N

> <PUBCHEM_SUBSTANCE_SYNONYM>
SCHEMBL16106538

> <PUBCHEM_XREF_EXT_ID>
SCHEMBL16106538

> <PUBCHEM_EXT_DATASOURCE_URL>
https://www.surechembl.org/

> <PUBCHEM_EXT_SUBSTANCE_URL>
https://www.surechembl.org/chemical/SCHEMBL16106538

> <PUBCHEM_CID_ASSOCIATIONS>
86274266  1

> <PUBCHEM_COORDINATE_TYPE>
1
3

$$$$
