310932162
  -OEChem-07211613022D

 47 52  0     1  0  0  0  0  0999 V2000
    0.7280    0.0000    0.0000 Cl  0  0  0  0  0  0  0  0  0  0  0  0
    2.1353   -0.8250    0.0000 F   0  0  0  0  0  0  0  0  0  0  0  0
    4.1736   -3.6883    0.0000 O   0  0  0  0  0  0  0  0  0  0  0  0
    3.4942   -3.3001    0.0000 O   0  0  0  0  0  0  0  0  0  0  0  0
    7.7163   -2.4751    0.0000 O   0  0  0  0  0  0  0  0  0  0  0  0
    8.4442   -3.6883    0.0000 O   0  0  0  0  0  0  0  0  0  0  0  0
    2.7662   -4.5133    0.0000 N   0  0  0  0  0  0  0  0  0  0  0  0
    2.0868   -7.3280    0.0000 N   0  0  3  0  0  0  0  0  0  0  0  0
    4.9015   -4.9501    0.0000 N   0  0  0  0  0  0  0  0  0  0  0  0
    0.6794   -3.2515    0.0000 N   0  0  0  0  0  0  0  0  0  0  0  0
    0.8250   -9.0751    0.0000 N   0  0  0  0  0  0  0  0  0  0  0  0
    1.3103   -3.7368    0.0000 N   0  0  0  0  0  0  0  0  0  0  0  0
    1.0676   -4.5133    0.0000 N   0  0  0  0  0  0  0  0  0  0  0  0
    0.2426   -4.5133    0.0000 N   0  0  0  0  0  0  0  0  0  0  0  0
    3.4942   -5.7266    0.0000 C   0  0  0  0  0  0  0  0  0  0  0  0
    3.4942   -4.9501    0.0000 C   0  0  3  0  0  0  0  0  0  0  0  0
    2.7662   -6.1633    0.0000 C   0  0  0  0  0  0  0  0  0  0  0  0
    2.7662   -6.9398    0.0000 C   0  0  0  0  0  0  0  0  0  0  0  0
    4.1736   -4.5133    0.0000 C   0  0  0  0  0  0  0  0  0  0  0  0
    2.0868   -5.7266    0.0000 C   0  0  0  0  0  0  0  0  0  0  0  0
    2.0868   -4.9015    0.0000 C   0  0  0  0  0  0  0  0  0  0  0  0
    2.7662   -3.6883    0.0000 C   0  0  0  0  0  0  0  0  0  0  0  0
    4.1736   -6.1148    0.0000 C   0  0  0  0  0  0  0  0  0  0  0  0
    3.4942   -7.3766    0.0000 C   0  0  0  0  0  0  0  0  0  0  0  0
    4.1736   -6.9398    0.0000 C   0  0  0  0  0  0  0  0  0  0  0  0
    1.4074   -2.0383    0.0000 C   0  0  0  0  0  0  0  0  0  0  0  0
    1.9412   -8.1530    0.0000 C   0  0  0  0  0  0  0  0  0  0  0  0
    0.6794   -2.4751    0.0000 C   0  0  0  0  0  0  0  0  0  0  0  0
    1.3103   -6.9883    0.0000 C   0  0  0  0  0  0  0  0  0  0  0  0
    2.0868   -3.3001    0.0000 C   0  0  0  0  0  0  0  0  0  0  0  0
    1.1647   -8.2987    0.0000 C   0  0  3  0  0  0  0  0  0  0  0  0
    1.4074   -1.2133    0.0000 C   0  0  0  0  0  0  0  0  0  0  0  0
    2.0868   -2.4751    0.0000 C   0  0  0  0  0  0  0  0  0  0  0  0
    0.7765   -7.5707    0.0000 C   0  0  0  0  0  0  0  0  0  0  0  0
    0.7280   -0.8250    0.0000 C   0  0  0  0  0  0  0  0  0  0  0  0
    5.5810   -4.5133    0.0000 C   0  0  0  0  0  0  0  0  0  0  0  0
    0.0000   -2.0383    0.0000 C   0  0  0  0  0  0  0  0  0  0  0  0
    0.0000   -1.2133    0.0000 C   0  0  0  0  0  0  0  0  0  0  0  0
    0.0000   -3.7368    0.0000 C   0  0  0  0  0  0  0  0  0  0  0  0
    5.5810   -3.6883    0.0000 C   0  0  0  0  0  0  0  0  0  0  0  0
    6.3089   -4.9501    0.0000 C   0  0  0  0  0  0  0  0  0  0  0  0
    6.9883   -3.6883    0.0000 C   0  0  0  0  0  0  0  0  0  0  0  0
    6.3089   -3.3001    0.0000 C   0  0  0  0  0  0  0  0  0  0  0  0
    6.9883   -4.5133    0.0000 C   0  0  0  0  0  0  0  0  0  0  0  0
    0.0000   -9.1237    0.0000 C   0  0  0  0  0  0  0  0  0  0  0  0
    1.3103   -9.7060    0.0000 C   0  0  0  0  0  0  0  0  0  0  0  0
    7.7163   -3.3001    0.0000 C   0  0  0  0  0  0  0  0  0  0  0  0
  1 35  1  0  0  0  0
  2 32  1  0  0  0  0
  3 19  2  0  0  0  0
  4 22  2  0  0  0  0
  5 47  2  0  0  0  0
  6 47  1  0  0  0  0
  7 16  1  0  0  0  0
  7 21  1  0  0  0  0
  7 22  1  0  0  0  0
  8 18  1  0  0  0  0
  8 27  1  0  0  0  0
  8 29  1  0  0  0  0
  9 19  1  0  0  0  0
  9 36  1  0  0  0  0
 10 12  1  0  0  0  0
 10 28  1  0  0  0  0
 10 39  1  0  0  0  0
 31 11  1  1  0  0  0
 11 45  1  0  0  0  0
 11 46  1  0  0  0  0
 12 13  2  0  0  0  0
 13 14  1  0  0  0  0
 14 39  2  0  0  0  0
 15 16  1  0  0  0  0
 15 17  2  0  0  0  0
 15 23  1  0  0  0  0
 16 19  1  1  0  0  0
 17 18  1  0  0  0  0
 17 20  1  0  0  0  0
 18 24  2  0  0  0  0
 20 21  1  0  0  0  0
 22 30  1  0  0  0  0
 23 25  2  0  0  0  0
 24 25  1  0  0  0  0
 26 28  2  0  0  0  0
 26 32  1  0  0  0  0
 26 33  1  0  0  0  0
 27 31  1  0  0  0  0
 28 37  1  0  0  0  0
 29 34  1  0  0  0  0
 30 33  2  0  0  0  0
 31 34  1  0  0  0  0
 32 35  2  0  0  0  0
 35 38  1  0  0  0  0
 36 40  2  0  0  0  0
 36 41  1  0  0  0  0
 37 38  2  0  0  0  0
 40 43  1  0  0  0  0
 41 44  2  0  0  0  0
 42 43  2  0  0  0  0
 42 44  1  0  0  0  0
 42 47  1  0  0  0  0
M  END
> <PUBCHEM_COMPOUND_ID_TYPE>
0

> <PUBCHEM_TOTAL_CHARGE>
0

> <PUBCHEM_SUBSTANCE_ID>
310932162

> <PUBCHEM_SUBSTANCE_VERSION>
1

> <PUBCHEM_EXT_DATASOURCE_NAME>
4488

> <PUBCHEM_EXT_DATASOURCE_REGID>
SCHEMBL16109516

> <PUBCHEM_SUBSTANCE_COMMENT>
InChI=1S/C33H32ClFN8O4/c1-40(2)22-14-16-41(18-22)27-5-3-4-24-23(27)15-17-42(31(24)32(45)37-21-8-6-20(7-9-21)33(46)47)29(44)13-10-25-28(43-19-36-38-39-43)12-11-26(34)30(25)35/h3-13,19,22,31H,14-18H2,1-2H3,(H,37,45)(H,46,47)/b13-10+/t22-,31+/m0/s1
InChIKey=VWQSNPCZPJHKDH-ZAROTZEJSA-N

> <PUBCHEM_SUBSTANCE_SYNONYM>
SCHEMBL16109516

> <PUBCHEM_XREF_EXT_ID>
SCHEMBL16109516

> <PUBCHEM_EXT_DATASOURCE_URL>
https://www.surechembl.org/

> <PUBCHEM_EXT_SUBSTANCE_URL>
https://www.surechembl.org/chemical/SCHEMBL16109516

> <PUBCHEM_CID_ASSOCIATIONS>
117600764  1

> <PUBCHEM_COORDINATE_TYPE>
1
3

> <PUBCHEM_BONDANNOTATIONS>
31  11  5
16  19  5

$$$$
