310947592
  -OEChem-07211613022D

 49 55  0     1  0  0  0  0  0999 V2000
   -1.3910  -11.0161    0.0000 P   0  0  3  0  0  0  0  0  0  0  0  0
    0.4150  -13.4684    0.0000 F   0  0  0  0  0  0  0  0  0  0  0  0
    1.2400  -11.4844    0.0000 O   0  0  0  0  0  0  0  0  0  0  0  0
    2.0650  -13.4684    0.0000 O   0  0  0  0  0  0  0  0  0  0  0  0
   -0.8077  -11.5995    0.0000 O   0  0  0  0  0  0  0  0  0  0  0  0
   -1.9744  -10.4328    0.0000 O   0  0  0  0  0  0  0  0  0  0  0  0
   -0.8077  -10.4328    0.0000 O   0  0  0  0  0  0  0  0  0  0  0  0
   -2.6889  -13.6620    0.0000 O   0  0  0  0  0  0  0  0  0  0  0  0
   -3.4033  -12.4245    0.0000 O   0  0  0  0  0  0  0  0  0  0  0  0
    1.9075  -11.1444    0.0000 N   0  0  0  0  0  0  0  0  0  0  0  0
    1.9075   -9.8095    0.0000 N   0  0  0  0  0  0  0  0  0  0  0  0
    3.4066  -11.3019    0.0000 N   0  0  0  0  0  0  0  0  0  0  0  0
    3.4066   -8.8269    0.0000 N   0  0  0  0  0  0  0  0  0  0  0  0
    4.1210  -10.0644    0.0000 N   0  0  0  0  0  0  0  0  0  0  0  0
   -1.9744  -11.5995    0.0000 N   0  0  0  0  0  0  0  0  0  0  0  0
    1.9075  -11.9694    0.0000 C   0  0  3  0  0  0  0  0  0  0  0  0
    1.6525  -12.7540    0.0000 C   0  0  3  0  0  0  0  0  0  0  0  0
    2.6921  -10.8894    0.0000 C   0  0  0  0  0  0  0  0  0  0  0  0
    0.8275  -12.7540    0.0000 C   0  0  3  0  0  0  0  0  0  0  0  0
    2.6921  -10.0644    0.0000 C   0  0  0  0  0  0  0  0  0  0  0  0
    0.5726  -11.9694    0.0000 C   0  0  3  0  0  0  0  0  0  0  0  0
    3.4066   -9.6519    0.0000 C   0  0  0  0  0  0  0  0  0  0  0  0
    1.4225  -10.4769    0.0000 C   0  0  0  0  0  0  0  0  0  0  0  0
    4.1210  -10.8894    0.0000 C   0  0  0  0  0  0  0  0  0  0  0  0
    2.4494  -12.5404    0.0000 C   0  0  0  0  0  0  0  0  0  0  0  0
   -0.0108  -11.3860    0.0000 C   0  0  0  0  0  0  0  0  0  0  0  0
    3.9899   -8.2435    0.0000 C   0  0  0  0  0  0  0  0  0  0  0  0
    2.8232   -8.2435    0.0000 C   0  0  0  0  0  0  0  0  0  0  0  0
    3.4066   -7.6602    0.0000 C   0  0  0  0  0  0  0  0  0  0  0  0
   -1.9744   -9.6078    0.0000 C   0  0  0  0  0  0  0  0  0  0  0  0
    4.8355  -11.3019    0.0000 C   0  0  0  0  0  0  0  0  0  0  0  0
   -2.6889   -9.1953    0.0000 C   0  0  0  0  0  0  0  0  0  0  0  0
   -2.6889   -8.3703    0.0000 C   0  0  0  0  0  0  0  0  0  0  0  0
   -1.9744  -12.4245    0.0000 C   0  0  3  0  0  0  0  0  0  0  0  0
   -1.2599   -9.1953    0.0000 C   0  0  0  0  0  0  0  0  0  0  0  0
   -3.4033   -9.6078    0.0000 C   0  0  0  0  0  0  0  0  0  0  0  0
   -1.9744   -7.9578    0.0000 C   0  0  0  0  0  0  0  0  0  0  0  0
   -2.6889  -12.8370    0.0000 C   0  0  0  0  0  0  0  0  0  0  0  0
   -1.2599   -8.3703    0.0000 C   0  0  0  0  0  0  0  0  0  0  0  0
   -3.4033   -7.9578    0.0000 C   0  0  0  0  0  0  0  0  0  0  0  0
   -4.1178   -9.1953    0.0000 C   0  0  0  0  0  0  0  0  0  0  0  0
   -4.1178   -8.3703    0.0000 C   0  0  0  0  0  0  0  0  0  0  0  0
   -1.2599  -12.8370    0.0000 C   0  0  0  0  0  0  0  0  0  0  0  0
   -3.4033  -14.0745    0.0000 C   0  0  0  0  0  0  0  0  0  0  0  0
   -3.4033  -14.8995    0.0000 C   0  0  0  0  0  0  0  0  0  0  0  0
   -4.1178  -13.6620    0.0000 C   0  0  0  0  0  0  0  0  0  0  0  0
   -4.8323  -14.0745    0.0000 C   0  0  0  0  0  0  0  0  0  0  0  0
   -4.1178  -15.3120    0.0000 C   0  0  0  0  0  0  0  0  0  0  0  0
   -4.8323  -14.8995    0.0000 C   0  0  0  0  0  0  0  0  0  0  0  0
  1  5  1  0  0  0  0
  1  6  1  0  0  0  0
  1  7  2  0  0  0  0
  1 15  1  0  0  0  0
 19  2  1  6  0  0  0
 16  3  1  6  0  0  0
  3 21  1  0  0  0  0
 17  4  1  6  0  0  0
  5 26  1  0  0  0  0
  6 30  1  0  0  0  0
  8 38  1  0  0  0  0
  8 44  1  0  0  0  0
  9 38  2  0  0  0  0
 10 16  1  0  0  0  0
 10 18  1  0  0  0  0
 10 23  1  0  0  0  0
 11 20  1  0  0  0  0
 11 23  2  0  0  0  0
 12 18  1  0  0  0  0
 12 24  2  0  0  0  0
 13 22  1  0  0  0  0
 13 27  1  0  0  0  0
 13 28  1  0  0  0  0
 14 22  2  0  0  0  0
 14 24  1  0  0  0  0
 15 34  1  0  0  0  0
 16 17  1  0  0  0  0
 17 19  1  0  0  0  0
 17 25  1  1  0  0  0
 18 20  2  0  0  0  0
 19 21  1  0  0  0  0
 20 22  1  0  0  0  0
 21 26  1  1  0  0  0
 24 31  1  0  0  0  0
 27 29  1  0  0  0  0
 28 29  1  0  0  0  0
 30 32  1  0  0  0  0
 30 35  2  0  0  0  0
 32 33  2  0  0  0  0
 32 36  1  0  0  0  0
 33 37  1  0  0  0  0
 33 40  1  0  0  0  0
 34 38  1  0  0  0  0
 34 43  1  1  0  0  0
 35 39  1  0  0  0  0
 36 41  2  0  0  0  0
 37 39  2  0  0  0  0
 40 42  2  0  0  0  0
 41 42  1  0  0  0  0
 44 45  1  0  0  0  0
 44 46  1  0  0  0  0
 45 48  1  0  0  0  0
 46 47  1  0  0  0  0
 47 49  1  0  0  0  0
 48 49  1  0  0  0  0
M  END
> <PUBCHEM_COMPOUND_ID_TYPE>
0

> <PUBCHEM_TOTAL_CHARGE>
0

> <PUBCHEM_SUBSTANCE_ID>
310947592

> <PUBCHEM_SUBSTANCE_VERSION>
1

> <PUBCHEM_EXT_DATASOURCE_NAME>
4488

> <PUBCHEM_EXT_DATASOURCE_REGID>
SCHEMBL16125755

> <PUBCHEM_SUBSTANCE_COMMENT>
InChI=1S/C34H42FN6O7P/c1-21(32(42)46-24-13-5-4-6-14-24)39-49(44,48-26-16-9-12-23-11-7-8-15-25(23)26)45-19-27-29(35)34(3,43)33(47-27)41-20-36-28-30(40-17-10-18-40)37-22(2)38-31(28)41/h7-9,11-12,15-16,20-21,24,27,29,33,43H,4-6,10,13-14,17-19H2,1-3H3,(H,39,44)/t21-,27+,29+,33+,34+,49?/m0/s1
InChIKey=WMZDDIFEUWXVBG-PVOCXKEZSA-N

> <PUBCHEM_SUBSTANCE_SYNONYM>
SCHEMBL16125755

> <PUBCHEM_XREF_EXT_ID>
SCHEMBL16125755

> <PUBCHEM_EXT_DATASOURCE_URL>
https://www.surechembl.org/

> <PUBCHEM_EXT_SUBSTANCE_URL>
https://www.surechembl.org/chemical/SCHEMBL16125755

> <PUBCHEM_CID_ASSOCIATIONS>
117613314  1

> <PUBCHEM_COORDINATE_TYPE>
1
3

> <PUBCHEM_BONDANNOTATIONS>
17  25  5
19  2  6
21  26  5
16  3  6
34  43  5
17  4  6

$$$$
