310935462
  -OEChem-07211613022D

 20 21  0     0  0  0  0  0  0999 V2000
    4.5240   -2.1245    0.0000 O   0  0  0  0  0  0  0  0  0  0  0  0
    3.2992   -2.8493    0.0000 O   0  0  0  0  0  0  0  0  0  0  0  0
    0.0000   -4.2990    0.0000 O   0  0  0  0  0  0  0  0  0  0  0  0
    1.2497   -4.9988    0.0000 O   0  0  0  0  0  0  0  0  0  0  0  0
    1.2247   -3.5742    0.0000 N   0  0  0  0  0  0  0  0  0  0  0  0
    2.4494   -1.4497    0.0000 C   0  0  0  0  0  0  0  0  0  0  0  0
    3.2742   -1.4247    0.0000 C   0  0  0  0  0  0  0  0  0  0  0  0
    2.0495   -2.1495    0.0000 C   0  0  0  0  0  0  0  0  0  0  0  0
    3.6992   -2.1245    0.0000 C   0  0  0  0  0  0  0  0  0  0  0  0
    1.2247   -2.1495    0.0000 C   0  0  0  0  0  0  0  0  0  0  0  0
    2.4744   -2.8744    0.0000 C   0  0  0  0  0  0  0  0  0  0  0  0
    2.0245   -0.7248    0.0000 C   0  0  0  0  0  0  0  0  0  0  0  0
    3.6742   -0.6999    0.0000 C   0  0  0  0  0  0  0  0  0  0  0  0
    0.7998   -2.8744    0.0000 C   0  0  0  0  0  0  0  0  0  0  0  0
    2.0495   -3.5742    0.0000 C   0  0  0  0  0  0  0  0  0  0  0  0
    2.4245    0.0000    0.0000 C   0  0  0  0  0  0  0  0  0  0  0  0
    3.2493    0.0000    0.0000 C   0  0  0  0  0  0  0  0  0  0  0  0
    0.8248   -4.2990    0.0000 C   0  0  0  0  0  0  0  0  0  0  0  0
    4.9238   -2.8243    0.0000 C   0  0  0  0  0  0  0  0  0  0  0  0
    5.7737   -2.8243    0.0000 C   0  0  0  0  0  0  0  0  0  0  0  0
  1  9  1  0  0  0  0
  1 19  1  0  0  0  0
  2  9  2  0  0  0  0
  3 18  2  0  0  0  0
  4 18  1  0  0  0  0
  5 14  1  0  0  0  0
  5 15  1  0  0  0  0
  5 18  1  0  0  0  0
  6  7  1  0  0  0  0
  6  8  1  0  0  0  0
  6 12  2  0  0  0  0
  7  9  1  0  0  0  0
  7 13  2  0  0  0  0
  8 10  2  0  0  0  0
  8 11  1  0  0  0  0
 10 14  1  0  0  0  0
 11 15  1  0  0  0  0
 12 16  1  0  0  0  0
 13 17  1  0  0  0  0
 16 17  2  0  0  0  0
 19 20  1  0  0  0  0
M  END
> <PUBCHEM_COMPOUND_ID_TYPE>
0

> <PUBCHEM_TOTAL_CHARGE>
0

> <PUBCHEM_SUBSTANCE_ID>
310935462

> <PUBCHEM_SUBSTANCE_VERSION>
1

> <PUBCHEM_EXT_DATASOURCE_NAME>
4488

> <PUBCHEM_EXT_DATASOURCE_REGID>
SCHEMBL16113010

> <PUBCHEM_SUBSTANCE_COMMENT>
InChI=1S/C15H17NO4/c1-2-20-14(17)13-6-4-3-5-12(13)11-7-9-16(10-8-11)15(18)19/h3-7H,2,8-10H2,1H3,(H,18,19)
InChIKey=DSMYQRWLFPPJHC-UHFFFAOYSA-N

> <PUBCHEM_SUBSTANCE_SYNONYM>
SCHEMBL16113010

> <PUBCHEM_XREF_EXT_ID>
SCHEMBL16113010

> <PUBCHEM_EXT_DATASOURCE_URL>
https://www.surechembl.org/

> <PUBCHEM_EXT_SUBSTANCE_URL>
https://www.surechembl.org/chemical/SCHEMBL16113010

> <PUBCHEM_CID_ASSOCIATIONS>
117603502  1

> <PUBCHEM_COORDINATE_TYPE>
1
3

$$$$
