310944461
  -OEChem-07211613022D

 18 19  0     0  0  0  0  0  0999 V2000
    0.3799    1.8327    0.0000 F   0  0  0  0  0  0  0  0  0  0  0  0
    2.5479    1.3968    0.0000 N   0  0  0  0  0  0  0  0  0  0  0  0
    0.3688   -2.2238    0.0000 N   0  0  0  0  0  0  0  0  0  0  0  0
   -0.3688    0.6370    0.0000 C   0  0  0  0  0  0  0  0  0  0  0  0
    0.3688    1.0393    0.0000 C   0  0  0  0  0  0  0  0  0  0  0  0
   -0.3688   -0.1788    0.0000 C   0  0  0  0  0  0  0  0  0  0  0  0
    1.0951    0.6481    0.0000 C   0  0  0  0  0  0  0  0  0  0  0  0
    0.3799   -0.5699    0.0000 C   0  0  0  0  0  0  0  0  0  0  0  0
   -1.0951    1.0393    0.0000 C   0  0  0  0  0  0  0  0  0  0  0  0
    1.0840   -0.1676    0.0000 C   0  0  0  0  0  0  0  0  0  0  0  0
   -1.0951    1.8215    0.0000 C   0  0  0  0  0  0  0  0  0  0  0  0
   -1.8215    0.6258    0.0000 C   0  0  0  0  0  0  0  0  0  0  0  0
    1.8215    1.0393    0.0000 C   0  0  0  0  0  0  0  0  0  0  0  0
    0.3688   -1.4080    0.0000 C   0  0  0  0  0  0  0  0  0  0  0  0
   -1.1063   -0.5923    0.0000 C   0  0  0  0  0  0  0  0  0  0  0  0
   -1.8327    2.2238    0.0000 C   0  0  0  0  0  0  0  0  0  0  0  0
   -2.5367    1.0057    0.0000 C   0  0  0  0  0  0  0  0  0  0  0  0
   -2.5479    1.8103    0.0000 C   0  0  0  0  0  0  0  0  0  0  0  0
  1  5  1  0  0  0  0
  2 13  3  0  0  0  0
  3 14  3  0  0  0  0
  4  5  1  0  0  0  0
  4  6  2  0  0  0  0
  4  9  1  0  0  0  0
  5  7  2  0  0  0  0
  6  8  1  0  0  0  0
  6 15  1  0  0  0  0
  7 10  1  0  0  0  0
  7 13  1  0  0  0  0
  8 10  2  0  0  0  0
  8 14  1  0  0  0  0
  9 11  2  0  0  0  0
  9 12  1  0  0  0  0
 11 16  1  0  0  0  0
 12 17  2  0  0  0  0
 16 18  2  0  0  0  0
 17 18  1  0  0  0  0
M  END
> <PUBCHEM_COMPOUND_ID_TYPE>
0

> <PUBCHEM_TOTAL_CHARGE>
0

> <PUBCHEM_SUBSTANCE_ID>
310944461

> <PUBCHEM_SUBSTANCE_VERSION>
1

> <PUBCHEM_EXT_DATASOURCE_NAME>
4488

> <PUBCHEM_EXT_DATASOURCE_REGID>
SCHEMBL16122536

> <PUBCHEM_SUBSTANCE_COMMENT>
InChI=1S/C15H9FN2/c1-10-12(8-17)7-13(9-18)15(16)14(10)11-5-3-2-4-6-11/h2-7H,1H3
InChIKey=DJYWCVKVEGRDMA-UHFFFAOYSA-N

> <PUBCHEM_SUBSTANCE_SYNONYM>
SCHEMBL16122536

> <PUBCHEM_XREF_EXT_ID>
SCHEMBL16122536

> <PUBCHEM_EXT_DATASOURCE_URL>
https://www.surechembl.org/

> <PUBCHEM_EXT_SUBSTANCE_URL>
https://www.surechembl.org/chemical/SCHEMBL16122536

> <PUBCHEM_CID_ASSOCIATIONS>
117610715  1

> <PUBCHEM_COORDINATE_TYPE>
1
3

$$$$
