310939549
  -OEChem-07211613022D

 73 80  0     1  0  0  0  0  0999 V2000
    4.8759    8.2278    0.0000 S   0  0  0  0  0  0  0  0  0  0  0  0
   -5.0970   10.2799    0.0000 O   0  0  0  0  0  0  0  0  0  0  0  0
   -2.2880   11.1049    0.0000 O   0  0  0  0  0  0  0  0  0  0  0  0
   -1.0786   10.6039    0.0000 O   0  0  0  0  0  0  0  0  0  0  0  0
   -1.7564   13.3118    0.0000 O   0  0  0  0  0  0  0  0  0  0  0  0
   -0.4952   10.0205    0.0000 O   0  0  0  0  0  0  0  0  0  0  0  0
   -6.9384    6.7075    0.0000 O   0  0  0  0  0  0  0  0  0  0  0  0
   -5.7009    7.4220    0.0000 O   0  0  0  0  0  0  0  0  0  0  0  0
   -0.1254    8.6403    0.0000 N   0  0  0  0  0  0  0  0  0  0  0  0
   -4.3825   11.5174    0.0000 C   0  0  3  0  0  0  0  0  0  0  0  0
   -4.3825   10.6924    0.0000 C   0  0  3  0  0  0  0  0  0  0  0  0
   -5.8115   11.5174    0.0000 C   0  0  0  0  0  0  0  0  0  0  0  0
   -3.5979   11.7723    0.0000 C   0  0  3  0  0  0  0  0  0  0  0  0
   -5.8115   10.6924    0.0000 C   0  0  0  0  0  0  0  0  0  0  0  0
   -3.1130   11.1049    0.0000 C   0  0  3  0  0  0  0  0  0  0  0  0
   -3.5979   10.4374    0.0000 C   0  0  0  0  0  0  0  0  0  0  0  0
   -6.5259   10.2799    0.0000 C   0  0  0  0  0  0  0  0  0  0  0  0
   -6.5259   11.9299    0.0000 C   0  0  0  0  0  0  0  0  0  0  0  0
   -3.1854   12.4868    0.0000 C   0  0  0  0  0  0  0  0  0  0  0  0
    5.7009    8.2278    0.0000 C   0  0  0  0  0  0  0  0  0  0  0  0
   -7.2404   10.6924    0.0000 C   0  0  0  0  0  0  0  0  0  0  0  0
   -7.2404   11.5174    0.0000 C   0  0  0  0  0  0  0  0  0  0  0  0
   -6.9384    9.5654    0.0000 C   0  0  0  0  0  0  0  0  0  0  0  0
   -1.8755   10.3904    0.0000 C   0  0  0  0  0  0  0  0  0  0  0  0
    5.7009    9.0528    0.0000 C   0  0  0  0  0  0  0  0  0  0  0  0
    6.5259    8.2278    0.0000 C   0  0  0  0  0  0  0  0  0  0  0  0
    5.7009    7.4028    0.0000 C   0  0  0  0  0  0  0  0  0  0  0  0
   -2.4709   12.0743    0.0000 C   0  0  0  0  0  0  0  0  0  0  0  0
   -2.0890    9.5935    0.0000 C   0  0  3  0  0  0  0  0  0  0  0  0
   -1.5056    9.0101    0.0000 C   0  0  3  0  0  0  0  0  0  0  0  0
   -1.7564   12.4868    0.0000 C   0  0  3  0  0  0  0  0  0  0  0  0
   -6.5259    8.8509    0.0000 C   0  0  0  0  0  0  0  0  0  0  0  0
    4.9865    9.4653    0.0000 C   0  0  0  0  0  0  0  0  0  0  0  0
    6.4978    7.1893    0.0000 C   0  0  0  0  0  0  0  0  0  0  0  0
    6.9384    8.9423    0.0000 C   0  0  0  0  0  0  0  0  0  0  0  0
    6.4154    9.4653    0.0000 C   0  0  0  0  0  0  0  0  0  0  0  0
    5.1176    6.8194    0.0000 C   0  0  0  0  0  0  0  0  0  0  0  0
    6.9384    7.5133    0.0000 C   0  0  0  0  0  0  0  0  0  0  0  0
   -2.8859    9.3800    0.0000 C   0  0  0  0  0  0  0  0  0  0  0  0
    4.1615    8.6403    0.0000 C   0  0  0  0  0  0  0  0  0  0  0  0
   -0.7087    9.2237    0.0000 C   0  0  0  0  0  0  0  0  0  0  0  0
   -1.0420   12.0743    0.0000 C   0  0  3  0  0  0  0  0  0  0  0  0
   -1.7192    8.2132    0.0000 C   0  0  0  0  0  0  0  0  0  0  0  0
    4.9865   10.2903    0.0000 C   0  0  0  0  0  0  0  0  0  0  0  0
    6.7113    6.3924    0.0000 C   0  0  0  0  0  0  0  0  0  0  0  0
    7.7634    8.9423    0.0000 C   0  0  0  0  0  0  0  0  0  0  0  0
    6.4154   10.2903    0.0000 C   0  0  0  0  0  0  0  0  0  0  0  0
    5.3311    6.0225    0.0000 C   0  0  0  0  0  0  0  0  0  0  0  0
    7.7634    7.5133    0.0000 C   0  0  0  0  0  0  0  0  0  0  0  0
   -6.9384    8.1364    0.0000 C   0  0  0  0  0  0  0  0  0  0  0  0
   -3.0994    8.5831    0.0000 C   0  0  0  0  0  0  0  0  0  0  0  0
    5.7009   10.7028    0.0000 C   0  0  0  0  0  0  0  0  0  0  0  0
    6.1280    5.8090    0.0000 C   0  0  0  0  0  0  0  0  0  0  0  0
    8.1759    8.2278    0.0000 C   0  0  0  0  0  0  0  0  0  0  0  0
   -2.5160    7.9997    0.0000 C   0  0  0  0  0  0  0  0  0  0  0  0
    3.4470    8.2278    0.0000 C   0  0  0  0  0  0  0  0  0  0  0  0
   -6.5259    7.4220    0.0000 C   0  0  0  0  0  0  0  0  0  0  0  0
   -0.3275   12.4868    0.0000 C   0  0  0  0  0  0  0  0  0  0  0  0
   -1.0420   11.2493    0.0000 C   0  0  0  0  0  0  0  0  0  0  0  0
    2.7325    8.6403    0.0000 C   0  0  0  0  0  0  0  0  0  0  0  0
    0.5891    8.2278    0.0000 C   0  0  0  0  0  0  0  0  0  0  0  0
    0.3870   12.0743    0.0000 C   0  0  0  0  0  0  0  0  0  0  0  0
    2.0180    8.2278    0.0000 C   0  0  0  0  0  0  0  0  0  0  0  0
    1.3036    8.6403    0.0000 C   0  0  0  0  0  0  0  0  0  0  0  0
   -6.5259    5.9930    0.0000 C   0  0  0  0  0  0  0  0  0  0  0  0
    1.1014   11.6618    0.0000 C   0  0  0  0  0  0  0  0  0  0  0  0
   -6.9384    5.2786    0.0000 C   0  0  0  0  0  0  0  0  0  0  0  0
   -7.7634    5.2786    0.0000 C   0  0  0  0  0  0  0  0  0  0  0  0
   -6.5259    4.5641    0.0000 C   0  0  0  0  0  0  0  0  0  0  0  0
    1.8159   11.2493    0.0000 C   0  0  0  0  0  0  0  0  0  0  0  0
   -8.1759    4.5641    0.0000 C   0  0  0  0  0  0  0  0  0  0  0  0
   -6.9384    3.8496    0.0000 C   0  0  0  0  0  0  0  0  0  0  0  0
   -7.7634    3.8496    0.0000 C   0  0  0  0  0  0  0  0  0  0  0  0
  1 20  1  0  0  0  0
  1 40  1  0  0  0  0
  2 11  1  0  0  0  0
  2 14  1  0  0  0  0
 15  3  1  6  0  0  0
  3 24  1  0  0  0  0
  4 24  2  0  0  0  0
 31  5  1  1  0  0  0
  6 41  2  0  0  0  0
  7 57  1  0  0  0  0
  7 65  1  0  0  0  0
  8 57  2  0  0  0  0
  9 41  1  0  0  0  0
  9 61  1  0  0  0  0
 10 11  1  0  0  0  0
 10 12  1  6  0  0  0
 10 13  1  0  0  0  0
 11 16  1  6  0  0  0
 12 14  2  0  0  0  0
 12 18  1  0  0  0  0
 13 15  1  0  0  0  0
 13 19  1  1  0  0  0
 14 17  1  0  0  0  0
 15 16  1  0  0  0  0
 17 21  2  0  0  0  0
 17 23  1  0  0  0  0
 18 22  2  0  0  0  0
 19 28  2  0  0  0  0
 20 25  1  0  0  0  0
 20 26  1  0  0  0  0
 20 27  1  0  0  0  0
 21 22  1  0  0  0  0
 23 32  1  0  0  0  0
 29 24  1  1  0  0  0
 25 33  2  0  0  0  0
 25 36  1  0  0  0  0
 26 35  2  0  0  0  0
 26 38  1  0  0  0  0
 27 34  2  0  0  0  0
 27 37  1  0  0  0  0
 28 31  1  0  0  0  0
 29 30  1  0  0  0  0
 29 39  1  0  0  0  0
 30 41  1  1  0  0  0
 30 43  1  0  0  0  0
 31 42  1  0  0  0  0
 32 50  1  0  0  0  0
 33 44  1  0  0  0  0
 34 45  1  0  0  0  0
 35 46  1  0  0  0  0
 36 47  2  0  0  0  0
 37 48  2  0  0  0  0
 38 49  2  0  0  0  0
 39 51  1  0  0  0  0
 40 56  1  0  0  0  0
 42 58  1  0  0  0  0
 42 59  1  6  0  0  0
 43 55  1  0  0  0  0
 44 52  2  0  0  0  0
 45 53  2  0  0  0  0
 46 54  2  0  0  0  0
 47 52  1  0  0  0  0
 48 53  1  0  0  0  0
 49 54  1  0  0  0  0
 50 57  1  0  0  0  0
 51 55  1  0  0  0  0
 56 60  1  0  0  0  0
 58 62  1  0  0  0  0
 60 63  1  0  0  0  0
 61 64  1  0  0  0  0
 62 66  3  0  0  0  0
 63 64  1  0  0  0  0
 65 67  1  0  0  0  0
 66 70  1  0  0  0  0
 67 68  2  0  0  0  0
 67 69  1  0  0  0  0
 68 71  1  0  0  0  0
 69 72  2  0  0  0  0
 71 73  2  0  0  0  0
 72 73  1  0  0  0  0
M  END
> <PUBCHEM_COMPOUND_ID_TYPE>
0

> <PUBCHEM_TOTAL_CHARGE>
0

> <PUBCHEM_SUBSTANCE_ID>
310939549

> <PUBCHEM_SUBSTANCE_VERSION>
1

> <PUBCHEM_EXT_DATASOURCE_NAME>
4488

> <PUBCHEM_EXT_DATASOURCE_REGID>
SCHEMBL16117478

> <PUBCHEM_SUBSTANCE_COMMENT>
InChI=1S/C64H73NO7S/c1-3-4-25-46(2)56(66)41-40-54-57(44-58-60(54)55-38-23-28-48(61(55)71-58)29-24-39-59(67)70-45-47-26-11-7-12-27-47)72-63(69)53-37-20-19-36-52(53)62(68)65-42-21-5-6-22-43-73-64(49-30-13-8-14-31-49,50-32-15-9-16-33-50)51-34-17-10-18-35-51/h7-18,23,26-28,30-35,38,40-41,46,52-54,56-58,60,66H,5-6,19-22,24-25,29,36-37,39,42-45H2,1-2H3,(H,65,68)/b41-40+/t46-,52-,53+,54-,56+,57+,58-,60-/m0/s1
InChIKey=LXFBEIOOYWVYGM-PQZHVSEOSA-N

> <PUBCHEM_SUBSTANCE_SYNONYM>
SCHEMBL16117478

> <PUBCHEM_XREF_EXT_ID>
SCHEMBL16117478

> <PUBCHEM_EXT_DATASOURCE_URL>
https://www.surechembl.org/

> <PUBCHEM_EXT_SUBSTANCE_URL>
https://www.surechembl.org/chemical/SCHEMBL16117478

> <PUBCHEM_CID_ASSOCIATIONS>
117606846  1

> <PUBCHEM_COORDINATE_TYPE>
1
3

> <PUBCHEM_BONDANNOTATIONS>
10  12  6
11  16  6
13  19  5
29  24  5
15  3  6
30  41  5
42  59  6
31  5  5

$$$$
