310948806
  -OEChem-07211613022D

 14 14  0     1  0  0  0  0  0999 V2000
    1.0010    0.8640    0.0000 O   0  0  0  0  0  0  0  0  0  0  0  0
    2.4341   -0.8008    0.0000 O   0  0  0  0  0  0  0  0  0  0  0  0
   -1.1485    0.4426    0.0000 O   0  0  0  0  0  0  0  0  0  0  0  0
    2.4973    0.6533    0.0000 O   0  0  0  0  0  0  0  0  0  0  0  0
    1.0221   -1.6227    0.0000 O   0  0  0  0  0  0  0  0  0  0  0  0
   -1.7597    1.6227    0.0000 O   0  0  0  0  0  0  0  0  0  0  0  0
    1.6754   -0.3793    0.0000 C   0  0  3  0  0  0  0  0  0  0  0  0
    0.3056    0.4636    0.0000 C   0  0  3  0  0  0  0  0  0  0  0  0
    1.7597    0.4636    0.0000 C   0  0  3  0  0  0  0  0  0  0  0  0
    1.0221   -0.7797    0.0000 C   0  0  3  0  0  0  0  0  0  0  0  0
    0.2845   -0.3793    0.0000 C   0  0  0  0  0  0  0  0  0  0  0  0
   -0.4109    0.8430    0.0000 C   0  0  0  0  0  0  0  0  0  0  0  0
   -1.8229    0.8640    0.0000 C   0  0  0  0  0  0  0  0  0  0  0  0
   -2.4973    0.5269    0.0000 C   0  0  0  0  0  0  0  0  0  0  0  0
  1  8  1  0  0  0  0
  1  9  1  0  0  0  0
  7  2  1  1  0  0  0
  3 12  1  0  0  0  0
  3 13  1  0  0  0  0
  4  9  1  0  0  0  0
 10  5  1  1  0  0  0
  6 13  2  0  0  0  0
  7  9  1  0  0  0  0
  7 10  1  0  0  0  0
  8 11  1  0  0  0  0
  8 12  1  6  0  0  0
 10 11  1  0  0  0  0
 13 14  1  0  0  0  0
M  END
> <PUBCHEM_COMPOUND_ID_TYPE>
0

> <PUBCHEM_TOTAL_CHARGE>
0

> <PUBCHEM_SUBSTANCE_ID>
310948806

> <PUBCHEM_SUBSTANCE_VERSION>
1

> <PUBCHEM_EXT_DATASOURCE_NAME>
4488

> <PUBCHEM_EXT_DATASOURCE_REGID>
SCHEMBL16126990

> <PUBCHEM_SUBSTANCE_COMMENT>
InChI=1S/C8H14O6/c1-4(9)13-3-5-2-6(10)7(11)8(12)14-5/h5-8,10-12H,2-3H2,1H3/t5-,6+,7+,8?/m1/s1
InChIKey=HNUHZHARSVPJHM-JXMHAVLCSA-N

> <PUBCHEM_SUBSTANCE_SYNONYM>
SCHEMBL16126990

> <PUBCHEM_XREF_EXT_ID>
SCHEMBL16126990

> <PUBCHEM_EXT_DATASOURCE_URL>
https://www.surechembl.org/

> <PUBCHEM_EXT_SUBSTANCE_URL>
https://www.surechembl.org/chemical/SCHEMBL16126990

> <PUBCHEM_CID_ASSOCIATIONS>
117614345  1

> <PUBCHEM_COORDINATE_TYPE>
1
3

> <PUBCHEM_BONDANNOTATIONS>
7  2  5
10  5  5
8  12  6

$$$$
