310931608
  -OEChem-07211613022D

 24 26  0     0  0  0  0  0  0999 V2000
    3.5534   -2.4822    0.0000 O   0  0  0  0  0  0  0  0  0  0  0  0
    2.8480   -0.4181    0.0000 O   0  0  0  0  0  0  0  0  0  0  0  0
    0.0000   -2.9002    0.0000 O   0  0  0  0  0  0  0  0  0  0  0  0
    7.1068   -1.2542    0.0000 N   0  0  0  0  0  0  0  0  0  0  0  0
    4.2589   -1.2542    0.0000 C   0  0  0  0  0  0  0  0  0  0  0  0
    3.5534   -1.6460    0.0000 C   0  0  0  0  0  0  0  0  0  0  0  0
    2.8480   -1.2542    0.0000 C   0  0  0  0  0  0  0  0  0  0  0  0
    5.6959   -1.2542    0.0000 C   0  0  0  0  0  0  0  0  0  0  0  0
    2.1425   -1.6460    0.0000 C   0  0  0  0  0  0  0  0  0  0  0  0
    4.9905   -1.6460    0.0000 C   0  0  0  0  0  0  0  0  0  0  0  0
    6.4014   -1.6460    0.0000 C   0  0  0  0  0  0  0  0  0  0  0  0
    4.2850   -0.4181    0.0000 C   0  0  0  0  0  0  0  0  0  0  0  0
    5.6959   -0.4181    0.0000 C   0  0  0  0  0  0  0  0  0  0  0  0
    2.1425   -2.4822    0.0000 C   0  0  0  0  0  0  0  0  0  0  0  0
    1.4109   -1.2542    0.0000 C   0  0  0  0  0  0  0  0  0  0  0  0
    4.9905    0.0000    0.0000 C   0  0  0  0  0  0  0  0  0  0  0  0
    0.7054   -2.4822    0.0000 C   0  0  0  0  0  0  0  0  0  0  0  0
    1.4109   -2.9002    0.0000 C   0  0  0  0  0  0  0  0  0  0  0  0
    0.7054   -1.6460    0.0000 C   0  0  0  0  0  0  0  0  0  0  0  0
    6.3753   -2.4822    0.0000 C   0  0  0  0  0  0  0  0  0  0  0  0
    7.8384   -1.6460    0.0000 C   0  0  0  0  0  0  0  0  0  0  0  0
    7.1068   -2.8741    0.0000 C   0  0  0  0  0  0  0  0  0  0  0  0
    7.8123   -2.4822    0.0000 C   0  0  0  0  0  0  0  0  0  0  0  0
    0.0000   -3.7102    0.0000 C   0  0  0  0  0  0  0  0  0  0  0  0
  1  6  2  0  0  0  0
  2  7  2  0  0  0  0
  3 17  1  0  0  0  0
  3 24  1  0  0  0  0
  4 11  1  0  0  0  0
  4 21  2  0  0  0  0
  5  6  1  0  0  0  0
  5 10  1  0  0  0  0
  5 12  2  0  0  0  0
  6  7  1  0  0  0  0
  7  9  1  0  0  0  0
  8 10  2  0  0  0  0
  8 11  1  0  0  0  0
  8 13  1  0  0  0  0
  9 14  2  0  0  0  0
  9 15  1  0  0  0  0
 11 20  2  0  0  0  0
 12 16  1  0  0  0  0
 13 16  2  0  0  0  0
 14 18  1  0  0  0  0
 15 19  2  0  0  0  0
 17 18  2  0  0  0  0
 17 19  1  0  0  0  0
 20 22  1  0  0  0  0
 21 23  1  0  0  0  0
 22 23  2  0  0  0  0
M  END
> <PUBCHEM_COMPOUND_ID_TYPE>
0

> <PUBCHEM_TOTAL_CHARGE>
0

> <PUBCHEM_SUBSTANCE_ID>
310931608

> <PUBCHEM_SUBSTANCE_VERSION>
1

> <PUBCHEM_EXT_DATASOURCE_NAME>
4488

> <PUBCHEM_EXT_DATASOURCE_REGID>
SCHEMBL16108934

> <PUBCHEM_SUBSTANCE_COMMENT>
InChI=1S/C20H15NO3/c1-24-17-10-8-14(9-11-17)19(22)20(23)16-6-4-5-15(13-16)18-7-2-3-12-21-18/h2-13H,1H3
InChIKey=CEHATLOENJNTPD-UHFFFAOYSA-N

> <PUBCHEM_SUBSTANCE_SYNONYM>
SCHEMBL16108934

> <PUBCHEM_XREF_EXT_ID>
SCHEMBL16108934

> <PUBCHEM_EXT_DATASOURCE_URL>
https://www.surechembl.org/

> <PUBCHEM_EXT_SUBSTANCE_URL>
https://www.surechembl.org/chemical/SCHEMBL16108934

> <PUBCHEM_CID_ASSOCIATIONS>
117600332  1

> <PUBCHEM_COORDINATE_TYPE>
1
3

$$$$
