310929633
  -OEChem-07211613022D

 73 80  0     1  0  0  0  0  0999 V2000
    5.7694    7.9212    0.0000 S   0  0  0  0  0  0  0  0  0  0  0  0
    9.0681   -2.1896    0.0000 P   0  0  0  0  0  0  0  0  0  0  0  0
    5.6543    6.2752    0.0000 O   0  0  0  0  0  0  0  0  0  0  0  0
    5.4388    6.0031    0.0000 O   0  0  0  0  0  0  0  0  0  0  0  0
    5.4957    2.3479    0.0000 O   0  0  0  0  0  0  0  0  0  0  0  0
    4.0668    5.6479    0.0000 O   0  0  0  0  0  0  0  0  0  0  0  0
    6.2308    8.6052    0.0000 O   0  0  0  0  0  0  0  0  0  0  0  0
    5.3081    7.2373    0.0000 O   0  0  0  0  0  0  0  0  0  0  0  0
    2.6680    2.4606    0.0000 O   0  0  0  0  0  0  0  0  0  0  0  0
    6.9246   -0.1271    0.0000 O   0  0  0  0  0  0  0  0  0  0  0  0
    1.9233    3.5854    0.0000 O   0  0  0  0  0  0  0  0  0  0  0  0
    8.6556   -2.9040    0.0000 O   0  0  0  0  0  0  0  0  0  0  0  0
    9.7825   -2.6021    0.0000 O   0  0  0  0  0  0  0  0  0  0  0  0
    9.4806   -1.4751    0.0000 O   0  0  0  0  0  0  0  0  0  0  0  0
    6.7442    5.4219    0.0000 N   0  0  0  0  0  0  0  0  0  0  0  0
    4.7812    4.4104    0.0000 N   0  0  0  0  0  0  0  0  0  0  0  0
    6.4534    7.4599    0.0000 N   0  0  0  0  0  0  0  0  0  0  0  0
    3.3523    3.5854    0.0000 N   0  0  0  0  0  0  0  0  0  0  0  0
    6.9246    2.3479    0.0000 N   0  0  0  0  0  0  0  0  0  0  0  0
    7.0798    6.1756    0.0000 C   0  0  3  0  0  0  0  0  0  0  0  0
    7.8803    5.9760    0.0000 C   0  0  3  0  0  0  0  0  0  0  0  0
    7.6529    6.7690    0.0000 C   0  0  0  0  0  0  0  0  0  0  0  0
    6.3958    6.6369    0.0000 C   0  0  0  0  0  0  0  0  0  0  0  0
    5.5882    4.5820    0.0000 C   0  0  3  0  0  0  0  0  0  0  0  0
    5.9238    5.3356    0.0000 C   0  0  0  0  0  0  0  0  0  0  0  0
    8.4737    5.4029    0.0000 C   0  0  0  0  0  0  0  0  0  0  0  0
    5.4957    3.1729    0.0000 C   0  0  3  0  0  0  0  0  0  0  0  0
    6.0007    3.8675    0.0000 C   0  0  0  0  0  0  0  0  0  0  0  0
    4.7812    3.5854    0.0000 C   0  0  0  0  0  0  0  0  0  0  0  0
    4.0668    4.8229    0.0000 C   0  0  0  0  0  0  0  0  0  0  0  0
    3.3523    4.4104    0.0000 C   0  0  3  0  0  0  0  0  0  0  0  0
    5.0855    8.3825    0.0000 C   0  0  0  0  0  0  0  0  0  0  0  0
    9.2668    5.6303    0.0000 C   0  0  0  0  0  0  0  0  0  0  0  0
    2.6378    4.8229    0.0000 C   0  0  0  0  0  0  0  0  0  0  0  0
    6.2102    1.9354    0.0000 C   0  0  0  0  0  0  0  0  0  0  0  0
    4.7238    9.1241    0.0000 C   0  0  0  0  0  0  0  0  0  0  0  0
    4.2625    8.4401    0.0000 C   0  0  0  0  0  0  0  0  0  0  0  0
    6.2102    1.1104    0.0000 C   0  0  0  0  0  0  0  0  0  0  0  0
    6.9246    0.6979    0.0000 C   0  0  0  0  0  0  0  0  0  0  0  0
    2.6378    3.1729    0.0000 C   0  0  0  0  0  0  0  0  0  0  0  0
    7.6391    1.1104    0.0000 C   0  0  0  0  0  0  0  0  0  0  0  0
    2.5516    5.6434    0.0000 C   0  0  0  0  0  0  0  0  0  0  0  0
    1.8841    4.4874    0.0000 C   0  0  0  0  0  0  0  0  0  0  0  0
    7.6391    1.9354    0.0000 C   0  0  0  0  0  0  0  0  0  0  0  0
    3.3523    1.9354    0.0000 C   0  0  3  0  0  0  0  0  0  0  0  0
    3.3523    1.1104    0.0000 C   0  0  3  0  0  0  0  0  0  0  0  0
    5.4957    0.6979    0.0000 C   0  0  0  0  0  0  0  0  0  0  0  0
    1.7446    5.8150    0.0000 C   0  0  0  0  0  0  0  0  0  0  0  0
    1.3321    5.1005    0.0000 C   0  0  0  0  0  0  0  0  0  0  0  0
    7.6391   -0.5396    0.0000 C   0  0  0  0  0  0  0  0  0  0  0  0
    8.3536    0.6979    0.0000 C   0  0  0  0  0  0  0  0  0  0  0  0
    8.3536    2.3479    0.0000 C   0  0  0  0  0  0  0  0  0  0  0  0
    2.5677    2.1904    0.0000 C   0  0  0  0  0  0  0  0  0  0  0  0
    2.5677    0.8555    0.0000 C   0  0  0  0  0  0  0  0  0  0  0  0
    4.0668    0.6979    0.0000 C   0  0  0  0  0  0  0  0  0  0  0  0
    2.0827    1.5229    0.0000 C   0  0  0  0  0  0  0  0  0  0  0  0
    5.4957   -0.1271    0.0000 C   0  0  0  0  0  0  0  0  0  0  0  0
    9.0681    1.1104    0.0000 C   0  0  0  0  0  0  0  0  0  0  0  0
    9.0681    1.9354    0.0000 C   0  0  0  0  0  0  0  0  0  0  0  0
    8.3536   -0.9521    0.0000 C   0  0  0  0  0  0  0  0  0  0  0  0
    4.0668   -0.1271    0.0000 C   0  0  0  0  0  0  0  0  0  0  0  0
    7.2266   -1.2540    0.0000 C   0  0  0  0  0  0  0  0  0  0  0  0
    8.0516    0.1749    0.0000 C   0  0  0  0  0  0  0  0  0  0  0  0
    4.7812   -0.5396    0.0000 C   0  0  0  0  0  0  0  0  0  0  0  0
    8.3536   -1.7771    0.0000 C   0  0  0  0  0  0  0  0  0  0  0  0
    6.4016   -1.2540    0.0000 C   0  0  0  0  0  0  0  0  0  0  0  0
    8.8766    0.1749    0.0000 C   0  0  0  0  0  0  0  0  0  0  0  0
    7.4803    5.2544    0.0000 H   0  0  0  0  0  0  0  0  0  0  0  0
    6.4121    4.6251    0.0000 H   0  0  0  0  0  0  0  0  0  0  0  0
    6.2803    2.9179    0.0000 H   0  0  0  0  0  0  0  0  0  0  0  0
    3.3523    5.2354    0.0000 H   0  0  0  0  0  0  0  0  0  0  0  0
    3.0399    2.6990    0.0000 H   0  0  0  0  0  0  0  0  0  0  0  0
    3.2660    0.2900    0.0000 H   0  0  0  0  0  0  0  0  0  0  0  0
  1  7  2  0  0  0  0
  1  8  2  0  0  0  0
  1 17  1  0  0  0  0
  1 32  1  0  0  0  0
  2 12  2  0  0  0  0
  2 13  1  0  0  0  0
  2 14  1  0  0  0  0
  2 65  1  0  0  0  0
  3 23  2  0  0  0  0
  4 25  2  0  0  0  0
  5 27  1  0  0  0  0
  5 35  1  0  0  0  0
  6 30  2  0  0  0  0
  9 40  1  0  0  0  0
  9 45  1  0  0  0  0
 10 39  1  0  0  0  0
 10 50  1  0  0  0  0
 11 40  2  0  0  0  0
 20 15  1  6  0  0  0
 15 25  1  0  0  0  0
 16 24  1  0  0  0  0
 16 29  1  0  0  0  0
 16 30  1  0  0  0  0
 17 23  1  0  0  0  0
 18 31  1  0  0  0  0
 18 40  1  0  0  0  0
 19 35  2  0  0  0  0
 19 44  1  0  0  0  0
 20 21  1  0  0  0  0
 20 22  1  0  0  0  0
 20 23  1  1  0  0  0
 21 22  1  0  0  0  0
 21 26  1  0  0  0  0
 21 68  1  6  0  0  0
 24 25  1  0  0  0  0
 24 28  1  0  0  0  0
 24 69  1  1  0  0  0
 26 33  2  0  0  0  0
 27 28  1  0  0  0  0
 27 29  1  0  0  0  0
 27 70  1  6  0  0  0
 30 31  1  0  0  0  0
 31 34  1  0  0  0  0
 31 71  1  6  0  0  0
 32 36  1  0  0  0  0
 32 37  1  0  0  0  0
 34 42  1  0  0  0  0
 34 43  1  0  0  0  0
 35 38  1  0  0  0  0
 36 37  1  0  0  0  0
 38 39  2  0  0  0  0
 38 47  1  0  0  0  0
 39 41  1  0  0  0  0
 41 44  2  0  0  0  0
 41 51  1  0  0  0  0
 42 48  1  0  0  0  0
 43 49  1  0  0  0  0
 44 52  1  0  0  0  0
 45 46  1  0  0  0  0
 45 53  1  0  0  0  0
 45 72  1  6  0  0  0
 46 54  1  0  0  0  0
 46 55  1  0  0  0  0
 46 73  1  1  0  0  0
 47 57  1  0  0  0  0
 48 49  1  0  0  0  0
 50 60  1  0  0  0  0
 50 62  1  0  0  0  0
 50 63  1  0  0  0  0
 51 58  2  0  0  0  0
 52 59  2  0  0  0  0
 53 56  1  0  0  0  0
 54 56  1  0  0  0  0
 55 61  1  0  0  0  0
 57 64  2  0  0  0  0
 58 59  1  0  0  0  0
 60 65  1  0  0  0  0
 61 64  1  0  0  0  0
 62 66  1  0  0  0  0
 63 67  1  0  0  0  0
M  END
> <PUBCHEM_COMPOUND_ID_TYPE>
0

> <PUBCHEM_TOTAL_CHARGE>
0

> <PUBCHEM_SUBSTANCE_ID>
310929633

> <PUBCHEM_SUBSTANCE_VERSION>
1

> <PUBCHEM_EXT_DATASOURCE_NAME>
4488

> <PUBCHEM_EXT_DATASOURCE_REGID>
SCHEMBL16106821

> <PUBCHEM_SUBSTANCE_COMMENT>
InChI=1S/C48H66N5O12PS/c1-4-32-28-48(32,45(56)52-67(61,62)34-23-24-34)51-42(54)38-27-33-29-53(38)44(55)40(31-16-10-11-17-31)50-46(57)64-39-22-14-18-30(39)15-8-7-9-20-36-41(35-19-12-13-21-37(35)49-43(36)63-33)65-47(5-2,6-3)25-26-66(58,59)60/h4,7,9,12-13,19,21,30-34,38-40H,1,5-6,8,10-11,14-18,20,22-29H2,2-3H3,(H,50,57)(H,51,54)(H,52,56)(H2,58,59,60)/t30-,32-,33-,38+,39-,40+,48-/m1/s1
InChIKey=BVJFLKDFIYREEL-KYLUVMEBSA-N

> <PUBCHEM_SUBSTANCE_SYNONYM>
SCHEMBL16106821

> <PUBCHEM_XREF_EXT_ID>
SCHEMBL16106821

> <PUBCHEM_EXT_DATASOURCE_URL>
https://www.surechembl.org/

> <PUBCHEM_EXT_SUBSTANCE_URL>
https://www.surechembl.org/chemical/SCHEMBL16106821

> <PUBCHEM_CID_ASSOCIATIONS>
117598936  1

> <PUBCHEM_COORDINATE_TYPE>
1
3

> <PUBCHEM_BONDANNOTATIONS>
20  15  6
20  23  5
21  68  6
24  69  5
27  70  6
31  71  6
45  72  6
46  73  5
64  61  3

$$$$
