310928951
  -OEChem-07211613022D

  0  0  0     0  0  0  0  0  0999 V2000
M  END
> <PUBCHEM_SUBSTANCE_ID>
310928951

> <PUBCHEM_SUBSTANCE_VERSION>
1

> <PUBCHEM_EXT_DATASOURCE_NAME>
11752

> <PUBCHEM_EXT_DATASOURCE_REGID>
BD124318

> <PUBCHEM_SUBSTANCE_SYNONYM>
12354-84-6
Dichloro(pentamethylcyclopentadienyl)iridium(III) dimer

> <PUBCHEM_GENERIC_REGISTRY_NAME>
12354-84-6

> <PUBCHEM_XREF_EXT_ID>
BD124318

> <PUBCHEM_EXT_DATASOURCE_URL>
http://www.bidepharmatech.com/en/index.html

> <PUBCHEM_EXT_SUBSTANCE_URL>
http://www.bidepharmatech.com/en/goodsview_goodscode_BD124318.html

$$$$
