310934771
  -OEChem-07211613022D

 27 30  0     0  0  0  0  0  0999 V2000
    1.3626   -0.1549    0.0000 O   0  0  0  0  0  0  0  0  0  0  0  0
    4.9143   -0.7187    0.0000 O   0  0  0  0  0  0  0  0  0  0  0  0
   -0.5219   -4.1428    0.0000 O   0  0  0  0  0  0  0  0  0  0  0  0
    0.9070   -4.1449    0.0000 O   0  0  0  0  0  0  0  0  0  0  0  0
    1.1407   -0.9495    0.0000 C   0  0  0  0  0  0  0  0  0  0  0  0
    0.9106   -1.6699    0.0000 C   0  0  0  0  0  0  0  0  0  0  0  0
    0.9807   -0.1341    0.0000 C   0  0  0  0  0  0  0  0  0  0  0  0
    0.5004   -1.3997    0.0000 C   0  0  0  0  0  0  0  0  0  0  0  0
    1.9362   -1.4148    0.0000 C   0  0  0  0  0  0  0  0  0  0  0  0
    0.1351   -2.0602    0.0000 C   0  0  0  0  0  0  0  0  0  0  0  0
    1.6411   -2.0402    0.0000 C   0  0  0  0  0  0  0  0  0  0  0  0
    0.9094   -2.4949    0.0000 C   0  0  0  0  0  0  0  0  0  0  0  0
    2.1618    0.0502    0.0000 C   0  0  0  0  0  0  0  0  0  0  0  0
    0.1943   -2.9064    0.0000 C   0  0  0  0  0  0  0  0  0  0  0  0
    2.7389   -0.5393    0.0000 C   0  0  0  0  0  0  0  0  0  0  0  0
    3.5380   -0.3343    0.0000 C   0  0  0  0  0  0  0  0  0  0  0  0
    4.1152   -0.9238    0.0000 C   0  0  0  0  0  0  0  0  0  0  0  0
    0.1932   -3.7314    0.0000 C   0  0  0  0  0  0  0  0  0  0  0  0
    2.5170   -1.3339    0.0000 C   0  0  0  0  0  0  0  0  0  0  0  0
    3.8932   -1.7183    0.0000 C   0  0  0  0  0  0  0  0  0  0  0  0
    3.0941   -1.9234    0.0000 C   0  0  0  0  0  0  0  0  0  0  0  0
    5.4914   -1.3082    0.0000 C   0  0  0  0  0  0  0  0  0  0  0  0
    6.2905   -1.1031    0.0000 C   0  0  0  0  0  0  0  0  0  0  0  0
    5.2695   -2.1028    0.0000 C   0  0  0  0  0  0  0  0  0  0  0  0
    6.8677   -1.6926    0.0000 C   0  0  0  0  0  0  0  0  0  0  0  0
    5.8466   -2.6923    0.0000 C   0  0  0  0  0  0  0  0  0  0  0  0
    6.6457   -2.4872    0.0000 C   0  0  0  0  0  0  0  0  0  0  0  0
  1  5  1  0  0  0  0
  1 13  1  0  0  0  0
  2 17  1  0  0  0  0
  2 22  1  0  0  0  0
  3 18  2  0  0  0  0
  4 18  1  0  0  0  0
  5  7  1  0  0  0  0
  5  8  1  0  0  0  0
  5  9  1  0  0  0  0
  6  7  1  0  0  0  0
  6 10  1  0  0  0  0
  6 11  1  0  0  0  0
  6 12  1  0  0  0  0
  8 10  1  0  0  0  0
  9 11  1  0  0  0  0
 12 14  2  0  0  0  0
 13 15  1  0  0  0  0
 14 18  1  0  0  0  0
 15 16  2  0  0  0  0
 15 19  1  0  0  0  0
 16 17  1  0  0  0  0
 17 20  2  0  0  0  0
 19 21  2  0  0  0  0
 20 21  1  0  0  0  0
 22 23  2  0  0  0  0
 22 24  1  0  0  0  0
 23 25  1  0  0  0  0
 24 26  2  0  0  0  0
 25 27  2  0  0  0  0
 26 27  1  0  0  0  0
M  END
> <PUBCHEM_COMPOUND_ID_TYPE>
0

> <PUBCHEM_TOTAL_CHARGE>
0

> <PUBCHEM_SUBSTANCE_ID>
310934771

> <PUBCHEM_SUBSTANCE_VERSION>
1

> <PUBCHEM_EXT_DATASOURCE_NAME>
4488

> <PUBCHEM_EXT_DATASOURCE_REGID>
SCHEMBL16112274

> <PUBCHEM_SUBSTANCE_COMMENT>
InChI=1S/C23H24O4/c24-21(25)9-10-22-11-13-23(17-22,14-12-22)26-16-18-5-4-8-20(15-18)27-19-6-2-1-3-7-19/h1-10,15H,11-14,16-17H2,(H,24,25)
InChIKey=SPBQHLKOLKJFEC-UHFFFAOYSA-N

> <PUBCHEM_SUBSTANCE_SYNONYM>
SCHEMBL16112274

> <PUBCHEM_XREF_EXT_ID>
SCHEMBL16112274

> <PUBCHEM_EXT_DATASOURCE_URL>
https://www.surechembl.org/

> <PUBCHEM_EXT_SUBSTANCE_URL>
https://www.surechembl.org/chemical/SCHEMBL16112274

> <PUBCHEM_CID_ASSOCIATIONS>
117602919  1

> <PUBCHEM_COORDINATE_TYPE>
1
3

> <PUBCHEM_BONDANNOTATIONS>
12  6  3

$$$$
