310946658
  -OEChem-07211613022D

 15 16  0     0  0  0  0  0  0999 V2000
    1.0575    1.3710    0.0000 O   0  0  0  0  0  0  0  0  0  0  0  0
   -0.3714    0.5460    0.0000 O   0  0  0  0  0  0  0  0  0  0  0  0
   -1.8004    1.3710    0.0000 O   0  0  0  0  0  0  0  0  0  0  0  0
   -2.5149    2.6085    0.0000 O   0  0  0  0  0  0  0  0  0  0  0  0
    0.3430    1.7835    0.0000 C   0  0  0  0  0  0  0  0  0  0  0  0
    0.3430    2.6085    0.0000 C   0  0  0  0  0  0  0  0  0  0  0  0
   -0.3714    1.3710    0.0000 C   0  0  0  0  0  0  0  0  0  0  0  0
   -1.0859    1.7835    0.0000 C   0  0  0  0  0  0  0  0  0  0  0  0
   -1.0859    2.6085    0.0000 C   0  0  0  0  0  0  0  0  0  0  0  0
   -0.3714    3.0210    0.0000 C   0  0  0  0  0  0  0  0  0  0  0  0
    1.0575    3.0210    0.0000 C   0  0  0  0  0  0  0  0  0  0  0  0
    1.7720    1.7835    0.0000 C   0  0  0  0  0  0  0  0  0  0  0  0
    1.7720    2.6085    0.0000 C   0  0  0  0  0  0  0  0  0  0  0  0
   -1.8004    3.0210    0.0000 C   0  0  0  0  0  0  0  0  0  0  0  0
    2.4864    1.3710    0.0000 C   0  0  0  0  0  0  0  0  0  0  0  0
  1  5  1  0  0  0  0
  1 12  1  0  0  0  0
  2  7  1  0  0  0  0
  3  8  1  0  0  0  0
  4 14  1  0  0  0  0
  5  6  1  0  0  0  0
  5  7  2  0  0  0  0
  6 10  2  0  0  0  0
  6 11  1  0  0  0  0
  7  8  1  0  0  0  0
  8  9  2  0  0  0  0
  9 10  1  0  0  0  0
  9 14  1  0  0  0  0
 11 13  2  0  0  0  0
 12 13  1  0  0  0  0
 12 15  2  0  0  0  0
M  END
> <PUBCHEM_COMPOUND_ID_TYPE>
0

> <PUBCHEM_TOTAL_CHARGE>
0

> <PUBCHEM_SUBSTANCE_ID>
310946658

> <PUBCHEM_SUBSTANCE_VERSION>
1

> <PUBCHEM_EXT_DATASOURCE_NAME>
4488

> <PUBCHEM_EXT_DATASOURCE_REGID>
SCHEMBL16124779

> <PUBCHEM_SUBSTANCE_COMMENT>
InChI=1S/C11H10O4/c1-6-2-3-7-4-8(5-12)9(13)10(14)11(7)15-6/h2-4,12-14H,1,5H2
InChIKey=NUCJUALWHTYXRU-UHFFFAOYSA-N

> <PUBCHEM_SUBSTANCE_SYNONYM>
SCHEMBL16124779

> <PUBCHEM_XREF_EXT_ID>
SCHEMBL16124779

> <PUBCHEM_EXT_DATASOURCE_URL>
https://www.surechembl.org/

> <PUBCHEM_EXT_SUBSTANCE_URL>
https://www.surechembl.org/chemical/SCHEMBL16124779

> <PUBCHEM_CID_ASSOCIATIONS>
117612558  1

> <PUBCHEM_COORDINATE_TYPE>
1
3

$$$$
