310936543
  -OEChem-07211613022D

 17 18  0     0  0  0  0  0  0999 V2000
    2.8810   -2.4584    0.0000 S   0  0  0  0  0  0  0  0  0  0  0  0
    0.7107   -3.6300    0.0000 O   0  0  0  0  0  0  0  0  0  0  0  0
    4.6095   -2.2471    0.0000 N   0  0  0  0  0  0  0  0  0  0  0  0
    2.2279   -3.6300    0.0000 N   0  0  0  0  0  0  0  0  0  0  0  0
    1.4212   -2.4008    0.0000 N   0  0  0  0  0  0  0  0  0  0  0  0
    3.4379   -3.0730    0.0000 C   0  0  0  0  0  0  0  0  0  0  0  0
    2.1319   -2.8041    0.0000 C   0  0  0  0  0  0  0  0  0  0  0  0
    4.2638   -2.9961    0.0000 C   0  0  0  0  0  0  0  0  0  0  0  0
    3.0346   -3.7836    0.0000 C   0  0  0  0  0  0  0  0  0  0  0  0
    4.1101   -1.5749    0.0000 C   0  0  0  0  0  0  0  0  0  0  0  0
    5.4162   -2.1703    0.0000 C   0  0  0  0  0  0  0  0  0  0  0  0
    0.7107   -2.8041    0.0000 C   0  0  0  0  0  0  0  0  0  0  0  0
    5.2817   -0.7491    0.0000 C   0  0  0  0  0  0  0  0  0  0  0  0
    4.4559   -0.8258    0.0000 C   0  0  0  0  0  0  0  0  0  0  0  0
    5.7619   -1.4212    0.0000 C   0  0  0  0  0  0  0  0  0  0  0  0
    0.0000   -2.4008    0.0000 C   0  0  0  0  0  0  0  0  0  0  0  0
    5.6274    0.0000    0.0000 C   0  0  0  0  0  0  0  0  0  0  0  0
  1  6  1  0  0  0  0
  1  7  1  0  0  0  0
  2 12  2  0  0  0  0
  3  8  1  0  0  0  0
  3 10  1  0  0  0  0
  3 11  1  0  0  0  0
  4  7  2  0  0  0  0
  4  9  1  0  0  0  0
  5  7  1  0  0  0  0
  5 12  1  0  0  0  0
  6  8  1  0  0  0  0
  6  9  2  0  0  0  0
 10 14  1  0  0  0  0
 11 15  1  0  0  0  0
 12 16  1  0  0  0  0
 13 14  1  0  0  0  0
 13 15  1  0  0  0  0
 13 17  1  0  0  0  0
M  END
> <PUBCHEM_COMPOUND_ID_TYPE>
0

> <PUBCHEM_TOTAL_CHARGE>
0

> <PUBCHEM_SUBSTANCE_ID>
310936543

> <PUBCHEM_SUBSTANCE_VERSION>
1

> <PUBCHEM_EXT_DATASOURCE_NAME>
4488

> <PUBCHEM_EXT_DATASOURCE_REGID>
SCHEMBL16114197

> <PUBCHEM_SUBSTANCE_COMMENT>
InChI=1S/C12H19N3OS/c1-9-3-5-15(6-4-9)8-11-7-13-12(17-11)14-10(2)16/h7,9H,3-6,8H2,1-2H3,(H,13,14,16)
InChIKey=MEYWHXMBGLUUCR-UHFFFAOYSA-N

> <PUBCHEM_SUBSTANCE_SYNONYM>
SCHEMBL16114197

> <PUBCHEM_XREF_EXT_ID>
SCHEMBL16114197

> <PUBCHEM_EXT_DATASOURCE_URL>
https://www.surechembl.org/

> <PUBCHEM_EXT_SUBSTANCE_URL>
https://www.surechembl.org/chemical/SCHEMBL16114197

> <PUBCHEM_CID_ASSOCIATIONS>
671270  1

> <PUBCHEM_COORDINATE_TYPE>
1
3

$$$$
