310930783
  -OEChem-07211613022D

 30 33  0     0  0  0  0  0  0999 V2000
    6.3975   -2.8554    0.0000 S   0  0  0  0  0  0  0  0  0  0  0  0
    8.0602    0.0000    0.0000 F   0  0  0  0  0  0  0  0  0  0  0  0
    2.2048   -7.0481    0.0000 O   0  0  0  0  0  0  0  0  0  0  0  0
    5.6024   -2.3855    0.0000 O   0  0  0  0  0  0  0  0  0  0  0  0
    7.0843   -3.2530    0.0000 O   0  0  0  0  0  0  0  0  0  0  0  0
    3.9036   -7.1205    0.0000 O   0  0  0  0  0  0  0  0  0  0  0  0
    6.3975   -1.4458    0.0000 N   0  0  0  0  0  0  0  0  0  0  0  0
    3.9036   -5.7108    0.0000 N   0  0  0  0  0  0  0  0  0  0  0  0
    0.0000   -6.8313    0.0000 N   0  0  0  0  0  0  0  0  0  0  0  0
    6.8313   -2.1325    0.0000 C   0  0  0  0  0  0  0  0  0  0  0  0
    6.0000   -3.5422    0.0000 C   0  0  0  0  0  0  0  0  0  0  0  0
    2.6747   -6.3975    0.0000 C   0  0  0  0  0  0  0  0  0  0  0  0
    1.4096   -6.8313    0.0000 C   0  0  0  0  0  0  0  0  0  0  0  0
    1.4096   -5.9638    0.0000 C   0  0  0  0  0  0  0  0  0  0  0  0
    7.6626   -2.1687    0.0000 C   0  0  0  0  0  0  0  0  0  0  0  0
    5.1686   -3.5422    0.0000 C   0  0  0  0  0  0  0  0  0  0  0  0
    6.3975   -4.2650    0.0000 C   0  0  0  0  0  0  0  0  0  0  0  0
    6.7951   -0.7229    0.0000 C   0  0  0  0  0  0  0  0  0  0  0  0
    2.2048   -5.7469    0.0000 C   0  0  0  0  0  0  0  0  0  0  0  0
    5.1686   -4.9879    0.0000 C   0  0  0  0  0  0  0  0  0  0  0  0
    3.5060   -6.3975    0.0000 C   0  0  0  0  0  0  0  0  0  0  0  0
    7.6265   -0.7229    0.0000 C   0  0  0  0  0  0  0  0  0  0  0  0
    8.0240   -1.4458    0.0000 C   0  0  0  0  0  0  0  0  0  0  0  0
    4.7349   -4.2650    0.0000 C   0  0  0  0  0  0  0  0  0  0  0  0
    5.9638   -4.9518    0.0000 C   0  0  0  0  0  0  0  0  0  0  0  0
    0.6868   -7.2289    0.0000 C   0  0  0  0  0  0  0  0  0  0  0  0
    0.6868   -5.5662    0.0000 C   0  0  0  0  0  0  0  0  0  0  0  0
    4.7349   -5.7108    0.0000 C   0  0  0  0  0  0  0  0  0  0  0  0
    0.0000   -5.9638    0.0000 C   0  0  0  0  0  0  0  0  0  0  0  0
    6.3975    0.0000    0.0000 C   0  0  0  0  0  0  0  0  0  0  0  0
  1  4  2  0  0  0  0
  1  5  2  0  0  0  0
  1 10  1  0  0  0  0
  1 11  1  0  0  0  0
  2 22  1  0  0  0  0
  3 12  1  0  0  0  0
  3 13  1  0  0  0  0
  6 21  2  0  0  0  0
  7 10  1  0  0  0  0
  7 18  2  0  0  0  0
  8 21  1  0  0  0  0
  8 28  1  0  0  0  0
  9 26  1  0  0  0  0
  9 29  2  0  0  0  0
 10 15  2  0  0  0  0
 11 16  2  0  0  0  0
 11 17  1  0  0  0  0
 12 19  2  0  0  0  0
 12 21  1  0  0  0  0
 13 14  1  0  0  0  0
 13 26  2  0  0  0  0
 14 19  1  0  0  0  0
 14 27  2  0  0  0  0
 15 23  1  0  0  0  0
 16 24  1  0  0  0  0
 17 25  2  0  0  0  0
 18 22  1  0  0  0  0
 18 30  1  0  0  0  0
 20 24  2  0  0  0  0
 20 25  1  0  0  0  0
 20 28  1  0  0  0  0
 22 23  2  0  0  0  0
 27 29  1  0  0  0  0
M  END
> <PUBCHEM_COMPOUND_ID_TYPE>
0

> <PUBCHEM_TOTAL_CHARGE>
0

> <PUBCHEM_SUBSTANCE_ID>
310930783

> <PUBCHEM_SUBSTANCE_VERSION>
1

> <PUBCHEM_EXT_DATASOURCE_NAME>
4488

> <PUBCHEM_EXT_DATASOURCE_REGID>
SCHEMBL16108080

> <PUBCHEM_SUBSTANCE_COMMENT>
InChI=1S/C21H16FN3O4S/c1-13-17(22)6-7-20(25-13)30(27,28)16-4-2-14(3-5-16)11-24-21(26)18-10-15-8-9-23-12-19(15)29-18/h2-10,12H,11H2,1H3,(H,24,26)
InChIKey=DXNKQKZWZPKPJU-UHFFFAOYSA-N

> <PUBCHEM_SUBSTANCE_SYNONYM>
SCHEMBL16108080

> <PUBCHEM_XREF_EXT_ID>
SCHEMBL16108080

> <PUBCHEM_EXT_DATASOURCE_URL>
https://www.surechembl.org/

> <PUBCHEM_EXT_SUBSTANCE_URL>
https://www.surechembl.org/chemical/SCHEMBL16108080

> <PUBCHEM_CID_ASSOCIATIONS>
117599797  1

> <PUBCHEM_COORDINATE_TYPE>
1
3

$$$$
