310928864
  -OEChem-07211613022D

 11 12  0     0  0  0  0  0  0999 V2000
    0.1659   -0.6674    0.0000 S   0  0  0  0  0  0  0  0  0  0  0  0
    1.8883   -0.7145    0.0000 O   0  0  0  0  0  0  0  0  0  0  0  0
    1.8883    0.7145    0.0000 O   0  0  0  0  0  0  0  0  0  0  0  0
   -0.6188    0.4125    0.0000 N   0  0  0  0  0  0  0  0  0  0  0  0
   -1.4034   -0.6674    0.0000 N   0  0  0  0  0  0  0  0  0  0  0  0
   -0.6188   -0.4125    0.0000 C   0  0  0  0  0  0  0  0  0  0  0  0
    0.6508   -0.0000    0.0000 C   0  0  0  0  0  0  0  0  0  0  0  0
    0.1659    0.6674    0.0000 C   0  0  0  0  0  0  0  0  0  0  0  0
    1.4758   -0.0000    0.0000 C   0  0  0  0  0  0  0  0  0  0  0  0
   -1.4034    0.6674    0.0000 C   0  0  0  0  0  0  0  0  0  0  0  0
   -1.8883   -0.0000    0.0000 C   0  0  0  0  0  0  0  0  0  0  0  0
  1  6  1  0  0  0  0
  1  7  1  0  0  0  0
  2  9  2  0  0  0  0
  3  9  1  0  0  0  0
  4  6  1  0  0  0  0
  4  8  1  0  0  0  0
  4 10  1  0  0  0  0
  5  6  2  0  0  0  0
  5 11  1  0  0  0  0
  7  8  2  0  0  0  0
  7  9  1  0  0  0  0
 10 11  2  0  0  0  0
M  END
> <PUBCHEM_COMPOUND_ID_TYPE>
0

> <PUBCHEM_TOTAL_CHARGE>
0

> <PUBCHEM_SUBSTANCE_ID>
310928864

> <PUBCHEM_SUBSTANCE_VERSION>
1

> <PUBCHEM_EXT_DATASOURCE_NAME>
11752

> <PUBCHEM_EXT_DATASOURCE_REGID>
BD160359

> <PUBCHEM_SUBSTANCE_SYNONYM>
773841-78-4
Imidazo[2,1-b]thiazole-2-carboxylic acid

> <PUBCHEM_GENERIC_REGISTRY_NAME>
773841-78-4

> <PUBCHEM_XREF_EXT_ID>
BD160359

> <PUBCHEM_EXT_DATASOURCE_URL>
http://www.bidepharmatech.com/en/index.html

> <PUBCHEM_EXT_SUBSTANCE_URL>
http://www.bidepharmatech.com/en/goodsview_goodscode_BD160359.html

> <PUBCHEM_CID_ASSOCIATIONS>
45088965  1

> <PUBCHEM_COORDINATE_TYPE>
1
3

$$$$
