310940096
  -OEChem-07211613022D

 38 41  0     1  0  0  0  0  0999 V2000
   -2.5062   -4.1548    0.0000 S   0  0  0  0  0  0  0  0  0  0  0  0
   -0.1811    0.4383    0.0000 F   0  0  0  0  0  0  0  0  0  0  0  0
   -1.3817   -2.1536    0.0000 O   0  0  0  0  0  0  0  0  0  0  0  0
    0.8291    3.2209    0.0000 O   0  0  0  0  0  0  0  0  0  0  0  0
    2.2584    3.0875    0.0000 O   0  0  0  0  0  0  0  0  0  0  0  0
   -2.9255   -3.4496    0.0000 O   0  0  0  0  0  0  0  0  0  0  0  0
   -3.2304   -4.5741    0.0000 O   0  0  0  0  0  0  0  0  0  0  0  0
    0.7718   -0.3812    0.0000 N   0  0  0  0  0  0  0  0  0  0  0  0
    1.0387   -1.1626    0.0000 N   0  0  0  0  0  0  0  0  0  0  0  0
    1.4198    1.9249    0.0000 N   0  0  0  0  0  0  0  0  0  0  0  0
    0.3526   -2.4776    0.0000 N   0  0  0  0  0  0  0  0  0  0  0  0
   -1.6677   -0.7433    0.0000 N   0  0  0  0  0  0  0  0  0  0  0  0
    3.2304   -0.6480    0.0000 N   0  0  0  0  0  0  0  0  0  0  0  0
    1.2674    0.2668    0.0000 C   0  0  3  0  0  0  0  0  0  0  0  0
   -0.0667   -0.3812    0.0000 C   0  0  0  0  0  0  0  0  0  0  0  0
   -0.3335   -1.1626    0.0000 C   0  0  0  0  0  0  0  0  0  0  0  0
    0.3526   -1.6581    0.0000 C   0  0  0  0  0  0  0  0  0  0  0  0
    0.5622    0.7814    0.0000 C   0  0  3  0  0  0  0  0  0  0  0  0
    1.9917    0.6099    0.0000 C   0  0  0  0  0  0  0  0  0  0  0  0
   -1.1149   -1.3532    0.0000 C   0  0  0  0  0  0  0  0  0  0  0  0
    1.5914   -0.4765    0.0000 C   0  0  0  0  0  0  0  0  0  0  0  0
   -0.6194    0.2096    0.0000 C   0  0  0  0  0  0  0  0  0  0  0  0
    0.6765    1.6009    0.0000 C   0  0  0  0  0  0  0  0  0  0  0  0
    2.0869    1.4294    0.0000 C   0  0  0  0  0  0  0  0  0  0  0  0
   -1.4008    0.0381    0.0000 C   0  0  0  0  0  0  0  0  0  0  0  0
   -0.3526   -2.8969    0.0000 C   0  0  0  0  0  0  0  0  0  0  0  0
    1.4771    2.7445    0.0000 C   0  0  0  0  0  0  0  0  0  0  0  0
    2.3918   -0.5527    0.0000 C   0  0  0  0  0  0  0  0  0  0  0  0
   -0.3716   -3.7355    0.0000 C   0  0  0  0  0  0  0  0  0  0  0  0
   -1.0958   -2.5158    0.0000 C   0  0  0  0  0  0  0  0  0  0  0  0
   -1.8010   -3.7355    0.0000 C   0  0  0  0  0  0  0  0  0  0  0  0
   -1.0578   -4.1357    0.0000 C   0  0  0  0  0  0  0  0  0  0  0  0
   -1.7820   -2.9159    0.0000 C   0  0  0  0  0  0  0  0  0  0  0  0
    0.9053    4.0595    0.0000 C   0  0  0  0  0  0  0  0  0  0  0  0
   -2.0869   -4.8790    0.0000 C   0  0  0  0  0  0  0  0  0  0  0  0
    1.0005    4.8790    0.0000 C   0  0  0  0  0  0  0  0  0  0  0  0
    0.2573    4.5550    0.0000 C   0  0  0  0  0  0  0  0  0  0  0  0
    1.6867    4.4025    0.0000 C   0  0  0  0  0  0  0  0  0  0  0  0
  1  6  2  0  0  0  0
  1  7  2  0  0  0  0
  1 31  1  0  0  0  0
  1 35  1  0  0  0  0
 18  2  1  1  0  0  0
  3 20  2  0  0  0  0
  4 27  1  0  0  0  0
  4 34  1  0  0  0  0
  5 27  2  0  0  0  0
  8  9  1  0  0  0  0
  8 14  1  0  0  0  0
  8 15  1  0  0  0  0
  9 17  2  0  0  0  0
 10 23  1  0  0  0  0
 10 24  1  0  0  0  0
 10 27  1  0  0  0  0
 11 17  1  0  0  0  0
 11 26  1  0  0  0  0
 12 20  1  0  0  0  0
 12 25  1  0  0  0  0
 13 28  3  0  0  0  0
 14 18  1  0  0  0  0
 14 19  1  0  0  0  0
 14 21  1  1  0  0  0
 15 16  2  0  0  0  0
 15 22  1  0  0  0  0
 16 17  1  0  0  0  0
 16 20  1  0  0  0  0
 18 23  1  0  0  0  0
 19 24  1  0  0  0  0
 21 28  1  0  0  0  0
 22 25  2  0  0  0  0
 26 29  2  0  0  0  0
 26 30  1  0  0  0  0
 29 32  1  0  0  0  0
 30 33  2  0  0  0  0
 31 32  2  0  0  0  0
 31 33  1  0  0  0  0
 34 36  1  0  0  0  0
 34 37  1  0  0  0  0
 34 38  1  0  0  0  0
M  END
> <PUBCHEM_COMPOUND_ID_TYPE>
0

> <PUBCHEM_TOTAL_CHARGE>
0

> <PUBCHEM_SUBSTANCE_ID>
310940096

> <PUBCHEM_SUBSTANCE_VERSION>
1

> <PUBCHEM_EXT_DATASOURCE_NAME>
4488

> <PUBCHEM_EXT_DATASOURCE_REGID>
SCHEMBL16118027

> <PUBCHEM_SUBSTANCE_COMMENT>
InChI=1S/C25H29FN6O5S/c1-24(2,3)37-23(34)31-14-11-25(10-12-27,19(26)15-31)32-18-9-13-28-22(33)20(18)21(30-32)29-16-5-7-17(8-6-16)38(4,35)36/h5-9,13,19H,10-11,14-15H2,1-4H3,(H,28,33)(H,29,30)/t19-,25-/m0/s1
InChIKey=QPZAYQIDTOLOAC-DFBJGRDBSA-N

> <PUBCHEM_SUBSTANCE_SYNONYM>
SCHEMBL16118027

> <PUBCHEM_XREF_EXT_ID>
SCHEMBL16118027

> <PUBCHEM_EXT_DATASOURCE_URL>
https://www.surechembl.org/

> <PUBCHEM_EXT_SUBSTANCE_URL>
https://www.surechembl.org/chemical/SCHEMBL16118027

> <PUBCHEM_CID_ASSOCIATIONS>
117607232  1

> <PUBCHEM_COORDINATE_TYPE>
1
3

> <PUBCHEM_BONDANNOTATIONS>
14  21  5
18  2  5

$$$$
