310949108
  -OEChem-07211613022D

 10 11  0     0  0  0  0  0  0999 V2000
    1.4965    0.5836    0.0000 O   0  0  0  0  0  0  0  0  0  0  0  0
    0.0659   -1.1671    0.0000 N   0  0  0  0  0  0  0  0  0  0  0  0
   -0.7624   -1.0541    0.0000 N   0  0  0  0  0  0  0  0  0  0  0  0
   -0.1412    0.1506    0.0000 C   0  0  0  0  0  0  0  0  0  0  0  0
    0.4236   -0.4142    0.0000 C   0  0  0  0  0  0  0  0  0  0  0  0
   -0.8753   -0.2259    0.0000 C   0  0  0  0  0  0  0  0  0  0  0  0
    0.0847    0.9601    0.0000 C   0  0  0  0  0  0  0  0  0  0  0  0
    1.2518   -0.2070    0.0000 C   0  0  0  0  0  0  0  0  0  0  0  0
    0.8377    1.1671    0.0000 C   0  0  0  0  0  0  0  0  0  0  0  0
   -1.4965    0.0377    0.0000 C   0  0  0  0  0  0  0  0  0  0  0  0
  1  8  1  0  0  0  0
  1  9  1  0  0  0  0
  2  3  1  0  0  0  0
  2  5  1  0  0  0  0
  3  6  2  0  0  0  0
  4  5  2  0  0  0  0
  4  6  1  0  0  0  0
  4  7  1  0  0  0  0
  5  8  1  0  0  0  0
  6 10  1  0  0  0  0
  7  9  1  0  0  0  0
M  END
> <PUBCHEM_COMPOUND_ID_TYPE>
0

> <PUBCHEM_TOTAL_CHARGE>
0

> <PUBCHEM_SUBSTANCE_ID>
310949108

> <PUBCHEM_SUBSTANCE_VERSION>
1

> <PUBCHEM_EXT_DATASOURCE_NAME>
4488

> <PUBCHEM_EXT_DATASOURCE_REGID>
SCHEMBL16127298

> <PUBCHEM_SUBSTANCE_COMMENT>
InChI=1S/C7H10N2O/c1-5-6-2-3-10-4-7(6)9-8-5/h2-4H2,1H3,(H,8,9)
InChIKey=FMBVERKEGDTKTJ-UHFFFAOYSA-N

> <PUBCHEM_SUBSTANCE_SYNONYM>
SCHEMBL16127298

> <PUBCHEM_XREF_EXT_ID>
SCHEMBL16127298

> <PUBCHEM_EXT_DATASOURCE_URL>
https://www.surechembl.org/

> <PUBCHEM_EXT_SUBSTANCE_URL>
https://www.surechembl.org/chemical/SCHEMBL16127298

> <PUBCHEM_CID_ASSOCIATIONS>
58961110  1

> <PUBCHEM_COORDINATE_TYPE>
1
3

$$$$
