310947927
  -OEChem-07211613022D

 18 18  0     0  0  0  0  0  0999 V2000
   -0.5909   -4.5007    0.0000 O   0  0  0  0  0  0  0  0  0  0  0  0
    0.8378   -2.4382    0.0000 O   0  0  0  0  0  0  0  0  0  0  0  0
    0.8380   -4.5007    0.0000 O   0  0  0  0  0  0  0  0  0  0  0  0
    0.1235   -3.2632    0.0000 N   0  0  0  0  0  0  0  0  0  0  0  0
    0.1234   -2.8507    0.0000 C   0  0  0  0  0  0  0  0  0  0  0  0
    0.1235   -4.0882    0.0000 C   0  0  0  0  0  0  0  0  0  0  0  0
   -0.5911   -3.2632    0.0000 C   0  0  0  0  0  0  0  0  0  0  0  0
    0.8378   -3.2632    0.0000 C   0  0  0  0  0  0  0  0  0  0  0  0
   -0.5911   -4.0882    0.0000 C   0  0  0  0  0  0  0  0  0  0  0  0
    0.8378   -4.0882    0.0000 C   0  0  0  0  0  0  0  0  0  0  0  0
   -0.5909   -5.3257    0.0000 C   0  0  0  0  0  0  0  0  0  0  0  0
   -0.5911   -2.4382    0.0000 C   0  0  0  0  0  0  0  0  0  0  0  0
   -1.3055   -2.8507    0.0000 C   0  0  0  0  0  0  0  0  0  0  0  0
    0.1235   -5.7382    0.0000 C   0  0  0  0  0  0  0  0  0  0  0  0
   -0.5909   -6.1507    0.0000 C   0  0  0  0  0  0  0  0  0  0  0  0
   -1.3054   -5.7381    0.0000 C   0  0  0  0  0  0  0  0  0  0  0  0
   -2.0200   -2.4382    0.0000 C   0  0  0  0  0  0  0  0  0  0  0  0
   -2.7346   -2.8507    0.0000 C   0  0  0  0  0  0  0  0  0  0  0  0
  1  6  1  0  0  0  0
  1 11  1  0  0  0  0
  2  5  1  0  0  0  0
  3  6  2  0  0  0  0
  4  6  1  0  0  0  0
  4  9  1  0  0  0  0
  4 10  1  0  0  0  0
  5  7  1  0  0  0  0
  5  8  1  0  0  0  0
  5 12  1  0  0  0  0
  7  9  1  0  0  0  0
  8 10  1  0  0  0  0
 11 14  1  0  0  0  0
 11 15  1  0  0  0  0
 11 16  1  0  0  0  0
 12 13  2  0  0  0  0
 13 17  1  0  0  0  0
 17 18  1  0  0  0  0
M  END
> <PUBCHEM_COMPOUND_ID_TYPE>
0

> <PUBCHEM_TOTAL_CHARGE>
0

> <PUBCHEM_SUBSTANCE_ID>
310947927

> <PUBCHEM_SUBSTANCE_VERSION>
1

> <PUBCHEM_EXT_DATASOURCE_NAME>
4488

> <PUBCHEM_EXT_DATASOURCE_REGID>
SCHEMBL16126101

> <PUBCHEM_SUBSTANCE_COMMENT>
InChI=1S/C14H25NO3/c1-5-6-7-14(17)8-10-15(11-9-14)12(16)18-13(2,3)4/h6-7,17H,5,8-11H2,1-4H3/b7-6+
InChIKey=QFRDLZZWMOWGKC-VOTSOKGWSA-N

> <PUBCHEM_SUBSTANCE_SYNONYM>
SCHEMBL16126101

> <PUBCHEM_XREF_EXT_ID>
SCHEMBL16126101

> <PUBCHEM_EXT_DATASOURCE_URL>
https://www.surechembl.org/

> <PUBCHEM_EXT_SUBSTANCE_URL>
https://www.surechembl.org/chemical/SCHEMBL16126101

> <PUBCHEM_CID_ASSOCIATIONS>
117613585  1

> <PUBCHEM_COORDINATE_TYPE>
1
3

$$$$
