310941242
  -OEChem-07211613022D

 40 43  0     1  0  0  0  0  0999 V2000
    5.0694    0.6521    0.0000 O   0  0  0  0  0  0  0  0  0  0  0  0
    3.9475   -1.3112    0.0000 O   0  0  0  0  0  0  0  0  0  0  0  0
    1.8020    0.7643    0.0000 O   0  0  0  0  0  0  0  0  0  0  0  0
   -0.3576   -1.3112    0.0000 O   0  0  0  0  0  0  0  0  0  0  0  0
   -2.5031    0.7643    0.0000 O   0  0  0  0  0  0  0  0  0  0  0  0
   -5.3639    0.7643    0.0000 O   0  0  0  0  0  0  0  0  0  0  0  0
    2.5172   -0.4838    0.0000 N   0  0  0  0  0  0  0  0  0  0  0  0
    0.3716   -0.0631    0.0000 N   0  0  0  0  0  0  0  0  0  0  0  0
   -1.7740   -0.4838    0.0000 N   0  0  0  0  0  0  0  0  0  0  0  0
   -3.9335   -0.0631    0.0000 N   0  0  0  0  0  0  0  0  0  0  0  0
    3.2324   -1.7179    0.0000 N   0  0  0  0  0  0  0  0  0  0  0  0
    4.6487   -0.0070    0.0000 C   0  0  3  0  0  0  0  0  0  0  0  0
    3.9475   -0.4417    0.0000 C   0  0  0  0  0  0  0  0  0  0  0  0
    4.2701    0.6661    0.0000 C   0  0  0  0  0  0  0  0  0  0  0  0
    3.2184   -0.0350    0.0000 C   0  0  3  0  0  0  0  0  0  0  0  0
    5.3639   -0.4417    0.0000 C   0  0  0  0  0  0  0  0  0  0  0  0
    3.2324    1.2832    0.0000 C   0  0  0  0  0  0  0  0  0  0  0  0
    1.8020   -0.0631    0.0000 C   0  0  0  0  0  0  0  0  0  0  0  0
    1.1148   -0.4417    0.0000 C   0  0  3  0  0  0  0  0  0  0  0  0
    2.5031    1.7038    0.0000 C   0  0  0  0  0  0  0  0  0  0  0  0
    1.0728   -1.2971    0.0000 C   0  0  0  0  0  0  0  0  0  0  0  0
   -0.3296   -0.4277    0.0000 C   0  0  0  0  0  0  0  0  0  0  0  0
    1.8020    1.2971    0.0000 C   0  0  0  0  0  0  0  0  0  0  0  0
    2.5172    2.5172    0.0000 C   0  0  0  0  0  0  0  0  0  0  0  0
    1.8160   -1.6898    0.0000 C   0  0  0  0  0  0  0  0  0  0  0  0
   -1.0728   -0.0350    0.0000 C   0  0  3  0  0  0  0  0  0  0  0  0
    1.1008    1.7038    0.0000 C   0  0  0  0  0  0  0  0  0  0  0  0
    1.7880    2.9238    0.0000 C   0  0  0  0  0  0  0  0  0  0  0  0
    2.5031   -1.2832    0.0000 C   0  0  0  0  0  0  0  0  0  0  0  0
    1.8020   -2.5172    0.0000 C   0  0  0  0  0  0  0  0  0  0  0  0
   -2.5031   -0.0631    0.0000 C   0  0  0  0  0  0  0  0  0  0  0  0
    1.1008    2.5172    0.0000 C   0  0  0  0  0  0  0  0  0  0  0  0
   -3.1903   -0.4417    0.0000 C   0  0  0  0  0  0  0  0  0  0  0  0
   -1.0587    0.7783    0.0000 C   0  0  0  0  0  0  0  0  0  0  0  0
    2.5172   -2.9238    0.0000 C   0  0  0  0  0  0  0  0  0  0  0  0
    3.2324   -2.5172    0.0000 C   0  0  0  0  0  0  0  0  0  0  0  0
   -3.9195    0.7783    0.0000 C   0  0  0  0  0  0  0  0  0  0  0  0
   -4.6206   -0.4417    0.0000 C   0  0  0  0  0  0  0  0  0  0  0  0
   -4.6487    1.1990    0.0000 C   0  0  0  0  0  0  0  0  0  0  0  0
   -5.3499   -0.0491    0.0000 C   0  0  0  0  0  0  0  0  0  0  0  0
  1 12  1  0  0  0  0
  1 14  1  0  0  0  0
  2 13  2  0  0  0  0
  3 18  2  0  0  0  0
  4 22  2  0  0  0  0
  5 31  2  0  0  0  0
  6 39  1  0  0  0  0
  6 40  1  0  0  0  0
 15  7  1  1  0  0  0
  7 18  1  0  0  0  0
 19  8  1  6  0  0  0
  8 22  1  0  0  0  0
  9 26  1  0  0  0  0
  9 31  1  0  0  0  0
 10 33  1  0  0  0  0
 10 37  1  0  0  0  0
 10 38  1  0  0  0  0
 11 29  2  0  0  0  0
 11 36  1  0  0  0  0
 12 13  1  1  0  0  0
 12 14  1  0  0  0  0
 12 16  1  6  0  0  0
 13 15  1  0  0  0  0
 15 17  1  0  0  0  0
 17 20  1  0  0  0  0
 18 19  1  0  0  0  0
 19 21  1  0  0  0  0
 20 23  2  0  0  0  0
 20 24  1  0  0  0  0
 21 25  1  0  0  0  0
 22 26  1  0  0  0  0
 23 27  1  0  0  0  0
 24 28  2  0  0  0  0
 25 29  1  0  0  0  0
 25 30  2  0  0  0  0
 26 34  1  1  0  0  0
 27 32  2  0  0  0  0
 28 32  1  0  0  0  0
 30 35  1  0  0  0  0
 31 33  1  0  0  0  0
 35 36  2  0  0  0  0
 37 39  1  0  0  0  0
 38 40  1  0  0  0  0
M  END
> <PUBCHEM_COMPOUND_ID_TYPE>
0

> <PUBCHEM_TOTAL_CHARGE>
0

> <PUBCHEM_SUBSTANCE_ID>
310941242

> <PUBCHEM_SUBSTANCE_VERSION>
1

> <PUBCHEM_EXT_DATASOURCE_NAME>
4488

> <PUBCHEM_EXT_DATASOURCE_REGID>
SCHEMBL16119202

> <PUBCHEM_SUBSTANCE_COMMENT>
InChI=1S/C29H37N5O6/c1-20(31-25(35)18-34-11-13-39-14-12-34)27(37)33-24(16-22-9-6-10-30-17-22)28(38)32-23(26(36)29(2)19-40-29)15-21-7-4-3-5-8-21/h3-10,17,20,23-24H,11-16,18-19H2,1-2H3,(H,31,35)(H,32,38)(H,33,37)/t20-,23-,24-,29+/m0/s1
InChIKey=MGVJOPNNIACKPR-URIWZEQMSA-N

> <PUBCHEM_SUBSTANCE_SYNONYM>
SCHEMBL16119202

> <PUBCHEM_XREF_EXT_ID>
SCHEMBL16119202

> <PUBCHEM_EXT_DATASOURCE_URL>
https://www.surechembl.org/

> <PUBCHEM_EXT_SUBSTANCE_URL>
https://www.surechembl.org/chemical/SCHEMBL16119202

> <PUBCHEM_CID_ASSOCIATIONS>
117608101  1

> <PUBCHEM_COORDINATE_TYPE>
1
3

> <PUBCHEM_BONDANNOTATIONS>
12  13  5
12  16  6
26  34  5
15  7  5
19  8  6

$$$$
