310941356
  -OEChem-07211613022D

 58 65  0     1  0  0  0  0  0999 V2000
   -0.5605   -0.8034    0.0000 O   0  0  0  0  0  0  0  0  0  0  0  0
   -0.5605    5.1129    0.0000 O   0  0  0  0  0  0  0  0  0  0  0  0
    1.5195    0.6913    0.0000 O   0  0  0  0  0  0  0  0  0  0  0  0
    2.0800   -0.1183    0.0000 O   0  0  0  0  0  0  0  0  0  0  0  0
    3.5498   -3.1823    0.0000 O   0  0  0  0  0  0  0  0  0  0  0  0
    1.5195   -5.2250    0.0000 O   0  0  0  0  0  0  0  0  0  0  0  0
    3.5498    2.7339    0.0000 O   0  0  0  0  0  0  0  0  0  0  0  0
    2.0800    5.7979    0.0000 O   0  0  0  0  0  0  0  0  0  0  0  0
    0.6601   -2.6094    0.0000 N   0  0  0  0  0  0  0  0  0  0  0  0
    0.6601    3.3069    0.0000 N   0  0  0  0  0  0  0  0  0  0  0  0
   -1.9306   -1.5258    0.0000 N   0  0  0  0  0  0  0  0  0  0  0  0
   -1.9306   -2.8709    0.0000 N   0  0  0  0  0  0  0  0  0  0  0  0
   -1.9306    3.0453    0.0000 N   0  0  0  0  0  0  0  0  0  0  0  0
   -1.9430    4.3905    0.0000 N   0  0  0  0  0  0  0  0  0  0  0  0
   -0.5355   -3.5933    0.0000 N   0  0  0  0  0  0  0  0  0  0  0  0
   -0.5355    2.3229    0.0000 N   0  0  0  0  0  0  0  0  0  0  0  0
   -0.6228   -2.1984    0.0000 C   0  0  0  0  0  0  0  0  0  0  0  0
   -0.1245   -2.8585    0.0000 C   0  0  0  0  0  0  0  0  0  0  0  0
   -1.4572   -2.1859    0.0000 C   0  0  0  0  0  0  0  0  0  0  0  0
   -0.1245   -1.5258    0.0000 C   0  0  0  0  0  0  0  0  0  0  0  0
    0.6601   -1.7748    0.0000 C   0  0  3  0  0  0  0  0  0  0  0  0
   -0.6228    3.7179    0.0000 C   0  0  0  0  0  0  0  0  0  0  0  0
   -0.1245    3.0578    0.0000 C   0  0  0  0  0  0  0  0  0  0  0  0
    0.6601    4.1289    0.0000 C   0  0  3  0  0  0  0  0  0  0  0  0
   -0.1245    4.3905    0.0000 C   0  0  0  0  0  0  0  0  0  0  0  0
    1.3825   -3.0204    0.0000 C   0  0  0  0  0  0  0  0  0  0  0  0
   -2.7277   -1.7748    0.0000 C   0  0  0  0  0  0  0  0  0  0  0  0
   -1.4572    3.7303    0.0000 C   0  0  0  0  0  0  0  0  0  0  0  0
   -2.7402   -2.5970    0.0000 C   0  0  0  0  0  0  0  0  0  0  0  0
    1.3825    2.8959    0.0000 C   0  0  0  0  0  0  0  0  0  0  0  0
    1.3701   -1.3763    0.0000 C   0  0  0  0  0  0  0  0  0  0  0  0
   -2.7402    3.3193    0.0000 C   0  0  0  0  0  0  0  0  0  0  0  0
   -2.7277    4.1414    0.0000 C   0  0  0  0  0  0  0  0  0  0  0  0
    1.1708   -3.8300    0.0000 C   0  0  0  0  0  0  0  0  0  0  0  0
    2.1797   -2.8212    0.0000 C   0  0  0  0  0  0  0  0  0  0  0  0
    1.3950    4.5524    0.0000 C   0  0  0  0  0  0  0  0  0  0  0  0
    1.1708    2.0863    0.0000 C   0  0  0  0  0  0  0  0  0  0  0  0
   -3.4501   -1.3763    0.0000 C   0  0  0  0  0  0  0  0  0  0  0  0
    2.1797    3.0951    0.0000 C   0  0  0  0  0  0  0  0  0  0  0  0
   -3.4377   -3.0204    0.0000 C   0  0  0  0  0  0  0  0  0  0  0  0
   -1.5195   -0.8159    0.0000 C   0  0  0  0  0  0  0  0  0  0  0  0
    1.7437    1.5133    0.0000 C   0  0  0  0  0  0  0  0  0  0  0  0
    2.7651   -3.3941    0.0000 C   0  0  0  0  0  0  0  0  0  0  0  0
    1.7437   -4.4029    0.0000 C   0  0  0  0  0  0  0  0  0  0  0  0
    2.7651    2.5222    0.0000 C   0  0  0  0  0  0  0  0  0  0  0  0
    1.3950   -0.5294    0.0000 C   0  0  0  0  0  0  0  0  0  0  0  0
    2.5409   -4.2037    0.0000 C   0  0  0  0  0  0  0  0  0  0  0  0
    2.5409    1.7126    0.0000 C   0  0  0  0  0  0  0  0  0  0  0  0
   -4.1600   -1.7874    0.0000 C   0  0  0  0  0  0  0  0  0  0  0  0
   -4.1600   -2.6094    0.0000 C   0  0  0  0  0  0  0  0  0  0  0  0
   -3.4377    2.8959    0.0000 C   0  0  0  0  0  0  0  0  0  0  0  0
   -3.4501    4.5400    0.0000 C   0  0  0  0  0  0  0  0  0  0  0  0
    1.3825    5.3869    0.0000 C   0  0  0  0  0  0  0  0  0  0  0  0
   -4.1600    3.3069    0.0000 C   0  0  0  0  0  0  0  0  0  0  0  0
   -4.1600    4.1289    0.0000 C   0  0  0  0  0  0  0  0  0  0  0  0
    4.1600   -3.7677    0.0000 C   0  0  0  0  0  0  0  0  0  0  0  0
    2.1174   -5.7979    0.0000 C   0  0  0  0  0  0  0  0  0  0  0  0
    4.1600    2.1485    0.0000 C   0  0  0  0  0  0  0  0  0  0  0  0
  1 20  2  0  0  0  0
  2 25  2  0  0  0  0
  3  4  1  0  0  0  0
  3 42  1  0  0  0  0
  4 46  1  0  0  0  0
  5 43  1  0  0  0  0
  5 56  1  0  0  0  0
  6 44  1  0  0  0  0
  6 57  1  0  0  0  0
  7 45  1  0  0  0  0
  7 58  1  0  0  0  0
  8 53  1  0  0  0  0
  9 18  1  0  0  0  0
  9 21  1  0  0  0  0
  9 26  1  0  0  0  0
 10 23  1  0  0  0  0
 10 24  1  0  0  0  0
 10 30  1  0  0  0  0
 11 19  1  0  0  0  0
 11 27  1  0  0  0  0
 11 41  1  0  0  0  0
 12 19  2  0  0  0  0
 12 29  1  0  0  0  0
 13 28  2  0  0  0  0
 13 32  1  0  0  0  0
 14 28  1  0  0  0  0
 14 33  1  0  0  0  0
 15 18  1  0  0  0  0
 16 23  1  0  0  0  0
 17 18  2  0  0  0  0
 17 19  1  0  0  0  0
 17 20  1  0  0  0  0
 20 21  1  0  0  0  0
 21 31  1  0  0  0  0
 22 23  2  0  0  0  0
 22 25  1  0  0  0  0
 22 28  1  0  0  0  0
 24 25  1  0  0  0  0
 24 36  1  6  0  0  0
 26 34  2  0  0  0  0
 26 35  1  0  0  0  0
 27 29  2  0  0  0  0
 27 38  1  0  0  0  0
 29 40  1  0  0  0  0
 30 37  2  0  0  0  0
 30 39  1  0  0  0  0
 31 46  1  0  0  0  0
 32 33  2  0  0  0  0
 32 51  1  0  0  0  0
 33 52  1  0  0  0  0
 34 44  1  0  0  0  0
 35 43  2  0  0  0  0
 36 53  1  0  0  0  0
 37 42  1  0  0  0  0
 38 49  2  0  0  0  0
 39 45  2  0  0  0  0
 40 50  2  0  0  0  0
 42 48  2  0  0  0  0
 43 47  1  0  0  0  0
 44 47  2  0  0  0  0
 45 48  1  0  0  0  0
 49 50  1  0  0  0  0
 51 54  2  0  0  0  0
 52 55  2  0  0  0  0
 54 55  1  0  0  0  0
M  END
> <PUBCHEM_COMPOUND_ID_TYPE>
0

> <PUBCHEM_TOTAL_CHARGE>
0

> <PUBCHEM_SUBSTANCE_ID>
310941356

> <PUBCHEM_SUBSTANCE_VERSION>
1

> <PUBCHEM_EXT_DATASOURCE_NAME>
4488

> <PUBCHEM_EXT_DATASOURCE_REGID>
SCHEMBL16119316

> <PUBCHEM_SUBSTANCE_COMMENT>
InChI=1S/C42H42N8O8/c1-48-32-12-8-7-11-31(32)47-42(48)36-38(53)34(50(40(36)44)23-17-25(54-2)21-26(18-23)55-3)14-16-57-58-28-20-24(19-27(22-28)56-4)49-33(13-15-51)37(52)35(39(49)43)41-45-29-9-5-6-10-30(29)46-41/h5-12,17-22,33-34,51H,13-16,43-44H2,1-4H3,(H,45,46)/t33-,34?/m0/s1
InChIKey=ZJBKRLDBDRLOHM-CDRRMRQFSA-N

> <PUBCHEM_SUBSTANCE_SYNONYM>
SCHEMBL16119316

> <PUBCHEM_XREF_EXT_ID>
SCHEMBL16119316

> <PUBCHEM_EXT_DATASOURCE_URL>
https://www.surechembl.org/

> <PUBCHEM_EXT_SUBSTANCE_URL>
https://www.surechembl.org/chemical/SCHEMBL16119316

> <PUBCHEM_CID_ASSOCIATIONS>
117608199  1

> <PUBCHEM_COORDINATE_TYPE>
1
3

> <PUBCHEM_BONDANNOTATIONS>
24  36  6

$$$$
