310941856
  -OEChem-07211613022D

 21 23  0     0  0  0  0  0  0999 V2000
   -0.8043   -1.0518    0.0000 Br  0  0  0  0  0  0  0  0  0  0  0  0
   -0.4881    0.5981    0.0000 O   0  0  0  0  0  0  0  0  0  0  0  0
    1.6569   -0.6393    0.0000 N   0  0  0  0  0  0  0  0  0  0  0  0
    2.4405    0.4331    0.0000 N   0  0  0  0  0  0  0  0  0  0  0  0
    2.9218   -0.2406    0.0000 N   0  0  0  0  0  0  0  0  0  0  0  0
    2.6743   -1.6843    0.0000 N   0  0  0  0  0  0  0  0  0  0  0  0
    1.6569    0.1994    0.0000 C   0  0  0  0  0  0  0  0  0  0  0  0
    2.4130   -0.8869    0.0000 C   0  0  0  0  0  0  0  0  0  0  0  0
    0.2406    0.1994    0.0000 C   0  0  0  0  0  0  0  0  0  0  0  0
    0.2131   -0.6393    0.0000 C   0  0  0  0  0  0  0  0  0  0  0  0
    0.9281    0.5981    0.0000 C   0  0  0  0  0  0  0  0  0  0  0  0
    0.9556   -1.0381    0.0000 C   0  0  0  0  0  0  0  0  0  0  0  0
   -1.9181    0.5981    0.0000 C   0  0  0  0  0  0  0  0  0  0  0  0
   -1.1893    0.1994    0.0000 C   0  0  0  0  0  0  0  0  0  0  0  0
   -2.6193    0.1994    0.0000 C   0  0  0  0  0  0  0  0  0  0  0  0
   -1.9181    1.4231    0.0000 C   0  0  0  0  0  0  0  0  0  0  0  0
   -1.9043   -0.2269    0.0000 C   0  0  0  0  0  0  0  0  0  0  0  0
   -3.3480    0.6119    0.0000 C   0  0  0  0  0  0  0  0  0  0  0  0
   -2.6193    1.8218    0.0000 C   0  0  0  0  0  0  0  0  0  0  0  0
    3.3480   -1.8218    0.0000 C   0  0  0  0  0  0  0  0  0  0  0  0
   -3.3343    1.4231    0.0000 C   0  0  0  0  0  0  0  0  0  0  0  0
  1 10  1  0  0  0  0
  2  9  1  0  0  0  0
  2 14  1  0  0  0  0
  3  7  1  0  0  0  0
  3  8  1  0  0  0  0
  3 12  1  0  0  0  0
  4  5  1  0  0  0  0
  4  7  2  0  0  0  0
  5  8  2  0  0  0  0
  6  8  1  0  0  0  0
  6 20  1  0  0  0  0
  7 11  1  0  0  0  0
  9 10  1  0  0  0  0
  9 11  2  0  0  0  0
 10 12  2  0  0  0  0
 13 14  1  0  0  0  0
 13 15  1  0  0  0  0
 13 16  1  0  0  0  0
 13 17  1  0  0  0  0
 15 18  1  0  0  0  0
 16 19  1  0  0  0  0
 18 21  1  0  0  0  0
 19 21  1  0  0  0  0
M  END
> <PUBCHEM_COMPOUND_ID_TYPE>
0

> <PUBCHEM_TOTAL_CHARGE>
0

> <PUBCHEM_SUBSTANCE_ID>
310941856

> <PUBCHEM_SUBSTANCE_VERSION>
1

> <PUBCHEM_EXT_DATASOURCE_NAME>
4488

> <PUBCHEM_EXT_DATASOURCE_REGID>
SCHEMBL16119888

> <PUBCHEM_SUBSTANCE_COMMENT>
InChI=1S/C15H21BrN4O/c1-15(6-4-3-5-7-15)10-21-12-8-13-18-19-14(17-2)20(13)9-11(12)16/h8-9H,3-7,10H2,1-2H3,(H,17,19)
InChIKey=ABWCREPVLUCXGX-UHFFFAOYSA-N

> <PUBCHEM_SUBSTANCE_SYNONYM>
SCHEMBL16119888

> <PUBCHEM_XREF_EXT_ID>
SCHEMBL16119888

> <PUBCHEM_EXT_DATASOURCE_URL>
https://www.surechembl.org/

> <PUBCHEM_EXT_SUBSTANCE_URL>
https://www.surechembl.org/chemical/SCHEMBL16119888

> <PUBCHEM_CID_ASSOCIATIONS>
117608597  1

> <PUBCHEM_COORDINATE_TYPE>
1
3

$$$$
