310942039
  -OEChem-07211613022D

 22 25  0     0  0  0  0  0  0999 V2000
    2.0019    1.4824    0.0000 S   0  0  0  0  0  0  0  0  0  0  0  0
   -1.1656   -0.7475    0.0000 N   0  0  0  0  0  0  0  0  0  0  0  0
   -0.7475    0.5448    0.0000 C   0  0  0  0  0  0  0  0  0  0  0  0
   -0.5068   -0.2281    0.0000 C   0  0  0  0  0  0  0  0  0  0  0  0
   -1.5711    0.5701    0.0000 C   0  0  0  0  0  0  0  0  0  0  0  0
   -1.8499   -0.2154    0.0000 C   0  0  0  0  0  0  0  0  0  0  0  0
   -0.1900    1.1530    0.0000 C   0  0  0  0  0  0  0  0  0  0  0  0
    0.6082    0.9883    0.0000 C   0  0  0  0  0  0  0  0  0  0  0  0
    0.3041   -0.4181    0.0000 C   0  0  0  0  0  0  0  0  0  0  0  0
    1.1783    1.6091    0.0000 C   0  0  0  0  0  0  0  0  0  0  0  0
   -2.1159    1.1783    0.0000 C   0  0  0  0  0  0  0  0  0  0  0  0
    0.8489    0.1774    0.0000 C   0  0  0  0  0  0  0  0  0  0  0  0
   -2.6354   -0.3801    0.0000 C   0  0  0  0  0  0  0  0  0  0  0  0
   -1.1910   -1.5711    0.0000 C   0  0  0  0  0  0  0  0  0  0  0  0
   -2.9141    1.0136    0.0000 C   0  0  0  0  0  0  0  0  0  0  0  0
   -3.1802    0.2154    0.0000 C   0  0  0  0  0  0  0  0  0  0  0  0
    1.0390    2.4327    0.0000 C   0  0  0  0  0  0  0  0  0  0  0  0
    2.3440    2.2680    0.0000 C   0  0  0  0  0  0  0  0  0  0  0  0
    1.7359    2.8255    0.0000 C   0  0  0  0  0  0  0  0  0  0  0  0
   -1.9005   -1.9765    0.0000 C   0  0  0  0  0  0  0  0  0  0  0  0
    3.1802    2.4200    0.0000 C   0  0  0  0  0  0  0  0  0  0  0  0
   -1.9132   -2.8255    0.0000 C   0  0  0  0  0  0  0  0  0  0  0  0
  1 10  1  0  0  0  0
  1 18  1  0  0  0  0
  2  4  1  0  0  0  0
  2  6  1  0  0  0  0
  2 14  1  0  0  0  0
  3  4  2  0  0  0  0
  3  5  1  0  0  0  0
  3  7  1  0  0  0  0
  4  9  1  0  0  0  0
  5  6  2  0  0  0  0
  5 11  1  0  0  0  0
  6 13  1  0  0  0  0
  7  8  2  0  0  0  0
  8 10  1  0  0  0  0
  8 12  1  0  0  0  0
  9 12  2  0  0  0  0
 10 17  2  0  0  0  0
 11 15  2  0  0  0  0
 13 16  2  0  0  0  0
 14 20  1  0  0  0  0
 15 16  1  0  0  0  0
 17 19  1  0  0  0  0
 18 19  2  0  0  0  0
 18 21  1  0  0  0  0
 20 22  1  0  0  0  0
M  END
> <PUBCHEM_COMPOUND_ID_TYPE>
0

> <PUBCHEM_TOTAL_CHARGE>
0

> <PUBCHEM_SUBSTANCE_ID>
310942039

> <PUBCHEM_SUBSTANCE_VERSION>
1

> <PUBCHEM_EXT_DATASOURCE_NAME>
4488

> <PUBCHEM_EXT_DATASOURCE_REGID>
SCHEMBL16120073

> <PUBCHEM_SUBSTANCE_COMMENT>
InChI=1S/C20H19NS/c1-3-12-21-18-7-5-4-6-16(18)17-13-15(9-10-19(17)21)20-11-8-14(2)22-20/h4-11,13H,3,12H2,1-2H3
InChIKey=BULLRRWYKPLLCI-UHFFFAOYSA-N

> <PUBCHEM_SUBSTANCE_SYNONYM>
SCHEMBL16120073

> <PUBCHEM_XREF_EXT_ID>
SCHEMBL16120073

> <PUBCHEM_EXT_DATASOURCE_URL>
https://www.surechembl.org/

> <PUBCHEM_EXT_SUBSTANCE_URL>
https://www.surechembl.org/chemical/SCHEMBL16120073

> <PUBCHEM_CID_ASSOCIATIONS>
86270958  1

> <PUBCHEM_COORDINATE_TYPE>
1
3

$$$$
