310949400
  -OEChem-07211613022D

 25 28  0     0  0  0  0  0  0999 V2000
    0.0144    1.1386    0.0000 N   0  0  0  0  0  0  0  0  0  0  0  0
   -1.4845    1.4412    0.0000 N   0  0  0  0  0  0  0  0  0  0  0  0
    1.4989    1.4268    0.0000 N   0  0  0  0  0  0  0  0  0  0  0  0
    2.1763    0.6342    0.0000 N   0  0  0  0  0  0  0  0  0  0  0  0
   -2.1763    0.6485    0.0000 N   0  0  0  0  0  0  0  0  0  0  0  0
   -0.0577   -3.0266    0.0000 N   0  0  0  0  0  0  0  0  0  0  0  0
   -0.6918    1.6431    0.0000 C   0  0  0  0  0  0  0  0  0  0  0  0
    0.6774    1.6287    0.0000 C   0  0  0  0  0  0  0  0  0  0  0  0
   -0.4179    2.4213    0.0000 C   0  0  0  0  0  0  0  0  0  0  0  0
    0.4323    2.3925    0.0000 C   0  0  0  0  0  0  0  0  0  0  0  0
   -0.0144    0.3171    0.0000 C   0  0  0  0  0  0  0  0  0  0  0  0
    0.7350   -0.1153    0.0000 C   0  0  0  0  0  0  0  0  0  0  0  0
   -0.7206   -0.0865    0.0000 C   0  0  0  0  0  0  0  0  0  0  0  0
   -0.9656    3.0266    0.0000 C   0  0  0  0  0  0  0  0  0  0  0  0
    0.9800    3.0122    0.0000 C   0  0  0  0  0  0  0  0  0  0  0  0
    0.7062   -0.9656    0.0000 C   0  0  0  0  0  0  0  0  0  0  0  0
   -0.7206   -0.9368    0.0000 C   0  0  0  0  0  0  0  0  0  0  0  0
   -0.0144   -1.3260    0.0000 C   0  0  0  0  0  0  0  0  0  0  0  0
    2.0754    2.0610    0.0000 C   0  0  0  0  0  0  0  0  0  0  0  0
   -2.0322    2.1042    0.0000 C   0  0  0  0  0  0  0  0  0  0  0  0
   -1.7872    2.8681    0.0000 C   0  0  0  0  0  0  0  0  0  0  0  0
    1.8016    2.8249    0.0000 C   0  0  0  0  0  0  0  0  0  0  0  0
    1.4412    0.2738    0.0000 C   0  0  0  0  0  0  0  0  0  0  0  0
   -1.4556    0.3027    0.0000 C   0  0  0  0  0  0  0  0  0  0  0  0
   -0.0433   -2.2051    0.0000 C   0  0  0  0  0  0  0  0  0  0  0  0
  1  7  1  0  0  0  0
  1  8  1  0  0  0  0
  1 11  1  0  0  0  0
  2  7  1  0  0  0  0
  2 20  2  0  0  0  0
  3  8  1  0  0  0  0
  3 19  2  0  0  0  0
  4 23  3  0  0  0  0
  5 24  3  0  0  0  0
  6 25  3  0  0  0  0
  7  9  2  0  0  0  0
  8 10  2  0  0  0  0
  9 10  1  0  0  0  0
  9 14  1  0  0  0  0
 10 15  1  0  0  0  0
 11 12  2  0  0  0  0
 11 13  1  0  0  0  0
 12 16  1  0  0  0  0
 12 23  1  0  0  0  0
 13 17  2  0  0  0  0
 13 24  1  0  0  0  0
 14 21  2  0  0  0  0
 15 22  2  0  0  0  0
 16 18  2  0  0  0  0
 17 18  1  0  0  0  0
 18 25  1  0  0  0  0
 19 22  1  0  0  0  0
 20 21  1  0  0  0  0
M  END
> <PUBCHEM_COMPOUND_ID_TYPE>
0

> <PUBCHEM_TOTAL_CHARGE>
0

> <PUBCHEM_SUBSTANCE_ID>
310949400

> <PUBCHEM_SUBSTANCE_VERSION>
1

> <PUBCHEM_EXT_DATASOURCE_NAME>
4488

> <PUBCHEM_EXT_DATASOURCE_REGID>
SCHEMBL16127592

> <PUBCHEM_SUBSTANCE_COMMENT>
InChI=1S/C19H8N6/c20-9-12-7-13(10-21)17(14(8-12)11-22)25-18-15(3-1-5-23-18)16-4-2-6-24-19(16)25/h1-8H
InChIKey=WSTGRDPWTBXUTF-UHFFFAOYSA-N

> <PUBCHEM_SUBSTANCE_SYNONYM>
SCHEMBL16127592

> <PUBCHEM_XREF_EXT_ID>
SCHEMBL16127592

> <PUBCHEM_EXT_DATASOURCE_URL>
https://www.surechembl.org/

> <PUBCHEM_EXT_SUBSTANCE_URL>
https://www.surechembl.org/chemical/SCHEMBL16127592

> <PUBCHEM_CID_ASSOCIATIONS>
117614852  1

> <PUBCHEM_COORDINATE_TYPE>
1
3

$$$$
