310934190
  -OEChem-07211613022D

 27 29  0     1  0  0  0  0  0999 V2000
    0.1298    2.0602    0.0000 I   0  0  0  0  0  0  0  0  0  0  0  0
   -3.7821    3.7450    0.0000 F   0  0  0  0  0  0  0  0  0  0  0  0
    1.7011   -0.1418    0.0000 F   0  0  0  0  0  0  0  0  0  0  0  0
   -0.0923    3.0176    0.0000 O   0  0  0  0  0  0  0  0  0  0  0  0
   -0.8396    3.8303    0.0000 O   0  0  0  0  0  0  0  0  0  0  0  0
    1.0300   -1.6491    0.0000 O   0  0  0  0  0  0  0  0  0  0  0  0
   -0.2754   -1.0679    0.0000 N   0  0  0  0  0  0  0  0  0  0  0  0
   -1.3222    2.2902    0.0000 C   0  0  3  0  0  0  0  0  0  0  0  0
   -0.6548    1.8053    0.0000 C   0  0  0  0  0  0  0  0  0  0  0  0
   -0.9097    1.0206    0.0000 C   0  0  0  0  0  0  0  0  0  0  0  0
   -1.7272    3.0089    0.0000 C   0  0  0  0  0  0  0  0  0  0  0  0
   -1.9897    1.8053    0.0000 C   0  0  0  0  0  0  0  0  0  0  0  0
   -1.7347    1.0206    0.0000 C   0  0  3  0  0  0  0  0  0  0  0  0
   -0.9172    3.0089    0.0000 C   0  0  0  0  0  0  0  0  0  0  0  0
   -0.4248    0.3532    0.0000 C   0  0  0  0  0  0  0  0  0  0  0  0
   -2.5522    3.0176    0.0000 C   0  0  0  0  0  0  0  0  0  0  0  0
   -1.3073    3.7190    0.0000 C   0  0  0  0  0  0  0  0  0  0  0  0
   -2.9572    3.7363    0.0000 C   0  0  0  0  0  0  0  0  0  0  0  0
    0.3957    0.4394    0.0000 C   0  0  0  0  0  0  0  0  0  0  0  0
   -0.7604   -0.4005    0.0000 C   0  0  0  0  0  0  0  0  0  0  0  0
   -2.2197    0.3532    0.0000 C   0  0  0  0  0  0  0  0  0  0  0  0
    0.8806   -0.2280    0.0000 C   0  0  0  0  0  0  0  0  0  0  0  0
   -1.7123    4.4378    0.0000 C   0  0  0  0  0  0  0  0  0  0  0  0
   -2.5372    4.4464    0.0000 C   0  0  0  0  0  0  0  0  0  0  0  0
    0.5450   -0.9817    0.0000 C   0  0  0  0  0  0  0  0  0  0  0  0
   -2.9721    2.3075    0.0000 C   0  0  0  0  0  0  0  0  0  0  0  0
    0.6944   -2.4028    0.0000 C   0  0  0  0  0  0  0  0  0  0  0  0
  1  9  1  0  0  0  0
  2 18  1  0  0  0  0
  3 22  1  0  0  0  0
  4 14  2  0  0  0  0
  5 14  1  0  0  0  0
  6 25  1  0  0  0  0
  6 27  1  0  0  0  0
  7 20  2  0  0  0  0
  7 25  1  0  0  0  0
  8  9  1  0  0  0  0
  8 11  1  1  0  0  0
  8 12  1  0  0  0  0
  8 14  1  6  0  0  0
  9 10  2  0  0  0  0
 10 13  1  0  0  0  0
 10 15  1  0  0  0  0
 11 16  2  0  0  0  0
 11 17  1  0  0  0  0
 12 13  1  0  0  0  0
 13 21  1  0  0  0  0
 15 19  2  0  0  0  0
 15 20  1  0  0  0  0
 16 18  1  0  0  0  0
 16 26  1  0  0  0  0
 17 23  2  0  0  0  0
 18 24  2  0  0  0  0
 19 22  1  0  0  0  0
 22 25  2  0  0  0  0
 23 24  1  0  0  0  0
M  END
> <PUBCHEM_COMPOUND_ID_TYPE>
0

> <PUBCHEM_TOTAL_CHARGE>
0

> <PUBCHEM_SUBSTANCE_ID>
310934190

> <PUBCHEM_SUBSTANCE_VERSION>
1

> <PUBCHEM_EXT_DATASOURCE_NAME>
4488

> <PUBCHEM_EXT_DATASOURCE_REGID>
SCHEMBL16111645

> <PUBCHEM_SUBSTANCE_COMMENT>
InChI=1S/C20H18F2INO3/c1-10-8-20(19(25)26,13-5-4-6-14(21)11(13)2)17(23)16(10)12-7-15(22)18(27-3)24-9-12/h4-7,9-10H,8H2,1-3H3,(H,25,26)/t10?,20-/m1/s1
InChIKey=DIMNMGFLNQHNIX-AKYJZCGHSA-N

> <PUBCHEM_SUBSTANCE_SYNONYM>
SCHEMBL16111645

> <PUBCHEM_XREF_EXT_ID>
SCHEMBL16111645

> <PUBCHEM_EXT_DATASOURCE_URL>
https://www.surechembl.org/

> <PUBCHEM_EXT_SUBSTANCE_URL>
https://www.surechembl.org/chemical/SCHEMBL16111645

> <PUBCHEM_CID_ASSOCIATIONS>
117602462  1

> <PUBCHEM_COORDINATE_TYPE>
1
3

> <PUBCHEM_BONDANNOTATIONS>
8  11  5
8  14  6

$$$$
