310949522
  -OEChem-07211613022D

 20 21  0     0  0  0  0  0  0999 V2000
   -2.8457    1.0163    0.0000 O   0  0  0  0  0  0  0  0  0  0  0  0
   -1.4229    1.0163    0.0000 O   0  0  0  0  0  0  0  0  0  0  0  0
    0.0000   -1.4519    0.0000 O   0  0  0  0  0  0  0  0  0  0  0  0
   -0.7114   -0.2178    0.0000 N   0  0  0  0  0  0  0  0  0  0  0  0
    0.7114   -0.2178    0.0000 N   0  0  0  0  0  0  0  0  0  0  0  0
   -2.1343   -0.2178    0.0000 C   0  0  0  0  0  0  0  0  0  0  0  0
   -1.4229   -0.6388    0.0000 C   0  0  0  0  0  0  0  0  0  0  0  0
   -2.1343    0.5952    0.0000 C   0  0  0  0  0  0  0  0  0  0  0  0
    0.0145   -0.6243    0.0000 C   0  0  0  0  0  0  0  0  0  0  0  0
   -2.8312   -0.6388    0.0000 C   0  0  0  0  0  0  0  0  0  0  0  0
   -1.4229   -1.4665    0.0000 C   0  0  0  0  0  0  0  0  0  0  0  0
    1.4374   -0.6533    0.0000 C   0  0  0  0  0  0  0  0  0  0  0  0
   -2.8312   -1.4665    0.0000 C   0  0  0  0  0  0  0  0  0  0  0  0
   -2.1488   -1.8585    0.0000 C   0  0  0  0  0  0  0  0  0  0  0  0
    2.1343   -0.2323    0.0000 C   0  0  0  0  0  0  0  0  0  0  0  0
    1.4374   -1.4665    0.0000 C   0  0  0  0  0  0  0  0  0  0  0  0
    2.8457   -0.6388    0.0000 C   0  0  0  0  0  0  0  0  0  0  0  0
    2.1198   -1.8585    0.0000 C   0  0  0  0  0  0  0  0  0  0  0  0
    2.8457   -1.4665    0.0000 C   0  0  0  0  0  0  0  0  0  0  0  0
   -2.8457    1.8585    0.0000 C   0  0  0  0  0  0  0  0  0  0  0  0
  1  8  1  0  0  0  0
  1 20  1  0  0  0  0
  2  8  2  0  0  0  0
  3  9  2  0  0  0  0
  4  7  1  0  0  0  0
  4  9  1  0  0  0  0
  5  9  1  0  0  0  0
  5 12  1  0  0  0  0
  6  7  2  0  0  0  0
  6  8  1  0  0  0  0
  6 10  1  0  0  0  0
  7 11  1  0  0  0  0
 10 13  2  0  0  0  0
 11 14  2  0  0  0  0
 12 15  2  0  0  0  0
 12 16  1  0  0  0  0
 13 14  1  0  0  0  0
 15 17  1  0  0  0  0
 16 18  2  0  0  0  0
 17 19  2  0  0  0  0
 18 19  1  0  0  0  0
M  END
> <PUBCHEM_COMPOUND_ID_TYPE>
0

> <PUBCHEM_TOTAL_CHARGE>
0

> <PUBCHEM_SUBSTANCE_ID>
310949522

> <PUBCHEM_SUBSTANCE_VERSION>
1

> <PUBCHEM_EXT_DATASOURCE_NAME>
4488

> <PUBCHEM_EXT_DATASOURCE_REGID>
SCHEMBL16127717

> <PUBCHEM_SUBSTANCE_COMMENT>
InChI=1S/C15H14N2O3/c1-20-14(18)12-9-5-6-10-13(12)17-15(19)16-11-7-3-2-4-8-11/h2-10H,1H3,(H2,16,17,19)
InChIKey=UBVFBSKFPOFJSB-UHFFFAOYSA-N

> <PUBCHEM_SUBSTANCE_SYNONYM>
SCHEMBL16127717

> <PUBCHEM_XREF_EXT_ID>
SCHEMBL16127717

> <PUBCHEM_EXT_DATASOURCE_URL>
https://www.surechembl.org/

> <PUBCHEM_EXT_SUBSTANCE_URL>
https://www.surechembl.org/chemical/SCHEMBL16127717

> <PUBCHEM_CID_ASSOCIATIONS>
295252  1

> <PUBCHEM_COORDINATE_TYPE>
1
3

$$$$
