310934512
  -OEChem-07211613022D

 13 13  0     0  0  0  0  0  0999 V2000
    0.7145    0.4125    0.0000 P   0  0  0  0  0  0  0  0  0  0  0  0
    0.7145    1.2375    0.0000 O   0  0  0  0  0  0  0  0  0  0  0  0
    1.4290    0.0000    0.0000 O   0  0  0  0  0  0  0  0  0  0  0  0
    0.7145   -0.4125    0.0000 O   0  0  0  0  0  0  0  0  0  0  0  0
   -0.7145    0.4125    0.0000 N   0  0  0  0  0  0  0  0  0  0  0  0
    0.0000    0.0000    0.0000 C   0  0  0  0  0  0  0  0  0  0  0  0
   -1.4290    0.0000    0.0000 C   0  0  0  0  0  0  0  0  0  0  0  0
   -1.3673   -0.8227    0.0000 C   0  0  0  0  0  0  0  0  0  0  0  0
   -2.1106    0.4647    0.0000 C   0  0  0  0  0  0  0  0  0  0  0  0
   -1.9721   -1.3838    0.0000 C   0  0  0  0  0  0  0  0  0  0  0  0
   -2.8989    0.2216    0.0000 C   0  0  0  0  0  0  0  0  0  0  0  0
   -2.7879   -1.2609    0.0000 C   0  0  0  0  0  0  0  0  0  0  0  0
   -3.2004   -0.5464    0.0000 C   0  0  0  0  0  0  0  0  0  0  0  0
  1  2  2  0  0  0  0
  1  3  1  0  0  0  0
  1  4  1  0  0  0  0
  1  6  1  0  0  0  0
  5  6  1  0  0  0  0
  5  7  1  0  0  0  0
  7  8  1  0  0  0  0
  7  9  1  0  0  0  0
  8 10  1  0  0  0  0
  9 11  1  0  0  0  0
 10 12  1  0  0  0  0
 11 13  1  0  0  0  0
 12 13  1  0  0  0  0
M  END
> <PUBCHEM_COMPOUND_ID_TYPE>
0

> <PUBCHEM_TOTAL_CHARGE>
0

> <PUBCHEM_SUBSTANCE_ID>
310934512

> <PUBCHEM_SUBSTANCE_VERSION>
1

> <PUBCHEM_EXT_DATASOURCE_NAME>
4488

> <PUBCHEM_EXT_DATASOURCE_REGID>
SCHEMBL16111997

> <PUBCHEM_SUBSTANCE_COMMENT>
InChI=1S/C8H18NO3P/c10-13(11,12)7-9-8-5-3-1-2-4-6-8/h8-9H,1-7H2,(H2,10,11,12)
InChIKey=OTOPVFFATRELMI-UHFFFAOYSA-N

> <PUBCHEM_SUBSTANCE_SYNONYM>
SCHEMBL16111997

> <PUBCHEM_XREF_EXT_ID>
SCHEMBL16111997

> <PUBCHEM_EXT_DATASOURCE_URL>
https://www.surechembl.org/

> <PUBCHEM_EXT_SUBSTANCE_URL>
https://www.surechembl.org/chemical/SCHEMBL16111997

> <PUBCHEM_CID_ASSOCIATIONS>
117602710  1

> <PUBCHEM_COORDINATE_TYPE>
1
3

$$$$
