310946960
  -OEChem-07211613022D

 12 13  0     0  0  0  0  0  0999 V2000
   -2.9014    5.9703    0.0000 N   0  0  0  0  0  0  0  0  0  0  0  0
   -4.3303    5.9703    0.0000 N   0  0  0  0  0  0  0  0  0  0  0  0
   -2.9014    4.3203    0.0000 N   0  0  0  0  0  0  0  0  0  0  0  0
   -3.6158    5.5578    0.0000 C   0  0  0  0  0  0  0  0  0  0  0  0
   -3.6158    4.7328    0.0000 C   0  0  0  0  0  0  0  0  0  0  0  0
   -2.1869    5.5578    0.0000 C   0  0  0  0  0  0  0  0  0  0  0  0
   -4.3303    4.3203    0.0000 C   0  0  0  0  0  0  0  0  0  0  0  0
   -5.0448    5.5578    0.0000 C   0  0  0  0  0  0  0  0  0  0  0  0
   -2.1869    4.7328    0.0000 C   0  0  0  0  0  0  0  0  0  0  0  0
   -5.0448    4.7328    0.0000 C   0  0  0  0  0  0  0  0  0  0  0  0
   -5.7592    5.9703    0.0000 C   0  0  0  0  0  0  0  0  0  0  0  0
   -1.4724    5.9703    0.0000 H   1  0  0  0  0  0  0  0  0  0  0  0
  1  4  1  0  0  0  0
  1  6  2  0  0  0  0
  2  4  2  0  0  0  0
  2  8  1  0  0  0  0
  3  5  1  0  0  0  0
  3  9  2  0  0  0  0
  4  5  1  0  0  0  0
  5  7  2  0  0  0  0
  6  9  1  0  0  0  0
  6 12  1  0  0  0  0
  7 10  1  0  0  0  0
  8 10  2  0  0  0  0
  8 11  1  0  0  0  0
M  ISO  1  12   2
M  END
> <PUBCHEM_COMPOUND_ID_TYPE>
0

> <PUBCHEM_TOTAL_CHARGE>
0

> <PUBCHEM_SUBSTANCE_ID>
310946960

> <PUBCHEM_SUBSTANCE_VERSION>
1

> <PUBCHEM_EXT_DATASOURCE_NAME>
4488

> <PUBCHEM_EXT_DATASOURCE_REGID>
SCHEMBL16125089

> <PUBCHEM_SUBSTANCE_COMMENT>
InChI=1S/C8H7N3/c1-6-2-3-7-8(11-6)10-5-4-9-7/h2-5H,1H3/i5D
InChIKey=YYNMTNKYXHARBB-UICOGKGYSA-N

> <PUBCHEM_SUBSTANCE_SYNONYM>
SCHEMBL16125089

> <PUBCHEM_XREF_EXT_ID>
SCHEMBL16125089

> <PUBCHEM_EXT_DATASOURCE_URL>
https://www.surechembl.org/

> <PUBCHEM_EXT_SUBSTANCE_URL>
https://www.surechembl.org/chemical/SCHEMBL16125089

> <PUBCHEM_CID_ASSOCIATIONS>
117612814  1

> <PUBCHEM_COORDINATE_TYPE>
1
3

$$$$
