310946682
  -OEChem-07211613022D

 27 28  0     0  0  0  0  0  0999 V2000
   -0.0112    0.0767    0.0000 F   0  0  0  0  0  0  0  0  0  0  0  0
   -1.4544    2.5846    0.0000 F   0  0  0  0  0  0  0  0  0  0  0  0
    1.4218    2.5948    0.0000 O   0  0  0  0  0  0  0  0  0  0  0  0
   -0.9223   -2.6152    0.0000 O   0  0  0  0  0  0  0  0  0  0  0  0
    0.2652   -1.7760    0.0000 O   0  0  0  0  0  0  0  0  0  0  0  0
   -1.4647    0.0767    0.0000 N   0  0  0  0  0  0  0  0  0  0  0  0
   -0.7994   -0.4145    0.0000 N   0  0  0  0  0  0  0  0  0  0  0  0
    3.4812    2.3283    0.0000 N   0  0  0  0  0  0  0  0  0  0  0  0
    3.4493    1.4195    0.0000 N   0  3  0  0  0  0  0  0  0  0  0  0
    3.4174    0.5107    0.0000 N   0  5  0  0  0  0  0  0  0  0  0  0
   -0.7585    1.3563    0.0000 C   0  0  0  0  0  0  0  0  0  0  0  0
   -0.0112    0.9468    0.0000 C   0  0  0  0  0  0  0  0  0  0  0  0
   -0.7482    2.1956    0.0000 C   0  0  0  0  0  0  0  0  0  0  0  0
   -2.1506   -0.3838    0.0000 C   0  0  0  0  0  0  0  0  0  0  0  0
   -1.9151   -1.1720    0.0000 C   0  0  0  0  0  0  0  0  0  0  0  0
    0.6951    2.1854    0.0000 C   0  0  0  0  0  0  0  0  0  0  0  0
   -1.4544    0.9468    0.0000 C   0  0  0  0  0  0  0  0  0  0  0  0
    0.6951    1.3460    0.0000 C   0  0  0  0  0  0  0  0  0  0  0  0
   -0.0214    2.5743    0.0000 C   0  0  0  0  0  0  0  0  0  0  0  0
   -1.0553   -1.1822    0.0000 C   0  0  0  0  0  0  0  0  0  0  0  0
   -2.9592   -0.2200    0.0000 C   0  0  0  0  0  0  0  0  0  0  0  0
   -2.4371   -1.7862    0.0000 C   0  0  0  0  0  0  0  0  0  0  0  0
   -0.5742   -1.8169    0.0000 C   0  0  0  0  0  0  0  0  0  0  0  0
   -3.4812   -0.8138    0.0000 C   0  0  0  0  0  0  0  0  0  0  0  0
   -3.2662   -1.6326    0.0000 C   0  0  0  0  0  0  0  0  0  0  0  0
    2.1384    2.2161    0.0000 C   0  0  0  0  0  0  0  0  0  0  0  0
    2.8754    2.6152    0.0000 C   0  0  0  0  0  0  0  0  0  0  0  0
  1 12  1  0  0  0  0
  2 13  1  0  0  0  0
  3 16  1  0  0  0  0
  3 26  1  0  0  0  0
  4 23  2  0  0  0  0
  5 23  1  0  0  0  0
  6 14  1  0  0  0  0
  6 17  1  0  0  0  0
  7 20  2  3  0  0  0
  8  9  2  0  0  0  0
  8 27  1  0  0  0  0
  9 10  2  0  0  0  0
 11 12  2  0  0  0  0
 11 13  1  0  0  0  0
 11 17  1  0  0  0  0
 12 18  1  0  0  0  0
 13 19  2  0  0  0  0
 14 15  2  0  0  0  0
 14 21  1  0  0  0  0
 15 20  1  0  0  0  0
 15 22  1  0  0  0  0
 16 18  2  0  0  0  0
 16 19  1  0  0  0  0
 20 23  1  0  0  0  0
 21 24  2  0  0  0  0
 22 25  2  0  0  0  0
 24 25  1  0  0  0  0
 26 27  1  0  0  0  0
M  CHG  2   9   1  10  -1
M  END
> <PUBCHEM_COMPOUND_ID_TYPE>
0

> <PUBCHEM_TOTAL_CHARGE>
0

> <PUBCHEM_SUBSTANCE_ID>
310946682

> <PUBCHEM_SUBSTANCE_VERSION>
1

> <PUBCHEM_EXT_DATASOURCE_NAME>
4488

> <PUBCHEM_EXT_DATASOURCE_REGID>
SCHEMBL16124804

> <PUBCHEM_SUBSTANCE_COMMENT>
InChI=1S/C17H15F2N5O3/c18-13-7-10(27-6-5-23-24-21)8-14(19)12(13)9-22-15-4-2-1-3-11(15)16(20)17(25)26/h1-4,7-8,20,22H,5-6,9H2,(H,25,26)
InChIKey=IIDNBLMTRNGMKE-UHFFFAOYSA-N

> <PUBCHEM_SUBSTANCE_SYNONYM>
SCHEMBL16124804

> <PUBCHEM_XREF_EXT_ID>
SCHEMBL16124804

> <PUBCHEM_EXT_DATASOURCE_URL>
https://www.surechembl.org/

> <PUBCHEM_EXT_SUBSTANCE_URL>
https://www.surechembl.org/chemical/SCHEMBL16124804

> <PUBCHEM_CID_ASSOCIATIONS>
117612579  1

> <PUBCHEM_COORDINATE_TYPE>
1
3

$$$$
