310949807
  -OEChem-07211613022D

 19 20  0     0  0  0  0  0  0999 V2000
   -0.2241   -0.7378    0.0000 O   0  0  0  0  0  0  0  0  0  0  0  0
    3.5031    0.0054    0.0000 O   0  0  0  0  0  0  0  0  0  0  0  0
    3.5141   -1.4264    0.0000 O   0  0  0  0  0  0  0  0  0  0  0  0
   -0.2350    0.6941    0.0000 N   0  0  0  0  0  0  0  0  0  0  0  0
   -2.6944   -0.7487    0.0000 N   0  0  0  0  0  0  0  0  0  0  0  0
   -0.6504   -0.0054    0.0000 C   0  0  0  0  0  0  0  0  0  0  0  0
    0.5957   -0.7050    0.0000 C   0  0  0  0  0  0  0  0  0  0  0  0
   -1.4811   -0.0054    0.0000 C   0  0  0  0  0  0  0  0  0  0  0  0
    2.2352   -0.6613    0.0000 C   0  0  0  0  0  0  0  0  0  0  0  0
    1.0001   -1.4155    0.0000 C   0  0  0  0  0  0  0  0  0  0  0  0
    1.0001    0.0164    0.0000 C   0  0  0  0  0  0  0  0  0  0  0  0
    1.8418   -1.3827    0.0000 C   0  0  0  0  0  0  0  0  0  0  0  0
    1.8199    0.0492    0.0000 C   0  0  0  0  0  0  0  0  0  0  0  0
   -1.8855    0.6941    0.0000 C   0  0  0  0  0  0  0  0  0  0  0  0
    3.0878   -0.6941    0.0000 C   0  0  0  0  0  0  0  0  0  0  0  0
   -1.8855   -0.7159    0.0000 C   0  0  0  0  0  0  0  0  0  0  0  0
   -0.6504    1.4155    0.0000 C   0  0  0  0  0  0  0  0  0  0  0  0
   -1.4811    1.4264    0.0000 C   0  0  0  0  0  0  0  0  0  0  0  0
   -3.5141   -0.0382    0.0000 C   0  0  0  0  0  0  0  0  0  0  0  0
  1  6  1  0  0  0  0
  1  7  1  0  0  0  0
  2 15  2  0  0  0  0
  3 15  1  0  0  0  0
  4  6  1  0  0  0  0
  4 17  2  0  0  0  0
  5 16  1  0  0  0  0
  5 19  1  0  0  0  0
  6  8  2  0  0  0  0
  7 10  2  0  0  0  0
  7 11  1  0  0  0  0
  8 14  1  0  0  0  0
  8 16  1  0  0  0  0
  9 12  2  0  0  0  0
  9 13  1  0  0  0  0
  9 15  1  0  0  0  0
 10 12  1  0  0  0  0
 11 13  2  0  0  0  0
 14 18  2  0  0  0  0
 17 18  1  0  0  0  0
M  END
> <PUBCHEM_COMPOUND_ID_TYPE>
0

> <PUBCHEM_TOTAL_CHARGE>
0

> <PUBCHEM_SUBSTANCE_ID>
310949807

> <PUBCHEM_SUBSTANCE_VERSION>
1

> <PUBCHEM_EXT_DATASOURCE_NAME>
4488

> <PUBCHEM_EXT_DATASOURCE_REGID>
SCHEMBL16128005

> <PUBCHEM_SUBSTANCE_COMMENT>
InChI=1S/C14H14N2O3/c1-15-9-11-3-2-8-16-13(11)19-12-6-4-10(5-7-12)14(17)18/h2-8,15H,9H2,1H3,(H,17,18)
InChIKey=FKWHHXZNCQKLJG-UHFFFAOYSA-N

> <PUBCHEM_SUBSTANCE_SYNONYM>
SCHEMBL16128005

> <PUBCHEM_XREF_EXT_ID>
SCHEMBL16128005

> <PUBCHEM_EXT_DATASOURCE_URL>
https://www.surechembl.org/

> <PUBCHEM_EXT_SUBSTANCE_URL>
https://www.surechembl.org/chemical/SCHEMBL16128005

> <PUBCHEM_CID_ASSOCIATIONS>
117615128  1

> <PUBCHEM_COORDINATE_TYPE>
1
3

$$$$
