310942973
  -OEChem-07211613022D

 31 35  0     1  0  0  0  0  0999 V2000
   -2.9971   -1.8051    0.0000 O   0  0  0  0  0  0  0  0  0  0  0  0
   -1.4079    2.6689    0.0000 O   0  0  0  0  0  0  0  0  0  0  0  0
   -1.4252    0.4923    0.0000 N   0  0  0  0  0  0  0  0  0  0  0  0
   -0.9588   -0.1986    0.0000 N   0  0  0  0  0  0  0  0  0  0  0  0
   -1.2352   -1.6497    0.0000 N   0  0  0  0  0  0  0  0  0  0  0  0
   -3.6708   -0.5268    0.0000 N   0  0  0  0  0  0  0  0  0  0  0  0
    2.2715   -1.4770    0.0000 N   0  0  3  0  0  0  0  0  0  0  0  0
    0.7341    0.1469    0.0000 N   0  0  0  0  0  0  0  0  0  0  0  0
   -2.2543   -0.5614    0.0000 C   0  0  0  0  0  0  0  0  0  0  0  0
   -2.2198    0.2504    0.0000 C   0  0  0  0  0  0  0  0  0  0  0  0
   -1.4770   -0.8551    0.0000 C   0  0  0  0  0  0  0  0  0  0  0  0
   -1.1488    1.2870    0.0000 C   0  0  3  0  0  0  0  0  0  0  0  0
   -2.9626   -0.9588    0.0000 C   0  0  0  0  0  0  0  0  0  0  0  0
   -2.9453    0.6823    0.0000 C   0  0  0  0  0  0  0  0  0  0  0  0
   -0.3541    1.4079    0.0000 C   0  0  3  0  0  0  0  0  0  0  0  0
   -0.4405   -1.8397    0.0000 C   0  0  0  0  0  0  0  0  0  0  0  0
    0.9242   -1.4424    0.0000 C   0  0  0  0  0  0  0  0  0  0  0  0
   -3.6363    0.3023    0.0000 C   0  0  0  0  0  0  0  0  0  0  0  0
   -1.6843    1.8916    0.0000 C   0  0  0  0  0  0  0  0  0  0  0  0
    1.1488   -2.2198    0.0000 C   0  0  0  0  0  0  0  0  0  0  0  0
    0.1295   -1.2524    0.0000 C   0  0  0  0  0  0  0  0  0  0  0  0
   -0.1986   -2.6344    0.0000 C   0  0  0  0  0  0  0  0  0  0  0  0
    1.5979   -0.9760    0.0000 C   0  0  0  0  0  0  0  0  0  0  0  0
    0.5959   -2.8244    0.0000 C   0  0  0  0  0  0  0  0  0  0  0  0
   -0.0604    2.1852    0.0000 C   0  0  0  0  0  0  0  0  0  0  0  0
    1.9952   -2.2543    0.0000 C   0  0  0  0  0  0  0  0  0  0  0  0
    0.1814    0.7687    0.0000 C   0  0  0  0  0  0  0  0  0  0  0  0
   -0.5959    2.8244    0.0000 C   0  0  0  0  0  0  0  0  0  0  0  0
    3.0317   -1.2352    0.0000 C   0  0  0  0  0  0  0  0  0  0  0  0
    3.6708   -1.8225    0.0000 C   0  0  0  0  0  0  0  0  0  0  0  0
    3.2390   -0.4232    0.0000 C   0  0  0  0  0  0  0  0  0  0  0  0
  1 13  2  0  0  0  0
  2 19  1  0  0  0  0
  2 28  1  0  0  0  0
  3  4  1  0  0  0  0
  3 10  1  0  0  0  0
 12  3  1  1  0  0  0
  4 11  2  0  0  0  0
  5 11  1  0  0  0  0
  5 16  1  0  0  0  0
  6 13  1  0  0  0  0
  6 18  1  0  0  0  0
  7 23  1  0  0  0  0
  7 26  1  0  0  0  0
  7 29  1  0  0  0  0
  8 27  3  0  0  0  0
  9 10  2  0  0  0  0
  9 11  1  0  0  0  0
  9 13  1  0  0  0  0
 10 14  1  0  0  0  0
 12 15  1  0  0  0  0
 12 19  1  0  0  0  0
 14 18  2  0  0  0  0
 15 25  1  0  0  0  0
 15 27  1  6  0  0  0
 16 21  1  0  0  0  0
 16 22  2  0  0  0  0
 17 20  1  0  0  0  0
 17 21  2  0  0  0  0
 17 23  1  0  0  0  0
 20 24  2  0  0  0  0
 20 26  1  0  0  0  0
 22 24  1  0  0  0  0
 25 28  1  0  0  0  0
 29 30  1  0  0  0  0
 29 31  1  0  0  0  0
M  END
> <PUBCHEM_COMPOUND_ID_TYPE>
0

> <PUBCHEM_TOTAL_CHARGE>
0

> <PUBCHEM_SUBSTANCE_ID>
310942973

> <PUBCHEM_SUBSTANCE_VERSION>
1

> <PUBCHEM_EXT_DATASOURCE_NAME>
4488

> <PUBCHEM_EXT_DATASOURCE_REGID>
SCHEMBL16121032

> <PUBCHEM_SUBSTANCE_COMMENT>
InChI=1S/C23H26N6O2/c1-14(2)28-11-16-3-4-18(9-17(16)12-28)26-22-21-19(5-7-25-23(21)30)29(27-22)20-13-31-8-6-15(20)10-24/h3-5,7,9,14-15,20H,6,8,11-13H2,1-2H3,(H,25,30)(H,26,27)/t15-,20+/m1/s1
InChIKey=JTFSZXFCOKZWOL-QRWLVFNGSA-N

> <PUBCHEM_SUBSTANCE_SYNONYM>
SCHEMBL16121032

> <PUBCHEM_XREF_EXT_ID>
SCHEMBL16121032

> <PUBCHEM_EXT_DATASOURCE_URL>
https://www.surechembl.org/

> <PUBCHEM_EXT_SUBSTANCE_URL>
https://www.surechembl.org/chemical/SCHEMBL16121032

> <PUBCHEM_CID_ASSOCIATIONS>
117609435  1

> <PUBCHEM_COORDINATE_TYPE>
1
3

> <PUBCHEM_BONDANNOTATIONS>
15  27  6
12  3  5

$$$$
