310949271
  -OEChem-07211613022D

 51 60  0     0  0  0  0  0  0999 V2000
    1.4411   -0.9965    0.0000 N   0  0  0  0  0  0  0  0  0  0  0  0
    0.0072    1.4983    0.0000 N   0  0  0  0  0  0  0  0  0  0  0  0
   -1.4411   -0.9822    0.0000 N   0  0  0  0  0  0  0  0  0  0  0  0
    3.2334    0.2940    0.0000 N   0  0  0  0  0  0  0  0  0  0  0  0
   -2.0289    2.4304    0.0000 N   0  0  0  0  0  0  0  0  0  0  0  0
   -1.2403   -3.2190    0.0000 N   0  0  0  0  0  0  0  0  0  0  0  0
   -0.0072   -2.6311    0.0000 N   0  0  0  0  0  0  0  0  0  0  0  0
    2.1580    1.0109    0.0000 N   0  0  0  0  0  0  0  0  0  0  0  0
   -2.1293    1.0109    0.0000 N   0  0  0  0  0  0  0  0  0  0  0  0
   -0.0072    0.6811    0.0000 C   0  0  0  0  0  0  0  0  0  0  0  0
   -0.7241   -0.5520    0.0000 C   0  0  0  0  0  0  0  0  0  0  0  0
    0.7097   -0.5663    0.0000 C   0  0  0  0  0  0  0  0  0  0  0  0
   -0.6954    0.2796    0.0000 C   0  0  0  0  0  0  0  0  0  0  0  0
    0.7097    0.2796    0.0000 C   0  0  0  0  0  0  0  0  0  0  0  0
   -0.0072   -0.9679    0.0000 C   0  0  0  0  0  0  0  0  0  0  0  0
    2.1866   -0.6524    0.0000 C   0  0  0  0  0  0  0  0  0  0  0  0
   -0.6811    2.0002    0.0000 C   0  0  0  0  0  0  0  0  0  0  0  0
   -1.5271   -1.7995    0.0000 C   0  0  0  0  0  0  0  0  0  0  0  0
    1.5271   -1.7851    0.0000 C   0  0  0  0  0  0  0  0  0  0  0  0
    0.6668    2.0002    0.0000 C   0  0  0  0  0  0  0  0  0  0  0  0
   -2.2010   -0.6237    0.0000 C   0  0  0  0  0  0  0  0  0  0  0  0
    2.7459   -1.2403    0.0000 C   0  0  0  0  0  0  0  0  0  0  0  0
   -0.3800    2.7745    0.0000 C   0  0  0  0  0  0  0  0  0  0  0  0
   -2.3443   -1.9572    0.0000 C   0  0  0  0  0  0  0  0  0  0  0  0
    2.3300   -1.9859    0.0000 C   0  0  0  0  0  0  0  0  0  0  0  0
    0.4517    2.7745    0.0000 C   0  0  0  0  0  0  0  0  0  0  0  0
   -2.7602   -1.2403    0.0000 C   0  0  0  0  0  0  0  0  0  0  0  0
   -1.4267    0.6668    0.0000 C   0  0  0  0  0  0  0  0  0  0  0  0
    1.4411    0.6668    0.0000 C   0  0  0  0  0  0  0  0  0  0  0  0
   -0.0072   -1.8282    0.0000 C   0  0  0  0  0  0  0  0  0  0  0  0
    2.4591    0.1219    0.0000 C   0  0  0  0  0  0  0  0  0  0  0  0
   -1.4840    1.8425    0.0000 C   0  0  0  0  0  0  0  0  0  0  0  0
   -0.9965   -2.3874    0.0000 C   0  0  0  0  0  0  0  0  0  0  0  0
    0.9822   -2.4160    0.0000 C   0  0  0  0  0  0  0  0  0  0  0  0
    1.4697    1.8282    0.0000 C   0  0  0  0  0  0  0  0  0  0  0  0
   -2.4591    0.1506    0.0000 C   0  0  0  0  0  0  0  0  0  0  0  0
    3.5201   -1.0826    0.0000 C   0  0  0  0  0  0  0  0  0  0  0  0
   -0.9248    3.3624    0.0000 C   0  0  0  0  0  0  0  0  0  0  0  0
   -2.6025   -2.7602    0.0000 C   0  0  0  0  0  0  0  0  0  0  0  0
    2.5881   -2.7745    0.0000 C   0  0  0  0  0  0  0  0  0  0  0  0
    0.9965    3.3624    0.0000 C   0  0  0  0  0  0  0  0  0  0  0  0
   -3.5631   -1.0539    0.0000 C   0  0  0  0  0  0  0  0  0  0  0  0
    1.2403   -3.2047    0.0000 C   0  0  0  0  0  0  0  0  0  0  0  0
    2.0289    2.4160    0.0000 C   0  0  0  0  0  0  0  0  0  0  0  0
   -3.2477    0.3369    0.0000 C   0  0  0  0  0  0  0  0  0  0  0  0
    3.8068   -0.3083    0.0000 C   0  0  0  0  0  0  0  0  0  0  0  0
   -1.7708    3.2190    0.0000 C   0  0  0  0  0  0  0  0  0  0  0  0
   -2.0719   -3.3480    0.0000 C   0  0  0  0  0  0  0  0  0  0  0  0
    2.0289   -3.3624    0.0000 C   0  0  0  0  0  0  0  0  0  0  0  0
    1.7565    3.2047    0.0000 C   0  0  0  0  0  0  0  0  0  0  0  0
   -3.8068   -0.2796    0.0000 C   0  0  0  0  0  0  0  0  0  0  0  0
  1 12  1  0  0  0  0
  1 16  1  0  0  0  0
  1 19  1  0  0  0  0
  2 10  1  0  0  0  0
  2 17  1  0  0  0  0
  2 20  1  0  0  0  0
  3 11  1  0  0  0  0
  3 18  1  0  0  0  0
  3 21  1  0  0  0  0
  4 31  2  0  0  0  0
  4 46  1  0  0  0  0
  5 32  2  0  0  0  0
  5 47  1  0  0  0  0
  6 33  2  0  0  0  0
  6 48  1  0  0  0  0
  7 30  3  0  0  0  0
  8 29  3  0  0  0  0
  9 28  3  0  0  0  0
 10 13  1  0  0  0  0
 10 14  2  0  0  0  0
 11 13  2  0  0  0  0
 11 15  1  0  0  0  0
 12 14  1  0  0  0  0
 12 15  2  0  0  0  0
 13 28  1  0  0  0  0
 14 29  1  0  0  0  0
 15 30  1  0  0  0  0
 16 22  2  0  0  0  0
 16 31  1  0  0  0  0
 17 23  2  0  0  0  0
 17 32  1  0  0  0  0
 18 24  2  0  0  0  0
 18 33  1  0  0  0  0
 19 25  2  0  0  0  0
 19 34  1  0  0  0  0
 20 26  2  0  0  0  0
 20 35  1  0  0  0  0
 21 27  2  0  0  0  0
 21 36  1  0  0  0  0
 22 25  1  0  0  0  0
 22 37  1  0  0  0  0
 23 26  1  0  0  0  0
 23 38  1  0  0  0  0
 24 27  1  0  0  0  0
 24 39  1  0  0  0  0
 25 40  1  0  0  0  0
 26 41  1  0  0  0  0
 27 42  1  0  0  0  0
 34 43  2  0  0  0  0
 35 44  2  0  0  0  0
 36 45  2  0  0  0  0
 37 46  2  0  0  0  0
 38 47  2  0  0  0  0
 39 48  2  0  0  0  0
 40 49  2  0  0  0  0
 41 50  2  0  0  0  0
 42 51  2  0  0  0  0
 43 49  1  0  0  0  0
 44 50  1  0  0  0  0
 45 51  1  0  0  0  0
M  END
> <PUBCHEM_COMPOUND_ID_TYPE>
0

> <PUBCHEM_TOTAL_CHARGE>
0

> <PUBCHEM_SUBSTANCE_ID>
310949271

> <PUBCHEM_SUBSTANCE_VERSION>
1

> <PUBCHEM_EXT_DATASOURCE_NAME>
4488

> <PUBCHEM_EXT_DATASOURCE_REGID>
SCHEMBL16127461

> <PUBCHEM_SUBSTANCE_COMMENT>
InChI=1S/C42H21N9/c43-19-31-40(49-34-10-4-1-7-25(34)28-13-16-46-22-37(28)49)32(20-44)42(51-36-12-6-3-9-27(36)30-15-18-48-24-39(30)51)33(21-45)41(31)50-35-11-5-2-8-26(35)29-14-17-47-23-38(29)50/h1-18,22-24H
InChIKey=SVWSDSGRLVMKGN-UHFFFAOYSA-N

> <PUBCHEM_SUBSTANCE_SYNONYM>
SCHEMBL16127461

> <PUBCHEM_XREF_EXT_ID>
SCHEMBL16127461

> <PUBCHEM_EXT_DATASOURCE_URL>
https://www.surechembl.org/

> <PUBCHEM_EXT_SUBSTANCE_URL>
https://www.surechembl.org/chemical/SCHEMBL16127461

> <PUBCHEM_CID_ASSOCIATIONS>
117614757  1

> <PUBCHEM_COORDINATE_TYPE>
1
3

$$$$
