310930861
  -OEChem-07211613022D

 21 23  0     0  0  0  0  0  0999 V2000
    2.3029   -5.8301    0.0000 O   0  0  0  0  0  0  0  0  0  0  0  0
    1.5741   -3.7604    0.0000 O   0  0  0  0  0  0  0  0  0  0  0  0
    5.1888   -0.8454    0.0000 O   0  0  0  0  0  0  0  0  0  0  0  0
    3.0317   -4.5766    0.0000 C   0  0  0  0  0  0  0  0  0  0  0  0
    2.3029   -4.9847    0.0000 C   0  0  0  0  0  0  0  0  0  0  0  0
    1.5741   -4.5766    0.0000 C   0  0  0  0  0  0  0  0  0  0  0  0
    0.8454   -4.9847    0.0000 C   0  0  0  0  0  0  0  0  0  0  0  0
    3.7313   -3.3232    0.0000 C   0  0  0  0  0  0  0  0  0  0  0  0
    3.7313   -2.5069    0.0000 C   0  0  0  0  0  0  0  0  0  0  0  0
    3.0317   -3.7604    0.0000 C   0  0  0  0  0  0  0  0  0  0  0  0
    0.4373   -5.7135    0.0000 C   0  0  0  0  0  0  0  0  0  0  0  0
    0.0000   -5.0139    0.0000 C   0  0  0  0  0  0  0  0  0  0  0  0
    3.7313   -4.9847    0.0000 C   0  0  0  0  0  0  0  0  0  0  0  0
    4.4600   -3.7604    0.0000 C   0  0  0  0  0  0  0  0  0  0  0  0
    4.4600   -2.0697    0.0000 C   0  0  0  0  0  0  0  0  0  0  0  0
    4.4600   -4.5766    0.0000 C   0  0  0  0  0  0  0  0  0  0  0  0
    3.0317   -2.0697    0.0000 C   0  0  0  0  0  0  0  0  0  0  0  0
    4.4600   -1.2535    0.0000 C   0  0  0  0  0  0  0  0  0  0  0  0
    3.0317   -1.2535    0.0000 C   0  0  0  0  0  0  0  0  0  0  0  0
    3.7313   -0.8454    0.0000 C   0  0  0  0  0  0  0  0  0  0  0  0
    5.1888    0.0000    0.0000 C   0  0  0  0  0  0  0  0  0  0  0  0
  1  5  2  0  0  0  0
  2  6  2  0  0  0  0
  3 18  1  0  0  0  0
  3 21  1  0  0  0  0
  4  5  1  0  0  0  0
  4 10  2  0  0  0  0
  4 13  1  0  0  0  0
  5  6  1  0  0  0  0
  6  7  1  0  0  0  0
  7 11  1  0  0  0  0
  7 12  1  0  0  0  0
  8  9  1  0  0  0  0
  8 10  1  0  0  0  0
  8 14  2  0  0  0  0
  9 15  1  0  0  0  0
  9 17  2  0  0  0  0
 11 12  1  0  0  0  0
 13 16  2  0  0  0  0
 14 16  1  0  0  0  0
 15 18  2  0  0  0  0
 17 19  1  0  0  0  0
 18 20  1  0  0  0  0
 19 20  2  0  0  0  0
M  END
> <PUBCHEM_COMPOUND_ID_TYPE>
0

> <PUBCHEM_TOTAL_CHARGE>
0

> <PUBCHEM_SUBSTANCE_ID>
310930861

> <PUBCHEM_SUBSTANCE_VERSION>
1

> <PUBCHEM_EXT_DATASOURCE_NAME>
4488

> <PUBCHEM_EXT_DATASOURCE_REGID>
SCHEMBL16108159

> <PUBCHEM_SUBSTANCE_COMMENT>
InChI=1S/C18H16O3/c1-21-16-7-3-5-14(11-16)13-4-2-6-15(10-13)18(20)17(19)12-8-9-12/h2-7,10-12H,8-9H2,1H3
InChIKey=FFNCVZFLYCIHGD-UHFFFAOYSA-N

> <PUBCHEM_SUBSTANCE_SYNONYM>
SCHEMBL16108159

> <PUBCHEM_XREF_EXT_ID>
SCHEMBL16108159

> <PUBCHEM_EXT_DATASOURCE_URL>
https://www.surechembl.org/

> <PUBCHEM_EXT_SUBSTANCE_URL>
https://www.surechembl.org/chemical/SCHEMBL16108159

> <PUBCHEM_CID_ASSOCIATIONS>
117599844  1

> <PUBCHEM_COORDINATE_TYPE>
1
3

$$$$
