310941377
  -OEChem-07211613022D

 22 22  0     1  0  0  0  0  0999 V2000
    0.8725   -2.0547    0.0000 O   0  0  0  0  0  0  0  0  0  0  0  0
    0.2765   -1.0519    0.0000 O   0  0  0  0  0  0  0  0  0  0  0  0
    1.7340   -0.1975    0.0000 O   0  0  0  0  0  0  0  0  0  0  0  0
    0.3676   -2.8851    0.0000 O   0  0  0  0  0  0  0  0  0  0  0  0
   -1.1811   -0.2143    0.0000 N   0  0  0  0  0  0  0  0  0  0  0  0
    1.0136    0.2046    0.0000 N   0  0  0  0  0  0  0  0  0  0  0  0
   -0.4440    0.2214    0.0000 C   0  0  3  0  0  0  0  0  0  0  0  0
    0.2765   -0.1640    0.0000 C   0  0  0  0  0  0  0  0  0  0  0  0
   -1.1979    1.4946    0.0000 C   0  0  0  0  0  0  0  0  0  0  0  0
   -0.4440    1.0590    0.0000 C   0  0  0  0  0  0  0  0  0  0  0  0
   -1.2648    2.3155    0.0000 C   0  0  0  0  0  0  0  0  0  0  0  0
    0.3676   -2.3464    0.0000 C   0  0  0  0  0  0  0  0  0  0  0  0
   -1.9350    1.1428    0.0000 C   0  0  0  0  0  0  0  0  0  0  0  0
    0.8837   -1.4936    0.0000 C   0  0  0  0  0  0  0  0  0  0  0  0
   -2.0858    2.4830    0.0000 C   0  0  0  0  0  0  0  0  0  0  0  0
   -2.4879    1.7626    0.0000 C   0  0  0  0  0  0  0  0  0  0  0  0
   -0.6450    2.8851    0.0000 C   0  0  0  0  0  0  0  0  0  0  0  0
    1.0136    1.0757    0.0000 C   0  0  0  0  0  0  0  0  0  0  0  0
    1.3888   -1.4711    0.0000 C   0  0  0  0  0  0  0  0  0  0  0  0
    0.3676   -1.4936    0.0000 C   0  0  0  0  0  0  0  0  0  0  0  0
    0.8725   -0.9437    0.0000 C   0  0  0  0  0  0  0  0  0  0  0  0
    2.4879    0.2380    0.0000 C   0  0  0  0  0  0  0  0  0  0  0  0
  1 12  1  0  0  0  0
  1 14  1  0  0  0  0
  2  8  2  0  0  0  0
  3  6  1  0  0  0  0
  3 22  1  0  0  0  0
  4 12  2  0  0  0  0
  7  5  1  1  0  0  0
  5 12  1  0  0  0  0
  6  8  1  0  0  0  0
  6 18  1  0  0  0  0
  7  8  1  0  0  0  0
  7 10  1  0  0  0  0
  9 10  1  0  0  0  0
  9 11  2  0  0  0  0
  9 13  1  0  0  0  0
 11 15  1  0  0  0  0
 11 17  1  0  0  0  0
 13 16  1  0  0  0  0
 14 19  1  0  0  0  0
 14 20  1  0  0  0  0
 14 21  1  0  0  0  0
 15 16  1  0  0  0  0
M  END
> <PUBCHEM_COMPOUND_ID_TYPE>
0

> <PUBCHEM_TOTAL_CHARGE>
0

> <PUBCHEM_SUBSTANCE_ID>
310941377

> <PUBCHEM_SUBSTANCE_VERSION>
1

> <PUBCHEM_EXT_DATASOURCE_NAME>
4488

> <PUBCHEM_EXT_DATASOURCE_REGID>
SCHEMBL16119337

> <PUBCHEM_SUBSTANCE_COMMENT>
InChI=1S/C16H28N2O4/c1-11-8-7-9-12(11)10-13(14(19)18(5)21-6)17-15(20)22-16(2,3)4/h13H,7-10H2,1-6H3,(H,17,20)/t13-/m0/s1
InChIKey=JEKQLURGXIEACQ-ZDUSSCGKSA-N

> <PUBCHEM_SUBSTANCE_SYNONYM>
SCHEMBL16119337

> <PUBCHEM_XREF_EXT_ID>
SCHEMBL16119337

> <PUBCHEM_EXT_DATASOURCE_URL>
https://www.surechembl.org/

> <PUBCHEM_EXT_SUBSTANCE_URL>
https://www.surechembl.org/chemical/SCHEMBL16119337

> <PUBCHEM_CID_ASSOCIATIONS>
117608218  1

> <PUBCHEM_COORDINATE_TYPE>
1
3

> <PUBCHEM_BONDANNOTATIONS>
7  5  5

$$$$
