310942505
  -OEChem-07211613022D

 19 19  0     1  0  0  0  0  0999 V2000
    0.4378   -0.4378    0.0000 O   0  0  0  0  0  0  0  0  0  0  0  0
   -0.8534   -0.2894    0.0000 O   0  0  0  0  0  0  0  0  0  0  0  0
    0.0668    2.9016    0.0000 O   0  0  0  0  0  0  0  0  0  0  0  0
   -0.1707    0.7495    0.0000 N   0  0  0  0  0  0  0  0  0  0  0  0
   -0.9424    1.9368    0.0000 C   0  0  3  0  0  0  0  0  0  0  0  0
   -0.1410    2.1594    0.0000 C   0  0  3  0  0  0  0  0  0  0  0  0
   -0.1261    0.0074    0.0000 C   0  0  0  0  0  0  0  0  0  0  0  0
    0.9870   -1.6103    0.0000 C   0  0  0  0  0  0  0  0  0  0  0  0
   -0.9573    1.0909    0.0000 C   0  0  0  0  0  0  0  0  0  0  0  0
    0.4527   -1.2096    0.0000 C   0  0  0  0  0  0  0  0  0  0  0  0
   -1.6400    2.4117    0.0000 C   0  0  0  0  0  0  0  0  0  0  0  0
    0.9127   -2.4266    0.0000 C   0  0  0  0  0  0  0  0  0  0  0  0
    1.7439   -1.2689    0.0000 C   0  0  0  0  0  0  0  0  0  0  0  0
    0.3191    1.5361    0.0000 C   0  0  0  0  0  0  0  0  0  0  0  0
    1.5658   -2.9016    0.0000 C   0  0  0  0  0  0  0  0  0  0  0  0
    2.4266   -1.7588    0.0000 C   0  0  0  0  0  0  0  0  0  0  0  0
    2.3376   -2.5602    0.0000 C   0  0  0  0  0  0  0  0  0  0  0  0
   -2.4266    2.1150    0.0000 C   0  0  0  0  0  0  0  0  0  0  0  0
    0.0519    1.0760    0.0000 C   0  0  0  0  0  0  0  0  0  0  0  0
  1  7  1  0  0  0  0
  1 10  1  0  0  0  0
  2  7  2  0  0  0  0
  6  3  1  6  0  0  0
  4  7  1  0  0  0  0
  4  9  1  0  0  0  0
  5  6  1  0  0  0  0
  5  9  1  0  0  0  0
  5 11  1  1  0  0  0
  6 14  1  0  0  0  0
  8 10  1  0  0  0  0
  8 12  2  0  0  0  0
  8 13  1  0  0  0  0
 11 18  2  0  0  0  0
 12 15  1  0  0  0  0
 13 16  2  0  0  0  0
 14 19  1  0  0  0  0
 15 17  2  0  0  0  0
 16 17  1  0  0  0  0
M  END
> <PUBCHEM_COMPOUND_ID_TYPE>
0

> <PUBCHEM_TOTAL_CHARGE>
0

> <PUBCHEM_SUBSTANCE_ID>
310942505

> <PUBCHEM_SUBSTANCE_VERSION>
1

> <PUBCHEM_EXT_DATASOURCE_NAME>
4488

> <PUBCHEM_EXT_DATASOURCE_REGID>
SCHEMBL16120541

> <PUBCHEM_SUBSTANCE_COMMENT>
InChI=1S/C15H21NO3/c1-3-13(14(17)4-2)10-16-15(18)19-11-12-8-6-5-7-9-12/h3,5-9,13-14,17H,1,4,10-11H2,2H3,(H,16,18)/t13-,14-/m1/s1
InChIKey=OSBKWWXUANOAQC-ZIAGYGMSSA-N

> <PUBCHEM_SUBSTANCE_SYNONYM>
SCHEMBL16120541

> <PUBCHEM_XREF_EXT_ID>
SCHEMBL16120541

> <PUBCHEM_EXT_DATASOURCE_URL>
https://www.surechembl.org/

> <PUBCHEM_EXT_SUBSTANCE_URL>
https://www.surechembl.org/chemical/SCHEMBL16120541

> <PUBCHEM_CID_ASSOCIATIONS>
117609075  1

> <PUBCHEM_COORDINATE_TYPE>
1
3

> <PUBCHEM_BONDANNOTATIONS>
6  3  6
5  11  5

$$$$
