310928664
  -OEChem-07211613022D

 19 20  0     0  0  0  0  0  0999 V2000
    2.2914    0.4979    0.0000 O   0  0  0  0  0  0  0  0  0  0  0  0
    1.5769    1.7354    0.0000 O   0  0  0  0  0  0  0  0  0  0  0  0
    0.8624    0.4979    0.0000 N   0  0  0  0  0  0  0  0  0  0  0  0
   -0.8624   -0.4979    0.0000 N   0  0  0  0  0  0  0  0  0  0  0  0
   -0.1480   -0.0854    0.0000 C   0  0  0  0  0  0  0  0  0  0  0  0
    1.5769    0.9104    0.0000 C   0  0  0  0  0  0  0  0  0  0  0  0
    0.6489   -0.2990    0.0000 C   0  0  0  0  0  0  0  0  0  0  0  0
    0.0656    0.7115    0.0000 C   0  0  0  0  0  0  0  0  0  0  0  0
    3.0059    0.9104    0.0000 C   0  0  0  0  0  0  0  0  0  0  0  0
   -1.5769   -0.0854    0.0000 C   0  0  0  0  0  0  0  0  0  0  0  0
   -2.2914   -0.4979    0.0000 C   0  0  0  0  0  0  0  0  0  0  0  0
    3.0059    1.7354    0.0000 C   0  0  0  0  0  0  0  0  0  0  0  0
    3.7203    1.3229    0.0000 C   0  0  0  0  0  0  0  0  0  0  0  0
    3.7203    0.4979    0.0000 C   0  0  0  0  0  0  0  0  0  0  0  0
   -2.2914   -1.3229    0.0000 C   0  0  0  0  0  0  0  0  0  0  0  0
   -3.0059   -0.0854    0.0000 C   0  0  0  0  0  0  0  0  0  0  0  0
   -3.0059   -1.7354    0.0000 C   0  0  0  0  0  0  0  0  0  0  0  0
   -3.7203   -0.4979    0.0000 C   0  0  0  0  0  0  0  0  0  0  0  0
   -3.7203   -1.3229    0.0000 C   0  0  0  0  0  0  0  0  0  0  0  0
  1  6  1  0  0  0  0
  1  9  1  0  0  0  0
  2  6  2  0  0  0  0
  3  6  1  0  0  0  0
  3  7  1  0  0  0  0
  3  8  1  0  0  0  0
  4  5  1  0  0  0  0
  4 10  1  0  0  0  0
  5  7  1  0  0  0  0
  5  8  1  0  0  0  0
  9 12  1  0  0  0  0
  9 13  1  0  0  0  0
  9 14  1  0  0  0  0
 10 11  1  0  0  0  0
 11 15  2  0  0  0  0
 11 16  1  0  0  0  0
 15 17  1  0  0  0  0
 16 18  2  0  0  0  0
 17 19  2  0  0  0  0
 18 19  1  0  0  0  0
M  END
> <PUBCHEM_COMPOUND_ID_TYPE>
0

> <PUBCHEM_TOTAL_CHARGE>
0

> <PUBCHEM_SUBSTANCE_ID>
310928664

> <PUBCHEM_SUBSTANCE_VERSION>
1

> <PUBCHEM_EXT_DATASOURCE_NAME>
11752

> <PUBCHEM_EXT_DATASOURCE_REGID>
BD254762

> <PUBCHEM_SUBSTANCE_SYNONYM>
939760-33-5
tert-Butyl 3-(benzylamino)azetidine-1-carboxylate

> <PUBCHEM_GENERIC_REGISTRY_NAME>
939760-33-5

> <PUBCHEM_XREF_EXT_ID>
BD254762

> <PUBCHEM_EXT_DATASOURCE_URL>
http://www.bidepharmatech.com/en/index.html

> <PUBCHEM_EXT_SUBSTANCE_URL>
http://www.bidepharmatech.com/en/goodsview_goodscode_BD254762.html

> <PUBCHEM_CID_ASSOCIATIONS>
16244608  1

> <PUBCHEM_COORDINATE_TYPE>
1
3

$$$$
