310929106
  -OEChem-07211613022D

 58 63  0     0  0  0  0  0  0999 V2000
    4.2868   -4.5375    0.0000 S   0  0  0  0  0  0  0  0  0  0  0  0
    0.7144    1.6500    0.0000 O   0  0  0  0  0  0  0  0  0  0  0  0
    2.1434   -3.3000    0.0000 O   0  0  0  0  0  0  0  0  0  0  0  0
    1.4290   -2.8875    0.0000 O   0  0  0  0  0  0  0  0  0  0  0  0
    3.8743   -5.2520    0.0000 O   0  0  0  0  0  0  0  0  0  0  0  0
    4.6993   -3.8230    0.0000 O   0  0  0  0  0  0  0  0  0  0  0  0
    6.4302    0.8250    0.0000 O   0  0  0  0  0  0  0  0  0  0  0  0
   10.7170    0.8250    0.0000 O   0  0  0  0  0  0  0  0  0  0  0  0
    2.1434   -1.6500    0.0000 N   0  0  0  0  0  0  0  0  0  0  0  0
    0.7144   -1.6500    0.0000 N   0  0  0  0  0  0  0  0  0  0  0  0
    3.5724   -4.1250    0.0000 N   0  0  0  0  0  0  0  0  0  0  0  0
    3.5724    1.6500    0.0000 N   0  0  0  0  0  0  0  0  0  0  0  0
    2.8579    2.8875    0.0000 N   0  0  0  0  0  0  0  0  0  0  0  0
    7.1447    2.0625    0.0000 N   0  0  0  0  0  0  0  0  0  0  0  0
    9.2881    1.6500    0.0000 N   0  0  0  0  0  0  0  0  0  0  0  0
    2.8579   -2.0625    0.0000 C   0  0  0  0  0  0  0  0  0  0  0  0
    2.8579   -2.8875    0.0000 C   0  0  0  0  0  0  0  0  0  0  0  0
    0.0000   -0.4125    0.0000 C   0  0  0  0  0  0  0  0  0  0  0  0
    0.0000    0.4125    0.0000 C   0  0  0  0  0  0  0  0  0  0  0  0
    3.5724   -3.3000    0.0000 C   0  0  0  0  0  0  0  0  0  0  0  0
    4.2868   -2.0625    0.0000 C   0  0  0  0  0  0  0  0  0  0  0  0
    0.7144   -0.8250    0.0000 C   0  0  0  0  0  0  0  0  0  0  0  0
    0.7144    0.8250    0.0000 C   0  0  0  0  0  0  0  0  0  0  0  0
    3.5724   -1.6500    0.0000 C   0  0  0  0  0  0  0  0  0  0  0  0
    4.2868   -2.8875    0.0000 C   0  0  0  0  0  0  0  0  0  0  0  0
    5.0013   -1.6500    0.0000 C   0  0  0  0  0  0  0  0  0  0  0  0
    1.4290   -2.0625    0.0000 C   0  0  0  0  0  0  0  0  0  0  0  0
    1.4290   -0.4125    0.0000 C   0  0  0  0  0  0  0  0  0  0  0  0
    1.4290    0.4125    0.0000 C   0  0  0  0  0  0  0  0  0  0  0  0
   -0.7144   -0.8250    0.0000 C   0  0  0  0  0  0  0  0  0  0  0  0
   -0.7144    0.8250    0.0000 C   0  0  0  0  0  0  0  0  0  0  0  0
    1.4290    2.0625    0.0000 C   0  0  0  0  0  0  0  0  0  0  0  0
   -1.4290   -0.4125    0.0000 C   0  0  0  0  0  0  0  0  0  0  0  0
   -1.4290    0.4125    0.0000 C   0  0  0  0  0  0  0  0  0  0  0  0
    2.1434    1.6500    0.0000 C   0  0  0  0  0  0  0  0  0  0  0  0
    2.8579    2.0625    0.0000 C   0  0  0  0  0  0  0  0  0  0  0  0
    5.0013   -0.8250    0.0000 C   0  0  0  0  0  0  0  0  0  0  0  0
    5.7158   -1.2375    0.0000 C   0  0  0  0  0  0  0  0  0  0  0  0
    5.7158   -2.0625    0.0000 C   0  0  0  0  0  0  0  0  0  0  0  0
    1.4290    2.8875    0.0000 C   0  0  0  0  0  0  0  0  0  0  0  0
    4.2868    2.0625    0.0000 C   0  0  0  0  0  0  0  0  0  0  0  0
    5.7158    2.0625    0.0000 C   0  0  0  0  0  0  0  0  0  0  0  0
    5.0013    1.6500    0.0000 C   0  0  0  0  0  0  0  0  0  0  0  0
    2.1434    3.3000    0.0000 C   0  0  0  0  0  0  0  0  0  0  0  0
    5.0013    3.3000    0.0000 C   0  0  0  0  0  0  0  0  0  0  0  0
    2.1434   -4.1250    0.0000 C   0  0  0  0  0  0  0  0  0  0  0  0
    4.2868    2.8875    0.0000 C   0  0  0  0  0  0  0  0  0  0  0  0
    5.0013   -4.9500    0.0000 C   0  0  0  0  0  0  0  0  0  0  0  0
    5.7158    2.8875    0.0000 C   0  0  0  0  0  0  0  0  0  0  0  0
    6.4302    1.6500    0.0000 C   0  0  0  0  0  0  0  0  0  0  0  0
    5.0013    4.1250    0.0000 C   0  0  0  0  0  0  0  0  0  0  0  0
    7.8592    1.6500    0.0000 C   0  0  0  0  0  0  0  0  0  0  0  0
    5.0013    4.9500    0.0000 C   0  0  0  0  0  0  0  0  0  0  0  0
    8.5736    2.0625    0.0000 C   0  0  0  0  0  0  0  0  0  0  0  0
    9.2881    0.8250    0.0000 C   0  0  0  0  0  0  0  0  0  0  0  0
   10.0026    2.0625    0.0000 C   0  0  0  0  0  0  0  0  0  0  0  0
   10.0026    0.4125    0.0000 C   0  0  0  0  0  0  0  0  0  0  0  0
   10.7170    1.6500    0.0000 C   0  0  0  0  0  0  0  0  0  0  0  0
  1  5  2  0  0  0  0
  1  6  2  0  0  0  0
  1 11  1  0  0  0  0
  1 48  1  0  0  0  0
  2 23  1  0  0  0  0
  2 32  1  0  0  0  0
  3 17  1  0  0  0  0
  3 46  1  0  0  0  0
  4 27  2  0  0  0  0
  7 50  2  0  0  0  0
  8 57  1  0  0  0  0
  8 58  1  0  0  0  0
  9 16  1  0  0  0  0
  9 27  1  0  0  0  0
 10 22  1  0  0  0  0
 10 27  1  0  0  0  0
 11 20  1  0  0  0  0
 12 36  1  0  0  0  0
 12 41  1  0  0  0  0
 13 36  2  0  0  0  0
 13 44  1  0  0  0  0
 14 50  1  0  0  0  0
 14 52  1  0  0  0  0
 15 54  1  0  0  0  0
 15 55  1  0  0  0  0
 15 56  1  0  0  0  0
 16 17  1  0  0  0  0
 16 24  2  0  0  0  0
 17 20  2  0  0  0  0
 18 19  1  0  0  0  0
 18 22  2  0  0  0  0
 18 30  1  0  0  0  0
 19 23  2  0  0  0  0
 19 31  1  0  0  0  0
 20 25  1  0  0  0  0
 21 24  1  0  0  0  0
 21 25  2  0  0  0  0
 21 26  1  0  0  0  0
 22 28  1  0  0  0  0
 23 29  1  0  0  0  0
 26 37  1  0  0  0  0
 26 38  1  0  0  0  0
 26 39  1  0  0  0  0
 28 29  2  0  0  0  0
 30 33  2  0  0  0  0
 31 34  2  0  0  0  0
 32 35  2  0  0  0  0
 32 40  1  0  0  0  0
 33 34  1  0  0  0  0
 35 36  1  0  0  0  0
 40 44  2  0  0  0  0
 41 43  2  0  0  0  0
 41 47  1  0  0  0  0
 42 43  1  0  0  0  0
 42 49  2  0  0  0  0
 42 50  1  0  0  0  0
 45 47  2  0  0  0  0
 45 49  1  0  0  0  0
 45 51  1  0  0  0  0
 51 53  3  0  0  0  0
 52 54  1  0  0  0  0
 55 57  1  0  0  0  0
 56 58  1  0  0  0  0
M  END
> <PUBCHEM_COMPOUND_ID_TYPE>
0

> <PUBCHEM_TOTAL_CHARGE>
0

> <PUBCHEM_SUBSTANCE_ID>
310929106

> <PUBCHEM_SUBSTANCE_VERSION>
1

> <PUBCHEM_EXT_DATASOURCE_NAME>
4488

> <PUBCHEM_EXT_DATASOURCE_REGID>
SCHEMBL16106268

> <PUBCHEM_SUBSTANCE_COMMENT>
InChI=1S/C43H47N7O7S/c1-7-28-22-29(41(51)45-16-17-50-18-20-56-21-19-50)24-31(23-28)46-39-27-32(14-15-44-39)57-38-13-12-35(33-10-8-9-11-34(33)38)47-42(52)48-36-25-30(43(2,3)4)26-37(40(36)55-5)49-58(6,53)54/h1,8-15,22-27,49H,16-21H2,2-6H3,(H,44,46)(H,45,51)(H2,47,48,52)
InChIKey=VZMARWQBOMAYSG-UHFFFAOYSA-N

> <PUBCHEM_SUBSTANCE_SYNONYM>
SCHEMBL16106268

> <PUBCHEM_XREF_EXT_ID>
SCHEMBL16106268

> <PUBCHEM_EXT_DATASOURCE_URL>
https://www.surechembl.org/

> <PUBCHEM_EXT_SUBSTANCE_URL>
https://www.surechembl.org/chemical/SCHEMBL16106268

> <PUBCHEM_CID_ASSOCIATIONS>
86274267  1

> <PUBCHEM_COORDINATE_TYPE>
1
3

$$$$
