310949502
  -OEChem-07211613022D

 28 31  0     1  0  0  0  0  0999 V2000
   -1.6372    2.2219    0.0000 F   0  0  0  0  0  0  0  0  0  0  0  0
   -3.4790    0.6724    0.0000 F   0  0  0  0  0  0  0  0  0  0  0  0
   -3.7861    1.8126    0.0000 F   0  0  0  0  0  0  0  0  0  0  0  0
   -2.6458    2.1049    0.0000 F   0  0  0  0  0  0  0  0  0  0  0  0
   -0.2046    2.2073    0.0000 O   0  0  0  0  0  0  0  0  0  0  0  0
    0.5117    0.9794    0.0000 N   0  0  0  0  0  0  0  0  0  0  0  0
    2.7336   -0.1023    0.0000 N   0  0  0  0  0  0  0  0  0  0  0  0
    2.7336    1.2425    0.0000 N   0  0  0  0  0  0  0  0  0  0  0  0
    3.2159    0.5701    0.0000 N   0  0  0  0  0  0  0  0  0  0  0  0
   -2.3535    0.1462    0.0000 N   0  0  0  0  0  0  0  0  0  0  0  0
    3.7861   -1.1402    0.0000 N   0  0  0  0  0  0  0  0  0  0  0  0
    3.7861   -1.9734    0.0000 N   0  0  0  0  0  0  0  0  0  0  0  0
    1.9441    0.1608    0.0000 C   0  0  0  0  0  0  0  0  0  0  0  0
    1.9588    0.9794    0.0000 C   0  0  0  0  0  0  0  0  0  0  0  0
   -0.2046    1.3741    0.0000 C   0  0  0  0  0  0  0  0  0  0  0  0
   -0.9063    0.9794    0.0000 C   0  0  0  0  0  0  0  0  0  0  0  0
    0.5262    0.1462    0.0000 C   0  0  3  0  0  0  0  0  0  0  0  0
    1.2133    1.3887    0.0000 C   0  0  0  0  0  0  0  0  0  0  0  0
   -1.6518    1.3887    0.0000 C   0  0  0  0  0  0  0  0  0  0  0  0
    1.2279   -0.2631    0.0000 C   0  0  0  0  0  0  0  0  0  0  0  0
   -2.3535    0.9794    0.0000 C   0  0  0  0  0  0  0  0  0  0  0  0
    2.9967   -0.8771    0.0000 C   0  0  0  0  0  0  0  0  0  0  0  0
   -3.0698    1.3887    0.0000 C   0  0  0  0  0  0  0  0  0  0  0  0
   -0.9209    0.1462    0.0000 C   0  0  0  0  0  0  0  0  0  0  0  0
   -1.6226   -0.2631    0.0000 C   0  0  0  0  0  0  0  0  0  0  0  0
    2.5289   -1.5934    0.0000 C   0  0  0  0  0  0  0  0  0  0  0  0
   -0.1901   -0.2631    0.0000 C   0  0  0  0  0  0  0  0  0  0  0  0
    3.0113   -2.2219    0.0000 C   0  0  0  0  0  0  0  0  0  0  0  0
  1 19  1  0  0  0  0
  2 23  1  0  0  0  0
  3 23  1  0  0  0  0
  4 23  1  0  0  0  0
  5 15  2  0  0  0  0
  6 15  1  0  0  0  0
  6 17  1  0  0  0  0
  6 18  1  0  0  0  0
  7  9  1  0  0  0  0
  7 13  1  0  0  0  0
  7 22  1  0  0  0  0
  8  9  2  0  0  0  0
  8 14  1  0  0  0  0
 10 21  2  0  0  0  0
 10 25  1  0  0  0  0
 11 12  1  0  0  0  0
 11 22  2  0  0  0  0
 12 28  1  0  0  0  0
 13 14  2  0  0  0  0
 13 20  1  0  0  0  0
 14 18  1  0  0  0  0
 15 16  1  0  0  0  0
 16 19  2  0  0  0  0
 16 24  1  0  0  0  0
 17 20  1  0  0  0  0
 17 27  1  1  0  0  0
 19 21  1  0  0  0  0
 21 23  1  0  0  0  0
 22 26  1  0  0  0  0
 24 25  2  0  0  0  0
 26 28  2  0  0  0  0
M  END
> <PUBCHEM_COMPOUND_ID_TYPE>
0

> <PUBCHEM_TOTAL_CHARGE>
0

> <PUBCHEM_SUBSTANCE_ID>
310949502

> <PUBCHEM_SUBSTANCE_VERSION>
1

> <PUBCHEM_EXT_DATASOURCE_NAME>
4488

> <PUBCHEM_EXT_DATASOURCE_REGID>
SCHEMBL16127697

> <PUBCHEM_SUBSTANCE_COMMENT>
InChI=1S/C16H13F4N7O/c1-8-6-11-10(23-25-27(11)12-3-5-22-24-12)7-26(8)15(28)9-2-4-21-14(13(9)17)16(18,19)20/h2-5,8H,6-7H2,1H3,(H,22,24)/t8-/m1/s1
InChIKey=FKTFTNYSZYYCFD-MRVPVSSYSA-N

> <PUBCHEM_SUBSTANCE_SYNONYM>
SCHEMBL16127697

> <PUBCHEM_XREF_EXT_ID>
SCHEMBL16127697

> <PUBCHEM_EXT_DATASOURCE_URL>
https://www.surechembl.org/

> <PUBCHEM_EXT_SUBSTANCE_URL>
https://www.surechembl.org/chemical/SCHEMBL16127697

> <PUBCHEM_CID_ASSOCIATIONS>
117614941  1

> <PUBCHEM_COORDINATE_TYPE>
1
3

> <PUBCHEM_BONDANNOTATIONS>
17  27  5

$$$$
