310946303
  -OEChem-07211613022D

 35 37  0     0  0  0  0  0  0999 V2000
    0.3020   16.5722    0.0000 I   0  0  0  0  0  0  0  0  0  0  0  0
    1.7310   19.0472    0.0000 I   0  0  0  0  0  0  0  0  0  0  0  0
    5.3034   17.8097    0.0000 S   0  0  0  0  0  0  0  0  0  0  0  0
    0.3020   18.2222    0.0000 O   0  0  0  0  0  0  0  0  0  0  0  0
   -2.5560   16.5722    0.0000 O   0  0  0  0  0  0  0  0  0  0  0  0
   -2.5560   19.0472    0.0000 O   0  0  0  0  0  0  0  0  0  0  0  0
    4.5889   15.7471    0.0000 O   0  0  0  0  0  0  0  0  0  0  0  0
    4.4784   17.8097    0.0000 O   0  0  0  0  0  0  0  0  0  0  0  0
    6.1284   17.8097    0.0000 O   0  0  0  0  0  0  0  0  0  0  0  0
   -3.2705   17.8097    0.0000 N   0  0  0  0  0  0  0  0  0  0  0  0
    5.3034   16.9847    0.0000 N   0  0  0  0  0  0  0  0  0  0  0  0
    1.0165   17.8097    0.0000 C   0  0  0  0  0  0  0  0  0  0  0  0
    1.0165   16.9847    0.0000 C   0  0  0  0  0  0  0  0  0  0  0  0
    1.7310   18.2222    0.0000 C   0  0  0  0  0  0  0  0  0  0  0  0
   -0.4126   17.8097    0.0000 C   0  0  0  0  0  0  0  0  0  0  0  0
   -1.8415   17.8097    0.0000 C   0  0  0  0  0  0  0  0  0  0  0  0
    2.4455   16.9847    0.0000 C   0  0  0  0  0  0  0  0  0  0  0  0
   -1.1270   18.2222    0.0000 C   0  0  0  0  0  0  0  0  0  0  0  0
   -1.8415   16.9847    0.0000 C   0  0  0  0  0  0  0  0  0  0  0  0
    1.7310   16.5722    0.0000 C   0  0  0  0  0  0  0  0  0  0  0  0
    2.4455   17.8097    0.0000 C   0  0  0  0  0  0  0  0  0  0  0  0
   -2.5560   18.2222    0.0000 C   0  0  0  0  0  0  0  0  0  0  0  0
   -0.4126   16.9847    0.0000 C   0  0  0  0  0  0  0  0  0  0  0  0
   -1.1270   16.5722    0.0000 C   0  0  0  0  0  0  0  0  0  0  0  0
    3.1599   16.5722    0.0000 C   0  0  0  0  0  0  0  0  0  0  0  0
    3.8744   16.9847    0.0000 C   0  0  0  0  0  0  0  0  0  0  0  0
    4.5889   16.5722    0.0000 C   0  0  0  0  0  0  0  0  0  0  0  0
   -3.9849   18.2222    0.0000 C   0  0  0  0  0  0  0  0  0  0  0  0
   -4.6994   17.8097    0.0000 C   0  0  0  0  0  0  0  0  0  0  0  0
   -5.4139   18.2222    0.0000 C   0  0  0  0  0  0  0  0  0  0  0  0
   -4.6994   16.9847    0.0000 C   0  0  0  0  0  0  0  0  0  0  0  0
    5.3034   18.6347    0.0000 C   0  0  0  0  0  0  0  0  0  0  0  0
   -6.1284   17.8097    0.0000 C   0  0  0  0  0  0  0  0  0  0  0  0
   -5.4139   16.5722    0.0000 C   0  0  0  0  0  0  0  0  0  0  0  0
   -6.1284   16.9847    0.0000 C   0  0  0  0  0  0  0  0  0  0  0  0
  1 13  1  0  0  0  0
  2 14  1  0  0  0  0
  3  8  2  0  0  0  0
  3  9  2  0  0  0  0
  3 11  1  0  0  0  0
  3 32  1  0  0  0  0
  4 12  1  0  0  0  0
  4 15  1  0  0  0  0
  5 19  1  0  0  0  0
  6 22  2  0  0  0  0
  7 27  2  0  0  0  0
 10 22  1  0  0  0  0
 10 28  1  0  0  0  0
 11 27  1  0  0  0  0
 12 13  2  0  0  0  0
 12 14  1  0  0  0  0
 13 20  1  0  0  0  0
 14 21  2  0  0  0  0
 15 18  2  0  0  0  0
 15 23  1  0  0  0  0
 16 18  1  0  0  0  0
 16 19  2  0  0  0  0
 16 22  1  0  0  0  0
 17 20  2  0  0  0  0
 17 21  1  0  0  0  0
 17 25  1  0  0  0  0
 19 24  1  0  0  0  0
 23 24  2  0  0  0  0
 25 26  1  0  0  0  0
 26 27  1  0  0  0  0
 28 29  1  0  0  0  0
 29 30  2  0  0  0  0
 29 31  1  0  0  0  0
 30 33  1  0  0  0  0
 31 34  2  0  0  0  0
 33 35  2  0  0  0  0
 34 35  1  0  0  0  0
M  END
> <PUBCHEM_COMPOUND_ID_TYPE>
0

> <PUBCHEM_TOTAL_CHARGE>
0

> <PUBCHEM_SUBSTANCE_ID>
310946303

> <PUBCHEM_SUBSTANCE_VERSION>
1

> <PUBCHEM_EXT_DATASOURCE_NAME>
4488

> <PUBCHEM_EXT_DATASOURCE_REGID>
SCHEMBL16124422

> <PUBCHEM_SUBSTANCE_COMMENT>
InChI=1S/C24H22I2N2O6S/c1-35(32,33)28-22(30)10-7-16-11-19(25)23(20(26)12-16)34-17-8-9-21(29)18(13-17)24(31)27-14-15-5-3-2-4-6-15/h2-6,8-9,11-13,29H,7,10,14H2,1H3,(H,27,31)(H,28,30)
InChIKey=ZOYJXYBISCLNSK-UHFFFAOYSA-N

> <PUBCHEM_SUBSTANCE_SYNONYM>
SCHEMBL16124422

> <PUBCHEM_XREF_EXT_ID>
SCHEMBL16124422

> <PUBCHEM_EXT_DATASOURCE_URL>
https://www.surechembl.org/

> <PUBCHEM_EXT_SUBSTANCE_URL>
https://www.surechembl.org/chemical/SCHEMBL16124422

> <PUBCHEM_CID_ASSOCIATIONS>
71487226  1

> <PUBCHEM_COORDINATE_TYPE>
1
3

$$$$
