310945352
  -OEChem-07211613022D

 39 42  0     0  0  0  0  0  0999 V2000
   -2.3435    1.6052    0.0000 Cl  0  0  0  0  0  0  0  0  0  0  0  0
   -0.2167    2.2554    0.0000 F   0  0  0  0  0  0  0  0  0  0  0  0
    0.5012    2.6753    0.0000 F   0  0  0  0  0  0  0  0  0  0  0  0
    1.2327    2.2690    0.0000 F   0  0  0  0  0  0  0  0  0  0  0  0
   -0.4470   -1.0769    0.0000 F   0  0  0  0  0  0  0  0  0  0  0  0
    0.1084   -1.6865    0.0000 F   0  0  0  0  0  0  0  0  0  0  0  0
   -0.9753   -2.6347    0.0000 F   0  0  0  0  0  0  0  0  0  0  0  0
   -4.8495   -1.2395    0.0000 F   0  0  0  0  0  0  0  0  0  0  0  0
   -3.1698   -1.2395    0.0000 F   0  0  0  0  0  0  0  0  0  0  0  0
   -3.6033   -1.9439    0.0000 F   0  0  0  0  0  0  0  0  0  0  0  0
    4.1180   -1.0227    0.0000 F   0  0  0  0  0  0  0  0  0  0  0  0
    4.8495   -1.4291    0.0000 F   0  0  0  0  0  0  0  0  0  0  0  0
    4.1316   -2.6753    0.0000 F   0  0  0  0  0  0  0  0  0  0  0  0
   -1.0024   -0.4674    0.0000 N   0  0  0  0  0  0  0  0  0  0  0  0
   -1.0024    0.8602    0.0000 N   0  0  0  0  0  0  0  0  0  0  0  0
    0.5148   -0.6299    0.0000 N   0  0  0  0  0  0  0  0  0  0  0  0
    1.2462    0.6164    0.0000 N   0  0  0  0  0  0  0  0  0  0  0  0
    2.6821   -1.8626    0.0000 N   0  0  0  0  0  0  0  0  0  0  0  0
   -0.2032    0.6028    0.0000 C   0  0  0  0  0  0  0  0  0  0  0  0
   -0.2167   -0.2100    0.0000 C   0  0  0  0  0  0  0  0  0  0  0  0
   -1.5171    0.1829    0.0000 C   0  0  0  0  0  0  0  0  0  0  0  0
    0.5012    1.0227    0.0000 C   0  0  0  0  0  0  0  0  0  0  0  0
   -2.3570    0.1964    0.0000 C   0  0  0  0  0  0  0  0  0  0  0  0
    1.2462   -0.2235    0.0000 C   0  0  0  0  0  0  0  0  0  0  0  0
    0.5148    1.8626    0.0000 C   0  0  0  0  0  0  0  0  0  0  0  0
   -1.2598   -1.2666    0.0000 C   0  0  0  0  0  0  0  0  0  0  0  0
    1.9507   -0.6164    0.0000 C   0  0  0  0  0  0  0  0  0  0  0  0
   -2.7634    0.9008    0.0000 C   0  0  0  0  0  0  0  0  0  0  0  0
   -2.7499   -0.5216    0.0000 C   0  0  0  0  0  0  0  0  0  0  0  0
   -0.7044   -1.8490    0.0000 C   0  0  0  0  0  0  0  0  0  0  0  0
   -3.5897   -0.5216    0.0000 C   0  0  0  0  0  0  0  0  0  0  0  0
   -3.5897    0.8873    0.0000 C   0  0  0  0  0  0  0  0  0  0  0  0
   -3.9962   -1.2395    0.0000 C   0  0  0  0  0  0  0  0  0  0  0  0
   -4.0097    0.1829    0.0000 C   0  0  0  0  0  0  0  0  0  0  0  0
    1.9507   -1.4427    0.0000 C   0  0  0  0  0  0  0  0  0  0  0  0
    2.6686   -0.2235    0.0000 C   0  0  0  0  0  0  0  0  0  0  0  0
    3.3866   -1.4427    0.0000 C   0  0  0  0  0  0  0  0  0  0  0  0
    3.4001   -0.6299    0.0000 C   0  0  0  0  0  0  0  0  0  0  0  0
    4.1180   -1.8490    0.0000 C   0  0  0  0  0  0  0  0  0  0  0  0
  1 28  1  0  0  0  0
  2 25  1  0  0  0  0
  3 25  1  0  0  0  0
  4 25  1  0  0  0  0
  5 30  1  0  0  0  0
  6 30  1  0  0  0  0
  7 30  1  0  0  0  0
  8 33  1  0  0  0  0
  9 33  1  0  0  0  0
 10 33  1  0  0  0  0
 11 39  1  0  0  0  0
 12 39  1  0  0  0  0
 13 39  1  0  0  0  0
 14 20  1  0  0  0  0
 14 21  1  0  0  0  0
 14 26  1  0  0  0  0
 15 19  1  0  0  0  0
 15 21  2  0  0  0  0
 16 20  1  0  0  0  0
 16 24  2  0  0  0  0
 17 22  2  0  0  0  0
 17 24  1  0  0  0  0
 18 35  1  0  0  0  0
 18 37  2  0  0  0  0
 19 20  2  0  0  0  0
 19 22  1  0  0  0  0
 21 23  1  0  0  0  0
 22 25  1  0  0  0  0
 23 28  2  0  0  0  0
 23 29  1  0  0  0  0
 24 27  1  0  0  0  0
 26 30  1  0  0  0  0
 27 35  2  0  0  0  0
 27 36  1  0  0  0  0
 28 32  1  0  0  0  0
 29 31  2  0  0  0  0
 31 33  1  0  0  0  0
 31 34  1  0  0  0  0
 32 34  2  0  0  0  0
 36 38  2  0  0  0  0
 37 38  1  0  0  0  0
 37 39  1  0  0  0  0
M  END
> <PUBCHEM_COMPOUND_ID_TYPE>
0

> <PUBCHEM_TOTAL_CHARGE>
0

> <PUBCHEM_SUBSTANCE_ID>
310945352

> <PUBCHEM_SUBSTANCE_VERSION>
1

> <PUBCHEM_EXT_DATASOURCE_NAME>
4488

> <PUBCHEM_EXT_DATASOURCE_REGID>
SCHEMBL16123450

> <PUBCHEM_SUBSTANCE_COMMENT>
InChI=1S/C21H8ClF12N5/c22-11-3-2-9(19(26,27)28)5-10(11)16-36-13-14(21(32,33)34)37-15(38-17(13)39(16)7-18(23,24)25)8-1-4-12(35-6-8)20(29,30)31/h1-6H,7H2
InChIKey=NHLRDYYKWHTVCU-UHFFFAOYSA-N

> <PUBCHEM_SUBSTANCE_SYNONYM>
SCHEMBL16123450

> <PUBCHEM_XREF_EXT_ID>
SCHEMBL16123450

> <PUBCHEM_EXT_DATASOURCE_URL>
https://www.surechembl.org/

> <PUBCHEM_EXT_SUBSTANCE_URL>
https://www.surechembl.org/chemical/SCHEMBL16123450

> <PUBCHEM_CID_ASSOCIATIONS>
117611411  1

> <PUBCHEM_COORDINATE_TYPE>
1
3

$$$$
