310946853
  -OEChem-07211613022D

 35 38  0     1  0  0  0  0  0999 V2000
   -1.1844   -3.1691    0.0000 S   0  0  0  0  0  0  0  0  0  0  0  0
    0.3041    3.2330    0.0000 O   0  0  0  0  0  0  0  0  0  0  0  0
   -0.6402   -0.9123    0.0000 O   0  0  0  0  0  0  0  0  0  0  0  0
   -0.5922   -3.7292    0.0000 O   0  0  0  0  0  0  0  0  0  0  0  0
   -1.7446   -3.7612    0.0000 O   0  0  0  0  0  0  0  0  0  0  0  0
    0.9443    1.3604    0.0000 N   0  0  0  0  0  0  0  0  0  0  0  0
    1.3924    0.6722    0.0000 N   0  0  0  0  0  0  0  0  0  0  0  0
    1.1204   -0.7682    0.0000 N   0  0  0  0  0  0  0  0  0  0  0  0
   -1.3124    0.3521    0.0000 N   0  0  0  0  0  0  0  0  0  0  0  0
   -1.7766   -2.5769    0.0000 N   0  0  3  0  0  0  0  0  0  0  0  0
    3.3611    1.7926    0.0000 N   0  0  0  0  0  0  0  0  0  0  0  0
    0.1440    1.1363    0.0000 C   0  0  0  0  0  0  0  0  0  0  0  0
    1.2164    2.1447    0.0000 C   0  0  3  0  0  0  0  0  0  0  0  0
    0.0960    0.3041    0.0000 C   0  0  0  0  0  0  0  0  0  0  0  0
    0.8963    0.0000    0.0000 C   0  0  0  0  0  0  0  0  0  0  0  0
   -0.6082   -0.0640    0.0000 C   0  0  0  0  0  0  0  0  0  0  0  0
   -0.5762    1.5685    0.0000 C   0  0  0  0  0  0  0  0  0  0  0  0
    0.4481    2.4328    0.0000 C   0  0  0  0  0  0  0  0  0  0  0  0
    1.8566    2.6729    0.0000 C   0  0  0  0  0  0  0  0  0  0  0  0
    1.7446    1.4885    0.0000 C   0  0  0  0  0  0  0  0  0  0  0  0
    0.5442   -1.3765    0.0000 C   0  0  0  0  0  0  0  0  0  0  0  0
   -0.5922   -2.5449    0.0000 C   0  0  0  0  0  0  0  0  0  0  0  0
   -1.2644    1.1844    0.0000 C   0  0  0  0  0  0  0  0  0  0  0  0
    1.7125    3.4892    0.0000 C   0  0  0  0  0  0  0  0  0  0  0  0
   -2.5769   -2.8009    0.0000 C   0  0  0  0  0  0  0  0  0  0  0  0
   -0.2721   -1.1844    0.0000 C   0  0  0  0  0  0  0  0  0  0  0  0
    0.7523   -2.1607    0.0000 C   0  0  0  0  0  0  0  0  0  0  0  0
   -0.8162   -1.7605    0.0000 C   0  0  0  0  0  0  0  0  0  0  0  0
    0.1920   -2.7529    0.0000 C   0  0  0  0  0  0  0  0  0  0  0  0
    2.5449    1.6486    0.0000 C   0  0  0  0  0  0  0  0  0  0  0  0
    0.9283    3.7612    0.0000 C   0  0  0  0  0  0  0  0  0  0  0  0
   -1.5685   -1.7605    0.0000 C   0  0  0  0  0  0  0  0  0  0  0  0
   -3.1530   -2.2567    0.0000 C   0  0  0  0  0  0  0  0  0  0  0  0
   -3.3611   -3.0570    0.0000 C   0  0  0  0  0  0  0  0  0  0  0  0
   -2.7529   -3.6332    0.0000 C   0  0  0  0  0  0  0  0  0  0  0  0
  1  4  2  0  0  0  0
  1  5  2  0  0  0  0
  1 10  1  0  0  0  0
  1 22  1  0  0  0  0
  2 18  1  0  0  0  0
  2 31  1  0  0  0  0
  3 16  2  0  0  0  0
  6  7  1  0  0  0  0
  6 12  1  0  0  0  0
  6 13  1  0  0  0  0
  7 15  2  0  0  0  0
  8 15  1  0  0  0  0
  8 21  1  0  0  0  0
  9 16  1  0  0  0  0
  9 23  1  0  0  0  0
 10 25  1  0  0  0  0
 10 32  1  0  0  0  0
 11 30  3  0  0  0  0
 12 14  2  0  0  0  0
 12 17  1  0  0  0  0
 13 18  1  0  0  0  0
 13 19  1  0  0  0  0
 13 20  1  6  0  0  0
 14 15  1  0  0  0  0
 14 16  1  0  0  0  0
 17 23  2  0  0  0  0
 19 24  1  0  0  0  0
 20 30  1  0  0  0  0
 21 26  2  0  0  0  0
 21 27  1  0  0  0  0
 22 28  2  0  0  0  0
 22 29  1  0  0  0  0
 24 31  1  0  0  0  0
 25 33  1  0  0  0  0
 25 34  1  0  0  0  0
 25 35  1  0  0  0  0
 26 28  1  0  0  0  0
 27 29  2  0  0  0  0
M  END
> <PUBCHEM_COMPOUND_ID_TYPE>
0

> <PUBCHEM_TOTAL_CHARGE>
0

> <PUBCHEM_SUBSTANCE_ID>
310946853

> <PUBCHEM_SUBSTANCE_VERSION>
1

> <PUBCHEM_EXT_DATASOURCE_NAME>
4488

> <PUBCHEM_EXT_DATASOURCE_REGID>
SCHEMBL16124977

> <PUBCHEM_SUBSTANCE_COMMENT>
InChI=1S/C24H30N6O4S/c1-23(2,3)29(4)35(32,33)18-8-6-17(7-9-18)27-21-20-19(10-14-26-22(20)31)30(28-21)24(12-13-25)11-5-15-34-16-24/h6-10,14H,5,11-12,15-16H2,1-4H3,(H,26,31)(H,27,28)/t24-/m0/s1
InChIKey=BXFODIQCZHOWKO-DEOSSOPVSA-N

> <PUBCHEM_SUBSTANCE_SYNONYM>
SCHEMBL16124977

> <PUBCHEM_XREF_EXT_ID>
SCHEMBL16124977

> <PUBCHEM_EXT_DATASOURCE_URL>
https://www.surechembl.org/

> <PUBCHEM_EXT_SUBSTANCE_URL>
https://www.surechembl.org/chemical/SCHEMBL16124977

> <PUBCHEM_CID_ASSOCIATIONS>
117612712  1

> <PUBCHEM_COORDINATE_TYPE>
1
3

> <PUBCHEM_BONDANNOTATIONS>
13  20  6

$$$$
