310930899
  -OEChem-07211613022D

 30 33  0     0  0  0  0  0  0999 V2000
    0.9318   -2.6877    0.0000 O   0  0  0  0  0  0  0  0  0  0  0  0
    0.0000   -6.4147    0.0000 O   0  0  0  0  0  0  0  0  0  0  0  0
    3.4403   -6.7014    0.0000 O   0  0  0  0  0  0  0  0  0  0  0  0
    2.3652   -2.4727    0.0000 N   0  0  0  0  0  0  0  0  0  0  0  0
    2.7952   -3.7270    0.0000 N   0  0  0  0  0  0  0  0  0  0  0  0
    3.8345   -2.6877    0.0000 N   0  0  0  0  0  0  0  0  0  0  0  0
    0.9676   -1.6484    0.0000 N   0  0  0  0  0  0  0  0  0  0  0  0
    1.9352   -3.7270    0.0000 C   0  0  0  0  0  0  0  0  0  0  0  0
    1.7202   -2.9386    0.0000 C   0  0  0  0  0  0  0  0  0  0  0  0
    1.4693   -4.4078    0.0000 C   0  0  0  0  0  0  0  0  0  0  0  0
    2.3293   -4.4796    0.0000 C   0  0  0  0  0  0  0  0  0  0  0  0
    3.0461   -2.9386    0.0000 C   0  0  0  0  0  0  0  0  0  0  0  0
    1.7918   -5.1604    0.0000 C   0  0  0  0  0  0  0  0  0  0  0  0
    3.1536   -4.5154    0.0000 C   0  0  0  0  0  0  0  0  0  0  0  0
    0.6451   -4.3362    0.0000 C   0  0  0  0  0  0  0  0  0  0  0  0
    2.0427   -5.3396    0.0000 C   0  0  0  0  0  0  0  0  0  0  0  0
    2.3652   -1.6484    0.0000 C   0  0  0  0  0  0  0  0  0  0  0  0
    1.6484   -1.2184    0.0000 C   0  0  0  0  0  0  0  0  0  0  0  0
    1.3259   -5.8413    0.0000 C   0  0  0  0  0  0  0  0  0  0  0  0
    3.5120   -5.2679    0.0000 C   0  0  0  0  0  0  0  0  0  0  0  0
    0.1434   -4.9813    0.0000 C   0  0  0  0  0  0  0  0  0  0  0  0
    2.2577   -5.9130    0.0000 C   0  0  0  0  0  0  0  0  0  0  0  0
    0.5017   -5.7338    0.0000 C   0  0  0  0  0  0  0  0  0  0  0  0
    3.0819   -5.9488    0.0000 C   0  0  0  0  0  0  0  0  0  0  0  0
    1.6843   -0.3942    0.0000 C   0  0  0  0  0  0  0  0  0  0  0  0
    0.2150   -1.2543    0.0000 C   0  0  0  0  0  0  0  0  0  0  0  0
    0.9318    0.0000    0.0000 C   0  0  0  0  0  0  0  0  0  0  0  0
    0.2509   -0.4301    0.0000 C   0  0  0  0  0  0  0  0  0  0  0  0
    0.3225   -7.1672    0.0000 C   0  0  0  0  0  0  0  0  0  0  0  0
    4.2645   -6.7372    0.0000 C   0  0  0  0  0  0  0  0  0  0  0  0
  1  9  2  0  0  0  0
  2 23  1  0  0  0  0
  2 29  1  0  0  0  0
  3 24  1  0  0  0  0
  3 30  1  0  0  0  0
  4  9  1  0  0  0  0
  4 12  1  0  0  0  0
  4 17  1  0  0  0  0
  5  8  1  0  0  0  0
  5 12  1  0  0  0  0
  6 12  2  3  0  0  0
  7 18  1  0  0  0  0
  7 26  2  0  0  0  0
  8  9  1  0  0  0  0
  8 10  1  0  0  0  0
  8 11  1  0  0  0  0
 10 13  2  0  0  0  0
 10 15  1  0  0  0  0
 11 14  2  0  0  0  0
 11 16  1  0  0  0  0
 13 19  1  0  0  0  0
 14 20  1  0  0  0  0
 15 21  2  0  0  0  0
 16 22  2  0  0  0  0
 17 18  1  0  0  0  0
 18 25  2  0  0  0  0
 19 23  2  0  0  0  0
 20 24  2  0  0  0  0
 21 23  1  0  0  0  0
 22 24  1  0  0  0  0
 25 27  1  0  0  0  0
 26 28  1  0  0  0  0
 27 28  2  0  0  0  0
M  END
> <PUBCHEM_COMPOUND_ID_TYPE>
0

> <PUBCHEM_TOTAL_CHARGE>
0

> <PUBCHEM_SUBSTANCE_ID>
310930899

> <PUBCHEM_SUBSTANCE_VERSION>
1

> <PUBCHEM_EXT_DATASOURCE_NAME>
4488

> <PUBCHEM_EXT_DATASOURCE_REGID>
SCHEMBL16108197

> <PUBCHEM_SUBSTANCE_COMMENT>
InChI=1S/C23H22N4O3/c1-29-19-10-6-16(7-11-19)23(17-8-12-20(30-2)13-9-17)21(28)27(22(24)26-23)15-18-5-3-4-14-25-18/h3-14H,15H2,1-2H3,(H2,24,26)
InChIKey=YCLSNJYTGZFCJQ-UHFFFAOYSA-N

> <PUBCHEM_SUBSTANCE_SYNONYM>
SCHEMBL16108197

> <PUBCHEM_XREF_EXT_ID>
SCHEMBL16108197

> <PUBCHEM_EXT_DATASOURCE_URL>
https://www.surechembl.org/

> <PUBCHEM_EXT_SUBSTANCE_URL>
https://www.surechembl.org/chemical/SCHEMBL16108197

> <PUBCHEM_CID_ASSOCIATIONS>
117599869  1

> <PUBCHEM_COORDINATE_TYPE>
1
3

$$$$
