310949785
  -OEChem-07211613022D

 18 19  0     0  0  0  0  0  0999 V2000
    3.7451    0.6730    0.0000 O   0  0  0  0  0  0  0  0  0  0  0  0
    3.7234   -0.7381    0.0000 O   0  0  0  0  0  0  0  0  0  0  0  0
    0.8359    0.0000    0.0000 N   0  0  0  0  0  0  0  0  0  0  0  0
   -0.4017   -0.6947    0.0000 N   0  0  0  0  0  0  0  0  0  0  0  0
   -2.8984   -0.6730    0.0000 N   0  0  0  0  0  0  0  0  0  0  0  0
   -0.0108    0.0217    0.0000 C   0  0  0  0  0  0  0  0  0  0  0  0
    2.4859    0.0217    0.0000 C   0  0  0  0  0  0  0  0  0  0  0  0
    1.2267   -0.6730    0.0000 C   0  0  0  0  0  0  0  0  0  0  0  0
    1.2701    0.7165    0.0000 C   0  0  0  0  0  0  0  0  0  0  0  0
   -0.4017    0.7381    0.0000 C   0  0  0  0  0  0  0  0  0  0  0  0
    2.0734   -0.6947    0.0000 C   0  0  0  0  0  0  0  0  0  0  0  0
    2.0951    0.6947    0.0000 C   0  0  0  0  0  0  0  0  0  0  0  0
   -1.6609    0.0434    0.0000 C   0  0  0  0  0  0  0  0  0  0  0  0
   -1.2701   -0.6514    0.0000 C   0  0  0  0  0  0  0  0  0  0  0  0
   -1.2267    0.7381    0.0000 C   0  0  0  0  0  0  0  0  0  0  0  0
    3.3109   -0.0217    0.0000 C   0  0  0  0  0  0  0  0  0  0  0  0
   -2.4859    0.0434    0.0000 C   0  0  0  0  0  0  0  0  0  0  0  0
   -3.7451   -0.6730    0.0000 C   0  0  0  0  0  0  0  0  0  0  0  0
  1 16  2  0  0  0  0
  2 16  1  0  0  0  0
  3  6  1  0  0  0  0
  3  8  1  0  0  0  0
  3  9  1  0  0  0  0
  4  6  2  0  0  0  0
  4 14  1  0  0  0  0
  5 17  1  0  0  0  0
  5 18  1  0  0  0  0
  6 10  1  0  0  0  0
  7 11  1  0  0  0  0
  7 12  1  0  0  0  0
  7 16  1  0  0  0  0
  8 11  1  0  0  0  0
  9 12  1  0  0  0  0
 10 15  2  0  0  0  0
 13 14  2  0  0  0  0
 13 15  1  0  0  0  0
 13 17  1  0  0  0  0
M  END
> <PUBCHEM_COMPOUND_ID_TYPE>
0

> <PUBCHEM_TOTAL_CHARGE>
0

> <PUBCHEM_SUBSTANCE_ID>
310949785

> <PUBCHEM_SUBSTANCE_VERSION>
1

> <PUBCHEM_EXT_DATASOURCE_NAME>
4488

> <PUBCHEM_EXT_DATASOURCE_REGID>
SCHEMBL16127983

> <PUBCHEM_SUBSTANCE_COMMENT>
InChI=1S/C13H19N3O2/c1-14-8-10-2-3-12(15-9-10)16-6-4-11(5-7-16)13(17)18/h2-3,9,11,14H,4-8H2,1H3,(H,17,18)
InChIKey=LEEBMSRVLBTFPW-UHFFFAOYSA-N

> <PUBCHEM_SUBSTANCE_SYNONYM>
SCHEMBL16127983

> <PUBCHEM_XREF_EXT_ID>
SCHEMBL16127983

> <PUBCHEM_EXT_DATASOURCE_URL>
https://www.surechembl.org/

> <PUBCHEM_EXT_SUBSTANCE_URL>
https://www.surechembl.org/chemical/SCHEMBL16127983

> <PUBCHEM_CID_ASSOCIATIONS>
117615109  1

> <PUBCHEM_COORDINATE_TYPE>
1
3

$$$$
