310945085
  -OEChem-07211613022D

 34 38  0     0  0  0  0  0  0999 V2000
    4.6293    1.8278    0.0000 O   0  0  0  0  0  0  0  0  0  0  0  0
   -2.2779   -1.6441    0.0000 O   0  0  0  0  0  0  0  0  0  0  0  0
   -3.5822    1.0012    0.0000 O   0  0  0  0  0  0  0  0  0  0  0  0
   -4.4456   -1.6809    0.0000 O   0  0  0  0  0  0  0  0  0  0  0  0
    2.6820   -0.1378    0.0000 N   0  0  0  0  0  0  0  0  0  0  0  0
    0.0000    1.3870    0.0000 N   0  0  0  0  0  0  0  0  0  0  0  0
    5.0701    0.4501    0.0000 N   0  0  0  0  0  0  0  0  0  0  0  0
   -0.8817   -1.3502    0.0000 N   0  0  0  0  0  0  0  0  0  0  0  0
   -2.6085   -0.0275    0.0000 N   0  0  0  0  0  0  0  0  0  0  0  0
    2.3514    0.6338    0.0000 C   0  0  0  0  0  0  0  0  0  0  0  0
    2.9576    1.1849    0.0000 C   0  0  0  0  0  0  0  0  0  0  0  0
    3.6924    0.7624    0.0000 C   0  0  0  0  0  0  0  0  0  0  0  0
    1.5799    0.9093    0.0000 C   0  0  0  0  0  0  0  0  0  0  0  0
    3.5087   -0.0459    0.0000 C   0  0  0  0  0  0  0  0  0  0  0  0
    1.3962    1.6809    0.0000 C   0  0  0  0  0  0  0  0  0  0  0  0
    4.4456    1.0012    0.0000 C   0  0  0  0  0  0  0  0  0  0  0  0
    2.7922    1.9748    0.0000 C   0  0  0  0  0  0  0  0  0  0  0  0
    0.9736    0.3214    0.0000 C   0  0  0  0  0  0  0  0  0  0  0  0
    0.1654    0.5970    0.0000 C   0  0  0  0  0  0  0  0  0  0  0  0
    2.0023    2.2320    0.0000 C   0  0  0  0  0  0  0  0  0  0  0  0
    4.1333   -0.5970    0.0000 C   0  0  0  0  0  0  0  0  0  0  0  0
    0.6246    1.9380    0.0000 C   0  0  0  0  0  0  0  0  0  0  0  0
   -0.4409    0.0092    0.0000 C   0  0  0  0  0  0  0  0  0  0  0  0
    4.9048   -0.3582    0.0000 C   0  0  0  0  0  0  0  0  0  0  0  0
   -1.2308    0.2664    0.0000 C   0  0  0  0  0  0  0  0  0  0  0  0
   -1.8186   -0.2664    0.0000 C   0  0  0  0  0  0  0  0  0  0  0  0
   -0.2756   -0.7991    0.0000 C   0  0  0  0  0  0  0  0  0  0  0  0
   -1.6533   -1.0563    0.0000 C   0  0  0  0  0  0  0  0  0  0  0  0
   -2.7739    0.7807    0.0000 C   0  0  0  0  0  0  0  0  0  0  0  0
   -3.0494   -1.3870    0.0000 C   0  0  0  0  0  0  0  0  0  0  0  0
   -2.2044    1.3685    0.0000 C   0  0  0  0  0  0  0  0  0  0  0  0
   -3.6556   -1.9380    0.0000 C   0  0  0  0  0  0  0  0  0  0  0  0
   -2.4983    2.1769    0.0000 C   0  0  0  0  0  0  0  0  0  0  0  0
   -5.0701   -2.2320    0.0000 C   0  0  0  0  0  0  0  0  0  0  0  0
  1 16  2  0  0  0  0
  2 28  1  0  0  0  0
  2 30  1  0  0  0  0
  3 29  2  0  0  0  0
  4 32  1  0  0  0  0
  4 34  1  0  0  0  0
  5 10  1  0  0  0  0
  5 14  1  0  0  0  0
  6 19  2  0  0  0  0
  6 22  1  0  0  0  0
  7 16  1  0  0  0  0
  7 24  1  0  0  0  0
  8 27  2  0  0  0  0
  8 28  1  0  0  0  0
  9 26  1  0  0  0  0
  9 29  1  0  0  0  0
 10 11  2  0  0  0  0
 10 13  1  0  0  0  0
 11 12  1  0  0  0  0
 11 17  1  0  0  0  0
 12 14  2  0  0  0  0
 12 16  1  0  0  0  0
 13 15  1  0  0  0  0
 13 18  2  0  0  0  0
 14 21  1  0  0  0  0
 15 20  1  0  0  0  0
 15 22  2  0  0  0  0
 17 20  1  0  0  0  0
 18 19  1  0  0  0  0
 19 23  1  0  0  0  0
 21 24  1  0  0  0  0
 23 25  2  0  0  0  0
 23 27  1  0  0  0  0
 25 26  1  0  0  0  0
 26 28  2  0  0  0  0
 29 31  1  0  0  0  0
 30 32  1  0  0  0  0
 31 33  2  0  0  0  0
M  END
> <PUBCHEM_COMPOUND_ID_TYPE>
0

> <PUBCHEM_TOTAL_CHARGE>
0

> <PUBCHEM_SUBSTANCE_ID>
310945085

> <PUBCHEM_SUBSTANCE_VERSION>
1

> <PUBCHEM_EXT_DATASOURCE_NAME>
4488

> <PUBCHEM_EXT_DATASOURCE_REGID>
SCHEMBL16123175

> <PUBCHEM_SUBSTANCE_COMMENT>
InChI=1S/C25H25N5O4/c1-3-21(31)29-20-10-15(13-28-25(20)34-9-8-33-2)19-11-17-14(12-27-19)4-5-16-22-18(30-23(16)17)6-7-26-24(22)32/h3,10-13,30H,1,4-9H2,2H3,(H,26,32)(H,29,31)
InChIKey=RUKQVCQVBPLNNN-UHFFFAOYSA-N

> <PUBCHEM_SUBSTANCE_SYNONYM>
SCHEMBL16123175

> <PUBCHEM_XREF_EXT_ID>
SCHEMBL16123175

> <PUBCHEM_EXT_DATASOURCE_URL>
https://www.surechembl.org/

> <PUBCHEM_EXT_SUBSTANCE_URL>
https://www.surechembl.org/chemical/SCHEMBL16123175

> <PUBCHEM_CID_ASSOCIATIONS>
85470939  1

> <PUBCHEM_COORDINATE_TYPE>
1
3

$$$$
