310938795
  -OEChem-07211613022D

 20 21  0     0  0  0  0  0  0999 V2000
    2.1831    2.7105    0.0000 S   0  0  0  0  0  0  0  0  0  0  0  0
    0.2076   -1.5437    0.0000 O   0  0  0  0  0  0  0  0  0  0  0  0
   -1.2299    1.0605    0.0000 N   0  0  0  0  0  0  0  0  0  0  0  0
   -2.1831   -0.9032    0.0000 N   0  0  0  0  0  0  0  0  0  0  0  0
   -0.4453    0.8055    0.0000 N   0  0  0  0  0  0  0  0  0  0  0  0
    0.7541    1.8855    0.0000 N   0  0  0  0  0  0  0  0  0  0  0  0
   -1.5997   -0.3198    0.0000 C   0  0  0  0  0  0  0  0  0  0  0  0
   -0.8028   -0.5333    0.0000 C   0  0  0  0  0  0  0  0  0  0  0  0
   -0.5893   -1.3302    0.0000 C   0  0  0  0  0  0  0  0  0  0  0  0
   -1.8132    0.4771    0.0000 C   0  0  0  0  0  0  0  0  0  0  0  0
   -1.1727   -1.9136    0.0000 C   0  0  0  0  0  0  0  0  0  0  0  0
    0.0397    1.4730    0.0000 C   0  0  0  0  0  0  0  0  0  0  0  0
   -1.9696   -1.7000    0.0000 C   0  0  0  0  0  0  0  0  0  0  0  0
   -1.2299    1.8855    0.0000 C   0  0  0  0  0  0  0  0  0  0  0  0
   -0.4453    2.1404    0.0000 C   0  0  0  0  0  0  0  0  0  0  0  0
   -0.2195    0.0500    0.0000 C   0  0  0  0  0  0  0  0  0  0  0  0
   -0.9591   -2.7105    0.0000 C   0  0  0  0  0  0  0  0  0  0  0  0
    1.4240    2.2722    0.0000 C   0  0  0  0  0  0  0  0  0  0  0  0
    0.7910   -0.9604    0.0000 C   0  0  0  0  0  0  0  0  0  0  0  0
    1.5133    2.3237    0.0000 C   0  0  0  0  0  0  0  0  0  0  0  0
  1 20  2  0  0  0  0
  2  9  1  0  0  0  0
  2 19  1  0  0  0  0
  3  5  1  0  0  0  0
  3 10  1  0  0  0  0
  3 14  1  0  0  0  0
  4  7  1  0  0  0  0
  4 13  2  0  0  0  0
  5 12  2  0  0  0  0
  6 12  1  0  0  0  0
  6 18  2  3  0  0  0
  7  8  2  0  0  0  0
  7 10  1  0  0  0  0
  8  9  1  0  0  0  0
  8 16  1  0  0  0  0
  9 11  2  0  0  0  0
 11 13  1  0  0  0  0
 11 17  1  0  0  0  0
 12 15  1  0  0  0  0
 14 15  2  0  0  0  0
 18 20  1  0  0  0  0
M  END
> <PUBCHEM_COMPOUND_ID_TYPE>
0

> <PUBCHEM_TOTAL_CHARGE>
0

> <PUBCHEM_SUBSTANCE_ID>
310938795

> <PUBCHEM_SUBSTANCE_VERSION>
1

> <PUBCHEM_EXT_DATASOURCE_NAME>
4488

> <PUBCHEM_EXT_DATASOURCE_REGID>
SCHEMBL16116712

> <PUBCHEM_SUBSTANCE_COMMENT>
InChI=1S/C14H16N4OS/c1-10-8-16-12(11(2)14(10)19-3)9-18-6-4-13(17-18)15-5-7-20/h4-8H,9H2,1-3H3
InChIKey=XIYIFCIJOIWFNS-UHFFFAOYSA-N

> <PUBCHEM_SUBSTANCE_SYNONYM>
SCHEMBL16116712

> <PUBCHEM_XREF_EXT_ID>
SCHEMBL16116712

> <PUBCHEM_EXT_DATASOURCE_URL>
https://www.surechembl.org/

> <PUBCHEM_EXT_SUBSTANCE_URL>
https://www.surechembl.org/chemical/SCHEMBL16116712

> <PUBCHEM_CID_ASSOCIATIONS>
117606203  1

> <PUBCHEM_COORDINATE_TYPE>
1
3

$$$$
