310946868
  -OEChem-07211613022D

 20 21  0     0  0  0  0  0  0999 V2000
    1.3647    0.1018    0.0000 F   0  0  0  0  0  0  0  0  0  0  0  0
    0.4583   -2.5971    0.0000 O   0  0  0  0  0  0  0  0  0  0  0  0
    1.6397   -1.7619    0.0000 O   0  0  0  0  0  0  0  0  0  0  0  0
   -0.0815    0.1018    0.0000 N   0  0  0  0  0  0  0  0  0  0  0  0
    0.5805   -0.3870    0.0000 N   0  0  0  0  0  0  0  0  0  0  0  0
   -0.5194   -1.1406    0.0000 C   0  0  0  0  0  0  0  0  0  0  0  0
   -0.7536   -0.3564    0.0000 C   0  0  0  0  0  0  0  0  0  0  0  0
    0.3157   -1.1406    0.0000 C   0  0  0  0  0  0  0  0  0  0  0  0
    0.6314    1.3749    0.0000 C   0  0  0  0  0  0  0  0  0  0  0  0
   -1.0490   -1.7619    0.0000 C   0  0  0  0  0  0  0  0  0  0  0  0
   -1.5684   -0.1935    0.0000 C   0  0  0  0  0  0  0  0  0  0  0  0
    0.8249   -1.7822    0.0000 C   0  0  0  0  0  0  0  0  0  0  0  0
   -0.0815    0.9675    0.0000 C   0  0  0  0  0  0  0  0  0  0  0  0
    1.3647    0.9675    0.0000 C   0  0  0  0  0  0  0  0  0  0  0  0
   -1.8739   -1.5989    0.0000 C   0  0  0  0  0  0  0  0  0  0  0  0
   -2.0777   -0.7944    0.0000 C   0  0  0  0  0  0  0  0  0  0  0  0
    0.6416    2.2101    0.0000 C   0  0  0  0  0  0  0  0  0  0  0  0
    2.0777    1.3749    0.0000 C   0  0  0  0  0  0  0  0  0  0  0  0
    1.3443    2.5971    0.0000 C   0  0  0  0  0  0  0  0  0  0  0  0
    2.0777    2.1999    0.0000 C   0  0  0  0  0  0  0  0  0  0  0  0
  1 14  1  0  0  0  0
  2 12  2  0  0  0  0
  3 12  1  0  0  0  0
  4  7  1  0  0  0  0
  4 13  1  0  0  0  0
  5  8  2  3  0  0  0
  6  7  2  0  0  0  0
  6  8  1  0  0  0  0
  6 10  1  0  0  0  0
  7 11  1  0  0  0  0
  8 12  1  0  0  0  0
  9 13  1  0  0  0  0
  9 14  2  0  0  0  0
  9 17  1  0  0  0  0
 10 15  2  0  0  0  0
 11 16  2  0  0  0  0
 14 18  1  0  0  0  0
 15 16  1  0  0  0  0
 17 19  2  0  0  0  0
 18 20  2  0  0  0  0
 19 20  1  0  0  0  0
M  END
> <PUBCHEM_COMPOUND_ID_TYPE>
0

> <PUBCHEM_TOTAL_CHARGE>
0

> <PUBCHEM_SUBSTANCE_ID>
310946868

> <PUBCHEM_SUBSTANCE_VERSION>
1

> <PUBCHEM_EXT_DATASOURCE_NAME>
4488

> <PUBCHEM_EXT_DATASOURCE_REGID>
SCHEMBL16124992

> <PUBCHEM_SUBSTANCE_COMMENT>
InChI=1S/C15H13FN2O2/c16-12-7-3-1-5-10(12)9-18-13-8-4-2-6-11(13)14(17)15(19)20/h1-8,17-18H,9H2,(H,19,20)
InChIKey=FIRLEIIPQHAAPA-UHFFFAOYSA-N

> <PUBCHEM_SUBSTANCE_SYNONYM>
SCHEMBL16124992

> <PUBCHEM_XREF_EXT_ID>
SCHEMBL16124992

> <PUBCHEM_EXT_DATASOURCE_URL>
https://www.surechembl.org/

> <PUBCHEM_EXT_SUBSTANCE_URL>
https://www.surechembl.org/chemical/SCHEMBL16124992

> <PUBCHEM_CID_ASSOCIATIONS>
117612726  1

> <PUBCHEM_COORDINATE_TYPE>
1
3

$$$$
