310933145
  -OEChem-07211613022D

 34 38  0     0  0  0  0  0  0999 V2000
    8.7751   -4.3125    0.0000 O   0  0  0  0  0  0  0  0  0  0  0  0
   10.4252   -4.3125    0.0000 O   0  0  0  0  0  0  0  0  0  0  0  0
    7.9501   -1.4625    0.0000 N   0  0  0  0  0  0  0  0  0  0  0  0
    9.1877   -0.7125    0.0000 N   0  0  0  0  0  0  0  0  0  0  0  0
   10.4252   -1.4625    0.0000 N   0  0  0  0  0  0  0  0  0  0  0  0
    6.2626   -1.4625    0.0000 N   0  0  0  0  0  0  0  0  0  0  0  0
    4.9876   -0.7500    0.0000 N   0  0  0  0  0  0  0  0  0  0  0  0
    4.9876   -2.1751    0.0000 N   0  0  0  0  0  0  0  0  0  0  0  0
    2.9250   -1.4625    0.0000 N   0  0  0  0  0  0  0  0  0  0  0  0
    9.1877   -2.1751    0.0000 C   0  0  0  0  0  0  0  0  0  0  0  0
    8.7751   -1.4625    0.0000 C   0  0  0  0  0  0  0  0  0  0  0  0
   10.0127   -2.1751    0.0000 C   0  0  0  0  0  0  0  0  0  0  0  0
    8.7751   -2.8875    0.0000 C   0  0  0  0  0  0  0  0  0  0  0  0
    9.1877   -3.6001    0.0000 C   0  0  0  0  0  0  0  0  0  0  0  0
   10.0127   -3.6001    0.0000 C   0  0  0  0  0  0  0  0  0  0  0  0
   10.4252   -2.8875    0.0000 C   0  0  0  0  0  0  0  0  0  0  0  0
    7.5376   -0.7500    0.0000 C   0  0  0  0  0  0  0  0  0  0  0  0
    7.5376   -2.1751    0.0000 C   0  0  0  0  0  0  0  0  0  0  0  0
   10.0127   -0.7125    0.0000 C   0  0  0  0  0  0  0  0  0  0  0  0
    5.4376   -1.4625    0.0000 C   0  0  0  0  0  0  0  0  0  0  0  0
    6.6751   -2.1751    0.0000 C   0  0  0  0  0  0  0  0  0  0  0  0
    6.6751   -0.7500    0.0000 C   0  0  0  0  0  0  0  0  0  0  0  0
    3.7500   -1.4625    0.0000 C   0  0  0  0  0  0  0  0  0  0  0  0
    4.2001   -0.7500    0.0000 C   0  0  0  0  0  0  0  0  0  0  0  0
    4.2001   -2.1751    0.0000 C   0  0  0  0  0  0  0  0  0  0  0  0
    9.1877   -5.0251    0.0000 C   0  0  0  0  0  0  0  0  0  0  0  0
   11.2502   -4.3125    0.0000 C   0  0  0  0  0  0  0  0  0  0  0  0
    2.5125   -0.7125    0.0000 C   0  0  0  0  0  0  0  0  0  0  0  0
    1.6875   -0.7125    0.0000 C   0  0  0  0  0  0  0  0  0  0  0  0
    1.2750    0.0000    0.0000 C   0  0  0  0  0  0  0  0  0  0  0  0
    1.2375   -1.4250    0.0000 C   0  0  0  0  0  0  0  0  0  0  0  0
    0.4125    0.0000    0.0000 C   0  0  0  0  0  0  0  0  0  0  0  0
    0.4125   -1.4250    0.0000 C   0  0  0  0  0  0  0  0  0  0  0  0
    0.0000   -0.7125    0.0000 C   0  0  0  0  0  0  0  0  0  0  0  0
  1 14  1  0  0  0  0
  1 26  1  0  0  0  0
  2 15  1  0  0  0  0
  2 27  1  0  0  0  0
  3 11  1  0  0  0  0
  3 17  1  0  0  0  0
  3 18  1  0  0  0  0
  4 11  1  0  0  0  0
  4 19  2  0  0  0  0
  5 12  2  0  0  0  0
  5 19  1  0  0  0  0
  6 20  1  0  0  0  0
  6 21  1  0  0  0  0
  6 22  1  0  0  0  0
  7 20  2  0  0  0  0
  7 24  1  0  0  0  0
  8 20  1  0  0  0  0
  8 25  2  0  0  0  0
  9 23  1  0  0  0  0
  9 28  1  0  0  0  0
 10 11  2  0  0  0  0
 10 12  1  0  0  0  0
 10 13  1  0  0  0  0
 12 16  1  0  0  0  0
 13 14  2  0  0  0  0
 14 15  1  0  0  0  0
 15 16  2  0  0  0  0
 17 22  1  0  0  0  0
 18 21  1  0  0  0  0
 23 24  2  0  0  0  0
 23 25  1  0  0  0  0
 28 29  1  0  0  0  0
 29 30  2  0  0  0  0
 29 31  1  0  0  0  0
 30 32  1  0  0  0  0
 31 33  2  0  0  0  0
 32 34  2  0  0  0  0
 33 34  1  0  0  0  0
M  END
> <PUBCHEM_COMPOUND_ID_TYPE>
0

> <PUBCHEM_TOTAL_CHARGE>
0

> <PUBCHEM_SUBSTANCE_ID>
310933145

> <PUBCHEM_SUBSTANCE_VERSION>
1

> <PUBCHEM_EXT_DATASOURCE_NAME>
4488

> <PUBCHEM_EXT_DATASOURCE_REGID>
SCHEMBL16110553

> <PUBCHEM_SUBSTANCE_COMMENT>
InChI=1S/C25H27N7O2/c1-33-22-12-20-21(13-23(22)34-2)29-17-30-24(20)31-8-10-32(11-9-31)25-27-15-19(16-28-25)26-14-18-6-4-3-5-7-18/h3-7,12-13,15-17,26H,8-11,14H2,1-2H3
InChIKey=CHBMOUXLUYIHAW-UHFFFAOYSA-N

> <PUBCHEM_SUBSTANCE_SYNONYM>
SCHEMBL16110553

> <PUBCHEM_XREF_EXT_ID>
SCHEMBL16110553

> <PUBCHEM_EXT_DATASOURCE_URL>
https://www.surechembl.org/

> <PUBCHEM_EXT_SUBSTANCE_URL>
https://www.surechembl.org/chemical/SCHEMBL16110553

> <PUBCHEM_CID_ASSOCIATIONS>
117601597  1

> <PUBCHEM_COORDINATE_TYPE>
1
3

$$$$
