310943540
  -OEChem-07211613022D

 37 41  0     0  0  0  0  0  0999 V2000
    4.6953    2.4330    0.0000 F   0  0  0  0  0  0  0  0  0  0  0  0
    5.4082    1.1932    0.0000 F   0  0  0  0  0  0  0  0  0  0  0  0
   -2.5414   -2.8513    0.0000 O   0  0  0  0  0  0  0  0  0  0  0  0
   -5.4392    2.4330    0.0000 O   0  0  0  0  0  0  0  0  0  0  0  0
    1.7975    2.4330    0.0000 O   0  0  0  0  0  0  0  0  0  0  0  0
   -2.5414   -0.8678    0.0000 N   0  0  0  0  0  0  0  0  0  0  0  0
   -3.2542    0.3719    0.0000 N   0  0  0  0  0  0  0  0  0  0  0  0
   -3.9826    1.6116    0.0000 N   0  0  0  0  0  0  0  0  0  0  0  0
    1.0848    1.1932    0.0000 N   0  0  0  0  0  0  0  0  0  0  0  0
    3.9671    0.3719    0.0000 N   0  0  0  0  0  0  0  0  0  0  0  0
   -1.8131    1.2087    0.0000 C   0  0  0  0  0  0  0  0  0  0  0  0
   -2.5259   -0.0310    0.0000 C   0  0  0  0  0  0  0  0  0  0  0  0
   -1.1002    1.6116    0.0000 C   0  0  0  0  0  0  0  0  0  0  0  0
   -3.2542    1.2087    0.0000 C   0  0  0  0  0  0  0  0  0  0  0  0
   -1.8286    0.3719    0.0000 C   0  0  0  0  0  0  0  0  0  0  0  0
   -2.5414    1.6116    0.0000 C   0  0  0  0  0  0  0  0  0  0  0  0
   -1.0848    2.4330    0.0000 C   0  0  0  0  0  0  0  0  0  0  0  0
   -0.3719    1.2087    0.0000 C   0  0  0  0  0  0  0  0  0  0  0  0
   -3.1148   -1.4411    0.0000 C   0  0  0  0  0  0  0  0  0  0  0  0
   -1.9526   -1.4411    0.0000 C   0  0  0  0  0  0  0  0  0  0  0  0
   -2.5259   -1.9990    0.0000 C   0  0  0  0  0  0  0  0  0  0  0  0
    0.3409    1.6271    0.0000 C   0  0  0  0  0  0  0  0  0  0  0  0
   -0.3719    2.8358    0.0000 C   0  0  0  0  0  0  0  0  0  0  0  0
    2.5259    1.2087    0.0000 C   0  0  0  0  0  0  0  0  0  0  0  0
    1.7975    1.5961    0.0000 C   0  0  0  0  0  0  0  0  0  0  0  0
    0.3409    2.4330    0.0000 C   0  0  0  0  0  0  0  0  0  0  0  0
    3.9826    1.2087    0.0000 C   0  0  0  0  0  0  0  0  0  0  0  0
    4.7109    1.6116    0.0000 C   0  0  0  0  0  0  0  0  0  0  0  0
    3.2388    1.6116    0.0000 C   0  0  0  0  0  0  0  0  0  0  0  0
   -3.9826    2.4330    0.0000 C   0  0  0  0  0  0  0  0  0  0  0  0
   -4.6799    1.2087    0.0000 C   0  0  0  0  0  0  0  0  0  0  0  0
    2.5259    0.3874    0.0000 C   0  0  0  0  0  0  0  0  0  0  0  0
   -1.8286    2.8358    0.0000 C   0  0  0  0  0  0  0  0  0  0  0  0
    3.2542   -0.0310    0.0000 C   0  0  0  0  0  0  0  0  0  0  0  0
   -4.7109    2.8513    0.0000 C   0  0  0  0  0  0  0  0  0  0  0  0
   -5.4237    1.6116    0.0000 C   0  0  0  0  0  0  0  0  0  0  0  0
    5.4392    2.0145    0.0000 C   0  0  0  0  0  0  0  0  0  0  0  0
  1 28  1  0  0  0  0
  2 28  1  0  0  0  0
  3 21  1  0  0  0  0
  4 35  1  0  0  0  0
  4 36  1  0  0  0  0
  5 25  2  0  0  0  0
  6 12  1  0  0  0  0
  6 19  1  0  0  0  0
  6 20  1  0  0  0  0
  7 12  1  0  0  0  0
  7 14  2  0  0  0  0
  8 14  1  0  0  0  0
  8 30  1  0  0  0  0
  8 31  1  0  0  0  0
  9 22  1  0  0  0  0
  9 25  1  0  0  0  0
 10 27  1  0  0  0  0
 10 34  2  0  0  0  0
 11 13  1  0  0  0  0
 11 15  1  0  0  0  0
 11 16  2  0  0  0  0
 12 15  2  0  0  0  0
 13 17  1  0  0  0  0
 13 18  2  0  0  0  0
 14 16  1  0  0  0  0
 17 23  2  0  0  0  0
 17 33  1  0  0  0  0
 18 22  1  0  0  0  0
 19 21  1  0  0  0  0
 20 21  1  0  0  0  0
 22 26  2  0  0  0  0
 23 26  1  0  0  0  0
 24 25  1  0  0  0  0
 24 29  1  0  0  0  0
 24 32  2  0  0  0  0
 27 28  1  0  0  0  0
 27 29  2  0  0  0  0
 28 37  1  0  0  0  0
 30 35  1  0  0  0  0
 31 36  1  0  0  0  0
 32 34  1  0  0  0  0
M  END
> <PUBCHEM_COMPOUND_ID_TYPE>
0

> <PUBCHEM_TOTAL_CHARGE>
0

> <PUBCHEM_SUBSTANCE_ID>
310943540

> <PUBCHEM_SUBSTANCE_VERSION>
1

> <PUBCHEM_EXT_DATASOURCE_NAME>
4488

> <PUBCHEM_EXT_DATASOURCE_REGID>
SCHEMBL16121606

> <PUBCHEM_SUBSTANCE_COMMENT>
InChI=1S/C27H29F2N5O3/c1-17-3-4-20(31-26(36)18-5-6-30-23(11-18)27(2,28)29)14-22(17)19-12-24(33-7-9-37-10-8-33)32-25(13-19)34-15-21(35)16-34/h3-6,11-14,21,35H,7-10,15-16H2,1-2H3,(H,31,36)
InChIKey=IBINNYRGHRQIFO-UHFFFAOYSA-N

> <PUBCHEM_SUBSTANCE_SYNONYM>
SCHEMBL16121606

> <PUBCHEM_XREF_EXT_ID>
SCHEMBL16121606

> <PUBCHEM_EXT_DATASOURCE_URL>
https://www.surechembl.org/

> <PUBCHEM_EXT_SUBSTANCE_URL>
https://www.surechembl.org/chemical/SCHEMBL16121606

> <PUBCHEM_CID_ASSOCIATIONS>
117609953  1

> <PUBCHEM_COORDINATE_TYPE>
1
3

$$$$
