310936276
  -OEChem-07211613022D

 15 16  0     0  0  0  0  0  0999 V2000
    0.7218    0.0000    0.0000 F   0  0  0  0  0  0  0  0  0  0  0  0
    2.8874   -2.1140    0.0000 O   0  0  0  0  0  0  0  0  0  0  0  0
    2.1484    0.0000    0.0000 O   0  0  0  0  0  0  0  0  0  0  0  0
    2.8531   -1.2203    0.0000 O   0  0  0  0  0  0  0  0  0  0  0  0
    2.2171   -3.2656    0.0000 N   0  0  0  0  0  0  0  0  0  0  0  0
    1.4265   -2.0453    0.0000 C   0  0  0  0  0  0  0  0  0  0  0  0
    1.4265   -1.2203    0.0000 C   0  0  0  0  0  0  0  0  0  0  0  0
    2.1484   -2.4578    0.0000 C   0  0  0  0  0  0  0  0  0  0  0  0
    0.7218   -0.8078    0.0000 C   0  0  0  0  0  0  0  0  0  0  0  0
    2.1484   -0.8078    0.0000 C   0  0  0  0  0  0  0  0  0  0  0  0
    0.7218   -2.4578    0.0000 C   0  0  0  0  0  0  0  0  0  0  0  0
    0.0000   -1.2203    0.0000 C   0  0  0  0  0  0  0  0  0  0  0  0
    0.0000   -2.0453    0.0000 C   0  0  0  0  0  0  0  0  0  0  0  0
    3.4374   -2.7327    0.0000 C   0  0  0  0  0  0  0  0  0  0  0  0
    3.0249   -3.4374    0.0000 C   0  0  0  0  0  0  0  0  0  0  0  0
  1  9  1  0  0  0  0
  2  8  1  0  0  0  0
  2 14  1  0  0  0  0
  3 10  2  0  0  0  0
  4 10  1  0  0  0  0
  5  8  2  0  0  0  0
  5 15  1  0  0  0  0
  6  7  1  0  0  0  0
  6  8  1  0  0  0  0
  6 11  2  0  0  0  0
  7  9  2  0  0  0  0
  7 10  1  0  0  0  0
  9 12  1  0  0  0  0
 11 13  1  0  0  0  0
 12 13  2  0  0  0  0
 14 15  2  0  0  0  0
M  END
> <PUBCHEM_COMPOUND_ID_TYPE>
0

> <PUBCHEM_TOTAL_CHARGE>
0

> <PUBCHEM_SUBSTANCE_ID>
310936276

> <PUBCHEM_SUBSTANCE_VERSION>
1

> <PUBCHEM_EXT_DATASOURCE_NAME>
4488

> <PUBCHEM_EXT_DATASOURCE_REGID>
SCHEMBL16113897

> <PUBCHEM_SUBSTANCE_COMMENT>
InChI=1S/C10H6FNO3/c11-7-3-1-2-6(8(7)10(13)14)9-12-4-5-15-9/h1-5H,(H,13,14)
InChIKey=GQGGMBFCOUPQNK-UHFFFAOYSA-N

> <PUBCHEM_SUBSTANCE_SYNONYM>
SCHEMBL16113897

> <PUBCHEM_XREF_EXT_ID>
SCHEMBL16113897

> <PUBCHEM_EXT_DATASOURCE_URL>
https://www.surechembl.org/

> <PUBCHEM_EXT_SUBSTANCE_URL>
https://www.surechembl.org/chemical/SCHEMBL16113897

> <PUBCHEM_CID_ASSOCIATIONS>
117604219  1

> <PUBCHEM_COORDINATE_TYPE>
1
3

$$$$
