310946831
  -OEChem-07211613022D

 31 33  0     0  0  0  0  0  0999 V2000
   -3.9187   -0.5317    0.0000 O   0  0  0  0  0  0  0  0  0  0  0  0
   -5.4920    1.7280    0.0000 O   0  0  0  0  0  0  0  0  0  0  0  0
   -0.6187   -0.5317    0.0000 N   0  0  0  0  0  0  0  0  0  0  0  0
    2.6813   -0.5317    0.0000 N   0  0  0  0  0  0  0  0  0  0  0  0
   -4.0530    0.8972    0.0000 N   0  0  0  0  0  0  0  0  0  0  0  0
   -1.8563   -1.2462    0.0000 C   0  0  0  0  0  0  0  0  0  0  0  0
   -2.6813   -1.2462    0.0000 C   0  0  0  0  0  0  0  0  0  0  0  0
   -1.4437   -0.5317    0.0000 C   0  0  0  0  0  0  0  0  0  0  0  0
   -3.0937   -0.5317    0.0000 C   0  0  0  0  0  0  0  0  0  0  0  0
   -2.6813    0.1828    0.0000 C   0  0  0  0  0  0  0  0  0  0  0  0
   -1.8563    0.1828    0.0000 C   0  0  0  0  0  0  0  0  0  0  0  0
   -1.4437   -1.9607    0.0000 C   0  0  0  0  0  0  0  0  0  0  0  0
   -3.0937   -1.9607    0.0000 C   0  0  0  0  0  0  0  0  0  0  0  0
    0.2063   -0.5317    0.0000 C   0  0  0  0  0  0  0  0  0  0  0  0
   -3.0937    0.8972    0.0000 C   0  0  0  0  0  0  0  0  0  0  0  0
   -1.8563   -2.6751    0.0000 C   0  0  0  0  0  0  0  0  0  0  0  0
   -2.6813   -2.6751    0.0000 C   0  0  0  0  0  0  0  0  0  0  0  0
    1.8563   -0.5317    0.0000 C   0  0  0  0  0  0  0  0  0  0  0  0
    0.6187   -1.2462    0.0000 C   0  0  0  0  0  0  0  0  0  0  0  0
    0.6187    0.1828    0.0000 C   0  0  0  0  0  0  0  0  0  0  0  0
    1.4437   -1.2462    0.0000 C   0  0  0  0  0  0  0  0  0  0  0  0
    1.4437    0.1828    0.0000 C   0  0  0  0  0  0  0  0  0  0  0  0
    3.0937    0.1828    0.0000 C   0  0  0  0  0  0  0  0  0  0  0  0
    3.0937   -1.2462    0.0000 C   0  0  0  0  0  0  0  0  0  0  0  0
   -4.5327    1.7280    0.0000 C   0  0  0  0  0  0  0  0  0  0  0  0
    2.6141    1.0136    0.0000 C   0  0  0  0  0  0  0  0  0  0  0  0
    4.0530   -1.2462    0.0000 C   0  0  0  0  0  0  0  0  0  0  0  0
    3.0937    1.8443    0.0000 C   0  0  0  0  0  0  0  0  0  0  0  0
    4.5327   -2.0770    0.0000 C   0  0  0  0  0  0  0  0  0  0  0  0
    2.6141    2.6751    0.0000 C   0  0  0  0  0  0  0  0  0  0  0  0
    5.4920   -2.0770    0.0000 C   0  0  0  0  0  0  0  0  0  0  0  0
  1  9  2  0  0  0  0
  2 25  2  0  0  0  0
  3  8  2  3  0  0  0
  3 14  1  0  0  0  0
  4 18  1  0  0  0  0
  4 23  1  0  0  0  0
  4 24  1  0  0  0  0
  5 15  1  0  0  0  0
  5 25  1  0  0  0  0
  6  7  1  0  0  0  0
  6  8  1  0  0  0  0
  6 12  2  0  0  0  0
  7  9  1  0  0  0  0
  7 13  2  0  0  0  0
  8 11  1  0  0  0  0
  9 10  1  0  0  0  0
 10 11  2  0  0  0  0
 10 15  1  0  0  0  0
 12 16  1  0  0  0  0
 13 17  1  0  0  0  0
 14 19  2  0  0  0  0
 14 20  1  0  0  0  0
 16 17  2  0  0  0  0
 18 21  2  0  0  0  0
 18 22  1  0  0  0  0
 19 21  1  0  0  0  0
 20 22  2  0  0  0  0
 23 26  1  0  0  0  0
 24 27  1  0  0  0  0
 26 28  1  0  0  0  0
 27 29  1  0  0  0  0
 28 30  1  0  0  0  0
 29 31  1  0  0  0  0
M  END
> <PUBCHEM_COMPOUND_ID_TYPE>
0

> <PUBCHEM_TOTAL_CHARGE>
0

> <PUBCHEM_SUBSTANCE_ID>
310946831

> <PUBCHEM_SUBSTANCE_VERSION>
1

> <PUBCHEM_EXT_DATASOURCE_NAME>
4488

> <PUBCHEM_EXT_DATASOURCE_REGID>
SCHEMBL16124955

> <PUBCHEM_SUBSTANCE_COMMENT>
InChI=1S/C26H31N3O2/c1-3-5-15-29(16-6-4-2)22-13-11-21(12-14-22)28-25-17-20(18-27-19-30)26(31)24-10-8-7-9-23(24)25/h7-14,17,19H,3-6,15-16,18H2,1-2H3,(H,27,30)
InChIKey=QEBAWPJCOCBLCH-UHFFFAOYSA-N

> <PUBCHEM_SUBSTANCE_SYNONYM>
SCHEMBL16124955

> <PUBCHEM_XREF_EXT_ID>
SCHEMBL16124955

> <PUBCHEM_EXT_DATASOURCE_URL>
https://www.surechembl.org/

> <PUBCHEM_EXT_SUBSTANCE_URL>
https://www.surechembl.org/chemical/SCHEMBL16124955

> <PUBCHEM_CID_ASSOCIATIONS>
117612690  1

> <PUBCHEM_COORDINATE_TYPE>
1
3

$$$$
