310939481
  -OEChem-07211613022D

 23 26  0     1  0  0  0  0  0999 V2000
    2.8277   -0.0115    0.0000 O   0  0  0  0  0  0  0  0  0  0  0  0
   -3.4408    1.2129    0.0000 O   0  0  0  0  0  0  0  0  0  0  0  0
    0.8460    1.2129    0.0000 N   0  0  0  0  0  0  0  0  0  0  0  0
    0.1315    0.8004    0.0000 N   0  0  0  0  0  0  0  0  0  0  0  0
    1.6306    2.2928    0.0000 N   0  0  0  0  0  0  0  0  0  0  0  0
   -1.2974    0.8004    0.0000 N   0  0  0  0  0  0  0  0  0  0  0  0
    1.6306    0.9580    0.0000 C   0  0  0  0  0  0  0  0  0  0  0  0
    2.0431    0.2435    0.0000 C   0  0  0  0  0  0  0  0  0  0  0  0
    0.8460    2.0379    0.0000 C   0  0  0  0  0  0  0  0  0  0  0  0
    2.8277   -0.8365    0.0000 C   0  0  0  0  0  0  0  0  0  0  0  0
    2.0431   -1.0914    0.0000 C   0  0  0  0  0  0  0  0  0  0  0  0
    2.1155    1.6254    0.0000 C   0  0  0  0  0  0  0  0  0  0  0  0
    1.5582   -0.4240    0.0000 C   0  0  0  0  0  0  0  0  0  0  0  0
   -0.5829    1.2129    0.0000 C   0  0  0  0  0  0  0  0  0  0  0  0
    0.1315    2.4504    0.0000 C   0  0  0  0  0  0  0  0  0  0  0  0
   -0.5829    2.0379    0.0000 C   0  0  0  0  0  0  0  0  0  0  0  0
    3.4408   -1.3885    0.0000 C   0  0  0  0  0  0  0  0  0  0  0  0
    1.8716   -1.8984    0.0000 C   0  0  0  0  0  0  0  0  0  0  0  0
    3.2693   -2.1955    0.0000 C   0  0  0  0  0  0  0  0  0  0  0  0
    2.4847   -2.4504    0.0000 C   0  0  0  0  0  0  0  0  0  0  0  0
   -2.0119    1.2129    0.0000 C   0  0  0  0  0  0  0  0  0  0  0  0
   -2.7264    0.8004    0.0000 C   0  0  3  0  0  0  0  0  0  0  0  0
   -2.7264   -0.0246    0.0000 C   0  0  0  0  0  0  0  0  0  0  0  0
  1  8  1  0  0  0  0
  1 10  1  0  0  0  0
 22  2  1  1  0  0  0
  3  4  1  0  0  0  0
  3  7  1  0  0  0  0
  3  9  1  0  0  0  0
  4 14  2  0  0  0  0
  5  9  2  0  0  0  0
  5 12  1  0  0  0  0
  6 14  1  0  0  0  0
  6 21  1  0  0  0  0
  7  8  1  0  0  0  0
  7 12  2  0  0  0  0
  8 13  2  0  0  0  0
  9 15  1  0  0  0  0
 10 11  2  0  0  0  0
 10 17  1  0  0  0  0
 11 13  1  0  0  0  0
 11 18  1  0  0  0  0
 14 16  1  0  0  0  0
 15 16  2  0  0  0  0
 17 19  2  0  0  0  0
 18 20  2  0  0  0  0
 19 20  1  0  0  0  0
 21 22  1  0  0  0  0
 22 23  1  0  0  0  0
M  END
> <PUBCHEM_COMPOUND_ID_TYPE>
0

> <PUBCHEM_TOTAL_CHARGE>
0

> <PUBCHEM_SUBSTANCE_ID>
310939481

> <PUBCHEM_SUBSTANCE_VERSION>
1

> <PUBCHEM_EXT_DATASOURCE_NAME>
4488

> <PUBCHEM_EXT_DATASOURCE_REGID>
SCHEMBL16117410

> <PUBCHEM_SUBSTANCE_COMMENT>
InChI=1S/C17H16N4O2/c1-11(22)9-18-16-6-7-17-19-10-13(21(17)20-16)15-8-12-4-2-3-5-14(12)23-15/h2-8,10-11,22H,9H2,1H3,(H,18,20)/t11-/m1/s1
InChIKey=GQBQUHIYUGPPAX-LLVKDONJSA-N

> <PUBCHEM_SUBSTANCE_SYNONYM>
SCHEMBL16117410

> <PUBCHEM_XREF_EXT_ID>
SCHEMBL16117410

> <PUBCHEM_EXT_DATASOURCE_URL>
https://www.surechembl.org/

> <PUBCHEM_EXT_SUBSTANCE_URL>
https://www.surechembl.org/chemical/SCHEMBL16117410

> <PUBCHEM_CID_ASSOCIATIONS>
117606791  1

> <PUBCHEM_COORDINATE_TYPE>
1
3

> <PUBCHEM_BONDANNOTATIONS>
22  2  5

$$$$
