310948856
  -OEChem-07211613022D

 40 43  0     1  0  0  0  0  0999 V2000
    3.9180    0.4671    0.0000 F   0  0  0  0  0  0  0  0  0  0  0  0
    4.2388   -0.6344    0.0000 F   0  0  0  0  0  0  0  0  0  0  0  0
    3.1233   -0.9272    0.0000 F   0  0  0  0  0  0  0  0  0  0  0  0
   -3.0117   -0.4114    0.0000 O   0  0  0  0  0  0  0  0  0  0  0  0
   -4.2666    0.2300    0.0000 O   0  0  0  0  0  0  0  0  0  0  0  0
   -0.0976    2.6840    0.0000 O   0  0  0  0  0  0  0  0  0  0  0  0
    0.6135   -0.2161    0.0000 N   0  0  3  0  0  0  0  0  0  0  0  0
    0.6135    1.4571    0.0000 N   0  0  0  0  0  0  0  0  0  0  0  0
   -2.3285    1.4571    0.0000 C   0  0  3  0  0  0  0  0  0  0  0  0
   -3.0117    1.0527    0.0000 C   0  0  3  0  0  0  0  0  0  0  0  0
   -1.5337    1.0109    0.0000 C   0  0  0  0  0  0  0  0  0  0  0  0
   -3.0117    1.8475    0.0000 C   0  0  0  0  0  0  0  0  0  0  0  0
   -0.1115    0.2161    0.0000 C   0  0  0  0  0  0  0  0  0  0  0  0
   -0.0976    1.0388    0.0000 C   0  0  0  0  0  0  0  0  0  0  0  0
   -0.8366    1.4292    0.0000 C   0  0  0  0  0  0  0  0  0  0  0  0
   -3.4440    0.2858    0.0000 C   0  0  0  0  0  0  0  0  0  0  0  0
   -1.5617    0.2161    0.0000 C   0  0  0  0  0  0  0  0  0  0  0  0
   -0.8226   -0.2022    0.0000 C   0  0  0  0  0  0  0  0  0  0  0  0
    0.6135   -1.0388    0.0000 C   0  0  0  0  0  0  0  0  0  0  0  0
    1.3525    0.2022    0.0000 C   0  0  0  0  0  0  0  0  0  0  0  0
    0.6414    2.2797    0.0000 C   0  0  0  0  0  0  0  0  0  0  0  0
    2.0775   -0.2022    0.0000 C   0  0  3  0  0  0  0  0  0  0  0  0
   -0.0976   -1.4571    0.0000 C   0  0  0  0  0  0  0  0  0  0  0  0
    1.3386   -1.4571    0.0000 C   0  0  0  0  0  0  0  0  0  0  0  0
    1.3386    2.6980    0.0000 C   0  0  0  0  0  0  0  0  0  0  0  0
   -3.3882   -1.1224    0.0000 C   0  0  0  0  0  0  0  0  0  0  0  0
    2.7886    0.2022    0.0000 C   0  0  0  0  0  0  0  0  0  0  0  0
   -0.0976   -2.2797    0.0000 C   0  0  0  0  0  0  0  0  0  0  0  0
    1.3386   -2.2797    0.0000 C   0  0  0  0  0  0  0  0  0  0  0  0
    2.0775    2.2797    0.0000 C   0  0  0  0  0  0  0  0  0  0  0  0
    3.5137   -0.2300    0.0000 C   0  0  0  0  0  0  0  0  0  0  0  0
    0.6274   -2.6980    0.0000 C   0  0  0  0  0  0  0  0  0  0  0  0
    2.0915   -1.0527    0.0000 C   0  0  0  0  0  0  0  0  0  0  0  0
    2.0775    1.4571    0.0000 C   0  0  0  0  0  0  0  0  0  0  0  0
    2.7886    2.6840    0.0000 C   0  0  0  0  0  0  0  0  0  0  0  0
   -4.2248   -1.1363    0.0000 C   0  0  0  0  0  0  0  0  0  0  0  0
    3.5137    1.4571    0.0000 C   0  0  0  0  0  0  0  0  0  0  0  0
    2.8026    1.0388    0.0000 C   0  0  0  0  0  0  0  0  0  0  0  0
    3.5137    2.2797    0.0000 C   0  0  0  0  0  0  0  0  0  0  0  0
    4.2666    1.0109    0.0000 C   0  0  0  0  0  0  0  0  0  0  0  0
  1 31  1  0  0  0  0
  2 31  1  0  0  0  0
  3 31  1  0  0  0  0
  4 16  1  0  0  0  0
  4 26  1  0  0  0  0
  5 16  2  0  0  0  0
  6 21  2  0  0  0  0
  7 13  1  0  0  0  0
  7 19  1  0  0  0  0
  7 20  1  0  0  0  0
  8 14  1  0  0  0  0
  8 21  1  0  0  0  0
  9 10  1  0  0  0  0
  9 11  1  0  0  0  0
  9 12  1  1  0  0  0
 10 12  1  0  0  0  0
 10 16  1  1  0  0  0
 11 15  1  0  0  0  0
 11 17  2  0  0  0  0
 13 14  1  0  0  0  0
 13 18  2  0  0  0  0
 14 15  2  0  0  0  0
 17 18  1  0  0  0  0
 19 23  1  0  0  0  0
 19 24  1  0  0  0  0
 20 22  1  0  0  0  0
 21 25  1  0  0  0  0
 22 27  1  0  0  0  0
 22 33  1  0  0  0  0
 23 28  1  0  0  0  0
 24 29  1  0  0  0  0
 25 30  1  0  0  0  0
 26 36  1  0  0  0  0
 27 31  1  0  0  0  0
 28 32  1  0  0  0  0
 29 32  1  0  0  0  0
 30 34  2  0  0  0  0
 30 35  1  0  0  0  0
 34 38  1  0  0  0  0
 35 39  2  0  0  0  0
 37 38  2  0  0  0  0
 37 39  1  0  0  0  0
 37 40  1  0  0  0  0
M  END
> <PUBCHEM_COMPOUND_ID_TYPE>
0

> <PUBCHEM_TOTAL_CHARGE>
0

> <PUBCHEM_SUBSTANCE_ID>
310948856

> <PUBCHEM_SUBSTANCE_VERSION>
1

> <PUBCHEM_EXT_DATASOURCE_NAME>
4488

> <PUBCHEM_EXT_DATASOURCE_REGID>
SCHEMBL16127041

> <PUBCHEM_SUBSTANCE_COMMENT>
InChI=1S/C32H41F3N2O3/c1-4-40-31(39)27-18-26(27)24-14-15-29(28(17-24)36-30(38)16-23-12-10-21(2)11-13-23)37(25-8-6-5-7-9-25)20-22(3)19-32(33,34)35/h10-15,17,22,25-27H,4-9,16,18-20H2,1-3H3,(H,36,38)/t22?,26-,27-/m0/s1
InChIKey=CUXWQEPWCIQJMW-ILRLXPBVSA-N

> <PUBCHEM_SUBSTANCE_SYNONYM>
SCHEMBL16127041

> <PUBCHEM_XREF_EXT_ID>
SCHEMBL16127041

> <PUBCHEM_EXT_DATASOURCE_URL>
https://www.surechembl.org/

> <PUBCHEM_EXT_SUBSTANCE_URL>
https://www.surechembl.org/chemical/SCHEMBL16127041

> <PUBCHEM_CID_ASSOCIATIONS>
117614391  1

> <PUBCHEM_COORDINATE_TYPE>
1
3

> <PUBCHEM_BONDANNOTATIONS>
10  16  5
9  12  5

$$$$
