310935577
  -OEChem-07211613022D

 13 13  0     0  0  0  0  0  0999 V2000
    4.1244   -2.8943    0.0000 F   0  0  0  0  0  0  0  0  0  0  0  0
    1.6497   -1.4472    0.0000 O   0  0  0  0  0  0  0  0  0  0  0  0
    1.6353    0.0000    0.0000 N   0  0  0  0  0  0  0  0  0  0  0  0
    2.4746   -1.4472    0.0000 C   0  0  0  0  0  0  0  0  0  0  0  0
    2.8799   -0.7236    0.0000 C   0  0  0  0  0  0  0  0  0  0  0  0
    2.8799   -2.1563    0.0000 C   0  0  0  0  0  0  0  0  0  0  0  0
    3.7047   -2.1708    0.0000 C   0  0  0  0  0  0  0  0  0  0  0  0
    3.7192   -0.7380    0.0000 C   0  0  0  0  0  0  0  0  0  0  0  0
    4.1389   -1.4472    0.0000 C   0  0  0  0  0  0  0  0  0  0  0  0
    2.4602    0.0000    0.0000 C   0  0  0  0  0  0  0  0  0  0  0  0
    1.2301   -2.1708    0.0000 C   0  0  0  0  0  0  0  0  0  0  0  0
    0.4052   -2.1852    0.0000 C   0  0  0  0  0  0  0  0  0  0  0  0
    0.0000   -2.8943    0.0000 C   0  0  0  0  0  0  0  0  0  0  0  0
  1  7  1  0  0  0  0
  2  4  1  0  0  0  0
  2 11  1  0  0  0  0
  3 10  1  0  0  0  0
  4  5  1  0  0  0  0
  4  6  2  0  0  0  0
  5  8  2  0  0  0  0
  5 10  1  0  0  0  0
  6  7  1  0  0  0  0
  7  9  2  0  0  0  0
  8  9  1  0  0  0  0
 11 12  1  0  0  0  0
 12 13  2  0  0  0  0
M  END
> <PUBCHEM_COMPOUND_ID_TYPE>
0

> <PUBCHEM_TOTAL_CHARGE>
0

> <PUBCHEM_SUBSTANCE_ID>
310935577

> <PUBCHEM_SUBSTANCE_VERSION>
1

> <PUBCHEM_EXT_DATASOURCE_NAME>
4488

> <PUBCHEM_EXT_DATASOURCE_REGID>
SCHEMBL16113149

> <PUBCHEM_SUBSTANCE_COMMENT>
InChI=1S/C10H12FNO/c1-2-5-13-10-6-9(11)4-3-8(10)7-12/h2-4,6H,1,5,7,12H2
InChIKey=SWLDGWYLQLHNMA-UHFFFAOYSA-N

> <PUBCHEM_SUBSTANCE_SYNONYM>
SCHEMBL16113149

> <PUBCHEM_XREF_EXT_ID>
SCHEMBL16113149

> <PUBCHEM_EXT_DATASOURCE_URL>
https://www.surechembl.org/

> <PUBCHEM_EXT_SUBSTANCE_URL>
https://www.surechembl.org/chemical/SCHEMBL16113149

> <PUBCHEM_CID_ASSOCIATIONS>
117603592  1

> <PUBCHEM_COORDINATE_TYPE>
1
3

$$$$
