310947908
  -OEChem-07211613022D

 36 40  0     0  0  0  0  0  0999 V2000
    2.8579   -0.2062    0.0000 S   0  0  0  0  0  0  0  0  0  0  0  0
    3.2704    0.5082    0.0000 O   0  0  0  0  0  0  0  0  0  0  0  0
    2.4454    0.5082    0.0000 O   0  0  0  0  0  0  0  0  0  0  0  0
   -2.8579   -1.0313    0.0000 O   0  0  0  0  0  0  0  0  0  0  0  0
   -0.7145    1.8563    0.0000 O   0  0  0  0  0  0  0  0  0  0  0  0
    2.1434   -0.6187    0.0000 N   0  0  0  0  0  0  0  0  0  0  0  0
   -1.4289    0.6187    0.0000 N   0  0  0  0  0  0  0  0  0  0  0  0
    4.2868    0.6187    0.0000 N   0  0  0  0  0  0  0  0  0  0  0  0
    3.5724   -0.6187    0.0000 C   0  0  0  0  0  0  0  0  0  0  0  0
    4.2868   -0.2062    0.0000 C   0  0  0  0  0  0  0  0  0  0  0  0
   -2.8579   -0.2062    0.0000 C   0  0  0  0  0  0  0  0  0  0  0  0
    5.0013   -0.6187    0.0000 C   0  0  0  0  0  0  0  0  0  0  0  0
   -3.5724   -0.6187    0.0000 C   0  0  0  0  0  0  0  0  0  0  0  0
    1.4289   -0.2062    0.0000 C   0  0  0  0  0  0  0  0  0  0  0  0
    3.5724   -1.4437    0.0000 C   0  0  0  0  0  0  0  0  0  0  0  0
   -0.7145    1.0313    0.0000 C   0  0  0  0  0  0  0  0  0  0  0  0
    0.0000    0.6187    0.0000 C   0  0  0  0  0  0  0  0  0  0  0  0
   -2.8579    0.6187    0.0000 C   0  0  0  0  0  0  0  0  0  0  0  0
   -2.1434   -0.6187    0.0000 C   0  0  0  0  0  0  0  0  0  0  0  0
   -1.4289   -0.2062    0.0000 C   0  0  0  0  0  0  0  0  0  0  0  0
   -2.1434    1.0313    0.0000 C   0  0  0  0  0  0  0  0  0  0  0  0
    5.0013   -1.4437    0.0000 C   0  0  0  0  0  0  0  0  0  0  0  0
    4.2868   -1.8563    0.0000 C   0  0  0  0  0  0  0  0  0  0  0  0
    5.7158   -0.2062    0.0000 C   0  0  0  0  0  0  0  0  0  0  0  0
    0.7145   -0.6187    0.0000 C   0  0  0  0  0  0  0  0  0  0  0  0
    1.4289    0.6187    0.0000 C   0  0  0  0  0  0  0  0  0  0  0  0
    0.0000   -0.2062    0.0000 C   0  0  0  0  0  0  0  0  0  0  0  0
    0.7145    1.0313    0.0000 C   0  0  0  0  0  0  0  0  0  0  0  0
   -4.2868   -0.2062    0.0000 C   0  0  0  0  0  0  0  0  0  0  0  0
   -3.5724   -1.4437    0.0000 C   0  0  0  0  0  0  0  0  0  0  0  0
    5.0013    1.0313    0.0000 C   0  0  0  0  0  0  0  0  0  0  0  0
    5.7158    0.6187    0.0000 C   0  0  0  0  0  0  0  0  0  0  0  0
   -5.0013   -0.6187    0.0000 C   0  0  0  0  0  0  0  0  0  0  0  0
   -4.2868   -1.8563    0.0000 C   0  0  0  0  0  0  0  0  0  0  0  0
   -5.0013   -1.4437    0.0000 C   0  0  0  0  0  0  0  0  0  0  0  0
   -5.7158   -0.2062    0.0000 C   0  0  0  0  0  0  0  0  0  0  0  0
  1  2  2  0  0  0  0
  1  3  2  0  0  0  0
  1  6  1  0  0  0  0
  1  9  1  0  0  0  0
  4 11  1  0  0  0  0
  5 16  2  0  0  0  0
  6 14  1  0  0  0  0
  7 16  1  0  0  0  0
  7 20  1  0  0  0  0
  7 21  1  0  0  0  0
  8 10  1  0  0  0  0
  8 31  2  0  0  0  0
  9 10  1  0  0  0  0
  9 15  2  0  0  0  0
 10 12  2  0  0  0  0
 11 13  1  0  0  0  0
 11 18  1  0  0  0  0
 11 19  1  0  0  0  0
 12 22  1  0  0  0  0
 12 24  1  0  0  0  0
 13 29  2  0  0  0  0
 13 30  1  0  0  0  0
 14 25  2  0  0  0  0
 14 26  1  0  0  0  0
 15 23  1  0  0  0  0
 16 17  1  0  0  0  0
 17 27  2  0  0  0  0
 17 28  1  0  0  0  0
 18 21  1  0  0  0  0
 19 20  1  0  0  0  0
 22 23  2  0  0  0  0
 24 32  2  0  0  0  0
 25 27  1  0  0  0  0
 26 28  2  0  0  0  0
 29 33  1  0  0  0  0
 30 34  2  0  0  0  0
 31 32  1  0  0  0  0
 33 35  2  0  0  0  0
 33 36  1  0  0  0  0
 34 35  1  0  0  0  0
M  END
> <PUBCHEM_COMPOUND_ID_TYPE>
0

> <PUBCHEM_TOTAL_CHARGE>
0

> <PUBCHEM_SUBSTANCE_ID>
310947908

> <PUBCHEM_SUBSTANCE_VERSION>
1

> <PUBCHEM_EXT_DATASOURCE_NAME>
4488

> <PUBCHEM_EXT_DATASOURCE_REGID>
SCHEMBL16126082

> <PUBCHEM_SUBSTANCE_COMMENT>
InChI=1S/C28H27N3O4S/c1-20-5-2-8-23(19-20)28(33)14-17-31(18-15-28)27(32)22-10-12-24(13-11-22)30-36(34,35)25-9-3-6-21-7-4-16-29-26(21)25/h2-13,16,19,30,33H,14-15,17-18H2,1H3
InChIKey=KEPCOKSQBVYNJD-UHFFFAOYSA-N

> <PUBCHEM_SUBSTANCE_SYNONYM>
SCHEMBL16126082

> <PUBCHEM_XREF_EXT_ID>
SCHEMBL16126082

> <PUBCHEM_EXT_DATASOURCE_URL>
https://www.surechembl.org/

> <PUBCHEM_EXT_SUBSTANCE_URL>
https://www.surechembl.org/chemical/SCHEMBL16126082

> <PUBCHEM_CID_ASSOCIATIONS>
117613570  1

> <PUBCHEM_COORDINATE_TYPE>
1
3

$$$$
