310932581
  -OEChem-07211613022D

 30 34  0     0  0  0  0  0  0999 V2000
    0.0000   -1.2444    0.0000 F   0  0  0  0  0  0  0  0  0  0  0  0
    0.8573   -4.4523    0.0000 O   0  0  0  0  0  0  0  0  0  0  0  0
    6.3880   -3.3185    0.0000 O   0  0  0  0  0  0  0  0  0  0  0  0
    5.0606   -2.6547    0.0000 N   0  0  0  0  0  0  0  0  0  0  0  0
    5.0606   -3.9821    0.0000 N   0  0  0  0  0  0  0  0  0  0  0  0
    2.8207   -0.4425    0.0000 N   0  0  0  0  0  0  0  0  0  0  0  0
    1.2720   -5.1712    0.0000 N   0  0  0  0  0  0  0  0  0  0  0  0
    3.5673   -2.4888    0.0000 C   0  0  0  0  0  0  0  0  0  0  0  0
    4.2863   -2.9036    0.0000 C   0  0  0  0  0  0  0  0  0  0  0  0
    4.2863   -3.7609    0.0000 C   0  0  0  0  0  0  0  0  0  0  0  0
    2.8760   -3.7609    0.0000 C   0  0  0  0  0  0  0  0  0  0  0  0
    3.5397   -1.6869    0.0000 C   0  0  0  0  0  0  0  0  0  0  0  0
    2.1570   -4.1757    0.0000 C   0  0  0  0  0  0  0  0  0  0  0  0
    2.8760   -2.9036    0.0000 C   0  0  0  0  0  0  0  0  0  0  0  0
    3.5673   -4.1480    0.0000 C   0  0  0  0  0  0  0  0  0  0  0  0
    2.8483   -1.2444    0.0000 C   0  0  0  0  0  0  0  0  0  0  0  0
    5.5584   -3.3185    0.0000 C   0  0  0  0  0  0  0  0  0  0  0  0
    1.4104   -3.8439    0.0000 C   0  0  0  0  0  0  0  0  0  0  0  0
    2.0740   -4.9777    0.0000 C   0  0  0  0  0  0  0  0  0  0  0  0
    2.1293   -1.6592    0.0000 C   0  0  0  0  0  0  0  0  0  0  0  0
    4.2587   -1.2444    0.0000 C   0  0  0  0  0  0  0  0  0  0  0  0
    4.2310   -0.4148    0.0000 C   0  0  0  0  0  0  0  0  0  0  0  0
    1.4104   -1.2720    0.0000 C   0  0  0  0  0  0  0  0  0  0  0  0
    3.5397    0.0000    0.0000 C   0  0  0  0  0  0  0  0  0  0  0  0
    2.1293   -2.4888    0.0000 C   0  0  0  0  0  0  0  0  0  0  0  0
    1.2168   -3.0419    0.0000 C   0  0  0  0  0  0  0  0  0  0  0  0
    2.6824   -5.5307    0.0000 C   0  0  0  0  0  0  0  0  0  0  0  0
    0.6913   -1.6592    0.0000 C   0  0  0  0  0  0  0  0  0  0  0  0
    1.4104   -2.9036    0.0000 C   0  0  0  0  0  0  0  0  0  0  0  0
    0.6913   -2.4888    0.0000 C   0  0  0  0  0  0  0  0  0  0  0  0
  1 28  1  0  0  0  0
  2  7  1  0  0  0  0
  2 18  1  0  0  0  0
  3 17  2  0  0  0  0
  4  9  1  0  0  0  0
  4 17  1  0  0  0  0
  5 10  1  0  0  0  0
  5 17  1  0  0  0  0
  6 16  1  0  0  0  0
  6 24  2  0  0  0  0
  7 19  2  0  0  0  0
  8  9  1  0  0  0  0
  8 12  1  0  0  0  0
  8 14  2  0  0  0  0
  9 10  2  0  0  0  0
 10 15  1  0  0  0  0
 11 13  1  0  0  0  0
 11 14  1  0  0  0  0
 11 15  2  0  0  0  0
 12 16  2  0  0  0  0
 12 21  1  0  0  0  0
 13 18  2  0  0  0  0
 13 19  1  0  0  0  0
 16 20  1  0  0  0  0
 18 26  1  0  0  0  0
 19 27  1  0  0  0  0
 20 23  1  0  0  0  0
 20 25  2  0  0  0  0
 21 22  2  0  0  0  0
 22 24  1  0  0  0  0
 23 28  2  0  0  0  0
 25 29  1  0  0  0  0
 28 30  1  0  0  0  0
 29 30  2  0  0  0  0
M  END
> <PUBCHEM_COMPOUND_ID_TYPE>
0

> <PUBCHEM_TOTAL_CHARGE>
0

> <PUBCHEM_SUBSTANCE_ID>
310932581

> <PUBCHEM_SUBSTANCE_VERSION>
1

> <PUBCHEM_EXT_DATASOURCE_NAME>
4488

> <PUBCHEM_EXT_DATASOURCE_REGID>
SCHEMBL16109958

> <PUBCHEM_SUBSTANCE_COMMENT>
InChI=1S/C23H17FN4O2/c1-12-20(13(2)30-28-12)15-10-18(22-19(11-15)26-23(29)27-22)17-7-4-8-25-21(17)14-5-3-6-16(24)9-14/h3-11H,1-2H3,(H2,26,27,29)
InChIKey=FNWRHEYPHTUNCV-UHFFFAOYSA-N

> <PUBCHEM_SUBSTANCE_SYNONYM>
SCHEMBL16109958

> <PUBCHEM_XREF_EXT_ID>
SCHEMBL16109958

> <PUBCHEM_EXT_DATASOURCE_URL>
https://www.surechembl.org/

> <PUBCHEM_EXT_SUBSTANCE_URL>
https://www.surechembl.org/chemical/SCHEMBL16109958

> <PUBCHEM_CID_ASSOCIATIONS>
117601104  1

> <PUBCHEM_COORDINATE_TYPE>
1
3

$$$$
