310941559
  -OEChem-07211613022D

 16 17  0     0  0  0  0  0  0999 V2000
   -1.4549   -1.6536    0.0000 Cl  0  0  0  0  0  0  0  0  0  0  0  0
    1.3826   -0.8405    0.0000 O   0  0  0  0  0  0  0  0  0  0  0  0
    1.3826    1.6536    0.0000 O   0  0  0  0  0  0  0  0  0  0  0  0
   -0.0271   -0.8405    0.0000 N   0  0  0  0  0  0  0  0  0  0  0  0
   -0.7320   -0.4247    0.0000 C   0  0  0  0  0  0  0  0  0  0  0  0
   -0.6959    0.4247    0.0000 C   0  0  0  0  0  0  0  0  0  0  0  0
    0.6777   -0.4247    0.0000 C   0  0  0  0  0  0  0  0  0  0  0  0
    0.7139    0.4247    0.0000 C   0  0  0  0  0  0  0  0  0  0  0  0
   -0.0090    0.8224    0.0000 C   0  0  0  0  0  0  0  0  0  0  0  0
   -1.4368   -0.8043    0.0000 C   0  0  0  0  0  0  0  0  0  0  0  0
   -1.4368    0.8043    0.0000 C   0  0  0  0  0  0  0  0  0  0  0  0
    1.4007    0.8043    0.0000 C   0  0  0  0  0  0  0  0  0  0  0  0
   -2.1598   -0.4428    0.0000 C   0  0  0  0  0  0  0  0  0  0  0  0
   -2.1417    0.4247    0.0000 C   0  0  0  0  0  0  0  0  0  0  0  0
   -0.0090   -1.6536    0.0000 C   0  0  0  0  0  0  0  0  0  0  0  0
    2.1598    0.4247    0.0000 C   0  0  0  0  0  0  0  0  0  0  0  0
  1 10  1  0  0  0  0
  2  7  2  0  0  0  0
  3 12  2  0  0  0  0
  4  5  1  0  0  0  0
  4  7  1  0  0  0  0
  4 15  1  0  0  0  0
  5  6  1  0  0  0  0
  5 10  2  0  0  0  0
  6  9  1  0  0  0  0
  6 11  2  0  0  0  0
  7  8  1  0  0  0  0
  8  9  2  0  0  0  0
  8 12  1  0  0  0  0
 10 13  1  0  0  0  0
 11 14  1  0  0  0  0
 12 16  1  0  0  0  0
 13 14  2  0  0  0  0
M  END
> <PUBCHEM_COMPOUND_ID_TYPE>
0

> <PUBCHEM_TOTAL_CHARGE>
0

> <PUBCHEM_SUBSTANCE_ID>
310941559

> <PUBCHEM_SUBSTANCE_VERSION>
1

> <PUBCHEM_EXT_DATASOURCE_NAME>
4488

> <PUBCHEM_EXT_DATASOURCE_REGID>
SCHEMBL16119590

> <PUBCHEM_SUBSTANCE_COMMENT>
InChI=1S/C12H10ClNO2/c1-7(15)9-6-8-4-3-5-10(13)11(8)14(2)12(9)16/h3-6H,1-2H3
InChIKey=LOJDTYLBEFWLSC-UHFFFAOYSA-N

> <PUBCHEM_SUBSTANCE_SYNONYM>
SCHEMBL16119590

> <PUBCHEM_XREF_EXT_ID>
SCHEMBL16119590

> <PUBCHEM_EXT_DATASOURCE_URL>
https://www.surechembl.org/

> <PUBCHEM_EXT_SUBSTANCE_URL>
https://www.surechembl.org/chemical/SCHEMBL16119590

> <PUBCHEM_CID_ASSOCIATIONS>
117608365  1

> <PUBCHEM_COORDINATE_TYPE>
1
3

$$$$
