310946297
  -OEChem-07211613022D

 21 22  0     1  0  0  0  0  0999 V2000
   -1.8525   -1.6589    0.0000 I   0  0  0  0  0  0  0  0  0  0  0  0
   -0.4236    0.8161    0.0000 I   0  0  0  0  0  0  0  0  0  0  0  0
   -1.8525   -0.0089    0.0000 O   0  0  0  0  0  0  0  0  0  0  0  0
   -4.7104   -1.6589    0.0000 O   0  0  0  0  0  0  0  0  0  0  0  0
    1.7198   -0.4214    0.0000 N   0  0  0  0  0  0  0  0  0  0  0  0
    3.3421   -1.1497    0.0000 N   0  0  0  0  0  0  0  0  0  0  0  0
   -1.1380   -0.4214    0.0000 C   0  0  0  0  0  0  0  0  0  0  0  0
   -1.1380   -1.2464    0.0000 C   0  0  0  0  0  0  0  0  0  0  0  0
   -0.4236   -0.0089    0.0000 C   0  0  0  0  0  0  0  0  0  0  0  0
    0.2909   -1.2464    0.0000 C   0  0  0  0  0  0  0  0  0  0  0  0
   -0.4236   -1.6589    0.0000 C   0  0  0  0  0  0  0  0  0  0  0  0
    0.2909   -0.4214    0.0000 C   0  0  0  0  0  0  0  0  0  0  0  0
   -2.5670   -0.4214    0.0000 C   0  0  0  0  0  0  0  0  0  0  0  0
    1.0054   -1.6589    0.0000 C   0  0  0  0  0  0  0  0  0  0  0  0
   -3.2815   -0.0089    0.0000 C   0  0  0  0  0  0  0  0  0  0  0  0
   -2.5670   -1.2464    0.0000 C   0  0  0  0  0  0  0  0  0  0  0  0
    1.7198   -1.2464    0.0000 C   0  0  3  0  0  0  0  0  0  0  0  0
   -3.9959   -1.2464    0.0000 C   0  0  0  0  0  0  0  0  0  0  0  0
   -3.9959   -0.4214    0.0000 C   0  0  0  0  0  0  0  0  0  0  0  0
   -3.2815   -1.6589    0.0000 C   0  0  0  0  0  0  0  0  0  0  0  0
    2.4343   -1.6589    0.0000 C   0  0  0  0  0  0  0  0  0  0  0  0
  1  8  1  0  0  0  0
  2  9  1  0  0  0  0
  3  7  1  0  0  0  0
  3 13  1  0  0  0  0
  4 18  1  0  0  0  0
 17  5  1  1  0  0  0
  6 21  1  0  0  0  0
  7  8  2  0  0  0  0
  7  9  1  0  0  0  0
  8 11  1  0  0  0  0
  9 12  2  0  0  0  0
 10 11  2  0  0  0  0
 10 12  1  0  0  0  0
 10 14  1  0  0  0  0
 13 15  2  0  0  0  0
 13 16  1  0  0  0  0
 14 17  1  0  0  0  0
 15 19  1  0  0  0  0
 16 20  2  0  0  0  0
 17 21  1  0  0  0  0
 18 19  2  0  0  0  0
 18 20  1  0  0  0  0
M  END
> <PUBCHEM_COMPOUND_ID_TYPE>
0

> <PUBCHEM_TOTAL_CHARGE>
0

> <PUBCHEM_SUBSTANCE_ID>
310946297

> <PUBCHEM_SUBSTANCE_VERSION>
1

> <PUBCHEM_EXT_DATASOURCE_NAME>
4488

> <PUBCHEM_EXT_DATASOURCE_REGID>
SCHEMBL16124416

> <PUBCHEM_SUBSTANCE_COMMENT>
InChI=1S/C15H16I2N2O2/c16-13-6-9(5-10(19)8-18)7-14(17)15(13)21-12-3-1-11(20)2-4-12/h1-4,6-7,10,20H,5,8,18-19H2/t10-/m1/s1
InChIKey=XKHJMJGKAKYVME-SNVBAGLBSA-N

> <PUBCHEM_SUBSTANCE_SYNONYM>
SCHEMBL16124416

> <PUBCHEM_XREF_EXT_ID>
SCHEMBL16124416

> <PUBCHEM_EXT_DATASOURCE_URL>
https://www.surechembl.org/

> <PUBCHEM_EXT_SUBSTANCE_URL>
https://www.surechembl.org/chemical/SCHEMBL16124416

> <PUBCHEM_CID_ASSOCIATIONS>
117612243  1

> <PUBCHEM_COORDINATE_TYPE>
1
3

> <PUBCHEM_BONDANNOTATIONS>
17  5  5

$$$$
