310940126
  -OEChem-07211613022D

 33 39  0     0  0  0  0  0  0999 V2000
    0.0644   -2.4627    0.0000 Br  0  0  0  0  0  0  0  0  0  0  0  0
    3.3227   -2.1629    0.0000 O   0  0  0  0  0  0  0  0  0  0  0  0
    3.4942   -7.9199    0.0000 N   0  0  0  0  0  0  0  0  0  0  0  0
    4.1617   -8.4048    0.0000 C   0  0  0  0  0  0  0  0  0  0  0  0
    2.8268   -8.4048    0.0000 C   0  0  0  0  0  0  0  0  0  0  0  0
    3.0817   -9.1894    0.0000 C   0  0  0  0  0  0  0  0  0  0  0  0
    3.9067   -9.1894    0.0000 C   0  0  0  0  0  0  0  0  0  0  0  0
    2.7798   -3.3824    0.0000 C   0  0  0  0  0  0  0  0  0  0  0  0
    3.4942   -7.0949    0.0000 C   0  0  0  0  0  0  0  0  0  0  0  0
    2.1667   -2.8303    0.0000 C   0  0  0  0  0  0  0  0  0  0  0  0
    3.4942   -2.9699    0.0000 C   0  0  0  0  0  0  0  0  0  0  0  0
    2.5022   -2.0767    0.0000 C   0  0  0  0  0  0  0  0  0  0  0  0
    3.4942   -4.6199    0.0000 C   0  0  0  0  0  0  0  0  0  0  0  0
    2.7798   -4.2074    0.0000 C   0  0  0  0  0  0  0  0  0  0  0  0
    3.4942   -5.4449    0.0000 C   0  0  0  0  0  0  0  0  0  0  0  0
    2.0198   -8.2333    0.0000 C   0  0  0  0  0  0  0  0  0  0  0  0
    4.9686   -8.2333    0.0000 C   0  0  0  0  0  0  0  0  0  0  0  0
    2.5297   -9.8025    0.0000 C   0  0  0  0  0  0  0  0  0  0  0  0
    4.4588   -9.8025    0.0000 C   0  0  0  0  0  0  0  0  0  0  0  0
    4.2087   -6.6824    0.0000 C   0  0  0  0  0  0  0  0  0  0  0  0
    2.7798   -6.6824    0.0000 C   0  0  0  0  0  0  0  0  0  0  0  0
    4.2087   -3.3824    0.0000 C   0  0  0  0  0  0  0  0  0  0  0  0
    1.3462   -2.9166    0.0000 C   0  0  0  0  0  0  0  0  0  0  0  0
    4.2087   -4.2074    0.0000 C   0  0  0  0  0  0  0  0  0  0  0  0
    4.2087   -5.8574    0.0000 C   0  0  0  0  0  0  0  0  0  0  0  0
    2.7798   -5.8574    0.0000 C   0  0  0  0  0  0  0  0  0  0  0  0
    2.0173   -1.4092    0.0000 C   0  0  0  0  0  0  0  0  0  0  0  0
    0.8613   -2.2491    0.0000 C   0  0  0  0  0  0  0  0  0  0  0  0
    1.4678   -8.8464    0.0000 C   0  0  0  0  0  0  0  0  0  0  0  0
    5.5207   -8.8464    0.0000 C   0  0  0  0  0  0  0  0  0  0  0  0
    1.7227   -9.6310    0.0000 C   0  0  0  0  0  0  0  0  0  0  0  0
    5.2657   -9.6310    0.0000 C   0  0  0  0  0  0  0  0  0  0  0  0
    1.1968   -1.4955    0.0000 C   0  0  0  0  0  0  0  0  0  0  0  0
  1 28  1  0  0  0  0
  2 11  1  0  0  0  0
  2 12  1  0  0  0  0
  3  4  1  0  0  0  0
  3  5  1  0  0  0  0
  3  9  1  0  0  0  0
  4  7  2  0  0  0  0
  4 17  1  0  0  0  0
  5  6  2  0  0  0  0
  5 16  1  0  0  0  0
  6  7  1  0  0  0  0
  6 18  1  0  0  0  0
  7 19  1  0  0  0  0
  8 10  1  0  0  0  0
  8 11  2  0  0  0  0
  8 14  1  0  0  0  0
  9 20  2  0  0  0  0
  9 21  1  0  0  0  0
 10 12  1  0  0  0  0
 10 23  2  0  0  0  0
 11 22  1  0  0  0  0
 12 27  2  0  0  0  0
 13 14  2  0  0  0  0
 13 15  1  0  0  0  0
 13 24  1  0  0  0  0
 15 25  2  0  0  0  0
 15 26  1  0  0  0  0
 16 29  2  0  0  0  0
 17 30  2  0  0  0  0
 18 31  2  0  0  0  0
 19 32  2  0  0  0  0
 20 25  1  0  0  0  0
 21 26  2  0  0  0  0
 22 24  2  0  0  0  0
 23 28  1  0  0  0  0
 27 33  1  0  0  0  0
 28 33  2  0  0  0  0
 29 31  1  0  0  0  0
 30 32  1  0  0  0  0
M  END
> <PUBCHEM_COMPOUND_ID_TYPE>
0

> <PUBCHEM_TOTAL_CHARGE>
0

> <PUBCHEM_SUBSTANCE_ID>
310940126

> <PUBCHEM_SUBSTANCE_VERSION>
1

> <PUBCHEM_EXT_DATASOURCE_NAME>
4488

> <PUBCHEM_EXT_DATASOURCE_REGID>
SCHEMBL16118058

> <PUBCHEM_SUBSTANCE_COMMENT>
InChI=1S/C30H18BrNO/c31-21-12-16-30-26(18-21)25-17-20(11-15-29(25)33-30)19-9-13-22(14-10-19)32-27-7-3-1-5-23(27)24-6-2-4-8-28(24)32/h1-18H
InChIKey=UMTXRBFEHXEIIX-UHFFFAOYSA-N

> <PUBCHEM_SUBSTANCE_SYNONYM>
SCHEMBL16118058

> <PUBCHEM_XREF_EXT_ID>
SCHEMBL16118058

> <PUBCHEM_EXT_DATASOURCE_URL>
https://www.surechembl.org/

> <PUBCHEM_EXT_SUBSTANCE_URL>
https://www.surechembl.org/chemical/SCHEMBL16118058

> <PUBCHEM_CID_ASSOCIATIONS>
117607253  1

> <PUBCHEM_COORDINATE_TYPE>
1
3

$$$$
