310940156
  -OEChem-07211613022D

 35 39  0     1  0  0  0  0  0999 V2000
   -0.6240   -3.4111    0.0000 S   0  0  0  0  0  0  0  0  0  0  0  0
   -1.3395   -3.8271    0.0000 O   0  0  0  0  0  0  0  0  0  0  0  0
   -0.4077   -4.2098    0.0000 O   0  0  0  0  0  0  0  0  0  0  0  0
   -2.8536    1.0815    0.0000 O   0  0  0  0  0  0  0  0  0  0  0  0
   -0.0915    0.9318    0.0000 N   0  0  0  0  0  0  0  0  0  0  0  0
   -0.4243    0.1664    0.0000 N   0  0  0  0  0  0  0  0  0  0  0  0
   -1.8054   -0.3494    0.0000 N   0  0  0  0  0  0  0  0  0  0  0  0
    0.1913   -3.2447    0.0000 N   0  0  3  0  0  0  0  0  0  0  0  0
   -2.1382    2.2962    0.0000 N   0  0  0  0  0  0  0  0  0  0  0  0
    1.3561    3.4776    0.0000 N   0  0  0  0  0  0  0  0  0  0  0  0
    2.8536    0.8153    0.0000 N   0  0  0  0  0  0  0  0  0  0  0  0
    0.6739    1.1315    0.0000 C   0  0  0  0  0  0  0  0  0  0  0  0
   -0.7238    1.4809    0.0000 C   0  0  0  0  0  0  0  0  0  0  0  0
   -1.4060    1.0815    0.0000 C   0  0  0  0  0  0  0  0  0  0  0  0
   -1.2563    0.2829    0.0000 C   0  0  0  0  0  0  0  0  0  0  0  0
   -1.0400   -2.6956    0.0000 C   0  0  0  0  0  0  0  0  0  0  0  0
   -0.4908   -2.0799    0.0000 C   0  0  0  0  0  0  0  0  0  0  0  0
   -2.1215    1.5142    0.0000 C   0  0  0  0  0  0  0  0  0  0  0  0
   -1.5558   -1.0982    0.0000 C   0  0  0  0  0  0  0  0  0  0  0  0
   -0.7072    2.3129    0.0000 C   0  0  0  0  0  0  0  0  0  0  0  0
    0.1415    1.6806    0.0000 C   0  0  0  0  0  0  0  0  0  0  0  0
    1.5059    1.3312    0.0000 C   0  0  0  0  0  0  0  0  0  0  0  0
    0.2745   -2.4127    0.0000 C   0  0  0  0  0  0  0  0  0  0  0  0
   -0.7405   -1.2979    0.0000 C   0  0  0  0  0  0  0  0  0  0  0  0
    1.2563    0.4825    0.0000 C   0  0  0  0  0  0  0  0  0  0  0  0
   -1.8387   -2.5126    0.0000 C   0  0  0  0  0  0  0  0  0  0  0  0
   -2.0716   -1.7138    0.0000 C   0  0  0  0  0  0  0  0  0  0  0  0
   -1.4393    2.7122    0.0000 C   0  0  0  0  0  0  0  0  0  0  0  0
    0.3411    2.4793    0.0000 C   0  0  0  0  0  0  0  0  0  0  0  0
    1.7055    2.1132    0.0000 C   0  0  0  0  0  0  0  0  0  0  0  0
    1.1398    2.6789    0.0000 C   0  0  0  0  0  0  0  0  0  0  0  0
    0.8070   -3.8104    0.0000 C   0  0  0  0  0  0  0  0  0  0  0  0
    2.0550    0.6656    0.0000 C   0  0  0  0  0  0  0  0  0  0  0  0
    0.9235    4.2098    0.0000 C   0  0  0  0  0  0  0  0  0  0  0  0
    2.0882    3.9103    0.0000 C   0  0  0  0  0  0  0  0  0  0  0  0
  1  2  2  0  0  0  0
  1  3  2  0  0  0  0
  1  8  1  0  0  0  0
  1 16  1  0  0  0  0
  4 18  2  0  0  0  0
  5  6  1  0  0  0  0
  5 12  1  0  0  0  0
  5 13  1  0  0  0  0
  6 15  2  0  0  0  0
  7 15  1  0  0  0  0
  7 19  1  0  0  0  0
  8 23  1  0  0  0  0
  8 32  1  0  0  0  0
  9 18  1  0  0  0  0
  9 28  1  0  0  0  0
 31 10  1  1  0  0  0
 10 34  1  0  0  0  0
 10 35  1  0  0  0  0
 11 33  3  0  0  0  0
 12 21  1  0  0  0  0
 12 22  1  0  0  0  0
 12 25  1  6  0  0  0
 13 14  2  0  0  0  0
 13 20  1  0  0  0  0
 14 15  1  0  0  0  0
 14 18  1  0  0  0  0
 16 17  1  0  0  0  0
 16 26  2  0  0  0  0
 17 23  1  0  0  0  0
 17 24  2  0  0  0  0
 19 24  1  0  0  0  0
 19 27  2  0  0  0  0
 20 28  2  0  0  0  0
 21 29  1  0  0  0  0
 22 30  1  0  0  0  0
 25 33  1  0  0  0  0
 26 27  1  0  0  0  0
 29 31  1  0  0  0  0
 30 31  1  0  0  0  0
M  END
> <PUBCHEM_COMPOUND_ID_TYPE>
0

> <PUBCHEM_TOTAL_CHARGE>
0

> <PUBCHEM_SUBSTANCE_ID>
310940156

> <PUBCHEM_SUBSTANCE_VERSION>
1

> <PUBCHEM_EXT_DATASOURCE_NAME>
4488

> <PUBCHEM_EXT_DATASOURCE_REGID>
SCHEMBL16118089

> <PUBCHEM_SUBSTANCE_COMMENT>
InChI=1S/C24H29N7O3S/c1-29(2)18-6-9-24(10-7-18,11-12-25)31-19-8-13-26-23(32)21(19)22(28-31)27-17-4-5-20-16(14-17)15-30(3)35(20,33)34/h4-5,8,13-14,18H,6-7,9-11,15H2,1-3H3,(H,26,32)(H,27,28)/t18-,24+
InChIKey=FFEJQOQAJUSPPB-OWWJJEGGSA-N

> <PUBCHEM_SUBSTANCE_SYNONYM>
SCHEMBL16118089

> <PUBCHEM_XREF_EXT_ID>
SCHEMBL16118089

> <PUBCHEM_EXT_DATASOURCE_URL>
https://www.surechembl.org/

> <PUBCHEM_EXT_SUBSTANCE_URL>
https://www.surechembl.org/chemical/SCHEMBL16118089

> <PUBCHEM_CID_ASSOCIATIONS>
117607276  1

> <PUBCHEM_COORDINATE_TYPE>
1
3

> <PUBCHEM_BONDANNOTATIONS>
31  10  5
12  25  6

$$$$
