310948291
  -OEChem-07211613022D

 45 49  0     0  0  0  0  0  0999 V2000
    4.1259   -2.4998    0.0000 S   0  0  0  0  0  0  0  0  0  0  0  0
    4.4009    3.2117    0.0000 F   0  0  0  0  0  0  0  0  0  0  0  0
    3.2845    2.9043    0.0000 F   0  0  0  0  0  0  0  0  0  0  0  0
    4.6598    2.0953    0.0000 F   0  0  0  0  0  0  0  0  0  0  0  0
   -2.6697    0.6553    0.0000 O   0  0  0  0  0  0  0  0  0  0  0  0
    3.5758    1.8041    0.0000 O   0  0  0  0  0  0  0  0  0  0  0  0
    3.4301   -2.9043    0.0000 O   0  0  0  0  0  0  0  0  0  0  0  0
    4.8540   -2.0791    0.0000 O   0  0  0  0  0  0  0  0  0  0  0  0
    0.0162    0.3802    0.0000 N   0  0  0  0  0  0  0  0  0  0  0  0
   -1.2944   -1.7232    0.0000 N   0  0  0  0  0  0  0  0  0  0  0  0
   -0.8090    0.4611    0.0000 N   0  0  0  0  0  0  0  0  0  0  0  0
   -2.0872   -1.4642    0.0000 N   0  0  0  0  0  0  0  0  0  0  0  0
   -0.9869    1.2701    0.0000 N   0  0  0  0  0  0  0  0  0  0  0  0
   -3.5110   -0.4935    0.0000 N   0  0  0  0  0  0  0  0  0  0  0  0
    0.4207   -0.3317    0.0000 C   0  0  0  0  0  0  0  0  0  0  0  0
    0.0162   -1.0598    0.0000 C   0  0  0  0  0  0  0  0  0  0  0  0
   -0.8252   -1.0436    0.0000 C   0  0  0  0  0  0  0  0  0  0  0  0
    0.3398    1.1407    0.0000 C   0  0  0  0  0  0  0  0  0  0  0  0
    1.2620   -0.3641    0.0000 C   0  0  0  0  0  0  0  0  0  0  0  0
    1.6666   -1.0436    0.0000 C   0  0  0  0  0  0  0  0  0  0  0  0
    0.4368   -1.7555    0.0000 C   0  0  0  0  0  0  0  0  0  0  0  0
   -1.3105   -0.3802    0.0000 C   0  0  0  0  0  0  0  0  0  0  0  0
   -2.0710   -0.6391    0.0000 C   0  0  0  0  0  0  0  0  0  0  0  0
    1.1650    1.3025    0.0000 C   0  0  0  0  0  0  0  0  0  0  0  0
    2.4917   -1.0598    0.0000 C   0  0  0  0  0  0  0  0  0  0  0  0
    1.2459   -1.7555    0.0000 C   0  0  0  0  0  0  0  0  0  0  0  0
   -0.2751    1.6746    0.0000 C   0  0  0  0  0  0  0  0  0  0  0  0
   -2.7668   -0.1699    0.0000 C   0  0  0  0  0  0  0  0  0  0  0  0
    2.9124   -1.7555    0.0000 C   0  0  0  0  0  0  0  0  0  0  0  0
    3.7375   -1.7717    0.0000 C   0  0  0  0  0  0  0  0  0  0  0  0
    1.4238    2.0791    0.0000 C   0  0  0  0  0  0  0  0  0  0  0  0
    1.7151    0.7038    0.0000 C   0  0  0  0  0  0  0  0  0  0  0  0
    2.9124   -0.3641    0.0000 C   0  0  0  0  0  0  0  0  0  0  0  0
   -1.0194   -2.5321    0.0000 C   0  0  0  0  0  0  0  0  0  0  0  0
    2.7668    1.6584    0.0000 C   0  0  0  0  0  0  0  0  0  0  0  0
    2.2328    2.2410    0.0000 C   0  0  0  0  0  0  0  0  0  0  0  0
    2.5241    0.8657    0.0000 C   0  0  0  0  0  0  0  0  0  0  0  0
    4.1420   -1.0598    0.0000 C   0  0  0  0  0  0  0  0  0  0  0  0
    3.7375   -0.3479    0.0000 C   0  0  0  0  0  0  0  0  0  0  0  0
   -4.1744   -0.0081    0.0000 C   0  0  0  0  0  0  0  0  0  0  0  0
    3.9965    2.4998    0.0000 C   0  0  0  0  0  0  0  0  0  0  0  0
    4.5789   -3.2117    0.0000 C   0  0  0  0  0  0  0  0  0  0  0  0
   -3.6890    0.6715    0.0000 C   0  0  0  0  0  0  0  0  0  0  0  0
   -4.8540    0.4611    0.0000 C   0  0  0  0  0  0  0  0  0  0  0  0
   -4.6275   -0.6876    0.0000 C   0  0  0  0  0  0  0  0  0  0  0  0
  1  7  2  0  0  0  0
  1  8  2  0  0  0  0
  1 30  1  0  0  0  0
  1 42  1  0  0  0  0
  2 41  1  0  0  0  0
  3 41  1  0  0  0  0
  4 41  1  0  0  0  0
  5 28  2  0  0  0  0
  6 35  1  0  0  0  0
  6 41  1  0  0  0  0
  9 11  1  0  0  0  0
  9 15  1  0  0  0  0
  9 18  1  0  0  0  0
 10 12  1  0  0  0  0
 10 17  1  0  0  0  0
 10 34  1  0  0  0  0
 11 13  2  0  0  0  0
 12 23  2  0  0  0  0
 13 27  1  0  0  0  0
 14 28  1  0  0  0  0
 14 40  1  0  0  0  0
 15 16  1  0  0  0  0
 15 19  2  0  0  0  0
 16 17  1  0  0  0  0
 16 21  2  0  0  0  0
 17 22  2  0  0  0  0
 18 24  1  0  0  0  0
 18 27  2  0  0  0  0
 19 20  1  0  0  0  0
 20 25  1  0  0  0  0
 20 26  2  0  0  0  0
 21 26  1  0  0  0  0
 22 23  1  0  0  0  0
 23 28  1  0  0  0  0
 24 31  2  0  0  0  0
 24 32  1  0  0  0  0
 25 29  1  0  0  0  0
 25 33  2  0  0  0  0
 29 30  2  0  0  0  0
 30 38  1  0  0  0  0
 31 36  1  0  0  0  0
 32 37  2  0  0  0  0
 33 39  1  0  0  0  0
 35 36  2  0  0  0  0
 35 37  1  0  0  0  0
 38 39  2  0  0  0  0
 40 43  1  0  0  0  0
 40 44  1  0  0  0  0
 40 45  1  0  0  0  0
M  END
> <PUBCHEM_COMPOUND_ID_TYPE>
0

> <PUBCHEM_TOTAL_CHARGE>
0

> <PUBCHEM_SUBSTANCE_ID>
310948291

> <PUBCHEM_SUBSTANCE_VERSION>
1

> <PUBCHEM_EXT_DATASOURCE_NAME>
4488

> <PUBCHEM_EXT_DATASOURCE_REGID>
SCHEMBL16126468

> <PUBCHEM_SUBSTANCE_COMMENT>
InChI=1S/C31H29F3N6O4S/c1-30(2,3)36-29(41)25-17-26(39(4)37-25)24-14-11-21(20-7-6-8-23(15-20)45(5,42)43)16-27(24)40-28(18-35-38-40)19-9-12-22(13-10-19)44-31(32,33)34/h6-18H,1-5H3,(H,36,41)
InChIKey=YJGQMACRHNQAQA-UHFFFAOYSA-N

> <PUBCHEM_SUBSTANCE_SYNONYM>
SCHEMBL16126468

> <PUBCHEM_XREF_EXT_ID>
SCHEMBL16126468

> <PUBCHEM_EXT_DATASOURCE_URL>
https://www.surechembl.org/

> <PUBCHEM_EXT_SUBSTANCE_URL>
https://www.surechembl.org/chemical/SCHEMBL16126468

> <PUBCHEM_CID_ASSOCIATIONS>
86276116  1

> <PUBCHEM_COORDINATE_TYPE>
1
3

$$$$
