310944812
  -OEChem-07211613022D

 17 17  0     0  0  0  0  0  0999 V2000
   -1.9740   -0.7784    0.0000 Cl  0  0  0  0  0  0  0  0  0  0  0  0
    1.0648   -0.7784    0.0000 O   0  0  0  0  0  0  0  0  0  0  0  0
   -1.3886    1.6003    0.0000 O   0  0  0  0  0  0  0  0  0  0  0  0
    2.5095    0.8780    0.0000 O   0  0  0  0  0  0  0  0  0  0  0  0
    1.0773    0.8905    0.0000 N   0  0  0  0  0  0  0  0  0  0  0  0
   -1.0648    0.4670    0.0000 C   0  0  0  0  0  0  0  0  0  0  0  0
    0.3549    0.4795    0.0000 C   0  0  0  0  0  0  0  0  0  0  0  0
   -1.7996    0.8905    0.0000 C   0  0  0  0  0  0  0  0  0  0  0  0
   -1.0897   -0.3549    0.0000 C   0  0  0  0  0  0  0  0  0  0  0  0
    0.3549   -0.3549    0.0000 C   0  0  0  0  0  0  0  0  0  0  0  0
   -0.3425    0.8780    0.0000 C   0  0  0  0  0  0  0  0  0  0  0  0
   -0.3549   -0.7659    0.0000 C   0  0  0  0  0  0  0  0  0  0  0  0
   -2.1981    0.1681    0.0000 C   0  0  0  0  0  0  0  0  0  0  0  0
   -2.5095    1.2890    0.0000 C   0  0  0  0  0  0  0  0  0  0  0  0
    1.7872    0.4670    0.0000 C   0  0  0  0  0  0  0  0  0  0  0  0
    1.0897   -1.6004    0.0000 C   0  0  0  0  0  0  0  0  0  0  0  0
    1.8121   -0.3549    0.0000 C   0  0  0  0  0  0  0  0  0  0  0  0
  1  9  1  0  0  0  0
  2 10  1  0  0  0  0
  2 16  1  0  0  0  0
  3  8  1  0  0  0  0
  4 15  2  0  0  0  0
  5  7  1  0  0  0  0
  5 15  1  0  0  0  0
  6  8  1  0  0  0  0
  6  9  2  0  0  0  0
  6 11  1  0  0  0  0
  7 10  1  0  0  0  0
  7 11  2  0  0  0  0
  8 13  1  0  0  0  0
  8 14  1  0  0  0  0
  9 12  1  0  0  0  0
 10 12  2  0  0  0  0
 15 17  1  0  0  0  0
M  END
> <PUBCHEM_COMPOUND_ID_TYPE>
0

> <PUBCHEM_TOTAL_CHARGE>
0

> <PUBCHEM_SUBSTANCE_ID>
310944812

> <PUBCHEM_SUBSTANCE_VERSION>
1

> <PUBCHEM_EXT_DATASOURCE_NAME>
4488

> <PUBCHEM_EXT_DATASOURCE_REGID>
SCHEMBL16122891

> <PUBCHEM_SUBSTANCE_COMMENT>
InChI=1S/C12H16ClNO3/c1-7(15)14-10-5-8(12(2,3)16)9(13)6-11(10)17-4/h5-6,16H,1-4H3,(H,14,15)
InChIKey=IFQAGPFWQSWYEE-UHFFFAOYSA-N

> <PUBCHEM_SUBSTANCE_SYNONYM>
SCHEMBL16122891

> <PUBCHEM_XREF_EXT_ID>
SCHEMBL16122891

> <PUBCHEM_EXT_DATASOURCE_URL>
https://www.surechembl.org/

> <PUBCHEM_EXT_SUBSTANCE_URL>
https://www.surechembl.org/chemical/SCHEMBL16122891

> <PUBCHEM_CID_ASSOCIATIONS>
117611023  1

> <PUBCHEM_COORDINATE_TYPE>
1
3

$$$$
