310944462
  -OEChem-07211613022D

 29 32  0     0  0  0  0  0  0999 V2000
    0.3974    2.8496    0.0000 F   0  0  0  0  0  0  0  0  0  0  0  0
    0.3674   -1.2448    0.0000 N   0  0  0  0  0  0  0  0  0  0  0  0
    2.5421    2.3847    0.0000 N   0  0  0  0  0  0  0  0  0  0  0  0
   -1.0724    0.4199    0.0000 C   0  0  0  0  0  0  0  0  0  0  0  0
   -0.3674    0.8099    0.0000 C   0  0  0  0  0  0  0  0  0  0  0  0
   -1.8072    0.8099    0.0000 C   0  0  0  0  0  0  0  0  0  0  0  0
    0.3674    0.4199    0.0000 C   0  0  0  0  0  0  0  0  0  0  0  0
   -1.0873   -0.3899    0.0000 C   0  0  0  0  0  0  0  0  0  0  0  0
   -1.7922   -0.7949    0.0000 C   0  0  0  0  0  0  0  0  0  0  0  0
   -0.3374    1.6197    0.0000 C   0  0  0  0  0  0  0  0  0  0  0  0
   -1.7922    1.6497    0.0000 C   0  0  0  0  0  0  0  0  0  0  0  0
    0.3674    2.0397    0.0000 C   0  0  0  0  0  0  0  0  0  0  0  0
    1.1174    1.6497    0.0000 C   0  0  0  0  0  0  0  0  0  0  0  0
   -2.5271    0.4049    0.0000 C   0  0  0  0  0  0  0  0  0  0  0  0
    1.1023    0.8249    0.0000 C   0  0  0  0  0  0  0  0  0  0  0  0
   -2.5271   -0.3899    0.0000 C   0  0  0  0  0  0  0  0  0  0  0  0
   -1.8372   -1.6347    0.0000 C   0  0  0  0  0  0  0  0  0  0  0  0
    0.3674   -0.4349    0.0000 C   0  0  0  0  0  0  0  0  0  0  0  0
   -1.0873    2.0547    0.0000 C   0  0  0  0  0  0  0  0  0  0  0  0
   -2.5121    2.0547    0.0000 C   0  0  0  0  0  0  0  0  0  0  0  0
    1.8221    2.0247    0.0000 C   0  0  0  0  0  0  0  0  0  0  0  0
   -2.5421   -2.0697    0.0000 C   0  0  0  0  0  0  0  0  0  0  0  0
   -1.0873   -2.0397    0.0000 C   0  0  0  0  0  0  0  0  0  0  0  0
   -1.0873    2.8645    0.0000 C   0  0  0  0  0  0  0  0  0  0  0  0
   -2.5271    2.8496    0.0000 C   0  0  0  0  0  0  0  0  0  0  0  0
   -1.7922    3.2694    0.0000 C   0  0  0  0  0  0  0  0  0  0  0  0
   -2.5271   -2.8645    0.0000 C   0  0  0  0  0  0  0  0  0  0  0  0
   -1.0873   -2.8645    0.0000 C   0  0  0  0  0  0  0  0  0  0  0  0
   -1.8221   -3.2694    0.0000 C   0  0  0  0  0  0  0  0  0  0  0  0
  1 12  1  0  0  0  0
  2 18  3  0  0  0  0
  3 21  3  0  0  0  0
  4  5  1  0  0  0  0
  4  6  2  0  0  0  0
  4  8  1  0  0  0  0
  5  7  1  0  0  0  0
  5 10  2  0  0  0  0
  6 11  1  0  0  0  0
  6 14  1  0  0  0  0
  7 15  2  0  0  0  0
  7 18  1  0  0  0  0
  8  9  2  0  0  0  0
  9 16  1  0  0  0  0
  9 17  1  0  0  0  0
 10 12  1  0  0  0  0
 11 19  2  0  0  0  0
 11 20  1  0  0  0  0
 12 13  2  0  0  0  0
 13 15  1  0  0  0  0
 13 21  1  0  0  0  0
 14 16  2  0  0  0  0
 17 22  2  0  0  0  0
 17 23  1  0  0  0  0
 19 24  1  0  0  0  0
 20 25  2  0  0  0  0
 22 27  1  0  0  0  0
 23 28  2  0  0  0  0
 24 26  2  0  0  0  0
 25 26  1  0  0  0  0
 27 29  2  0  0  0  0
 28 29  1  0  0  0  0
M  END
> <PUBCHEM_COMPOUND_ID_TYPE>
0

> <PUBCHEM_TOTAL_CHARGE>
0

> <PUBCHEM_SUBSTANCE_ID>
310944462

> <PUBCHEM_SUBSTANCE_VERSION>
1

> <PUBCHEM_EXT_DATASOURCE_NAME>
4488

> <PUBCHEM_EXT_DATASOURCE_REGID>
SCHEMBL16122537

> <PUBCHEM_SUBSTANCE_COMMENT>
InChI=1S/C26H15FN2/c27-26-15-24(21(16-28)13-22(26)17-29)25-14-20(18-7-3-1-4-8-18)11-12-23(25)19-9-5-2-6-10-19/h1-15H
InChIKey=VZTYGORPMVBZMB-UHFFFAOYSA-N

> <PUBCHEM_SUBSTANCE_SYNONYM>
SCHEMBL16122537

> <PUBCHEM_XREF_EXT_ID>
SCHEMBL16122537

> <PUBCHEM_EXT_DATASOURCE_URL>
https://www.surechembl.org/

> <PUBCHEM_EXT_SUBSTANCE_URL>
https://www.surechembl.org/chemical/SCHEMBL16122537

> <PUBCHEM_CID_ASSOCIATIONS>
117610716  1

> <PUBCHEM_COORDINATE_TYPE>
1
3

$$$$
