310941295
  -OEChem-07211613022D

 33 35  0     1  0  0  0  0  0999 V2000
   -2.5435    2.5020    0.0000 O   0  0  0  0  0  0  0  0  0  0  0  0
   -1.8272   -0.7724    0.0000 O   0  0  0  0  0  0  0  0  0  0  0  0
   -2.0781   -1.2458    0.0000 O   0  0  0  0  0  0  0  0  0  0  0  0
    1.0671    0.0608    0.0000 O   0  0  0  0  0  0  0  0  0  0  0  0
    0.3508    1.3180    0.0000 O   0  0  0  0  0  0  0  0  0  0  0  0
   -2.7600   -0.1213    0.0000 O   0  0  0  0  0  0  0  0  0  0  0  0
    2.5289   -2.4535    0.0000 O   0  0  0  0  0  0  0  0  0  0  0  0
   -1.0964    0.4701    0.0000 N   0  0  0  0  0  0  0  0  0  0  0  0
   -3.2745    0.0462    0.0000 N   0  0  0  0  0  0  0  0  0  0  0  0
   -2.5435    0.4847    0.0000 C   0  0  3  0  0  0  0  0  0  0  0  0
   -2.5435    1.3765    0.0000 C   0  0  0  0  0  0  0  0  0  0  0  0
   -1.8126    0.0900    0.0000 C   0  0  0  0  0  0  0  0  0  0  0  0
   -0.3800    0.0608    0.0000 C   0  0  3  0  0  0  0  0  0  0  0  0
   -3.1283    1.8881    0.0000 C   0  0  0  0  0  0  0  0  0  0  0  0
   -1.9588    1.8881    0.0000 C   0  0  0  0  0  0  0  0  0  0  0  0
   -0.3800   -0.7870    0.0000 C   0  0  0  0  0  0  0  0  0  0  0  0
    0.3362    0.4555    0.0000 C   0  0  0  0  0  0  0  0  0  0  0  0
   -2.7481   -0.8391    0.0000 C   0  0  0  0  0  0  0  0  0  0  0  0
    0.3654   -1.1963    0.0000 C   0  0  0  0  0  0  0  0  0  0  0  0
    0.3508   -2.0150    0.0000 C   0  0  0  0  0  0  0  0  0  0  0  0
    1.0817   -0.7870    0.0000 C   0  0  0  0  0  0  0  0  0  0  0  0
    1.7980   -2.0150    0.0000 C   0  0  0  0  0  0  0  0  0  0  0  0
    1.0964   -2.4389    0.0000 C   0  0  0  0  0  0  0  0  0  0  0  0
    1.7980   -1.1963    0.0000 C   0  0  0  0  0  0  0  0  0  0  0  0
   -1.3244   -0.8152    0.0000 C   0  0  0  0  0  0  0  0  0  0  0  0
   -0.6305   -1.2698    0.0000 C   0  0  0  0  0  0  0  0  0  0  0  0
   -0.6305   -2.0952    0.0000 C   0  0  0  0  0  0  0  0  0  0  0  0
    0.0753   -0.8511    0.0000 C   0  0  0  0  0  0  0  0  0  0  0  0
    1.7542    0.4993    0.0000 C   0  0  0  0  0  0  0  0  0  0  0  0
    0.0753   -2.5020    0.0000 C   0  0  0  0  0  0  0  0  0  0  0  0
    0.7931   -1.2578    0.0000 C   0  0  0  0  0  0  0  0  0  0  0  0
    0.7931   -2.0833    0.0000 C   0  0  0  0  0  0  0  0  0  0  0  0
    3.2745   -2.0150    0.0000 C   0  0  0  0  0  0  0  0  0  0  0  0
  1 14  1  0  0  0  0
  1 15  1  0  0  0  0
  2 12  2  0  0  0  0
  3 18  1  0  0  0  0
  3 25  1  0  0  0  0
  4 17  1  0  0  0  0
  4 29  1  0  0  0  0
  5 17  2  0  0  0  0
  6 18  2  0  0  0  0
  7 22  1  0  0  0  0
  7 33  1  0  0  0  0
  8 12  1  0  0  0  0
 13  8  1  6  0  0  0
 10  9  1  1  0  0  0
  9 18  1  0  0  0  0
 10 11  1  0  0  0  0
 10 12  1  0  0  0  0
 11 14  1  0  0  0  0
 11 15  1  0  0  0  0
 13 16  1  0  0  0  0
 13 17  1  0  0  0  0
 16 19  1  0  0  0  0
 19 20  2  0  0  0  0
 19 21  1  0  0  0  0
 20 23  1  0  0  0  0
 21 24  2  0  0  0  0
 22 23  2  0  0  0  0
 22 24  1  0  0  0  0
 25 26  1  0  0  0  0
 26 27  2  0  0  0  0
 26 28  1  0  0  0  0
 27 30  1  0  0  0  0
 28 31  2  0  0  0  0
 30 32  2  0  0  0  0
 31 32  1  0  0  0  0
M  END
> <PUBCHEM_COMPOUND_ID_TYPE>
0

> <PUBCHEM_TOTAL_CHARGE>
0

> <PUBCHEM_SUBSTANCE_ID>
310941295

> <PUBCHEM_SUBSTANCE_VERSION>
1

> <PUBCHEM_EXT_DATASOURCE_NAME>
4488

> <PUBCHEM_EXT_DATASOURCE_REGID>
SCHEMBL16119255

> <PUBCHEM_SUBSTANCE_COMMENT>
InChI=1S/C24H28N2O7/c1-30-19-10-8-16(9-11-19)12-20(23(28)31-2)25-22(27)21(18-14-32-15-18)26-24(29)33-13-17-6-4-3-5-7-17/h3-11,18,20-21H,12-15H2,1-2H3,(H,25,27)(H,26,29)/t20-,21-/m0/s1
InChIKey=WNFWOPKYRIDZQB-SFTDATJTSA-N

> <PUBCHEM_SUBSTANCE_SYNONYM>
SCHEMBL16119255

> <PUBCHEM_XREF_EXT_ID>
SCHEMBL16119255

> <PUBCHEM_EXT_DATASOURCE_URL>
https://www.surechembl.org/

> <PUBCHEM_EXT_SUBSTANCE_URL>
https://www.surechembl.org/chemical/SCHEMBL16119255

> <PUBCHEM_CID_ASSOCIATIONS>
117608144  1

> <PUBCHEM_COORDINATE_TYPE>
1
3

> <PUBCHEM_BONDANNOTATIONS>
13  8  6
10  9  5

$$$$
