310940040
  -OEChem-07211613022D

 10 10  0     0  0  0  0  0  0999 V2000
   -8.0988    3.6589    0.0000 I   0  0  0  0  0  0  0  0  0  0  0  0
   -8.0988    2.0089    0.0000 Cl  0  0  0  0  0  0  0  0  0  0  0  0
   -5.2409    2.0089    0.0000 O   0  0  0  0  0  0  0  0  0  0  0  0
   -5.2409    3.6589    0.0000 N   0  0  0  0  0  0  0  0  0  0  0  0
   -7.3843    3.2464    0.0000 C   0  0  0  0  0  0  0  0  0  0  0  0
   -7.3843    2.4214    0.0000 C   0  0  0  0  0  0  0  0  0  0  0  0
   -5.9554    2.4214    0.0000 C   0  0  0  0  0  0  0  0  0  0  0  0
   -5.9554    3.2464    0.0000 C   0  0  0  0  0  0  0  0  0  0  0  0
   -6.6698    3.6589    0.0000 C   0  0  0  0  0  0  0  0  0  0  0  0
   -6.6698    2.0089    0.0000 C   0  0  0  0  0  0  0  0  0  0  0  0
  1  5  1  0  0  0  0
  2  6  1  0  0  0  0
  3  7  1  0  0  0  0
  4  8  1  0  0  0  0
  5  6  2  0  0  0  0
  5  9  1  0  0  0  0
  6 10  1  0  0  0  0
  7  8  1  0  0  0  0
  7 10  2  0  0  0  0
  8  9  2  0  0  0  0
M  END
> <PUBCHEM_COMPOUND_ID_TYPE>
0

> <PUBCHEM_TOTAL_CHARGE>
0

> <PUBCHEM_SUBSTANCE_ID>
310940040

> <PUBCHEM_SUBSTANCE_VERSION>
1

> <PUBCHEM_EXT_DATASOURCE_NAME>
4488

> <PUBCHEM_EXT_DATASOURCE_REGID>
SCHEMBL16117970

> <PUBCHEM_SUBSTANCE_COMMENT>
InChI=1S/C6H5ClINO/c7-3-1-6(10)5(9)2-4(3)8/h1-2,10H,9H2
InChIKey=SHJLQMPWDJBRDG-UHFFFAOYSA-N

> <PUBCHEM_SUBSTANCE_SYNONYM>
SCHEMBL16117970

> <PUBCHEM_XREF_EXT_ID>
SCHEMBL16117970

> <PUBCHEM_EXT_DATASOURCE_URL>
https://www.surechembl.org/

> <PUBCHEM_EXT_SUBSTANCE_URL>
https://www.surechembl.org/chemical/SCHEMBL16117970

> <PUBCHEM_CID_ASSOCIATIONS>
92135481  1

> <PUBCHEM_COORDINATE_TYPE>
1
3

$$$$
