310942062
  -OEChem-07211613022D

 19 21  0     0  0  0  0  0  0999 V2000
   -1.7308    1.2255    0.0000 O   0  0  0  0  0  0  0  0  0  0  0  0
   -0.3411    0.7959    0.0000 O   0  0  0  0  0  0  0  0  0  0  0  0
   -0.4043   -2.0340    0.0000 N   0  0  0  0  0  0  0  0  0  0  0  0
    2.4888    0.9349    0.0000 N   0  0  0  0  0  0  0  0  0  0  0  0
   -0.8591   -0.7454    0.0000 C   0  0  0  0  0  0  0  0  0  0  0  0
   -0.0127   -0.7580    0.0000 C   0  0  0  0  0  0  0  0  0  0  0  0
   -1.1243   -1.5413    0.0000 C   0  0  0  0  0  0  0  0  0  0  0  0
    0.2527   -1.5161    0.0000 C   0  0  0  0  0  0  0  0  0  0  0  0
   -1.4276   -0.1516    0.0000 C   0  0  0  0  0  0  0  0  0  0  0  0
    0.5432   -0.1389    0.0000 C   0  0  0  0  0  0  0  0  0  0  0  0
   -1.9203   -1.7181    0.0000 C   0  0  0  0  0  0  0  0  0  0  0  0
   -1.2002    0.6317    0.0000 C   0  0  0  0  0  0  0  0  0  0  0  0
    1.0739   -1.6802    0.0000 C   0  0  0  0  0  0  0  0  0  0  0  0
   -2.2361   -0.3411    0.0000 C   0  0  0  0  0  0  0  0  0  0  0  0
    1.3518   -0.2906    0.0000 C   0  0  0  0  0  0  0  0  0  0  0  0
   -2.4888   -1.1243    0.0000 C   0  0  0  0  0  0  0  0  0  0  0  0
    1.6171   -1.0739    0.0000 C   0  0  0  0  0  0  0  0  0  0  0  0
    1.9203    0.3285    0.0000 C   0  0  0  0  0  0  0  0  0  0  0  0
   -1.4907    2.0340    0.0000 C   0  0  0  0  0  0  0  0  0  0  0  0
  1 12  1  0  0  0  0
  1 19  1  0  0  0  0
  2 12  2  0  0  0  0
  3  7  1  0  0  0  0
  3  8  1  0  0  0  0
  4 18  3  0  0  0  0
  5  6  1  0  0  0  0
  5  7  1  0  0  0  0
  5  9  2  0  0  0  0
  6  8  2  0  0  0  0
  6 10  1  0  0  0  0
  7 11  2  0  0  0  0
  8 13  1  0  0  0  0
  9 12  1  0  0  0  0
  9 14  1  0  0  0  0
 10 15  2  0  0  0  0
 11 16  1  0  0  0  0
 13 17  2  0  0  0  0
 14 16  2  0  0  0  0
 15 17  1  0  0  0  0
 15 18  1  0  0  0  0
M  END
> <PUBCHEM_COMPOUND_ID_TYPE>
0

> <PUBCHEM_TOTAL_CHARGE>
0

> <PUBCHEM_SUBSTANCE_ID>
310942062

> <PUBCHEM_SUBSTANCE_VERSION>
1

> <PUBCHEM_EXT_DATASOURCE_NAME>
4488

> <PUBCHEM_EXT_DATASOURCE_REGID>
SCHEMBL16120097

> <PUBCHEM_SUBSTANCE_COMMENT>
InChI=1S/C15H10N2O2/c1-19-15(18)10-3-2-4-13-14(10)11-7-9(8-16)5-6-12(11)17-13/h2-7,17H,1H3
InChIKey=BCAQODSQGZHQDL-UHFFFAOYSA-N

> <PUBCHEM_SUBSTANCE_SYNONYM>
SCHEMBL16120097

> <PUBCHEM_XREF_EXT_ID>
SCHEMBL16120097

> <PUBCHEM_EXT_DATASOURCE_URL>
https://www.surechembl.org/

> <PUBCHEM_EXT_SUBSTANCE_URL>
https://www.surechembl.org/chemical/SCHEMBL16120097

> <PUBCHEM_CID_ASSOCIATIONS>
117608736  1

> <PUBCHEM_COORDINATE_TYPE>
1
3

$$$$
