310936691
  -OEChem-07211613022D

 39 42  0     1  0  0  0  0  0999 V2000
    3.8549   -7.7099    0.0000 F   0  0  0  0  0  0  0  0  0  0  0  0
    5.2813   -7.5557    0.0000 F   0  0  0  0  0  0  0  0  0  0  0  0
    3.7393   -6.9003    0.0000 F   0  0  0  0  0  0  0  0  0  0  0  0
    7.5942   -5.8980    0.0000 F   0  0  0  0  0  0  0  0  0  0  0  0
    6.7461   -4.7030    0.0000 F   0  0  0  0  0  0  0  0  0  0  0  0
    6.9003   -6.3606    0.0000 F   0  0  0  0  0  0  0  0  0  0  0  0
    4.0477   -0.4626    0.0000 F   0  0  0  0  0  0  0  0  0  0  0  0
    2.6985    0.0000    0.0000 F   0  0  0  0  0  0  0  0  0  0  0  0
    3.7778   -1.2336    0.0000 F   0  0  0  0  0  0  0  0  0  0  0  0
    4.4717   -3.5851    0.0000 O   0  0  0  0  0  0  0  0  0  0  0  0
    3.8164   -2.2744    0.0000 O   0  0  0  0  0  0  0  0  0  0  0  0
    1.6191   -4.7801    0.0000 O   0  0  0  0  0  0  0  0  0  0  0  0
    3.1225   -3.5851    0.0000 N   0  0  0  0  0  0  0  0  0  0  0  0
    0.7710   -2.8141    0.0000 N   0  0  3  0  0  0  0  0  0  0  0  0
    1.2336   -1.4649    0.0000 N   0  0  0  0  0  0  0  0  0  0  0  0
    4.2019   -4.3946    0.0000 C   0  0  3  0  0  0  0  0  0  0  0  0
    3.3923   -4.3946    0.0000 C   0  0  3  0  0  0  0  0  0  0  0  0
    4.7030   -5.0499    0.0000 C   0  0  0  0  0  0  0  0  0  0  0  0
    3.8164   -3.1225    0.0000 C   0  0  0  0  0  0  0  0  0  0  0  0
    2.1587   -2.5443    0.0000 C   0  0  0  0  0  0  0  0  0  0  0  0
    4.8572   -6.4763    0.0000 C   0  0  0  0  0  0  0  0  0  0  0  0
    6.0137   -5.6282    0.0000 C   0  0  0  0  0  0  0  0  0  0  0  0
    2.3515   -3.3538    0.0000 C   0  0  0  0  0  0  0  0  0  0  0  0
    5.5125   -4.9729    0.0000 C   0  0  0  0  0  0  0  0  0  0  0  0
    4.3561   -5.8209    0.0000 C   0  0  0  0  0  0  0  0  0  0  0  0
    1.3878   -2.2359    0.0000 C   0  0  0  0  0  0  0  0  0  0  0  0
    5.6667   -6.3992    0.0000 C   0  0  0  0  0  0  0  0  0  0  0  0
    4.5103   -7.2473    0.0000 C   0  0  0  0  0  0  0  0  0  0  0  0
    6.8232   -5.5511    0.0000 C   0  0  0  0  0  0  0  0  0  0  0  0
    2.6213   -1.1565    0.0000 C   0  0  0  0  0  0  0  0  0  0  0  0
    2.7755   -1.9660    0.0000 C   0  0  0  0  0  0  0  0  0  0  0  0
    3.2381   -0.6168    0.0000 C   0  0  0  0  0  0  0  0  0  0  0  0
    2.8912   -5.0499    0.0000 C   0  0  0  0  0  0  0  0  0  0  0  0
    1.8118   -0.8866    0.0000 C   0  0  0  0  0  0  0  0  0  0  0  0
    0.9252   -3.5851    0.0000 C   0  0  3  0  0  0  0  0  0  0  0  0
    0.0000   -2.5443    0.0000 C   0  0  0  0  0  0  0  0  0  0  0  0
    1.6962   -3.9320    0.0000 C   0  0  0  0  0  0  0  0  0  0  0  0
    0.3855   -4.2404    0.0000 C   0  0  0  0  0  0  0  0  0  0  0  0
    0.8095   -4.9343    0.0000 C   0  0  0  0  0  0  0  0  0  0  0  0
  1 28  1  0  0  0  0
  2 28  1  0  0  0  0
  3 28  1  0  0  0  0
  4 29  1  0  0  0  0
  5 29  1  0  0  0  0
  6 29  1  0  0  0  0
  7 32  1  0  0  0  0
  8 32  1  0  0  0  0
  9 32  1  0  0  0  0
 16 10  1  6  0  0  0
 10 19  1  0  0  0  0
 11 19  2  0  0  0  0
 12 37  1  0  0  0  0
 12 39  1  0  0  0  0
 13 17  1  0  0  0  0
 13 19  1  0  0  0  0
 13 23  1  0  0  0  0
 14 26  1  0  0  0  0
 14 35  1  0  0  0  0
 14 36  1  0  0  0  0
 15 26  1  0  0  0  0
 15 34  2  0  0  0  0
 16 17  1  0  0  0  0
 16 18  1  0  0  0  0
 17 33  1  6  0  0  0
 18 24  2  0  0  0  0
 18 25  1  0  0  0  0
 20 23  1  0  0  0  0
 20 26  2  0  0  0  0
 20 31  1  0  0  0  0
 21 25  2  0  0  0  0
 21 27  1  0  0  0  0
 21 28  1  0  0  0  0
 22 24  1  0  0  0  0
 22 27  2  0  0  0  0
 22 29  1  0  0  0  0
 30 31  2  0  0  0  0
 30 32  1  0  0  0  0
 30 34  1  0  0  0  0
 35 37  1  0  0  0  0
 35 38  1  0  0  0  0
 38 39  1  0  0  0  0
M  END
> <PUBCHEM_COMPOUND_ID_TYPE>
0

> <PUBCHEM_TOTAL_CHARGE>
0

> <PUBCHEM_SUBSTANCE_ID>
310936691

> <PUBCHEM_SUBSTANCE_VERSION>
1

> <PUBCHEM_EXT_DATASOURCE_NAME>
4488

> <PUBCHEM_EXT_DATASOURCE_REGID>
SCHEMBL16114365

> <PUBCHEM_SUBSTANCE_COMMENT>
InChI=1S/C24H22F9N3O3/c1-12-19(13-5-15(22(25,26)27)8-16(6-13)23(28,29)30)39-21(37)36(12)10-14-7-17(24(31,32)33)9-34-20(14)35(2)18-3-4-38-11-18/h5-9,12,18-19H,3-4,10-11H2,1-2H3/t12-,18?,19-/m0/s1
InChIKey=QNUHGMDVORZBNW-NNZWLKQRSA-N

> <PUBCHEM_SUBSTANCE_SYNONYM>
SCHEMBL16114365

> <PUBCHEM_XREF_EXT_ID>
SCHEMBL16114365

> <PUBCHEM_EXT_DATASOURCE_URL>
https://www.surechembl.org/

> <PUBCHEM_EXT_SUBSTANCE_URL>
https://www.surechembl.org/chemical/SCHEMBL16114365

> <PUBCHEM_CID_ASSOCIATIONS>
85472527  1

> <PUBCHEM_COORDINATE_TYPE>
1
3

> <PUBCHEM_BONDANNOTATIONS>
16  10  6
17  33  6

$$$$
