310935103
  -OEChem-07211613022D

 35 39  0     0  0  0  0  0  0999 V2000
    0.0323    0.0000    0.0000 Cl  0  0  0  0  0  0  0  0  0  0  0  0
    2.5183   -1.4206    0.0000 S   0  0  0  0  0  0  0  0  0  0  0  0
    2.5183   -2.3246    0.0000 O   0  0  0  0  0  0  0  0  0  0  0  0
    2.5183   -0.6457    0.0000 O   0  0  0  0  0  0  0  0  0  0  0  0
    6.1989   -2.1631    0.0000 N   0  0  0  0  0  0  0  0  0  0  0  0
    8.6526   -2.1631    0.0000 N   0  0  0  0  0  0  0  0  0  0  0  0
    7.4257   -1.4529    0.0000 N   0  0  0  0  0  0  0  0  0  0  0  0
    3.2932   -1.4206    0.0000 N   0  0  0  0  0  0  0  0  0  0  0  0
    6.9737   -6.4571    0.0000 N   0  0  0  0  0  0  0  0  0  0  0  0
    7.4257   -2.9057    0.0000 C   0  0  0  0  0  0  0  0  0  0  0  0
    8.2329   -2.9057    0.0000 C   0  0  0  0  0  0  0  0  0  0  0  0
    7.0060   -2.1631    0.0000 C   0  0  0  0  0  0  0  0  0  0  0  0
    8.6526   -3.5837    0.0000 C   0  0  0  0  0  0  0  0  0  0  0  0
    7.3934   -4.2940    0.0000 C   0  0  0  0  0  0  0  0  0  0  0  0
    7.0060   -3.5837    0.0000 C   0  0  0  0  0  0  0  0  0  0  0  0
    8.2329   -4.2940    0.0000 C   0  0  0  0  0  0  0  0  0  0  0  0
    6.9737   -5.0043    0.0000 C   0  0  0  0  0  0  0  0  0  0  0  0
    8.2329   -1.4529    0.0000 C   0  0  0  0  0  0  0  0  0  0  0  0
    5.7791   -2.9057    0.0000 C   0  0  0  0  0  0  0  0  0  0  0  0
    5.7791   -1.4529    0.0000 C   0  0  0  0  0  0  0  0  0  0  0  0
    4.5523   -2.1631    0.0000 C   0  0  0  0  0  0  0  0  0  0  0  0
    1.6788   -1.4206    0.0000 C   0  0  0  0  0  0  0  0  0  0  0  0
    4.9397   -2.8734    0.0000 C   0  0  0  0  0  0  0  0  0  0  0  0
    4.9397   -1.4529    0.0000 C   0  0  0  0  0  0  0  0  0  0  0  0
    9.4597   -3.5837    0.0000 C   0  0  0  0  0  0  0  0  0  0  0  0
    3.7128   -2.1631    0.0000 C   0  0  0  0  0  0  0  0  0  0  0  0
    7.3934   -5.7469    0.0000 C   0  0  0  0  0  0  0  0  0  0  0  0
    6.1665   -5.0366    0.0000 C   0  0  0  0  0  0  0  0  0  0  0  0
    1.2591   -0.7103    0.0000 C   0  0  0  0  0  0  0  0  0  0  0  0
    1.2591   -2.1309    0.0000 C   0  0  0  0  0  0  0  0  0  0  0  0
    0.4520   -0.7103    0.0000 C   0  0  0  0  0  0  0  0  0  0  0  0
    5.7469   -5.7146    0.0000 C   0  0  0  0  0  0  0  0  0  0  0  0
    0.4520   -2.1309    0.0000 C   0  0  0  0  0  0  0  0  0  0  0  0
    0.0000   -1.4206    0.0000 C   0  0  0  0  0  0  0  0  0  0  0  0
    6.1343   -6.4571    0.0000 C   0  0  0  0  0  0  0  0  0  0  0  0
  1 31  1  0  0  0  0
  2  3  2  0  0  0  0
  2  4  2  0  0  0  0
  2  8  1  0  0  0  0
  2 22  1  0  0  0  0
  5 12  1  0  0  0  0
  5 19  1  0  0  0  0
  5 20  1  0  0  0  0
  6 11  2  0  0  0  0
  6 18  1  0  0  0  0
  7 12  1  0  0  0  0
  7 18  2  0  0  0  0
  8 26  1  0  0  0  0
  9 27  1  0  0  0  0
  9 35  2  0  0  0  0
 10 11  1  0  0  0  0
 10 12  2  0  0  0  0
 10 15  1  0  0  0  0
 11 13  1  0  0  0  0
 13 16  2  0  0  0  0
 13 25  1  0  0  0  0
 14 15  2  0  0  0  0
 14 16  1  0  0  0  0
 14 17  1  0  0  0  0
 17 27  2  0  0  0  0
 17 28  1  0  0  0  0
 19 23  1  0  0  0  0
 20 24  1  0  0  0  0
 21 23  1  0  0  0  0
 21 24  1  0  0  0  0
 21 26  1  0  0  0  0
 22 29  1  0  0  0  0
 22 30  2  0  0  0  0
 28 32  2  0  0  0  0
 29 31  2  0  0  0  0
 30 33  1  0  0  0  0
 31 34  1  0  0  0  0
 32 35  1  0  0  0  0
 33 34  2  0  0  0  0
M  END
> <PUBCHEM_COMPOUND_ID_TYPE>
0

> <PUBCHEM_TOTAL_CHARGE>
0

> <PUBCHEM_SUBSTANCE_ID>
310935103

> <PUBCHEM_SUBSTANCE_VERSION>
1

> <PUBCHEM_EXT_DATASOURCE_NAME>
4488

> <PUBCHEM_EXT_DATASOURCE_REGID>
SCHEMBL16112630

> <PUBCHEM_SUBSTANCE_COMMENT>
InChI=1S/C26H26ClN5O2S/c1-18-12-21(20-4-3-9-28-16-20)13-24-25(18)29-17-30-26(24)32-10-7-19(8-11-32)15-31-35(33,34)23-6-2-5-22(27)14-23/h2-6,9,12-14,16-17,19,31H,7-8,10-11,15H2,1H3
InChIKey=KHDAAVWICJNXGN-UHFFFAOYSA-N

> <PUBCHEM_SUBSTANCE_SYNONYM>
SCHEMBL16112630

> <PUBCHEM_XREF_EXT_ID>
SCHEMBL16112630

> <PUBCHEM_EXT_DATASOURCE_URL>
https://www.surechembl.org/

> <PUBCHEM_EXT_SUBSTANCE_URL>
https://www.surechembl.org/chemical/SCHEMBL16112630

> <PUBCHEM_CID_ASSOCIATIONS>
117603196  1

> <PUBCHEM_COORDINATE_TYPE>
1
3

$$$$
