310947841
  -OEChem-07211613022D

 37 39  0     1  0  0  0  0  0999 V2000
    3.2150    3.2554    0.0000 O   0  0  0  0  0  0  0  0  0  0  0  0
   -5.3583    3.2639    0.0000 O   0  0  0  0  0  0  0  0  0  0  0  0
   -6.0727    4.5014    0.0000 O   0  0  0  0  0  0  0  0  0  0  0  0
    1.7861    4.0889    0.0000 N   0  0  0  0  0  0  0  0  0  0  0  0
    3.9294    4.5014    0.0000 C   0  0  0  0  0  0  0  0  0  0  0  0
    1.0717    4.5014    0.0000 C   0  0  0  0  0  0  0  0  0  0  0  0
    0.3572    4.0889    0.0000 C   0  0  0  0  0  0  0  0  0  0  0  0
    4.6439    4.0889    0.0000 C   0  0  0  0  0  0  0  0  0  0  0  0
    3.9294    5.3264    0.0000 C   0  0  0  0  0  0  0  0  0  0  0  0
    5.3583    4.5014    0.0000 C   0  0  0  0  0  0  0  0  0  0  0  0
    4.6439    5.7389    0.0000 C   0  0  0  0  0  0  0  0  0  0  0  0
    5.3583    5.3264    0.0000 C   0  0  0  0  0  0  0  0  0  0  0  0
    3.2150    4.0889    0.0000 C   0  0  3  0  0  0  0  0  0  0  0  0
   -0.3572    4.5014    0.0000 C   0  0  0  0  0  0  0  0  0  0  0  0
    2.5006    4.5014    0.0000 C   0  0  0  0  0  0  0  0  0  0  0  0
   -1.0717    4.0889    0.0000 C   0  0  0  0  0  0  0  0  0  0  0  0
   -2.5006    4.0889    0.0000 C   0  0  0  0  0  0  0  0  0  0  0  0
   -1.7861    4.5014    0.0000 C   0  0  0  0  0  0  0  0  0  0  0  0
   -3.2150    4.5014    0.0000 C   0  0  0  0  0  0  0  0  0  0  0  0
    6.0727    4.0889    0.0000 C   0  0  0  0  0  0  0  0  0  0  0  0
   -1.0717    3.2639    0.0000 C   0  0  0  0  0  0  0  0  0  0  0  0
   -2.5006    3.2639    0.0000 C   0  0  0  0  0  0  0  0  0  0  0  0
   -3.9294    4.0889    0.0000 C   0  0  0  0  0  0  0  0  0  0  0  0
   -4.6439    4.5014    0.0000 C   0  0  0  0  0  0  0  0  0  0  0  0
   -1.7861    2.8514    0.0000 C   0  0  0  0  0  0  0  0  0  0  0  0
   -3.2150    5.3264    0.0000 C   0  0  0  0  0  0  0  0  0  0  0  0
   -4.6439    5.3264    0.0000 C   0  0  0  0  0  0  0  0  0  0  0  0
   -3.9294    5.7389    0.0000 C   0  0  0  0  0  0  0  0  0  0  0  0
   -5.3583    4.0889    0.0000 C   0  0  0  0  0  0  0  0  0  0  0  0
   -0.0463    3.3590    0.0000 H   1  0  0  0  0  0  0  0  0  0  0  0
    0.7785    3.3590    0.0000 H   1  0  0  0  0  0  0  0  0  0  0  0
    0.6680    5.2313    0.0000 H   1  0  0  0  0  0  0  0  0  0  0  0
    1.4930    5.2313    0.0000 H   1  0  0  0  0  0  0  0  0  0  0  0
    4.6439    3.2639    0.0000 H   1  0  0  0  0  0  0  0  0  0  0  0
    3.2150    5.7389    0.0000 H   1  0  0  0  0  0  0  0  0  0  0  0
    4.6439    6.5638    0.0000 H   1  0  0  0  0  0  0  0  0  0  0  0
    6.0727    5.7389    0.0000 H   1  0  0  0  0  0  0  0  0  0  0  0
 13  1  1  1  0  0  0
  2 29  2  0  0  0  0
  3 29  1  0  0  0  0
  4  6  1  0  0  0  0
  4 15  1  0  0  0  0
  5  8  2  0  0  0  0
  5  9  1  0  0  0  0
  5 13  1  0  0  0  0
  6  7  1  0  0  0  0
  6 32  1  0  0  0  0
  6 33  1  0  0  0  0
  7 14  1  0  0  0  0
  7 30  1  0  0  0  0
  7 31  1  0  0  0  0
  8 10  1  0  0  0  0
  8 34  1  0  0  0  0
  9 11  2  0  0  0  0
  9 35  1  0  0  0  0
 10 12  2  0  0  0  0
 10 20  1  0  0  0  0
 11 12  1  0  0  0  0
 11 36  1  0  0  0  0
 12 37  1  0  0  0  0
 13 15  1  0  0  0  0
 14 16  1  0  0  0  0
 16 18  2  0  0  0  0
 16 21  1  0  0  0  0
 17 18  1  0  0  0  0
 17 19  1  0  0  0  0
 17 22  2  0  0  0  0
 19 23  1  0  0  0  0
 19 26  2  0  0  0  0
 21 25  2  0  0  0  0
 22 25  1  0  0  0  0
 23 24  2  0  0  0  0
 24 27  1  0  0  0  0
 24 29  1  0  0  0  0
 26 28  1  0  0  0  0
 27 28  2  0  0  0  0
M  ISO  8  30   2  31   2  32   2  33   2  34   2  35   2  36   2  37   2
M  END
> <PUBCHEM_COMPOUND_ID_TYPE>
0

> <PUBCHEM_TOTAL_CHARGE>
0

> <PUBCHEM_SUBSTANCE_ID>
310947841

> <PUBCHEM_SUBSTANCE_VERSION>
1

> <PUBCHEM_EXT_DATASOURCE_NAME>
4488

> <PUBCHEM_EXT_DATASOURCE_REGID>
SCHEMBL16126015

> <PUBCHEM_SUBSTANCE_COMMENT>
InChI=1S/C25H27NO3/c1-18-6-2-11-22(14-18)24(27)17-26-13-5-8-19-7-3-9-20(15-19)21-10-4-12-23(16-21)25(28)29/h2-4,6-7,9-12,14-16,24,26-27H,5,8,13,17H2,1H3,(H,28,29)/t24-/m0/s1/i2D,5D2,6D,11D,13D2,14D
InChIKey=QYYIBGLFVVXTII-IIZVKHHYSA-N

> <PUBCHEM_SUBSTANCE_SYNONYM>
SCHEMBL16126015

> <PUBCHEM_XREF_EXT_ID>
SCHEMBL16126015

> <PUBCHEM_EXT_DATASOURCE_URL>
https://www.surechembl.org/

> <PUBCHEM_EXT_SUBSTANCE_URL>
https://www.surechembl.org/chemical/SCHEMBL16126015

> <PUBCHEM_CID_ASSOCIATIONS>
117613506  1

> <PUBCHEM_COORDINATE_TYPE>
1
3

> <PUBCHEM_BONDANNOTATIONS>
13  1  5

$$$$
