310930744
  -OEChem-07211613022D

 49 54  0     1  0  0  0  0  0999 V2000
    1.8545   -1.1137    0.0000 F   0  0  0  0  0  0  0  0  0  0  0  0
    0.8438   -2.1873    0.0000 O   0  0  0  0  0  0  0  0  0  0  0  0
    2.9703   -2.3429    0.0000 O   0  0  0  0  0  0  0  0  0  0  0  0
    1.4179   -3.8991    0.0000 O   0  0  0  0  0  0  0  0  0  0  0  0
    3.6550   -0.7865    0.0000 O   0  0  0  0  0  0  0  0  0  0  0  0
    2.2626   -4.9297    0.0000 O   0  0  0  0  0  0  0  0  0  0  0  0
   -2.2651   -4.8647    0.0000 O   0  0  0  0  0  0  0  0  0  0  0  0
   -1.9757   -0.1412    0.0000 O   0  0  0  0  0  0  0  0  0  0  0  0
    4.6881   -5.8164    0.0000 O   0  0  0  0  0  0  0  0  0  0  0  0
    4.6731    0.3432    0.0000 O   0  0  0  0  0  0  0  0  0  0  0  0
    3.2003   -3.7949    0.0000 N   0  0  0  0  0  0  0  0  0  0  0  0
    3.3497   -5.2160    0.0000 N   0  0  0  0  0  0  0  0  0  0  0  0
    0.2146   -2.6611    0.0000 C   0  0  0  0  0  0  0  0  0  0  0  0
    1.6354   -2.3429    0.0000 C   0  0  3  0  0  0  0  0  0  0  0  0
    2.3029   -1.8579    0.0000 C   0  0  3  0  0  0  0  0  0  0  0  0
    1.8904   -3.1275    0.0000 C   0  0  3  0  0  0  0  0  0  0  0  0
    2.7154   -3.1275    0.0000 C   0  0  3  0  0  0  0  0  0  0  0  0
   -0.3754   -3.1920    0.0000 C   0  0  0  0  0  0  0  0  0  0  0  0
   -0.3143   -2.0269    0.0000 C   0  0  0  0  0  0  0  0  0  0  0  0
    0.7897   -3.2531    0.0000 C   0  0  0  0  0  0  0  0  0  0  0  0
    2.8643   -1.1514    0.0000 C   0  0  0  0  0  0  0  0  0  0  0  0
   -1.1600   -2.9371    0.0000 C   0  0  0  0  0  0  0  0  0  0  0  0
   -1.1213   -2.1984    0.0000 C   0  0  0  0  0  0  0  0  0  0  0  0
   -0.2039   -3.9990    0.0000 C   0  0  0  0  0  0  0  0  0  0  0  0
   -0.0594   -1.2422    0.0000 C   0  0  0  0  0  0  0  0  0  0  0  0
    1.5967   -3.0815    0.0000 C   0  0  0  0  0  0  0  0  0  0  0  0
    0.5348   -4.0377    0.0000 C   0  0  0  0  0  0  0  0  0  0  0  0
    2.8647   -4.5486    0.0000 C   0  0  0  0  0  0  0  0  0  0  0  0
    4.0208   -3.7087    0.0000 C   0  0  0  0  0  0  0  0  0  0  0  0
   -1.7731   -3.4891    0.0000 C   0  0  0  0  0  0  0  0  0  0  0  0
   -1.6733   -1.5853    0.0000 C   0  0  0  0  0  0  0  0  0  0  0  0
   -0.8170   -4.5510    0.0000 C   0  0  0  0  0  0  0  0  0  0  0  0
   -0.6114   -0.6292    0.0000 C   0  0  0  0  0  0  0  0  0  0  0  0
   -1.6016   -4.2961    0.0000 C   0  0  0  0  0  0  0  0  0  0  0  0
   -1.4184   -0.8007    0.0000 C   0  0  0  0  0  0  0  0  0  0  0  0
    2.1487   -3.6946    0.0000 C   0  0  0  0  0  0  0  0  0  0  0  0
    1.0868   -4.6508    0.0000 C   0  0  0  0  0  0  0  0  0  0  0  0
    4.5057   -4.3761    0.0000 C   0  0  0  0  0  0  0  0  0  0  0  0
    4.1701   -5.1298    0.0000 C   0  0  0  0  0  0  0  0  0  0  0  0
    3.8858    0.0369    0.0000 C   0  0  0  0  0  0  0  0  0  0  0  0
    1.8938   -4.4792    0.0000 C   0  0  0  0  0  0  0  0  0  0  0  0
    3.2153    0.5537    0.0000 C   0  0  0  0  0  0  0  0  0  0  0  0
    2.4524    0.2396    0.0000 C   0  0  0  0  0  0  0  0  0  0  0  0
    3.3248    1.3714    0.0000 C   0  0  0  0  0  0  0  0  0  0  0  0
   -3.1127   -4.8157    0.0000 C   0  0  0  0  0  0  0  0  0  0  0  0
   -1.8360    0.7224    0.0000 C   0  0  0  0  0  0  0  0  0  0  0  0
    1.7990    0.7433    0.0000 C   0  0  0  0  0  0  0  0  0  0  0  0
    2.6713    1.8750    0.0000 C   0  0  0  0  0  0  0  0  0  0  0  0
    1.9084    1.5610    0.0000 C   0  0  0  0  0  0  0  0  0  0  0  0
 15  1  1  1  0  0  0
  2 13  1  0  0  0  0
 14  2  1  6  0  0  0
  3 15  1  0  0  0  0
 17  3  1  1  0  0  0
 16  4  1  1  0  0  0
  5 21  1  0  0  0  0
  5 40  1  0  0  0  0
  6 28  2  0  0  0  0
  7 34  1  0  0  0  0
  7 45  1  0  0  0  0
  8 35  1  0  0  0  0
  8 46  1  0  0  0  0
  9 39  2  0  0  0  0
 10 40  2  0  0  0  0
 11 17  1  0  0  0  0
 11 28  1  0  0  0  0
 11 29  1  0  0  0  0
 12 28  1  0  0  0  0
 12 39  1  0  0  0  0
 13 18  1  0  0  0  0
 13 19  1  0  0  0  0
 13 20  1  0  0  0  0
 14 15  1  0  0  0  0
 14 16  1  0  0  0  0
 15 21  1  6  0  0  0
 16 17  1  0  0  0  0
 18 22  2  0  0  0  0
 18 24  1  0  0  0  0
 19 23  2  0  0  0  0
 19 25  1  0  0  0  0
 20 26  2  0  0  0  0
 20 27  1  0  0  0  0
 22 30  1  0  0  0  0
 23 31  1  0  0  0  0
 24 32  2  0  0  0  0
 25 33  2  0  0  0  0
 26 36  1  0  0  0  0
 27 37  2  0  0  0  0
 29 38  2  0  0  0  0
 30 34  2  0  0  0  0
 31 35  2  0  0  0  0
 32 34  1  0  0  0  0
 33 35  1  0  0  0  0
 36 41  2  0  0  0  0
 37 41  1  0  0  0  0
 38 39  1  0  0  0  0
 40 42  1  0  0  0  0
 42 43  2  0  0  0  0
 42 44  1  0  0  0  0
 43 47  1  0  0  0  0
 44 48  2  0  0  0  0
 47 49  2  0  0  0  0
 48 49  1  0  0  0  0
M  END
> <PUBCHEM_COMPOUND_ID_TYPE>
0

> <PUBCHEM_TOTAL_CHARGE>
0

> <PUBCHEM_SUBSTANCE_ID>
310930744

> <PUBCHEM_SUBSTANCE_VERSION>
1

> <PUBCHEM_EXT_DATASOURCE_NAME>
4488

> <PUBCHEM_EXT_DATASOURCE_REGID>
SCHEMBL16108041

> <PUBCHEM_SUBSTANCE_COMMENT>
InChI=1S/C37H33FN2O9/c1-45-28-17-13-26(14-18-28)37(25-11-7-4-8-12-25,27-15-19-29(46-2)20-16-27)48-32-31(42)33(40-22-21-30(41)39-35(40)44)49-36(32,38)23-47-34(43)24-9-5-3-6-10-24/h3-22,31-33,42H,23H2,1-2H3,(H,39,41,44)/t31-,32-,33+,36-/m0/s1
InChIKey=LHMGCOCGZUAVQR-IEFDIXSJSA-N

> <PUBCHEM_SUBSTANCE_SYNONYM>
SCHEMBL16108041

> <PUBCHEM_XREF_EXT_ID>
SCHEMBL16108041

> <PUBCHEM_EXT_DATASOURCE_URL>
https://www.surechembl.org/

> <PUBCHEM_EXT_SUBSTANCE_URL>
https://www.surechembl.org/chemical/SCHEMBL16108041

> <PUBCHEM_CID_ASSOCIATIONS>
117599768  1

> <PUBCHEM_COORDINATE_TYPE>
1
3

> <PUBCHEM_BONDANNOTATIONS>
15  1  5
15  21  6
14  2  6
17  3  5
16  4  5

$$$$
