310941436
  -OEChem-07211613022D

 38 42  0     1  0  0  0  0  0999 V2000
   -0.4389    1.6443    0.0000 O   0  0  0  0  0  0  0  0  0  0  0  0
    0.3029    0.4204    0.0000 N   0  0  0  0  0  0  0  0  0  0  0  0
   -0.4141   -0.8160    0.0000 N   0  0  0  0  0  0  0  0  0  0  0  0
    1.1313   -1.6443    0.0000 N   0  0  0  0  0  0  0  0  0  0  0  0
   -2.5531    2.8931    0.0000 N   0  0  0  0  0  0  0  0  0  0  0  0
    1.7247   -2.8807    0.0000 N   0  0  0  0  0  0  0  0  0  0  0  0
   -0.4141    3.3011    0.0000 N   0  0  0  0  0  0  0  0  0  0  0  0
    1.0077   -4.1171    0.0000 N   0  0  0  0  0  0  0  0  0  0  0  0
    2.5654   -4.1171    0.0000 N   0  0  0  0  0  0  0  0  0  0  0  0
   -1.1313   -2.1019    0.0000 N   0  0  0  0  0  0  0  0  0  0  0  0
   -1.1313    0.4204    0.0000 C   0  0  0  0  0  0  0  0  0  0  0  0
   -0.4266    0.8160    0.0000 C   0  0  0  0  0  0  0  0  0  0  0  0
    0.2782   -0.4080    0.0000 C   0  0  0  0  0  0  0  0  0  0  0  0
   -1.1436   -0.4080    0.0000 C   0  0  0  0  0  0  0  0  0  0  0  0
   -1.8607    0.8284    0.0000 C   0  0  0  0  0  0  0  0  0  0  0  0
    1.0077    0.8284    0.0000 C   0  0  0  0  0  0  0  0  0  0  0  0
    1.0200   -0.8160    0.0000 C   0  0  3  0  0  0  0  0  0  0  0  0
   -1.8484    1.6567    0.0000 C   0  0  0  0  0  0  0  0  0  0  0  0
   -1.8360   -0.8160    0.0000 C   0  0  0  0  0  0  0  0  0  0  0  0
   -2.5531    0.4080    0.0000 C   0  0  0  0  0  0  0  0  0  0  0  0
   -2.5531   -0.4080    0.0000 C   0  0  0  0  0  0  0  0  0  0  0  0
   -1.1436    2.0524    0.0000 C   0  0  0  0  0  0  0  0  0  0  0  0
    1.7247    0.4204    0.0000 C   0  0  0  0  0  0  0  0  0  0  0  0
    1.0200    1.6567    0.0000 C   0  0  0  0  0  0  0  0  0  0  0  0
   -2.5654    2.0648    0.0000 C   0  0  0  0  0  0  0  0  0  0  0  0
    1.0077   -2.4727    0.0000 C   0  0  0  0  0  0  0  0  0  0  0  0
   -1.1313    2.8931    0.0000 C   0  0  0  0  0  0  0  0  0  0  0  0
    1.7124   -0.4080    0.0000 C   0  0  0  0  0  0  0  0  0  0  0  0
    0.3029   -2.8684    0.0000 C   0  0  0  0  0  0  0  0  0  0  0  0
    2.4295    0.8284    0.0000 C   0  0  0  0  0  0  0  0  0  0  0  0
    1.7124    2.0524    0.0000 C   0  0  0  0  0  0  0  0  0  0  0  0
   -1.8484    3.3011    0.0000 C   0  0  0  0  0  0  0  0  0  0  0  0
    2.4295    1.6567    0.0000 C   0  0  0  0  0  0  0  0  0  0  0  0
    1.7124   -3.7091    0.0000 C   0  0  0  0  0  0  0  0  0  0  0  0
    0.2906   -3.7091    0.0000 C   0  0  0  0  0  0  0  0  0  0  0  0
   -0.4266   -2.4727    0.0000 C   0  0  0  0  0  0  0  0  0  0  0  0
    0.2906    2.8807    0.0000 C   0  0  0  0  0  0  0  0  0  0  0  0
   -0.4266    4.1171    0.0000 C   0  0  0  0  0  0  0  0  0  0  0  0
  1 12  2  0  0  0  0
  2 12  1  0  0  0  0
  2 13  1  0  0  0  0
  2 16  1  0  0  0  0
  3 13  2  0  0  0  0
  3 14  1  0  0  0  0
  4 17  1  0  0  0  0
  4 26  1  0  0  0  0
  5 25  2  0  0  0  0
  5 32  1  0  0  0  0
  6 26  1  0  0  0  0
  6 34  2  0  0  0  0
  7 27  1  0  0  0  0
  7 37  1  0  0  0  0
  7 38  1  0  0  0  0
  8 34  1  0  0  0  0
  8 35  2  0  0  0  0
  9 34  1  0  0  0  0
 10 36  3  0  0  0  0
 11 12  1  0  0  0  0
 11 14  1  0  0  0  0
 11 15  2  0  0  0  0
 13 17  1  0  0  0  0
 14 19  2  0  0  0  0
 15 18  1  0  0  0  0
 15 20  1  0  0  0  0
 16 23  2  0  0  0  0
 16 24  1  0  0  0  0
 17 28  1  6  0  0  0
 18 22  2  0  0  0  0
 18 25  1  0  0  0  0
 19 21  1  0  0  0  0
 20 21  2  0  0  0  0
 22 27  1  0  0  0  0
 23 30  1  0  0  0  0
 24 31  2  0  0  0  0
 26 29  2  0  0  0  0
 27 32  2  0  0  0  0
 29 35  1  0  0  0  0
 29 36  1  0  0  0  0
 30 33  2  0  0  0  0
 31 33  1  0  0  0  0
M  END
> <PUBCHEM_COMPOUND_ID_TYPE>
0

> <PUBCHEM_TOTAL_CHARGE>
0

> <PUBCHEM_SUBSTANCE_ID>
310941436

> <PUBCHEM_SUBSTANCE_VERSION>
1

> <PUBCHEM_EXT_DATASOURCE_NAME>
4488

> <PUBCHEM_EXT_DATASOURCE_REGID>
SCHEMBL16119396

> <PUBCHEM_SUBSTANCE_COMMENT>
InChI=1S/C28H25N9O/c1-17(33-25-19(13-29)15-32-28(30)35-25)26-34-23-11-7-10-22(18-12-21(36(2)3)16-31-14-18)24(23)27(38)37(26)20-8-5-4-6-9-20/h4-12,14-17H,1-3H3,(H3,30,32,33,35)/t17-/m0/s1
InChIKey=ROMNTGFJROJAIT-KRWDZBQOSA-N

> <PUBCHEM_SUBSTANCE_SYNONYM>
SCHEMBL16119396

> <PUBCHEM_XREF_EXT_ID>
SCHEMBL16119396

> <PUBCHEM_EXT_DATASOURCE_URL>
https://www.surechembl.org/

> <PUBCHEM_EXT_SUBSTANCE_URL>
https://www.surechembl.org/chemical/SCHEMBL16119396

> <PUBCHEM_CID_ASSOCIATIONS>
117608261  1

> <PUBCHEM_COORDINATE_TYPE>
1
3

> <PUBCHEM_BONDANNOTATIONS>
17  28  6

$$$$
