310940761
  -OEChem-07211613022D

 17 18  0     0  0  0  0  0  0999 V2000
    2.1923   -0.4507    0.0000 O   0  0  0  0  0  0  0  0  0  0  0  0
    0.8784   -1.1534    0.0000 O   0  0  0  0  0  0  0  0  0  0  0  0
    0.8479    0.3284    0.0000 N   0  0  0  0  0  0  0  0  0  0  0  0
   -1.2146    0.2979    0.0000 C   0  0  0  0  0  0  0  0  0  0  0  0
   -0.1146    0.2979    0.0000 C   0  0  0  0  0  0  0  0  0  0  0  0
   -0.6646    0.9396    0.0000 C   0  0  0  0  0  0  0  0  0  0  0  0
   -0.6493   -0.2674    0.0000 C   0  0  0  0  0  0  0  0  0  0  0  0
   -0.6493   -0.0076    0.0000 C   0  0  0  0  0  0  0  0  0  0  0  0
   -2.5131    0.3284    0.0000 C   0  0  0  0  0  0  0  0  0  0  0  0
    1.2909   -0.4354    0.0000 C   0  0  0  0  0  0  0  0  0  0  0  0
   -2.5131   -0.4965    0.0000 C   0  0  0  0  0  0  0  0  0  0  0  0
   -3.3381    0.3284    0.0000 C   0  0  0  0  0  0  0  0  0  0  0  0
   -2.4978    1.1534    0.0000 C   0  0  0  0  0  0  0  0  0  0  0  0
    2.6353    0.2826    0.0000 C   0  0  0  0  0  0  0  0  0  0  0  0
    3.3381   -0.0993    0.0000 C   0  0  0  0  0  0  0  0  0  0  0  0
    1.9631    0.6798    0.0000 C   0  0  0  0  0  0  0  0  0  0  0  0
    3.0631    1.0159    0.0000 C   0  0  0  0  0  0  0  0  0  0  0  0
  1 10  1  0  0  0  0
  1 14  1  0  0  0  0
  2 10  2  0  0  0  0
  3  5  1  0  0  0  0
  3 10  1  0  0  0  0
  4  6  1  0  0  0  0
  4  7  1  0  0  0  0
  4  8  1  0  0  0  0
  4  9  1  0  0  0  0
  5  6  1  0  0  0  0
  5  7  1  0  0  0  0
  5  8  1  0  0  0  0
  9 11  1  0  0  0  0
  9 12  1  0  0  0  0
  9 13  1  0  0  0  0
 14 15  1  0  0  0  0
 14 16  1  0  0  0  0
 14 17  1  0  0  0  0
M  END
> <PUBCHEM_COMPOUND_ID_TYPE>
0

> <PUBCHEM_TOTAL_CHARGE>
0

> <PUBCHEM_SUBSTANCE_ID>
310940761

> <PUBCHEM_SUBSTANCE_VERSION>
1

> <PUBCHEM_EXT_DATASOURCE_NAME>
4488

> <PUBCHEM_EXT_DATASOURCE_REGID>
SCHEMBL16118720

> <PUBCHEM_SUBSTANCE_COMMENT>
InChI=1S/C14H25NO2/c1-11(2,3)13-7-14(8-13,9-13)15-10(16)17-12(4,5)6/h7-9H2,1-6H3,(H,15,16)
InChIKey=JOJZWQUCGPFQAH-UHFFFAOYSA-N

> <PUBCHEM_SUBSTANCE_SYNONYM>
SCHEMBL16118720

> <PUBCHEM_XREF_EXT_ID>
SCHEMBL16118720

> <PUBCHEM_EXT_DATASOURCE_URL>
https://www.surechembl.org/

> <PUBCHEM_EXT_SUBSTANCE_URL>
https://www.surechembl.org/chemical/SCHEMBL16118720

> <PUBCHEM_CID_ASSOCIATIONS>
117607715  1

> <PUBCHEM_COORDINATE_TYPE>
1
3

$$$$
