310946050
  -OEChem-07211613022D

 32 32  0     1  0  0  0  0  0999 V2000
    2.5301   -1.0211    0.0000 O   0  0  0  0  0  0  0  0  0  0  0  0
    3.9216   -0.1898    0.0000 O   0  0  0  0  0  0  0  0  0  0  0  0
    2.5482    2.2681    0.0000 O   0  0  0  0  0  0  0  0  0  0  0  0
   -0.3253    1.4367    0.0000 O   0  0  0  0  0  0  0  0  0  0  0  0
    1.8433    3.5151    0.0000 O   0  0  0  0  0  0  0  0  0  0  0  0
   -2.4759    3.5151    0.0000 O   0  0  0  0  0  0  0  0  0  0  0  0
   -4.6265    3.0994    0.0000 O   0  0  0  0  0  0  0  0  0  0  0  0
    0.3976    2.6837    0.0000 N   0  0  0  0  0  0  0  0  0  0  0  0
   -1.7530    2.2681    0.0000 N   0  0  0  0  0  0  0  0  0  0  0  0
    1.8433    1.0211    0.0000 C   0  0  0  0  0  0  0  0  0  0  0  0
    2.5301   -0.1536    0.0000 C   0  0  0  0  0  0  0  0  0  0  0  0
    1.1385    2.2681    0.0000 C   0  0  3  0  0  0  0  0  0  0  0  0
    3.1988    0.2259    0.0000 C   0  0  0  0  0  0  0  0  0  0  0  0
    1.8615    0.2259    0.0000 C   0  0  0  0  0  0  0  0  0  0  0  0
    1.1024    1.4367    0.0000 C   0  0  0  0  0  0  0  0  0  0  0  0
    2.5120    1.4006    0.0000 C   0  0  0  0  0  0  0  0  0  0  0  0
    3.2168    1.0211    0.0000 C   0  0  0  0  0  0  0  0  0  0  0  0
   -0.3072    2.2861    0.0000 C   0  0  0  0  0  0  0  0  0  0  0  0
    1.8253    2.6657    0.0000 C   0  0  0  0  0  0  0  0  0  0  0  0
   -1.0482    2.6837    0.0000 C   0  0  3  0  0  0  0  0  0  0  0  0
   -2.4759    2.6657    0.0000 C   0  0  0  0  0  0  0  0  0  0  0  0
   -3.9217    2.7018    0.0000 C   0  0  0  0  0  0  0  0  0  0  0  0
   -3.1988    2.2681    0.0000 C   0  0  0  0  0  0  0  0  0  0  0  0
    3.1988   -1.4367    0.0000 C   0  0  0  0  0  0  0  0  0  0  0  0
   -1.0301    3.4970    0.0000 C   0  0  0  0  0  0  0  0  0  0  0  0
    4.6265    0.2078    0.0000 C   0  0  0  0  0  0  0  0  0  0  0  0
    3.1626   -2.2681    0.0000 C   0  0  0  0  0  0  0  0  0  0  0  0
   -4.6265    2.2861    0.0000 C   0  0  0  0  0  0  0  0  0  0  0  0
   -3.8855    3.5331    0.0000 C   0  0  0  0  0  0  0  0  0  0  0  0
    3.2350    2.6837    0.0000 C   0  0  0  0  0  0  0  0  0  0  0  0
    3.9036   -2.7018    0.0000 C   0  0  0  0  0  0  0  0  0  0  0  0
    3.8675   -3.5331    0.0000 C   0  0  0  0  0  0  0  0  0  0  0  0
  1 11  1  0  0  0  0
  1 24  1  0  0  0  0
  2 13  1  0  0  0  0
  2 26  1  0  0  0  0
  3 19  1  0  0  0  0
  3 30  1  0  0  0  0
  4 18  2  0  0  0  0
  5 19  2  0  0  0  0
  6 21  2  0  0  0  0
  7 22  1  0  0  0  0
 12  8  1  6  0  0  0
  8 18  1  0  0  0  0
  9 20  1  0  0  0  0
  9 21  1  0  0  0  0
 10 14  1  0  0  0  0
 10 15  1  0  0  0  0
 10 16  2  0  0  0  0
 11 13  1  0  0  0  0
 11 14  2  0  0  0  0
 12 15  1  0  0  0  0
 12 19  1  0  0  0  0
 13 17  2  0  0  0  0
 16 17  1  0  0  0  0
 18 20  1  0  0  0  0
 20 25  1  6  0  0  0
 21 23  1  0  0  0  0
 22 23  1  0  0  0  0
 22 28  1  0  0  0  0
 22 29  1  0  0  0  0
 24 27  1  0  0  0  0
 27 31  1  0  0  0  0
 31 32  1  0  0  0  0
M  END
> <PUBCHEM_COMPOUND_ID_TYPE>
0

> <PUBCHEM_TOTAL_CHARGE>
0

> <PUBCHEM_SUBSTANCE_ID>
310946050

> <PUBCHEM_SUBSTANCE_VERSION>
1

> <PUBCHEM_EXT_DATASOURCE_NAME>
4488

> <PUBCHEM_EXT_DATASOURCE_REGID>
SCHEMBL16124156

> <PUBCHEM_SUBSTANCE_COMMENT>
InChI=1S/C23H36N2O7/c1-7-8-11-32-19-13-16(9-10-18(19)30-5)12-17(22(28)31-6)25-21(27)15(2)24-20(26)14-23(3,4)29/h9-10,13,15,17,29H,7-8,11-12,14H2,1-6H3,(H,24,26)(H,25,27)/t15-,17+/m1/s1
InChIKey=YLJMYJXYUZETOY-WBVHZDCISA-N

> <PUBCHEM_SUBSTANCE_SYNONYM>
SCHEMBL16124156

> <PUBCHEM_XREF_EXT_ID>
SCHEMBL16124156

> <PUBCHEM_EXT_DATASOURCE_URL>
https://www.surechembl.org/

> <PUBCHEM_EXT_SUBSTANCE_URL>
https://www.surechembl.org/chemical/SCHEMBL16124156

> <PUBCHEM_CID_ASSOCIATIONS>
117612021  1

> <PUBCHEM_COORDINATE_TYPE>
1
3

> <PUBCHEM_BONDANNOTATIONS>
20  25  6
12  8  6

$$$$
