310939713
  -OEChem-07211613022D

 24 26  0     0  0  0  0  0  0999 V2000
    0.1596    2.6234    0.0000 F   0  0  0  0  0  0  0  0  0  0  0  0
    0.8745    1.7170    0.0000 F   0  0  0  0  0  0  0  0  0  0  0  0
   -0.0319    1.0276    0.0000 F   0  0  0  0  0  0  0  0  0  0  0  0
   -0.5553   -2.4574    0.0000 O   0  0  0  0  0  0  0  0  0  0  0  0
   -0.3511   -1.0404    0.0000 N   0  0  0  0  0  0  0  0  0  0  0  0
    1.2830   -1.2574    0.0000 N   0  0  0  0  0  0  0  0  0  0  0  0
    2.1127   -1.3851    0.0000 N   0  0  0  0  0  0  0  0  0  0  0  0
   -1.2830    1.2702    0.0000 C   0  0  0  0  0  0  0  0  0  0  0  0
   -0.7979    1.9340    0.0000 C   0  0  0  0  0  0  0  0  0  0  0  0
   -0.9638    0.5298    0.0000 C   0  0  0  0  0  0  0  0  0  0  0  0
    0.0574    1.8191    0.0000 C   0  0  0  0  0  0  0  0  0  0  0  0
   -0.0447   -1.7936    0.0000 C   0  0  0  0  0  0  0  0  0  0  0  0
   -1.4872   -0.1468    0.0000 C   0  0  0  0  0  0  0  0  0  0  0  0
   -0.1596    0.3766    0.0000 C   0  0  0  0  0  0  0  0  0  0  0  0
   -2.1000    1.3851    0.0000 C   0  0  0  0  0  0  0  0  0  0  0  0
   -1.1170    2.7000    0.0000 C   0  0  0  0  0  0  0  0  0  0  0  0
   -1.1808   -0.9128    0.0000 C   0  0  0  0  0  0  0  0  0  0  0  0
    0.1468   -0.3766    0.0000 C   0  0  0  0  0  0  0  0  0  0  0  0
    0.7723   -1.9213    0.0000 C   0  0  0  0  0  0  0  0  0  0  0  0
   -2.4191    2.1510    0.0000 C   0  0  0  0  0  0  0  0  0  0  0  0
   -1.9213    2.8021    0.0000 C   0  0  0  0  0  0  0  0  0  0  0  0
    1.1042   -2.6872    0.0000 C   0  0  0  0  0  0  0  0  0  0  0  0
    1.9085   -2.8021    0.0000 C   0  0  0  0  0  0  0  0  0  0  0  0
    2.4191   -2.1383    0.0000 C   0  0  0  0  0  0  0  0  0  0  0  0
  1 11  1  0  0  0  0
  2 11  1  0  0  0  0
  3 11  1  0  0  0  0
  4 12  2  0  0  0  0
  5 12  1  0  0  0  0
  5 17  1  0  0  0  0
  5 18  1  0  0  0  0
  6  7  2  0  0  0  0
  6 19  1  0  0  0  0
  7 24  1  0  0  0  0
  8  9  2  0  0  0  0
  8 10  1  0  0  0  0
  8 15  1  0  0  0  0
  9 11  1  0  0  0  0
  9 16  1  0  0  0  0
 10 13  1  0  0  0  0
 10 14  1  0  0  0  0
 12 19  1  0  0  0  0
 13 17  1  0  0  0  0
 14 18  1  0  0  0  0
 15 20  2  0  0  0  0
 16 21  2  0  0  0  0
 19 22  2  0  0  0  0
 20 21  1  0  0  0  0
 22 23  1  0  0  0  0
 23 24  2  0  0  0  0
M  END
> <PUBCHEM_COMPOUND_ID_TYPE>
0

> <PUBCHEM_TOTAL_CHARGE>
0

> <PUBCHEM_SUBSTANCE_ID>
310939713

> <PUBCHEM_SUBSTANCE_VERSION>
1

> <PUBCHEM_EXT_DATASOURCE_NAME>
4488

> <PUBCHEM_EXT_DATASOURCE_REGID>
SCHEMBL16117643

> <PUBCHEM_SUBSTANCE_COMMENT>
InChI=1S/C17H16F3N3O/c18-17(19,20)14-5-2-1-4-13(14)12-7-10-23(11-8-12)16(24)15-6-3-9-21-22-15/h1-6,9,12H,7-8,10-11H2
InChIKey=PMSNDCLWWXPMRN-UHFFFAOYSA-N

> <PUBCHEM_SUBSTANCE_SYNONYM>
SCHEMBL16117643

> <PUBCHEM_XREF_EXT_ID>
SCHEMBL16117643

> <PUBCHEM_EXT_DATASOURCE_URL>
https://www.surechembl.org/

> <PUBCHEM_EXT_SUBSTANCE_URL>
https://www.surechembl.org/chemical/SCHEMBL16117643

> <PUBCHEM_CID_ASSOCIATIONS>
117606940  1

> <PUBCHEM_COORDINATE_TYPE>
1
3

$$$$
