310942079
  -OEChem-07211613022D

 21 24  0     0  0  0  0  0  0999 V2000
    2.0145    1.0897    0.0000 S   0  0  0  0  0  0  0  0  0  0  0  0
   -1.1783   -1.1657    0.0000 N   0  0  0  0  0  0  0  0  0  0  0  0
   -0.7475    0.1393    0.0000 C   0  0  0  0  0  0  0  0  0  0  0  0
   -0.5068   -0.6462    0.0000 C   0  0  0  0  0  0  0  0  0  0  0  0
   -1.5711    0.1520    0.0000 C   0  0  0  0  0  0  0  0  0  0  0  0
   -1.8625   -0.6462    0.0000 C   0  0  0  0  0  0  0  0  0  0  0  0
    0.6082    0.5829    0.0000 C   0  0  0  0  0  0  0  0  0  0  0  0
   -0.1901    0.7475    0.0000 C   0  0  0  0  0  0  0  0  0  0  0  0
    0.3041   -0.8362    0.0000 C   0  0  0  0  0  0  0  0  0  0  0  0
    1.1783    1.2163    0.0000 C   0  0  0  0  0  0  0  0  0  0  0  0
   -2.1033    0.7729    0.0000 C   0  0  0  0  0  0  0  0  0  0  0  0
    0.8489   -0.2408    0.0000 C   0  0  0  0  0  0  0  0  0  0  0  0
   -2.6481   -0.7982    0.0000 C   0  0  0  0  0  0  0  0  0  0  0  0
   -1.2037   -2.0145    0.0000 C   0  0  0  0  0  0  0  0  0  0  0  0
   -2.9142    0.6209    0.0000 C   0  0  0  0  0  0  0  0  0  0  0  0
   -3.1803   -0.1901    0.0000 C   0  0  0  0  0  0  0  0  0  0  0  0
    1.0137    2.0145    0.0000 C   0  0  0  0  0  0  0  0  0  0  0  0
    2.3440    1.8879    0.0000 C   0  0  0  0  0  0  0  0  0  0  0  0
    1.7232    2.4327    0.0000 C   0  0  0  0  0  0  0  0  0  0  0  0
   -1.9132   -2.4327    0.0000 C   0  0  0  0  0  0  0  0  0  0  0  0
    3.1803    2.0526    0.0000 C   0  0  0  0  0  0  0  0  0  0  0  0
  1 10  1  0  0  0  0
  1 18  1  0  0  0  0
  2  4  1  0  0  0  0
  2  6  1  0  0  0  0
  2 14  1  0  0  0  0
  3  4  2  0  0  0  0
  3  5  1  0  0  0  0
  3  8  1  0  0  0  0
  4  9  1  0  0  0  0
  5  6  2  0  0  0  0
  5 11  1  0  0  0  0
  6 13  1  0  0  0  0
  7  8  2  0  0  0  0
  7 10  1  0  0  0  0
  7 12  1  0  0  0  0
  9 12  2  0  0  0  0
 10 17  2  0  0  0  0
 11 15  2  0  0  0  0
 13 16  2  0  0  0  0
 14 20  1  0  0  0  0
 15 16  1  0  0  0  0
 17 19  1  0  0  0  0
 18 19  2  0  0  0  0
 18 21  1  0  0  0  0
M  END
> <PUBCHEM_COMPOUND_ID_TYPE>
0

> <PUBCHEM_TOTAL_CHARGE>
0

> <PUBCHEM_SUBSTANCE_ID>
310942079

> <PUBCHEM_SUBSTANCE_VERSION>
1

> <PUBCHEM_EXT_DATASOURCE_NAME>
4488

> <PUBCHEM_EXT_DATASOURCE_REGID>
SCHEMBL16120114

> <PUBCHEM_SUBSTANCE_COMMENT>
InChI=1S/C19H17NS/c1-3-20-17-7-5-4-6-15(17)16-12-14(9-10-18(16)20)19-11-8-13(2)21-19/h4-12H,3H2,1-2H3
InChIKey=YLVAITJRAQZXKP-UHFFFAOYSA-N

> <PUBCHEM_SUBSTANCE_SYNONYM>
SCHEMBL16120114

> <PUBCHEM_XREF_EXT_ID>
SCHEMBL16120114

> <PUBCHEM_EXT_DATASOURCE_URL>
https://www.surechembl.org/

> <PUBCHEM_EXT_SUBSTANCE_URL>
https://www.surechembl.org/chemical/SCHEMBL16120114

> <PUBCHEM_CID_ASSOCIATIONS>
86270863  1

> <PUBCHEM_COORDINATE_TYPE>
1
3

$$$$
