310947558
  -OEChem-07211613022D

 48 53  0     1  0  0  0  0  0999 V2000
    2.0835   -1.0569    0.0000 P   0  0  3  0  0  0  0  0  0  0  0  0
    1.4853   -0.0588    0.0000 F   0  0  0  0  0  0  0  0  0  0  0  0
   -0.3915   -1.0569    0.0000 O   0  0  0  0  0  0  0  0  0  0  0  0
    0.4335    0.9271    0.0000 O   0  0  0  0  0  0  0  0  0  0  0  0
    1.6710   -1.7714    0.0000 O   0  0  0  0  0  0  0  0  0  0  0  0
    2.7980   -1.4694    0.0000 O   0  0  0  0  0  0  0  0  0  0  0  0
    1.3690   -0.6444    0.0000 O   0  0  0  0  0  0  0  0  0  0  0  0
    2.0835    1.8010    0.0000 O   0  0  0  0  0  0  0  0  0  0  0  0
    3.3210    1.0865    0.0000 O   0  0  0  0  0  0  0  0  0  0  0  0
   -1.3609    0.1402    0.0000 N   0  0  0  0  0  0  0  0  0  0  0  0
   -2.4408    0.9248    0.0000 N   0  0  0  0  0  0  0  0  0  0  0  0
   -2.1146   -1.1652    0.0000 N   0  0  0  0  0  0  0  0  0  0  0  0
   -4.1169    0.2896    0.0000 N   0  0  0  0  0  0  0  0  0  0  0  0
   -3.5357   -1.0158    0.0000 N   0  0  0  0  0  0  0  0  0  0  0  0
   -2.9545   -2.3212    0.0000 N   0  0  0  0  0  0  0  0  0  0  0  0
    2.4960   -0.3424    0.0000 N   0  0  0  0  0  0  0  0  0  0  0  0
   -0.6464   -0.2723    0.0000 C   0  0  3  0  0  0  0  0  0  0  0  0
    0.0210    0.2126    0.0000 C   0  0  3  0  0  0  0  0  0  0  0  0
   -2.0283   -0.3447    0.0000 C   0  0  0  0  0  0  0  0  0  0  0  0
    0.6885   -0.2723    0.0000 C   0  0  3  0  0  0  0  0  0  0  0  0
   -2.6958    0.1402    0.0000 C   0  0  0  0  0  0  0  0  0  0  0  0
    0.4335   -1.0569    0.0000 C   0  0  3  0  0  0  0  0  0  0  0  0
   -3.4494   -0.1953    0.0000 C   0  0  0  0  0  0  0  0  0  0  0  0
   -1.6158    0.9248    0.0000 C   0  0  0  0  0  0  0  0  0  0  0  0
   -2.8682   -1.5007    0.0000 C   0  0  0  0  0  0  0  0  0  0  0  0
   -0.3915    0.9271    0.0000 C   0  0  0  0  0  0  0  0  0  0  0  0
    0.8460   -1.7714    0.0000 C   0  0  0  0  0  0  0  0  0  0  0  0
   -4.1164    1.1146    0.0000 C   0  0  0  0  0  0  0  0  0  0  0  0
   -4.9414    0.2896    0.0000 C   0  0  0  0  0  0  0  0  0  0  0  0
   -4.9414    1.1146    0.0000 C   0  0  0  0  0  0  0  0  0  0  0  0
    2.7980   -2.2944    0.0000 C   0  0  0  0  0  0  0  0  0  0  0  0
    3.5125   -2.7069    0.0000 C   0  0  0  0  0  0  0  0  0  0  0  0
    3.5125   -3.5319    0.0000 C   0  0  0  0  0  0  0  0  0  0  0  0
    2.0835    0.3720    0.0000 C   0  0  3  0  0  0  0  0  0  0  0  0
    2.0835   -2.7069    0.0000 C   0  0  0  0  0  0  0  0  0  0  0  0
    4.2269   -2.2944    0.0000 C   0  0  0  0  0  0  0  0  0  0  0  0
    2.7980   -3.9444    0.0000 C   0  0  0  0  0  0  0  0  0  0  0  0
    2.0835   -3.5319    0.0000 C   0  0  0  0  0  0  0  0  0  0  0  0
    2.4960    1.0865    0.0000 C   0  0  0  0  0  0  0  0  0  0  0  0
    4.2269   -3.9444    0.0000 C   0  0  0  0  0  0  0  0  0  0  0  0
    4.9414   -2.7069    0.0000 C   0  0  0  0  0  0  0  0  0  0  0  0
    4.9414   -3.5319    0.0000 C   0  0  0  0  0  0  0  0  0  0  0  0
    1.2585    0.3720    0.0000 C   0  0  0  0  0  0  0  0  0  0  0  0
    2.4960    2.5155    0.0000 C   0  0  0  0  0  0  0  0  0  0  0  0
    2.0835    3.2299    0.0000 C   0  0  0  0  0  0  0  0  0  0  0  0
    1.6710    3.9444    0.0000 C   0  0  0  0  0  0  0  0  0  0  0  0
    1.3690    2.8174    0.0000 C   0  0  0  0  0  0  0  0  0  0  0  0
    2.7980    3.6424    0.0000 C   0  0  0  0  0  0  0  0  0  0  0  0
  1  5  1  0  0  0  0
  1  6  1  0  0  0  0
  1  7  2  0  0  0  0
  1 16  1  0  0  0  0
 20  2  1  6  0  0  0
  3 17  1  0  0  0  0
  3 22  1  0  0  0  0
 18  4  1  6  0  0  0
  5 27  1  0  0  0  0
  6 31  1  0  0  0  0
  8 39  1  0  0  0  0
  8 44  1  0  0  0  0
  9 39  2  0  0  0  0
 10 17  1  0  0  0  0
 10 19  1  0  0  0  0
 10 24  1  0  0  0  0
 11 21  1  0  0  0  0
 11 24  2  0  0  0  0
 12 19  1  0  0  0  0
 12 25  2  0  0  0  0
 13 23  1  0  0  0  0
 13 28  1  0  0  0  0
 13 29  1  0  0  0  0
 14 23  2  0  0  0  0
 14 25  1  0  0  0  0
 15 25  1  0  0  0  0
 16 34  1  0  0  0  0
 17 18  1  0  0  0  0
 18 20  1  0  0  0  0
 18 26  1  1  0  0  0
 19 21  2  0  0  0  0
 20 22  1  0  0  0  0
 21 23  1  0  0  0  0
 22 27  1  1  0  0  0
 28 30  1  0  0  0  0
 29 30  1  0  0  0  0
 31 32  1  0  0  0  0
 31 35  2  0  0  0  0
 32 33  2  0  0  0  0
 32 36  1  0  0  0  0
 33 37  1  0  0  0  0
 33 40  1  0  0  0  0
 34 39  1  0  0  0  0
 34 43  1  1  0  0  0
 35 38  1  0  0  0  0
 36 41  2  0  0  0  0
 37 38  2  0  0  0  0
 40 42  2  0  0  0  0
 41 42  1  0  0  0  0
 44 45  1  0  0  0  0
 45 46  1  0  0  0  0
 45 47  1  0  0  0  0
 45 48  1  0  0  0  0
M  END
> <PUBCHEM_COMPOUND_ID_TYPE>
0

> <PUBCHEM_TOTAL_CHARGE>
0

> <PUBCHEM_SUBSTANCE_ID>
310947558

> <PUBCHEM_SUBSTANCE_VERSION>
1

> <PUBCHEM_EXT_DATASOURCE_NAME>
4488

> <PUBCHEM_EXT_DATASOURCE_REGID>
SCHEMBL16125721

> <PUBCHEM_SUBSTANCE_COMMENT>
InChI=1S/C32H41FN7O7P/c1-19(28(41)44-17-31(2,3)4)38-48(43,47-22-13-8-11-20-10-6-7-12-21(20)22)45-16-23-25(33)32(5,42)29(46-23)40-18-35-24-26(39-14-9-15-39)36-30(34)37-27(24)40/h6-8,10-13,18-19,23,25,29,42H,9,14-17H2,1-5H3,(H,38,43)(H2,34,36,37)/t19-,23+,25+,29?,32+,48?/m0/s1
InChIKey=YAKKAEBOZGOVJJ-JWBAGFQESA-N

> <PUBCHEM_SUBSTANCE_SYNONYM>
SCHEMBL16125721

> <PUBCHEM_XREF_EXT_ID>
SCHEMBL16125721

> <PUBCHEM_EXT_DATASOURCE_URL>
https://www.surechembl.org/

> <PUBCHEM_EXT_SUBSTANCE_URL>
https://www.surechembl.org/chemical/SCHEMBL16125721

> <PUBCHEM_CID_ASSOCIATIONS>
117613280  1

> <PUBCHEM_COORDINATE_TYPE>
1
3

> <PUBCHEM_BONDANNOTATIONS>
18  26  5
20  2  6
22  27  5
34  43  5
18  4  6

$$$$
