310930886
  -OEChem-07211613022D

 31 35  0     0  0  0  0  0  0999 V2000
    6.4527   -2.1399    0.0000 S   0  0  0  0  0  0  0  0  0  0  0  0
    8.2963   -2.0412    0.0000 O   0  0  0  0  0  0  0  0  0  0  0  0
    8.9548   -0.9218    0.0000 O   0  0  0  0  0  0  0  0  0  0  0  0
    5.6626   -1.6790    0.0000 O   0  0  0  0  0  0  0  0  0  0  0  0
    7.1440   -2.5679    0.0000 O   0  0  0  0  0  0  0  0  0  0  0  0
    2.2058   -6.4198    0.0000 O   0  0  0  0  0  0  0  0  0  0  0  0
    3.9506   -6.4856    0.0000 O   0  0  0  0  0  0  0  0  0  0  0  0
    3.9506   -5.0371    0.0000 N   0  0  0  0  0  0  0  0  0  0  0  0
    0.0000   -6.1893    0.0000 N   0  0  0  0  0  0  0  0  0  0  0  0
    6.8806   -1.4486    0.0000 C   0  0  0  0  0  0  0  0  0  0  0  0
    7.7366   -1.4486    0.0000 C   0  0  0  0  0  0  0  0  0  0  0  0
    6.0577   -2.8642    0.0000 C   0  0  0  0  0  0  0  0  0  0  0  0
    8.1317   -0.7243    0.0000 C   0  0  0  0  0  0  0  0  0  0  0  0
    6.4856   -0.7572    0.0000 C   0  0  0  0  0  0  0  0  0  0  0  0
    7.7366    0.0000    0.0000 C   0  0  0  0  0  0  0  0  0  0  0  0
    5.2017   -2.8642    0.0000 C   0  0  0  0  0  0  0  0  0  0  0  0
    6.4527   -3.5885    0.0000 C   0  0  0  0  0  0  0  0  0  0  0  0
    6.9136    0.0000    0.0000 C   0  0  0  0  0  0  0  0  0  0  0  0
    2.6996   -5.7613    0.0000 C   0  0  0  0  0  0  0  0  0  0  0  0
    9.0535   -1.7119    0.0000 C   0  0  0  0  0  0  0  0  0  0  0  0
    1.4156   -6.1893    0.0000 C   0  0  0  0  0  0  0  0  0  0  0  0
    1.4156   -5.3333    0.0000 C   0  0  0  0  0  0  0  0  0  0  0  0
    5.2017   -4.3127    0.0000 C   0  0  0  0  0  0  0  0  0  0  0  0
    2.2058   -5.1029    0.0000 C   0  0  0  0  0  0  0  0  0  0  0  0
    4.7737   -3.5885    0.0000 C   0  0  0  0  0  0  0  0  0  0  0  0
    6.0247   -4.3127    0.0000 C   0  0  0  0  0  0  0  0  0  0  0  0
    3.5226   -5.7613    0.0000 C   0  0  0  0  0  0  0  0  0  0  0  0
    4.7737   -5.0371    0.0000 C   0  0  0  0  0  0  0  0  0  0  0  0
    0.6914   -6.5844    0.0000 C   0  0  0  0  0  0  0  0  0  0  0  0
    0.6914   -4.9383    0.0000 C   0  0  0  0  0  0  0  0  0  0  0  0
    0.0000   -5.3333    0.0000 C   0  0  0  0  0  0  0  0  0  0  0  0
  1  4  2  0  0  0  0
  1  5  2  0  0  0  0
  1 10  1  0  0  0  0
  1 12  1  0  0  0  0
  2 11  1  0  0  0  0
  2 20  1  0  0  0  0
  3 13  1  0  0  0  0
  3 20  1  0  0  0  0
  6 19  1  0  0  0  0
  6 21  1  0  0  0  0
  7 27  2  0  0  0  0
  8 27  1  0  0  0  0
  8 28  1  0  0  0  0
  9 29  1  0  0  0  0
  9 31  2  0  0  0  0
 10 11  1  0  0  0  0
 10 14  2  0  0  0  0
 11 13  2  0  0  0  0
 12 16  2  0  0  0  0
 12 17  1  0  0  0  0
 13 15  1  0  0  0  0
 14 18  1  0  0  0  0
 15 18  2  0  0  0  0
 16 25  1  0  0  0  0
 17 26  2  0  0  0  0
 19 24  2  0  0  0  0
 19 27  1  0  0  0  0
 21 22  1  0  0  0  0
 21 29  2  0  0  0  0
 22 24  1  0  0  0  0
 22 30  2  0  0  0  0
 23 25  2  0  0  0  0
 23 26  1  0  0  0  0
 23 28  1  0  0  0  0
 30 31  1  0  0  0  0
M  END
> <PUBCHEM_COMPOUND_ID_TYPE>
0

> <PUBCHEM_TOTAL_CHARGE>
0

> <PUBCHEM_SUBSTANCE_ID>
310930886

> <PUBCHEM_SUBSTANCE_VERSION>
1

> <PUBCHEM_EXT_DATASOURCE_NAME>
4488

> <PUBCHEM_EXT_DATASOURCE_REGID>
SCHEMBL16108184

> <PUBCHEM_SUBSTANCE_COMMENT>
InChI=1S/C22H16N2O6S/c25-22(18-10-15-8-9-23-12-19(15)30-18)24-11-14-4-6-16(7-5-14)31(26,27)20-3-1-2-17-21(20)29-13-28-17/h1-10,12H,11,13H2,(H,24,25)
InChIKey=ZKKSHOYIUQZLQB-UHFFFAOYSA-N

> <PUBCHEM_SUBSTANCE_SYNONYM>
SCHEMBL16108184

> <PUBCHEM_XREF_EXT_ID>
SCHEMBL16108184

> <PUBCHEM_EXT_DATASOURCE_URL>
https://www.surechembl.org/

> <PUBCHEM_EXT_SUBSTANCE_URL>
https://www.surechembl.org/chemical/SCHEMBL16108184

> <PUBCHEM_CID_ASSOCIATIONS>
117599859  1

> <PUBCHEM_COORDINATE_TYPE>
1
3

$$$$
