310943178
  -OEChem-07211613022D

 34 37  0     0  0  0  0  0  0999 V2000
    4.3010   -2.0694    0.0000 F   0  0  0  0  0  0  0  0  0  0  0  0
   -3.5793   -0.8322    0.0000 O   0  0  0  0  0  0  0  0  0  0  0  0
   -5.0080    1.6571    0.0000 O   0  0  0  0  0  0  0  0  0  0  0  0
    4.3010   -0.4051    0.0000 O   0  0  0  0  0  0  0  0  0  0  0  0
    0.7218   -0.8322    0.0000 O   0  0  0  0  0  0  0  0  0  0  0  0
   -2.1505   -0.8175    0.0000 N   0  0  0  0  0  0  0  0  0  0  0  0
   -3.5940    0.8322    0.0000 N   0  0  0  0  0  0  0  0  0  0  0  0
    0.0000    2.0694    0.0000 N   0  0  0  0  0  0  0  0  0  0  0  0
    1.4287    0.4198    0.0000 N   0  0  0  0  0  0  0  0  0  0  0  0
   -1.4287    0.4198    0.0000 C   0  0  0  0  0  0  0  0  0  0  0  0
   -0.7218    0.8322    0.0000 C   0  0  0  0  0  0  0  0  0  0  0  0
   -2.8575    0.4198    0.0000 C   0  0  0  0  0  0  0  0  0  0  0  0
   -2.8575   -0.3903    0.0000 C   0  0  0  0  0  0  0  0  0  0  0  0
   -2.1505    0.8322    0.0000 C   0  0  0  0  0  0  0  0  0  0  0  0
   -1.4435   -0.4051    0.0000 C   0  0  0  0  0  0  0  0  0  0  0  0
   -0.7070    1.6571    0.0000 C   0  0  0  0  0  0  0  0  0  0  0  0
    0.0000    0.4345    0.0000 C   0  0  0  0  0  0  0  0  0  0  0  0
    0.7070    0.8322    0.0000 C   0  0  0  0  0  0  0  0  0  0  0  0
    0.7218    1.6571    0.0000 C   0  0  0  0  0  0  0  0  0  0  0  0
    2.1505   -0.8175    0.0000 C   0  0  0  0  0  0  0  0  0  0  0  0
    1.4435   -0.3903    0.0000 C   0  0  0  0  0  0  0  0  0  0  0  0
   -3.5940    1.6571    0.0000 C   0  0  0  0  0  0  0  0  0  0  0  0
   -4.2862    0.4198    0.0000 C   0  0  0  0  0  0  0  0  0  0  0  0
    3.5793   -0.8175    0.0000 C   0  0  0  0  0  0  0  0  0  0  0  0
    2.8722   -0.4198    0.0000 C   0  0  0  0  0  0  0  0  0  0  0  0
   -2.1358   -1.6718    0.0000 C   0  0  0  0  0  0  0  0  0  0  0  0
    3.5645   -1.6423    0.0000 C   0  0  0  0  0  0  0  0  0  0  0  0
    2.1505   -1.6423    0.0000 C   0  0  0  0  0  0  0  0  0  0  0  0
   -1.4435    2.0547    0.0000 C   0  0  0  0  0  0  0  0  0  0  0  0
    2.8722   -2.0547    0.0000 C   0  0  0  0  0  0  0  0  0  0  0  0
   -4.3157    2.0694    0.0000 C   0  0  0  0  0  0  0  0  0  0  0  0
   -5.0080    0.8322    0.0000 C   0  0  0  0  0  0  0  0  0  0  0  0
    4.3010    0.4198    0.0000 C   0  0  0  0  0  0  0  0  0  0  0  0
    5.0080    0.8470    0.0000 C   0  0  0  0  0  0  0  0  0  0  0  0
  1 27  1  0  0  0  0
  2 13  2  0  0  0  0
  3 31  1  0  0  0  0
  3 32  1  0  0  0  0
  4 24  1  0  0  0  0
  4 33  1  0  0  0  0
  5 21  2  0  0  0  0
  6 13  1  0  0  0  0
  6 15  1  0  0  0  0
  6 26  1  0  0  0  0
  7 12  1  0  0  0  0
  7 22  1  0  0  0  0
  7 23  1  0  0  0  0
  8 16  1  0  0  0  0
  8 19  2  0  0  0  0
  9 18  1  0  0  0  0
  9 21  1  0  0  0  0
 10 11  1  0  0  0  0
 10 14  1  0  0  0  0
 10 15  2  0  0  0  0
 11 16  2  0  0  0  0
 11 17  1  0  0  0  0
 12 13  1  0  0  0  0
 12 14  2  0  0  0  0
 16 29  1  0  0  0  0
 17 18  2  0  0  0  0
 18 19  1  0  0  0  0
 20 21  1  0  0  0  0
 20 25  1  0  0  0  0
 20 28  2  0  0  0  0
 22 31  1  0  0  0  0
 23 32  1  0  0  0  0
 24 25  2  0  0  0  0
 24 27  1  0  0  0  0
 27 30  2  0  0  0  0
 28 30  1  0  0  0  0
 33 34  1  0  0  0  0
M  END
> <PUBCHEM_COMPOUND_ID_TYPE>
0

> <PUBCHEM_TOTAL_CHARGE>
0

> <PUBCHEM_SUBSTANCE_ID>
310943178

> <PUBCHEM_SUBSTANCE_VERSION>
1

> <PUBCHEM_EXT_DATASOURCE_NAME>
4488

> <PUBCHEM_EXT_DATASOURCE_REGID>
SCHEMBL16121238

> <PUBCHEM_SUBSTANCE_COMMENT>
InChI=1S/C25H27FN4O4/c1-4-34-23-12-17(5-6-21(23)26)24(31)28-19-13-20(16(2)27-14-19)18-11-22(25(32)29(3)15-18)30-7-9-33-10-8-30/h5-6,11-15H,4,7-10H2,1-3H3,(H,28,31)
InChIKey=BTFUYTGIQWAGDR-UHFFFAOYSA-N

> <PUBCHEM_SUBSTANCE_SYNONYM>
SCHEMBL16121238

> <PUBCHEM_XREF_EXT_ID>
SCHEMBL16121238

> <PUBCHEM_EXT_DATASOURCE_URL>
https://www.surechembl.org/

> <PUBCHEM_EXT_SUBSTANCE_URL>
https://www.surechembl.org/chemical/SCHEMBL16121238

> <PUBCHEM_CID_ASSOCIATIONS>
117609606  1

> <PUBCHEM_COORDINATE_TYPE>
1
3

$$$$
