310938843
  -OEChem-07211613022D

 35 41  0     0  0  0  0  0  0999 V2000
    0.6086   -1.8153    0.0000 N   0  0  0  0  0  0  0  0  0  0  0  0
   -0.7262   -0.1743    0.0000 C   0  0  0  0  0  0  0  0  0  0  0  0
    0.0274   -0.5099    0.0000 C   0  0  0  0  0  0  0  0  0  0  0  0
   -1.2783   -0.7874    0.0000 C   0  0  0  0  0  0  0  0  0  0  0  0
   -0.0588   -1.3304    0.0000 C   0  0  0  0  0  0  0  0  0  0  0  0
   -0.8658   -1.5019    0.0000 C   0  0  0  0  0  0  0  0  0  0  0  0
    0.7811   -0.1743    0.0000 C   0  0  0  0  0  0  0  0  0  0  0  0
   -1.4407    0.2382    0.0000 C   0  0  0  0  0  0  0  0  0  0  0  0
   -0.5127    0.6226    0.0000 C   0  0  0  0  0  0  0  0  0  0  0  0
    1.4485   -0.6592    0.0000 C   0  0  0  0  0  0  0  0  0  0  0  0
    1.3623   -1.4797    0.0000 C   0  0  0  0  0  0  0  0  0  0  0  0
   -2.1033   -0.7874    0.0000 C   0  0  0  0  0  0  0  0  0  0  0  0
    1.1936    0.5402    0.0000 C   0  0  0  0  0  0  0  0  0  0  0  0
   -1.2783   -2.2164    0.0000 C   0  0  0  0  0  0  0  0  0  0  0  0
   -2.1552   -0.1743    0.0000 C   0  0  0  0  0  0  0  0  0  0  0  0
   -1.0961    1.2059    0.0000 C   0  0  0  0  0  0  0  0  0  0  0  0
   -1.4407    1.0632    0.0000 C   0  0  0  0  0  0  0  0  0  0  0  0
    0.2842    0.8361    0.0000 C   0  0  0  0  0  0  0  0  0  0  0  0
    2.2022   -0.3237    0.0000 C   0  0  0  0  0  0  0  0  0  0  0  0
   -2.5158   -1.5019    0.0000 C   0  0  0  0  0  0  0  0  0  0  0  0
   -2.1033   -2.2164    0.0000 C   0  0  0  0  0  0  0  0  0  0  0  0
    2.0297   -1.9646    0.0000 C   0  0  0  0  0  0  0  0  0  0  0  0
    2.0186    0.5402    0.0000 C   0  0  0  0  0  0  0  0  0  0  0  0
    0.7811    1.2546    0.0000 C   0  0  0  0  0  0  0  0  0  0  0  0
   -2.8697    0.2382    0.0000 C   0  0  0  0  0  0  0  0  0  0  0  0
   -0.8826    2.0028    0.0000 C   0  0  0  0  0  0  0  0  0  0  0  0
   -2.1552    1.4757    0.0000 C   0  0  0  0  0  0  0  0  0  0  0  0
    0.4977    1.6330    0.0000 C   0  0  0  0  0  0  0  0  0  0  0  0
    2.8697   -0.8086    0.0000 C   0  0  0  0  0  0  0  0  0  0  0  0
    2.7834   -1.6291    0.0000 C   0  0  0  0  0  0  0  0  0  0  0  0
   -2.8697    1.0632    0.0000 C   0  0  0  0  0  0  0  0  0  0  0  0
   -0.0857    2.2164    0.0000 C   0  0  0  0  0  0  0  0  0  0  0  0
    2.4311    1.2546    0.0000 C   0  0  0  0  0  0  0  0  0  0  0  0
    1.1936    1.9691    0.0000 C   0  0  0  0  0  0  0  0  0  0  0  0
    2.0186    1.9691    0.0000 C   0  0  0  0  0  0  0  0  0  0  0  0
  1  5  1  0  0  0  0
  1 11  2  0  0  0  0
  2  3  1  0  0  0  0
  2  4  1  0  0  0  0
  2  8  1  0  0  0  0
  2  9  1  0  0  0  0
  3  5  2  0  0  0  0
  3  7  1  0  0  0  0
  4  6  2  0  0  0  0
  4 12  1  0  0  0  0
  5  6  1  0  0  0  0
  6 14  1  0  0  0  0
  7 10  2  0  0  0  0
  7 13  1  0  0  0  0
  8 15  2  0  0  0  0
  8 17  1  0  0  0  0
  9 16  2  0  0  0  0
  9 18  1  0  0  0  0
 10 11  1  0  0  0  0
 10 19  1  0  0  0  0
 11 22  1  0  0  0  0
 12 20  2  0  0  0  0
 13 23  2  0  0  0  0
 13 24  1  0  0  0  0
 14 21  2  0  0  0  0
 15 25  1  0  0  0  0
 16 26  1  0  0  0  0
 17 27  2  0  0  0  0
 18 28  2  0  0  0  0
 19 29  2  0  0  0  0
 20 21  1  0  0  0  0
 22 30  2  0  0  0  0
 23 33  1  0  0  0  0
 24 34  2  0  0  0  0
 25 31  2  0  0  0  0
 26 32  2  0  0  0  0
 27 31  1  0  0  0  0
 28 32  1  0  0  0  0
 29 30  1  0  0  0  0
 33 35  2  0  0  0  0
 34 35  1  0  0  0  0
M  END
> <PUBCHEM_COMPOUND_ID_TYPE>
0

> <PUBCHEM_TOTAL_CHARGE>
0

> <PUBCHEM_SUBSTANCE_ID>
310938843

> <PUBCHEM_SUBSTANCE_VERSION>
1

> <PUBCHEM_EXT_DATASOURCE_NAME>
4488

> <PUBCHEM_EXT_DATASOURCE_REGID>
SCHEMBL16116762

> <PUBCHEM_SUBSTANCE_COMMENT>
InChI=1S/C34H23N/c1-4-14-24(15-5-1)31-28-21-11-13-23-30(28)35-33-27-20-10-12-22-29(27)34(32(31)33,25-16-6-2-7-17-25)26-18-8-3-9-19-26/h1-23H
InChIKey=ACTVPDGHJHBTOZ-UHFFFAOYSA-N

> <PUBCHEM_SUBSTANCE_SYNONYM>
SCHEMBL16116762

> <PUBCHEM_XREF_EXT_ID>
SCHEMBL16116762

> <PUBCHEM_EXT_DATASOURCE_URL>
https://www.surechembl.org/

> <PUBCHEM_EXT_SUBSTANCE_URL>
https://www.surechembl.org/chemical/SCHEMBL16116762

> <PUBCHEM_CID_ASSOCIATIONS>
117606243  1

> <PUBCHEM_COORDINATE_TYPE>
1
3

$$$$
