310935705
  -OEChem-07211613022D

 31 33  0     1  0  0  0  0  0999 V2000
    1.6492   -2.8603    0.0000 O   0  0  0  0  0  0  0  0  0  0  0  0
    2.0615   -4.9992    0.0000 O   0  0  0  0  0  0  0  0  0  0  0  0
    0.8246   -4.2777    0.0000 O   0  0  0  0  0  0  0  0  0  0  0  0
    6.8546   -2.5769    0.0000 O   0  0  0  0  0  0  0  0  0  0  0  0
    6.1331   -1.3400    0.0000 O   0  0  0  0  0  0  0  0  0  0  0  0
    4.5353   -3.5561    0.0000 N   0  0  0  0  0  0  0  0  0  0  0  0
    2.8861   -2.1388    0.0000 N   0  0  0  0  0  0  0  0  0  0  0  0
    5.3599   -3.3757    0.0000 N   0  0  0  0  0  0  0  0  0  0  0  0
    3.2984   -2.8603    0.0000 C   0  0  0  0  0  0  0  0  0  0  0  0
    4.1230   -2.8603    0.0000 C   0  0  0  0  0  0  0  0  0  0  0  0
    2.8861   -3.5561    0.0000 C   0  0  0  0  0  0  0  0  0  0  0  0
    3.2984   -4.2777    0.0000 C   0  0  0  0  0  0  0  0  0  0  0  0
    2.0615   -3.5561    0.0000 C   0  0  3  0  0  0  0  0  0  0  0  0
    4.1230   -4.2777    0.0000 C   0  0  0  0  0  0  0  0  0  0  0  0
    4.6900   -2.2161    0.0000 C   0  0  0  0  0  0  0  0  0  0  0  0
    5.4373   -2.5511    0.0000 C   0  0  0  0  0  0  0  0  0  0  0  0
    1.6492   -4.2777    0.0000 C   0  0  0  0  0  0  0  0  0  0  0  0
    2.0615   -2.1388    0.0000 C   0  0  0  0  0  0  0  0  0  0  0  0
    3.2984   -1.4431    0.0000 C   0  0  0  0  0  0  0  0  0  0  0  0
    6.1331   -2.1388    0.0000 C   0  0  0  0  0  0  0  0  0  0  0  0
    2.0873   -0.7215    0.0000 C   0  0  0  0  0  0  0  0  0  0  0  0
    3.0665   -5.1538    0.0000 C   0  0  0  0  0  0  0  0  0  0  0  0
    0.8246   -2.8346    0.0000 C   0  0  0  0  0  0  0  0  0  0  0  0
    1.6492   -1.4431    0.0000 C   0  0  0  0  0  0  0  0  0  0  0  0
    2.8861   -0.7215    0.0000 C   0  0  0  0  0  0  0  0  0  0  0  0
    1.6750    0.0000    0.0000 C   0  0  0  0  0  0  0  0  0  0  0  0
    2.4996    0.0000    0.0000 C   0  0  0  0  0  0  0  0  0  0  0  0
    0.0000   -2.8088    0.0000 C   0  0  0  0  0  0  0  0  0  0  0  0
    0.8504   -2.0100    0.0000 C   0  0  0  0  0  0  0  0  0  0  0  0
    0.8246   -3.6592    0.0000 C   0  0  0  0  0  0  0  0  0  0  0  0
    2.8861   -4.9992    0.0000 C   0  0  0  0  0  0  0  0  0  0  0  0
 13  1  1  1  0  0  0
  1 23  1  0  0  0  0
  2 17  1  0  0  0  0
  2 31  1  0  0  0  0
  3 17  2  0  0  0  0
  4 20  2  0  0  0  0
  5 20  1  0  0  0  0
  6  8  1  0  0  0  0
  6 10  1  0  0  0  0
  6 14  1  0  0  0  0
  7  9  1  0  0  0  0
  7 18  1  0  0  0  0
  7 19  1  0  0  0  0
  8 16  2  0  0  0  0
  9 10  1  0  0  0  0
  9 11  2  0  0  0  0
 10 15  2  0  0  0  0
 11 12  1  0  0  0  0
 11 13  1  0  0  0  0
 12 14  2  0  0  0  0
 12 22  1  0  0  0  0
 13 17  1  0  0  0  0
 15 16  1  0  0  0  0
 16 20  1  0  0  0  0
 18 24  1  0  0  0  0
 19 25  1  0  0  0  0
 21 24  1  0  0  0  0
 21 25  1  0  0  0  0
 21 26  1  0  0  0  0
 21 27  1  0  0  0  0
 23 28  1  0  0  0  0
 23 29  1  0  0  0  0
 23 30  1  0  0  0  0
M  END
> <PUBCHEM_COMPOUND_ID_TYPE>
0

> <PUBCHEM_TOTAL_CHARGE>
0

> <PUBCHEM_SUBSTANCE_ID>
310935705

> <PUBCHEM_SUBSTANCE_VERSION>
1

> <PUBCHEM_EXT_DATASOURCE_NAME>
4488

> <PUBCHEM_EXT_DATASOURCE_REGID>
SCHEMBL16113289

> <PUBCHEM_SUBSTANCE_COMMENT>
InChI=1S/C23H33N3O5/c1-14-13-26-16(12-15(24-26)20(27)28)18(25-10-8-23(5,6)9-11-25)17(14)19(21(29)30-7)31-22(2,3)4/h12-13,19H,8-11H2,1-7H3,(H,27,28)/t19-/m0/s1
InChIKey=OYDSFYNHYWIFBX-IBGZPJMESA-N

> <PUBCHEM_SUBSTANCE_SYNONYM>
SCHEMBL16113289

> <PUBCHEM_XREF_EXT_ID>
SCHEMBL16113289

> <PUBCHEM_EXT_DATASOURCE_URL>
https://www.surechembl.org/

> <PUBCHEM_EXT_SUBSTANCE_URL>
https://www.surechembl.org/chemical/SCHEMBL16113289

> <PUBCHEM_CID_ASSOCIATIONS>
117603711  1

> <PUBCHEM_COORDINATE_TYPE>
1
3

> <PUBCHEM_BONDANNOTATIONS>
13  1  5

$$$$
