310943652
  -OEChem-07211613022D

 35 39  0     0  0  0  0  0  0999 V2000
   -3.9873   -0.4278    0.0000 O   0  0  0  0  0  0  0  0  0  0  0  0
   -5.4240    2.0744    0.0000 O   0  0  0  0  0  0  0  0  0  0  0  0
    1.7434    2.0583    0.0000 O   0  0  0  0  0  0  0  0  0  0  0  0
   -3.2770   -2.5102    0.0000 O   0  0  0  0  0  0  0  0  0  0  0  0
   -3.9873    1.2350    0.0000 N   0  0  0  0  0  0  0  0  0  0  0  0
   -2.5506   -0.4278    0.0000 N   0  0  0  0  0  0  0  0  0  0  0  0
    1.0331    0.8314    0.0000 N   0  0  0  0  0  0  0  0  0  0  0  0
    3.8905   -0.0081    0.0000 N   0  0  0  0  0  0  0  0  0  0  0  0
   -1.8242    0.8314    0.0000 C   0  0  0  0  0  0  0  0  0  0  0  0
   -3.2609    0.8314    0.0000 C   0  0  0  0  0  0  0  0  0  0  0  0
   -1.1138    1.2511    0.0000 C   0  0  0  0  0  0  0  0  0  0  0  0
   -3.2770   -0.0081    0.0000 C   0  0  0  0  0  0  0  0  0  0  0  0
   -2.5668    1.2350    0.0000 C   0  0  0  0  0  0  0  0  0  0  0  0
   -1.1138    2.0744    0.0000 C   0  0  0  0  0  0  0  0  0  0  0  0
   -0.4036    0.8314    0.0000 C   0  0  0  0  0  0  0  0  0  0  0  0
   -1.8403   -0.0081    0.0000 C   0  0  0  0  0  0  0  0  0  0  0  0
    0.3067    1.2672    0.0000 C   0  0  0  0  0  0  0  0  0  0  0  0
    3.8905    0.8314    0.0000 C   0  0  0  0  0  0  0  0  0  0  0  0
    4.6007    1.2511    0.0000 C   0  0  0  0  0  0  0  0  0  0  0  0
    2.4699    0.8314    0.0000 C   0  0  0  0  0  0  0  0  0  0  0  0
    1.7434    1.2350    0.0000 C   0  0  0  0  0  0  0  0  0  0  0  0
   -0.4036    2.4780    0.0000 C   0  0  0  0  0  0  0  0  0  0  0  0
    0.3067    2.0744    0.0000 C   0  0  0  0  0  0  0  0  0  0  0  0
    3.1801    1.2511    0.0000 C   0  0  0  0  0  0  0  0  0  0  0  0
   -3.9873    2.0744    0.0000 C   0  0  0  0  0  0  0  0  0  0  0  0
   -4.6814    0.8314    0.0000 C   0  0  0  0  0  0  0  0  0  0  0  0
    5.0204    1.9291    0.0000 C   0  0  0  0  0  0  0  0  0  0  0  0
    5.4240    1.2511    0.0000 C   0  0  0  0  0  0  0  0  0  0  0  0
    2.4699   -0.0081    0.0000 C   0  0  0  0  0  0  0  0  0  0  0  0
   -1.8242    2.5102    0.0000 C   0  0  0  0  0  0  0  0  0  0  0  0
    3.1963   -0.4117    0.0000 C   0  0  0  0  0  0  0  0  0  0  0  0
   -4.7138    2.4941    0.0000 C   0  0  0  0  0  0  0  0  0  0  0  0
   -5.4079    1.2350    0.0000 C   0  0  0  0  0  0  0  0  0  0  0  0
   -3.9712   -1.2511    0.0000 C   0  0  0  0  0  0  0  0  0  0  0  0
   -3.2609   -1.6708    0.0000 C   0  0  0  0  0  0  0  0  0  0  0  0
  1 12  1  0  0  0  0
  1 34  1  0  0  0  0
  2 32  1  0  0  0  0
  2 33  1  0  0  0  0
  3 21  2  0  0  0  0
  4 35  1  0  0  0  0
  5 10  1  0  0  0  0
  5 25  1  0  0  0  0
  5 26  1  0  0  0  0
  6 12  2  0  0  0  0
  6 16  1  0  0  0  0
  7 17  1  0  0  0  0
  7 21  1  0  0  0  0
  8 18  1  0  0  0  0
  8 31  2  0  0  0  0
  9 11  1  0  0  0  0
  9 13  1  0  0  0  0
  9 16  2  0  0  0  0
 10 12  1  0  0  0  0
 10 13  2  0  0  0  0
 11 14  1  0  0  0  0
 11 15  2  0  0  0  0
 14 22  2  0  0  0  0
 14 30  1  0  0  0  0
 15 17  1  0  0  0  0
 17 23  2  0  0  0  0
 18 19  1  0  0  0  0
 18 24  2  0  0  0  0
 19 27  1  0  0  0  0
 19 28  1  0  0  0  0
 20 21  1  0  0  0  0
 20 24  1  0  0  0  0
 20 29  2  0  0  0  0
 22 23  1  0  0  0  0
 25 32  1  0  0  0  0
 26 33  1  0  0  0  0
 27 28  1  0  0  0  0
 29 31  1  0  0  0  0
 34 35  1  0  0  0  0
M  END
> <PUBCHEM_COMPOUND_ID_TYPE>
0

> <PUBCHEM_TOTAL_CHARGE>
0

> <PUBCHEM_SUBSTANCE_ID>
310943652

> <PUBCHEM_SUBSTANCE_VERSION>
1

> <PUBCHEM_EXT_DATASOURCE_NAME>
4488

> <PUBCHEM_EXT_DATASOURCE_REGID>
SCHEMBL16121720

> <PUBCHEM_SUBSTANCE_COMMENT>
InChI=1S/C27H30N4O4/c1-18-2-5-22(30-26(33)20-6-7-28-24(14-20)19-3-4-19)16-23(18)21-15-25(31-8-11-34-12-9-31)27(29-17-21)35-13-10-32/h2,5-7,14-17,19,32H,3-4,8-13H2,1H3,(H,30,33)
InChIKey=MJJHTBWDJAMARJ-UHFFFAOYSA-N

> <PUBCHEM_SUBSTANCE_SYNONYM>
SCHEMBL16121720

> <PUBCHEM_XREF_EXT_ID>
SCHEMBL16121720

> <PUBCHEM_EXT_DATASOURCE_URL>
https://www.surechembl.org/

> <PUBCHEM_EXT_SUBSTANCE_URL>
https://www.surechembl.org/chemical/SCHEMBL16121720

> <PUBCHEM_CID_ASSOCIATIONS>
117610043  1

> <PUBCHEM_COORDINATE_TYPE>
1
3

$$$$
