310949446
  -OEChem-07211613022D

 31 33  0     1  0  0  0  0  0999 V2000
    3.4747   -0.2111    0.0000 I   0  0  0  0  0  0  0  0  0  0  0  0
    0.7683    3.1390    0.0000 I   0  0  0  0  0  0  0  0  0  0  0  0
    0.0623   -1.4708    0.0000 S   0  0  0  0  0  0  0  0  0  0  0  0
    2.1872    0.6264    0.0000 F   0  0  0  0  0  0  0  0  0  0  0  0
   -0.6437    0.6264    0.0000 F   0  0  0  0  0  0  0  0  0  0  0  0
    0.4707   -0.7441    0.0000 O   0  0  0  0  0  0  0  0  0  0  0  0
   -0.3461   -2.1976    0.0000 O   0  0  0  0  0  0  0  0  0  0  0  0
    2.1872   -2.7237    0.0000 O   0  0  0  0  0  0  0  0  0  0  0  0
   -2.0626   -0.2180    0.0000 O   0  0  0  0  0  0  0  0  0  0  0  0
   -3.4747   -1.0556    0.0000 O   0  0  0  0  0  0  0  0  0  0  0  0
    0.7753   -1.8862    0.0000 N   0  0  0  0  0  0  0  0  0  0  0  0
    0.7753   -0.2111    0.0000 N   0  0  0  0  0  0  0  0  0  0  0  0
   -0.6368   -1.0210    0.0000 C   0  0  0  0  0  0  0  0  0  0  0  0
   -1.0314   -0.3288    0.0000 C   0  0  0  0  0  0  0  0  0  0  0  0
   -0.2561   -0.3288    0.0000 C   0  0  0  0  0  0  0  0  0  0  0  0
    1.4812   -1.4570    0.0000 C   0  0  0  0  0  0  0  0  0  0  0  0
   -1.3359   -1.4570    0.0000 C   0  0  0  0  0  0  0  0  0  0  0  0
    1.4881   -0.6264    0.0000 C   0  0  0  0  0  0  0  0  0  0  0  0
    2.1942   -1.8723    0.0000 C   0  0  0  0  0  0  0  0  0  0  0  0
    2.1872   -0.2111    0.0000 C   0  0  0  0  0  0  0  0  0  0  0  0
   -2.0557   -1.0417    0.0000 C   0  0  3  0  0  0  0  0  0  0  0  0
    2.9002   -0.6195    0.0000 C   0  0  0  0  0  0  0  0  0  0  0  0
    2.9002   -1.4570    0.0000 C   0  0  0  0  0  0  0  0  0  0  0  0
    0.7821    0.6334    0.0000 C   0  0  0  0  0  0  0  0  0  0  0  0
    0.0623    1.0556    0.0000 C   0  0  0  0  0  0  0  0  0  0  0  0
   -2.7687   -1.4570    0.0000 C   0  0  0  0  0  0  0  0  0  0  0  0
    1.4812    1.0486    0.0000 C   0  0  0  0  0  0  0  0  0  0  0  0
    0.0761    1.8862    0.0000 C   0  0  0  0  0  0  0  0  0  0  0  0
    0.7753    2.3084    0.0000 C   0  0  0  0  0  0  0  0  0  0  0  0
    1.4812    1.8862    0.0000 C   0  0  0  0  0  0  0  0  0  0  0  0
    2.9140   -3.1390    0.0000 C   0  0  0  0  0  0  0  0  0  0  0  0
  1 22  1  0  0  0  0
  2 29  1  0  0  0  0
  3  6  2  0  0  0  0
  3  7  2  0  0  0  0
  3 11  1  0  0  0  0
  3 13  1  0  0  0  0
  4 20  1  0  0  0  0
  5 25  1  0  0  0  0
  8 19  1  0  0  0  0
  8 31  1  0  0  0  0
 21  9  1  6  0  0  0
 10 26  1  0  0  0  0
 11 16  1  0  0  0  0
 12 18  1  0  0  0  0
 12 24  1  0  0  0  0
 13 14  1  0  0  0  0
 13 15  1  0  0  0  0
 13 17  1  0  0  0  0
 14 15  1  0  0  0  0
 16 18  1  0  0  0  0
 16 19  2  0  0  0  0
 17 21  1  0  0  0  0
 18 20  2  0  0  0  0
 19 23  1  0  0  0  0
 20 22  1  0  0  0  0
 21 26  1  0  0  0  0
 22 23  2  0  0  0  0
 24 25  1  0  0  0  0
 24 27  2  0  0  0  0
 25 28  2  0  0  0  0
 27 30  1  0  0  0  0
 28 29  1  0  0  0  0
 29 30  2  0  0  0  0
M  END
> <PUBCHEM_COMPOUND_ID_TYPE>
0

> <PUBCHEM_TOTAL_CHARGE>
0

> <PUBCHEM_SUBSTANCE_ID>
310949446

> <PUBCHEM_SUBSTANCE_VERSION>
1

> <PUBCHEM_EXT_DATASOURCE_NAME>
4488

> <PUBCHEM_EXT_DATASOURCE_REGID>
SCHEMBL16127640

> <PUBCHEM_SUBSTANCE_COMMENT>
InChI=1S/C19H20F2I2N2O5S/c1-30-15-7-13(23)16(21)18(24-14-3-2-10(22)6-12(14)20)17(15)25-31(28,29)19(4-5-19)8-11(27)9-26/h2-3,6-7,11,24-27H,4-5,8-9H2,1H3/t11-/m1/s1
InChIKey=UZRPGNOQEUVPKT-LLVKDONJSA-N

> <PUBCHEM_SUBSTANCE_SYNONYM>
SCHEMBL16127640

> <PUBCHEM_XREF_EXT_ID>
SCHEMBL16127640

> <PUBCHEM_EXT_DATASOURCE_URL>
https://www.surechembl.org/

> <PUBCHEM_EXT_SUBSTANCE_URL>
https://www.surechembl.org/chemical/SCHEMBL16127640

> <PUBCHEM_CID_ASSOCIATIONS>
117614893  1

> <PUBCHEM_COORDINATE_TYPE>
1
3

> <PUBCHEM_BONDANNOTATIONS>
21  9  6

$$$$
