310947956
  -OEChem-07211613022D

 10  9  0     1  0  0  0  0  0999 V2000
   -2.4524    0.8540    0.0000 O   0  0  0  0  0  0  0  0  0  0  0  0
   -3.1669    2.9165    0.0000 O   0  0  0  0  0  0  0  0  0  0  0  0
   -1.7380    2.9165    0.0000 O   0  0  0  0  0  0  0  0  0  0  0  0
   -2.4524    1.6790    0.0000 C   0  0  3  0  0  0  0  0  0  0  0  0
   -3.1669    2.0915    0.0000 C   0  0  3  0  0  0  0  0  0  0  0  0
   -1.7380    2.0915    0.0000 C   0  0  0  0  0  0  0  0  0  0  0  0
   -3.8814    1.6790    0.0000 C   0  0  0  0  0  0  0  0  0  0  0  0
   -1.0235    1.6790    0.0000 C   0  0  0  0  0  0  0  0  0  0  0  0
   -4.2939    2.3935    0.0000 C   0  0  0  0  0  0  0  0  0  0  0  0
   -3.4689    0.9645    0.0000 C   0  0  0  0  0  0  0  0  0  0  0  0
  4  1  1  1  0  0  0
  5  2  1  6  0  0  0
  3  6  2  0  0  0  0
  4  5  1  0  0  0  0
  4  6  1  0  0  0  0
  5  7  1  0  0  0  0
  6  8  1  0  0  0  0
  7  9  1  0  0  0  0
  7 10  1  0  0  0  0
M  END
> <PUBCHEM_COMPOUND_ID_TYPE>
0

> <PUBCHEM_TOTAL_CHARGE>
0

> <PUBCHEM_SUBSTANCE_ID>
310947956

> <PUBCHEM_SUBSTANCE_VERSION>
1

> <PUBCHEM_EXT_DATASOURCE_NAME>
4488

> <PUBCHEM_EXT_DATASOURCE_REGID>
SCHEMBL16126130

> <PUBCHEM_SUBSTANCE_COMMENT>
InChI=1S/C7H14O3/c1-4(2)6(9)7(10)5(3)8/h4,6-7,9-10H,1-3H3/t6-,7+/m0/s1
InChIKey=DXNSLLFTQKUMDV-NKWVEPMBSA-N

> <PUBCHEM_SUBSTANCE_SYNONYM>
SCHEMBL16126130

> <PUBCHEM_XREF_EXT_ID>
SCHEMBL16126130

> <PUBCHEM_EXT_DATASOURCE_URL>
https://www.surechembl.org/

> <PUBCHEM_EXT_SUBSTANCE_URL>
https://www.surechembl.org/chemical/SCHEMBL16126130

> <PUBCHEM_CID_ASSOCIATIONS>
11815924  1

> <PUBCHEM_COORDINATE_TYPE>
1
3

> <PUBCHEM_BONDANNOTATIONS>
4  1  5
5  2  6
7  10  3
7  9  3

$$$$
