310930613
  -OEChem-07211613022D

 29 32  0     0  0  0  0  0  0999 V2000
    0.0000   -1.2748    0.0000 F   0  0  0  0  0  0  0  0  0  0  0  0
    0.7171    0.0000    0.0000 F   0  0  0  0  0  0  0  0  0  0  0  0
    0.0000   -0.4249    0.0000 F   0  0  0  0  0  0  0  0  0  0  0  0
    2.6292   -3.4259    0.0000 O   0  0  0  0  0  0  0  0  0  0  0  0
    1.4341   -2.0980    0.0000 O   0  0  0  0  0  0  0  0  0  0  0  0
    3.4524   -3.3196    0.0000 N   0  0  0  0  0  0  0  0  0  0  0  0
    2.2839   -2.6823    0.0000 N   0  0  0  0  0  0  0  0  0  0  0  0
    5.0724   -2.4698    0.0000 N   0  0  0  0  0  0  0  0  0  0  0  0
    2.1511   -0.8498    0.0000 N   0  0  0  0  0  0  0  0  0  0  0  0
    3.6383   -2.5230    0.0000 C   0  0  0  0  0  0  0  0  0  0  0  0
    2.8682   -2.0980    0.0000 C   0  0  0  0  0  0  0  0  0  0  0  0
    4.3288   -2.0715    0.0000 C   0  0  0  0  0  0  0  0  0  0  0  0
    2.8947   -1.2748    0.0000 C   0  0  0  0  0  0  0  0  0  0  0  0
    4.3288   -1.2748    0.0000 C   0  0  0  0  0  0  0  0  0  0  0  0
    3.5852   -0.8498    0.0000 C   0  0  0  0  0  0  0  0  0  0  0  0
    5.0724   -3.3196    0.0000 C   0  0  0  0  0  0  0  0  0  0  0  0
    5.8160   -3.7180    0.0000 C   0  0  0  0  0  0  0  0  0  0  0  0
    1.4341   -1.2748    0.0000 C   0  0  0  0  0  0  0  0  0  0  0  0
    0.7171   -0.8498    0.0000 C   0  0  0  0  0  0  0  0  0  0  0  0
    6.5065   -3.2665    0.0000 C   0  0  0  0  0  0  0  0  0  0  0  0
    4.3819   -3.7180    0.0000 C   0  0  0  0  0  0  0  0  0  0  0  0
    5.8160   -4.5412    0.0000 C   0  0  0  0  0  0  0  0  0  0  0  0
    4.3819   -4.5678    0.0000 C   0  0  0  0  0  0  0  0  0  0  0  0
    5.1255   -4.9928    0.0000 C   0  0  0  0  0  0  0  0  0  0  0  0
    6.5065   -2.4167    0.0000 C   0  0  0  0  0  0  0  0  0  0  0  0
    7.2501   -3.6915    0.0000 C   0  0  0  0  0  0  0  0  0  0  0  0
    7.2236   -2.0184    0.0000 C   0  0  0  0  0  0  0  0  0  0  0  0
    7.9672   -3.2400    0.0000 C   0  0  0  0  0  0  0  0  0  0  0  0
    7.9406   -2.4167    0.0000 C   0  0  0  0  0  0  0  0  0  0  0  0
  1 19  1  0  0  0  0
  2 19  1  0  0  0  0
  3 19  1  0  0  0  0
  4  6  1  0  0  0  0
  4  7  1  0  0  0  0
  5 18  2  0  0  0  0
  6 10  2  0  0  0  0
  7 11  2  0  0  0  0
  8 12  1  0  0  0  0
  8 16  1  0  0  0  0
  9 13  1  0  0  0  0
  9 18  1  0  0  0  0
 10 11  1  0  0  0  0
 10 12  1  0  0  0  0
 11 13  1  0  0  0  0
 12 14  2  0  0  0  0
 13 15  2  0  0  0  0
 14 15  1  0  0  0  0
 16 17  1  0  0  0  0
 16 21  2  0  0  0  0
 17 20  1  0  0  0  0
 17 22  2  0  0  0  0
 18 19  1  0  0  0  0
 20 25  2  0  0  0  0
 20 26  1  0  0  0  0
 21 23  1  0  0  0  0
 22 24  1  0  0  0  0
 23 24  2  0  0  0  0
 25 27  1  0  0  0  0
 26 28  2  0  0  0  0
 27 29  2  0  0  0  0
 28 29  1  0  0  0  0
M  END
> <PUBCHEM_COMPOUND_ID_TYPE>
0

> <PUBCHEM_TOTAL_CHARGE>
0

> <PUBCHEM_SUBSTANCE_ID>
310930613

> <PUBCHEM_SUBSTANCE_VERSION>
1

> <PUBCHEM_EXT_DATASOURCE_NAME>
4488

> <PUBCHEM_EXT_DATASOURCE_REGID>
SCHEMBL16107910

> <PUBCHEM_SUBSTANCE_COMMENT>
InChI=1S/C20H13F3N4O2/c21-20(22,23)19(28)25-16-11-10-15(17-18(16)27-29-26-17)24-14-9-5-4-8-13(14)12-6-2-1-3-7-12/h1-11,24H,(H,25,28)
InChIKey=HAAVZYTYUFPUJW-UHFFFAOYSA-N

> <PUBCHEM_SUBSTANCE_SYNONYM>
SCHEMBL16107910

> <PUBCHEM_XREF_EXT_ID>
SCHEMBL16107910

> <PUBCHEM_EXT_DATASOURCE_URL>
https://www.surechembl.org/

> <PUBCHEM_EXT_SUBSTANCE_URL>
https://www.surechembl.org/chemical/SCHEMBL16107910

> <PUBCHEM_CID_ASSOCIATIONS>
71517580  1

> <PUBCHEM_COORDINATE_TYPE>
1
3

$$$$
