310949123
  -OEChem-07211613022D

 32 36  0     0  0  0  0  0  0999 V2000
   -2.2054   -1.1729    0.0000 S   0  0  0  0  0  0  0  0  0  0  0  0
   -0.4636    1.0466    0.0000 F   0  0  0  0  0  0  0  0  0  0  0  0
   -0.8007    2.1422    0.0000 F   0  0  0  0  0  0  0  0  0  0  0  0
    0.3090    2.4794    0.0000 F   0  0  0  0  0  0  0  0  0  0  0  0
    3.0342   -0.1334    0.0000 F   0  0  0  0  0  0  0  0  0  0  0  0
    0.3512   -1.2291    0.0000 F   0  0  0  0  0  0  0  0  0  0  0  0
   -0.6602   -0.0772    0.0000 N   0  0  0  0  0  0  0  0  0  0  0  0
    2.2616   -2.2405    0.0000 N   0  0  0  0  0  0  0  0  0  0  0  0
    0.6180    0.5549    0.0000 C   0  0  0  0  0  0  0  0  0  0  0  0
    1.3907    0.1334    0.0000 C   0  0  0  0  0  0  0  0  0  0  0  0
   -1.4469    0.2880    0.0000 C   0  0  0  0  0  0  0  0  0  0  0  0
   -0.7445   -0.9060    0.0000 C   0  0  0  0  0  0  0  0  0  0  0  0
    0.6321    1.3837    0.0000 C   0  0  0  0  0  0  0  0  0  0  0  0
   -1.9947   -0.3301    0.0000 C   0  0  0  0  0  0  0  0  0  0  0  0
   -1.5452   -1.0887    0.0000 C   0  0  0  0  0  0  0  0  0  0  0  0
    1.6575   -0.6392    0.0000 C   0  0  0  0  0  0  0  0  0  0  0  0
   -0.0843    1.7770    0.0000 C   0  0  0  0  0  0  0  0  0  0  0  0
    2.0790    0.5549    0.0000 C   0  0  0  0  0  0  0  0  0  0  0  0
    1.3766    1.7770    0.0000 C   0  0  0  0  0  0  0  0  0  0  0  0
   -1.6997    1.0606    0.0000 C   0  0  0  0  0  0  0  0  0  0  0  0
   -0.1966   -1.5100    0.0000 C   0  0  0  0  0  0  0  0  0  0  0  0
    2.5004   -0.7796    0.0000 C   0  0  0  0  0  0  0  0  0  0  0  0
    1.1519   -1.3134    0.0000 C   0  0  0  0  0  0  0  0  0  0  0  0
    2.0790    1.3977    0.0000 C   0  0  0  0  0  0  0  0  0  0  0  0
   -2.7813   -0.1756    0.0000 C   0  0  0  0  0  0  0  0  0  0  0  0
   -1.8121   -1.8753    0.0000 C   0  0  0  0  0  0  0  0  0  0  0  0
   -2.5285    1.2010    0.0000 C   0  0  0  0  0  0  0  0  0  0  0  0
   -0.4355   -2.2967    0.0000 C   0  0  0  0  0  0  0  0  0  0  0  0
   -3.0342    0.6251    0.0000 C   0  0  0  0  0  0  0  0  0  0  0  0
   -1.2502   -2.4794    0.0000 C   0  0  0  0  0  0  0  0  0  0  0  0
    2.7813   -1.5522    0.0000 C   0  0  0  0  0  0  0  0  0  0  0  0
    1.4328   -2.0860    0.0000 C   0  0  0  0  0  0  0  0  0  0  0  0
  1 14  1  0  0  0  0
  1 15  1  0  0  0  0
  2 17  1  0  0  0  0
  3 17  1  0  0  0  0
  4 17  1  0  0  0  0
  5 22  1  0  0  0  0
  6 23  1  0  0  0  0
  7  9  1  0  0  0  0
  7 11  1  0  0  0  0
  7 12  1  0  0  0  0
  8 31  2  0  0  0  0
  8 32  1  0  0  0  0
  9 10  1  0  0  0  0
  9 13  2  0  0  0  0
 10 16  1  0  0  0  0
 10 18  2  0  0  0  0
 11 14  2  0  0  0  0
 11 20  1  0  0  0  0
 12 15  2  0  0  0  0
 12 21  1  0  0  0  0
 13 17  1  0  0  0  0
 13 19  1  0  0  0  0
 14 25  1  0  0  0  0
 15 26  1  0  0  0  0
 16 22  2  0  0  0  0
 16 23  1  0  0  0  0
 18 24  1  0  0  0  0
 19 24  2  0  0  0  0
 20 27  2  0  0  0  0
 21 28  2  0  0  0  0
 22 31  1  0  0  0  0
 23 32  2  0  0  0  0
 25 29  2  0  0  0  0
 26 30  2  0  0  0  0
 27 29  1  0  0  0  0
 28 30  1  0  0  0  0
M  END
> <PUBCHEM_COMPOUND_ID_TYPE>
0

> <PUBCHEM_TOTAL_CHARGE>
0

> <PUBCHEM_SUBSTANCE_ID>
310949123

> <PUBCHEM_SUBSTANCE_VERSION>
1

> <PUBCHEM_EXT_DATASOURCE_NAME>
4488

> <PUBCHEM_EXT_DATASOURCE_REGID>
SCHEMBL16127313

> <PUBCHEM_SUBSTANCE_COMMENT>
InChI=1S/C24H13F5N2S/c25-16-12-30-13-17(26)22(16)14-6-5-7-15(24(27,28)29)23(14)31-18-8-1-3-10-20(18)32-21-11-4-2-9-19(21)31/h1-13H
InChIKey=PFOTUIJRBGCNEM-UHFFFAOYSA-N

> <PUBCHEM_SUBSTANCE_SYNONYM>
SCHEMBL16127313

> <PUBCHEM_XREF_EXT_ID>
SCHEMBL16127313

> <PUBCHEM_EXT_DATASOURCE_URL>
https://www.surechembl.org/

> <PUBCHEM_EXT_SUBSTANCE_URL>
https://www.surechembl.org/chemical/SCHEMBL16127313

> <PUBCHEM_CID_ASSOCIATIONS>
117614620  1

> <PUBCHEM_COORDINATE_TYPE>
1
3

$$$$
