310947520
  -OEChem-07211613022D

 11 11  0     1  0  0  0  0  0999 V2000
   -0.5451    0.1883    0.0000 F   0  0  0  0  0  0  0  0  0  0  0  0
    0.2799    2.1724    0.0000 O   0  0  0  0  0  0  0  0  0  0  0  0
    1.6618    2.0999    0.0000 O   0  0  0  0  0  0  0  0  0  0  0  0
    1.1049    0.1883    0.0000 O   0  0  0  0  0  0  0  0  0  0  0  0
    0.6924    0.9028    0.0000 C   0  0  3  0  0  0  0  0  0  0  0  0
   -0.1326    0.9028    0.0000 C   0  0  3  0  0  0  0  0  0  0  0  0
    0.9473    1.6874    0.0000 C   0  0  3  0  0  0  0  0  0  0  0  0
   -0.3876    1.6874    0.0000 C   0  0  3  0  0  0  0  0  0  0  0  0
   -0.8001    2.4019    0.0000 C   0  0  0  0  0  0  0  0  0  0  0  0
    2.3763    1.6874    0.0000 C   0  0  0  0  0  0  0  0  0  0  0  0
   -1.6251    2.4019    0.0000 C   0  0  0  0  0  0  0  0  0  0  0  0
  6  1  1  6  0  0  0
  2  7  1  0  0  0  0
  2  8  1  0  0  0  0
  7  3  1  6  0  0  0
  3 10  1  0  0  0  0
  5  4  1  6  0  0  0
  5  6  1  0  0  0  0
  5  7  1  0  0  0  0
  6  8  1  0  0  0  0
  8  9  1  1  0  0  0
  9 11  1  0  0  0  0
M  END
> <PUBCHEM_COMPOUND_ID_TYPE>
0

> <PUBCHEM_TOTAL_CHARGE>
0

> <PUBCHEM_SUBSTANCE_ID>
310947520

> <PUBCHEM_SUBSTANCE_VERSION>
1

> <PUBCHEM_EXT_DATASOURCE_NAME>
4488

> <PUBCHEM_EXT_DATASOURCE_REGID>
SCHEMBL16125682

> <PUBCHEM_SUBSTANCE_COMMENT>
InChI=1S/C7H13FO3/c1-3-4-5(8)6(9)7(10-2)11-4/h4-7,9H,3H2,1-2H3/t4-,5-,6-,7+/m1/s1
InChIKey=JEMSNMCQHYHPPA-GBNDHIKLSA-N

> <PUBCHEM_SUBSTANCE_SYNONYM>
SCHEMBL16125682

> <PUBCHEM_XREF_EXT_ID>
SCHEMBL16125682

> <PUBCHEM_EXT_DATASOURCE_URL>
https://www.surechembl.org/

> <PUBCHEM_EXT_SUBSTANCE_URL>
https://www.surechembl.org/chemical/SCHEMBL16125682

> <PUBCHEM_CID_ASSOCIATIONS>
117613242  1

> <PUBCHEM_COORDINATE_TYPE>
1
3

> <PUBCHEM_BONDANNOTATIONS>
6  1  6
7  3  6
5  4  6
8  9  5

$$$$
