310929090
  -OEChem-07211613022D

 55 60  0     0  0  0  0  0  0999 V2000
    6.5183   -4.3045    0.0000 O   0  0  0  0  0  0  0  0  0  0  0  0
    2.8287   -0.6764    0.0000 O   0  0  0  0  0  0  0  0  0  0  0  0
    3.6896   -0.6764    0.0000 O   0  0  0  0  0  0  0  0  0  0  0  0
    8.8550   -8.6706    0.0000 O   0  0  0  0  0  0  0  0  0  0  0  0
    6.4568   -7.1333    0.0000 O   0  0  0  0  0  0  0  0  0  0  0  0
    0.3690   -4.9809    0.0000 O   0  0  0  0  0  0  0  0  0  0  0  0
   10.9458   -7.9941    0.0000 O   0  0  0  0  0  0  0  0  0  0  0  0
   12.5447   -9.4700    0.0000 O   0  0  0  0  0  0  0  0  0  0  0  0
   12.1142  -11.6222    0.0000 O   0  0  0  0  0  0  0  0  0  0  0  0
    4.9195   -1.4143    0.0000 N   0  0  0  0  0  0  0  0  0  0  0  0
    3.6896   -2.1523    0.0000 N   0  0  0  0  0  0  0  0  0  0  0  0
    7.7482   -5.0425    0.0000 N   0  0  0  0  0  0  0  0  0  0  0  0
    1.2299   -3.5666    0.0000 N   0  0  0  0  0  0  0  0  0  0  0  0
    8.9165   -5.7804    0.0000 N   0  0  0  0  0  0  0  0  0  0  0  0
    8.9780   -4.3661    0.0000 N   0  0  0  0  0  0  0  0  0  0  0  0
    5.3499   -3.5666    0.0000 C   0  0  0  0  0  0  0  0  0  0  0  0
    4.9195   -2.8287    0.0000 C   0  0  0  0  0  0  0  0  0  0  0  0
    6.1493   -3.5666    0.0000 C   0  0  0  0  0  0  0  0  0  0  0  0
    5.3499   -2.1523    0.0000 C   0  0  0  0  0  0  0  0  0  0  0  0
    6.5798   -2.8902    0.0000 C   0  0  0  0  0  0  0  0  0  0  0  0
    6.1493   -2.1523    0.0000 C   0  0  0  0  0  0  0  0  0  0  0  0
    4.9195   -4.2430    0.0000 C   0  0  0  0  0  0  0  0  0  0  0  0
    4.1201   -2.8287    0.0000 C   0  0  0  0  0  0  0  0  0  0  0  0
    7.3792   -4.3045    0.0000 C   0  0  0  0  0  0  0  0  0  0  0  0
    2.8902   -2.1523    0.0000 C   0  0  0  0  0  0  0  0  0  0  0  0
    4.1201   -1.4143    0.0000 C   0  0  0  0  0  0  0  0  0  0  0  0
    4.0586   -4.2430    0.0000 C   0  0  0  0  0  0  0  0  0  0  0  0
    3.6896   -3.5051    0.0000 C   0  0  0  0  0  0  0  0  0  0  0  0
    1.5988   -2.8287    0.0000 C   0  0  0  0  0  0  0  0  0  0  0  0
    2.4598   -1.4143    0.0000 C   0  0  0  0  0  0  0  0  0  0  0  0
    2.4598   -2.8287    0.0000 C   0  0  0  0  0  0  0  0  0  0  0  0
    8.5476   -5.0425    0.0000 C   0  0  0  0  0  0  0  0  0  0  0  0
    7.7482   -3.5666    0.0000 C   0  0  0  0  0  0  0  0  0  0  0  0
    1.2299   -2.1523    0.0000 C   0  0  0  0  0  0  0  0  0  0  0  0
    1.5988   -1.4143    0.0000 C   0  0  0  0  0  0  0  0  0  0  0  0
    8.5476   -6.4568    0.0000 C   0  0  0  0  0  0  0  0  0  0  0  0
    8.6091   -3.6281    0.0000 C   0  0  0  0  0  0  0  0  0  0  0  0
    8.4861   -7.8712    0.0000 C   0  0  0  0  0  0  0  0  0  0  0  0
    8.9165   -7.1947    0.0000 C   0  0  0  0  0  0  0  0  0  0  0  0
    7.6866   -6.4568    0.0000 C   0  0  0  0  0  0  0  0  0  0  0  0
    7.2562   -7.1333    0.0000 C   0  0  0  0  0  0  0  0  0  0  0  0
    1.5988   -4.3045    0.0000 C   0  0  0  0  0  0  0  0  0  0  0  0
    0.4305   -3.5666    0.0000 C   0  0  0  0  0  0  0  0  0  0  0  0
    7.6866   -7.8712    0.0000 C   0  0  0  0  0  0  0  0  0  0  0  0
    1.2299   -4.9809    0.0000 C   0  0  0  0  0  0  0  0  0  0  0  0
    0.0000   -4.2430    0.0000 C   0  0  0  0  0  0  0  0  0  0  0  0
    2.4598    0.0000    0.0000 C   0  0  0  0  0  0  0  0  0  0  0  0
    9.6544   -8.6706    0.0000 C   0  0  0  0  0  0  0  0  0  0  0  0
    6.0264   -7.8712    0.0000 C   0  0  0  0  0  0  0  0  0  0  0  0
   10.1464   -7.9941    0.0000 C   0  0  0  0  0  0  0  0  0  0  0  0
   11.3148   -8.7321    0.0000 C   0  0  0  0  0  0  0  0  0  0  0  0
   12.1757   -8.7321    0.0000 C   0  0  0  0  0  0  0  0  0  0  0  0
   12.1142  -10.1464    0.0000 C   0  0  0  0  0  0  0  0  0  0  0  0
   12.5447  -10.8843    0.0000 C   0  0  0  0  0  0  0  0  0  0  0  0
   12.4832  -12.2987    0.0000 C   0  0  0  0  0  0  0  0  0  0  0  0
  1 18  1  0  0  0  0
  1 24  1  0  0  0  0
  2 30  1  0  0  0  0
  2 47  1  0  0  0  0
  3 26  2  0  0  0  0
  4 38  1  0  0  0  0
  4 48  1  0  0  0  0
  5 41  1  0  0  0  0
  5 49  1  0  0  0  0
  6 45  1  0  0  0  0
  6 46  1  0  0  0  0
  7 50  1  0  0  0  0
  7 51  1  0  0  0  0
  8 52  1  0  0  0  0
  8 53  1  0  0  0  0
  9 54  1  0  0  0  0
  9 55  1  0  0  0  0
 10 19  1  0  0  0  0
 10 26  1  0  0  0  0
 11 25  1  0  0  0  0
 11 26  1  0  0  0  0
 12 24  2  0  0  0  0
 12 32  1  0  0  0  0
 13 29  1  0  0  0  0
 13 42  1  0  0  0  0
 13 43  1  0  0  0  0
 14 32  1  0  0  0  0
 14 36  1  0  0  0  0
 15 32  2  0  0  0  0
 15 37  1  0  0  0  0
 16 17  2  0  0  0  0
 16 18  1  0  0  0  0
 16 22  1  0  0  0  0
 17 19  1  0  0  0  0
 17 23  1  0  0  0  0
 18 20  2  0  0  0  0
 19 21  2  0  0  0  0
 20 21  1  0  0  0  0
 22 27  2  0  0  0  0
 23 28  2  0  0  0  0
 24 33  1  0  0  0  0
 25 30  1  0  0  0  0
 25 31  2  0  0  0  0
 27 28  1  0  0  0  0
 29 31  1  0  0  0  0
 29 34  2  0  0  0  0
 30 35  2  0  0  0  0
 33 37  2  0  0  0  0
 34 35  1  0  0  0  0
 36 39  2  0  0  0  0
 36 40  1  0  0  0  0
 38 39  1  0  0  0  0
 38 44  2  0  0  0  0
 40 41  2  0  0  0  0
 41 44  1  0  0  0  0
 42 45  1  0  0  0  0
 43 46  1  0  0  0  0
 48 50  1  0  0  0  0
 51 52  1  0  0  0  0
 53 54  1  0  0  0  0
M  END
> <PUBCHEM_COMPOUND_ID_TYPE>
0

> <PUBCHEM_TOTAL_CHARGE>
0

> <PUBCHEM_SUBSTANCE_ID>
310929090

> <PUBCHEM_SUBSTANCE_VERSION>
1

> <PUBCHEM_EXT_DATASOURCE_NAME>
4488

> <PUBCHEM_EXT_DATASOURCE_REGID>
SCHEMBL16106252

> <PUBCHEM_SUBSTANCE_COMMENT>
InChI=1S/C40H46N6O9/c1-48-18-19-52-20-21-53-22-23-54-31-25-28(24-30(27-31)49-2)42-39-41-13-12-38(45-39)55-36-11-9-34(32-6-4-5-7-33(32)36)43-40(47)44-35-26-29(8-10-37(35)50-3)46-14-16-51-17-15-46/h4-13,24-27H,14-23H2,1-3H3,(H,41,42,45)(H2,43,44,47)
InChIKey=CBRIEUCHYNRMNT-UHFFFAOYSA-N

> <PUBCHEM_SUBSTANCE_SYNONYM>
SCHEMBL16106252

> <PUBCHEM_XREF_EXT_ID>
SCHEMBL16106252

> <PUBCHEM_EXT_DATASOURCE_URL>
https://www.surechembl.org/

> <PUBCHEM_EXT_SUBSTANCE_URL>
https://www.surechembl.org/chemical/SCHEMBL16106252

> <PUBCHEM_CID_ASSOCIATIONS>
86274737  1

> <PUBCHEM_COORDINATE_TYPE>
1
3

$$$$
