310948201
  -OEChem-07211613022D

 20 21  0     0  0  0  0  0  0999 V2000
    3.0046   -0.3469    0.0000 Br  0  0  0  0  0  0  0  0  0  0  0  0
   -3.0046    0.2221    0.0000 F   0  0  0  0  0  0  0  0  0  0  0  0
   -2.9630    0.9715    0.0000 F   0  0  0  0  0  0  0  0  0  0  0  0
    0.9090    1.8181    0.0000 O   0  5  0  0  0  0  0  0  0  0  0  0
   -0.2706    1.0408    0.0000 O   0  0  0  0  0  0  0  0  0  0  0  0
   -0.2984   -0.3469    0.0000 N   0  0  0  0  0  0  0  0  0  0  0  0
   -0.7841    0.3192    0.0000 N   0  0  0  0  0  0  0  0  0  0  0  0
    0.5343    1.0825    0.0000 N   0  3  0  0  0  0  0  0  0  0  0  0
    0.5343   -0.3330    0.0000 C   0  0  0  0  0  0  0  0  0  0  0  0
   -1.5613    0.0694    0.0000 C   0  0  0  0  0  0  0  0  0  0  0  0
   -0.7841   -1.0131    0.0000 C   0  0  0  0  0  0  0  0  0  0  0  0
    0.9368    0.3886    0.0000 C   0  0  0  0  0  0  0  0  0  0  0  0
   -2.2691    0.5690    0.0000 C   0  0  0  0  0  0  0  0  0  0  0  0
   -1.5613   -0.7494    0.0000 C   0  0  0  0  0  0  0  0  0  0  0  0
    0.9507   -1.0547    0.0000 C   0  0  0  0  0  0  0  0  0  0  0  0
    1.7833    0.3608    0.0000 C   0  0  0  0  0  0  0  0  0  0  0  0
    2.1719   -0.3469    0.0000 C   0  0  0  0  0  0  0  0  0  0  0  0
    1.7694   -1.0547    0.0000 C   0  0  0  0  0  0  0  0  0  0  0  0
   -0.5205   -1.8181    0.0000 C   0  0  0  0  0  0  0  0  0  0  0  0
   -2.1581    1.4017    0.0000 C   0  0  0  0  0  0  0  0  0  0  0  0
  1 17  1  0  0  0  0
  2 13  1  0  0  0  0
  3 13  1  0  0  0  0
  4  8  1  0  0  0  0
  5  8  2  0  0  0  0
  6  7  1  0  0  0  0
  6  9  1  0  0  0  0
  6 11  1  0  0  0  0
  7 10  2  0  0  0  0
  8 12  1  0  0  0  0
  9 12  1  0  0  0  0
  9 15  2  0  0  0  0
 10 13  1  0  0  0  0
 10 14  1  0  0  0  0
 11 14  2  0  0  0  0
 11 19  1  0  0  0  0
 12 16  2  0  0  0  0
 13 20  1  0  0  0  0
 15 18  1  0  0  0  0
 16 17  1  0  0  0  0
 17 18  2  0  0  0  0
M  CHG  2   4  -1   8   1
M  END
> <PUBCHEM_COMPOUND_ID_TYPE>
0

> <PUBCHEM_TOTAL_CHARGE>
0

> <PUBCHEM_SUBSTANCE_ID>
310948201

> <PUBCHEM_SUBSTANCE_VERSION>
1

> <PUBCHEM_EXT_DATASOURCE_NAME>
4488

> <PUBCHEM_EXT_DATASOURCE_REGID>
SCHEMBL16126378

> <PUBCHEM_SUBSTANCE_COMMENT>
InChI=1S/C12H10BrF2N3O2/c1-7-5-11(12(2,14)15)16-17(7)9-4-3-8(13)6-10(9)18(19)20/h3-6H,1-2H3
InChIKey=AAZLOOKOJNGCBO-UHFFFAOYSA-N

> <PUBCHEM_SUBSTANCE_SYNONYM>
SCHEMBL16126378

> <PUBCHEM_XREF_EXT_ID>
SCHEMBL16126378

> <PUBCHEM_EXT_DATASOURCE_URL>
https://www.surechembl.org/

> <PUBCHEM_EXT_SUBSTANCE_URL>
https://www.surechembl.org/chemical/SCHEMBL16126378

> <PUBCHEM_CID_ASSOCIATIONS>
117613781  1

> <PUBCHEM_COORDINATE_TYPE>
1
3

$$$$
