310949612
  -OEChem-07211613022D

 42 47  0     1  0  0  0  0  0999 V2000
   -1.4806   -0.6851    0.0000 O   0  0  0  0  0  0  0  0  0  0  0  0
    4.5008    0.2136    0.0000 O   0  0  0  0  0  0  0  0  0  0  0  0
    5.8120    0.6408    0.0000 O   0  0  0  0  0  0  0  0  0  0  0  0
    1.4806    0.3020    0.0000 N   0  0  0  0  0  0  0  0  0  0  0  0
    1.9668    0.9797    0.0000 N   0  0  0  0  0  0  0  0  0  0  0  0
   -2.1878    0.5672    0.0000 N   0  0  0  0  0  0  0  0  0  0  0  0
    0.6704    0.5672    0.0000 C   0  0  0  0  0  0  0  0  0  0  0  0
    0.6998    1.4069    0.0000 C   0  0  0  0  0  0  0  0  0  0  0  0
    1.4659    1.6427    0.0000 C   0  0  0  0  0  0  0  0  0  0  0  0
   -0.7588    0.5672    0.0000 C   0  0  0  0  0  0  0  0  0  0  0  0
   -0.0221    0.1547    0.0000 C   0  0  0  0  0  0  0  0  0  0  0  0
   -0.0516    1.7900    0.0000 C   0  0  0  0  0  0  0  0  0  0  0  0
   -2.9097    0.1399    0.0000 C   0  0  3  0  0  0  0  0  0  0  0  0
   -1.4659    0.1694    0.0000 C   0  0  0  0  0  0  0  0  0  0  0  0
    1.6869   -0.4935    0.0000 C   0  0  0  0  0  0  0  0  0  0  0  0
   -0.7440    1.3922    0.0000 C   0  0  0  0  0  0  0  0  0  0  0  0
   -2.9097   -0.8029    0.0000 C   0  0  0  0  0  0  0  0  0  0  0  0
    2.4824   -0.6998    0.0000 C   0  0  0  0  0  0  0  0  0  0  0  0
   -3.6316    0.5672    0.0000 C   0  0  0  0  0  0  0  0  0  0  0  0
   -3.3074   -1.3922    0.0000 C   0  0  0  0  0  0  0  0  0  0  0  0
   -2.4972   -1.3922    0.0000 C   0  0  0  0  0  0  0  0  0  0  0  0
    4.0736   -1.1270    0.0000 C   0  0  0  0  0  0  0  0  0  0  0  0
    4.8838   -1.3481    0.0000 C   0  0  0  0  0  0  0  0  0  0  0  0
    1.8784    2.3646    0.0000 C   0  0  0  0  0  0  0  0  0  0  0  0
    2.7034   -1.5101    0.0000 C   0  0  0  0  0  0  0  0  0  0  0  0
    3.0717   -0.1399    0.0000 C   0  0  0  0  0  0  0  0  0  0  0  0
   -4.3240    0.1547    0.0000 C   0  0  0  0  0  0  0  0  0  0  0  0
    5.4731   -0.7588    0.0000 C   0  0  0  0  0  0  0  0  0  0  0  0
    3.4990   -1.7163    0.0000 C   0  0  0  0  0  0  0  0  0  0  0  0
    3.8673   -0.3463    0.0000 C   0  0  0  0  0  0  0  0  0  0  0  0
   -3.6316    1.3922    0.0000 C   0  0  0  0  0  0  0  0  0  0  0  0
   -5.0754    0.5672    0.0000 C   0  0  0  0  0  0  0  0  0  0  0  0
    5.1195   -2.1436    0.0000 C   0  0  0  0  0  0  0  0  0  0  0  0
   -4.3535    1.7900    0.0000 C   0  0  0  0  0  0  0  0  0  0  0  0
    5.2522    0.0368    0.0000 C   0  0  0  0  0  0  0  0  0  0  0  0
   -5.0459    1.3922    0.0000 C   0  0  0  0  0  0  0  0  0  0  0  0
    6.2687   -0.9797    0.0000 C   0  0  0  0  0  0  0  0  0  0  0  0
   -5.7825    0.1547    0.0000 C   0  0  0  0  0  0  0  0  0  0  0  0
    5.9004   -2.3646    0.0000 C   0  0  0  0  0  0  0  0  0  0  0  0
    6.4897   -1.7753    0.0000 C   0  0  0  0  0  0  0  0  0  0  0  0
   -5.7678   -0.6704    0.0000 C   0  0  0  0  0  0  0  0  0  0  0  0
   -6.4897    0.5525    0.0000 C   0  0  0  0  0  0  0  0  0  0  0  0
  1 14  2  0  0  0  0
  2 35  2  0  0  0  0
  3 35  1  0  0  0  0
  4  5  1  0  0  0  0
  4  7  1  0  0  0  0
  4 15  1  0  0  0  0
  5  9  2  0  0  0  0
 13  6  1  1  0  0  0
  6 14  1  0  0  0  0
  7  8  1  0  0  0  0
  7 11  2  0  0  0  0
  8  9  1  0  0  0  0
  8 12  2  0  0  0  0
  9 24  1  0  0  0  0
 10 11  1  0  0  0  0
 10 14  1  0  0  0  0
 10 16  2  0  0  0  0
 12 16  1  0  0  0  0
 13 17  1  0  0  0  0
 13 19  1  0  0  0  0
 15 18  1  0  0  0  0
 17 20  1  0  0  0  0
 17 21  1  0  0  0  0
 18 25  2  0  0  0  0
 18 26  1  0  0  0  0
 19 27  2  0  0  0  0
 19 31  1  0  0  0  0
 20 21  1  0  0  0  0
 22 23  1  0  0  0  0
 22 29  2  0  0  0  0
 22 30  1  0  0  0  0
 23 28  1  0  0  0  0
 23 33  2  0  0  0  0
 25 29  1  0  0  0  0
 26 30  2  0  0  0  0
 27 32  1  0  0  0  0
 28 35  1  0  0  0  0
 28 37  2  0  0  0  0
 31 34  2  0  0  0  0
 32 36  2  0  0  0  0
 32 38  1  0  0  0  0
 33 39  1  0  0  0  0
 34 36  1  0  0  0  0
 37 40  1  0  0  0  0
 38 41  1  0  0  0  0
 38 42  1  0  0  0  0
 39 40  2  0  0  0  0
M  END
> <PUBCHEM_COMPOUND_ID_TYPE>
0

> <PUBCHEM_TOTAL_CHARGE>
0

> <PUBCHEM_SUBSTANCE_ID>
310949612

> <PUBCHEM_SUBSTANCE_VERSION>
1

> <PUBCHEM_EXT_DATASOURCE_NAME>
4488

> <PUBCHEM_EXT_DATASOURCE_REGID>
SCHEMBL16127810

> <PUBCHEM_SUBSTANCE_COMMENT>
InChI=1S/C36H35N3O3/c1-22(2)27-7-6-8-28(19-27)34(26-15-16-26)37-35(40)29-17-18-30-23(3)38-39(33(30)20-29)21-24-11-13-25(14-12-24)31-9-4-5-10-32(31)36(41)42/h4-14,17-20,22,26,34H,15-16,21H2,1-3H3,(H,37,40)(H,41,42)/t34-/m0/s1
InChIKey=DMSPPOCUMHZWAQ-UMSFTDKQSA-N

> <PUBCHEM_SUBSTANCE_SYNONYM>
SCHEMBL16127810

> <PUBCHEM_XREF_EXT_ID>
SCHEMBL16127810

> <PUBCHEM_EXT_DATASOURCE_URL>
https://www.surechembl.org/

> <PUBCHEM_EXT_SUBSTANCE_URL>
https://www.surechembl.org/chemical/SCHEMBL16127810

> <PUBCHEM_CID_ASSOCIATIONS>
71578059  1

> <PUBCHEM_COORDINATE_TYPE>
1
3

> <PUBCHEM_BONDANNOTATIONS>
13  6  5

$$$$
