310936960
  -OEChem-07211613022D

 26 28  0     0  0  0  0  0  0999 V2000
    2.2409   -1.6265    0.0000 O   0  0  0  0  0  0  0  0  0  0  0  0
    4.3372   -3.6866    0.0000 O   0  0  0  0  0  0  0  0  0  0  0  0
    0.0723   -0.3976    0.0000 O   0  0  0  0  0  0  0  0  0  0  0  0
    2.2048   -6.5420    0.0000 O   0  0  0  0  0  0  0  0  0  0  0  0
    2.2409   -4.0842    0.0000 N   0  0  0  0  0  0  0  0  0  0  0  0
    3.6505   -4.9155    0.0000 N   0  0  0  0  0  0  0  0  0  0  0  0
    2.9276   -5.3131    0.0000 N   0  0  0  0  0  0  0  0  0  0  0  0
    1.5180   -2.8554    0.0000 C   0  0  0  0  0  0  0  0  0  0  0  0
    2.2409   -2.4578    0.0000 C   0  0  0  0  0  0  0  0  0  0  0  0
    0.7951   -2.4578    0.0000 C   0  0  0  0  0  0  0  0  0  0  0  0
    2.9276   -3.6866    0.0000 C   0  0  0  0  0  0  0  0  0  0  0  0
    2.9276   -2.8554    0.0000 C   0  0  0  0  0  0  0  0  0  0  0  0
    1.5180   -3.6866    0.0000 C   0  0  0  0  0  0  0  0  0  0  0  0
    0.0000   -2.4578    0.0000 C   0  0  0  0  0  0  0  0  0  0  0  0
    0.3976   -1.7349    0.0000 C   0  0  0  0  0  0  0  0  0  0  0  0
    3.6505   -4.0842    0.0000 C   0  0  0  0  0  0  0  0  0  0  0  0
    1.5180   -1.2289    0.0000 C   0  0  0  0  0  0  0  0  0  0  0  0
    2.9276   -6.1444    0.0000 C   0  0  0  0  0  0  0  0  0  0  0  0
    3.6143   -6.5420    0.0000 C   0  0  0  0  0  0  0  0  0  0  0  0
    1.4819   -0.3976    0.0000 C   0  0  0  0  0  0  0  0  0  0  0  0
    0.7951   -1.6265    0.0000 C   0  0  0  0  0  0  0  0  0  0  0  0
    0.7951    0.0000    0.0000 C   0  0  0  0  0  0  0  0  0  0  0  0
    0.1084   -1.2289    0.0000 C   0  0  0  0  0  0  0  0  0  0  0  0
    3.2168   -7.2287    0.0000 C   0  0  0  0  0  0  0  0  0  0  0  0
    4.0481   -5.8191    0.0000 C   0  0  0  0  0  0  0  0  0  0  0  0
    4.3372   -6.9395    0.0000 C   0  0  0  0  0  0  0  0  0  0  0  0
  1  9  1  0  0  0  0
  1 17  1  0  0  0  0
  2 16  2  0  0  0  0
  3 22  1  0  0  0  0
  3 23  1  0  0  0  0
  4 18  2  0  0  0  0
  5 11  1  0  0  0  0
  5 13  2  0  0  0  0
  6  7  1  0  0  0  0
  6 16  1  0  0  0  0
  7 18  1  0  0  0  0
  8  9  2  0  0  0  0
  8 10  1  0  0  0  0
  8 13  1  0  0  0  0
  9 12  1  0  0  0  0
 10 14  1  0  0  0  0
 10 15  1  0  0  0  0
 11 12  2  0  0  0  0
 11 16  1  0  0  0  0
 14 15  1  0  0  0  0
 17 20  1  0  0  0  0
 17 21  1  0  0  0  0
 18 19  1  0  0  0  0
 19 24  1  0  0  0  0
 19 25  1  0  0  0  0
 19 26  1  0  0  0  0
 20 22  1  0  0  0  0
 21 23  1  0  0  0  0
M  END
> <PUBCHEM_COMPOUND_ID_TYPE>
0

> <PUBCHEM_TOTAL_CHARGE>
0

> <PUBCHEM_SUBSTANCE_ID>
310936960

> <PUBCHEM_SUBSTANCE_VERSION>
1

> <PUBCHEM_EXT_DATASOURCE_NAME>
4488

> <PUBCHEM_EXT_DATASOURCE_REGID>
SCHEMBL16114663

> <PUBCHEM_SUBSTANCE_COMMENT>
InChI=1S/C19H27N3O4/c1-19(2,3)18(24)22-21-17(23)15-10-16(14(11-20-15)12-4-5-12)26-13-6-8-25-9-7-13/h10-13H,4-9H2,1-3H3,(H,21,23)(H,22,24)
InChIKey=HBERRWFKOWFTDM-UHFFFAOYSA-N

> <PUBCHEM_SUBSTANCE_SYNONYM>
SCHEMBL16114663

> <PUBCHEM_XREF_EXT_ID>
SCHEMBL16114663

> <PUBCHEM_EXT_DATASOURCE_URL>
https://www.surechembl.org/

> <PUBCHEM_EXT_SUBSTANCE_URL>
https://www.surechembl.org/chemical/SCHEMBL16114663

> <PUBCHEM_CID_ASSOCIATIONS>
117604828  1

> <PUBCHEM_COORDINATE_TYPE>
1
3

$$$$
