310945741
  -OEChem-07211613022D

 11 12  0     1  0  0  0  0  0999 V2000
    1.4572   -1.1035    0.0000 O   0  0  0  0  0  0  0  0  0  0  0  0
   -1.4572   -1.1318    0.0000 O   0  0  0  0  0  0  0  0  0  0  0  0
   -0.0141   -1.3582    0.0000 N   0  0  0  0  0  0  0  0  0  0  0  0
    0.3537   -0.0849    0.0000 C   0  0  3  0  0  0  0  0  0  0  0  0
   -0.4103   -0.0849    0.0000 C   0  0  3  0  0  0  0  0  0  0  0  0
    0.6366   -0.8205    0.0000 C   0  0  0  0  0  0  0  0  0  0  0  0
   -0.6649   -0.8771    0.0000 C   0  0  0  0  0  0  0  0  0  0  0  0
    0.8064    0.6224    0.0000 C   0  0  0  0  0  0  0  0  0  0  0  0
   -0.8064    0.6224    0.0000 C   0  0  0  0  0  0  0  0  0  0  0  0
    0.3820    1.3299    0.0000 C   0  0  0  0  0  0  0  0  0  0  0  0
   -0.4103    1.3582    0.0000 C   0  0  0  0  0  0  0  0  0  0  0  0
  1  6  2  0  0  0  0
  2  7  2  0  0  0  0
  3  6  1  0  0  0  0
  3  7  1  0  0  0  0
  4  5  1  0  0  0  0
  4  6  1  1  0  0  0
  4  8  1  0  0  0  0
  5  7  1  0  0  0  0
  5  9  1  0  0  0  0
  8 10  1  0  0  0  0
  9 11  1  0  0  0  0
 10 11  2  0  0  0  0
M  END
> <PUBCHEM_COMPOUND_ID_TYPE>
0

> <PUBCHEM_TOTAL_CHARGE>
0

> <PUBCHEM_SUBSTANCE_ID>
310945741

> <PUBCHEM_SUBSTANCE_VERSION>
1

> <PUBCHEM_EXT_DATASOURCE_NAME>
4488

> <PUBCHEM_EXT_DATASOURCE_REGID>
SCHEMBL16123845

> <PUBCHEM_SUBSTANCE_COMMENT>
InChI=1S/C8H9NO2/c10-7-5-3-1-2-4-6(5)8(11)9-7/h1-2,5-6H,3-4H2,(H,9,10,11)/t5-,6?/m1/s1
InChIKey=CIFFBTOJCKSRJY-LWOQYNTDSA-N

> <PUBCHEM_SUBSTANCE_SYNONYM>
SCHEMBL16123845

> <PUBCHEM_XREF_EXT_ID>
SCHEMBL16123845

> <PUBCHEM_EXT_DATASOURCE_URL>
https://www.surechembl.org/

> <PUBCHEM_EXT_SUBSTANCE_URL>
https://www.surechembl.org/chemical/SCHEMBL16123845

> <PUBCHEM_CID_ASSOCIATIONS>
117611735  1

> <PUBCHEM_COORDINATE_TYPE>
1
3

> <PUBCHEM_BONDANNOTATIONS>
4  6  5

$$$$
