310946857
  -OEChem-07211613022D

 39 43  0     1  0  0  0  0  0999 V2000
   -1.7941   -1.4765    0.0000 S   0  0  0  0  0  0  0  0  0  0  0  0
   -2.4465   -1.9743    0.0000 O   0  0  0  0  0  0  0  0  0  0  0  0
   -2.5495   -1.1503    0.0000 O   0  0  0  0  0  0  0  0  0  0  0  0
   -0.5580    5.0646    0.0000 O   0  0  0  0  0  0  0  0  0  0  0  0
   -1.4335    0.8927    0.0000 O   0  0  0  0  0  0  0  0  0  0  0  0
   -0.9700   -4.2406    0.0000 O   0  0  0  0  0  0  0  0  0  0  0  0
    0.0086   -3.1933    0.0000 O   0  0  0  0  0  0  0  0  0  0  0  0
    0.1116    3.2105    0.0000 N   0  0  0  0  0  0  0  0  0  0  0  0
    0.5923    2.5237    0.0000 N   0  0  0  0  0  0  0  0  0  0  0  0
   -1.1932   -2.0430    0.0000 N   0  0  3  0  0  0  0  0  0  0  0  0
    0.3348    1.0644    0.0000 N   0  0  0  0  0  0  0  0  0  0  0  0
   -2.1203    2.1632    0.0000 N   0  0  0  0  0  0  0  0  0  0  0  0
    2.5495    3.6740    0.0000 N   0  0  0  0  0  0  0  0  0  0  0  0
   -0.6610    2.9701    0.0000 C   0  0  0  0  0  0  0  0  0  0  0  0
   -0.6953    2.1460    0.0000 C   0  0  0  0  0  0  0  0  0  0  0  0
    0.3863    4.0002    0.0000 C   0  0  3  0  0  0  0  0  0  0  0  0
    0.0944    1.8370    0.0000 C   0  0  0  0  0  0  0  0  0  0  0  0
   -1.3649   -0.7382    0.0000 C   0  0  0  0  0  0  0  0  0  0  0  0
   -0.5580   -0.9443    0.0000 C   0  0  0  0  0  0  0  0  0  0  0  0
   -1.4164    1.7511    0.0000 C   0  0  0  0  0  0  0  0  0  0  0  0
   -0.2318    0.4464    0.0000 C   0  0  0  0  0  0  0  0  0  0  0  0
   -0.4035   -1.8027    0.0000 C   0  0  0  0  0  0  0  0  0  0  0  0
   -0.0086   -0.3433    0.0000 C   0  0  0  0  0  0  0  0  0  0  0  0
   -1.3992    3.3821    0.0000 C   0  0  0  0  0  0  0  0  0  0  0  0
   -1.5881    0.0343    0.0000 C   0  0  0  0  0  0  0  0  0  0  0  0
   -0.3863    4.2578    0.0000 C   0  0  0  0  0  0  0  0  0  0  0  0
    1.0043    4.5153    0.0000 C   0  0  0  0  0  0  0  0  0  0  0  0
    0.9185    3.3478    0.0000 C   0  0  0  0  0  0  0  0  0  0  0  0
   -1.0387    0.6352    0.0000 C   0  0  0  0  0  0  0  0  0  0  0  0
   -1.3821   -2.8671    0.0000 C   0  0  0  0  0  0  0  0  0  0  0  0
   -2.0859    2.9873    0.0000 C   0  0  0  0  0  0  0  0  0  0  0  0
    0.8498    5.3565    0.0000 C   0  0  0  0  0  0  0  0  0  0  0  0
   -0.7811   -3.4165    0.0000 C   0  0  0  0  0  0  0  0  0  0  0  0
    1.7254    3.5195    0.0000 C   0  0  0  0  0  0  0  0  0  0  0  0
    0.0601    5.6140    0.0000 C   0  0  0  0  0  0  0  0  0  0  0  0
   -0.3519   -4.8071    0.0000 C   0  0  0  0  0  0  0  0  0  0  0  0
    0.4378   -4.5324    0.0000 C   0  0  0  0  0  0  0  0  0  0  0  0
    0.2146   -5.3737    0.0000 C   0  0  0  0  0  0  0  0  0  0  0  0
   -0.5236   -5.6140    0.0000 C   0  0  0  0  0  0  0  0  0  0  0  0
  1  2  2  0  0  0  0
  1  3  2  0  0  0  0
  1 10  1  0  0  0  0
  1 18  1  0  0  0  0
  4 26  1  0  0  0  0
  4 35  1  0  0  0  0
  5 20  2  0  0  0  0
  6 33  1  0  0  0  0
  6 36  1  0  0  0  0
  7 33  2  0  0  0  0
  8  9  1  0  0  0  0
  8 14  1  0  0  0  0
  8 16  1  0  0  0  0
  9 17  2  0  0  0  0
 10 22  1  0  0  0  0
 10 30  1  0  0  0  0
 11 17  1  0  0  0  0
 11 21  1  0  0  0  0
 12 20  1  0  0  0  0
 12 31  1  0  0  0  0
 13 34  3  0  0  0  0
 14 15  2  0  0  0  0
 14 24  1  0  0  0  0
 15 17  1  0  0  0  0
 15 20  1  0  0  0  0
 16 26  1  0  0  0  0
 16 27  1  0  0  0  0
 16 28  1  6  0  0  0
 18 19  1  0  0  0  0
 18 25  2  0  0  0  0
 19 22  1  0  0  0  0
 19 23  2  0  0  0  0
 21 23  1  0  0  0  0
 21 29  2  0  0  0  0
 24 31  2  0  0  0  0
 25 29  1  0  0  0  0
 27 32  1  0  0  0  0
 28 34  1  0  0  0  0
 30 33  1  0  0  0  0
 32 35  1  0  0  0  0
 36 37  1  0  0  0  0
 36 38  1  0  0  0  0
 36 39  1  0  0  0  0
M  END
> <PUBCHEM_COMPOUND_ID_TYPE>
0

> <PUBCHEM_TOTAL_CHARGE>
0

> <PUBCHEM_SUBSTANCE_ID>
310946857

> <PUBCHEM_SUBSTANCE_VERSION>
1

> <PUBCHEM_EXT_DATASOURCE_NAME>
4488

> <PUBCHEM_EXT_DATASOURCE_REGID>
SCHEMBL16124981

> <PUBCHEM_SUBSTANCE_COMMENT>
InChI=1S/C26H30N6O6S/c1-25(2,3)38-21(33)15-31-14-17-13-18(5-6-20(17)39(31,35)36)29-23-22-19(7-11-28-24(22)34)32(30-23)26(9-10-27)8-4-12-37-16-26/h5-7,11,13H,4,8-9,12,14-16H2,1-3H3,(H,28,34)(H,29,30)/t26-/m0/s1
InChIKey=NSQHXILTPOSWFU-SANMLTNESA-N

> <PUBCHEM_SUBSTANCE_SYNONYM>
SCHEMBL16124981

> <PUBCHEM_XREF_EXT_ID>
SCHEMBL16124981

> <PUBCHEM_EXT_DATASOURCE_URL>
https://www.surechembl.org/

> <PUBCHEM_EXT_SUBSTANCE_URL>
https://www.surechembl.org/chemical/SCHEMBL16124981

> <PUBCHEM_CID_ASSOCIATIONS>
117612715  1

> <PUBCHEM_COORDINATE_TYPE>
1
3

> <PUBCHEM_BONDANNOTATIONS>
16  28  6

$$$$
