310932514
  -OEChem-07211613022D

 34 38  0     0  0  0  0  0  0999 V2000
    4.0284   -2.7480    0.0000 O   0  0  0  0  0  0  0  0  0  0  0  0
    8.5564   -2.8417    0.0000 O   0  0  0  0  0  0  0  0  0  0  0  0
    4.9339   -1.5926    0.0000 N   0  0  0  0  0  0  0  0  0  0  0  0
    7.8382   -4.0908    0.0000 N   0  0  0  0  0  0  0  0  0  0  0  0
    4.8715   -0.7807    0.0000 N   0  0  0  0  0  0  0  0  0  0  0  0
    6.4016   -1.5926    0.0000 N   0  0  0  0  0  0  0  0  0  0  0  0
    5.6834   -5.3399    0.0000 N   0  0  0  0  0  0  0  0  0  0  0  0
    0.0000   -2.4670    0.0000 N   0  0  0  0  0  0  0  0  0  0  0  0
    3.6224   -1.3428    0.0000 C   0  0  0  0  0  0  0  0  0  0  0  0
    4.2157   -1.9361    0.0000 C   0  0  0  0  0  0  0  0  0  0  0  0
    5.6522   -2.0298    0.0000 C   0  0  0  0  0  0  0  0  0  0  0  0
    8.5564   -4.4968    0.0000 C   0  0  0  0  0  0  0  0  0  0  0  0
    7.8382   -3.2477    0.0000 C   0  0  0  0  0  0  0  0  0  0  0  0
    2.8105   -1.4365    0.0000 C   0  0  0  0  0  0  0  0  0  0  0  0
    7.0887   -2.8417    0.0000 C   0  0  0  0  0  0  0  0  0  0  0  0
    7.1199   -4.4968    0.0000 C   0  0  0  0  0  0  0  0  0  0  0  0
    4.0284   -0.6246    0.0000 C   0  0  0  0  0  0  0  0  0  0  0  0
    2.3108   -0.7807    0.0000 C   0  0  0  0  0  0  0  0  0  0  0  0
    9.3683   -4.4968    0.0000 C   0  0  0  0  0  0  0  0  0  0  0  0
    8.9936   -5.2462    0.0000 C   0  0  0  0  0  0  0  0  0  0  0  0
    5.6522   -2.8417    0.0000 C   0  0  0  0  0  0  0  0  0  0  0  0
    7.0887   -2.0298    0.0000 C   0  0  0  0  0  0  0  0  0  0  0  0
    6.4016   -3.2477    0.0000 C   0  0  0  0  0  0  0  0  0  0  0  0
    2.4670   -2.1859    0.0000 C   0  0  0  0  0  0  0  0  0  0  0  0
    6.4016   -4.0908    0.0000 C   0  0  0  0  0  0  0  0  0  0  0  0
    7.1199   -5.3399    0.0000 C   0  0  0  0  0  0  0  0  0  0  0  0
    1.4990   -0.8744    0.0000 C   0  0  0  0  0  0  0  0  0  0  0  0
    1.1554   -1.6238    0.0000 C   0  0  0  0  0  0  0  0  0  0  0  0
    1.6551   -2.2796    0.0000 C   0  0  0  0  0  0  0  0  0  0  0  0
    5.6522   -4.4968    0.0000 C   0  0  0  0  0  0  0  0  0  0  0  0
    6.4016   -5.7459    0.0000 C   0  0  0  0  0  0  0  0  0  0  0  0
    2.6544    0.0000    0.0000 C   0  0  0  0  0  0  0  0  0  0  0  0
    0.3435   -1.7175    0.0000 C   0  0  0  0  0  0  0  0  0  0  0  0
    4.9652   -5.7459    0.0000 C   0  0  0  0  0  0  0  0  0  0  0  0
  1 10  1  0  0  0  0
  2 13  2  0  0  0  0
  3  5  1  0  0  0  0
  3 10  1  0  0  0  0
  3 11  1  0  0  0  0
  4 12  1  0  0  0  0
  4 13  1  0  0  0  0
  4 16  1  0  0  0  0
  5 17  2  0  0  0  0
  6 11  2  0  0  0  0
  6 22  1  0  0  0  0
  7 30  1  0  0  0  0
  7 31  1  0  0  0  0
  7 34  1  0  0  0  0
  8 33  3  0  0  0  0
  9 10  2  0  0  0  0
  9 14  1  0  0  0  0
  9 17  1  0  0  0  0
 11 21  1  0  0  0  0
 12 19  1  0  0  0  0
 12 20  1  0  0  0  0
 13 15  1  0  0  0  0
 14 18  1  0  0  0  0
 14 24  2  0  0  0  0
 15 22  2  0  0  0  0
 15 23  1  0  0  0  0
 16 25  1  0  0  0  0
 16 26  1  0  0  0  0
 18 27  2  0  0  0  0
 18 32  1  0  0  0  0
 19 20  1  0  0  0  0
 21 23  2  0  0  0  0
 24 29  1  0  0  0  0
 25 30  1  0  0  0  0
 26 31  1  0  0  0  0
 27 28  1  0  0  0  0
 28 29  2  0  0  0  0
 28 33  1  0  0  0  0
M  END
> <PUBCHEM_COMPOUND_ID_TYPE>
0

> <PUBCHEM_TOTAL_CHARGE>
0

> <PUBCHEM_SUBSTANCE_ID>
310932514

> <PUBCHEM_SUBSTANCE_VERSION>
1

> <PUBCHEM_EXT_DATASOURCE_NAME>
4488

> <PUBCHEM_EXT_DATASOURCE_REGID>
SCHEMBL16109889

> <PUBCHEM_SUBSTANCE_COMMENT>
InChI=1S/C26H28N6O2/c1-17-13-18(14-27)3-7-22(17)23-16-29-32(26(23)34)24-8-4-19(15-28-24)25(33)31(20-5-6-20)21-9-11-30(2)12-10-21/h3-4,7-8,13,15-16,20-21,34H,5-6,9-12H2,1-2H3
InChIKey=SNZSNWYXUGVCQS-UHFFFAOYSA-N

> <PUBCHEM_SUBSTANCE_SYNONYM>
SCHEMBL16109889

> <PUBCHEM_XREF_EXT_ID>
SCHEMBL16109889

> <PUBCHEM_EXT_DATASOURCE_URL>
https://www.surechembl.org/

> <PUBCHEM_EXT_SUBSTANCE_URL>
https://www.surechembl.org/chemical/SCHEMBL16109889

> <PUBCHEM_CID_ASSOCIATIONS>
117601049  1

> <PUBCHEM_COORDINATE_TYPE>
1
3

$$$$
