310949422
  -OEChem-07211613022D

 26 29  0     0  0  0  0  0  0999 V2000
   -2.2119    2.1181    0.0000 Br  0  0  0  0  0  0  0  0  0  0  0  0
    1.5183    2.6243    0.0000 S   0  0  0  0  0  0  0  0  0  0  0  0
    0.8061    3.0554    0.0000 O   0  0  0  0  0  0  0  0  0  0  0  0
    1.7245    3.4303    0.0000 O   0  0  0  0  0  0  0  0  0  0  0  0
   -0.6936   -3.4303    0.0000 O   0  0  0  0  0  0  0  0  0  0  0  0
   -2.3243   -3.0742    0.0000 O   0  0  0  0  0  0  0  0  0  0  0  0
    1.0310    0.6186    0.0000 N   0  0  0  0  0  0  0  0  0  0  0  0
   -1.7620   -2.4555    0.0000 N   0  0  0  0  0  0  0  0  0  0  0  0
    1.0310    1.9682    0.0000 C   0  0  0  0  0  0  0  0  0  0  0  0
    1.5371    1.3122    0.0000 C   0  0  0  0  0  0  0  0  0  0  0  0
    0.2436    1.7245    0.0000 C   0  0  0  0  0  0  0  0  0  0  0  0
    0.2249    0.8997    0.0000 C   0  0  0  0  0  0  0  0  0  0  0  0
    2.3056    1.5558    0.0000 C   0  0  0  0  0  0  0  0  0  0  0  0
    2.3243    2.3806    0.0000 C   0  0  0  0  0  0  0  0  0  0  0  0
   -0.4874    2.1181    0.0000 C   0  0  0  0  0  0  0  0  0  0  0  0
    1.2933   -0.1500    0.0000 C   0  0  0  0  0  0  0  0  0  0  0  0
   -0.4686    0.4874    0.0000 C   0  0  0  0  0  0  0  0  0  0  0  0
   -1.1997    1.7245    0.0000 C   0  0  0  0  0  0  0  0  0  0  0  0
   -1.1997    0.8810    0.0000 C   0  0  0  0  0  0  0  0  0  0  0  0
    0.7310   -0.7873    0.0000 C   0  0  0  0  0  0  0  0  0  0  0  0
   -0.0749   -0.6186    0.0000 C   0  0  0  0  0  0  0  0  0  0  0  0
    0.9748   -1.5558    0.0000 C   0  0  0  0  0  0  0  0  0  0  0  0
   -0.3936   -1.9682    0.0000 C   0  0  0  0  0  0  0  0  0  0  0  0
   -0.6186   -1.1997    0.0000 C   0  0  0  0  0  0  0  0  0  0  0  0
    0.4499   -2.1556    0.0000 C   0  0  0  0  0  0  0  0  0  0  0  0
   -0.9372   -2.6243    0.0000 C   0  0  0  0  0  0  0  0  0  0  0  0
  1 18  1  0  0  0  0
  2  3  2  0  0  0  0
  2  4  2  0  0  0  0
  2  9  1  0  0  0  0
  2 14  1  0  0  0  0
  5 26  2  0  0  0  0
  6  8  1  0  0  0  0
  7 10  1  0  0  0  0
  7 12  1  0  0  0  0
  7 16  1  0  0  0  0
  8 26  1  0  0  0  0
  9 10  2  0  0  0  0
  9 11  1  0  0  0  0
 10 13  1  0  0  0  0
 11 12  1  0  0  0  0
 11 15  2  0  0  0  0
 12 17  2  0  0  0  0
 13 14  1  0  0  0  0
 15 18  1  0  0  0  0
 16 20  1  0  0  0  0
 17 19  1  0  0  0  0
 18 19  2  0  0  0  0
 20 21  2  0  0  0  0
 20 22  1  0  0  0  0
 21 24  1  0  0  0  0
 22 25  2  0  0  0  0
 23 24  2  0  0  0  0
 23 25  1  0  0  0  0
 23 26  1  0  0  0  0
M  END
> <PUBCHEM_COMPOUND_ID_TYPE>
0

> <PUBCHEM_TOTAL_CHARGE>
0

> <PUBCHEM_SUBSTANCE_ID>
310949422

> <PUBCHEM_SUBSTANCE_VERSION>
1

> <PUBCHEM_EXT_DATASOURCE_NAME>
4488

> <PUBCHEM_EXT_DATASOURCE_REGID>
SCHEMBL16127615

> <PUBCHEM_SUBSTANCE_COMMENT>
InChI=1S/C18H15BrN2O4S/c19-13-5-6-15-14(9-13)17-16(7-8-26(17,24)25)21(15)10-11-1-3-12(4-2-11)18(22)20-23/h1-6,9,23H,7-8,10H2,(H,20,22)
InChIKey=KDGGAGKUQDGKCA-UHFFFAOYSA-N

> <PUBCHEM_SUBSTANCE_SYNONYM>
SCHEMBL16127615

> <PUBCHEM_XREF_EXT_ID>
SCHEMBL16127615

> <PUBCHEM_EXT_DATASOURCE_URL>
https://www.surechembl.org/

> <PUBCHEM_EXT_SUBSTANCE_URL>
https://www.surechembl.org/chemical/SCHEMBL16127615

> <PUBCHEM_CID_ASSOCIATIONS>
117614873  1

> <PUBCHEM_COORDINATE_TYPE>
1
3

$$$$
