310943323
  -OEChem-07211613022D

 33 37  0     0  0  0  0  0  0999 V2000
   -3.1166   -0.1701    0.0000 O   0  0  0  0  0  0  0  0  0  0  0  0
    1.2296   -0.1701    0.0000 O   0  0  0  0  0  0  0  0  0  0  0  0
   -4.5550    2.3045    0.0000 O   0  0  0  0  0  0  0  0  0  0  0  0
    3.4413    0.1547    0.0000 N   0  0  0  0  0  0  0  0  0  0  0  0
   -1.6627   -0.1856    0.0000 N   0  0  0  0  0  0  0  0  0  0  0  0
   -3.1011    1.4694    0.0000 N   0  0  0  0  0  0  0  0  0  0  0  0
    3.9982   -0.4640    0.0000 N   0  0  0  0  0  0  0  0  0  0  0  0
    1.9565    1.0672    0.0000 N   0  0  0  0  0  0  0  0  0  0  0  0
    0.5027    2.7222    0.0000 N   0  0  0  0  0  0  0  0  0  0  0  0
   -0.9357    1.0672    0.0000 C   0  0  0  0  0  0  0  0  0  0  0  0
   -0.2243    1.4848    0.0000 C   0  0  0  0  0  0  0  0  0  0  0  0
   -2.3742    1.0672    0.0000 C   0  0  0  0  0  0  0  0  0  0  0  0
    2.6835   -0.1701    0.0000 C   0  0  0  0  0  0  0  0  0  0  0  0
    3.5651   -1.1755    0.0000 C   0  0  0  0  0  0  0  0  0  0  0  0
   -2.3742    0.2630    0.0000 C   0  0  0  0  0  0  0  0  0  0  0  0
    3.9209   -1.9334    0.0000 C   0  0  0  0  0  0  0  0  0  0  0  0
   -1.6627    1.4848    0.0000 C   0  0  0  0  0  0  0  0  0  0  0  0
    2.7609   -0.9898    0.0000 C   0  0  0  0  0  0  0  0  0  0  0  0
    1.9721    0.2630    0.0000 C   0  0  0  0  0  0  0  0  0  0  0  0
   -0.9512    0.2320    0.0000 C   0  0  0  0  0  0  0  0  0  0  0  0
    1.2141    1.4848    0.0000 C   0  0  0  0  0  0  0  0  0  0  0  0
   -0.2088    2.3045    0.0000 C   0  0  0  0  0  0  0  0  0  0  0  0
    0.5181    1.0672    0.0000 C   0  0  0  0  0  0  0  0  0  0  0  0
    3.8590   -2.7222    0.0000 C   0  0  0  0  0  0  0  0  0  0  0  0
    4.5550   -2.3974    0.0000 C   0  0  0  0  0  0  0  0  0  0  0  0
    1.2296    2.3045    0.0000 C   0  0  0  0  0  0  0  0  0  0  0  0
   -3.1011    2.3045    0.0000 C   0  0  0  0  0  0  0  0  0  0  0  0
   -3.8280    1.0827    0.0000 C   0  0  0  0  0  0  0  0  0  0  0  0
    3.5960    0.9744    0.0000 C   0  0  0  0  0  0  0  0  0  0  0  0
   -1.6318   -1.0208    0.0000 C   0  0  0  0  0  0  0  0  0  0  0  0
   -0.9512    2.7067    0.0000 C   0  0  0  0  0  0  0  0  0  0  0  0
   -3.8280    2.7222    0.0000 C   0  0  0  0  0  0  0  0  0  0  0  0
   -4.5395    1.4694    0.0000 C   0  0  0  0  0  0  0  0  0  0  0  0
  1 15  2  0  0  0  0
  2 19  2  0  0  0  0
  3 32  1  0  0  0  0
  3 33  1  0  0  0  0
  4  7  1  0  0  0  0
  4 13  1  0  0  0  0
  4 29  1  0  0  0  0
  5 15  1  0  0  0  0
  5 20  1  0  0  0  0
  5 30  1  0  0  0  0
  6 12  1  0  0  0  0
  6 27  1  0  0  0  0
  6 28  1  0  0  0  0
  7 14  2  0  0  0  0
  8 19  1  0  0  0  0
  8 21  1  0  0  0  0
  9 22  1  0  0  0  0
  9 26  2  0  0  0  0
 10 11  1  0  0  0  0
 10 17  1  0  0  0  0
 10 20  2  0  0  0  0
 11 22  2  0  0  0  0
 11 23  1  0  0  0  0
 12 15  1  0  0  0  0
 12 17  2  0  0  0  0
 13 18  2  0  0  0  0
 13 19  1  0  0  0  0
 14 16  1  0  0  0  0
 14 18  1  0  0  0  0
 16 24  1  0  0  0  0
 16 25  1  0  0  0  0
 21 23  2  0  0  0  0
 21 26  1  0  0  0  0
 22 31  1  0  0  0  0
 24 25  1  0  0  0  0
 27 32  1  0  0  0  0
 28 33  1  0  0  0  0
M  END
> <PUBCHEM_COMPOUND_ID_TYPE>
0

> <PUBCHEM_TOTAL_CHARGE>
0

> <PUBCHEM_SUBSTANCE_ID>
310943323

> <PUBCHEM_SUBSTANCE_VERSION>
1

> <PUBCHEM_EXT_DATASOURCE_NAME>
4488

> <PUBCHEM_EXT_DATASOURCE_REGID>
SCHEMBL16121385

> <PUBCHEM_SUBSTANCE_COMMENT>
InChI=1S/C24H28N6O3/c1-15-19(17-10-22(24(32)28(2)14-17)30-6-8-33-9-7-30)11-18(13-25-15)26-23(31)21-12-20(16-4-5-16)27-29(21)3/h10-14,16H,4-9H2,1-3H3,(H,26,31)
InChIKey=RWNZENBIPDLIRS-UHFFFAOYSA-N

> <PUBCHEM_SUBSTANCE_SYNONYM>
SCHEMBL16121385

> <PUBCHEM_XREF_EXT_ID>
SCHEMBL16121385

> <PUBCHEM_EXT_DATASOURCE_URL>
https://www.surechembl.org/

> <PUBCHEM_EXT_SUBSTANCE_URL>
https://www.surechembl.org/chemical/SCHEMBL16121385

> <PUBCHEM_CID_ASSOCIATIONS>
117609748  1

> <PUBCHEM_COORDINATE_TYPE>
1
3

$$$$
