310930087
  -OEChem-07211613022D

 39 42  0     0  0  0  0  0  0999 V2000
    0.7145   -1.2375    0.0000 P   0  0  0  0  0  0  0  0  0  0  0  0
    0.1311   -1.8209    0.0000 O   0  0  0  0  0  0  0  0  0  0  0  0
    1.2978   -1.8209    0.0000 O   0  0  0  0  0  0  0  0  0  0  0  0
    1.6150   -1.0615    0.0000 O   0  0  0  0  0  0  0  0  0  0  0  0
   -0.0477   -0.9218    0.0000 C   0  0  0  0  0  0  0  0  0  0  0  0
    0.7145   -0.4125    0.0000 C   0  0  0  0  0  0  0  0  0  0  0  0
   -0.7022   -1.4240    0.0000 C   0  0  0  0  0  0  0  0  0  0  0  0
    0.7145   -2.4042    0.0000 C   0  0  0  0  0  0  0  0  0  0  0  0
    0.0000    0.0000    0.0000 C   0  0  0  0  0  0  0  0  0  0  0  0
   -1.4644   -1.1083    0.0000 C   0  0  0  0  0  0  0  0  0  0  0  0
   -0.2379   -0.1863    0.0000 C   0  0  0  0  0  0  0  0  0  0  0  0
   -0.5034   -2.5703    0.0000 C   0  0  0  0  0  0  0  0  0  0  0  0
    1.4289   -0.0000    0.0000 C   0  0  0  0  0  0  0  0  0  0  0  0
   -0.8428   -0.5387    0.0000 C   0  0  0  0  0  0  0  0  0  0  0  0
   -1.5721   -0.2904    0.0000 C   0  0  0  0  0  0  0  0  0  0  0  0
   -2.1190   -1.6105    0.0000 C   0  0  0  0  0  0  0  0  0  0  0  0
   -0.8351    0.1294    0.0000 C   0  0  0  0  0  0  0  0  0  0  0  0
    0.0000    0.8250    0.0000 C   0  0  0  0  0  0  0  0  0  0  0  0
    0.8189   -3.3956    0.0000 C   0  0  0  0  0  0  0  0  0  0  0  0
    1.4289    0.8250    0.0000 C   0  0  0  0  0  0  0  0  0  0  0  0
    0.7145    1.2375    0.0000 C   0  0  0  0  0  0  0  0  0  0  0  0
   -2.8812   -1.2948    0.0000 C   0  0  0  0  0  0  0  0  0  0  0  0
   -0.2877   -3.4675    0.0000 C   0  0  0  0  0  0  0  0  0  0  0  0
    0.2975   -2.9288    0.0000 C   0  0  0  0  0  0  0  0  0  0  0  0
   -0.9780   -3.3262    0.0000 C   0  0  0  0  0  0  0  0  0  0  0  0
   -2.0113   -2.4285    0.0000 C   0  0  0  0  0  0  0  0  0  0  0  0
   -3.6691   -0.6427    0.0000 C   0  0  0  0  0  0  0  0  0  0  0  0
   -1.8174   -0.7283    0.0000 C   0  0  0  0  0  0  0  0  0  0  0  0
   -1.3595    0.3115    0.0000 C   0  0  0  0  0  0  0  0  0  0  0  0
   -0.2134   -1.3395    0.0000 C   0  0  0  0  0  0  0  0  0  0  0  0
   -2.0666    0.5315    0.0000 C   0  0  0  0  0  0  0  0  0  0  0  0
   -3.5357   -1.7970    0.0000 C   0  0  0  0  0  0  0  0  0  0  0  0
   -2.6658   -2.9307    0.0000 C   0  0  0  0  0  0  0  0  0  0  0  0
   -3.4280   -2.6150    0.0000 C   0  0  0  0  0  0  0  0  0  0  0  0
    0.9504    2.0676    0.0000 C   0  0  0  0  0  0  0  0  0  0  0  0
   -4.0895    0.1735    0.0000 C   0  0  0  0  0  0  0  0  0  0  0  0
   -4.5713   -0.6164    0.0000 C   0  0  0  0  0  0  0  0  0  0  0  0
   -3.4045    0.1692    0.0000 C   0  0  0  0  0  0  0  0  0  0  0  0
   -4.1011   -3.1541    0.0000 C   0  0  0  0  0  0  0  0  0  0  0  0
  1  2  1  0  0  0  0
  1  3  1  0  0  0  0
  1  4  1  0  0  0  0
  1  5  1  0  0  0  0
  1  6  1  0  0  0  0
  2  8  1  0  0  0  0
  3  8  1  0  0  0  0
  5  7  2  0  0  0  0
  5 11  1  0  0  0  0
  6  9  1  0  0  0  0
  6 13  2  0  0  0  0
  7 10  1  0  0  0  0
  7 12  1  0  0  0  0
  8 19  1  0  0  0  0
  9 14  1  0  0  0  0
  9 18  2  0  0  0  0
 10 15  2  0  0  0  0
 10 16  1  0  0  0  0
 11 17  2  0  0  0  0
 12 23  1  0  0  0  0
 12 24  1  0  0  0  0
 12 25  1  0  0  0  0
 13 20  1  0  0  0  0
 14 28  1  0  0  0  0
 14 29  1  0  0  0  0
 14 30  1  0  0  0  0
 15 17  1  0  0  0  0
 15 31  1  0  0  0  0
 16 22  1  0  0  0  0
 16 26  2  0  0  0  0
 18 21  1  0  0  0  0
 20 21  2  0  0  0  0
 21 35  1  0  0  0  0
 22 27  1  0  0  0  0
 22 32  2  0  0  0  0
 26 33  1  0  0  0  0
 27 36  1  0  0  0  0
 27 37  1  0  0  0  0
 27 38  1  0  0  0  0
 32 34  1  0  0  0  0
 33 34  2  0  0  0  0
 34 39  1  0  0  0  0
M  END
> <PUBCHEM_COMPOUND_ID_TYPE>
0

> <PUBCHEM_TOTAL_CHARGE>
0

> <PUBCHEM_SUBSTANCE_ID>
310930087

> <PUBCHEM_SUBSTANCE_VERSION>
1

> <PUBCHEM_EXT_DATASOURCE_NAME>
4488

> <PUBCHEM_EXT_DATASOURCE_REGID>
SCHEMBL16107331

> <PUBCHEM_SUBSTANCE_COMMENT>
InChI=1S/C35H49O3P/c1-22-14-17-26(27(20-22)33(5,6)7)31-24(3)16-19-30(32(31)35(11,12)13)39(36,37-25(4)38-39)29-18-15-23(2)21-28(29)34(8,9)10/h14-21,25,36H,1-13H3
InChIKey=BNEJVFFPRJQHEF-UHFFFAOYSA-N

> <PUBCHEM_SUBSTANCE_SYNONYM>
SCHEMBL16107331

> <PUBCHEM_XREF_EXT_ID>
SCHEMBL16107331

> <PUBCHEM_EXT_DATASOURCE_URL>
https://www.surechembl.org/

> <PUBCHEM_EXT_SUBSTANCE_URL>
https://www.surechembl.org/chemical/SCHEMBL16107331

> <PUBCHEM_CID_ASSOCIATIONS>
117599320  1

> <PUBCHEM_COORDINATE_TYPE>
1
3

$$$$
