310948933
  -OEChem-07211613022D

 51 53  0     1  0  0  0  0  0999 V2000
    3.5349    1.1120    0.0000 P   0  0  3  0  0  0  0  0  0  0  0  0
    3.5349   -3.0379    0.0000 F   0  0  0  0  0  0  0  0  0  0  0  0
    6.3428    1.1742    0.0000 O   0  0  0  0  0  0  0  0  0  0  0  0
    4.2431    0.6895    0.0000 O   0  0  0  0  0  0  0  0  0  0  0  0
    3.5224    0.2795    0.0000 O   0  0  0  0  0  0  0  0  0  0  0  0
    5.5104   -0.8138    0.0000 O   0  0  0  0  0  0  0  0  0  0  0  0
    8.6166    0.2672    0.0000 O   0  0  0  0  0  0  0  0  0  0  0  0
    3.5224    1.9320    0.0000 O   0  0  0  0  0  0  0  0  0  0  0  0
    9.3620    3.0379    0.0000 O   0  0  0  0  0  0  0  0  0  0  0  0
   -0.0683   -0.1429    0.0000 O   0  0  0  0  0  0  0  0  0  0  0  0
    7.6226    1.2735    0.0000 N   0  0  0  0  0  0  0  0  0  0  0  0
    9.0017    1.6463    0.0000 N   0  0  0  0  0  0  0  0  0  0  0  0
    2.8266    0.6895    0.0000 N   0  0  0  0  0  0  0  0  0  0  0  0
    0.6647    1.1120    0.0000 N   0  0  0  0  0  0  0  0  0  0  0  0
    7.0262    0.7020    0.0000 C   0  0  3  0  0  0  0  0  0  0  0  0
    5.6843    0.6772    0.0000 C   0  0  3  0  0  0  0  0  0  0  0  0
    5.9453   -0.0932    0.0000 C   0  0  3  0  0  0  0  0  0  0  0  0
    6.7653   -0.0932    0.0000 C   0  0  0  0  0  0  0  0  0  0  0  0
    8.4053    1.0747    0.0000 C   0  0  0  0  0  0  0  0  0  0  0  0
    4.9637    1.0996    0.0000 C   0  0  0  0  0  0  0  0  0  0  0  0
    7.3990    2.0687    0.0000 C   0  0  0  0  0  0  0  0  0  0  0  0
    8.7657    2.4290    0.0000 C   0  0  0  0  0  0  0  0  0  0  0  0
    7.9829    2.6651    0.0000 C   0  0  0  0  0  0  0  0  0  0  0  0
    3.5349   -0.5529    0.0000 C   0  0  0  0  0  0  0  0  0  0  0  0
    2.8266   -0.9629    0.0000 C   0  0  0  0  0  0  0  0  0  0  0  0
    4.2555   -0.9629    0.0000 C   0  0  0  0  0  0  0  0  0  0  0  0
    2.1060    1.1120    0.0000 C   0  0  0  0  0  0  0  0  0  0  0  0
    3.5472   -2.1930    0.0000 C   0  0  0  0  0  0  0  0  0  0  0  0
    2.8266   -1.7830    0.0000 C   0  0  0  0  0  0  0  0  0  0  0  0
    4.2555   -1.7830    0.0000 C   0  0  0  0  0  0  0  0  0  0  0  0
    1.3854    0.6895    0.0000 C   0  0  0  0  0  0  0  0  0  0  0  0
   -0.0435    0.7144    0.0000 C   0  0  0  0  0  0  0  0  0  0  0  0
   -0.7765    1.0996    0.0000 C   0  0  0  0  0  0  0  0  0  0  0  0
   -1.4723    0.7020    0.0000 C   0  0  0  0  0  0  0  0  0  0  0  0
   -1.4847   -0.1429    0.0000 C   0  0  0  0  0  0  0  0  0  0  0  0
   -2.1930   -0.5529    0.0000 C   0  0  0  0  0  0  0  0  0  0  0  0
   -2.9260   -0.1305    0.0000 C   0  0  0  0  0  0  0  0  0  0  0  0
   -2.9260    0.6895    0.0000 C   0  0  0  0  0  0  0  0  0  0  0  0
   -3.6467    1.0996    0.0000 C   0  0  0  0  0  0  0  0  0  0  0  0
   -4.3424    0.7020    0.0000 C   0  0  0  0  0  0  0  0  0  0  0  0
   -4.3549   -0.1429    0.0000 C   0  0  0  0  0  0  0  0  0  0  0  0
   -5.0631   -0.5529    0.0000 C   0  0  0  0  0  0  0  0  0  0  0  0
   -5.7837   -0.1305    0.0000 C   0  0  0  0  0  0  0  0  0  0  0  0
   -5.7837    0.6895    0.0000 C   0  0  0  0  0  0  0  0  0  0  0  0
   -6.5044    1.0996    0.0000 C   0  0  0  0  0  0  0  0  0  0  0  0
   -7.2126    0.7020    0.0000 C   0  0  0  0  0  0  0  0  0  0  0  0
   -7.2250   -0.1429    0.0000 C   0  0  0  0  0  0  0  0  0  0  0  0
   -7.9332   -0.5529    0.0000 C   0  0  0  0  0  0  0  0  0  0  0  0
   -8.6538   -0.1305    0.0000 C   0  0  0  0  0  0  0  0  0  0  0  0
   -8.6538    0.6895    0.0000 C   0  0  0  0  0  0  0  0  0  0  0  0
   -9.3620    1.0872    0.0000 C   0  0  0  0  0  0  0  0  0  0  0  0
  1  4  1  0  0  0  0
  1  5  1  0  0  0  0
  1  8  2  0  0  0  0
  1 13  1  0  0  0  0
  2 28  1  0  0  0  0
 15  3  1  1  0  0  0
  3 16  1  0  0  0  0
  4 20  1  0  0  0  0
  5 24  1  0  0  0  0
 17  6  1  6  0  0  0
  7 19  2  0  0  0  0
  9 22  2  0  0  0  0
 10 32  2  0  0  0  0
 11 15  1  0  0  0  0
 11 19  1  0  0  0  0
 11 21  1  0  0  0  0
 12 19  1  0  0  0  0
 12 22  1  0  0  0  0
 13 27  1  0  0  0  0
 14 31  1  0  0  0  0
 14 32  1  0  0  0  0
 15 18  1  0  0  0  0
 16 17  1  0  0  0  0
 16 20  1  1  0  0  0
 17 18  1  0  0  0  0
 21 23  2  0  0  0  0
 22 23  1  0  0  0  0
 24 25  2  0  0  0  0
 24 26  1  0  0  0  0
 25 29  1  0  0  0  0
 26 30  2  0  0  0  0
 27 31  1  0  0  0  0
 28 29  2  0  0  0  0
 28 30  1  0  0  0  0
 32 33  1  0  0  0  0
 33 34  1  0  0  0  0
 34 35  1  0  0  0  0
 35 36  1  0  0  0  0
 36 37  2  0  0  0  0
 37 38  1  0  0  0  0
 38 39  1  0  0  0  0
 39 40  2  0  0  0  0
 40 41  1  0  0  0  0
 41 42  1  0  0  0  0
 42 43  2  0  0  0  0
 43 44  1  0  0  0  0
 44 45  1  0  0  0  0
 45 46  2  0  0  0  0
 46 47  1  0  0  0  0
 47 48  1  0  0  0  0
 48 49  2  0  0  0  0
 49 50  1  0  0  0  0
 50 51  1  0  0  0  0
M  END
> <PUBCHEM_COMPOUND_ID_TYPE>
0

> <PUBCHEM_TOTAL_CHARGE>
0

> <PUBCHEM_SUBSTANCE_ID>
310948933

> <PUBCHEM_SUBSTANCE_VERSION>
1

> <PUBCHEM_EXT_DATASOURCE_NAME>
4488

> <PUBCHEM_EXT_DATASOURCE_REGID>
SCHEMBL16127119

> <PUBCHEM_SUBSTANCE_COMMENT>
InChI=1S/C37H50FN4O8P/c1-2-3-4-5-6-7-8-9-10-11-12-13-14-15-16-17-18-19-34(44)39-25-26-40-51(47,50-31-22-20-30(38)21-23-31)48-29-33-32(43)28-36(49-33)42-27-24-35(45)41-37(42)46/h3-4,6-7,9-10,12-13,15-16,20-24,27,32-33,36,43H,2,5,8,11,14,17-19,25-26,28-29H2,1H3,(H,39,44)(H,40,47)(H,41,45,46)/b4-3-,7-6-,10-9-,13-12-,16-15-/t32-,33+,36+,51?/m0/s1
InChIKey=BTWNPUSVRXPPTN-OPIWGVGCSA-N

> <PUBCHEM_SUBSTANCE_SYNONYM>
SCHEMBL16127119

> <PUBCHEM_XREF_EXT_ID>
SCHEMBL16127119

> <PUBCHEM_EXT_DATASOURCE_URL>
https://www.surechembl.org/

> <PUBCHEM_EXT_SUBSTANCE_URL>
https://www.surechembl.org/chemical/SCHEMBL16127119

> <PUBCHEM_CID_ASSOCIATIONS>
117614446  1

> <PUBCHEM_COORDINATE_TYPE>
1
3

> <PUBCHEM_BONDANNOTATIONS>
16  20  5
15  3  5
17  6  6

$$$$
