310931259
  -OEChem-07211613022D

 31 34  0     0  0  0  0  0  0999 V2000
    1.3976   -2.6877    0.0000 O   0  0  0  0  0  0  0  0  0  0  0  0
    0.4658   -6.4147    0.0000 O   0  0  0  0  0  0  0  0  0  0  0  0
    3.9061   -6.7014    0.0000 O   0  0  0  0  0  0  0  0  0  0  0  0
    2.8310   -2.4727    0.0000 N   0  0  0  0  0  0  0  0  0  0  0  0
    3.2611   -3.7628    0.0000 N   0  0  0  0  0  0  0  0  0  0  0  0
    4.3003   -2.6877    0.0000 N   0  0  0  0  0  0  0  0  0  0  0  0
    0.7167   -0.4300    0.0000 N   0  0  0  0  0  0  0  0  0  0  0  0
    2.4368   -3.7628    0.0000 C   0  0  0  0  0  0  0  0  0  0  0  0
    2.1860   -2.9744    0.0000 C   0  0  0  0  0  0  0  0  0  0  0  0
    1.9351   -4.4079    0.0000 C   0  0  0  0  0  0  0  0  0  0  0  0
    2.7952   -4.4795    0.0000 C   0  0  0  0  0  0  0  0  0  0  0  0
    3.5119   -2.9744    0.0000 C   0  0  0  0  0  0  0  0  0  0  0  0
    2.8310   -1.6484    0.0000 C   0  0  0  0  0  0  0  0  0  0  0  0
    2.2935   -5.1604    0.0000 C   0  0  0  0  0  0  0  0  0  0  0  0
    3.6195   -4.5154    0.0000 C   0  0  0  0  0  0  0  0  0  0  0  0
    1.1109   -4.3362    0.0000 C   0  0  0  0  0  0  0  0  0  0  0  0
    2.5085   -5.3396    0.0000 C   0  0  0  0  0  0  0  0  0  0  0  0
    2.1143   -1.2542    0.0000 C   0  0  0  0  0  0  0  0  0  0  0  0
    1.7918   -5.8413    0.0000 C   0  0  0  0  0  0  0  0  0  0  0  0
    4.0137   -5.2679    0.0000 C   0  0  0  0  0  0  0  0  0  0  0  0
    0.6451   -4.9812    0.0000 C   0  0  0  0  0  0  0  0  0  0  0  0
    2.7235   -5.9130    0.0000 C   0  0  0  0  0  0  0  0  0  0  0  0
    0.9676   -5.7338    0.0000 C   0  0  0  0  0  0  0  0  0  0  0  0
    3.5477   -5.9488    0.0000 C   0  0  0  0  0  0  0  0  0  0  0  0
    2.1143   -0.4300    0.0000 C   0  0  0  0  0  0  0  0  0  0  0  0
    1.3976   -1.6484    0.0000 C   0  0  0  0  0  0  0  0  0  0  0  0
    1.4335    0.0000    0.0000 C   0  0  0  0  0  0  0  0  0  0  0  0
    0.7167   -1.2184    0.0000 C   0  0  0  0  0  0  0  0  0  0  0  0
    0.8242   -7.1672    0.0000 C   0  0  0  0  0  0  0  0  0  0  0  0
    4.7304   -6.7372    0.0000 C   0  0  0  0  0  0  0  0  0  0  0  0
    0.0000    0.0000    0.0000 C   0  0  0  0  0  0  0  0  0  0  0  0
  1  9  2  0  0  0  0
  2 23  1  0  0  0  0
  2 29  1  0  0  0  0
  3 24  1  0  0  0  0
  3 30  1  0  0  0  0
  4  9  1  0  0  0  0
  4 12  1  0  0  0  0
  4 13  1  0  0  0  0
  5  8  1  0  0  0  0
  5 12  1  0  0  0  0
  6 12  2  3  0  0  0
  7 27  1  0  0  0  0
  7 28  1  0  0  0  0
  7 31  1  0  0  0  0
  8  9  1  0  0  0  0
  8 10  1  0  0  0  0
  8 11  1  0  0  0  0
 10 14  2  0  0  0  0
 10 16  1  0  0  0  0
 11 15  2  0  0  0  0
 11 17  1  0  0  0  0
 13 18  1  0  0  0  0
 14 19  1  0  0  0  0
 15 20  1  0  0  0  0
 16 21  2  0  0  0  0
 17 22  2  0  0  0  0
 18 25  1  0  0  0  0
 18 26  1  0  0  0  0
 19 23  2  0  0  0  0
 20 24  2  0  0  0  0
 21 23  1  0  0  0  0
 22 24  1  0  0  0  0
 25 27  1  0  0  0  0
 26 28  1  0  0  0  0
M  END
> <PUBCHEM_COMPOUND_ID_TYPE>
0

> <PUBCHEM_TOTAL_CHARGE>
0

> <PUBCHEM_SUBSTANCE_ID>
310931259

> <PUBCHEM_SUBSTANCE_VERSION>
1

> <PUBCHEM_EXT_DATASOURCE_NAME>
4488

> <PUBCHEM_EXT_DATASOURCE_REGID>
SCHEMBL16108573

> <PUBCHEM_SUBSTANCE_COMMENT>
InChI=1S/C24H30N4O3/c1-27-14-12-17(13-15-27)16-28-22(29)24(26-23(28)25,18-4-8-20(30-2)9-5-18)19-6-10-21(31-3)11-7-19/h4-11,17H,12-16H2,1-3H3,(H2,25,26)
InChIKey=PHZRLBVSRGEZTQ-UHFFFAOYSA-N

> <PUBCHEM_SUBSTANCE_SYNONYM>
SCHEMBL16108573

> <PUBCHEM_XREF_EXT_ID>
SCHEMBL16108573

> <PUBCHEM_EXT_DATASOURCE_URL>
https://www.surechembl.org/

> <PUBCHEM_EXT_SUBSTANCE_URL>
https://www.surechembl.org/chemical/SCHEMBL16108573

> <PUBCHEM_CID_ASSOCIATIONS>
86274800  1

> <PUBCHEM_COORDINATE_TYPE>
1
3

$$$$
