310947897
  -OEChem-07211613022D

 30 34  0     0  0  0  0  0  0999 V2000
    2.1489    0.2179    0.0000 F   0  0  0  0  0  0  0  0  0  0  0  0
    3.1593   -0.3655    0.0000 F   0  0  0  0  0  0  0  0  0  0  0  0
    3.7426    0.6450    0.0000 F   0  0  0  0  0  0  0  0  0  0  0  0
   -1.5655    1.6279    0.0000 O   0  0  0  0  0  0  0  0  0  0  0  0
    0.5434   -2.7976    0.0000 O   0  0  0  0  0  0  0  0  0  0  0  0
    1.2578    0.9149    0.0000 N   0  0  0  0  0  0  0  0  0  0  0  0
    3.2843    1.8414    0.0000 N   0  0  0  0  0  0  0  0  0  0  0  0
    0.5434   -1.1476    0.0000 N   0  0  0  0  0  0  0  0  0  0  0  0
    1.9253    1.3999    0.0000 C   0  0  0  0  0  0  0  0  0  0  0  0
    1.6703    2.1845    0.0000 C   0  0  0  0  0  0  0  0  0  0  0  0
    0.5904    1.3999    0.0000 C   0  0  0  0  0  0  0  0  0  0  0  0
    0.8453    2.1845    0.0000 C   0  0  0  0  0  0  0  0  0  0  0  0
    2.7322    1.2283    0.0000 C   0  0  0  0  0  0  0  0  0  0  0  0
    2.9458    0.4314    0.0000 C   0  0  0  0  0  0  0  0  0  0  0  0
    2.2224    2.7976    0.0000 C   0  0  0  0  0  0  0  0  0  0  0  0
   -0.2166    1.2283    0.0000 C   0  0  0  0  0  0  0  0  0  0  0  0
    0.2933    2.7976    0.0000 C   0  0  0  0  0  0  0  0  0  0  0  0
    1.2578    0.0899    0.0000 C   0  0  0  0  0  0  0  0  0  0  0  0
   -0.7686    1.8414    0.0000 C   0  0  0  0  0  0  0  0  0  0  0  0
    3.0293    2.6260    0.0000 C   0  0  0  0  0  0  0  0  0  0  0  0
   -0.5137    2.6260    0.0000 C   0  0  0  0  0  0  0  0  0  0  0  0
    0.5434   -0.3226    0.0000 C   0  0  0  0  0  0  0  0  0  0  0  0
   -2.1489    2.2113    0.0000 C   0  0  0  0  0  0  0  0  0  0  0  0
   -2.9458    1.9977    0.0000 C   0  0  0  0  0  0  0  0  0  0  0  0
   -0.1711   -1.5601    0.0000 C   0  0  0  0  0  0  0  0  0  0  0  0
    1.2578   -1.5601    0.0000 C   0  0  0  0  0  0  0  0  0  0  0  0
   -3.7426    2.2113    0.0000 C   0  0  0  0  0  0  0  0  0  0  0  0
   -3.5291    1.4144    0.0000 C   0  0  0  0  0  0  0  0  0  0  0  0
   -0.1711   -2.3851    0.0000 C   0  0  0  0  0  0  0  0  0  0  0  0
    1.2578   -2.3851    0.0000 C   0  0  0  0  0  0  0  0  0  0  0  0
  1 14  1  0  0  0  0
  2 14  1  0  0  0  0
  3 14  1  0  0  0  0
  4 19  1  0  0  0  0
  4 23  1  0  0  0  0
  5 29  1  0  0  0  0
  5 30  1  0  0  0  0
  6  9  1  0  0  0  0
  6 11  1  0  0  0  0
  6 18  1  0  0  0  0
  7 13  2  0  0  0  0
  7 20  1  0  0  0  0
  8 22  1  0  0  0  0
  8 25  1  0  0  0  0
  8 26  1  0  0  0  0
  9 10  2  0  0  0  0
  9 13  1  0  0  0  0
 10 12  1  0  0  0  0
 10 15  1  0  0  0  0
 11 12  1  0  0  0  0
 11 16  2  0  0  0  0
 12 17  2  0  0  0  0
 13 14  1  0  0  0  0
 15 20  2  0  0  0  0
 16 19  1  0  0  0  0
 17 21  1  0  0  0  0
 18 22  1  0  0  0  0
 19 21  2  0  0  0  0
 23 24  1  0  0  0  0
 24 27  1  0  0  0  0
 24 28  1  0  0  0  0
 25 29  1  0  0  0  0
 26 30  1  0  0  0  0
 27 28  1  0  0  0  0
M  END
> <PUBCHEM_COMPOUND_ID_TYPE>
0

> <PUBCHEM_TOTAL_CHARGE>
0

> <PUBCHEM_SUBSTANCE_ID>
310947897

> <PUBCHEM_SUBSTANCE_VERSION>
1

> <PUBCHEM_EXT_DATASOURCE_NAME>
4488

> <PUBCHEM_EXT_DATASOURCE_REGID>
SCHEMBL16126071

> <PUBCHEM_SUBSTANCE_COMMENT>
InChI=1S/C22H24F3N3O2/c23-22(24,25)21-20-18(5-6-26-21)17-4-3-16(30-14-15-1-2-15)13-19(17)28(20)8-7-27-9-11-29-12-10-27/h3-6,13,15H,1-2,7-12,14H2
InChIKey=YMFWXTOZXVMNFN-UHFFFAOYSA-N

> <PUBCHEM_SUBSTANCE_SYNONYM>
SCHEMBL16126071

> <PUBCHEM_XREF_EXT_ID>
SCHEMBL16126071

> <PUBCHEM_EXT_DATASOURCE_URL>
https://www.surechembl.org/

> <PUBCHEM_EXT_SUBSTANCE_URL>
https://www.surechembl.org/chemical/SCHEMBL16126071

> <PUBCHEM_CID_ASSOCIATIONS>
117613561  1

> <PUBCHEM_COORDINATE_TYPE>
1
3

$$$$
