310939354
  -OEChem-07211613022D

 29 30  0     1  0  0  0  0  0999 V2000
    1.0717    1.4437    0.0000 Cl  0  0  0  0  0  0  0  0  0  0  0  0
   -0.3572   -1.0313    0.0000 F   0  0  0  0  0  0  0  0  0  0  0  0
    1.0717   -0.2062    0.0000 O   0  0  0  0  0  0  0  0  0  0  0  0
    3.2151   -1.4437    0.0000 O   0  0  0  0  0  0  0  0  0  0  0  0
   -4.6441   -0.2062    0.0000 O   0  0  0  0  0  0  0  0  0  0  0  0
   -2.5006    0.2062    0.0000 N   0  0  0  0  0  0  0  0  0  0  0  0
    3.2151    1.0313    0.0000 N   0  0  0  0  0  0  0  0  0  0  0  0
    3.9296   -0.2062    0.0000 N   0  0  0  0  0  0  0  0  0  0  0  0
   -3.9296    1.0313    0.0000 N   0  0  0  0  0  0  0  0  0  0  0  0
    0.3572    0.2062    0.0000 C   0  0  0  0  0  0  0  0  0  0  0  0
   -0.3572   -0.2062    0.0000 C   0  0  0  0  0  0  0  0  0  0  0  0
   -1.0717    0.2062    0.0000 C   0  0  0  0  0  0  0  0  0  0  0  0
    0.3572    1.0313    0.0000 C   0  0  0  0  0  0  0  0  0  0  0  0
   -1.7862   -0.2062    0.0000 C   0  0  3  0  0  0  0  0  0  0  0  0
   -1.0717    1.0313    0.0000 C   0  0  0  0  0  0  0  0  0  0  0  0
    1.7862    0.2062    0.0000 C   0  0  0  0  0  0  0  0  0  0  0  0
   -0.3572    1.4438    0.0000 C   0  0  0  0  0  0  0  0  0  0  0  0
    2.5006   -0.2062    0.0000 C   0  0  0  0  0  0  0  0  0  0  0  0
    3.2151    0.2062    0.0000 C   0  0  0  0  0  0  0  0  0  0  0  0
    1.7862    1.0313    0.0000 C   0  0  0  0  0  0  0  0  0  0  0  0
   -1.7862   -1.0313    0.0000 C   0  0  0  0  0  0  0  0  0  0  0  0
   -2.5006    1.0313    0.0000 C   0  0  3  0  0  0  0  0  0  0  0  0
    2.5006    1.4437    0.0000 C   0  0  0  0  0  0  0  0  0  0  0  0
    3.9296   -1.0313    0.0000 C   0  0  0  0  0  0  0  0  0  0  0  0
   -3.2151    1.4437    0.0000 C   0  0  0  0  0  0  0  0  0  0  0  0
   -1.0717   -1.4437    0.0000 C   0  0  0  0  0  0  0  0  0  0  0  0
   -1.7862    1.4437    0.0000 C   0  0  0  0  0  0  0  0  0  0  0  0
    4.6441   -1.4438    0.0000 C   0  0  0  0  0  0  0  0  0  0  0  0
   -3.9296    0.2062    0.0000 C   0  0  0  0  0  0  0  0  0  0  0  0
  1 13  1  0  0  0  0
  2 11  1  0  0  0  0
  3 10  1  0  0  0  0
  3 16  1  0  0  0  0
  4 24  2  0  0  0  0
  5 29  2  0  0  0  0
 14  6  1  1  0  0  0
  6 22  1  0  0  0  0
  7 19  2  0  0  0  0
  7 23  1  0  0  0  0
  8 19  1  0  0  0  0
  8 24  1  0  0  0  0
  9 25  1  0  0  0  0
  9 29  1  0  0  0  0
 10 11  2  0  0  0  0
 10 13  1  0  0  0  0
 11 12  1  0  0  0  0
 12 14  1  0  0  0  0
 12 15  2  0  0  0  0
 13 17  2  0  0  0  0
 14 21  1  0  0  0  0
 15 17  1  0  0  0  0
 16 18  2  0  0  0  0
 16 20  1  0  0  0  0
 18 19  1  0  0  0  0
 20 23  2  0  0  0  0
 21 26  1  0  0  0  0
 22 25  1  0  0  0  0
 22 27  1  0  0  0  0
 24 28  1  0  0  0  0
M  END
> <PUBCHEM_COMPOUND_ID_TYPE>
0

> <PUBCHEM_TOTAL_CHARGE>
0

> <PUBCHEM_SUBSTANCE_ID>
310939354

> <PUBCHEM_SUBSTANCE_VERSION>
1

> <PUBCHEM_EXT_DATASOURCE_NAME>
4488

> <PUBCHEM_EXT_DATASOURCE_REGID>
SCHEMBL16117275

> <PUBCHEM_SUBSTANCE_COMMENT>
InChI=1S/C20H24ClFN4O3/c1-4-17(25-12(2)10-23-11-27)15-5-6-16(21)20(19(15)22)29-14-7-8-24-18(9-14)26-13(3)28/h5-9,11-12,17,25H,4,10H2,1-3H3,(H,23,27)(H,24,26,28)/t12?,17-/m1/s1
InChIKey=MISGTEQMPRSPMF-RGUGMKFQSA-N

> <PUBCHEM_SUBSTANCE_SYNONYM>
SCHEMBL16117275

> <PUBCHEM_XREF_EXT_ID>
SCHEMBL16117275

> <PUBCHEM_EXT_DATASOURCE_URL>
https://www.surechembl.org/

> <PUBCHEM_EXT_SUBSTANCE_URL>
https://www.surechembl.org/chemical/SCHEMBL16117275

> <PUBCHEM_CID_ASSOCIATIONS>
117606681  1

> <PUBCHEM_COORDINATE_TYPE>
1
3

> <PUBCHEM_BONDANNOTATIONS>
22  27  3
14  6  5

$$$$
