310940309
  -OEChem-07211613022D

 27 29  0     0  0  0  0  0  0999 V2000
   -0.7348   -0.4172    0.0000 O   0  0  0  0  0  0  0  0  0  0  0  0
    0.6974   -2.9082    0.0000 O   0  0  0  0  0  0  0  0  0  0  0  0
    2.1422    2.0737    0.0000 O   0  0  0  0  0  0  0  0  0  0  0  0
   -1.4572   -1.6627    0.0000 O   0  0  0  0  0  0  0  0  0  0  0  0
   -2.1672   -0.4172    0.0000 N   0  0  0  0  0  0  0  0  0  0  0  0
    3.5994    2.0737    0.0000 N   0  0  0  0  0  0  0  0  0  0  0  0
    1.4323   -0.8282    0.0000 C   0  0  0  0  0  0  0  0  0  0  0  0
    2.1547   -0.4048    0.0000 C   0  0  0  0  0  0  0  0  0  0  0  0
    0.0000   -0.8282    0.0000 C   0  0  0  0  0  0  0  0  0  0  0  0
    0.7099   -0.4297    0.0000 C   0  0  0  0  0  0  0  0  0  0  0  0
    1.4199   -1.6503    0.0000 C   0  0  0  0  0  0  0  0  0  0  0  0
    2.1672    0.4172    0.0000 C   0  0  0  0  0  0  0  0  0  0  0  0
    0.7099   -2.0737    0.0000 C   0  0  0  0  0  0  0  0  0  0  0  0
    2.8521    0.8282    0.0000 C   0  0  0  0  0  0  0  0  0  0  0  0
    0.0000   -1.6627    0.0000 C   0  0  0  0  0  0  0  0  0  0  0  0
    2.8771   -0.8282    0.0000 C   0  0  0  0  0  0  0  0  0  0  0  0
    3.5870    0.4172    0.0000 C   0  0  0  0  0  0  0  0  0  0  0  0
    2.8771    1.6503    0.0000 C   0  0  0  0  0  0  0  0  0  0  0  0
   -1.4447   -0.8158    0.0000 C   0  0  0  0  0  0  0  0  0  0  0  0
    3.5870   -0.4172    0.0000 C   0  0  0  0  0  0  0  0  0  0  0  0
   -2.8771   -0.8282    0.0000 C   0  0  0  0  0  0  0  0  0  0  0  0
   -3.6119   -0.4297    0.0000 C   0  0  0  0  0  0  0  0  0  0  0  0
   -2.8771   -1.6503    0.0000 C   0  0  0  0  0  0  0  0  0  0  0  0
   -4.3093   -0.8282    0.0000 C   0  0  0  0  0  0  0  0  0  0  0  0
   -3.5994   -2.0737    0.0000 C   0  0  0  0  0  0  0  0  0  0  0  0
   -4.3093   -1.6627    0.0000 C   0  0  0  0  0  0  0  0  0  0  0  0
    4.3093    1.6627    0.0000 C   0  0  0  0  0  0  0  0  0  0  0  0
  1  9  1  0  0  0  0
  1 19  1  0  0  0  0
  2 13  1  0  0  0  0
  3 18  2  0  0  0  0
  4 19  2  0  0  0  0
  5 19  1  0  0  0  0
  5 21  1  0  0  0  0
  6 18  1  0  0  0  0
  6 27  1  0  0  0  0
  7  8  1  0  0  0  0
  7 10  2  0  0  0  0
  7 11  1  0  0  0  0
  8 12  1  0  0  0  0
  8 16  2  0  0  0  0
  9 10  1  0  0  0  0
  9 15  2  0  0  0  0
 11 13  2  0  0  0  0
 12 14  2  0  0  0  0
 13 15  1  0  0  0  0
 14 17  1  0  0  0  0
 14 18  1  0  0  0  0
 16 20  1  0  0  0  0
 17 20  2  0  0  0  0
 21 22  1  0  0  0  0
 21 23  1  0  0  0  0
 22 24  1  0  0  0  0
 23 25  1  0  0  0  0
 24 26  1  0  0  0  0
 25 26  1  0  0  0  0
M  END
> <PUBCHEM_COMPOUND_ID_TYPE>
0

> <PUBCHEM_TOTAL_CHARGE>
0

> <PUBCHEM_SUBSTANCE_ID>
310940309

> <PUBCHEM_SUBSTANCE_VERSION>
1

> <PUBCHEM_EXT_DATASOURCE_NAME>
4488

> <PUBCHEM_EXT_DATASOURCE_REGID>
SCHEMBL16118253

> <PUBCHEM_SUBSTANCE_COMMENT>
InChI=1S/C21H24N2O4/c1-22-20(25)15-7-5-6-14(10-15)16-11-18(24)13-19(12-16)27-21(26)23-17-8-3-2-4-9-17/h5-7,10-13,17,24H,2-4,8-9H2,1H3,(H,22,25)(H,23,26)
InChIKey=SQMHDUVJEGPWLM-UHFFFAOYSA-N

> <PUBCHEM_SUBSTANCE_SYNONYM>
SCHEMBL16118253

> <PUBCHEM_XREF_EXT_ID>
SCHEMBL16118253

> <PUBCHEM_EXT_DATASOURCE_URL>
https://www.surechembl.org/

> <PUBCHEM_EXT_SUBSTANCE_URL>
https://www.surechembl.org/chemical/SCHEMBL16118253

> <PUBCHEM_CID_ASSOCIATIONS>
71506772  1

> <PUBCHEM_COORDINATE_TYPE>
1
3

$$$$
