310933431
  -OEChem-07211613022D

 25 28  0     0  0  0  0  0  0999 V2000
    5.5863   -3.3471    0.0000 S   0  0  0  0  0  0  0  0  0  0  0  0
    3.6063   -0.3772    0.0000 O   0  0  0  0  0  0  0  0  0  0  0  0
    2.8992   -4.1249    0.0000 O   0  0  0  0  0  0  0  0  0  0  0  0
    4.3135   -4.1249    0.0000 O   0  0  0  0  0  0  0  0  0  0  0  0
    5.1149   -1.3907    0.0000 N   0  0  0  0  0  0  0  0  0  0  0  0
    2.8756   -1.6499    0.0000 N   0  0  0  0  0  0  0  0  0  0  0  0
    2.8756   -2.4749    0.0000 N   0  0  0  0  0  0  0  0  0  0  0  0
    4.3370   -2.4749    0.0000 C   0  0  0  0  0  0  0  0  0  0  0  0
    4.3370   -1.6499    0.0000 C   0  0  0  0  0  0  0  0  0  0  0  0
    5.1149   -2.7106    0.0000 C   0  0  0  0  0  0  0  0  0  0  0  0
    5.5863   -2.0271    0.0000 C   0  0  0  0  0  0  0  0  0  0  0  0
    3.6063   -2.8756    0.0000 C   0  0  0  0  0  0  0  0  0  0  0  0
    3.6063   -1.2257    0.0000 C   0  0  0  0  0  0  0  0  0  0  0  0
    6.4113   -2.2864    0.0000 C   0  0  0  0  0  0  0  0  0  0  0  0
    6.4113   -3.1113    0.0000 C   0  0  0  0  0  0  0  0  0  0  0  0
    3.6063   -3.7242    0.0000 C   0  0  0  0  0  0  0  0  0  0  0  0
    2.1685   -1.2257    0.0000 C   0  0  0  0  0  0  0  0  0  0  0  0
    5.3742   -0.6128    0.0000 C   0  0  0  0  0  0  0  0  0  0  0  0
    2.1449   -0.4007    0.0000 C   0  0  0  0  0  0  0  0  0  0  0  0
    1.4378   -1.6264    0.0000 C   0  0  0  0  0  0  0  0  0  0  0  0
    7.0713   -3.5828    0.0000 C   0  0  0  0  0  0  0  0  0  0  0  0
    1.4378    0.0000    0.0000 C   0  0  0  0  0  0  0  0  0  0  0  0
    0.7307   -1.2257    0.0000 C   0  0  0  0  0  0  0  0  0  0  0  0
    0.7307   -0.4243    0.0000 C   0  0  0  0  0  0  0  0  0  0  0  0
    0.0000    0.0000    0.0000 C   0  0  0  0  0  0  0  0  0  0  0  0
  1 10  1  0  0  0  0
  1 15  1  0  0  0  0
  2 13  2  0  0  0  0
  3 16  2  0  0  0  0
  4 16  1  0  0  0  0
  5  9  1  0  0  0  0
  5 11  1  0  0  0  0
  5 18  1  0  0  0  0
  6  7  1  0  0  0  0
  6 13  1  0  0  0  0
  6 17  1  0  0  0  0
  7 12  2  0  0  0  0
  8  9  2  0  0  0  0
  8 10  1  0  0  0  0
  8 12  1  0  0  0  0
  9 13  1  0  0  0  0
 10 11  2  0  0  0  0
 11 14  1  0  0  0  0
 12 16  1  0  0  0  0
 14 15  2  0  0  0  0
 15 21  1  0  0  0  0
 17 19  2  0  0  0  0
 17 20  1  0  0  0  0
 19 22  1  0  0  0  0
 20 23  2  0  0  0  0
 22 24  2  0  0  0  0
 23 24  1  0  0  0  0
 24 25  1  0  0  0  0
M  END
> <PUBCHEM_COMPOUND_ID_TYPE>
0

> <PUBCHEM_TOTAL_CHARGE>
0

> <PUBCHEM_SUBSTANCE_ID>
310933431

> <PUBCHEM_SUBSTANCE_VERSION>
1

> <PUBCHEM_EXT_DATASOURCE_NAME>
4488

> <PUBCHEM_EXT_DATASOURCE_REGID>
SCHEMBL16110849

> <PUBCHEM_SUBSTANCE_COMMENT>
InChI=1S/C18H15N3O3S/c1-9-4-6-11(7-5-9)21-17(22)15-13(14(19-21)18(23)24)16-12(20(15)3)8-10(2)25-16/h4-8H,1-3H3,(H,23,24)
InChIKey=CQQDXXOUBAUBLI-UHFFFAOYSA-N

> <PUBCHEM_SUBSTANCE_SYNONYM>
SCHEMBL16110849

> <PUBCHEM_XREF_EXT_ID>
SCHEMBL16110849

> <PUBCHEM_EXT_DATASOURCE_URL>
https://www.surechembl.org/

> <PUBCHEM_EXT_SUBSTANCE_URL>
https://www.surechembl.org/chemical/SCHEMBL16110849

> <PUBCHEM_CID_ASSOCIATIONS>
117601833  1

> <PUBCHEM_COORDINATE_TYPE>
1
3

$$$$
