310945683
  -OEChem-07211613022D

 30 34  0     0  0  0  0  0  0999 V2000
    5.3478    1.2521    0.0000 Cl  0  0  0  0  0  0  0  0  0  0  0  0
   -5.3478    1.2026    0.0000 Cl  0  0  0  0  0  0  0  0  0  0  0  0
    2.3131    1.4218    0.0000 O   0  0  0  0  0  0  0  0  0  0  0  0
    1.7684   -0.0071    0.0000 N   0  0  0  0  0  0  0  0  0  0  0  0
    0.9337    1.0469    0.0000 N   0  0  0  0  0  0  0  0  0  0  0  0
   -1.6340   -0.0213    0.0000 N   0  0  0  0  0  0  0  0  0  0  0  0
   -0.7993    1.0328    0.0000 N   0  0  0  0  0  0  0  0  0  0  0  0
    0.8205   -1.1035    0.0000 N   0  0  0  0  0  0  0  0  0  0  0  0
   -0.6649   -1.1106    0.0000 N   0  0  0  0  0  0  0  0  0  0  0  0
    0.4669    0.3891    0.0000 C   0  0  0  0  0  0  0  0  0  0  0  0
   -0.3466    0.3891    0.0000 C   0  0  0  0  0  0  0  0  0  0  0  0
    0.9974   -0.2547    0.0000 C   0  0  0  0  0  0  0  0  0  0  0  0
   -0.8630   -0.2688    0.0000 C   0  0  0  0  0  0  0  0  0  0  0  0
    1.7118    0.8489    0.0000 C   0  0  0  0  0  0  0  0  0  0  0  0
   -1.5986    0.8489    0.0000 C   0  0  0  0  0  0  0  0  0  0  0  0
    2.5042   -0.3679    0.0000 C   0  0  0  0  0  0  0  0  0  0  0  0
    0.0778   -1.4218    0.0000 C   0  0  0  0  0  0  0  0  0  0  0  0
   -2.3485   -0.3961    0.0000 C   0  0  0  0  0  0  0  0  0  0  0  0
    3.2044    0.0495    0.0000 C   0  0  0  0  0  0  0  0  0  0  0  0
   -3.0629    0.0213    0.0000 C   0  0  0  0  0  0  0  0  0  0  0  0
    3.9259   -0.3608    0.0000 C   0  0  0  0  0  0  0  0  0  0  0  0
    3.2115    0.8771    0.0000 C   0  0  0  0  0  0  0  0  0  0  0  0
   -3.0629    0.8347    0.0000 C   0  0  0  0  0  0  0  0  0  0  0  0
   -3.7703   -0.4032    0.0000 C   0  0  0  0  0  0  0  0  0  0  0  0
    4.6404    0.0566    0.0000 C   0  0  0  0  0  0  0  0  0  0  0  0
    3.9188    1.2804    0.0000 C   0  0  0  0  0  0  0  0  0  0  0  0
    4.6404    0.8771    0.0000 C   0  0  0  0  0  0  0  0  0  0  0  0
   -3.7773    1.2450    0.0000 C   0  0  0  0  0  0  0  0  0  0  0  0
   -4.4848    0.0213    0.0000 C   0  0  0  0  0  0  0  0  0  0  0  0
   -4.4989    0.8276    0.0000 C   0  0  0  0  0  0  0  0  0  0  0  0
  1 27  1  0  0  0  0
  2 30  1  0  0  0  0
  3 14  2  0  0  0  0
  4 12  1  0  0  0  0
  4 14  1  0  0  0  0
  4 16  1  0  0  0  0
  5 10  2  0  0  0  0
  5 14  1  0  0  0  0
  6 13  1  0  0  0  0
  6 15  1  0  0  0  0
  6 18  1  0  0  0  0
  7 11  1  0  0  0  0
  7 15  2  0  0  0  0
  8 12  2  0  0  0  0
  8 17  1  0  0  0  0
  9 13  1  0  0  0  0
  9 17  2  0  0  0  0
 10 11  1  0  0  0  0
 10 12  1  0  0  0  0
 11 13  2  0  0  0  0
 16 19  1  0  0  0  0
 18 20  1  0  0  0  0
 19 21  2  0  0  0  0
 19 22  1  0  0  0  0
 20 23  2  0  0  0  0
 20 24  1  0  0  0  0
 21 25  1  0  0  0  0
 22 26  2  0  0  0  0
 23 28  1  0  0  0  0
 24 29  2  0  0  0  0
 25 27  2  0  0  0  0
 26 27  1  0  0  0  0
 28 30  2  0  0  0  0
 29 30  1  0  0  0  0
M  END
> <PUBCHEM_COMPOUND_ID_TYPE>
0

> <PUBCHEM_TOTAL_CHARGE>
0

> <PUBCHEM_SUBSTANCE_ID>
310945683

> <PUBCHEM_SUBSTANCE_VERSION>
1

> <PUBCHEM_EXT_DATASOURCE_NAME>
4488

> <PUBCHEM_EXT_DATASOURCE_REGID>
SCHEMBL16123784

> <PUBCHEM_SUBSTANCE_COMMENT>
InChI=1S/C21H14Cl2N6O/c22-15-5-1-13(2-6-15)9-28-12-26-17-18-20(25-11-24-19(17)28)29(21(30)27-18)10-14-3-7-16(23)8-4-14/h1-8,11-12H,9-10H2
InChIKey=UJQHPQVRMQTIPB-UHFFFAOYSA-N

> <PUBCHEM_SUBSTANCE_SYNONYM>
SCHEMBL16123784

> <PUBCHEM_XREF_EXT_ID>
SCHEMBL16123784

> <PUBCHEM_EXT_DATASOURCE_URL>
https://www.surechembl.org/

> <PUBCHEM_EXT_SUBSTANCE_URL>
https://www.surechembl.org/chemical/SCHEMBL16123784

> <PUBCHEM_CID_ASSOCIATIONS>
46188047  1

> <PUBCHEM_COORDINATE_TYPE>
1
3

$$$$
