310947467
  -OEChem-07211613022D

 25 26  0     0  0  0  0  0  0999 V2000
   -3.2551    2.7959    0.0000 O   0  0  0  0  0  0  0  0  0  0  0  0
    1.7462    1.5584    0.0000 O   0  0  0  0  0  0  0  0  0  0  0  0
    0.3172    1.5584    0.0000 O   0  0  0  0  0  0  0  0  0  0  0  0
   -3.9696    1.5584    0.0000 N   0  0  0  0  0  0  0  0  0  0  0  0
   -3.2551    1.9709    0.0000 C   0  0  0  0  0  0  0  0  0  0  0  0
   -3.9696    0.7334    0.0000 C   0  0  0  0  0  0  0  0  0  0  0  0
   -1.8262    1.9709    0.0000 C   0  0  0  0  0  0  0  0  0  0  0  0
   -2.5407    1.5584    0.0000 C   0  0  0  0  0  0  0  0  0  0  0  0
   -0.3973    2.7959    0.0000 C   0  0  0  0  0  0  0  0  0  0  0  0
   -4.6841    1.9709    0.0000 C   0  0  0  0  0  0  0  0  0  0  0  0
   -1.8262    2.7959    0.0000 C   0  0  0  0  0  0  0  0  0  0  0  0
   -1.1117    1.5584    0.0000 C   0  0  0  0  0  0  0  0  0  0  0  0
   -4.6841    0.3209    0.0000 C   0  0  0  0  0  0  0  0  0  0  0  0
   -3.2551    0.3209    0.0000 C   0  0  0  0  0  0  0  0  0  0  0  0
   -1.1117    3.2084    0.0000 C   0  0  0  0  0  0  0  0  0  0  0  0
   -0.3973    1.9709    0.0000 C   0  0  0  0  0  0  0  0  0  0  0  0
    0.3172    3.2084    0.0000 C   0  0  0  0  0  0  0  0  0  0  0  0
   -4.6841   -0.5041    0.0000 C   0  0  0  0  0  0  0  0  0  0  0  0
   -3.2551   -0.5041    0.0000 C   0  0  0  0  0  0  0  0  0  0  0  0
   -3.9696   -0.9166    0.0000 C   0  0  0  0  0  0  0  0  0  0  0  0
   -4.6841    2.7959    0.0000 C   0  0  0  0  0  0  0  0  0  0  0  0
    1.0317    2.7959    0.0000 C   0  0  0  0  0  0  0  0  0  0  0  0
    1.0317    1.9709    0.0000 C   0  0  0  0  0  0  0  0  0  0  0  0
   -5.3986    3.2084    0.0000 C   0  0  0  0  0  0  0  0  0  0  0  0
    2.4606    1.9709    0.0000 C   0  0  0  0  0  0  0  0  0  0  0  0
  1  5  2  0  0  0  0
  2 23  1  0  0  0  0
  2 25  1  0  0  0  0
  3 23  2  0  0  0  0
  4  5  1  0  0  0  0
  4  6  1  0  0  0  0
  4 10  1  0  0  0  0
  5  8  1  0  0  0  0
  6 13  2  0  0  0  0
  6 14  1  0  0  0  0
  7  8  1  0  0  0  0
  7 11  2  0  0  0  0
  7 12  1  0  0  0  0
  9 15  2  0  0  0  0
  9 16  1  0  0  0  0
  9 17  1  0  0  0  0
 10 21  1  0  0  0  0
 11 15  1  0  0  0  0
 12 16  2  0  0  0  0
 13 18  1  0  0  0  0
 14 19  2  0  0  0  0
 17 22  1  0  0  0  0
 18 20  2  0  0  0  0
 19 20  1  0  0  0  0
 21 24  1  0  0  0  0
 22 23  1  0  0  0  0
M  END
> <PUBCHEM_COMPOUND_ID_TYPE>
0

> <PUBCHEM_TOTAL_CHARGE>
0

> <PUBCHEM_SUBSTANCE_ID>
310947467

> <PUBCHEM_SUBSTANCE_VERSION>
1

> <PUBCHEM_EXT_DATASOURCE_NAME>
4488

> <PUBCHEM_EXT_DATASOURCE_REGID>
SCHEMBL16125628

> <PUBCHEM_SUBSTANCE_COMMENT>
InChI=1S/C21H25NO3/c1-3-15-22(19-7-5-4-6-8-19)20(23)16-18-11-9-17(10-12-18)13-14-21(24)25-2/h4-12H,3,13-16H2,1-2H3
InChIKey=UBEIIBJJBLKYDU-UHFFFAOYSA-N

> <PUBCHEM_SUBSTANCE_SYNONYM>
SCHEMBL16125628

> <PUBCHEM_XREF_EXT_ID>
SCHEMBL16125628

> <PUBCHEM_EXT_DATASOURCE_URL>
https://www.surechembl.org/

> <PUBCHEM_EXT_SUBSTANCE_URL>
https://www.surechembl.org/chemical/SCHEMBL16125628

> <PUBCHEM_CID_ASSOCIATIONS>
117613198  1

> <PUBCHEM_COORDINATE_TYPE>
1
3

$$$$
