310949010
  -OEChem-07211613022D

 24 25  0     0  0  0  0  0  0999 V2000
   -3.3584   -2.3553    0.0000 Br  0  0  0  0  0  0  0  0  0  0  0  0
    1.9286    0.5597    0.0000 Cl  0  0  0  0  0  0  0  0  0  0  0  0
   -0.2327   -2.3553    0.0000 F   0  0  0  0  0  0  0  0  0  0  0  0
   -3.0924   -0.6928    0.0000 F   0  0  0  0  0  0  0  0  0  0  0  0
    2.6379   -0.6928    0.0000 O   0  0  0  0  0  0  0  0  0  0  0  0
    1.9286   -1.9342    0.0000 O   0  0  0  0  0  0  0  0  0  0  0  0
    0.4877   -1.1028    0.0000 N   0  0  0  0  0  0  0  0  0  0  0  0
    0.4877    1.3910    0.0000 N   0  0  0  0  0  0  0  0  0  0  0  0
   -0.2327   -0.6817    0.0000 C   0  0  0  0  0  0  0  0  0  0  0  0
   -0.9421   -1.1028    0.0000 C   0  0  0  0  0  0  0  0  0  0  0  0
    1.2081   -0.6928    0.0000 C   0  0  0  0  0  0  0  0  0  0  0  0
    1.2192    0.1496    0.0000 C   0  0  0  0  0  0  0  0  0  0  0  0
    0.4877    0.5708    0.0000 C   0  0  0  0  0  0  0  0  0  0  0  0
   -0.2217    0.1496    0.0000 C   0  0  0  0  0  0  0  0  0  0  0  0
   -0.9532   -1.9342    0.0000 C   0  0  0  0  0  0  0  0  0  0  0  0
   -1.6515   -0.6928    0.0000 C   0  0  0  0  0  0  0  0  0  0  0  0
    1.9286   -1.0696    0.0000 C   0  0  0  0  0  0  0  0  0  0  0  0
   -2.3719   -1.1028    0.0000 C   0  0  0  0  0  0  0  0  0  0  0  0
   -2.3719   -1.9342    0.0000 C   0  0  0  0  0  0  0  0  0  0  0  0
   -1.6625   -2.3442    0.0000 C   0  0  0  0  0  0  0  0  0  0  0  0
   -0.2327    1.7901    0.0000 C   0  0  0  0  0  0  0  0  0  0  0  0
    3.3584   -1.1028    0.0000 C   0  0  0  0  0  0  0  0  0  0  0  0
   -0.2327    2.3553    0.0000 C   0  0  0  0  0  0  0  0  0  0  0  0
   -0.9311    1.3910    0.0000 C   0  0  0  0  0  0  0  0  0  0  0  0
  1 19  1  0  0  0  0
  2 12  1  0  0  0  0
  3 15  1  0  0  0  0
  4 18  1  0  0  0  0
  5 17  1  0  0  0  0
  5 22  1  0  0  0  0
  6 17  2  0  0  0  0
  7  9  1  0  0  0  0
  7 11  2  0  0  0  0
  8 13  1  0  0  0  0
  8 21  1  0  0  0  0
  9 10  1  0  0  0  0
  9 14  2  0  0  0  0
 10 15  1  0  0  0  0
 10 16  2  0  0  0  0
 11 12  1  0  0  0  0
 11 17  1  0  0  0  0
 12 13  2  0  0  0  0
 13 14  1  0  0  0  0
 15 20  2  0  0  0  0
 16 18  1  0  0  0  0
 18 19  2  0  0  0  0
 19 20  1  0  0  0  0
 21 23  2  0  0  0  0
 21 24  1  0  0  0  0
M  END
> <PUBCHEM_COMPOUND_ID_TYPE>
0

> <PUBCHEM_TOTAL_CHARGE>
0

> <PUBCHEM_SUBSTANCE_ID>
310949010

> <PUBCHEM_SUBSTANCE_VERSION>
1

> <PUBCHEM_EXT_DATASOURCE_NAME>
4488

> <PUBCHEM_EXT_DATASOURCE_REGID>
SCHEMBL16127199

> <PUBCHEM_SUBSTANCE_COMMENT>
InChI=1S/C16H12BrClF2N2O2/c1-7(2)21-13-6-12(22-15(14(13)18)16(23)24-3)8-4-11(20)9(17)5-10(8)19/h4-6H,1H2,2-3H3,(H,21,22)
InChIKey=XQUCPOGVFYMIIG-UHFFFAOYSA-N

> <PUBCHEM_SUBSTANCE_SYNONYM>
SCHEMBL16127199

> <PUBCHEM_XREF_EXT_ID>
SCHEMBL16127199

> <PUBCHEM_EXT_DATASOURCE_URL>
https://www.surechembl.org/

> <PUBCHEM_EXT_SUBSTANCE_URL>
https://www.surechembl.org/chemical/SCHEMBL16127199

> <PUBCHEM_CID_ASSOCIATIONS>
117614518  1

> <PUBCHEM_COORDINATE_TYPE>
1
3

$$$$
