310937390
  -OEChem-07211613022D

 37 41  0     0  0  0  0  0  0999 V2000
    4.3018   -3.1232    0.0000 F   0  0  0  0  0  0  0  0  0  0  0  0
    0.0000   -1.5911    0.0000 F   0  0  0  0  0  0  0  0  0  0  0  0
    0.5304    0.0000    0.0000 F   0  0  0  0  0  0  0  0  0  0  0  0
    2.8286   -7.2483    0.0000 O   0  0  0  0  0  0  0  0  0  0  0  0
    3.5947  -11.7858    0.0000 O   0  0  0  0  0  0  0  0  0  0  0  0
    2.8286   -2.2982    0.0000 N   0  0  0  0  0  0  0  0  0  0  0  0
    3.2411   -1.0607    0.0000 N   0  0  0  0  0  0  0  0  0  0  0  0
    2.1804   -3.5358    0.0000 N   0  0  0  0  0  0  0  0  0  0  0  0
    2.8875   -4.7733    0.0000 N   0  0  0  0  0  0  0  0  0  0  0  0
    1.4143   -4.7733    0.0000 N   0  0  0  0  0  0  0  0  0  0  0  0
    3.5947   -9.3108    0.0000 N   0  0  0  0  0  0  0  0  0  0  0  0
    2.1804   -1.8268    0.0000 C   0  0  0  0  0  0  0  0  0  0  0  0
    2.4161   -1.0018    0.0000 C   0  0  0  0  0  0  0  0  0  0  0  0
    2.8875   -3.1232    0.0000 C   0  0  0  0  0  0  0  0  0  0  0  0
    3.5358   -1.8268    0.0000 C   0  0  0  0  0  0  0  0  0  0  0  0
    1.3554   -2.0036    0.0000 C   0  0  0  0  0  0  0  0  0  0  0  0
    3.5947   -3.5358    0.0000 C   0  0  0  0  0  0  0  0  0  0  0  0
    1.8268   -0.4125    0.0000 C   0  0  0  0  0  0  0  0  0  0  0  0
    0.8250   -1.4143    0.0000 C   0  0  0  0  0  0  0  0  0  0  0  0
    1.0607   -0.5893    0.0000 C   0  0  0  0  0  0  0  0  0  0  0  0
    2.1215   -4.3608    0.0000 C   0  0  0  0  0  0  0  0  0  0  0  0
    3.5947   -4.3608    0.0000 C   0  0  0  0  0  0  0  0  0  0  0  0
    1.4143   -5.5983    0.0000 C   0  0  0  0  0  0  0  0  0  0  0  0
    2.1215   -6.0108    0.0000 C   0  0  0  0  0  0  0  0  0  0  0  0
    0.7072   -6.0108    0.0000 C   0  0  0  0  0  0  0  0  0  0  0  0
    2.1215   -6.8358    0.0000 C   0  0  0  0  0  0  0  0  0  0  0  0
    0.7072   -6.8358    0.0000 C   0  0  0  0  0  0  0  0  0  0  0  0
    1.4143   -7.2483    0.0000 C   0  0  0  0  0  0  0  0  0  0  0  0
    0.0000   -7.2483    0.0000 C   0  0  0  0  0  0  0  0  0  0  0  0
    2.8286   -8.0733    0.0000 C   0  0  0  0  0  0  0  0  0  0  0  0
    3.5947   -8.4858    0.0000 C   0  0  0  0  0  0  0  0  0  0  0  0
    4.3018   -9.7234    0.0000 C   0  0  0  0  0  0  0  0  0  0  0  0
    2.8875   -9.7234    0.0000 C   0  0  0  0  0  0  0  0  0  0  0  0
    0.0000   -8.0733    0.0000 C   0  0  0  0  0  0  0  0  0  0  0  0
    3.5947  -10.9608    0.0000 C   0  0  0  0  0  0  0  0  0  0  0  0
    4.3018  -10.5484    0.0000 C   0  0  0  0  0  0  0  0  0  0  0  0
    2.8875  -10.5484    0.0000 C   0  0  0  0  0  0  0  0  0  0  0  0
  1 17  1  0  0  0  0
  2 19  1  0  0  0  0
  3 20  1  0  0  0  0
  4 26  1  0  0  0  0
  4 30  1  0  0  0  0
  5 35  1  0  0  0  0
  6 12  1  0  0  0  0
  6 14  1  0  0  0  0
  6 15  1  0  0  0  0
  7 13  1  0  0  0  0
  7 15  2  0  0  0  0
  8 14  2  0  0  0  0
  8 21  1  0  0  0  0
  9 21  2  0  0  0  0
  9 22  1  0  0  0  0
 10 21  1  0  0  0  0
 10 23  1  0  0  0  0
 11 31  1  0  0  0  0
 11 32  1  0  0  0  0
 11 33  1  0  0  0  0
 12 13  2  0  0  0  0
 12 16  1  0  0  0  0
 13 18  1  0  0  0  0
 14 17  1  0  0  0  0
 16 19  2  0  0  0  0
 17 22  2  0  0  0  0
 18 20  2  0  0  0  0
 19 20  1  0  0  0  0
 23 24  1  0  0  0  0
 23 25  2  0  0  0  0
 24 26  2  0  0  0  0
 25 27  1  0  0  0  0
 26 28  1  0  0  0  0
 27 28  2  0  0  0  0
 27 29  1  0  0  0  0
 29 34  1  0  0  0  0
 30 31  1  0  0  0  0
 32 36  1  0  0  0  0
 33 37  1  0  0  0  0
 35 36  1  0  0  0  0
 35 37  1  0  0  0  0
M  END
> <PUBCHEM_COMPOUND_ID_TYPE>
0

> <PUBCHEM_TOTAL_CHARGE>
0

> <PUBCHEM_SUBSTANCE_ID>
310937390

> <PUBCHEM_SUBSTANCE_VERSION>
1

> <PUBCHEM_EXT_DATASOURCE_NAME>
4488

> <PUBCHEM_EXT_DATASOURCE_REGID>
SCHEMBL16115148

> <PUBCHEM_SUBSTANCE_COMMENT>
InChI=1S/C26H27F3N6O2/c1-2-16-9-17(11-19(10-16)37-8-7-34-5-3-18(36)4-6-34)32-26-30-14-22(29)25(33-26)35-15-31-23-12-20(27)21(28)13-24(23)35/h9-15,18,36H,2-8H2,1H3,(H,30,32,33)
InChIKey=VPNCXMMBZTXDNU-UHFFFAOYSA-N

> <PUBCHEM_SUBSTANCE_SYNONYM>
SCHEMBL16115148

> <PUBCHEM_XREF_EXT_ID>
SCHEMBL16115148

> <PUBCHEM_EXT_DATASOURCE_URL>
https://www.surechembl.org/

> <PUBCHEM_EXT_SUBSTANCE_URL>
https://www.surechembl.org/chemical/SCHEMBL16115148

> <PUBCHEM_CID_ASSOCIATIONS>
86299940  1

> <PUBCHEM_COORDINATE_TYPE>
1
3

$$$$
