310944652
  -OEChem-07211613022D

 29 31  0     0  0  0  0  0  0999 V2000
   -3.4062   -1.2641    0.0000 Cl  0  0  0  0  0  0  0  0  0  0  0  0
   -3.9543    2.4722    0.0000 Cl  0  0  0  0  0  0  0  0  0  0  0  0
   -0.3674   -1.2641    0.0000 O   0  0  0  0  0  0  0  0  0  0  0  0
    1.0649    1.2267    0.0000 O   0  0  0  0  0  0  0  0  0  0  0  0
    4.6641   -0.8531    0.0000 O   0  0  0  0  0  0  0  0  0  0  0  0
   -0.3550    0.3923    0.0000 N   0  0  0  0  0  0  0  0  0  0  0  0
    1.8121   -0.0187    0.0000 N   0  0  0  0  0  0  0  0  0  0  0  0
    3.2444   -0.8531    0.0000 N   0  0  0  0  0  0  0  0  0  0  0  0
   -2.5095   -0.0187    0.0000 C   0  0  0  0  0  0  0  0  0  0  0  0
   -1.0773   -0.0063    0.0000 C   0  0  0  0  0  0  0  0  0  0  0  0
   -2.5220   -0.8407    0.0000 C   0  0  0  0  0  0  0  0  0  0  0  0
   -3.2444    0.4048    0.0000 C   0  0  0  0  0  0  0  0  0  0  0  0
   -1.7872    0.3923    0.0000 C   0  0  0  0  0  0  0  0  0  0  0  0
   -1.0898   -0.8407    0.0000 C   0  0  0  0  0  0  0  0  0  0  0  0
   -1.7872   -1.2516    0.0000 C   0  0  0  0  0  0  0  0  0  0  0  0
    1.0773    0.3799    0.0000 C   0  0  0  0  0  0  0  0  0  0  0  0
   -3.2319    1.2267    0.0000 C   0  0  0  0  0  0  0  0  0  0  0  0
   -3.9667   -0.0063    0.0000 C   0  0  0  0  0  0  0  0  0  0  0  0
    0.3674   -0.0187    0.0000 C   0  0  0  0  0  0  0  0  0  0  0  0
   -3.9543    1.6378    0.0000 C   0  0  0  0  0  0  0  0  0  0  0  0
    1.8121   -0.8531    0.0000 C   0  0  0  0  0  0  0  0  0  0  0  0
    2.5095    0.3923    0.0000 C   0  0  0  0  0  0  0  0  0  0  0  0
    2.5220   -1.2641    0.0000 C   0  0  0  0  0  0  0  0  0  0  0  0
    3.2319   -0.0187    0.0000 C   0  0  0  0  0  0  0  0  0  0  0  0
    3.9418   -1.2641    0.0000 C   0  0  0  0  0  0  0  0  0  0  0  0
   -4.6641    0.4048    0.0000 C   0  0  0  0  0  0  0  0  0  0  0  0
   -4.6641    1.2267    0.0000 C   0  0  0  0  0  0  0  0  0  0  0  0
    3.9543   -2.0986    0.0000 C   0  0  0  0  0  0  0  0  0  0  0  0
    3.2194   -2.4722    0.0000 C   0  0  0  0  0  0  0  0  0  0  0  0
  1 11  1  0  0  0  0
  2 20  1  0  0  0  0
  3 14  1  0  0  0  0
  4 16  2  0  0  0  0
  5 25  2  0  0  0  0
  6 10  1  0  0  0  0
  6 19  1  0  0  0  0
  7 16  1  0  0  0  0
  7 21  1  0  0  0  0
  7 22  1  0  0  0  0
  8 23  1  0  0  0  0
  8 24  1  0  0  0  0
  8 25  1  0  0  0  0
  9 11  1  0  0  0  0
  9 12  1  0  0  0  0
  9 13  2  0  0  0  0
 10 13  1  0  0  0  0
 10 14  2  0  0  0  0
 11 15  2  0  0  0  0
 12 17  1  0  0  0  0
 12 18  2  0  0  0  0
 14 15  1  0  0  0  0
 16 19  1  0  0  0  0
 17 20  2  0  0  0  0
 18 26  1  0  0  0  0
 20 27  1  0  0  0  0
 21 23  1  0  0  0  0
 22 24  1  0  0  0  0
 25 28  1  0  0  0  0
 26 27  2  0  0  0  0
 28 29  2  0  0  0  0
M  END
> <PUBCHEM_COMPOUND_ID_TYPE>
0

> <PUBCHEM_TOTAL_CHARGE>
0

> <PUBCHEM_SUBSTANCE_ID>
310944652

> <PUBCHEM_SUBSTANCE_VERSION>
1

> <PUBCHEM_EXT_DATASOURCE_NAME>
4488

> <PUBCHEM_EXT_DATASOURCE_REGID>
SCHEMBL16122730

> <PUBCHEM_SUBSTANCE_COMMENT>
InChI=1S/C21H21Cl2N3O3/c1-2-20(28)25-6-8-26(9-7-25)21(29)13-24-18-11-16(17(23)12-19(18)27)14-4-3-5-15(22)10-14/h2-5,10-12,24,27H,1,6-9,13H2
InChIKey=DPOKTMPLQFJULH-UHFFFAOYSA-N

> <PUBCHEM_SUBSTANCE_SYNONYM>
SCHEMBL16122730

> <PUBCHEM_XREF_EXT_ID>
SCHEMBL16122730

> <PUBCHEM_EXT_DATASOURCE_URL>
https://www.surechembl.org/

> <PUBCHEM_EXT_SUBSTANCE_URL>
https://www.surechembl.org/chemical/SCHEMBL16122730

> <PUBCHEM_CID_ASSOCIATIONS>
117610882  1

> <PUBCHEM_COORDINATE_TYPE>
1
3

$$$$
