310947777
  -OEChem-07211613022D

 20 22  0     1  0  0  0  0  0999 V2000
   -1.4437    1.7862    0.0000 O   0  0  0  0  0  0  0  0  0  0  0  0
   -0.2062   -1.7862    0.0000 O   0  0  0  0  0  0  0  0  0  0  0  0
   -1.4437    0.3572    0.0000 N   0  0  0  0  0  0  0  0  0  0  0  0
   -0.2062    1.0717    0.0000 N   0  0  0  0  0  0  0  0  0  0  0  0
   -0.2062   -0.3572    0.0000 C   0  0  0  0  0  0  0  0  0  0  0  0
   -1.0313   -0.3572    0.0000 C   0  0  0  0  0  0  0  0  0  0  0  0
    0.2062    0.3572    0.0000 C   0  0  3  0  0  0  0  0  0  0  0  0
   -1.0313    1.0717    0.0000 C   0  0  0  0  0  0  0  0  0  0  0  0
    1.0313    0.3572    0.0000 C   0  0  0  0  0  0  0  0  0  0  0  0
    0.2062   -1.0717    0.0000 C   0  0  0  0  0  0  0  0  0  0  0  0
   -1.4437   -1.0717    0.0000 C   0  0  0  0  0  0  0  0  0  0  0  0
   -2.2687    0.3572    0.0000 C   0  0  0  0  0  0  0  0  0  0  0  0
    1.4437    1.0717    0.0000 C   0  0  0  0  0  0  0  0  0  0  0  0
    1.4437   -0.3572    0.0000 C   0  0  0  0  0  0  0  0  0  0  0  0
   -2.2687   -1.0717    0.0000 C   0  0  0  0  0  0  0  0  0  0  0  0
   -2.6812   -0.3572    0.0000 C   0  0  0  0  0  0  0  0  0  0  0  0
    1.0313   -1.0717    0.0000 C   0  0  0  0  0  0  0  0  0  0  0  0
    2.2687    1.0717    0.0000 C   0  0  0  0  0  0  0  0  0  0  0  0
    2.2687   -0.3572    0.0000 C   0  0  0  0  0  0  0  0  0  0  0  0
    2.6812    0.3572    0.0000 C   0  0  0  0  0  0  0  0  0  0  0  0
  1  8  2  0  0  0  0
  2 10  2  0  0  0  0
  3  6  1  0  0  0  0
  3  8  1  0  0  0  0
  3 12  1  0  0  0  0
  7  4  1  1  0  0  0
  4  8  1  0  0  0  0
  5  6  2  0  0  0  0
  5  7  1  0  0  0  0
  5 10  1  0  0  0  0
  6 11  1  0  0  0  0
  7  9  1  0  0  0  0
  9 13  2  0  0  0  0
  9 14  1  0  0  0  0
 10 17  1  0  0  0  0
 11 15  2  0  0  0  0
 12 16  1  0  0  0  0
 13 18  1  0  0  0  0
 14 19  2  0  0  0  0
 15 16  1  0  0  0  0
 18 20  2  0  0  0  0
 19 20  1  0  0  0  0
M  END
> <PUBCHEM_COMPOUND_ID_TYPE>
0

> <PUBCHEM_TOTAL_CHARGE>
0

> <PUBCHEM_SUBSTANCE_ID>
310947777

> <PUBCHEM_SUBSTANCE_VERSION>
1

> <PUBCHEM_EXT_DATASOURCE_NAME>
4488

> <PUBCHEM_EXT_DATASOURCE_REGID>
SCHEMBL16125949

> <PUBCHEM_SUBSTANCE_COMMENT>
InChI=1S/C16H16N2O2/c1-11(19)14-13-9-5-6-10-18(13)16(20)17-15(14)12-7-3-2-4-8-12/h2-5,7-9,15H,6,10H2,1H3,(H,17,20)/t15-/m0/s1
InChIKey=KOQDKMCPBPBLIE-HNNXBMFYSA-N

> <PUBCHEM_SUBSTANCE_SYNONYM>
SCHEMBL16125949

> <PUBCHEM_XREF_EXT_ID>
SCHEMBL16125949

> <PUBCHEM_EXT_DATASOURCE_URL>
https://www.surechembl.org/

> <PUBCHEM_EXT_SUBSTANCE_URL>
https://www.surechembl.org/chemical/SCHEMBL16125949

> <PUBCHEM_CID_ASSOCIATIONS>
71657829  1

> <PUBCHEM_COORDINATE_TYPE>
1
3

> <PUBCHEM_BONDANNOTATIONS>
7  4  5

$$$$
