310940135
  -OEChem-07211613022D

 38 42  0     0  0  0  0  0  0999 V2000
   -0.2478   -3.0508    0.0000 F   0  0  0  0  0  0  0  0  0  0  0  0
    0.3845   -3.9909    0.0000 F   0  0  0  0  0  0  0  0  0  0  0  0
   -0.5725   -4.6232    0.0000 F   0  0  0  0  0  0  0  0  0  0  0  0
   -3.3071    0.9486    0.0000 O   0  0  0  0  0  0  0  0  0  0  0  0
   -1.2220   -3.6661    0.0000 O   0  0  0  0  0  0  0  0  0  0  0  0
   -0.5213    0.8119    0.0000 N   0  0  0  0  0  0  0  0  0  0  0  0
   -0.8631    0.0427    0.0000 N   0  0  0  0  0  0  0  0  0  0  0  0
   -2.2475   -0.4871    0.0000 N   0  0  0  0  0  0  0  0  0  0  0  0
   -2.5722    2.1963    0.0000 N   0  0  0  0  0  0  0  0  0  0  0  0
    0.9144    3.3926    0.0000 N   0  0  0  0  0  0  0  0  0  0  0  0
    2.4185    0.6580    0.0000 N   0  0  0  0  0  0  0  0  0  0  0  0
    0.2478    0.9827    0.0000 C   0  0  0  0  0  0  0  0  0  0  0  0
   -1.1708    1.3758    0.0000 C   0  0  0  0  0  0  0  0  0  0  0  0
   -1.8544    0.9486    0.0000 C   0  0  0  0  0  0  0  0  0  0  0  0
   -1.7006    0.1453    0.0000 C   0  0  0  0  0  0  0  0  0  0  0  0
   -2.5722    1.3930    0.0000 C   0  0  0  0  0  0  0  0  0  0  0  0
   -0.2991    1.5638    0.0000 C   0  0  0  0  0  0  0  0  0  0  0  0
    1.0682    1.2049    0.0000 C   0  0  0  0  0  0  0  0  0  0  0  0
   -1.1536    2.1963    0.0000 C   0  0  0  0  0  0  0  0  0  0  0  0
    0.8119    0.3503    0.0000 C   0  0  0  0  0  0  0  0  0  0  0  0
   -1.8715    2.6235    0.0000 C   0  0  0  0  0  0  0  0  0  0  0  0
   -0.0769    2.3843    0.0000 C   0  0  0  0  0  0  0  0  0  0  0  0
    1.2733    2.0082    0.0000 C   0  0  0  0  0  0  0  0  0  0  0  0
    0.7093    2.5893    0.0000 C   0  0  0  0  0  0  0  0  0  0  0  0
   -1.9911   -1.2733    0.0000 C   0  0  0  0  0  0  0  0  0  0  0  0
    1.6322    0.5213    0.0000 C   0  0  0  0  0  0  0  0  0  0  0  0
   -2.5380   -1.8886    0.0000 C   0  0  0  0  0  0  0  0  0  0  0  0
   -1.1878   -1.4613    0.0000 C   0  0  0  0  0  0  0  0  0  0  0  0
   -1.4784   -2.8628    0.0000 C   0  0  0  0  0  0  0  0  0  0  0  0
   -2.2817   -2.6748    0.0000 C   0  0  0  0  0  0  0  0  0  0  0  0
   -0.9315   -2.2475    0.0000 C   0  0  0  0  0  0  0  0  0  0  0  0
    1.7177    3.6148    0.0000 C   0  0  0  0  0  0  0  0  0  0  0  0
   -0.4187   -3.8370    0.0000 C   0  0  0  0  0  0  0  0  0  0  0  0
    2.3159    3.0337    0.0000 C   0  0  0  0  0  0  0  0  0  0  0  0
    1.9399    4.4181    0.0000 C   0  0  0  0  0  0  0  0  0  0  0  0
    3.1021    3.2559    0.0000 C   0  0  0  0  0  0  0  0  0  0  0  0
    2.7260    4.6232    0.0000 C   0  0  0  0  0  0  0  0  0  0  0  0
    3.3071    4.0592    0.0000 C   0  0  0  0  0  0  0  0  0  0  0  0
  1 33  1  0  0  0  0
  2 33  1  0  0  0  0
  3 33  1  0  0  0  0
  4 16  2  0  0  0  0
  5 29  1  0  0  0  0
  5 33  1  0  0  0  0
  6  7  1  0  0  0  0
  6 12  1  0  0  0  0
  6 13  1  0  0  0  0
  7 15  2  0  0  0  0
  8 15  1  0  0  0  0
  8 25  1  0  0  0  0
  9 16  1  0  0  0  0
  9 21  1  0  0  0  0
 24 10  1  6  0  0  0
 10 32  1  0  0  0  0
 11 26  3  0  0  0  0
 12 17  1  0  0  0  0
 12 18  1  0  0  0  0
 12 20  1  6  0  0  0
 13 14  2  0  0  0  0
 13 19  1  0  0  0  0
 14 15  1  0  0  0  0
 14 16  1  0  0  0  0
 17 22  1  0  0  0  0
 18 23  1  0  0  0  0
 19 21  2  0  0  0  0
 20 26  1  0  0  0  0
 22 24  1  0  0  0  0
 23 24  1  0  0  0  0
 25 27  2  0  0  0  0
 25 28  1  0  0  0  0
 27 30  1  0  0  0  0
 28 31  2  0  0  0  0
 29 30  2  0  0  0  0
 29 31  1  0  0  0  0
 32 34  2  0  0  0  0
 32 35  1  0  0  0  0
 34 36  1  0  0  0  0
 35 37  2  0  0  0  0
 36 38  2  0  0  0  0
 37 38  1  0  0  0  0
M  END
> <PUBCHEM_COMPOUND_ID_TYPE>
0

> <PUBCHEM_TOTAL_CHARGE>
0

> <PUBCHEM_SUBSTANCE_ID>
310940135

> <PUBCHEM_SUBSTANCE_VERSION>
1

> <PUBCHEM_EXT_DATASOURCE_NAME>
4488

> <PUBCHEM_EXT_DATASOURCE_REGID>
SCHEMBL16118068

> <PUBCHEM_SUBSTANCE_COMMENT>
InChI=1S/C27H25F3N6O2/c28-27(29,30)38-21-8-6-19(7-9-21)34-24-23-22(12-17-32-25(23)37)36(35-24)26(15-16-31)13-10-20(11-14-26)33-18-4-2-1-3-5-18/h1-9,12,17,20,33H,10-11,13-15H2,(H,32,37)(H,34,35)/t20-,26-
InChIKey=GJPNDSNVYMRIPD-AEEMYVKYSA-N

> <PUBCHEM_SUBSTANCE_SYNONYM>
SCHEMBL16118068

> <PUBCHEM_XREF_EXT_ID>
SCHEMBL16118068

> <PUBCHEM_EXT_DATASOURCE_URL>
https://www.surechembl.org/

> <PUBCHEM_EXT_SUBSTANCE_URL>
https://www.surechembl.org/chemical/SCHEMBL16118068

> <PUBCHEM_CID_ASSOCIATIONS>
90460256  1

> <PUBCHEM_COORDINATE_TYPE>
1
3

> <PUBCHEM_BONDANNOTATIONS>
24  10  6
12  20  6

$$$$
