310934477
  -OEChem-07211613022D

 25 28  0     0  0  0  0  0  0999 V2000
    6.4138   -1.6500    0.0000 Cl  0  0  0  0  0  0  0  0  0  0  0  0
    0.0000   -1.2242    0.0000 S   0  0  0  0  0  0  0  0  0  0  0  0
    2.1291    0.0000    0.0000 O   0  0  0  0  0  0  0  0  0  0  0  0
    3.5661    0.0000    0.0000 N   0  0  0  0  0  0  0  0  0  0  0  0
    1.4371   -1.2242    0.0000 N   0  0  0  0  0  0  0  0  0  0  0  0
    0.7186   -2.4750    0.0000 N   0  0  0  0  0  0  0  0  0  0  0  0
    1.3573   -5.3226    0.0000 N   0  0  0  0  0  0  0  0  0  0  0  0
    2.8476   -1.2242    0.0000 C   0  0  0  0  0  0  0  0  0  0  0  0
    2.1291   -1.6500    0.0000 C   0  0  0  0  0  0  0  0  0  0  0  0
    4.2847   -1.2242    0.0000 C   0  0  0  0  0  0  0  0  0  0  0  0
    2.8476   -0.3992    0.0000 C   0  0  0  0  0  0  0  0  0  0  0  0
    4.2847   -0.3992    0.0000 C   0  0  0  0  0  0  0  0  0  0  0  0
    3.5661   -1.6500    0.0000 C   0  0  0  0  0  0  0  0  0  0  0  0
    1.4105   -2.8743    0.0000 C   0  0  0  0  0  0  0  0  0  0  0  0
    2.1557   -2.4750    0.0000 C   0  0  0  0  0  0  0  0  0  0  0  0
    0.7186   -1.6234    0.0000 C   0  0  0  0  0  0  0  0  0  0  0  0
    1.4105   -3.6993    0.0000 C   0  0  0  0  0  0  0  0  0  0  0  0
    4.9767   -1.6500    0.0000 C   0  0  0  0  0  0  0  0  0  0  0  0
    4.9767    0.0000    0.0000 C   0  0  0  0  0  0  0  0  0  0  0  0
    5.6952   -1.2242    0.0000 C   0  0  0  0  0  0  0  0  0  0  0  0
    5.6952   -0.3992    0.0000 C   0  0  0  0  0  0  0  0  0  0  0  0
    0.6920   -4.0718    0.0000 C   0  0  0  0  0  0  0  0  0  0  0  0
    2.1291   -4.0984    0.0000 C   0  0  0  0  0  0  0  0  0  0  0  0
    0.6387   -4.9234    0.0000 C   0  0  0  0  0  0  0  0  0  0  0  0
    2.0758   -4.9234    0.0000 C   0  0  0  0  0  0  0  0  0  0  0  0
  1 20  1  0  0  0  0
  2 16  2  0  0  0  0
  3 11  2  0  0  0  0
  4 11  1  0  0  0  0
  4 12  1  0  0  0  0
  5  9  2  0  0  0  0
  5 16  1  0  0  0  0
  6 14  1  0  0  0  0
  6 16  1  0  0  0  0
  7 24  2  0  0  0  0
  7 25  1  0  0  0  0
  8  9  1  0  0  0  0
  8 11  1  0  0  0  0
  8 13  2  0  0  0  0
  9 15  1  0  0  0  0
 10 12  2  0  0  0  0
 10 13  1  0  0  0  0
 10 18  1  0  0  0  0
 12 19  1  0  0  0  0
 14 15  2  0  0  0  0
 14 17  1  0  0  0  0
 17 22  2  0  0  0  0
 17 23  1  0  0  0  0
 18 20  2  0  0  0  0
 19 21  2  0  0  0  0
 20 21  1  0  0  0  0
 22 24  1  0  0  0  0
 23 25  2  0  0  0  0
M  END
> <PUBCHEM_COMPOUND_ID_TYPE>
0

> <PUBCHEM_TOTAL_CHARGE>
0

> <PUBCHEM_SUBSTANCE_ID>
310934477

> <PUBCHEM_SUBSTANCE_VERSION>
1

> <PUBCHEM_EXT_DATASOURCE_NAME>
4488

> <PUBCHEM_EXT_DATASOURCE_REGID>
SCHEMBL16111957

> <PUBCHEM_SUBSTANCE_COMMENT>
InChI=1S/C18H11ClN4OS/c19-12-1-2-14-11(7-12)8-13(17(24)21-14)16-9-15(22-18(25)23-16)10-3-5-20-6-4-10/h1-9H,(H,21,24)(H,22,23,25)
InChIKey=RSSIVYGBXIEVGK-UHFFFAOYSA-N

> <PUBCHEM_SUBSTANCE_SYNONYM>
SCHEMBL16111957

> <PUBCHEM_XREF_EXT_ID>
SCHEMBL16111957

> <PUBCHEM_EXT_DATASOURCE_URL>
https://www.surechembl.org/

> <PUBCHEM_EXT_SUBSTANCE_URL>
https://www.surechembl.org/chemical/SCHEMBL16111957

> <PUBCHEM_CID_ASSOCIATIONS>
117602681  1

> <PUBCHEM_COORDINATE_TYPE>
1
3

$$$$
