310931706
  -OEChem-07211613022D

 29 31  0     0  0  0  0  0  0999 V2000
    0.0000   -2.4709    0.0000 Br  0  0  0  0  0  0  0  0  0  0  0  0
    2.8651    0.0000    0.0000 O   0  0  0  0  0  0  0  0  0  0  0  0
    5.1783   -2.2343    0.0000 O   0  0  0  0  0  0  0  0  0  0  0  0
    7.1760   -2.4709    0.0000 O   0  0  0  0  0  0  0  0  0  0  0  0
    3.5749   -1.2354    0.0000 N   0  0  0  0  0  0  0  0  0  0  0  0
    4.3109   -3.2857    0.0000 N   0  0  0  0  0  0  0  0  0  0  0  0
    2.8651   -0.8149    0.0000 C   0  0  0  0  0  0  0  0  0  0  0  0
    2.1554   -1.2354    0.0000 C   0  0  0  0  0  0  0  0  0  0  0  0
    4.3109   -0.8149    0.0000 C   0  0  0  0  0  0  0  0  0  0  0  0
    5.0206   -1.2354    0.0000 C   0  0  0  0  0  0  0  0  0  0  0  0
    3.5749   -2.0503    0.0000 C   0  0  0  0  0  0  0  0  0  0  0  0
    1.4457   -0.8149    0.0000 C   0  0  0  0  0  0  0  0  0  0  0  0
    2.1554   -2.0503    0.0000 C   0  0  0  0  0  0  0  0  0  0  0  0
    4.3109   -2.4709    0.0000 C   0  0  0  0  0  0  0  0  0  0  0  0
    5.0206   -2.0503    0.0000 C   0  0  0  0  0  0  0  0  0  0  0  0
    5.7303   -0.8149    0.0000 C   0  0  0  0  0  0  0  0  0  0  0  0
    0.7097   -2.0503    0.0000 C   0  0  0  0  0  0  0  0  0  0  0  0
    0.7097   -1.2354    0.0000 C   0  0  0  0  0  0  0  0  0  0  0  0
    1.4457   -2.4709    0.0000 C   0  0  0  0  0  0  0  0  0  0  0  0
    6.4400   -2.0766    0.0000 C   0  0  0  0  0  0  0  0  0  0  0  0
    5.7303   -2.4709    0.0000 C   0  0  0  0  0  0  0  0  0  0  0  0
    6.4400   -1.2354    0.0000 C   0  0  0  0  0  0  0  0  0  0  0  0
    5.0206   -3.7063    0.0000 C   0  0  0  0  0  0  0  0  0  0  0  0
    5.7566   -3.3120    0.0000 C   0  0  0  0  0  0  0  0  0  0  0  0
    5.0469   -4.5475    0.0000 C   0  0  0  0  0  0  0  0  0  0  0  0
    6.4400   -3.7326    0.0000 C   0  0  0  0  0  0  0  0  0  0  0  0
    5.7303   -4.9417    0.0000 C   0  0  0  0  0  0  0  0  0  0  0  0
    6.4663   -4.5475    0.0000 C   0  0  0  0  0  0  0  0  0  0  0  0
    7.8857   -2.0766    0.0000 C   0  0  0  0  0  0  0  0  0  0  0  0
  1 17  1  0  0  0  0
  2  7  2  0  0  0  0
  3 14  2  0  0  0  0
  4 20  1  0  0  0  0
  4 29  1  0  0  0  0
  5  7  1  0  0  0  0
  5  9  1  0  0  0  0
  5 11  1  0  0  0  0
  6 14  1  0  0  0  0
  6 23  1  0  0  0  0
  7  8  1  0  0  0  0
  8 12  2  0  0  0  0
  8 13  1  0  0  0  0
  9 10  1  0  0  0  0
 10 15  2  0  0  0  0
 10 16  1  0  0  0  0
 11 14  1  0  0  0  0
 12 18  1  0  0  0  0
 13 19  2  0  0  0  0
 15 21  1  0  0  0  0
 16 22  2  0  0  0  0
 17 18  2  0  0  0  0
 17 19  1  0  0  0  0
 20 21  2  0  0  0  0
 20 22  1  0  0  0  0
 23 24  1  0  0  0  0
 23 25  1  0  0  0  0
 24 26  1  0  0  0  0
 25 27  1  0  0  0  0
 26 28  1  0  0  0  0
 27 28  1  0  0  0  0
M  END
> <PUBCHEM_COMPOUND_ID_TYPE>
0

> <PUBCHEM_TOTAL_CHARGE>
0

> <PUBCHEM_SUBSTANCE_ID>
310931706

> <PUBCHEM_SUBSTANCE_VERSION>
1

> <PUBCHEM_EXT_DATASOURCE_NAME>
4488

> <PUBCHEM_EXT_DATASOURCE_REGID>
SCHEMBL16109035

> <PUBCHEM_SUBSTANCE_COMMENT>
InChI=1S/C23H27BrN2O3/c1-29-21-13-7-17(8-14-21)15-26(23(28)18-9-11-19(24)12-10-18)16-22(27)25-20-5-3-2-4-6-20/h7-14,20H,2-6,15-16H2,1H3,(H,25,27)
InChIKey=WVGHKZPIVNJMQY-UHFFFAOYSA-N

> <PUBCHEM_SUBSTANCE_SYNONYM>
SCHEMBL16109035

> <PUBCHEM_XREF_EXT_ID>
SCHEMBL16109035

> <PUBCHEM_EXT_DATASOURCE_URL>
https://www.surechembl.org/

> <PUBCHEM_EXT_SUBSTANCE_URL>
https://www.surechembl.org/chemical/SCHEMBL16109035

> <PUBCHEM_CID_ASSOCIATIONS>
86296750  1

> <PUBCHEM_COORDINATE_TYPE>
1
3

$$$$
