310943669
  -OEChem-07211613022D

 35 38  0     0  0  0  0  0  0999 V2000
    4.6266    1.6339    0.0000 F   0  0  0  0  0  0  0  0  0  0  0  0
   -3.9310   -0.8088    0.0000 O   0  0  0  0  0  0  0  0  0  0  0  0
    1.7633    1.6339    0.0000 O   0  0  0  0  0  0  0  0  0  0  0  0
   -5.3546    1.6339    0.0000 O   0  0  0  0  0  0  0  0  0  0  0  0
   -2.5074    0.8251    0.0000 N   0  0  0  0  0  0  0  0  0  0  0  0
   -3.9310    0.8088    0.0000 N   0  0  0  0  0  0  0  0  0  0  0  0
   -0.3720    2.0383    0.0000 N   0  0  0  0  0  0  0  0  0  0  0  0
    1.0515    0.4045    0.0000 N   0  0  0  0  0  0  0  0  0  0  0  0
    3.8987   -0.4045    0.0000 N   0  0  0  0  0  0  0  0  0  0  0  0
   -1.7795    0.4206    0.0000 C   0  0  0  0  0  0  0  0  0  0  0  0
   -1.0838    0.8251    0.0000 C   0  0  0  0  0  0  0  0  0  0  0  0
   -3.2030    0.4206    0.0000 C   0  0  0  0  0  0  0  0  0  0  0  0
   -3.2192   -0.3882    0.0000 C   0  0  0  0  0  0  0  0  0  0  0  0
   -1.0677    1.6500    0.0000 C   0  0  0  0  0  0  0  0  0  0  0  0
   -0.3397    0.4206    0.0000 C   0  0  0  0  0  0  0  0  0  0  0  0
    0.3397    0.8251    0.0000 C   0  0  0  0  0  0  0  0  0  0  0  0
   -1.7956   -0.4045    0.0000 C   0  0  0  0  0  0  0  0  0  0  0  0
   -2.4751   -0.7927    0.0000 C   0  0  0  0  0  0  0  0  0  0  0  0
    2.4912    0.4206    0.0000 C   0  0  0  0  0  0  0  0  0  0  0  0
    1.7633    0.8088    0.0000 C   0  0  0  0  0  0  0  0  0  0  0  0
    3.9148    0.4206    0.0000 C   0  0  0  0  0  0  0  0  0  0  0  0
    0.3559    1.6339    0.0000 C   0  0  0  0  0  0  0  0  0  0  0  0
    4.6266    0.8412    0.0000 C   0  0  0  0  0  0  0  0  0  0  0  0
    3.1707    0.8251    0.0000 C   0  0  0  0  0  0  0  0  0  0  0  0
   -3.9310    1.6500    0.0000 C   0  0  0  0  0  0  0  0  0  0  0  0
   -4.6105    0.4206    0.0000 C   0  0  0  0  0  0  0  0  0  0  0  0
    2.4912   -0.3882    0.0000 C   0  0  0  0  0  0  0  0  0  0  0  0
   -1.7956    2.0545    0.0000 C   0  0  0  0  0  0  0  0  0  0  0  0
    3.2192   -0.7927    0.0000 C   0  0  0  0  0  0  0  0  0  0  0  0
   -4.6428    2.0545    0.0000 C   0  0  0  0  0  0  0  0  0  0  0  0
   -5.3384    0.8251    0.0000 C   0  0  0  0  0  0  0  0  0  0  0  0
   -3.9310   -1.6177    0.0000 C   0  0  0  0  0  0  0  0  0  0  0  0
    5.3546    1.2294    0.0000 C   0  0  0  0  0  0  0  0  0  0  0  0
    5.3546    0.4206    0.0000 C   0  0  0  0  0  0  0  0  0  0  0  0
   -4.6266   -2.0545    0.0000 C   0  0  0  0  0  0  0  0  0  0  0  0
  1 23  1  0  0  0  0
  2 13  1  0  0  0  0
  2 32  1  0  0  0  0
  3 20  2  0  0  0  0
  4 30  1  0  0  0  0
  4 31  1  0  0  0  0
  5 10  2  0  0  0  0
  5 12  1  0  0  0  0
  6 12  1  0  0  0  0
  6 25  1  0  0  0  0
  6 26  1  0  0  0  0
  7 14  1  0  0  0  0
  7 22  2  0  0  0  0
  8 16  1  0  0  0  0
  8 20  1  0  0  0  0
  9 21  1  0  0  0  0
  9 29  2  0  0  0  0
 10 11  1  0  0  0  0
 10 17  1  0  0  0  0
 11 14  2  0  0  0  0
 11 15  1  0  0  0  0
 12 13  2  0  0  0  0
 13 18  1  0  0  0  0
 14 28  1  0  0  0  0
 15 16  2  0  0  0  0
 16 22  1  0  0  0  0
 17 18  2  0  0  0  0
 19 20  1  0  0  0  0
 19 24  1  0  0  0  0
 19 27  2  0  0  0  0
 21 23  1  0  0  0  0
 21 24  2  0  0  0  0
 23 33  1  0  0  0  0
 23 34  1  0  0  0  0
 25 30  1  0  0  0  0
 26 31  1  0  0  0  0
 27 29  1  0  0  0  0
 32 35  1  0  0  0  0
M  END
> <PUBCHEM_COMPOUND_ID_TYPE>
0

> <PUBCHEM_TOTAL_CHARGE>
0

> <PUBCHEM_SUBSTANCE_ID>
310943669

> <PUBCHEM_SUBSTANCE_VERSION>
1

> <PUBCHEM_EXT_DATASOURCE_NAME>
4488

> <PUBCHEM_EXT_DATASOURCE_REGID>
SCHEMBL16121737

> <PUBCHEM_SUBSTANCE_COMMENT>
InChI=1S/C26H30FN5O3/c1-5-35-22-7-6-21(31-24(22)32-10-12-34-13-11-32)20-15-19(16-29-17(20)2)30-25(33)18-8-9-28-23(14-18)26(3,4)27/h6-9,14-16H,5,10-13H2,1-4H3,(H,30,33)
InChIKey=PFKBXQVHYCEILW-UHFFFAOYSA-N

> <PUBCHEM_SUBSTANCE_SYNONYM>
SCHEMBL16121737

> <PUBCHEM_XREF_EXT_ID>
SCHEMBL16121737

> <PUBCHEM_EXT_DATASOURCE_URL>
https://www.surechembl.org/

> <PUBCHEM_EXT_SUBSTANCE_URL>
https://www.surechembl.org/chemical/SCHEMBL16121737

> <PUBCHEM_CID_ASSOCIATIONS>
117610058  1

> <PUBCHEM_COORDINATE_TYPE>
1
3

$$$$
