310947483
  -OEChem-07211613022D

 26 28  0     0  0  0  0  0  0999 V2000
    3.1964   -3.7745    0.0000 O   0  0  0  0  0  0  0  0  0  0  0  0
    2.1861   -2.7642    0.0000 O   0  0  0  0  0  0  0  0  0  0  0  0
   -1.7026   -3.6456    0.0000 O   0  0  0  0  0  0  0  0  0  0  0  0
   -0.2737   -4.4706    0.0000 N   0  0  0  0  0  0  0  0  0  0  0  0
    0.5109   -3.3907    0.0000 N   0  0  0  0  0  0  0  0  0  0  0  0
   -2.4170   -4.8830    0.0000 N   0  0  0  0  0  0  0  0  0  0  0  0
    0.9958   -4.0581    0.0000 C   0  0  0  0  0  0  0  0  0  0  0  0
    0.5109   -4.7256    0.0000 C   0  0  0  0  0  0  0  0  0  0  0  0
    1.8162   -4.1444    0.0000 C   0  0  0  0  0  0  0  0  0  0  0  0
   -0.2737   -3.6456    0.0000 C   0  0  0  0  0  0  0  0  0  0  0  0
    0.8464   -5.4791    0.0000 C   0  0  0  0  0  0  0  0  0  0  0  0
   -0.9881   -4.8830    0.0000 C   0  0  0  0  0  0  0  0  0  0  0  0
    2.3997   -3.5609    0.0000 C   0  0  0  0  0  0  0  0  0  0  0  0
    2.1518   -4.8980    0.0000 C   0  0  0  0  0  0  0  0  0  0  0  0
   -1.7026   -4.4706    0.0000 C   0  0  0  0  0  0  0  0  0  0  0  0
    1.6669   -5.5654    0.0000 C   0  0  0  0  0  0  0  0  0  0  0  0
   -2.4170   -5.7081    0.0000 C   0  0  0  0  0  0  0  0  0  0  0  0
   -3.1315   -4.4706    0.0000 C   0  0  0  0  0  0  0  0  0  0  0  0
   -3.1315   -6.1206    0.0000 C   0  0  0  0  0  0  0  0  0  0  0  0
   -1.7026   -6.1206    0.0000 C   0  0  0  0  0  0  0  0  0  0  0  0
   -3.1315   -6.9455    0.0000 C   0  0  0  0  0  0  0  0  0  0  0  0
   -1.7026   -6.9455    0.0000 C   0  0  0  0  0  0  0  0  0  0  0  0
   -3.1315   -3.6456    0.0000 C   0  0  0  0  0  0  0  0  0  0  0  0
   -2.4170   -7.3580    0.0000 C   0  0  0  0  0  0  0  0  0  0  0  0
    3.9743   -2.9967    0.0000 C   0  0  0  0  0  0  0  0  0  0  0  0
   -3.8460   -3.2331    0.0000 C   0  0  0  0  0  0  0  0  0  0  0  0
  1 13  1  0  0  0  0
  1 25  1  0  0  0  0
  2 13  2  0  0  0  0
  3 15  2  0  0  0  0
  4  8  1  0  0  0  0
  4 10  1  0  0  0  0
  4 12  1  0  0  0  0
  5  7  1  0  0  0  0
  5 10  2  0  0  0  0
  6 15  1  0  0  0  0
  6 17  1  0  0  0  0
  6 18  1  0  0  0  0
  7  8  2  0  0  0  0
  7  9  1  0  0  0  0
  8 11  1  0  0  0  0
  9 13  1  0  0  0  0
  9 14  2  0  0  0  0
 11 16  2  0  0  0  0
 12 15  1  0  0  0  0
 14 16  1  0  0  0  0
 17 19  2  0  0  0  0
 17 20  1  0  0  0  0
 18 23  1  0  0  0  0
 19 21  1  0  0  0  0
 20 22  2  0  0  0  0
 21 24  2  0  0  0  0
 22 24  1  0  0  0  0
 23 26  1  0  0  0  0
M  END
> <PUBCHEM_COMPOUND_ID_TYPE>
0

> <PUBCHEM_TOTAL_CHARGE>
0

> <PUBCHEM_SUBSTANCE_ID>
310947483

> <PUBCHEM_SUBSTANCE_VERSION>
1

> <PUBCHEM_EXT_DATASOURCE_NAME>
4488

> <PUBCHEM_EXT_DATASOURCE_REGID>
SCHEMBL16125644

> <PUBCHEM_SUBSTANCE_COMMENT>
InChI=1S/C20H21N3O3/c1-3-12-23(15-8-5-4-6-9-15)18(24)13-22-14-21-19-16(20(25)26-2)10-7-11-17(19)22/h4-11,14H,3,12-13H2,1-2H3
InChIKey=XUVOXLIHBDHACH-UHFFFAOYSA-N

> <PUBCHEM_SUBSTANCE_SYNONYM>
SCHEMBL16125644

> <PUBCHEM_XREF_EXT_ID>
SCHEMBL16125644

> <PUBCHEM_EXT_DATASOURCE_URL>
https://www.surechembl.org/

> <PUBCHEM_EXT_SUBSTANCE_URL>
https://www.surechembl.org/chemical/SCHEMBL16125644

> <PUBCHEM_CID_ASSOCIATIONS>
117613213  1

> <PUBCHEM_COORDINATE_TYPE>
1
3

$$$$
