310929760
  -OEChem-07211613022D

 27 28  0     0  0  0  0  0  0999 V2000
   12.0200   -2.8447    0.0000 Cl  0  0  0  0  0  0  0  0  0  0  0  0
   10.5776   -3.6862    0.0000 O   0  0  0  0  0  0  0  0  0  0  0  0
   10.5776   -0.4007    0.0000 O   0  0  0  0  0  0  0  0  0  0  0  0
    0.0000   -1.6427    0.0000 O   0  0  0  0  0  0  0  0  0  0  0  0
    9.1753   -1.2421    0.0000 N   0  0  0  0  0  0  0  0  0  0  0  0
    9.8964   -2.4441    0.0000 C   0  0  0  0  0  0  0  0  0  0  0  0
    9.8964   -1.6427    0.0000 C   0  0  0  0  0  0  0  0  0  0  0  0
   10.5776   -2.8447    0.0000 C   0  0  0  0  0  0  0  0  0  0  0  0
   10.5776   -1.2421    0.0000 C   0  0  0  0  0  0  0  0  0  0  0  0
   11.2988   -2.4441    0.0000 C   0  0  0  0  0  0  0  0  0  0  0  0
   11.2988   -1.6427    0.0000 C   0  0  0  0  0  0  0  0  0  0  0  0
    9.1753   -2.8848    0.0000 C   0  0  0  0  0  0  0  0  0  0  0  0
    8.4541   -1.6427    0.0000 C   0  0  0  0  0  0  0  0  0  0  0  0
    8.4941   -2.4441    0.0000 C   0  0  0  0  0  0  0  0  0  0  0  0
    7.7729   -1.2421    0.0000 C   0  0  0  0  0  0  0  0  0  0  0  0
   11.2988   -4.0868    0.0000 C   0  0  0  0  0  0  0  0  0  0  0  0
    9.8564    0.0000    0.0000 C   0  0  0  0  0  0  0  0  0  0  0  0
    7.0517   -1.6427    0.0000 C   0  0  0  0  0  0  0  0  0  0  0  0
    6.3305   -1.2421    0.0000 C   0  0  0  0  0  0  0  0  0  0  0  0
    5.6494   -1.6427    0.0000 C   0  0  0  0  0  0  0  0  0  0  0  0
    4.9282   -1.2421    0.0000 C   0  0  0  0  0  0  0  0  0  0  0  0
    4.2471   -1.6427    0.0000 C   0  0  0  0  0  0  0  0  0  0  0  0
    3.5259   -1.2421    0.0000 C   0  0  0  0  0  0  0  0  0  0  0  0
    2.8047   -1.6427    0.0000 C   0  0  0  0  0  0  0  0  0  0  0  0
    2.1235   -1.2421    0.0000 C   0  0  0  0  0  0  0  0  0  0  0  0
    1.4023   -1.6427    0.0000 C   0  0  0  0  0  0  0  0  0  0  0  0
    0.6811   -1.2421    0.0000 C   0  0  0  0  0  0  0  0  0  0  0  0
  1 10  1  0  0  0  0
  2  8  1  0  0  0  0
  2 16  1  0  0  0  0
  3  9  1  0  0  0  0
  3 17  1  0  0  0  0
  4 27  1  0  0  0  0
  5  7  2  0  0  0  0
  5 13  1  0  0  0  0
  6  7  1  0  0  0  0
  6  8  1  0  0  0  0
  6 12  2  0  0  0  0
  7  9  1  0  0  0  0
  8 10  2  0  0  0  0
  9 11  2  0  0  0  0
 10 11  1  0  0  0  0
 12 14  1  0  0  0  0
 13 14  2  0  0  0  0
 13 15  1  0  0  0  0
 15 18  1  0  0  0  0
 18 19  1  0  0  0  0
 19 20  1  0  0  0  0
 20 21  1  0  0  0  0
 21 22  1  0  0  0  0
 22 23  1  0  0  0  0
 23 24  1  0  0  0  0
 24 25  1  0  0  0  0
 25 26  1  0  0  0  0
 26 27  1  0  0  0  0
M  END
> <PUBCHEM_COMPOUND_ID_TYPE>
0

> <PUBCHEM_TOTAL_CHARGE>
0

> <PUBCHEM_SUBSTANCE_ID>
310929760

> <PUBCHEM_SUBSTANCE_VERSION>
1

> <PUBCHEM_EXT_DATASOURCE_NAME>
4488

> <PUBCHEM_EXT_DATASOURCE_REGID>
SCHEMBL16106958

> <PUBCHEM_SUBSTANCE_COMMENT>
InChI=1S/C22H32ClNO3/c1-26-20-16-19(23)22(27-2)18-14-13-17(24-21(18)20)12-10-8-6-4-3-5-7-9-11-15-25/h13-14,16,25H,3-12,15H2,1-2H3
InChIKey=RUYKCINGJGFMCL-UHFFFAOYSA-N

> <PUBCHEM_SUBSTANCE_SYNONYM>
SCHEMBL16106958

> <PUBCHEM_XREF_EXT_ID>
SCHEMBL16106958

> <PUBCHEM_EXT_DATASOURCE_URL>
https://www.surechembl.org/

> <PUBCHEM_EXT_SUBSTANCE_URL>
https://www.surechembl.org/chemical/SCHEMBL16106958

> <PUBCHEM_CID_ASSOCIATIONS>
85471915  1

> <PUBCHEM_COORDINATE_TYPE>
1
3

$$$$
