310940117
  -OEChem-07211613022D

 43 47  0     1  0  0  0  0  0999 V2000
   -2.3832   -3.4882    0.0000 S   0  0  0  0  0  0  0  0  0  0  0  0
   -0.1300    1.2566    0.0000 F   0  0  0  0  0  0  0  0  0  0  0  0
   -2.9898   -2.9465    0.0000 O   0  0  0  0  0  0  0  0  0  0  0  0
   -3.1632   -3.7482    0.0000 O   0  0  0  0  0  0  0  0  0  0  0  0
   -1.3433   -1.3216    0.0000 O   0  0  0  0  0  0  0  0  0  0  0  0
    0.8883    4.0732    0.0000 O   0  0  0  0  0  0  0  0  0  0  0  0
    2.2965    3.9215    0.0000 O   0  0  0  0  0  0  0  0  0  0  0  0
    0.8017    0.4333    0.0000 N   0  0  0  0  0  0  0  0  0  0  0  0
   -2.0366   -4.2681    0.0000 N   0  0  3  0  0  0  0  0  0  0  0  0
    1.0616   -0.3683    0.0000 N   0  0  0  0  0  0  0  0  0  0  0  0
    0.3900   -1.6899    0.0000 N   0  0  0  0  0  0  0  0  0  0  0  0
    1.4733    2.7516    0.0000 N   0  0  0  0  0  0  0  0  0  0  0  0
   -1.6466    0.0867    0.0000 N   0  0  0  0  0  0  0  0  0  0  0  0
    3.2715    0.1733    0.0000 N   0  0  0  0  0  0  0  0  0  0  0  0
    1.3216    1.0616    0.0000 C   0  0  3  0  0  0  0  0  0  0  0  0
   -0.0217    0.4333    0.0000 C   0  0  0  0  0  0  0  0  0  0  0  0
   -0.3034   -0.3466    0.0000 C   0  0  0  0  0  0  0  0  0  0  0  0
    0.3900   -0.8450    0.0000 C   0  0  0  0  0  0  0  0  0  0  0  0
   -1.7549   -2.9465    0.0000 C   0  0  0  0  0  0  0  0  0  0  0  0
   -1.0399   -3.3365    0.0000 C   0  0  0  0  0  0  0  0  0  0  0  0
    0.6283    1.6033    0.0000 C   0  0  3  0  0  0  0  0  0  0  0  0
    2.0366    1.4300    0.0000 C   0  0  0  0  0  0  0  0  0  0  0  0
   -1.0833   -0.5200    0.0000 C   0  0  0  0  0  0  0  0  0  0  0  0
   -1.2133   -4.1599    0.0000 C   0  0  0  0  0  0  0  0  0  0  0  0
   -0.3250   -2.0799    0.0000 C   0  0  0  0  0  0  0  0  0  0  0  0
   -2.4482   -4.9831    0.0000 C   0  0  0  0  0  0  0  0  0  0  0  0
    1.6466    0.3466    0.0000 C   0  0  0  0  0  0  0  0  0  0  0  0
   -0.5850    1.0399    0.0000 C   0  0  0  0  0  0  0  0  0  0  0  0
   -0.3466   -2.9465    0.0000 C   0  0  0  0  0  0  0  0  0  0  0  0
   -1.7332   -2.1016    0.0000 C   0  0  0  0  0  0  0  0  0  0  0  0
    0.7150    2.4265    0.0000 C   0  0  0  0  0  0  0  0  0  0  0  0
   -1.0399   -1.6899    0.0000 C   0  0  0  0  0  0  0  0  0  0  0  0
    2.1449    2.2533    0.0000 C   0  0  0  0  0  0  0  0  0  0  0  0
   -1.3650    0.8667    0.0000 C   0  0  0  0  0  0  0  0  0  0  0  0
    1.5600    3.5748    0.0000 C   0  0  0  0  0  0  0  0  0  0  0  0
    2.4265    0.2384    0.0000 C   0  0  0  0  0  0  0  0  0  0  0  0
   -3.2715   -5.0048    0.0000 C   0  0  0  0  0  0  0  0  0  0  0  0
   -2.8166   -5.7197    0.0000 C   0  0  0  0  0  0  0  0  0  0  0  0
   -1.9933   -5.7197    0.0000 C   0  0  0  0  0  0  0  0  0  0  0  0
    0.9750    4.9181    0.0000 C   0  0  0  0  0  0  0  0  0  0  0  0
    1.0399    5.7197    0.0000 C   0  0  0  0  0  0  0  0  0  0  0  0
    0.3249    5.3948    0.0000 C   0  0  0  0  0  0  0  0  0  0  0  0
    1.7549    5.2431    0.0000 C   0  0  0  0  0  0  0  0  0  0  0  0
  1  3  2  0  0  0  0
  1  4  2  0  0  0  0
  1  9  1  0  0  0  0
  1 19  1  0  0  0  0
 21  2  1  6  0  0  0
  5 23  2  0  0  0  0
  6 35  1  0  0  0  0
  6 40  1  0  0  0  0
  7 35  2  0  0  0  0
  8 10  1  0  0  0  0
  8 15  1  0  0  0  0
  8 16  1  0  0  0  0
  9 24  1  0  0  0  0
  9 26  1  0  0  0  0
 10 18  2  0  0  0  0
 11 18  1  0  0  0  0
 11 25  1  0  0  0  0
 12 31  1  0  0  0  0
 12 33  1  0  0  0  0
 12 35  1  0  0  0  0
 13 23  1  0  0  0  0
 13 34  1  0  0  0  0
 14 36  3  0  0  0  0
 15 21  1  0  0  0  0
 15 22  1  0  0  0  0
 15 27  1  1  0  0  0
 16 17  2  0  0  0  0
 16 28  1  0  0  0  0
 17 18  1  0  0  0  0
 17 23  1  0  0  0  0
 19 20  2  0  0  0  0
 19 30  1  0  0  0  0
 20 24  1  0  0  0  0
 20 29  1  0  0  0  0
 21 31  1  0  0  0  0
 22 33  1  0  0  0  0
 25 29  2  0  0  0  0
 25 32  1  0  0  0  0
 26 37  1  0  0  0  0
 26 38  1  0  0  0  0
 26 39  1  0  0  0  0
 27 36  1  0  0  0  0
 28 34  2  0  0  0  0
 30 32  2  0  0  0  0
 40 41  1  0  0  0  0
 40 42  1  0  0  0  0
 40 43  1  0  0  0  0
M  END
> <PUBCHEM_COMPOUND_ID_TYPE>
0

> <PUBCHEM_TOTAL_CHARGE>
0

> <PUBCHEM_SUBSTANCE_ID>
310940117

> <PUBCHEM_SUBSTANCE_VERSION>
1

> <PUBCHEM_EXT_DATASOURCE_NAME>
4488

> <PUBCHEM_EXT_DATASOURCE_REGID>
SCHEMBL16118049

> <PUBCHEM_SUBSTANCE_COMMENT>
InChI=1S/C29H36FN7O5S/c1-27(2,3)36-16-18-15-19(7-8-21(18)43(36,40)41)33-24-23-20(9-13-32-25(23)38)37(34-24)29(10-12-31)11-14-35(17-22(29)30)26(39)42-28(4,5)6/h7-9,13,15,22H,10-11,14,16-17H2,1-6H3,(H,32,38)(H,33,34)/t22-,29+/m1/s1
InChIKey=SFJVTTMWKMNHQE-MNNSJKJDSA-N

> <PUBCHEM_SUBSTANCE_SYNONYM>
SCHEMBL16118049

> <PUBCHEM_XREF_EXT_ID>
SCHEMBL16118049

> <PUBCHEM_EXT_DATASOURCE_URL>
https://www.surechembl.org/

> <PUBCHEM_EXT_SUBSTANCE_URL>
https://www.surechembl.org/chemical/SCHEMBL16118049

> <PUBCHEM_CID_ASSOCIATIONS>
117607244  1

> <PUBCHEM_COORDINATE_TYPE>
1
3

> <PUBCHEM_BONDANNOTATIONS>
15  27  5
21  2  6

$$$$
