310948984
  -OEChem-07211613022D

 25 27  0     0  0  0  0  0  0999 V2000
    2.0615    1.8897    0.0000 Cl  0  0  0  0  0  0  0  0  0  0  0  0
    0.1885   -2.3109    0.0000 F   0  0  0  0  0  0  0  0  0  0  0  0
   -0.5320   -2.7209    0.0000 F   0  0  0  0  0  0  0  0  0  0  0  0
   -0.8091    1.8897    0.0000 F   0  0  0  0  0  0  0  0  0  0  0  0
   -0.1885   -1.1471    0.0000 O   0  0  0  0  0  0  0  0  0  0  0  0
   -1.3522   -1.8121    0.0000 O   0  0  0  0  0  0  0  0  0  0  0  0
    2.0615   -0.5930    0.0000 O   0  0  0  0  0  0  0  0  0  0  0  0
    2.7819    0.6484    0.0000 O   0  0  0  0  0  0  0  0  0  0  0  0
    0.6206    0.2383    0.0000 N   0  0  0  0  0  0  0  0  0  0  0  0
    0.6206    2.7209    0.0000 N   0  0  0  0  0  0  0  0  0  0  0  0
   -0.8091   -0.5819    0.0000 C   0  0  0  0  0  0  0  0  0  0  0  0
   -0.8091    0.2494    0.0000 C   0  0  0  0  0  0  0  0  0  0  0  0
   -1.5295   -0.9919    0.0000 C   0  0  0  0  0  0  0  0  0  0  0  0
   -0.0998    0.6594    0.0000 C   0  0  0  0  0  0  0  0  0  0  0  0
   -0.5209   -1.9008    0.0000 C   0  0  0  0  0  0  0  0  0  0  0  0
   -0.0887    1.4907    0.0000 C   0  0  0  0  0  0  0  0  0  0  0  0
   -2.2388   -0.5819    0.0000 C   0  0  0  0  0  0  0  0  0  0  0  0
    1.3300    0.6594    0.0000 C   0  0  0  0  0  0  0  0  0  0  0  0
    0.6317    1.9008    0.0000 C   0  0  0  0  0  0  0  0  0  0  0  0
   -1.5184    0.6484    0.0000 C   0  0  0  0  0  0  0  0  0  0  0  0
    1.3522    1.4796    0.0000 C   0  0  0  0  0  0  0  0  0  0  0  0
   -2.2277    0.2494    0.0000 C   0  0  0  0  0  0  0  0  0  0  0  0
    2.0394    0.2383    0.0000 C   0  0  0  0  0  0  0  0  0  0  0  0
   -2.7930   -0.9143    0.0000 C   0  0  0  0  0  0  0  0  0  0  0  0
    2.7930   -1.0141    0.0000 C   0  0  0  0  0  0  0  0  0  0  0  0
  1 21  1  0  0  0  0
  2 15  1  0  0  0  0
  3 15  1  0  0  0  0
  4 16  1  0  0  0  0
  5 11  1  0  0  0  0
  5 15  1  0  0  0  0
  6 13  1  0  0  0  0
  6 15  1  0  0  0  0
  7 23  1  0  0  0  0
  7 25  1  0  0  0  0
  8 23  2  0  0  0  0
  9 14  2  0  0  0  0
  9 18  1  0  0  0  0
 10 19  1  0  0  0  0
 11 12  1  0  0  0  0
 11 13  2  0  0  0  0
 12 14  1  0  0  0  0
 12 20  2  0  0  0  0
 13 17  1  0  0  0  0
 14 16  1  0  0  0  0
 16 19  2  0  0  0  0
 17 22  2  0  0  0  0
 17 24  1  0  0  0  0
 18 21  2  0  0  0  0
 18 23  1  0  0  0  0
 19 21  1  0  0  0  0
 20 22  1  0  0  0  0
M  END
> <PUBCHEM_COMPOUND_ID_TYPE>
0

> <PUBCHEM_TOTAL_CHARGE>
0

> <PUBCHEM_SUBSTANCE_ID>
310948984

> <PUBCHEM_SUBSTANCE_VERSION>
1

> <PUBCHEM_EXT_DATASOURCE_NAME>
4488

> <PUBCHEM_EXT_DATASOURCE_REGID>
SCHEMBL16127172

> <PUBCHEM_SUBSTANCE_COMMENT>
InChI=1S/C15H10ClF3N2O4/c1-5-3-4-6(13-12(5)24-15(18,19)25-13)10-8(17)9(20)7(16)11(21-10)14(22)23-2/h3-4H,1-2H3,(H2,20,21)
InChIKey=XDPKWPWSMBWCSQ-UHFFFAOYSA-N

> <PUBCHEM_SUBSTANCE_SYNONYM>
SCHEMBL16127172

> <PUBCHEM_XREF_EXT_ID>
SCHEMBL16127172

> <PUBCHEM_EXT_DATASOURCE_URL>
https://www.surechembl.org/

> <PUBCHEM_EXT_SUBSTANCE_URL>
https://www.surechembl.org/chemical/SCHEMBL16127172

> <PUBCHEM_CID_ASSOCIATIONS>
117614493  1

> <PUBCHEM_COORDINATE_TYPE>
1
3

$$$$
