310942231
  -OEChem-07211613022D

 29 31  0     1  0  0  0  0  0999 V2000
    1.0687    1.4499    0.0000 Cl  0  0  0  0  0  0  0  0  0  0  0  0
   -0.3688   -1.0500    0.0000 F   0  0  0  0  0  0  0  0  0  0  0  0
    1.0687   -0.2125    0.0000 O   0  0  0  0  0  0  0  0  0  0  0  0
    3.9435   -0.2125    0.0000 O   0  0  0  0  0  0  0  0  0  0  0  0
    3.9435    1.4499    0.0000 O   0  0  0  0  0  0  0  0  0  0  0  0
   -3.9435    0.2250    0.0000 O   0  0  0  0  0  0  0  0  0  0  0  0
   -2.5311    0.2000    0.0000 N   0  0  0  0  0  0  0  0  0  0  0  0
   -4.6810    1.4624    0.0000 N   0  0  0  0  0  0  0  0  0  0  0  0
    0.3437    0.2125    0.0000 C   0  0  0  0  0  0  0  0  0  0  0  0
   -0.3812   -0.2000    0.0000 C   0  0  0  0  0  0  0  0  0  0  0  0
   -1.0937    0.2125    0.0000 C   0  0  0  0  0  0  0  0  0  0  0  0
    0.3562    1.0500    0.0000 C   0  0  0  0  0  0  0  0  0  0  0  0
    1.7937    0.2125    0.0000 C   0  0  0  0  0  0  0  0  0  0  0  0
   -1.8061   -0.2000    0.0000 C   0  0  3  0  0  0  0  0  0  0  0  0
    3.2311    0.2125    0.0000 C   0  0  0  0  0  0  0  0  0  0  0  0
   -1.0812    1.0374    0.0000 C   0  0  0  0  0  0  0  0  0  0  0  0
    3.2435    1.0500    0.0000 C   0  0  0  0  0  0  0  0  0  0  0  0
    2.5311   -0.2000    0.0000 C   0  0  0  0  0  0  0  0  0  0  0  0
   -0.3812    1.4374    0.0000 C   0  0  0  0  0  0  0  0  0  0  0  0
    1.8061    1.0374    0.0000 C   0  0  0  0  0  0  0  0  0  0  0  0
    2.5186    1.4374    0.0000 C   0  0  0  0  0  0  0  0  0  0  0  0
   -1.8061   -1.0500    0.0000 C   0  0  0  0  0  0  0  0  0  0  0  0
   -2.5311    1.0374    0.0000 C   0  0  3  0  0  0  0  0  0  0  0  0
    4.6810    0.2000    0.0000 C   0  0  0  0  0  0  0  0  0  0  0  0
    4.6810    1.0374    0.0000 C   0  0  0  0  0  0  0  0  0  0  0  0
   -3.2561    1.4499    0.0000 C   0  0  0  0  0  0  0  0  0  0  0  0
   -1.0937   -1.4624    0.0000 C   0  0  0  0  0  0  0  0  0  0  0  0
   -1.8186    1.4499    0.0000 C   0  0  0  0  0  0  0  0  0  0  0  0
   -3.9685    1.0374    0.0000 C   0  0  0  0  0  0  0  0  0  0  0  0
  1 12  1  0  0  0  0
  2 10  1  0  0  0  0
  3  9  1  0  0  0  0
  3 13  1  0  0  0  0
  4 15  1  0  0  0  0
  4 24  1  0  0  0  0
  5 17  1  0  0  0  0
  5 25  1  0  0  0  0
  6 29  2  0  0  0  0
 14  7  1  1  0  0  0
  7 23  1  0  0  0  0
  8 29  1  0  0  0  0
  9 10  2  0  0  0  0
  9 12  1  0  0  0  0
 10 11  1  0  0  0  0
 11 14  1  0  0  0  0
 11 16  2  0  0  0  0
 12 19  2  0  0  0  0
 13 18  2  0  0  0  0
 13 20  1  0  0  0  0
 14 22  1  0  0  0  0
 15 17  2  0  0  0  0
 15 18  1  0  0  0  0
 16 19  1  0  0  0  0
 17 21  1  0  0  0  0
 20 21  2  0  0  0  0
 22 27  1  0  0  0  0
 23 26  1  0  0  0  0
 23 28  1  6  0  0  0
 24 25  1  0  0  0  0
 26 29  1  0  0  0  0
M  END
> <PUBCHEM_COMPOUND_ID_TYPE>
0

> <PUBCHEM_TOTAL_CHARGE>
0

> <PUBCHEM_SUBSTANCE_ID>
310942231

> <PUBCHEM_SUBSTANCE_VERSION>
1

> <PUBCHEM_EXT_DATASOURCE_NAME>
4488

> <PUBCHEM_EXT_DATASOURCE_REGID>
SCHEMBL16120266

> <PUBCHEM_SUBSTANCE_COMMENT>
InChI=1S/C21H24ClFN2O4/c1-3-16(25-12(2)10-19(24)26)14-5-6-15(22)21(20(14)23)29-13-4-7-17-18(11-13)28-9-8-27-17/h4-7,11-12,16,25H,3,8-10H2,1-2H3,(H2,24,26)/t12-,16+/m0/s1
InChIKey=CJHYIMMBPWUWKM-BLLLJJGKSA-N

> <PUBCHEM_SUBSTANCE_SYNONYM>
SCHEMBL16120266

> <PUBCHEM_XREF_EXT_ID>
SCHEMBL16120266

> <PUBCHEM_EXT_DATASOURCE_URL>
https://www.surechembl.org/

> <PUBCHEM_EXT_SUBSTANCE_URL>
https://www.surechembl.org/chemical/SCHEMBL16120266

> <PUBCHEM_CID_ASSOCIATIONS>
117608882  1

> <PUBCHEM_COORDINATE_TYPE>
1
3

> <PUBCHEM_BONDANNOTATIONS>
23  28  6
14  7  5

$$$$
