310931422
  -OEChem-07211613022D

 37 41  0     0  0  0  0  0  0999 V2000
    0.9220   -5.1925    0.0000 O   0  0  0  0  0  0  0  0  0  0  0  0
    0.0000   -8.9291    0.0000 O   0  0  0  0  0  0  0  0  0  0  0  0
    3.4940   -9.2203    0.0000 O   0  0  0  0  0  0  0  0  0  0  0  0
    3.1058   -1.2617    0.0000 O   0  0  0  0  0  0  0  0  0  0  0  0
    2.3779   -4.9984    0.0000 N   0  0  0  0  0  0  0  0  0  0  0  0
    2.8146   -6.2601    0.0000 N   0  0  0  0  0  0  0  0  0  0  0  0
    3.8337   -5.1925    0.0000 N   0  0  0  0  0  0  0  0  0  0  0  0
    2.3779   -2.4749    0.0000 N   0  0  0  0  0  0  0  0  0  0  0  0
    1.9896   -6.2601    0.0000 C   0  0  0  0  0  0  0  0  0  0  0  0
    1.6985   -5.4351    0.0000 C   0  0  0  0  0  0  0  0  0  0  0  0
    1.4559   -6.9395    0.0000 C   0  0  0  0  0  0  0  0  0  0  0  0
    2.3293   -6.9880    0.0000 C   0  0  0  0  0  0  0  0  0  0  0  0
    3.0573   -5.4351    0.0000 C   0  0  0  0  0  0  0  0  0  0  0  0
    2.3779   -4.1249    0.0000 C   0  0  0  0  0  0  0  0  0  0  0  0
    1.8441   -7.7159    0.0000 C   0  0  0  0  0  0  0  0  0  0  0  0
    3.2028   -7.0365    0.0000 C   0  0  0  0  0  0  0  0  0  0  0  0
    0.6794   -6.8425    0.0000 C   0  0  0  0  0  0  0  0  0  0  0  0
    2.0381   -7.8615    0.0000 C   0  0  0  0  0  0  0  0  0  0  0  0
    3.1058   -3.7367    0.0000 C   0  0  0  0  0  0  0  0  0  0  0  0
    1.6499   -3.7367    0.0000 C   0  0  0  0  0  0  0  0  0  0  0  0
    1.3102   -8.3468    0.0000 C   0  0  0  0  0  0  0  0  0  0  0  0
    3.5425   -7.7645    0.0000 C   0  0  0  0  0  0  0  0  0  0  0  0
    0.1456   -7.5219    0.0000 C   0  0  0  0  0  0  0  0  0  0  0  0
    2.2808   -8.4439    0.0000 C   0  0  0  0  0  0  0  0  0  0  0  0
    0.4853   -8.2498    0.0000 C   0  0  0  0  0  0  0  0  0  0  0  0
    3.1058   -8.4924    0.0000 C   0  0  0  0  0  0  0  0  0  0  0  0
    3.1058   -2.9117    0.0000 C   0  0  0  0  0  0  0  0  0  0  0  0
    1.6499   -2.9117    0.0000 C   0  0  0  0  0  0  0  0  0  0  0  0
    2.3779   -1.6499    0.0000 C   0  0  0  0  0  0  0  0  0  0  0  0
    1.6499   -1.2617    0.0000 C   0  0  0  0  0  0  0  0  0  0  0  0
    1.6499   -0.4367    0.0000 C   0  0  0  0  0  0  0  0  0  0  0  0
    0.9706   -1.6499    0.0000 C   0  0  0  0  0  0  0  0  0  0  0  0
    0.3397   -9.7056    0.0000 C   0  0  0  0  0  0  0  0  0  0  0  0
    4.2704   -9.2688    0.0000 C   0  0  0  0  0  0  0  0  0  0  0  0
    0.9706    0.0000    0.0000 C   0  0  0  0  0  0  0  0  0  0  0  0
    0.2427   -1.2617    0.0000 C   0  0  0  0  0  0  0  0  0  0  0  0
    0.2427   -0.3882    0.0000 C   0  0  0  0  0  0  0  0  0  0  0  0
  1 10  2  0  0  0  0
  2 25  1  0  0  0  0
  2 33  1  0  0  0  0
  3 26  1  0  0  0  0
  3 34  1  0  0  0  0
  4 29  2  0  0  0  0
  5 10  1  0  0  0  0
  5 13  1  0  0  0  0
  5 14  1  0  0  0  0
  6  9  1  0  0  0  0
  6 13  1  0  0  0  0
  7 13  2  3  0  0  0
  8 27  1  0  0  0  0
  8 28  1  0  0  0  0
  8 29  1  0  0  0  0
  9 10  1  0  0  0  0
  9 11  1  0  0  0  0
  9 12  1  0  0  0  0
 11 15  2  0  0  0  0
 11 17  1  0  0  0  0
 12 16  2  0  0  0  0
 12 18  1  0  0  0  0
 14 19  1  0  0  0  0
 14 20  1  0  0  0  0
 15 21  1  0  0  0  0
 16 22  1  0  0  0  0
 17 23  2  0  0  0  0
 18 24  2  0  0  0  0
 19 27  1  0  0  0  0
 20 28  1  0  0  0  0
 21 25  2  0  0  0  0
 22 26  2  0  0  0  0
 23 25  1  0  0  0  0
 24 26  1  0  0  0  0
 29 30  1  0  0  0  0
 30 31  2  0  0  0  0
 30 32  1  0  0  0  0
 31 35  1  0  0  0  0
 32 36  2  0  0  0  0
 35 37  2  0  0  0  0
 36 37  1  0  0  0  0
M  END
> <PUBCHEM_COMPOUND_ID_TYPE>
0

> <PUBCHEM_TOTAL_CHARGE>
0

> <PUBCHEM_SUBSTANCE_ID>
310931422

> <PUBCHEM_SUBSTANCE_VERSION>
1

> <PUBCHEM_EXT_DATASOURCE_NAME>
4488

> <PUBCHEM_EXT_DATASOURCE_REGID>
SCHEMBL16108747

> <PUBCHEM_SUBSTANCE_COMMENT>
InChI=1S/C29H30N4O4/c1-36-24-12-8-21(9-13-24)29(22-10-14-25(37-2)15-11-22)27(35)33(28(30)31-29)23-16-18-32(19-17-23)26(34)20-6-4-3-5-7-20/h3-15,23H,16-19H2,1-2H3,(H2,30,31)
InChIKey=BGUIVSJLZSNGPA-UHFFFAOYSA-N

> <PUBCHEM_SUBSTANCE_SYNONYM>
SCHEMBL16108747

> <PUBCHEM_XREF_EXT_ID>
SCHEMBL16108747

> <PUBCHEM_EXT_DATASOURCE_URL>
https://www.surechembl.org/

> <PUBCHEM_EXT_SUBSTANCE_URL>
https://www.surechembl.org/chemical/SCHEMBL16108747

> <PUBCHEM_CID_ASSOCIATIONS>
86273116  1

> <PUBCHEM_COORDINATE_TYPE>
1
3

$$$$
