310940939
  -OEChem-07211613022D

 41 44  0     1  0  0  0  0  0999 V2000
    4.7250    0.6790    0.0000 O   0  0  0  0  0  0  0  0  0  0  0  0
    3.6026   -1.2886    0.0000 O   0  0  0  0  0  0  0  0  0  0  0  0
    1.4411    0.7898    0.0000 O   0  0  0  0  0  0  0  0  0  0  0  0
   -0.7205   -1.2886    0.0000 O   0  0  0  0  0  0  0  0  0  0  0  0
   -2.8821    0.7898    0.0000 O   0  0  0  0  0  0  0  0  0  0  0  0
    3.6026   -2.9514    0.0000 O   0  0  0  0  0  0  0  0  0  0  0  0
   -5.0299   -1.2886    0.0000 O   0  0  0  0  0  0  0  0  0  0  0  0
    2.1616   -0.4572    0.0000 N   0  0  0  0  0  0  0  0  0  0  0  0
    0.0000   -0.0415    0.0000 N   0  0  0  0  0  0  0  0  0  0  0  0
   -2.1477   -0.4572    0.0000 N   0  0  0  0  0  0  0  0  0  0  0  0
    4.3093    0.0000    0.0000 C   0  0  3  0  0  0  0  0  0  0  0  0
    3.5888   -0.4157    0.0000 C   0  0  0  0  0  0  0  0  0  0  0  0
    3.9213    0.6928    0.0000 C   0  0  0  0  0  0  0  0  0  0  0  0
    2.8683   -0.0138    0.0000 C   0  0  3  0  0  0  0  0  0  0  0  0
    5.0299   -0.4295    0.0000 C   0  0  0  0  0  0  0  0  0  0  0  0
    2.8821    1.3025    0.0000 C   0  0  0  0  0  0  0  0  0  0  0  0
    1.4411   -0.0415    0.0000 C   0  0  0  0  0  0  0  0  0  0  0  0
    0.7344   -0.4295    0.0000 C   0  0  3  0  0  0  0  0  0  0  0  0
    2.1477    1.7320    0.0000 C   0  0  0  0  0  0  0  0  0  0  0  0
    0.7067   -1.2748    0.0000 C   0  0  0  0  0  0  0  0  0  0  0  0
   -0.7067   -0.4157    0.0000 C   0  0  0  0  0  0  0  0  0  0  0  0
    1.4549   -1.6628    0.0000 C   0  0  0  0  0  0  0  0  0  0  0  0
    2.1616    2.5496    0.0000 C   0  0  0  0  0  0  0  0  0  0  0  0
    1.4549    1.3163    0.0000 C   0  0  0  0  0  0  0  0  0  0  0  0
   -1.4272   -0.0138    0.0000 C   0  0  3  0  0  0  0  0  0  0  0  0
    1.4549   -2.5080    0.0000 C   0  0  0  0  0  0  0  0  0  0  0  0
    2.1477   -1.2748    0.0000 C   0  0  0  0  0  0  0  0  0  0  0  0
   -2.8821   -0.0277    0.0000 C   0  0  0  0  0  0  0  0  0  0  0  0
   -3.5750   -0.4295    0.0000 C   0  0  0  0  0  0  0  0  0  0  0  0
    1.4272    2.9514    0.0000 C   0  0  0  0  0  0  0  0  0  0  0  0
    0.7344    1.7320    0.0000 C   0  0  0  0  0  0  0  0  0  0  0  0
    2.8821   -2.4941    0.0000 C   0  0  0  0  0  0  0  0  0  0  0  0
    2.1754   -2.9098    0.0000 C   0  0  0  0  0  0  0  0  0  0  0  0
    2.8821   -1.6767    0.0000 C   0  0  0  0  0  0  0  0  0  0  0  0
    0.7344    2.5496    0.0000 C   0  0  0  0  0  0  0  0  0  0  0  0
   -1.4272    0.7898    0.0000 C   0  0  0  0  0  0  0  0  0  0  0  0
   -3.5888   -1.2610    0.0000 C   0  0  0  0  0  0  0  0  0  0  0  0
   -4.3370   -0.0277    0.0000 C   0  0  0  0  0  0  0  0  0  0  0  0
   -4.2816   -1.6628    0.0000 C   0  0  0  0  0  0  0  0  0  0  0  0
   -5.0160   -0.4295    0.0000 C   0  0  0  0  0  0  0  0  0  0  0  0
    4.3370   -2.5218    0.0000 C   0  0  0  0  0  0  0  0  0  0  0  0
  1 11  1  0  0  0  0
  1 13  1  0  0  0  0
  2 12  2  0  0  0  0
  3 17  2  0  0  0  0
  4 21  2  0  0  0  0
  5 28  2  0  0  0  0
  6 32  1  0  0  0  0
  6 41  1  0  0  0  0
  7 39  1  0  0  0  0
  7 40  1  0  0  0  0
 14  8  1  1  0  0  0
  8 17  1  0  0  0  0
 18  9  1  6  0  0  0
  9 21  1  0  0  0  0
 10 25  1  0  0  0  0
 10 28  1  0  0  0  0
 11 12  1  1  0  0  0
 11 13  1  0  0  0  0
 11 15  1  6  0  0  0
 12 14  1  0  0  0  0
 14 16  1  0  0  0  0
 16 19  1  0  0  0  0
 17 18  1  0  0  0  0
 18 20  1  0  0  0  0
 19 23  2  0  0  0  0
 19 24  1  0  0  0  0
 20 22  1  0  0  0  0
 21 25  1  0  0  0  0
 22 26  2  0  0  0  0
 22 27  1  0  0  0  0
 23 30  1  0  0  0  0
 24 31  2  0  0  0  0
 25 36  1  6  0  0  0
 26 33  1  0  0  0  0
 27 34  2  0  0  0  0
 28 29  1  0  0  0  0
 29 37  1  0  0  0  0
 29 38  1  0  0  0  0
 30 35  2  0  0  0  0
 31 35  1  0  0  0  0
 32 33  2  0  0  0  0
 32 34  1  0  0  0  0
 37 39  1  0  0  0  0
 38 40  1  0  0  0  0
M  END
> <PUBCHEM_COMPOUND_ID_TYPE>
0

> <PUBCHEM_TOTAL_CHARGE>
0

> <PUBCHEM_SUBSTANCE_ID>
310940939

> <PUBCHEM_SUBSTANCE_VERSION>
1

> <PUBCHEM_EXT_DATASOURCE_NAME>
4488

> <PUBCHEM_EXT_DATASOURCE_REGID>
SCHEMBL16118898

> <PUBCHEM_SUBSTANCE_COMMENT>
InChI=1S/C31H39N3O7/c1-20(32-29(37)23-13-15-40-16-14-23)28(36)34-26(18-22-9-11-24(39-3)12-10-22)30(38)33-25(27(35)31(2)19-41-31)17-21-7-5-4-6-8-21/h4-12,20,23,25-26H,13-19H2,1-3H3,(H,32,37)(H,33,38)(H,34,36)/t20-,25+,26+,31-/m1/s1
InChIKey=LNWPKLGWSIXMSJ-OTXFKJLGSA-N

> <PUBCHEM_SUBSTANCE_SYNONYM>
SCHEMBL16118898

> <PUBCHEM_XREF_EXT_ID>
SCHEMBL16118898

> <PUBCHEM_EXT_DATASOURCE_URL>
https://www.surechembl.org/

> <PUBCHEM_EXT_SUBSTANCE_URL>
https://www.surechembl.org/chemical/SCHEMBL16118898

> <PUBCHEM_CID_ASSOCIATIONS>
117607847  1

> <PUBCHEM_COORDINATE_TYPE>
1
3

> <PUBCHEM_BONDANNOTATIONS>
11  12  5
11  15  6
25  36  6
14  8  5
18  9  6

$$$$
