310943300
  -OEChem-07211613022D

 39 43  0     1  0  0  0  0  0999 V2000
    4.7119   -0.9605    0.0000 F   0  0  0  0  0  0  0  0  0  0  0  0
    3.9074   -1.7813    0.0000 F   0  0  0  0  0  0  0  0  0  0  0  0
    3.1030   -0.9605    0.0000 F   0  0  0  0  0  0  0  0  0  0  0  0
   -3.3000   -0.1231    0.0000 O   0  0  0  0  0  0  0  0  0  0  0  0
   -4.5805    2.6186    0.0000 O   0  0  0  0  0  0  0  0  0  0  0  0
    2.4463    2.3559    0.0000 O   0  0  0  0  0  0  0  0  0  0  0  0
   -2.3970   -2.9141    0.0000 O   0  0  0  0  0  0  0  0  0  0  0  0
   -3.2835    1.5514    0.0000 N   0  0  0  0  0  0  0  0  0  0  0  0
   -1.8552   -0.1396    0.0000 N   0  0  0  0  0  0  0  0  0  0  0  0
    0.2955    2.7664    0.0000 N   0  0  0  0  0  0  0  0  0  0  0  0
    1.7403    1.1082    0.0000 N   0  0  0  0  0  0  0  0  0  0  0  0
   -2.5776    1.1246    0.0000 C   0  0  0  0  0  0  0  0  0  0  0  0
   -1.1328    1.1246    0.0000 C   0  0  0  0  0  0  0  0  0  0  0  0
   -0.4433    1.5351    0.0000 C   0  0  0  0  0  0  0  0  0  0  0  0
   -2.5940    0.2873    0.0000 C   0  0  0  0  0  0  0  0  0  0  0  0
   -1.8552    1.5351    0.0000 C   0  0  0  0  0  0  0  0  0  0  0  0
   -0.4104    2.3724    0.0000 C   0  0  0  0  0  0  0  0  0  0  0  0
   -1.1492    0.2873    0.0000 C   0  0  0  0  0  0  0  0  0  0  0  0
    0.3119    1.1246    0.0000 C   0  0  0  0  0  0  0  0  0  0  0  0
    1.0179    1.5351    0.0000 C   0  0  0  0  0  0  0  0  0  0  0  0
   -3.3164   -0.9768    0.0000 C   0  0  3  0  0  0  0  0  0  0  0  0
    3.1686    1.1246    0.0000 C   0  0  0  0  0  0  0  0  0  0  0  0
    2.4463    1.5186    0.0000 C   0  0  0  0  0  0  0  0  0  0  0  0
    1.0179    2.3559    0.0000 C   0  0  0  0  0  0  0  0  0  0  0  0
    3.8910   -0.1231    0.0000 C   0  0  0  0  0  0  0  0  0  0  0  0
   -3.1686    2.3888    0.0000 C   0  0  0  0  0  0  0  0  0  0  0  0
   -4.0716    1.2724    0.0000 C   0  0  0  0  0  0  0  0  0  0  0  0
    3.8910   -0.9605    0.0000 C   0  0  0  0  0  0  0  0  0  0  0  0
    3.1850    0.2873    0.0000 C   0  0  0  0  0  0  0  0  0  0  0  0
   -2.6433   -1.4530    0.0000 C   0  0  0  0  0  0  0  0  0  0  0  0
    3.8910    1.5186    0.0000 C   0  0  0  0  0  0  0  0  0  0  0  0
   -3.9566   -1.4530    0.0000 C   0  0  0  0  0  0  0  0  0  0  0  0
   -1.1492    2.7499    0.0000 C   0  0  0  0  0  0  0  0  0  0  0  0
    4.5970    0.2873    0.0000 C   0  0  0  0  0  0  0  0  0  0  0  0
   -2.8895   -2.2410    0.0000 C   0  0  3  0  0  0  0  0  0  0  0  0
   -3.8089    2.9141    0.0000 C   0  0  0  0  0  0  0  0  0  0  0  0
   -4.7119    1.7977    0.0000 C   0  0  0  0  0  0  0  0  0  0  0  0
    4.5970    1.1082    0.0000 C   0  0  0  0  0  0  0  0  0  0  0  0
   -3.7104   -2.2246    0.0000 C   0  0  0  0  0  0  0  0  0  0  0  0
  1 28  1  0  0  0  0
  2 28  1  0  0  0  0
  3 28  1  0  0  0  0
  4 15  1  0  0  0  0
 21  4  1  6  0  0  0
  5 36  1  0  0  0  0
  5 37  1  0  0  0  0
  6 23  2  0  0  0  0
 35  7  1  1  0  0  0
  8 12  1  0  0  0  0
  8 26  1  0  0  0  0
  8 27  1  0  0  0  0
  9 15  1  0  0  0  0
  9 18  2  0  0  0  0
 10 17  2  0  0  0  0
 10 24  1  0  0  0  0
 11 20  1  0  0  0  0
 11 23  1  0  0  0  0
 12 15  2  0  0  0  0
 12 16  1  0  0  0  0
 13 14  1  0  0  0  0
 13 16  2  0  0  0  0
 13 18  1  0  0  0  0
 14 17  1  0  0  0  0
 14 19  2  0  0  0  0
 17 33  1  0  0  0  0
 19 20  1  0  0  0  0
 20 24  2  0  0  0  0
 21 30  1  0  0  0  0
 21 32  1  0  0  0  0
 22 23  1  0  0  0  0
 22 29  2  0  0  0  0
 22 31  1  0  0  0  0
 25 28  1  0  0  0  0
 25 29  1  0  0  0  0
 25 34  2  0  0  0  0
 26 36  1  0  0  0  0
 27 37  1  0  0  0  0
 30 35  1  0  0  0  0
 31 38  2  0  0  0  0
 32 39  1  0  0  0  0
 34 38  1  0  0  0  0
 35 39  1  0  0  0  0
M  END
> <PUBCHEM_COMPOUND_ID_TYPE>
0

> <PUBCHEM_TOTAL_CHARGE>
0

> <PUBCHEM_SUBSTANCE_ID>
310943300

> <PUBCHEM_SUBSTANCE_VERSION>
1

> <PUBCHEM_EXT_DATASOURCE_NAME>
4488

> <PUBCHEM_EXT_DATASOURCE_REGID>
SCHEMBL16121362

> <PUBCHEM_SUBSTANCE_COMMENT>
InChI=1S/C28H29F3N4O4/c1-17-24(13-21(16-32-17)34-26(37)18-3-2-4-20(11-18)28(29,30)31)19-12-25(35-7-9-38-10-8-35)27(33-15-19)39-23-6-5-22(36)14-23/h2-4,11-13,15-16,22-23,36H,5-10,14H2,1H3,(H,34,37)/t22-,23-/m0/s1
InChIKey=PCPBCWBSNIULDF-GOTSBHOMSA-N

> <PUBCHEM_SUBSTANCE_SYNONYM>
SCHEMBL16121362

> <PUBCHEM_XREF_EXT_ID>
SCHEMBL16121362

> <PUBCHEM_EXT_DATASOURCE_URL>
https://www.surechembl.org/

> <PUBCHEM_EXT_SUBSTANCE_URL>
https://www.surechembl.org/chemical/SCHEMBL16121362

> <PUBCHEM_CID_ASSOCIATIONS>
117609725  1

> <PUBCHEM_COORDINATE_TYPE>
1
3

> <PUBCHEM_BONDANNOTATIONS>
21  4  6
35  7  5

$$$$
