310945950
  -OEChem-07211613022D

 37 39  0     1  0  0  0  0  0999 V2000
    4.4129    0.6869    0.0000 O   0  0  0  0  0  0  0  0  0  0  0  0
    3.2611   -1.2836    0.0000 O   0  0  0  0  0  0  0  0  0  0  0  0
    1.0963    0.7979    0.0000 O   0  0  0  0  0  0  0  0  0  0  0  0
   -1.0686   -1.2836    0.0000 O   0  0  0  0  0  0  0  0  0  0  0  0
    3.2611   -2.9489    0.0000 O   0  0  0  0  0  0  0  0  0  0  0  0
   -3.2333    0.7979    0.0000 O   0  0  0  0  0  0  0  0  0  0  0  0
    1.8317   -0.4372    0.0000 N   0  0  0  0  0  0  0  0  0  0  0  0
   -0.3470   -0.0208    0.0000 N   0  0  0  0  0  0  0  0  0  0  0  0
   -2.5117   -0.4372    0.0000 N   0  0  0  0  0  0  0  0  0  0  0  0
   -3.9549   -0.4372    0.0000 N   0  0  0  0  0  0  0  0  0  0  0  0
    3.9688   -0.0069    0.0000 C   0  0  3  0  0  0  0  0  0  0  0  0
    3.2611   -0.4233    0.0000 C   0  0  0  0  0  0  0  0  0  0  0  0
    3.5942    0.6869    0.0000 C   0  0  0  0  0  0  0  0  0  0  0  0
    2.5395   -0.0208    0.0000 C   0  0  3  0  0  0  0  0  0  0  0  0
    4.6904   -0.4233    0.0000 C   0  0  0  0  0  0  0  0  0  0  0  0
    2.5533    1.3114    0.0000 C   0  0  0  0  0  0  0  0  0  0  0  0
    1.0963   -0.0347    0.0000 C   0  0  0  0  0  0  0  0  0  0  0  0
    0.3885   -0.4372    0.0000 C   0  0  3  0  0  0  0  0  0  0  0  0
    1.8179    1.7416    0.0000 C   0  0  0  0  0  0  0  0  0  0  0  0
    0.3746   -1.2836    0.0000 C   0  0  0  0  0  0  0  0  0  0  0  0
    1.1101   -1.6860    0.0000 C   0  0  0  0  0  0  0  0  0  0  0  0
   -1.0686   -0.4094    0.0000 C   0  0  0  0  0  0  0  0  0  0  0  0
    1.1240    1.3114    0.0000 C   0  0  0  0  0  0  0  0  0  0  0  0
    1.8179    2.5464    0.0000 C   0  0  0  0  0  0  0  0  0  0  0  0
   -1.8040   -0.0208    0.0000 C   0  0  3  0  0  0  0  0  0  0  0  0
    1.1101   -2.5048    0.0000 C   0  0  0  0  0  0  0  0  0  0  0  0
    1.8179   -1.2836    0.0000 C   0  0  0  0  0  0  0  0  0  0  0  0
    2.5395   -2.5048    0.0000 C   0  0  0  0  0  0  0  0  0  0  0  0
    0.3885    1.7277    0.0000 C   0  0  0  0  0  0  0  0  0  0  0  0
    1.0963    2.9489    0.0000 C   0  0  0  0  0  0  0  0  0  0  0  0
    1.8456   -2.9211    0.0000 C   0  0  0  0  0  0  0  0  0  0  0  0
    2.5395   -1.6860    0.0000 C   0  0  0  0  0  0  0  0  0  0  0  0
    0.3885    2.5464    0.0000 C   0  0  0  0  0  0  0  0  0  0  0  0
   -3.2472   -0.0485    0.0000 C   0  0  0  0  0  0  0  0  0  0  0  0
   -1.7763    0.7979    0.0000 C   0  0  0  0  0  0  0  0  0  0  0  0
    4.0104   -2.5048    0.0000 C   0  0  0  0  0  0  0  0  0  0  0  0
   -4.6904   -0.0347    0.0000 C   0  0  0  0  0  0  0  0  0  0  0  0
  1 11  1  0  0  0  0
  1 13  1  0  0  0  0
  2 12  2  0  0  0  0
  3 17  2  0  0  0  0
  4 22  2  0  0  0  0
  5 28  1  0  0  0  0
  5 36  1  0  0  0  0
  6 34  2  0  0  0  0
 14  7  1  1  0  0  0
  7 17  1  0  0  0  0
 18  8  1  6  0  0  0
  8 22  1  0  0  0  0
  9 25  1  0  0  0  0
  9 34  1  0  0  0  0
 10 34  1  0  0  0  0
 10 37  1  0  0  0  0
 11 12  1  1  0  0  0
 11 13  1  0  0  0  0
 11 15  1  6  0  0  0
 12 14  1  0  0  0  0
 14 16  1  0  0  0  0
 16 19  1  0  0  0  0
 17 18  1  0  0  0  0
 18 20  1  0  0  0  0
 19 23  2  0  0  0  0
 19 24  1  0  0  0  0
 20 21  1  0  0  0  0
 21 26  2  0  0  0  0
 21 27  1  0  0  0  0
 22 25  1  0  0  0  0
 23 29  1  0  0  0  0
 24 30  2  0  0  0  0
 25 35  1  1  0  0  0
 26 31  1  0  0  0  0
 27 32  2  0  0  0  0
 28 31  2  0  0  0  0
 28 32  1  0  0  0  0
 29 33  2  0  0  0  0
 30 33  1  0  0  0  0
M  END
> <PUBCHEM_COMPOUND_ID_TYPE>
0

> <PUBCHEM_TOTAL_CHARGE>
0

> <PUBCHEM_SUBSTANCE_ID>
310945950

> <PUBCHEM_SUBSTANCE_VERSION>
1

> <PUBCHEM_EXT_DATASOURCE_NAME>
4488

> <PUBCHEM_EXT_DATASOURCE_REGID>
SCHEMBL16124055

> <PUBCHEM_SUBSTANCE_COMMENT>
InChI=1S/C27H34N4O6/c1-17(29-26(35)28-3)24(33)31-22(15-19-10-12-20(36-4)13-11-19)25(34)30-21(23(32)27(2)16-37-27)14-18-8-6-5-7-9-18/h5-13,17,21-22H,14-16H2,1-4H3,(H,30,34)(H,31,33)(H2,28,29,35)/t17-,21-,22-,27+/m0/s1
InChIKey=UGDVHVFKFCSVCS-OLVKXDOUSA-N

> <PUBCHEM_SUBSTANCE_SYNONYM>
SCHEMBL16124055

> <PUBCHEM_XREF_EXT_ID>
SCHEMBL16124055

> <PUBCHEM_EXT_DATASOURCE_URL>
https://www.surechembl.org/

> <PUBCHEM_EXT_SUBSTANCE_URL>
https://www.surechembl.org/chemical/SCHEMBL16124055

> <PUBCHEM_CID_ASSOCIATIONS>
117611932  1

> <PUBCHEM_COORDINATE_TYPE>
1
3

> <PUBCHEM_BONDANNOTATIONS>
11  12  5
11  15  6
25  35  5
14  7  5
18  8  6

$$$$
