310940490
  -OEChem-07211613022D

 27 30  0     0  0  0  0  0  0999 V2000
    0.7061    2.1796    0.0000 F   0  0  0  0  0  0  0  0  0  0  0  0
    0.9517    1.0949    0.0000 F   0  0  0  0  0  0  0  0  0  0  0  0
   -0.1535    0.8494    0.0000 F   0  0  0  0  0  0  0  0  0  0  0  0
   -1.9340   -2.2410    0.0000 O   0  0  0  0  0  0  0  0  0  0  0  0
   -1.1973   -0.9721    0.0000 N   0  0  0  0  0  0  0  0  0  0  0  0
   -0.3991   -3.0597    0.0000 N   0  0  0  0  0  0  0  0  0  0  0  0
    0.3991   -3.2234    0.0000 N   0  0  0  0  0  0  0  0  0  0  0  0
    1.3610   -0.9312    0.0000 N   0  0  0  0  0  0  0  0  0  0  0  0
   -0.4605   -2.1182    0.0000 C   0  0  0  0  0  0  0  0  0  0  0  0
    0.2558   -1.8113    0.0000 C   0  0  0  0  0  0  0  0  0  0  0  0
   -1.1768   -1.7089    0.0000 C   0  0  0  0  0  0  0  0  0  0  0  0
    0.8494   -2.4252    0.0000 C   0  0  0  0  0  0  0  0  0  0  0  0
   -1.1768    1.5861    0.0000 C   0  0  0  0  0  0  0  0  0  0  0  0
   -0.4809    2.0363    0.0000 C   0  0  0  0  0  0  0  0  0  0  0  0
   -1.1973    0.7675    0.0000 C   0  0  0  0  0  0  0  0  0  0  0  0
    0.2558    1.5247    0.0000 C   0  0  0  0  0  0  0  0  0  0  0  0
    0.5423   -1.0336    0.0000 C   0  0  0  0  0  0  0  0  0  0  0  0
   -0.4605   -0.4809    0.0000 C   0  0  0  0  0  0  0  0  0  0  0  0
   -1.9136   -0.4809    0.0000 C   0  0  0  0  0  0  0  0  0  0  0  0
   -0.4809    0.3377    0.0000 C   0  0  0  0  0  0  0  0  0  0  0  0
   -1.9136    0.2967    0.0000 C   0  0  0  0  0  0  0  0  0  0  0  0
    1.6680   -2.2615    0.0000 C   0  0  0  0  0  0  0  0  0  0  0  0
   -1.8931    2.0159    0.0000 C   0  0  0  0  0  0  0  0  0  0  0  0
   -0.4809    2.8141    0.0000 C   0  0  0  0  0  0  0  0  0  0  0  0
    1.9340   -1.4838    0.0000 C   0  0  0  0  0  0  0  0  0  0  0  0
   -1.8931    2.8345    0.0000 C   0  0  0  0  0  0  0  0  0  0  0  0
   -1.2177    3.2234    0.0000 C   0  0  0  0  0  0  0  0  0  0  0  0
  1 16  1  0  0  0  0
  2 16  1  0  0  0  0
  3 16  1  0  0  0  0
  4 11  2  0  0  0  0
  5 11  1  0  0  0  0
  5 18  1  0  0  0  0
  5 19  1  0  0  0  0
  6  7  1  0  0  0  0
  6  9  2  0  0  0  0
  7 12  1  0  0  0  0
  8 17  1  0  0  0  0
  8 25  1  0  0  0  0
  9 10  1  0  0  0  0
  9 11  1  0  0  0  0
 10 12  2  0  0  0  0
 10 17  1  0  0  0  0
 12 22  1  0  0  0  0
 13 14  2  0  0  0  0
 13 15  1  0  0  0  0
 13 23  1  0  0  0  0
 14 16  1  0  0  0  0
 14 24  1  0  0  0  0
 15 20  1  0  0  0  0
 15 21  1  0  0  0  0
 18 20  1  0  0  0  0
 19 21  1  0  0  0  0
 22 25  1  0  0  0  0
 23 26  2  0  0  0  0
 24 27  2  0  0  0  0
 26 27  1  0  0  0  0
M  END
> <PUBCHEM_COMPOUND_ID_TYPE>
0

> <PUBCHEM_TOTAL_CHARGE>
0

> <PUBCHEM_SUBSTANCE_ID>
310940490

> <PUBCHEM_SUBSTANCE_VERSION>
1

> <PUBCHEM_EXT_DATASOURCE_NAME>
4488

> <PUBCHEM_EXT_DATASOURCE_REGID>
SCHEMBL16118443

> <PUBCHEM_SUBSTANCE_COMMENT>
InChI=1S/C19H21F3N4O/c20-19(21,22)15-4-2-1-3-13(15)12-6-9-26(10-7-12)18(27)17-14-11-23-8-5-16(14)24-25-17/h1-4,12,23H,5-11H2,(H,24,25)
InChIKey=OGSYXNBBKZJOHG-UHFFFAOYSA-N

> <PUBCHEM_SUBSTANCE_SYNONYM>
SCHEMBL16118443

> <PUBCHEM_XREF_EXT_ID>
SCHEMBL16118443

> <PUBCHEM_EXT_DATASOURCE_URL>
https://www.surechembl.org/

> <PUBCHEM_EXT_SUBSTANCE_URL>
https://www.surechembl.org/chemical/SCHEMBL16118443

> <PUBCHEM_CID_ASSOCIATIONS>
117607505  1

> <PUBCHEM_COORDINATE_TYPE>
1
3

$$$$
