310948117
  -OEChem-07211613022D

 32 34  0     0  0  0  0  0  0999 V2000
   -1.9538   -2.2562    0.0000 F   0  0  0  0  0  0  0  0  0  0  0  0
   -2.7501   -3.0672    0.0000 F   0  0  0  0  0  0  0  0  0  0  0  0
   -3.5465   -2.2562    0.0000 F   0  0  0  0  0  0  0  0  0  0  0  0
   -4.5492   -0.4719    0.0000 F   0  0  0  0  0  0  0  0  0  0  0  0
   -4.8589    0.6046    0.0000 F   0  0  0  0  0  0  0  0  0  0  0  0
   -3.7677    0.9143    0.0000 F   0  0  0  0  0  0  0  0  0  0  0  0
    0.8626    0.6046    0.0000 O   0  0  0  0  0  0  0  0  0  0  0  0
   -1.2313    1.0322    0.0000 N   0  0  0  0  0  0  0  0  0  0  0  0
   -0.4203    1.1944    0.0000 N   0  0  0  0  0  0  0  0  0  0  0  0
   -0.5824   -0.1474    0.0000 N   0  0  0  0  0  0  0  0  0  0  0  0
    2.0424    1.4156    0.0000 N   0  0  0  0  0  0  0  0  0  0  0  0
    2.3815    2.1677    0.0000 N   0  0  0  0  0  0  0  0  0  0  0  0
    3.7087    1.5631    0.0000 N   0  0  0  0  0  0  0  0  0  0  0  0
    4.3722    3.0672    0.0000 N   0  0  0  0  0  0  0  0  0  0  0  0
   -2.0424   -0.1917    0.0000 C   0  0  0  0  0  0  0  0  0  0  0  0
   -2.7649   -1.4156    0.0000 C   0  0  0  0  0  0  0  0  0  0  0  0
   -3.4727   -0.1622    0.0000 C   0  0  0  0  0  0  0  0  0  0  0  0
   -1.3345    0.2212    0.0000 C   0  0  0  0  0  0  0  0  0  0  0  0
   -2.7649    0.2212    0.0000 C   0  0  0  0  0  0  0  0  0  0  0  0
   -2.0718   -1.0322    0.0000 C   0  0  0  0  0  0  0  0  0  0  0  0
   -3.4727   -0.9880    0.0000 C   0  0  0  0  0  0  0  0  0  0  0  0
   -2.7649   -2.2562    0.0000 C   0  0  0  0  0  0  0  0  0  0  0  0
   -4.1658    0.2359    0.0000 C   0  0  0  0  0  0  0  0  0  0  0  0
   -0.0221    0.4867    0.0000 C   0  0  0  0  0  0  0  0  0  0  0  0
   -0.0811    1.9465    0.0000 C   0  0  0  0  0  0  0  0  0  0  0  0
    0.7152    1.9907    0.0000 C   0  0  0  0  0  0  0  0  0  0  0  0
    1.2165    1.3862    0.0000 C   0  0  0  0  0  0  0  0  0  0  0  0
    1.0839    2.7870    0.0000 C   0  0  0  0  0  0  0  0  0  0  0  0
    3.2073    2.2414    0.0000 C   0  0  0  0  0  0  0  0  0  0  0  0
    3.5612    3.0082    0.0000 C   0  0  0  0  0  0  0  0  0  0  0  0
    4.5197    1.6516    0.0000 C   0  0  0  0  0  0  0  0  0  0  0  0
    4.8589    2.4036    0.0000 C   0  0  0  0  0  0  0  0  0  0  0  0
  1 22  1  0  0  0  0
  2 22  1  0  0  0  0
  3 22  1  0  0  0  0
  4 23  1  0  0  0  0
  5 23  1  0  0  0  0
  6 23  1  0  0  0  0
  7 27  2  0  0  0  0
  8  9  1  0  0  0  0
  8 18  2  0  0  0  0
  9 24  1  0  0  0  0
  9 25  1  0  0  0  0
 10 18  1  0  0  0  0
 10 24  2  0  0  0  0
 11 12  1  0  0  0  0
 11 27  1  0  0  0  0
 12 29  1  0  0  0  0
 13 29  2  0  0  0  0
 13 31  1  0  0  0  0
 14 30  2  0  0  0  0
 14 32  1  0  0  0  0
 15 18  1  0  0  0  0
 15 19  2  0  0  0  0
 15 20  1  0  0  0  0
 16 20  2  0  0  0  0
 16 21  1  0  0  0  0
 16 22  1  0  0  0  0
 17 19  1  0  0  0  0
 17 21  2  0  0  0  0
 17 23  1  0  0  0  0
 25 26  1  0  0  0  0
 26 27  1  0  0  0  0
 26 28  2  0  0  0  0
 29 30  1  0  0  0  0
 31 32  2  0  0  0  0
M  END
> <PUBCHEM_COMPOUND_ID_TYPE>
0

> <PUBCHEM_TOTAL_CHARGE>
0

> <PUBCHEM_SUBSTANCE_ID>
310948117

> <PUBCHEM_SUBSTANCE_VERSION>
1

> <PUBCHEM_EXT_DATASOURCE_NAME>
4488

> <PUBCHEM_EXT_DATASOURCE_REGID>
SCHEMBL16126293

> <PUBCHEM_SUBSTANCE_COMMENT>
InChI=1S/C18H13F6N7O/c1-10(16(32)29-28-14-7-25-2-3-26-14)8-31-9-27-15(30-31)11-4-12(17(19,20)21)6-13(5-11)18(22,23)24/h2-7,9H,1,8H2,(H,26,28)(H,29,32)
InChIKey=RGELPZFMBRGONI-UHFFFAOYSA-N

> <PUBCHEM_SUBSTANCE_SYNONYM>
SCHEMBL16126293

> <PUBCHEM_XREF_EXT_ID>
SCHEMBL16126293

> <PUBCHEM_EXT_DATASOURCE_URL>
https://www.surechembl.org/

> <PUBCHEM_EXT_SUBSTANCE_URL>
https://www.surechembl.org/chemical/SCHEMBL16126293

> <PUBCHEM_CID_ASSOCIATIONS>
117613734  1

> <PUBCHEM_COORDINATE_TYPE>
1
3

$$$$
