310930869
  -OEChem-07211613022D

 35 38  0     0  0  0  0  0  0999 V2000
    3.0299   -2.7226    0.0000 O   0  0  0  0  0  0  0  0  0  0  0  0
    2.1078   -6.4112    0.0000 O   0  0  0  0  0  0  0  0  0  0  0  0
    5.5329   -6.6746    0.0000 O   0  0  0  0  0  0  0  0  0  0  0  0
    4.4791    0.0000    0.0000 O   0  0  0  0  0  0  0  0  0  0  0  0
    4.4791   -2.5030    0.0000 N   0  0  0  0  0  0  0  0  0  0  0  0
    4.8743   -3.7325    0.0000 N   0  0  0  0  0  0  0  0  0  0  0  0
    5.9282   -2.7226    0.0000 N   0  0  0  0  0  0  0  0  0  0  0  0
    4.0399   -3.7325    0.0000 C   0  0  0  0  0  0  0  0  0  0  0  0
    3.8204   -2.9861    0.0000 C   0  0  0  0  0  0  0  0  0  0  0  0
    3.5569   -4.4351    0.0000 C   0  0  0  0  0  0  0  0  0  0  0  0
    4.4351   -4.4791    0.0000 C   0  0  0  0  0  0  0  0  0  0  0  0
    5.1377   -2.9861    0.0000 C   0  0  0  0  0  0  0  0  0  0  0  0
    4.4791   -1.6687    0.0000 C   0  0  0  0  0  0  0  0  0  0  0  0
    3.9082   -5.1817    0.0000 C   0  0  0  0  0  0  0  0  0  0  0  0
    5.2695   -4.5230    0.0000 C   0  0  0  0  0  0  0  0  0  0  0  0
    2.7664   -4.3473    0.0000 C   0  0  0  0  0  0  0  0  0  0  0  0
    4.1717   -5.3134    0.0000 C   0  0  0  0  0  0  0  0  0  0  0  0
    5.1817   -1.2296    0.0000 C   0  0  0  0  0  0  0  0  0  0  0  0
    3.7765   -1.2296    0.0000 C   0  0  0  0  0  0  0  0  0  0  0  0
    3.4252   -5.8403    0.0000 C   0  0  0  0  0  0  0  0  0  0  0  0
    5.6208   -5.2695    0.0000 C   0  0  0  0  0  0  0  0  0  0  0  0
    2.2835   -5.0060    0.0000 C   0  0  0  0  0  0  0  0  0  0  0  0
    4.3473   -5.8842    0.0000 C   0  0  0  0  0  0  0  0  0  0  0  0
    2.5908   -5.7525    0.0000 C   0  0  0  0  0  0  0  0  0  0  0  0
    5.1817   -5.9282    0.0000 C   0  0  0  0  0  0  0  0  0  0  0  0
    5.1817   -0.4391    0.0000 C   0  0  0  0  0  0  0  0  0  0  0  0
    3.7765   -0.4391    0.0000 C   0  0  0  0  0  0  0  0  0  0  0  0
    1.3174   -6.3234    0.0000 C   0  0  0  0  0  0  0  0  0  0  0  0
    5.0938   -7.3772    0.0000 C   0  0  0  0  0  0  0  0  0  0  0  0
    0.8343   -6.9821    0.0000 C   0  0  0  0  0  0  0  0  0  0  0  0
    5.4451   -8.0798    0.0000 C   0  0  0  0  0  0  0  0  0  0  0  0
    0.0000   -6.8942    0.0000 C   0  0  0  0  0  0  0  0  0  0  0  0
    1.1417   -7.7285    0.0000 C   0  0  0  0  0  0  0  0  0  0  0  0
    5.0060   -8.7824    0.0000 C   0  0  0  0  0  0  0  0  0  0  0  0
    6.2795   -8.1238    0.0000 C   0  0  0  0  0  0  0  0  0  0  0  0
  1  9  2  0  0  0  0
  2 24  1  0  0  0  0
  2 28  1  0  0  0  0
  3 25  1  0  0  0  0
  3 29  1  0  0  0  0
  4 26  1  0  0  0  0
  4 27  1  0  0  0  0
  5  9  1  0  0  0  0
  5 12  1  0  0  0  0
  5 13  1  0  0  0  0
  6  8  1  0  0  0  0
  6 12  1  0  0  0  0
  7 12  2  3  0  0  0
  8  9  1  0  0  0  0
  8 10  1  0  0  0  0
  8 11  1  0  0  0  0
 10 14  2  0  0  0  0
 10 16  1  0  0  0  0
 11 15  2  0  0  0  0
 11 17  1  0  0  0  0
 13 18  1  0  0  0  0
 13 19  1  0  0  0  0
 14 20  1  0  0  0  0
 15 21  1  0  0  0  0
 16 22  2  0  0  0  0
 17 23  2  0  0  0  0
 18 26  1  0  0  0  0
 19 27  1  0  0  0  0
 20 24  2  0  0  0  0
 21 25  2  0  0  0  0
 22 24  1  0  0  0  0
 23 25  1  0  0  0  0
 28 30  1  0  0  0  0
 29 31  1  0  0  0  0
 30 32  1  0  0  0  0
 30 33  1  0  0  0  0
 31 34  1  0  0  0  0
 31 35  1  0  0  0  0
M  END
> <PUBCHEM_COMPOUND_ID_TYPE>
0

> <PUBCHEM_TOTAL_CHARGE>
0

> <PUBCHEM_SUBSTANCE_ID>
310930869

> <PUBCHEM_SUBSTANCE_VERSION>
1

> <PUBCHEM_EXT_DATASOURCE_NAME>
4488

> <PUBCHEM_EXT_DATASOURCE_REGID>
SCHEMBL16108167

> <PUBCHEM_SUBSTANCE_COMMENT>
InChI=1S/C28H37N3O4/c1-19(2)17-34-24-9-5-21(6-10-24)28(22-7-11-25(12-8-22)35-18-20(3)4)26(32)31(27(29)30-28)23-13-15-33-16-14-23/h5-12,19-20,23H,13-18H2,1-4H3,(H2,29,30)
InChIKey=MSDVNPPRTFGLRN-UHFFFAOYSA-N

> <PUBCHEM_SUBSTANCE_SYNONYM>
SCHEMBL16108167

> <PUBCHEM_XREF_EXT_ID>
SCHEMBL16108167

> <PUBCHEM_EXT_DATASOURCE_URL>
https://www.surechembl.org/

> <PUBCHEM_EXT_SUBSTANCE_URL>
https://www.surechembl.org/chemical/SCHEMBL16108167

> <PUBCHEM_CID_ASSOCIATIONS>
86273367  1

> <PUBCHEM_COORDINATE_TYPE>
1
3

$$$$
