310941428
  -OEChem-07211613022D

 59 61  0     1  0  0  0  0  0999 V2000
    3.4415   -1.1423    0.0000 P   0  0  3  0  0  0  0  0  0  0  0  0
    3.4269   -0.3222    0.0000 O   0  0  0  0  0  0  0  0  0  0  0  0
   -3.7344    2.1674    0.0000 O   0  0  0  0  0  0  0  0  0  0  0  0
    0.5711    2.1674    0.0000 O   0  0  0  0  0  0  0  0  0  0  0  0
   -1.5816    0.0879    0.0000 O   0  0  0  0  0  0  0  0  0  0  0  0
    3.4269   -1.9624    0.0000 O   0  0  0  0  0  0  0  0  0  0  0  0
    2.7093    0.0879    0.0000 O   0  0  0  0  0  0  0  0  0  0  0  0
   -6.4290    1.9770    0.0000 O   0  0  0  0  0  0  0  0  0  0  0  0
    2.6067   -1.1423    0.0000 O   0  0  0  0  0  0  0  0  0  0  0  0
    4.2616   -1.1423    0.0000 O   0  0  0  0  0  0  0  0  0  0  0  0
    4.8620    2.1674    0.0000 O   0  0  0  0  0  0  0  0  0  0  0  0
    2.7093    2.5774    0.0000 O   0  0  0  0  0  0  0  0  0  0  0  0
    6.2240   -2.9143    0.0000 O   0  0  0  0  0  0  0  0  0  0  0  0
   -5.1843    1.2594    0.0000 N   0  0  0  0  0  0  0  0  0  0  0  0
   -0.8640    1.3327    0.0000 N   0  0  0  0  0  0  0  0  0  0  0  0
    0.0879   -1.3180    0.0000 N   0  0  0  0  0  0  0  0  0  0  0  0
   -3.0168    0.9226    0.0000 N   0  0  0  0  0  0  0  0  0  0  0  0
    1.2887    0.9226    0.0000 N   0  0  0  0  0  0  0  0  0  0  0  0
    3.4415    1.3327    0.0000 N   0  0  0  0  0  0  0  0  0  0  0  0
    1.4352   -1.4059    0.0000 N   0  0  0  0  0  0  0  0  0  0  0  0
    5.5797    0.9226    0.0000 N   0  0  0  0  0  0  0  0  0  0  0  0
   -4.4081    0.9519    0.0000 C   0  0  3  0  0  0  0  0  0  0  0  0
   -0.1171    0.9519    0.0000 C   0  0  3  0  0  0  0  0  0  0  0  0
   -3.7344    1.3327    0.0000 C   0  0  0  0  0  0  0  0  0  0  0  0
    0.3954   -0.5272    0.0000 C   0  0  0  0  0  0  0  0  0  0  0  0
   -2.2993    1.3473    0.0000 C   0  0  3  0  0  0  0  0  0  0  0  0
    0.5565    1.3327    0.0000 C   0  0  0  0  0  0  0  0  0  0  0  0
   -1.5670    0.9666    0.0000 C   0  0  0  0  0  0  0  0  0  0  0  0
   -0.1318    0.1318    0.0000 C   0  0  0  0  0  0  0  0  0  0  0  0
    1.9917    1.3473    0.0000 C   0  0  3  0  0  0  0  0  0  0  0  0
   -4.4960    0.1318    0.0000 C   0  0  0  0  0  0  0  0  0  0  0  0
    4.1591    0.9373    0.0000 C   0  0  3  0  0  0  0  0  0  0  0  0
   -5.7407    0.6737    0.0000 C   0  0  0  0  0  0  0  0  0  0  0  0
    2.7239    0.9666    0.0000 C   0  0  0  0  0  0  0  0  0  0  0  0
   -5.5797    1.9917    0.0000 C   0  0  0  0  0  0  0  0  0  0  0  0
    4.1444    0.1171    0.0000 C   0  0  3  0  0  0  0  0  0  0  0  0
    1.2301   -0.5858    0.0000 C   0  0  0  0  0  0  0  0  0  0  0  0
   -5.3160   -0.0440    0.0000 C   0  0  0  0  0  0  0  0  0  0  0  0
    0.7469   -1.8160    0.0000 C   0  0  0  0  0  0  0  0  0  0  0  0
   -2.2846    2.1820    0.0000 C   0  0  0  0  0  0  0  0  0  0  0  0
    4.9353    1.3327    0.0000 C   0  0  0  0  0  0  0  0  0  0  0  0
   -0.5419   -1.2887    0.0000 C   0  0  0  0  0  0  0  0  0  0  0  0
    2.0210    2.1820    0.0000 C   0  0  0  0  0  0  0  0  0  0  0  0
   -1.5816    2.5921    0.0000 C   0  0  0  0  0  0  0  0  0  0  0  0
   -0.9080   -1.5816    0.0000 C   0  0  0  0  0  0  0  0  0  0  0  0
   -5.1989    2.7093    0.0000 C   0  0  0  0  0  0  0  0  0  0  0  0
    4.8767   -0.3076    0.0000 C   0  0  0  0  0  0  0  0  0  0  0  0
   -1.1570   -2.0210    0.0000 C   0  0  0  0  0  0  0  0  0  0  0  0
    4.0127   -2.5189    0.0000 C   0  0  0  0  0  0  0  0  0  0  0  0
   -1.5816    3.4269    0.0000 C   0  0  0  0  0  0  0  0  0  0  0  0
   -0.7615    2.3871    0.0000 C   0  0  0  0  0  0  0  0  0  0  0  0
   -1.9624   -2.0210    0.0000 C   0  0  0  0  0  0  0  0  0  0  0  0
   -0.7323   -2.7093    0.0000 C   0  0  0  0  0  0  0  0  0  0  0  0
    4.8620   -2.5482    0.0000 C   0  0  0  0  0  0  0  0  0  0  0  0
   -2.3578   -2.7386    0.0000 C   0  0  0  0  0  0  0  0  0  0  0  0
   -1.1423   -3.4269    0.0000 C   0  0  0  0  0  0  0  0  0  0  0  0
   -1.9624   -3.4269    0.0000 C   0  0  0  0  0  0  0  0  0  0  0  0
    5.4478   -3.1193    0.0000 C   0  0  0  0  0  0  0  0  0  0  0  0
    6.4290   -2.0942    0.0000 C   0  0  0  0  0  0  0  0  0  0  0  0
  1  2  1  0  0  0  0
  1  6  1  0  0  0  0
  1  9  2  0  0  0  0
  1 10  1  0  0  0  0
  2 36  1  0  0  0  0
  3 24  2  0  0  0  0
  4 27  2  0  0  0  0
  5 28  2  0  0  0  0
  6 49  1  0  0  0  0
  7 34  2  0  0  0  0
  8 35  2  0  0  0  0
 11 41  2  0  0  0  0
 12 43  1  0  0  0  0
 13 58  1  0  0  0  0
 13 59  1  0  0  0  0
 14 22  1  0  0  0  0
 14 33  1  0  0  0  0
 14 35  1  0  0  0  0
 23 15  1  6  0  0  0
 15 28  1  0  0  0  0
 16 25  1  0  0  0  0
 16 39  1  0  0  0  0
 16 42  1  0  0  0  0
 17 24  1  0  0  0  0
 26 17  1  1  0  0  0
 18 27  1  0  0  0  0
 30 18  1  1  0  0  0
 32 19  1  6  0  0  0
 19 34  1  0  0  0  0
 20 37  1  0  0  0  0
 20 39  2  0  0  0  0
 21 41  1  0  0  0  0
 22 24  1  6  0  0  0
 22 31  1  0  0  0  0
 23 27  1  0  0  0  0
 23 29  1  0  0  0  0
 25 29  1  0  0  0  0
 25 37  2  0  0  0  0
 26 28  1  0  0  0  0
 26 40  1  0  0  0  0
 30 34  1  0  0  0  0
 30 43  1  0  0  0  0
 31 38  1  0  0  0  0
 32 36  1  0  0  0  0
 32 41  1  0  0  0  0
 33 38  1  0  0  0  0
 35 46  1  0  0  0  0
 36 47  1  1  0  0  0
 40 44  1  0  0  0  0
 42 45  2  0  0  0  0
 44 50  1  0  0  0  0
 44 51  1  0  0  0  0
 45 48  1  0  0  0  0
 48 52  2  0  0  0  0
 48 53  1  0  0  0  0
 49 54  1  0  0  0  0
 52 55  1  0  0  0  0
 53 56  2  0  0  0  0
 54 58  1  0  0  0  0
 55 57  2  0  0  0  0
 56 57  1  0  0  0  0
M  END
> <PUBCHEM_COMPOUND_ID_TYPE>
0

> <PUBCHEM_TOTAL_CHARGE>
0

> <PUBCHEM_SUBSTANCE_ID>
310941428

> <PUBCHEM_SUBSTANCE_VERSION>
1

> <PUBCHEM_EXT_DATASOURCE_NAME>
4488

> <PUBCHEM_EXT_DATASOURCE_REGID>
SCHEMBL16119388

> <PUBCHEM_SUBSTANCE_COMMENT>
InChI=1S/C38H57N8O12P/c1-24(2)19-29(42-38(53)32-13-9-15-46(32)26(4)48)35(50)41-30(20-28-21-40-23-45(28)16-14-27-11-7-6-8-12-27)36(51)43-31(22-47)37(52)44-33(34(39)49)25(3)58-59(54,55)57-18-10-17-56-5/h6-8,11-12,14,16,21,23-25,29-33,47H,9-10,13,15,17-20,22H2,1-5H3,(H2,39,49)(H,41,50)(H,42,53)(H,43,51)(H,44,52)(H,54,55)/b16-14-/t25-,29+,30+,31+,32+,33+/m1/s1
InChIKey=MWWXQGXYHKTYGZ-SJXOXDECSA-N

> <PUBCHEM_SUBSTANCE_SYNONYM>
SCHEMBL16119388

> <PUBCHEM_XREF_EXT_ID>
SCHEMBL16119388

> <PUBCHEM_EXT_DATASOURCE_URL>
https://www.surechembl.org/

> <PUBCHEM_EXT_SUBSTANCE_URL>
https://www.surechembl.org/chemical/SCHEMBL16119388

> <PUBCHEM_CID_ASSOCIATIONS>
117608253  1

> <PUBCHEM_COORDINATE_TYPE>
1
3

> <PUBCHEM_BONDANNOTATIONS>
23  15  6
26  17  5
30  18  5
32  19  6
22  24  6
36  47  5

$$$$
