310939689
  -OEChem-07211613022D

 61 73  0     0  0  0  0  0  0999 V2000
   -2.7739  -12.3465    0.0000 N   0  0  0  0  0  0  0  0  0  0  0  0
   -2.7739  -16.4715    0.0000 N   0  0  0  0  0  0  0  0  0  0  0  0
    3.4183  -12.5567    0.0000 N   0  0  0  0  0  0  0  0  0  0  0  0
    3.4183  -13.8914    0.0000 N   0  0  0  0  0  0  0  0  0  0  0  0
   -2.7739  -13.9964    0.0000 C   0  0  0  0  0  0  0  0  0  0  0  0
   -2.7739  -14.8214    0.0000 C   0  0  0  0  0  0  0  0  0  0  0  0
   -1.5045  -14.4090    0.0000 C   0  0  0  0  0  0  0  0  0  0  0  0
   -1.9894  -13.7415    0.0000 C   0  0  0  0  0  0  0  0  0  0  0  0
   -1.9894  -15.0764    0.0000 C   0  0  0  0  0  0  0  0  0  0  0  0
   -3.4885  -13.5839    0.0000 C   0  0  0  0  0  0  0  0  0  0  0  0
   -3.4885  -15.2339    0.0000 C   0  0  0  0  0  0  0  0  0  0  0  0
   -4.2030  -13.9964    0.0000 C   0  0  0  0  0  0  0  0  0  0  0  0
   -4.2030  -14.8214    0.0000 C   0  0  0  0  0  0  0  0  0  0  0  0
   -0.6841  -14.3227    0.0000 C   0  0  0  0  0  0  0  0  0  0  0  0
   -3.4885  -12.7590    0.0000 C   0  0  0  0  0  0  0  0  0  0  0  0
   -3.4885  -16.0590    0.0000 C   0  0  0  0  0  0  0  0  0  0  0  0
   -0.3484  -13.5690    0.0000 C   0  0  0  0  0  0  0  0  0  0  0  0
   -1.6538  -12.9878    0.0000 C   0  0  0  0  0  0  0  0  0  0  0  0
   -1.3551  -15.8300    0.0000 C   0  0  0  0  0  0  0  0  0  0  0  0
   -0.8334  -12.9016    0.0000 C   0  0  0  0  0  0  0  0  0  0  0  0
   -0.1991  -14.9901    0.0000 C   0  0  0  0  0  0  0  0  0  0  0  0
   -4.2030  -12.3465    0.0000 C   0  0  0  0  0  0  0  0  0  0  0  0
   -4.2030  -16.4715    0.0000 C   0  0  0  0  0  0  0  0  0  0  0  0
   -4.9174  -13.5839    0.0000 C   0  0  0  0  0  0  0  0  0  0  0  0
   -4.9174  -15.2339    0.0000 C   0  0  0  0  0  0  0  0  0  0  0  0
   -0.5347  -15.7437    0.0000 C   0  0  0  0  0  0  0  0  0  0  0  0
    0.4721  -13.4828    0.0000 C   0  0  0  0  0  0  0  0  0  0  0  0
   -4.2030  -11.5215    0.0000 C   0  0  0  0  0  0  0  0  0  0  0  0
   -4.2030  -17.2964    0.0000 C   0  0  0  0  0  0  0  0  0  0  0  0
   -5.6319  -13.9964    0.0000 C   0  0  0  0  0  0  0  0  0  0  0  0
   -5.6319  -14.8214    0.0000 C   0  0  0  0  0  0  0  0  0  0  0  0
   -4.9174  -12.7590    0.0000 C   0  0  0  0  0  0  0  0  0  0  0  0
   -4.9174  -16.0590    0.0000 C   0  0  0  0  0  0  0  0  0  0  0  0
   -2.7739  -11.5215    0.0000 C   0  0  0  0  0  0  0  0  0  0  0  0
   -2.7739  -17.2964    0.0000 C   0  0  0  0  0  0  0  0  0  0  0  0
    0.9569  -14.1502    0.0000 C   0  0  0  0  0  0  0  0  0  0  0  0
    0.8075  -12.7292    0.0000 C   0  0  0  0  0  0  0  0  0  0  0  0
   -3.4885  -11.1091    0.0000 C   0  0  0  0  0  0  0  0  0  0  0  0
   -3.4885  -17.7089    0.0000 C   0  0  0  0  0  0  0  0  0  0  0  0
    2.1129  -13.3104    0.0000 C   0  0  0  0  0  0  0  0  0  0  0  0
    2.9334  -13.2241    0.0000 C   0  0  0  0  0  0  0  0  0  0  0  0
   -4.9174  -11.1091    0.0000 C   0  0  0  0  0  0  0  0  0  0  0  0
   -4.9174  -17.7089    0.0000 C   0  0  0  0  0  0  0  0  0  0  0  0
    1.7775  -14.0640    0.0000 C   0  0  0  0  0  0  0  0  0  0  0  0
    1.6281  -12.6428    0.0000 C   0  0  0  0  0  0  0  0  0  0  0  0
   -5.6319  -12.3465    0.0000 C   0  0  0  0  0  0  0  0  0  0  0  0
   -5.6319  -16.4715    0.0000 C   0  0  0  0  0  0  0  0  0  0  0  0
    4.2030  -12.8116    0.0000 C   0  0  0  0  0  0  0  0  0  0  0  0
    4.2030  -13.6366    0.0000 C   0  0  0  0  0  0  0  0  0  0  0  0
   -5.6319  -11.5215    0.0000 C   0  0  0  0  0  0  0  0  0  0  0  0
   -5.6319  -17.2964    0.0000 C   0  0  0  0  0  0  0  0  0  0  0  0
    3.0058  -11.8423    0.0000 C   0  0  0  0  0  0  0  0  0  0  0  0
    4.9174  -12.3992    0.0000 C   0  0  0  0  0  0  0  0  0  0  0  0
    4.9174  -14.0491    0.0000 C   0  0  0  0  0  0  0  0  0  0  0  0
    3.4183  -11.1278    0.0000 C   0  0  0  0  0  0  0  0  0  0  0  0
    2.1809  -11.8423    0.0000 C   0  0  0  0  0  0  0  0  0  0  0  0
    5.6319  -12.8116    0.0000 C   0  0  0  0  0  0  0  0  0  0  0  0
    5.6319  -13.6366    0.0000 C   0  0  0  0  0  0  0  0  0  0  0  0
    3.0058  -10.4133    0.0000 C   0  0  0  0  0  0  0  0  0  0  0  0
    1.7683  -11.1278    0.0000 C   0  0  0  0  0  0  0  0  0  0  0  0
    2.1809  -10.4133    0.0000 C   0  0  0  0  0  0  0  0  0  0  0  0
  1 15  2  0  0  0  0
  1 34  1  0  0  0  0
  2 16  1  0  0  0  0
  2 35  2  0  0  0  0
  3 41  1  0  0  0  0
  3 48  1  0  0  0  0
  3 52  1  0  0  0  0
  4 41  2  0  0  0  0
  4 49  1  0  0  0  0
  5  6  1  0  0  0  0
  5  8  1  0  0  0  0
  5 10  2  0  0  0  0
  6  9  1  0  0  0  0
  6 11  2  0  0  0  0
  7  8  1  0  0  0  0
  7  9  2  0  0  0  0
  7 14  1  0  0  0  0
  8 18  2  0  0  0  0
  9 19  1  0  0  0  0
 10 12  1  0  0  0  0
 10 15  1  0  0  0  0
 11 13  1  0  0  0  0
 11 16  1  0  0  0  0
 12 13  2  0  0  0  0
 12 24  1  0  0  0  0
 13 25  1  0  0  0  0
 14 17  1  0  0  0  0
 14 21  2  0  0  0  0
 15 22  1  0  0  0  0
 16 23  2  0  0  0  0
 17 20  2  0  0  0  0
 17 27  1  0  0  0  0
 18 20  1  0  0  0  0
 19 26  2  0  0  0  0
 21 26  1  0  0  0  0
 22 28  2  0  0  0  0
 22 32  1  0  0  0  0
 23 29  1  0  0  0  0
 23 33  1  0  0  0  0
 24 30  2  0  0  0  0
 25 31  2  0  0  0  0
 27 36  2  0  0  0  0
 27 37  1  0  0  0  0
 28 38  1  0  0  0  0
 28 42  1  0  0  0  0
 29 39  2  0  0  0  0
 29 43  1  0  0  0  0
 30 31  1  0  0  0  0
 32 46  2  0  0  0  0
 33 47  2  0  0  0  0
 34 38  2  0  0  0  0
 35 39  1  0  0  0  0
 36 44  1  0  0  0  0
 37 45  2  0  0  0  0
 40 41  1  0  0  0  0
 40 44  2  0  0  0  0
 40 45  1  0  0  0  0
 42 50  2  0  0  0  0
 43 51  2  0  0  0  0
 46 50  1  0  0  0  0
 47 51  1  0  0  0  0
 48 49  2  0  0  0  0
 48 53  1  0  0  0  0
 49 54  1  0  0  0  0
 52 55  2  0  0  0  0
 52 56  1  0  0  0  0
 53 57  2  0  0  0  0
 54 58  2  0  0  0  0
 55 59  1  0  0  0  0
 56 60  2  0  0  0  0
 57 58  1  0  0  0  0
 59 61  2  0  0  0  0
 60 61  1  0  0  0  0
M  END
> <PUBCHEM_COMPOUND_ID_TYPE>
0

> <PUBCHEM_TOTAL_CHARGE>
0

> <PUBCHEM_SUBSTANCE_ID>
310939689

> <PUBCHEM_SUBSTANCE_VERSION>
1

> <PUBCHEM_EXT_DATASOURCE_NAME>
4488

> <PUBCHEM_EXT_DATASOURCE_REGID>
SCHEMBL16117619

> <PUBCHEM_SUBSTANCE_COMMENT>
InChI=1S/C57H34N4/c1-2-15-39(16-3-1)61-49-24-11-10-23-48(49)60-57(61)38-27-25-37(26-28-38)40-29-30-47-50-43(40)21-12-22-46(50)51-52(47)54(56-42-18-7-5-14-36(42)32-34-59-56)45-20-9-8-19-44(45)53(51)55-41-17-6-4-13-35(41)31-33-58-55/h1-34H
InChIKey=FZCWGPWPHOPVAC-UHFFFAOYSA-N

> <PUBCHEM_SUBSTANCE_SYNONYM>
SCHEMBL16117619

> <PUBCHEM_XREF_EXT_ID>
SCHEMBL16117619

> <PUBCHEM_EXT_DATASOURCE_URL>
https://www.surechembl.org/

> <PUBCHEM_EXT_SUBSTANCE_URL>
https://www.surechembl.org/chemical/SCHEMBL16117619

> <PUBCHEM_CID_ASSOCIATIONS>
117606922  1

> <PUBCHEM_COORDINATE_TYPE>
1
3

$$$$
