310935838
  -OEChem-07211613022D

 33 35  0     0  0  0  0  0  0999 V2000
    2.8114   -6.7230    0.0000 S   0  0  0  0  0  0  0  0  0  0  0  0
    0.6926   -7.4157    0.0000 S   0  0  0  0  0  0  0  0  0  0  0  0
    4.0338   -7.4564    0.0000 F   0  0  0  0  0  0  0  0  0  0  0  0
    4.0338   -5.9896    0.0000 F   0  0  0  0  0  0  0  0  0  0  0  0
    4.4413   -6.7230    0.0000 F   0  0  0  0  0  0  0  0  0  0  0  0
    1.1816    0.0000    0.0000 F   0  0  0  0  0  0  0  0  0  0  0  0
    0.4889   -3.7894    0.0000 O   0  0  0  0  0  0  0  0  0  0  0  0
    1.9965   -6.7230    0.0000 O   0  0  0  0  0  0  0  0  0  0  0  0
    2.8114   -5.8266    0.0000 O   0  0  0  0  0  0  0  0  0  0  0  0
    2.8114   -7.5379    0.0000 O   0  0  0  0  0  0  0  0  0  0  0  0
    3.2189   -4.1153    0.0000 O   0  0  0  0  0  0  0  0  0  0  0  0
    0.0000   -7.8231    0.0000 O   0  0  0  0  0  0  0  0  0  0  0  0
    1.4261   -7.0490    0.0000 O   0  0  0  0  0  0  0  0  0  0  0  0
    2.7707   -2.7707    0.0000 N   0  0  0  0  0  0  0  0  0  0  0  0
    1.5891   -4.6042    0.0000 C   0  0  0  0  0  0  0  0  0  0  0  0
    1.8335   -3.7894    0.0000 C   0  0  0  0  0  0  0  0  0  0  0  0
    0.7334   -4.5635    0.0000 C   0  0  0  0  0  0  0  0  0  0  0  0
    1.1816   -3.3004    0.0000 C   0  0  0  0  0  0  0  0  0  0  0  0
    1.5891   -5.9896    0.0000 C   0  0  0  0  0  0  0  0  0  0  0  0
    0.7334   -5.9896    0.0000 C   0  0  0  0  0  0  0  0  0  0  0  0
    1.9558   -5.2969    0.0000 C   0  0  0  0  0  0  0  0  0  0  0  0
    0.3260   -5.2969    0.0000 C   0  0  0  0  0  0  0  0  0  0  0  0
    1.1816   -2.4855    0.0000 C   0  0  0  0  0  0  0  0  0  0  0  0
    2.6077   -3.5448    0.0000 C   0  0  0  0  0  0  0  0  0  0  0  0
    3.6263   -6.7230    0.0000 C   0  0  0  0  0  0  0  0  0  0  0  0
    0.2852   -6.7230    0.0000 C   0  0  0  0  0  0  0  0  0  0  0  0
    0.4482   -2.0780    0.0000 C   0  0  0  0  0  0  0  0  0  0  0  0
    1.8743   -2.0780    0.0000 C   0  0  0  0  0  0  0  0  0  0  0  0
    0.4482   -1.2224    0.0000 C   0  0  0  0  0  0  0  0  0  0  0  0
    1.8743   -1.2631    0.0000 C   0  0  0  0  0  0  0  0  0  0  0  0
    1.1816   -0.8149    0.0000 C   0  0  0  0  0  0  0  0  0  0  0  0
    1.1001   -8.1491    0.0000 C   0  0  0  0  0  0  0  0  0  0  0  0
    3.5856   -2.4855    0.0000 C   0  0  0  0  0  0  0  0  0  0  0  0
  1  8  1  0  0  0  0
  1  9  2  0  0  0  0
  1 10  2  0  0  0  0
  1 25  1  0  0  0  0
  2 12  2  0  0  0  0
  2 13  2  0  0  0  0
  2 26  1  0  0  0  0
  2 32  1  0  0  0  0
  3 25  1  0  0  0  0
  4 25  1  0  0  0  0
  5 25  1  0  0  0  0
  6 31  1  0  0  0  0
  7 17  1  0  0  0  0
  7 18  1  0  0  0  0
  8 19  1  0  0  0  0
 11 24  2  0  0  0  0
 14 24  1  0  0  0  0
 14 33  1  0  0  0  0
 15 16  1  0  0  0  0
 15 17  2  0  0  0  0
 15 21  1  0  0  0  0
 16 18  2  0  0  0  0
 16 24  1  0  0  0  0
 17 22  1  0  0  0  0
 18 23  1  0  0  0  0
 19 20  1  0  0  0  0
 19 21  2  0  0  0  0
 20 22  2  0  0  0  0
 20 26  1  0  0  0  0
 23 27  2  0  0  0  0
 23 28  1  0  0  0  0
 27 29  1  0  0  0  0
 28 30  2  0  0  0  0
 29 31  2  0  0  0  0
 30 31  1  0  0  0  0
M  END
> <PUBCHEM_COMPOUND_ID_TYPE>
0

> <PUBCHEM_TOTAL_CHARGE>
0

> <PUBCHEM_SUBSTANCE_ID>
310935838

> <PUBCHEM_SUBSTANCE_VERSION>
1

> <PUBCHEM_EXT_DATASOURCE_NAME>
4488

> <PUBCHEM_EXT_DATASOURCE_REGID>
SCHEMBL16113429

> <PUBCHEM_SUBSTANCE_COMMENT>
InChI=1S/C19H15F4NO7S2/c1-24-18(25)16-13-8-14(31-33(28,29)19(21,22)23)11(9-32(2,26)27)7-15(13)30-17(16)10-3-5-12(20)6-4-10/h3-8H,9H2,1-2H3,(H,24,25)
InChIKey=XDAMPRXACSQACG-UHFFFAOYSA-N

> <PUBCHEM_SUBSTANCE_SYNONYM>
SCHEMBL16113429

> <PUBCHEM_XREF_EXT_ID>
SCHEMBL16113429

> <PUBCHEM_EXT_DATASOURCE_URL>
https://www.surechembl.org/

> <PUBCHEM_EXT_SUBSTANCE_URL>
https://www.surechembl.org/chemical/SCHEMBL16113429

> <PUBCHEM_CID_ASSOCIATIONS>
117603827  1

> <PUBCHEM_COORDINATE_TYPE>
1
3

$$$$
