310940518
  -OEChem-07211613022D

 22 24  0     0  0  0  0  0  0999 V2000
    1.1869    2.1999    0.0000 F   0  0  0  0  0  0  0  0  0  0  0  0
    1.4325    1.0744    0.0000 F   0  0  0  0  0  0  0  0  0  0  0  0
    0.2865    0.8493    0.0000 F   0  0  0  0  0  0  0  0  0  0  0  0
   -1.4120   -2.2204    0.0000 O   0  0  0  0  0  0  0  0  0  0  0  0
   -0.6754   -0.9721    0.0000 N   0  0  0  0  0  0  0  0  0  0  0  0
    0.9414   -3.2232    0.0000 N   0  0  0  0  0  0  0  0  0  0  0  0
   -0.6958    1.5860    0.0000 C   0  0  0  0  0  0  0  0  0  0  0  0
    0.0205    1.9953    0.0000 C   0  0  0  0  0  0  0  0  0  0  0  0
   -0.7163    0.7674    0.0000 C   0  0  0  0  0  0  0  0  0  0  0  0
    0.7163    1.5246    0.0000 C   0  0  0  0  0  0  0  0  0  0  0  0
   -0.6958   -1.7088    0.0000 C   0  0  0  0  0  0  0  0  0  0  0  0
    0.0409   -2.1385    0.0000 C   0  0  0  0  0  0  0  0  0  0  0  0
    0.0205    0.3376    0.0000 C   0  0  0  0  0  0  0  0  0  0  0  0
   -1.4325    0.3172    0.0000 C   0  0  0  0  0  0  0  0  0  0  0  0
   -1.4120    1.9748    0.0000 C   0  0  0  0  0  0  0  0  0  0  0  0
    0.0000    2.8139    0.0000 C   0  0  0  0  0  0  0  0  0  0  0  0
    0.0205   -0.5014    0.0000 C   0  0  0  0  0  0  0  0  0  0  0  0
   -1.4120   -0.5014    0.0000 C   0  0  0  0  0  0  0  0  0  0  0  0
    0.7572   -1.7906    0.0000 C   0  0  0  0  0  0  0  0  0  0  0  0
   -1.4120    2.8139    0.0000 C   0  0  0  0  0  0  0  0  0  0  0  0
   -0.7163    3.2232    0.0000 C   0  0  0  0  0  0  0  0  0  0  0  0
    1.3302   -2.4046    0.0000 C   0  0  0  0  0  0  0  0  0  0  0  0
  1 10  1  0  0  0  0
  2 10  1  0  0  0  0
  3 10  1  0  0  0  0
  4 11  2  0  0  0  0
  5 11  1  0  0  0  0
  5 17  1  0  0  0  0
  5 18  1  0  0  0  0
  6 12  1  0  0  0  0
  6 22  2  0  0  0  0
  7  8  2  0  0  0  0
  7  9  1  0  0  0  0
  7 15  1  0  0  0  0
  8 10  1  0  0  0  0
  8 16  1  0  0  0  0
  9 13  1  0  0  0  0
  9 14  1  0  0  0  0
 11 12  1  0  0  0  0
 12 19  2  0  0  0  0
 13 17  1  0  0  0  0
 14 18  1  0  0  0  0
 15 20  2  0  0  0  0
 16 21  2  0  0  0  0
 19 22  1  0  0  0  0
 20 21  1  0  0  0  0
M  END
> <PUBCHEM_COMPOUND_ID_TYPE>
0

> <PUBCHEM_TOTAL_CHARGE>
0

> <PUBCHEM_SUBSTANCE_ID>
310940518

> <PUBCHEM_SUBSTANCE_VERSION>
1

> <PUBCHEM_EXT_DATASOURCE_NAME>
4488

> <PUBCHEM_EXT_DATASOURCE_REGID>
SCHEMBL16118472

> <PUBCHEM_SUBSTANCE_COMMENT>
InChI=1S/C16H15F3N2O/c17-16(18,19)13-4-2-1-3-12(13)11-6-9-21(10-7-11)15(22)14-5-8-20-14/h1-5,8,11H,6-7,9-10H2
InChIKey=MEVVBYWQZPERIR-UHFFFAOYSA-N

> <PUBCHEM_SUBSTANCE_SYNONYM>
SCHEMBL16118472

> <PUBCHEM_XREF_EXT_ID>
SCHEMBL16118472

> <PUBCHEM_EXT_DATASOURCE_URL>
https://www.surechembl.org/

> <PUBCHEM_EXT_SUBSTANCE_URL>
https://www.surechembl.org/chemical/SCHEMBL16118472

> <PUBCHEM_CID_ASSOCIATIONS>
117607532  1

> <PUBCHEM_COORDINATE_TYPE>
1
3

$$$$
