310938648
  -OEChem-07211613022D

 34 38  0     1  0  0  0  0  0999 V2000
   -2.8579    0.8642    0.0000 Cl  0  0  0  0  0  0  0  0  0  0  0  0
    0.0000   -1.6108    0.0000 O   0  0  0  0  0  0  0  0  0  0  0  0
    0.7145   -2.8483    0.0000 O   0  0  0  0  0  0  0  0  0  0  0  0
    5.0013   -1.1983    0.0000 O   0  0  0  0  0  0  0  0  0  0  0  0
   -5.0013   -0.3733    0.0000 O   0  0  0  0  0  0  0  0  0  0  0  0
    1.4289    0.8642    0.0000 N   0  0  0  0  0  0  0  0  0  0  0  0
    0.7145   -0.3733    0.0000 N   0  0  0  0  0  0  0  0  0  0  0  0
    2.1434   -0.3733    0.0000 N   0  0  0  0  0  0  0  0  0  0  0  0
    2.1434   -2.8483    0.0000 N   0  0  0  0  0  0  0  0  0  0  0  0
    1.8414    2.1338    0.0000 C   0  0  3  0  0  0  0  0  0  0  0  0
    1.0164    2.1338    0.0000 C   0  0  3  0  0  0  0  0  0  0  0  0
    1.4289    2.8483    0.0000 C   0  0  0  0  0  0  0  0  0  0  0  0
    2.0964    1.3492    0.0000 C   0  0  0  0  0  0  0  0  0  0  0  0
    0.7615    1.3492    0.0000 C   0  0  0  0  0  0  0  0  0  0  0  0
    1.4289    0.0392    0.0000 C   0  0  0  0  0  0  0  0  0  0  0  0
    0.7145   -1.1983    0.0000 C   0  0  0  0  0  0  0  0  0  0  0  0
    1.4289   -1.6108    0.0000 C   0  0  0  0  0  0  0  0  0  0  0  0
    2.1434   -1.1983    0.0000 C   0  0  0  0  0  0  0  0  0  0  0  0
    1.4289   -2.4358    0.0000 C   0  0  0  0  0  0  0  0  0  0  0  0
    2.8579   -2.4358    0.0000 C   0  0  0  0  0  0  0  0  0  0  0  0
   -0.7145   -1.1983    0.0000 C   0  0  0  0  0  0  0  0  0  0  0  0
   -2.1434   -1.1983    0.0000 C   0  0  0  0  0  0  0  0  0  0  0  0
   -1.4289   -1.6108    0.0000 C   0  0  0  0  0  0  0  0  0  0  0  0
   -2.8579    0.0392    0.0000 C   0  0  0  0  0  0  0  0  0  0  0  0
    3.5724   -2.8483    0.0000 C   0  0  0  0  0  0  0  0  0  0  0  0
    2.8579   -1.6108    0.0000 C   0  0  0  0  0  0  0  0  0  0  0  0
   -3.5724   -0.3733    0.0000 C   0  0  0  0  0  0  0  0  0  0  0  0
   -2.1434   -0.3733    0.0000 C   0  0  0  0  0  0  0  0  0  0  0  0
   -2.8579   -1.6108    0.0000 C   0  0  0  0  0  0  0  0  0  0  0  0
   -3.5724   -1.1983    0.0000 C   0  0  0  0  0  0  0  0  0  0  0  0
    4.2868   -1.6108    0.0000 C   0  0  0  0  0  0  0  0  0  0  0  0
    4.2868   -2.4358    0.0000 C   0  0  0  0  0  0  0  0  0  0  0  0
    3.5724   -1.1983    0.0000 C   0  0  0  0  0  0  0  0  0  0  0  0
   -4.2868    0.0392    0.0000 C   0  0  0  0  0  0  0  0  0  0  0  0
  1 24  1  0  0  0  0
  2 16  1  0  0  0  0
  2 21  1  0  0  0  0
  3 19  2  0  0  0  0
 31  4  1  6  0  0  0
  5 34  1  0  0  0  0
  6 13  1  0  0  0  0
  6 14  1  0  0  0  0
  6 15  1  0  0  0  0
  7 15  1  0  0  0  0
  7 16  2  0  0  0  0
  8 15  2  0  0  0  0
  8 18  1  0  0  0  0
  9 19  1  0  0  0  0
 20  9  1  1  0  0  0
 10 11  1  0  0  0  0
 10 12  1  0  0  0  0
 10 13  1  0  0  0  0
 11 12  1  0  0  0  0
 11 14  1  0  0  0  0
 16 17  1  0  0  0  0
 17 18  2  0  0  0  0
 17 19  1  0  0  0  0
 20 25  1  0  0  0  0
 20 26  1  0  0  0  0
 21 23  1  0  0  0  0
 22 23  1  0  0  0  0
 22 28  2  0  0  0  0
 22 29  1  0  0  0  0
 24 27  2  0  0  0  0
 24 28  1  0  0  0  0
 25 32  1  0  0  0  0
 26 33  1  0  0  0  0
 27 30  1  0  0  0  0
 27 34  1  0  0  0  0
 29 30  2  0  0  0  0
 31 32  1  0  0  0  0
 31 33  1  0  0  0  0
M  END
> <PUBCHEM_COMPOUND_ID_TYPE>
0

> <PUBCHEM_TOTAL_CHARGE>
0

> <PUBCHEM_SUBSTANCE_ID>
310938648

> <PUBCHEM_SUBSTANCE_VERSION>
1

> <PUBCHEM_EXT_DATASOURCE_NAME>
4488

> <PUBCHEM_EXT_DATASOURCE_REGID>
SCHEMBL16116562

> <PUBCHEM_SUBSTANCE_COMMENT>
InChI=1S/C25H31ClN4O4/c26-22-9-15(1-2-16(22)14-31)7-8-34-24-21(23(33)28-19-3-5-20(32)6-4-19)11-27-25(29-24)30-12-17-10-18(17)13-30/h1-2,9,11,17-20,31-32H,3-8,10,12-14H2,(H,28,33)/t17?,18?,19-,20-
InChIKey=POVNNNUVZHAGRX-FOUKWCRFSA-N

> <PUBCHEM_SUBSTANCE_SYNONYM>
SCHEMBL16116562

> <PUBCHEM_XREF_EXT_ID>
SCHEMBL16116562

> <PUBCHEM_EXT_DATASOURCE_URL>
https://www.surechembl.org/

> <PUBCHEM_EXT_SUBSTANCE_URL>
https://www.surechembl.org/chemical/SCHEMBL16116562

> <PUBCHEM_CID_ASSOCIATIONS>
117606080  1

> <PUBCHEM_COORDINATE_TYPE>
1
3

> <PUBCHEM_BONDANNOTATIONS>
31  4  6
20  9  5

$$$$
