310944065
  -OEChem-07211613022D

 14 15  0     0  0  0  0  0  0999 V2000
    1.7478   -1.0684    0.0000 O   0  0  0  0  0  0  0  0  0  0  0  0
   -1.2218   -0.2904    0.0000 N   0  0  0  0  0  0  0  0  0  0  0  0
    0.3561   -0.2137    0.0000 N   0  0  0  0  0  0  0  0  0  0  0  0
   -2.0108   -0.0931    0.0000 N   0  0  0  0  0  0  0  0  0  0  0  0
   -2.4491   -0.7944    0.0000 N   0  0  0  0  0  0  0  0  0  0  0  0
   -1.9231   -1.4300    0.0000 N   0  0  0  0  0  0  0  0  0  0  0  0
   -0.3561    0.2028    0.0000 C   0  0  0  0  0  0  0  0  0  0  0  0
    1.0684    0.1808    0.0000 C   0  0  0  0  0  0  0  0  0  0  0  0
   -1.1779   -1.1232    0.0000 C   0  0  0  0  0  0  0  0  0  0  0  0
   -0.3232    1.0355    0.0000 C   0  0  0  0  0  0  0  0  0  0  0  0
    1.0794    1.0026    0.0000 C   0  0  0  0  0  0  0  0  0  0  0  0
    0.3671    1.4300    0.0000 C   0  0  0  0  0  0  0  0  0  0  0  0
    1.9121   -0.3342    0.0000 C   0  0  0  0  0  0  0  0  0  0  0  0
    2.4491   -0.6630    0.0000 C   0  0  0  0  0  0  0  0  0  0  0  0
  1 14  1  0  0  0  0
  2  4  1  0  0  0  0
  2  7  1  0  0  0  0
  2  9  1  0  0  0  0
  3  7  2  0  0  0  0
  3  8  1  0  0  0  0
  4  5  2  0  0  0  0
  5  6  1  0  0  0  0
  6  9  2  0  0  0  0
  7 10  1  0  0  0  0
  8 11  2  0  0  0  0
  8 13  1  0  0  0  0
 10 12  2  0  0  0  0
 11 12  1  0  0  0  0
 13 14  1  0  0  0  0
M  END
> <PUBCHEM_COMPOUND_ID_TYPE>
0

> <PUBCHEM_TOTAL_CHARGE>
0

> <PUBCHEM_SUBSTANCE_ID>
310944065

> <PUBCHEM_SUBSTANCE_VERSION>
1

> <PUBCHEM_EXT_DATASOURCE_NAME>
4488

> <PUBCHEM_EXT_DATASOURCE_REGID>
SCHEMBL16122140

> <PUBCHEM_SUBSTANCE_COMMENT>
InChI=1S/C8H9N5O/c14-5-4-7-2-1-3-8(10-7)13-6-9-11-12-13/h1-3,6,14H,4-5H2
InChIKey=NAUKWIOZJPPSSL-UHFFFAOYSA-N

> <PUBCHEM_SUBSTANCE_SYNONYM>
SCHEMBL16122140

> <PUBCHEM_XREF_EXT_ID>
SCHEMBL16122140

> <PUBCHEM_EXT_DATASOURCE_URL>
https://www.surechembl.org/

> <PUBCHEM_EXT_SUBSTANCE_URL>
https://www.surechembl.org/chemical/SCHEMBL16122140

> <PUBCHEM_CID_ASSOCIATIONS>
117610361  1

> <PUBCHEM_COORDINATE_TYPE>
1
3

$$$$
