310937145
  -OEChem-07211613022D

 26 28  0     1  0  0  0  0  0999 V2000
    5.3399    1.4006    0.0000 O   0  0  0  0  0  0  0  0  0  0  0  0
    6.3664    1.8577    0.0000 O   0  0  0  0  0  0  0  0  0  0  0  0
    3.1964   -0.6619    0.0000 O   0  0  0  0  0  0  0  0  0  0  0  0
    2.4820    0.5756    0.0000 O   0  0  0  0  0  0  0  0  0  0  0  0
    6.0543    0.1631    0.0000 N   0  0  0  0  0  0  0  0  0  0  0  0
    7.7642    1.5606    0.0000 N   0  0  0  0  0  0  0  0  0  0  0  0
    3.9109    0.5756    0.0000 N   0  0  0  0  0  0  0  0  0  0  0  0
    9.3877    2.1376    0.0000 N   0  0  0  0  0  0  0  0  0  0  0  0
    8.9752    3.4071    0.0000 N   0  0  0  0  0  0  0  0  0  0  0  0
   10.0552    2.6225    0.0000 N   0  0  0  0  0  0  0  0  0  0  0  0
    9.8002    3.4071    0.0000 N   0  0  0  0  0  0  0  0  0  0  0  0
    6.1406   -0.6573    0.0000 C   0  0  0  0  0  0  0  0  0  0  0  0
    6.8080    0.4987    0.0000 C   0  0  3  0  0  0  0  0  0  0  0  0
    6.9475   -0.8289    0.0000 C   0  0  0  0  0  0  0  0  0  0  0  0
    5.3399    0.5756    0.0000 C   0  0  0  0  0  0  0  0  0  0  0  0
    7.3600   -0.1144    0.0000 C   0  0  0  0  0  0  0  0  0  0  0  0
    6.9795    1.3057    0.0000 C   0  0  0  0  0  0  0  0  0  0  0  0
    5.5885   -1.2704    0.0000 C   0  0  0  0  0  0  0  0  0  0  0  0
    4.6254    0.1631    0.0000 C   0  0  3  0  0  0  0  0  0  0  0  0
    7.2025   -1.6135    0.0000 C   0  0  0  0  0  0  0  0  0  0  0  0
    5.8435   -2.0551    0.0000 C   0  0  0  0  0  0  0  0  0  0  0  0
    6.6504   -2.2266    0.0000 C   0  0  0  0  0  0  0  0  0  0  0  0
    7.9357    2.3676    0.0000 C   0  0  0  0  0  0  0  0  0  0  0  0
    8.7203    2.6225    0.0000 C   0  0  0  0  0  0  0  0  0  0  0  0
    4.6254   -0.6619    0.0000 C   0  0  0  0  0  0  0  0  0  0  0  0
    3.1964    0.1631    0.0000 C   0  0  0  0  0  0  0  0  0  0  0  0
  1 15  2  0  0  0  0
  2 17  2  0  0  0  0
  3 26  2  0  0  0  0
  4 26  1  0  0  0  0
  5 12  1  0  0  0  0
  5 13  1  0  0  0  0
  5 15  1  0  0  0  0
  6 17  1  0  0  0  0
  6 23  1  0  0  0  0
  7 19  1  0  0  0  0
  7 26  1  0  0  0  0
  8 10  2  0  0  0  0
  8 24  1  0  0  0  0
  9 11  1  0  0  0  0
  9 24  2  0  0  0  0
 10 11  1  0  0  0  0
 12 14  1  0  0  0  0
 12 18  2  0  0  0  0
 13 16  1  0  0  0  0
 13 17  1  6  0  0  0
 14 16  1  0  0  0  0
 14 20  2  0  0  0  0
 15 19  1  0  0  0  0
 18 21  1  0  0  0  0
 19 25  1  0  0  0  0
 20 22  1  0  0  0  0
 21 22  2  0  0  0  0
 23 24  1  0  0  0  0
M  END
> <PUBCHEM_COMPOUND_ID_TYPE>
0

> <PUBCHEM_TOTAL_CHARGE>
0

> <PUBCHEM_SUBSTANCE_ID>
310937145

> <PUBCHEM_SUBSTANCE_VERSION>
1

> <PUBCHEM_EXT_DATASOURCE_NAME>
4488

> <PUBCHEM_EXT_DATASOURCE_REGID>
SCHEMBL16114866

> <PUBCHEM_SUBSTANCE_COMMENT>
InChI=1S/C15H17N7O4/c1-8(17-15(25)26)14(24)22-10-5-3-2-4-9(10)6-11(22)13(23)16-7-12-18-20-21-19-12/h2-5,8,11,17H,6-7H2,1H3,(H,16,23)(H,25,26)(H,18,19,20,21)/t8?,11-/m0/s1
InChIKey=IVOVEFFTZRPYQY-LYNSQETBSA-N

> <PUBCHEM_SUBSTANCE_SYNONYM>
SCHEMBL16114866

> <PUBCHEM_XREF_EXT_ID>
SCHEMBL16114866

> <PUBCHEM_EXT_DATASOURCE_URL>
https://www.surechembl.org/

> <PUBCHEM_EXT_SUBSTANCE_URL>
https://www.surechembl.org/chemical/SCHEMBL16114866

> <PUBCHEM_CID_ASSOCIATIONS>
117604969  1

> <PUBCHEM_COORDINATE_TYPE>
1
3

> <PUBCHEM_BONDANNOTATIONS>
13  17  6

$$$$
