310940779
  -OEChem-07211613022D

 27 29  0     1  0  0  0  0  0999 V2000
    2.2876    0.7195    0.0000 S   0  0  0  0  0  0  0  0  0  0  0  0
   -3.2737   -0.4445    0.0000 S   0  0  0  0  0  0  0  0  0  0  0  0
    0.1536   -1.1074    0.0000 O   0  0  0  0  0  0  0  0  0  0  0  0
    2.9503   -2.9503    0.0000 O   0  0  0  0  0  0  0  0  0  0  0  0
    2.3037   -1.7540    0.0000 O   0  0  0  0  0  0  0  0  0  0  0  0
   -0.7195   -0.5092    0.0000 O   0  0  0  0  0  0  0  0  0  0  0  0
   -0.7033    1.9804    0.0000 O   0  0  0  0  0  0  0  0  0  0  0  0
    1.5761   -0.5092    0.0000 N   0  0  0  0  0  0  0  0  0  0  0  0
    0.0081    0.7356    0.0000 N   0  0  0  0  0  0  0  0  0  0  0  0
   -2.8533    0.8326    0.0000 N   0  0  0  0  0  0  0  0  0  0  0  0
   -1.4307    1.5761    0.0000 N   0  0  0  0  0  0  0  0  0  0  0  0
   -4.2597    0.7841    0.0000 N   0  0  0  0  0  0  0  0  0  0  0  0
    1.5600    0.3152    0.0000 C   0  0  3  0  0  0  0  0  0  0  0  0
    0.7356    0.3152    0.0000 C   0  0  3  0  0  0  0  0  0  0  0  0
    0.7518   -0.4768    0.0000 C   0  0  0  0  0  0  0  0  0  0  0  0
    2.3037   -0.9134    0.0000 C   0  0  0  0  0  0  0  0  0  0  0  0
    3.0150   -0.5092    0.0000 C   0  0  0  0  0  0  0  0  0  0  0  0
    2.9988   -2.1582    0.0000 C   0  0  0  0  0  0  0  0  0  0  0  0
    3.0311    0.2990    0.0000 C   0  0  0  0  0  0  0  0  0  0  0  0
   -0.7195    0.3637    0.0000 C   0  0  0  0  0  0  0  0  0  0  0  0
   -1.4630    0.7518    0.0000 C   0  0  0  0  0  0  0  0  0  0  0  0
   -2.1744    0.3637    0.0000 C   0  0  0  0  0  0  0  0  0  0  0  0
    3.7586   -0.9296    0.0000 C   0  0  0  0  0  0  0  0  0  0  0  0
   -2.4330   -0.4283    0.0000 C   0  0  0  0  0  0  0  0  0  0  0  0
   -3.5323    0.3475    0.0000 C   0  0  0  0  0  0  0  0  0  0  0  0
    4.2597   -0.6871    0.0000 C   0  0  0  0  0  0  0  0  0  0  0  0
   -0.7033    2.9503    0.0000 C   0  0  0  0  0  0  0  0  0  0  0  0
  1 13  1  0  0  0  0
  1 19  1  0  0  0  0
  2 24  1  0  0  0  0
  2 25  1  0  0  0  0
  3 15  2  0  0  0  0
  4 18  2  0  0  0  0
  5 18  1  0  0  0  0
  6 20  2  0  0  0  0
  7 11  1  0  0  0  0
  7 27  1  0  0  0  0
 13  8  1  1  0  0  0
  8 15  1  0  0  0  0
  8 16  1  0  0  0  0
 14  9  1  1  0  0  0
  9 20  1  0  0  0  0
 10 22  1  0  0  0  0
 10 25  2  0  0  0  0
 11 21  2  0  0  0  0
 12 25  1  0  0  0  0
 13 14  1  0  0  0  0
 14 15  1  0  0  0  0
 16 17  2  0  0  0  0
 16 18  1  0  0  0  0
 17 19  1  0  0  0  0
 17 23  1  0  0  0  0
 20 21  1  0  0  0  0
 21 22  1  0  0  0  0
 22 24  2  0  0  0  0
 23 26  1  0  0  0  0
M  END
> <PUBCHEM_COMPOUND_ID_TYPE>
0

> <PUBCHEM_TOTAL_CHARGE>
0

> <PUBCHEM_SUBSTANCE_ID>
310940779

> <PUBCHEM_SUBSTANCE_VERSION>
1

> <PUBCHEM_EXT_DATASOURCE_NAME>
4488

> <PUBCHEM_EXT_DATASOURCE_REGID>
SCHEMBL16118738

> <PUBCHEM_SUBSTANCE_COMMENT>
InChI=1S/C15H17N5O5S2/c1-3-6-4-26-13-9(12(22)20(13)10(6)14(23)24)18-11(21)8(19-25-2)7-5-27-15(16)17-7/h5,9,13H,3-4H2,1-2H3,(H2,16,17)(H,18,21)(H,23,24)/b19-8-/t9-,13-/m1/s1
InChIKey=JAYINDDLNKNXEN-HBWVYFAYSA-N

> <PUBCHEM_SUBSTANCE_SYNONYM>
SCHEMBL16118738

> <PUBCHEM_XREF_EXT_ID>
SCHEMBL16118738

> <PUBCHEM_EXT_DATASOURCE_URL>
https://www.surechembl.org/

> <PUBCHEM_EXT_SUBSTANCE_URL>
https://www.surechembl.org/chemical/SCHEMBL16118738

> <PUBCHEM_CID_ASSOCIATIONS>
117607731  1

> <PUBCHEM_COORDINATE_TYPE>
1
3

> <PUBCHEM_BONDANNOTATIONS>
13  8  5
14  9  5

$$$$
