310944418
  -OEChem-07211613022D

 17 17  0     0  0  0  0  0  0999 V2000
   -3.3189    0.4110    0.0000 Cl  0  0  0  0  0  0  0  0  0  0  0  0
   -3.3189   -1.2453    0.0000 Cl  0  0  0  0  0  0  0  0  0  0  0  0
    1.8743    0.0000    0.0000 O   0  0  0  0  0  0  0  0  0  0  0  0
    1.1520    1.2453    0.0000 O   0  0  0  0  0  0  0  0  0  0  0  0
   -0.2678    0.4110    0.0000 N   0  0  0  0  0  0  0  0  0  0  0  0
   -0.9901    0.0125    0.0000 C   0  0  0  0  0  0  0  0  0  0  0  0
   -1.0025   -0.8219    0.0000 C   0  0  0  0  0  0  0  0  0  0  0  0
   -2.4222    0.0000    0.0000 C   0  0  0  0  0  0  0  0  0  0  0  0
   -2.4347   -0.8219    0.0000 C   0  0  0  0  0  0  0  0  0  0  0  0
   -1.6999    0.4110    0.0000 C   0  0  0  0  0  0  0  0  0  0  0  0
   -1.7124   -1.2329    0.0000 C   0  0  0  0  0  0  0  0  0  0  0  0
   -0.2678   -1.2453    0.0000 C   0  0  0  0  0  0  0  0  0  0  0  0
    0.4546    0.0000    0.0000 C   0  0  0  0  0  0  0  0  0  0  0  0
    1.1520    0.4110    0.0000 C   0  0  0  0  0  0  0  0  0  0  0  0
    0.4546   -0.8468    0.0000 C   0  0  0  0  0  0  0  0  0  0  0  0
    2.5966    0.4110    0.0000 C   0  0  0  0  0  0  0  0  0  0  0  0
    3.3189    0.0125    0.0000 C   0  0  0  0  0  0  0  0  0  0  0  0
  1  8  1  0  0  0  0
  2  9  1  0  0  0  0
  3 14  1  0  0  0  0
  3 16  1  0  0  0  0
  4 14  2  0  0  0  0
  5  6  1  0  0  0  0
  5 13  1  0  0  0  0
  6  7  1  0  0  0  0
  6 10  2  0  0  0  0
  7 11  2  0  0  0  0
  7 12  1  0  0  0  0
  8  9  2  0  0  0  0
  8 10  1  0  0  0  0
  9 11  1  0  0  0  0
 12 15  1  0  0  0  0
 13 14  1  0  0  0  0
 16 17  1  0  0  0  0
M  END
> <PUBCHEM_COMPOUND_ID_TYPE>
0

> <PUBCHEM_TOTAL_CHARGE>
0

> <PUBCHEM_SUBSTANCE_ID>
310944418

> <PUBCHEM_SUBSTANCE_VERSION>
1

> <PUBCHEM_EXT_DATASOURCE_NAME>
4488

> <PUBCHEM_EXT_DATASOURCE_REGID>
SCHEMBL16122493

> <PUBCHEM_SUBSTANCE_COMMENT>
InChI=1S/C12H15Cl2NO2/c1-3-8-5-9(13)10(14)6-11(8)15-7-12(16)17-4-2/h5-6,15H,3-4,7H2,1-2H3
InChIKey=BRKFOKXZLAFVRB-UHFFFAOYSA-N

> <PUBCHEM_SUBSTANCE_SYNONYM>
SCHEMBL16122493

> <PUBCHEM_XREF_EXT_ID>
SCHEMBL16122493

> <PUBCHEM_EXT_DATASOURCE_URL>
https://www.surechembl.org/

> <PUBCHEM_EXT_SUBSTANCE_URL>
https://www.surechembl.org/chemical/SCHEMBL16122493

> <PUBCHEM_CID_ASSOCIATIONS>
117610674  1

> <PUBCHEM_COORDINATE_TYPE>
1
3

$$$$
