310941557
  -OEChem-07211613022D

 25 28  0     0  0  0  0  0  0999 V2000
   -2.9133   -1.7531    0.0000 Cl  0  0  0  0  0  0  0  0  0  0  0  0
    0.8680    1.7531    0.0000 S   0  0  0  0  0  0  0  0  0  0  0  0
   -1.4696   -0.9110    0.0000 O   0  0  0  0  0  0  0  0  0  0  0  0
   -0.0258   -0.9110    0.0000 O   0  0  0  0  0  0  0  0  0  0  0  0
    0.7477    0.4125    0.0000 N   0  0  0  0  0  0  0  0  0  0  0  0
    2.1227    0.9281    0.0000 N   0  0  0  0  0  0  0  0  0  0  0  0
   -0.7304    0.3438    0.0000 C   0  0  0  0  0  0  0  0  0  0  0  0
   -0.0258    0.7563    0.0000 C   0  0  0  0  0  0  0  0  0  0  0  0
   -2.2087   -0.4813    0.0000 C   0  0  0  0  0  0  0  0  0  0  0  0
   -2.1742    0.3438    0.0000 C   0  0  0  0  0  0  0  0  0  0  0  0
   -0.7649   -0.4813    0.0000 C   0  0  0  0  0  0  0  0  0  0  0  0
   -1.4524    0.7391    0.0000 C   0  0  0  0  0  0  0  0  0  0  0  0
   -2.9133   -0.8938    0.0000 C   0  0  0  0  0  0  0  0  0  0  0  0
    1.2977    1.0313    0.0000 C   0  0  0  0  0  0  0  0  0  0  0  0
    0.0774    1.5985    0.0000 C   0  0  0  0  0  0  0  0  0  0  0  0
   -2.9133    0.7391    0.0000 C   0  0  0  0  0  0  0  0  0  0  0  0
   -3.6008   -0.4985    0.0000 C   0  0  0  0  0  0  0  0  0  0  0  0
    2.4321    0.2063    0.0000 C   0  0  0  0  0  0  0  0  0  0  0  0
   -3.6008    0.3438    0.0000 C   0  0  0  0  0  0  0  0  0  0  0  0
    1.9680   -0.4985    0.0000 C   0  0  0  0  0  0  0  0  0  0  0  0
    3.2743    0.0860    0.0000 C   0  0  0  0  0  0  0  0  0  0  0  0
    2.3117   -1.2375    0.0000 C   0  0  0  0  0  0  0  0  0  0  0  0
    3.6008   -0.6703    0.0000 C   0  0  0  0  0  0  0  0  0  0  0  0
    3.1368   -1.3235    0.0000 C   0  0  0  0  0  0  0  0  0  0  0  0
    1.1430   -0.4985    0.0000 C   0  0  0  0  0  0  0  0  0  0  0  0
  1 13  1  0  0  0  0
  2 14  1  0  0  0  0
  2 15  1  0  0  0  0
  3  9  1  0  0  0  0
  3 11  1  0  0  0  0
  4 11  2  0  0  0  0
  5  8  1  0  0  0  0
  5 14  2  0  0  0  0
  6 14  1  0  0  0  0
  6 18  1  0  0  0  0
  7  8  1  0  0  0  0
  7 11  1  0  0  0  0
  7 12  2  0  0  0  0
  8 15  2  0  0  0  0
  9 10  1  0  0  0  0
  9 13  2  0  0  0  0
 10 12  1  0  0  0  0
 10 16  2  0  0  0  0
 13 17  1  0  0  0  0
 16 19  1  0  0  0  0
 17 19  2  0  0  0  0
 18 20  2  0  0  0  0
 18 21  1  0  0  0  0
 20 22  1  0  0  0  0
 20 25  1  0  0  0  0
 21 23  2  0  0  0  0
 22 24  2  0  0  0  0
 23 24  1  0  0  0  0
M  END
> <PUBCHEM_COMPOUND_ID_TYPE>
0

> <PUBCHEM_TOTAL_CHARGE>
0

> <PUBCHEM_SUBSTANCE_ID>
310941557

> <PUBCHEM_SUBSTANCE_VERSION>
1

> <PUBCHEM_EXT_DATASOURCE_NAME>
4488

> <PUBCHEM_EXT_DATASOURCE_REGID>
SCHEMBL16119588

> <PUBCHEM_SUBSTANCE_COMMENT>
InChI=1S/C19H13ClN2O2S/c1-11-5-2-3-8-15(11)21-19-22-16(10-25-19)13-9-12-6-4-7-14(20)17(12)24-18(13)23/h2-10H,1H3,(H,21,22)
InChIKey=QWXFGADLGLVCPE-UHFFFAOYSA-N

> <PUBCHEM_SUBSTANCE_SYNONYM>
SCHEMBL16119588

> <PUBCHEM_XREF_EXT_ID>
SCHEMBL16119588

> <PUBCHEM_EXT_DATASOURCE_URL>
https://www.surechembl.org/

> <PUBCHEM_EXT_SUBSTANCE_URL>
https://www.surechembl.org/chemical/SCHEMBL16119588

> <PUBCHEM_CID_ASSOCIATIONS>
117608363  1

> <PUBCHEM_COORDINATE_TYPE>
1
3

$$$$
