310943392
  -OEChem-07211613022D

 35 38  0     0  0  0  0  0  0999 V2000
    4.3414   -2.0684    0.0000 F   0  0  0  0  0  0  0  0  0  0  0  0
    3.5521   -2.8724    0.0000 F   0  0  0  0  0  0  0  0  0  0  0  0
    2.7628   -2.0684    0.0000 F   0  0  0  0  0  0  0  0  0  0  0  0
   -2.9089   -0.0219    0.0000 O   0  0  0  0  0  0  0  0  0  0  0  0
    2.8212    1.6299    0.0000 O   0  0  0  0  0  0  0  0  0  0  0  0
   -4.3414    2.4485    0.0000 O   0  0  0  0  0  0  0  0  0  0  0  0
   -2.9089    1.6299    0.0000 N   0  0  0  0  0  0  0  0  0  0  0  0
   -1.4764   -0.0073    0.0000 N   0  0  0  0  0  0  0  0  0  0  0  0
    2.1050    0.4020    0.0000 N   0  0  0  0  0  0  0  0  0  0  0  0
    4.2538   -0.8405    0.0000 N   0  0  0  0  0  0  0  0  0  0  0  0
   -0.7455    1.2352    0.0000 C   0  0  0  0  0  0  0  0  0  0  0  0
   -0.0584    1.6299    0.0000 C   0  0  0  0  0  0  0  0  0  0  0  0
   -2.1780    1.2352    0.0000 C   0  0  0  0  0  0  0  0  0  0  0  0
   -2.1927    0.4020    0.0000 C   0  0  0  0  0  0  0  0  0  0  0  0
   -1.4910    1.6299    0.0000 C   0  0  0  0  0  0  0  0  0  0  0  0
    1.3741    1.6445    0.0000 C   0  0  0  0  0  0  0  0  0  0  0  0
   -0.0439    2.4631    0.0000 C   0  0  0  0  0  0  0  0  0  0  0  0
    0.6870    1.2352    0.0000 C   0  0  0  0  0  0  0  0  0  0  0  0
   -0.7601    0.4020    0.0000 C   0  0  0  0  0  0  0  0  0  0  0  0
    2.0903    1.2206    0.0000 C   0  0  0  0  0  0  0  0  0  0  0  0
    3.5375   -1.2352    0.0000 C   0  0  0  0  0  0  0  0  0  0  0  0
    1.3887    2.4485    0.0000 C   0  0  0  0  0  0  0  0  0  0  0  0
    0.6724    2.8578    0.0000 C   0  0  0  0  0  0  0  0  0  0  0  0
    2.8212   -0.0073    0.0000 C   0  0  0  0  0  0  0  0  0  0  0  0
    3.5375   -2.0684    0.0000 C   0  0  0  0  0  0  0  0  0  0  0  0
    2.8212   -0.8259    0.0000 C   0  0  0  0  0  0  0  0  0  0  0  0
   -2.9089    2.4485    0.0000 C   0  0  0  0  0  0  0  0  0  0  0  0
   -3.5960    1.2352    0.0000 C   0  0  0  0  0  0  0  0  0  0  0  0
    3.5375    0.4020    0.0000 C   0  0  0  0  0  0  0  0  0  0  0  0
   -0.7747    2.8578    0.0000 C   0  0  0  0  0  0  0  0  0  0  0  0
    4.2538   -0.0219    0.0000 C   0  0  0  0  0  0  0  0  0  0  0  0
   -3.6252    2.8724    0.0000 C   0  0  0  0  0  0  0  0  0  0  0  0
   -4.3414    1.6445    0.0000 C   0  0  0  0  0  0  0  0  0  0  0  0
   -3.6252    0.4020    0.0000 C   0  0  0  0  0  0  0  0  0  0  0  0
   -4.3268   -0.0219    0.0000 C   0  0  0  0  0  0  0  0  0  0  0  0
  1 25  1  0  0  0  0
  2 25  1  0  0  0  0
  3 25  1  0  0  0  0
  4 14  1  0  0  0  0
  4 34  1  0  0  0  0
  5 20  2  0  0  0  0
  6 32  1  0  0  0  0
  6 33  1  0  0  0  0
  7 13  1  0  0  0  0
  7 27  1  0  0  0  0
  7 28  1  0  0  0  0
  8 14  2  0  0  0  0
  8 19  1  0  0  0  0
  9 20  1  0  0  0  0
  9 24  1  0  0  0  0
 10 21  2  0  0  0  0
 10 31  1  0  0  0  0
 11 12  1  0  0  0  0
 11 15  1  0  0  0  0
 11 19  2  0  0  0  0
 12 17  2  0  0  0  0
 12 18  1  0  0  0  0
 13 14  1  0  0  0  0
 13 15  2  0  0  0  0
 16 18  2  0  0  0  0
 16 20  1  0  0  0  0
 16 22  1  0  0  0  0
 17 23  1  0  0  0  0
 17 30  1  0  0  0  0
 21 25  1  0  0  0  0
 21 26  1  0  0  0  0
 22 23  2  0  0  0  0
 24 26  2  0  0  0  0
 24 29  1  0  0  0  0
 27 32  1  0  0  0  0
 28 33  1  0  0  0  0
 29 31  2  0  0  0  0
 34 35  1  0  0  0  0
M  END
> <PUBCHEM_COMPOUND_ID_TYPE>
0

> <PUBCHEM_TOTAL_CHARGE>
0

> <PUBCHEM_SUBSTANCE_ID>
310943392

> <PUBCHEM_SUBSTANCE_VERSION>
1

> <PUBCHEM_EXT_DATASOURCE_NAME>
4488

> <PUBCHEM_EXT_DATASOURCE_REGID>
SCHEMBL16121455

> <PUBCHEM_SUBSTANCE_COMMENT>
InChI=1S/C25H25F3N4O3/c1-3-35-24-21(32-8-10-34-11-9-32)13-18(15-30-24)20-12-17(5-4-16(20)2)23(33)31-19-6-7-29-22(14-19)25(26,27)28/h4-7,12-15H,3,8-11H2,1-2H3,(H,29,31,33)
InChIKey=WRVIULGXAIWQCU-UHFFFAOYSA-N

> <PUBCHEM_SUBSTANCE_SYNONYM>
SCHEMBL16121455

> <PUBCHEM_XREF_EXT_ID>
SCHEMBL16121455

> <PUBCHEM_EXT_DATASOURCE_URL>
https://www.surechembl.org/

> <PUBCHEM_EXT_SUBSTANCE_URL>
https://www.surechembl.org/chemical/SCHEMBL16121455

> <PUBCHEM_CID_ASSOCIATIONS>
117609816  1

> <PUBCHEM_COORDINATE_TYPE>
1
3

$$$$
