310931901
  -OEChem-07211613022D

 30 33  0     0  0  0  0  0  0999 V2000
    3.9786   -2.7334    0.0000 O   0  0  0  0  0  0  0  0  0  0  0  0
    9.0201   -3.1282    0.0000 O   0  0  0  0  0  0  0  0  0  0  0  0
    8.4431   -2.8245    0.0000 O   0  0  0  0  0  0  0  0  0  0  0  0
    4.8897   -1.5793    0.0000 N   0  0  0  0  0  0  0  0  0  0  0  0
    7.7445   -4.0393    0.0000 N   0  0  0  0  0  0  0  0  0  0  0  0
    4.7986   -0.7593    0.0000 N   0  0  0  0  0  0  0  0  0  0  0  0
    6.3171   -1.5793    0.0000 N   0  0  0  0  0  0  0  0  0  0  0  0
    0.0000   -2.4297    0.0000 N   0  0  0  0  0  0  0  0  0  0  0  0
    8.4431   -4.4645    0.0000 C   0  0  0  0  0  0  0  0  0  0  0  0
    3.5837   -1.3363    0.0000 C   0  0  0  0  0  0  0  0  0  0  0  0
    4.1608   -1.9134    0.0000 C   0  0  0  0  0  0  0  0  0  0  0  0
    5.5882   -2.0044    0.0000 C   0  0  0  0  0  0  0  0  0  0  0  0
    2.7638   -1.4274    0.0000 C   0  0  0  0  0  0  0  0  0  0  0  0
    9.0808   -4.9504    0.0000 C   0  0  0  0  0  0  0  0  0  0  0  0
    8.3519   -5.2845    0.0000 C   0  0  0  0  0  0  0  0  0  0  0  0
    3.9786   -0.6074    0.0000 C   0  0  0  0  0  0  0  0  0  0  0  0
    7.7445   -3.2193    0.0000 C   0  0  0  0  0  0  0  0  0  0  0  0
    7.0156   -2.8245    0.0000 C   0  0  0  0  0  0  0  0  0  0  0  0
    2.2778   -0.7593    0.0000 C   0  0  0  0  0  0  0  0  0  0  0  0
    9.1112   -3.9482    0.0000 C   0  0  0  0  0  0  0  0  0  0  0  0
    5.5882   -2.8245    0.0000 C   0  0  0  0  0  0  0  0  0  0  0  0
    7.0156   -2.0044    0.0000 C   0  0  0  0  0  0  0  0  0  0  0  0
    6.3171   -3.2193    0.0000 C   0  0  0  0  0  0  0  0  0  0  0  0
    2.4600   -2.1563    0.0000 C   0  0  0  0  0  0  0  0  0  0  0  0
    1.4578   -0.8504    0.0000 C   0  0  0  0  0  0  0  0  0  0  0  0
    1.1541   -1.6097    0.0000 C   0  0  0  0  0  0  0  0  0  0  0  0
    1.6400   -2.2474    0.0000 C   0  0  0  0  0  0  0  0  0  0  0  0
    2.6118    0.0000    0.0000 C   0  0  0  0  0  0  0  0  0  0  0  0
    0.3341   -1.7007    0.0000 C   0  0  0  0  0  0  0  0  0  0  0  0
    8.2608   -2.8245    0.0000 C   0  0  0  0  0  0  0  0  0  0  0  0
  1 11  1  0  0  0  0
  2 20  1  0  0  0  0
  2 30  1  0  0  0  0
  3 17  2  0  0  0  0
  4  6  1  0  0  0  0
  4 11  1  0  0  0  0
  4 12  1  0  0  0  0
  5  9  1  0  0  0  0
  5 17  1  0  0  0  0
  6 16  2  0  0  0  0
  7 12  2  0  0  0  0
  7 22  1  0  0  0  0
  8 29  3  0  0  0  0
  9 14  1  0  0  0  0
  9 15  1  0  0  0  0
  9 20  1  0  0  0  0
 10 11  2  0  0  0  0
 10 13  1  0  0  0  0
 10 16  1  0  0  0  0
 12 21  1  0  0  0  0
 13 19  1  0  0  0  0
 13 24  2  0  0  0  0
 14 15  1  0  0  0  0
 17 18  1  0  0  0  0
 18 22  2  0  0  0  0
 18 23  1  0  0  0  0
 19 25  2  0  0  0  0
 19 28  1  0  0  0  0
 21 23  2  0  0  0  0
 24 27  1  0  0  0  0
 25 26  1  0  0  0  0
 26 27  2  0  0  0  0
 26 29  1  0  0  0  0
M  END
> <PUBCHEM_COMPOUND_ID_TYPE>
0

> <PUBCHEM_TOTAL_CHARGE>
0

> <PUBCHEM_SUBSTANCE_ID>
310931901

> <PUBCHEM_SUBSTANCE_VERSION>
1

> <PUBCHEM_EXT_DATASOURCE_NAME>
4488

> <PUBCHEM_EXT_DATASOURCE_REGID>
SCHEMBL16109236

> <PUBCHEM_SUBSTANCE_COMMENT>
InChI=1S/C22H21N5O3/c1-14-9-15(10-23)3-5-17(14)18-12-25-27(21(18)29)19-6-4-16(11-24-19)20(28)26-22(7-8-22)13-30-2/h3-6,9,11-12,29H,7-8,13H2,1-2H3,(H,26,28)
InChIKey=AEAUMHDZMPYLME-UHFFFAOYSA-N

> <PUBCHEM_SUBSTANCE_SYNONYM>
SCHEMBL16109236

> <PUBCHEM_XREF_EXT_ID>
SCHEMBL16109236

> <PUBCHEM_EXT_DATASOURCE_URL>
https://www.surechembl.org/

> <PUBCHEM_EXT_SUBSTANCE_URL>
https://www.surechembl.org/chemical/SCHEMBL16109236

> <PUBCHEM_CID_ASSOCIATIONS>
117600556  1

> <PUBCHEM_COORDINATE_TYPE>
1
3

$$$$
