310930486
  -OEChem-07211613022D

 16 18  0     0  0  0  0  0  0999 V2000
    0.0702    0.0000    0.0000 O   0  0  0  0  0  0  0  0  0  0  0  0
    2.8963   -2.1063    0.0000 O   0  0  0  0  0  0  0  0  0  0  0  0
    1.6500   -1.4218    0.0000 C   0  0  0  0  0  0  0  0  0  0  0  0
    1.2112   -2.1063    0.0000 C   0  0  0  0  0  0  0  0  0  0  0  0
    1.2112   -0.7197    0.0000 C   0  0  0  0  0  0  0  0  0  0  0  0
    0.4564   -2.1063    0.0000 C   0  0  0  0  0  0  0  0  0  0  0  0
    0.4564   -0.7197    0.0000 C   0  0  0  0  0  0  0  0  0  0  0  0
    2.4750   -1.4218    0.0000 C   0  0  0  0  0  0  0  0  0  0  0  0
    0.0000   -1.4218    0.0000 C   0  0  0  0  0  0  0  0  0  0  0  0
    1.6500   -0.0176    0.0000 C   0  0  0  0  0  0  0  0  0  0  0  0
    1.6500   -2.8085    0.0000 C   0  0  0  0  0  0  0  0  0  0  0  0
    2.8612   -0.7197    0.0000 C   0  0  0  0  0  0  0  0  0  0  0  0
    0.0000   -2.8085    0.0000 C   0  0  0  0  0  0  0  0  0  0  0  0
    2.4750   -0.0176    0.0000 C   0  0  0  0  0  0  0  0  0  0  0  0
    1.2112   -3.5106    0.0000 C   0  0  0  0  0  0  0  0  0  0  0  0
    0.4564   -3.5106    0.0000 C   0  0  0  0  0  0  0  0  0  0  0  0
  1  7  1  0  0  0  0
  2  8  1  0  0  0  0
  3  4  2  0  0  0  0
  3  5  1  0  0  0  0
  3  8  1  0  0  0  0
  4  6  1  0  0  0  0
  4 11  1  0  0  0  0
  5  7  2  0  0  0  0
  5 10  1  0  0  0  0
  6  9  2  0  0  0  0
  6 13  1  0  0  0  0
  7  9  1  0  0  0  0
  8 12  2  0  0  0  0
 10 14  2  0  0  0  0
 11 15  2  0  0  0  0
 12 14  1  0  0  0  0
 13 16  2  0  0  0  0
 15 16  1  0  0  0  0
M  END
> <PUBCHEM_COMPOUND_ID_TYPE>
0

> <PUBCHEM_TOTAL_CHARGE>
0

> <PUBCHEM_SUBSTANCE_ID>
310930486

> <PUBCHEM_SUBSTANCE_VERSION>
1

> <PUBCHEM_EXT_DATASOURCE_NAME>
4488

> <PUBCHEM_EXT_DATASOURCE_REGID>
SCHEMBL16107776

> <PUBCHEM_SUBSTANCE_COMMENT>
InChI=1S/C14H10O2/c15-12-7-3-6-11-13(16)8-9-4-1-2-5-10(9)14(11)12/h1-8,15-16H
InChIKey=WGAHMZHBIWNJCJ-UHFFFAOYSA-N

> <PUBCHEM_SUBSTANCE_SYNONYM>
SCHEMBL16107776

> <PUBCHEM_XREF_EXT_ID>
SCHEMBL16107776

> <PUBCHEM_EXT_DATASOURCE_URL>
https://www.surechembl.org/

> <PUBCHEM_EXT_SUBSTANCE_URL>
https://www.surechembl.org/chemical/SCHEMBL16107776

> <PUBCHEM_CID_ASSOCIATIONS>
45093195  1

> <PUBCHEM_COORDINATE_TYPE>
1
3

$$$$
