310939462
  -OEChem-07211613022D

 32 35  0     0  0  0  0  0  0999 V2000
    1.0313    1.0718    0.0000 F   0  0  0  0  0  0  0  0  0  0  0  0
    1.0313   -0.3573    0.0000 C   0  0  0  0  0  0  0  0  0  0  0  0
   -0.6188   -0.3573    0.0000 C   0  0  0  0  0  0  0  0  0  0  0  0
   -1.3943   -0.3573    0.0000 C   0  0  0  0  0  0  0  0  0  0  0  0
    0.6188    0.3573    0.0000 C   0  0  0  0  0  0  0  0  0  0  0  0
    1.8068   -0.3573    0.0000 C   0  0  0  0  0  0  0  0  0  0  0  0
   -0.2062    0.3573    0.0000 C   0  0  0  0  0  0  0  0  0  0  0  0
    0.6188   -1.0718    0.0000 C   0  0  0  0  0  0  0  0  0  0  0  0
   -0.2062   -1.0718    0.0000 C   0  0  0  0  0  0  0  0  0  0  0  0
   -3.0443   -0.3573    0.0000 C   0  0  0  0  0  0  0  0  0  0  0  0
   -1.8068    0.3573    0.0000 C   0  0  0  0  0  0  0  0  0  0  0  0
   -1.8068   -1.0718    0.0000 C   0  0  0  0  0  0  0  0  0  0  0  0
   -3.8199   -0.3573    0.0000 C   0  0  0  0  0  0  0  0  0  0  0  0
   -2.6319    0.3573    0.0000 C   0  0  0  0  0  0  0  0  0  0  0  0
   -2.6319   -1.0718    0.0000 C   0  0  0  0  0  0  0  0  0  0  0  0
    2.2193   -1.0718    0.0000 C   0  0  0  0  0  0  0  0  0  0  0  0
    2.2193    0.3573    0.0000 C   0  0  0  0  0  0  0  0  0  0  0  0
    3.4569   -0.3573    0.0000 C   0  0  0  0  0  0  0  0  0  0  0  0
    3.0443   -1.0718    0.0000 C   0  0  0  0  0  0  0  0  0  0  0  0
    3.0443    0.3573    0.0000 C   0  0  0  0  0  0  0  0  0  0  0  0
   -4.2323    0.3573    0.0000 C   0  0  0  0  0  0  0  0  0  0  0  0
   -4.2323   -1.0718    0.0000 C   0  0  0  0  0  0  0  0  0  0  0  0
   -5.4698   -0.3573    0.0000 C   0  0  0  0  0  0  0  0  0  0  0  0
   -5.0574    0.3573    0.0000 C   0  0  0  0  0  0  0  0  0  0  0  0
   -5.0574   -1.0718    0.0000 C   0  0  0  0  0  0  0  0  0  0  0  0
    4.2323   -0.3573    0.0000 C   0  0  0  0  0  0  0  0  0  0  0  0
   -6.2454   -0.3573    0.0000 C   0  0  0  0  0  0  0  0  0  0  0  0
    4.6449   -1.0718    0.0000 C   0  0  0  0  0  0  0  0  0  0  0  0
   -6.6580   -1.0718    0.0000 C   0  0  0  0  0  0  0  0  0  0  0  0
    5.4698   -1.0718    0.0000 C   0  0  0  0  0  0  0  0  0  0  0  0
    5.8824   -0.3573    0.0000 C   0  0  0  0  0  0  0  0  0  0  0  0
    6.6580   -0.3573    0.0000 C   0  0  0  0  0  0  0  0  0  0  0  0
  1  5  1  0  0  0  0
  2  5  1  0  0  0  0
  2  6  1  0  0  0  0
  2  8  2  0  0  0  0
  3  4  1  0  0  0  0
  3  7  1  0  0  0  0
  3  9  2  0  0  0  0
  4 11  2  0  0  0  0
  4 12  1  0  0  0  0
  5  7  2  0  0  0  0
  6 16  2  0  0  0  0
  6 17  1  0  0  0  0
  8  9  1  0  0  0  0
 10 13  1  0  0  0  0
 10 14  2  0  0  0  0
 10 15  1  0  0  0  0
 11 14  1  0  0  0  0
 12 15  2  0  0  0  0
 13 21  2  0  0  0  0
 13 22  1  0  0  0  0
 16 19  1  0  0  0  0
 17 20  2  0  0  0  0
 18 19  2  0  0  0  0
 18 20  1  0  0  0  0
 18 26  1  0  0  0  0
 21 24  1  0  0  0  0
 22 25  2  0  0  0  0
 23 24  2  0  0  0  0
 23 25  1  0  0  0  0
 23 27  1  0  0  0  0
 26 28  1  0  0  0  0
 27 29  1  0  0  0  0
 28 30  1  0  0  0  0
 30 31  1  0  0  0  0
 31 32  1  0  0  0  0
M  END
> <PUBCHEM_COMPOUND_ID_TYPE>
0

> <PUBCHEM_TOTAL_CHARGE>
0

> <PUBCHEM_SUBSTANCE_ID>
310939462

> <PUBCHEM_SUBSTANCE_VERSION>
1

> <PUBCHEM_EXT_DATASOURCE_NAME>
4488

> <PUBCHEM_EXT_DATASOURCE_REGID>
SCHEMBL16117386

> <PUBCHEM_SUBSTANCE_COMMENT>
InChI=1S/C31H31F/c1-3-5-6-7-24-10-14-28(15-11-24)30-21-20-29(22-31(30)32)27-18-16-26(17-19-27)25-12-8-23(4-2)9-13-25/h8-22H,3-7H2,1-2H3
InChIKey=XWANOXVILOOEBL-UHFFFAOYSA-N

> <PUBCHEM_SUBSTANCE_SYNONYM>
SCHEMBL16117386

> <PUBCHEM_XREF_EXT_ID>
SCHEMBL16117386

> <PUBCHEM_EXT_DATASOURCE_URL>
https://www.surechembl.org/

> <PUBCHEM_EXT_SUBSTANCE_URL>
https://www.surechembl.org/chemical/SCHEMBL16117386

> <PUBCHEM_CID_ASSOCIATIONS>
86255105  1

> <PUBCHEM_COORDINATE_TYPE>
1
3

$$$$
