310943431
  -OEChem-07211613022D

 37 40  0     0  0  0  0  0  0999 V2000
    5.0248    0.4389    0.0000 S   0  0  0  0  0  0  0  0  0  0  0  0
    5.8294    0.2194    0.0000 O   0  0  0  0  0  0  0  0  0  0  0  0
    5.7416    0.8485    0.0000 O   0  0  0  0  0  0  0  0  0  0  0  0
   -2.9476   -1.8871    0.0000 O   0  0  0  0  0  0  0  0  0  0  0  0
    1.5725    1.6822    0.0000 O   0  0  0  0  0  0  0  0  0  0  0  0
   -5.8294    1.4775    0.0000 O   0  0  0  0  0  0  0  0  0  0  0  0
   -3.6791   -0.6583    0.0000 N   0  0  0  0  0  0  0  0  0  0  0  0
   -4.3959    0.6583    0.0000 N   0  0  0  0  0  0  0  0  0  0  0  0
    0.7973    0.2633    0.0000 N   0  0  0  0  0  0  0  0  0  0  0  0
   -0.6948    1.8871    0.0000 N   0  0  0  0  0  0  0  0  0  0  0  0
    4.3081    0.8630    0.0000 C   0  0  0  0  0  0  0  0  0  0  0  0
   -2.2308    0.1756    0.0000 C   0  0  0  0  0  0  0  0  0  0  0  0
    3.6059    0.4389    0.0000 C   0  0  0  0  0  0  0  0  0  0  0  0
   -1.4116    0.6583    0.0000 C   0  0  0  0  0  0  0  0  0  0  0  0
   -3.6644    0.1756    0.0000 C   0  0  0  0  0  0  0  0  0  0  0  0
   -2.9622    0.5705    0.0000 C   0  0  0  0  0  0  0  0  0  0  0  0
   -2.9476   -1.0386    0.0000 C   0  0  0  0  0  0  0  0  0  0  0  0
   -2.2455   -0.6583    0.0000 C   0  0  0  0  0  0  0  0  0  0  0  0
   -1.3970    1.4628    0.0000 C   0  0  0  0  0  0  0  0  0  0  0  0
    2.1723    0.4389    0.0000 C   0  0  0  0  0  0  0  0  0  0  0  0
    2.8745    0.8338    0.0000 C   0  0  0  0  0  0  0  0  0  0  0  0
    0.0219    0.6583    0.0000 C   0  0  0  0  0  0  0  0  0  0  0  0
   -0.6656    0.2487    0.0000 C   0  0  0  0  0  0  0  0  0  0  0  0
    1.5579    0.8338    0.0000 C   0  0  0  0  0  0  0  0  0  0  0  0
    3.5913   -0.3803    0.0000 C   0  0  0  0  0  0  0  0  0  0  0  0
    4.3227    1.6822    0.0000 C   0  0  0  0  0  0  0  0  0  0  0  0
    4.9079    1.4335    0.0000 C   0  0  0  0  0  0  0  0  0  0  0  0
    0.0366    1.4628    0.0000 C   0  0  0  0  0  0  0  0  0  0  0  0
    2.1723   -0.3803    0.0000 C   0  0  0  0  0  0  0  0  0  0  0  0
    2.8891   -0.7899    0.0000 C   0  0  0  0  0  0  0  0  0  0  0  0
   -4.3959    1.4775    0.0000 C   0  0  0  0  0  0  0  0  0  0  0  0
   -5.0980    0.2487    0.0000 C   0  0  0  0  0  0  0  0  0  0  0  0
    5.0395   -0.3950    0.0000 C   0  0  0  0  0  0  0  0  0  0  0  0
   -4.3959   -1.0825    0.0000 C   0  0  0  0  0  0  0  0  0  0  0  0
   -2.1284    1.8578    0.0000 C   0  0  0  0  0  0  0  0  0  0  0  0
   -5.1126    1.8871    0.0000 C   0  0  0  0  0  0  0  0  0  0  0  0
   -5.8294    0.6583    0.0000 C   0  0  0  0  0  0  0  0  0  0  0  0
  1  2  2  0  0  0  0
  1  3  2  0  0  0  0
  1 11  1  0  0  0  0
  1 33  1  0  0  0  0
  4 17  2  0  0  0  0
  5 24  2  0  0  0  0
  6 36  1  0  0  0  0
  6 37  1  0  0  0  0
  7 15  1  0  0  0  0
  7 17  1  0  0  0  0
  7 34  1  0  0  0  0
  8 15  1  0  0  0  0
  8 31  1  0  0  0  0
  8 32  1  0  0  0  0
  9 22  1  0  0  0  0
  9 24  1  0  0  0  0
 10 19  2  0  0  0  0
 10 28  1  0  0  0  0
 11 13  1  0  0  0  0
 11 26  1  0  0  0  0
 11 27  1  0  0  0  0
 12 14  1  0  0  0  0
 12 16  1  0  0  0  0
 12 18  2  0  0  0  0
 13 21  2  0  0  0  0
 13 25  1  0  0  0  0
 14 19  1  0  0  0  0
 14 23  2  0  0  0  0
 15 16  2  0  0  0  0
 17 18  1  0  0  0  0
 19 35  1  0  0  0  0
 20 21  1  0  0  0  0
 20 24  1  0  0  0  0
 20 29  2  0  0  0  0
 22 23  1  0  0  0  0
 22 28  2  0  0  0  0
 25 30  2  0  0  0  0
 29 30  1  0  0  0  0
 31 36  1  0  0  0  0
 32 37  1  0  0  0  0
M  END
> <PUBCHEM_COMPOUND_ID_TYPE>
0

> <PUBCHEM_TOTAL_CHARGE>
0

> <PUBCHEM_SUBSTANCE_ID>
310943431

> <PUBCHEM_SUBSTANCE_VERSION>
1

> <PUBCHEM_EXT_DATASOURCE_NAME>
4488

> <PUBCHEM_EXT_DATASOURCE_REGID>
SCHEMBL16121495

> <PUBCHEM_SUBSTANCE_COMMENT>
InChI=1S/C27H32N4O5S/c1-18-23(20-14-24(30(4)25(32)15-20)31-9-11-36-12-10-31)16-22(17-28-18)29-26(33)19-7-6-8-21(13-19)27(2,3)37(5,34)35/h6-8,13-17H,9-12H2,1-5H3,(H,29,33)
InChIKey=RRUNJLDIPKMNLZ-UHFFFAOYSA-N

> <PUBCHEM_SUBSTANCE_SYNONYM>
SCHEMBL16121495

> <PUBCHEM_XREF_EXT_ID>
SCHEMBL16121495

> <PUBCHEM_EXT_DATASOURCE_URL>
https://www.surechembl.org/

> <PUBCHEM_EXT_SUBSTANCE_URL>
https://www.surechembl.org/chemical/SCHEMBL16121495

> <PUBCHEM_CID_ASSOCIATIONS>
117609855  1

> <PUBCHEM_COORDINATE_TYPE>
1
3

$$$$
