310935801
  -OEChem-07211613022D

 20 22  0     0  0  0  0  0  0999 V2000
    2.0387   -1.3268    0.0000 S   0  0  0  0  0  0  0  0  0  0  0  0
    0.6472   -2.3947    0.0000 N   0  0  0  0  0  0  0  0  0  0  0  0
    2.0387    0.0000    0.0000 N   0  0  0  0  0  0  0  0  0  0  0  0
    3.3332   -0.6796    0.0000 N   0  0  0  0  0  0  0  0  0  0  0  0
    1.2621   -1.0679    0.0000 C   0  0  0  0  0  0  0  0  0  0  0  0
    0.8090   -4.0127    0.0000 C   0  0  0  0  0  0  0  0  0  0  0  0
    0.5825   -1.5533    0.0000 C   0  0  0  0  0  0  0  0  0  0  0  0
    2.4917   -0.6796    0.0000 C   0  0  0  0  0  0  0  0  0  0  0  0
    0.9061   -4.8217    0.0000 C   0  0  0  0  0  0  0  0  0  0  0  0
    1.2621   -0.2589    0.0000 C   0  0  0  0  0  0  0  0  0  0  0  0
    1.4239   -2.7183    0.0000 C   0  0  0  0  0  0  0  0  0  0  0  0
    0.0000   -2.8477    0.0000 C   0  0  0  0  0  0  0  0  0  0  0  0
    1.4886   -3.5273    0.0000 C   0  0  0  0  0  0  0  0  0  0  0  0
    0.0647   -3.6568    0.0000 C   0  0  0  0  0  0  0  0  0  0  0  0
    1.6504   -5.1777    0.0000 C   0  0  0  0  0  0  0  0  0  0  0  0
    0.2265   -5.3072    0.0000 C   0  0  0  0  0  0  0  0  0  0  0  0
    1.7151   -5.9867    0.0000 C   0  0  0  0  0  0  0  0  0  0  0  0
    0.2912   -6.1161    0.0000 C   0  0  0  0  0  0  0  0  0  0  0  0
    1.0356   -6.4721    0.0000 C   0  0  0  0  0  0  0  0  0  0  0  0
    3.7538   -1.3915    0.0000 C   0  0  0  0  0  0  0  0  0  0  0  0
  1  5  1  0  0  0  0
  1  8  1  0  0  0  0
  2  7  1  0  0  0  0
  2 11  1  0  0  0  0
  2 12  1  0  0  0  0
  3  8  2  0  0  0  0
  3 10  1  0  0  0  0
  4  8  1  0  0  0  0
  4 20  1  0  0  0  0
  5  7  1  0  0  0  0
  5 10  2  0  0  0  0
  6  9  1  0  0  0  0
  6 13  1  0  0  0  0
  6 14  1  0  0  0  0
  9 15  2  0  0  0  0
  9 16  1  0  0  0  0
 11 13  1  0  0  0  0
 12 14  1  0  0  0  0
 15 17  1  0  0  0  0
 16 18  2  0  0  0  0
 17 19  2  0  0  0  0
 18 19  1  0  0  0  0
M  END
> <PUBCHEM_COMPOUND_ID_TYPE>
0

> <PUBCHEM_TOTAL_CHARGE>
0

> <PUBCHEM_SUBSTANCE_ID>
310935801

> <PUBCHEM_SUBSTANCE_VERSION>
1

> <PUBCHEM_EXT_DATASOURCE_NAME>
4488

> <PUBCHEM_EXT_DATASOURCE_REGID>
SCHEMBL16113387

> <PUBCHEM_SUBSTANCE_COMMENT>
InChI=1S/C16H21N3S/c1-17-16-18-11-15(20-16)12-19-9-7-14(8-10-19)13-5-3-2-4-6-13/h2-6,11,14H,7-10,12H2,1H3,(H,17,18)
InChIKey=MZIFETGYWNYHCD-UHFFFAOYSA-N

> <PUBCHEM_SUBSTANCE_SYNONYM>
SCHEMBL16113387

> <PUBCHEM_XREF_EXT_ID>
SCHEMBL16113387

> <PUBCHEM_EXT_DATASOURCE_URL>
https://www.surechembl.org/

> <PUBCHEM_EXT_SUBSTANCE_URL>
https://www.surechembl.org/chemical/SCHEMBL16113387

> <PUBCHEM_CID_ASSOCIATIONS>
117603795  1

> <PUBCHEM_COORDINATE_TYPE>
1
3

$$$$
