310929296
  -OEChem-07211613022D

 59 64  0     0  0  0  0  0  0999 V2000
    1.4838   -0.7163    0.0000 S   0  0  0  0  0  0  0  0  0  0  0  0
   14.6328   -2.3024    0.0000 S   0  0  0  0  0  0  0  0  0  0  0  0
    3.7861   -2.1488    0.0000 O   0  0  0  0  0  0  0  0  0  0  0  0
    6.5489   -1.9442    0.0000 O   0  0  0  0  0  0  0  0  0  0  0  0
    2.9163   -4.9117    0.0000 O   0  0  0  0  0  0  0  0  0  0  0  0
    0.9721   -1.4838    0.0000 O   0  0  0  0  0  0  0  0  0  0  0  0
    1.8931    0.0000    0.0000 O   0  0  0  0  0  0  0  0  0  0  0  0
    9.4652   -6.9582    0.0000 O   0  0  0  0  0  0  0  0  0  0  0  0
   10.9490   -3.5815    0.0000 O   0  0  0  0  0  0  0  0  0  0  0  0
   15.3491   -1.8931    0.0000 O   0  0  0  0  0  0  0  0  0  0  0  0
    3.6326   -3.6326    0.0000 N   0  0  0  0  0  0  0  0  0  0  0  0
    2.2000   -1.1256    0.0000 N   0  0  0  0  0  0  0  0  0  0  0  0
    4.3489   -4.9117    0.0000 N   0  0  0  0  0  0  0  0  0  0  0  0
    8.0327   -4.4512    0.0000 N   0  0  0  0  0  0  0  0  0  0  0  0
    8.7490   -3.1722    0.0000 N   0  0  0  0  0  0  0  0  0  0  0  0
   11.6653   -4.8605    0.0000 N   0  0  0  0  0  0  0  0  0  0  0  0
   13.1491   -3.1722    0.0000 N   0  0  0  0  0  0  0  0  0  0  0  0
    2.9163   -3.2233    0.0000 C   0  0  0  0  0  0  0  0  0  0  0  0
    4.3489   -3.2233    0.0000 C   0  0  0  0  0  0  0  0  0  0  0  0
    4.3489   -2.4047    0.0000 C   0  0  0  0  0  0  0  0  0  0  0  0
    2.9163   -2.4047    0.0000 C   0  0  0  0  0  0  0  0  0  0  0  0
    5.0652   -1.9954    0.0000 C   0  0  0  0  0  0  0  0  0  0  0  0
    2.2000   -1.9442    0.0000 C   0  0  0  0  0  0  0  0  0  0  0  0
    1.4326   -3.2233    0.0000 C   0  0  0  0  0  0  0  0  0  0  0  0
    2.2000   -3.6326    0.0000 C   0  0  0  0  0  0  0  0  0  0  0  0
    5.8326   -2.3535    0.0000 C   0  0  0  0  0  0  0  0  0  0  0  0
    3.6326   -4.5024    0.0000 C   0  0  0  0  0  0  0  0  0  0  0  0
    5.1164   -3.6326    0.0000 C   0  0  0  0  0  0  0  0  0  0  0  0
    1.4326   -2.3535    0.0000 C   0  0  0  0  0  0  0  0  0  0  0  0
    0.7163   -3.6326    0.0000 C   0  0  0  0  0  0  0  0  0  0  0  0
    5.8326   -3.2233    0.0000 C   0  0  0  0  0  0  0  0  0  0  0  0
    3.6326   -1.9954    0.0000 C   0  0  0  0  0  0  0  0  0  0  0  0
    5.0652   -1.1256    0.0000 C   0  0  0  0  0  0  0  0  0  0  0  0
    3.6326   -1.1256    0.0000 C   0  0  0  0  0  0  0  0  0  0  0  0
    4.3489   -0.7163    0.0000 C   0  0  0  0  0  0  0  0  0  0  0  0
    7.2652   -2.3535    0.0000 C   0  0  0  0  0  0  0  0  0  0  0  0
    0.3070   -2.9163    0.0000 C   0  0  0  0  0  0  0  0  0  0  0  0
    0.0000   -4.0419    0.0000 C   0  0  0  0  0  0  0  0  0  0  0  0
    1.1256   -4.3489    0.0000 C   0  0  0  0  0  0  0  0  0  0  0  0
    7.2652   -3.1722    0.0000 C   0  0  0  0  0  0  0  0  0  0  0  0
    3.7861   -1.2791    0.0000 C   0  0  0  0  0  0  0  0  0  0  0  0
    8.0327   -3.5815    0.0000 C   0  0  0  0  0  0  0  0  0  0  0  0
    7.9815   -1.8931    0.0000 C   0  0  0  0  0  0  0  0  0  0  0  0
    0.7163   -0.2558    0.0000 C   0  0  0  0  0  0  0  0  0  0  0  0
    8.7490   -4.8605    0.0000 C   0  0  0  0  0  0  0  0  0  0  0  0
    8.7490   -2.3535    0.0000 C   0  0  0  0  0  0  0  0  0  0  0  0
   10.2327   -4.8605    0.0000 C   0  0  0  0  0  0  0  0  0  0  0  0
    9.4652   -4.4512    0.0000 C   0  0  0  0  0  0  0  0  0  0  0  0
    8.7490   -5.6792    0.0000 C   0  0  0  0  0  0  0  0  0  0  0  0
    9.4652   -6.1396    0.0000 C   0  0  0  0  0  0  0  0  0  0  0  0
   10.2327   -5.6792    0.0000 C   0  0  0  0  0  0  0  0  0  0  0  0
   10.9490   -4.4512    0.0000 C   0  0  0  0  0  0  0  0  0  0  0  0
   12.3816   -4.4512    0.0000 C   0  0  0  0  0  0  0  0  0  0  0  0
   10.2327   -7.3675    0.0000 C   0  0  0  0  0  0  0  0  0  0  0  0
   12.3816   -3.5815    0.0000 C   0  0  0  0  0  0  0  0  0  0  0  0
   13.8653   -3.5815    0.0000 C   0  0  0  0  0  0  0  0  0  0  0  0
   13.1491   -2.3024    0.0000 C   0  0  0  0  0  0  0  0  0  0  0  0
   14.5816   -3.1722    0.0000 C   0  0  0  0  0  0  0  0  0  0  0  0
   13.8653   -1.8931    0.0000 C   0  0  0  0  0  0  0  0  0  0  0  0
  1  6  2  0  0  0  0
  1  7  2  0  0  0  0
  1 12  1  0  0  0  0
  1 44  1  0  0  0  0
  2 10  2  0  0  0  0
  2 58  1  0  0  0  0
  2 59  1  0  0  0  0
  3 21  1  0  0  0  0
  3 41  1  0  0  0  0
  4 26  1  0  0  0  0
  4 36  1  0  0  0  0
  5 27  2  0  0  0  0
  8 50  1  0  0  0  0
  8 54  1  0  0  0  0
  9 52  2  0  0  0  0
 11 18  1  0  0  0  0
 11 19  1  0  0  0  0
 11 27  1  0  0  0  0
 12 23  1  0  0  0  0
 13 27  1  0  0  0  0
 14 42  1  0  0  0  0
 14 45  1  0  0  0  0
 15 42  2  0  0  0  0
 15 46  1  0  0  0  0
 16 52  1  0  0  0  0
 16 53  1  0  0  0  0
 17 55  1  0  0  0  0
 17 56  1  0  0  0  0
 17 57  1  0  0  0  0
 18 21  1  0  0  0  0
 18 25  2  0  0  0  0
 19 20  1  0  0  0  0
 19 28  2  0  0  0  0
 20 22  2  0  0  0  0
 20 32  1  0  0  0  0
 21 23  2  0  0  0  0
 22 26  1  0  0  0  0
 22 33  1  0  0  0  0
 23 29  1  0  0  0  0
 24 25  1  0  0  0  0
 24 29  2  0  0  0  0
 24 30  1  0  0  0  0
 26 31  2  0  0  0  0
 28 31  1  0  0  0  0
 30 37  1  0  0  0  0
 30 38  1  0  0  0  0
 30 39  1  0  0  0  0
 32 34  2  0  0  0  0
 33 35  2  0  0  0  0
 34 35  1  0  0  0  0
 36 40  2  0  0  0  0
 36 43  1  0  0  0  0
 40 42  1  0  0  0  0
 43 46  2  0  0  0  0
 45 48  1  0  0  0  0
 45 49  2  0  0  0  0
 47 48  2  0  0  0  0
 47 51  1  0  0  0  0
 47 52  1  0  0  0  0
 49 50  1  0  0  0  0
 50 51  2  0  0  0  0
 53 55  1  0  0  0  0
 56 58  1  0  0  0  0
 57 59  1  0  0  0  0
M  END
> <PUBCHEM_COMPOUND_ID_TYPE>
0

> <PUBCHEM_TOTAL_CHARGE>
0

> <PUBCHEM_SUBSTANCE_ID>
310929296

> <PUBCHEM_SUBSTANCE_VERSION>
1

> <PUBCHEM_EXT_DATASOURCE_NAME>
4488

> <PUBCHEM_EXT_DATASOURCE_REGID>
SCHEMBL16106460

> <PUBCHEM_SUBSTANCE_COMMENT>
InChI=1S/C42H49N7O8S2/c1-42(2,3)28-23-34(47-59(6,53)54)39(56-5)36(24-28)49(41(43)51)35-11-12-37(33-10-8-7-9-32(33)35)57-30-13-14-44-38(26-30)46-29-21-27(22-31(25-29)55-4)40(50)45-15-16-48-17-19-58(52)20-18-48/h7-14,21-26,47H,15-20H2,1-6H3,(H2,43,51)(H,44,46)(H,45,50)
InChIKey=XUFYTHPPIPYXCT-UHFFFAOYSA-N

> <PUBCHEM_SUBSTANCE_SYNONYM>
SCHEMBL16106460

> <PUBCHEM_XREF_EXT_ID>
SCHEMBL16106460

> <PUBCHEM_EXT_DATASOURCE_URL>
https://www.surechembl.org/

> <PUBCHEM_EXT_SUBSTANCE_URL>
https://www.surechembl.org/chemical/SCHEMBL16106460

> <PUBCHEM_CID_ASSOCIATIONS>
86273545  1

> <PUBCHEM_COORDINATE_TYPE>
1
3

$$$$
