310932047
  -OEChem-07211613022D

 25 29  0     0  0  0  0  0  0999 V2000
    2.8496   -1.2572    0.0000 N   0  0  0  0  0  0  0  0  0  0  0  0
    6.3697   -4.1347    0.0000 N   0  0  0  0  0  0  0  0  0  0  0  0
    7.8783   -2.6541    0.0000 N   0  0  0  0  0  0  0  0  0  0  0  0
    0.0000   -0.4190    0.0000 N   0  0  0  0  0  0  0  0  0  0  0  0
    4.9729   -2.4864    0.0000 C   0  0  0  0  0  0  0  0  0  0  0  0
    5.6713   -2.8775    0.0000 C   0  0  0  0  0  0  0  0  0  0  0  0
    3.5480   -2.4864    0.0000 C   0  0  0  0  0  0  0  0  0  0  0  0
    3.5480   -1.6483    0.0000 C   0  0  0  0  0  0  0  0  0  0  0  0
    7.0961   -2.8775    0.0000 C   0  0  0  0  0  0  0  0  0  0  0  0
    4.2465   -2.8775    0.0000 C   0  0  0  0  0  0  0  0  0  0  0  0
    7.0961   -3.7436    0.0000 C   0  0  0  0  0  0  0  0  0  0  0  0
    2.1232   -1.6483    0.0000 C   0  0  0  0  0  0  0  0  0  0  0  0
    6.3697   -2.4864    0.0000 C   0  0  0  0  0  0  0  0  0  0  0  0
    4.9729   -1.6483    0.0000 C   0  0  0  0  0  0  0  0  0  0  0  0
    4.2465   -1.2572    0.0000 C   0  0  0  0  0  0  0  0  0  0  0  0
    5.6992   -3.7436    0.0000 C   0  0  0  0  0  0  0  0  0  0  0  0
    2.8496   -2.8775    0.0000 C   0  0  0  0  0  0  0  0  0  0  0  0
    1.4248   -1.2572    0.0000 C   0  0  0  0  0  0  0  0  0  0  0  0
    2.1232   -2.4864    0.0000 C   0  0  0  0  0  0  0  0  0  0  0  0
    7.9063   -3.9671    0.0000 C   0  0  0  0  0  0  0  0  0  0  0  0
    8.3812   -3.2966    0.0000 C   0  0  0  0  0  0  0  0  0  0  0  0
    1.4248   -0.4470    0.0000 C   0  0  0  0  0  0  0  0  0  0  0  0
    0.6984   -1.6763    0.0000 C   0  0  0  0  0  0  0  0  0  0  0  0
    0.7264    0.0000    0.0000 C   0  0  0  0  0  0  0  0  0  0  0  0
    0.0000   -1.2293    0.0000 C   0  0  0  0  0  0  0  0  0  0  0  0
  1  8  2  0  0  0  0
  1 12  1  0  0  0  0
  2 11  1  0  0  0  0
  2 16  2  0  0  0  0
  3  9  1  0  0  0  0
  3 21  1  0  0  0  0
  4 24  2  0  0  0  0
  4 25  1  0  0  0  0
  5  6  1  0  0  0  0
  5 10  2  0  0  0  0
  5 14  1  0  0  0  0
  6 13  2  0  0  0  0
  6 16  1  0  0  0  0
  7  8  1  0  0  0  0
  7 10  1  0  0  0  0
  7 17  2  0  0  0  0
  8 15  1  0  0  0  0
  9 11  2  0  0  0  0
  9 13  1  0  0  0  0
 11 20  1  0  0  0  0
 12 18  1  0  0  0  0
 12 19  2  0  0  0  0
 14 15  2  0  0  0  0
 17 19  1  0  0  0  0
 18 22  2  0  0  0  0
 18 23  1  0  0  0  0
 20 21  2  0  0  0  0
 22 24  1  0  0  0  0
 23 25  2  0  0  0  0
M  END
> <PUBCHEM_COMPOUND_ID_TYPE>
0

> <PUBCHEM_TOTAL_CHARGE>
0

> <PUBCHEM_SUBSTANCE_ID>
310932047

> <PUBCHEM_SUBSTANCE_VERSION>
1

> <PUBCHEM_EXT_DATASOURCE_NAME>
4488

> <PUBCHEM_EXT_DATASOURCE_REGID>
SCHEMBL16109393

> <PUBCHEM_SUBSTANCE_COMMENT>
InChI=1S/C21H14N4/c1-3-19-16(2-4-18(25-19)14-5-8-22-9-6-14)11-15(1)17-12-21-20(24-13-17)7-10-23-21/h1-13,23H
InChIKey=ZOEUSKUYXBVWKV-UHFFFAOYSA-N

> <PUBCHEM_SUBSTANCE_SYNONYM>
SCHEMBL16109393

> <PUBCHEM_XREF_EXT_ID>
SCHEMBL16109393

> <PUBCHEM_EXT_DATASOURCE_URL>
https://www.surechembl.org/

> <PUBCHEM_EXT_SUBSTANCE_URL>
https://www.surechembl.org/chemical/SCHEMBL16109393

> <PUBCHEM_CID_ASSOCIATIONS>
117600678  1

> <PUBCHEM_COORDINATE_TYPE>
1
3

$$$$
