310929663
  -OEChem-07211613022D

 58 65  0     1  0  0  0  0  0999 V2000
    1.5754   -1.3900    0.0000 S   0  0  0  0  0  0  0  0  0  0  0  0
    3.0118   -0.5560    0.0000 O   0  0  0  0  0  0  0  0  0  0  0  0
    5.0042   -2.7801    0.0000 O   0  0  0  0  0  0  0  0  0  0  0  0
    6.1162   -5.1895    0.0000 O   0  0  0  0  0  0  0  0  0  0  0  0
    1.9461   -0.6487    0.0000 O   0  0  0  0  0  0  0  0  0  0  0  0
    1.1584   -2.0851    0.0000 O   0  0  0  0  0  0  0  0  0  0  0  0
    2.0387   -3.6605    0.0000 O   0  0  0  0  0  0  0  0  0  0  0  0
    7.0892   -8.0623    0.0000 O   0  0  0  0  0  0  0  0  0  0  0  0
    1.5290   -7.2283    0.0000 O   0  0  0  0  0  0  0  0  0  0  0  0
    0.6024   -6.3479    0.0000 O   0  0  0  0  0  0  0  0  0  0  0  0
    3.6141   -2.5947    0.0000 N   0  0  0  0  0  0  0  0  0  0  0  0
    2.2704   -1.8071    0.0000 N   0  0  0  0  0  0  0  0  0  0  0  0
    3.2898   -3.9385    0.0000 N   0  0  0  0  0  0  0  0  0  0  0  0
    7.0892   -5.5602    0.0000 N   0  0  0  0  0  0  0  0  0  0  0  0
    1.5290   -5.5602    0.0000 N   0  0  0  0  0  0  0  0  0  0  0  0
    3.7068   -1.8071    0.0000 C   0  0  3  0  0  0  0  0  0  0  0  0
    3.9385   -1.0193    0.0000 C   0  0  3  0  0  0  0  0  0  0  0  0
    4.5408   -1.5754    0.0000 C   0  0  0  0  0  0  0  0  0  0  0  0
    3.0118   -1.3900    0.0000 C   0  0  0  0  0  0  0  0  0  0  0  0
    4.2628   -3.1044    0.0000 C   0  0  0  0  0  0  0  0  0  0  0  0
    4.1702   -3.9385    0.0000 C   0  0  3  0  0  0  0  0  0  0  0  0
    3.7068   -0.1853    0.0000 C   0  0  0  0  0  0  0  0  0  0  0  0
    0.8341   -0.9730    0.0000 C   0  0  0  0  0  0  0  0  0  0  0  0
    4.9578   -4.1238    0.0000 C   0  0  0  0  0  0  0  0  0  0  0  0
    5.6065   -4.4945    0.0000 C   0  0  3  0  0  0  0  0  0  0  0  0
    2.5021   -4.3091    0.0000 C   0  0  0  0  0  0  0  0  0  0  0  0
    4.6335   -3.5678    0.0000 C   0  0  0  0  0  0  0  0  0  0  0  0
    0.0463   -0.9730    0.0000 C   0  0  0  0  0  0  0  0  0  0  0  0
    0.4170   -0.2780    0.0000 C   0  0  0  0  0  0  0  0  0  0  0  0
    6.3942   -5.9772    0.0000 C   0  0  0  0  0  0  0  0  0  0  0  0
    1.9461   -4.9115    0.0000 C   0  0  3  0  0  0  0  0  0  0  0  0
    2.8727    0.0000    0.0000 C   0  0  0  0  0  0  0  0  0  0  0  0
    6.3942   -6.8576    0.0000 C   0  0  0  0  0  0  0  0  0  0  0  0
    7.0892   -7.2283    0.0000 C   0  0  0  0  0  0  0  0  0  0  0  0
    7.7842   -6.8576    0.0000 C   0  0  0  0  0  0  0  0  0  0  0  0
    7.7842   -5.9772    0.0000 C   0  0  0  0  0  0  0  0  0  0  0  0
    1.2974   -4.4018    0.0000 C   0  0  0  0  0  0  0  0  0  0  0  0
    6.1162   -7.5990    0.0000 C   0  0  0  0  0  0  0  0  0  0  0  0
    8.5256   -7.2283    0.0000 C   0  0  0  0  0  0  0  0  0  0  0  0
    8.5256   -5.5602    0.0000 C   0  0  0  0  0  0  0  0  0  0  0  0
    0.4634   -4.6335    0.0000 C   0  0  0  0  0  0  0  0  0  0  0  0
    1.2974   -3.5678    0.0000 C   0  0  0  0  0  0  0  0  0  0  0  0
    1.4364   -6.3479    0.0000 C   0  0  0  0  0  0  0  0  0  0  0  0
    9.2207   -6.8576    0.0000 C   0  0  0  0  0  0  0  0  0  0  0  0
    9.2207   -5.9772    0.0000 C   0  0  0  0  0  0  0  0  0  0  0  0
    5.6065   -8.2013    0.0000 C   0  0  0  0  0  0  0  0  0  0  0  0
    0.0000   -3.9385    0.0000 C   0  0  0  0  0  0  0  0  0  0  0  0
    0.5097   -3.2898    0.0000 C   0  0  0  0  0  0  0  0  0  0  0  0
    7.7842   -8.4793    0.0000 C   0  0  0  0  0  0  0  0  0  0  0  0
    1.9461   -7.9232    0.0000 C   0  0  3  0  0  0  0  0  0  0  0  0
    2.5021   -8.4793    0.0000 C   0  0  3  0  0  0  0  0  0  0  0  0
    4.8188   -8.4329    0.0000 C   0  0  0  0  0  0  0  0  0  0  0  0
    1.2510   -8.2939    0.0000 C   0  0  0  0  0  0  0  0  0  0  0  0
    3.2898   -8.8036    0.0000 C   0  0  0  0  0  0  0  0  0  0  0  0
    2.2241   -9.2670    0.0000 C   0  0  0  0  0  0  0  0  0  0  0  0
    4.1702   -8.8963    0.0000 C   0  0  0  0  0  0  0  0  0  0  0  0
    1.3437   -9.1743    0.0000 C   0  0  0  0  0  0  0  0  0  0  0  0
    8.5256   -8.0623    0.0000 C   0  0  0  0  0  0  0  0  0  0  0  0
  1  5  2  0  0  0  0
  1  6  2  0  0  0  0
  1 12  1  0  0  0  0
  1 23  1  0  0  0  0
  2 19  2  0  0  0  0
  3 20  2  0  0  0  0
  4 25  1  0  0  0  0
  4 30  1  0  0  0  0
  7 26  2  0  0  0  0
  8 34  1  0  0  0  0
  8 49  1  0  0  0  0
  9 43  1  0  0  0  0
  9 50  1  0  0  0  0
 10 43  2  0  0  0  0
 16 11  1  1  0  0  0
 11 20  1  0  0  0  0
 12 19  1  0  0  0  0
 13 21  1  0  0  0  0
 13 26  1  0  0  0  0
 13 27  1  0  0  0  0
 14 30  1  0  0  0  0
 14 36  2  0  0  0  0
 15 31  1  0  0  0  0
 15 43  1  0  0  0  0
 16 17  1  0  0  0  0
 16 18  1  0  0  0  0
 16 19  1  6  0  0  0
 17 18  1  0  0  0  0
 17 22  1  6  0  0  0
 21 20  1  6  0  0  0
 21 24  1  0  0  0  0
 22 32  2  0  0  0  0
 23 28  1  0  0  0  0
 23 29  1  0  0  0  0
 25 24  1  1  0  0  0
 25 27  1  0  0  0  0
 31 26  1  1  0  0  0
 28 29  1  0  0  0  0
 30 33  2  0  0  0  0
 31 37  1  0  0  0  0
 33 34  1  0  0  0  0
 33 38  1  0  0  0  0
 34 35  2  0  0  0  0
 35 36  1  0  0  0  0
 35 39  1  0  0  0  0
 36 40  1  0  0  0  0
 37 41  1  0  0  0  0
 37 42  1  0  0  0  0
 38 46  1  0  0  0  0
 39 44  2  0  0  0  0
 40 45  2  0  0  0  0
 41 47  1  0  0  0  0
 42 48  1  0  0  0  0
 44 45  1  0  0  0  0
 46 52  2  0  0  0  0
 47 48  1  0  0  0  0
 49 58  1  0  0  0  0
 50 51  1  0  0  0  0
 50 53  1  1  0  0  0
 51 54  1  0  0  0  0
 51 55  1  6  0  0  0
 52 56  1  0  0  0  0
 53 57  1  0  0  0  0
 54 56  1  0  0  0  0
 55 57  1  0  0  0  0
M  END
> <PUBCHEM_COMPOUND_ID_TYPE>
0

> <PUBCHEM_TOTAL_CHARGE>
0

> <PUBCHEM_SUBSTANCE_ID>
310929663

> <PUBCHEM_SUBSTANCE_VERSION>
1

> <PUBCHEM_EXT_DATASOURCE_NAME>
4488

> <PUBCHEM_EXT_DATASOURCE_REGID>
SCHEMBL16106854

> <PUBCHEM_SUBSTANCE_COMMENT>
InChI=1S/C43H55N5O9S/c1-3-28-24-43(28,41(51)47-58(53,54)30-21-22-30)46-38(49)34-23-29-25-48(34)40(50)36(27-14-8-9-15-27)45-42(52)57-35-20-12-16-26(35)13-6-5-7-18-32-37(55-4-2)31-17-10-11-19-33(31)44-39(32)56-29/h3,5,7,10-11,17,19,26-30,34-36H,1,4,6,8-9,12-16,18,20-25H2,2H3,(H,45,52)(H,46,49)(H,47,51)/b7-5+/t26-,28-,29-,34+,35-,36+,43-/m1/s1
InChIKey=KZWOUSNDQCYXRR-KBQZGHNYSA-N

> <PUBCHEM_SUBSTANCE_SYNONYM>
SCHEMBL16106854

> <PUBCHEM_XREF_EXT_ID>
SCHEMBL16106854

> <PUBCHEM_EXT_DATASOURCE_URL>
https://www.surechembl.org/

> <PUBCHEM_EXT_SUBSTANCE_URL>
https://www.surechembl.org/chemical/SCHEMBL16106854

> <PUBCHEM_CID_ASSOCIATIONS>
117598962  1

> <PUBCHEM_COORDINATE_TYPE>
1
3

> <PUBCHEM_BONDANNOTATIONS>
16  11  5
16  19  6
17  22  6
21  20  6
25  24  5
31  26  5
50  53  5
51  55  6

$$$$
