310941512
  -OEChem-07211613022D

 18 20  0     0  0  0  0  0  0999 V2000
   -2.1757   -1.7228    0.0000 Cl  0  0  0  0  0  0  0  0  0  0  0  0
   -0.7198   -0.8816    0.0000 O   0  0  0  0  0  0  0  0  0  0  0  0
    1.5934    1.7228    0.0000 O   0  0  0  0  0  0  0  0  0  0  0  0
    0.6875   -0.8816    0.0000 O   0  0  0  0  0  0  0  0  0  0  0  0
    1.4478    0.3963    0.0000 N   0  0  0  0  0  0  0  0  0  0  0  0
    2.8227    0.9625    0.0000 N   0  0  0  0  0  0  0  0  0  0  0  0
    0.0081    0.3316    0.0000 C   0  0  0  0  0  0  0  0  0  0  0  0
   -1.4316   -0.4772    0.0000 C   0  0  0  0  0  0  0  0  0  0  0  0
   -1.4316    0.3316    0.0000 C   0  0  0  0  0  0  0  0  0  0  0  0
    0.7198    0.7522    0.0000 C   0  0  0  0  0  0  0  0  0  0  0  0
   -0.0404   -0.4772    0.0000 C   0  0  0  0  0  0  0  0  0  0  0  0
   -0.7360    0.7522    0.0000 C   0  0  0  0  0  0  0  0  0  0  0  0
   -2.1434   -0.9140    0.0000 C   0  0  0  0  0  0  0  0  0  0  0  0
    0.8169    1.5772    0.0000 C   0  0  0  0  0  0  0  0  0  0  0  0
   -2.1595    0.7360    0.0000 C   0  0  0  0  0  0  0  0  0  0  0  0
    1.9977    1.0272    0.0000 C   0  0  0  0  0  0  0  0  0  0  0  0
   -2.8227   -0.4934    0.0000 C   0  0  0  0  0  0  0  0  0  0  0  0
   -2.8227    0.3316    0.0000 C   0  0  0  0  0  0  0  0  0  0  0  0
  1 13  1  0  0  0  0
  2  8  1  0  0  0  0
  2 11  1  0  0  0  0
  3 14  1  0  0  0  0
  3 16  1  0  0  0  0
  4 11  2  0  0  0  0
  5 10  1  0  0  0  0
  5 16  2  0  0  0  0
  6 16  1  0  0  0  0
  7 10  1  0  0  0  0
  7 11  1  0  0  0  0
  7 12  2  0  0  0  0
  8  9  1  0  0  0  0
  8 13  2  0  0  0  0
  9 12  1  0  0  0  0
  9 15  2  0  0  0  0
 10 14  2  0  0  0  0
 13 17  1  0  0  0  0
 15 18  1  0  0  0  0
 17 18  2  0  0  0  0
M  END
> <PUBCHEM_COMPOUND_ID_TYPE>
0

> <PUBCHEM_TOTAL_CHARGE>
0

> <PUBCHEM_SUBSTANCE_ID>
310941512

> <PUBCHEM_SUBSTANCE_VERSION>
1

> <PUBCHEM_EXT_DATASOURCE_NAME>
4488

> <PUBCHEM_EXT_DATASOURCE_REGID>
SCHEMBL16119543

> <PUBCHEM_SUBSTANCE_COMMENT>
InChI=1S/C12H7ClN2O3/c13-8-3-1-2-6-4-7(11(16)18-10(6)8)9-5-17-12(14)15-9/h1-5H,(H2,14,15)
InChIKey=CEVGIAJATGGKJQ-UHFFFAOYSA-N

> <PUBCHEM_SUBSTANCE_SYNONYM>
SCHEMBL16119543

> <PUBCHEM_XREF_EXT_ID>
SCHEMBL16119543

> <PUBCHEM_EXT_DATASOURCE_URL>
https://www.surechembl.org/

> <PUBCHEM_EXT_SUBSTANCE_URL>
https://www.surechembl.org/chemical/SCHEMBL16119543

> <PUBCHEM_CID_ASSOCIATIONS>
117608331  1

> <PUBCHEM_COORDINATE_TYPE>
1
3

$$$$
