310945570
  -OEChem-07211613022D

 23 26  0     0  0  0  0  0  0999 V2000
   -0.3497    0.6209    0.0000 N   0  0  0  0  0  0  0  0  0  0  0  0
   -0.3497   -1.8769    0.0000 N   0  0  0  0  0  0  0  0  0  0  0  0
   -0.3497    3.0901    0.0000 N   0  0  0  0  0  0  0  0  0  0  0  0
   -0.3640   -0.1784    0.0000 C   0  0  0  0  0  0  0  0  0  0  0  0
   -1.0918   -0.6066    0.0000 C   0  0  0  0  0  0  0  0  0  0  0  0
   -1.0918   -1.4202    0.0000 C   0  0  0  0  0  0  0  0  0  0  0  0
    0.3354   -1.4202    0.0000 C   0  0  0  0  0  0  0  0  0  0  0  0
    0.3497   -0.6066    0.0000 C   0  0  0  0  0  0  0  0  0  0  0  0
    1.0776   -1.8484    0.0000 C   0  0  0  0  0  0  0  0  0  0  0  0
   -1.8340   -0.1927    0.0000 C   0  0  0  0  0  0  0  0  0  0  0  0
   -1.8340   -1.8484    0.0000 C   0  0  0  0  0  0  0  0  0  0  0  0
    0.3354    1.0348    0.0000 C   0  0  0  0  0  0  0  0  0  0  0  0
   -1.0918    1.0348    0.0000 C   0  0  0  0  0  0  0  0  0  0  0  0
   -2.5192   -0.6066    0.0000 C   0  0  0  0  0  0  0  0  0  0  0  0
   -2.5192   -1.4202    0.0000 C   0  0  0  0  0  0  0  0  0  0  0  0
    1.1062   -2.6761    0.0000 C   0  0  0  0  0  0  0  0  0  0  0  0
    1.7912   -1.4344    0.0000 C   0  0  0  0  0  0  0  0  0  0  0  0
    0.3497    1.8484    0.0000 C   0  0  0  0  0  0  0  0  0  0  0  0
   -1.0776    1.8484    0.0000 C   0  0  0  0  0  0  0  0  0  0  0  0
   -0.3497    2.2908    0.0000 C   0  0  0  0  0  0  0  0  0  0  0  0
    1.8056   -3.0901    0.0000 C   0  0  0  0  0  0  0  0  0  0  0  0
    2.5192   -1.8626    0.0000 C   0  0  0  0  0  0  0  0  0  0  0  0
    2.5192   -2.6761    0.0000 C   0  0  0  0  0  0  0  0  0  0  0  0
  1  4  1  0  0  0  0
  1 12  1  0  0  0  0
  1 13  1  0  0  0  0
  2  6  1  0  0  0  0
  2  7  2  0  0  0  0
  3 20  1  0  0  0  0
  4  5  1  0  0  0  0
  4  8  2  0  0  0  0
  5  6  1  0  0  0  0
  5 10  2  0  0  0  0
  6 11  2  0  0  0  0
  7  8  1  0  0  0  0
  7  9  1  0  0  0  0
  9 16  2  0  0  0  0
  9 17  1  0  0  0  0
 10 14  1  0  0  0  0
 11 15  1  0  0  0  0
 12 18  1  0  0  0  0
 13 19  1  0  0  0  0
 14 15  2  0  0  0  0
 16 21  1  0  0  0  0
 17 22  2  0  0  0  0
 18 20  1  0  0  0  0
 19 20  1  0  0  0  0
 21 23  2  0  0  0  0
 22 23  1  0  0  0  0
M  END
> <PUBCHEM_COMPOUND_ID_TYPE>
0

> <PUBCHEM_TOTAL_CHARGE>
0

> <PUBCHEM_SUBSTANCE_ID>
310945570

> <PUBCHEM_SUBSTANCE_VERSION>
1

> <PUBCHEM_EXT_DATASOURCE_NAME>
4488

> <PUBCHEM_EXT_DATASOURCE_REGID>
SCHEMBL16123668

> <PUBCHEM_SUBSTANCE_COMMENT>
InChI=1S/C20H21N3/c21-16-10-12-23(13-11-16)20-14-19(15-6-2-1-3-7-15)22-18-9-5-4-8-17(18)20/h1-9,14,16H,10-13,21H2
InChIKey=DXDIVXUXILVANI-UHFFFAOYSA-N

> <PUBCHEM_SUBSTANCE_SYNONYM>
SCHEMBL16123668

> <PUBCHEM_XREF_EXT_ID>
SCHEMBL16123668

> <PUBCHEM_EXT_DATASOURCE_URL>
https://www.surechembl.org/

> <PUBCHEM_EXT_SUBSTANCE_URL>
https://www.surechembl.org/chemical/SCHEMBL16123668

> <PUBCHEM_CID_ASSOCIATIONS>
90459636  1

> <PUBCHEM_COORDINATE_TYPE>
1
3

$$$$
