310947241
  -OEChem-07211613022D

 37 40  0     0  0  0  0  0  0999 V2000
   -7.6341   -2.9196    0.0000 O   0  0  0  0  0  0  0  0  0  0  0  0
   -7.6341   -1.4906    0.0000 O   0  0  0  0  0  0  0  0  0  0  0  0
   -3.5091   -2.9196    0.0000 N   0  0  0  0  0  0  0  0  0  0  0  0
   -3.9216   -2.2051    0.0000 N   0  0  0  0  0  0  0  0  0  0  0  0
   -0.2091   -2.9196    0.0000 N   0  0  0  0  0  0  0  0  0  0  0  0
    0.2034   -2.2051    0.0000 N   0  0  0  0  0  0  0  0  0  0  0  0
    3.5034   -2.2051    0.0000 N   0  0  0  0  0  0  0  0  0  0  0  0
  -10.1091   -2.9196    0.0000 N   0  0  0  0  0  0  0  0  0  0  0  0
   -2.6841   -2.9196    0.0000 C   0  0  0  0  0  0  0  0  0  0  0  0
   -2.2716   -3.6340    0.0000 C   0  0  0  0  0  0  0  0  0  0  0  0
   -6.3966   -2.2051    0.0000 C   0  0  0  0  0  0  0  0  0  0  0  0
   -1.0341   -2.9196    0.0000 C   0  0  0  0  0  0  0  0  0  0  0  0
   -4.7466   -2.2051    0.0000 C   0  0  0  0  0  0  0  0  0  0  0  0
   -1.4466   -3.6340    0.0000 C   0  0  0  0  0  0  0  0  0  0  0  0
   -7.2216   -2.2051    0.0000 C   0  0  0  0  0  0  0  0  0  0  0  0
   -2.2716   -2.2051    0.0000 C   0  0  0  0  0  0  0  0  0  0  0  0
    1.0284   -2.2051    0.0000 C   0  0  0  0  0  0  0  0  0  0  0  0
    2.6784   -2.2051    0.0000 C   0  0  0  0  0  0  0  0  0  0  0  0
   -1.4466   -2.2051    0.0000 C   0  0  0  0  0  0  0  0  0  0  0  0
   -5.9841   -2.9196    0.0000 C   0  0  0  0  0  0  0  0  0  0  0  0
   -5.9841   -1.4906    0.0000 C   0  0  0  0  0  0  0  0  0  0  0  0
   -5.1591   -2.9196    0.0000 C   0  0  0  0  0  0  0  0  0  0  0  0
   -5.1591   -1.4906    0.0000 C   0  0  0  0  0  0  0  0  0  0  0  0
   -8.4591   -2.9196    0.0000 C   0  0  0  0  0  0  0  0  0  0  0  0
    1.4409   -2.9196    0.0000 C   0  0  0  0  0  0  0  0  0  0  0  0
    1.4409   -1.4906    0.0000 C   0  0  0  0  0  0  0  0  0  0  0  0
    2.2659   -2.9196    0.0000 C   0  0  0  0  0  0  0  0  0  0  0  0
    2.2659   -1.4906    0.0000 C   0  0  0  0  0  0  0  0  0  0  0  0
   -2.6841   -4.3485    0.0000 C   0  0  0  0  0  0  0  0  0  0  0  0
   -8.8716   -3.6340    0.0000 C   0  0  0  0  0  0  0  0  0  0  0  0
   -8.8716   -2.2051    0.0000 C   0  0  0  0  0  0  0  0  0  0  0  0
    3.9159   -2.9196    0.0000 C   0  0  0  0  0  0  0  0  0  0  0  0
    3.9159   -1.4906    0.0000 C   0  0  0  0  0  0  0  0  0  0  0  0
   -9.6966   -3.6340    0.0000 C   0  0  0  0  0  0  0  0  0  0  0  0
   -9.6966   -2.2051    0.0000 C   0  0  0  0  0  0  0  0  0  0  0  0
    4.7409   -1.4906    0.0000 C   0  0  0  0  0  0  0  0  0  0  0  0
    4.7409   -2.9196    0.0000 C   0  0  0  0  0  0  0  0  0  0  0  0
  1 15  1  0  0  0  0
  1 24  1  0  0  0  0
  2 15  2  0  0  0  0
  3  4  2  0  0  0  0
  3  9  1  0  0  0  0
  4 13  1  0  0  0  0
  5  6  2  0  0  0  0
  5 12  1  0  0  0  0
  6 17  1  0  0  0  0
  7 18  1  0  0  0  0
  7 32  1  0  0  0  0
  7 33  1  0  0  0  0
  8 34  2  0  0  0  0
  8 35  1  0  0  0  0
  9 10  2  0  0  0  0
  9 16  1  0  0  0  0
 10 14  1  0  0  0  0
 10 29  1  0  0  0  0
 11 15  1  0  0  0  0
 11 20  2  0  0  0  0
 11 21  1  0  0  0  0
 12 14  2  0  0  0  0
 12 19  1  0  0  0  0
 13 22  2  0  0  0  0
 13 23  1  0  0  0  0
 16 19  2  0  0  0  0
 17 25  2  0  0  0  0
 17 26  1  0  0  0  0
 18 27  2  0  0  0  0
 18 28  1  0  0  0  0
 20 22  1  0  0  0  0
 21 23  2  0  0  0  0
 24 30  2  0  0  0  0
 24 31  1  0  0  0  0
 25 27  1  0  0  0  0
 26 28  2  0  0  0  0
 30 34  1  0  0  0  0
 31 35  2  0  0  0  0
 32 37  1  0  0  0  0
 33 36  1  0  0  0  0
M  END
> <PUBCHEM_COMPOUND_ID_TYPE>
0

> <PUBCHEM_TOTAL_CHARGE>
0

> <PUBCHEM_SUBSTANCE_ID>
310947241

> <PUBCHEM_SUBSTANCE_VERSION>
1

> <PUBCHEM_EXT_DATASOURCE_NAME>
4488

> <PUBCHEM_EXT_DATASOURCE_REGID>
SCHEMBL16125396

> <PUBCHEM_SUBSTANCE_COMMENT>
InChI=1S/C29H28N6O2/c1-4-35(5-2)26-13-10-24(11-14-26)31-33-25-12-15-28(21(3)20-25)34-32-23-8-6-22(7-9-23)29(36)37-27-16-18-30-19-17-27/h6-20H,4-5H2,1-3H3/b33-31+,34-32+
InChIKey=FXUJESRJOMIKGJ-FMWAKIAMSA-N

> <PUBCHEM_SUBSTANCE_SYNONYM>
SCHEMBL16125396

> <PUBCHEM_XREF_EXT_ID>
SCHEMBL16125396

> <PUBCHEM_EXT_DATASOURCE_URL>
https://www.surechembl.org/

> <PUBCHEM_EXT_SUBSTANCE_URL>
https://www.surechembl.org/chemical/SCHEMBL16125396

> <PUBCHEM_CID_ASSOCIATIONS>
59348863  1

> <PUBCHEM_COORDINATE_TYPE>
1
3

$$$$
