310940642
  -OEChem-07211613022D

 33 37  0     1  0  0  0  0  0999 V2000
    2.6902   -1.1392    0.0000 O   0  0  0  0  0  0  0  0  0  0  0  0
   -1.4549   -1.2628    0.0000 O   0  0  0  0  0  0  0  0  0  0  0  0
    2.7863    0.3706    0.0000 O   0  0  0  0  0  0  0  0  0  0  0  0
   -2.7863   -3.3627    0.0000 O   0  0  0  0  0  0  0  0  0  0  0  0
    1.5647   -0.4529    0.0000 N   0  0  0  0  0  0  0  0  0  0  0  0
    1.4000   -2.9372    0.0000 N   0  0  0  0  0  0  0  0  0  0  0  0
   -2.2785   -4.0490    0.0000 N   0  0  0  0  0  0  0  0  0  0  0  0
    2.0863    4.1451    0.0000 N   0  0  0  0  0  0  0  0  0  0  0  0
    1.3726   -1.2078    0.0000 C   0  0  0  0  0  0  0  0  0  0  0  0
    0.6589   -1.6059    0.0000 C   0  0  0  0  0  0  0  0  0  0  0  0
    2.1000   -1.6334    0.0000 C   0  0  0  0  0  0  0  0  0  0  0  0
    0.6451   -2.4706    0.0000 C   0  0  0  0  0  0  0  0  0  0  0  0
    2.3471   -0.3294    0.0000 C   0  0  0  0  0  0  0  0  0  0  0  0
   -0.7686   -2.4569    0.0000 C   0  0  0  0  0  0  0  0  0  0  0  0
   -0.7549   -1.6334    0.0000 C   0  0  0  0  0  0  0  0  0  0  0  0
   -0.0549   -1.2215    0.0000 C   0  0  0  0  0  0  0  0  0  0  0  0
    0.9882    0.1784    0.0000 C   0  0  3  0  0  0  0  0  0  0  0  0
   -0.0549   -2.8549    0.0000 C   0  0  0  0  0  0  0  0  0  0  0  0
   -1.4960   -2.8686    0.0000 C   0  0  0  0  0  0  0  0  0  0  0  0
    2.0863   -2.4569    0.0000 C   0  0  0  0  0  0  0  0  0  0  0  0
    1.1804    1.0157    0.0000 C   0  0  0  0  0  0  0  0  0  0  0  0
   -2.2921   -2.6078    0.0000 C   0  0  0  0  0  0  0  0  0  0  0  0
   -1.5098   -3.7059    0.0000 C   0  0  0  0  0  0  0  0  0  0  0  0
    0.1922    0.0000    0.0000 C   0  0  0  0  0  0  0  0  0  0  0  0
    0.6176    1.5784    0.0000 C   0  0  0  0  0  0  0  0  0  0  0  0
    1.9902    1.2353    0.0000 C   0  0  0  0  0  0  0  0  0  0  0  0
   -2.5392   -1.7980    0.0000 C   0  0  0  0  0  0  0  0  0  0  0  0
   -0.7549   -4.1451    0.0000 C   0  0  0  0  0  0  0  0  0  0  0  0
    0.8235    2.3882    0.0000 C   0  0  0  0  0  0  0  0  0  0  0  0
    2.1824    2.0176    0.0000 C   0  0  0  0  0  0  0  0  0  0  0  0
    1.6196    2.5941    0.0000 C   0  0  0  0  0  0  0  0  0  0  0  0
   -1.4960   -0.3706    0.0000 C   0  0  0  0  0  0  0  0  0  0  0  0
    1.8392    3.4039    0.0000 C   0  0  0  0  0  0  0  0  0  0  0  0
  1 11  1  0  0  0  0
  1 13  1  0  0  0  0
  2 15  1  0  0  0  0
  2 32  1  0  0  0  0
  3 13  2  0  0  0  0
  4  7  1  0  0  0  0
  4 22  1  0  0  0  0
  5  9  1  0  0  0  0
  5 13  1  0  0  0  0
  5 17  1  0  0  0  0
  6 12  1  0  0  0  0
  6 20  2  0  0  0  0
  7 23  2  0  0  0  0
  8 33  3  0  0  0  0
  9 10  1  0  0  0  0
  9 11  2  0  0  0  0
 10 12  2  0  0  0  0
 10 16  1  0  0  0  0
 11 20  1  0  0  0  0
 12 18  1  0  0  0  0
 14 15  1  0  0  0  0
 14 18  2  0  0  0  0
 14 19  1  0  0  0  0
 15 16  2  0  0  0  0
 17 21  1  0  0  0  0
 17 24  1  6  0  0  0
 19 22  2  0  0  0  0
 19 23  1  0  0  0  0
 21 25  2  0  0  0  0
 21 26  1  0  0  0  0
 22 27  1  0  0  0  0
 23 28  1  0  0  0  0
 25 29  1  0  0  0  0
 26 30  2  0  0  0  0
 29 31  2  0  0  0  0
 30 31  1  0  0  0  0
 31 33  1  0  0  0  0
M  END
> <PUBCHEM_COMPOUND_ID_TYPE>
0

> <PUBCHEM_TOTAL_CHARGE>
0

> <PUBCHEM_SUBSTANCE_ID>
310940642

> <PUBCHEM_SUBSTANCE_VERSION>
1

> <PUBCHEM_EXT_DATASOURCE_NAME>
4488

> <PUBCHEM_EXT_DATASOURCE_REGID>
SCHEMBL16118597

> <PUBCHEM_SUBSTANCE_COMMENT>
InChI=1S/C25H20N4O4/c1-13-23(15(3)33-28-13)19-9-20-18(10-21(19)31-4)24-22(12-27-20)32-25(30)29(24)14(2)17-7-5-16(11-26)6-8-17/h5-10,12,14H,1-4H3/t14-/m1/s1
InChIKey=HKJUWDXJLOKAME-CQSZACIVSA-N

> <PUBCHEM_SUBSTANCE_SYNONYM>
SCHEMBL16118597

> <PUBCHEM_XREF_EXT_ID>
SCHEMBL16118597

> <PUBCHEM_EXT_DATASOURCE_URL>
https://www.surechembl.org/

> <PUBCHEM_EXT_SUBSTANCE_URL>
https://www.surechembl.org/chemical/SCHEMBL16118597

> <PUBCHEM_CID_ASSOCIATIONS>
117607621  1

> <PUBCHEM_COORDINATE_TYPE>
1
3

> <PUBCHEM_BONDANNOTATIONS>
17  24  6

$$$$
