310948659
  -OEChem-07211613022D

 34 36  0     1  0  0  0  0  0999 V2000
    4.1729    0.3987    0.0000 Cl  0  0  0  0  0  0  0  0  0  0  0  0
   -1.7393   -1.2099    0.0000 F   0  0  0  0  0  0  0  0  0  0  0  0
    2.7430    2.9011    0.0000 F   0  0  0  0  0  0  0  0  0  0  0  0
   -4.1729   -0.3850    0.0000 O   0  0  0  0  0  0  0  0  0  0  0  0
   -2.9492   -1.0312    0.0000 O   0  0  0  0  0  0  0  0  0  0  0  0
   -0.0894    2.0624    0.0000 O   0  0  0  0  0  0  0  0  0  0  0  0
    0.6119   -0.8249    0.0000 N   0  0  0  0  0  0  0  0  0  0  0  0
    0.6119    0.8249    0.0000 N   0  0  0  0  0  0  0  0  0  0  0  0
    1.3268    2.0624    0.0000 N   0  0  0  0  0  0  0  0  0  0  0  0
   -2.2755    0.8387    0.0000 C   0  0  3  0  0  0  0  0  0  0  0  0
   -1.4918    0.3987    0.0000 C   0  0  0  0  0  0  0  0  0  0  0  0
   -2.9492    0.4400    0.0000 C   0  0  3  0  0  0  0  0  0  0  0  0
   -2.9492    1.2237    0.0000 C   0  0  0  0  0  0  0  0  0  0  0  0
   -1.5193   -0.4125    0.0000 C   0  0  0  0  0  0  0  0  0  0  0  0
   -0.1031    0.4262    0.0000 C   0  0  0  0  0  0  0  0  0  0  0  0
   -0.1031   -0.3987    0.0000 C   0  0  0  0  0  0  0  0  0  0  0  0
   -0.8318    0.8112    0.0000 C   0  0  0  0  0  0  0  0  0  0  0  0
   -0.8181   -0.8112    0.0000 C   0  0  0  0  0  0  0  0  0  0  0  0
   -3.3754   -0.3162    0.0000 C   0  0  0  0  0  0  0  0  0  0  0  0
    0.6256    1.6499    0.0000 C   0  0  0  0  0  0  0  0  0  0  0  0
    0.6119   -1.6499    0.0000 C   0  0  0  0  0  0  0  0  0  0  0  0
    1.3131   -0.4125    0.0000 C   0  0  0  0  0  0  0  0  0  0  0  0
    2.0417    1.6499    0.0000 C   0  0  0  0  0  0  0  0  0  0  0  0
    2.7430    2.0624    0.0000 C   0  0  0  0  0  0  0  0  0  0  0  0
   -0.0894   -2.0486    0.0000 C   0  0  0  0  0  0  0  0  0  0  0  0
    2.0417   -0.8112    0.0000 C   0  0  0  0  0  0  0  0  0  0  0  0
    2.0417    0.8249    0.0000 C   0  0  0  0  0  0  0  0  0  0  0  0
    3.4579    1.6499    0.0000 C   0  0  0  0  0  0  0  0  0  0  0  0
    3.4579    0.8387    0.0000 C   0  0  0  0  0  0  0  0  0  0  0  0
    2.7705    0.4262    0.0000 C   0  0  0  0  0  0  0  0  0  0  0  0
   -0.8318   -1.6637    0.0000 C   0  0  0  0  0  0  0  0  0  0  0  0
   -0.1169   -2.9011    0.0000 C   0  0  0  0  0  0  0  0  0  0  0  0
    2.7568   -0.3987    0.0000 C   0  0  0  0  0  0  0  0  0  0  0  0
    2.0555   -1.6637    0.0000 C   0  0  0  0  0  0  0  0  0  0  0  0
  1 29  1  0  0  0  0
  2 14  1  0  0  0  0
  3 24  1  0  0  0  0
  4 19  2  0  0  0  0
  5 19  1  0  0  0  0
  6 20  2  0  0  0  0
  7 16  1  0  0  0  0
  7 21  1  0  0  0  0
  7 22  1  0  0  0  0
  8 15  1  0  0  0  0
  8 20  1  0  0  0  0
  9 20  1  0  0  0  0
  9 23  1  0  0  0  0
 10 11  1  0  0  0  0
 10 12  1  0  0  0  0
 10 13  1  1  0  0  0
 11 14  2  0  0  0  0
 11 17  1  0  0  0  0
 12 13  1  0  0  0  0
 12 19  1  1  0  0  0
 14 18  1  0  0  0  0
 15 16  1  0  0  0  0
 15 17  2  0  0  0  0
 16 18  2  0  0  0  0
 21 25  1  0  0  0  0
 22 26  1  0  0  0  0
 23 24  1  0  0  0  0
 23 27  2  0  0  0  0
 24 28  2  0  0  0  0
 25 31  1  0  0  0  0
 25 32  1  0  0  0  0
 26 33  1  0  0  0  0
 26 34  1  0  0  0  0
 27 30  1  0  0  0  0
 28 29  1  0  0  0  0
 29 30  2  0  0  0  0
M  END
> <PUBCHEM_COMPOUND_ID_TYPE>
0

> <PUBCHEM_TOTAL_CHARGE>
0

> <PUBCHEM_SUBSTANCE_ID>
310948659

> <PUBCHEM_SUBSTANCE_VERSION>
1

> <PUBCHEM_EXT_DATASOURCE_NAME>
4488

> <PUBCHEM_EXT_DATASOURCE_REGID>
SCHEMBL16126843

> <PUBCHEM_SUBSTANCE_COMMENT>
InChI=1S/C25H30ClF2N3O3/c1-13(2)11-31(12-14(3)4)23-10-19(27)17(16-8-18(16)24(32)33)9-22(23)30-25(34)29-21-6-5-15(26)7-20(21)28/h5-7,9-10,13-14,16,18H,8,11-12H2,1-4H3,(H,32,33)(H2,29,30,34)/t16-,18-/m0/s1
InChIKey=IRXKWEQPAZEVJP-WMZOPIPTSA-N

> <PUBCHEM_SUBSTANCE_SYNONYM>
SCHEMBL16126843

> <PUBCHEM_XREF_EXT_ID>
SCHEMBL16126843

> <PUBCHEM_EXT_DATASOURCE_URL>
https://www.surechembl.org/

> <PUBCHEM_EXT_SUBSTANCE_URL>
https://www.surechembl.org/chemical/SCHEMBL16126843

> <PUBCHEM_CID_ASSOCIATIONS>
117614201  1

> <PUBCHEM_COORDINATE_TYPE>
1
3

> <PUBCHEM_BONDANNOTATIONS>
10  13  5
12  19  5

$$$$
