310929741
  -OEChem-07211613022D

 49 54  0     1  0  0  0  0  0999 V2000
    5.3420   -2.5112    0.0000 O   0  0  0  0  0  0  0  0  0  0  0  0
    6.3921   -5.3420    0.0000 O   0  0  0  0  0  0  0  0  0  0  0  0
    7.7619   -2.0546    0.0000 O   0  0  0  0  0  0  0  0  0  0  0  0
    1.4610   -1.0045    0.0000 O   0  0  0  0  0  0  0  0  0  0  0  0
    0.9131   -4.5201    0.0000 O   0  0  0  0  0  0  0  0  0  0  0  0
    4.2462   -0.1370    0.0000 O   0  0  0  0  0  0  0  0  0  0  0  0
    2.8308    0.0000    0.0000 O   0  0  0  0  0  0  0  0  0  0  0  0
    0.0000   -3.6983    0.0000 O   0  0  0  0  0  0  0  0  0  0  0  0
    2.6482   -1.2784    0.0000 N   0  0  0  0  0  0  0  0  0  0  0  0
    6.3921   -2.8764    0.0000 N   0  0  0  0  0  0  0  0  0  0  0  0
    0.9131   -2.8764    0.0000 N   0  0  0  0  0  0  0  0  0  0  0  0
    5.0680   -7.8532    0.0000 N   0  0  0  0  0  0  0  0  0  0  0  0
    7.0313   -4.0635    0.0000 C   0  0  0  0  0  0  0  0  0  0  0  0
    5.6616   -3.3330    0.0000 C   0  0  0  0  0  0  0  0  0  0  0  0
    7.0313   -3.3330    0.0000 C   0  0  0  0  0  0  0  0  0  0  0  0
    6.3921   -4.5201    0.0000 C   0  0  0  0  0  0  0  0  0  0  0  0
    5.6616   -4.0635    0.0000 C   0  0  0  0  0  0  0  0  0  0  0  0
    4.8854   -1.8263    0.0000 C   0  0  3  0  0  0  0  0  0  0  0  0
    3.4243   -1.2784    0.0000 C   0  0  3  0  0  0  0  0  0  0  0  0
    1.9176   -1.6437    0.0000 C   0  0  0  0  0  0  0  0  0  0  0  0
    7.7619   -2.8764    0.0000 C   0  0  0  0  0  0  0  0  0  0  0  0
    3.9266   -0.9131    0.0000 C   0  0  0  0  0  0  0  0  0  0  0  0
    1.2784   -2.2372    0.0000 C   0  0  3  0  0  0  0  0  0  0  0  0
    4.2462   -1.4610    0.0000 C   0  0  0  0  0  0  0  0  0  0  0  0
    7.7619   -4.5201    0.0000 C   0  0  0  0  0  0  0  0  0  0  0  0
    0.6392   -1.6894    0.0000 C   0  0  0  0  0  0  0  0  0  0  0  0
    5.3420   -4.9311    0.0000 C   0  0  0  0  0  0  0  0  0  0  0  0
    3.5156   -0.4566    0.0000 C   0  0  0  0  0  0  0  0  0  0  0  0
    8.5380   -3.3330    0.0000 C   0  0  0  0  0  0  0  0  0  0  0  0
    1.2784   -5.2050    0.0000 C   0  0  3  0  0  0  0  0  0  0  0  0
    8.5380   -4.0635    0.0000 C   0  0  0  0  0  0  0  0  0  0  0  0
    1.9176   -5.7529    0.0000 C   0  0  3  0  0  0  0  0  0  0  0  0
    0.8218   -3.6983    0.0000 C   0  0  0  0  0  0  0  0  0  0  0  0
    1.0958   -6.0268    0.0000 C   0  0  0  0  0  0  0  0  0  0  0  0
    4.8854   -5.5702    0.0000 C   0  0  0  0  0  0  0  0  0  0  0  0
    5.7073   -5.7986    0.0000 C   0  0  0  0  0  0  0  0  0  0  0  0
    2.6482   -6.1181    0.0000 C   0  0  0  0  0  0  0  0  0  0  0  0
    1.1871   -1.0502    0.0000 C   0  0  0  0  0  0  0  0  0  0  0  0
    0.0000   -1.1871    0.0000 C   0  0  0  0  0  0  0  0  0  0  0  0
    0.1370   -2.3286    0.0000 C   0  0  0  0  0  0  0  0  0  0  0  0
    4.2462   -5.9355    0.0000 C   0  0  0  0  0  0  0  0  0  0  0  0
    3.4243   -6.1181    0.0000 C   0  0  0  0  0  0  0  0  0  0  0  0
    7.0770   -1.6437    0.0000 C   0  0  0  0  0  0  0  0  0  0  0  0
    5.7529   -6.6204    0.0000 C   0  0  0  0  0  0  0  0  0  0  0  0
    5.0224   -7.0313    0.0000 C   0  0  0  0  0  0  0  0  0  0  0  0
    5.7529   -8.3554    0.0000 C   0  0  0  0  0  0  0  0  0  0  0  0
    4.4288   -8.4011    0.0000 C   0  0  0  0  0  0  0  0  0  0  0  0
    5.5246   -9.1316    0.0000 C   0  0  0  0  0  0  0  0  0  0  0  0
    4.7028   -9.1316    0.0000 C   0  0  0  0  0  0  0  0  0  0  0  0
  1 14  1  0  0  0  0
  1 18  1  0  0  0  0
  2 16  1  0  0  0  0
  2 36  1  0  0  0  0
  3 21  1  0  0  0  0
  3 43  1  0  0  0  0
  4 20  2  0  0  0  0
  5 30  1  0  0  0  0
  5 33  1  0  0  0  0
  6 28  2  0  0  0  0
  7 28  1  0  0  0  0
  8 33  2  0  0  0  0
  9 19  1  0  0  0  0
  9 20  1  0  0  0  0
  9 22  1  0  0  0  0
 10 14  1  0  0  0  0
 10 15  2  0  0  0  0
 11 23  1  0  0  0  0
 11 33  1  0  0  0  0
 12 45  1  0  0  0  0
 12 46  1  0  0  0  0
 12 47  1  0  0  0  0
 13 15  1  0  0  0  0
 13 16  2  0  0  0  0
 13 25  1  0  0  0  0
 14 17  2  0  0  0  0
 15 21  1  0  0  0  0
 16 17  1  0  0  0  0
 17 27  1  0  0  0  0
 18 22  1  0  0  0  0
 18 24  1  1  0  0  0
 19 24  1  0  0  0  0
 19 28  1  6  0  0  0
 20 23  1  0  0  0  0
 21 29  2  0  0  0  0
 23 26  1  1  0  0  0
 25 31  2  0  0  0  0
 26 38  1  0  0  0  0
 26 39  1  0  0  0  0
 26 40  1  0  0  0  0
 27 35  1  0  0  0  0
 29 31  1  0  0  0  0
 30 32  1  0  0  0  0
 30 34  1  1  0  0  0
 32 34  1  6  0  0  0
 32 37  1  0  0  0  0
 35 41  1  0  0  0  0
 36 44  1  0  0  0  0
 37 42  1  0  0  0  0
 41 42  1  0  0  0  0
 44 45  1  0  0  0  0
 46 48  1  0  0  0  0
 47 49  1  0  0  0  0
 48 49  1  0  0  0  0
M  END
> <PUBCHEM_COMPOUND_ID_TYPE>
0

> <PUBCHEM_TOTAL_CHARGE>
0

> <PUBCHEM_SUBSTANCE_ID>
310929741

> <PUBCHEM_SUBSTANCE_VERSION>
1

> <PUBCHEM_EXT_DATASOURCE_NAME>
4488

> <PUBCHEM_EXT_DATASOURCE_REGID>
SCHEMBL16106939

> <PUBCHEM_SUBSTANCE_COMMENT>
InChI=1S/C37H52N4O8/c1-37(2,3)32-34(42)41-22-24(21-27(41)35(43)44)48-33-26(13-7-5-6-12-23-20-29(23)49-36(45)39-32)31(47-19-11-18-40-16-8-9-17-40)25-14-10-15-28(46-4)30(25)38-33/h10,14-15,23-24,27,29,32H,5-9,11-13,16-22H2,1-4H3,(H,39,45)(H,43,44)/t23-,24-,27+,29-,32-/m1/s1
InChIKey=YGVDEMYEAUXNGX-HFRBUHNLSA-N

> <PUBCHEM_SUBSTANCE_SYNONYM>
SCHEMBL16106939

> <PUBCHEM_XREF_EXT_ID>
SCHEMBL16106939

> <PUBCHEM_EXT_DATASOURCE_URL>
https://www.surechembl.org/

> <PUBCHEM_EXT_SUBSTANCE_URL>
https://www.surechembl.org/chemical/SCHEMBL16106939

> <PUBCHEM_CID_ASSOCIATIONS>
117599032  1

> <PUBCHEM_COORDINATE_TYPE>
1
3

> <PUBCHEM_BONDANNOTATIONS>
18  24  5
19  28  6
23  26  5
30  34  5
32  34  6

$$$$
