310943969
  -OEChem-07211613022D

 36 41  0     0  0  0  0  0  0999 V2000
    2.6286    0.4595    0.0000 F   0  0  0  0  0  0  0  0  0  0  0  0
    0.2137    1.6990    0.0000 N   0  0  0  0  0  0  0  0  0  0  0  0
    4.8299   -0.0535    0.0000 N   0  0  0  0  0  0  0  0  0  0  0  0
    2.6073   -3.6866    0.0000 N   0  0  0  0  0  0  0  0  0  0  0  0
    0.3633    0.8869    0.0000 C   0  0  0  0  0  0  0  0  0  0  0  0
   -0.3633    0.5023    0.0000 C   0  0  0  0  0  0  0  0  0  0  0  0
   -1.0472    1.0792    0.0000 C   0  0  0  0  0  0  0  0  0  0  0  0
   -0.6625    1.8059    0.0000 C   0  0  0  0  0  0  0  0  0  0  0  0
    1.1327    0.4381    0.0000 C   0  0  0  0  0  0  0  0  0  0  0  0
    0.7908    2.3616    0.0000 C   0  0  0  0  0  0  0  0  0  0  0  0
    1.1113   -0.3313    0.0000 C   0  0  0  0  0  0  0  0  0  0  0  0
   -1.8593    0.9937    0.0000 C   0  0  0  0  0  0  0  0  0  0  0  0
   -0.3420   -0.3527    0.0000 C   0  0  0  0  0  0  0  0  0  0  0  0
   -1.1540    2.4684    0.0000 C   0  0  0  0  0  0  0  0  0  0  0  0
   -2.3082    1.6349    0.0000 C   0  0  0  0  0  0  0  0  0  0  0  0
    1.8593   -0.7588    0.0000 C   0  0  0  0  0  0  0  0  0  0  0  0
    0.3633   -0.7373    0.0000 C   0  0  0  0  0  0  0  0  0  0  0  0
   -1.9662    2.3830    0.0000 C   0  0  0  0  0  0  0  0  0  0  0  0
    2.5860   -0.3740    0.0000 C   0  0  0  0  0  0  0  0  0  0  0  0
    1.6456    2.1693    0.0000 C   0  0  0  0  0  0  0  0  0  0  0  0
    0.5343    3.1096    0.0000 C   0  0  0  0  0  0  0  0  0  0  0  0
   -3.2057    1.5708    0.0000 C   0  0  0  0  0  0  0  0  0  0  0  0
    1.8808   -1.6136    0.0000 C   0  0  0  0  0  0  0  0  0  0  0  0
    3.3553   -0.7801    0.0000 C   0  0  0  0  0  0  0  0  0  0  0  0
    2.6286   -2.0197    0.0000 C   0  0  0  0  0  0  0  0  0  0  0  0
    3.3553   -1.6136    0.0000 C   0  0  0  0  0  0  0  0  0  0  0  0
    2.2013    2.7462    0.0000 C   0  0  0  0  0  0  0  0  0  0  0  0
    1.0899    3.6866    0.0000 C   0  0  0  0  0  0  0  0  0  0  0  0
   -3.6759    2.2120    0.0000 C   0  0  0  0  0  0  0  0  0  0  0  0
   -3.5477    0.8014    0.0000 C   0  0  0  0  0  0  0  0  0  0  0  0
    1.9234    3.5370    0.0000 C   0  0  0  0  0  0  0  0  0  0  0  0
    4.1033   -0.3954    0.0000 C   0  0  0  0  0  0  0  0  0  0  0  0
    2.6073   -2.8745    0.0000 C   0  0  0  0  0  0  0  0  0  0  0  0
   -4.4666    2.1265    0.0000 C   0  0  0  0  0  0  0  0  0  0  0  0
   -4.3384    0.7373    0.0000 C   0  0  0  0  0  0  0  0  0  0  0  0
   -4.8299    1.3998    0.0000 C   0  0  0  0  0  0  0  0  0  0  0  0
  1 19  1  0  0  0  0
  2  5  1  0  0  0  0
  2  8  1  0  0  0  0
  2 10  1  0  0  0  0
  3 32  3  0  0  0  0
  4 33  3  0  0  0  0
  5  6  2  0  0  0  0
  5  9  1  0  0  0  0
  6  7  1  0  0  0  0
  6 13  1  0  0  0  0
  7  8  2  0  0  0  0
  7 12  1  0  0  0  0
  8 14  1  0  0  0  0
  9 11  2  0  0  0  0
 10 20  2  0  0  0  0
 10 21  1  0  0  0  0
 11 16  1  0  0  0  0
 11 17  1  0  0  0  0
 12 15  2  0  0  0  0
 13 17  2  0  0  0  0
 14 18  2  0  0  0  0
 15 18  1  0  0  0  0
 15 22  1  0  0  0  0
 16 19  1  0  0  0  0
 16 23  2  0  0  0  0
 19 24  2  0  0  0  0
 20 27  1  0  0  0  0
 21 28  2  0  0  0  0
 22 29  2  0  0  0  0
 22 30  1  0  0  0  0
 23 25  1  0  0  0  0
 24 26  1  0  0  0  0
 24 32  1  0  0  0  0
 25 26  2  0  0  0  0
 25 33  1  0  0  0  0
 27 31  2  0  0  0  0
 28 31  1  0  0  0  0
 29 34  1  0  0  0  0
 30 35  2  0  0  0  0
 34 36  2  0  0  0  0
 35 36  1  0  0  0  0
M  END
> <PUBCHEM_COMPOUND_ID_TYPE>
0

> <PUBCHEM_TOTAL_CHARGE>
0

> <PUBCHEM_SUBSTANCE_ID>
310943969

> <PUBCHEM_SUBSTANCE_VERSION>
1

> <PUBCHEM_EXT_DATASOURCE_NAME>
4488

> <PUBCHEM_EXT_DATASOURCE_REGID>
SCHEMBL16122040

> <PUBCHEM_SUBSTANCE_COMMENT>
InChI=1S/C32H18FN3/c33-32-25(20-35)15-21(19-34)16-28(32)24-11-13-27-29-17-23(22-7-3-1-4-8-22)12-14-30(29)36(31(27)18-24)26-9-5-2-6-10-26/h1-18H
InChIKey=ZWKOEAKQBGQOGB-UHFFFAOYSA-N

> <PUBCHEM_SUBSTANCE_SYNONYM>
SCHEMBL16122040

> <PUBCHEM_XREF_EXT_ID>
SCHEMBL16122040

> <PUBCHEM_EXT_DATASOURCE_URL>
https://www.surechembl.org/

> <PUBCHEM_EXT_SUBSTANCE_URL>
https://www.surechembl.org/chemical/SCHEMBL16122040

> <PUBCHEM_CID_ASSOCIATIONS>
117610276  1

> <PUBCHEM_COORDINATE_TYPE>
1
3

$$$$
