310939030
  -OEChem-07211613022D

 25 27  0     0  0  0  0  0  0999 V2000
    0.6251    4.4187    0.0000 S   0  0  0  0  0  0  0  0  0  0  0  0
    0.6251    5.2437    0.0000 O   0  0  0  0  0  0  0  0  0  0  0  0
   -0.0893    4.8312    0.0000 O   0  0  0  0  0  0  0  0  0  0  0  0
   -3.3537    4.2304    0.0000 O   0  0  0  0  0  0  0  0  0  0  0  0
   -2.3433    5.2408    0.0000 O   0  0  0  0  0  0  0  0  0  0  0  0
    0.2037    3.7042    0.0000 N   0  0  0  0  0  0  0  0  0  0  0  0
    1.4501    4.4187    0.0000 C   0  0  0  0  0  0  0  0  0  0  0  0
   -0.5932    3.4907    0.0000 C   0  0  0  0  0  0  0  0  0  0  0  0
    2.6876    3.7042    0.0000 C   0  0  0  0  0  0  0  0  0  0  0  0
    1.8626    3.7042    0.0000 C   0  0  0  0  0  0  0  0  0  0  0  0
    3.1001    4.4187    0.0000 C   0  0  0  0  0  0  0  0  0  0  0  0
    1.8626    5.1331    0.0000 C   0  0  0  0  0  0  0  0  0  0  0  0
   -0.8067    2.6938    0.0000 C   0  0  0  0  0  0  0  0  0  0  0  0
   -1.1766    4.0740    0.0000 C   0  0  0  0  0  0  0  0  0  0  0  0
   -1.9734    3.8605    0.0000 C   0  0  0  0  0  0  0  0  0  0  0  0
    2.6876    5.1331    0.0000 C   0  0  0  0  0  0  0  0  0  0  0  0
   -1.6036    2.4803    0.0000 C   0  0  0  0  0  0  0  0  0  0  0  0
   -2.1870    3.0636    0.0000 C   0  0  0  0  0  0  0  0  0  0  0  0
    3.1001    2.9897    0.0000 C   0  0  0  0  0  0  0  0  0  0  0  0
    3.9251    4.4187    0.0000 C   0  0  0  0  0  0  0  0  0  0  0  0
   -2.5568    4.4439    0.0000 C   0  0  0  0  0  0  0  0  0  0  0  0
    3.9251    2.9897    0.0000 C   0  0  0  0  0  0  0  0  0  0  0  0
    4.3376    3.7042    0.0000 C   0  0  0  0  0  0  0  0  0  0  0  0
   -0.2234    2.1104    0.0000 C   0  0  0  0  0  0  0  0  0  0  0  0
   -3.9371    4.8137    0.0000 C   0  0  0  0  0  0  0  0  0  0  0  0
  1  2  2  0  0  0  0
  1  3  2  0  0  0  0
  1  6  1  0  0  0  0
  1  7  1  0  0  0  0
  4 21  1  0  0  0  0
  4 25  1  0  0  0  0
  5 21  2  0  0  0  0
  6  8  1  0  0  0  0
  7 10  1  0  0  0  0
  7 12  2  0  0  0  0
  8 13  1  0  0  0  0
  8 14  2  0  0  0  0
  9 10  2  0  0  0  0
  9 11  1  0  0  0  0
  9 19  1  0  0  0  0
 11 16  2  0  0  0  0
 11 20  1  0  0  0  0
 12 16  1  0  0  0  0
 13 17  2  0  0  0  0
 13 24  1  0  0  0  0
 14 15  1  0  0  0  0
 15 18  2  0  0  0  0
 15 21  1  0  0  0  0
 17 18  1  0  0  0  0
 19 22  2  0  0  0  0
 20 23  2  0  0  0  0
 22 23  1  0  0  0  0
M  END
> <PUBCHEM_COMPOUND_ID_TYPE>
0

> <PUBCHEM_TOTAL_CHARGE>
0

> <PUBCHEM_SUBSTANCE_ID>
310939030

> <PUBCHEM_SUBSTANCE_VERSION>
1

> <PUBCHEM_EXT_DATASOURCE_NAME>
4488

> <PUBCHEM_EXT_DATASOURCE_REGID>
SCHEMBL16116949

> <PUBCHEM_SUBSTANCE_COMMENT>
InChI=1S/C19H17NO4S/c1-13-7-8-16(19(21)24-2)12-18(13)20-25(22,23)17-10-9-14-5-3-4-6-15(14)11-17/h3-12,20H,1-2H3
InChIKey=DFMRLRAOAUXXHX-UHFFFAOYSA-N

> <PUBCHEM_SUBSTANCE_SYNONYM>
SCHEMBL16116949

> <PUBCHEM_XREF_EXT_ID>
SCHEMBL16116949

> <PUBCHEM_EXT_DATASOURCE_URL>
https://www.surechembl.org/

> <PUBCHEM_EXT_SUBSTANCE_URL>
https://www.surechembl.org/chemical/SCHEMBL16116949

> <PUBCHEM_CID_ASSOCIATIONS>
1261074  1

> <PUBCHEM_COORDINATE_TYPE>
1
3

$$$$
