310937856
  -OEChem-07211613022D

 23 26  0     0  0  0  0  0  0999 V2000
    6.7117    0.0000    0.0000 F   0  0  0  0  0  0  0  0  0  0  0  0
    5.3187   -0.3039    0.0000 F   0  0  0  0  0  0  0  0  0  0  0  0
    6.8890   -0.8105    0.0000 F   0  0  0  0  0  0  0  0  0  0  0  0
    6.3065   -2.0009    0.0000 O   0  0  0  0  0  0  0  0  0  0  0  0
    2.2288   -2.7100    0.0000 O   0  0  0  0  0  0  0  0  0  0  0  0
    5.0654   -1.5956    0.0000 N   0  0  0  0  0  0  0  0  0  0  0  0
    5.8506   -2.6847    0.0000 N   0  0  0  0  0  0  0  0  0  0  0  0
    4.4829   -3.6978    0.0000 N   0  0  0  0  0  0  0  0  0  0  0  0
    5.0654   -2.4061    0.0000 C   0  0  0  0  0  0  0  0  0  0  0  0
    4.3816   -2.8873    0.0000 C   0  0  0  0  0  0  0  0  0  0  0  0
    5.8506   -1.3423    0.0000 C   0  0  0  0  0  0  0  0  0  0  0  0
    3.0646   -3.8497    0.0000 C   0  0  0  0  0  0  0  0  0  0  0  0
    2.9886   -3.0393    0.0000 C   0  0  0  0  0  0  0  0  0  0  0  0
    6.1039   -0.5572    0.0000 C   0  0  0  0  0  0  0  0  0  0  0  0
    2.4061   -4.3310    0.0000 C   0  0  0  0  0  0  0  0  0  0  0  0
    3.6471   -2.5327    0.0000 C   0  0  0  0  0  0  0  0  0  0  0  0
    3.8244   -4.2043    0.0000 C   0  0  0  0  0  0  0  0  0  0  0  0
    2.0515   -5.0654    0.0000 C   0  0  0  0  0  0  0  0  0  0  0  0
    1.5703   -4.4070    0.0000 C   0  0  0  0  0  0  0  0  0  0  0  0
    1.5703   -3.2166    0.0000 C   0  0  0  0  0  0  0  0  0  0  0  0
    0.8105   -2.8873    0.0000 C   0  0  0  0  0  0  0  0  0  0  0  0
    0.0000   -2.9886    0.0000 C   0  0  0  0  0  0  0  0  0  0  0  0
    0.3039   -2.2288    0.0000 C   0  0  0  0  0  0  0  0  0  0  0  0
  1 14  1  0  0  0  0
  2 14  1  0  0  0  0
  3 14  1  0  0  0  0
  4  7  1  0  0  0  0
  4 11  1  0  0  0  0
  5 13  1  0  0  0  0
  5 20  1  0  0  0  0
  6  9  1  0  0  0  0
  6 11  2  0  0  0  0
  7  9  2  0  0  0  0
  8 10  1  0  0  0  0
  8 17  2  0  0  0  0
  9 10  1  0  0  0  0
 10 16  2  0  0  0  0
 11 14  1  0  0  0  0
 12 13  2  0  0  0  0
 12 15  1  0  0  0  0
 12 17  1  0  0  0  0
 13 16  1  0  0  0  0
 15 18  1  0  0  0  0
 15 19  1  0  0  0  0
 18 19  1  0  0  0  0
 20 21  1  0  0  0  0
 21 22  1  0  0  0  0
 21 23  1  0  0  0  0
 22 23  1  0  0  0  0
M  END
> <PUBCHEM_COMPOUND_ID_TYPE>
0

> <PUBCHEM_TOTAL_CHARGE>
0

> <PUBCHEM_SUBSTANCE_ID>
310937856

> <PUBCHEM_SUBSTANCE_VERSION>
1

> <PUBCHEM_EXT_DATASOURCE_NAME>
4488

> <PUBCHEM_EXT_DATASOURCE_REGID>
SCHEMBL16115680

> <PUBCHEM_SUBSTANCE_COMMENT>
InChI=1S/C15H14F3N3O2/c16-15(17,18)14-20-13(21-23-14)11-5-12(22-7-8-1-2-8)10(6-19-11)9-3-4-9/h5-6,8-9H,1-4,7H2
InChIKey=BQBHDPAUBFFWDQ-UHFFFAOYSA-N

> <PUBCHEM_SUBSTANCE_SYNONYM>
SCHEMBL16115680

> <PUBCHEM_XREF_EXT_ID>
SCHEMBL16115680

> <PUBCHEM_EXT_DATASOURCE_URL>
https://www.surechembl.org/

> <PUBCHEM_EXT_SUBSTANCE_URL>
https://www.surechembl.org/chemical/SCHEMBL16115680

> <PUBCHEM_CID_ASSOCIATIONS>
86275892  1

> <PUBCHEM_COORDINATE_TYPE>
1
3

$$$$
