310933639
  -OEChem-07211613022D

 16 17  0     1  0  0  0  0  0999 V2000
    5.1563   -3.1281    0.0000 Cl  0  0  0  0  0  0  0  0  0  0  0  0
    3.5063   -3.1281    0.0000 F   0  0  0  0  0  0  0  0  0  0  0  0
    1.4266   -2.1141    0.0000 O   0  0  0  0  0  0  0  0  0  0  0  0
    0.8422    0.0000    0.0000 O   0  0  0  0  0  0  0  0  0  0  0  0
    0.0000   -1.1516    0.0000 O   0  0  0  0  0  0  0  0  0  0  0  0
    2.2000   -2.3891    0.0000 N   0  0  0  0  0  0  0  0  0  0  0  0
    2.6813   -1.7016    0.0000 C   0  0  0  0  0  0  0  0  0  0  0  0
    3.5063   -1.7016    0.0000 C   0  0  0  0  0  0  0  0  0  0  0  0
    3.9187   -2.4063    0.0000 C   0  0  0  0  0  0  0  0  0  0  0  0
    1.4266   -1.3063    0.0000 C   0  0  3  0  0  0  0  0  0  0  0  0
    2.2000   -1.0313    0.0000 C   0  0  0  0  0  0  0  0  0  0  0  0
    4.7437   -2.4063    0.0000 C   0  0  0  0  0  0  0  0  0  0  0  0
    3.9187   -0.9797    0.0000 C   0  0  0  0  0  0  0  0  0  0  0  0
    0.7563   -0.8250    0.0000 C   0  0  0  0  0  0  0  0  0  0  0  0
    5.1563   -1.7016    0.0000 C   0  0  0  0  0  0  0  0  0  0  0  0
    4.7437   -0.9797    0.0000 C   0  0  0  0  0  0  0  0  0  0  0  0
  1 12  1  0  0  0  0
  2  9  1  0  0  0  0
  3  6  1  0  0  0  0
  3 10  1  0  0  0  0
  4 14  2  0  0  0  0
  5 14  1  0  0  0  0
  6  7  2  0  0  0  0
  7  8  1  0  0  0  0
  7 11  1  0  0  0  0
  8  9  1  0  0  0  0
  8 13  2  0  0  0  0
  9 12  2  0  0  0  0
 10 11  1  0  0  0  0
 10 14  1  6  0  0  0
 12 15  1  0  0  0  0
 13 16  1  0  0  0  0
 15 16  2  0  0  0  0
M  END
> <PUBCHEM_COMPOUND_ID_TYPE>
0

> <PUBCHEM_TOTAL_CHARGE>
0

> <PUBCHEM_SUBSTANCE_ID>
310933639

> <PUBCHEM_SUBSTANCE_VERSION>
1

> <PUBCHEM_EXT_DATASOURCE_NAME>
4488

> <PUBCHEM_EXT_DATASOURCE_REGID>
SCHEMBL16111070

> <PUBCHEM_SUBSTANCE_COMMENT>
InChI=1S/C10H7ClFNO3/c11-6-3-1-2-5(9(6)12)7-4-8(10(14)15)16-13-7/h1-3,8H,4H2,(H,14,15)/t8-/m0/s1
InChIKey=SCIPKLWSXIIFHA-QMMMGPOBSA-N

> <PUBCHEM_SUBSTANCE_SYNONYM>
SCHEMBL16111070

> <PUBCHEM_XREF_EXT_ID>
SCHEMBL16111070

> <PUBCHEM_EXT_DATASOURCE_URL>
https://www.surechembl.org/

> <PUBCHEM_EXT_SUBSTANCE_URL>
https://www.surechembl.org/chemical/SCHEMBL16111070

> <PUBCHEM_CID_ASSOCIATIONS>
117602012  1

> <PUBCHEM_COORDINATE_TYPE>
1
3

> <PUBCHEM_BONDANNOTATIONS>
10  14  6

$$$$
