310937304
  -OEChem-07211613022D

 30 34  0     0  0  0  0  0  0999 V2000
    0.7382   -0.8613    0.0000 F   0  0  0  0  0  0  0  0  0  0  0  0
    1.6241   -2.2394    0.0000 F   0  0  0  0  0  0  0  0  0  0  0  0
    1.4273   -0.4429    0.0000 F   0  0  0  0  0  0  0  0  0  0  0  0
    3.5190    0.0000    0.0000 O   0  0  0  0  0  0  0  0  0  0  0  0
    2.8546   -1.2304    0.0000 N   0  0  0  0  0  0  0  0  0  0  0  0
    3.5436   -3.2729    0.0000 N   0  0  0  0  0  0  0  0  0  0  0  0
    5.0693   -2.3378    0.0000 N   0  0  0  0  0  0  0  0  0  0  0  0
    5.5369   -1.6488    0.0000 N   0  0  0  0  0  0  0  0  0  0  0  0
    1.4027   -2.0425    0.0000 N   0  0  0  0  0  0  0  0  0  0  0  0
    2.8546   -2.0671    0.0000 C   0  0  0  0  0  0  0  0  0  0  0  0
    3.5436   -2.4855    0.0000 C   0  0  0  0  0  0  0  0  0  0  0  0
    4.2819   -2.0671    0.0000 C   0  0  0  0  0  0  0  0  0  0  0  0
    4.2819   -1.2304    0.0000 C   0  0  0  0  0  0  0  0  0  0  0  0
    3.5436   -0.8121    0.0000 C   0  0  0  0  0  0  0  0  0  0  0  0
    2.1409   -2.4855    0.0000 C   0  0  0  0  0  0  0  0  0  0  0  0
    2.1409   -3.2729    0.0000 C   0  0  0  0  0  0  0  0  0  0  0  0
    5.0693   -0.9843    0.0000 C   0  0  0  0  0  0  0  0  0  0  0  0
    2.1409   -0.8367    0.0000 C   0  0  0  0  0  0  0  0  0  0  0  0
    2.8546   -3.6913    0.0000 C   0  0  0  0  0  0  0  0  0  0  0  0
    1.4273   -3.6913    0.0000 C   0  0  0  0  0  0  0  0  0  0  0  0
    1.5995   -1.4273    0.0000 C   0  0  0  0  0  0  0  0  0  0  0  0
    0.7136   -3.2729    0.0000 C   0  0  0  0  0  0  0  0  0  0  0  0
    1.4027   -4.5033    0.0000 C   0  0  0  0  0  0  0  0  0  0  0  0
    0.0000   -3.6913    0.0000 C   0  0  0  0  0  0  0  0  0  0  0  0
    0.7136   -2.4609    0.0000 C   0  0  0  0  0  0  0  0  0  0  0  0
    0.7136   -4.9217    0.0000 C   0  0  0  0  0  0  0  0  0  0  0  0
    0.0000   -4.5033    0.0000 C   0  0  0  0  0  0  0  0  0  0  0  0
    1.4027   -1.2304    0.0000 C   0  0  0  0  0  0  0  0  0  0  0  0
    1.0089   -0.5168    0.0000 C   0  0  0  0  0  0  0  0  0  0  0  0
    1.8210   -0.4922    0.0000 C   0  0  0  0  0  0  0  0  0  0  0  0
  1 21  1  0  0  0  0
  2 21  1  0  0  0  0
  3 21  1  0  0  0  0
  4 14  2  0  0  0  0
  5 10  1  0  0  0  0
  5 14  1  0  0  0  0
  5 18  1  0  0  0  0
  6 11  2  0  0  0  0
  6 19  1  0  0  0  0
  7  8  1  0  0  0  0
  7 12  1  0  0  0  0
  8 17  2  0  0  0  0
  9 25  1  0  0  0  0
  9 28  1  0  0  0  0
 10 11  1  0  0  0  0
 10 15  2  0  0  0  0
 11 12  1  0  0  0  0
 12 13  2  0  0  0  0
 13 14  1  0  0  0  0
 13 17  1  0  0  0  0
 15 16  1  0  0  0  0
 16 19  2  0  0  0  0
 16 20  1  0  0  0  0
 18 21  1  0  0  0  0
 20 22  1  0  0  0  0
 20 23  2  0  0  0  0
 22 24  2  0  0  0  0
 22 25  1  0  0  0  0
 23 26  1  0  0  0  0
 24 27  1  0  0  0  0
 26 27  2  0  0  0  0
 28 29  1  0  0  0  0
 28 30  1  0  0  0  0
 29 30  1  0  0  0  0
M  END
> <PUBCHEM_COMPOUND_ID_TYPE>
0

> <PUBCHEM_TOTAL_CHARGE>
0

> <PUBCHEM_SUBSTANCE_ID>
310937304

> <PUBCHEM_SUBSTANCE_VERSION>
1

> <PUBCHEM_EXT_DATASOURCE_NAME>
4488

> <PUBCHEM_EXT_DATASOURCE_REGID>
SCHEMBL16115052

> <PUBCHEM_SUBSTANCE_COMMENT>
InChI=1S/C21H18F3N5O/c22-21(23,24)11-29-17-7-13(9-26-19(17)18-16(20(29)30)10-27-28-18)15-4-2-1-3-12(15)8-25-14-5-6-14/h1-4,7,9-10,14,25H,5-6,8,11H2,(H,27,28)
InChIKey=PGACVALIHBZAHD-UHFFFAOYSA-N

> <PUBCHEM_SUBSTANCE_SYNONYM>
SCHEMBL16115052

> <PUBCHEM_XREF_EXT_ID>
SCHEMBL16115052

> <PUBCHEM_EXT_DATASOURCE_URL>
https://www.surechembl.org/

> <PUBCHEM_EXT_SUBSTANCE_URL>
https://www.surechembl.org/chemical/SCHEMBL16115052

> <PUBCHEM_CID_ASSOCIATIONS>
86298956  1

> <PUBCHEM_COORDINATE_TYPE>
1
3

$$$$
