310939882
  -OEChem-07211613022D

 22 23  0     0  0  0  0  0  0999 V2000
    0.7145    1.8010    0.0000 Cl  0  0  0  0  0  0  0  0  0  0  0  0
    2.1434    2.6260    0.0000 Cl  0  0  0  0  0  0  0  0  0  0  0  0
   -1.4289   -1.9115    0.0000 S   0  0  0  0  0  0  0  0  0  0  0  0
    2.8579   -1.0865    0.0000 O   0  0  0  0  0  0  0  0  0  0  0  0
   -1.0164   -1.1970    0.0000 O   0  0  0  0  0  0  0  0  0  0  0  0
   -1.8414   -2.6260    0.0000 O   0  0  0  0  0  0  0  0  0  0  0  0
    1.4289   -1.0865    0.0000 N   0  0  0  0  0  0  0  0  0  0  0  0
   -0.7145   -2.3240    0.0000 N   0  0  0  0  0  0  0  0  0  0  0  0
    2.1434   -0.6740    0.0000 C   0  0  0  0  0  0  0  0  0  0  0  0
    2.1434    0.1510    0.0000 C   0  0  0  0  0  0  0  0  0  0  0  0
    0.0000   -1.9115    0.0000 C   0  0  0  0  0  0  0  0  0  0  0  0
    1.4289    0.5635    0.0000 C   0  0  0  0  0  0  0  0  0  0  0  0
    1.4289    1.3885    0.0000 C   0  0  0  0  0  0  0  0  0  0  0  0
    0.7145   -0.6740    0.0000 C   0  0  0  0  0  0  0  0  0  0  0  0
    1.4289   -1.9115    0.0000 C   0  0  0  0  0  0  0  0  0  0  0  0
    2.8579    0.5635    0.0000 C   0  0  0  0  0  0  0  0  0  0  0  0
    2.1434    1.8010    0.0000 C   0  0  0  0  0  0  0  0  0  0  0  0
    0.7145   -2.3240    0.0000 C   0  0  0  0  0  0  0  0  0  0  0  0
    0.0000   -1.0865    0.0000 C   0  0  0  0  0  0  0  0  0  0  0  0
    2.8579    1.3885    0.0000 C   0  0  0  0  0  0  0  0  0  0  0  0
   -2.1434   -1.4990    0.0000 C   0  0  0  0  0  0  0  0  0  0  0  0
   -2.8579   -1.9115    0.0000 C   0  0  0  0  0  0  0  0  0  0  0  0
  1 13  1  0  0  0  0
  2 17  1  0  0  0  0
  3  5  2  0  0  0  0
  3  6  2  0  0  0  0
  3  8  1  0  0  0  0
  3 21  1  0  0  0  0
  4  9  2  0  0  0  0
  7  9  1  0  0  0  0
  7 14  1  0  0  0  0
  7 15  1  0  0  0  0
  8 11  1  0  0  0  0
  9 10  1  0  0  0  0
 10 12  1  0  0  0  0
 10 16  2  0  0  0  0
 11 18  1  0  0  0  0
 11 19  1  0  0  0  0
 12 13  2  0  0  0  0
 13 17  1  0  0  0  0
 14 19  1  0  0  0  0
 15 18  1  0  0  0  0
 16 20  1  0  0  0  0
 17 20  2  0  0  0  0
 21 22  2  0  0  0  0
M  END
> <PUBCHEM_COMPOUND_ID_TYPE>
0

> <PUBCHEM_TOTAL_CHARGE>
0

> <PUBCHEM_SUBSTANCE_ID>
310939882

> <PUBCHEM_SUBSTANCE_VERSION>
1

> <PUBCHEM_EXT_DATASOURCE_NAME>
4488

> <PUBCHEM_EXT_DATASOURCE_REGID>
SCHEMBL16117812

> <PUBCHEM_SUBSTANCE_COMMENT>
InChI=1S/C14H16Cl2N2O3S/c1-2-22(20,21)17-11-5-7-18(8-6-11)14(19)10-3-4-12(15)13(16)9-10/h2-4,9,11,17H,1,5-8H2
InChIKey=KUFNYFCNFJZKQK-UHFFFAOYSA-N

> <PUBCHEM_SUBSTANCE_SYNONYM>
SCHEMBL16117812

> <PUBCHEM_XREF_EXT_ID>
SCHEMBL16117812

> <PUBCHEM_EXT_DATASOURCE_URL>
https://www.surechembl.org/

> <PUBCHEM_EXT_SUBSTANCE_URL>
https://www.surechembl.org/chemical/SCHEMBL16117812

> <PUBCHEM_CID_ASSOCIATIONS>
117607096  1

> <PUBCHEM_COORDINATE_TYPE>
1
3

$$$$
