310941859
  -OEChem-07211613022D

 29 33  0     0  0  0  0  0  0999 V2000
    3.4991    0.8043    0.0000 S   0  0  0  0  0  0  0  0  0  0  0  0
   -0.8868   -0.6531    0.0000 O   0  0  0  0  0  0  0  0  0  0  0  0
    4.2966    1.0518    0.0000 O   0  0  0  0  0  0  0  0  0  0  0  0
    3.6779    1.6018    0.0000 O   0  0  0  0  0  0  0  0  0  0  0  0
    1.2856    0.5843    0.0000 N   0  0  0  0  0  0  0  0  0  0  0  0
    0.7356    1.8217    0.0000 N   0  0  0  0  0  0  0  0  0  0  0  0
    1.5605    1.9042    0.0000 N   0  0  0  0  0  0  0  0  0  0  0  0
    2.7017    0.9830    0.0000 N   0  0  0  0  0  0  0  0  0  0  0  0
   -2.3442   -0.6256    0.0000 C   0  0  0  0  0  0  0  0  0  0  0  0
    0.5569    1.0243    0.0000 C   0  0  0  0  0  0  0  0  0  0  0  0
   -0.1719   -0.2269    0.0000 C   0  0  0  0  0  0  0  0  0  0  0  0
    1.8905    1.1755    0.0000 C   0  0  0  0  0  0  0  0  0  0  0  0
    0.5706   -0.6393    0.0000 C   0  0  0  0  0  0  0  0  0  0  0  0
   -3.5266   -0.1581    0.0000 C   0  0  0  0  0  0  0  0  0  0  0  0
   -3.9116   -0.6393    0.0000 C   0  0  0  0  0  0  0  0  0  0  0  0
   -3.1417   -1.6567    0.0000 C   0  0  0  0  0  0  0  0  0  0  0  0
   -2.7430    0.0619    0.0000 C   0  0  0  0  0  0  0  0  0  0  0  0
   -3.0867   -0.4193    0.0000 C   0  0  0  0  0  0  0  0  0  0  0  0
   -2.3305   -1.4643    0.0000 C   0  0  0  0  0  0  0  0  0  0  0  0
    1.2718   -0.2269    0.0000 C   0  0  0  0  0  0  0  0  0  0  0  0
   -0.1444    0.5980    0.0000 C   0  0  0  0  0  0  0  0  0  0  0  0
   -1.6018   -0.2269    0.0000 C   0  0  0  0  0  0  0  0  0  0  0  0
   -4.2966    0.0482    0.0000 C   0  0  0  0  0  0  0  0  0  0  0  0
   -3.5266   -0.9830    0.0000 C   0  0  0  0  0  0  0  0  0  0  0  0
   -3.9116   -1.4643    0.0000 C   0  0  0  0  0  0  0  0  0  0  0  0
    0.5431   -1.4780    0.0000 C   0  0  0  0  0  0  0  0  0  0  0  0
   -0.1856   -1.8905    0.0000 C   0  0  0  0  0  0  0  0  0  0  0  0
    1.2856   -1.9042    0.0000 C   0  0  0  0  0  0  0  0  0  0  0  0
    3.7741   -0.0069    0.0000 C   0  0  0  0  0  0  0  0  0  0  0  0
  1  3  2  0  0  0  0
  1  4  2  0  0  0  0
  1  8  1  0  0  0  0
  1 29  1  0  0  0  0
  2 11  1  0  0  0  0
  2 22  1  0  0  0  0
  5 10  1  0  0  0  0
  5 12  1  0  0  0  0
  5 20  1  0  0  0  0
  6  7  1  0  0  0  0
  6 10  2  0  0  0  0
  7 12  2  0  0  0  0
  8 12  1  0  0  0  0
  9 17  1  0  0  0  0
  9 18  1  0  0  0  0
  9 19  1  0  0  0  0
  9 22  1  0  0  0  0
 10 21  1  0  0  0  0
 11 13  1  0  0  0  0
 11 21  2  0  0  0  0
 13 20  2  0  0  0  0
 13 26  1  0  0  0  0
 14 17  1  0  0  0  0
 14 23  1  1  0  0  0
 14 24  1  0  0  0  0
 15 18  1  0  0  0  0
 15 23  1  0  0  0  0
 15 25  1  0  0  0  0
 16 19  1  0  0  0  0
 16 24  1  0  0  0  0
 16 25  1  0  0  0  0
 26 27  1  0  0  0  0
 26 28  1  0  0  0  0
M  END
> <PUBCHEM_COMPOUND_ID_TYPE>
0

> <PUBCHEM_TOTAL_CHARGE>
0

> <PUBCHEM_SUBSTANCE_ID>
310941859

> <PUBCHEM_SUBSTANCE_VERSION>
1

> <PUBCHEM_EXT_DATASOURCE_NAME>
4488

> <PUBCHEM_EXT_DATASOURCE_REGID>
SCHEMBL16119891

> <PUBCHEM_SUBSTANCE_COMMENT>
InChI=1S/C21H30N4O3S/c1-13(2)17-11-25-19(22-23-20(25)24-29(3,26)27)7-18(17)28-12-21-8-14-4-15(9-21)6-16(5-14)10-21/h7,11,13-16H,4-6,8-10,12H2,1-3H3,(H,23,24)/t14-,15?,16?,21?
InChIKey=QEMGJELJMDHPFO-IIQXKVQHSA-N

> <PUBCHEM_SUBSTANCE_SYNONYM>
SCHEMBL16119891

> <PUBCHEM_XREF_EXT_ID>
SCHEMBL16119891

> <PUBCHEM_EXT_DATASOURCE_URL>
https://www.surechembl.org/

> <PUBCHEM_EXT_SUBSTANCE_URL>
https://www.surechembl.org/chemical/SCHEMBL16119891

> <PUBCHEM_CID_ASSOCIATIONS>
86267295  1

> <PUBCHEM_COORDINATE_TYPE>
1
3

> <PUBCHEM_BONDANNOTATIONS>
14  23  5

$$$$
