310945548
  -OEChem-07211613022D

 24 26  0     0  0  0  0  0  0999 V2000
   -2.3135    1.7297    0.0000 O   0  0  0  0  0  0  0  0  0  0  0  0
    0.5182    0.9853    0.0000 N   0  0  0  0  0  0  0  0  0  0  0  0
    2.5471    1.9194    0.0000 N   0  0  0  0  0  0  0  0  0  0  0  0
   -0.9269   -1.6421    0.0000 N   0  0  0  0  0  0  0  0  0  0  0  0
    1.1896    1.4961    0.0000 C   0  0  0  0  0  0  0  0  0  0  0  0
    0.9269    2.2405    0.0000 C   0  0  0  0  0  0  0  0  0  0  0  0
   -0.1679    1.4815    0.0000 C   0  0  0  0  0  0  0  0  0  0  0  0
    0.1095    2.2698    0.0000 C   0  0  0  0  0  0  0  0  0  0  0  0
    1.9924    1.2918    0.0000 C   0  0  0  0  0  0  0  0  0  0  0  0
   -0.9560    1.3064    0.0000 C   0  0  0  0  0  0  0  0  0  0  0  0
   -0.4452    2.8536    0.0000 C   0  0  0  0  0  0  0  0  0  0  0  0
    1.4815    2.8682    0.0000 C   0  0  0  0  0  0  0  0  0  0  0  0
    0.5036   -0.0073    0.0000 C   0  0  0  0  0  0  0  0  0  0  0  0
   -1.5253    1.9194    0.0000 C   0  0  0  0  0  0  0  0  0  0  0  0
   -1.2480    2.6930    0.0000 C   0  0  0  0  0  0  0  0  0  0  0  0
    2.2989    2.6930    0.0000 C   0  0  0  0  0  0  0  0  0  0  0  0
    2.3135    0.4160    0.0000 C   0  0  0  0  0  0  0  0  0  0  0  0
   -0.1825   -0.4014    0.0000 C   0  0  0  0  0  0  0  0  0  0  0  0
   -0.2116   -1.2334    0.0000 C   0  0  0  0  0  0  0  0  0  0  0  0
   -2.5471    0.9414    0.0000 C   0  0  0  0  0  0  0  0  0  0  0  0
   -0.9269   -2.4741    0.0000 C   0  0  0  0  0  0  0  0  0  0  0  0
   -1.6421   -1.2334    0.0000 C   0  0  0  0  0  0  0  0  0  0  0  0
   -1.6421   -2.8682    0.0000 C   0  0  0  0  0  0  0  0  0  0  0  0
   -2.3427   -1.6713    0.0000 C   0  0  0  0  0  0  0  0  0  0  0  0
  1 14  1  0  0  0  0
  1 20  1  0  0  0  0
  2  5  1  0  0  0  0
  2  7  1  0  0  0  0
  2 13  1  0  0  0  0
  3  9  2  0  0  0  0
  3 16  1  0  0  0  0
  4 19  1  0  0  0  0
  4 21  1  0  0  0  0
  4 22  1  0  0  0  0
  5  6  2  0  0  0  0
  5  9  1  0  0  0  0
  6  8  1  0  0  0  0
  6 12  1  0  0  0  0
  7  8  2  0  0  0  0
  7 10  1  0  0  0  0
  8 11  1  0  0  0  0
  9 17  1  0  0  0  0
 10 14  2  0  0  0  0
 11 15  2  0  0  0  0
 12 16  2  0  0  0  0
 13 18  1  0  0  0  0
 14 15  1  0  0  0  0
 18 19  1  0  0  0  0
 21 23  1  0  0  0  0
 22 24  1  0  0  0  0
M  END
> <PUBCHEM_COMPOUND_ID_TYPE>
0

> <PUBCHEM_TOTAL_CHARGE>
0

> <PUBCHEM_SUBSTANCE_ID>
310945548

> <PUBCHEM_SUBSTANCE_VERSION>
1

> <PUBCHEM_EXT_DATASOURCE_NAME>
4488

> <PUBCHEM_EXT_DATASOURCE_REGID>
SCHEMBL16123646

> <PUBCHEM_SUBSTANCE_COMMENT>
InChI=1S/C20H27N3O/c1-5-22(6-2)12-7-13-23-19-14-16(24-4)8-9-17(19)18-10-11-21-15(3)20(18)23/h8-11,14H,5-7,12-13H2,1-4H3
InChIKey=JRPSMXUOKGFTRV-UHFFFAOYSA-N

> <PUBCHEM_SUBSTANCE_SYNONYM>
SCHEMBL16123646

> <PUBCHEM_XREF_EXT_ID>
SCHEMBL16123646

> <PUBCHEM_EXT_DATASOURCE_URL>
https://www.surechembl.org/

> <PUBCHEM_EXT_SUBSTANCE_URL>
https://www.surechembl.org/chemical/SCHEMBL16123646

> <PUBCHEM_CID_ASSOCIATIONS>
86298688  1

> <PUBCHEM_COORDINATE_TYPE>
1
3

$$$$
