310931917
  -OEChem-07211613022D

 37 41  0     0  0  0  0  0  0999 V2000
   -4.7309   -9.3707    0.0000 O   0  0  0  0  0  0  0  0  0  0  0  0
   -3.4222  -12.3284    0.0000 O   0  0  0  0  0  0  0  0  0  0  0  0
   -2.9260  -15.1429    0.0000 N   0  0  0  0  0  0  0  0  0  0  0  0
   -2.8579  -10.7779    0.0000 N   0  0  0  0  0  0  0  0  0  0  0  0
   -2.3616  -13.5924    0.0000 N   0  0  0  0  0  0  0  0  0  0  0  0
   -3.9185   -9.5140    0.0000 C   0  0  0  0  0  0  0  0  0  0  0  0
   -3.2081  -15.9182    0.0000 C   0  0  0  0  0  0  0  0  0  0  0  0
   -3.9185   -8.6890    0.0000 C   0  0  0  0  0  0  0  0  0  0  0  0
   -4.0206  -16.0614    0.0000 C   0  0  0  0  0  0  0  0  0  0  0  0
   -2.6778  -16.5501    0.0000 C   0  0  0  0  0  0  0  0  0  0  0  0
   -3.1060   -9.3707    0.0000 C   0  0  0  0  0  0  0  0  0  0  0  0
   -4.2007  -10.2892    0.0000 C   0  0  0  0  0  0  0  0  0  0  0  0
   -2.5757  -10.0027    0.0000 C   0  0  0  0  0  0  0  0  0  0  0  0
   -3.6704  -10.9212    0.0000 C   0  0  0  0  0  0  0  0  0  0  0  0
   -3.2040   -8.2765    0.0000 C   0  0  0  0  0  0  0  0  0  0  0  0
   -4.6330   -8.2765    0.0000 C   0  0  0  0  0  0  0  0  0  0  0  0
   -2.1135  -14.9996    0.0000 C   0  0  0  0  0  0  0  0  0  0  0  0
   -3.4563  -14.5109    0.0000 C   0  0  0  0  0  0  0  0  0  0  0  0
   -2.3276  -11.4099    0.0000 C   0  0  0  0  0  0  0  0  0  0  0  0
   -1.8313  -14.2244    0.0000 C   0  0  0  0  0  0  0  0  0  0  0  0
   -3.1741  -13.7357    0.0000 C   0  0  0  0  0  0  0  0  0  0  0  0
   -2.6098  -12.1852    0.0000 C   0  0  0  0  0  0  0  0  0  0  0  0
   -4.3028  -16.8367    0.0000 C   0  0  0  0  0  0  0  0  0  0  0  0
   -1.8654  -16.4069    0.0000 C   0  0  0  0  0  0  0  0  0  0  0  0
   -4.5509  -15.4294    0.0000 C   0  0  0  0  0  0  0  0  0  0  0  0
   -2.9600  -17.3254    0.0000 C   0  0  0  0  0  0  0  0  0  0  0  0
   -2.0795  -12.8172    0.0000 C   0  0  0  0  0  0  0  0  0  0  0  0
   -3.2040   -7.4515    0.0000 C   0  0  0  0  0  0  0  0  0  0  0  0
   -4.6330   -7.4515    0.0000 C   0  0  0  0  0  0  0  0  0  0  0  0
   -3.9185   -7.0390    0.0000 C   0  0  0  0  0  0  0  0  0  0  0  0
   -5.1152  -16.9799    0.0000 C   0  0  0  0  0  0  0  0  0  0  0  0
   -1.3351  -17.0389    0.0000 C   0  0  0  0  0  0  0  0  0  0  0  0
   -5.3633  -15.5727    0.0000 C   0  0  0  0  0  0  0  0  0  0  0  0
   -2.4297  -17.9574    0.0000 C   0  0  0  0  0  0  0  0  0  0  0  0
   -5.6455  -16.3479    0.0000 C   0  0  0  0  0  0  0  0  0  0  0  0
   -1.6172  -17.8141    0.0000 C   0  0  0  0  0  0  0  0  0  0  0  0
   -3.9185   -6.2140    0.0000 C   0  0  0  0  0  0  0  0  0  0  0  0
  1  6  1  0  0  0  0
  2 22  2  0  0  0  0
  3  7  1  0  0  0  0
  3 17  1  0  0  0  0
  3 18  1  0  0  0  0
  4 13  1  0  0  0  0
  4 14  1  0  0  0  0
  4 19  1  0  0  0  0
  5 20  1  0  0  0  0
  5 21  1  0  0  0  0
  5 27  1  0  0  0  0
  6  8  1  0  0  0  0
  6 11  1  0  0  0  0
  6 12  1  0  0  0  0
  7  9  1  0  0  0  0
  7 10  1  0  0  0  0
  8 15  2  0  0  0  0
  8 16  1  0  0  0  0
  9 23  2  0  0  0  0
  9 25  1  0  0  0  0
 10 24  2  0  0  0  0
 10 26  1  0  0  0  0
 11 13  1  0  0  0  0
 12 14  1  0  0  0  0
 15 28  1  0  0  0  0
 16 29  2  0  0  0  0
 17 20  1  0  0  0  0
 18 21  1  0  0  0  0
 19 22  1  0  0  0  0
 22 27  1  0  0  0  0
 23 31  1  0  0  0  0
 24 32  1  0  0  0  0
 25 33  2  0  0  0  0
 26 34  2  0  0  0  0
 28 30  2  0  0  0  0
 29 30  1  0  0  0  0
 30 37  1  0  0  0  0
 31 35  2  0  0  0  0
 32 36  2  0  0  0  0
 33 35  1  0  0  0  0
 34 36  1  0  0  0  0
M  END
> <PUBCHEM_COMPOUND_ID_TYPE>
0

> <PUBCHEM_TOTAL_CHARGE>
0

> <PUBCHEM_SUBSTANCE_ID>
310931917

> <PUBCHEM_SUBSTANCE_VERSION>
1

> <PUBCHEM_EXT_DATASOURCE_NAME>
4488

> <PUBCHEM_EXT_DATASOURCE_REGID>
SCHEMBL16109252

> <PUBCHEM_SUBSTANCE_COMMENT>
InChI=1S/C32H39N3O2/c1-26-12-14-29(15-13-26)32(37)16-18-33(19-17-32)24-30(36)25-34-20-22-35(23-21-34)31(27-8-4-2-5-9-27)28-10-6-3-7-11-28/h2-15,31,37H,16-25H2,1H3
InChIKey=PBHKNOZOJQWDAD-UHFFFAOYSA-N

> <PUBCHEM_SUBSTANCE_SYNONYM>
SCHEMBL16109252

> <PUBCHEM_XREF_EXT_ID>
SCHEMBL16109252

> <PUBCHEM_EXT_DATASOURCE_URL>
https://www.surechembl.org/

> <PUBCHEM_EXT_SUBSTANCE_URL>
https://www.surechembl.org/chemical/SCHEMBL16109252

> <PUBCHEM_CID_ASSOCIATIONS>
117600569  1

> <PUBCHEM_COORDINATE_TYPE>
1
3

$$$$
