310947079
  -OEChem-07211613022D

 35 39  0     1  0  0  0  0  0999 V2000
   -2.7026    0.9530    0.0000 F   0  0  0  0  0  0  0  0  0  0  0  0
   -1.6559    2.8744    0.0000 O   0  0  0  0  0  0  0  0  0  0  0  0
   -3.0619   -1.8746    0.0000 O   0  0  0  0  0  0  0  0  0  0  0  0
    2.3901   -2.8744    0.0000 O   0  0  0  0  0  0  0  0  0  0  0  0
   -1.5622    0.4530    0.0000 N   0  0  0  0  0  0  0  0  0  0  0  0
   -1.0779   -0.2187    0.0000 N   0  0  0  0  0  0  0  0  0  0  0  0
   -1.3122   -1.6715    0.0000 N   0  0  0  0  0  0  0  0  0  0  0  0
    2.1871   -1.4216    0.0000 N   0  0  0  0  0  0  0  0  0  0  0  0
   -3.7804   -0.6248    0.0000 N   0  0  0  0  0  0  0  0  0  0  0  0
    0.8436    0.9530    0.0000 N   0  0  0  0  0  0  0  0  0  0  0  0
   -1.3122    1.2653    0.0000 C   0  0  3  0  0  0  0  0  0  0  0  0
   -2.3277    0.2187    0.0000 C   0  0  0  0  0  0  0  0  0  0  0  0
   -2.3589   -0.6248    0.0000 C   0  0  0  0  0  0  0  0  0  0  0  0
   -1.5778   -0.8904    0.0000 C   0  0  0  0  0  0  0  0  0  0  0  0
   -2.0933    1.5309    0.0000 C   0  0  3  0  0  0  0  0  0  0  0  0
   -3.0619   -1.0154    0.0000 C   0  0  0  0  0  0  0  0  0  0  0  0
   -0.7030    1.8278    0.0000 C   0  0  0  0  0  0  0  0  0  0  0  0
   -3.0619    0.6248    0.0000 C   0  0  0  0  0  0  0  0  0  0  0  0
   -0.7811    0.6405    0.0000 C   0  0  0  0  0  0  0  0  0  0  0  0
   -0.5156   -1.8434    0.0000 C   0  0  0  0  0  0  0  0  0  0  0  0
    1.0935   -2.1714    0.0000 C   0  0  0  0  0  0  0  0  0  0  0  0
    0.8279   -1.4059    0.0000 C   0  0  0  0  0  0  0  0  0  0  0  0
    1.8903   -2.1714    0.0000 C   0  0  0  0  0  0  0  0  0  0  0  0
   -2.2495    2.3277    0.0000 C   0  0  0  0  0  0  0  0  0  0  0  0
    0.0469   -1.2341    0.0000 C   0  0  0  0  0  0  0  0  0  0  0  0
   -3.7648    0.2187    0.0000 C   0  0  0  0  0  0  0  0  0  0  0  0
    1.5153   -0.9217    0.0000 C   0  0  0  0  0  0  0  0  0  0  0  0
   -0.8592    2.6088    0.0000 C   0  0  0  0  0  0  0  0  0  0  0  0
    2.9837   -1.1716    0.0000 C   0  0  0  0  0  0  0  0  0  0  0  0
    0.5468   -2.7963    0.0000 C   0  0  0  0  0  0  0  0  0  0  0  0
   -0.2500   -2.6088    0.0000 C   0  0  0  0  0  0  0  0  0  0  0  0
    0.0469    0.8123    0.0000 C   0  0  0  0  0  0  0  0  0  0  0  0
    3.1712   -0.3593    0.0000 C   0  0  0  0  0  0  0  0  0  0  0  0
    3.7804   -0.9685    0.0000 C   0  0  0  0  0  0  0  0  0  0  0  0
    3.5618   -1.7809    0.0000 C   0  0  0  0  0  0  0  0  0  0  0  0
 15  1  1  1  0  0  0
  2 24  1  0  0  0  0
  2 28  1  0  0  0  0
  3 16  2  0  0  0  0
  4 23  2  0  0  0  0
  5  6  1  0  0  0  0
  5 11  1  0  0  0  0
  5 12  1  0  0  0  0
  6 14  2  0  0  0  0
  7 14  1  0  0  0  0
  7 20  1  0  0  0  0
  8 23  1  0  0  0  0
  8 27  1  0  0  0  0
  8 29  1  0  0  0  0
  9 16  1  0  0  0  0
  9 26  1  0  0  0  0
 10 32  3  0  0  0  0
 11 15  1  0  0  0  0
 11 17  1  0  0  0  0
 11 19  1  6  0  0  0
 12 13  2  0  0  0  0
 12 18  1  0  0  0  0
 13 14  1  0  0  0  0
 13 16  1  0  0  0  0
 15 24  1  0  0  0  0
 17 28  1  0  0  0  0
 18 26  2  0  0  0  0
 19 32  1  0  0  0  0
 20 25  1  0  0  0  0
 20 31  2  0  0  0  0
 21 22  1  0  0  0  0
 21 23  1  0  0  0  0
 21 30  2  0  0  0  0
 22 25  2  0  0  0  0
 22 27  1  0  0  0  0
 29 33  1  0  0  0  0
 29 34  1  0  0  0  0
 29 35  1  0  0  0  0
 30 31  1  0  0  0  0
M  END
> <PUBCHEM_COMPOUND_ID_TYPE>
0

> <PUBCHEM_TOTAL_CHARGE>
0

> <PUBCHEM_SUBSTANCE_ID>
310947079

> <PUBCHEM_SUBSTANCE_VERSION>
1

> <PUBCHEM_EXT_DATASOURCE_NAME>
4488

> <PUBCHEM_EXT_DATASOURCE_REGID>
SCHEMBL16125233

> <PUBCHEM_SUBSTANCE_COMMENT>
InChI=1S/C25H27FN6O3/c1-24(2,3)31-13-15-12-16(4-5-17(15)23(31)34)29-21-20-18(6-10-28-22(20)33)32(30-21)25(7-9-27)8-11-35-14-19(25)26/h4-6,10,12,19H,7-8,11,13-14H2,1-3H3,(H,28,33)(H,29,30)/t19-,25+/m0/s1
InChIKey=PDUVQCXXOZUIED-UQBPGWFLSA-N

> <PUBCHEM_SUBSTANCE_SYNONYM>
SCHEMBL16125233

> <PUBCHEM_XREF_EXT_ID>
SCHEMBL16125233

> <PUBCHEM_EXT_DATASOURCE_URL>
https://www.surechembl.org/

> <PUBCHEM_EXT_SUBSTANCE_URL>
https://www.surechembl.org/chemical/SCHEMBL16125233

> <PUBCHEM_CID_ASSOCIATIONS>
117612931  1

> <PUBCHEM_COORDINATE_TYPE>
1
3

> <PUBCHEM_BONDANNOTATIONS>
15  1  5
11  19  6

$$$$
