310944597
  -OEChem-07211613022D

 35 37  0     0  0  0  0  0  0999 V2000
   -4.7436   -0.3483    0.0000 Cl  0  0  0  0  0  0  0  0  0  0  0  0
   -4.8597    0.1990    0.0000 F   0  0  0  0  0  0  0  0  0  0  0  0
   -5.9213    0.5142    0.0000 F   0  0  0  0  0  0  0  0  0  0  0  0
   -5.6061    1.5922    0.0000 F   0  0  0  0  0  0  0  0  0  0  0  0
    5.1418   -0.9454    0.0000 O   0  0  0  0  0  0  0  0  0  0  0  0
   -1.6586   -0.3317    0.0000 O   0  0  0  0  0  0  0  0  0  0  0  0
    4.3788   -2.1562    0.0000 O   0  0  0  0  0  0  0  0  0  0  0  0
   -0.2322    2.1562    0.0000 O   0  0  0  0  0  0  0  0  0  0  0  0
    3.6822   -0.9289    0.0000 N   0  0  0  0  0  0  0  0  0  0  0  0
    1.9572    0.0829    0.0000 N   0  0  0  0  0  0  0  0  0  0  0  0
    0.5142    0.9122    0.0000 N   0  0  0  0  0  0  0  0  0  0  0  0
   -1.6421    1.3269    0.0000 N   0  0  0  0  0  0  0  0  0  0  0  0
    2.6704   -0.3317    0.0000 C   0  0  0  0  0  0  0  0  0  0  0  0
    2.8860   -1.1279    0.0000 C   0  0  0  0  0  0  0  0  0  0  0  0
    3.4665   -0.1327    0.0000 C   0  0  0  0  0  0  0  0  0  0  0  0
    4.3788   -1.3435    0.0000 C   0  0  0  0  0  0  0  0  0  0  0  0
   -2.3718    0.9122    0.0000 C   0  0  0  0  0  0  0  0  0  0  0  0
   -3.7982    0.9122    0.0000 C   0  0  0  0  0  0  0  0  0  0  0  0
   -2.3718    0.0829    0.0000 C   0  0  0  0  0  0  0  0  0  0  0  0
    1.9406    0.9122    0.0000 C   0  0  0  0  0  0  0  0  0  0  0  0
    1.2440   -0.3317    0.0000 C   0  0  0  0  0  0  0  0  0  0  0  0
   -3.7982    0.0829    0.0000 C   0  0  0  0  0  0  0  0  0  0  0  0
   -3.0685    1.3103    0.0000 C   0  0  0  0  0  0  0  0  0  0  0  0
   -3.0685   -0.3317    0.0000 C   0  0  0  0  0  0  0  0  0  0  0  0
   -0.2156    1.3103    0.0000 C   0  0  0  0  0  0  0  0  0  0  0  0
    1.2274    1.3269    0.0000 C   0  0  0  0  0  0  0  0  0  0  0  0
    0.5307    0.0664    0.0000 C   0  0  0  0  0  0  0  0  0  0  0  0
   -4.5115    1.3269    0.0000 C   0  0  0  0  0  0  0  0  0  0  0  0
    5.1583   -0.0996    0.0000 C   0  0  0  0  0  0  0  0  0  0  0  0
   -0.9122    0.9122    0.0000 C   0  0  0  0  0  0  0  0  0  0  0  0
   -5.2412    0.9122    0.0000 C   0  0  0  0  0  0  0  0  0  0  0  0
    5.9213   -0.0664    0.0000 C   0  0  0  0  0  0  0  0  0  0  0  0
    4.3788   -0.0996    0.0000 C   0  0  0  0  0  0  0  0  0  0  0  0
    5.1418    0.7298    0.0000 C   0  0  0  0  0  0  0  0  0  0  0  0
   -0.9289    0.0829    0.0000 C   0  0  0  0  0  0  0  0  0  0  0  0
  1 22  1  0  0  0  0
  2 31  1  0  0  0  0
  3 31  1  0  0  0  0
  4 31  1  0  0  0  0
  5 16  1  0  0  0  0
  5 29  1  0  0  0  0
  6 19  1  0  0  0  0
  6 35  1  0  0  0  0
  7 16  2  0  0  0  0
  8 25  2  0  0  0  0
  9 14  1  0  0  0  0
  9 15  1  0  0  0  0
  9 16  1  0  0  0  0
 10 13  1  0  0  0  0
 10 20  1  0  0  0  0
 10 21  1  0  0  0  0
 11 25  1  0  0  0  0
 11 26  1  0  0  0  0
 11 27  1  0  0  0  0
 12 17  1  0  0  0  0
 12 30  1  0  0  0  0
 13 14  1  0  0  0  0
 13 15  1  0  0  0  0
 17 19  1  0  0  0  0
 17 23  2  0  0  0  0
 18 22  2  0  0  0  0
 18 23  1  0  0  0  0
 18 28  1  0  0  0  0
 19 24  2  0  0  0  0
 20 26  1  0  0  0  0
 21 27  1  0  0  0  0
 22 24  1  0  0  0  0
 25 30  1  0  0  0  0
 28 31  1  0  0  0  0
 29 32  1  0  0  0  0
 29 33  1  0  0  0  0
 29 34  1  0  0  0  0
M  END
> <PUBCHEM_COMPOUND_ID_TYPE>
0

> <PUBCHEM_TOTAL_CHARGE>
0

> <PUBCHEM_SUBSTANCE_ID>
310944597

> <PUBCHEM_SUBSTANCE_VERSION>
1

> <PUBCHEM_EXT_DATASOURCE_NAME>
4488

> <PUBCHEM_EXT_DATASOURCE_REGID>
SCHEMBL16122675

> <PUBCHEM_SUBSTANCE_COMMENT>
InChI=1S/C23H32ClF3N4O4/c1-22(2,3)35-21(33)31-13-16(14-31)29-5-7-30(8-6-29)20(32)12-28-18-9-15(11-23(25,26)27)17(24)10-19(18)34-4/h9-10,16,28H,5-8,11-14H2,1-4H3
InChIKey=ZMGPMJRNGTWIJM-UHFFFAOYSA-N

> <PUBCHEM_SUBSTANCE_SYNONYM>
SCHEMBL16122675

> <PUBCHEM_XREF_EXT_ID>
SCHEMBL16122675

> <PUBCHEM_EXT_DATASOURCE_URL>
https://www.surechembl.org/

> <PUBCHEM_EXT_SUBSTANCE_URL>
https://www.surechembl.org/chemical/SCHEMBL16122675

> <PUBCHEM_CID_ASSOCIATIONS>
117610827  1

> <PUBCHEM_COORDINATE_TYPE>
1
3

$$$$
