310949956
  -OEChem-07211613022D

 29 33  0     1  0  0  0  0  0999 V2000
   -0.8668    1.5588    0.0000 N   0  0  0  0  0  0  0  0  0  0  0  0
   -0.8668    2.9011    0.0000 N   0  0  0  0  0  0  0  0  0  0  0  0
   -0.0978   -0.8179    0.0000 N   0  0  0  0  0  0  0  0  0  0  0  0
    1.7337    1.8105    0.0000 N   0  0  0  0  0  0  0  0  0  0  0  0
   -0.3775    2.2439    0.0000 C   0  0  0  0  0  0  0  0  0  0  0  0
   -1.6638    1.8245    0.0000 C   0  0  0  0  0  0  0  0  0  0  0  0
   -1.6498    2.6494    0.0000 C   0  0  0  0  0  0  0  0  0  0  0  0
   -0.6152    0.7899    0.0000 C   0  0  0  0  0  0  0  0  0  0  0  0
    0.4614    2.2300    0.0000 C   0  0  3  0  0  0  0  0  0  0  0  0
   -2.3628    1.4051    0.0000 C   0  0  0  0  0  0  0  0  0  0  0  0
   -2.3628    3.0549    0.0000 C   0  0  0  0  0  0  0  0  0  0  0  0
   -1.1464    0.1468    0.0000 C   0  0  0  0  0  0  0  0  0  0  0  0
    0.2097    0.5942    0.0000 C   0  0  0  0  0  0  0  0  0  0  0  0
    0.9367    1.5729    0.0000 C   0  0  0  0  0  0  0  0  0  0  0  0
    0.9227    2.8870    0.0000 C   0  0  0  0  0  0  0  0  0  0  0  0
   -3.0898    1.8245    0.0000 C   0  0  0  0  0  0  0  0  0  0  0  0
   -3.0898    2.6494    0.0000 C   0  0  0  0  0  0  0  0  0  0  0  0
   -0.8948   -0.6361    0.0000 C   0  0  0  0  0  0  0  0  0  0  0  0
    0.4474   -0.1888    0.0000 C   0  0  0  0  0  0  0  0  0  0  0  0
    1.7337    2.6494    0.0000 C   0  0  0  0  0  0  0  0  0  0  0  0
    0.1538   -1.5869    0.0000 C   0  0  0  0  0  0  0  0  0  0  0  0
    0.9647   -1.7686    0.0000 C   0  0  0  0  0  0  0  0  0  0  0  0
    1.1324   -2.5935    0.0000 C   0  0  0  0  0  0  0  0  0  0  0  0
    1.4401   -1.0975    0.0000 C   0  0  0  0  0  0  0  0  0  0  0  0
    1.7896   -3.0549    0.0000 C   0  0  0  0  0  0  0  0  0  0  0  0
    2.2649   -0.9577    0.0000 C   0  0  0  0  0  0  0  0  0  0  0  0
    2.9360   -1.4190    0.0000 C   0  0  0  0  0  0  0  0  0  0  0  0
    2.6144   -2.9011    0.0000 C   0  0  0  0  0  0  0  0  0  0  0  0
    3.0898   -2.2300    0.0000 C   0  0  0  0  0  0  0  0  0  0  0  0
  1  5  1  0  0  0  0
  1  6  1  0  0  0  0
  1  8  1  0  0  0  0
  2  5  2  0  0  0  0
  2  7  1  0  0  0  0
  3 18  1  0  0  0  0
  3 19  1  0  0  0  0
  3 21  1  0  0  0  0
  4 14  1  0  0  0  0
  4 20  1  0  0  0  0
  9  5  1  6  0  0  0
  6  7  1  0  0  0  0
  6 10  2  0  0  0  0
  7 11  2  0  0  0  0
  8 12  1  0  0  0  0
  8 13  1  0  0  0  0
  9 14  1  0  0  0  0
  9 15  1  0  0  0  0
 10 16  1  0  0  0  0
 11 17  1  0  0  0  0
 12 18  1  0  0  0  0
 13 19  1  0  0  0  0
 15 20  1  0  0  0  0
 16 17  2  0  0  0  0
 21 22  1  0  0  0  0
 22 23  1  0  0  0  0
 22 24  1  0  0  0  0
 23 25  1  0  0  0  0
 24 26  1  0  0  0  0
 25 28  1  0  0  0  0
 26 27  1  0  0  0  0
 27 29  1  0  0  0  0
 28 29  1  0  0  0  0
M  END
> <PUBCHEM_COMPOUND_ID_TYPE>
0

> <PUBCHEM_TOTAL_CHARGE>
0

> <PUBCHEM_SUBSTANCE_ID>
310949956

> <PUBCHEM_SUBSTANCE_VERSION>
1

> <PUBCHEM_EXT_DATASOURCE_NAME>
4488

> <PUBCHEM_EXT_DATASOURCE_REGID>
SCHEMBL16128185

> <PUBCHEM_SUBSTANCE_COMMENT>
InChI=1S/C25H38N4/c1-2-4-8-20(9-5-3-1)19-28-16-13-22(14-17-28)29-24-11-7-6-10-23(24)27-25(29)21-12-15-26-18-21/h6-7,10-11,20-22,26H,1-5,8-9,12-19H2/t21-/m1/s1
InChIKey=GCPLHBYCGYWPBA-OAQYLSRUSA-N

> <PUBCHEM_SUBSTANCE_SYNONYM>
SCHEMBL16128185

> <PUBCHEM_XREF_EXT_ID>
SCHEMBL16128185

> <PUBCHEM_EXT_DATASOURCE_URL>
https://www.surechembl.org/

> <PUBCHEM_EXT_SUBSTANCE_URL>
https://www.surechembl.org/chemical/SCHEMBL16128185

> <PUBCHEM_CID_ASSOCIATIONS>
86272380  1

> <PUBCHEM_COORDINATE_TYPE>
1
3

> <PUBCHEM_BONDANNOTATIONS>
9  5  6

$$$$
