310948511
  -OEChem-07211613022D

 35 39  0     1  0  0  0  0  0999 V2000
    2.6843   -2.9333    0.0000 F   0  0  0  0  0  0  0  0  0  0  0  0
    3.2562   -3.8926    0.0000 F   0  0  0  0  0  0  0  0  0  0  0  0
    2.2599   -4.4461    0.0000 F   0  0  0  0  0  0  0  0  0  0  0  0
   -2.5367   -3.1547    0.0000 O   0  0  0  0  0  0  0  0  0  0  0  0
   -1.0239   -0.8118    0.0000 N   0  0  0  0  0  0  0  0  0  0  0  0
   -0.5442   -1.4944    0.0000 N   0  0  0  0  0  0  0  0  0  0  0  0
   -0.7656   -2.9517    0.0000 N   0  0  0  0  0  0  0  0  0  0  0  0
   -3.2562   -1.9002    0.0000 N   0  0  0  0  0  0  0  0  0  0  0  0
   -0.0461    2.3614    0.0000 N   0  0  0  0  0  0  0  0  0  0  0  0
    1.1346   -1.0885    0.0000 N   0  0  0  0  0  0  0  0  0  0  0  0
   -1.8172   -1.8818    0.0000 C   0  0  0  0  0  0  0  0  0  0  0  0
   -1.8172   -1.0700    0.0000 C   0  0  0  0  0  0  0  0  0  0  0  0
   -1.0239   -2.1585    0.0000 C   0  0  0  0  0  0  0  0  0  0  0  0
   -0.7656    0.0000    0.0000 C   0  0  3  0  0  0  0  0  0  0  0  0
   -2.5367   -2.2876    0.0000 C   0  0  0  0  0  0  0  0  0  0  0  0
    0.0461    0.1476    0.0000 C   0  0  3  0  0  0  0  0  0  0  0  0
   -2.5367   -0.6457    0.0000 C   0  0  0  0  0  0  0  0  0  0  0  0
   -1.3190    0.5903    0.0000 C   0  0  0  0  0  0  0  0  0  0  0  0
    0.0276   -3.1178    0.0000 C   0  0  0  0  0  0  0  0  0  0  0  0
   -3.2377   -1.0516    0.0000 C   0  0  0  0  0  0  0  0  0  0  0  0
    0.2859    0.9224    0.0000 C   0  0  0  0  0  0  0  0  0  0  0  0
   -0.2675    1.5497    0.0000 C   0  0  3  0  0  0  0  0  0  0  0  0
   -1.0608    1.3836    0.0000 C   0  0  0  0  0  0  0  0  0  0  0  0
    0.5996   -0.4796    0.0000 C   0  0  0  0  0  0  0  0  0  0  0  0
    0.3044   -3.8926    0.0000 C   0  0  0  0  0  0  0  0  0  0  0  0
    0.5996   -2.5090    0.0000 C   0  0  0  0  0  0  0  0  0  0  0  0
    1.6512   -3.4499    0.0000 C   0  0  0  0  0  0  0  0  0  0  0  0
    2.4629   -3.6897    0.0000 C   0  0  0  0  0  0  0  0  0  0  0  0
    1.1161   -4.0587    0.0000 C   0  0  0  0  0  0  0  0  0  0  0  0
    1.3929   -2.6751    0.0000 C   0  0  0  0  0  0  0  0  0  0  0  0
   -0.4520    3.0809    0.0000 C   0  0  3  0  0  0  0  0  0  0  0  0
    0.1383    3.6897    0.0000 C   0  0  0  0  0  0  0  0  0  0  0  0
    0.3413    4.4461    0.0000 C   0  0  0  0  0  0  0  0  0  0  0  0
    0.8948    3.9111    0.0000 C   0  0  0  0  0  0  0  0  0  0  0  0
   -1.2822    3.0993    0.0000 C   0  0  0  0  0  0  0  0  0  0  0  0
  1 28  1  0  0  0  0
  2 28  1  0  0  0  0
  3 28  1  0  0  0  0
  4 15  2  0  0  0  0
  5  6  1  0  0  0  0
  5 12  1  0  0  0  0
 14  5  1  6  0  0  0
  6 13  2  0  0  0  0
  7 13  1  0  0  0  0
  7 19  1  0  0  0  0
  8 15  1  0  0  0  0
  8 20  1  0  0  0  0
 22  9  1  6  0  0  0
  9 31  1  0  0  0  0
 10 24  3  0  0  0  0
 11 12  2  0  0  0  0
 11 13  1  0  0  0  0
 11 15  1  0  0  0  0
 12 17  1  0  0  0  0
 14 16  1  0  0  0  0
 14 18  1  0  0  0  0
 16 21  1  0  0  0  0
 16 24  1  1  0  0  0
 17 20  2  0  0  0  0
 18 23  1  0  0  0  0
 19 25  2  0  0  0  0
 19 26  1  0  0  0  0
 21 22  1  0  0  0  0
 22 23  1  0  0  0  0
 25 29  1  0  0  0  0
 26 30  2  0  0  0  0
 27 28  1  0  0  0  0
 27 29  2  0  0  0  0
 27 30  1  0  0  0  0
 31 32  1  0  0  0  0
 31 35  1  1  0  0  0
 32 33  1  0  0  0  0
 32 34  1  0  0  0  0
 33 34  1  0  0  0  0
M  END
> <PUBCHEM_COMPOUND_ID_TYPE>
0

> <PUBCHEM_TOTAL_CHARGE>
0

> <PUBCHEM_SUBSTANCE_ID>
310948511

> <PUBCHEM_SUBSTANCE_VERSION>
1

> <PUBCHEM_EXT_DATASOURCE_NAME>
4488

> <PUBCHEM_EXT_DATASOURCE_REGID>
SCHEMBL16126693

> <PUBCHEM_SUBSTANCE_COMMENT>
InChI=1S/C25H27F3N6O/c1-14(15-2-3-15)31-19-8-9-20(16(12-19)13-29)34-21-10-11-30-24(35)22(21)23(33-34)32-18-6-4-17(5-7-18)25(26,27)28/h4-7,10-11,14-16,19-20,31H,2-3,8-9,12H2,1H3,(H,30,35)(H,32,33)/t14-,16-,19-,20+/m0/s1
InChIKey=HAOJRYPDUQJHGB-JKTDJZPLSA-N

> <PUBCHEM_SUBSTANCE_SYNONYM>
SCHEMBL16126693

> <PUBCHEM_XREF_EXT_ID>
SCHEMBL16126693

> <PUBCHEM_EXT_DATASOURCE_URL>
https://www.surechembl.org/

> <PUBCHEM_EXT_SUBSTANCE_URL>
https://www.surechembl.org/chemical/SCHEMBL16126693

> <PUBCHEM_CID_ASSOCIATIONS>
117614068  1

> <PUBCHEM_COORDINATE_TYPE>
1
3

> <PUBCHEM_BONDANNOTATIONS>
16  24  5
31  35  5
14  5  6
22  9  6

$$$$
