310944519
  -OEChem-07211613022D

 35 41  0     0  0  0  0  0  0999 V2000
    1.2816    3.4108    0.0000 F   0  0  0  0  0  0  0  0  0  0  0  0
   -0.8611    2.9497    0.0000 N   0  0  0  0  0  0  0  0  0  0  0  0
   -0.2237   -1.2951    0.0000 C   0  0  0  0  0  0  0  0  0  0  0  0
    0.5493   -1.0374    0.0000 C   0  0  0  0  0  0  0  0  0  0  0  0
   -0.7256   -0.6306    0.0000 C   0  0  0  0  0  0  0  0  0  0  0  0
   -1.0374   -1.5664    0.0000 C   0  0  0  0  0  0  0  0  0  0  0  0
    0.2644   -1.9461    0.0000 C   0  0  0  0  0  0  0  0  0  0  0  0
    0.5764   -0.2373    0.0000 C   0  0  0  0  0  0  0  0  0  0  0  0
   -0.2509    0.0203    0.0000 C   0  0  0  0  0  0  0  0  0  0  0  0
   -1.0374   -2.3665    0.0000 C   0  0  0  0  0  0  0  0  0  0  0  0
   -0.2102   -2.5971    0.0000 C   0  0  0  0  0  0  0  0  0  0  0  0
    1.2951    0.1695    0.0000 C   0  0  0  0  0  0  0  0  0  0  0  0
    1.3223   -1.4307    0.0000 C   0  0  0  0  0  0  0  0  0  0  0  0
   -1.5528   -0.5493    0.0000 C   0  0  0  0  0  0  0  0  0  0  0  0
   -1.7698   -1.1731    0.0000 C   0  0  0  0  0  0  0  0  0  0  0  0
    1.1053   -2.0410    0.0000 C   0  0  0  0  0  0  0  0  0  0  0  0
   -0.5900    0.7391    0.0000 C   0  0  0  0  0  0  0  0  0  0  0  0
   -1.7155   -2.7598    0.0000 C   0  0  0  0  0  0  0  0  0  0  0  0
    0.1424   -3.3429    0.0000 C   0  0  0  0  0  0  0  0  0  0  0  0
    1.2951    0.9968    0.0000 C   0  0  0  0  0  0  0  0  0  0  0  0
    1.9868   -0.2102    0.0000 C   0  0  0  0  0  0  0  0  0  0  0  0
    2.0004   -1.0374    0.0000 C   0  0  0  0  0  0  0  0  0  0  0  0
   -1.9054    0.1695    0.0000 C   0  0  0  0  0  0  0  0  0  0  0  0
   -2.5021   -1.5935    0.0000 C   0  0  0  0  0  0  0  0  0  0  0  0
    1.4443   -2.7734    0.0000 C   0  0  0  0  0  0  0  0  0  0  0  0
   -1.4307    0.8340    0.0000 C   0  0  0  0  0  0  0  0  0  0  0  0
   -2.4885   -2.3801    0.0000 C   0  0  0  0  0  0  0  0  0  0  0  0
    0.9697   -3.4108    0.0000 C   0  0  0  0  0  0  0  0  0  0  0  0
    0.5764    1.3901    0.0000 C   0  0  0  0  0  0  0  0  0  0  0  0
    2.0004    1.4037    0.0000 C   0  0  0  0  0  0  0  0  0  0  0  0
    0.5628    2.2038    0.0000 C   0  0  0  0  0  0  0  0  0  0  0  0
    2.0004    2.2308    0.0000 C   0  0  0  0  0  0  0  0  0  0  0  0
    1.2816    2.6377    0.0000 C   0  0  0  0  0  0  0  0  0  0  0  0
   -0.1695    2.5971    0.0000 C   0  0  0  0  0  0  0  0  0  0  0  0
    2.5021    2.5157    0.0000 C   0  0  0  0  0  0  0  0  0  0  0  0
  1 33  1  0  0  0  0
  2 34  3  0  0  0  0
  3  4  1  0  0  0  0
  3  5  1  0  0  0  0
  3  6  1  0  0  0  0
  3  7  1  0  0  0  0
  4  8  1  0  0  0  0
  4 13  2  0  0  0  0
  5  9  2  0  0  0  0
  5 14  1  0  0  0  0
  6 10  2  0  0  0  0
  6 15  1  0  0  0  0
  7 11  2  0  0  0  0
  7 16  1  0  0  0  0
  8  9  1  0  0  0  0
  8 12  2  0  0  0  0
  9 17  1  0  0  0  0
 10 11  1  0  0  0  0
 10 18  1  0  0  0  0
 11 19  1  0  0  0  0
 12 20  1  0  0  0  0
 12 21  1  0  0  0  0
 13 22  1  0  0  0  0
 14 23  2  0  0  0  0
 15 24  2  0  0  0  0
 16 25  2  0  0  0  0
 17 26  2  0  0  0  0
 18 27  2  0  0  0  0
 19 28  2  0  0  0  0
 20 29  1  0  0  0  0
 20 30  2  0  0  0  0
 21 22  2  0  0  0  0
 23 26  1  0  0  0  0
 24 27  1  0  0  0  0
 25 28  1  0  0  0  0
 29 31  2  0  0  0  0
 30 32  1  0  0  0  0
 31 33  1  0  0  0  0
 31 34  1  0  0  0  0
 32 33  2  0  0  0  0
 32 35  1  0  0  0  0
M  END
> <PUBCHEM_COMPOUND_ID_TYPE>
0

> <PUBCHEM_TOTAL_CHARGE>
0

> <PUBCHEM_SUBSTANCE_ID>
310944519

> <PUBCHEM_SUBSTANCE_VERSION>
1

> <PUBCHEM_EXT_DATASOURCE_NAME>
4488

> <PUBCHEM_EXT_DATASOURCE_REGID>
SCHEMBL16122594

> <PUBCHEM_SUBSTANCE_COMMENT>
InChI=1S/C33H20FN/c1-20-17-21(18-22(19-35)32(20)34)23-12-8-16-30-31(23)26-11-4-7-15-29(26)33(30)27-13-5-2-9-24(27)25-10-3-6-14-28(25)33/h2-18H,1H3
InChIKey=LLWNHQHZOHDUDL-UHFFFAOYSA-N

> <PUBCHEM_SUBSTANCE_SYNONYM>
SCHEMBL16122594

> <PUBCHEM_XREF_EXT_ID>
SCHEMBL16122594

> <PUBCHEM_EXT_DATASOURCE_URL>
https://www.surechembl.org/

> <PUBCHEM_EXT_SUBSTANCE_URL>
https://www.surechembl.org/chemical/SCHEMBL16122594

> <PUBCHEM_CID_ASSOCIATIONS>
117610754  1

> <PUBCHEM_COORDINATE_TYPE>
1
3

$$$$
