310942190
  -OEChem-07211613022D

 28 30  0     1  0  0  0  0  0999 V2000
    2.8776    0.2113    0.0000 Cl  0  0  0  0  0  0  0  0  0  0  0  0
    0.0062    0.2113    0.0000 F   0  0  0  0  0  0  0  0  0  0  0  0
    1.4233    1.0442    0.0000 O   0  0  0  0  0  0  0  0  0  0  0  0
   -1.4481    0.2113    0.0000 O   0  0  0  0  0  0  0  0  0  0  0  0
   -0.7148   -1.0317    0.0000 N   0  0  0  0  0  0  0  0  0  0  0  0
   -2.8651    0.2113    0.0000 N   0  0  0  0  0  0  0  0  0  0  0  0
    0.7148   -1.0192    0.0000 C   0  0  0  0  0  0  0  0  0  0  0  0
    0.7272   -0.1989    0.0000 C   0  0  0  0  0  0  0  0  0  0  0  0
    1.4357    0.2113    0.0000 C   0  0  0  0  0  0  0  0  0  0  0  0
    0.0062   -1.4295    0.0000 C   0  0  3  0  0  0  0  0  0  0  0  0
    2.1566   -0.1865    0.0000 C   0  0  0  0  0  0  0  0  0  0  0  0
    1.4233   -1.4295    0.0000 C   0  0  0  0  0  0  0  0  0  0  0  0
    2.1566   -1.0192    0.0000 C   0  0  0  0  0  0  0  0  0  0  0  0
   -1.4233   -1.4295    0.0000 C   0  0  3  0  0  0  0  0  0  0  0  0
   -2.1566   -1.0192    0.0000 C   0  0  0  0  0  0  0  0  0  0  0  0
    2.1442    1.4668    0.0000 C   0  0  0  0  0  0  0  0  0  0  0  0
    0.0062   -2.2747    0.0000 C   0  0  0  0  0  0  0  0  0  0  0  0
   -2.1566   -0.1989    0.0000 C   0  0  0  0  0  0  0  0  0  0  0  0
   -2.8651   -1.4419    0.0000 C   0  0  0  0  0  0  0  0  0  0  0  0
    2.8651    1.0566    0.0000 C   0  0  0  0  0  0  0  0  0  0  0  0
    2.1815    2.2996    0.0000 C   0  0  0  0  0  0  0  0  0  0  0  0
   -1.4357   -2.2623    0.0000 C   0  0  0  0  0  0  0  0  0  0  0  0
   -3.5861   -1.0192    0.0000 C   0  0  0  0  0  0  0  0  0  0  0  0
   -3.5737   -0.1989    0.0000 C   0  0  0  0  0  0  0  0  0  0  0  0
   -0.7023   -2.6973    0.0000 C   0  0  0  0  0  0  0  0  0  0  0  0
    3.5861    1.4544    0.0000 C   0  0  0  0  0  0  0  0  0  0  0  0
    2.8776    2.6973    0.0000 C   0  0  0  0  0  0  0  0  0  0  0  0
    3.5861    2.2871    0.0000 C   0  0  0  0  0  0  0  0  0  0  0  0
  1 11  1  0  0  0  0
  2  8  1  0  0  0  0
  3  9  1  0  0  0  0
  3 16  1  0  0  0  0
  4 18  2  0  0  0  0
 10  5  1  1  0  0  0
  5 14  1  0  0  0  0
  6 18  1  0  0  0  0
  6 24  1  0  0  0  0
  7  8  1  0  0  0  0
  7 10  1  0  0  0  0
  7 12  2  0  0  0  0
  8  9  2  0  0  0  0
  9 11  1  0  0  0  0
 10 17  1  0  0  0  0
 11 13  2  0  0  0  0
 12 13  1  0  0  0  0
 14 15  1  0  0  0  0
 14 22  1  1  0  0  0
 15 18  1  0  0  0  0
 15 19  2  0  0  0  0
 16 20  2  0  0  0  0
 16 21  1  0  0  0  0
 17 25  1  0  0  0  0
 19 23  1  0  0  0  0
 20 26  1  0  0  0  0
 21 27  2  0  0  0  0
 23 24  2  0  0  0  0
 26 28  2  0  0  0  0
 27 28  1  0  0  0  0
M  END
> <PUBCHEM_COMPOUND_ID_TYPE>
0

> <PUBCHEM_TOTAL_CHARGE>
0

> <PUBCHEM_SUBSTANCE_ID>
310942190

> <PUBCHEM_SUBSTANCE_VERSION>
1

> <PUBCHEM_EXT_DATASOURCE_NAME>
4488

> <PUBCHEM_EXT_DATASOURCE_REGID>
SCHEMBL16120225

> <PUBCHEM_SUBSTANCE_COMMENT>
InChI=1S/C22H22ClFN2O2/c1-3-19(26-14(2)16-10-7-13-25-22(16)27)17-11-12-18(23)21(20(17)24)28-15-8-5-4-6-9-15/h4-14,19,26H,3H2,1-2H3,(H,25,27)/t14-,19+/m0/s1
InChIKey=LEIHZAMUIQNSCN-IFXJQAMLSA-N

> <PUBCHEM_SUBSTANCE_SYNONYM>
SCHEMBL16120225

> <PUBCHEM_XREF_EXT_ID>
SCHEMBL16120225

> <PUBCHEM_EXT_DATASOURCE_URL>
https://www.surechembl.org/

> <PUBCHEM_EXT_SUBSTANCE_URL>
https://www.surechembl.org/chemical/SCHEMBL16120225

> <PUBCHEM_CID_ASSOCIATIONS>
117608841  1

> <PUBCHEM_COORDINATE_TYPE>
1
3

> <PUBCHEM_BONDANNOTATIONS>
14  22  5
10  5  5

$$$$
