310935456
  -OEChem-07211613022D

 41 45  0     1  0  0  0  0  0999 V2000
    3.3398   -0.5030    0.0000 O   0  0  0  0  0  0  0  0  0  0  0  0
    4.2285   -0.3699    0.0000 O   0  0  0  0  0  0  0  0  0  0  0  0
    0.5099   -1.7606    0.0000 O   0  0  0  0  0  0  0  0  0  0  0  0
   -2.9914   -1.1126    0.0000 O   0  0  0  0  0  0  0  0  0  0  0  0
   -2.4553    1.8132    0.0000 O   0  0  0  0  0  0  0  0  0  0  0  0
    2.3554    0.3986    0.0000 C   0  0  3  0  0  0  0  0  0  0  0  0
    1.5357    0.4918    0.0000 C   0  0  3  0  0  0  0  0  0  0  0  0
    1.1937   -0.2590    0.0000 C   0  0  3  0  0  0  0  0  0  0  0  0
    2.5201   -0.4098    0.0000 C   0  0  3  0  0  0  0  0  0  0  0  0
    3.0733    0.8050    0.0000 C   0  0  3  0  0  0  0  0  0  0  0  0
    0.3725   -0.3383    0.0000 C   0  0  3  0  0  0  0  0  0  0  0  0
    3.6817    0.2478    0.0000 C   0  0  3  0  0  0  0  0  0  0  0  0
    1.8021   -0.8162    0.0000 C   0  0  0  0  0  0  0  0  0  0  0  0
   -0.1067    0.3332    0.0000 C   0  0  3  0  0  0  0  0  0  0  0  0
    1.0564    1.1633    0.0000 C   0  0  0  0  0  0  0  0  0  0  0  0
   -0.9279    0.2539    0.0000 C   0  0  3  0  0  0  0  0  0  0  0  0
    0.2352    1.0840    0.0000 C   0  0  0  0  0  0  0  0  0  0  0  0
    1.9542    1.2027    0.0000 C   0  0  0  0  0  0  0  0  0  0  0  0
    0.0306   -1.0891    0.0000 C   0  0  0  0  0  0  0  0  0  0  0  0
    3.9433    1.0303    0.0000 C   0  0  0  0  0  0  0  0  0  0  0  0
    3.1665    1.6247    0.0000 C   0  0  0  0  0  0  0  0  0  0  0  0
   -1.6663    0.6219    0.0000 C   0  0  3  0  0  0  0  0  0  0  0  0
   -0.8773   -0.5695    0.0000 C   0  0  0  0  0  0  0  0  0  0  0  0
   -0.5344    0.9791    0.0000 C   0  0  0  0  0  0  0  0  0  0  0  0
    5.0369   -0.2053    0.0000 C   0  0  0  0  0  0  0  0  0  0  0  0
    4.7517    1.1949    0.0000 C   0  0  0  0  0  0  0  0  0  0  0  0
   -2.3541    0.1663    0.0000 C   0  0  0  0  0  0  0  0  0  0  0  0
    5.2985    0.5772    0.0000 C   0  0  3  0  0  0  0  0  0  0  0  0
   -2.3036   -0.6571    0.0000 C   0  0  3  0  0  0  0  0  0  0  0  0
   -1.7169    1.4453    0.0000 C   0  0  0  0  0  0  0  0  0  0  0  0
   -1.5652   -1.0250    0.0000 C   0  0  0  0  0  0  0  0  0  0  0  0
    6.1069    0.7419    0.0000 C   0  0  0  0  0  0  0  0  0  0  0  0
    2.4771    1.2146    0.0000 H   0  0  0  0  0  0  0  0  0  0  0  0
    0.9321   -1.0415    0.0000 H   0  0  0  0  0  0  0  0  0  0  0  0
    2.6847   -1.2182    0.0000 H   0  0  0  0  0  0  0  0  0  0  0  0
    3.7005    1.3410    0.0000 H   0  0  0  0  0  0  0  0  0  0  0  0
   -0.4486   -0.4176    0.0000 H   0  0  0  0  0  0  0  0  0  0  0  0
   -0.5860    1.0047    0.0000 H   0  0  0  0  0  0  0  0  0  0  0  0
   -0.9785    1.0774    0.0000 H   0  0  0  0  0  0  0  0  0  0  0  0
    5.8453   -0.0406    0.0000 H   0  0  0  0  0  0  0  0  0  0  0  0
   -3.0420   -0.2892    0.0000 H   0  0  0  0  0  0  0  0  0  0  0  0
  1  9  1  0  0  0  0
  1 12  1  0  0  0  0
  2 12  1  0  0  0  0
  2 25  1  0  0  0  0
  3 19  1  0  0  0  0
 29  4  1  6  0  0  0
  5 30  1  0  0  0  0
  6  7  1  0  0  0  0
  6  9  1  0  0  0  0
  6 10  1  0  0  0  0
  6 33  1  6  0  0  0
  7  8  1  0  0  0  0
  7 15  1  0  0  0  0
  7 18  1  1  0  0  0
  8 11  1  0  0  0  0
  8 13  1  0  0  0  0
  8 34  1  6  0  0  0
  9 13  1  0  0  0  0
  9 35  1  6  0  0  0
 10 12  1  0  0  0  0
 10 21  1  6  0  0  0
 10 36  1  1  0  0  0
 11 14  1  0  0  0  0
 11 19  1  0  0  0  0
 11 37  1  1  0  0  0
 12 20  1  1  0  0  0
 14 16  1  0  0  0  0
 14 17  1  0  0  0  0
 14 38  1  6  0  0  0
 15 17  1  0  0  0  0
 16 22  1  0  0  0  0
 16 23  1  0  0  0  0
 16 24  1  6  0  0  0
 20 26  1  0  0  0  0
 22 27  1  0  0  0  0
 22 30  1  0  0  0  0
 22 39  1  1  0  0  0
 23 31  1  0  0  0  0
 25 28  1  0  0  0  0
 26 28  1  0  0  0  0
 27 29  1  0  0  0  0
 28 32  1  1  0  0  0
 28 40  1  6  0  0  0
 29 31  1  0  0  0  0
 29 41  1  1  0  0  0
M  END
> <PUBCHEM_COMPOUND_ID_TYPE>
0

> <PUBCHEM_TOTAL_CHARGE>
0

> <PUBCHEM_SUBSTANCE_ID>
310935456

> <PUBCHEM_SUBSTANCE_VERSION>
1

> <PUBCHEM_EXT_DATASOURCE_NAME>
4488

> <PUBCHEM_EXT_DATASOURCE_REGID>
SCHEMBL16113002

> <PUBCHEM_SUBSTANCE_COMMENT>
InChI=1S/C27H46O5/c1-16-5-10-27(31-15-16)17(2)24-23(32-27)12-22-20(14-29)21(7-9-26(22,24)4)25(3)8-6-19(30)11-18(25)13-28/h16-24,28-30H,5-15H2,1-4H3/t16-,17+,18-,19+,20-,21+,22+,23+,24+,25+,26+,27-/m1/s1
InChIKey=NODTYFBQZMQZNV-UQHLGXRBSA-N

> <PUBCHEM_SUBSTANCE_SYNONYM>
SCHEMBL16113002

> <PUBCHEM_XREF_EXT_ID>
SCHEMBL16113002

> <PUBCHEM_EXT_DATASOURCE_URL>
https://www.surechembl.org/

> <PUBCHEM_EXT_SUBSTANCE_URL>
https://www.surechembl.org/chemical/SCHEMBL16113002

> <PUBCHEM_CID_ASSOCIATIONS>
117603496  1

> <PUBCHEM_COORDINATE_TYPE>
1
3

> <PUBCHEM_BONDANNOTATIONS>
10  21  6
10  36  5
11  37  5
12  20  5
14  38  6
16  24  6
22  39  5
28  32  5
28  40  6
29  41  5
29  4  6
6  33  6
7  18  5
8  34  6
9  35  6

$$$$
