310943482
  -OEChem-07211613022D

 34 39  0     0  0  0  0  0  0999 V2000
    1.1046   -0.1523    0.0000 O   0  0  0  0  0  0  0  0  0  0  0  0
   -4.5325    2.3462    0.0000 O   0  0  0  0  0  0  0  0  0  0  0  0
   -1.7140    1.5540    0.0000 N   0  0  0  0  0  0  0  0  0  0  0  0
   -3.1308    1.5387    0.0000 N   0  0  0  0  0  0  0  0  0  0  0  0
   -3.0241   -0.2285    0.0000 N   0  0  0  0  0  0  0  0  0  0  0  0
   -1.8816   -0.8836    0.0000 N   0  0  0  0  0  0  0  0  0  0  0  0
    3.3594    0.2133    0.0000 N   0  0  0  0  0  0  0  0  0  0  0  0
    3.9383   -0.4266    0.0000 N   0  0  0  0  0  0  0  0  0  0  0  0
    1.8358    1.1426    0.0000 N   0  0  0  0  0  0  0  0  0  0  0  0
    0.4190    2.7728    0.0000 N   0  0  0  0  0  0  0  0  0  0  0  0
   -2.4299    0.3199    0.0000 C   0  0  0  0  0  0  0  0  0  0  0  0
   -2.4147    1.1426    0.0000 C   0  0  0  0  0  0  0  0  0  0  0  0
   -0.9826    1.1426    0.0000 C   0  0  0  0  0  0  0  0  0  0  0  0
   -1.6988   -0.0762    0.0000 C   0  0  0  0  0  0  0  0  0  0  0  0
   -0.2971    1.5540    0.0000 C   0  0  0  0  0  0  0  0  0  0  0  0
   -0.9979    0.3199    0.0000 C   0  0  0  0  0  0  0  0  0  0  0  0
    2.5671   -0.1371    0.0000 C   0  0  0  0  0  0  0  0  0  0  0  0
    3.5118   -1.1730    0.0000 C   0  0  0  0  0  0  0  0  0  0  0  0
   -0.2818    2.3614    0.0000 C   0  0  0  0  0  0  0  0  0  0  0  0
    3.8621   -1.9501    0.0000 C   0  0  0  0  0  0  0  0  0  0  0  0
    0.4190    1.1426    0.0000 C   0  0  0  0  0  0  0  0  0  0  0  0
    1.1198    1.5387    0.0000 C   0  0  0  0  0  0  0  0  0  0  0  0
    1.8358    0.3047    0.0000 C   0  0  0  0  0  0  0  0  0  0  0  0
    2.6737   -0.9750    0.0000 C   0  0  0  0  0  0  0  0  0  0  0  0
   -2.7042   -0.9598    0.0000 C   0  0  0  0  0  0  0  0  0  0  0  0
    4.5325   -2.4376    0.0000 C   0  0  0  0  0  0  0  0  0  0  0  0
    3.8011   -2.7728    0.0000 C   0  0  0  0  0  0  0  0  0  0  0  0
    1.1350    2.3614    0.0000 C   0  0  0  0  0  0  0  0  0  0  0  0
   -3.1308    2.3614    0.0000 C   0  0  0  0  0  0  0  0  0  0  0  0
   -3.8163    1.1426    0.0000 C   0  0  0  0  0  0  0  0  0  0  0  0
   -1.0131    2.7575    0.0000 C   0  0  0  0  0  0  0  0  0  0  0  0
    3.5270    1.0512    0.0000 C   0  0  0  0  0  0  0  0  0  0  0  0
   -3.8621    2.7575    0.0000 C   0  0  0  0  0  0  0  0  0  0  0  0
   -4.5325    1.5387    0.0000 C   0  0  0  0  0  0  0  0  0  0  0  0
  1 23  2  0  0  0  0
  2 33  1  0  0  0  0
  2 34  1  0  0  0  0
  3 12  2  0  0  0  0
  3 13  1  0  0  0  0
  4 12  1  0  0  0  0
  4 29  1  0  0  0  0
  4 30  1  0  0  0  0
  5 11  1  0  0  0  0
  5 25  2  0  0  0  0
  6 14  1  0  0  0  0
  6 25  1  0  0  0  0
  7  8  1  0  0  0  0
  7 17  1  0  0  0  0
  7 32  1  0  0  0  0
  8 18  2  0  0  0  0
  9 22  1  0  0  0  0
  9 23  1  0  0  0  0
 10 19  1  0  0  0  0
 10 28  2  0  0  0  0
 11 12  1  0  0  0  0
 11 14  2  0  0  0  0
 13 15  1  0  0  0  0
 13 16  2  0  0  0  0
 14 16  1  0  0  0  0
 15 19  2  0  0  0  0
 15 21  1  0  0  0  0
 17 23  1  0  0  0  0
 17 24  2  0  0  0  0
 18 20  1  0  0  0  0
 18 24  1  0  0  0  0
 19 31  1  0  0  0  0
 20 26  1  0  0  0  0
 20 27  1  0  0  0  0
 21 22  2  0  0  0  0
 22 28  1  0  0  0  0
 26 27  1  0  0  0  0
 29 33  1  0  0  0  0
 30 34  1  0  0  0  0
M  END
> <PUBCHEM_COMPOUND_ID_TYPE>
0

> <PUBCHEM_TOTAL_CHARGE>
0

> <PUBCHEM_SUBSTANCE_ID>
310943482

> <PUBCHEM_SUBSTANCE_VERSION>
1

> <PUBCHEM_EXT_DATASOURCE_NAME>
4488

> <PUBCHEM_EXT_DATASOURCE_REGID>
SCHEMBL16121547

> <PUBCHEM_SUBSTANCE_COMMENT>
InChI=1S/C24H26N8O2/c1-14-17(19-10-20-22(27-13-26-20)23(29-19)32-5-7-34-8-6-32)9-16(12-25-14)28-24(33)21-11-18(15-3-4-15)30-31(21)2/h9-13,15H,3-8H2,1-2H3,(H,26,27)(H,28,33)
InChIKey=CFQYIXOSUHBEMN-UHFFFAOYSA-N

> <PUBCHEM_SUBSTANCE_SYNONYM>
SCHEMBL16121547

> <PUBCHEM_XREF_EXT_ID>
SCHEMBL16121547

> <PUBCHEM_EXT_DATASOURCE_URL>
https://www.surechembl.org/

> <PUBCHEM_EXT_SUBSTANCE_URL>
https://www.surechembl.org/chemical/SCHEMBL16121547

> <PUBCHEM_CID_ASSOCIATIONS>
117609904  1

> <PUBCHEM_COORDINATE_TYPE>
1
3

$$$$
