310948839
  -OEChem-07211613022D

 20 21  0     1  0  0  0  0  0999 V2000
    0.7787   -1.9186    0.0000 F   0  0  0  0  0  0  0  0  0  0  0  0
   -0.0561    0.0748    0.0000 O   0  0  0  0  0  0  0  0  0  0  0  0
   -0.8908   -1.9311    0.0000 O   0  0  0  0  0  0  0  0  0  0  0  0
    2.2114   -0.8471    0.0000 O   0  0  0  0  0  0  0  0  0  0  0  0
   -2.1740   -0.4112    0.0000 O   0  0  0  0  0  0  0  0  0  0  0  0
    2.9589    1.9311    0.0000 O   0  0  0  0  0  0  0  0  0  0  0  0
    1.2272    0.1744    0.0000 N   0  0  0  0  0  0  0  0  0  0  0  0
    2.7347    0.5482    0.0000 N   0  0  0  0  0  0  0  0  0  0  0  0
    0.3800   -1.1960    0.0000 C   0  0  3  0  0  0  0  0  0  0  0  0
    0.6167   -0.4112    0.0000 C   0  0  3  0  0  0  0  0  0  0  0  0
   -0.4672   -1.1960    0.0000 C   0  0  3  0  0  0  0  0  0  0  0  0
   -0.7164   -0.4112    0.0000 C   0  0  3  0  0  0  0  0  0  0  0  0
    1.2147   -1.2084    0.0000 C   0  0  0  0  0  0  0  0  0  0  0  0
    2.0120   -0.0373    0.0000 C   0  0  0  0  0  0  0  0  0  0  0  0
    1.0153    0.9718    0.0000 C   0  0  0  0  0  0  0  0  0  0  0  0
   -1.4390    0.0000    0.0000 C   0  0  0  0  0  0  0  0  0  0  0  0
    2.3859    1.3455    0.0000 C   0  0  0  0  0  0  0  0  0  0  0  0
    1.5885    1.5573    0.0000 C   0  0  0  0  0  0  0  0  0  0  0  0
    1.6258   -1.9186    0.0000 C   0  0  0  0  0  0  0  0  0  0  0  0
   -2.9589   -0.0373    0.0000 C   0  0  0  0  0  0  0  0  0  0  0  0
  9  1  1  6  0  0  0
 10  2  1  1  0  0  0
  2 12  1  0  0  0  0
 11  3  1  6  0  0  0
  4 14  2  0  0  0  0
  5 16  1  0  0  0  0
  5 20  1  0  0  0  0
  6 17  2  0  0  0  0
  7 10  1  0  0  0  0
  7 14  1  0  0  0  0
  7 15  1  0  0  0  0
  8 14  1  0  0  0  0
  8 17  1  0  0  0  0
  9 10  1  0  0  0  0
  9 11  1  0  0  0  0
  9 13  1  1  0  0  0
 11 12  1  0  0  0  0
 12 16  1  1  0  0  0
 13 19  1  0  0  0  0
 15 18  2  0  0  0  0
 17 18  1  0  0  0  0
M  END
> <PUBCHEM_COMPOUND_ID_TYPE>
0

> <PUBCHEM_TOTAL_CHARGE>
0

> <PUBCHEM_SUBSTANCE_ID>
310948839

> <PUBCHEM_SUBSTANCE_VERSION>
1

> <PUBCHEM_EXT_DATASOURCE_NAME>
4488

> <PUBCHEM_EXT_DATASOURCE_REGID>
SCHEMBL16127023

> <PUBCHEM_SUBSTANCE_COMMENT>
InChI=1S/C12H17FN2O5/c1-3-12(13)9(17)7(6-19-2)20-10(12)15-5-4-8(16)14-11(15)18/h4-5,7,9-10,17H,3,6H2,1-2H3,(H,14,16,18)/t7-,9-,10-,12-/m1/s1
InChIKey=PMVZCTUKNQDPHB-UGKPPGOTSA-N

> <PUBCHEM_SUBSTANCE_SYNONYM>
SCHEMBL16127023

> <PUBCHEM_XREF_EXT_ID>
SCHEMBL16127023

> <PUBCHEM_EXT_DATASOURCE_URL>
https://www.surechembl.org/

> <PUBCHEM_EXT_SUBSTANCE_URL>
https://www.surechembl.org/chemical/SCHEMBL16127023

> <PUBCHEM_CID_ASSOCIATIONS>
117614376  1

> <PUBCHEM_COORDINATE_TYPE>
1
3

> <PUBCHEM_BONDANNOTATIONS>
9  1  6
12  16  5
10  2  5
11  3  6
9  13  5

$$$$
