310943654
  -OEChem-07211613022D

 33 36  0     0  0  0  0  0  0999 V2000
    4.3788   -2.0863    0.0000 F   0  0  0  0  0  0  0  0  0  0  0  0
    3.5855   -2.8954    0.0000 F   0  0  0  0  0  0  0  0  0  0  0  0
    2.7923   -2.0863    0.0000 F   0  0  0  0  0  0  0  0  0  0  0  0
   -2.9350   -0.0238    0.0000 O   0  0  0  0  0  0  0  0  0  0  0  0
    1.3961   -0.0238    0.0000 O   0  0  0  0  0  0  0  0  0  0  0  0
   -4.3788    2.4671    0.0000 O   0  0  0  0  0  0  0  0  0  0  0  0
   -2.9350    1.6421    0.0000 N   0  0  0  0  0  0  0  0  0  0  0  0
   -1.4913   -0.0079    0.0000 N   0  0  0  0  0  0  0  0  0  0  0  0
    2.1100    1.2296    0.0000 N   0  0  0  0  0  0  0  0  0  0  0  0
    0.6664    2.8954    0.0000 N   0  0  0  0  0  0  0  0  0  0  0  0
   -0.0634    1.6579    0.0000 C   0  0  0  0  0  0  0  0  0  0  0  0
   -0.7615    1.2454    0.0000 C   0  0  0  0  0  0  0  0  0  0  0  0
   -2.2052    1.2454    0.0000 C   0  0  0  0  0  0  0  0  0  0  0  0
   -1.5072    1.6421    0.0000 C   0  0  0  0  0  0  0  0  0  0  0  0
   -0.0476    2.4829    0.0000 C   0  0  0  0  0  0  0  0  0  0  0  0
   -2.2052    0.4363    0.0000 C   0  0  0  0  0  0  0  0  0  0  0  0
    1.3961    1.6579    0.0000 C   0  0  0  0  0  0  0  0  0  0  0  0
    0.6981    1.2454    0.0000 C   0  0  0  0  0  0  0  0  0  0  0  0
   -0.7774    0.4046    0.0000 C   0  0  0  0  0  0  0  0  0  0  0  0
    2.8398   -0.0079    0.0000 C   0  0  0  0  0  0  0  0  0  0  0  0
    3.5697   -1.2296    0.0000 C   0  0  0  0  0  0  0  0  0  0  0  0
    2.1259    0.4363    0.0000 C   0  0  0  0  0  0  0  0  0  0  0  0
    3.5697   -2.0863    0.0000 C   0  0  0  0  0  0  0  0  0  0  0  0
    1.4120    2.4671    0.0000 C   0  0  0  0  0  0  0  0  0  0  0  0
    2.8398   -0.8329    0.0000 C   0  0  0  0  0  0  0  0  0  0  0  0
   -2.9191    2.4671    0.0000 C   0  0  0  0  0  0  0  0  0  0  0  0
   -3.6331    1.2454    0.0000 C   0  0  0  0  0  0  0  0  0  0  0  0
    3.5538    0.3887    0.0000 C   0  0  0  0  0  0  0  0  0  0  0  0
    4.2677   -0.8329    0.0000 C   0  0  0  0  0  0  0  0  0  0  0  0
    4.2677   -0.0079    0.0000 C   0  0  0  0  0  0  0  0  0  0  0  0
   -0.7774    2.8637    0.0000 C   0  0  0  0  0  0  0  0  0  0  0  0
   -3.6648    2.8795    0.0000 C   0  0  0  0  0  0  0  0  0  0  0  0
   -4.3629    1.6421    0.0000 C   0  0  0  0  0  0  0  0  0  0  0  0
  1 23  1  0  0  0  0
  2 23  1  0  0  0  0
  3 23  1  0  0  0  0
  4 16  2  0  0  0  0
  5 22  2  0  0  0  0
  6 32  1  0  0  0  0
  6 33  1  0  0  0  0
  7 13  1  0  0  0  0
  7 26  1  0  0  0  0
  7 27  1  0  0  0  0
  8 16  1  0  0  0  0
  8 19  1  0  0  0  0
  9 17  1  0  0  0  0
  9 22  1  0  0  0  0
 10 15  2  0  0  0  0
 10 24  1  0  0  0  0
 11 12  1  0  0  0  0
 11 15  1  0  0  0  0
 11 18  2  0  0  0  0
 12 14  1  0  0  0  0
 12 19  2  0  0  0  0
 13 14  2  0  0  0  0
 13 16  1  0  0  0  0
 15 31  1  0  0  0  0
 17 18  1  0  0  0  0
 17 24  2  0  0  0  0
 20 22  1  0  0  0  0
 20 25  2  0  0  0  0
 20 28  1  0  0  0  0
 21 23  1  0  0  0  0
 21 25  1  0  0  0  0
 21 29  2  0  0  0  0
 26 32  1  0  0  0  0
 27 33  1  0  0  0  0
 28 30  2  0  0  0  0
 29 30  1  0  0  0  0
M  END
> <PUBCHEM_COMPOUND_ID_TYPE>
0

> <PUBCHEM_TOTAL_CHARGE>
0

> <PUBCHEM_SUBSTANCE_ID>
310943654

> <PUBCHEM_SUBSTANCE_VERSION>
1

> <PUBCHEM_EXT_DATASOURCE_NAME>
4488

> <PUBCHEM_EXT_DATASOURCE_REGID>
SCHEMBL16121722

> <PUBCHEM_SUBSTANCE_COMMENT>
InChI=1S/C23H21F3N4O3/c1-14-19(16-10-20(22(32)28-12-16)30-5-7-33-8-6-30)11-18(13-27-14)29-21(31)15-3-2-4-17(9-15)23(24,25)26/h2-4,9-13H,5-8H2,1H3,(H,28,32)(H,29,31)
InChIKey=CHNRFCDALGFXRN-UHFFFAOYSA-N

> <PUBCHEM_SUBSTANCE_SYNONYM>
SCHEMBL16121722

> <PUBCHEM_XREF_EXT_ID>
SCHEMBL16121722

> <PUBCHEM_EXT_DATASOURCE_URL>
https://www.surechembl.org/

> <PUBCHEM_EXT_SUBSTANCE_URL>
https://www.surechembl.org/chemical/SCHEMBL16121722

> <PUBCHEM_CID_ASSOCIATIONS>
117610044  1

> <PUBCHEM_COORDINATE_TYPE>
1
3

$$$$
