310940356
  -OEChem-07211613022D

 19 20  0     0  0  0  0  0  0999 V2000
    2.8463    0.0062    0.0000 Cl  0  0  0  0  0  0  0  0  0  0  0  0
   -1.4509   -1.6485    0.0000 O   0  0  0  0  0  0  0  0  0  0  0  0
   -0.0062   -1.6361    0.0000 N   0  0  0  0  0  0  0  0  0  0  0  0
    1.4262   -1.6361    0.0000 N   0  0  0  0  0  0  0  0  0  0  0  0
   -0.7224   -0.3890    0.0000 C   0  0  0  0  0  0  0  0  0  0  0  0
   -0.7224   -1.2163    0.0000 C   0  0  0  0  0  0  0  0  0  0  0  0
   -1.4386    0.0062    0.0000 C   0  0  0  0  0  0  0  0  0  0  0  0
    0.6976   -1.2287    0.0000 C   0  0  0  0  0  0  0  0  0  0  0  0
   -0.0062    0.0062    0.0000 C   0  0  0  0  0  0  0  0  0  0  0  0
   -0.0062    0.8335    0.0000 C   0  0  0  0  0  0  0  0  0  0  0  0
   -1.4262    0.8212    0.0000 C   0  0  0  0  0  0  0  0  0  0  0  0
    0.7100   -0.4013    0.0000 C   0  0  0  0  0  0  0  0  0  0  0  0
   -0.7347    1.2287    0.0000 C   0  0  0  0  0  0  0  0  0  0  0  0
    2.1301   -0.4013    0.0000 C   0  0  0  0  0  0  0  0  0  0  0  0
   -2.1424   -0.3890    0.0000 C   0  0  0  0  0  0  0  0  0  0  0  0
    2.1301   -1.2287    0.0000 C   0  0  0  0  0  0  0  0  0  0  0  0
    1.4139    0.0062    0.0000 C   0  0  0  0  0  0  0  0  0  0  0  0
    1.4139    1.6485    0.0000 C   0  0  0  0  0  0  0  0  0  0  0  0
   -2.8463   -0.8212    0.0000 C   0  0  0  0  0  0  0  0  0  0  0  0
  1 14  1  0  0  0  0
  2  6  2  0  0  0  0
  3  6  1  0  0  0  0
  3  8  1  0  0  0  0
  4  8  2  0  0  0  0
  4 16  1  0  0  0  0
  5  6  1  0  0  0  0
  5  7  1  0  0  0  0
  5  9  2  0  0  0  0
  7 11  2  0  0  0  0
  7 15  1  0  0  0  0
  8 12  1  0  0  0  0
  9 10  1  0  0  0  0
 10 13  2  0  0  0  0
 10 18  1  0  0  0  0
 11 13  1  0  0  0  0
 12 17  2  0  0  0  0
 14 16  2  0  0  0  0
 14 17  1  0  0  0  0
 15 19  1  0  0  0  0
M  END
> <PUBCHEM_COMPOUND_ID_TYPE>
0

> <PUBCHEM_TOTAL_CHARGE>
0

> <PUBCHEM_SUBSTANCE_ID>
310940356

> <PUBCHEM_SUBSTANCE_VERSION>
1

> <PUBCHEM_EXT_DATASOURCE_NAME>
4488

> <PUBCHEM_EXT_DATASOURCE_REGID>
SCHEMBL16118300

> <PUBCHEM_SUBSTANCE_COMMENT>
InChI=1S/C15H15ClN2O/c1-3-11-5-4-10(2)8-13(11)15(19)18-14-7-6-12(16)9-17-14/h4-9H,3H2,1-2H3,(H,17,18,19)
InChIKey=WGDKZAQINAPABW-UHFFFAOYSA-N

> <PUBCHEM_SUBSTANCE_SYNONYM>
SCHEMBL16118300

> <PUBCHEM_XREF_EXT_ID>
SCHEMBL16118300

> <PUBCHEM_EXT_DATASOURCE_URL>
https://www.surechembl.org/

> <PUBCHEM_EXT_SUBSTANCE_URL>
https://www.surechembl.org/chemical/SCHEMBL16118300

> <PUBCHEM_CID_ASSOCIATIONS>
117607399  1

> <PUBCHEM_COORDINATE_TYPE>
1
3

$$$$
