310936407
  -OEChem-07211613022D

 12 12  0     0  0  0  0  0  0999 V2000
    0.0000   -1.6556    0.0000 I   0  0  0  0  0  0  0  0  0  0  0  0
    0.0000    0.0000    0.0000 O   0  0  0  0  0  0  0  0  0  0  0  0
    3.5681   -1.2274    0.0000 O   0  0  0  0  0  0  0  0  0  0  0  0
    4.2818    0.0000    0.0000 O   0  0  0  0  0  0  0  0  0  0  0  0
    2.1409   -0.4139    0.0000 C   0  0  0  0  0  0  0  0  0  0  0  0
    0.7136   -0.4139    0.0000 C   0  0  0  0  0  0  0  0  0  0  0  0
    0.7136   -1.2417    0.0000 C   0  0  0  0  0  0  0  0  0  0  0  0
    1.4272    0.0000    0.0000 C   0  0  0  0  0  0  0  0  0  0  0  0
    2.1409   -1.2417    0.0000 C   0  0  0  0  0  0  0  0  0  0  0  0
    1.4272   -1.6556    0.0000 C   0  0  0  0  0  0  0  0  0  0  0  0
    2.8545    0.0000    0.0000 C   0  0  0  0  0  0  0  0  0  0  0  0
    3.5681   -0.4139    0.0000 C   0  0  0  0  0  0  0  0  0  0  0  0
  1  7  1  0  0  0  0
  2  6  1  0  0  0  0
  3 12  2  0  0  0  0
  4 12  1  0  0  0  0
  5  8  1  0  0  0  0
  5  9  2  0  0  0  0
  5 11  1  0  0  0  0
  6  7  1  0  0  0  0
  6  8  2  0  0  0  0
  7 10  2  0  0  0  0
  9 10  1  0  0  0  0
 11 12  1  0  0  0  0
M  END
> <PUBCHEM_COMPOUND_ID_TYPE>
0

> <PUBCHEM_TOTAL_CHARGE>
0

> <PUBCHEM_SUBSTANCE_ID>
310936407

> <PUBCHEM_SUBSTANCE_VERSION>
1

> <PUBCHEM_EXT_DATASOURCE_NAME>
4488

> <PUBCHEM_EXT_DATASOURCE_REGID>
SCHEMBL16114045

> <PUBCHEM_SUBSTANCE_COMMENT>
InChI=1S/C8H7IO3/c9-6-2-1-5(3-7(6)10)4-8(11)12/h1-3,10H,4H2,(H,11,12)
InChIKey=IGGYOJCQQAACSI-UHFFFAOYSA-N

> <PUBCHEM_SUBSTANCE_SYNONYM>
SCHEMBL16114045

> <PUBCHEM_XREF_EXT_ID>
SCHEMBL16114045

> <PUBCHEM_EXT_DATASOURCE_URL>
https://www.surechembl.org/

> <PUBCHEM_EXT_SUBSTANCE_URL>
https://www.surechembl.org/chemical/SCHEMBL16114045

> <PUBCHEM_CID_ASSOCIATIONS>
117604344  1

> <PUBCHEM_COORDINATE_TYPE>
1
3

$$$$
