310931591
  -OEChem-07211613022D

 20 22  0     0  0  0  0  0  0999 V2000
    0.7199   -5.7587    0.0000 Cl  0  0  0  0  0  0  0  0  0  0  0  0
    2.1307    0.0000    0.0000 O   0  0  0  0  0  0  0  0  0  0  0  0
    2.8506   -2.0444    0.0000 O   0  0  0  0  0  0  0  0  0  0  0  0
    1.4397   -1.2381    0.0000 C   0  0  0  0  0  0  0  0  0  0  0  0
    2.1307   -0.8350    0.0000 C   0  0  0  0  0  0  0  0  0  0  0  0
    2.8506   -1.2381    0.0000 C   0  0  0  0  0  0  0  0  0  0  0  0
    3.5704   -0.8350    0.0000 C   0  0  0  0  0  0  0  0  0  0  0  0
    0.7199   -2.4763    0.0000 C   0  0  0  0  0  0  0  0  0  0  0  0
    0.7199   -3.2825    0.0000 C   0  0  0  0  0  0  0  0  0  0  0  0
    1.4397   -2.0444    0.0000 C   0  0  0  0  0  0  0  0  0  0  0  0
    3.9735   -0.1152    0.0000 C   0  0  0  0  0  0  0  0  0  0  0  0
    4.4055   -0.8062    0.0000 C   0  0  0  0  0  0  0  0  0  0  0  0
    0.7199   -0.8350    0.0000 C   0  0  0  0  0  0  0  0  0  0  0  0
    0.0000   -2.0444    0.0000 C   0  0  0  0  0  0  0  0  0  0  0  0
    0.0000   -1.2381    0.0000 C   0  0  0  0  0  0  0  0  0  0  0  0
    1.4397   -3.7144    0.0000 C   0  0  0  0  0  0  0  0  0  0  0  0
    0.0000   -3.7144    0.0000 C   0  0  0  0  0  0  0  0  0  0  0  0
    0.7199   -4.9238    0.0000 C   0  0  0  0  0  0  0  0  0  0  0  0
    1.4397   -4.5206    0.0000 C   0  0  0  0  0  0  0  0  0  0  0  0
    0.0000   -4.5206    0.0000 C   0  0  0  0  0  0  0  0  0  0  0  0
  1 18  1  0  0  0  0
  2  5  2  0  0  0  0
  3  6  2  0  0  0  0
  4  5  1  0  0  0  0
  4 10  2  0  0  0  0
  4 13  1  0  0  0  0
  5  6  1  0  0  0  0
  6  7  1  0  0  0  0
  7 11  1  0  0  0  0
  7 12  1  0  0  0  0
  8  9  1  0  0  0  0
  8 10  1  0  0  0  0
  8 14  2  0  0  0  0
  9 16  2  0  0  0  0
  9 17  1  0  0  0  0
 11 12  1  0  0  0  0
 13 15  2  0  0  0  0
 14 15  1  0  0  0  0
 16 19  1  0  0  0  0
 17 20  2  0  0  0  0
 18 19  2  0  0  0  0
 18 20  1  0  0  0  0
M  END
> <PUBCHEM_COMPOUND_ID_TYPE>
0

> <PUBCHEM_TOTAL_CHARGE>
0

> <PUBCHEM_SUBSTANCE_ID>
310931591

> <PUBCHEM_SUBSTANCE_VERSION>
1

> <PUBCHEM_EXT_DATASOURCE_NAME>
4488

> <PUBCHEM_EXT_DATASOURCE_REGID>
SCHEMBL16108917

> <PUBCHEM_SUBSTANCE_COMMENT>
InChI=1S/C17H13ClO2/c18-15-8-6-11(7-9-15)13-2-1-3-14(10-13)17(20)16(19)12-4-5-12/h1-3,6-10,12H,4-5H2
InChIKey=QQTWFAHEQCRONA-UHFFFAOYSA-N

> <PUBCHEM_SUBSTANCE_SYNONYM>
SCHEMBL16108917

> <PUBCHEM_XREF_EXT_ID>
SCHEMBL16108917

> <PUBCHEM_EXT_DATASOURCE_URL>
https://www.surechembl.org/

> <PUBCHEM_EXT_SUBSTANCE_URL>
https://www.surechembl.org/chemical/SCHEMBL16108917

> <PUBCHEM_CID_ASSOCIATIONS>
117600325  1

> <PUBCHEM_COORDINATE_TYPE>
1
3

$$$$
