310945479
  -OEChem-07211613022D

 30 32  0     0  0  0  0  0  0999 V2000
   -1.7357    1.2717    0.0000 Cl  0  0  0  0  0  0  0  0  0  0  0  0
    0.2922    1.4951    0.0000 F   0  0  0  0  0  0  0  0  0  0  0  0
    1.1342    2.3028    0.0000 F   0  0  0  0  0  0  0  0  0  0  0  0
    1.9591    1.4779    0.0000 F   0  0  0  0  0  0  0  0  0  0  0  0
   -4.0901   -1.1857    0.0000 F   0  0  0  0  0  0  0  0  0  0  0  0
   -2.6637   -1.9935    0.0000 F   0  0  0  0  0  0  0  0  0  0  0  0
   -3.7979   -2.3028    0.0000 F   0  0  0  0  0  0  0  0  0  0  0  0
    2.4575    0.2406    0.0000 F   0  0  0  0  0  0  0  0  0  0  0  0
    3.2652    1.0826    0.0000 F   0  0  0  0  0  0  0  0  0  0  0  0
    4.0901    0.2406    0.0000 F   0  0  0  0  0  0  0  0  0  0  0  0
    2.5434   -0.9796    0.0000 O   0  0  0  0  0  0  0  0  0  0  0  0
   -0.4124    0.4984    0.0000 N   0  0  0  0  0  0  0  0  0  0  0  0
   -0.4124   -0.8249    0.0000 N   0  0  0  0  0  0  0  0  0  0  0  0
    1.1171   -0.9796    0.0000 N   0  0  0  0  0  0  0  0  0  0  0  0
    1.8388    0.2578    0.0000 N   0  0  0  0  0  0  0  0  0  0  0  0
    0.3953    0.2234    0.0000 C   0  0  0  0  0  0  0  0  0  0  0  0
    0.3781   -0.6014    0.0000 C   0  0  0  0  0  0  0  0  0  0  0  0
    1.0998    0.6359    0.0000 C   0  0  0  0  0  0  0  0  0  0  0  0
   -0.8936   -0.1890    0.0000 C   0  0  0  0  0  0  0  0  0  0  0  0
   -1.7357   -0.1718    0.0000 C   0  0  0  0  0  0  0  0  0  0  0  0
    1.1171    1.4608    0.0000 C   0  0  0  0  0  0  0  0  0  0  0  0
    1.8388   -0.6014    0.0000 C   0  0  0  0  0  0  0  0  0  0  0  0
   -2.1481    0.4984    0.0000 C   0  0  0  0  0  0  0  0  0  0  0  0
   -2.1481   -0.8936    0.0000 C   0  0  0  0  0  0  0  0  0  0  0  0
   -2.9730   -0.8936    0.0000 C   0  0  0  0  0  0  0  0  0  0  0  0
   -3.3855   -1.6154    0.0000 C   0  0  0  0  0  0  0  0  0  0  0  0
   -2.9730    0.4984    0.0000 C   0  0  0  0  0  0  0  0  0  0  0  0
   -3.3683   -0.1890    0.0000 C   0  0  0  0  0  0  0  0  0  0  0  0
    3.2480   -0.6187    0.0000 C   0  0  0  0  0  0  0  0  0  0  0  0
    3.2652    0.2062    0.0000 C   0  0  0  0  0  0  0  0  0  0  0  0
  1 23  1  0  0  0  0
  2 21  1  0  0  0  0
  3 21  1  0  0  0  0
  4 21  1  0  0  0  0
  5 26  1  0  0  0  0
  6 26  1  0  0  0  0
  7 26  1  0  0  0  0
  8 30  1  0  0  0  0
  9 30  1  0  0  0  0
 10 30  1  0  0  0  0
 11 22  1  0  0  0  0
 11 29  1  0  0  0  0
 12 16  1  0  0  0  0
 12 19  2  0  0  0  0
 13 17  1  0  0  0  0
 13 19  1  0  0  0  0
 14 17  1  0  0  0  0
 14 22  2  0  0  0  0
 15 18  2  0  0  0  0
 15 22  1  0  0  0  0
 16 17  2  0  0  0  0
 16 18  1  0  0  0  0
 18 21  1  0  0  0  0
 19 20  1  0  0  0  0
 20 23  2  0  0  0  0
 20 24  1  0  0  0  0
 23 27  1  0  0  0  0
 24 25  2  0  0  0  0
 25 26  1  0  0  0  0
 25 28  1  0  0  0  0
 27 28  2  0  0  0  0
 29 30  1  0  0  0  0
M  END
> <PUBCHEM_COMPOUND_ID_TYPE>
0

> <PUBCHEM_TOTAL_CHARGE>
0

> <PUBCHEM_SUBSTANCE_ID>
310945479

> <PUBCHEM_SUBSTANCE_VERSION>
1

> <PUBCHEM_EXT_DATASOURCE_NAME>
4488

> <PUBCHEM_EXT_DATASOURCE_REGID>
SCHEMBL16123577

> <PUBCHEM_SUBSTANCE_COMMENT>
InChI=1S/C15H6ClF9N4O/c16-7-2-1-5(14(20,21)22)3-6(7)10-26-8-9(15(23,24)25)27-12(29-11(8)28-10)30-4-13(17,18)19/h1-3H,4H2,(H,26,27,28,29)
InChIKey=PMQVOZZFDXHHGI-UHFFFAOYSA-N

> <PUBCHEM_SUBSTANCE_SYNONYM>
SCHEMBL16123577

> <PUBCHEM_XREF_EXT_ID>
SCHEMBL16123577

> <PUBCHEM_EXT_DATASOURCE_URL>
https://www.surechembl.org/

> <PUBCHEM_EXT_SUBSTANCE_URL>
https://www.surechembl.org/chemical/SCHEMBL16123577

> <PUBCHEM_CID_ASSOCIATIONS>
78319097  1

> <PUBCHEM_COORDINATE_TYPE>
1
3

$$$$
