310935895
  -OEChem-07211613022D

 48 50  0     1  0  0  0  0  0999 V2000
   -9.2881    0.4125    0.0000 Cl  0  0  0  0  0  0  0  0  0  0  0  0
   -5.0013    1.2375    0.0000 P   0  0  3  0  0  0  0  0  0  0  0  0
   -4.2868    0.0000    0.0000 P   0  0  3  0  0  0  0  0  0  0  0  0
   -5.0484    3.7849    0.0000 O   0  0  0  0  0  0  0  0  0  0  0  0
   -6.6132    5.2370    0.0000 O   0  0  0  0  0  0  0  0  0  0  0  0
   -5.0013    2.0625    0.0000 O   0  0  0  0  0  0  0  0  0  0  0  0
   -7.1678    3.5300    0.0000 O   0  0  0  0  0  0  0  0  0  0  0  0
   -4.2868    0.8250    0.0000 O   0  0  0  0  0  0  0  0  0  0  0  0
   -2.6765    6.9777    0.0000 O   0  0  0  0  0  0  0  0  0  0  0  0
   -5.0013    0.4125    0.0000 O   0  0  0  0  0  0  0  0  0  0  0  0
   -5.7158    0.8250    0.0000 O   0  0  0  0  0  0  0  0  0  0  0  0
   -4.2868    1.6500    0.0000 O   0  0  0  0  0  0  0  0  0  0  0  0
   -4.2868   -0.8250    0.0000 O   0  0  0  0  0  0  0  0  0  0  0  0
   -1.4290    0.0000    0.0000 O   0  0  0  0  0  0  0  0  0  0  0  0
   -2.1434    1.2375    0.0000 O   0  0  0  0  0  0  0  0  0  0  0  0
   -7.8592    1.2375    0.0000 O   0  0  0  0  0  0  0  0  0  0  0  0
   -4.8184    5.2370    0.0000 N   0  0  0  0  0  0  0  0  0  0  0  0
   -4.4059    6.5065    0.0000 N   0  0  0  0  0  0  0  0  0  0  0  0
   -3.4413    4.6239    0.0000 N   0  0  0  0  0  0  0  0  0  0  0  0
   -2.3794    5.5801    0.0000 N   0  0  0  0  0  0  0  0  0  0  0  0
   -2.0823    4.1823    0.0000 N   0  0  0  0  0  0  0  0  0  0  0  0
   -3.5724    0.4125    0.0000 N   0  0  0  0  0  0  0  0  0  0  0  0
   -7.1447    0.0000    0.0000 N   0  0  0  0  0  0  0  0  0  0  0  0
   -5.3033    4.5696    0.0000 C   0  0  3  0  0  0  0  0  0  0  0  0
   -3.9934    5.2370    0.0000 C   0  0  0  0  0  0  0  0  0  0  0  0
   -3.7384    6.0216    0.0000 C   0  0  0  0  0  0  0  0  0  0  0  0
   -6.1283    4.5696    0.0000 C   0  0  3  0  0  0  0  0  0  0  0  0
   -6.3832    3.7849    0.0000 C   0  0  3  0  0  0  0  0  0  0  0  0
   -5.7158    3.3000    0.0000 C   0  0  3  0  0  0  0  0  0  0  0  0
   -5.0733    6.0216    0.0000 C   0  0  0  0  0  0  0  0  0  0  0  0
   -2.9315    6.1932    0.0000 C   0  0  0  0  0  0  0  0  0  0  0  0
   -2.6343    4.7954    0.0000 C   0  0  0  0  0  0  0  0  0  0  0  0
   -5.7158    2.4750    0.0000 C   0  0  0  0  0  0  0  0  0  0  0  0
   -2.8579    0.0000    0.0000 C   0  0  3  0  0  0  0  0  0  0  0  0
   -2.1434    0.4125    0.0000 C   0  0  0  0  0  0  0  0  0  0  0  0
   -5.7158    0.0000    0.0000 C   0  0  0  0  0  0  0  0  0  0  0  0
   -2.8579   -0.8250    0.0000 C   0  0  0  0  0  0  0  0  0  0  0  0
   -6.4302    0.4125    0.0000 C   0  0  0  0  0  0  0  0  0  0  0  0
   -0.7145    0.4125    0.0000 C   0  0  0  0  0  0  0  0  0  0  0  0
    0.0000    0.0000    0.0000 C   0  0  0  0  0  0  0  0  0  0  0  0
   -7.8592    0.4125    0.0000 C   0  0  0  0  0  0  0  0  0  0  0  0
    0.7145    0.4125    0.0000 C   0  0  0  0  0  0  0  0  0  0  0  0
    0.0000   -0.8250    0.0000 C   0  0  0  0  0  0  0  0  0  0  0  0
   -8.5736    0.0000    0.0000 C   0  0  0  0  0  0  0  0  0  0  0  0
    1.4290    0.0000    0.0000 C   0  0  0  0  0  0  0  0  0  0  0  0
    0.7145   -1.2375    0.0000 C   0  0  0  0  0  0  0  0  0  0  0  0
    2.1434    0.4125    0.0000 C   0  0  0  0  0  0  0  0  0  0  0  0
    0.7145   -2.0625    0.0000 C   0  0  0  0  0  0  0  0  0  0  0  0
  1 44  1  0  0  0  0
  2  6  1  0  0  0  0
  2  8  1  0  0  0  0
  2 11  2  0  0  0  0
  2 12  1  0  0  0  0
  3  8  1  0  0  0  0
  3 10  1  0  0  0  0
  3 13  2  0  0  0  0
  3 22  1  0  0  0  0
 24  4  1  6  0  0  0
  4 29  1  0  0  0  0
 27  5  1  1  0  0  0
  6 33  1  0  0  0  0
 28  7  1  1  0  0  0
  9 31  2  0  0  0  0
 10 36  1  0  0  0  0
 14 35  1  0  0  0  0
 14 39  1  0  0  0  0
 15 35  2  0  0  0  0
 16 41  2  0  0  0  0
 17 24  1  0  0  0  0
 17 25  1  0  0  0  0
 17 30  1  0  0  0  0
 18 26  1  0  0  0  0
 18 30  2  0  0  0  0
 19 25  1  0  0  0  0
 19 32  2  0  0  0  0
 20 31  1  0  0  0  0
 20 32  1  0  0  0  0
 21 32  1  0  0  0  0
 22 34  1  0  0  0  0
 23 38  1  0  0  0  0
 23 41  1  0  0  0  0
 24 27  1  0  0  0  0
 25 26  2  0  0  0  0
 26 31  1  0  0  0  0
 27 28  1  0  0  0  0
 28 29  1  0  0  0  0
 29 33  1  0  0  0  0
 34 35  1  0  0  0  0
 34 37  1  6  0  0  0
 36 38  1  0  0  0  0
 39 40  1  0  0  0  0
 40 42  1  0  0  0  0
 40 43  1  0  0  0  0
 41 44  1  0  0  0  0
 42 45  1  0  0  0  0
 43 46  1  0  0  0  0
 45 47  1  0  0  0  0
 46 48  1  0  0  0  0
M  END
> <PUBCHEM_COMPOUND_ID_TYPE>
0

> <PUBCHEM_TOTAL_CHARGE>
0

> <PUBCHEM_SUBSTANCE_ID>
310935895

> <PUBCHEM_SUBSTANCE_VERSION>
1

> <PUBCHEM_EXT_DATASOURCE_NAME>
4488

> <PUBCHEM_EXT_DATASOURCE_REGID>
SCHEMBL16113490

> <PUBCHEM_SUBSTANCE_COMMENT>
InChI=1S/C25H42ClN7O13P2/c1-4-6-15(7-5-2)11-42-24(38)14(3)32-47(39,43-9-8-28-17(34)10-26)46-48(40,41)44-12-16-19(35)20(36)23(45-16)33-13-29-18-21(33)30-25(27)31-22(18)37/h13-16,19-20,23,35-36H,4-12H2,1-3H3,(H,28,34)(H,32,39)(H,40,41)(H3,27,30,31,37)/t14-,16?,19+,20+,23+,47?/m0/s1
InChIKey=LNAHOHGGBNNBAI-ISFVXUSCSA-N

> <PUBCHEM_SUBSTANCE_SYNONYM>
SCHEMBL16113490

> <PUBCHEM_XREF_EXT_ID>
SCHEMBL16113490

> <PUBCHEM_EXT_DATASOURCE_URL>
https://www.surechembl.org/

> <PUBCHEM_EXT_SUBSTANCE_URL>
https://www.surechembl.org/chemical/SCHEMBL16113490

> <PUBCHEM_CID_ASSOCIATIONS>
117603882  1

> <PUBCHEM_COORDINATE_TYPE>
1
3

> <PUBCHEM_BONDANNOTATIONS>
34  37  6
24  4  6
27  5  5
28  7  5

$$$$
