310938595
  -OEChem-07211613022D

 35 39  0     0  0  0  0  0  0999 V2000
    3.3565   -2.6260    0.0000 F   0  0  0  0  0  0  0  0  0  0  0  0
    2.1190   -3.3405    0.0000 F   0  0  0  0  0  0  0  0  0  0  0  0
    2.9440   -3.3405    0.0000 F   0  0  0  0  0  0  0  0  0  0  0  0
   -1.2131    0.8655    0.0000 O   0  0  0  0  0  0  0  0  0  0  0  0
    0.9303    2.1030    0.0000 O   0  0  0  0  0  0  0  0  0  0  0  0
   -1.2131   -0.7845    0.0000 N   0  0  0  0  0  0  0  0  0  0  0  0
   -0.4284   -0.5296    0.0000 N   0  0  0  0  0  0  0  0  0  0  0  0
   -1.9275   -2.0220    0.0000 N   0  0  0  0  0  0  0  0  0  0  0  0
   -2.6420    0.8655    0.0000 N   0  0  0  0  0  0  0  0  0  0  0  0
   -1.9275    2.1030    0.0000 N   0  0  0  0  0  0  0  0  0  0  0  0
   -0.4986    2.9280    0.0000 N   0  0  0  0  0  0  0  0  0  0  0  0
   -1.2131   -1.6095    0.0000 C   0  0  0  0  0  0  0  0  0  0  0  0
    0.0565   -1.1970    0.0000 C   0  0  0  0  0  0  0  0  0  0  0  0
   -1.9275   -0.3720    0.0000 C   0  0  0  0  0  0  0  0  0  0  0  0
   -0.4284   -1.8645    0.0000 C   0  0  0  0  0  0  0  0  0  0  0  0
    0.8815   -1.1970    0.0000 C   0  0  0  0  0  0  0  0  0  0  0  0
   -1.9275    0.4530    0.0000 C   0  0  0  0  0  0  0  0  0  0  0  0
   -2.6420   -0.7845    0.0000 C   0  0  0  0  0  0  0  0  0  0  0  0
    1.2940   -1.9115    0.0000 C   0  0  0  0  0  0  0  0  0  0  0  0
    2.1190   -1.9115    0.0000 C   0  0  0  0  0  0  0  0  0  0  0  0
   -2.6420   -1.6095    0.0000 C   0  0  0  0  0  0  0  0  0  0  0  0
    1.2940   -0.4826    0.0000 C   0  0  0  0  0  0  0  0  0  0  0  0
    2.5315   -2.6260    0.0000 C   0  0  0  0  0  0  0  0  0  0  0  0
   -2.6420    1.6905    0.0000 C   0  0  0  0  0  0  0  0  0  0  0  0
    2.5315   -1.1970    0.0000 C   0  0  0  0  0  0  0  0  0  0  0  0
    2.1190   -0.4826    0.0000 C   0  0  0  0  0  0  0  0  0  0  0  0
   -1.9275    2.9280    0.0000 C   0  0  0  0  0  0  0  0  0  0  0  0
   -3.3565    2.1030    0.0000 C   0  0  0  0  0  0  0  0  0  0  0  0
   -2.6420    3.3405    0.0000 C   0  0  0  0  0  0  0  0  0  0  0  0
   -3.3565    2.9280    0.0000 C   0  0  0  0  0  0  0  0  0  0  0  0
   -1.2131    3.3405    0.0000 C   0  0  0  0  0  0  0  0  0  0  0  0
    0.2159    3.3405    0.0000 C   0  0  0  0  0  0  0  0  0  0  0  0
   -0.4986    2.1030    0.0000 C   0  0  0  0  0  0  0  0  0  0  0  0
    0.2159    1.6905    0.0000 C   0  0  0  0  0  0  0  0  0  0  0  0
    0.9303    2.9280    0.0000 C   0  0  0  0  0  0  0  0  0  0  0  0
  1 23  1  0  0  0  0
  2 23  1  0  0  0  0
  3 23  1  0  0  0  0
  4 17  2  0  0  0  0
  5 34  1  0  0  0  0
  5 35  1  0  0  0  0
  6  7  1  0  0  0  0
  6 12  1  0  0  0  0
  6 14  1  0  0  0  0
  7 13  2  0  0  0  0
  8 12  1  0  0  0  0
  8 21  2  0  0  0  0
  9 17  1  0  0  0  0
  9 24  1  0  0  0  0
 10 24  1  0  0  0  0
 10 27  2  0  0  0  0
 11 31  1  0  0  0  0
 11 32  1  0  0  0  0
 11 33  1  0  0  0  0
 12 15  2  0  0  0  0
 13 15  1  0  0  0  0
 13 16  1  0  0  0  0
 14 17  1  0  0  0  0
 14 18  2  0  0  0  0
 16 19  1  0  0  0  0
 16 22  2  0  0  0  0
 18 21  1  0  0  0  0
 19 20  2  0  0  0  0
 20 23  1  0  0  0  0
 20 25  1  0  0  0  0
 22 26  1  0  0  0  0
 24 28  2  0  0  0  0
 25 26  2  0  0  0  0
 27 29  1  0  0  0  0
 27 31  1  0  0  0  0
 28 30  1  0  0  0  0
 29 30  2  0  0  0  0
 32 35  1  0  0  0  0
 33 34  1  0  0  0  0
M  END
> <PUBCHEM_COMPOUND_ID_TYPE>
0

> <PUBCHEM_TOTAL_CHARGE>
0

> <PUBCHEM_SUBSTANCE_ID>
310938595

> <PUBCHEM_SUBSTANCE_VERSION>
1

> <PUBCHEM_EXT_DATASOURCE_NAME>
4488

> <PUBCHEM_EXT_DATASOURCE_REGID>
SCHEMBL16116509

> <PUBCHEM_SUBSTANCE_COMMENT>
InChI=1S/C24H21F3N6O2/c25-24(26,27)17-4-1-3-16(13-17)19-14-22-28-8-7-20(33(22)31-19)23(34)30-21-6-2-5-18(29-21)15-32-9-11-35-12-10-32/h1-8,13-14H,9-12,15H2,(H,29,30,34)
InChIKey=CZJBHRSKDPJIIJ-UHFFFAOYSA-N

> <PUBCHEM_SUBSTANCE_SYNONYM>
SCHEMBL16116509

> <PUBCHEM_XREF_EXT_ID>
SCHEMBL16116509

> <PUBCHEM_EXT_DATASOURCE_URL>
https://www.surechembl.org/

> <PUBCHEM_EXT_SUBSTANCE_URL>
https://www.surechembl.org/chemical/SCHEMBL16116509

> <PUBCHEM_CID_ASSOCIATIONS>
117606028  1

> <PUBCHEM_COORDINATE_TYPE>
1
3

$$$$
