310942391
  -OEChem-07211613022D

 23 25  0     0  0  0  0  0  0999 V2000
   -2.1652   -0.8205    0.0000 O   0  0  0  0  0  0  0  0  0  0  0  0
   -0.1517    1.6894    0.0000 O   0  0  0  0  0  0  0  0  0  0  0  0
   -1.4481   -2.0618    0.0000 O   0  0  0  0  0  0  0  0  0  0  0  0
    2.8272    1.4550    0.0000 O   0  0  0  0  0  0  0  0  0  0  0  0
    0.5378   -0.4068    0.0000 N   0  0  0  0  0  0  0  0  0  0  0  0
    1.3515   -0.5310    0.0000 N   0  0  0  0  0  0  0  0  0  0  0  0
    0.0689    0.2827    0.0000 C   0  0  0  0  0  0  0  0  0  0  0  0
   -0.7585   -0.7654    0.0000 C   0  0  0  0  0  0  0  0  0  0  0  0
    0.0276   -1.0688    0.0000 C   0  0  0  0  0  0  0  0  0  0  0  0
   -0.7034    0.0621    0.0000 C   0  0  0  0  0  0  0  0  0  0  0  0
    0.3862    1.0550    0.0000 C   0  0  0  0  0  0  0  0  0  0  0  0
   -1.4481   -1.1929    0.0000 C   0  0  0  0  0  0  0  0  0  0  0  0
    0.3310   -1.8412    0.0000 C   0  0  0  0  0  0  0  0  0  0  0  0
    1.1723    1.1929    0.0000 C   0  0  0  0  0  0  0  0  0  0  0  0
   -1.3929    0.5861    0.0000 C   0  0  0  0  0  0  0  0  0  0  0  0
    1.6550   -1.3171    0.0000 C   0  0  0  0  0  0  0  0  0  0  0  0
    1.1447   -1.9653    0.0000 C   0  0  0  0  0  0  0  0  0  0  0  0
    1.4894    1.9653    0.0000 C   0  0  0  0  0  0  0  0  0  0  0  0
    1.7239    0.5448    0.0000 C   0  0  0  0  0  0  0  0  0  0  0  0
    2.3031    2.0894    0.0000 C   0  0  0  0  0  0  0  0  0  0  0  0
    2.5238    0.6827    0.0000 C   0  0  0  0  0  0  0  0  0  0  0  0
   -2.8272   -1.2757    0.0000 C   0  0  0  0  0  0  0  0  0  0  0  0
   -2.7582   -2.0894    0.0000 C   0  0  0  0  0  0  0  0  0  0  0  0
  1 12  1  0  0  0  0
  1 22  1  0  0  0  0
  2 11  2  0  0  0  0
  3 12  2  0  0  0  0
  4 20  1  0  0  0  0
  4 21  1  0  0  0  0
  5  6  1  0  0  0  0
  5  7  1  0  0  0  0
  5  9  1  0  0  0  0
  6 16  2  0  0  0  0
  7 10  2  0  0  0  0
  7 11  1  0  0  0  0
  8  9  2  0  0  0  0
  8 10  1  0  0  0  0
  8 12  1  0  0  0  0
  9 13  1  0  0  0  0
 10 15  1  0  0  0  0
 11 14  1  0  0  0  0
 13 17  2  0  0  0  0
 14 18  1  0  0  0  0
 14 19  1  0  0  0  0
 16 17  1  0  0  0  0
 18 20  1  0  0  0  0
 19 21  1  0  0  0  0
 22 23  1  0  0  0  0
M  END
> <PUBCHEM_COMPOUND_ID_TYPE>
0

> <PUBCHEM_TOTAL_CHARGE>
0

> <PUBCHEM_SUBSTANCE_ID>
310942391

> <PUBCHEM_SUBSTANCE_VERSION>
1

> <PUBCHEM_EXT_DATASOURCE_NAME>
4488

> <PUBCHEM_EXT_DATASOURCE_REGID>
SCHEMBL16120427

> <PUBCHEM_SUBSTANCE_COMMENT>
InChI=1S/C17H20N2O4/c1-3-23-17(21)14-11(2)15(19-13(14)5-4-8-18-19)16(20)12-6-9-22-10-7-12/h4-5,8,12H,3,6-7,9-10H2,1-2H3
InChIKey=LLWSBRUCEMJMMP-UHFFFAOYSA-N

> <PUBCHEM_SUBSTANCE_SYNONYM>
SCHEMBL16120427

> <PUBCHEM_XREF_EXT_ID>
SCHEMBL16120427

> <PUBCHEM_EXT_DATASOURCE_URL>
https://www.surechembl.org/

> <PUBCHEM_EXT_SUBSTANCE_URL>
https://www.surechembl.org/chemical/SCHEMBL16120427

> <PUBCHEM_CID_ASSOCIATIONS>
117608999  1

> <PUBCHEM_COORDINATE_TYPE>
1
3

$$$$
