310938462
  -OEChem-07211613022D

 19 20  0     0  0  0  0  0  0999 V2000
    4.5940   -1.4857    0.0000 O   0  0  0  0  0  0  0  0  0  0  0  0
    4.5940   -2.9128    0.0000 O   0  0  0  0  0  0  0  0  0  0  0  0
    1.5053   -3.9098    0.0000 O   0  0  0  0  0  0  0  0  0  0  0  0
    2.8737   -2.8737    0.0000 N   0  0  0  0  0  0  0  0  0  0  0  0
    0.0978   -0.3519    0.0000 N   0  0  0  0  0  0  0  0  0  0  0  0
    2.0918   -1.7985    0.0000 C   0  0  0  0  0  0  0  0  0  0  0  0
    2.0918   -2.6000    0.0000 C   0  0  0  0  0  0  0  0  0  0  0  0
    3.3624   -2.1895    0.0000 C   0  0  0  0  0  0  0  0  0  0  0  0
    2.8737   -1.5249    0.0000 C   0  0  0  0  0  0  0  0  0  0  0  0
    1.4271   -1.3098    0.0000 C   0  0  0  0  0  0  0  0  0  0  0  0
    1.4271   -3.0887    0.0000 C   0  0  0  0  0  0  0  0  0  0  0  0
    4.1835   -2.1895    0.0000 C   0  0  0  0  0  0  0  0  0  0  0  0
    1.5053   -0.5083    0.0000 C   0  0  0  0  0  0  0  0  0  0  0  0
    0.6647   -1.6617    0.0000 C   0  0  0  0  0  0  0  0  0  0  0  0
    0.8406    0.0000    0.0000 C   0  0  0  0  0  0  0  0  0  0  0  0
    0.0000   -1.1534    0.0000 C   0  0  0  0  0  0  0  0  0  0  0  0
    0.6647   -2.7565    0.0000 C   0  0  0  0  0  0  0  0  0  0  0  0
    5.4151   -1.4857    0.0000 C   0  0  0  0  0  0  0  0  0  0  0  0
    5.8256   -0.7624    0.0000 C   0  0  0  0  0  0  0  0  0  0  0  0
  1 12  1  0  0  0  0
  1 18  1  0  0  0  0
  2 12  2  0  0  0  0
  3 11  2  0  0  0  0
  4  7  1  0  0  0  0
  4  8  1  0  0  0  0
  5 15  2  0  0  0  0
  5 16  1  0  0  0  0
  6  7  2  0  0  0  0
  6  9  1  0  0  0  0
  6 10  1  0  0  0  0
  7 11  1  0  0  0  0
  8  9  2  0  0  0  0
  8 12  1  0  0  0  0
 10 13  2  0  0  0  0
 10 14  1  0  0  0  0
 11 17  1  0  0  0  0
 13 15  1  0  0  0  0
 14 16  2  0  0  0  0
 18 19  1  0  0  0  0
M  END
> <PUBCHEM_COMPOUND_ID_TYPE>
0

> <PUBCHEM_TOTAL_CHARGE>
0

> <PUBCHEM_SUBSTANCE_ID>
310938462

> <PUBCHEM_SUBSTANCE_VERSION>
1

> <PUBCHEM_EXT_DATASOURCE_NAME>
4488

> <PUBCHEM_EXT_DATASOURCE_REGID>
SCHEMBL16116363

> <PUBCHEM_SUBSTANCE_COMMENT>
InChI=1S/C14H14N2O3/c1-3-19-14(18)12-8-11(13(16-12)9(2)17)10-4-6-15-7-5-10/h4-8,16H,3H2,1-2H3
InChIKey=OBNPQFHOGUGQMZ-UHFFFAOYSA-N

> <PUBCHEM_SUBSTANCE_SYNONYM>
SCHEMBL16116363

> <PUBCHEM_XREF_EXT_ID>
SCHEMBL16116363

> <PUBCHEM_EXT_DATASOURCE_URL>
https://www.surechembl.org/

> <PUBCHEM_EXT_SUBSTANCE_URL>
https://www.surechembl.org/chemical/SCHEMBL16116363

> <PUBCHEM_CID_ASSOCIATIONS>
117605922  1

> <PUBCHEM_COORDINATE_TYPE>
1
3

$$$$
