310934983
  -OEChem-07211613022D

 27 30  0     1  0  0  0  0  0999 V2000
    0.2182   -3.2270    0.0000 F   0  0  0  0  0  0  0  0  0  0  0  0
    4.6403    1.0019    0.0000 F   0  0  0  0  0  0  0  0  0  0  0  0
   -0.7145   -0.4125    0.0000 O   0  0  0  0  0  0  0  0  0  0  0  0
    0.0000    0.8250    0.0000 O   0  0  0  0  0  0  0  0  0  0  0  0
    2.8119    2.1942    0.0000 N   0  0  0  0  0  0  0  0  0  0  0  0
    0.7145   -0.4125    0.0000 C   0  0  3  0  0  0  0  0  0  0  0  0
    1.0762    0.3290    0.0000 C   0  0  0  0  0  0  0  0  0  0  0  0
    1.8931    0.2142    0.0000 C   0  0  0  0  0  0  0  0  0  0  0  0
    0.1842   -1.0445    0.0000 C   0  0  0  0  0  0  0  0  0  0  0  0
    1.3079   -0.9856    0.0000 C   0  0  0  0  0  0  0  0  0  0  0  0
    2.4662    0.8076    0.0000 C   0  0  0  0  0  0  0  0  0  0  0  0
    0.0000    0.0000    0.0000 C   0  0  0  0  0  0  0  0  0  0  0  0
    2.0364   -0.5983    0.0000 C   0  0  0  0  0  0  0  0  0  0  0  0
    2.2388    1.6007    0.0000 C   0  0  0  0  0  0  0  0  0  0  0  0
    0.4664   -1.8197    0.0000 C   0  0  0  0  0  0  0  0  0  0  0  0
    1.4383    1.8003    0.0000 C   0  0  0  0  0  0  0  0  0  0  0  0
   -0.6283   -0.9013    0.0000 C   0  0  0  0  0  0  0  0  0  0  0  0
    3.2667    0.6081    0.0000 C   0  0  0  0  0  0  0  0  0  0  0  0
    0.6637    1.0435    0.0000 C   0  0  0  0  0  0  0  0  0  0  0  0
   -0.0639   -2.4517    0.0000 C   0  0  0  0  0  0  0  0  0  0  0  0
    3.8398    1.2015    0.0000 C   0  0  0  0  0  0  0  0  0  0  0  0
    0.6453    1.5729    0.0000 C   0  0  0  0  0  0  0  0  0  0  0  0
    0.8449    2.3734    0.0000 C   0  0  0  0  0  0  0  0  0  0  0  0
   -1.1586   -1.5332    0.0000 C   0  0  0  0  0  0  0  0  0  0  0  0
   -0.8765   -2.3085    0.0000 C   0  0  0  0  0  0  0  0  0  0  0  0
    3.6124    1.9946    0.0000 C   0  0  0  0  0  0  0  0  0  0  0  0
    1.2788   -1.9630    0.0000 C   0  0  0  0  0  0  0  0  0  0  0  0
  1 20  1  0  0  0  0
  2 21  1  0  0  0  0
  3 12  2  0  0  0  0
  4 12  1  0  0  0  0
  5 14  2  0  0  0  0
  5 26  1  0  0  0  0
  6  7  1  0  0  0  0
  6  9  1  0  0  0  0
  6 10  1  0  0  0  0
  6 12  1  6  0  0  0
  7  8  2  0  0  0  0
  7 19  1  0  0  0  0
  8 11  1  0  0  0  0
  8 13  1  0  0  0  0
  9 15  1  0  0  0  0
  9 17  2  0  0  0  0
 10 13  1  0  0  0  0
 11 14  1  0  0  0  0
 11 18  2  0  0  0  0
 14 16  1  0  0  0  0
 15 20  2  0  0  0  0
 15 27  1  0  0  0  0
 16 22  1  0  0  0  0
 16 23  1  0  0  0  0
 17 24  1  0  0  0  0
 18 21  1  0  0  0  0
 20 25  1  0  0  0  0
 21 26  2  0  0  0  0
 22 23  1  0  0  0  0
 24 25  2  0  0  0  0
M  END
> <PUBCHEM_COMPOUND_ID_TYPE>
0

> <PUBCHEM_TOTAL_CHARGE>
0

> <PUBCHEM_SUBSTANCE_ID>
310934983

> <PUBCHEM_SUBSTANCE_VERSION>
1

> <PUBCHEM_EXT_DATASOURCE_NAME>
4488

> <PUBCHEM_EXT_DATASOURCE_REGID>
SCHEMBL16112499

> <PUBCHEM_SUBSTANCE_COMMENT>
InChI=1S/C22H21F2NO2/c1-12-18(4-3-5-19(12)24)22(21(26)27)9-8-16(13(22)2)17-10-15(23)11-25-20(17)14-6-7-14/h3-5,10-11,14H,6-9H2,1-2H3,(H,26,27)/t22-/m0/s1
InChIKey=GLGAMUMQRQPXCL-QFIPXVFZSA-N

> <PUBCHEM_SUBSTANCE_SYNONYM>
SCHEMBL16112499

> <PUBCHEM_XREF_EXT_ID>
SCHEMBL16112499

> <PUBCHEM_EXT_DATASOURCE_URL>
https://www.surechembl.org/

> <PUBCHEM_EXT_SUBSTANCE_URL>
https://www.surechembl.org/chemical/SCHEMBL16112499

> <PUBCHEM_CID_ASSOCIATIONS>
117603101  1

> <PUBCHEM_COORDINATE_TYPE>
1
3

> <PUBCHEM_BONDANNOTATIONS>
6  12  6

$$$$
