310942549
  -OEChem-07211613022D

 87 94  0     1  0  0  0  0  0999 V2000
   -5.5556   -1.1149    0.0000 S   0  0  0  0  0  0  0  0  0  0  0  0
    5.5807   -1.4907    0.0000 S   0  0  0  0  0  0  0  0  0  0  0  0
   -4.2905    1.3529    0.0000 O   0  0  0  0  0  0  0  0  0  0  0  0
   -0.9082    3.2695    0.0000 O   0  0  0  0  0  0  0  0  0  0  0  0
    2.4114    3.1067    0.0000 O   0  0  0  0  0  0  0  0  0  0  0  0
   -3.4260   -2.8060    0.0000 O   0  0  0  0  0  0  0  0  0  0  0  0
   -4.5285   -0.3883    0.0000 O   0  0  0  0  0  0  0  0  0  0  0  0
   -2.7873    3.7581    0.0000 O   0  0  0  0  0  0  0  0  0  0  0  0
    4.1401    0.0877    0.0000 O   0  0  0  0  0  0  0  0  0  0  0  0
    1.4844    4.4095    0.0000 O   0  0  0  0  0  0  0  0  0  0  0  0
    4.7414    1.7162    0.0000 O   0  0  0  0  0  0  0  0  0  0  0  0
   -2.5868   -3.8583    0.0000 O   0  0  0  0  0  0  0  0  0  0  0  0
    4.3405   -2.2924    0.0000 O   0  0  0  0  0  0  0  0  0  0  0  0
   -0.3320   -4.6099    0.0000 O   0  0  0  0  0  0  0  0  0  0  0  0
    2.7997   -2.9312    0.0000 O   0  0  0  0  0  0  0  0  0  0  0  0
    0.9833   -4.4345    0.0000 O   0  0  0  0  0  0  0  0  0  0  0  0
   -3.0002    1.5659    0.0000 O   0  0  0  0  0  0  0  0  0  0  0  0
   -2.7245   -1.1400    0.0000 O   0  0  0  0  0  0  0  0  0  0  0  0
    0.1065    2.6932    0.0000 O   0  0  0  0  0  0  0  0  0  0  0  0
   -3.3510   -0.0376    0.0000 O   0  0  0  0  0  0  0  0  0  0  0  0
   -1.8352    2.7684    0.0000 O   0  0  0  0  0  0  0  0  0  0  0  0
    2.5492    1.6786    0.0000 O   0  0  0  0  0  0  0  0  0  0  0  0
    1.0335    3.0189    0.0000 O   0  0  0  0  0  0  0  0  0  0  0  0
    3.4010    1.1400    0.0000 O   0  0  0  0  0  0  0  0  0  0  0  0
   -1.7975   -2.7810    0.0000 O   0  0  0  0  0  0  0  0  0  0  0  0
    2.7997   -1.3153    0.0000 O   0  0  0  0  0  0  0  0  0  0  0  0
   -0.9833   -2.9689    0.0000 O   0  0  0  0  0  0  0  0  0  0  0  0
    3.0127   -2.1296    0.0000 O   0  0  0  0  0  0  0  0  0  0  0  0
    0.4823   -3.2319    0.0000 O   0  0  0  0  0  0  0  0  0  0  0  0
    1.6599   -2.3926    0.0000 O   0  0  0  0  0  0  0  0  0  0  0  0
   -3.8520    3.7581    0.0000 O   0  0  0  0  0  0  0  0  0  0  0  0
    0.7704    5.4492    0.0000 O   0  0  0  0  0  0  0  0  0  0  0  0
    5.0796    2.8562    0.0000 O   0  0  0  0  0  0  0  0  0  0  0  0
   -2.1484   -5.4492    0.0000 O   0  0  0  0  0  0  0  0  0  0  0  0
   -6.2822    0.1378    0.0000 O   0  0  0  0  0  0  0  0  0  0  0  0
   -7.7354    0.1378    0.0000 O   0  0  0  0  0  0  0  0  0  0  0  0
    6.2947   -2.7434    0.0000 O   0  0  0  0  0  0  0  0  0  0  0  0
    7.7354   -2.7434    0.0000 O   0  0  0  0  0  0  0  0  0  0  0  0
   -7.7103   -1.5282    0.0000 N   0  0  0  0  0  0  0  0  0  0  0  0
   -3.5765    2.3926    0.0000 C   0  0  3  0  0  0  0  0  0  0  0  0
   -0.0439    4.0086    0.0000 C   0  0  3  0  0  0  0  0  0  0  0  0
   -4.1025   -1.9292    0.0000 C   0  0  3  0  0  0  0  0  0  0  0  0
    3.4888    2.7057    0.0000 C   0  0  3  0  0  0  0  0  0  0  0  0
   -3.9271    0.2130    0.0000 C   0  0  3  0  0  0  0  0  0  0  0  0
   -1.9480    3.7581    0.0000 C   0  0  3  0  0  0  0  0  0  0  0  0
    2.0732    3.8207    0.0000 C   0  0  3  0  0  0  0  0  0  0  0  0
   -2.7747    2.3926    0.0000 C   0  0  3  0  0  0  0  0  0  0  0  0
    4.6162    0.9019    0.0000 C   0  0  3  0  0  0  0  0  0  0  0  0
   -3.4762   -1.3278    0.0000 C   0  0  3  0  0  0  0  0  0  0  0  0
    4.3405   -0.6889    0.0000 C   0  0  3  0  0  0  0  0  0  0  0  0
    0.5199    3.3948    0.0000 C   0  0  3  0  0  0  0  0  0  0  0  0
   -3.9146   -0.5762    0.0000 C   0  0  3  0  0  0  0  0  0  0  0  0
   -2.5116    3.2068    0.0000 C   0  0  3  0  0  0  0  0  0  0  0  0
    1.2590    3.7957    0.0000 C   0  0  3  0  0  0  0  0  0  0  0  0
   -4.1151   -1.1023    0.0000 C   0  0  3  0  0  0  0  0  0  0  0  0
    3.3259    1.8915    0.0000 C   0  0  3  0  0  0  0  0  0  0  0  0
   -2.6118   -3.0315    0.0000 C   0  0  3  0  0  0  0  0  0  0  0  0
   -3.0127    2.9563    0.0000 C   0  0  3  0  0  0  0  0  0  0  0  0
    0.7704    4.0211    0.0000 C   0  0  3  0  0  0  0  0  0  0  0  0
    4.1151    1.5408    0.0000 C   0  0  3  0  0  0  0  0  0  0  0  0
   -1.1588   -4.5973    0.0000 C   0  0  3  0  0  0  0  0  0  0  0  0
    3.9773    2.0795    0.0000 C   0  0  3  0  0  0  0  0  0  0  0  0
   -2.0230   -3.5326    0.0000 C   0  0  3  0  0  0  0  0  0  0  0  0
    3.5890   -1.1149    0.0000 C   0  0  3  0  0  0  0  0  0  0  0  0
   -1.1838   -3.7455    0.0000 C   0  0  3  0  0  0  0  0  0  0  0  0
    4.1526   -1.4782    0.0000 C   0  0  3  0  0  0  0  0  0  0  0  0
    3.6140   -2.6932    0.0000 C   0  0  3  0  0  0  0  0  0  0  0  0
    3.8020   -1.9292    0.0000 C   0  0  3  0  0  0  0  0  0  0  0  0
   -1.7476   -4.0713    0.0000 C   0  0  3  0  0  0  0  0  0  0  0  0
    0.2944   -4.0086    0.0000 C   0  0  3  0  0  0  0  0  0  0  0  0
    2.3989   -3.6703    0.0000 C   0  0  3  0  0  0  0  0  0  0  0  0
    1.0335   -3.8082    0.0000 C   0  0  3  0  0  0  0  0  0  0  0  0
    1.6724   -3.2068    0.0000 C   0  0  3  0  0  0  0  0  0  0  0  0
   -4.8166   -1.5282    0.0000 C   0  0  0  0  0  0  0  0  0  0  0  0
   -3.8270    2.9563    0.0000 C   0  0  0  0  0  0  0  0  0  0  0  0
    1.6348   -3.8082    0.0000 C   0  0  0  0  0  0  0  0  0  0  0  0
    0.3695    4.7227    0.0000 C   0  0  0  0  0  0  0  0  0  0  0  0
    4.2153    2.8687    0.0000 C   0  0  0  0  0  0  0  0  0  0  0  0
    4.8541   -1.0648    0.0000 C   0  0  0  0  0  0  0  0  0  0  0  0
   -1.5471   -4.8478    0.0000 C   0  0  0  0  0  0  0  0  0  0  0  0
   -6.2696   -1.5282    0.0000 C   0  0  0  0  0  0  0  0  0  0  0  0
    6.3073   -1.0648    0.0000 C   0  0  0  0  0  0  0  0  0  0  0  0
   -7.0088   -1.1023    0.0000 C   0  0  3  0  0  0  0  0  0  0  0  0
    7.0339   -1.4782    0.0000 C   0  0  3  0  0  0  0  0  0  0  0  0
   -7.0088   -0.2630    0.0000 C   0  0  0  0  0  0  0  0  0  0  0  0
    7.0339   -2.3300    0.0000 C   0  0  0  0  0  0  0  0  0  0  0  0
    7.5475   -1.1775    0.0000 C   0  0  0  0  0  0  0  0  0  0  0  0
  1 74  1  0  0  0  0
  1 81  1  0  0  0  0
  2 79  1  0  0  0  0
  2 82  1  0  0  0  0
 40  3  1  6  0  0  0
 44  3  1  1  0  0  0
 41  4  1  6  0  0  0
 45  4  1  6  0  0  0
 43  5  1  6  0  0  0
 46  5  1  6  0  0  0
 42  6  1  6  0  0  0
 57  6  1  1  0  0  0
  7 44  1  0  0  0  0
  7 55  1  0  0  0  0
  8 45  1  0  0  0  0
  8 58  1  0  0  0  0
  9 48  1  0  0  0  0
 50  9  1  6  0  0  0
 10 46  1  0  0  0  0
 10 59  1  0  0  0  0
 48 11  1  6  0  0  0
 11 62  1  0  0  0  0
 12 57  1  0  0  0  0
 12 69  1  0  0  0  0
 13 66  1  0  0  0  0
 13 67  1  0  0  0  0
 61 14  1  6  0  0  0
 70 14  1  1  0  0  0
 67 15  1  6  0  0  0
 71 15  1  6  0  0  0
 16 70  1  0  0  0  0
 16 76  1  0  0  0  0
 17 47  1  0  0  0  0
 18 49  1  0  0  0  0
 19 51  1  0  0  0  0
 52 20  1  6  0  0  0
 21 53  1  0  0  0  0
 56 22  1  1  0  0  0
 54 23  1  6  0  0  0
 24 60  1  0  0  0  0
 63 25  1  6  0  0  0
 64 26  1  1  0  0  0
 27 65  1  0  0  0  0
 28 68  1  0  0  0  0
 29 72  1  0  0  0  0
 73 30  1  1  0  0  0
 31 75  1  0  0  0  0
 32 77  1  0  0  0  0
 33 78  1  0  0  0  0
 34 80  1  0  0  0  0
 35 85  2  0  0  0  0
 36 85  1  0  0  0  0
 37 86  2  0  0  0  0
 38 86  1  0  0  0  0
 83 39  1  1  0  0  0
 40 47  1  0  0  0  0
 40 58  1  0  0  0  0
 41 51  1  0  0  0  0
 41 59  1  0  0  0  0
 42 49  1  0  0  0  0
 42 55  1  0  0  0  0
 43 56  1  0  0  0  0
 43 62  1  0  0  0  0
 44 52  1  0  0  0  0
 45 53  1  0  0  0  0
 46 54  1  0  0  0  0
 47 53  1  0  0  0  0
 48 60  1  0  0  0  0
 49 52  1  0  0  0  0
 50 64  1  0  0  0  0
 50 66  1  0  0  0  0
 51 54  1  0  0  0  0
 55 74  1  0  0  0  0
 56 60  1  0  0  0  0
 57 63  1  0  0  0  0
 58 75  1  0  0  0  0
 59 77  1  0  0  0  0
 61 65  1  0  0  0  0
 61 69  1  0  0  0  0
 62 78  1  0  0  0  0
 63 65  1  0  0  0  0
 64 68  1  0  0  0  0
 66 79  1  0  0  0  0
 67 68  1  0  0  0  0
 69 80  1  0  0  0  0
 70 72  1  0  0  0  0
 71 73  1  0  0  0  0
 71 76  1  0  0  0  0
 72 73  1  0  0  0  0
 81 83  1  0  0  0  0
 82 84  1  0  0  0  0
 83 85  1  0  0  0  0
 84 86  1  0  0  0  0
 84 87  1  1  0  0  0
M  END
> <PUBCHEM_COMPOUND_ID_TYPE>
0

> <PUBCHEM_TOTAL_CHARGE>
0

> <PUBCHEM_SUBSTANCE_ID>
310942549

> <PUBCHEM_SUBSTANCE_VERSION>
1

> <PUBCHEM_EXT_DATASOURCE_NAME>
4488

> <PUBCHEM_EXT_DATASOURCE_REGID>
SCHEMBL16120590

> <PUBCHEM_SUBSTANCE_COMMENT>
InChI=1S/C48H79NO36S2/c1-11(40(68)69)7-86-9-18-38-25(59)28(62)43(78-18)77-17-6-72-42(27(61)20(17)54)80-34-13(2-50)73-46(29(63)21(34)55)85-39-19(10-87-8-12(49)41(70)71)79-48(33(67)26(39)60)83-37-16(5-53)75-45(31(65)23(37)57)81-35-14(3-51)74-44(30(64)22(35)56)82-36-15(4-52)76-47(84-38)32(66)24(36)58/h11-39,42-48,50-67H,2-10,49H2,1H3,(H,68,69)(H,70,71)/t11-,12-,13?,14?,15?,16?,17-,18?,19?,20+,21?,22?,23?,24-,25-,26?,27?,28?,29+,30+,31?,32?,33+,34-,35-,36-,37-,38-,39-,42+,43+,44-,45-,46+,47-,48+/m1/s1
InChIKey=YWDQGIBNRGYZHZ-JSEJHEOUSA-N

> <PUBCHEM_SUBSTANCE_SYNONYM>
SCHEMBL16120590

> <PUBCHEM_XREF_EXT_ID>
SCHEMBL16120590

> <PUBCHEM_EXT_DATASOURCE_URL>
https://www.surechembl.org/

> <PUBCHEM_EXT_SUBSTANCE_URL>
https://www.surechembl.org/chemical/SCHEMBL16120590

> <PUBCHEM_CID_ASSOCIATIONS>
117609105  1

> <PUBCHEM_COORDINATE_TYPE>
1
3

> <PUBCHEM_BONDANNOTATIONS>
48  11  6
61  14  6
70  14  5
67  15  6
71  15  6
52  20  6
56  22  5
54  23  6
63  25  6
64  26  5
40  3  6
44  3  5
73  30  5
83  39  5
41  4  6
45  4  6
43  5  6
46  5  6
42  6  6
57  6  5
84  87  5
50  9  6

$$$$
