310948860
  -OEChem-07211613022D

 52 53  0     1  0  0  0  0  0999 V2000
    5.3885    0.0000    0.0000 P   0  0  3  0  0  0  0  0  0  0  0  0
    9.0430   -1.9267    0.0000 F   0  0  0  0  0  0  0  0  0  0  0  0
    8.2102    0.0746    0.0000 O   0  0  0  0  0  0  0  0  0  0  0  0
    7.3774   -1.9267    0.0000 O   0  0  0  0  0  0  0  0  0  0  0  0
    6.0971   -0.4226    0.0000 O   0  0  0  0  0  0  0  0  0  0  0  0
   10.4850   -0.8452    0.0000 O   0  0  0  0  0  0  0  0  0  0  0  0
   11.2183    1.9267    0.0000 O   0  0  0  0  0  0  0  0  0  0  0  0
    4.9659   -0.7209    0.0000 O   0  0  0  0  0  0  0  0  0  0  0  0
    5.3885    0.8204    0.0000 O   0  0  0  0  0  0  0  0  0  0  0  0
    2.4053   -0.4226    0.0000 O   0  0  0  0  0  0  0  0  0  0  0  0
   -0.4662   -1.2430    0.0000 O   0  0  0  0  0  0  0  0  0  0  0  0
    9.4905    0.1740    0.0000 N   0  0  0  0  0  0  0  0  0  0  0  0
   10.8703    0.5469    0.0000 N   0  0  0  0  0  0  0  0  0  0  0  0
    4.5681    0.0248    0.0000 N   0  0  0  0  0  0  0  0  0  0  0  0
    0.2672    0.0248    0.0000 N   0  0  0  0  0  0  0  0  0  0  0  0
    8.6826   -1.2058    0.0000 C   0  0  3  0  0  0  0  0  0  0  0  0
    8.8814   -0.4102    0.0000 C   0  0  3  0  0  0  0  0  0  0  0  0
    7.8000   -1.1933    0.0000 C   0  0  3  0  0  0  0  0  0  0  0  0
    7.5514   -0.4102    0.0000 C   0  0  3  0  0  0  0  0  0  0  0  0
   10.2737   -0.0373    0.0000 C   0  0  0  0  0  0  0  0  0  0  0  0
    9.4657   -1.2058    0.0000 C   0  0  0  0  0  0  0  0  0  0  0  0
    6.8304    0.0000    0.0000 C   0  0  0  0  0  0  0  0  0  0  0  0
    9.2668    0.9572    0.0000 C   0  0  0  0  0  0  0  0  0  0  0  0
   10.6341    1.3301    0.0000 C   0  0  0  0  0  0  0  0  0  0  0  0
    9.8510    1.5538    0.0000 C   0  0  0  0  0  0  0  0  0  0  0  0
    3.8596   -0.4102    0.0000 C   0  0  0  0  0  0  0  0  0  0  0  0
    5.3885   -1.4419    0.0000 C   0  0  0  0  0  0  0  0  0  0  0  0
    3.1387    0.0000    0.0000 C   0  0  0  0  0  0  0  0  0  0  0  0
    1.6968    0.0000    0.0000 C   0  0  0  0  0  0  0  0  0  0  0  0
    0.9882   -0.4102    0.0000 C   0  0  0  0  0  0  0  0  0  0  0  0
   -0.4537   -0.3978    0.0000 C   0  0  0  0  0  0  0  0  0  0  0  0
   -1.1747    0.0000    0.0000 C   0  0  0  0  0  0  0  0  0  0  0  0
   -1.8832   -0.4102    0.0000 C   0  0  0  0  0  0  0  0  0  0  0  0
   -2.6166    0.0000    0.0000 C   0  0  0  0  0  0  0  0  0  0  0  0
   -3.3127   -0.4102    0.0000 C   0  0  0  0  0  0  0  0  0  0  0  0
   -3.3251   -1.2555    0.0000 C   0  0  0  0  0  0  0  0  0  0  0  0
   -4.0336   -1.6532    0.0000 C   0  0  0  0  0  0  0  0  0  0  0  0
   -4.7670   -1.2430    0.0000 C   0  0  0  0  0  0  0  0  0  0  0  0
   -4.7670   -0.4102    0.0000 C   0  0  0  0  0  0  0  0  0  0  0  0
   -5.4755    0.0000    0.0000 C   0  0  0  0  0  0  0  0  0  0  0  0
   -6.1841   -0.4102    0.0000 C   0  0  0  0  0  0  0  0  0  0  0  0
   -6.1965   -1.2555    0.0000 C   0  0  0  0  0  0  0  0  0  0  0  0
   -6.9050   -1.6532    0.0000 C   0  0  0  0  0  0  0  0  0  0  0  0
   -7.6260   -1.2430    0.0000 C   0  0  0  0  0  0  0  0  0  0  0  0
   -7.6260   -0.4226    0.0000 C   0  0  0  0  0  0  0  0  0  0  0  0
   -8.3470    0.0000    0.0000 C   0  0  0  0  0  0  0  0  0  0  0  0
   -9.0555   -0.4102    0.0000 C   0  0  0  0  0  0  0  0  0  0  0  0
   -9.0679   -1.2555    0.0000 C   0  0  0  0  0  0  0  0  0  0  0  0
   -9.7764   -1.6532    0.0000 C   0  0  0  0  0  0  0  0  0  0  0  0
  -10.4974   -1.2430    0.0000 C   0  0  0  0  0  0  0  0  0  0  0  0
  -10.4974   -0.4226    0.0000 C   0  0  0  0  0  0  0  0  0  0  0  0
  -11.2183   -0.0125    0.0000 C   0  0  0  0  0  0  0  0  0  0  0  0
  1  5  1  0  0  0  0
  1  8  1  0  0  0  0
  1  9  2  0  0  0  0
  1 14  1  0  0  0  0
 16  2  1  6  0  0  0
  3 17  1  0  0  0  0
  3 19  1  0  0  0  0
 18  4  1  6  0  0  0
  5 22  1  0  0  0  0
  6 20  2  0  0  0  0
  7 24  2  0  0  0  0
  8 27  1  0  0  0  0
 10 28  1  0  0  0  0
 10 29  1  0  0  0  0
 11 31  2  0  0  0  0
 12 17  1  0  0  0  0
 12 20  1  0  0  0  0
 12 23  1  0  0  0  0
 13 20  1  0  0  0  0
 13 24  1  0  0  0  0
 14 26  1  0  0  0  0
 15 30  1  0  0  0  0
 15 31  1  0  0  0  0
 16 17  1  0  0  0  0
 16 18  1  0  0  0  0
 16 21  1  1  0  0  0
 18 19  1  0  0  0  0
 19 22  1  1  0  0  0
 23 25  2  0  0  0  0
 24 25  1  0  0  0  0
 26 28  1  0  0  0  0
 29 30  1  0  0  0  0
 31 32  1  0  0  0  0
 32 33  1  0  0  0  0
 33 34  1  0  0  0  0
 34 35  2  0  0  0  0
 35 36  1  0  0  0  0
 36 37  1  0  0  0  0
 37 38  2  0  0  0  0
 38 39  1  0  0  0  0
 39 40  1  0  0  0  0
 40 41  2  0  0  0  0
 41 42  1  0  0  0  0
 42 43  1  0  0  0  0
 43 44  2  0  0  0  0
 44 45  1  0  0  0  0
 45 46  1  0  0  0  0
 46 47  2  0  0  0  0
 47 48  1  0  0  0  0
 48 49  1  0  0  0  0
 49 50  2  0  0  0  0
 50 51  1  0  0  0  0
 51 52  1  0  0  0  0
M  END
> <PUBCHEM_COMPOUND_ID_TYPE>
0

> <PUBCHEM_TOTAL_CHARGE>
0

> <PUBCHEM_SUBSTANCE_ID>
310948860

> <PUBCHEM_SUBSTANCE_VERSION>
1

> <PUBCHEM_EXT_DATASOURCE_NAME>
4488

> <PUBCHEM_EXT_DATASOURCE_REGID>
SCHEMBL16127045

> <PUBCHEM_SUBSTANCE_COMMENT>
InChI=1S/C37H56FN4O9P/c1-4-5-6-7-8-9-10-11-12-13-14-15-16-17-18-19-20-21-22-23-32(43)39-25-28-49-29-26-40-52(47,48-3)50-30-31-34(45)37(2,38)35(51-31)42-27-24-33(44)41-36(42)46/h5-6,8-9,11-12,14-15,17-18,20-21,24,27,31,34-35,45H,4,7,10,13,16,19,22-23,25-26,28-30H2,1-3H3,(H,39,43)(H,40,47)(H,41,44,46)/b6-5-,9-8-,12-11-,15-14-,18-17-,21-20-/t31-,34-,35?,37-,52?/m1/s1
InChIKey=IYWBQJBRXJYXFK-VIRFCZPPSA-N

> <PUBCHEM_SUBSTANCE_SYNONYM>
SCHEMBL16127045

> <PUBCHEM_XREF_EXT_ID>
SCHEMBL16127045

> <PUBCHEM_EXT_DATASOURCE_URL>
https://www.surechembl.org/

> <PUBCHEM_EXT_SUBSTANCE_URL>
https://www.surechembl.org/chemical/SCHEMBL16127045

> <PUBCHEM_CID_ASSOCIATIONS>
117614395  1

> <PUBCHEM_COORDINATE_TYPE>
1
3

> <PUBCHEM_BONDANNOTATIONS>
16  21  5
19  22  5
16  2  6
18  4  6

$$$$
