310946894
  -OEChem-07211613022D

 20 22  0     1  0  0  0  0  0999 V2000
    2.0586   -1.1561    0.0000 S   0  0  0  0  0  0  0  0  0  0  0  0
    1.3415   -1.5641    0.0000 O   0  0  0  0  0  0  0  0  0  0  0  0
   -1.5146   -1.5641    0.0000 O   0  0  0  0  0  0  0  0  0  0  0  0
    2.0463   -0.3277    0.0000 O   0  0  0  0  0  0  0  0  0  0  0  0
    2.0463   -1.9844    0.0000 O   0  0  0  0  0  0  0  0  0  0  0  0
    2.7634   -1.5641    0.0000 O   0  0  0  0  0  0  0  0  0  0  0  0
   -0.7851   -0.3277    0.0000 N   0  0  0  0  0  0  0  0  0  0  0  0
    0.6491   -1.1561    0.0000 N   0  0  0  0  0  0  0  0  0  0  0  0
   -2.2812    0.6491    0.0000 N   0  0  0  0  0  0  0  0  0  0  0  0
   -1.5022    1.7371    0.0000 N   0  0  0  0  0  0  0  0  0  0  0  0
   -2.7634    1.3168    0.0000 N   0  0  0  0  0  0  0  0  0  0  0  0
   -2.2812    1.9844    0.0000 N   0  0  0  0  0  0  0  0  0  0  0  0
   -0.7727   -1.1313    0.0000 C   0  0  0  0  0  0  0  0  0  0  0  0
    0.6862   -0.3029    0.0000 C   0  0  3  0  0  0  0  0  0  0  0  0
   -0.7851    0.5008    0.0000 C   0  0  3  0  0  0  0  0  0  0  0  0
   -0.0680   -0.7357    0.0000 C   0  0  0  0  0  0  0  0  0  0  0  0
   -1.5022    0.9088    0.0000 C   0  0  0  0  0  0  0  0  0  0  0  0
    0.6367    0.5008    0.0000 C   0  0  0  0  0  0  0  0  0  0  0  0
   -0.0803    0.9088    0.0000 C   0  0  0  0  0  0  0  0  0  0  0  0
   -2.2935   -0.1669    0.0000 C   0  0  0  0  0  0  0  0  0  0  0  0
  1  2  1  0  0  0  0
  1  4  2  0  0  0  0
  1  5  2  0  0  0  0
  1  6  1  0  0  0  0
  2  8  1  0  0  0  0
  3 13  2  0  0  0  0
  7 13  1  0  0  0  0
  7 15  1  0  0  0  0
  7 16  1  0  0  0  0
  8 13  1  0  0  0  0
  8 14  1  0  0  0  0
  9 11  1  0  0  0  0
  9 17  1  0  0  0  0
  9 20  1  0  0  0  0
 10 12  1  0  0  0  0
 10 17  2  0  0  0  0
 11 12  2  0  0  0  0
 14 16  1  0  0  0  0
 14 18  1  0  0  0  0
 15 17  1  6  0  0  0
 15 19  1  0  0  0  0
 18 19  1  0  0  0  0
M  END
> <PUBCHEM_COMPOUND_ID_TYPE>
0

> <PUBCHEM_TOTAL_CHARGE>
0

> <PUBCHEM_SUBSTANCE_ID>
310946894

> <PUBCHEM_SUBSTANCE_VERSION>
1

> <PUBCHEM_EXT_DATASOURCE_NAME>
4488

> <PUBCHEM_EXT_DATASOURCE_REGID>
SCHEMBL16125018

> <PUBCHEM_SUBSTANCE_COMMENT>
InChI=1S/C8H12N6O5S/c1-12-7(9-10-11-12)6-3-2-5-4-13(6)8(15)14(5)19-20(16,17)18/h5-6H,2-4H2,1H3,(H,16,17,18)/t5?,6-/m0/s1
InChIKey=QOOUBNMWZGAZOD-GDVGLLTNSA-N

> <PUBCHEM_SUBSTANCE_SYNONYM>
SCHEMBL16125018

> <PUBCHEM_XREF_EXT_ID>
SCHEMBL16125018

> <PUBCHEM_EXT_DATASOURCE_URL>
https://www.surechembl.org/

> <PUBCHEM_EXT_SUBSTANCE_URL>
https://www.surechembl.org/chemical/SCHEMBL16125018

> <PUBCHEM_CID_ASSOCIATIONS>
117612752  1

> <PUBCHEM_COORDINATE_TYPE>
1
3

> <PUBCHEM_BONDANNOTATIONS>
15  17  6

$$$$
