310939961
  -OEChem-07211613022D

 23 25  0     0  0  0  0  0  0999 V2000
   -2.5151    1.1025    0.0000 Cl  0  0  0  0  0  0  0  0  0  0  0  0
   -0.1040    1.1587    0.0000 O   0  0  0  0  0  0  0  0  0  0  0  0
    3.0498    0.1629    0.0000 O   0  0  0  0  0  0  0  0  0  0  0  0
    0.6104   -0.0788    0.0000 N   0  0  0  0  0  0  0  0  0  0  0  0
   -0.8185   -0.9038    0.0000 N   0  0  0  0  0  0  0  0  0  0  0  0
   -1.6031   -1.1587    0.0000 N   0  0  0  0  0  0  0  0  0  0  0  0
    2.3353   -1.0746    0.0000 N   0  0  0  0  0  0  0  0  0  0  0  0
   -0.8185   -0.0788    0.0000 C   0  0  0  0  0  0  0  0  0  0  0  0
   -0.1040    0.3337    0.0000 C   0  0  0  0  0  0  0  0  0  0  0  0
   -2.0881   -0.4913    0.0000 C   0  0  0  0  0  0  0  0  0  0  0  0
    1.6208   -0.6621    0.0000 C   0  0  0  0  0  0  0  0  0  0  0  0
   -1.6031    0.1762    0.0000 C   0  0  0  0  0  0  0  0  0  0  0  0
   -2.8849   -0.2778    0.0000 C   0  0  0  0  0  0  0  0  0  0  0  0
    0.8240   -0.8757    0.0000 C   0  0  0  0  0  0  0  0  0  0  0  0
    1.4073    0.1347    0.0000 C   0  0  0  0  0  0  0  0  0  0  0  0
   -3.0985    0.5191    0.0000 C   0  0  0  0  0  0  0  0  0  0  0  0
   -3.4683   -0.8611    0.0000 C   0  0  0  0  0  0  0  0  0  0  0  0
   -3.8954    0.7327    0.0000 C   0  0  0  0  0  0  0  0  0  0  0  0
    3.0498   -0.6621    0.0000 C   0  0  0  0  0  0  0  0  0  0  0  0
   -4.2652   -0.6476    0.0000 C   0  0  0  0  0  0  0  0  0  0  0  0
   -4.4787    0.1493    0.0000 C   0  0  0  0  0  0  0  0  0  0  0  0
    3.7643   -1.0746    0.0000 C   0  0  0  0  0  0  0  0  0  0  0  0
    4.4787   -0.6621    0.0000 C   0  0  0  0  0  0  0  0  0  0  0  0
  1 16  1  0  0  0  0
  2  9  2  0  0  0  0
  3 19  2  0  0  0  0
  4  9  1  0  0  0  0
  4 14  1  0  0  0  0
  4 15  1  0  0  0  0
  5  6  1  0  0  0  0
  5  8  2  0  0  0  0
  6 10  1  0  0  0  0
  7 11  1  0  0  0  0
  7 19  1  0  0  0  0
  8  9  1  0  0  0  0
  8 12  1  0  0  0  0
 10 12  2  0  0  0  0
 10 13  1  0  0  0  0
 11 14  1  0  0  0  0
 11 15  1  0  0  0  0
 13 16  2  0  0  0  0
 13 17  1  0  0  0  0
 16 18  1  0  0  0  0
 17 20  2  0  0  0  0
 18 21  2  0  0  0  0
 19 22  1  0  0  0  0
 20 21  1  0  0  0  0
 22 23  2  0  0  0  0
M  END
> <PUBCHEM_COMPOUND_ID_TYPE>
0

> <PUBCHEM_TOTAL_CHARGE>
0

> <PUBCHEM_SUBSTANCE_ID>
310939961

> <PUBCHEM_SUBSTANCE_VERSION>
1

> <PUBCHEM_EXT_DATASOURCE_NAME>
4488

> <PUBCHEM_EXT_DATASOURCE_REGID>
SCHEMBL16117891

> <PUBCHEM_SUBSTANCE_COMMENT>
InChI=1S/C16H15ClN4O2/c1-2-15(22)18-10-8-21(9-10)16(23)14-7-13(19-20-14)11-5-3-4-6-12(11)17/h2-7,10H,1,8-9H2,(H,18,22)(H,19,20)
InChIKey=NXISRDIQDCBRBQ-UHFFFAOYSA-N

> <PUBCHEM_SUBSTANCE_SYNONYM>
SCHEMBL16117891

> <PUBCHEM_XREF_EXT_ID>
SCHEMBL16117891

> <PUBCHEM_EXT_DATASOURCE_URL>
https://www.surechembl.org/

> <PUBCHEM_EXT_SUBSTANCE_URL>
https://www.surechembl.org/chemical/SCHEMBL16117891

> <PUBCHEM_CID_ASSOCIATIONS>
117607127  1

> <PUBCHEM_COORDINATE_TYPE>
1
3

$$$$
