310944353
  -OEChem-07211613022D

 18 19  0     0  0  0  0  0  0999 V2000
    0.0000    2.4683    0.0000 F   0  0  0  0  0  0  0  0  0  0  0  0
    2.1639    2.0219    0.0000 N   0  0  0  0  0  0  0  0  0  0  0  0
   -2.1639    2.0084    0.0000 N   0  0  0  0  0  0  0  0  0  0  0  0
   -0.0271   -0.8317    0.0000 C   0  0  0  0  0  0  0  0  0  0  0  0
   -0.0135    0.0067    0.0000 C   0  0  0  0  0  0  0  0  0  0  0  0
    0.7168    1.2646    0.0000 C   0  0  0  0  0  0  0  0  0  0  0  0
   -0.7303    1.2510    0.0000 C   0  0  0  0  0  0  0  0  0  0  0  0
   -0.0271    1.6567    0.0000 C   0  0  0  0  0  0  0  0  0  0  0  0
    0.7033    0.3990    0.0000 C   0  0  0  0  0  0  0  0  0  0  0  0
   -0.7168    0.4125    0.0000 C   0  0  0  0  0  0  0  0  0  0  0  0
   -0.7303   -1.2510    0.0000 C   0  0  0  0  0  0  0  0  0  0  0  0
    0.7033   -1.2510    0.0000 C   0  0  0  0  0  0  0  0  0  0  0  0
   -0.8250   -0.6289    0.0000 C   0  0  0  0  0  0  0  0  0  0  0  0
    1.4471    1.6567    0.0000 C   0  0  0  0  0  0  0  0  0  0  0  0
   -1.4607    1.6433    0.0000 C   0  0  0  0  0  0  0  0  0  0  0  0
   -0.7168   -2.0760    0.0000 C   0  0  0  0  0  0  0  0  0  0  0  0
    0.7033   -2.0760    0.0000 C   0  0  0  0  0  0  0  0  0  0  0  0
   -0.0135   -2.4683    0.0000 C   0  0  0  0  0  0  0  0  0  0  0  0
  1  8  1  0  0  0  0
  2 14  3  0  0  0  0
  3 15  3  0  0  0  0
  4  5  1  0  0  0  0
  4 11  1  0  0  0  0
  4 12  1  0  0  0  0
  4 13  1  0  0  0  0
  5  9  2  0  0  0  0
  5 10  1  0  0  0  0
  6  8  2  0  0  0  0
  6  9  1  0  0  0  0
  6 14  1  0  0  0  0
  7  8  1  0  0  0  0
  7 10  2  0  0  0  0
  7 15  1  0  0  0  0
 11 16  1  0  0  0  0
 12 17  1  0  0  0  0
 16 18  1  0  0  0  0
 17 18  1  0  0  0  0
M  END
> <PUBCHEM_COMPOUND_ID_TYPE>
0

> <PUBCHEM_TOTAL_CHARGE>
0

> <PUBCHEM_SUBSTANCE_ID>
310944353

> <PUBCHEM_SUBSTANCE_VERSION>
1

> <PUBCHEM_EXT_DATASOURCE_NAME>
4488

> <PUBCHEM_EXT_DATASOURCE_REGID>
SCHEMBL16122428

> <PUBCHEM_SUBSTANCE_COMMENT>
InChI=1S/C15H15FN2/c1-15(5-3-2-4-6-15)13-7-11(9-17)14(16)12(8-13)10-18/h7-8H,2-6H2,1H3
InChIKey=PDYPFSVNZVPRPY-UHFFFAOYSA-N

> <PUBCHEM_SUBSTANCE_SYNONYM>
SCHEMBL16122428

> <PUBCHEM_XREF_EXT_ID>
SCHEMBL16122428

> <PUBCHEM_EXT_DATASOURCE_URL>
https://www.surechembl.org/

> <PUBCHEM_EXT_SUBSTANCE_URL>
https://www.surechembl.org/chemical/SCHEMBL16122428

> <PUBCHEM_CID_ASSOCIATIONS>
117610610  1

> <PUBCHEM_COORDINATE_TYPE>
1
3

$$$$
