310940589
  -OEChem-07211613022D

 36 40  0     1  0  0  0  0  0999 V2000
    0.3573    3.4769    0.0000 F   0  0  0  0  0  0  0  0  0  0  0  0
    0.5772    4.2877    0.0000 F   0  0  0  0  0  0  0  0  0  0  0  0
    1.3880    4.5076    0.0000 F   0  0  0  0  0  0  0  0  0  0  0  0
    2.6248   -1.3743    0.0000 O   0  0  0  0  0  0  0  0  0  0  0  0
   -1.5667   -1.5117    0.0000 O   0  0  0  0  0  0  0  0  0  0  0  0
    2.8447    0.0412    0.0000 O   0  0  0  0  0  0  0  0  0  0  0  0
   -2.8447   -3.4356    0.0000 O   0  0  0  0  0  0  0  0  0  0  0  0
    1.7728    3.0921    0.0000 O   0  0  0  0  0  0  0  0  0  0  0  0
    1.4980   -0.6871    0.0000 N   0  0  0  0  0  0  0  0  0  0  0  0
    1.3331   -3.1333    0.0000 N   0  0  0  0  0  0  0  0  0  0  0  0
   -2.4324   -4.1640    0.0000 N   0  0  0  0  0  0  0  0  0  0  0  0
    1.2918   -1.4293    0.0000 C   0  0  0  0  0  0  0  0  0  0  0  0
    0.5909   -1.8415    0.0000 C   0  0  0  0  0  0  0  0  0  0  0  0
    2.0202   -1.8415    0.0000 C   0  0  0  0  0  0  0  0  0  0  0  0
    0.5772   -2.6661    0.0000 C   0  0  0  0  0  0  0  0  0  0  0  0
    2.2813   -0.5634    0.0000 C   0  0  0  0  0  0  0  0  0  0  0  0
   -0.8658   -2.6798    0.0000 C   0  0  0  0  0  0  0  0  0  0  0  0
    0.8932   -0.0550    0.0000 C   0  0  3  0  0  0  0  0  0  0  0  0
   -0.1374   -1.4430    0.0000 C   0  0  0  0  0  0  0  0  0  0  0  0
   -0.8520   -1.8553    0.0000 C   0  0  0  0  0  0  0  0  0  0  0  0
   -0.1374   -3.0783    0.0000 C   0  0  0  0  0  0  0  0  0  0  0  0
   -1.5804   -3.0921    0.0000 C   0  0  0  0  0  0  0  0  0  0  0  0
    2.0064   -2.6798    0.0000 C   0  0  0  0  0  0  0  0  0  0  0  0
    1.0994    0.7833    0.0000 C   0  0  0  0  0  0  0  0  0  0  0  0
   -2.3363   -2.7348    0.0000 C   0  0  0  0  0  0  0  0  0  0  0  0
   -1.6629   -3.9167    0.0000 C   0  0  0  0  0  0  0  0  0  0  0  0
    0.0962   -0.2474    0.0000 C   0  0  0  0  0  0  0  0  0  0  0  0
    0.5222    1.3468    0.0000 C   0  0  0  0  0  0  0  0  0  0  0  0
    1.8965    1.0032    0.0000 C   0  0  0  0  0  0  0  0  0  0  0  0
    1.5255    2.3637    0.0000 C   0  0  0  0  0  0  0  0  0  0  0  0
    0.7421    2.1576    0.0000 C   0  0  0  0  0  0  0  0  0  0  0  0
    2.1026    1.7866    0.0000 C   0  0  0  0  0  0  0  0  0  0  0  0
   -2.4874   -1.9377    0.0000 C   0  0  0  0  0  0  0  0  0  0  0  0
   -1.0582   -4.5076    0.0000 C   0  0  0  0  0  0  0  0  0  0  0  0
   -1.5804   -0.5909    0.0000 C   0  0  0  0  0  0  0  0  0  0  0  0
    1.1269    3.7655    0.0000 C   0  0  0  0  0  0  0  0  0  0  0  0
  1 36  1  0  0  0  0
  2 36  1  0  0  0  0
  3 36  1  0  0  0  0
  4 14  1  0  0  0  0
  4 16  1  0  0  0  0
  5 20  1  0  0  0  0
  5 35  1  0  0  0  0
  6 16  2  0  0  0  0
  7 11  1  0  0  0  0
  7 25  1  0  0  0  0
  8 30  1  0  0  0  0
  8 36  1  0  0  0  0
  9 12  1  0  0  0  0
  9 16  1  0  0  0  0
  9 18  1  0  0  0  0
 10 15  2  0  0  0  0
 10 23  1  0  0  0  0
 11 26  2  0  0  0  0
 12 13  2  0  0  0  0
 12 14  1  0  0  0  0
 13 15  1  0  0  0  0
 13 19  1  0  0  0  0
 14 23  2  0  0  0  0
 15 21  1  0  0  0  0
 17 20  1  0  0  0  0
 17 21  2  0  0  0  0
 17 22  1  0  0  0  0
 18 24  1  0  0  0  0
 18 27  1  6  0  0  0
 19 20  2  0  0  0  0
 22 25  2  0  0  0  0
 22 26  1  0  0  0  0
 24 28  2  0  0  0  0
 24 29  1  0  0  0  0
 25 33  1  0  0  0  0
 26 34  1  0  0  0  0
 28 31  1  0  0  0  0
 29 32  2  0  0  0  0
 30 31  2  0  0  0  0
 30 32  1  0  0  0  0
M  END
> <PUBCHEM_COMPOUND_ID_TYPE>
0

> <PUBCHEM_TOTAL_CHARGE>
0

> <PUBCHEM_SUBSTANCE_ID>
310940589

> <PUBCHEM_SUBSTANCE_VERSION>
1

> <PUBCHEM_EXT_DATASOURCE_NAME>
4488

> <PUBCHEM_EXT_DATASOURCE_REGID>
SCHEMBL16118543

> <PUBCHEM_SUBSTANCE_COMMENT>
InChI=1S/C25H20F3N3O5/c1-12-22(14(3)36-30-12)18-9-19-17(10-20(18)33-4)23-21(11-29-19)34-24(32)31(23)13(2)15-5-7-16(8-6-15)35-25(26,27)28/h5-11,13H,1-4H3/t13-/m1/s1
InChIKey=SPFUSUDVAOBRBK-CYBMUJFWSA-N

> <PUBCHEM_SUBSTANCE_SYNONYM>
SCHEMBL16118543

> <PUBCHEM_XREF_EXT_ID>
SCHEMBL16118543

> <PUBCHEM_EXT_DATASOURCE_URL>
https://www.surechembl.org/

> <PUBCHEM_EXT_SUBSTANCE_URL>
https://www.surechembl.org/chemical/SCHEMBL16118543

> <PUBCHEM_CID_ASSOCIATIONS>
117607579  1

> <PUBCHEM_COORDINATE_TYPE>
1
3

> <PUBCHEM_BONDANNOTATIONS>
18  27  6

$$$$
