310943168
  -OEChem-07211613022D

 34 37  0     0  0  0  0  0  0999 V2000
    4.2867    1.2964    0.0000 F   0  0  0  0  0  0  0  0  0  0  0  0
    5.3769    1.0017    0.0000 F   0  0  0  0  0  0  0  0  0  0  0  0
    5.0527   -0.0884    0.0000 F   0  0  0  0  0  0  0  0  0  0  0  0
   -2.5190   -1.8561    0.0000 O   0  0  0  0  0  0  0  0  0  0  0  0
    1.7972    1.4289    0.0000 O   0  0  0  0  0  0  0  0  0  0  0  0
   -5.3769    1.4437    0.0000 O   0  0  0  0  0  0  0  0  0  0  0  0
   -3.2409   -0.6187    0.0000 N   0  0  0  0  0  0  0  0  0  0  0  0
   -3.9479    0.6187    0.0000 N   0  0  0  0  0  0  0  0  0  0  0  0
    1.0753    0.2063    0.0000 N   0  0  0  0  0  0  0  0  0  0  0  0
   -0.3536    1.8561    0.0000 N   0  0  0  0  0  0  0  0  0  0  0  0
    3.9479   -0.6187    0.0000 N   0  0  0  0  0  0  0  0  0  0  0  0
   -1.7825    0.2063    0.0000 C   0  0  0  0  0  0  0  0  0  0  0  0
   -1.0901    0.6187    0.0000 C   0  0  0  0  0  0  0  0  0  0  0  0
   -3.2261    0.2209    0.0000 C   0  0  0  0  0  0  0  0  0  0  0  0
   -2.5190    0.6040    0.0000 C   0  0  0  0  0  0  0  0  0  0  0  0
   -2.5190   -1.0164    0.0000 C   0  0  0  0  0  0  0  0  0  0  0  0
   -1.7972   -0.6187    0.0000 C   0  0  0  0  0  0  0  0  0  0  0  0
   -1.0753    1.4437    0.0000 C   0  0  0  0  0  0  0  0  0  0  0  0
   -0.3388    0.2063    0.0000 C   0  0  0  0  0  0  0  0  0  0  0  0
    0.3536    0.6187    0.0000 C   0  0  0  0  0  0  0  0  0  0  0  0
    2.5190    0.2063    0.0000 C   0  0  0  0  0  0  0  0  0  0  0  0
    3.9627    0.2063    0.0000 C   0  0  0  0  0  0  0  0  0  0  0  0
    1.7825    0.5892    0.0000 C   0  0  0  0  0  0  0  0  0  0  0  0
    4.6698    0.6040    0.0000 C   0  0  0  0  0  0  0  0  0  0  0  0
    0.3683    1.4289    0.0000 C   0  0  0  0  0  0  0  0  0  0  0  0
    3.2409    0.6187    0.0000 C   0  0  0  0  0  0  0  0  0  0  0  0
   -3.9479    1.4437    0.0000 C   0  0  0  0  0  0  0  0  0  0  0  0
   -4.6550    0.2209    0.0000 C   0  0  0  0  0  0  0  0  0  0  0  0
   -3.9774   -1.0459    0.0000 C   0  0  0  0  0  0  0  0  0  0  0  0
    2.5190   -0.6187    0.0000 C   0  0  0  0  0  0  0  0  0  0  0  0
   -1.7972    1.8266    0.0000 C   0  0  0  0  0  0  0  0  0  0  0  0
    3.2409   -1.0312    0.0000 C   0  0  0  0  0  0  0  0  0  0  0  0
   -4.6698    1.8561    0.0000 C   0  0  0  0  0  0  0  0  0  0  0  0
   -5.3769    0.6187    0.0000 C   0  0  0  0  0  0  0  0  0  0  0  0
  1 24  1  0  0  0  0
  2 24  1  0  0  0  0
  3 24  1  0  0  0  0
  4 16  2  0  0  0  0
  5 23  2  0  0  0  0
  6 33  1  0  0  0  0
  6 34  1  0  0  0  0
  7 14  1  0  0  0  0
  7 16  1  0  0  0  0
  7 29  1  0  0  0  0
  8 14  1  0  0  0  0
  8 27  1  0  0  0  0
  8 28  1  0  0  0  0
  9 20  1  0  0  0  0
  9 23  1  0  0  0  0
 10 18  1  0  0  0  0
 10 25  2  0  0  0  0
 11 22  1  0  0  0  0
 11 32  2  0  0  0  0
 12 13  1  0  0  0  0
 12 15  1  0  0  0  0
 12 17  2  0  0  0  0
 13 18  2  0  0  0  0
 13 19  1  0  0  0  0
 14 15  2  0  0  0  0
 16 17  1  0  0  0  0
 18 31  1  0  0  0  0
 19 20  2  0  0  0  0
 20 25  1  0  0  0  0
 21 23  1  0  0  0  0
 21 26  1  0  0  0  0
 21 30  2  0  0  0  0
 22 24  1  0  0  0  0
 22 26  2  0  0  0  0
 27 33  1  0  0  0  0
 28 34  1  0  0  0  0
 30 32  1  0  0  0  0
M  END
> <PUBCHEM_COMPOUND_ID_TYPE>
0

> <PUBCHEM_TOTAL_CHARGE>
0

> <PUBCHEM_SUBSTANCE_ID>
310943168

> <PUBCHEM_SUBSTANCE_VERSION>
1

> <PUBCHEM_EXT_DATASOURCE_NAME>
4488

> <PUBCHEM_EXT_DATASOURCE_REGID>
SCHEMBL16121228

> <PUBCHEM_SUBSTANCE_COMMENT>
InChI=1S/C23H22F3N5O3/c1-14-18(16-10-20(30(2)21(32)11-16)31-5-7-34-8-6-31)12-17(13-28-14)29-22(33)15-3-4-27-19(9-15)23(24,25)26/h3-4,9-13H,5-8H2,1-2H3,(H,29,33)
InChIKey=MUEHAHDRQYKWNJ-UHFFFAOYSA-N

> <PUBCHEM_SUBSTANCE_SYNONYM>
SCHEMBL16121228

> <PUBCHEM_XREF_EXT_ID>
SCHEMBL16121228

> <PUBCHEM_EXT_DATASOURCE_URL>
https://www.surechembl.org/

> <PUBCHEM_EXT_SUBSTANCE_URL>
https://www.surechembl.org/chemical/SCHEMBL16121228

> <PUBCHEM_CID_ASSOCIATIONS>
117609596  1

> <PUBCHEM_COORDINATE_TYPE>
1
3

$$$$
