310949718
  -OEChem-07211613022D

 23 24  0     0  0  0  0  0  0999 V2000
    2.4900    2.2970    0.0000 F   0  0  0  0  0  0  0  0  0  0  0  0
    3.2091    1.8842    0.0000 F   0  0  0  0  0  0  0  0  0  0  0  0
    3.2091    1.0453    0.0000 F   0  0  0  0  0  0  0  0  0  0  0  0
    2.4767   -0.2064    0.0000 F   0  0  0  0  0  0  0  0  0  0  0  0
   -1.0653    1.0453    0.0000 O   0  0  0  0  0  0  0  0  0  0  0  0
   -1.0785   -2.2970    0.0000 O   0  0  0  0  0  0  0  0  0  0  0  0
   -0.3728   -0.2064    0.0000 N   0  0  0  0  0  0  0  0  0  0  0  0
    1.7710    1.0453    0.0000 C   0  0  0  0  0  0  0  0  0  0  0  0
    2.5033    1.4714    0.0000 C   0  0  0  0  0  0  0  0  0  0  0  0
    1.7577    0.2197    0.0000 C   0  0  0  0  0  0  0  0  0  0  0  0
    0.3329    0.2197    0.0000 C   0  0  0  0  0  0  0  0  0  0  0  0
   -1.7976   -0.2197    0.0000 C   0  0  0  0  0  0  0  0  0  0  0  0
    1.0387   -0.2064    0.0000 C   0  0  0  0  0  0  0  0  0  0  0  0
    1.0519    1.4448    0.0000 C   0  0  0  0  0  0  0  0  0  0  0  0
   -1.0919    0.1931    0.0000 C   0  0  0  0  0  0  0  0  0  0  0  0
   -1.7976   -1.0320    0.0000 C   0  0  0  0  0  0  0  0  0  0  0  0
    0.3595    1.0453    0.0000 C   0  0  0  0  0  0  0  0  0  0  0  0
   -2.5167    0.2064    0.0000 C   0  0  0  0  0  0  0  0  0  0  0  0
   -1.0785   -1.4448    0.0000 C   0  0  0  0  0  0  0  0  0  0  0  0
   -2.5167   -1.4448    0.0000 C   0  0  0  0  0  0  0  0  0  0  0  0
   -3.2091   -0.2064    0.0000 C   0  0  0  0  0  0  0  0  0  0  0  0
   -3.2091   -1.0320    0.0000 C   0  0  0  0  0  0  0  0  0  0  0  0
   -0.5859   -1.1917    0.0000 C   0  0  0  0  0  0  0  0  0  0  0  0
  1  9  1  0  0  0  0
  2  9  1  0  0  0  0
  3  9  1  0  0  0  0
  4 10  1  0  0  0  0
  5 15  2  0  0  0  0
  6 19  2  0  0  0  0
  7 11  1  0  0  0  0
  7 15  1  0  0  0  0
  8  9  1  0  0  0  0
  8 10  1  0  0  0  0
  8 14  2  0  0  0  0
 10 13  2  0  0  0  0
 11 13  1  0  0  0  0
 11 17  2  0  0  0  0
 12 15  1  0  0  0  0
 12 16  1  0  0  0  0
 12 18  2  0  0  0  0
 14 17  1  0  0  0  0
 16 19  1  0  0  0  0
 16 20  2  0  0  0  0
 18 21  1  0  0  0  0
 19 23  1  0  0  0  0
 20 22  1  0  0  0  0
 21 22  2  0  0  0  0
M  END
> <PUBCHEM_COMPOUND_ID_TYPE>
0

> <PUBCHEM_TOTAL_CHARGE>
0

> <PUBCHEM_SUBSTANCE_ID>
310949718

> <PUBCHEM_SUBSTANCE_VERSION>
1

> <PUBCHEM_EXT_DATASOURCE_NAME>
4488

> <PUBCHEM_EXT_DATASOURCE_REGID>
SCHEMBL16127916

> <PUBCHEM_SUBSTANCE_COMMENT>
InChI=1S/C16H11F4NO2/c1-9(22)11-4-2-3-5-12(11)15(23)21-10-6-7-13(14(17)8-10)16(18,19)20/h2-8H,1H3,(H,21,23)
InChIKey=IEQIRIHRPOOZSH-UHFFFAOYSA-N

> <PUBCHEM_SUBSTANCE_SYNONYM>
SCHEMBL16127916

> <PUBCHEM_XREF_EXT_ID>
SCHEMBL16127916

> <PUBCHEM_EXT_DATASOURCE_URL>
https://www.surechembl.org/

> <PUBCHEM_EXT_SUBSTANCE_URL>
https://www.surechembl.org/chemical/SCHEMBL16127916

> <PUBCHEM_CID_ASSOCIATIONS>
117615066  1

> <PUBCHEM_COORDINATE_TYPE>
1
3

$$$$
