310946891
  -OEChem-07211613022D

 38 41  0     1  0  0  0  0  0999 V2000
    0.6061    1.4325    0.0000 O   0  0  0  0  0  0  0  0  0  0  0  0
   -2.5159   -2.0385    0.0000 O   0  0  0  0  0  0  0  0  0  0  0  0
    1.7997    2.5527    0.0000 O   0  0  0  0  0  0  0  0  0  0  0  0
    0.8448    3.6179    0.0000 O   0  0  0  0  0  0  0  0  0  0  0  0
   -1.0468    0.3306    0.0000 N   0  0  0  0  0  0  0  0  0  0  0  0
   -0.5509   -0.3489    0.0000 N   0  0  0  0  0  0  0  0  0  0  0  0
   -0.7530   -1.7997    0.0000 N   0  0  0  0  0  0  0  0  0  0  0  0
   -3.2322   -0.7897    0.0000 N   0  0  0  0  0  0  0  0  0  0  0  0
   -2.7915    2.0936    0.0000 N   0  0  0  0  0  0  0  0  0  0  0  0
    1.8732   -3.8015    0.0000 N   0  0  0  0  0  0  0  0  0  0  0  0
   -0.8080    1.1386    0.0000 C   0  0  3  0  0  0  0  0  0  0  0  0
   -1.8181    0.0551    0.0000 C   0  0  0  0  0  0  0  0  0  0  0  0
   -1.8181   -0.7713    0.0000 C   0  0  0  0  0  0  0  0  0  0  0  0
   -1.0284   -1.0100    0.0000 C   0  0  0  0  0  0  0  0  0  0  0  0
   -2.5159   -1.1754    0.0000 C   0  0  0  0  0  0  0  0  0  0  0  0
    0.0000    0.8815    0.0000 C   0  0  0  0  0  0  0  0  0  0  0  0
   -0.9734    1.9283    0.0000 C   0  0  0  0  0  0  0  0  0  0  0  0
   -2.5527    0.4591    0.0000 C   0  0  0  0  0  0  0  0  0  0  0  0
   -1.6161    0.9550    0.0000 C   0  0  0  0  0  0  0  0  0  0  0  0
    0.4040    2.2222    0.0000 C   0  0  3  0  0  0  0  0  0  0  0  0
   -0.3857    2.4793    0.0000 C   0  0  0  0  0  0  0  0  0  0  0  0
   -3.2506    0.0368    0.0000 C   0  0  0  0  0  0  0  0  0  0  0  0
   -0.0918   -2.2956    0.0000 C   0  0  0  0  0  0  0  0  0  0  0  0
    1.0284    2.8282    0.0000 C   0  0  0  0  0  0  0  0  0  0  0  0
   -2.1854    1.5059    0.0000 C   0  0  0  0  0  0  0  0  0  0  0  0
    0.6795   -2.0018    0.0000 C   0  0  0  0  0  0  0  0  0  0  0  0
   -0.1836   -3.1220    0.0000 C   0  0  0  0  0  0  0  0  0  0  0  0
    1.3223   -2.4793    0.0000 C   0  0  0  0  0  0  0  0  0  0  0  0
    1.1937   -3.3057    0.0000 C   0  0  0  0  0  0  0  0  0  0  0  0
    0.4407   -3.6179    0.0000 C   0  0  0  0  0  0  0  0  0  0  0  0
    2.4058    3.1771    0.0000 C   0  0  0  0  0  0  0  0  0  0  0  0
    2.0385   -2.1670    0.0000 C   0  0  0  0  0  0  0  0  0  0  0  0
    2.1487    3.9668    0.0000 C   0  0  0  0  0  0  0  0  0  0  0  0
    2.9751    3.7281    0.0000 C   0  0  0  0  0  0  0  0  0  0  0  0
    3.2138    2.9567    0.0000 C   0  0  0  0  0  0  0  0  0  0  0  0
    2.7363   -2.6629    0.0000 C   0  0  0  0  0  0  0  0  0  0  0  0
    2.6261   -3.4709    0.0000 C   0  0  0  0  0  0  0  0  0  0  0  0
    3.2506   -3.9668    0.0000 C   0  0  0  0  0  0  0  0  0  0  0  0
  1 16  1  0  0  0  0
  1 20  1  0  0  0  0
  2 15  2  0  0  0  0
  3 24  1  0  0  0  0
  3 31  1  0  0  0  0
  4 24  2  0  0  0  0
  5  6  1  0  0  0  0
  5 11  1  0  0  0  0
  5 12  1  0  0  0  0
  6 14  2  0  0  0  0
  7 14  1  0  0  0  0
  7 23  1  0  0  0  0
  8 15  1  0  0  0  0
  8 22  1  0  0  0  0
  9 25  3  0  0  0  0
 10 29  1  0  0  0  0
 11 16  1  0  0  0  0
 11 17  1  0  0  0  0
 11 19  1  1  0  0  0
 12 13  2  0  0  0  0
 12 18  1  0  0  0  0
 13 14  1  0  0  0  0
 13 15  1  0  0  0  0
 17 21  1  0  0  0  0
 18 22  2  0  0  0  0
 19 25  1  0  0  0  0
 20 21  1  0  0  0  0
 20 24  1  1  0  0  0
 23 26  1  0  0  0  0
 23 27  2  0  0  0  0
 26 28  2  0  0  0  0
 27 30  1  0  0  0  0
 28 29  1  0  0  0  0
 28 32  1  0  0  0  0
 29 30  2  0  0  0  0
 31 33  1  0  0  0  0
 31 34  1  0  0  0  0
 31 35  1  0  0  0  0
 32 36  2  0  0  0  0
 36 37  1  0  0  0  0
 37 38  2  0  0  0  0
M  END
> <PUBCHEM_COMPOUND_ID_TYPE>
0

> <PUBCHEM_TOTAL_CHARGE>
0

> <PUBCHEM_SUBSTANCE_ID>
310946891

> <PUBCHEM_SUBSTANCE_VERSION>
1

> <PUBCHEM_EXT_DATASOURCE_NAME>
4488

> <PUBCHEM_EXT_DATASOURCE_REGID>
SCHEMBL16125015

> <PUBCHEM_SUBSTANCE_COMMENT>
InChI=1S/C28H32N6O4/c1-5-6-7-18-16-19(8-9-20(18)30)32-24-23-21(11-15-31-25(23)35)34(33-24)28(13-14-29)12-10-22(37-17-28)26(36)38-27(2,3)4/h5-9,11,15-16,22H,1,10,12-13,17,30H2,2-4H3,(H,31,35)(H,32,33)/b7-6-/t22-,28-/m0/s1
InChIKey=YMNMEPKEFPPKAL-FEYMVSOQSA-N

> <PUBCHEM_SUBSTANCE_SYNONYM>
SCHEMBL16125015

> <PUBCHEM_XREF_EXT_ID>
SCHEMBL16125015

> <PUBCHEM_EXT_DATASOURCE_URL>
https://www.surechembl.org/

> <PUBCHEM_EXT_SUBSTANCE_URL>
https://www.surechembl.org/chemical/SCHEMBL16125015

> <PUBCHEM_CID_ASSOCIATIONS>
117612749  1

> <PUBCHEM_COORDINATE_TYPE>
1
3

> <PUBCHEM_BONDANNOTATIONS>
11  19  5
20  24  5

$$$$
