310945800
  -OEChem-07211613022D

 29 31  0     1  0  0  0  0  0999 V2000
    4.0388   -1.5276    0.0000 O   0  0  0  0  0  0  0  0  0  0  0  0
    1.7508   -1.5276    0.0000 O   0  0  0  0  0  0  0  0  0  0  0  0
    1.0254   -1.1090    0.0000 O   0  0  0  0  0  0  0  0  0  0  0  0
   -1.1509    0.9974    0.0000 O   0  0  0  0  0  0  0  0  0  0  0  0
   -0.4116    1.4160    0.0000 O   0  0  0  0  0  0  0  0  0  0  0  0
   -4.0388    0.1605    0.0000 O   0  0  0  0  0  0  0  0  0  0  0  0
    1.7648    0.1605    0.0000 N   0  0  0  0  0  0  0  0  0  0  0  0
   -0.4116   -0.2581    0.0000 N   0  0  0  0  0  0  0  0  0  0  0  0
   -2.5878    0.1605    0.0000 N   0  0  0  0  0  0  0  0  0  0  0  0
    3.2016   -1.4578    0.0000 C   0  0  3  0  0  0  0  0  0  0  0  0
    2.4762   -1.0393    0.0000 C   0  0  0  0  0  0  0  0  0  0  0  0
    3.6202   -0.7882    0.0000 C   0  0  0  0  0  0  0  0  0  0  0  0
    2.5041   -0.2302    0.0000 C   0  0  3  0  0  0  0  0  0  0  0  0
    3.2156   -2.3089    0.0000 C   0  0  0  0  0  0  0  0  0  0  0  0
    3.2016    0.1883    0.0000 C   0  0  0  0  0  0  0  0  0  0  0  0
    1.0393   -0.2023    0.0000 C   0  0  0  0  0  0  0  0  0  0  0  0
    0.3139    0.1883    0.0000 C   0  0  3  0  0  0  0  0  0  0  0  0
    3.2296    1.0393    0.0000 C   0  0  0  0  0  0  0  0  0  0  0  0
   -1.1369    0.1744    0.0000 C   0  0  0  0  0  0  0  0  0  0  0  0
   -1.8485   -0.2302    0.0000 C   0  0  0  0  0  0  0  0  0  0  0  0
    2.5459    1.5276    0.0000 C   0  0  0  0  0  0  0  0  0  0  0  0
    3.8853    1.5276    0.0000 C   0  0  0  0  0  0  0  0  0  0  0  0
    0.3000    1.0254    0.0000 C   0  0  0  0  0  0  0  0  0  0  0  0
   -1.8624   -1.0672    0.0000 C   0  0  0  0  0  0  0  0  0  0  0  0
   -3.2854   -0.2441    0.0000 C   0  0  0  0  0  0  0  0  0  0  0  0
    2.7970    2.3089    0.0000 C   0  0  0  0  0  0  0  0  0  0  0  0
    3.6202    2.3089    0.0000 C   0  0  0  0  0  0  0  0  0  0  0  0
   -2.5739   -1.4857    0.0000 C   0  0  0  0  0  0  0  0  0  0  0  0
   -3.3133   -1.0672    0.0000 C   0  0  0  0  0  0  0  0  0  0  0  0
  1 10  1  0  0  0  0
  1 12  1  0  0  0  0
  2 11  2  0  0  0  0
  3 16  2  0  0  0  0
  4 19  2  0  0  0  0
  5 23  1  0  0  0  0
  6 25  2  0  0  0  0
 13  7  1  1  0  0  0
  7 16  1  0  0  0  0
 17  8  1  1  0  0  0
  8 19  1  0  0  0  0
  9 20  1  0  0  0  0
  9 25  1  0  0  0  0
 10 11  1  1  0  0  0
 10 12  1  0  0  0  0
 10 14  1  6  0  0  0
 11 13  1  0  0  0  0
 13 15  1  0  0  0  0
 15 18  1  0  0  0  0
 16 17  1  0  0  0  0
 17 23  1  0  0  0  0
 18 21  1  0  0  0  0
 18 22  1  0  0  0  0
 19 20  1  0  0  0  0
 20 24  2  0  0  0  0
 21 26  1  0  0  0  0
 22 27  1  0  0  0  0
 24 28  1  0  0  0  0
 25 29  1  0  0  0  0
 26 27  1  0  0  0  0
 28 29  2  0  0  0  0
M  END
> <PUBCHEM_COMPOUND_ID_TYPE>
0

> <PUBCHEM_TOTAL_CHARGE>
0

> <PUBCHEM_SUBSTANCE_ID>
310945800

> <PUBCHEM_SUBSTANCE_VERSION>
1

> <PUBCHEM_EXT_DATASOURCE_NAME>
4488

> <PUBCHEM_EXT_DATASOURCE_REGID>
SCHEMBL16123904

> <PUBCHEM_SUBSTANCE_COMMENT>
InChI=1S/C20H27N3O6/c1-20(11-29-20)17(26)14(9-12-5-2-3-6-12)22-19(28)15(10-24)23-18(27)13-7-4-8-16(25)21-13/h4,7-8,12,14-15,24H,2-3,5-6,9-11H2,1H3,(H,21,25)(H,22,28)(H,23,27)/t14-,15-,20+/m0/s1
InChIKey=LOCFJZUGZHCWTP-AUSJPIAWSA-N

> <PUBCHEM_SUBSTANCE_SYNONYM>
SCHEMBL16123904

> <PUBCHEM_XREF_EXT_ID>
SCHEMBL16123904

> <PUBCHEM_EXT_DATASOURCE_URL>
https://www.surechembl.org/

> <PUBCHEM_EXT_SUBSTANCE_URL>
https://www.surechembl.org/chemical/SCHEMBL16123904

> <PUBCHEM_CID_ASSOCIATIONS>
117611787  1

> <PUBCHEM_COORDINATE_TYPE>
1
3

> <PUBCHEM_BONDANNOTATIONS>
10  11  5
10  14  6
13  7  5
17  8  5

$$$$
