310930438
  -OEChem-07211613022D

 26 30  0     1  0  0  0  0  0999 V2000
    2.5054   -6.0464    0.0000 O   0  0  0  0  0  0  0  0  0  0  0  0
    1.6703   -2.1380    0.0000 O   0  0  0  0  0  0  0  0  0  0  0  0
    1.2360   -4.2425    0.0000 N   0  0  0  0  0  0  0  0  0  0  0  0
    1.6368   -3.5410    0.0000 N   0  0  0  0  0  0  0  0  0  0  0  0
    0.1670   -5.0108    0.0000 N   0  0  0  0  0  0  0  0  0  0  0  0
    2.5054   -0.7015    0.0000 N   0  0  0  0  0  0  0  0  0  0  0  0
    1.4698   -5.0108    0.0000 C   0  0  0  0  0  0  0  0  0  0  0  0
    2.2382   -5.2781    0.0000 C   0  0  0  0  0  0  0  0  0  0  0  0
    0.4009   -4.2425    0.0000 C   0  0  0  0  0  0  0  0  0  0  0  0
    0.8017   -5.5119    0.0000 C   0  0  0  0  0  0  0  0  0  0  0  0
    3.3071   -6.0798    0.0000 C   0  0  0  0  0  0  0  0  0  0  0  0
    3.5744   -5.2781    0.0000 C   0  0  0  0  0  0  0  0  0  0  0  0
    2.9063   -4.8104    0.0000 C   0  0  0  0  0  0  0  0  0  0  0  0
    1.2360   -2.8394    0.0000 C   0  0  0  0  0  0  0  0  0  0  0  0
    0.0000   -3.5076    0.0000 C   0  0  0  0  0  0  0  0  0  0  0  0
    0.4009   -2.8394    0.0000 C   0  0  0  0  0  0  0  0  0  0  0  0
    3.8750   -6.6811    0.0000 C   0  0  0  0  0  0  0  0  0  0  0  0
    4.4095   -5.1110    0.0000 C   0  0  0  0  0  0  0  0  0  0  0  0
    1.2694   -1.4030    0.0000 C   0  0  3  0  0  0  0  0  0  0  0  0
    4.6767   -6.5140    0.0000 C   0  0  0  0  0  0  0  0  0  0  0  0
    4.9440   -5.7123    0.0000 C   0  0  0  0  0  0  0  0  0  0  0  0
    1.7037   -0.7015    0.0000 C   0  0  3  0  0  0  0  0  0  0  0  0
    0.4677   -1.4030    0.0000 C   0  0  0  0  0  0  0  0  0  0  0  0
    1.2694    0.0000    0.0000 C   0  0  0  0  0  0  0  0  0  0  0  0
    0.0334   -0.7015    0.0000 C   0  0  0  0  0  0  0  0  0  0  0  0
    0.4677    0.0000    0.0000 C   0  0  0  0  0  0  0  0  0  0  0  0
  1  8  1  0  0  0  0
  1 11  1  0  0  0  0
  2 14  1  0  0  0  0
 19  2  1  6  0  0  0
  3  4  1  0  0  0  0
  3  7  1  0  0  0  0
  3  9  1  0  0  0  0
  4 14  2  0  0  0  0
  5  9  2  0  0  0  0
  5 10  1  0  0  0  0
 22  6  1  1  0  0  0
  7  8  1  0  0  0  0
  7 10  2  0  0  0  0
  8 13  2  0  0  0  0
  9 15  1  0  0  0  0
 11 12  2  0  0  0  0
 11 17  1  0  0  0  0
 12 13  1  0  0  0  0
 12 18  1  0  0  0  0
 14 16  1  0  0  0  0
 15 16  2  0  0  0  0
 17 20  2  0  0  0  0
 18 21  2  0  0  0  0
 19 22  1  0  0  0  0
 19 23  1  0  0  0  0
 20 21  1  0  0  0  0
 22 24  1  0  0  0  0
 23 25  1  0  0  0  0
 24 26  1  0  0  0  0
 25 26  1  0  0  0  0
M  END
> <PUBCHEM_COMPOUND_ID_TYPE>
0

> <PUBCHEM_TOTAL_CHARGE>
0

> <PUBCHEM_SUBSTANCE_ID>
310930438

> <PUBCHEM_SUBSTANCE_VERSION>
1

> <PUBCHEM_EXT_DATASOURCE_NAME>
4488

> <PUBCHEM_EXT_DATASOURCE_REGID>
SCHEMBL16107728

> <PUBCHEM_SUBSTANCE_COMMENT>
InChI=1S/C20H20N4O2/c21-14-6-2-4-8-17(14)26-20-10-9-19-22-12-15(24(19)23-20)18-11-13-5-1-3-7-16(13)25-18/h1,3,5,7,9-12,14,17H,2,4,6,8,21H2/t14-,17-/m1/s1
InChIKey=QLRAZPPSOATMKB-RHSMWYFYSA-N

> <PUBCHEM_SUBSTANCE_SYNONYM>
SCHEMBL16107728

> <PUBCHEM_XREF_EXT_ID>
SCHEMBL16107728

> <PUBCHEM_EXT_DATASOURCE_URL>
https://www.surechembl.org/

> <PUBCHEM_EXT_SUBSTANCE_URL>
https://www.surechembl.org/chemical/SCHEMBL16107728

> <PUBCHEM_CID_ASSOCIATIONS>
71508995  1

> <PUBCHEM_COORDINATE_TYPE>
1
3

> <PUBCHEM_BONDANNOTATIONS>
19  2  6
22  6  5

$$$$
