310936757
  -OEChem-07211613022D

 21 23  0     0  0  0  0  0  0999 V2000
    1.2195   -6.4562    0.0000 Cl  0  0  0  0  0  0  0  0  0  0  0  0
    2.4749   -4.3041    0.0000 O   0  0  0  0  0  0  0  0  0  0  0  0
    2.4749   -1.4706    0.0000 N   0  0  0  0  0  0  0  0  0  0  0  0
    0.0000    0.0000    0.0000 N   0  0  0  0  0  0  0  0  0  0  0  0
    2.0445   -2.1521    0.0000 C   0  0  0  0  0  0  0  0  0  0  0  0
    1.2195   -2.1521    0.0000 C   0  0  0  0  0  0  0  0  0  0  0  0
    2.0445   -3.5868    0.0000 C   0  0  0  0  0  0  0  0  0  0  0  0
    2.4749   -2.8695    0.0000 C   0  0  0  0  0  0  0  0  0  0  0  0
    0.8249   -1.4347    0.0000 C   0  0  0  0  0  0  0  0  0  0  0  0
    0.8249   -2.8695    0.0000 C   0  0  0  0  0  0  0  0  0  0  0  0
    1.2554   -0.7174    0.0000 C   0  0  0  0  0  0  0  0  0  0  0  0
    1.2195   -3.5868    0.0000 C   0  0  0  0  0  0  0  0  0  0  0  0
    2.0803   -0.7174    0.0000 C   0  0  0  0  0  0  0  0  0  0  0  0
    2.4749   -5.7389    0.0000 C   0  0  0  0  0  0  0  0  0  0  0  0
    2.0445   -5.0215    0.0000 C   0  0  0  0  0  0  0  0  0  0  0  0
    2.0445   -6.4562    0.0000 C   0  0  0  0  0  0  0  0  0  0  0  0
    0.8249    0.0000    0.0000 C   0  0  0  0  0  0  0  0  0  0  0  0
    3.2999   -5.7389    0.0000 C   0  0  0  0  0  0  0  0  0  0  0  0
    2.4390   -7.1736    0.0000 C   0  0  0  0  0  0  0  0  0  0  0  0
    3.6944   -6.4562    0.0000 C   0  0  0  0  0  0  0  0  0  0  0  0
    3.2640   -7.1736    0.0000 C   0  0  0  0  0  0  0  0  0  0  0  0
  1 16  1  0  0  0  0
  2  7  1  0  0  0  0
  2 15  1  0  0  0  0
  3  5  2  0  0  0  0
  3 13  1  0  0  0  0
  4 17  1  0  0  0  0
  5  6  1  0  0  0  0
  5  8  1  0  0  0  0
  6  9  2  0  0  0  0
  6 10  1  0  0  0  0
  7  8  2  0  0  0  0
  7 12  1  0  0  0  0
  9 11  1  0  0  0  0
 10 12  2  0  0  0  0
 11 13  2  0  0  0  0
 11 17  1  0  0  0  0
 14 15  1  0  0  0  0
 14 16  2  0  0  0  0
 14 18  1  0  0  0  0
 16 19  1  0  0  0  0
 18 20  2  0  0  0  0
 19 21  2  0  0  0  0
 20 21  1  0  0  0  0
M  END
> <PUBCHEM_COMPOUND_ID_TYPE>
0

> <PUBCHEM_TOTAL_CHARGE>
0

> <PUBCHEM_SUBSTANCE_ID>
310936757

> <PUBCHEM_SUBSTANCE_VERSION>
1

> <PUBCHEM_EXT_DATASOURCE_NAME>
4488

> <PUBCHEM_EXT_DATASOURCE_REGID>
SCHEMBL16114441

> <PUBCHEM_SUBSTANCE_COMMENT>
InChI=1S/C17H15ClN2O/c18-16-4-2-1-3-14(16)11-21-15-6-5-13-7-12(9-19)10-20-17(13)8-15/h1-8,10H,9,11,19H2
InChIKey=WYAXQIXYEIBGCP-UHFFFAOYSA-N

> <PUBCHEM_SUBSTANCE_SYNONYM>
SCHEMBL16114441

> <PUBCHEM_XREF_EXT_ID>
SCHEMBL16114441

> <PUBCHEM_EXT_DATASOURCE_URL>
https://www.surechembl.org/

> <PUBCHEM_EXT_SUBSTANCE_URL>
https://www.surechembl.org/chemical/SCHEMBL16114441

> <PUBCHEM_CID_ASSOCIATIONS>
117604654  1

> <PUBCHEM_COORDINATE_TYPE>
1
3

$$$$
