310929108
  -OEChem-07211613022D

 59 63  0     0  0  0  0  0  0999 V2000
    0.7425   -9.8995    0.0000 O   0  0  0  0  0  0  0  0  0  0  0  0
    3.5473  -12.3744    0.0000 O   0  0  0  0  0  0  0  0  0  0  0  0
    5.0322  -12.3744    0.0000 O   0  0  0  0  0  0  0  0  0  0  0  0
    1.4024  -14.4367    0.0000 O   0  0  0  0  0  0  0  0  0  0  0  0
    3.7948   -5.0322    0.0000 O   0  0  0  0  0  0  0  0  0  0  0  0
    5.1148   -7.5896    0.0000 O   0  0  0  0  0  0  0  0  0  0  0  0
    1.6499   -4.5373    0.0000 O   0  0  0  0  0  0  0  0  0  0  0  0
    0.9899   -2.3924    0.0000 O   0  0  0  0  0  0  0  0  0  0  0  0
    2.4749   -0.8249    0.0000 O   0  0  0  0  0  0  0  0  0  0  0  0
    2.1449  -13.1993    0.0000 N   0  0  0  0  0  0  0  0  0  0  0  0
    0.7425  -13.1993    0.0000 N   0  0  0  0  0  0  0  0  0  0  0  0
    5.6922  -13.6118    0.0000 N   0  0  0  0  0  0  0  0  0  0  0  0
    2.2274   -7.4246    0.0000 N   0  0  0  0  0  0  0  0  0  0  0  0
    2.8873   -8.7446    0.0000 N   0  0  0  0  0  0  0  0  0  0  0  0
    7.1772  -11.9619    0.0000 N   0  0  0  0  0  0  0  0  0  0  0  0
    3.5473  -13.1993    0.0000 C   0  0  0  0  0  0  0  0  0  0  0  0
    2.8873  -13.6118    0.0000 C   0  0  0  0  0  0  0  0  0  0  0  0
    4.2898  -13.6118    0.0000 C   0  0  0  0  0  0  0  0  0  0  0  0
    1.4024  -11.9619    0.0000 C   0  0  0  0  0  0  0  0  0  0  0  0
    3.5473  -14.8493    0.0000 C   0  0  0  0  0  0  0  0  0  0  0  0
    1.4024  -11.1369    0.0000 C   0  0  0  0  0  0  0  0  0  0  0  0
    0.7425  -12.3744    0.0000 C   0  0  0  0  0  0  0  0  0  0  0  0
    0.7425  -10.7244    0.0000 C   0  0  0  0  0  0  0  0  0  0  0  0
    2.8873  -14.4367    0.0000 C   0  0  0  0  0  0  0  0  0  0  0  0
    4.2898  -14.4367    0.0000 C   0  0  0  0  0  0  0  0  0  0  0  0
    3.5473  -15.6742    0.0000 C   0  0  0  0  0  0  0  0  0  0  0  0
    5.0322  -13.1993    0.0000 C   0  0  0  0  0  0  0  0  0  0  0  0
    1.4024  -13.6118    0.0000 C   0  0  0  0  0  0  0  0  0  0  0  0
    0.0000  -11.9619    0.0000 C   0  0  0  0  0  0  0  0  0  0  0  0
    0.0000  -11.1369    0.0000 C   0  0  0  0  0  0  0  0  0  0  0  0
    2.1449  -12.3744    0.0000 C   0  0  0  0  0  0  0  0  0  0  0  0
    2.1449  -10.7244    0.0000 C   0  0  0  0  0  0  0  0  0  0  0  0
    1.4849   -9.4870    0.0000 C   0  0  0  0  0  0  0  0  0  0  0  0
    3.0523  -12.1268    0.0000 C   0  0  0  0  0  0  0  0  0  0  0  0
    2.8873  -11.1369    0.0000 C   0  0  0  0  0  0  0  0  0  0  0  0
    2.7223  -15.6742    0.0000 C   0  0  0  0  0  0  0  0  0  0  0  0
    3.5473  -16.4991    0.0000 C   0  0  0  0  0  0  0  0  0  0  0  0
    4.3723  -15.6742    0.0000 C   0  0  0  0  0  0  0  0  0  0  0  0
    1.4849   -8.6620    0.0000 C   0  0  0  0  0  0  0  0  0  0  0  0
    2.2274   -8.2496    0.0000 C   0  0  0  0  0  0  0  0  0  0  0  0
    2.1449   -9.8995    0.0000 C   0  0  0  0  0  0  0  0  0  0  0  0
    2.9699   -7.0946    0.0000 C   0  0  0  0  0  0  0  0  0  0  0  0
    2.8873  -11.9619    0.0000 C   0  0  0  0  0  0  0  0  0  0  0  0
    2.8873   -9.5695    0.0000 C   0  0  0  0  0  0  0  0  0  0  0  0
    6.4347  -13.1993    0.0000 C   0  0  0  0  0  0  0  0  0  0  0  0
    2.9699   -6.2697    0.0000 C   0  0  0  0  0  0  0  0  0  0  0  0
    3.7123   -5.8572    0.0000 C   0  0  0  0  0  0  0  0  0  0  0  0
    3.6298   -7.5071    0.0000 C   0  0  0  0  0  0  0  0  0  0  0  0
    4.3723   -7.0946    0.0000 C   0  0  0  0  0  0  0  0  0  0  0  0
    4.4548   -6.2697    0.0000 C   0  0  0  0  0  0  0  0  0  0  0  0
    6.4347  -12.3744    0.0000 C   0  0  0  0  0  0  0  0  0  0  0  0
    3.0523   -4.6198    0.0000 C   0  0  0  0  0  0  0  0  0  0  0  0
    5.8572   -7.1772    0.0000 C   0  0  0  0  0  0  0  0  0  0  0  0
    2.3099   -4.9498    0.0000 C   0  0  0  0  0  0  0  0  0  0  0  0
    1.6499   -3.7123    0.0000 C   0  0  0  0  0  0  0  0  0  0  0  0
    0.9899   -3.2998    0.0000 C   0  0  0  0  0  0  0  0  0  0  0  0
    1.7324   -2.0624    0.0000 C   0  0  0  0  0  0  0  0  0  0  0  0
    1.7324   -1.2374    0.0000 C   0  0  0  0  0  0  0  0  0  0  0  0
    2.4749    0.0000    0.0000 C   0  0  0  0  0  0  0  0  0  0  0  0
  1 23  1  0  0  0  0
  1 33  1  0  0  0  0
  2 16  1  0  0  0  0
  2 43  1  0  0  0  0
  3 27  2  0  0  0  0
  4 28  2  0  0  0  0
  5 47  1  0  0  0  0
  5 52  1  0  0  0  0
  6 49  1  0  0  0  0
  6 53  1  0  0  0  0
  7 54  1  0  0  0  0
  7 55  1  0  0  0  0
  8 56  1  0  0  0  0
  8 57  1  0  0  0  0
  9 58  1  0  0  0  0
  9 59  1  0  0  0  0
 10 17  1  0  0  0  0
 10 28  1  0  0  0  0
 11 22  1  0  0  0  0
 11 28  1  0  0  0  0
 12 27  1  0  0  0  0
 12 45  1  0  0  0  0
 13 40  1  0  0  0  0
 13 42  1  0  0  0  0
 14 40  1  0  0  0  0
 14 44  2  0  0  0  0
 15 51  1  0  0  0  0
 16 17  1  0  0  0  0
 16 18  2  0  0  0  0
 17 24  2  0  0  0  0
 18 25  1  0  0  0  0
 18 27  1  0  0  0  0
 19 21  2  0  0  0  0
 19 22  1  0  0  0  0
 19 31  1  0  0  0  0
 20 24  1  0  0  0  0
 20 25  2  0  0  0  0
 20 26  1  0  0  0  0
 21 23  1  0  0  0  0
 21 32  1  0  0  0  0
 22 29  2  0  0  0  0
 23 30  2  0  0  0  0
 26 36  1  0  0  0  0
 26 37  1  0  0  0  0
 26 38  1  0  0  0  0
 29 30  1  0  0  0  0
 31 34  2  0  0  0  0
 32 35  2  0  0  0  0
 33 39  1  0  0  0  0
 33 41  2  0  0  0  0
 34 35  1  0  0  0  0
 39 40  2  0  0  0  0
 41 44  1  0  0  0  0
 42 46  2  0  0  0  0
 42 48  1  0  0  0  0
 45 51  1  0  0  0  0
 46 47  1  0  0  0  0
 47 50  2  0  0  0  0
 48 49  2  0  0  0  0
 49 50  1  0  0  0  0
 52 54  1  0  0  0  0
 55 56  1  0  0  0  0
 57 58  1  0  0  0  0
M  END
> <PUBCHEM_COMPOUND_ID_TYPE>
0

> <PUBCHEM_TOTAL_CHARGE>
0

> <PUBCHEM_SUBSTANCE_ID>
310929108

> <PUBCHEM_SUBSTANCE_VERSION>
1

> <PUBCHEM_EXT_DATASOURCE_NAME>
4488

> <PUBCHEM_EXT_DATASOURCE_REGID>
SCHEMBL16106271

> <PUBCHEM_SUBSTANCE_COMMENT>
InChI=1S/C44H54N6O9/c1-44(2,3)29-23-36(42(51)47-16-14-45)41(55-6)38(24-29)50-43(52)49-37-11-12-39(35-10-8-7-9-34(35)37)59-31-13-15-46-40(28-31)48-30-25-32(54-5)27-33(26-30)58-22-21-57-20-19-56-18-17-53-4/h7-13,15,23-28H,14,16-22,45H2,1-6H3,(H,46,48)(H,47,51)(H2,49,50,52)
InChIKey=OBHGAVYZUKBBLT-UHFFFAOYSA-N

> <PUBCHEM_SUBSTANCE_SYNONYM>
SCHEMBL16106271

> <PUBCHEM_XREF_EXT_ID>
SCHEMBL16106271

> <PUBCHEM_EXT_DATASOURCE_URL>
https://www.surechembl.org/

> <PUBCHEM_EXT_SUBSTANCE_URL>
https://www.surechembl.org/chemical/SCHEMBL16106271

> <PUBCHEM_CID_ASSOCIATIONS>
86272356  1

> <PUBCHEM_COORDINATE_TYPE>
1
3

$$$$
