310929172
  -OEChem-07211613022D

 59 64  0     1  0  0  0  0  0999 V2000
    1.4837   -1.2791    0.0000 S   0  0  0  0  0  0  0  0  0  0  0  0
    7.3162   -1.2791    0.0000 O   0  0  0  0  0  0  0  0  0  0  0  0
    3.6325   -2.5581    0.0000 O   0  0  0  0  0  0  0  0  0  0  0  0
    5.1163   -4.2465    0.0000 O   0  0  0  0  0  0  0  0  0  0  0  0
    1.8930   -0.5628    0.0000 O   0  0  0  0  0  0  0  0  0  0  0  0
    1.0233   -1.9953    0.0000 O   0  0  0  0  0  0  0  0  0  0  0  0
   11.6651   -2.9163    0.0000 O   0  0  0  0  0  0  0  0  0  0  0  0
   15.3488   -1.6883    0.0000 O   0  0  0  0  0  0  0  0  0  0  0  0
    3.6325   -4.2465    0.0000 N   0  0  0  0  0  0  0  0  0  0  0  0
    4.4000   -2.9674    0.0000 N   0  0  0  0  0  0  0  0  0  0  0  0
    2.2000   -1.6883    0.0000 N   0  0  0  0  0  0  0  0  0  0  0  0
    8.0325   -2.5070    0.0000 N   0  0  0  0  0  0  0  0  0  0  0  0
    8.7488   -3.7860    0.0000 N   0  0  0  0  0  0  0  0  0  0  0  0
    9.4651   -2.5070    0.0000 N   0  0  0  0  0  0  0  0  0  0  0  0
   12.4325   -4.1953    0.0000 N   0  0  0  0  0  0  0  0  0  0  0  0
   13.8650   -2.5070    0.0000 N   0  0  0  0  0  0  0  0  0  0  0  0
    5.1163   -1.7395    0.0000 C   0  0  0  0  0  0  0  0  0  0  0  0
    2.9163   -3.8372    0.0000 C   0  0  0  0  0  0  0  0  0  0  0  0
    2.9163   -2.9674    0.0000 C   0  0  0  0  0  0  0  0  0  0  0  0
    5.8325   -1.2791    0.0000 C   0  0  0  0  0  0  0  0  0  0  0  0
    2.2000   -2.5581    0.0000 C   0  0  0  0  0  0  0  0  0  0  0  0
    1.4837   -3.7860    0.0000 C   0  0  0  0  0  0  0  0  0  0  0  0
    5.1163   -2.5581    0.0000 C   0  0  0  0  0  0  0  0  0  0  0  0
    6.5488   -1.6883    0.0000 C   0  0  0  0  0  0  0  0  0  0  0  0
    2.2000   -4.2465    0.0000 C   0  0  0  0  0  0  0  0  0  0  0  0
    1.4837   -2.9674    0.0000 C   0  0  0  0  0  0  0  0  0  0  0  0
    0.7163   -4.1953    0.0000 C   0  0  0  0  0  0  0  0  0  0  0  0
    4.4000   -3.8372    0.0000 C   0  0  0  0  0  0  0  0  0  0  0  0
    5.8325   -2.9674    0.0000 C   0  0  0  0  0  0  0  0  0  0  0  0
    6.6000   -2.5581    0.0000 C   0  0  0  0  0  0  0  0  0  0  0  0
    4.4000   -1.2791    0.0000 C   0  0  0  0  0  0  0  0  0  0  0  0
    5.8325   -0.4605    0.0000 C   0  0  0  0  0  0  0  0  0  0  0  0
    8.0325   -1.6883    0.0000 C   0  0  0  0  0  0  0  0  0  0  0  0
    4.3488   -0.4605    0.0000 C   0  0  0  0  0  0  0  0  0  0  0  0
    5.1163    0.0000    0.0000 C   0  0  0  0  0  0  0  0  0  0  0  0
    8.7488   -2.9674    0.0000 C   0  0  0  0  0  0  0  0  0  0  0  0
    0.3070   -3.4791    0.0000 C   0  0  0  0  0  0  0  0  0  0  0  0
    0.0000   -4.6046    0.0000 C   0  0  0  0  0  0  0  0  0  0  0  0
    1.1256   -4.9628    0.0000 C   0  0  0  0  0  0  0  0  0  0  0  0
    9.5162   -4.1953    0.0000 C   0  0  0  0  0  0  0  0  0  0  0  0
    8.7488   -1.2279    0.0000 C   0  0  0  0  0  0  0  0  0  0  0  0
   10.9488   -4.1953    0.0000 C   0  0  0  0  0  0  0  0  0  0  0  0
   10.2325   -3.7860    0.0000 C   0  0  0  0  0  0  0  0  0  0  0  0
   10.2325   -5.4744    0.0000 C   0  0  0  0  0  0  0  0  0  0  0  0
    9.5162   -5.0651    0.0000 C   0  0  0  0  0  0  0  0  0  0  0  0
    9.4651   -1.6883    0.0000 C   0  0  0  0  0  0  0  0  0  0  0  0
   10.9488   -5.0651    0.0000 C   0  0  0  0  0  0  0  0  0  0  0  0
    3.6325   -1.6883    0.0000 C   0  0  0  0  0  0  0  0  0  0  0  0
    0.7674   -0.8698    0.0000 C   0  0  0  0  0  0  0  0  0  0  0  0
   11.6651   -3.7860    0.0000 C   0  0  0  0  0  0  0  0  0  0  0  0
   10.2325   -6.2930    0.0000 C   0  0  0  0  0  0  0  0  0  0  0  0
   13.1488   -3.7860    0.0000 C   0  0  3  0  0  0  0  0  0  0  0  0
   13.1488   -2.9163    0.0000 C   0  0  0  0  0  0  0  0  0  0  0  0
   10.9488   -6.7534    0.0000 C   0  0  0  0  0  0  0  0  0  0  0  0
   13.8650   -4.1953    0.0000 C   0  0  0  0  0  0  0  0  0  0  0  0
   13.8650   -1.6883    0.0000 C   0  0  0  0  0  0  0  0  0  0  0  0
   14.5813   -2.9163    0.0000 C   0  0  0  0  0  0  0  0  0  0  0  0
   14.6325   -1.2791    0.0000 C   0  0  0  0  0  0  0  0  0  0  0  0
   15.2976   -2.5581    0.0000 C   0  0  0  0  0  0  0  0  0  0  0  0
  1  5  2  0  0  0  0
  1  6  2  0  0  0  0
  1 11  1  0  0  0  0
  1 49  1  0  0  0  0
  2 24  1  0  0  0  0
  2 33  1  0  0  0  0
  3 19  1  0  0  0  0
  3 48  1  0  0  0  0
  4 28  2  0  0  0  0
  7 50  2  0  0  0  0
  8 58  1  0  0  0  0
  8 59  1  0  0  0  0
  9 18  1  0  0  0  0
  9 28  1  0  0  0  0
 10 23  1  0  0  0  0
 10 28  1  0  0  0  0
 11 21  1  0  0  0  0
 12 33  2  0  0  0  0
 12 36  1  0  0  0  0
 13 36  1  0  0  0  0
 13 40  1  0  0  0  0
 14 36  2  0  0  0  0
 14 46  1  0  0  0  0
 15 50  1  0  0  0  0
 15 52  1  0  0  0  0
 16 53  1  0  0  0  0
 16 56  1  0  0  0  0
 16 57  1  0  0  0  0
 17 20  2  0  0  0  0
 17 23  1  0  0  0  0
 17 31  1  0  0  0  0
 18 19  1  0  0  0  0
 18 25  2  0  0  0  0
 19 21  2  0  0  0  0
 20 24  1  0  0  0  0
 20 32  1  0  0  0  0
 21 26  1  0  0  0  0
 22 25  1  0  0  0  0
 22 26  2  0  0  0  0
 22 27  1  0  0  0  0
 23 29  2  0  0  0  0
 24 30  2  0  0  0  0
 27 37  1  0  0  0  0
 27 38  1  0  0  0  0
 27 39  1  0  0  0  0
 29 30  1  0  0  0  0
 31 34  2  0  0  0  0
 32 35  2  0  0  0  0
 33 41  1  0  0  0  0
 34 35  1  0  0  0  0
 40 43  1  0  0  0  0
 40 45  2  0  0  0  0
 41 46  2  0  0  0  0
 42 43  2  0  0  0  0
 42 47  1  0  0  0  0
 42 50  1  0  0  0  0
 44 45  1  0  0  0  0
 44 47  2  0  0  0  0
 44 51  1  0  0  0  0
 51 54  3  0  0  0  0
 52 53  1  0  0  0  0
 52 55  1  1  0  0  0
 56 58  1  0  0  0  0
 57 59  1  0  0  0  0
M  END
> <PUBCHEM_COMPOUND_ID_TYPE>
0

> <PUBCHEM_TOTAL_CHARGE>
0

> <PUBCHEM_SUBSTANCE_ID>
310929172

> <PUBCHEM_SUBSTANCE_VERSION>
1

> <PUBCHEM_EXT_DATASOURCE_NAME>
4488

> <PUBCHEM_EXT_DATASOURCE_REGID>
SCHEMBL16106335

> <PUBCHEM_SUBSTANCE_COMMENT>
InChI=1S/C43H48N8O7S/c1-8-28-21-29(40(52)45-27(2)26-51-17-19-57-20-18-51)23-31(22-28)46-41-44-16-15-38(49-41)58-37-14-13-34(32-11-9-10-12-33(32)37)47-42(53)48-35-24-30(43(3,4)5)25-36(39(35)56-6)50-59(7,54)55/h1,9-16,21-25,27,50H,17-20,26H2,2-7H3,(H,45,52)(H,44,46,49)(H2,47,48,53)/t27-/m1/s1
InChIKey=SKXNXCUQPDAUDR-HHHXNRCGSA-N

> <PUBCHEM_SUBSTANCE_SYNONYM>
SCHEMBL16106335

> <PUBCHEM_XREF_EXT_ID>
SCHEMBL16106335

> <PUBCHEM_EXT_DATASOURCE_URL>
https://www.surechembl.org/

> <PUBCHEM_EXT_SUBSTANCE_URL>
https://www.surechembl.org/chemical/SCHEMBL16106335

> <PUBCHEM_CID_ASSOCIATIONS>
86275698  1

> <PUBCHEM_COORDINATE_TYPE>
1
3

> <PUBCHEM_BONDANNOTATIONS>
52  55  5

$$$$
