310936422
  -OEChem-07211613022D

 29 32  0     0  0  0  0  0  0999 V2000
    2.1450   -1.7737    0.0000 Cl  0  0  0  0  0  0  0  0  0  0  0  0
    4.9088   -2.0625    0.0000 S   0  0  0  0  0  0  0  0  0  0  0  0
    0.1238   -8.2500    0.0000 F   0  0  0  0  0  0  0  0  0  0  0  0
    1.1137   -4.4962    0.0000 O   0  0  0  0  0  0  0  0  0  0  0  0
    2.7225   -6.3937    0.0000 O   0  0  0  0  0  0  0  0  0  0  0  0
    5.5275   -0.4537    0.0000 O   0  0  0  0  0  0  0  0  0  0  0  0
    4.1663    0.0000    0.0000 O   0  0  0  0  0  0  0  0  0  0  0  0
    1.5675   -3.0525    0.0000 N   0  0  0  0  0  0  0  0  0  0  0  0
    3.6713   -5.3625    0.0000 N   0  0  0  0  0  0  0  0  0  0  0  0
    2.3925   -4.2488    0.0000 C   0  0  0  0  0  0  0  0  0  0  0  0
    2.3100   -5.0325    0.0000 C   0  0  0  0  0  0  0  0  0  0  0  0
    1.6500   -3.8775    0.0000 C   0  0  0  0  0  0  0  0  0  0  0  0
    1.4850   -5.2387    0.0000 C   0  0  0  0  0  0  0  0  0  0  0  0
    3.0113   -2.9287    0.0000 C   0  0  0  0  0  0  0  0  0  0  0  0
    3.0525   -3.7538    0.0000 C   0  0  0  0  0  0  0  0  0  0  0  0
    2.2275   -2.5988    0.0000 C   0  0  0  0  0  0  0  0  0  0  0  0
    1.1550   -5.9813    0.0000 C   0  0  0  0  0  0  0  0  0  0  0  0
    2.9287   -5.6100    0.0000 C   0  0  0  0  0  0  0  0  0  0  0  0
    3.6713   -2.4750    0.0000 C   0  0  0  0  0  0  0  0  0  0  0  0
    3.6713   -1.6500    0.0000 C   0  0  0  0  0  0  0  0  0  0  0  0
    4.4550   -2.7225    0.0000 C   0  0  0  0  0  0  0  0  0  0  0  0
    4.4550   -1.4025    0.0000 C   0  0  0  0  0  0  0  0  0  0  0  0
    1.6500   -6.6413    0.0000 C   0  0  0  0  0  0  0  0  0  0  0  0
    0.3300   -6.0638    0.0000 C   0  0  0  0  0  0  0  0  0  0  0  0
    4.7025   -0.6188    0.0000 C   0  0  0  0  0  0  0  0  0  0  0  0
    1.3200   -7.4250    0.0000 C   0  0  0  0  0  0  0  0  0  0  0  0
    0.0000   -6.8062    0.0000 C   0  0  0  0  0  0  0  0  0  0  0  0
    0.4950   -7.4662    0.0000 C   0  0  0  0  0  0  0  0  0  0  0  0
    4.2900   -5.8987    0.0000 C   0  0  0  0  0  0  0  0  0  0  0  0
  1 16  1  0  0  0  0
  2 21  1  0  0  0  0
  2 22  1  0  0  0  0
  3 28  1  0  0  0  0
  4 12  1  0  0  0  0
  4 13  1  0  0  0  0
  5 18  2  0  0  0  0
  6 25  2  0  0  0  0
  7 25  1  0  0  0  0
  8 12  1  0  0  0  0
  8 16  2  0  0  0  0
  9 18  1  0  0  0  0
  9 29  1  0  0  0  0
 10 11  1  0  0  0  0
 10 12  2  0  0  0  0
 10 15  1  0  0  0  0
 11 13  2  0  0  0  0
 11 18  1  0  0  0  0
 13 17  1  0  0  0  0
 14 15  2  0  0  0  0
 14 16  1  0  0  0  0
 14 19  1  0  0  0  0
 17 23  2  0  0  0  0
 17 24  1  0  0  0  0
 19 20  1  0  0  0  0
 19 21  2  0  0  0  0
 20 22  2  0  0  0  0
 22 25  1  0  0  0  0
 23 26  1  0  0  0  0
 24 27  2  0  0  0  0
 26 28  2  0  0  0  0
 27 28  1  0  0  0  0
M  END
> <PUBCHEM_COMPOUND_ID_TYPE>
0

> <PUBCHEM_TOTAL_CHARGE>
0

> <PUBCHEM_SUBSTANCE_ID>
310936422

> <PUBCHEM_SUBSTANCE_VERSION>
1

> <PUBCHEM_EXT_DATASOURCE_NAME>
4488

> <PUBCHEM_EXT_DATASOURCE_REGID>
SCHEMBL16114063

> <PUBCHEM_SUBSTANCE_COMMENT>
InChI=1S/C20H12ClFN2O4S/c1-23-18(25)15-13-7-12(10-6-14(20(26)27)29-8-10)17(21)24-19(13)28-16(15)9-2-4-11(22)5-3-9/h2-8H,1H3,(H,23,25)(H,26,27)
InChIKey=GKLHCIYTUSNNIB-UHFFFAOYSA-N

> <PUBCHEM_SUBSTANCE_SYNONYM>
SCHEMBL16114063

> <PUBCHEM_XREF_EXT_ID>
SCHEMBL16114063

> <PUBCHEM_EXT_DATASOURCE_URL>
https://www.surechembl.org/

> <PUBCHEM_EXT_SUBSTANCE_URL>
https://www.surechembl.org/chemical/SCHEMBL16114063

> <PUBCHEM_CID_ASSOCIATIONS>
117604357  1

> <PUBCHEM_COORDINATE_TYPE>
1
3

$$$$
