310931972
  -OEChem-07211613022D

 25 26  0     0  0  0  0  0  0999 V2000
    5.4239   -2.5828    0.0000 O   0  0  0  0  0  0  0  0  0  0  0  0
    6.6046   -1.4021    0.0000 O   0  0  0  0  0  0  0  0  0  0  0  0
    7.9698   -1.8449    0.0000 O   0  0  0  0  0  0  0  0  0  0  0  0
    2.6935   -5.4608    0.0000 O   0  0  0  0  0  0  0  0  0  0  0  0
    0.6642   -6.8998    0.0000 O   0  0  0  0  0  0  0  0  0  0  0  0
    6.1250   -3.8742    0.0000 N   0  0  0  0  0  0  0  0  0  0  0  0
    6.8998   -4.1325    0.0000 N   0  0  0  0  0  0  0  0  0  0  0  0
    5.5346   -5.1656    0.0000 N   0  0  0  0  0  0  0  0  0  0  0  0
    3.5052   -6.6046    0.0000 N   0  0  0  0  0  0  0  0  0  0  0  0
    6.1250   -3.0625    0.0000 C   0  0  0  0  0  0  0  0  0  0  0  0
    6.8998   -2.8042    0.0000 C   0  0  0  0  0  0  0  0  0  0  0  0
    5.4239   -4.3539    0.0000 C   0  0  0  0  0  0  0  0  0  0  0  0
    7.3795   -3.4683    0.0000 C   0  0  0  0  0  0  0  0  0  0  0  0
    7.1581   -1.9925    0.0000 C   0  0  0  0  0  0  0  0  0  0  0  0
    4.6860   -3.9849    0.0000 C   0  0  0  0  0  0  0  0  0  0  0  0
    4.1325   -5.3132    0.0000 C   0  0  0  0  0  0  0  0  0  0  0  0
    4.8705   -5.6822    0.0000 C   0  0  0  0  0  0  0  0  0  0  0  0
    4.0218   -4.5015    0.0000 C   0  0  0  0  0  0  0  0  0  0  0  0
    3.4314   -5.7929    0.0000 C   0  0  0  0  0  0  0  0  0  0  0  0
    6.8260   -0.5904    0.0000 C   0  0  0  0  0  0  0  0  0  0  0  0
    2.8411   -7.0843    0.0000 C   0  0  0  0  0  0  0  0  0  0  0  0
    6.2725    0.0000    0.0000 C   0  0  0  0  0  0  0  0  0  0  0  0
    2.0663   -6.7522    0.0000 C   0  0  0  0  0  0  0  0  0  0  0  0
    1.4390   -7.2319    0.0000 C   0  0  0  0  0  0  0  0  0  0  0  0
    0.0000   -7.3795    0.0000 C   0  0  0  0  0  0  0  0  0  0  0  0
  1 10  1  0  0  0  0
  2 14  1  0  0  0  0
  2 20  1  0  0  0  0
  3 14  2  0  0  0  0
  4 19  2  0  0  0  0
  5 24  1  0  0  0  0
  5 25  1  0  0  0  0
  6  7  1  0  0  0  0
  6 10  1  0  0  0  0
  6 12  1  0  0  0  0
  7 13  2  0  0  0  0
  8 12  1  0  0  0  0
  8 17  2  0  0  0  0
  9 19  1  0  0  0  0
  9 21  1  0  0  0  0
 10 11  2  0  0  0  0
 11 13  1  0  0  0  0
 11 14  1  0  0  0  0
 12 15  2  0  0  0  0
 15 18  1  0  0  0  0
 16 17  1  0  0  0  0
 16 18  2  0  0  0  0
 16 19  1  0  0  0  0
 20 22  1  0  0  0  0
 21 23  1  0  0  0  0
 23 24  1  0  0  0  0
M  END
> <PUBCHEM_COMPOUND_ID_TYPE>
0

> <PUBCHEM_TOTAL_CHARGE>
0

> <PUBCHEM_SUBSTANCE_ID>
310931972

> <PUBCHEM_SUBSTANCE_VERSION>
1

> <PUBCHEM_EXT_DATASOURCE_NAME>
4488

> <PUBCHEM_EXT_DATASOURCE_REGID>
SCHEMBL16109311

> <PUBCHEM_SUBSTANCE_COMMENT>
InChI=1S/C16H20N4O5/c1-3-25-16(23)12-10-19-20(15(12)22)13-6-5-11(9-18-13)14(21)17-7-4-8-24-2/h5-6,9-10,22H,3-4,7-8H2,1-2H3,(H,17,21)
InChIKey=HNOGFKCGEXEYKN-UHFFFAOYSA-N

> <PUBCHEM_SUBSTANCE_SYNONYM>
SCHEMBL16109311

> <PUBCHEM_XREF_EXT_ID>
SCHEMBL16109311

> <PUBCHEM_EXT_DATASOURCE_URL>
https://www.surechembl.org/

> <PUBCHEM_EXT_SUBSTANCE_URL>
https://www.surechembl.org/chemical/SCHEMBL16109311

> <PUBCHEM_CID_ASSOCIATIONS>
117600618  1

> <PUBCHEM_COORDINATE_TYPE>
1
3

$$$$
