310949288
  -OEChem-07211613022D

 52 61  0     0  0  0  0  0  0999 V2000
   -1.2683   -0.0988    0.0000 N   0  0  0  0  0  0  0  0  0  0  0  0
    1.6142   -0.8730    0.0000 N   0  0  0  0  0  0  0  0  0  0  0  0
    2.3224   -2.1083    0.0000 N   0  0  0  0  0  0  0  0  0  0  0  0
   -1.9436    0.3953    0.0000 C   0  0  0  0  0  0  0  0  0  0  0  0
   -3.3107    0.8565    0.0000 C   0  0  0  0  0  0  0  0  0  0  0  0
   -1.6965    1.1859    0.0000 C   0  0  0  0  0  0  0  0  0  0  0  0
   -3.0143    1.6471    0.0000 C   0  0  0  0  0  0  0  0  0  0  0  0
   -4.1672    0.8730    0.0000 C   0  0  0  0  0  0  0  0  0  0  0  0
   -0.5930    0.4118    0.0000 C   0  0  0  0  0  0  0  0  0  0  0  0
   -0.8565    1.1859    0.0000 C   0  0  0  0  0  0  0  0  0  0  0  0
   -3.7389    2.1413    0.0000 C   0  0  0  0  0  0  0  0  0  0  0  0
   -4.4143    1.6636    0.0000 C   0  0  0  0  0  0  0  0  0  0  0  0
   -1.2847   -0.9224    0.0000 C   0  0  0  0  0  0  0  0  0  0  0  0
   -2.7342    0.2635    0.0000 C   0  0  0  0  0  0  0  0  0  0  0  0
   -2.2401    1.8118    0.0000 C   0  0  0  0  0  0  0  0  0  0  0  0
   -0.5765   -1.3341    0.0000 C   0  0  0  0  0  0  0  0  0  0  0  0
   -2.0260   -1.3671    0.0000 C   0  0  0  0  0  0  0  0  0  0  0  0
    0.2142    0.2471    0.0000 C   0  0  0  0  0  0  0  0  0  0  0  0
   -0.3129    1.7624    0.0000 C   0  0  0  0  0  0  0  0  0  0  0  0
   -3.8213    2.9483    0.0000 C   0  0  0  0  0  0  0  0  0  0  0  0
   -5.1390    1.9930    0.0000 C   0  0  0  0  0  0  0  0  0  0  0  0
   -4.9743    0.6918    0.0000 C   0  0  0  0  0  0  0  0  0  0  0  0
   -4.1672    0.0659    0.0000 C   0  0  0  0  0  0  0  0  0  0  0  0
    1.5977   -1.6636    0.0000 C   0  0  0  0  0  0  0  0  0  0  0  0
   -2.7836   -1.3177    0.0000 C   0  0  0  0  0  0  0  0  0  0  0  0
   -0.5765   -2.1742    0.0000 C   0  0  0  0  0  0  0  0  0  0  0  0
   -1.9930   -2.1577    0.0000 C   0  0  0  0  0  0  0  0  0  0  0  0
    0.7412    0.8401    0.0000 C   0  0  0  0  0  0  0  0  0  0  0  0
    0.5106    1.6307    0.0000 C   0  0  0  0  0  0  0  0  0  0  0  0
   -4.5954    3.2778    0.0000 C   0  0  0  0  0  0  0  0  0  0  0  0
   -5.2378    2.8166    0.0000 C   0  0  0  0  0  0  0  0  0  0  0  0
   -1.2683   -2.5530    0.0000 C   0  0  0  0  0  0  0  0  0  0  0  0
    2.2895   -0.4282    0.0000 C   0  0  0  0  0  0  0  0  0  0  0  0
    3.0472   -1.6471    0.0000 C   0  0  0  0  0  0  0  0  0  0  0  0
   -3.2119   -0.6424    0.0000 C   0  0  0  0  0  0  0  0  0  0  0  0
   -3.1789   -2.0589    0.0000 C   0  0  0  0  0  0  0  0  0  0  0  0
    3.0472   -0.8235    0.0000 C   0  0  0  0  0  0  0  0  0  0  0  0
    2.3389    0.3953    0.0000 C   0  0  0  0  0  0  0  0  0  0  0  0
    3.7389   -2.0753    0.0000 C   0  0  0  0  0  0  0  0  0  0  0  0
   -4.0355   -0.6424    0.0000 C   0  0  0  0  0  0  0  0  0  0  0  0
   -4.0519   -2.0424    0.0000 C   0  0  0  0  0  0  0  0  0  0  0  0
   -4.4472   -1.3671    0.0000 C   0  0  0  0  0  0  0  0  0  0  0  0
    3.0307    0.8235    0.0000 C   0  0  0  0  0  0  0  0  0  0  0  0
    1.5812    0.8071    0.0000 C   0  0  0  0  0  0  0  0  0  0  0  0
    3.7225   -2.8659    0.0000 C   0  0  0  0  0  0  0  0  0  0  0  0
    4.4637   -1.6636    0.0000 C   0  0  0  0  0  0  0  0  0  0  0  0
    3.0472    1.6307    0.0000 C   0  0  0  0  0  0  0  0  0  0  0  0
    1.5977    1.6142    0.0000 C   0  0  0  0  0  0  0  0  0  0  0  0
    4.5296   -3.2778    0.0000 C   0  0  0  0  0  0  0  0  0  0  0  0
    5.2378   -2.0589    0.0000 C   0  0  0  0  0  0  0  0  0  0  0  0
    2.2895    2.0260    0.0000 C   0  0  0  0  0  0  0  0  0  0  0  0
    5.2214   -2.8825    0.0000 C   0  0  0  0  0  0  0  0  0  0  0  0
  1  4  1  0  0  0  0
  1  9  1  0  0  0  0
  1 13  1  0  0  0  0
  2 24  1  0  0  0  0
  2 33  2  0  0  0  0
  3 24  2  0  0  0  0
  3 34  1  0  0  0  0
  4  6  2  0  0  0  0
  4 14  1  0  0  0  0
  5  7  1  0  0  0  0
  5  8  1  0  0  0  0
  5 14  2  0  0  0  0
  6 10  1  0  0  0  0
  6 15  1  0  0  0  0
  7 11  1  0  0  0  0
  7 15  2  0  0  0  0
  8 12  1  0  0  0  0
  8 22  1  0  0  0  0
  8 23  1  0  0  0  0
  9 10  2  0  0  0  0
  9 18  1  0  0  0  0
 10 19  1  0  0  0  0
 11 12  2  0  0  0  0
 11 20  1  0  0  0  0
 12 21  1  0  0  0  0
 13 16  2  0  0  0  0
 13 17  1  0  0  0  0
 16 24  1  0  0  0  0
 16 26  1  0  0  0  0
 17 25  1  0  0  0  0
 17 27  2  0  0  0  0
 18 28  2  0  0  0  0
 19 29  2  0  0  0  0
 20 30  2  0  0  0  0
 21 31  2  0  0  0  0
 25 35  2  0  0  0  0
 25 36  1  0  0  0  0
 26 32  2  0  0  0  0
 27 32  1  0  0  0  0
 28 29  1  0  0  0  0
 30 31  1  0  0  0  0
 33 37  1  0  0  0  0
 33 38  1  0  0  0  0
 34 37  2  0  0  0  0
 34 39  1  0  0  0  0
 35 40  1  0  0  0  0
 36 41  2  0  0  0  0
 38 43  2  0  0  0  0
 38 44  1  0  0  0  0
 39 45  2  0  0  0  0
 39 46  1  0  0  0  0
 40 42  2  0  0  0  0
 41 42  1  0  0  0  0
 43 47  1  0  0  0  0
 44 48  2  0  0  0  0
 45 49  1  0  0  0  0
 46 50  2  0  0  0  0
 47 51  2  0  0  0  0
 48 51  1  0  0  0  0
 49 52  2  0  0  0  0
 50 52  1  0  0  0  0
M  END
> <PUBCHEM_COMPOUND_ID_TYPE>
0

> <PUBCHEM_TOTAL_CHARGE>
0

> <PUBCHEM_SUBSTANCE_ID>
310949288

> <PUBCHEM_SUBSTANCE_VERSION>
1

> <PUBCHEM_EXT_DATASOURCE_NAME>
4488

> <PUBCHEM_EXT_DATASOURCE_REGID>
SCHEMBL16127478

> <PUBCHEM_SUBSTANCE_COMMENT>
InChI=1S/C49H35N3/c1-49(2)41-27-14-12-23-36(41)39-29-40-37-24-13-15-28-45(37)52(46(40)30-42(39)49)47-35(32-17-6-3-7-18-32)25-16-26-38(47)48-50-43(33-19-8-4-9-20-33)31-44(51-48)34-21-10-5-11-22-34/h3-31H,1-2H3
InChIKey=FGFYUIHAXNGVDJ-UHFFFAOYSA-N

> <PUBCHEM_SUBSTANCE_SYNONYM>
SCHEMBL16127478

> <PUBCHEM_XREF_EXT_ID>
SCHEMBL16127478

> <PUBCHEM_EXT_DATASOURCE_URL>
https://www.surechembl.org/

> <PUBCHEM_EXT_SUBSTANCE_URL>
https://www.surechembl.org/chemical/SCHEMBL16127478

> <PUBCHEM_CID_ASSOCIATIONS>
117614773  1

> <PUBCHEM_COORDINATE_TYPE>
1
3

$$$$
