310948875
  -OEChem-07211613022D

 51 56  0     1  0  0  0  0  0999 V2000
    4.6471    1.6259    0.0000 O   0  0  0  0  0  0  0  0  0  0  0  0
   -5.4943   -3.0212    0.0000 O   0  0  0  0  0  0  0  0  0  0  0  0
    7.5250    2.4606    0.0000 O   0  0  0  0  0  0  0  0  0  0  0  0
    6.8024    3.7064    0.0000 O   0  0  0  0  0  0  0  0  0  0  0  0
    5.3946    0.3925    0.0000 N   0  0  0  0  0  0  0  0  0  0  0  0
   -5.8556   -1.6259    0.0000 N   0  0  0  0  0  0  0  0  0  0  0  0
    3.2517   -0.3301    0.0000 N   0  0  0  0  0  0  0  0  0  0  0  0
   -3.7127   -0.8658    0.0000 N   0  0  0  0  0  0  0  0  0  0  0  0
    3.6753    0.9407    0.0000 N   0  0  0  0  0  0  0  0  0  0  0  0
   -4.1238   -2.1366    0.0000 N   0  0  0  0  0  0  0  0  0  0  0  0
    6.1047    2.4606    0.0000 N   0  0  0  0  0  0  0  0  0  0  0  0
   -6.9519   -3.4448    0.0000 N   0  0  0  0  0  0  0  0  0  0  0  0
    4.7342   -0.1183    0.0000 C   0  0  3  0  0  0  0  0  0  0  0  0
    3.9120    0.1682    0.0000 C   0  0  0  0  0  0  0  0  0  0  0  0
   -5.2202   -1.1275    0.0000 C   0  0  3  0  0  0  0  0  0  0  0  0
   -4.3854   -1.3518    0.0000 C   0  0  0  0  0  0  0  0  0  0  0  0
    2.5664    0.1557    0.0000 C   0  0  0  0  0  0  0  0  0  0  0  0
    5.3946    1.2147    0.0000 C   0  0  0  0  0  0  0  0  0  0  0  0
   -3.0275   -1.3518    0.0000 C   0  0  0  0  0  0  0  0  0  0  0  0
   -6.0923   -2.4107    0.0000 C   0  0  0  0  0  0  0  0  0  0  0  0
    1.7691   -0.0561    0.0000 C   0  0  0  0  0  0  0  0  0  0  0  0
   -2.2425   -1.1400    0.0000 C   0  0  0  0  0  0  0  0  0  0  0  0
    4.9710   -0.8908    0.0000 C   0  0  0  0  0  0  0  0  0  0  0  0
    6.0549   -0.1059    0.0000 C   0  0  0  0  0  0  0  0  0  0  0  0
    6.0923    1.6383    0.0000 C   0  0  3  0  0  0  0  0  0  0  0  0
   -5.4444   -0.3551    0.0000 C   0  0  0  0  0  0  0  0  0  0  0  0
    2.8406    0.9531    0.0000 C   0  0  0  0  0  0  0  0  0  0  0  0
   -3.3015   -2.1366    0.0000 C   0  0  0  0  0  0  0  0  0  0  0  0
   -6.5158   -1.1400    0.0000 C   0  0  0  0  0  0  0  0  0  0  0  0
    0.1744   -0.4921    0.0000 C   0  0  0  0  0  0  0  0  0  0  0  0
   -0.6354   -0.7039    0.0000 C   0  0  0  0  0  0  0  0  0  0  0  0
    5.7932   -0.8908    0.0000 C   0  0  0  0  0  0  0  0  0  0  0  0
   -6.8647   -2.6350    0.0000 C   0  0  3  0  0  0  0  0  0  0  0  0
   -6.2667   -0.3426    0.0000 C   0  0  0  0  0  0  0  0  0  0  0  0
    1.5574   -0.8534    0.0000 C   0  0  0  0  0  0  0  0  0  0  0  0
    1.1836    0.5170    0.0000 C   0  0  0  0  0  0  0  0  0  0  0  0
   -1.6445   -1.7131    0.0000 C   0  0  0  0  0  0  0  0  0  0  0  0
   -2.0183   -0.3426    0.0000 C   0  0  0  0  0  0  0  0  0  0  0  0
    0.7600   -1.0652    0.0000 C   0  0  0  0  0  0  0  0  0  0  0  0
    0.3987    0.3052    0.0000 C   0  0  0  0  0  0  0  0  0  0  0  0
   -0.8472   -1.5013    0.0000 C   0  0  0  0  0  0  0  0  0  0  0  0
   -1.2210   -0.1308    0.0000 C   0  0  0  0  0  0  0  0  0  0  0  0
    6.8149    1.2271    0.0000 C   0  0  0  0  0  0  0  0  0  0  0  0
   -7.4627   -2.0370    0.0000 C   0  0  0  0  0  0  0  0  0  0  0  0
    6.8149    2.8592    0.0000 C   0  0  0  0  0  0  0  0  0  0  0  0
    7.5375    1.6383    0.0000 C   0  0  0  0  0  0  0  0  0  0  0  0
    6.8273    0.3925    0.0000 C   0  0  0  0  0  0  0  0  0  0  0  0
   -8.2476   -2.2737    0.0000 C   0  0  0  0  0  0  0  0  0  0  0  0
   -7.2509   -1.2646    0.0000 C   0  0  0  0  0  0  0  0  0  0  0  0
   -7.9361   -3.7064    0.0000 C   0  0  0  0  0  0  0  0  0  0  0  0
    8.2476    2.8842    0.0000 C   0  0  0  0  0  0  0  0  0  0  0  0
  1 18  2  0  0  0  0
  2 20  2  0  0  0  0
  3 45  1  0  0  0  0
  3 51  1  0  0  0  0
  4 45  2  0  0  0  0
  5 13  1  0  0  0  0
  5 18  1  0  0  0  0
  5 24  1  0  0  0  0
  6 15  1  0  0  0  0
  6 20  1  0  0  0  0
  6 29  1  0  0  0  0
  7 14  1  0  0  0  0
  7 17  1  0  0  0  0
  8 16  1  0  0  0  0
  8 19  1  0  0  0  0
  9 14  2  0  0  0  0
  9 27  1  0  0  0  0
 10 16  2  0  0  0  0
 10 28  1  0  0  0  0
 25 11  1  1  0  0  0
 11 45  1  0  0  0  0
 33 12  1  1  0  0  0
 12 50  1  0  0  0  0
 13 14  1  0  0  0  0
 13 23  1  0  0  0  0
 15 16  1  0  0  0  0
 15 26  1  0  0  0  0
 17 21  1  0  0  0  0
 17 27  2  0  0  0  0
 18 25  1  0  0  0  0
 19 22  1  0  0  0  0
 19 28  2  0  0  0  0
 20 33  1  0  0  0  0
 21 35  2  0  0  0  0
 21 36  1  0  0  0  0
 22 37  2  0  0  0  0
 22 38  1  0  0  0  0
 23 32  1  0  0  0  0
 24 32  1  0  0  0  0
 25 43  1  0  0  0  0
 26 34  1  0  0  0  0
 29 34  1  0  0  0  0
 30 31  1  0  0  0  0
 30 39  2  0  0  0  0
 30 40  1  0  0  0  0
 31 41  2  0  0  0  0
 31 42  1  0  0  0  0
 33 44  1  0  0  0  0
 35 39  1  0  0  0  0
 36 40  2  0  0  0  0
 37 41  1  0  0  0  0
 38 42  2  0  0  0  0
 43 46  1  0  0  0  0
 43 47  1  0  0  0  0
 44 48  1  0  0  0  0
 44 49  1  0  0  0  0
M  END
> <PUBCHEM_COMPOUND_ID_TYPE>
0

> <PUBCHEM_TOTAL_CHARGE>
0

> <PUBCHEM_SUBSTANCE_ID>
310948875

> <PUBCHEM_SUBSTANCE_VERSION>
1

> <PUBCHEM_EXT_DATASOURCE_NAME>
4488

> <PUBCHEM_EXT_DATASOURCE_REGID>
SCHEMBL16127060

> <PUBCHEM_SUBSTANCE_COMMENT>
InChI=1S/C39H50N8O4/c1-23(2)33(40-5)37(48)46-19-7-9-31(46)35-41-21-29(43-35)27-15-11-25(12-16-27)26-13-17-28(18-14-26)30-22-42-36(44-30)32-10-8-20-47(32)38(49)34(24(3)4)45-39(50)51-6/h11-18,21-24,31-34,40H,7-10,19-20H2,1-6H3,(H,41,43)(H,42,44)(H,45,50)/t31?,32?,33-,34-/m0/s1
InChIKey=JHOULKULWCTQJD-TYBYDDOHSA-N

> <PUBCHEM_SUBSTANCE_SYNONYM>
SCHEMBL16127060

> <PUBCHEM_XREF_EXT_ID>
SCHEMBL16127060

> <PUBCHEM_EXT_DATASOURCE_URL>
https://www.surechembl.org/

> <PUBCHEM_EXT_SUBSTANCE_URL>
https://www.surechembl.org/chemical/SCHEMBL16127060

> <PUBCHEM_CID_ASSOCIATIONS>
117614405  1

> <PUBCHEM_COORDINATE_TYPE>
1
3

> <PUBCHEM_BONDANNOTATIONS>
25  11  5
33  12  5

$$$$
