310932420
  -OEChem-07211613022D

 32 35  0     0  0  0  0  0  0999 V2000
    4.0250   -2.1132    0.0000 O   0  0  0  0  0  0  0  0  0  0  0  0
    8.4861   -2.2137    0.0000 O   0  0  0  0  0  0  0  0  0  0  0  0
    8.2513   -6.0375    0.0000 O   0  0  0  0  0  0  0  0  0  0  0  0
    4.9307   -0.9727    0.0000 N   0  0  0  0  0  0  0  0  0  0  0  0
    4.8300   -0.1341    0.0000 N   0  0  0  0  0  0  0  0  0  0  0  0
    6.3730   -0.9727    0.0000 N   0  0  0  0  0  0  0  0  0  0  0  0
    7.7817   -3.4548    0.0000 N   0  0  0  0  0  0  0  0  0  0  0  0
    0.0000   -1.8448    0.0000 N   0  0  0  0  0  0  0  0  0  0  0  0
    4.1927   -1.3081    0.0000 C   0  0  0  0  0  0  0  0  0  0  0  0
    3.6225   -0.7044    0.0000 C   0  0  0  0  0  0  0  0  0  0  0  0
    5.6350   -1.3752    0.0000 C   0  0  0  0  0  0  0  0  0  0  0  0
    2.7840   -0.8050    0.0000 C   0  0  0  0  0  0  0  0  0  0  0  0
    8.5196   -3.8573    0.0000 C   0  0  0  0  0  0  0  0  0  0  0  0
    4.0250    0.0000    0.0000 C   0  0  0  0  0  0  0  0  0  0  0  0
    7.0773   -2.2137    0.0000 C   0  0  0  0  0  0  0  0  0  0  0  0
    7.7817   -2.6163    0.0000 C   0  0  0  0  0  0  0  0  0  0  0  0
    5.6350   -2.2137    0.0000 C   0  0  0  0  0  0  0  0  0  0  0  0
    7.0773   -1.3752    0.0000 C   0  0  0  0  0  0  0  0  0  0  0  0
    6.3730   -2.6163    0.0000 C   0  0  0  0  0  0  0  0  0  0  0  0
    2.4821   -1.5429    0.0000 C   0  0  0  0  0  0  0  0  0  0  0  0
    2.3144   -0.1341    0.0000 C   0  0  0  0  0  0  0  0  0  0  0  0
    8.9557   -3.1530    0.0000 C   0  0  0  0  0  0  0  0  0  0  0  0
    8.9892   -4.4946    0.0000 C   0  0  0  0  0  0  0  0  0  0  0  0
    8.1507   -4.5952    0.0000 C   0  0  0  0  0  0  0  0  0  0  0  0
    1.1739   -0.9727    0.0000 C   0  0  0  0  0  0  0  0  0  0  0  0
    1.6436   -1.6436    0.0000 C   0  0  0  0  0  0  0  0  0  0  0  0
    1.4758   -0.2348    0.0000 C   0  0  0  0  0  0  0  0  0  0  0  0
    9.7606   -3.4212    0.0000 C   0  0  0  0  0  0  0  0  0  0  0  0
    9.7942   -4.2263    0.0000 C   0  0  0  0  0  0  0  0  0  0  0  0
    8.6203   -5.2661    0.0000 C   0  0  0  0  0  0  0  0  0  0  0  0
    0.3354   -1.0734    0.0000 C   0  0  0  0  0  0  0  0  0  0  0  0
    8.7209   -6.7084    0.0000 C   0  0  0  0  0  0  0  0  0  0  0  0
  1  9  1  0  0  0  0
  2 16  2  0  0  0  0
  3 30  1  0  0  0  0
  3 32  1  0  0  0  0
  4  5  1  0  0  0  0
  4  9  1  0  0  0  0
  4 11  1  0  0  0  0
  5 14  2  0  0  0  0
  6 11  2  0  0  0  0
  6 18  1  0  0  0  0
  7 13  1  0  0  0  0
  7 16  1  0  0  0  0
  8 31  3  0  0  0  0
  9 10  2  0  0  0  0
 10 12  1  0  0  0  0
 10 14  1  0  0  0  0
 11 17  1  0  0  0  0
 12 20  2  0  0  0  0
 12 21  1  0  0  0  0
 13 22  1  0  0  0  0
 13 23  1  0  0  0  0
 13 24  1  0  0  0  0
 15 16  1  0  0  0  0
 15 18  2  0  0  0  0
 15 19  1  0  0  0  0
 17 19  2  0  0  0  0
 20 26  1  0  0  0  0
 21 27  2  0  0  0  0
 22 28  1  0  0  0  0
 23 29  1  0  0  0  0
 24 30  1  0  0  0  0
 25 26  2  0  0  0  0
 25 27  1  0  0  0  0
 25 31  1  0  0  0  0
 28 29  1  0  0  0  0
M  END
> <PUBCHEM_COMPOUND_ID_TYPE>
0

> <PUBCHEM_TOTAL_CHARGE>
0

> <PUBCHEM_SUBSTANCE_ID>
310932420

> <PUBCHEM_SUBSTANCE_VERSION>
1

> <PUBCHEM_EXT_DATASOURCE_NAME>
4488

> <PUBCHEM_EXT_DATASOURCE_REGID>
SCHEMBL16109788

> <PUBCHEM_SUBSTANCE_COMMENT>
InChI=1S/C24H25N5O3/c1-32-13-12-24(10-2-3-11-24)28-22(30)19-8-9-21(26-15-19)29-23(31)20(16-27-29)18-6-4-17(14-25)5-7-18/h4-9,15-16,31H,2-3,10-13H2,1H3,(H,28,30)
InChIKey=QCYVEIPHKFASFQ-UHFFFAOYSA-N

> <PUBCHEM_SUBSTANCE_SYNONYM>
SCHEMBL16109788

> <PUBCHEM_XREF_EXT_ID>
SCHEMBL16109788

> <PUBCHEM_EXT_DATASOURCE_URL>
https://www.surechembl.org/

> <PUBCHEM_EXT_SUBSTANCE_URL>
https://www.surechembl.org/chemical/SCHEMBL16109788

> <PUBCHEM_CID_ASSOCIATIONS>
117600973  1

> <PUBCHEM_COORDINATE_TYPE>
1
3

$$$$
