310947975
  -OEChem-07211613022D

 29 31  0     1  0  0  0  0  0999 V2000
    1.2344  -13.4930    0.0000 F   0  0  0  0  0  0  0  0  0  0  0  0
    4.0924  -15.1430    0.0000 O   0  0  0  0  0  0  0  0  0  0  0  0
    9.0937  -14.7305    0.0000 O   0  0  0  0  0  0  0  0  0  0  0  0
    9.8082  -12.6680    0.0000 O   0  0  0  0  0  0  0  0  0  0  0  0
   11.2371  -13.4930    0.0000 O   0  0  0  0  0  0  0  0  0  0  0  0
   10.5226  -14.7305    0.0000 O   0  0  0  0  0  0  0  0  0  0  0  0
    7.6647  -13.9055    0.0000 N   0  0  0  0  0  0  0  0  0  0  0  0
    6.9502  -12.6680    0.0000 N   0  0  0  0  0  0  0  0  0  0  0  0
    6.9502  -13.4930    0.0000 C   0  0  0  0  0  0  0  0  0  0  0  0
    8.3793  -13.4930    0.0000 C   0  0  0  0  0  0  0  0  0  0  0  0
    6.2358  -13.9055    0.0000 C   0  0  0  0  0  0  0  0  0  0  0  0
    9.0937  -13.9055    0.0000 C   0  0  3  0  0  0  0  0  0  0  0  0
    9.8082  -13.4930    0.0000 C   0  0  3  0  0  0  0  0  0  0  0  0
    8.3793  -12.6680    0.0000 C   0  0  0  0  0  0  0  0  0  0  0  0
    4.8068  -14.7305    0.0000 C   0  0  0  0  0  0  0  0  0  0  0  0
    5.5213  -13.4930    0.0000 C   0  0  0  0  0  0  0  0  0  0  0  0
    6.2358  -14.7305    0.0000 C   0  0  0  0  0  0  0  0  0  0  0  0
    7.6647  -12.2555    0.0000 C   0  0  0  0  0  0  0  0  0  0  0  0
   10.5226  -13.9055    0.0000 C   0  0  0  0  0  0  0  0  0  0  0  0
    4.8068  -13.9055    0.0000 C   0  0  0  0  0  0  0  0  0  0  0  0
    5.5213  -15.1430    0.0000 C   0  0  0  0  0  0  0  0  0  0  0  0
    3.3779  -14.7305    0.0000 C   0  0  0  0  0  0  0  0  0  0  0  0
    2.6634  -15.1430    0.0000 C   0  0  0  0  0  0  0  0  0  0  0  0
    3.3779  -13.9055    0.0000 C   0  0  0  0  0  0  0  0  0  0  0  0
    1.9489  -13.9055    0.0000 C   0  0  0  0  0  0  0  0  0  0  0  0
    1.9489  -14.7305    0.0000 C   0  0  0  0  0  0  0  0  0  0  0  0
    2.6634  -13.4930    0.0000 C   0  0  0  0  0  0  0  0  0  0  0  0
   11.2371  -12.6303    0.0000 C   0  0  0  0  0  0  0  0  0  0  0  0
   11.9843  -12.1989    0.0000 C   0  0  0  0  0  0  0  0  0  0  0  0
  1 25  1  0  0  0  0
  2 15  1  0  0  0  0
  2 22  1  0  0  0  0
 12  3  1  6  0  0  0
 13  4  1  6  0  0  0
  5 19  1  0  0  0  0
  5 28  1  0  0  0  0
  6 19  2  0  0  0  0
  7  9  1  0  0  0  0
  7 10  2  0  0  0  0
  8  9  2  0  0  0  0
  8 18  1  0  0  0  0
  9 11  1  0  0  0  0
 10 12  1  0  0  0  0
 10 14  1  0  0  0  0
 11 16  2  0  0  0  0
 11 17  1  0  0  0  0
 12 13  1  0  0  0  0
 13 19  1  0  0  0  0
 14 18  2  0  0  0  0
 15 20  2  0  0  0  0
 15 21  1  0  0  0  0
 16 20  1  0  0  0  0
 17 21  2  0  0  0  0
 22 23  2  0  0  0  0
 22 24  1  0  0  0  0
 23 26  1  0  0  0  0
 24 27  2  0  0  0  0
 25 26  2  0  0  0  0
 25 27  1  0  0  0  0
 28 29  1  0  0  0  0
M  END
> <PUBCHEM_COMPOUND_ID_TYPE>
0

> <PUBCHEM_TOTAL_CHARGE>
0

> <PUBCHEM_SUBSTANCE_ID>
310947975

> <PUBCHEM_SUBSTANCE_VERSION>
1

> <PUBCHEM_EXT_DATASOURCE_NAME>
4488

> <PUBCHEM_EXT_DATASOURCE_REGID>
SCHEMBL16126149

> <PUBCHEM_SUBSTANCE_COMMENT>
InChI=1S/C21H19FN2O5/c1-2-28-21(27)19(26)18(25)17-11-12-23-20(24-17)13-3-7-15(8-4-13)29-16-9-5-14(22)6-10-16/h3-12,18-19,25-26H,2H2,1H3/t18-,19+/m1/s1
InChIKey=PZHDGMDMIQIPSE-MOPGFXCFSA-N

> <PUBCHEM_SUBSTANCE_SYNONYM>
SCHEMBL16126149

> <PUBCHEM_XREF_EXT_ID>
SCHEMBL16126149

> <PUBCHEM_EXT_DATASOURCE_URL>
https://www.surechembl.org/

> <PUBCHEM_EXT_SUBSTANCE_URL>
https://www.surechembl.org/chemical/SCHEMBL16126149

> <PUBCHEM_CID_ASSOCIATIONS>
117613622  1

> <PUBCHEM_COORDINATE_TYPE>
1
3

> <PUBCHEM_BONDANNOTATIONS>
12  3  6
13  4  6

$$$$
