310938920
  -OEChem-07211613022D

 13 13  0     0  0  0  0  0  0999 V2000
   -3.3267    7.2068    0.0000 O   0  0  0  0  0  0  0  0  0  0  0  0
   -4.1518    5.7778    0.0000 O   0  0  0  0  0  0  0  0  0  0  0  0
   -4.5643    7.9214    0.0000 O   0  0  0  0  0  0  0  0  0  0  0  0
   -0.8516    5.7778    0.0000 N   0  0  0  0  0  0  0  0  0  0  0  0
   -0.0265    5.7778    0.0000 N   0  0  0  0  0  0  0  0  0  0  0  0
   -2.9142    6.4923    0.0000 C   0  0  0  0  0  0  0  0  0  0  0  0
   -3.3267    5.7778    0.0000 C   0  0  0  0  0  0  0  0  0  0  0  0
   -1.6766    5.7778    0.0000 C   0  0  0  0  0  0  0  0  0  0  0  0
   -2.0892    6.4923    0.0000 C   0  0  0  0  0  0  0  0  0  0  0  0
   -2.9142    5.0633    0.0000 C   0  0  0  0  0  0  0  0  0  0  0  0
   -2.0892    5.0633    0.0000 C   0  0  0  0  0  0  0  0  0  0  0  0
   -4.1518    7.2068    0.0000 C   0  0  0  0  0  0  0  0  0  0  0  0
    0.7986    5.7778    0.0000 C   0  0  0  0  0  0  0  0  0  0  0  0
  1  6  1  0  0  0  0
  1 12  1  0  0  0  0
  2  7  1  0  0  0  0
  3 12  2  0  0  0  0
  4  5  2  3  0  0  0
  4  8  1  0  0  0  0
  5 13  1  0  0  0  0
  6  7  1  0  0  0  0
  6  9  2  0  0  0  0
  7 10  2  0  0  0  0
  8  9  1  0  0  0  0
  8 11  2  0  0  0  0
 10 11  1  0  0  0  0
M  END
> <PUBCHEM_COMPOUND_ID_TYPE>
0

> <PUBCHEM_TOTAL_CHARGE>
0

> <PUBCHEM_SUBSTANCE_ID>
310938920

> <PUBCHEM_SUBSTANCE_VERSION>
1

> <PUBCHEM_EXT_DATASOURCE_NAME>
4488

> <PUBCHEM_EXT_DATASOURCE_REGID>
SCHEMBL16116839

> <PUBCHEM_SUBSTANCE_COMMENT>
InChI=1S/C8H8N2O3/c1-9-10-6-2-3-7(12)8(4-6)13-5-11/h2-5,12H,1H3
InChIKey=DXBJSYXSTGPARL-UHFFFAOYSA-N

> <PUBCHEM_SUBSTANCE_SYNONYM>
SCHEMBL16116839

> <PUBCHEM_XREF_EXT_ID>
SCHEMBL16116839

> <PUBCHEM_EXT_DATASOURCE_URL>
https://www.surechembl.org/

> <PUBCHEM_EXT_SUBSTANCE_URL>
https://www.surechembl.org/chemical/SCHEMBL16116839

> <PUBCHEM_CID_ASSOCIATIONS>
117606317  1

> <PUBCHEM_COORDINATE_TYPE>
1
3

$$$$
