310932568
  -OEChem-07211613022D

  8  8  0     0  0  0  0  0  0999 V2000
    1.5935    1.4928    0.0000 Br  0  0  0  0  0  0  0  0  0  0  0  0
    1.5935   -0.3021    0.0000 Br  0  0  0  0  0  0  0  0  0  0  0  0
    0.1414    1.2628    0.0000 O   0  0  0  0  0  0  0  0  0  0  0  0
    0.1414   -0.0721    0.0000 O   0  0  0  0  0  0  0  0  0  0  0  0
   -1.1685    0.5954    0.0000 O   0  0  0  0  0  0  0  0  0  0  0  0
    0.9261    1.0079    0.0000 C   0  0  0  0  0  0  0  0  0  0  0  0
    0.9261    0.1829    0.0000 C   0  0  0  0  0  0  0  0  0  0  0  0
   -0.3435    0.5954    0.0000 C   0  0  0  0  0  0  0  0  0  0  0  0
  1  6  1  0  0  0  0
  2  7  1  0  0  0  0
  3  6  1  0  0  0  0
  3  8  1  0  0  0  0
  4  7  1  0  0  0  0
  4  8  1  0  0  0  0
  5  8  2  0  0  0  0
  6  7  2  0  0  0  0
M  END
> <PUBCHEM_COMPOUND_ID_TYPE>
0

> <PUBCHEM_TOTAL_CHARGE>
0

> <PUBCHEM_SUBSTANCE_ID>
310932568

> <PUBCHEM_SUBSTANCE_VERSION>
1

> <PUBCHEM_EXT_DATASOURCE_NAME>
4488

> <PUBCHEM_EXT_DATASOURCE_REGID>
SCHEMBL16109945

> <PUBCHEM_SUBSTANCE_COMMENT>
InChI=1S/C3Br2O3/c4-1-2(5)8-3(6)7-1
InChIKey=AWXSIQMQNQLATJ-UHFFFAOYSA-N

> <PUBCHEM_SUBSTANCE_SYNONYM>
SCHEMBL16109945

> <PUBCHEM_XREF_EXT_ID>
SCHEMBL16109945

> <PUBCHEM_EXT_DATASOURCE_URL>
https://www.surechembl.org/

> <PUBCHEM_EXT_SUBSTANCE_URL>
https://www.surechembl.org/chemical/SCHEMBL16109945

> <PUBCHEM_CID_ASSOCIATIONS>
117601091  1

> <PUBCHEM_COORDINATE_TYPE>
1
3

$$$$
