310947803
  -OEChem-07211613022D

 26 27  0     1  0  0  0  0  0999 V2000
    3.3569   -1.9536    0.0000 S   0  0  0  0  0  0  0  0  0  0  0  0
   -4.1730    1.5702    0.0000 S   0  0  0  0  0  0  0  0  0  0  0  0
    2.5285   -1.9536    0.0000 O   0  0  0  0  0  0  0  0  0  0  0  0
   -0.3276   -1.9536    0.0000 O   0  0  0  0  0  0  0  0  0  0  0  0
   -1.7496    0.5193    0.0000 O   0  0  0  0  0  0  0  0  0  0  0  0
   -0.3276    1.3477    0.0000 O   0  0  0  0  0  0  0  0  0  0  0  0
    3.7649   -2.6583    0.0000 O   0  0  0  0  0  0  0  0  0  0  0  0
    3.7649   -1.2364    0.0000 O   0  0  0  0  0  0  0  0  0  0  0  0
    4.1730   -1.9536    0.0000 O   0  0  0  0  0  0  0  0  0  0  0  0
    0.4142   -0.7048    0.0000 N   0  0  0  0  0  0  0  0  0  0  0  0
    1.8361   -1.5332    0.0000 N   0  0  0  0  0  0  0  0  0  0  0  0
   -1.0200    0.1113    0.0000 N   0  0  0  0  0  0  0  0  0  0  0  0
   -3.3693    2.6583    0.0000 N   0  0  0  0  0  0  0  0  0  0  0  0
   -3.7402   -0.0618    0.0000 N   0  0  0  0  0  0  0  0  0  0  0  0
    0.4142    0.1113    0.0000 C   0  0  3  0  0  0  0  0  0  0  0  0
    0.4142   -1.5085    0.0000 C   0  0  0  0  0  0  0  0  0  0  0  0
   -0.3647    0.5193    0.0000 C   0  0  0  0  0  0  0  0  0  0  0  0
    1.1190   -1.1251    0.0000 C   0  0  0  0  0  0  0  0  0  0  0  0
    1.1066    0.5193    0.0000 C   0  0  0  0  0  0  0  0  0  0  0  0
    1.8113   -0.7295    0.0000 C   0  0  0  0  0  0  0  0  0  0  0  0
    1.8237    0.1113    0.0000 C   0  0  0  0  0  0  0  0  0  0  0  0
   -3.3817    1.3106    0.0000 C   0  0  0  0  0  0  0  0  0  0  0  0
   -3.1715    0.5317    0.0000 C   0  0  3  0  0  0  0  0  0  0  0  0
   -2.4543    0.1113    0.0000 C   0  0  0  0  0  0  0  0  0  0  0  0
   -2.8994    1.9906    0.0000 C   0  0  0  0  0  0  0  0  0  0  0  0
   -4.1606    2.3987    0.0000 C   0  0  0  0  0  0  0  0  0  0  0  0
  1  3  1  0  0  0  0
  1  7  2  0  0  0  0
  1  8  2  0  0  0  0
  1  9  1  0  0  0  0
  2 22  1  0  0  0  0
  2 26  1  0  0  0  0
  3 11  1  0  0  0  0
  4 16  2  0  0  0  0
  5 12  1  0  0  0  0
  5 24  1  0  0  0  0
  6 17  2  0  0  0  0
 10 15  1  0  0  0  0
 10 16  1  0  0  0  0
 10 18  1  0  0  0  0
 11 16  1  0  0  0  0
 12 17  1  0  0  0  0
 13 25  1  0  0  0  0
 13 26  2  0  0  0  0
 14 23  1  0  0  0  0
 15 17  1  6  0  0  0
 15 19  1  0  0  0  0
 18 20  1  0  0  0  0
 19 21  1  0  0  0  0
 20 21  1  0  0  0  0
 22 23  1  0  0  0  0
 22 25  2  0  0  0  0
 23 24  1  0  0  0  0
M  END
> <PUBCHEM_COMPOUND_ID_TYPE>
0

> <PUBCHEM_TOTAL_CHARGE>
0

> <PUBCHEM_SUBSTANCE_ID>
310947803

> <PUBCHEM_SUBSTANCE_VERSION>
1

> <PUBCHEM_EXT_DATASOURCE_NAME>
4488

> <PUBCHEM_EXT_DATASOURCE_REGID>
SCHEMBL16125975

> <PUBCHEM_SUBSTANCE_COMMENT>
InChI=1S/C12H19N5O7S2/c13-8(10-5-14-7-25-10)6-23-15-11(18)9-3-1-2-4-17(9)12(19)16-24-26(20,21)22/h5,7-9H,1-4,6,13H2,(H,15,18)(H,16,19)(H,20,21,22)/t8?,9-/m0/s1
InChIKey=GKVUPAOHWUDQAP-GKAPJAKFSA-N

> <PUBCHEM_SUBSTANCE_SYNONYM>
SCHEMBL16125975

> <PUBCHEM_XREF_EXT_ID>
SCHEMBL16125975

> <PUBCHEM_EXT_DATASOURCE_URL>
https://www.surechembl.org/

> <PUBCHEM_EXT_SUBSTANCE_URL>
https://www.surechembl.org/chemical/SCHEMBL16125975

> <PUBCHEM_CID_ASSOCIATIONS>
117613472  1

> <PUBCHEM_COORDINATE_TYPE>
1
3

> <PUBCHEM_BONDANNOTATIONS>
15  17  6

$$$$
