310938994
  -OEChem-07211613022D

 27 30  0     0  0  0  0  0  0999 V2000
    0.2535   11.7205    0.0000 F   0  0  0  0  0  0  0  0  0  0  0  0
    0.6233   10.3402    0.0000 F   0  0  0  0  0  0  0  0  0  0  0  0
    0.0400   10.9236    0.0000 F   0  0  0  0  0  0  0  0  0  0  0  0
   -0.5863   13.5642    0.0000 F   0  0  0  0  0  0  0  0  0  0  0  0
   -0.6587   16.3751    0.0000 O   0  0  0  0  0  0  0  0  0  0  0  0
   -0.5863   14.9931    0.0000 N   0  0  0  0  0  0  0  0  0  0  0  0
    2.3012   10.8657    0.0000 N   0  0  0  0  0  0  0  0  0  0  0  0
    1.8887   12.1353    0.0000 C   0  0  0  0  0  0  0  0  0  0  0  0
    1.6338   11.3506    0.0000 C   0  0  0  0  0  0  0  0  0  0  0  0
    1.4762   12.8497    0.0000 C   0  0  0  0  0  0  0  0  0  0  0  0
   -1.8559   15.4056    0.0000 C   0  0  0  0  0  0  0  0  0  0  0  0
   -1.0712   15.6606    0.0000 C   0  0  0  0  0  0  0  0  0  0  0  0
    0.8369   11.1371    0.0000 C   0  0  0  0  0  0  0  0  0  0  0  0
   -1.8559   14.5806    0.0000 C   0  0  0  0  0  0  0  0  0  0  0  0
    0.6512   14.2787    0.0000 C   0  0  0  0  0  0  0  0  0  0  0  0
    0.2387   13.5642    0.0000 C   0  0  0  0  0  0  0  0  0  0  0  0
   -1.0712   14.3257    0.0000 C   0  0  0  0  0  0  0  0  0  0  0  0
    0.2387   14.9931    0.0000 C   0  0  0  0  0  0  0  0  0  0  0  0
    0.6512   12.8497    0.0000 C   0  0  0  0  0  0  0  0  0  0  0  0
    2.7137   12.1353    0.0000 C   0  0  0  0  0  0  0  0  0  0  0  0
    1.8887   13.5642    0.0000 C   0  0  0  0  0  0  0  0  0  0  0  0
    1.4762   14.2787    0.0000 C   0  0  0  0  0  0  0  0  0  0  0  0
    2.9686   11.3506    0.0000 C   0  0  0  0  0  0  0  0  0  0  0  0
   -2.5703   15.8181    0.0000 C   0  0  0  0  0  0  0  0  0  0  0  0
   -2.5703   14.1681    0.0000 C   0  0  0  0  0  0  0  0  0  0  0  0
   -3.2848   15.4056    0.0000 C   0  0  0  0  0  0  0  0  0  0  0  0
   -3.2848   14.5806    0.0000 C   0  0  0  0  0  0  0  0  0  0  0  0
  1 13  1  0  0  0  0
  2 13  1  0  0  0  0
  3 13  1  0  0  0  0
  4 16  1  0  0  0  0
  5 12  2  0  0  0  0
  6 12  1  0  0  0  0
  6 17  1  0  0  0  0
  6 18  1  0  0  0  0
  7  9  2  0  0  0  0
  7 23  1  0  0  0  0
  8  9  1  0  0  0  0
  8 10  1  0  0  0  0
  8 20  2  0  0  0  0
  9 13  1  0  0  0  0
 10 19  1  0  0  0  0
 10 21  2  0  0  0  0
 11 12  1  0  0  0  0
 11 14  2  0  0  0  0
 11 24  1  0  0  0  0
 14 17  1  0  0  0  0
 14 25  1  0  0  0  0
 15 16  1  0  0  0  0
 15 18  1  0  0  0  0
 15 22  2  0  0  0  0
 16 19  2  0  0  0  0
 20 23  1  0  0  0  0
 21 22  1  0  0  0  0
 24 26  2  0  0  0  0
 25 27  2  0  0  0  0
 26 27  1  0  0  0  0
M  END
> <PUBCHEM_COMPOUND_ID_TYPE>
0

> <PUBCHEM_TOTAL_CHARGE>
0

> <PUBCHEM_SUBSTANCE_ID>
310938994

> <PUBCHEM_SUBSTANCE_VERSION>
1

> <PUBCHEM_EXT_DATASOURCE_NAME>
4488

> <PUBCHEM_EXT_DATASOURCE_REGID>
SCHEMBL16116913

> <PUBCHEM_SUBSTANCE_COMMENT>
InChI=1S/C20H14F4N2O/c21-17-9-12(15-7-8-25-18(15)20(22,23)24)5-6-14(17)11-26-10-13-3-1-2-4-16(13)19(26)27/h1-7,9H,8,10-11H2
InChIKey=WTWVMLBMAIPRJG-UHFFFAOYSA-N

> <PUBCHEM_SUBSTANCE_SYNONYM>
SCHEMBL16116913

> <PUBCHEM_XREF_EXT_ID>
SCHEMBL16116913

> <PUBCHEM_EXT_DATASOURCE_URL>
https://www.surechembl.org/

> <PUBCHEM_EXT_SUBSTANCE_URL>
https://www.surechembl.org/chemical/SCHEMBL16116913

> <PUBCHEM_CID_ASSOCIATIONS>
117606378  1

> <PUBCHEM_COORDINATE_TYPE>
1
3

$$$$
