310941510
  -OEChem-07211613022D

 24 25  0     0  0  0  0  0  0999 V2000
   -0.3639    2.0945    0.0000 S   0  0  0  0  0  0  0  0  0  0  0  0
    1.7711    0.0243    0.0000 O   0  0  0  0  0  0  0  0  0  0  0  0
   -1.7873    2.0945    0.0000 O   0  0  0  0  0  0  0  0  0  0  0  0
    0.3316    0.8815    0.0000 N   0  0  0  0  0  0  0  0  0  0  0  0
   -1.0756    0.8815    0.0000 N   0  0  0  0  0  0  0  0  0  0  0  0
    3.1783   -1.6094    0.0000 N   0  0  0  0  0  0  0  0  0  0  0  0
    1.0433    1.2858    0.0000 C   0  0  0  0  0  0  0  0  0  0  0  0
    1.7711    0.8653    0.0000 C   0  0  0  0  0  0  0  0  0  0  0  0
   -0.3963    1.2697    0.0000 C   0  0  0  0  0  0  0  0  0  0  0  0
   -1.8196    1.2697    0.0000 C   0  0  0  0  0  0  0  0  0  0  0  0
   -2.5313    0.8653    0.0000 C   0  0  0  0  0  0  0  0  0  0  0  0
    1.0594    2.1107    0.0000 C   0  0  0  0  0  0  0  0  0  0  0  0
    2.4989    1.3020    0.0000 C   0  0  0  0  0  0  0  0  0  0  0  0
    1.7873    2.4827    0.0000 C   0  0  0  0  0  0  0  0  0  0  0  0
    2.4989    2.0945    0.0000 C   0  0  0  0  0  0  0  0  0  0  0  0
   -3.2106    1.2858    0.0000 C   0  0  0  0  0  0  0  0  0  0  0  0
   -2.5475    0.0405    0.0000 C   0  0  0  0  0  0  0  0  0  0  0  0
    2.4989   -0.3963    0.0000 C   0  0  0  0  0  0  0  0  0  0  0  0
   -3.9223    0.8492    0.0000 C   0  0  0  0  0  0  0  0  0  0  0  0
   -3.2106   -0.3801    0.0000 C   0  0  0  0  0  0  0  0  0  0  0  0
   -3.9223    0.0405    0.0000 C   0  0  0  0  0  0  0  0  0  0  0  0
    2.5151   -1.2212    0.0000 C   0  0  0  0  0  0  0  0  0  0  0  0
    3.1944   -2.4827    0.0000 C   0  0  0  0  0  0  0  0  0  0  0  0
    3.9223   -1.2050    0.0000 C   0  0  0  0  0  0  0  0  0  0  0  0
  1  9  2  0  0  0  0
  2  8  1  0  0  0  0
  2 18  1  0  0  0  0
  3 10  2  0  0  0  0
  4  7  1  0  0  0  0
  4  9  1  0  0  0  0
  5  9  1  0  0  0  0
  5 10  1  0  0  0  0
  6 22  1  0  0  0  0
  6 23  1  0  0  0  0
  6 24  1  0  0  0  0
  7  8  2  0  0  0  0
  7 12  1  0  0  0  0
  8 13  1  0  0  0  0
 10 11  1  0  0  0  0
 11 16  2  0  0  0  0
 11 17  1  0  0  0  0
 12 14  2  0  0  0  0
 13 15  2  0  0  0  0
 14 15  1  0  0  0  0
 16 19  1  0  0  0  0
 17 20  2  0  0  0  0
 18 22  1  0  0  0  0
 19 21  2  0  0  0  0
 20 21  1  0  0  0  0
M  END
> <PUBCHEM_COMPOUND_ID_TYPE>
0

> <PUBCHEM_TOTAL_CHARGE>
0

> <PUBCHEM_SUBSTANCE_ID>
310941510

> <PUBCHEM_SUBSTANCE_VERSION>
1

> <PUBCHEM_EXT_DATASOURCE_NAME>
4488

> <PUBCHEM_EXT_DATASOURCE_REGID>
SCHEMBL16119541

> <PUBCHEM_SUBSTANCE_COMMENT>
InChI=1S/C18H21N3O2S/c1-21(2)12-13-23-16-11-7-6-10-15(16)19-18(24)20-17(22)14-8-4-3-5-9-14/h3-11H,12-13H2,1-2H3,(H2,19,20,22,24)
InChIKey=VMSXMGDUUWPQIE-UHFFFAOYSA-N

> <PUBCHEM_SUBSTANCE_SYNONYM>
SCHEMBL16119541

> <PUBCHEM_XREF_EXT_ID>
SCHEMBL16119541

> <PUBCHEM_EXT_DATASOURCE_URL>
https://www.surechembl.org/

> <PUBCHEM_EXT_SUBSTANCE_URL>
https://www.surechembl.org/chemical/SCHEMBL16119541

> <PUBCHEM_CID_ASSOCIATIONS>
117608329  1

> <PUBCHEM_COORDINATE_TYPE>
1
3

$$$$
