310942449
  -OEChem-07211613022D

 19 20  0     0  0  0  0  0  0999 V2000
   -2.1822   -0.1951    0.0000 S   0  0  0  0  0  0  0  0  0  0  0  0
    2.1556    2.2798    0.0000 O   0  0  0  0  0  0  0  0  0  0  0  0
   -0.7274   -0.1951    0.0000 N   0  0  0  0  0  0  0  0  0  0  0  0
    0.7185   -0.1951    0.0000 N   0  0  0  0  0  0  0  0  0  0  0  0
   -1.4548    1.0467    0.0000 N   0  0  0  0  0  0  0  0  0  0  0  0
   -0.0088    0.2307    0.0000 C   0  0  0  0  0  0  0  0  0  0  0  0
    0.0000    1.0467    0.0000 C   0  0  0  0  0  0  0  0  0  0  0  0
   -1.4459    0.2307    0.0000 C   0  0  0  0  0  0  0  0  0  0  0  0
   -0.7363    1.4548    0.0000 C   0  0  0  0  0  0  0  0  0  0  0  0
    0.7185   -1.0113    0.0000 C   0  0  0  0  0  0  0  0  0  0  0  0
    0.7097    1.4548    0.0000 C   0  0  0  0  0  0  0  0  0  0  0  0
    0.0621   -1.4991    0.0000 C   0  0  0  0  0  0  0  0  0  0  0  0
    1.3838   -1.4991    0.0000 C   0  0  0  0  0  0  0  0  0  0  0  0
    1.4548    1.0467    0.0000 C   0  0  0  0  0  0  0  0  0  0  0  0
    0.3016   -2.2798    0.0000 C   0  0  0  0  0  0  0  0  0  0  0  0
    1.1355   -2.2798    0.0000 C   0  0  0  0  0  0  0  0  0  0  0  0
    2.1644    1.4459    0.0000 C   0  0  0  0  0  0  0  0  0  0  0  0
   -2.9007    0.2217    0.0000 C   0  0  0  0  0  0  0  0  0  0  0  0
    2.9007    1.0467    0.0000 C   0  0  0  0  0  0  0  0  0  0  0  0
  1  8  1  0  0  0  0
  1 18  1  0  0  0  0
  2 17  2  0  0  0  0
  3  6  2  0  0  0  0
  3  8  1  0  0  0  0
  4  6  1  0  0  0  0
  4 10  1  0  0  0  0
  5  8  2  0  0  0  0
  5  9  1  0  0  0  0
  6  7  1  0  0  0  0
  7  9  2  0  0  0  0
  7 11  1  0  0  0  0
 10 12  1  0  0  0  0
 10 13  1  0  0  0  0
 11 14  2  0  0  0  0
 12 15  1  0  0  0  0
 13 16  1  0  0  0  0
 14 17  1  0  0  0  0
 15 16  1  0  0  0  0
 17 19  1  0  0  0  0
M  END
> <PUBCHEM_COMPOUND_ID_TYPE>
0

> <PUBCHEM_TOTAL_CHARGE>
0

> <PUBCHEM_SUBSTANCE_ID>
310942449

> <PUBCHEM_SUBSTANCE_VERSION>
1

> <PUBCHEM_EXT_DATASOURCE_NAME>
4488

> <PUBCHEM_EXT_DATASOURCE_REGID>
SCHEMBL16120485

> <PUBCHEM_SUBSTANCE_COMMENT>
InChI=1S/C14H19N3OS/c1-10(18)7-8-11-9-15-14(19-2)17-13(11)16-12-5-3-4-6-12/h7-9,12H,3-6H2,1-2H3,(H,15,16,17)/b8-7+
InChIKey=QBPQALDJRUHSJW-BQYQJAHWSA-N

> <PUBCHEM_SUBSTANCE_SYNONYM>
SCHEMBL16120485

> <PUBCHEM_XREF_EXT_ID>
SCHEMBL16120485

> <PUBCHEM_EXT_DATASOURCE_URL>
https://www.surechembl.org/

> <PUBCHEM_EXT_SUBSTANCE_URL>
https://www.surechembl.org/chemical/SCHEMBL16120485

> <PUBCHEM_CID_ASSOCIATIONS>
90466477  1

> <PUBCHEM_COORDINATE_TYPE>
1
3

$$$$
