310947976
  -OEChem-07211613022D

 27 29  0     1  0  0  0  0  0999 V2000
  -12.0635  -13.4930    0.0000 F   0  0  0  0  0  0  0  0  0  0  0  0
   -9.2056  -15.1430    0.0000 O   0  0  0  0  0  0  0  0  0  0  0  0
   -4.2043  -14.7305    0.0000 O   0  0  0  0  0  0  0  0  0  0  0  0
   -3.4898  -12.6680    0.0000 O   0  0  0  0  0  0  0  0  0  0  0  0
   -2.7752  -14.7305    0.0000 O   0  0  0  0  0  0  0  0  0  0  0  0
   -5.6332  -13.9055    0.0000 N   0  0  0  0  0  0  0  0  0  0  0  0
   -6.3477  -12.6680    0.0000 N   0  0  0  0  0  0  0  0  0  0  0  0
   -2.0608  -13.4930    0.0000 N   0  0  0  0  0  0  0  0  0  0  0  0
   -6.3477  -13.4930    0.0000 C   0  0  0  0  0  0  0  0  0  0  0  0
   -4.9187  -13.4930    0.0000 C   0  0  0  0  0  0  0  0  0  0  0  0
   -7.0621  -13.9055    0.0000 C   0  0  0  0  0  0  0  0  0  0  0  0
   -4.2043  -13.9055    0.0000 C   0  0  3  0  0  0  0  0  0  0  0  0
   -3.4898  -13.4930    0.0000 C   0  0  3  0  0  0  0  0  0  0  0  0
   -8.4912  -14.7305    0.0000 C   0  0  0  0  0  0  0  0  0  0  0  0
   -4.9187  -12.6680    0.0000 C   0  0  0  0  0  0  0  0  0  0  0  0
   -7.7766  -13.4930    0.0000 C   0  0  0  0  0  0  0  0  0  0  0  0
   -7.0621  -14.7305    0.0000 C   0  0  0  0  0  0  0  0  0  0  0  0
   -5.6332  -12.2555    0.0000 C   0  0  0  0  0  0  0  0  0  0  0  0
   -8.4912  -13.9055    0.0000 C   0  0  0  0  0  0  0  0  0  0  0  0
   -7.7766  -15.1430    0.0000 C   0  0  0  0  0  0  0  0  0  0  0  0
   -9.9201  -14.7305    0.0000 C   0  0  0  0  0  0  0  0  0  0  0  0
   -2.7752  -13.9055    0.0000 C   0  0  0  0  0  0  0  0  0  0  0  0
  -10.6345  -15.1430    0.0000 C   0  0  0  0  0  0  0  0  0  0  0  0
   -9.9201  -13.9055    0.0000 C   0  0  0  0  0  0  0  0  0  0  0  0
  -11.3490  -13.9055    0.0000 C   0  0  0  0  0  0  0  0  0  0  0  0
  -11.3490  -14.7305    0.0000 C   0  0  0  0  0  0  0  0  0  0  0  0
  -10.6345  -13.4930    0.0000 C   0  0  0  0  0  0  0  0  0  0  0  0
  1 25  1  0  0  0  0
  2 14  1  0  0  0  0
  2 21  1  0  0  0  0
 12  3  1  6  0  0  0
 13  4  1  6  0  0  0
  5 22  2  0  0  0  0
  6  9  1  0  0  0  0
  6 10  2  0  0  0  0
  7  9  2  0  0  0  0
  7 18  1  0  0  0  0
  8 22  1  0  0  0  0
  9 11  1  0  0  0  0
 10 12  1  0  0  0  0
 10 15  1  0  0  0  0
 11 16  2  0  0  0  0
 11 17  1  0  0  0  0
 12 13  1  0  0  0  0
 13 22  1  0  0  0  0
 14 19  2  0  0  0  0
 14 20  1  0  0  0  0
 15 18  2  0  0  0  0
 16 19  1  0  0  0  0
 17 20  2  0  0  0  0
 21 23  2  0  0  0  0
 21 24  1  0  0  0  0
 23 26  1  0  0  0  0
 24 27  2  0  0  0  0
 25 26  2  0  0  0  0
 25 27  1  0  0  0  0
M  END
> <PUBCHEM_COMPOUND_ID_TYPE>
0

> <PUBCHEM_TOTAL_CHARGE>
0

> <PUBCHEM_SUBSTANCE_ID>
310947976

> <PUBCHEM_SUBSTANCE_VERSION>
1

> <PUBCHEM_EXT_DATASOURCE_NAME>
4488

> <PUBCHEM_EXT_DATASOURCE_REGID>
SCHEMBL16126150

> <PUBCHEM_SUBSTANCE_COMMENT>
InChI=1S/C19H16FN3O4/c20-12-3-7-14(8-4-12)27-13-5-1-11(2-6-13)19-22-10-9-15(23-19)16(24)17(25)18(21)26/h1-10,16-17,24-25H,(H2,21,26)/t16-,17+/m1/s1
InChIKey=JUMIOUJMMKTXRW-SJORKVTESA-N

> <PUBCHEM_SUBSTANCE_SYNONYM>
SCHEMBL16126150

> <PUBCHEM_XREF_EXT_ID>
SCHEMBL16126150

> <PUBCHEM_EXT_DATASOURCE_URL>
https://www.surechembl.org/

> <PUBCHEM_EXT_SUBSTANCE_URL>
https://www.surechembl.org/chemical/SCHEMBL16126150

> <PUBCHEM_CID_ASSOCIATIONS>
117613623  1

> <PUBCHEM_COORDINATE_TYPE>
1
3

> <PUBCHEM_BONDANNOTATIONS>
12  3  6
13  4  6

$$$$
