310944721
  -OEChem-07211613022D

 27 29  0     0  0  0  0  0  0999 V2000
   -4.0254    1.7642    0.0000 Cl  0  0  0  0  0  0  0  0  0  0  0  0
   -4.0254    0.1118    0.0000 Cl  0  0  0  0  0  0  0  0  0  0  0  0
    0.4348    2.5966    0.0000 O   0  0  0  0  0  0  0  0  0  0  0  0
   -0.9940    0.1118    0.0000 O   0  0  0  0  0  0  0  0  0  0  0  0
    4.0254   -1.8760    0.0000 O   0  0  0  0  0  0  0  0  0  0  0  0
    1.1679    1.3543    0.0000 N   0  0  0  0  0  0  0  0  0  0  0  0
    2.7954   -1.1555    0.0000 N   0  0  0  0  0  0  0  0  0  0  0  0
   -0.9815    1.7766    0.0000 N   0  0  0  0  0  0  0  0  0  0  0  0
    1.9629    0.2733    0.0000 C   0  0  0  0  0  0  0  0  0  0  0  0
    1.1803    0.5342    0.0000 C   0  0  0  0  0  0  0  0  0  0  0  0
    2.4476    0.9567    0.0000 C   0  0  0  0  0  0  0  0  0  0  0  0
    1.5530   -0.4596    0.0000 C   0  0  0  0  0  0  0  0  0  0  0  0
    2.7954    0.2609    0.0000 C   0  0  0  0  0  0  0  0  0  0  0  0
    1.9629    1.6151    0.0000 C   0  0  0  0  0  0  0  0  0  0  0  0
    0.4348    1.7642    0.0000 C   0  0  0  0  0  0  0  0  0  0  0  0
    1.9629   -1.1555    0.0000 C   0  0  0  0  0  0  0  0  0  0  0  0
    3.2054   -0.4473    0.0000 C   0  0  0  0  0  0  0  0  0  0  0  0
   -1.7021    1.3666    0.0000 C   0  0  0  0  0  0  0  0  0  0  0  0
   -1.7145    0.5342    0.0000 C   0  0  0  0  0  0  0  0  0  0  0  0
   -0.2609    1.3666    0.0000 C   0  0  0  0  0  0  0  0  0  0  0  0
    3.1930   -1.8760    0.0000 C   0  0  0  0  0  0  0  0  0  0  0  0
   -3.1309    1.3666    0.0000 C   0  0  0  0  0  0  0  0  0  0  0  0
   -3.1433    0.5342    0.0000 C   0  0  0  0  0  0  0  0  0  0  0  0
   -2.4103    1.7642    0.0000 C   0  0  0  0  0  0  0  0  0  0  0  0
   -2.4103    0.1243    0.0000 C   0  0  0  0  0  0  0  0  0  0  0  0
    2.7954   -2.5966    0.0000 C   0  0  0  0  0  0  0  0  0  0  0  0
    1.9629   -2.5470    0.0000 C   0  0  0  0  0  0  0  0  0  0  0  0
  1 22  1  0  0  0  0
  2 23  1  0  0  0  0
  3 15  2  0  0  0  0
  4 19  1  0  0  0  0
  5 21  2  0  0  0  0
  6 10  1  0  0  0  0
  6 14  1  0  0  0  0
  6 15  1  0  0  0  0
  7 16  1  0  0  0  0
  7 17  1  0  0  0  0
  7 21  1  0  0  0  0
  8 18  1  0  0  0  0
  8 20  1  0  0  0  0
  9 10  1  0  0  0  0
  9 11  1  0  0  0  0
  9 12  1  0  0  0  0
  9 13  1  0  0  0  0
 11 14  1  0  0  0  0
 12 16  1  0  0  0  0
 13 17  1  0  0  0  0
 15 20  1  0  0  0  0
 18 19  1  0  0  0  0
 18 24  2  0  0  0  0
 19 25  2  0  0  0  0
 21 26  1  0  0  0  0
 22 23  2  0  0  0  0
 22 24  1  0  0  0  0
 23 25  1  0  0  0  0
 26 27  2  0  0  0  0
M  END
> <PUBCHEM_COMPOUND_ID_TYPE>
0

> <PUBCHEM_TOTAL_CHARGE>
0

> <PUBCHEM_SUBSTANCE_ID>
310944721

> <PUBCHEM_SUBSTANCE_VERSION>
1

> <PUBCHEM_EXT_DATASOURCE_NAME>
4488

> <PUBCHEM_EXT_DATASOURCE_REGID>
SCHEMBL16122800

> <PUBCHEM_SUBSTANCE_COMMENT>
InChI=1S/C19H23Cl2N3O3/c1-2-17(26)23-6-3-19(4-7-23)5-8-24(12-19)18(27)11-22-15-9-13(20)14(21)10-16(15)25/h2,9-10,22,25H,1,3-8,11-12H2
InChIKey=DNMZWTAKIIOBNV-UHFFFAOYSA-N

> <PUBCHEM_SUBSTANCE_SYNONYM>
SCHEMBL16122800

> <PUBCHEM_XREF_EXT_ID>
SCHEMBL16122800

> <PUBCHEM_EXT_DATASOURCE_URL>
https://www.surechembl.org/

> <PUBCHEM_EXT_SUBSTANCE_URL>
https://www.surechembl.org/chemical/SCHEMBL16122800

> <PUBCHEM_CID_ASSOCIATIONS>
117610941  1

> <PUBCHEM_COORDINATE_TYPE>
1
3

$$$$
