310944696
  -OEChem-07211613022D

 27 31  0     1  0  0  0  0  0999 V2000
    2.3495    1.1907    0.0000 O   0  0  0  0  0  0  0  0  0  0  0  0
    0.3175   -0.2381    0.0000 N   0  0  0  0  0  0  0  0  0  0  0  0
   -2.6194   -0.2857    0.0000 N   0  0  0  0  0  0  0  0  0  0  0  0
   -2.9686    0.4921    0.0000 N   0  0  0  0  0  0  0  0  0  0  0  0
    1.0954   -0.5874    0.0000 C   0  0  3  0  0  0  0  0  0  0  0  0
    0.3969    0.6350    0.0000 C   0  0  3  0  0  0  0  0  0  0  0  0
   -3.2385   -0.8255    0.0000 C   0  0  0  0  0  0  0  0  0  0  0  0
   -3.9529   -0.4128    0.0000 C   0  0  0  0  0  0  0  0  0  0  0  0
    1.7621    0.6033    0.0000 C   0  0  0  0  0  0  0  0  0  0  0  0
    1.0319    1.0001    0.0000 C   0  0  0  0  0  0  0  0  0  0  0  0
    1.7462   -0.2381    0.0000 C   0  0  0  0  0  0  0  0  0  0  0  0
   -0.5874   -0.8572    0.0000 C   0  0  0  0  0  0  0  0  0  0  0  0
   -3.2544   -1.6510    0.0000 C   0  0  0  0  0  0  0  0  0  0  0  0
    1.5081    0.0159    0.0000 C   0  0  0  0  0  0  0  0  0  0  0  0
    1.1112    0.7144    0.0000 C   0  0  0  0  0  0  0  0  0  0  0  0
   -1.3335   -0.4604    0.0000 C   0  0  3  0  0  0  0  0  0  0  0  0
   -2.0162   -0.8572    0.0000 C   0  0  0  0  0  0  0  0  0  0  0  0
   -3.7783    0.3969    0.0000 C   0  0  0  0  0  0  0  0  0  0  0  0
   -4.6672   -0.8414    0.0000 C   0  0  0  0  0  0  0  0  0  0  0  0
   -3.9529   -2.0796    0.0000 C   0  0  0  0  0  0  0  0  0  0  0  0
   -4.6514   -1.6827    0.0000 C   0  0  0  0  0  0  0  0  0  0  0  0
    3.8735    1.3970    0.0000 C   0  0  0  0  0  0  0  0  0  0  0  0
    3.1591    0.9843    0.0000 C   0  0  0  0  0  0  0  0  0  0  0  0
   -2.5083   -2.0955    0.0000 C   0  0  0  0  0  0  0  0  0  0  0  0
   -1.3653    0.4604    0.0000 C   0  0  0  0  0  0  0  0  0  0  0  0
    4.2704    2.0955    0.0000 C   0  0  0  0  0  0  0  0  0  0  0  0
    4.6672    1.4129    0.0000 C   0  0  0  0  0  0  0  0  0  0  0  0
  9  1  1  1  0  0  0
  1 23  1  0  0  0  0
  5  2  1  6  0  0  0
  6  2  1  6  0  0  0
  2 12  1  0  0  0  0
  3  4  1  0  0  0  0
  3  7  1  0  0  0  0
  3 17  1  0  0  0  0
  4 18  2  0  0  0  0
  5 11  1  0  0  0  0
  5 14  1  0  0  0  0
  6 10  1  0  0  0  0
  6 15  1  0  0  0  0
  7  8  2  0  0  0  0
  7 13  1  0  0  0  0
  8 18  1  0  0  0  0
  8 19  1  0  0  0  0
  9 10  1  0  0  0  0
  9 11  1  0  0  0  0
 12 16  1  0  0  0  0
 13 20  2  0  0  0  0
 13 24  1  0  0  0  0
 14 15  1  0  0  0  0
 16 17  1  0  0  0  0
 16 25  1  6  0  0  0
 19 21  2  0  0  0  0
 20 21  1  0  0  0  0
 22 23  1  0  0  0  0
 22 26  1  0  0  0  0
 22 27  1  0  0  0  0
 26 27  1  0  0  0  0
M  END
> <PUBCHEM_COMPOUND_ID_TYPE>
0

> <PUBCHEM_TOTAL_CHARGE>
0

> <PUBCHEM_SUBSTANCE_ID>
310944696

> <PUBCHEM_SUBSTANCE_VERSION>
1

> <PUBCHEM_EXT_DATASOURCE_NAME>
4488

> <PUBCHEM_EXT_DATASOURCE_REGID>
SCHEMBL16122775

> <PUBCHEM_SUBSTANCE_COMMENT>
InChI=1S/C23H33N3O/c1-16(14-26-23-17(2)4-3-5-19(23)12-24-26)13-25-20-8-9-21(25)11-22(10-20)27-15-18-6-7-18/h3-5,12,16,18,20-22H,6-11,13-15H2,1-2H3/t16-,20-,21+,22+/m1/s1
InChIKey=SFDGDCVMPXBWNZ-XXMUNEJQSA-N

> <PUBCHEM_SUBSTANCE_SYNONYM>
SCHEMBL16122775

> <PUBCHEM_XREF_EXT_ID>
SCHEMBL16122775

> <PUBCHEM_EXT_DATASOURCE_URL>
https://www.surechembl.org/

> <PUBCHEM_EXT_SUBSTANCE_URL>
https://www.surechembl.org/chemical/SCHEMBL16122775

> <PUBCHEM_CID_ASSOCIATIONS>
117610920  1

> <PUBCHEM_COORDINATE_TYPE>
1
3

> <PUBCHEM_BONDANNOTATIONS>
9  1  5
16  25  6
5  2  6
6  2  6

$$$$
