310932179
  -OEChem-07211613022D

 26 28  0     0  0  0  0  0  0999 V2000
    3.9723   -2.7195    0.0000 O   0  0  0  0  0  0  0  0  0  0  0  0
    8.4334   -2.8111    0.0000 O   0  0  0  0  0  0  0  0  0  0  0  0
    4.8890   -1.5889    0.0000 N   0  0  0  0  0  0  0  0  0  0  0  0
    4.7973   -0.7639    0.0000 N   0  0  0  0  0  0  0  0  0  0  0  0
    6.2945   -1.5889    0.0000 N   0  0  0  0  0  0  0  0  0  0  0  0
    7.7306   -4.0334    0.0000 N   0  0  0  0  0  0  0  0  0  0  0  0
    0.0000   -2.4445    0.0000 N   0  0  0  0  0  0  0  0  0  0  0  0
    3.5750   -1.3139    0.0000 C   0  0  0  0  0  0  0  0  0  0  0  0
    4.1556   -1.9250    0.0000 C   0  0  0  0  0  0  0  0  0  0  0  0
    2.7806   -1.4056    0.0000 C   0  0  0  0  0  0  0  0  0  0  0  0
    5.5917   -1.9861    0.0000 C   0  0  0  0  0  0  0  0  0  0  0  0
    3.9723   -0.6111    0.0000 C   0  0  0  0  0  0  0  0  0  0  0  0
    2.2611   -0.7639    0.0000 C   0  0  0  0  0  0  0  0  0  0  0  0
    2.4445   -2.1695    0.0000 C   0  0  0  0  0  0  0  0  0  0  0  0
    5.5917   -2.8111    0.0000 C   0  0  0  0  0  0  0  0  0  0  0  0
    6.9973   -2.8111    0.0000 C   0  0  0  0  0  0  0  0  0  0  0  0
    1.4667   -0.8555    0.0000 C   0  0  0  0  0  0  0  0  0  0  0  0
    6.9973   -1.9861    0.0000 C   0  0  0  0  0  0  0  0  0  0  0  0
    6.2945   -3.2084    0.0000 C   0  0  0  0  0  0  0  0  0  0  0  0
    1.1306   -1.5889    0.0000 C   0  0  0  0  0  0  0  0  0  0  0  0
    1.6195   -2.2611    0.0000 C   0  0  0  0  0  0  0  0  0  0  0  0
    7.7306   -3.2084    0.0000 C   0  0  0  0  0  0  0  0  0  0  0  0
    2.5972    0.0000    0.0000 C   0  0  0  0  0  0  0  0  0  0  0  0
    0.3056   -1.6805    0.0000 C   0  0  0  0  0  0  0  0  0  0  0  0
    8.4334   -4.4611    0.0000 C   0  0  0  0  0  0  0  0  0  0  0  0
    9.1668   -4.0334    0.0000 C   0  0  0  0  0  0  0  0  0  0  0  0
  1  9  1  0  0  0  0
  2 22  2  0  0  0  0
  3  4  1  0  0  0  0
  3  9  1  0  0  0  0
  3 11  1  0  0  0  0
  4 12  2  0  0  0  0
  5 11  2  0  0  0  0
  5 18  1  0  0  0  0
  6 22  1  0  0  0  0
  6 25  1  0  0  0  0
  7 24  3  0  0  0  0
  8  9  2  0  0  0  0
  8 10  1  0  0  0  0
  8 12  1  0  0  0  0
 10 13  1  0  0  0  0
 10 14  2  0  0  0  0
 11 15  1  0  0  0  0
 13 17  2  0  0  0  0
 13 23  1  0  0  0  0
 14 21  1  0  0  0  0
 15 19  2  0  0  0  0
 16 18  2  0  0  0  0
 16 19  1  0  0  0  0
 16 22  1  0  0  0  0
 17 20  1  0  0  0  0
 20 21  2  0  0  0  0
 20 24  1  0  0  0  0
 25 26  1  0  0  0  0
M  END
> <PUBCHEM_COMPOUND_ID_TYPE>
0

> <PUBCHEM_TOTAL_CHARGE>
0

> <PUBCHEM_SUBSTANCE_ID>
310932179

> <PUBCHEM_SUBSTANCE_VERSION>
1

> <PUBCHEM_EXT_DATASOURCE_NAME>
4488

> <PUBCHEM_EXT_DATASOURCE_REGID>
SCHEMBL16109533

> <PUBCHEM_SUBSTANCE_COMMENT>
InChI=1S/C19H17N5O2/c1-3-21-18(25)14-5-7-17(22-10-14)24-19(26)16(11-23-24)15-6-4-13(9-20)8-12(15)2/h4-8,10-11,26H,3H2,1-2H3,(H,21,25)
InChIKey=JKEMGEKYBXUROP-UHFFFAOYSA-N

> <PUBCHEM_SUBSTANCE_SYNONYM>
SCHEMBL16109533

> <PUBCHEM_XREF_EXT_ID>
SCHEMBL16109533

> <PUBCHEM_EXT_DATASOURCE_URL>
https://www.surechembl.org/

> <PUBCHEM_EXT_SUBSTANCE_URL>
https://www.surechembl.org/chemical/SCHEMBL16109533

> <PUBCHEM_CID_ASSOCIATIONS>
117600775  1

> <PUBCHEM_COORDINATE_TYPE>
1
3

$$$$
