310939717
  -OEChem-07211613022D

 29 32  0     0  0  0  0  0  0999 V2000
    0.1961    2.3857    0.0000 F   0  0  0  0  0  0  0  0  0  0  0  0
    0.5066    1.3072    0.0000 F   0  0  0  0  0  0  0  0  0  0  0  0
   -0.6046    1.0131    0.0000 F   0  0  0  0  0  0  0  0  0  0  0  0
    1.2092   -1.3400    0.0000 O   0  0  0  0  0  0  0  0  0  0  0  0
   -2.3857   -2.0263    0.0000 O   0  0  0  0  0  0  0  0  0  0  0  0
   -1.6341   -0.7844    0.0000 N   0  0  0  0  0  0  0  0  0  0  0  0
   -1.0785   -2.8597    0.0000 N   0  0  0  0  0  0  0  0  0  0  0  0
   -0.3758   -3.3662    0.0000 N   0  0  0  0  0  0  0  0  0  0  0  0
   -0.1144   -1.9283    0.0000 C   0  0  0  0  0  0  0  0  0  0  0  0
   -0.9314   -2.0426    0.0000 C   0  0  0  0  0  0  0  0  0  0  0  0
    0.2451   -2.6799    0.0000 C   0  0  0  0  0  0  0  0  0  0  0  0
   -1.6668   -1.6014    0.0000 C   0  0  0  0  0  0  0  0  0  0  0  0
    1.5524   -2.0590    0.0000 C   0  0  0  0  0  0  0  0  0  0  0  0
    1.0621   -2.7616    0.0000 C   0  0  0  0  0  0  0  0  0  0  0  0
   -1.6504    1.7158    0.0000 C   0  0  0  0  0  0  0  0  0  0  0  0
    0.4086   -1.2582    0.0000 C   0  0  0  0  0  0  0  0  0  0  0  0
   -1.6668    0.8824    0.0000 C   0  0  0  0  0  0  0  0  0  0  0  0
   -0.9478    2.1406    0.0000 C   0  0  0  0  0  0  0  0  0  0  0  0
   -0.2125    1.6994    0.0000 C   0  0  0  0  0  0  0  0  0  0  0  0
   -0.9314   -0.3758    0.0000 C   0  0  0  0  0  0  0  0  0  0  0  0
   -2.3695   -0.3595    0.0000 C   0  0  0  0  0  0  0  0  0  0  0  0
   -0.9314    0.4576    0.0000 C   0  0  0  0  0  0  0  0  0  0  0  0
   -2.3531    0.4576    0.0000 C   0  0  0  0  0  0  0  0  0  0  0  0
   -2.3531    2.1244    0.0000 C   0  0  0  0  0  0  0  0  0  0  0  0
   -0.9151    2.9414    0.0000 C   0  0  0  0  0  0  0  0  0  0  0  0
    2.0263   -1.4053    0.0000 C   0  0  0  0  0  0  0  0  0  0  0  0
    2.3857   -2.1570    0.0000 C   0  0  0  0  0  0  0  0  0  0  0  0
   -2.3531    2.9414    0.0000 C   0  0  0  0  0  0  0  0  0  0  0  0
   -1.6504    3.3662    0.0000 C   0  0  0  0  0  0  0  0  0  0  0  0
  1 19  1  0  0  0  0
  2 19  1  0  0  0  0
  3 19  1  0  0  0  0
  4 13  1  0  0  0  0
  4 16  1  0  0  0  0
  5 12  2  0  0  0  0
  6 12  1  0  0  0  0
  6 20  1  0  0  0  0
  6 21  1  0  0  0  0
  7  8  1  0  0  0  0
  7 10  2  0  0  0  0
  8 11  1  0  0  0  0
  9 10  1  0  0  0  0
  9 11  2  0  0  0  0
  9 16  1  0  0  0  0
 10 12  1  0  0  0  0
 11 14  1  0  0  0  0
 13 14  1  0  0  0  0
 13 26  1  0  0  0  0
 13 27  1  0  0  0  0
 15 17  1  0  0  0  0
 15 18  2  0  0  0  0
 15 24  1  0  0  0  0
 17 22  1  0  0  0  0
 17 23  1  0  0  0  0
 18 19  1  0  0  0  0
 18 25  1  0  0  0  0
 20 22  1  0  0  0  0
 21 23  1  0  0  0  0
 24 28  2  0  0  0  0
 25 29  2  0  0  0  0
 28 29  1  0  0  0  0
M  END
> <PUBCHEM_COMPOUND_ID_TYPE>
0

> <PUBCHEM_TOTAL_CHARGE>
0

> <PUBCHEM_SUBSTANCE_ID>
310939717

> <PUBCHEM_SUBSTANCE_VERSION>
1

> <PUBCHEM_EXT_DATASOURCE_NAME>
4488

> <PUBCHEM_EXT_DATASOURCE_REGID>
SCHEMBL16117647

> <PUBCHEM_SUBSTANCE_COMMENT>
InChI=1S/C21H24F3N3O2/c1-20(2)11-17-15(12-29-20)18(26-25-17)19(28)27-9-7-13(8-10-27)14-5-3-4-6-16(14)21(22,23)24/h3-6,13H,7-12H2,1-2H3,(H,25,26)
InChIKey=GNSVNSYEJLCTHM-UHFFFAOYSA-N

> <PUBCHEM_SUBSTANCE_SYNONYM>
SCHEMBL16117647

> <PUBCHEM_XREF_EXT_ID>
SCHEMBL16117647

> <PUBCHEM_EXT_DATASOURCE_URL>
https://www.surechembl.org/

> <PUBCHEM_EXT_SUBSTANCE_URL>
https://www.surechembl.org/chemical/SCHEMBL16117647

> <PUBCHEM_CID_ASSOCIATIONS>
117606944  1

> <PUBCHEM_COORDINATE_TYPE>
1
3

$$$$
