310942271
  -OEChem-07211613022D

 33 35  0     1  0  0  0  0  0999 V2000
    2.8637    2.0641    0.0000 Cl  0  0  0  0  0  0  0  0  0  0  0  0
    1.4257   -0.4153    0.0000 F   0  0  0  0  0  0  0  0  0  0  0  0
    2.8513    0.4153    0.0000 O   0  0  0  0  0  0  0  0  0  0  0  0
   -2.1571   -1.6551    0.0000 O   0  0  0  0  0  0  0  0  0  0  0  0
   -2.1571    0.8244    0.0000 O   0  0  0  0  0  0  0  0  0  0  0  0
   -0.7067    0.8244    0.0000 N   0  0  0  0  0  0  0  0  0  0  0  0
   -2.8637    2.0641    0.0000 N   0  0  0  0  0  0  0  0  0  0  0  0
   -5.0085    1.6551    0.0000 N   0  0  0  0  0  0  0  0  0  0  0  0
    0.7314    0.8244    0.0000 C   0  0  0  0  0  0  0  0  0  0  0  0
    1.4257    0.4153    0.0000 C   0  0  0  0  0  0  0  0  0  0  0  0
    2.1323    0.8368    0.0000 C   0  0  0  0  0  0  0  0  0  0  0  0
    0.0000    0.4153    0.0000 C   0  0  3  0  0  0  0  0  0  0  0  0
    2.1447    1.6551    0.0000 C   0  0  0  0  0  0  0  0  0  0  0  0
    0.7314    1.6551    0.0000 C   0  0  0  0  0  0  0  0  0  0  0  0
    1.4257    2.0517    0.0000 C   0  0  0  0  0  0  0  0  0  0  0  0
    0.0000   -0.4153    0.0000 C   0  0  0  0  0  0  0  0  0  0  0  0
    3.5828    0.8244    0.0000 C   0  0  0  0  0  0  0  0  0  0  0  0
   -0.7190   -0.8244    0.0000 C   0  0  0  0  0  0  0  0  0  0  0  0
   -0.7067    1.6551    0.0000 C   0  0  3  0  0  0  0  0  0  0  0  0
    4.3018    0.4153    0.0000 C   0  0  0  0  0  0  0  0  0  0  0  0
    3.5952    1.6551    0.0000 C   0  0  0  0  0  0  0  0  0  0  0  0
   -0.7190   -1.6675    0.0000 C   0  0  0  0  0  0  0  0  0  0  0  0
   -1.4381   -0.4153    0.0000 C   0  0  0  0  0  0  0  0  0  0  0  0
   -1.4381    2.0641    0.0000 C   0  0  0  0  0  0  0  0  0  0  0  0
    5.0085    0.8244    0.0000 C   0  0  0  0  0  0  0  0  0  0  0  0
    4.2894    2.0517    0.0000 C   0  0  0  0  0  0  0  0  0  0  0  0
   -2.1447    1.6675    0.0000 C   0  0  0  0  0  0  0  0  0  0  0  0
   -0.0124    2.0517    0.0000 C   0  0  0  0  0  0  0  0  0  0  0  0
   -1.4257   -2.0641    0.0000 C   0  0  0  0  0  0  0  0  0  0  0  0
   -2.1323   -0.8244    0.0000 C   0  0  0  0  0  0  0  0  0  0  0  0
    5.0085    1.6551    0.0000 C   0  0  0  0  0  0  0  0  0  0  0  0
   -3.5704    1.6551    0.0000 C   0  0  0  0  0  0  0  0  0  0  0  0
   -4.3018    2.0641    0.0000 C   0  0  0  0  0  0  0  0  0  0  0  0
  1 13  1  0  0  0  0
  2 10  1  0  0  0  0
  3 11  1  0  0  0  0
  3 17  1  0  0  0  0
  4 29  1  0  0  0  0
  4 30  1  0  0  0  0
  5 27  2  0  0  0  0
 12  6  1  6  0  0  0
  6 19  1  0  0  0  0
  7 27  1  0  0  0  0
  7 32  1  0  0  0  0
  8 33  1  0  0  0  0
  9 10  1  0  0  0  0
  9 12  1  0  0  0  0
  9 14  2  0  0  0  0
 10 11  2  0  0  0  0
 11 13  1  0  0  0  0
 12 16  1  0  0  0  0
 13 15  2  0  0  0  0
 14 15  1  0  0  0  0
 16 18  1  0  0  0  0
 17 20  2  0  0  0  0
 17 21  1  0  0  0  0
 18 22  1  0  0  0  0
 18 23  1  0  0  0  0
 19 24  1  0  0  0  0
 19 28  1  6  0  0  0
 20 25  1  0  0  0  0
 21 26  2  0  0  0  0
 22 29  1  0  0  0  0
 23 30  1  0  0  0  0
 24 27  1  0  0  0  0
 25 31  2  0  0  0  0
 26 31  1  0  0  0  0
 32 33  1  0  0  0  0
M  END
> <PUBCHEM_COMPOUND_ID_TYPE>
0

> <PUBCHEM_TOTAL_CHARGE>
0

> <PUBCHEM_SUBSTANCE_ID>
310942271

> <PUBCHEM_SUBSTANCE_VERSION>
1

> <PUBCHEM_EXT_DATASOURCE_NAME>
4488

> <PUBCHEM_EXT_DATASOURCE_REGID>
SCHEMBL16120306

> <PUBCHEM_SUBSTANCE_COMMENT>
InChI=1S/C25H33ClFN3O3/c1-17(15-23(31)29-12-11-28)30-22(16-18-9-13-32-14-10-18)20-7-8-21(26)25(24(20)27)33-19-5-3-2-4-6-19/h2-8,17-18,22,30H,9-16,28H2,1H3,(H,29,31)/t17-,22-/m0/s1
InChIKey=WALQQYMUGXTZEQ-JTSKRJEESA-N

> <PUBCHEM_SUBSTANCE_SYNONYM>
SCHEMBL16120306

> <PUBCHEM_XREF_EXT_ID>
SCHEMBL16120306

> <PUBCHEM_EXT_DATASOURCE_URL>
https://www.surechembl.org/

> <PUBCHEM_EXT_SUBSTANCE_URL>
https://www.surechembl.org/chemical/SCHEMBL16120306

> <PUBCHEM_CID_ASSOCIATIONS>
117608921  1

> <PUBCHEM_COORDINATE_TYPE>
1
3

> <PUBCHEM_BONDANNOTATIONS>
19  28  6
12  6  6

$$$$
