310942130
  -OEChem-07211613022D

 25 27  0     1  0  0  0  0  0999 V2000
   -3.7724    1.3141    0.0000 S   0  0  3  0  0  0  0  0  0  0  0  0
   -1.6091   -0.7956    0.0000 O   0  0  0  0  0  0  0  0  0  0  0  0
   -4.1837    2.0292    0.0000 O   0  0  0  0  0  0  0  0  0  0  0  0
    2.0025   -2.0292    0.0000 O   0  0  0  0  0  0  0  0  0  0  0  0
   -3.0573    1.7074    0.0000 N   0  0  0  0  0  0  0  0  0  0  0  0
   -3.7724    0.4738    0.0000 N   0  0  0  0  0  0  0  0  0  0  0  0
   -3.0751   -0.7778    0.0000 N   0  0  0  0  0  0  0  0  0  0  0  0
    1.2873   -0.7956    0.0000 N   0  0  0  0  0  0  0  0  0  0  0  0
   -2.3421    0.4917    0.0000 C   0  0  0  0  0  0  0  0  0  0  0  0
   -2.3242    1.3319    0.0000 C   0  0  0  0  0  0  0  0  0  0  0  0
   -1.5912    0.0984    0.0000 C   0  0  0  0  0  0  0  0  0  0  0  0
   -3.0394    0.0984    0.0000 C   0  0  0  0  0  0  0  0  0  0  0  0
   -1.6269    1.7253    0.0000 C   0  0  0  0  0  0  0  0  0  0  0  0
   -0.8939    0.4738    0.0000 C   0  0  0  0  0  0  0  0  0  0  0  0
   -0.8939    1.3141    0.0000 C   0  0  0  0  0  0  0  0  0  0  0  0
   -0.1966   -0.7778    0.0000 C   0  0  3  0  0  0  0  0  0  0  0  0
   -0.8760   -1.1711    0.0000 C   0  0  0  0  0  0  0  0  0  0  0  0
    0.5900   -1.1711    0.0000 C   0  0  0  0  0  0  0  0  0  0  0  0
   -0.1430    0.0805    0.0000 C   0  0  0  0  0  0  0  0  0  0  0  0
    2.0203   -1.1532    0.0000 C   0  0  0  0  0  0  0  0  0  0  0  0
    1.2694    0.0805    0.0000 C   0  0  0  0  0  0  0  0  0  0  0  0
    0.5543    0.4738    0.0000 C   0  0  0  0  0  0  0  0  0  0  0  0
    2.6997   -0.7778    0.0000 C   0  0  0  0  0  0  0  0  0  0  0  0
    3.4685   -1.1711    0.0000 C   0  0  0  0  0  0  0  0  0  0  0  0
    4.1837   -0.7599    0.0000 C   0  0  0  0  0  0  0  0  0  0  0  0
  1  3  2  0  0  0  0
  1  5  1  6  0  0  0
  1  6  1  0  0  0  0
  2 11  1  0  0  0  0
  2 17  1  0  0  0  0
  4 20  2  0  0  0  0
  5 10  1  0  0  0  0
  6 12  2  0  0  0  0
  7 12  1  0  0  0  0
  8 18  1  0  0  0  0
  8 20  1  0  0  0  0
  8 21  1  0  0  0  0
  9 10  1  0  0  0  0
  9 11  2  0  0  0  0
  9 12  1  0  0  0  0
 10 13  2  0  0  0  0
 11 14  1  0  0  0  0
 13 15  1  0  0  0  0
 14 15  2  0  0  0  0
 16 17  1  0  0  0  0
 16 18  1  0  0  0  0
 16 19  1  0  0  0  0
 19 22  1  0  0  0  0
 20 23  1  0  0  0  0
 21 22  1  0  0  0  0
 23 24  1  0  0  0  0
 24 25  1  0  0  0  0
M  END
> <PUBCHEM_COMPOUND_ID_TYPE>
0

> <PUBCHEM_TOTAL_CHARGE>
0

> <PUBCHEM_SUBSTANCE_ID>
310942130

> <PUBCHEM_SUBSTANCE_VERSION>
1

> <PUBCHEM_EXT_DATASOURCE_NAME>
4488

> <PUBCHEM_EXT_DATASOURCE_REGID>
SCHEMBL16120165

> <PUBCHEM_SUBSTANCE_COMMENT>
InChI=1S/C17H24N4O3S/c1-2-5-15(22)21-9-4-6-12(10-21)11-24-14-8-3-7-13-16(14)17(18)20-25(23)19-13/h3,7-8,12,19H,2,4-6,9-11H2,1H3,(H2,18,20)/t12?,25-/m1/s1
InChIKey=YOAWSWPMFIHTFF-PBLNYXRGSA-N

> <PUBCHEM_SUBSTANCE_SYNONYM>
SCHEMBL16120165

> <PUBCHEM_XREF_EXT_ID>
SCHEMBL16120165

> <PUBCHEM_EXT_DATASOURCE_URL>
https://www.surechembl.org/

> <PUBCHEM_EXT_SUBSTANCE_URL>
https://www.surechembl.org/chemical/SCHEMBL16120165

> <PUBCHEM_CID_ASSOCIATIONS>
117608789  1

> <PUBCHEM_COORDINATE_TYPE>
1
3

> <PUBCHEM_BONDANNOTATIONS>
1  5  6

$$$$
