310930343
  -OEChem-07211613022D

 68 81  0     0  0  0  0  0  0999 V2000
    0.7434   -4.6634    0.0000 N   0  0  0  0  0  0  0  0  0  0  0  0
    3.5820   -8.7862    0.0000 N   0  0  0  0  0  0  0  0  0  0  0  0
    2.2303   -2.2303    0.0000 C   0  0  0  0  0  0  0  0  0  0  0  0
    2.2303  -11.3544    0.0000 C   0  0  0  0  0  0  0  0  0  0  0  0
    2.6358   -2.9738    0.0000 C   0  0  0  0  0  0  0  0  0  0  0  0
    2.7034   -1.6221    0.0000 C   0  0  0  0  0  0  0  0  0  0  0  0
    1.7572  -10.6785    0.0000 C   0  0  0  0  0  0  0  0  0  0  0  0
    1.7572  -11.9627    0.0000 C   0  0  0  0  0  0  0  0  0  0  0  0
    3.5145   -1.8924    0.0000 C   0  0  0  0  0  0  0  0  0  0  0  0
    3.4468   -2.7034    0.0000 C   0  0  0  0  0  0  0  0  0  0  0  0
    0.9462  -11.7599    0.0000 C   0  0  0  0  0  0  0  0  0  0  0  0
    0.9462  -10.9489    0.0000 C   0  0  0  0  0  0  0  0  0  0  0  0
    1.4869   -2.6358    0.0000 C   0  0  0  0  0  0  0  0  0  0  0  0
    2.9062  -10.8813    0.0000 C   0  0  0  0  0  0  0  0  0  0  0  0
    1.8924   -1.4869    0.0000 C   0  0  0  0  0  0  0  0  0  0  0  0
    2.6358  -12.0302    0.0000 C   0  0  0  0  0  0  0  0  0  0  0  0
    2.5007   -3.7172    0.0000 C   0  0  0  0  0  0  0  0  0  0  0  0
    2.5683   -0.7434    0.0000 C   0  0  0  0  0  0  0  0  0  0  0  0
    1.8924   -9.8675    0.0000 C   0  0  0  0  0  0  0  0  0  0  0  0
    1.9600  -12.8413    0.0000 C   0  0  0  0  0  0  0  0  0  0  0  0
    1.4869   -3.4468    0.0000 C   0  0  0  0  0  0  0  0  0  0  0  0
    2.9062  -10.0703    0.0000 C   0  0  0  0  0  0  0  0  0  0  0  0
    4.0551   -3.3117    0.0000 C   0  0  0  0  0  0  0  0  0  0  0  0
    4.1903   -1.3517    0.0000 C   0  0  0  0  0  0  0  0  0  0  0  0
    0.3379  -10.4082    0.0000 C   0  0  0  0  0  0  0  0  0  0  0  0
    0.3379  -12.3682    0.0000 C   0  0  0  0  0  0  0  0  0  0  0  0
    0.8110   -2.2303    0.0000 C   0  0  0  0  0  0  0  0  0  0  0  0
    3.6496  -11.2868    0.0000 C   0  0  0  0  0  0  0  0  0  0  0  0
    1.0814   -1.4193    0.0000 C   0  0  0  0  0  0  0  0  0  0  0  0
    2.3655   -0.8110    0.0000 C   0  0  0  0  0  0  0  0  0  0  0  0
    3.4468  -12.0978    0.0000 C   0  0  0  0  0  0  0  0  0  0  0  0
    2.1627  -12.7737    0.0000 C   0  0  0  0  0  0  0  0  0  0  0  0
    0.7434   -3.8524    0.0000 C   0  0  0  0  0  0  0  0  0  0  0  0
    3.5820   -9.6647    0.0000 C   0  0  0  0  0  0  0  0  0  0  0  0
    2.1627   -6.3530    0.0000 C   0  0  0  0  0  0  0  0  0  0  0  0
    2.1627   -7.2316    0.0000 C   0  0  0  0  0  0  0  0  0  0  0  0
    3.1765   -0.2703    0.0000 C   0  0  0  0  0  0  0  0  0  0  0  0
    3.0414   -4.3255    0.0000 C   0  0  0  0  0  0  0  0  0  0  0  0
    1.3517  -13.3820    0.0000 C   0  0  0  0  0  0  0  0  0  0  0  0
    1.2841   -9.3268    0.0000 C   0  0  0  0  0  0  0  0  0  0  0  0
    3.9876   -0.5407    0.0000 C   0  0  0  0  0  0  0  0  0  0  0  0
    3.8524   -4.1227    0.0000 C   0  0  0  0  0  0  0  0  0  0  0  0
    0.5407  -13.1116    0.0000 C   0  0  0  0  0  0  0  0  0  0  0  0
    0.4731   -9.5972    0.0000 C   0  0  0  0  0  0  0  0  0  0  0  0
    1.4193   -5.9476    0.0000 C   0  0  0  0  0  0  0  0  0  0  0  0
    2.8386   -7.5696    0.0000 C   0  0  0  0  0  0  0  0  0  0  0  0
    1.4193   -5.1365    0.0000 C   0  0  0  0  0  0  0  0  0  0  0  0
    2.8386   -8.4482    0.0000 C   0  0  0  0  0  0  0  0  0  0  0  0
    2.8386   -5.9476    0.0000 C   0  0  0  0  0  0  0  0  0  0  0  0
    1.4193   -7.5696    0.0000 C   0  0  0  0  0  0  0  0  0  0  0  0
    0.0676   -2.5683    0.0000 C   0  0  0  0  0  0  0  0  0  0  0  0
    4.3930  -10.8813    0.0000 C   0  0  0  0  0  0  0  0  0  0  0  0
    0.0000   -3.4468    0.0000 C   0  0  0  0  0  0  0  0  0  0  0  0
    4.3255  -10.0703    0.0000 C   0  0  0  0  0  0  0  0  0  0  0  0
    0.6759   -0.6759    0.0000 C   0  0  0  0  0  0  0  0  0  0  0  0
    2.0276   -0.0676    0.0000 C   0  0  0  0  0  0  0  0  0  0  0  0
    3.8524  -12.8413    0.0000 C   0  0  0  0  0  0  0  0  0  0  0  0
    2.5683  -13.5171    0.0000 C   0  0  0  0  0  0  0  0  0  0  0  0
    0.7434   -6.3530    0.0000 C   0  0  0  0  0  0  0  0  0  0  0  0
    3.5820   -7.1641    0.0000 C   0  0  0  0  0  0  0  0  0  0  0  0
    0.7434   -7.2316    0.0000 C   0  0  0  0  0  0  0  0  0  0  0  0
    3.5820   -6.3530    0.0000 C   0  0  0  0  0  0  0  0  0  0  0  0
    1.1490    0.0000    0.0000 C   0  0  0  0  0  0  0  0  0  0  0  0
    3.3793  -13.5171    0.0000 C   0  0  0  0  0  0  0  0  0  0  0  0
    2.1627   -4.7310    0.0000 C   0  0  0  0  0  0  0  0  0  0  0  0
    2.1627   -8.8537    0.0000 C   0  0  0  0  0  0  0  0  0  0  0  0
    2.8386   -5.1365    0.0000 C   0  0  0  0  0  0  0  0  0  0  0  0
    1.4193   -8.4482    0.0000 C   0  0  0  0  0  0  0  0  0  0  0  0
  1 33  1  0  0  0  0
  1 47  1  0  0  0  0
  2 34  1  0  0  0  0
  2 48  1  0  0  0  0
  3  5  1  0  0  0  0
  3  6  1  0  0  0  0
  3 13  1  0  0  0  0
  3 15  1  0  0  0  0
  4  7  1  0  0  0  0
  4  8  1  0  0  0  0
  4 14  1  0  0  0  0
  4 16  1  0  0  0  0
  5 10  2  0  0  0  0
  5 17  1  0  0  0  0
  6  9  2  0  0  0  0
  6 18  1  0  0  0  0
  7 12  2  0  0  0  0
  7 19  1  0  0  0  0
  8 11  2  0  0  0  0
  8 20  1  0  0  0  0
  9 10  1  0  0  0  0
  9 24  1  0  0  0  0
 10 23  1  0  0  0  0
 11 12  1  0  0  0  0
 11 26  1  0  0  0  0
 12 25  1  0  0  0  0
 13 21  2  0  0  0  0
 13 27  1  0  0  0  0
 14 22  2  0  0  0  0
 14 28  1  0  0  0  0
 15 29  2  0  0  0  0
 15 30  1  0  0  0  0
 16 31  2  0  0  0  0
 16 32  1  0  0  0  0
 17 38  2  0  0  0  0
 18 37  2  0  0  0  0
 19 40  2  0  0  0  0
 20 39  2  0  0  0  0
 21 33  1  0  0  0  0
 22 34  1  0  0  0  0
 23 42  2  0  0  0  0
 24 41  2  0  0  0  0
 25 44  2  0  0  0  0
 26 43  2  0  0  0  0
 27 51  2  0  0  0  0
 28 52  2  0  0  0  0
 29 55  1  0  0  0  0
 30 56  2  0  0  0  0
 31 57  1  0  0  0  0
 32 58  2  0  0  0  0
 33 53  2  0  0  0  0
 34 54  2  0  0  0  0
 35 36  2  0  0  0  0
 35 45  1  0  0  0  0
 35 49  1  0  0  0  0
 36 46  1  0  0  0  0
 36 50  1  0  0  0  0
 37 41  1  0  0  0  0
 38 42  1  0  0  0  0
 39 43  1  0  0  0  0
 40 44  1  0  0  0  0
 45 47  1  0  0  0  0
 45 59  2  0  0  0  0
 46 48  2  0  0  0  0
 46 60  1  0  0  0  0
 47 65  2  0  0  0  0
 48 66  1  0  0  0  0
 49 62  1  0  0  0  0
 49 67  2  0  0  0  0
 50 61  2  0  0  0  0
 50 68  1  0  0  0  0
 51 53  1  0  0  0  0
 52 54  1  0  0  0  0
 55 63  2  0  0  0  0
 56 63  1  0  0  0  0
 57 64  2  0  0  0  0
 58 64  1  0  0  0  0
 59 61  1  0  0  0  0
 60 62  2  0  0  0  0
 65 67  1  0  0  0  0
 66 68  2  0  0  0  0
M  END
> <PUBCHEM_COMPOUND_ID_TYPE>
0

> <PUBCHEM_TOTAL_CHARGE>
0

> <PUBCHEM_SUBSTANCE_ID>
310930343

> <PUBCHEM_SUBSTANCE_VERSION>
1

> <PUBCHEM_EXT_DATASOURCE_NAME>
4488

> <PUBCHEM_EXT_DATASOURCE_REGID>
SCHEMBL16107627

> <PUBCHEM_SUBSTANCE_COMMENT>
InChI=1S/C66H44N2/c1-3-17-45(18-4-1)65(57-29-11-7-25-51(57)52-26-8-12-30-58(52)65)47-21-15-23-49(41-47)67-61-39-35-43-34-38-56-62(40-36-44-33-37-55(61)63(43)64(44)56)68-50-24-16-22-48(42-50)66(46-19-5-2-6-20-46)59-31-13-9-27-53(59)54-28-10-14-32-60(54)66/h1-42,67-68H
InChIKey=LFEVOMIXPVIPLK-UHFFFAOYSA-N

> <PUBCHEM_SUBSTANCE_SYNONYM>
SCHEMBL16107627

> <PUBCHEM_XREF_EXT_ID>
SCHEMBL16107627

> <PUBCHEM_EXT_DATASOURCE_URL>
https://www.surechembl.org/

> <PUBCHEM_EXT_SUBSTANCE_URL>
https://www.surechembl.org/chemical/SCHEMBL16107627

> <PUBCHEM_CID_ASSOCIATIONS>
117599510  1

> <PUBCHEM_COORDINATE_TYPE>
1
3

$$$$
