310928651
  -OEChem-07211613022D

 12 13  0     0  0  0  0  0  0999 V2000
   -0.6900    1.2375    0.0000 Br  0  0  0  0  0  0  0  0  0  0  0  0
   -2.1190   -1.2375    0.0000 Cl  0  0  0  0  0  0  0  0  0  0  0  0
    0.0244   -0.8250    0.0000 N   0  0  0  0  0  0  0  0  0  0  0  0
    0.8091    0.2549    0.0000 N   0  0  0  0  0  0  0  0  0  0  0  0
    0.8091   -1.0799    0.0000 N   0  0  0  0  0  0  0  0  0  0  0  0
    0.0244   -0.0000    0.0000 C   0  0  0  0  0  0  0  0  0  0  0  0
   -0.6900    0.4125    0.0000 C   0  0  0  0  0  0  0  0  0  0  0  0
    1.2940   -0.4125    0.0000 C   0  0  0  0  0  0  0  0  0  0  0  0
   -0.6900   -1.2375    0.0000 C   0  0  0  0  0  0  0  0  0  0  0  0
   -1.4045   -0.8250    0.0000 C   0  0  0  0  0  0  0  0  0  0  0  0
   -1.4045   -0.0000    0.0000 C   0  0  0  0  0  0  0  0  0  0  0  0
    2.1190   -0.4125    0.0000 C   0  0  0  0  0  0  0  0  0  0  0  0
  1  7  1  0  0  0  0
  2 10  1  0  0  0  0
  3  5  1  0  0  0  0
  3  6  1  0  0  0  0
  3  9  1  0  0  0  0
  4  6  2  0  0  0  0
  4  8  1  0  0  0  0
  5  8  2  0  0  0  0
  6  7  1  0  0  0  0
  7 11  2  0  0  0  0
  8 12  1  0  0  0  0
  9 10  2  0  0  0  0
 10 11  1  0  0  0  0
M  END
> <PUBCHEM_COMPOUND_ID_TYPE>
0

> <PUBCHEM_TOTAL_CHARGE>
0

> <PUBCHEM_SUBSTANCE_ID>
310928651

> <PUBCHEM_SUBSTANCE_VERSION>
1

> <PUBCHEM_EXT_DATASOURCE_NAME>
11752

> <PUBCHEM_EXT_DATASOURCE_REGID>
BD240907

> <PUBCHEM_SUBSTANCE_SYNONYM>
1159813-15-6
8-Bromo-6-chloro-2-methyl-[1,2,4]triazolo[1,5-a]pyridine

> <PUBCHEM_GENERIC_REGISTRY_NAME>
1159813-15-6

> <PUBCHEM_XREF_EXT_ID>
BD240907

> <PUBCHEM_EXT_DATASOURCE_URL>
http://www.bidepharmatech.com/en/index.html

> <PUBCHEM_EXT_SUBSTANCE_URL>
http://www.bidepharmatech.com/en/goodsview_goodscode_BD240907.html

> <PUBCHEM_CID_ASSOCIATIONS>
71463838  1

> <PUBCHEM_COORDINATE_TYPE>
1
3

$$$$
