310944473
  -OEChem-07211613022D

 32 36  0     1  0  0  0  0  0999 V2000
    2.6272    1.0019    0.0000 O   0  0  0  0  0  0  0  0  0  0  0  0
    5.4883    0.2004    0.0000 O   0  0  0  0  0  0  0  0  0  0  0  0
    5.5328    1.6810    0.0000 O   0  0  0  0  0  0  0  0  0  0  0  0
   -0.7458   -1.1132    0.0000 O   0  0  0  0  0  0  0  0  0  0  0  0
    3.3843   -0.2672    0.0000 N   0  0  0  0  0  0  0  0  0  0  0  0
    0.4231    0.0668    0.0000 N   0  0  0  0  0  0  0  0  0  0  0  0
   -4.1857    0.5121    0.0000 N   0  0  0  0  0  0  0  0  0  0  0  0
   -3.1616   -0.4898    0.0000 N   0  0  0  0  0  0  0  0  0  0  0  0
   -4.4864    1.2914    0.0000 N   0  0  0  0  0  0  0  0  0  0  0  0
   -5.3213    1.2357    0.0000 N   0  0  0  0  0  0  0  0  0  0  0  0
   -5.5328    0.4342    0.0000 N   0  0  0  0  0  0  0  0  0  0  0  0
    2.0372   -0.3340    0.0000 C   0  0  0  0  0  0  0  0  0  0  0  0
    2.6718    0.1782    0.0000 C   0  0  0  0  0  0  0  0  0  0  0  0
    3.1616   -1.0576    0.0000 C   0  0  3  0  0  0  0  0  0  0  0  0
    2.3378   -1.1021    0.0000 C   0  0  0  0  0  0  0  0  0  0  0  0
    4.1412    0.0556    0.0000 C   0  0  0  0  0  0  0  0  0  0  0  0
    1.4583   -0.9240    0.0000 C   0  0  0  0  0  0  0  0  0  0  0  0
    1.8146    0.4564    0.0000 C   0  0  0  0  0  0  0  0  0  0  0  0
    0.6456   -0.7125    0.0000 C   0  0  0  0  0  0  0  0  0  0  0  0
    1.0019    0.6680    0.0000 C   0  0  0  0  0  0  0  0  0  0  0  0
    4.3194    0.8572    0.0000 C   0  0  0  0  0  0  0  0  0  0  0  0
    4.8760   -0.3562    0.0000 C   0  0  0  0  0  0  0  0  0  0  0  0
    3.6848   -1.6810    0.0000 C   0  0  0  0  0  0  0  0  0  0  0  0
    5.1209    0.9463    0.0000 C   0  0  0  0  0  0  0  0  0  0  0  0
   -0.3785    0.2783    0.0000 C   0  0  0  0  0  0  0  0  0  0  0  0
   -0.9574   -0.3006    0.0000 C   0  0  3  0  0  0  0  0  0  0  0  0
   -1.7812   -0.1002    0.0000 C   0  0  0  0  0  0  0  0  0  0  0  0
   -3.3843    0.3229    0.0000 C   0  0  0  0  0  0  0  0  0  0  0  0
   -2.3489   -0.6902    0.0000 C   0  0  0  0  0  0  0  0  0  0  0  0
   -1.9927    0.7013    0.0000 C   0  0  0  0  0  0  0  0  0  0  0  0
   -2.8054    0.9018    0.0000 C   0  0  0  0  0  0  0  0  0  0  0  0
   -4.8203    0.0000    0.0000 C   0  0  0  0  0  0  0  0  0  0  0  0
  1 13  2  0  0  0  0
  2 22  1  0  0  0  0
  2 24  1  0  0  0  0
  3 24  2  0  0  0  0
 26  4  1  6  0  0  0
  5 13  1  0  0  0  0
  5 14  1  0  0  0  0
  5 16  1  0  0  0  0
  6 19  1  0  0  0  0
  6 20  1  0  0  0  0
  6 25  1  0  0  0  0
  7  9  1  0  0  0  0
  7 28  1  0  0  0  0
  7 32  1  0  0  0  0
  8 28  1  0  0  0  0
  8 29  2  0  0  0  0
  9 10  2  0  0  0  0
 10 11  1  0  0  0  0
 11 32  2  0  0  0  0
 12 13  1  0  0  0  0
 12 15  1  0  0  0  0
 12 17  1  0  0  0  0
 12 18  1  0  0  0  0
 14 15  1  0  0  0  0
 14 23  1  6  0  0  0
 16 21  2  0  0  0  0
 16 22  1  0  0  0  0
 17 19  1  0  0  0  0
 18 20  1  0  0  0  0
 21 24  1  0  0  0  0
 25 26  1  0  0  0  0
 26 27  1  0  0  0  0
 27 29  1  0  0  0  0
 27 30  2  0  0  0  0
 28 31  2  0  0  0  0
 30 31  1  0  0  0  0
M  END
> <PUBCHEM_COMPOUND_ID_TYPE>
0

> <PUBCHEM_TOTAL_CHARGE>
0

> <PUBCHEM_SUBSTANCE_ID>
310944473

> <PUBCHEM_SUBSTANCE_VERSION>
1

> <PUBCHEM_EXT_DATASOURCE_NAME>
4488

> <PUBCHEM_EXT_DATASOURCE_REGID>
SCHEMBL16122548

> <PUBCHEM_SUBSTANCE_COMMENT>
InChI=1S/C21H25N7O4/c1-14-9-21(20(31)28(14)16-8-19(30)32-12-16)4-6-26(7-5-21)11-17(29)15-2-3-18(22-10-15)27-13-23-24-25-27/h2-3,8,10,13-14,17,29H,4-7,9,11-12H2,1H3/t14-,17+/m1/s1
InChIKey=QHFGCRSFXLOXTP-PBHICJAKSA-N

> <PUBCHEM_SUBSTANCE_SYNONYM>
SCHEMBL16122548

> <PUBCHEM_XREF_EXT_ID>
SCHEMBL16122548

> <PUBCHEM_EXT_DATASOURCE_URL>
https://www.surechembl.org/

> <PUBCHEM_EXT_SUBSTANCE_URL>
https://www.surechembl.org/chemical/SCHEMBL16122548

> <PUBCHEM_CID_ASSOCIATIONS>
86271913  1

> <PUBCHEM_COORDINATE_TYPE>
1
3

> <PUBCHEM_BONDANNOTATIONS>
14  23  6
26  4  6

$$$$
