310949339
  -OEChem-07211613022D

 28 29  0     0  0  0  0  0  0999 V2000
   -3.3194   -1.5439    0.0000 I   0  0  0  0  0  0  0  0  0  0  0  0
   -2.6247   -0.1801    0.0000 I   0  0  0  0  0  0  0  0  0  0  0  0
   -3.7311   -0.5147    0.0000 I   0  0  0  0  0  0  0  0  0  0  0  0
    1.5439    0.0000    0.0000 S   0  0  0  0  0  0  0  0  0  0  0  0
    2.9849   -0.7462    0.0000 O   0  0  0  0  0  0  0  0  0  0  0  0
    0.4375    0.0000    0.0000 O   0  0  0  0  0  0  0  0  0  0  0  0
    2.4960    0.0000    0.0000 O   0  0  0  0  0  0  0  0  0  0  0  0
    1.5697   -3.1907    0.0000 O   0  0  0  0  0  0  0  0  0  0  0  0
   -0.0515   -3.2937    0.0000 O   0  0  0  0  0  0  0  0  0  0  0  0
    1.9556    3.2937    0.0000 O   0  0  0  0  0  0  0  0  0  0  0  0
    1.5439    1.1579    0.0000 N   0  0  0  0  0  0  0  0  0  0  0  0
    1.5439   -0.7977    0.0000 C   0  0  0  0  0  0  0  0  0  0  0  0
    0.8491   -2.0328    0.0000 C   0  0  0  0  0  0  0  0  0  0  0  0
    2.2901   -1.1837    0.0000 C   0  0  0  0  0  0  0  0  0  0  0  0
    0.8749   -1.2094    0.0000 C   0  0  0  0  0  0  0  0  0  0  0  0
    1.5954   -2.4188    0.0000 C   0  0  0  0  0  0  0  0  0  0  0  0
   -0.0515   -2.4445    0.0000 C   0  0  0  0  0  0  0  0  0  0  0  0
    2.2901   -2.0071    0.0000 C   0  0  0  0  0  0  0  0  0  0  0  0
   -0.7977   -2.0585    0.0000 C   0  0  0  0  0  0  0  0  0  0  0  0
   -2.2644   -1.2866    0.0000 C   0  0  0  0  0  0  0  0  0  0  0  0
   -0.8234   -1.2609    0.0000 C   0  0  0  0  0  0  0  0  0  0  0  0
   -1.4667   -2.4703    0.0000 C   0  0  0  0  0  0  0  0  0  0  0  0
   -3.0106   -0.9006    0.0000 C   0  0  0  0  0  0  0  0  0  0  0  0
   -1.5697   -0.8749    0.0000 C   0  0  0  0  0  0  0  0  0  0  0  0
   -2.2129   -2.1100    0.0000 C   0  0  0  0  0  0  0  0  0  0  0  0
    1.9556    1.9041    0.0000 C   0  0  0  0  0  0  0  0  0  0  0  0
    3.7311   -1.1322    0.0000 C   0  0  0  0  0  0  0  0  0  0  0  0
    1.5697    2.5475    0.0000 C   0  0  0  0  0  0  0  0  0  0  0  0
  1 23  1  0  0  0  0
  2 23  1  0  0  0  0
  3 23  1  0  0  0  0
  4  6  2  0  0  0  0
  4  7  2  0  0  0  0
  4 11  1  0  0  0  0
  4 12  1  0  0  0  0
  5 14  1  0  0  0  0
  5 27  1  0  0  0  0
  8 16  1  0  0  0  0
  9 17  2  0  0  0  0
 10 28  1  0  0  0  0
 11 26  1  0  0  0  0
 12 14  2  0  0  0  0
 12 15  1  0  0  0  0
 13 15  2  0  0  0  0
 13 16  1  0  0  0  0
 13 17  1  0  0  0  0
 14 18  1  0  0  0  0
 16 18  2  0  0  0  0
 17 19  1  0  0  0  0
 19 21  2  0  0  0  0
 19 22  1  0  0  0  0
 20 23  1  0  0  0  0
 20 24  2  0  0  0  0
 20 25  1  0  0  0  0
 21 24  1  0  0  0  0
 22 25  2  0  0  0  0
 26 28  1  0  0  0  0
M  END
> <PUBCHEM_COMPOUND_ID_TYPE>
0

> <PUBCHEM_TOTAL_CHARGE>
0

> <PUBCHEM_SUBSTANCE_ID>
310949339

> <PUBCHEM_SUBSTANCE_VERSION>
1

> <PUBCHEM_EXT_DATASOURCE_NAME>
4488

> <PUBCHEM_EXT_DATASOURCE_REGID>
SCHEMBL16127529

> <PUBCHEM_SUBSTANCE_COMMENT>
InChI=1S/C17H16I3NO6S/c1-27-14-9-13(23)12(8-15(14)28(25,26)21-6-7-22)16(24)10-2-4-11(5-3-10)17(18,19)20/h2-5,8-9,21-23H,6-7H2,1H3
InChIKey=DJEPQLBYBQVJRN-UHFFFAOYSA-N

> <PUBCHEM_SUBSTANCE_SYNONYM>
SCHEMBL16127529

> <PUBCHEM_XREF_EXT_ID>
SCHEMBL16127529

> <PUBCHEM_EXT_DATASOURCE_URL>
https://www.surechembl.org/

> <PUBCHEM_EXT_SUBSTANCE_URL>
https://www.surechembl.org/chemical/SCHEMBL16127529

> <PUBCHEM_CID_ASSOCIATIONS>
117614814  1

> <PUBCHEM_COORDINATE_TYPE>
1
3

$$$$
