310938914
  -OEChem-07211613022D

 74 82  0     1  0  0  0  0  0999 V2000
    7.9962   -7.7488    0.0000 S   0  0  0  0  0  0  0  0  0  0  0  0
   -0.5521   -6.3199    0.0000 S   0  0  0  0  0  0  0  0  0  0  0  0
    7.9962   -6.9238    0.0000 O   0  0  0  0  0  0  0  0  0  0  0  0
    7.9962   -8.5738    0.0000 O   0  0  0  0  0  0  0  0  0  0  0  0
    8.8212   -7.7488    0.0000 O   0  0  0  0  0  0  0  0  0  0  0  0
   -1.2666   -5.9074    0.0000 O   0  0  0  0  0  0  0  0  0  0  0  0
    0.1624   -6.7324    0.0000 O   0  0  0  0  0  0  0  0  0  0  0  0
   -0.1396   -5.6054    0.0000 O   0  0  0  0  0  0  0  0  0  0  0  0
   -7.5573  -12.1553    0.0000 O   0  0  0  0  0  0  0  0  0  0  0  0
   -9.6593  -11.1008    0.0000 O   0  0  0  0  0  0  0  0  0  0  0  0
   -6.8428  -13.3928    0.0000 O   0  0  0  0  0  0  0  0  0  0  0  0
   -5.4139  -10.9178    0.0000 O   0  0  0  0  0  0  0  0  0  0  0  0
   -4.6994   -9.6803    0.0000 O   0  0  0  0  0  0  0  0  0  0  0  0
    5.3816  -10.5053    0.0000 N   0  3  0  0  0  0  0  0  0  0  0  0
   -0.4126  -10.5053    0.0000 N   0  0  0  0  0  0  0  0  0  0  0  0
   -9.0755   -9.8402    0.0000 N   0  0  0  0  0  0  0  0  0  0  0  0
    5.5212   -9.1778    0.0000 C   0  0  0  0  0  0  0  0  0  0  0  0
    4.7142   -9.3493    0.0000 C   0  0  0  0  0  0  0  0  0  0  0  0
    5.9337   -9.8922    0.0000 C   0  0  0  0  0  0  0  0  0  0  0  0
   -0.5521   -9.1778    0.0000 C   0  0  0  0  0  0  0  0  0  0  0  0
    4.6279  -10.1698    0.0000 C   0  0  0  0  0  0  0  0  0  0  0  0
    0.2549   -9.3493    0.0000 C   0  0  0  0  0  0  0  0  0  0  0  0
    5.9337   -8.4633    0.0000 C   0  0  0  0  0  0  0  0  0  0  0  0
   -0.9646   -9.8922    0.0000 C   0  0  0  0  0  0  0  0  0  0  0  0
    0.3411  -10.1698    0.0000 C   0  0  0  0  0  0  0  0  0  0  0  0
    6.7587   -8.4633    0.0000 C   0  0  0  0  0  0  0  0  0  0  0  0
   -0.9646   -8.4633    0.0000 C   0  0  0  0  0  0  0  0  0  0  0  0
    7.1712   -7.7488    0.0000 C   0  0  0  0  0  0  0  0  0  0  0  0
    6.7587   -9.8922    0.0000 C   0  0  0  0  0  0  0  0  0  0  0  0
   -1.7896   -8.4633    0.0000 C   0  0  0  0  0  0  0  0  0  0  0  0
    7.1712   -9.1778    0.0000 C   0  0  0  0  0  0  0  0  0  0  0  0
    5.5212   -7.7488    0.0000 C   0  0  0  0  0  0  0  0  0  0  0  0
   -1.7896   -9.8922    0.0000 C   0  0  0  0  0  0  0  0  0  0  0  0
    3.9135  -10.5823    0.0000 C   0  0  0  0  0  0  0  0  0  0  0  0
    3.8892   -9.3493    0.0000 C   0  0  0  0  0  0  0  0  0  0  0  0
    4.3017   -8.6348    0.0000 C   0  0  0  0  0  0  0  0  0  0  0  0
   -0.5521   -7.7488    0.0000 C   0  0  0  0  0  0  0  0  0  0  0  0
    5.3816  -11.3303    0.0000 C   0  0  0  0  0  0  0  0  0  0  0  0
    5.9337   -7.0343    0.0000 C   0  0  0  0  0  0  0  0  0  0  0  0
    1.0556  -10.5823    0.0000 C   0  0  0  0  0  0  0  0  0  0  0  0
   -2.2021   -9.1778    0.0000 C   0  0  0  0  0  0  0  0  0  0  0  0
    6.7587   -7.0343    0.0000 C   0  0  0  0  0  0  0  0  0  0  0  0
    1.0799   -9.3493    0.0000 C   0  0  0  0  0  0  0  0  0  0  0  0
    0.6674   -8.6348    0.0000 C   0  0  0  0  0  0  0  0  0  0  0  0
   -1.1270  -10.9178    0.0000 C   0  0  0  0  0  0  0  0  0  0  0  0
   -0.9646   -7.0343    0.0000 C   0  0  0  0  0  0  0  0  0  0  0  0
   -2.2021   -7.7488    0.0000 C   0  0  0  0  0  0  0  0  0  0  0  0
   -1.7896   -7.0343    0.0000 C   0  0  0  0  0  0  0  0  0  0  0  0
    3.1990  -10.1698    0.0000 C   0  0  0  0  0  0  0  0  0  0  0  0
    1.7701  -10.1698    0.0000 C   0  0  0  0  0  0  0  0  0  0  0  0
    2.4845  -10.5823    0.0000 C   0  0  0  0  0  0  0  0  0  0  0  0
   -9.0014  -10.6618    0.0000 C   0  0  3  0  0  0  0  0  0  0  0  0
   -8.3372  -10.4114    0.0000 C   0  0  3  0  0  0  0  0  0  0  0  0
   -1.8415  -10.5053    0.0000 C   0  0  0  0  0  0  0  0  0  0  0  0
   -9.1750  -11.4256    0.0000 C   0  0  0  0  0  0  0  0  0  0  0  0
    6.2066  -11.3303    0.0000 C   0  0  0  0  0  0  0  0  0  0  0  0
    5.5212   -6.3199    0.0000 C   0  0  0  0  0  0  0  0  0  0  0  0
   -7.5573  -11.3303    0.0000 C   0  0  0  0  0  0  0  0  0  0  0  0
   -8.1603  -10.6913    0.0000 C   0  0  0  0  0  0  0  0  0  0  0  0
   -7.6493  -10.3919    0.0000 C   0  0  0  0  0  0  0  0  0  0  0  0
   -2.5560  -10.9178    0.0000 C   0  0  0  0  0  0  0  0  0  0  0  0
   -9.9005   -9.8402    0.0000 C   0  0  0  0  0  0  0  0  0  0  0  0
   -6.8428  -12.5678    0.0000 C   0  0  0  0  0  0  0  0  0  0  0  0
   -3.2704  -10.5053    0.0000 C   0  0  0  0  0  0  0  0  0  0  0  0
   -6.1283  -12.1553    0.0000 C   0  0  3  0  0  0  0  0  0  0  0  0
   -5.4139  -12.5678    0.0000 C   0  0  0  0  0  0  0  0  0  0  0  0
   -3.9849  -10.9178    0.0000 C   0  0  0  0  0  0  0  0  0  0  0  0
   -6.1283  -11.3303    0.0000 C   0  0  0  0  0  0  0  0  0  0  0  0
   -4.6994  -10.5053    0.0000 C   0  0  0  0  0  0  0  0  0  0  0  0
   -5.4139  -13.3928    0.0000 C   0  0  0  0  0  0  0  0  0  0  0  0
   -4.6994  -12.1553    0.0000 C   0  0  0  0  0  0  0  0  0  0  0  0
   -4.6994  -13.8053    0.0000 C   0  0  0  0  0  0  0  0  0  0  0  0
   -3.9849  -12.5678    0.0000 C   0  0  0  0  0  0  0  0  0  0  0  0
   -3.9849  -13.3928    0.0000 C   0  0  0  0  0  0  0  0  0  0  0  0
  1  3  2  0  0  0  0
  1  4  2  0  0  0  0
  1  5  1  0  0  0  0
  1 28  1  0  0  0  0
  2  6  2  0  0  0  0
  2  7  2  0  0  0  0
  2  8  1  0  0  0  0
  2 46  1  0  0  0  0
 58  9  1  6  0  0  0
  9 63  1  0  0  0  0
 55 10  1  6  0  0  0
 11 63  2  0  0  0  0
 12 68  1  0  0  0  0
 12 69  1  0  0  0  0
 13 69  2  0  0  0  0
 14 19  1  0  0  0  0
 14 21  2  0  0  0  0
 14 38  1  0  0  0  0
 15 24  1  0  0  0  0
 15 25  1  0  0  0  0
 15 45  1  0  0  0  0
 52 16  1  1  0  0  0
 16 53  1  0  0  0  0
 16 62  1  0  0  0  0
 17 18  1  0  0  0  0
 17 19  2  0  0  0  0
 17 23  1  0  0  0  0
 18 21  1  0  0  0  0
 18 35  1  0  0  0  0
 18 36  1  0  0  0  0
 19 29  1  0  0  0  0
 20 22  1  0  0  0  0
 20 24  2  0  0  0  0
 20 27  1  0  0  0  0
 21 34  1  0  0  0  0
 22 25  1  0  0  0  0
 22 43  1  0  0  0  0
 22 44  1  0  0  0  0
 23 26  1  0  0  0  0
 23 32  2  0  0  0  0
 24 33  1  0  0  0  0
 25 40  2  0  0  0  0
 26 28  2  0  0  0  0
 26 31  1  0  0  0  0
 27 30  2  0  0  0  0
 27 37  1  0  0  0  0
 28 42  1  0  0  0  0
 29 31  2  0  0  0  0
 30 41  1  0  0  0  0
 30 47  1  0  0  0  0
 32 39  1  0  0  0  0
 33 41  2  0  0  0  0
 34 49  2  0  0  0  0
 37 46  2  0  0  0  0
 38 56  1  0  0  0  0
 39 42  2  0  0  0  0
 39 57  1  0  0  0  0
 40 50  1  0  0  0  0
 45 54  1  0  0  0  0
 46 48  1  0  0  0  0
 47 48  2  0  0  0  0
 49 51  1  0  0  0  0
 50 51  2  0  0  0  0
 52 55  1  0  0  0  0
 52 59  1  0  0  0  0
 53 55  1  0  0  0  0
 53 60  1  0  0  0  0
 54 61  1  0  0  0  0
 58 59  1  0  0  0  0
 58 60  1  0  0  0  0
 61 64  1  0  0  0  0
 63 65  1  0  0  0  0
 64 67  1  0  0  0  0
 65 66  1  0  0  0  0
 65 68  1  6  0  0  0
 66 70  2  0  0  0  0
 66 71  1  0  0  0  0
 67 69  1  0  0  0  0
 70 72  1  0  0  0  0
 71 73  2  0  0  0  0
 72 74  2  0  0  0  0
 73 74  1  0  0  0  0
M  CHG  1  14   1
M  END
> <PUBCHEM_COMPOUND_ID_TYPE>
0

> <PUBCHEM_TOTAL_CHARGE>
1

> <PUBCHEM_SUBSTANCE_ID>
310938914

> <PUBCHEM_SUBSTANCE_VERSION>
1

> <PUBCHEM_EXT_DATASOURCE_NAME>
4488

> <PUBCHEM_EXT_DATASOURCE_REGID>
SCHEMBL16116833

> <PUBCHEM_SUBSTANCE_COMMENT>
InChI=1S/C58H65N3O11S2/c1-8-60-45-28-26-41-43(30-36(2)31-49(41)74(68,69)70)54(45)57(3,4)50(60)20-14-10-15-21-51-58(5,6)53-42-34-40(73(65,66)67)25-23-38(42)24-27-46(53)61(51)29-17-11-16-22-52(62)71-35-44(37-18-12-9-13-19-37)56(64)72-39-32-47-55(63)48(33-39)59(47)7/h9-10,12-15,18-21,23-28,30-31,34,39,44,47-48,55,63H,8,11,16-17,22,29,32-33,35H2,1-7H3,(H-,65,66,67,68,69,70)/p+1/t39-,44-,47+,48?,55-/m1/s1
InChIKey=XDDLCUOWWHULIK-MVKIQEHMSA-O

> <PUBCHEM_SUBSTANCE_SYNONYM>
SCHEMBL16116833

> <PUBCHEM_XREF_EXT_ID>
SCHEMBL16116833

> <PUBCHEM_EXT_DATASOURCE_URL>
https://www.surechembl.org/

> <PUBCHEM_EXT_SUBSTANCE_URL>
https://www.surechembl.org/chemical/SCHEMBL16116833

> <PUBCHEM_CID_ASSOCIATIONS>
117606311  1

> <PUBCHEM_COORDINATE_TYPE>
1
3

> <PUBCHEM_BONDANNOTATIONS>
55  10  6
52  16  5
65  68  6
58  9  6

$$$$
