310947020
  -OEChem-07211613022D

 31 34  0     0  0  0  0  0  0999 V2000
   -2.4210   -2.4019    0.0000 F   0  0  0  0  0  0  0  0  0  0  0  0
   -0.9920   -4.8769    0.0000 F   0  0  0  0  0  0  0  0  0  0  0  0
   -3.8499   -3.2269    0.0000 O   0  0  0  0  0  0  0  0  0  0  0  0
   -2.4210   -5.7019    0.0000 O   0  0  0  0  0  0  0  0  0  0  0  0
    0.4369   -3.2269    0.0000 N   0  0  0  0  0  0  0  0  0  0  0  0
   -0.9920   -3.2269    0.0000 N   0  0  0  0  0  0  0  0  0  0  0  0
    1.8659   -3.2269    0.0000 N   0  0  0  0  0  0  0  0  0  0  0  0
    1.8659   -4.8769    0.0000 N   0  0  0  0  0  0  0  0  0  0  0  0
    4.0794   -2.1470    0.0000 N   0  0  0  0  0  0  0  0  0  0  0  0
    4.5644   -2.8144    0.0000 N   0  0  0  0  0  0  0  0  0  0  0  0
    1.1514   -3.6394    0.0000 C   0  0  0  0  0  0  0  0  0  0  0  0
   -0.2775   -3.6394    0.0000 C   0  0  0  0  0  0  0  0  0  0  0  0
   -1.7065   -3.6394    0.0000 C   0  0  0  0  0  0  0  0  0  0  0  0
    1.1514   -4.4644    0.0000 C   0  0  0  0  0  0  0  0  0  0  0  0
   -2.4210   -3.2269    0.0000 C   0  0  0  0  0  0  0  0  0  0  0  0
   -1.7065   -4.4644    0.0000 C   0  0  0  0  0  0  0  0  0  0  0  0
    2.5803   -3.6394    0.0000 C   0  0  0  0  0  0  0  0  0  0  0  0
   -3.1354   -3.6394    0.0000 C   0  0  0  0  0  0  0  0  0  0  0  0
   -2.4210   -4.8769    0.0000 C   0  0  0  0  0  0  0  0  0  0  0  0
   -0.2775   -4.4644    0.0000 C   0  0  0  0  0  0  0  0  0  0  0  0
    0.4369   -4.8769    0.0000 C   0  0  0  0  0  0  0  0  0  0  0  0
    3.2948   -3.2269    0.0000 C   0  0  0  0  0  0  0  0  0  0  0  0
   -3.1354   -4.4644    0.0000 C   0  0  0  0  0  0  0  0  0  0  0  0
    2.5803   -4.4644    0.0000 C   0  0  0  0  0  0  0  0  0  0  0  0
    0.4369   -2.4019    0.0000 C   0  0  0  0  0  0  0  0  0  0  0  0
    3.2948   -2.4019    0.0000 C   0  0  0  0  0  0  0  0  0  0  0  0
    4.0794   -3.4819    0.0000 C   0  0  0  0  0  0  0  0  0  0  0  0
   -0.2775   -1.9894    0.0000 C   0  0  0  0  0  0  0  0  0  0  0  0
   -4.5644   -3.6394    0.0000 C   0  0  0  0  0  0  0  0  0  0  0  0
   -1.7065   -6.1144    0.0000 C   0  0  0  0  0  0  0  0  0  0  0  0
    4.4919   -1.4325    0.0000 C   0  0  0  0  0  0  0  0  0  0  0  0
  1 15  1  0  0  0  0
  2 16  1  0  0  0  0
  3 18  1  0  0  0  0
  3 29  1  0  0  0  0
  4 19  1  0  0  0  0
  4 30  1  0  0  0  0
  5 11  1  0  0  0  0
  5 12  1  0  0  0  0
  5 25  1  0  0  0  0
  6 12  2  0  0  0  0
  6 13  1  0  0  0  0
  7 11  1  0  0  0  0
  7 17  2  0  0  0  0
  8 14  1  0  0  0  0
  8 24  2  0  0  0  0
  9 10  1  0  0  0  0
  9 26  1  0  0  0  0
  9 31  1  0  0  0  0
 10 27  2  0  0  0  0
 11 14  2  0  0  0  0
 12 20  1  0  0  0  0
 13 15  1  0  0  0  0
 13 16  2  0  0  0  0
 14 21  1  0  0  0  0
 15 18  2  0  0  0  0
 16 19  1  0  0  0  0
 17 22  1  0  0  0  0
 17 24  1  0  0  0  0
 18 23  1  0  0  0  0
 19 23  2  0  0  0  0
 20 21  2  0  0  0  0
 22 26  2  0  0  0  0
 22 27  1  0  0  0  0
 25 28  1  0  0  0  0
M  END
> <PUBCHEM_COMPOUND_ID_TYPE>
0

> <PUBCHEM_TOTAL_CHARGE>
0

> <PUBCHEM_SUBSTANCE_ID>
310947020

> <PUBCHEM_SUBSTANCE_VERSION>
1

> <PUBCHEM_EXT_DATASOURCE_NAME>
4488

> <PUBCHEM_EXT_DATASOURCE_REGID>
SCHEMBL16125172

> <PUBCHEM_SUBSTANCE_COMMENT>
InChI=1S/C21H20F2N6O2/c1-5-29-17(27-20-18(22)15(30-3)8-16(31-4)19(20)23)7-6-13-21(29)26-14(10-24-13)12-9-25-28(2)11-12/h6-11H,5H2,1-4H3/b27-17+
InChIKey=HLBOBDSLGBNXNS-WPWMEQJKSA-N

> <PUBCHEM_SUBSTANCE_SYNONYM>
SCHEMBL16125172

> <PUBCHEM_XREF_EXT_ID>
SCHEMBL16125172

> <PUBCHEM_EXT_DATASOURCE_URL>
https://www.surechembl.org/

> <PUBCHEM_EXT_SUBSTANCE_URL>
https://www.surechembl.org/chemical/SCHEMBL16125172

> <PUBCHEM_CID_ASSOCIATIONS>
117612872  1

> <PUBCHEM_COORDINATE_TYPE>
1
3

$$$$
