310939764
  -OEChem-07211613022D

 16 16  0     0  0  0  0  0  0999 V2000
   -2.3715   17.4249    0.0000 Cl  0  0  0  0  0  0  0  0  0  0  0  0
   -3.8004   14.9499    0.0000 O   0  0  0  0  0  0  0  0  0  0  0  0
   -0.9425   17.4249    0.0000 O   0  0  0  0  0  0  0  0  0  0  0  0
   -2.3715   14.9499    0.0000 C   0  0  0  0  0  0  0  0  0  0  0  0
   -3.0859   15.3624    0.0000 C   0  0  0  0  0  0  0  0  0  0  0  0
   -1.6570   16.1874    0.0000 C   0  0  0  0  0  0  0  0  0  0  0  0
   -2.3715   14.1249    0.0000 C   0  0  0  0  0  0  0  0  0  0  0  0
   -1.6570   15.3624    0.0000 C   0  0  0  0  0  0  0  0  0  0  0  0
   -2.3715   16.5999    0.0000 C   0  0  0  0  0  0  0  0  0  0  0  0
   -3.0859   16.1874    0.0000 C   0  0  0  0  0  0  0  0  0  0  0  0
   -0.9425   16.5999    0.0000 C   0  0  0  0  0  0  0  0  0  0  0  0
   -1.5465   14.1249    0.0000 C   0  0  0  0  0  0  0  0  0  0  0  0
   -3.1965   14.1249    0.0000 C   0  0  0  0  0  0  0  0  0  0  0  0
   -2.3715   13.2999    0.0000 C   0  0  0  0  0  0  0  0  0  0  0  0
   -0.2281   16.1874    0.0000 C   0  0  0  0  0  0  0  0  0  0  0  0
   -4.5149   15.3624    0.0000 C   0  0  0  0  0  0  0  0  0  0  0  0
  1  9  1  0  0  0  0
  2  5  1  0  0  0  0
  2 16  1  0  0  0  0
  3 11  2  0  0  0  0
  4  5  1  0  0  0  0
  4  7  1  0  0  0  0
  4  8  2  0  0  0  0
  5 10  2  0  0  0  0
  6  8  1  0  0  0  0
  6  9  2  0  0  0  0
  6 11  1  0  0  0  0
  7 12  1  0  0  0  0
  7 13  1  0  0  0  0
  7 14  1  0  0  0  0
  9 10  1  0  0  0  0
 11 15  1  0  0  0  0
M  END
> <PUBCHEM_COMPOUND_ID_TYPE>
0

> <PUBCHEM_TOTAL_CHARGE>
0

> <PUBCHEM_SUBSTANCE_ID>
310939764

> <PUBCHEM_SUBSTANCE_VERSION>
1

> <PUBCHEM_EXT_DATASOURCE_NAME>
4488

> <PUBCHEM_EXT_DATASOURCE_REGID>
SCHEMBL16117694

> <PUBCHEM_SUBSTANCE_COMMENT>
InChI=1S/C13H17ClO2/c1-8(15)9-6-10(13(2,3)4)12(16-5)7-11(9)14/h6-7H,1-5H3
InChIKey=JZOLZZTUITWYJK-UHFFFAOYSA-N

> <PUBCHEM_SUBSTANCE_SYNONYM>
SCHEMBL16117694

> <PUBCHEM_XREF_EXT_ID>
SCHEMBL16117694

> <PUBCHEM_EXT_DATASOURCE_URL>
https://www.surechembl.org/

> <PUBCHEM_EXT_SUBSTANCE_URL>
https://www.surechembl.org/chemical/SCHEMBL16117694

> <PUBCHEM_CID_ASSOCIATIONS>
117606986  1

> <PUBCHEM_COORDINATE_TYPE>
1
3

> <PUBCHEM_BONDANNOTATIONS>
7  12  3
7  13  3

$$$$
