310948311
  -OEChem-07211613022D

 44 48  0     0  0  0  0  0  0999 V2000
   -2.1746   -3.2032    0.0000 S   0  0  0  0  0  0  0  0  0  0  0  0
    0.5485   -3.3599    0.0000 F   0  0  0  0  0  0  0  0  0  0  0  0
    2.8212   -3.5950    0.0000 F   0  0  0  0  0  0  0  0  0  0  0  0
    2.4881   -2.4979    0.0000 F   0  0  0  0  0  0  0  0  0  0  0  0
    1.7044   -3.8497    0.0000 F   0  0  0  0  0  0  0  0  0  0  0  0
    0.8424    1.7926    0.0000 O   0  0  0  0  0  0  0  0  0  0  0  0
   -2.5665   -2.5567    0.0000 O   0  0  0  0  0  0  0  0  0  0  0  0
   -1.7632   -3.8889    0.0000 O   0  0  0  0  0  0  0  0  0  0  0  0
    1.3910   -2.7722    0.0000 O   0  0  0  0  0  0  0  0  0  0  0  0
   -0.0392   -4.4571    0.0000 O   0  0  0  0  0  0  0  0  0  0  0  0
   -0.2155    4.4571    0.0000 O   0  0  0  0  0  0  0  0  0  0  0  0
   -0.7640    1.8318    0.0000 N   0  0  0  0  0  0  0  0  0  0  0  0
    1.9984    1.1265    0.0000 N   0  0  0  0  0  0  0  0  0  0  0  0
   -0.0979    2.3216    0.0000 N   0  0  0  0  0  0  0  0  0  0  0  0
    0.9600    3.7322    0.0000 N   0  0  0  0  0  0  0  0  0  0  0  0
   -0.0392    0.5779    0.0000 C   0  0  0  0  0  0  0  0  0  0  0  0
    0.6661    0.9893    0.0000 C   0  0  0  0  0  0  0  0  0  0  0  0
   -0.7640    0.9893    0.0000 C   0  0  0  0  0  0  0  0  0  0  0  0
    1.3910    0.5779    0.0000 C   0  0  0  0  0  0  0  0  0  0  0  0
   -0.7640   -0.6759    0.0000 C   0  0  0  0  0  0  0  0  0  0  0  0
   -0.0588   -0.2645    0.0000 C   0  0  0  0  0  0  0  0  0  0  0  0
   -0.7837   -1.5183    0.0000 C   0  0  0  0  0  0  0  0  0  0  0  0
   -1.4694   -2.7722    0.0000 C   0  0  0  0  0  0  0  0  0  0  0  0
    1.3910   -0.2645    0.0000 C   0  0  0  0  0  0  0  0  0  0  0  0
   -1.4498    0.5779    0.0000 C   0  0  0  0  0  0  0  0  0  0  0  0
   -0.7640   -3.1836    0.0000 C   0  0  0  0  0  0  0  0  0  0  0  0
    1.6653    1.8710    0.0000 C   0  0  0  0  0  0  0  0  0  0  0  0
   -1.4498   -0.2645    0.0000 C   0  0  0  0  0  0  0  0  0  0  0  0
   -1.4498   -1.9297    0.0000 C   0  0  0  0  0  0  0  0  0  0  0  0
   -0.0588   -2.7722    0.0000 C   0  0  0  0  0  0  0  0  0  0  0  0
   -0.0392   -1.9493    0.0000 C   0  0  0  0  0  0  0  0  0  0  0  0
   -1.4106    2.3020    0.0000 C   0  0  0  0  0  0  0  0  0  0  0  0
   -0.3526    3.1053    0.0000 C   0  0  0  0  0  0  0  0  0  0  0  0
    0.6857   -0.6759    0.0000 C   0  0  0  0  0  0  0  0  0  0  0  0
    2.0963   -0.6955    0.0000 C   0  0  0  0  0  0  0  0  0  0  0  0
   -1.1559    3.1053    0.0000 C   0  0  0  0  0  0  0  0  0  0  0  0
   -0.7640   -4.0260    0.0000 C   0  0  0  0  0  0  0  0  0  0  0  0
    1.3910   -1.9102    0.0000 C   0  0  0  0  0  0  0  0  0  0  0  0
    0.6857   -1.5183    0.0000 C   0  0  0  0  0  0  0  0  0  0  0  0
    2.0963   -1.5183    0.0000 C   0  0  0  0  0  0  0  0  0  0  0  0
    2.0767    2.6351    0.0000 C   0  0  0  0  0  0  0  0  0  0  0  0
    0.1371    3.7910    0.0000 C   0  0  0  0  0  0  0  0  0  0  0  0
   -2.8212   -3.6146    0.0000 C   0  0  0  0  0  0  0  0  0  0  0  0
    2.0963   -3.1836    0.0000 C   0  0  0  0  0  0  0  0  0  0  0  0
  1  7  2  0  0  0  0
  1  8  2  0  0  0  0
  1 23  1  0  0  0  0
  1 43  1  0  0  0  0
  2 30  1  0  0  0  0
  3 44  1  0  0  0  0
  4 44  1  0  0  0  0
  5 44  1  0  0  0  0
  6 17  1  0  0  0  0
  6 27  1  0  0  0  0
  9 38  1  0  0  0  0
  9 44  1  0  0  0  0
 10 37  1  0  0  0  0
 11 42  2  0  0  0  0
 12 14  1  0  0  0  0
 12 18  1  0  0  0  0
 12 32  1  0  0  0  0
 13 19  1  0  0  0  0
 13 27  2  0  0  0  0
 14 33  2  0  0  0  0
 15 42  1  0  0  0  0
 16 17  1  0  0  0  0
 16 18  1  0  0  0  0
 16 21  2  0  0  0  0
 17 19  2  0  0  0  0
 18 25  2  0  0  0  0
 19 24  1  0  0  0  0
 20 21  1  0  0  0  0
 20 22  1  0  0  0  0
 20 28  2  0  0  0  0
 22 29  2  0  0  0  0
 22 31  1  0  0  0  0
 23 26  2  0  0  0  0
 23 29  1  0  0  0  0
 24 34  2  0  0  0  0
 24 35  1  0  0  0  0
 25 28  1  0  0  0  0
 26 30  1  0  0  0  0
 26 37  1  0  0  0  0
 27 41  1  0  0  0  0
 30 31  2  0  0  0  0
 32 36  2  0  0  0  0
 33 36  1  0  0  0  0
 33 42  1  0  0  0  0
 34 39  1  0  0  0  0
 35 40  2  0  0  0  0
 38 39  2  0  0  0  0
 38 40  1  0  0  0  0
M  END
> <PUBCHEM_COMPOUND_ID_TYPE>
0

> <PUBCHEM_TOTAL_CHARGE>
0

> <PUBCHEM_SUBSTANCE_ID>
310948311

> <PUBCHEM_SUBSTANCE_VERSION>
1

> <PUBCHEM_EXT_DATASOURCE_NAME>
4488

> <PUBCHEM_EXT_DATASOURCE_REGID>
SCHEMBL16126489

> <PUBCHEM_SUBSTANCE_COMMENT>
InChI=1S/C29H22F4N4O6S/c1-15-35-26(16-3-6-19(7-4-16)43-29(31,32)33)27(42-15)20-11-17(5-8-24(20)37-10-9-23(36-37)28(34)39)18-12-22(30)21(14-38)25(13-18)44(2,40)41/h3-13,38H,14H2,1-2H3,(H2,34,39)
InChIKey=VCDJBTBDQHRLKD-UHFFFAOYSA-N

> <PUBCHEM_SUBSTANCE_SYNONYM>
SCHEMBL16126489

> <PUBCHEM_XREF_EXT_ID>
SCHEMBL16126489

> <PUBCHEM_EXT_DATASOURCE_URL>
https://www.surechembl.org/

> <PUBCHEM_EXT_SUBSTANCE_URL>
https://www.surechembl.org/chemical/SCHEMBL16126489

> <PUBCHEM_CID_ASSOCIATIONS>
117613876  1

> <PUBCHEM_COORDINATE_TYPE>
1
3

$$$$
