310940647
  -OEChem-07211613022D

 35 39  0     1  0  0  0  0  0999 V2000
    1.9651   -0.3848    0.0000 O   0  0  0  0  0  0  0  0  0  0  0  0
    2.0476    1.1131    0.0000 O   0  0  0  0  0  0  0  0  0  0  0  0
   -2.1850   -0.5085    0.0000 O   0  0  0  0  0  0  0  0  0  0  0  0
   -3.5043   -2.6110    0.0000 O   0  0  0  0  0  0  0  0  0  0  0  0
    0.8383    0.3023    0.0000 N   0  0  0  0  0  0  0  0  0  0  0  0
    0.6734   -2.1850    0.0000 N   0  0  0  0  0  0  0  0  0  0  0  0
   -3.0095   -3.2569    0.0000 N   0  0  0  0  0  0  0  0  0  0  0  0
    2.8034   -1.7590    0.0000 N   0  0  0  0  0  0  0  0  0  0  0  0
    0.6321   -0.4397    0.0000 C   0  0  0  0  0  0  0  0  0  0  0  0
   -0.0687   -0.8383    0.0000 C   0  0  0  0  0  0  0  0  0  0  0  0
    1.3605   -0.8657    0.0000 C   0  0  0  0  0  0  0  0  0  0  0  0
   -0.0825   -1.7041    0.0000 C   0  0  0  0  0  0  0  0  0  0  0  0
    1.3467   -1.6903    0.0000 C   0  0  0  0  0  0  0  0  0  0  0  0
    1.5941    0.4397    0.0000 C   0  0  0  0  0  0  0  0  0  0  0  0
   -1.5116   -1.6903    0.0000 C   0  0  0  0  0  0  0  0  0  0  0  0
   -0.7970   -0.4535    0.0000 C   0  0  0  0  0  0  0  0  0  0  0  0
   -1.4979   -0.8657    0.0000 C   0  0  0  0  0  0  0  0  0  0  0  0
    0.2474    0.9620    0.0000 C   0  0  3  0  0  0  0  0  0  0  0  0
   -0.7833   -2.0888    0.0000 C   0  0  0  0  0  0  0  0  0  0  0  0
   -2.2262   -2.1026    0.0000 C   0  0  0  0  0  0  0  0  0  0  0  0
    2.0751   -2.1026    0.0000 C   0  0  0  0  0  0  0  0  0  0  0  0
    0.4535    1.7865    0.0000 C   0  0  0  0  0  0  0  0  0  0  0  0
   -3.0233   -1.8415    0.0000 C   0  0  0  0  0  0  0  0  0  0  0  0
   -2.2400   -2.9408    0.0000 C   0  0  0  0  0  0  0  0  0  0  0  0
   -0.5359    0.7558    0.0000 C   0  0  0  0  0  0  0  0  0  0  0  0
   -0.1237    2.3499    0.0000 C   0  0  0  0  0  0  0  0  0  0  0  0
    1.2505    2.0064    0.0000 C   0  0  0  0  0  0  0  0  0  0  0  0
   -3.2706   -1.0307    0.0000 C   0  0  0  0  0  0  0  0  0  0  0  0
   -1.4979   -3.3669    0.0000 C   0  0  0  0  0  0  0  0  0  0  0  0
   -2.2262    0.3985    0.0000 C   0  0  0  0  0  0  0  0  0  0  0  0
    0.0962    3.1607    0.0000 C   0  0  0  0  0  0  0  0  0  0  0  0
    1.4429    2.7897    0.0000 C   0  0  0  0  0  0  0  0  0  0  0  0
    3.5043   -2.1026    0.0000 C   0  0  0  0  0  0  0  0  0  0  0  0
    2.7759   -0.8383    0.0000 C   0  0  0  0  0  0  0  0  0  0  0  0
    0.8795    3.3669    0.0000 C   0  0  0  0  0  0  0  0  0  0  0  0
  1 11  1  0  0  0  0
  1 14  1  0  0  0  0
  2 14  2  0  0  0  0
  3 17  1  0  0  0  0
  3 30  1  0  0  0  0
  4  7  1  0  0  0  0
  4 23  1  0  0  0  0
  5  9  1  0  0  0  0
  5 14  1  0  0  0  0
  5 18  1  0  0  0  0
  6 12  1  0  0  0  0
  6 13  2  0  0  0  0
  7 24  2  0  0  0  0
  8 21  1  0  0  0  0
  8 33  1  0  0  0  0
  8 34  1  0  0  0  0
  9 10  1  0  0  0  0
  9 11  2  0  0  0  0
 10 12  2  0  0  0  0
 10 16  1  0  0  0  0
 11 13  1  0  0  0  0
 12 19  1  0  0  0  0
 13 21  1  0  0  0  0
 15 17  1  0  0  0  0
 15 19  2  0  0  0  0
 15 20  1  0  0  0  0
 16 17  2  0  0  0  0
 18 22  1  0  0  0  0
 18 25  1  6  0  0  0
 20 23  2  0  0  0  0
 20 24  1  0  0  0  0
 22 26  2  0  0  0  0
 22 27  1  0  0  0  0
 23 28  1  0  0  0  0
 24 29  1  0  0  0  0
 26 31  1  0  0  0  0
 27 32  2  0  0  0  0
 31 35  2  0  0  0  0
 32 35  1  0  0  0  0
M  END
> <PUBCHEM_COMPOUND_ID_TYPE>
0

> <PUBCHEM_TOTAL_CHARGE>
0

> <PUBCHEM_SUBSTANCE_ID>
310940647

> <PUBCHEM_SUBSTANCE_VERSION>
1

> <PUBCHEM_EXT_DATASOURCE_NAME>
4488

> <PUBCHEM_EXT_DATASOURCE_REGID>
SCHEMBL16118602

> <PUBCHEM_SUBSTANCE_COMMENT>
InChI=1S/C27H28N4O4/c1-15-24(17(3)35-29-15)20-12-21-19(13-23(20)33-6)25-26(22(28-21)14-30(4)5)34-27(32)31(25)16(2)18-10-8-7-9-11-18/h7-13,16H,14H2,1-6H3/t16-/m1/s1
InChIKey=NREFBXFAJACEGE-MRXNPFEDSA-N

> <PUBCHEM_SUBSTANCE_SYNONYM>
SCHEMBL16118602

> <PUBCHEM_XREF_EXT_ID>
SCHEMBL16118602

> <PUBCHEM_EXT_DATASOURCE_URL>
https://www.surechembl.org/

> <PUBCHEM_EXT_SUBSTANCE_URL>
https://www.surechembl.org/chemical/SCHEMBL16118602

> <PUBCHEM_CID_ASSOCIATIONS>
117607626  1

> <PUBCHEM_COORDINATE_TYPE>
1
3

> <PUBCHEM_BONDANNOTATIONS>
18  25  6

$$$$
