310933388
  -OEChem-07211613022D

 34 38  0     0  0  0  0  0  0999 V2000
    0.7140    0.0000    0.0000 F   0  0  0  0  0  0  0  0  0  0  0  0
    0.0000   -1.2401    0.0000 F   0  0  0  0  0  0  0  0  0  0  0  0
    1.4280   -0.4134    0.0000 F   0  0  0  0  0  0  0  0  0  0  0  0
    0.0752   -6.3883    0.0000 O   0  0  0  0  0  0  0  0  0  0  0  0
    5.5992   -5.3737    0.0000 O   0  0  0  0  0  0  0  0  0  0  0  0
    0.0000   -2.0668    0.0000 O   0  0  0  0  0  0  0  0  0  0  0  0
    1.4280   -2.0668    0.0000 N   0  0  0  0  0  0  0  0  0  0  0  0
    4.3215   -4.6973    0.0000 N   0  0  0  0  0  0  0  0  0  0  0  0
    4.2840   -6.0126    0.0000 N   0  0  0  0  0  0  0  0  0  0  0  0
    0.4885   -7.1399    0.0000 N   0  0  0  0  0  0  0  0  0  0  0  0
    2.8184   -4.5094    0.0000 C   0  0  0  0  0  0  0  0  0  0  0  0
    2.8184   -3.6827    0.0000 C   0  0  0  0  0  0  0  0  0  0  0  0
    3.5324   -4.9228    0.0000 C   0  0  0  0  0  0  0  0  0  0  0  0
    2.1420   -3.2693    0.0000 C   0  0  0  0  0  0  0  0  0  0  0  0
    2.1420   -2.4802    0.0000 C   0  0  0  0  0  0  0  0  0  0  0  0
    3.4948   -5.7871    0.0000 C   0  0  0  0  0  0  0  0  0  0  0  0
    2.1044   -5.7495    0.0000 C   0  0  0  0  0  0  0  0  0  0  0  0
    2.1044   -4.8852    0.0000 C   0  0  0  0  0  0  0  0  0  0  0  0
    3.5324   -3.2693    0.0000 C   0  0  0  0  0  0  0  0  0  0  0  0
    1.3904   -6.1628    0.0000 C   0  0  0  0  0  0  0  0  0  0  0  0
    2.7808   -6.1628    0.0000 C   0  0  0  0  0  0  0  0  0  0  0  0
    1.4280   -3.6827    0.0000 C   0  0  0  0  0  0  0  0  0  0  0  0
    2.8184   -2.0668    0.0000 C   0  0  0  0  0  0  0  0  0  0  0  0
    4.7725   -5.3737    0.0000 C   0  0  0  0  0  0  0  0  0  0  0  0
    0.6764   -2.4802    0.0000 C   0  0  0  0  0  0  0  0  0  0  0  0
    3.5324   -2.4802    0.0000 C   0  0  0  0  0  0  0  0  0  0  0  0
    0.6388   -5.8247    0.0000 C   0  0  0  0  0  0  0  0  0  0  0  0
    1.2777   -6.9520    0.0000 C   0  0  0  0  0  0  0  0  0  0  0  0
    0.6764   -3.2693    0.0000 C   0  0  0  0  0  0  0  0  0  0  0  0
    1.4280   -1.2401    0.0000 C   0  0  0  0  0  0  0  0  0  0  0  0
    4.2463   -3.6827    0.0000 C   0  0  0  0  0  0  0  0  0  0  0  0
    0.7140   -0.8267    0.0000 C   0  0  0  0  0  0  0  0  0  0  0  0
    0.4885   -4.9979    0.0000 C   0  0  0  0  0  0  0  0  0  0  0  0
    1.8789   -7.5156    0.0000 C   0  0  0  0  0  0  0  0  0  0  0  0
  1 32  1  0  0  0  0
  2 32  1  0  0  0  0
  3 32  1  0  0  0  0
  4 10  1  0  0  0  0
  4 27  1  0  0  0  0
  5 24  2  0  0  0  0
  6 25  2  0  0  0  0
  7 15  1  0  0  0  0
  7 25  1  0  0  0  0
  7 30  1  0  0  0  0
  8 13  1  0  0  0  0
  8 24  1  0  0  0  0
  9 16  1  0  0  0  0
  9 24  1  0  0  0  0
 10 28  2  0  0  0  0
 11 12  1  0  0  0  0
 11 13  1  0  0  0  0
 11 18  2  0  0  0  0
 12 14  1  0  0  0  0
 12 19  2  0  0  0  0
 13 16  2  0  0  0  0
 14 15  2  0  0  0  0
 14 22  1  0  0  0  0
 15 23  1  0  0  0  0
 16 21  1  0  0  0  0
 17 18  1  0  0  0  0
 17 20  1  0  0  0  0
 17 21  2  0  0  0  0
 19 26  1  0  0  0  0
 19 31  1  0  0  0  0
 20 27  2  0  0  0  0
 20 28  1  0  0  0  0
 22 29  2  0  0  0  0
 23 26  2  0  0  0  0
 25 29  1  0  0  0  0
 27 33  1  0  0  0  0
 28 34  1  0  0  0  0
 30 32  1  0  0  0  0
M  END
> <PUBCHEM_COMPOUND_ID_TYPE>
0

> <PUBCHEM_TOTAL_CHARGE>
0

> <PUBCHEM_SUBSTANCE_ID>
310933388

> <PUBCHEM_SUBSTANCE_VERSION>
1

> <PUBCHEM_EXT_DATASOURCE_NAME>
4488

> <PUBCHEM_EXT_DATASOURCE_REGID>
SCHEMBL16110804

> <PUBCHEM_SUBSTANCE_COMMENT>
InChI=1S/C24H19F3N4O3/c1-11-4-6-18-15(5-7-19(32)31(18)10-24(25,26)27)20(11)16-8-14(21-12(2)30-34-13(21)3)9-17-22(16)29-23(33)28-17/h4-9H,10H2,1-3H3,(H2,28,29,33)
InChIKey=WKOBAOIDWYZZFX-UHFFFAOYSA-N

> <PUBCHEM_SUBSTANCE_SYNONYM>
SCHEMBL16110804

> <PUBCHEM_XREF_EXT_ID>
SCHEMBL16110804

> <PUBCHEM_EXT_DATASOURCE_URL>
https://www.surechembl.org/

> <PUBCHEM_EXT_SUBSTANCE_URL>
https://www.surechembl.org/chemical/SCHEMBL16110804

> <PUBCHEM_CID_ASSOCIATIONS>
117601799  1

> <PUBCHEM_COORDINATE_TYPE>
1
3

$$$$
