310932663
  -OEChem-07211613022D

 28 33  0     0  0  0  0  0  0999 V2000
    0.0000   -5.4979    0.0000 O   0  0  0  0  0  0  0  0  0  0  0  0
    5.4979   -4.3786    0.0000 O   0  0  0  0  0  0  0  0  0  0  0  0
    2.2387   -1.4814    0.0000 N   0  0  0  0  0  0  0  0  0  0  0  0
    2.0082   -2.2716    0.0000 N   0  0  0  0  0  0  0  0  0  0  0  0
    4.1810   -3.7201    0.0000 N   0  0  0  0  0  0  0  0  0  0  0  0
    4.1810   -5.0370    0.0000 N   0  0  0  0  0  0  0  0  0  0  0  0
    0.3951   -6.2222    0.0000 N   0  0  0  0  0  0  0  0  0  0  0  0
    2.6996   -3.5555    0.0000 C   0  0  0  0  0  0  0  0  0  0  0  0
    2.6666   -2.7325    0.0000 C   0  0  0  0  0  0  0  0  0  0  0  0
    3.4238   -3.9506    0.0000 C   0  0  0  0  0  0  0  0  0  0  0  0
    3.3251   -2.2716    0.0000 C   0  0  0  0  0  0  0  0  0  0  0  0
    3.4238   -4.8065    0.0000 C   0  0  0  0  0  0  0  0  0  0  0  0
    2.0082   -4.8065    0.0000 C   0  0  0  0  0  0  0  0  0  0  0  0
    2.0082   -3.9506    0.0000 C   0  0  0  0  0  0  0  0  0  0  0  0
    4.1152   -2.5021    0.0000 C   0  0  0  0  0  0  0  0  0  0  0  0
    1.2839   -5.2345    0.0000 C   0  0  0  0  0  0  0  0  0  0  0  0
    3.0617   -1.4814    0.0000 C   0  0  0  0  0  0  0  0  0  0  0  0
    2.6996   -5.2016    0.0000 C   0  0  0  0  0  0  0  0  0  0  0  0
    1.7778   -0.8230    0.0000 C   0  0  0  0  0  0  0  0  0  0  0  0
    4.6748   -4.3786    0.0000 C   0  0  0  0  0  0  0  0  0  0  0  0
    4.9382   -2.3374    0.0000 C   0  0  0  0  0  0  0  0  0  0  0  0
    4.7078   -3.1275    0.0000 C   0  0  0  0  0  0  0  0  0  0  0  0
    0.5268   -4.9053    0.0000 C   0  0  0  0  0  0  0  0  0  0  0  0
    1.2181   -6.0246    0.0000 C   0  0  0  0  0  0  0  0  0  0  0  0
    1.0205   -0.4938    0.0000 C   0  0  0  0  0  0  0  0  0  0  0  0
    1.6790    0.0000    0.0000 C   0  0  0  0  0  0  0  0  0  0  0  0
    0.3621   -4.0822    0.0000 C   0  0  0  0  0  0  0  0  0  0  0  0
    1.8107   -6.5843    0.0000 C   0  0  0  0  0  0  0  0  0  0  0  0
  1  7  1  0  0  0  0
  1 23  1  0  0  0  0
  2 20  2  0  0  0  0
  3  4  1  0  0  0  0
  3 17  1  0  0  0  0
  3 19  1  0  0  0  0
  4  9  2  0  0  0  0
  5 10  1  0  0  0  0
  5 20  1  0  0  0  0
  6 12  1  0  0  0  0
  6 20  1  0  0  0  0
  7 24  2  0  0  0  0
  8  9  1  0  0  0  0
  8 10  1  0  0  0  0
  8 14  2  0  0  0  0
  9 11  1  0  0  0  0
 10 12  2  0  0  0  0
 11 15  1  0  0  0  0
 11 17  2  0  0  0  0
 12 18  1  0  0  0  0
 13 14  1  0  0  0  0
 13 16  1  0  0  0  0
 13 18  2  0  0  0  0
 15 21  1  0  0  0  0
 15 22  1  0  0  0  0
 16 23  2  0  0  0  0
 16 24  1  0  0  0  0
 19 25  1  0  0  0  0
 19 26  1  0  0  0  0
 21 22  1  0  0  0  0
 23 27  1  0  0  0  0
 24 28  1  0  0  0  0
 25 26  1  0  0  0  0
M  END
> <PUBCHEM_COMPOUND_ID_TYPE>
0

> <PUBCHEM_TOTAL_CHARGE>
0

> <PUBCHEM_SUBSTANCE_ID>
310932663

> <PUBCHEM_SUBSTANCE_VERSION>
1

> <PUBCHEM_EXT_DATASOURCE_NAME>
4488

> <PUBCHEM_EXT_DATASOURCE_REGID>
SCHEMBL16110042

> <PUBCHEM_SUBSTANCE_COMMENT>
InChI=1S/C21H21N5O2/c1-10-18(11(2)28-25-10)13-7-15(20-17(8-13)22-21(27)23-20)19-16(12-3-4-12)9-26(24-19)14-5-6-14/h7-9,12,14H,3-6H2,1-2H3,(H2,22,23,27)
InChIKey=NIDBTWPPSZAMGN-UHFFFAOYSA-N

> <PUBCHEM_SUBSTANCE_SYNONYM>
SCHEMBL16110042

> <PUBCHEM_XREF_EXT_ID>
SCHEMBL16110042

> <PUBCHEM_EXT_DATASOURCE_URL>
https://www.surechembl.org/

> <PUBCHEM_EXT_SUBSTANCE_URL>
https://www.surechembl.org/chemical/SCHEMBL16110042

> <PUBCHEM_CID_ASSOCIATIONS>
117601178  1

> <PUBCHEM_COORDINATE_TYPE>
1
3

$$$$
