310929287
  -OEChem-07211613022D

 18 18  0     0  0  0  0  0  0999 V2000
    2.4800   -0.7055    0.0000 O   0  0  0  0  0  0  0  0  0  0  0  0
    0.0000   -0.7055    0.0000 O   0  0  0  0  0  0  0  0  0  0  0  0
    3.3137   -0.7055    0.0000 O   0  0  0  0  0  0  0  0  0  0  0  0
    4.5537   -1.4324    0.0000 O   0  0  0  0  0  0  0  0  0  0  0  0
    3.3137   -2.1379    0.0000 N   0  0  0  0  0  0  0  0  0  0  0  0
    2.0524   -1.4324    0.0000 C   0  0  0  0  0  0  0  0  0  0  0  0
    1.2400   -2.8648    0.0000 C   0  0  0  0  0  0  0  0  0  0  0  0
    2.4800   -2.1379    0.0000 C   0  0  0  0  0  0  0  0  0  0  0  0
    1.2400   -1.4324    0.0000 C   0  0  0  0  0  0  0  0  0  0  0  0
    2.0524   -2.8648    0.0000 C   0  0  0  0  0  0  0  0  0  0  0  0
    0.8124   -3.5703    0.0000 C   0  0  0  0  0  0  0  0  0  0  0  0
    0.8338   -2.1379    0.0000 C   0  0  0  0  0  0  0  0  0  0  0  0
    0.8338   -0.7055    0.0000 C   0  0  0  0  0  0  0  0  0  0  0  0
    3.7200   -1.4324    0.0000 C   0  0  0  0  0  0  0  0  0  0  0  0
    0.0855   -3.1427    0.0000 C   0  0  0  0  0  0  0  0  0  0  0  0
    0.4276   -4.2758    0.0000 C   0  0  0  0  0  0  0  0  0  0  0  0
    1.5393   -3.9765    0.0000 C   0  0  0  0  0  0  0  0  0  0  0  0
    2.0524    0.0000    0.0000 C   0  0  0  0  0  0  0  0  0  0  0  0
  1  6  1  0  0  0  0
  1 18  1  0  0  0  0
  2 13  1  0  0  0  0
  3 14  2  0  0  0  0
  4 14  1  0  0  0  0
  5  8  1  0  0  0  0
  5 14  1  0  0  0  0
  6  8  1  0  0  0  0
  6  9  2  0  0  0  0
  7 10  1  0  0  0  0
  7 11  1  0  0  0  0
  7 12  2  0  0  0  0
  8 10  2  0  0  0  0
  9 12  1  0  0  0  0
  9 13  1  0  0  0  0
 11 15  1  0  0  0  0
 11 16  1  0  0  0  0
 11 17  1  0  0  0  0
M  END
> <PUBCHEM_COMPOUND_ID_TYPE>
0

> <PUBCHEM_TOTAL_CHARGE>
0

> <PUBCHEM_SUBSTANCE_ID>
310929287

> <PUBCHEM_SUBSTANCE_VERSION>
1

> <PUBCHEM_EXT_DATASOURCE_NAME>
4488

> <PUBCHEM_EXT_DATASOURCE_REGID>
SCHEMBL16106451

> <PUBCHEM_SUBSTANCE_COMMENT>
InChI=1S/C13H19NO4/c1-13(2,3)9-5-8(7-15)11(18-4)10(6-9)14-12(16)17/h5-6,14-15H,7H2,1-4H3,(H,16,17)
InChIKey=SBMXFHAXGFMERR-UHFFFAOYSA-N

> <PUBCHEM_SUBSTANCE_SYNONYM>
SCHEMBL16106451

> <PUBCHEM_XREF_EXT_ID>
SCHEMBL16106451

> <PUBCHEM_EXT_DATASOURCE_URL>
https://www.surechembl.org/

> <PUBCHEM_EXT_SUBSTANCE_URL>
https://www.surechembl.org/chemical/SCHEMBL16106451

> <PUBCHEM_CID_ASSOCIATIONS>
117598699  1

> <PUBCHEM_COORDINATE_TYPE>
1
3

$$$$
