310932045
  -OEChem-07211613022D

 17 17  0     0  0  0  0  0  0999 V2000
    3.5558   -1.2344    0.0000 O   0  0  0  0  0  0  0  0  0  0  0  0
    0.9028   -2.1924    0.0000 O   0  0  0  0  0  0  0  0  0  0  0  0
    2.8557    0.0000    0.0000 O   0  0  0  0  0  0  0  0  0  0  0  0
    2.1372   -2.0635    0.0000 N   0  0  0  0  0  0  0  0  0  0  0  0
    0.7185   -1.2344    0.0000 N   0  0  0  0  0  0  0  0  0  0  0  0
    2.1372   -1.2344    0.0000 C   0  0  0  0  0  0  0  0  0  0  0  0
    1.4371   -2.4504    0.0000 C   0  0  0  0  0  0  0  0  0  0  0  0
    2.8557   -0.8291    0.0000 C   0  0  0  0  0  0  0  0  0  0  0  0
    2.8741   -2.4504    0.0000 C   0  0  0  0  0  0  0  0  0  0  0  0
    1.4371   -0.8106    0.0000 C   0  0  0  0  0  0  0  0  0  0  0  0
    1.4186   -3.2795    0.0000 C   0  0  0  0  0  0  0  0  0  0  0  0
    2.8373   -3.2979    0.0000 C   0  0  0  0  0  0  0  0  0  0  0  0
    2.1372   -3.6848    0.0000 C   0  0  0  0  0  0  0  0  0  0  0  0
    4.2744   -0.8291    0.0000 C   0  0  0  0  0  0  0  0  0  0  0  0
    0.0000   -0.8106    0.0000 C   0  0  0  0  0  0  0  0  0  0  0  0
    0.7185   -2.0451    0.0000 C   0  0  0  0  0  0  0  0  0  0  0  0
    4.2744    0.0000    0.0000 C   0  0  0  0  0  0  0  0  0  0  0  0
  1  8  1  0  0  0  0
  1 14  1  0  0  0  0
  2  7  2  0  0  0  0
  3  8  2  0  0  0  0
  4  6  1  0  0  0  0
  4  7  1  0  0  0  0
  4  9  1  0  0  0  0
  5 10  1  0  0  0  0
  5 15  1  0  0  0  0
  5 16  1  0  0  0  0
  6  8  1  0  0  0  0
  6 10  2  0  0  0  0
  7 11  1  0  0  0  0
  9 12  2  0  0  0  0
 11 13  2  0  0  0  0
 12 13  1  0  0  0  0
 14 17  1  0  0  0  0
M  END
> <PUBCHEM_COMPOUND_ID_TYPE>
0

> <PUBCHEM_TOTAL_CHARGE>
0

> <PUBCHEM_SUBSTANCE_ID>
310932045

> <PUBCHEM_SUBSTANCE_VERSION>
1

> <PUBCHEM_EXT_DATASOURCE_NAME>
4488

> <PUBCHEM_EXT_DATASOURCE_REGID>
SCHEMBL16109390

> <PUBCHEM_SUBSTANCE_COMMENT>
InChI=1S/C12H16N2O3/c1-4-17-12(16)10(9-13(2)3)14-8-6-5-7-11(14)15/h5-9H,4H2,1-3H3/b10-9-
InChIKey=BLPPCPGCZDUTMI-KTKRTIGZSA-N

> <PUBCHEM_SUBSTANCE_SYNONYM>
SCHEMBL16109390

> <PUBCHEM_XREF_EXT_ID>
SCHEMBL16109390

> <PUBCHEM_EXT_DATASOURCE_URL>
https://www.surechembl.org/

> <PUBCHEM_EXT_SUBSTANCE_URL>
https://www.surechembl.org/chemical/SCHEMBL16109390

> <PUBCHEM_CID_ASSOCIATIONS>
117600677  1

> <PUBCHEM_COORDINATE_TYPE>
1
3

$$$$
