310929055
  -OEChem-07211613022D

 61 65  0     1  0  0  0  0  0999 V2000
    1.3919   -1.3919    0.0000 S   0  0  0  0  0  0  0  0  0  0  0  0
    7.2129   -1.3287    0.0000 O   0  0  0  0  0  0  0  0  0  0  0  0
    3.6064   -2.5941    0.0000 O   0  0  0  0  0  0  0  0  0  0  0  0
    5.0617   -4.3024    0.0000 O   0  0  0  0  0  0  0  0  0  0  0  0
    1.8348   -0.6327    0.0000 O   0  0  0  0  0  0  0  0  0  0  0  0
    1.0123   -2.0880    0.0000 O   0  0  0  0  0  0  0  0  0  0  0  0
   13.0971   -0.4429    0.0000 O   0  0  0  0  0  0  0  0  0  0  0  0
   15.3115    0.0000    0.0000 O   0  0  0  0  0  0  0  0  0  0  0  0
   17.4628   -0.4429    0.0000 O   0  0  0  0  0  0  0  0  0  0  0  0
   18.2220   -2.5308    0.0000 O   0  0  0  0  0  0  0  0  0  0  0  0
    3.6064   -4.3024    0.0000 N   0  0  0  0  0  0  0  0  0  0  0  0
    4.3657   -3.0370    0.0000 N   0  0  0  0  0  0  0  0  0  0  0  0
    2.1512   -1.7716    0.0000 N   0  0  0  0  0  0  0  0  0  0  0  0
   10.1233   -1.2654    0.0000 N   0  0  0  0  0  0  0  0  0  0  0  0
    9.4274   -2.5308    0.0000 N   0  0  0  0  0  0  0  0  0  0  0  0
   13.7930   -1.7083    0.0000 N   0  0  0  0  0  0  0  0  0  0  0  0
    2.9105   -3.9228    0.0000 C   0  0  0  0  0  0  0  0  0  0  0  0
    2.9105   -3.0370    0.0000 C   0  0  0  0  0  0  0  0  0  0  0  0
    5.0617   -1.7716    0.0000 C   0  0  0  0  0  0  0  0  0  0  0  0
    5.7576   -1.3287    0.0000 C   0  0  0  0  0  0  0  0  0  0  0  0
    2.1512   -2.6574    0.0000 C   0  0  0  0  0  0  0  0  0  0  0  0
    1.4553   -3.9228    0.0000 C   0  0  0  0  0  0  0  0  0  0  0  0
    5.0617   -2.5941    0.0000 C   0  0  0  0  0  0  0  0  0  0  0  0
    6.5169   -1.7716    0.0000 C   0  0  0  0  0  0  0  0  0  0  0  0
    2.1512   -4.3024    0.0000 C   0  0  0  0  0  0  0  0  0  0  0  0
    1.3919   -3.0370    0.0000 C   0  0  0  0  0  0  0  0  0  0  0  0
    0.6960   -4.3024    0.0000 C   0  0  0  0  0  0  0  0  0  0  0  0
    4.3657   -3.8595    0.0000 C   0  0  0  0  0  0  0  0  0  0  0  0
    5.8209   -3.0370    0.0000 C   0  0  0  0  0  0  0  0  0  0  0  0
    6.5169   -2.5941    0.0000 C   0  0  0  0  0  0  0  0  0  0  0  0
    4.3024   -1.3919    0.0000 C   0  0  0  0  0  0  0  0  0  0  0  0
    5.7576   -0.5062    0.0000 C   0  0  0  0  0  0  0  0  0  0  0  0
    7.9721   -1.7083    0.0000 C   0  0  0  0  0  0  0  0  0  0  0  0
    4.3024   -0.5062    0.0000 C   0  0  0  0  0  0  0  0  0  0  0  0
    5.0617   -0.0633    0.0000 C   0  0  0  0  0  0  0  0  0  0  0  0
    8.6681   -1.2654    0.0000 C   0  0  0  0  0  0  0  0  0  0  0  0
    9.4274   -1.7083    0.0000 C   0  0  0  0  0  0  0  0  0  0  0  0
    0.2531   -3.6064    0.0000 C   0  0  0  0  0  0  0  0  0  0  0  0
    0.0000   -4.7453    0.0000 C   0  0  0  0  0  0  0  0  0  0  0  0
    1.1389   -5.0617    0.0000 C   0  0  0  0  0  0  0  0  0  0  0  0
    7.9721   -2.5308    0.0000 C   0  0  0  0  0  0  0  0  0  0  0  0
   10.8826   -1.7083    0.0000 C   0  0  0  0  0  0  0  0  0  0  0  0
   12.3378   -1.7083    0.0000 C   0  0  0  0  0  0  0  0  0  0  0  0
   11.6419   -1.2654    0.0000 C   0  0  0  0  0  0  0  0  0  0  0  0
    3.6064   -1.7716    0.0000 C   0  0  0  0  0  0  0  0  0  0  0  0
   11.6419   -2.9737    0.0000 C   0  0  0  0  0  0  0  0  0  0  0  0
    8.7314   -2.9737    0.0000 C   0  0  0  0  0  0  0  0  0  0  0  0
    0.6960   -0.9491    0.0000 C   0  0  0  0  0  0  0  0  0  0  0  0
   10.8826   -2.5308    0.0000 C   0  0  0  0  0  0  0  0  0  0  0  0
   12.3378   -2.5308    0.0000 C   0  0  0  0  0  0  0  0  0  0  0  0
   13.0971   -1.2654    0.0000 C   0  0  0  0  0  0  0  0  0  0  0  0
   11.6419   -3.7963    0.0000 C   0  0  0  0  0  0  0  0  0  0  0  0
   14.5523   -1.2654    0.0000 C   0  0  3  0  0  0  0  0  0  0  0  0
   12.3378   -4.2392    0.0000 C   0  0  0  0  0  0  0  0  0  0  0  0
   14.5523   -0.4429    0.0000 C   0  0  0  0  0  0  0  0  0  0  0  0
   15.2483   -1.7083    0.0000 C   0  0  0  0  0  0  0  0  0  0  0  0
   16.0075   -0.4429    0.0000 C   0  0  0  0  0  0  0  0  0  0  0  0
   16.7668    0.0000    0.0000 C   0  0  0  0  0  0  0  0  0  0  0  0
   17.4628   -1.2654    0.0000 C   0  0  0  0  0  0  0  0  0  0  0  0
   18.2220   -1.6450    0.0000 C   0  0  0  0  0  0  0  0  0  0  0  0
   18.9813   -2.9737    0.0000 C   0  0  0  0  0  0  0  0  0  0  0  0
  1  5  2  0  0  0  0
  1  6  2  0  0  0  0
  1 13  1  0  0  0  0
  1 48  1  0  0  0  0
  2 24  1  0  0  0  0
  2 33  1  0  0  0  0
  3 18  1  0  0  0  0
  3 45  1  0  0  0  0
  4 28  2  0  0  0  0
  7 51  2  0  0  0  0
  8 55  1  0  0  0  0
  8 57  1  0  0  0  0
  9 58  1  0  0  0  0
  9 59  1  0  0  0  0
 10 60  1  0  0  0  0
 10 61  1  0  0  0  0
 11 17  1  0  0  0  0
 11 28  1  0  0  0  0
 12 23  1  0  0  0  0
 12 28  1  0  0  0  0
 13 21  1  0  0  0  0
 14 37  1  0  0  0  0
 14 42  1  0  0  0  0
 15 37  1  0  0  0  0
 15 47  2  0  0  0  0
 16 51  1  0  0  0  0
 16 53  1  0  0  0  0
 17 18  1  0  0  0  0
 17 25  2  0  0  0  0
 18 21  2  0  0  0  0
 19 20  2  0  0  0  0
 19 23  1  0  0  0  0
 19 31  1  0  0  0  0
 20 24  1  0  0  0  0
 20 32  1  0  0  0  0
 21 26  1  0  0  0  0
 22 25  1  0  0  0  0
 22 26  2  0  0  0  0
 22 27  1  0  0  0  0
 23 29  2  0  0  0  0
 24 30  2  0  0  0  0
 27 38  1  0  0  0  0
 27 39  1  0  0  0  0
 27 40  1  0  0  0  0
 29 30  1  0  0  0  0
 31 34  2  0  0  0  0
 32 35  2  0  0  0  0
 33 36  1  0  0  0  0
 33 41  2  0  0  0  0
 34 35  1  0  0  0  0
 36 37  2  0  0  0  0
 41 47  1  0  0  0  0
 42 44  1  0  0  0  0
 42 49  2  0  0  0  0
 43 44  2  0  0  0  0
 43 50  1  0  0  0  0
 43 51  1  0  0  0  0
 46 49  1  0  0  0  0
 46 50  2  0  0  0  0
 46 52  1  0  0  0  0
 52 54  3  0  0  0  0
 53 55  1  0  0  0  0
 53 56  1  1  0  0  0
 57 58  1  0  0  0  0
 59 60  1  0  0  0  0
M  END
> <PUBCHEM_COMPOUND_ID_TYPE>
0

> <PUBCHEM_TOTAL_CHARGE>
0

> <PUBCHEM_SUBSTANCE_ID>
310929055

> <PUBCHEM_SUBSTANCE_VERSION>
1

> <PUBCHEM_EXT_DATASOURCE_NAME>
4488

> <PUBCHEM_EXT_DATASOURCE_REGID>
SCHEMBL16106217

> <PUBCHEM_SUBSTANCE_COMMENT>
InChI=1S/C45H52N6O9S/c1-9-30-22-31(43(52)47-29(2)28-59-21-20-58-19-18-56-6)24-33(23-30)48-41-27-34(16-17-46-41)60-40-15-14-37(35-12-10-11-13-36(35)40)49-44(53)50-38-25-32(45(3,4)5)26-39(42(38)57-7)51-61(8,54)55/h1,10-17,22-27,29,51H,18-21,28H2,2-8H3,(H,46,48)(H,47,52)(H2,49,50,53)/t29-/m1/s1
InChIKey=NSTCXWDUXNZMCN-GDLZYMKVSA-N

> <PUBCHEM_SUBSTANCE_SYNONYM>
SCHEMBL16106217

> <PUBCHEM_XREF_EXT_ID>
SCHEMBL16106217

> <PUBCHEM_EXT_DATASOURCE_URL>
https://www.surechembl.org/

> <PUBCHEM_EXT_SUBSTANCE_URL>
https://www.surechembl.org/chemical/SCHEMBL16106217

> <PUBCHEM_CID_ASSOCIATIONS>
86274980  1

> <PUBCHEM_COORDINATE_TYPE>
1
3

> <PUBCHEM_BONDANNOTATIONS>
53  56  5

$$$$
