310935047
  -OEChem-07211613022D

 41 46  0     0  0  0  0  0  0999 V2000
    5.2521   -0.9492    0.0000 O   0  0  0  0  0  0  0  0  0  0  0  0
    2.0249  -11.0103    0.0000 O   0  0  0  0  0  0  0  0  0  0  0  0
    0.5695  -11.0103    0.0000 O   0  0  0  0  0  0  0  0  0  0  0  0
    0.6328   -3.5435    0.0000 N   0  0  0  0  0  0  0  0  0  0  0  0
    0.0000   -2.9740    0.0000 N   0  0  0  0  0  0  0  0  0  0  0  0
    2.0881   -3.5435    0.0000 N   0  0  0  0  0  0  0  0  0  0  0  0
    2.8475   -0.4430    0.0000 N   0  0  0  0  0  0  0  0  0  0  0  0
    1.3289   -8.0995    0.0000 N   0  0  0  0  0  0  0  0  0  0  0  0
    1.3289   -9.7447    0.0000 N   0  0  0  0  0  0  0  0  0  0  0  0
    4.1763    0.0000    0.0000 N   0  0  0  0  0  0  0  0  0  0  0  0
    1.1390   -2.2780    0.0000 C   0  0  0  0  0  0  0  0  0  0  0  0
    1.7085   -1.7085    0.0000 C   0  0  0  0  0  0  0  0  0  0  0  0
    1.3921   -3.1006    0.0000 C   0  0  0  0  0  0  0  0  0  0  0  0
    2.5311   -1.8350    0.0000 C   0  0  0  0  0  0  0  0  0  0  0  0
    3.1006   -1.2656    0.0000 C   0  0  0  0  0  0  0  0  0  0  0  0
    0.3164   -2.2147    0.0000 C   0  0  0  0  0  0  0  0  0  0  0  0
    1.3289   -4.7458    0.0000 C   0  0  0  0  0  0  0  0  0  0  0  0
    3.9232   -1.3921    0.0000 C   0  0  0  0  0  0  0  0  0  0  0  0
    0.6328   -4.3662    0.0000 C   0  0  0  0  0  0  0  0  0  0  0  0
    1.4554   -0.8859    0.0000 C   0  0  0  0  0  0  0  0  0  0  0  0
    2.7842   -2.6576    0.0000 C   0  0  0  0  0  0  0  0  0  0  0  0
    2.0881   -4.3662    0.0000 C   0  0  0  0  0  0  0  0  0  0  0  0
    1.3289   -5.6317    0.0000 C   0  0  0  0  0  0  0  0  0  0  0  0
    2.0249   -0.2531    0.0000 C   0  0  0  0  0  0  0  0  0  0  0  0
    4.1763   -2.2147    0.0000 C   0  0  0  0  0  0  0  0  0  0  0  0
    4.4294   -0.7593    0.0000 C   0  0  0  0  0  0  0  0  0  0  0  0
    3.6068   -2.7842    0.0000 C   0  0  0  0  0  0  0  0  0  0  0  0
    1.3289   -7.2769    0.0000 C   0  0  0  0  0  0  0  0  0  0  0  0
    0.5695   -6.0113    0.0000 C   0  0  0  0  0  0  0  0  0  0  0  0
    2.0249   -6.0113    0.0000 C   0  0  0  0  0  0  0  0  0  0  0  0
    0.5695   -6.8340    0.0000 C   0  0  0  0  0  0  0  0  0  0  0  0
    2.0249   -6.8340    0.0000 C   0  0  0  0  0  0  0  0  0  0  0  0
    0.6328   -8.5425    0.0000 C   0  0  0  0  0  0  0  0  0  0  0  0
    2.0249   -8.5425    0.0000 C   0  0  0  0  0  0  0  0  0  0  0  0
    2.0249   -9.3651    0.0000 C   0  0  0  0  0  0  0  0  0  0  0  0
    0.6328   -9.3651    0.0000 C   0  0  0  0  0  0  0  0  0  0  0  0
    1.3289  -10.5673    0.0000 C   0  0  0  0  0  0  0  0  0  0  0  0
    2.0249  -11.8329    0.0000 C   0  0  0  0  0  0  0  0  0  0  0  0
    1.2023  -11.8329    0.0000 C   0  0  0  0  0  0  0  0  0  0  0  0
    2.0249  -12.6555    0.0000 C   0  0  0  0  0  0  0  0  0  0  0  0
    2.8475  -11.8329    0.0000 C   0  0  0  0  0  0  0  0  0  0  0  0
  1 26  2  0  0  0  0
  2 37  1  0  0  0  0
  2 38  1  0  0  0  0
  3 37  2  0  0  0  0
  4  5  1  0  0  0  0
  4 13  1  0  0  0  0
  4 19  1  0  0  0  0
  5 16  2  0  0  0  0
  6 13  1  0  0  0  0
  6 22  2  0  0  0  0
  7 15  2  0  0  0  0
  7 24  1  0  0  0  0
  8 28  1  0  0  0  0
  8 33  1  0  0  0  0
  8 34  1  0  0  0  0
  9 35  1  0  0  0  0
  9 36  1  0  0  0  0
  9 37  1  0  0  0  0
 10 26  1  0  0  0  0
 11 12  1  0  0  0  0
 11 13  2  0  0  0  0
 11 16  1  0  0  0  0
 12 14  2  0  0  0  0
 12 20  1  0  0  0  0
 14 15  1  0  0  0  0
 14 21  1  0  0  0  0
 15 18  1  0  0  0  0
 17 19  2  0  0  0  0
 17 22  1  0  0  0  0
 17 23  1  0  0  0  0
 18 25  2  0  0  0  0
 18 26  1  0  0  0  0
 20 24  2  0  0  0  0
 21 27  2  0  0  0  0
 23 29  2  0  0  0  0
 23 30  1  0  0  0  0
 25 27  1  0  0  0  0
 28 31  2  0  0  0  0
 28 32  1  0  0  0  0
 29 31  1  0  0  0  0
 30 32  2  0  0  0  0
 33 36  1  0  0  0  0
 34 35  1  0  0  0  0
 38 39  1  0  0  0  0
 38 40  1  0  0  0  0
 38 41  1  0  0  0  0
M  END
> <PUBCHEM_COMPOUND_ID_TYPE>
0

> <PUBCHEM_TOTAL_CHARGE>
0

> <PUBCHEM_SUBSTANCE_ID>
310935047

> <PUBCHEM_SUBSTANCE_VERSION>
1

> <PUBCHEM_EXT_DATASOURCE_NAME>
4488

> <PUBCHEM_EXT_DATASOURCE_REGID>
SCHEMBL16112567

> <PUBCHEM_SUBSTANCE_COMMENT>
InChI=1S/C31H31N7O3/c1-31(2,3)41-30(40)37-15-13-36(14-16-37)22-9-7-20(8-10-22)21-17-34-29-26(18-35-38(29)19-21)23-11-12-33-27-24(23)5-4-6-25(27)28(32)39/h4-12,17-19H,13-16H2,1-3H3,(H2,32,39)
InChIKey=LYGXQONDMLHCGR-UHFFFAOYSA-N

> <PUBCHEM_SUBSTANCE_SYNONYM>
SCHEMBL16112567

> <PUBCHEM_XREF_EXT_ID>
SCHEMBL16112567

> <PUBCHEM_EXT_DATASOURCE_URL>
https://www.surechembl.org/

> <PUBCHEM_EXT_SUBSTANCE_URL>
https://www.surechembl.org/chemical/SCHEMBL16112567

> <PUBCHEM_CID_ASSOCIATIONS>
117603151  1

> <PUBCHEM_COORDINATE_TYPE>
1
3

$$$$
