310943404
  -OEChem-07211613022D

 36 39  0     0  0  0  0  0  0999 V2000
    5.3543    1.0353    0.0000 F   0  0  0  0  0  0  0  0  0  0  0  0
    1.7794    2.2485    0.0000 O   0  0  0  0  0  0  0  0  0  0  0  0
   -5.3705    2.2647    0.0000 O   0  0  0  0  0  0  0  0  0  0  0  0
   -1.0838   -2.6853    0.0000 O   0  0  0  0  0  0  0  0  0  0  0  0
   -3.9309    1.4397    0.0000 N   0  0  0  0  0  0  0  0  0  0  0  0
   -3.2191    0.1941    0.0000 N   0  0  0  0  0  0  0  0  0  0  0  0
   -0.3721    2.6853    0.0000 N   0  0  0  0  0  0  0  0  0  0  0  0
    1.0676    1.0353    0.0000 N   0  0  0  0  0  0  0  0  0  0  0  0
   -2.5073   -1.0353    0.0000 N   0  0  0  0  0  0  0  0  0  0  0  0
    3.9146    0.1941    0.0000 N   0  0  0  0  0  0  0  0  0  0  0  0
   -1.7794    1.0353    0.0000 C   0  0  0  0  0  0  0  0  0  0  0  0
   -1.0838    1.4397    0.0000 C   0  0  0  0  0  0  0  0  0  0  0  0
   -3.2191    1.0353    0.0000 C   0  0  0  0  0  0  0  0  0  0  0  0
   -2.5073    1.4397    0.0000 C   0  0  0  0  0  0  0  0  0  0  0  0
   -1.0676    2.2647    0.0000 C   0  0  0  0  0  0  0  0  0  0  0  0
   -1.7956    0.1941    0.0000 C   0  0  0  0  0  0  0  0  0  0  0  0
   -0.3397    1.0353    0.0000 C   0  0  0  0  0  0  0  0  0  0  0  0
    0.3397    1.4397    0.0000 C   0  0  0  0  0  0  0  0  0  0  0  0
   -2.5073   -0.2103    0.0000 C   0  0  0  0  0  0  0  0  0  0  0  0
    2.4911    1.0353    0.0000 C   0  0  0  0  0  0  0  0  0  0  0  0
    1.7632    1.4235    0.0000 C   0  0  0  0  0  0  0  0  0  0  0  0
    3.9309    1.0353    0.0000 C   0  0  0  0  0  0  0  0  0  0  0  0
    0.3559    2.2647    0.0000 C   0  0  0  0  0  0  0  0  0  0  0  0
    4.6588    1.4397    0.0000 C   0  0  0  0  0  0  0  0  0  0  0  0
    3.2029    1.4397    0.0000 C   0  0  0  0  0  0  0  0  0  0  0  0
   -3.9470    2.2647    0.0000 C   0  0  0  0  0  0  0  0  0  0  0  0
   -4.6264    1.0353    0.0000 C   0  0  0  0  0  0  0  0  0  0  0  0
    2.4911    0.2103    0.0000 C   0  0  0  0  0  0  0  0  0  0  0  0
   -1.7956    2.6529    0.0000 C   0  0  0  0  0  0  0  0  0  0  0  0
    3.2191   -0.2103    0.0000 C   0  0  0  0  0  0  0  0  0  0  0  0
   -4.6588    2.6691    0.0000 C   0  0  0  0  0  0  0  0  0  0  0  0
   -5.3543    1.4235    0.0000 C   0  0  0  0  0  0  0  0  0  0  0  0
   -1.7794   -1.4559    0.0000 C   0  0  0  0  0  0  0  0  0  0  0  0
    4.6264    2.2647    0.0000 C   0  0  0  0  0  0  0  0  0  0  0  0
    5.3705    1.8279    0.0000 C   0  0  0  0  0  0  0  0  0  0  0  0
   -1.7956   -2.2647    0.0000 C   0  0  0  0  0  0  0  0  0  0  0  0
  1 24  1  0  0  0  0
  2 21  2  0  0  0  0
  3 31  1  0  0  0  0
  3 32  1  0  0  0  0
  4 36  1  0  0  0  0
  5 13  1  0  0  0  0
  5 26  1  0  0  0  0
  5 27  1  0  0  0  0
  6 13  2  0  0  0  0
  6 19  1  0  0  0  0
  7 15  2  0  0  0  0
  7 23  1  0  0  0  0
  8 18  1  0  0  0  0
  8 21  1  0  0  0  0
  9 19  1  0  0  0  0
  9 33  1  0  0  0  0
 10 22  1  0  0  0  0
 10 30  2  0  0  0  0
 11 12  1  0  0  0  0
 11 14  2  0  0  0  0
 11 16  1  0  0  0  0
 12 15  1  0  0  0  0
 12 17  2  0  0  0  0
 13 14  1  0  0  0  0
 15 29  1  0  0  0  0
 16 19  2  0  0  0  0
 17 18  1  0  0  0  0
 18 23  2  0  0  0  0
 20 21  1  0  0  0  0
 20 25  1  0  0  0  0
 20 28  2  0  0  0  0
 22 24  1  0  0  0  0
 22 25  2  0  0  0  0
 24 34  1  0  0  0  0
 24 35  1  0  0  0  0
 26 31  1  0  0  0  0
 27 32  1  0  0  0  0
 28 30  1  0  0  0  0
 33 36  1  0  0  0  0
M  END
> <PUBCHEM_COMPOUND_ID_TYPE>
0

> <PUBCHEM_TOTAL_CHARGE>
0

> <PUBCHEM_SUBSTANCE_ID>
310943404

> <PUBCHEM_SUBSTANCE_VERSION>
1

> <PUBCHEM_EXT_DATASOURCE_NAME>
4488

> <PUBCHEM_EXT_DATASOURCE_REGID>
SCHEMBL16121468

> <PUBCHEM_SUBSTANCE_COMMENT>
InChI=1S/C26H31FN6O3/c1-17-21(19-13-23(29-6-9-34)32-24(14-19)33-7-10-36-11-8-33)15-20(16-30-17)31-25(35)18-4-5-28-22(12-18)26(2,3)27/h4-5,12-16,34H,6-11H2,1-3H3,(H,29,32)(H,31,35)
InChIKey=UKMWTHFEMDICMY-UHFFFAOYSA-N

> <PUBCHEM_SUBSTANCE_SYNONYM>
SCHEMBL16121468

> <PUBCHEM_XREF_EXT_ID>
SCHEMBL16121468

> <PUBCHEM_EXT_DATASOURCE_URL>
https://www.surechembl.org/

> <PUBCHEM_EXT_SUBSTANCE_URL>
https://www.surechembl.org/chemical/SCHEMBL16121468

> <PUBCHEM_CID_ASSOCIATIONS>
117609828  1

> <PUBCHEM_COORDINATE_TYPE>
1
3

$$$$
