310930921
  -OEChem-07211613022D

 29 32  0     0  0  0  0  0  0999 V2000
    6.4522   -2.1727    0.0000 S   0  0  0  0  0  0  0  0  0  0  0  0
    2.2056   -6.4193    0.0000 O   0  0  0  0  0  0  0  0  0  0  0  0
    5.6621   -1.7118    0.0000 O   0  0  0  0  0  0  0  0  0  0  0  0
    7.1106   -2.5677    0.0000 O   0  0  0  0  0  0  0  0  0  0  0  0
    3.9174   -6.4851    0.0000 O   0  0  0  0  0  0  0  0  0  0  0  0
    7.7032   -1.4485    0.0000 N   0  0  0  0  0  0  0  0  0  0  0  0
    3.9174   -5.0367    0.0000 N   0  0  0  0  0  0  0  0  0  0  0  0
    6.8801    0.0000    0.0000 N   0  0  0  0  0  0  0  0  0  0  0  0
    0.0000   -6.1889    0.0000 N   0  0  0  0  0  0  0  0  0  0  0  0
    6.0242   -2.8969    0.0000 C   0  0  0  0  0  0  0  0  0  0  0  0
    6.8801   -1.4485    0.0000 C   0  0  0  0  0  0  0  0  0  0  0  0
    2.6994   -5.7609    0.0000 C   0  0  0  0  0  0  0  0  0  0  0  0
    1.4155   -6.1889    0.0000 C   0  0  0  0  0  0  0  0  0  0  0  0
    1.4155   -5.3330    0.0000 C   0  0  0  0  0  0  0  0  0  0  0  0
    5.2013   -2.8640    0.0000 C   0  0  0  0  0  0  0  0  0  0  0  0
    6.4193   -3.6212    0.0000 C   0  0  0  0  0  0  0  0  0  0  0  0
    2.2056   -5.1025    0.0000 C   0  0  0  0  0  0  0  0  0  0  0  0
    6.4851   -0.7242    0.0000 C   0  0  0  0  0  0  0  0  0  0  0  0
    3.5224   -5.7609    0.0000 C   0  0  0  0  0  0  0  0  0  0  0  0
    5.2013   -4.3124    0.0000 C   0  0  0  0  0  0  0  0  0  0  0  0
    8.0982   -0.7242    0.0000 C   0  0  0  0  0  0  0  0  0  0  0  0
    4.7733   -3.5882    0.0000 C   0  0  0  0  0  0  0  0  0  0  0  0
    6.0242   -4.3124    0.0000 C   0  0  0  0  0  0  0  0  0  0  0  0
    0.6584   -6.5839    0.0000 C   0  0  0  0  0  0  0  0  0  0  0  0
    0.6584   -4.9379    0.0000 C   0  0  0  0  0  0  0  0  0  0  0  0
    4.7733   -5.0367    0.0000 C   0  0  0  0  0  0  0  0  0  0  0  0
    7.7361    0.0000    0.0000 C   0  0  0  0  0  0  0  0  0  0  0  0
    0.0000   -5.3330    0.0000 C   0  0  0  0  0  0  0  0  0  0  0  0
    8.9541   -0.7571    0.0000 C   0  0  0  0  0  0  0  0  0  0  0  0
  1  3  2  0  0  0  0
  1  4  2  0  0  0  0
  1 10  1  0  0  0  0
  1 11  1  0  0  0  0
  2 12  1  0  0  0  0
  2 13  1  0  0  0  0
  5 19  2  0  0  0  0
  6 11  2  0  0  0  0
  6 21  1  0  0  0  0
  7 19  1  0  0  0  0
  7 26  1  0  0  0  0
  8 18  2  0  0  0  0
  8 27  1  0  0  0  0
  9 24  1  0  0  0  0
  9 28  2  0  0  0  0
 10 15  2  0  0  0  0
 10 16  1  0  0  0  0
 11 18  1  0  0  0  0
 12 17  2  0  0  0  0
 12 19  1  0  0  0  0
 13 14  1  0  0  0  0
 13 24  2  0  0  0  0
 14 17  1  0  0  0  0
 14 25  2  0  0  0  0
 15 22  1  0  0  0  0
 16 23  2  0  0  0  0
 20 22  2  0  0  0  0
 20 23  1  0  0  0  0
 20 26  1  0  0  0  0
 21 27  2  0  0  0  0
 21 29  1  0  0  0  0
 25 28  1  0  0  0  0
M  END
> <PUBCHEM_COMPOUND_ID_TYPE>
0

> <PUBCHEM_TOTAL_CHARGE>
0

> <PUBCHEM_SUBSTANCE_ID>
310930921

> <PUBCHEM_SUBSTANCE_VERSION>
1

> <PUBCHEM_EXT_DATASOURCE_NAME>
4488

> <PUBCHEM_EXT_DATASOURCE_REGID>
SCHEMBL16108219

> <PUBCHEM_SUBSTANCE_COMMENT>
InChI=1S/C20H16N4O4S/c1-13-9-22-12-19(24-13)29(26,27)16-4-2-14(3-5-16)10-23-20(25)17-8-15-6-7-21-11-18(15)28-17/h2-9,11-12H,10H2,1H3,(H,23,25)
InChIKey=CIHMJJVTOIYPQG-UHFFFAOYSA-N

> <PUBCHEM_SUBSTANCE_SYNONYM>
SCHEMBL16108219

> <PUBCHEM_XREF_EXT_ID>
SCHEMBL16108219

> <PUBCHEM_EXT_DATASOURCE_URL>
https://www.surechembl.org/

> <PUBCHEM_EXT_SUBSTANCE_URL>
https://www.surechembl.org/chemical/SCHEMBL16108219

> <PUBCHEM_CID_ASSOCIATIONS>
90013313  1

> <PUBCHEM_COORDINATE_TYPE>
1
3

$$$$
