310945704
  -OEChem-07211613022D

 43 47  0     1  0  0  0  0  0999 V2000
    5.4939    0.9768    0.0000 O   0  0  0  0  0  0  0  0  0  0  0  0
    4.3577   -0.9768    0.0000 O   0  0  0  0  0  0  0  0  0  0  0  0
    1.9745    0.9630    0.0000 O   0  0  0  0  0  0  0  0  0  0  0  0
   -2.3486    0.9630    0.0000 O   0  0  0  0  0  0  0  0  0  0  0  0
   -0.1871   -1.1015    0.0000 O   0  0  0  0  0  0  0  0  0  0  0  0
    4.1360   -2.7643    0.0000 O   0  0  0  0  0  0  0  0  0  0  0  0
    2.6950   -0.2702    0.0000 N   0  0  0  0  0  0  0  0  0  0  0  0
    0.5335    0.1455    0.0000 N   0  0  0  0  0  0  0  0  0  0  0  0
   -5.2999   -1.3510    0.0000 N   0  0  0  0  0  0  0  0  0  0  0  0
   -1.6281   -0.2702    0.0000 N   0  0  0  0  0  0  0  0  0  0  0  0
   -5.7849   -0.6858    0.0000 N   0  0  0  0  0  0  0  0  0  0  0  0
    5.0782    0.3117    0.0000 C   0  0  3  0  0  0  0  0  0  0  0  0
    4.3577   -0.1177    0.0000 C   0  0  0  0  0  0  0  0  0  0  0  0
    4.6902    0.9907    0.0000 C   0  0  0  0  0  0  0  0  0  0  0  0
    3.6372    0.2841    0.0000 C   0  0  3  0  0  0  0  0  0  0  0  0
    5.7849   -0.1177    0.0000 C   0  0  0  0  0  0  0  0  0  0  0  0
    3.6372    1.3648    0.0000 C   0  0  0  0  0  0  0  0  0  0  0  0
    1.9745    0.1455    0.0000 C   0  0  0  0  0  0  0  0  0  0  0  0
    1.2678   -0.2425    0.0000 C   0  0  3  0  0  0  0  0  0  0  0  0
    2.9028    1.7805    0.0000 C   0  0  0  0  0  0  0  0  0  0  0  0
   -4.4962   -0.2563    0.0000 C   0  0  0  0  0  0  0  0  0  0  0  0
   -4.5101   -1.0738    0.0000 C   0  0  0  0  0  0  0  0  0  0  0  0
   -3.0552   -0.2425    0.0000 C   0  0  0  0  0  0  0  0  0  0  0  0
   -3.7896    0.1594    0.0000 C   0  0  0  0  0  0  0  0  0  0  0  0
   -2.3486    0.1455    0.0000 C   0  0  0  0  0  0  0  0  0  0  0  0
    1.2540   -1.1015    0.0000 C   0  0  0  0  0  0  0  0  0  0  0  0
   -0.1732   -0.2286    0.0000 C   0  0  0  0  0  0  0  0  0  0  0  0
   -3.7758   -1.4756    0.0000 C   0  0  0  0  0  0  0  0  0  0  0  0
   -3.0552   -1.0738    0.0000 C   0  0  0  0  0  0  0  0  0  0  0  0
   -0.8937    0.1732    0.0000 C   0  0  3  0  0  0  0  0  0  0  0  0
   -5.2860    0.0069    0.0000 C   0  0  0  0  0  0  0  0  0  0  0  0
    2.0022   -1.4895    0.0000 C   0  0  0  0  0  0  0  0  0  0  0  0
    2.1546    1.4480    0.0000 C   0  0  0  0  0  0  0  0  0  0  0  0
    2.8196    2.5980    0.0000 C   0  0  0  0  0  0  0  0  0  0  0  0
    1.6142    2.0576    0.0000 C   0  0  0  0  0  0  0  0  0  0  0  0
    2.0299    2.7643    0.0000 C   0  0  0  0  0  0  0  0  0  0  0  0
    2.0022   -2.3209    0.0000 C   0  0  0  0  0  0  0  0  0  0  0  0
    2.6950   -1.0877    0.0000 C   0  0  0  0  0  0  0  0  0  0  0  0
    3.4293   -2.3070    0.0000 C   0  0  0  0  0  0  0  0  0  0  0  0
   -0.9076    0.9768    0.0000 C   0  0  0  0  0  0  0  0  0  0  0  0
    2.7089   -2.7227    0.0000 C   0  0  0  0  0  0  0  0  0  0  0  0
    3.4293   -1.5034    0.0000 C   0  0  0  0  0  0  0  0  0  0  0  0
    4.8842   -2.3347    0.0000 C   0  0  0  0  0  0  0  0  0  0  0  0
  1 12  1  0  0  0  0
  1 14  1  0  0  0  0
  2 13  2  0  0  0  0
  3 18  2  0  0  0  0
  4 25  2  0  0  0  0
  5 27  2  0  0  0  0
  6 39  1  0  0  0  0
  6 43  1  0  0  0  0
 15  7  1  1  0  0  0
  7 18  1  0  0  0  0
 19  8  1  6  0  0  0
  8 27  1  0  0  0  0
  9 11  1  0  0  0  0
  9 22  1  0  0  0  0
 10 25  1  0  0  0  0
 10 30  1  0  0  0  0
 11 31  2  0  0  0  0
 12 13  1  1  0  0  0
 12 14  1  0  0  0  0
 12 16  1  6  0  0  0
 13 15  1  0  0  0  0
 15 17  1  0  0  0  0
 17 20  1  0  0  0  0
 18 19  1  0  0  0  0
 19 26  1  0  0  0  0
 20 33  1  0  0  0  0
 20 34  1  0  0  0  0
 21 22  1  0  0  0  0
 21 24  2  0  0  0  0
 21 31  1  0  0  0  0
 22 28  2  0  0  0  0
 23 24  1  0  0  0  0
 23 25  1  0  0  0  0
 23 29  2  0  0  0  0
 26 32  1  0  0  0  0
 27 30  1  0  0  0  0
 28 29  1  0  0  0  0
 30 40  1  6  0  0  0
 32 37  2  0  0  0  0
 32 38  1  0  0  0  0
 33 35  1  0  0  0  0
 34 36  1  0  0  0  0
 35 36  1  0  0  0  0
 37 41  1  0  0  0  0
 38 42  2  0  0  0  0
 39 41  2  0  0  0  0
 39 42  1  0  0  0  0
M  END
> <PUBCHEM_COMPOUND_ID_TYPE>
0

> <PUBCHEM_TOTAL_CHARGE>
0

> <PUBCHEM_SUBSTANCE_ID>
310945704

> <PUBCHEM_SUBSTANCE_VERSION>
1

> <PUBCHEM_EXT_DATASOURCE_NAME>
4488

> <PUBCHEM_EXT_DATASOURCE_REGID>
SCHEMBL16123805

> <PUBCHEM_SUBSTANCE_COMMENT>
InChI=1S/C32H39N5O6/c1-19(34-30(40)22-10-13-25-23(16-22)17-33-37-25)29(39)36-27(15-21-8-11-24(42-3)12-9-21)31(41)35-26(14-20-6-4-5-7-20)28(38)32(2)18-43-32/h8-13,16-17,19-20,26-27H,4-7,14-15,18H2,1-3H3,(H,33,37)(H,34,40)(H,35,41)(H,36,39)/t19-,26+,27+,32-/m1/s1
InChIKey=ZRZNKXVJPMAQPW-YRAFSUISSA-N

> <PUBCHEM_SUBSTANCE_SYNONYM>
SCHEMBL16123805

> <PUBCHEM_XREF_EXT_ID>
SCHEMBL16123805

> <PUBCHEM_EXT_DATASOURCE_URL>
https://www.surechembl.org/

> <PUBCHEM_EXT_SUBSTANCE_URL>
https://www.surechembl.org/chemical/SCHEMBL16123805

> <PUBCHEM_CID_ASSOCIATIONS>
117611701  1

> <PUBCHEM_COORDINATE_TYPE>
1
3

> <PUBCHEM_BONDANNOTATIONS>
12  13  5
12  16  6
30  40  6
15  7  5
19  8  6

$$$$
