310941779
  -OEChem-07211613022D

 18 19  0     0  0  0  0  0  0999 V2000
   -3.0319   -1.2444    0.0000 Cl  0  0  0  0  0  0  0  0  0  0  0  0
   -1.3269    1.2444    0.0000 Cl  0  0  0  0  0  0  0  0  0  0  0  0
    0.8319   -0.8181    0.0000 N   0  0  0  0  0  0  0  0  0  0  0  0
    2.2481    0.0344    0.0000 C   0  0  0  0  0  0  0  0  0  0  0  0
   -0.6394   -0.8181    0.0000 C   0  0  0  0  0  0  0  0  0  0  0  0
    0.1169   -1.2306    0.0000 C   0  0  0  0  0  0  0  0  0  0  0  0
    2.2344   -0.8181    0.0000 C   0  0  0  0  0  0  0  0  0  0  0  0
    1.5195    0.4194    0.0000 C   0  0  0  0  0  0  0  0  0  0  0  0
    1.5607   -1.2169    0.0000 C   0  0  0  0  0  0  0  0  0  0  0  0
    0.8319    0.0206    0.0000 C   0  0  0  0  0  0  0  0  0  0  0  0
   -0.6256    0.0068    0.0000 C   0  0  0  0  0  0  0  0  0  0  0  0
   -1.3131   -1.2306    0.0000 C   0  0  0  0  0  0  0  0  0  0  0  0
   -2.0557   -0.8181    0.0000 C   0  0  0  0  0  0  0  0  0  0  0  0
   -1.3269    0.4194    0.0000 C   0  0  0  0  0  0  0  0  0  0  0  0
   -2.0281    0.0068    0.0000 C   0  0  0  0  0  0  0  0  0  0  0  0
    2.9769    0.4331    0.0000 C   0  0  0  0  0  0  0  0  0  0  0  0
    2.2618    0.8594    0.0000 C   0  0  0  0  0  0  0  0  0  0  0  0
    3.0319   -0.1856    0.0000 C   0  0  0  0  0  0  0  0  0  0  0  0
  1 13  1  0  0  0  0
  2 14  1  0  0  0  0
  3  6  1  0  0  0  0
  3  9  1  0  0  0  0
  3 10  1  0  0  0  0
  4  7  1  0  0  0  0
  4  8  1  0  0  0  0
  4 16  1  0  0  0  0
  4 17  1  0  0  0  0
  5  6  1  0  0  0  0
  5 11  2  0  0  0  0
  5 12  1  0  0  0  0
  7  9  1  0  0  0  0
  8 10  1  0  0  0  0
 11 14  1  0  0  0  0
 12 13  2  0  0  0  0
 13 15  1  0  0  0  0
 14 15  2  0  0  0  0
 16 18  1  0  0  0  0
M  END
> <PUBCHEM_COMPOUND_ID_TYPE>
0

> <PUBCHEM_TOTAL_CHARGE>
0

> <PUBCHEM_SUBSTANCE_ID>
310941779

> <PUBCHEM_SUBSTANCE_VERSION>
1

> <PUBCHEM_EXT_DATASOURCE_NAME>
4488

> <PUBCHEM_EXT_DATASOURCE_REGID>
SCHEMBL16119810

> <PUBCHEM_SUBSTANCE_COMMENT>
InChI=1S/C15H21Cl2N/c1-3-15(2)4-6-18(7-5-15)11-12-8-13(16)10-14(17)9-12/h8-10H,3-7,11H2,1-2H3
InChIKey=KFCCGTIDXXALGG-UHFFFAOYSA-N

> <PUBCHEM_SUBSTANCE_SYNONYM>
SCHEMBL16119810

> <PUBCHEM_XREF_EXT_ID>
SCHEMBL16119810

> <PUBCHEM_EXT_DATASOURCE_URL>
https://www.surechembl.org/

> <PUBCHEM_EXT_SUBSTANCE_URL>
https://www.surechembl.org/chemical/SCHEMBL16119810

> <PUBCHEM_CID_ASSOCIATIONS>
117608531  1

> <PUBCHEM_COORDINATE_TYPE>
1
3

> <PUBCHEM_BONDANNOTATIONS>
16  18  3

$$$$
