310947270
  -OEChem-07211613022D

 33 36  0     0  0  0  0  0  0999 V2000
    4.2869   -5.5468    0.0000 O   0  0  0  0  0  0  0  0  0  0  0  0
    3.0494   -6.2612    0.0000 O   0  0  0  0  0  0  0  0  0  0  0  0
   -2.7659   -4.6583    0.0000 O   0  0  0  0  0  0  0  0  0  0  0  0
   -3.4803   -5.8958    0.0000 O   0  0  0  0  0  0  0  0  0  0  0  0
    0.1621   -6.9757    0.0000 N   0  0  0  0  0  0  0  0  0  0  0  0
    0.6469   -6.3083    0.0000 N   0  0  0  0  0  0  0  0  0  0  0  0
   -0.6225   -6.7208    0.0000 C   0  0  0  0  0  0  0  0  0  0  0  0
   -0.6225   -5.8958    0.0000 C   0  0  0  0  0  0  0  0  0  0  0  0
    0.1621   -5.6408    0.0000 C   0  0  0  0  0  0  0  0  0  0  0  0
   -1.3369   -5.4833    0.0000 C   0  0  0  0  0  0  0  0  0  0  0  0
   -1.3369   -7.1332    0.0000 C   0  0  0  0  0  0  0  0  0  0  0  0
   -2.0515   -5.8958    0.0000 C   0  0  0  0  0  0  0  0  0  0  0  0
    0.5745   -7.6902    0.0000 C   0  0  0  0  0  0  0  0  0  0  0  0
    1.3995   -7.6902    0.0000 C   0  0  0  0  0  0  0  0  0  0  0  0
    3.8744   -7.6902    0.0000 C   0  0  0  0  0  0  0  0  0  0  0  0
    3.0494   -7.6902    0.0000 C   0  0  0  0  0  0  0  0  0  0  0  0
   -2.0515   -6.7208    0.0000 C   0  0  0  0  0  0  0  0  0  0  0  0
    4.2869   -6.9757    0.0000 C   0  0  0  0  0  0  0  0  0  0  0  0
   -2.7659   -5.4833    0.0000 C   0  0  0  0  0  0  0  0  0  0  0  0
    1.8120   -8.4045    0.0000 C   0  0  0  0  0  0  0  0  0  0  0  0
    1.8120   -6.9757    0.0000 C   0  0  0  0  0  0  0  0  0  0  0  0
    3.8744   -6.2612    0.0000 C   0  0  0  0  0  0  0  0  0  0  0  0
    2.6370   -8.4045    0.0000 C   0  0  0  0  0  0  0  0  0  0  0  0
    2.6370   -6.9757    0.0000 C   0  0  0  0  0  0  0  0  0  0  0  0
    0.5745   -4.9264    0.0000 C   0  0  0  0  0  0  0  0  0  0  0  0
    4.2869   -8.4045    0.0000 C   0  0  0  0  0  0  0  0  0  0  0  0
    5.1119   -6.9757    0.0000 C   0  0  0  0  0  0  0  0  0  0  0  0
    5.1119   -8.4045    0.0000 C   0  0  0  0  0  0  0  0  0  0  0  0
    3.8744   -4.8324    0.0000 C   0  0  0  0  0  0  0  0  0  0  0  0
    5.5243   -7.6902    0.0000 C   0  0  0  0  0  0  0  0  0  0  0  0
    4.2869   -4.1179    0.0000 C   0  0  0  0  0  0  0  0  0  0  0  0
    3.0494   -4.8324    0.0000 C   0  0  0  0  0  0  0  0  0  0  0  0
    4.6994   -4.8324    0.0000 C   0  0  0  0  0  0  0  0  0  0  0  0
  1 22  1  0  0  0  0
  1 29  1  0  0  0  0
  2 22  2  0  0  0  0
  3 19  2  0  0  0  0
  4 19  1  0  0  0  0
  5  6  1  0  0  0  0
  5  7  1  0  0  0  0
  5 13  1  0  0  0  0
  6  9  2  0  0  0  0
  7  8  1  0  0  0  0
  7 11  2  0  0  0  0
  8  9  1  0  0  0  0
  8 10  2  0  0  0  0
  9 25  1  0  0  0  0
 10 12  1  0  0  0  0
 11 17  1  0  0  0  0
 12 17  2  0  0  0  0
 12 19  1  0  0  0  0
 13 14  1  0  0  0  0
 14 20  2  0  0  0  0
 14 21  1  0  0  0  0
 15 16  1  0  0  0  0
 15 18  1  0  0  0  0
 15 26  2  0  0  0  0
 16 23  2  0  0  0  0
 16 24  1  0  0  0  0
 18 22  1  0  0  0  0
 18 27  2  0  0  0  0
 20 23  1  0  0  0  0
 21 24  2  0  0  0  0
 26 28  1  0  0  0  0
 27 30  1  0  0  0  0
 28 30  2  0  0  0  0
 29 31  1  0  0  0  0
 29 32  1  0  0  0  0
 29 33  1  0  0  0  0
M  END
> <PUBCHEM_COMPOUND_ID_TYPE>
0

> <PUBCHEM_TOTAL_CHARGE>
0

> <PUBCHEM_SUBSTANCE_ID>
310947270

> <PUBCHEM_SUBSTANCE_VERSION>
1

> <PUBCHEM_EXT_DATASOURCE_NAME>
4488

> <PUBCHEM_EXT_DATASOURCE_REGID>
SCHEMBL16125425

> <PUBCHEM_SUBSTANCE_COMMENT>
InChI=1S/C27H26N2O4/c1-17-23-15-20(25(30)31)13-14-24(23)29(28-17)16-18-9-11-19(12-10-18)21-7-5-6-8-22(21)26(32)33-27(2,3)4/h5-15H,16H2,1-4H3,(H,30,31)
InChIKey=LRZOGTANOYOUOO-UHFFFAOYSA-N

> <PUBCHEM_SUBSTANCE_SYNONYM>
SCHEMBL16125425

> <PUBCHEM_XREF_EXT_ID>
SCHEMBL16125425

> <PUBCHEM_EXT_DATASOURCE_URL>
https://www.surechembl.org/

> <PUBCHEM_EXT_SUBSTANCE_URL>
https://www.surechembl.org/chemical/SCHEMBL16125425

> <PUBCHEM_CID_ASSOCIATIONS>
117613073  1

> <PUBCHEM_COORDINATE_TYPE>
1
3

$$$$
