310941141
  -OEChem-07211613022D

 40 43  0     1  0  0  0  0  0999 V2000
    5.1727    0.9780    0.0000 O   0  0  0  0  0  0  0  0  0  0  0  0
    4.0425   -0.9780    0.0000 O   0  0  0  0  0  0  0  0  0  0  0  0
    1.6808    0.9636    0.0000 O   0  0  0  0  0  0  0  0  0  0  0  0
   -0.4782   -1.1085    0.0000 O   0  0  0  0  0  0  0  0  0  0  0  0
   -2.6226    0.9636    0.0000 O   0  0  0  0  0  0  0  0  0  0  0  0
   -5.4770   -0.4709    0.0000 O   0  0  0  0  0  0  0  0  0  0  0  0
    3.8252   -2.7602    0.0000 O   0  0  0  0  0  0  0  0  0  0  0  0
    2.4052   -0.2825    0.0000 N   0  0  0  0  0  0  0  0  0  0  0  0
    0.2463    0.1376    0.0000 N   0  0  0  0  0  0  0  0  0  0  0  0
   -1.8982   -0.2825    0.0000 N   0  0  0  0  0  0  0  0  0  0  0  0
   -4.2309   -1.2823    0.0000 N   0  0  0  0  0  0  0  0  0  0  0  0
    4.7525    0.2971    0.0000 C   0  0  3  0  0  0  0  0  0  0  0  0
    4.0425   -0.1232    0.0000 C   0  0  0  0  0  0  0  0  0  0  0  0
    4.3758    0.9925    0.0000 C   0  0  0  0  0  0  0  0  0  0  0  0
    3.3326    0.2825    0.0000 C   0  0  3  0  0  0  0  0  0  0  0  0
    5.4770   -0.1232    0.0000 C   0  0  0  0  0  0  0  0  0  0  0  0
    3.3326    1.3548    0.0000 C   0  0  0  0  0  0  0  0  0  0  0  0
    1.6663    0.1376    0.0000 C   0  0  0  0  0  0  0  0  0  0  0  0
    0.9853   -0.2391    0.0000 C   0  0  3  0  0  0  0  0  0  0  0  0
    2.6081    1.7895    0.0000 C   0  0  0  0  0  0  0  0  0  0  0  0
    0.9563   -1.1085    0.0000 C   0  0  0  0  0  0  0  0  0  0  0  0
   -0.4637   -0.2246    0.0000 C   0  0  0  0  0  0  0  0  0  0  0  0
    1.6952   -1.4852    0.0000 C   0  0  0  0  0  0  0  0  0  0  0  0
   -1.2171    0.1522    0.0000 C   0  0  3  0  0  0  0  0  0  0  0  0
    1.8547    1.4562    0.0000 C   0  0  0  0  0  0  0  0  0  0  0  0
    2.5212    2.6009    0.0000 C   0  0  0  0  0  0  0  0  0  0  0  0
   -3.3326   -0.2536    0.0000 C   0  0  3  0  0  0  0  0  0  0  0  0
   -2.6081    0.1522    0.0000 C   0  0  0  0  0  0  0  0  0  0  0  0
   -4.0860    0.0797    0.0000 C   0  0  0  0  0  0  0  0  0  0  0  0
    1.3185    2.0648    0.0000 C   0  0  0  0  0  0  0  0  0  0  0  0
    1.7242    2.7602    0.0000 C   0  0  0  0  0  0  0  0  0  0  0  0
   -4.6221   -0.5289    0.0000 C   0  0  0  0  0  0  0  0  0  0  0  0
   -3.4340   -1.0795    0.0000 C   0  0  0  0  0  0  0  0  0  0  0  0
    1.6952   -2.3255    0.0000 C   0  0  0  0  0  0  0  0  0  0  0  0
    2.3908   -1.0939    0.0000 C   0  0  0  0  0  0  0  0  0  0  0  0
    3.1152   -2.3111    0.0000 C   0  0  0  0  0  0  0  0  0  0  0  0
    2.4052   -2.7313    0.0000 C   0  0  0  0  0  0  0  0  0  0  0  0
    3.1152   -1.4997    0.0000 C   0  0  0  0  0  0  0  0  0  0  0  0
   -1.1882    0.9780    0.0000 C   0  0  0  0  0  0  0  0  0  0  0  0
    4.5641   -2.3255    0.0000 C   0  0  0  0  0  0  0  0  0  0  0  0
  1 12  1  0  0  0  0
  1 14  1  0  0  0  0
  2 13  2  0  0  0  0
  3 18  2  0  0  0  0
  4 22  2  0  0  0  0
  5 28  2  0  0  0  0
  6 32  2  0  0  0  0
  7 36  1  0  0  0  0
  7 40  1  0  0  0  0
 15  8  1  1  0  0  0
  8 18  1  0  0  0  0
 19  9  1  6  0  0  0
  9 22  1  0  0  0  0
 10 24  1  0  0  0  0
 10 28  1  0  0  0  0
 11 32  1  0  0  0  0
 11 33  1  0  0  0  0
 12 13  1  1  0  0  0
 12 14  1  0  0  0  0
 12 16  1  6  0  0  0
 13 15  1  0  0  0  0
 15 17  1  0  0  0  0
 17 20  1  0  0  0  0
 18 19  1  0  0  0  0
 19 21  1  0  0  0  0
 20 25  1  0  0  0  0
 20 26  1  0  0  0  0
 21 23  1  0  0  0  0
 22 24  1  0  0  0  0
 23 34  2  0  0  0  0
 23 35  1  0  0  0  0
 24 39  1  6  0  0  0
 25 30  1  0  0  0  0
 26 31  1  0  0  0  0
 27 28  1  1  0  0  0
 27 29  1  0  0  0  0
 27 33  1  0  0  0  0
 29 32  1  0  0  0  0
 30 31  1  0  0  0  0
 34 37  1  0  0  0  0
 35 38  2  0  0  0  0
 36 37  2  0  0  0  0
 36 38  1  0  0  0  0
M  END
> <PUBCHEM_COMPOUND_ID_TYPE>
0

> <PUBCHEM_TOTAL_CHARGE>
0

> <PUBCHEM_SUBSTANCE_ID>
310941141

> <PUBCHEM_SUBSTANCE_VERSION>
1

> <PUBCHEM_EXT_DATASOURCE_NAME>
4488

> <PUBCHEM_EXT_DATASOURCE_REGID>
SCHEMBL16119101

> <PUBCHEM_SUBSTANCE_COMMENT>
InChI=1S/C29H40N4O7/c1-17(31-27(37)20-14-24(34)30-15-20)26(36)33-23(13-19-8-10-21(39-3)11-9-19)28(38)32-22(12-18-6-4-5-7-18)25(35)29(2)16-40-29/h8-11,17-18,20,22-23H,4-7,12-16H2,1-3H3,(H,30,34)(H,31,37)(H,32,38)(H,33,36)/t17-,20-,22+,23+,29-/m1/s1
InChIKey=WEOUCKRTUSZUMJ-GIEZAXBTSA-N

> <PUBCHEM_SUBSTANCE_SYNONYM>
SCHEMBL16119101

> <PUBCHEM_XREF_EXT_ID>
SCHEMBL16119101

> <PUBCHEM_EXT_DATASOURCE_URL>
https://www.surechembl.org/

> <PUBCHEM_EXT_SUBSTANCE_URL>
https://www.surechembl.org/chemical/SCHEMBL16119101

> <PUBCHEM_CID_ASSOCIATIONS>
117608023  1

> <PUBCHEM_COORDINATE_TYPE>
1
3

> <PUBCHEM_BONDANNOTATIONS>
12  13  5
12  16  6
24  39  6
27  28  5
15  8  5
19  9  6

$$$$
