310935320
  -OEChem-07211613022D

 25 27  0     0  0  0  0  0  0999 V2000
    2.0848   -3.3258    0.0000 F   0  0  0  0  0  0  0  0  0  0  0  0
    7.4458   -1.6629    0.0000 F   0  0  0  0  0  0  0  0  0  0  0  0
    3.6236   -1.0176    0.0000 O   0  0  0  0  0  0  0  0  0  0  0  0
    0.6949   -2.5067    0.0000 O   0  0  0  0  0  0  0  0  0  0  0  0
    3.3258   -3.7477    0.0000 O   0  0  0  0  0  0  0  0  0  0  0  0
    0.0000   -1.2410    0.0000 O   0  5  0  0  0  0  0  0  0  0  0  0
    0.7197    0.0000    0.0000 O   0  0  0  0  0  0  0  0  0  0  0  0
    0.6949   -0.8191    0.0000 N   0  3  0  0  0  0  0  0  0  0  0  0
    4.6909   -3.3010    0.0000 N   0  0  0  0  0  0  0  0  0  0  0  0
    2.8294   -2.1097    0.0000 C   0  0  0  0  0  0  0  0  0  0  0  0
    3.6236   -2.3331    0.0000 C   0  0  0  0  0  0  0  0  0  0  0  0
    2.8294   -1.2410    0.0000 C   0  0  0  0  0  0  0  0  0  0  0  0
    4.1200   -1.6629    0.0000 C   0  0  0  0  0  0  0  0  0  0  0  0
    2.1097   -2.5067    0.0000 C   0  0  0  0  0  0  0  0  0  0  0  0
    1.4147   -2.1097    0.0000 C   0  0  0  0  0  0  0  0  0  0  0  0
    1.4147   -1.2410    0.0000 C   0  0  0  0  0  0  0  0  0  0  0  0
    2.1097   -0.8439    0.0000 C   0  0  0  0  0  0  0  0  0  0  0  0
    4.9390   -1.6629    0.0000 C   0  0  0  0  0  0  0  0  0  0  0  0
    3.8719   -3.1272    0.0000 C   0  0  0  0  0  0  0  0  0  0  0  0
    5.3610   -0.9431    0.0000 C   0  0  0  0  0  0  0  0  0  0  0  0
    5.3610   -2.3827    0.0000 C   0  0  0  0  0  0  0  0  0  0  0  0
    6.1800   -0.9431    0.0000 C   0  0  0  0  0  0  0  0  0  0  0  0
    6.1800   -2.3827    0.0000 C   0  0  0  0  0  0  0  0  0  0  0  0
    6.6020   -1.6629    0.0000 C   0  0  0  0  0  0  0  0  0  0  0  0
    4.9390   -4.0704    0.0000 C   0  0  0  0  0  0  0  0  0  0  0  0
  1 14  1  0  0  0  0
  2 24  1  0  0  0  0
  3 12  1  0  0  0  0
  3 13  1  0  0  0  0
  4 15  1  0  0  0  0
  5 19  2  0  0  0  0
  6  8  1  0  0  0  0
  7  8  2  0  0  0  0
  8 16  1  0  0  0  0
  9 19  1  0  0  0  0
  9 25  1  0  0  0  0
 10 11  1  0  0  0  0
 10 12  2  0  0  0  0
 10 14  1  0  0  0  0
 11 13  2  0  0  0  0
 11 19  1  0  0  0  0
 12 17  1  0  0  0  0
 13 18  1  0  0  0  0
 14 15  2  0  0  0  0
 15 16  1  0  0  0  0
 16 17  2  0  0  0  0
 18 20  2  0  0  0  0
 18 21  1  0  0  0  0
 20 22  1  0  0  0  0
 21 23  2  0  0  0  0
 22 24  2  0  0  0  0
 23 24  1  0  0  0  0
M  CHG  2   6  -1   8   1
M  END
> <PUBCHEM_COMPOUND_ID_TYPE>
0

> <PUBCHEM_TOTAL_CHARGE>
0

> <PUBCHEM_SUBSTANCE_ID>
310935320

> <PUBCHEM_SUBSTANCE_VERSION>
1

> <PUBCHEM_EXT_DATASOURCE_NAME>
4488

> <PUBCHEM_EXT_DATASOURCE_REGID>
SCHEMBL16112854

> <PUBCHEM_SUBSTANCE_COMMENT>
InChI=1S/C16H10F2N2O5/c1-19-16(22)12-11-10(6-9(20(23)24)14(21)13(11)18)25-15(12)7-2-4-8(17)5-3-7/h2-6,21H,1H3,(H,19,22)
InChIKey=DOMXRMNWCJRWEJ-UHFFFAOYSA-N

> <PUBCHEM_SUBSTANCE_SYNONYM>
SCHEMBL16112854

> <PUBCHEM_XREF_EXT_ID>
SCHEMBL16112854

> <PUBCHEM_EXT_DATASOURCE_URL>
https://www.surechembl.org/

> <PUBCHEM_EXT_SUBSTANCE_URL>
https://www.surechembl.org/chemical/SCHEMBL16112854

> <PUBCHEM_CID_ASSOCIATIONS>
117603378  1

> <PUBCHEM_COORDINATE_TYPE>
1
3

$$$$
