310946841
  -OEChem-07211613022D

 21 23  0     1  0  0  0  0  0999 V2000
    3.1354   -0.7528    0.0000 O   0  0  0  0  0  0  0  0  0  0  0  0
    3.0630   -2.1347    0.0000 O   0  0  0  0  0  0  0  0  0  0  0  0
   -0.2775    0.8972    0.0000 O   0  0  0  0  0  0  0  0  0  0  0  0
   -2.4209    2.1347    0.0000 O   0  0  0  0  0  0  0  0  0  0  0  0
   -1.7065    0.0722    0.0000 N   0  0  3  0  0  0  0  0  0  0  0  0
   -3.1354    0.8972    0.0000 N   0  0  0  0  0  0  0  0  0  0  0  0
    1.8659   -0.3403    0.0000 C   0  0  0  0  0  0  0  0  0  0  0  0
    1.8659   -1.1653    0.0000 C   0  0  0  0  0  0  0  0  0  0  0  0
    1.1514    0.0722    0.0000 C   0  0  0  0  0  0  0  0  0  0  0  0
    0.4369   -0.3403    0.0000 C   0  0  0  0  0  0  0  0  0  0  0  0
    2.6505   -1.4202    0.0000 C   0  0  0  0  0  0  0  0  0  0  0  0
   -0.2775    0.0722    0.0000 C   0  0  3  0  0  0  0  0  0  0  0  0
    1.1514   -1.5778    0.0000 C   0  0  0  0  0  0  0  0  0  0  0  0
    2.6505   -0.0854    0.0000 C   0  0  0  0  0  0  0  0  0  0  0  0
    0.4369   -1.1653    0.0000 C   0  0  0  0  0  0  0  0  0  0  0  0
   -0.9920   -0.3403    0.0000 C   0  0  0  0  0  0  0  0  0  0  0  0
    1.1514    0.8972    0.0000 C   0  0  0  0  0  0  0  0  0  0  0  0
   -1.7065    0.8972    0.0000 C   0  0  0  0  0  0  0  0  0  0  0  0
   -2.4209   -0.3403    0.0000 C   0  0  0  0  0  0  0  0  0  0  0  0
   -2.4209    1.3097    0.0000 C   0  0  0  0  0  0  0  0  0  0  0  0
   -3.1354    0.0722    0.0000 C   0  0  0  0  0  0  0  0  0  0  0  0
  1 11  1  0  0  0  0
  1 14  1  0  0  0  0
  2 11  2  0  0  0  0
 12  3  1  6  0  0  0
  4 20  2  0  0  0  0
  5 16  1  0  0  0  0
  5 18  1  0  0  0  0
  5 19  1  0  0  0  0
  6 20  1  0  0  0  0
  6 21  1  0  0  0  0
  7  8  1  0  0  0  0
  7  9  2  0  0  0  0
  7 14  1  0  0  0  0
  8 11  1  0  0  0  0
  8 13  2  0  0  0  0
  9 10  1  0  0  0  0
  9 17  1  0  0  0  0
 10 12  1  0  0  0  0
 10 15  2  0  0  0  0
 12 16  1  0  0  0  0
 13 15  1  0  0  0  0
 18 20  1  0  0  0  0
 19 21  1  0  0  0  0
M  END
> <PUBCHEM_COMPOUND_ID_TYPE>
0

> <PUBCHEM_TOTAL_CHARGE>
0

> <PUBCHEM_SUBSTANCE_ID>
310946841

> <PUBCHEM_SUBSTANCE_VERSION>
1

> <PUBCHEM_EXT_DATASOURCE_NAME>
4488

> <PUBCHEM_EXT_DATASOURCE_REGID>
SCHEMBL16124965

> <PUBCHEM_SUBSTANCE_COMMENT>
InChI=1S/C15H18N2O4/c1-9-10(2-3-11-12(9)8-21-15(11)20)13(18)6-17-5-4-16-14(19)7-17/h2-3,13,18H,4-8H2,1H3,(H,16,19)/t13-/m0/s1
InChIKey=RRHCGYVEIFUUNO-ZDUSSCGKSA-N

> <PUBCHEM_SUBSTANCE_SYNONYM>
SCHEMBL16124965

> <PUBCHEM_XREF_EXT_ID>
SCHEMBL16124965

> <PUBCHEM_EXT_DATASOURCE_URL>
https://www.surechembl.org/

> <PUBCHEM_EXT_SUBSTANCE_URL>
https://www.surechembl.org/chemical/SCHEMBL16124965

> <PUBCHEM_CID_ASSOCIATIONS>
117612700  1

> <PUBCHEM_COORDINATE_TYPE>
1
3

> <PUBCHEM_BONDANNOTATIONS>
12  3  6

$$$$
