310949054
  -OEChem-07211613022D

 49 57  0     0  0  0  0  0  0999 V2000
   -0.6884   -0.1667    0.0000 N   0  0  0  0  0  0  0  0  0  0  0  0
    0.7609    2.3262    0.0000 N   0  0  0  0  0  0  0  0  0  0  0  0
   -1.3696    1.8625    0.0000 N   0  0  0  0  0  0  0  0  0  0  0  0
    2.9204    1.8335    0.0000 N   0  0  0  0  0  0  0  0  0  0  0  0
   -0.8189   -0.9783    0.0000 C   0  0  0  0  0  0  0  0  0  0  0  0
   -1.6160   -1.1523    0.0000 C   0  0  0  0  0  0  0  0  0  0  0  0
   -1.3261   -2.5726    0.0000 C   0  0  0  0  0  0  0  0  0  0  0  0
   -0.5145   -2.3987    0.0000 C   0  0  0  0  0  0  0  0  0  0  0  0
   -1.4276   -3.3988    0.0000 C   0  0  0  0  0  0  0  0  0  0  0  0
    0.7609    1.5001    0.0000 C   0  0  0  0  0  0  0  0  0  0  0  0
   -1.4856    0.1812    0.0000 C   0  0  0  0  0  0  0  0  0  0  0  0
    0.0217    0.2682    0.0000 C   0  0  0  0  0  0  0  0  0  0  0  0
   -2.0218   -0.4420    0.0000 C   0  0  0  0  0  0  0  0  0  0  0  0
    1.4131    2.8625    0.0000 C   0  0  0  0  0  0  0  0  0  0  0  0
    0.0652    2.8335    0.0000 C   0  0  0  0  0  0  0  0  0  0  0  0
    0.0217    1.0943    0.0000 C   0  0  0  0  0  0  0  0  0  0  0  0
   -0.0942   -3.1379    0.0000 C   0  0  0  0  0  0  0  0  0  0  0  0
   -0.6450   -3.7176    0.0000 C   0  0  0  0  0  0  0  0  0  0  0  0
    0.3116    3.6161    0.0000 C   0  0  0  0  0  0  0  0  0  0  0  0
    1.1523    3.6161    0.0000 C   0  0  0  0  0  0  0  0  0  0  0  0
   -0.2537   -1.6015    0.0000 C   0  0  0  0  0  0  0  0  0  0  0  0
   -1.8625   -1.9494    0.0000 C   0  0  0  0  0  0  0  0  0  0  0  0
    1.4711    1.1088    0.0000 C   0  0  0  0  0  0  0  0  0  0  0  0
   -0.7464    2.6596    0.0000 C   0  0  0  0  0  0  0  0  0  0  0  0
    2.2393    2.6596    0.0000 C   0  0  0  0  0  0  0  0  0  0  0  0
    0.7754   -0.1377    0.0000 C   0  0  0  0  0  0  0  0  0  0  0  0
   -1.7320    0.9638    0.0000 C   0  0  0  0  0  0  0  0  0  0  0  0
   -2.8045   -0.2682    0.0000 C   0  0  0  0  0  0  0  0  0  0  0  0
   -0.2537    4.2104    0.0000 C   0  0  0  0  0  0  0  0  0  0  0  0
    1.7465    4.2249    0.0000 C   0  0  0  0  0  0  0  0  0  0  0  0
    1.4711    0.2827    0.0000 C   0  0  0  0  0  0  0  0  0  0  0  0
    0.7174   -3.3118    0.0000 C   0  0  0  0  0  0  0  0  0  0  0  0
   -0.3840   -4.5292    0.0000 C   0  0  0  0  0  0  0  0  0  0  0  0
   -0.6739    1.4856    0.0000 C   0  0  0  0  0  0  0  0  0  0  0  0
   -1.6160   -4.1959    0.0000 C   0  0  0  0  0  0  0  0  0  0  0  0
   -2.1378   -2.9929    0.0000 C   0  0  0  0  0  0  0  0  0  0  0  0
   -1.0508    4.0510    0.0000 C   0  0  0  0  0  0  0  0  0  0  0  0
    2.5147    4.0510    0.0000 C   0  0  0  0  0  0  0  0  0  0  0  0
   -1.2972    3.2538    0.0000 C   0  0  0  0  0  0  0  0  0  0  0  0
    2.7755    3.2683    0.0000 C   0  0  0  0  0  0  0  0  0  0  0  0
    2.1958    1.4856    0.0000 C   0  0  0  0  0  0  0  0  0  0  0  0
   -2.5581    1.1233    0.0000 C   0  0  0  0  0  0  0  0  0  0  0  0
   -3.0799    0.5580    0.0000 C   0  0  0  0  0  0  0  0  0  0  0  0
    0.9783   -4.0945    0.0000 C   0  0  0  0  0  0  0  0  0  0  0  0
    0.4130   -4.6887    0.0000 C   0  0  0  0  0  0  0  0  0  0  0  0
   -1.3406    2.0653    0.0000 C   0  0  0  0  0  0  0  0  0  0  0  0
    2.8480    2.0653    0.0000 C   0  0  0  0  0  0  0  0  0  0  0  0
   -1.6305    4.6597    0.0000 C   0  0  0  0  0  0  0  0  0  0  0  0
    3.0799    4.6887    0.0000 C   0  0  0  0  0  0  0  0  0  0  0  0
  1  5  1  0  0  0  0
  1 11  1  0  0  0  0
  1 12  1  0  0  0  0
  2 10  1  0  0  0  0
  2 14  1  0  0  0  0
  2 15  1  0  0  0  0
  3 34  3  0  0  0  0
  4 41  3  0  0  0  0
  5  6  2  0  0  0  0
  5 21  1  0  0  0  0
  6 13  1  0  0  0  0
  6 22  1  0  0  0  0
  7  8  1  0  0  0  0
  7  9  1  0  0  0  0
  7 22  2  0  0  0  0
  8 17  1  0  0  0  0
  8 21  2  0  0  0  0
  9 18  1  0  0  0  0
  9 35  1  0  0  0  0
  9 36  1  0  0  0  0
 10 16  1  0  0  0  0
 10 23  2  0  0  0  0
 11 13  2  0  0  0  0
 11 27  1  0  0  0  0
 12 16  2  0  0  0  0
 12 26  1  0  0  0  0
 13 28  1  0  0  0  0
 14 20  2  0  0  0  0
 14 25  1  0  0  0  0
 15 19  2  0  0  0  0
 15 24  1  0  0  0  0
 16 34  1  0  0  0  0
 17 18  2  0  0  0  0
 17 32  1  0  0  0  0
 18 33  1  0  0  0  0
 19 20  1  0  0  0  0
 19 29  1  0  0  0  0
 20 30  1  0  0  0  0
 23 31  1  0  0  0  0
 23 41  1  0  0  0  0
 24 39  2  0  0  0  0
 24 46  1  0  0  0  0
 25 40  2  0  0  0  0
 25 47  1  0  0  0  0
 26 31  2  0  0  0  0
 27 42  2  0  0  0  0
 28 43  2  0  0  0  0
 29 37  2  0  0  0  0
 30 38  2  0  0  0  0
 32 44  2  0  0  0  0
 33 45  2  0  0  0  0
 37 39  1  0  0  0  0
 37 48  1  0  0  0  0
 38 40  1  0  0  0  0
 38 49  1  0  0  0  0
 42 43  1  0  0  0  0
 44 45  1  0  0  0  0
M  END
> <PUBCHEM_COMPOUND_ID_TYPE>
0

> <PUBCHEM_TOTAL_CHARGE>
0

> <PUBCHEM_SUBSTANCE_ID>
310949054

> <PUBCHEM_SUBSTANCE_VERSION>
1

> <PUBCHEM_EXT_DATASOURCE_NAME>
4488

> <PUBCHEM_EXT_DATASOURCE_REGID>
SCHEMBL16127244

> <PUBCHEM_SUBSTANCE_COMMENT>
InChI=1S/C45H34N4/c1-25-17-27(3)42-34(19-25)35-20-26(2)18-28(4)43(35)49(42)44-29(23-46)15-16-40(36(44)24-47)48-39-14-10-8-12-31(39)33-21-38-32(22-41(33)48)30-11-7-9-13-37(30)45(38,5)6/h7-22H,1-6H3
InChIKey=BXACUAMZHPLQAG-UHFFFAOYSA-N

> <PUBCHEM_SUBSTANCE_SYNONYM>
SCHEMBL16127244

> <PUBCHEM_XREF_EXT_ID>
SCHEMBL16127244

> <PUBCHEM_EXT_DATASOURCE_URL>
https://www.surechembl.org/

> <PUBCHEM_EXT_SUBSTANCE_URL>
https://www.surechembl.org/chemical/SCHEMBL16127244

> <PUBCHEM_CID_ASSOCIATIONS>
117614559  1

> <PUBCHEM_COORDINATE_TYPE>
1
3

$$$$
