310944629
  -OEChem-07211613022D

 36 41  0     0  0  0  0  0  0999 V2000
    0.8041    4.6635    0.0000 F   0  0  0  0  0  0  0  0  0  0  0  0
   -0.5539   -0.4824    0.0000 N   0  0  0  0  0  0  0  0  0  0  0  0
    2.9840    4.1811    0.0000 N   0  0  0  0  0  0  0  0  0  0  0  0
   -1.3759    4.1811    0.0000 N   0  0  0  0  0  0  0  0  0  0  0  0
    0.0715    0.1072    0.0000 C   0  0  0  0  0  0  0  0  0  0  0  0
    0.8041   -0.3038    0.0000 C   0  0  0  0  0  0  0  0  0  0  0  0
    0.6075   -1.1257    0.0000 C   0  0  0  0  0  0  0  0  0  0  0  0
   -0.2144   -1.2328    0.0000 C   0  0  0  0  0  0  0  0  0  0  0  0
   -1.3937   -0.2859    0.0000 C   0  0  0  0  0  0  0  0  0  0  0  0
    0.1072    0.9291    0.0000 C   0  0  0  0  0  0  0  0  0  0  0  0
    0.7862    1.3401    0.0000 C   0  0  0  0  0  0  0  0  0  0  0  0
    1.1078   -1.8404    0.0000 C   0  0  0  0  0  0  0  0  0  0  0  0
    1.5366    0.1251    0.0000 C   0  0  0  0  0  0  0  0  0  0  0  0
   -0.5360   -2.0012    0.0000 C   0  0  0  0  0  0  0  0  0  0  0  0
    0.7683   -2.5909    0.0000 C   0  0  0  0  0  0  0  0  0  0  0  0
    1.5366    0.9291    0.0000 C   0  0  0  0  0  0  0  0  0  0  0  0
    0.8041    2.1799    0.0000 C   0  0  0  0  0  0  0  0  0  0  0  0
   -0.0536   -2.6623    0.0000 C   0  0  0  0  0  0  0  0  0  0  0  0
   -1.6439    0.4824    0.0000 C   0  0  0  0  0  0  0  0  0  0  0  0
   -1.9119   -0.9113    0.0000 C   0  0  0  0  0  0  0  0  0  0  0  0
    1.3044   -3.2698    0.0000 C   0  0  0  0  0  0  0  0  0  0  0  0
    1.5188    2.5909    0.0000 C   0  0  0  0  0  0  0  0  0  0  0  0
    0.0893    2.5909    0.0000 C   0  0  0  0  0  0  0  0  0  0  0  0
    1.5366    3.4306    0.0000 C   0  0  0  0  0  0  0  0  0  0  0  0
    0.0893    3.4306    0.0000 C   0  0  0  0  0  0  0  0  0  0  0  0
    0.7862    3.8416    0.0000 C   0  0  0  0  0  0  0  0  0  0  0  0
   -2.4479    0.6433    0.0000 C   0  0  0  0  0  0  0  0  0  0  0  0
   -2.7338   -0.7326    0.0000 C   0  0  0  0  0  0  0  0  0  0  0  0
    0.9470   -4.0024    0.0000 C   0  0  0  0  0  0  0  0  0  0  0  0
    2.1263   -3.1805    0.0000 C   0  0  0  0  0  0  0  0  0  0  0  0
   -2.9840    0.0536    0.0000 C   0  0  0  0  0  0  0  0  0  0  0  0
    2.2514    3.8237    0.0000 C   0  0  0  0  0  0  0  0  0  0  0  0
   -0.6611    3.8237    0.0000 C   0  0  0  0  0  0  0  0  0  0  0  0
    1.4473   -4.6635    0.0000 C   0  0  0  0  0  0  0  0  0  0  0  0
    2.6087   -3.8416    0.0000 C   0  0  0  0  0  0  0  0  0  0  0  0
    2.2692   -4.5921    0.0000 C   0  0  0  0  0  0  0  0  0  0  0  0
  1 26  1  0  0  0  0
  2  5  1  0  0  0  0
  2  8  1  0  0  0  0
  2  9  1  0  0  0  0
  3 32  3  0  0  0  0
  4 33  3  0  0  0  0
  5  6  2  0  0  0  0
  5 10  1  0  0  0  0
  6  7  1  0  0  0  0
  6 13  1  0  0  0  0
  7  8  2  0  0  0  0
  7 12  1  0  0  0  0
  8 14  1  0  0  0  0
  9 19  2  0  0  0  0
  9 20  1  0  0  0  0
 10 11  2  0  0  0  0
 11 16  1  0  0  0  0
 11 17  1  0  0  0  0
 12 15  2  0  0  0  0
 13 16  2  0  0  0  0
 14 18  2  0  0  0  0
 15 18  1  0  0  0  0
 15 21  1  0  0  0  0
 17 22  2  0  0  0  0
 17 23  1  0  0  0  0
 19 27  1  0  0  0  0
 20 28  2  0  0  0  0
 21 29  2  0  0  0  0
 21 30  1  0  0  0  0
 22 24  1  0  0  0  0
 23 25  2  0  0  0  0
 24 26  2  0  0  0  0
 24 32  1  0  0  0  0
 25 26  1  0  0  0  0
 25 33  1  0  0  0  0
 27 31  2  0  0  0  0
 28 31  1  0  0  0  0
 29 34  1  0  0  0  0
 30 35  2  0  0  0  0
 34 36  2  0  0  0  0
 35 36  1  0  0  0  0
M  END
> <PUBCHEM_COMPOUND_ID_TYPE>
0

> <PUBCHEM_TOTAL_CHARGE>
0

> <PUBCHEM_SUBSTANCE_ID>
310944629

> <PUBCHEM_SUBSTANCE_VERSION>
1

> <PUBCHEM_EXT_DATASOURCE_NAME>
4488

> <PUBCHEM_EXT_DATASOURCE_REGID>
SCHEMBL16122707

> <PUBCHEM_SUBSTANCE_COMMENT>
InChI=1S/C32H18FN3/c33-32-25(19-34)15-24(16-26(32)20-35)23-11-13-28-29-17-22(21-7-3-1-4-8-21)12-14-30(29)36(31(28)18-23)27-9-5-2-6-10-27/h1-18H
InChIKey=DNODTPIUVSDSSL-UHFFFAOYSA-N

> <PUBCHEM_SUBSTANCE_SYNONYM>
SCHEMBL16122707

> <PUBCHEM_XREF_EXT_ID>
SCHEMBL16122707

> <PUBCHEM_EXT_DATASOURCE_URL>
https://www.surechembl.org/

> <PUBCHEM_EXT_SUBSTANCE_URL>
https://www.surechembl.org/chemical/SCHEMBL16122707

> <PUBCHEM_CID_ASSOCIATIONS>
117610859  1

> <PUBCHEM_COORDINATE_TYPE>
1
3

$$$$
