310941759
  -OEChem-07211613022D

 35 39  0     0  0  0  0  0  0999 V2000
   -2.4176    1.1627    0.0000 S   0  0  0  0  0  0  0  0  0  0  0  0
   -0.9004   -1.3470    0.0000 O   0  0  0  0  0  0  0  0  0  0  0  0
   -0.1772    2.4105    0.0000 O   0  0  0  0  0  0  0  0  0  0  0  0
    1.2691    0.7515    0.0000 O   0  0  0  0  0  0  0  0  0  0  0  0
   -1.6093    2.4247    0.0000 N   0  0  0  0  0  0  0  0  0  0  0  0
    0.5601   -0.4963    0.0000 N   0  0  0  0  0  0  0  0  0  0  0  0
   -3.0982    2.3538    0.0000 N   0  0  0  0  0  0  0  0  0  0  0  0
   -3.6512    1.7299    0.0000 N   0  0  0  0  0  0  0  0  0  0  0  0
    2.7296   -0.0567    0.0000 N   0  0  0  0  0  0  0  0  0  0  0  0
    4.1759    0.7940    0.0000 N   0  0  0  0  0  0  0  0  0  0  0  0
   -0.1772   -0.0567    0.0000 C   0  0  0  0  0  0  0  0  0  0  0  0
   -0.8721   -0.4538    0.0000 C   0  0  0  0  0  0  0  0  0  0  0  0
   -0.8862    1.1910    0.0000 C   0  0  0  0  0  0  0  0  0  0  0  0
   -0.1630    0.7798    0.0000 C   0  0  0  0  0  0  0  0  0  0  0  0
   -0.9004    2.0276    0.0000 C   0  0  0  0  0  0  0  0  0  0  0  0
   -2.3184    2.0276    0.0000 C   0  0  0  0  0  0  0  0  0  0  0  0
   -3.2258    1.0351    0.0000 C   0  0  0  0  0  0  0  0  0  0  0  0
   -1.5952   -0.0567    0.0000 C   0  0  0  0  0  0  0  0  0  0  0  0
   -1.5952    0.7798    0.0000 C   0  0  0  0  0  0  0  0  0  0  0  0
   -1.6235   -1.7441    0.0000 C   0  0  0  0  0  0  0  0  0  0  0  0
   -3.6512    0.2836    0.0000 C   0  0  0  0  0  0  0  0  0  0  0  0
    1.2691   -0.0709    0.0000 C   0  0  0  0  0  0  0  0  0  0  0  0
   -2.4176   -1.7441    0.0000 C   0  0  0  0  0  0  0  0  0  0  0  0
   -2.0064   -2.4247    0.0000 C   0  0  0  0  0  0  0  0  0  0  0  0
   -3.2400   -0.4538    0.0000 C   0  0  0  0  0  0  0  0  0  0  0  0
   -4.4878    0.2836    0.0000 C   0  0  0  0  0  0  0  0  0  0  0  0
    2.0347   -0.4538    0.0000 C   0  0  0  0  0  0  0  0  0  0  0  0
   -3.6512   -1.1344    0.0000 C   0  0  0  0  0  0  0  0  0  0  0  0
   -4.8848   -0.4254    0.0000 C   0  0  0  0  0  0  0  0  0  0  0  0
    3.4810   -0.4538    0.0000 C   0  0  0  0  0  0  0  0  0  0  0  0
    2.7437    0.7940    0.0000 C   0  0  0  0  0  0  0  0  0  0  0  0
   -4.4878   -1.1344    0.0000 C   0  0  0  0  0  0  0  0  0  0  0  0
    4.1759   -0.0426    0.0000 C   0  0  0  0  0  0  0  0  0  0  0  0
    3.4243    1.2052    0.0000 C   0  0  0  0  0  0  0  0  0  0  0  0
    4.8848    1.2052    0.0000 C   0  0  0  0  0  0  0  0  0  0  0  0
  1 16  1  0  0  0  0
  1 17  1  0  0  0  0
  2 12  1  0  0  0  0
  2 20  1  0  0  0  0
  3 15  2  0  0  0  0
  4 22  2  0  0  0  0
  5 15  1  0  0  0  0
  5 16  1  0  0  0  0
  6 11  1  0  0  0  0
  6 22  1  0  0  0  0
  7  8  1  0  0  0  0
  7 16  2  0  0  0  0
  8 17  2  0  0  0  0
  9 27  1  0  0  0  0
  9 30  1  0  0  0  0
  9 31  1  0  0  0  0
 10 33  1  0  0  0  0
 10 34  1  0  0  0  0
 10 35  1  0  0  0  0
 11 12  2  0  0  0  0
 11 14  1  0  0  0  0
 12 18  1  0  0  0  0
 13 14  2  0  0  0  0
 13 15  1  0  0  0  0
 13 19  1  0  0  0  0
 17 21  1  0  0  0  0
 18 19  2  0  0  0  0
 20 23  1  0  0  0  0
 20 24  1  0  0  0  0
 21 25  2  0  0  0  0
 21 26  1  0  0  0  0
 22 27  1  0  0  0  0
 23 24  1  0  0  0  0
 25 28  1  0  0  0  0
 26 29  2  0  0  0  0
 28 32  2  0  0  0  0
 29 32  1  0  0  0  0
 30 33  1  0  0  0  0
 31 34  1  0  0  0  0
M  END
> <PUBCHEM_COMPOUND_ID_TYPE>
0

> <PUBCHEM_TOTAL_CHARGE>
0

> <PUBCHEM_SUBSTANCE_ID>
310941759

> <PUBCHEM_SUBSTANCE_VERSION>
1

> <PUBCHEM_EXT_DATASOURCE_NAME>
4488

> <PUBCHEM_EXT_DATASOURCE_REGID>
SCHEMBL16119790

> <PUBCHEM_SUBSTANCE_COMMENT>
InChI=1S/C25H28N6O3S/c1-30-11-13-31(14-12-30)16-22(32)26-20-15-18(7-10-21(20)34-19-8-9-19)23(33)27-25-29-28-24(35-25)17-5-3-2-4-6-17/h2-7,10,15,19H,8-9,11-14,16H2,1H3,(H,26,32)(H,27,29,33)
InChIKey=LDOVNYXADSEDPI-UHFFFAOYSA-N

> <PUBCHEM_SUBSTANCE_SYNONYM>
SCHEMBL16119790

> <PUBCHEM_XREF_EXT_ID>
SCHEMBL16119790

> <PUBCHEM_EXT_DATASOURCE_URL>
https://www.surechembl.org/

> <PUBCHEM_EXT_SUBSTANCE_URL>
https://www.surechembl.org/chemical/SCHEMBL16119790

> <PUBCHEM_CID_ASSOCIATIONS>
117608517  1

> <PUBCHEM_COORDINATE_TYPE>
1
3

$$$$
