310944494
  -OEChem-07211613022D

 10 10  0     0  0  0  0  0  0999 V2000
    1.4221    1.0281    0.0000 Cl  0  0  0  0  0  0  0  0  0  0  0  0
   -0.7080    0.6217    0.0000 N   0  0  0  0  0  0  0  0  0  0  0  0
    0.6957   -0.2032    0.0000 C   0  0  0  0  0  0  0  0  0  0  0  0
    0.7080    0.6217    0.0000 C   0  0  0  0  0  0  0  0  0  0  0  0
   -0.7203   -0.2032    0.0000 C   0  0  0  0  0  0  0  0  0  0  0  0
    0.0062   -0.6095    0.0000 C   0  0  0  0  0  0  0  0  0  0  0  0
   -0.0062    1.0281    0.0000 C   0  0  0  0  0  0  0  0  0  0  0  0
    1.4221   -0.6095    0.0000 C   0  0  0  0  0  0  0  0  0  0  0  0
   -2.1239   -1.0281    0.0000 C   0  0  0  0  0  0  0  0  0  0  0  0
    2.1239   -0.2032    0.0000 C   0  0  0  0  0  0  0  0  0  0  0  0
  1  4  1  0  0  0  0
  2  5  2  0  0  0  0
  2  7  1  0  0  0  0
  3  4  1  0  0  0  0
  3  6  2  0  0  0  0
  3  8  1  0  0  0  0
  4  7  2  0  0  0  0
  5  6  1  0  0  0  0
  5  9  1  0  0  0  0
  8 10  1  0  0  0  0
M  END
> <PUBCHEM_COMPOUND_ID_TYPE>
0

> <PUBCHEM_TOTAL_CHARGE>
0

> <PUBCHEM_SUBSTANCE_ID>
310944494

> <PUBCHEM_SUBSTANCE_VERSION>
1

> <PUBCHEM_EXT_DATASOURCE_NAME>
4488

> <PUBCHEM_EXT_DATASOURCE_REGID>
SCHEMBL16122569

> <PUBCHEM_SUBSTANCE_COMMENT>
InChI=1S/C8H10ClN/c1-3-7-4-6(2)10-5-8(7)9/h4-5H,3H2,1-2H3
InChIKey=DMVDQIHLYFVEKP-UHFFFAOYSA-N

> <PUBCHEM_SUBSTANCE_SYNONYM>
SCHEMBL16122569

> <PUBCHEM_XREF_EXT_ID>
SCHEMBL16122569

> <PUBCHEM_EXT_DATASOURCE_URL>
https://www.surechembl.org/

> <PUBCHEM_EXT_SUBSTANCE_URL>
https://www.surechembl.org/chemical/SCHEMBL16122569

> <PUBCHEM_CID_ASSOCIATIONS>
59938094  1

> <PUBCHEM_COORDINATE_TYPE>
1
3

$$$$
