310942186
  -OEChem-07211613022D

 24 26  0     1  0  0  0  0  0999 V2000
    0.0747    1.4446    0.0000 Cl  0  0  0  0  0  0  0  0  0  0  0  0
   -1.3574   -1.0336    0.0000 F   0  0  0  0  0  0  0  0  0  0  0  0
    0.0747   -0.2117    0.0000 O   0  0  0  0  0  0  0  0  0  0  0  0
    3.0260    1.2951    0.0000 N   0  0  0  0  0  0  0  0  0  0  0  0
   -3.5117    0.1992    0.0000 N   0  0  0  0  0  0  0  0  0  0  0  0
    2.2290    0.2117    0.0000 C   0  0  0  0  0  0  0  0  0  0  0  0
    3.0260   -0.0498    0.0000 C   0  0  0  0  0  0  0  0  0  0  0  0
    2.2540    1.0460    0.0000 C   0  0  0  0  0  0  0  0  0  0  0  0
   -0.6475    0.2117    0.0000 C   0  0  0  0  0  0  0  0  0  0  0  0
    0.7845    0.2117    0.0000 C   0  0  0  0  0  0  0  0  0  0  0  0
    1.5317   -0.1992    0.0000 C   0  0  0  0  0  0  0  0  0  0  0  0
   -1.3574   -0.1992    0.0000 C   0  0  0  0  0  0  0  0  0  0  0  0
   -2.0796    0.2117    0.0000 C   0  0  0  0  0  0  0  0  0  0  0  0
    3.5117    0.6350    0.0000 C   0  0  0  0  0  0  0  0  0  0  0  0
   -0.6350    1.0460    0.0000 C   0  0  0  0  0  0  0  0  0  0  0  0
    1.5317    1.4446    0.0000 C   0  0  0  0  0  0  0  0  0  0  0  0
    0.8094    1.0336    0.0000 C   0  0  0  0  0  0  0  0  0  0  0  0
   -2.0672    1.0336    0.0000 C   0  0  0  0  0  0  0  0  0  0  0  0
   -1.3449    1.4446    0.0000 C   0  0  0  0  0  0  0  0  0  0  0  0
   -2.7894   -0.1992    0.0000 C   0  0  3  0  0  0  0  0  0  0  0  0
    2.6276   -0.7721    0.0000 C   0  0  0  0  0  0  0  0  0  0  0  0
    3.4370   -0.7596    0.0000 C   0  0  0  0  0  0  0  0  0  0  0  0
   -2.8019   -1.0460    0.0000 C   0  0  0  0  0  0  0  0  0  0  0  0
   -3.4992   -1.4446    0.0000 C   0  0  0  0  0  0  0  0  0  0  0  0
  1 15  1  0  0  0  0
  2 12  1  0  0  0  0
  3  9  1  0  0  0  0
  3 10  1  0  0  0  0
  4  8  1  0  0  0  0
  4 14  1  0  0  0  0
 20  5  1  1  0  0  0
  6  7  1  0  0  0  0
  6  8  2  0  0  0  0
  6 11  1  0  0  0  0
  7 14  1  0  0  0  0
  7 21  1  0  0  0  0
  7 22  1  0  0  0  0
  8 16  1  0  0  0  0
  9 12  2  0  0  0  0
  9 15  1  0  0  0  0
 10 11  2  0  0  0  0
 10 17  1  0  0  0  0
 12 13  1  0  0  0  0
 13 18  2  0  0  0  0
 13 20  1  0  0  0  0
 15 19  2  0  0  0  0
 16 17  2  0  0  0  0
 18 19  1  0  0  0  0
 20 23  1  0  0  0  0
 23 24  1  0  0  0  0
M  END
> <PUBCHEM_COMPOUND_ID_TYPE>
0

> <PUBCHEM_TOTAL_CHARGE>
0

> <PUBCHEM_SUBSTANCE_ID>
310942186

> <PUBCHEM_SUBSTANCE_VERSION>
1

> <PUBCHEM_EXT_DATASOURCE_NAME>
4488

> <PUBCHEM_EXT_DATASOURCE_REGID>
SCHEMBL16120221

> <PUBCHEM_SUBSTANCE_COMMENT>
InChI=1S/C19H22ClFN2O/c1-4-15(22)12-6-7-14(20)18(17(12)21)24-11-5-8-16-13(9-11)19(2,3)10-23-16/h5-9,15,23H,4,10,22H2,1-3H3/t15-/m1/s1
InChIKey=PHFDACIWACYQPI-OAHLLOKOSA-N

> <PUBCHEM_SUBSTANCE_SYNONYM>
SCHEMBL16120221

> <PUBCHEM_XREF_EXT_ID>
SCHEMBL16120221

> <PUBCHEM_EXT_DATASOURCE_URL>
https://www.surechembl.org/

> <PUBCHEM_EXT_SUBSTANCE_URL>
https://www.surechembl.org/chemical/SCHEMBL16120221

> <PUBCHEM_CID_ASSOCIATIONS>
117608837  1

> <PUBCHEM_COORDINATE_TYPE>
1
3

> <PUBCHEM_BONDANNOTATIONS>
20  5  5

$$$$
