310943348
  -OEChem-07211613022D

 23 25  0     0  0  0  0  0  0999 V2000
   -3.4845   -0.8711    0.0000 Cl  0  0  0  0  0  0  0  0  0  0  0  0
   -1.8978   -0.8245    0.0000 S   0  0  0  0  0  0  0  0  0  0  0  0
    0.7156    1.9134    0.0000 F   0  0  0  0  0  0  0  0  0  0  0  0
    2.1156    1.8978    0.0000 F   0  0  0  0  0  0  0  0  0  0  0  0
    2.1778    1.2601    0.0000 F   0  0  0  0  0  0  0  0  0  0  0  0
    2.2089   -1.6645    0.0000 F   0  0  0  0  0  0  0  0  0  0  0  0
    3.4845   -0.6378    0.0000 F   0  0  0  0  0  0  0  0  0  0  0  0
    2.7845   -1.9134    0.0000 F   0  0  0  0  0  0  0  0  0  0  0  0
   -0.0622    0.4822    0.0000 N   0  0  0  0  0  0  0  0  0  0  0  0
   -0.0778   -0.8867    0.0000 N   0  0  0  0  0  0  0  0  0  0  0  0
    0.7000    0.1866    0.0000 C   0  0  0  0  0  0  0  0  0  0  0  0
    1.4001    0.6067    0.0000 C   0  0  0  0  0  0  0  0  0  0  0  0
    0.6689   -0.6378    0.0000 C   0  0  0  0  0  0  0  0  0  0  0  0
   -0.5289   -0.2178    0.0000 C   0  0  0  0  0  0  0  0  0  0  0  0
    2.0689   -0.6534    0.0000 C   0  0  0  0  0  0  0  0  0  0  0  0
    1.4312    1.4623    0.0000 C   0  0  0  0  0  0  0  0  0  0  0  0
    2.0845    0.2022    0.0000 C   0  0  0  0  0  0  0  0  0  0  0  0
    1.3845   -1.0733    0.0000 C   0  0  0  0  0  0  0  0  0  0  0  0
   -1.3533   -0.2022    0.0000 C   0  0  0  0  0  0  0  0  0  0  0  0
    2.7845   -1.0890    0.0000 C   0  0  0  0  0  0  0  0  0  0  0  0
   -1.7734    0.5134    0.0000 C   0  0  0  0  0  0  0  0  0  0  0  0
   -2.6445   -0.4978    0.0000 C   0  0  0  0  0  0  0  0  0  0  0  0
   -2.5200    0.3422    0.0000 C   0  0  0  0  0  0  0  0  0  0  0  0
  1 22  1  0  0  0  0
  2 19  1  0  0  0  0
  2 22  1  0  0  0  0
  3 16  1  0  0  0  0
  4 16  1  0  0  0  0
  5 16  1  0  0  0  0
  6 20  1  0  0  0  0
  7 20  1  0  0  0  0
  8 20  1  0  0  0  0
  9 11  1  0  0  0  0
  9 14  2  0  0  0  0
 10 13  1  0  0  0  0
 10 14  1  0  0  0  0
 11 12  1  0  0  0  0
 11 13  2  0  0  0  0
 12 16  1  0  0  0  0
 12 17  2  0  0  0  0
 13 18  1  0  0  0  0
 14 19  1  0  0  0  0
 15 17  1  0  0  0  0
 15 18  2  0  0  0  0
 15 20  1  0  0  0  0
 19 21  2  0  0  0  0
 21 23  1  0  0  0  0
 22 23  2  0  0  0  0
M  END
> <PUBCHEM_COMPOUND_ID_TYPE>
0

> <PUBCHEM_TOTAL_CHARGE>
0

> <PUBCHEM_SUBSTANCE_ID>
310943348

> <PUBCHEM_SUBSTANCE_VERSION>
1

> <PUBCHEM_EXT_DATASOURCE_NAME>
4488

> <PUBCHEM_EXT_DATASOURCE_REGID>
SCHEMBL16121411

> <PUBCHEM_SUBSTANCE_COMMENT>
InChI=1S/C13H5ClF6N2S/c14-9-2-1-8(23-9)11-21-7-4-5(12(15,16)17)3-6(10(7)22-11)13(18,19)20/h1-4H,(H,21,22)
InChIKey=RRHGQVYLVKNSIX-UHFFFAOYSA-N

> <PUBCHEM_SUBSTANCE_SYNONYM>
SCHEMBL16121411

> <PUBCHEM_XREF_EXT_ID>
SCHEMBL16121411

> <PUBCHEM_EXT_DATASOURCE_URL>
https://www.surechembl.org/

> <PUBCHEM_EXT_SUBSTANCE_URL>
https://www.surechembl.org/chemical/SCHEMBL16121411

> <PUBCHEM_CID_ASSOCIATIONS>
117609772  1

> <PUBCHEM_COORDINATE_TYPE>
1
3

$$$$
