310936363
  -OEChem-07211613022D

 38 41  0     0  0  0  0  0  0999 V2000
    0.9972   -0.2788    0.0000 F   0  0  0  0  0  0  0  0  0  0  0  0
   -4.2868   -1.9288    0.0000 F   0  0  0  0  0  0  0  0  0  0  0  0
   -0.5019   -2.5963    0.0000 O   0  0  0  0  0  0  0  0  0  0  0  0
   -1.5717   -0.3477    0.0000 O   0  0  0  0  0  0  0  0  0  0  0  0
    2.4261   -0.2788    0.0000 O   0  0  0  0  0  0  0  0  0  0  0  0
    3.1406   -2.3413    0.0000 O   0  5  0  0  0  0  0  0  0  0  0  0
    2.4261   -3.5788    0.0000 O   0  0  0  0  0  0  0  0  0  0  0  0
   -0.2377    0.1644    0.0000 N   0  0  0  0  0  0  0  0  0  0  0  0
    2.4261   -2.7538    0.0000 N   0  3  0  0  0  0  0  0  0  0  0  0
    3.1406   -1.5163    0.0000 N   0  0  0  0  0  0  0  0  0  0  0  0
    0.2827   -1.5163    0.0000 C   0  0  0  0  0  0  0  0  0  0  0  0
   -0.5019   -1.2614    0.0000 C   0  0  0  0  0  0  0  0  0  0  0  0
    0.2827   -2.3413    0.0000 C   0  0  0  0  0  0  0  0  0  0  0  0
   -0.9868   -1.9288    0.0000 C   0  0  0  0  0  0  0  0  0  0  0  0
    0.9972   -1.1038    0.0000 C   0  0  0  0  0  0  0  0  0  0  0  0
    1.7116   -1.5163    0.0000 C   0  0  0  0  0  0  0  0  0  0  0  0
    1.7116   -2.3413    0.0000 C   0  0  0  0  0  0  0  0  0  0  0  0
   -0.7568   -0.4767    0.0000 C   0  0  0  0  0  0  0  0  0  0  0  0
    0.9972   -2.7538    0.0000 C   0  0  0  0  0  0  0  0  0  0  0  0
   -1.8118   -1.9288    0.0000 C   0  0  0  0  0  0  0  0  0  0  0  0
    2.4261   -1.1038    0.0000 C   0  0  0  0  0  0  0  0  0  0  0  0
   -2.2243   -1.2143    0.0000 C   0  0  0  0  0  0  0  0  0  0  0  0
   -2.2243   -2.6433    0.0000 C   0  0  0  0  0  0  0  0  0  0  0  0
   -0.5333    0.9346    0.0000 C   0  0  0  0  0  0  0  0  0  0  0  0
   -3.0493   -1.2143    0.0000 C   0  0  0  0  0  0  0  0  0  0  0  0
   -3.0493   -2.6433    0.0000 C   0  0  0  0  0  0  0  0  0  0  0  0
    0.5772    0.0354    0.0000 C   0  0  0  0  0  0  0  0  0  0  0  0
   -3.4618   -1.9288    0.0000 C   0  0  0  0  0  0  0  0  0  0  0  0
   -1.3482    1.0637    0.0000 C   0  0  0  0  0  0  0  0  0  0  0  0
   -0.0141    1.5758    0.0000 C   0  0  0  0  0  0  0  0  0  0  0  0
    3.8550   -1.1038    0.0000 C   0  0  0  0  0  0  0  0  0  0  0  0
   -1.6438    1.8339    0.0000 C   0  0  0  0  0  0  0  0  0  0  0  0
   -0.3098    2.3459    0.0000 C   0  0  0  0  0  0  0  0  0  0  0  0
   -1.1246    2.4750    0.0000 C   0  0  0  0  0  0  0  0  0  0  0  0
    4.5696   -1.5163    0.0000 C   0  0  0  0  0  0  0  0  0  0  0  0
    5.2840   -1.1038    0.0000 C   0  0  0  0  0  0  0  0  0  0  0  0
    5.9985   -1.5163    0.0000 C   0  0  0  0  0  0  0  0  0  0  0  0
    6.7130   -1.1038    0.0000 C   0  0  0  0  0  0  0  0  0  0  0  0
  1 15  1  0  0  0  0
  2 28  1  0  0  0  0
  3 13  1  0  0  0  0
  3 14  1  0  0  0  0
  4 18  2  0  0  0  0
  5 21  2  0  0  0  0
  6  9  1  0  0  0  0
  7  9  2  0  0  0  0
  8 18  1  0  0  0  0
  8 24  1  0  0  0  0
  8 27  1  0  0  0  0
  9 17  1  0  0  0  0
 10 21  1  0  0  0  0
 10 31  1  0  0  0  0
 11 12  1  0  0  0  0
 11 13  1  0  0  0  0
 11 15  2  0  0  0  0
 12 14  2  0  0  0  0
 12 18  1  0  0  0  0
 13 19  2  0  0  0  0
 14 20  1  0  0  0  0
 15 16  1  0  0  0  0
 16 17  2  0  0  0  0
 16 21  1  0  0  0  0
 17 19  1  0  0  0  0
 20 22  2  0  0  0  0
 20 23  1  0  0  0  0
 22 25  1  0  0  0  0
 23 26  2  0  0  0  0
 24 29  2  0  0  0  0
 24 30  1  0  0  0  0
 25 28  2  0  0  0  0
 26 28  1  0  0  0  0
 29 32  1  0  0  0  0
 30 33  2  0  0  0  0
 31 35  1  0  0  0  0
 32 34  2  0  0  0  0
 33 34  1  0  0  0  0
 35 36  1  0  0  0  0
 36 37  1  0  0  0  0
 37 38  1  0  0  0  0
M  CHG  2   6  -1   9   1
M  END
> <PUBCHEM_COMPOUND_ID_TYPE>
0

> <PUBCHEM_TOTAL_CHARGE>
0

> <PUBCHEM_SUBSTANCE_ID>
310936363

> <PUBCHEM_SUBSTANCE_VERSION>
1

> <PUBCHEM_EXT_DATASOURCE_NAME>
4488

> <PUBCHEM_EXT_DATASOURCE_REGID>
SCHEMBL16113997

> <PUBCHEM_SUBSTANCE_COMMENT>
InChI=1S/C28H25F2N3O5/c1-3-4-8-15-31-27(34)22-20(33(36)37)16-21-23(25(22)30)24(26(38-21)17-11-13-18(29)14-12-17)28(35)32(2)19-9-6-5-7-10-19/h5-7,9-14,16H,3-4,8,15H2,1-2H3,(H,31,34)
InChIKey=IKRPBNZUQZPYRS-UHFFFAOYSA-N

> <PUBCHEM_SUBSTANCE_SYNONYM>
SCHEMBL16113997

> <PUBCHEM_XREF_EXT_ID>
SCHEMBL16113997

> <PUBCHEM_EXT_DATASOURCE_URL>
https://www.surechembl.org/

> <PUBCHEM_EXT_SUBSTANCE_URL>
https://www.surechembl.org/chemical/SCHEMBL16113997

> <PUBCHEM_CID_ASSOCIATIONS>
117604305  1

> <PUBCHEM_COORDINATE_TYPE>
1
3

$$$$
