310929437
  -OEChem-07211613022D

 27 30  0     0  0  0  0  0  0999 V2000
    2.9333   -2.8551    0.0000 O   0  0  0  0  0  0  0  0  0  0  0  0
    0.4302   -7.0790    0.0000 O   0  0  0  0  0  0  0  0  0  0  0  0
    2.9333   -5.6710    0.0000 N   0  0  0  0  0  0  0  0  0  0  0  0
    1.7209   -4.9671    0.0000 N   0  0  0  0  0  0  0  0  0  0  0  0
    1.2516    0.0000    0.0000 N   0  0  0  0  0  0  0  0  0  0  0  0
    2.8942   -1.4471    0.0000 C   0  0  0  0  0  0  0  0  0  0  0  0
    2.5031   -2.1511    0.0000 C   0  0  0  0  0  0  0  0  0  0  0  0
    2.4640   -0.7040    0.0000 C   0  0  0  0  0  0  0  0  0  0  0  0
    1.6817   -0.7040    0.0000 C   0  0  0  0  0  0  0  0  0  0  0  0
    2.5422   -3.5591    0.0000 C   0  0  0  0  0  0  0  0  0  0  0  0
    1.6817   -2.1511    0.0000 C   0  0  0  0  0  0  0  0  0  0  0  0
    3.7155   -1.4471    0.0000 C   0  0  0  0  0  0  0  0  0  0  0  0
    1.2516   -1.4471    0.0000 C   0  0  0  0  0  0  0  0  0  0  0  0
    2.5422   -4.9671    0.0000 C   0  0  0  0  0  0  0  0  0  0  0  0
    2.8942    0.0000    0.0000 C   0  0  0  0  0  0  0  0  0  0  0  0
    2.9724   -4.2630    0.0000 C   0  0  0  0  0  0  0  0  0  0  0  0
    2.5031   -6.3750    0.0000 C   0  0  0  0  0  0  0  0  0  0  0  0
    1.7209   -3.5591    0.0000 C   0  0  0  0  0  0  0  0  0  0  0  0
    4.1457   -0.7040    0.0000 C   0  0  0  0  0  0  0  0  0  0  0  0
    3.7155    0.0000    0.0000 C   0  0  0  0  0  0  0  0  0  0  0  0
    1.2906   -4.2630    0.0000 C   0  0  0  0  0  0  0  0  0  0  0  0
    1.6817   -6.3750    0.0000 C   0  0  0  0  0  0  0  0  0  0  0  0
    1.2516   -7.0790    0.0000 C   0  0  0  0  0  0  0  0  0  0  0  0
    2.8942   -7.1181    0.0000 C   0  0  0  0  0  0  0  0  0  0  0  0
    1.6427   -7.8221    0.0000 C   0  0  0  0  0  0  0  0  0  0  0  0
    2.4640   -7.8221    0.0000 C   0  0  0  0  0  0  0  0  0  0  0  0
    0.0000   -7.7830    0.0000 C   0  0  0  0  0  0  0  0  0  0  0  0
  1  7  1  0  0  0  0
  1 10  1  0  0  0  0
  2 23  1  0  0  0  0
  2 27  1  0  0  0  0
  3 14  1  0  0  0  0
  3 17  1  0  0  0  0
  4 14  1  0  0  0  0
  4 21  2  0  0  0  0
  5  9  1  0  0  0  0
  6  7  1  0  0  0  0
  6  8  2  0  0  0  0
  6 12  1  0  0  0  0
  7 11  2  0  0  0  0
  8  9  1  0  0  0  0
  8 15  1  0  0  0  0
  9 13  2  0  0  0  0
 10 16  1  0  0  0  0
 10 18  2  0  0  0  0
 11 13  1  0  0  0  0
 12 19  2  0  0  0  0
 14 16  2  0  0  0  0
 15 20  2  0  0  0  0
 17 22  1  0  0  0  0
 17 24  2  0  0  0  0
 18 21  1  0  0  0  0
 19 20  1  0  0  0  0
 22 23  2  0  0  0  0
 23 25  1  0  0  0  0
 24 26  1  0  0  0  0
 25 26  2  0  0  0  0
M  END
> <PUBCHEM_COMPOUND_ID_TYPE>
0

> <PUBCHEM_TOTAL_CHARGE>
0

> <PUBCHEM_SUBSTANCE_ID>
310929437

> <PUBCHEM_SUBSTANCE_VERSION>
1

> <PUBCHEM_EXT_DATASOURCE_NAME>
4488

> <PUBCHEM_EXT_DATASOURCE_REGID>
SCHEMBL16106611

> <PUBCHEM_SUBSTANCE_COMMENT>
InChI=1S/C22H19N3O2/c1-26-16-6-4-5-15(13-16)25-22-14-17(11-12-24-22)27-21-10-9-20(23)18-7-2-3-8-19(18)21/h2-14H,23H2,1H3,(H,24,25)
InChIKey=FJPSYUABYOVKRA-UHFFFAOYSA-N

> <PUBCHEM_SUBSTANCE_SYNONYM>
SCHEMBL16106611

> <PUBCHEM_XREF_EXT_ID>
SCHEMBL16106611

> <PUBCHEM_EXT_DATASOURCE_URL>
https://www.surechembl.org/

> <PUBCHEM_EXT_SUBSTANCE_URL>
https://www.surechembl.org/chemical/SCHEMBL16106611

> <PUBCHEM_CID_ASSOCIATIONS>
117598790  1

> <PUBCHEM_COORDINATE_TYPE>
1
3

$$$$
