310936653
  -OEChem-07211613022D

 39 42  0     1  0  0  0  0  0999 V2000
    3.5466   -7.7100    0.0000 F   0  0  0  0  0  0  0  0  0  0  0  0
    4.9729   -7.5557    0.0000 F   0  0  0  0  0  0  0  0  0  0  0  0
    3.4309   -6.9004    0.0000 F   0  0  0  0  0  0  0  0  0  0  0  0
    7.2859   -5.8981    0.0000 F   0  0  0  0  0  0  0  0  0  0  0  0
    6.4378   -4.7416    0.0000 F   0  0  0  0  0  0  0  0  0  0  0  0
    6.5920   -6.3607    0.0000 F   0  0  0  0  0  0  0  0  0  0  0  0
    3.7394   -0.4626    0.0000 F   0  0  0  0  0  0  0  0  0  0  0  0
    2.3901    0.0000    0.0000 F   0  0  0  0  0  0  0  0  0  0  0  0
    3.4695   -1.2336    0.0000 F   0  0  0  0  0  0  0  0  0  0  0  0
    4.1634   -3.5851    0.0000 O   0  0  0  0  0  0  0  0  0  0  0  0
    3.4695   -2.2744    0.0000 O   0  0  0  0  0  0  0  0  0  0  0  0
    0.9637   -5.2428    0.0000 O   0  0  0  0  0  0  0  0  0  0  0  0
    2.8141   -3.5851    0.0000 N   0  0  0  0  0  0  0  0  0  0  0  0
    0.9252   -1.4649    0.0000 N   0  0  0  0  0  0  0  0  0  0  0  0
    0.4626   -2.8141    0.0000 N   0  0  0  0  0  0  0  0  0  0  0  0
    3.8935   -4.3947    0.0000 C   0  0  3  0  0  0  0  0  0  0  0  0
    4.3947   -5.0500    0.0000 C   0  0  0  0  0  0  0  0  0  0  0  0
    3.0840   -4.3947    0.0000 C   0  0  3  0  0  0  0  0  0  0  0  0
    3.4695   -3.1226    0.0000 C   0  0  0  0  0  0  0  0  0  0  0  0
    4.5489   -6.4764    0.0000 C   0  0  0  0  0  0  0  0  0  0  0  0
    5.7054   -5.6283    0.0000 C   0  0  0  0  0  0  0  0  0  0  0  0
    5.2042   -4.9729    0.0000 C   0  0  0  0  0  0  0  0  0  0  0  0
    4.0477   -5.8210    0.0000 C   0  0  0  0  0  0  0  0  0  0  0  0
    1.8504   -2.5443    0.0000 C   0  0  0  0  0  0  0  0  0  0  0  0
    2.0046   -3.3538    0.0000 C   0  0  0  0  0  0  0  0  0  0  0  0
    5.3585   -6.3993    0.0000 C   0  0  0  0  0  0  0  0  0  0  0  0
    4.2020   -7.2474    0.0000 C   0  0  0  0  0  0  0  0  0  0  0  0
    6.5149   -5.5512    0.0000 C   0  0  0  0  0  0  0  0  0  0  0  0
    1.0794   -2.2359    0.0000 C   0  0  0  0  0  0  0  0  0  0  0  0
    2.2744   -1.1565    0.0000 C   0  0  0  0  0  0  0  0  0  0  0  0
    2.4672   -1.9661    0.0000 C   0  0  0  0  0  0  0  0  0  0  0  0
    2.5828   -5.0500    0.0000 C   0  0  0  0  0  0  0  0  0  0  0  0
    2.9298   -0.6168    0.0000 C   0  0  0  0  0  0  0  0  0  0  0  0
    1.5035   -0.8867    0.0000 C   0  0  0  0  0  0  0  0  0  0  0  0
    0.6168   -3.5851    0.0000 C   0  0  0  0  0  0  0  0  0  0  0  0
    0.0000   -4.1634    0.0000 C   0  0  0  0  0  0  0  0  0  0  0  0
    1.3878   -3.8935    0.0000 C   0  0  0  0  0  0  0  0  0  0  0  0
    0.1542   -4.9729    0.0000 C   0  0  0  0  0  0  0  0  0  0  0  0
    1.5420   -4.6646    0.0000 C   0  0  0  0  0  0  0  0  0  0  0  0
  1 27  1  0  0  0  0
  2 27  1  0  0  0  0
  3 27  1  0  0  0  0
  4 28  1  0  0  0  0
  5 28  1  0  0  0  0
  6 28  1  0  0  0  0
  7 33  1  0  0  0  0
  8 33  1  0  0  0  0
  9 33  1  0  0  0  0
 16 10  1  6  0  0  0
 10 19  1  0  0  0  0
 11 19  2  0  0  0  0
 12 38  1  0  0  0  0
 12 39  1  0  0  0  0
 13 18  1  0  0  0  0
 13 19  1  0  0  0  0
 13 25  1  0  0  0  0
 14 29  1  0  0  0  0
 14 34  2  0  0  0  0
 15 29  1  0  0  0  0
 15 35  1  0  0  0  0
 16 17  1  0  0  0  0
 16 18  1  0  0  0  0
 17 22  2  0  0  0  0
 17 23  1  0  0  0  0
 18 32  1  6  0  0  0
 20 23  2  0  0  0  0
 20 26  1  0  0  0  0
 20 27  1  0  0  0  0
 21 22  1  0  0  0  0
 21 26  2  0  0  0  0
 21 28  1  0  0  0  0
 24 25  1  0  0  0  0
 24 29  2  0  0  0  0
 24 31  1  0  0  0  0
 30 31  2  0  0  0  0
 30 33  1  0  0  0  0
 30 34  1  0  0  0  0
 35 36  1  0  0  0  0
 35 37  1  0  0  0  0
 36 38  1  0  0  0  0
 37 39  1  0  0  0  0
M  END
> <PUBCHEM_COMPOUND_ID_TYPE>
0

> <PUBCHEM_TOTAL_CHARGE>
0

> <PUBCHEM_SUBSTANCE_ID>
310936653

> <PUBCHEM_SUBSTANCE_VERSION>
1

> <PUBCHEM_EXT_DATASOURCE_NAME>
4488

> <PUBCHEM_EXT_DATASOURCE_REGID>
SCHEMBL16114321

> <PUBCHEM_SUBSTANCE_COMMENT>
InChI=1S/C24H22F9N3O3/c1-12-19(13-6-15(22(25,26)27)9-16(7-13)23(28,29)30)39-21(37)36(12)11-14-8-17(24(31,32)33)10-34-20(14)35-18-2-4-38-5-3-18/h6-10,12,18-19H,2-5,11H2,1H3,(H,34,35)/t12-,19-/m0/s1
InChIKey=SJLKQBMBAWJFEW-BUXKBTBVSA-N

> <PUBCHEM_SUBSTANCE_SYNONYM>
SCHEMBL16114321

> <PUBCHEM_XREF_EXT_ID>
SCHEMBL16114321

> <PUBCHEM_EXT_DATASOURCE_URL>
https://www.surechembl.org/

> <PUBCHEM_EXT_SUBSTANCE_URL>
https://www.surechembl.org/chemical/SCHEMBL16114321

> <PUBCHEM_CID_ASSOCIATIONS>
85472773  1

> <PUBCHEM_COORDINATE_TYPE>
1
3

> <PUBCHEM_BONDANNOTATIONS>
16  10  6
18  32  6

$$$$
