310944375
  -OEChem-07211613022D

 37 43  0     0  0  0  0  0  0999 V2000
    0.9429    1.6620    0.0000 F   0  0  0  0  0  0  0  0  0  0  0  0
   -0.5273   -0.8310    0.0000 N   0  0  0  0  0  0  0  0  0  0  0  0
   -1.1346    0.9908    0.0000 N   0  0  0  0  0  0  0  0  0  0  0  0
    0.9429   -2.4291    0.0000 N   0  0  0  0  0  0  0  0  0  0  0  0
    3.1322    1.2305    0.0000 N   0  0  0  0  0  0  0  0  0  0  0  0
   -1.3104   -0.4635    0.0000 C   0  0  0  0  0  0  0  0  0  0  0  0
   -1.5661    0.2876    0.0000 C   0  0  0  0  0  0  0  0  0  0  0  0
   -1.8538   -1.0867    0.0000 C   0  0  0  0  0  0  0  0  0  0  0  0
   -2.3811    0.4635    0.0000 C   0  0  0  0  0  0  0  0  0  0  0  0
   -0.6233   -1.6141    0.0000 C   0  0  0  0  0  0  0  0  0  0  0  0
   -1.4383   -1.7899    0.0000 C   0  0  0  0  0  0  0  0  0  0  0  0
   -2.4610    1.2945    0.0000 C   0  0  0  0  0  0  0  0  0  0  0  0
   -1.7259    1.6300    0.0000 C   0  0  0  0  0  0  0  0  0  0  0  0
    0.1917   -0.3676    0.0000 C   0  0  0  0  0  0  0  0  0  0  0  0
   -2.6688   -0.9109    0.0000 C   0  0  0  0  0  0  0  0  0  0  0  0
   -2.9405   -0.1598    0.0000 C   0  0  0  0  0  0  0  0  0  0  0  0
   -0.7191    1.7419    0.0000 C   0  0  0  0  0  0  0  0  0  0  0  0
   -0.0480   -2.2213    0.0000 C   0  0  0  0  0  0  0  0  0  0  0  0
    0.9589   -0.7670    0.0000 C   0  0  0  0  0  0  0  0  0  0  0  0
   -1.6940   -2.5729    0.0000 C   0  0  0  0  0  0  0  0  0  0  0  0
   -3.1322    1.7578    0.0000 C   0  0  0  0  0  0  0  0  0  0  0  0
   -1.6300    2.4291    0.0000 C   0  0  0  0  0  0  0  0  0  0  0  0
    0.2238    0.4315    0.0000 C   0  0  0  0  0  0  0  0  0  0  0  0
    0.9269    0.8630    0.0000 C   0  0  0  0  0  0  0  0  0  0  0  0
    0.1279    1.7578    0.0000 C   0  0  0  0  0  0  0  0  0  0  0  0
   -1.1346    2.4291    0.0000 C   0  0  0  0  0  0  0  0  0  0  0  0
   -0.3037   -2.9884    0.0000 C   0  0  0  0  0  0  0  0  0  0  0  0
   -1.1187   -3.1642    0.0000 C   0  0  0  0  0  0  0  0  0  0  0  0
    1.6620   -0.3676    0.0000 C   0  0  0  0  0  0  0  0  0  0  0  0
   -3.0683    2.5569    0.0000 C   0  0  0  0  0  0  0  0  0  0  0  0
   -2.2693    2.8925    0.0000 C   0  0  0  0  0  0  0  0  0  0  0  0
    1.6620    0.4474    0.0000 C   0  0  0  0  0  0  0  0  0  0  0  0
    0.9429   -1.6141    0.0000 C   0  0  0  0  0  0  0  0  0  0  0  0
    0.5273    2.4451    0.0000 C   0  0  0  0  0  0  0  0  0  0  0  0
   -0.7351    3.1482    0.0000 C   0  0  0  0  0  0  0  0  0  0  0  0
    2.4131    0.8630    0.0000 C   0  0  0  0  0  0  0  0  0  0  0  0
    0.0959    3.1642    0.0000 C   0  0  0  0  0  0  0  0  0  0  0  0
  1 24  1  0  0  0  0
  2  6  1  0  0  0  0
  2 10  1  0  0  0  0
  2 14  1  0  0  0  0
  3  7  1  0  0  0  0
  3 13  1  0  0  0  0
  3 17  1  0  0  0  0
  4 33  3  0  0  0  0
  5 36  3  0  0  0  0
  6  7  1  0  0  0  0
  6  8  2  0  0  0  0
  7  9  2  0  0  0  0
  8 11  1  0  0  0  0
  8 15  1  0  0  0  0
  9 12  1  0  0  0  0
  9 16  1  0  0  0  0
 10 11  2  0  0  0  0
 10 18  1  0  0  0  0
 11 20  1  0  0  0  0
 12 13  2  0  0  0  0
 12 21  1  0  0  0  0
 13 22  1  0  0  0  0
 14 19  1  0  0  0  0
 14 23  2  0  0  0  0
 15 16  2  0  0  0  0
 17 25  2  0  0  0  0
 17 26  1  0  0  0  0
 18 27  2  0  0  0  0
 19 29  2  0  0  0  0
 19 33  1  0  0  0  0
 20 28  2  0  0  0  0
 21 30  2  0  0  0  0
 22 31  2  0  0  0  0
 23 24  1  0  0  0  0
 24 32  2  0  0  0  0
 25 34  1  0  0  0  0
 26 35  2  0  0  0  0
 27 28  1  0  0  0  0
 29 32  1  0  0  0  0
 30 31  1  0  0  0  0
 32 36  1  0  0  0  0
 34 37  2  0  0  0  0
 35 37  1  0  0  0  0
M  END
> <PUBCHEM_COMPOUND_ID_TYPE>
0

> <PUBCHEM_TOTAL_CHARGE>
0

> <PUBCHEM_SUBSTANCE_ID>
310944375

> <PUBCHEM_SUBSTANCE_VERSION>
1

> <PUBCHEM_EXT_DATASOURCE_NAME>
4488

> <PUBCHEM_EXT_DATASOURCE_REGID>
SCHEMBL16122450

> <PUBCHEM_SUBSTANCE_COMMENT>
InChI=1S/C32H17FN4/c33-27-17-30(21(19-35)16-20(27)18-34)37-29-13-7-5-11-24(29)26-15-14-25-23-10-4-6-12-28(23)36(31(25)32(26)37)22-8-2-1-3-9-22/h1-17H
InChIKey=WGHFPJGVDMDDMS-UHFFFAOYSA-N

> <PUBCHEM_SUBSTANCE_SYNONYM>
SCHEMBL16122450

> <PUBCHEM_XREF_EXT_ID>
SCHEMBL16122450

> <PUBCHEM_EXT_DATASOURCE_URL>
https://www.surechembl.org/

> <PUBCHEM_EXT_SUBSTANCE_URL>
https://www.surechembl.org/chemical/SCHEMBL16122450

> <PUBCHEM_CID_ASSOCIATIONS>
117610632  1

> <PUBCHEM_COORDINATE_TYPE>
1
3

$$$$
