310937851
  -OEChem-07211613022D

 24 26  0     0  0  0  0  0  0999 V2000
    6.4369   -2.2070    0.0000 O   0  0  0  0  0  0  0  0  0  0  0  0
    2.3646   -2.9163    0.0000 O   0  0  0  0  0  0  0  0  0  0  0  0
    1.4188   -0.9721    0.0000 O   0  0  0  0  0  0  0  0  0  0  0  0
    5.2021   -1.8129    0.0000 N   0  0  0  0  0  0  0  0  0  0  0  0
    4.6241   -3.8884    0.0000 N   0  0  0  0  0  0  0  0  0  0  0  0
    5.9640   -2.8901    0.0000 N   0  0  0  0  0  0  0  0  0  0  0  0
    4.5190   -3.1002    0.0000 C   0  0  0  0  0  0  0  0  0  0  0  0
    3.2053   -4.0461    0.0000 C   0  0  0  0  0  0  0  0  0  0  0  0
    5.2021   -2.6273    0.0000 C   0  0  0  0  0  0  0  0  0  0  0  0
    3.1265   -3.2579    0.0000 C   0  0  0  0  0  0  0  0  0  0  0  0
    2.5485   -4.5190    0.0000 C   0  0  0  0  0  0  0  0  0  0  0  0
    5.9640   -1.5501    0.0000 C   0  0  0  0  0  0  0  0  0  0  0  0
    3.7833   -2.7324    0.0000 C   0  0  0  0  0  0  0  0  0  0  0  0
    6.2267   -0.7619    0.0000 C   0  0  0  0  0  0  0  0  0  0  0  0
    3.9673   -4.3876    0.0000 C   0  0  0  0  0  0  0  0  0  0  0  0
    2.2070   -5.2546    0.0000 C   0  0  0  0  0  0  0  0  0  0  0  0
    1.7078   -4.5978    0.0000 C   0  0  0  0  0  0  0  0  0  0  0  0
    7.0149   -1.0247    0.0000 C   0  0  0  0  0  0  0  0  0  0  0  0
    6.4632    0.0000    0.0000 C   0  0  0  0  0  0  0  0  0  0  0  0
    5.4385   -0.5254    0.0000 C   0  0  0  0  0  0  0  0  0  0  0  0
    2.2858   -2.1281    0.0000 C   0  0  0  0  0  0  0  0  0  0  0  0
    1.5239   -1.7865    0.0000 C   0  0  0  0  0  0  0  0  0  0  0  0
    0.6568   -0.6568    0.0000 C   0  0  0  0  0  0  0  0  0  0  0  0
    0.0000   -1.1560    0.0000 C   0  0  0  0  0  0  0  0  0  0  0  0
  1  6  1  0  0  0  0
  1 12  1  0  0  0  0
  2 10  1  0  0  0  0
  2 21  1  0  0  0  0
  3 22  1  0  0  0  0
  3 23  1  0  0  0  0
  4  9  1  0  0  0  0
  4 12  2  0  0  0  0
  5  7  1  0  0  0  0
  5 15  2  0  0  0  0
  6  9  2  0  0  0  0
  7  9  1  0  0  0  0
  7 13  2  0  0  0  0
  8 10  2  0  0  0  0
  8 11  1  0  0  0  0
  8 15  1  0  0  0  0
 10 13  1  0  0  0  0
 11 16  1  0  0  0  0
 11 17  1  0  0  0  0
 12 14  1  0  0  0  0
 14 18  1  0  0  0  0
 14 19  1  0  0  0  0
 14 20  1  0  0  0  0
 16 17  1  0  0  0  0
 21 22  1  0  0  0  0
 23 24  1  0  0  0  0
M  END
> <PUBCHEM_COMPOUND_ID_TYPE>
0

> <PUBCHEM_TOTAL_CHARGE>
0

> <PUBCHEM_SUBSTANCE_ID>
310937851

> <PUBCHEM_SUBSTANCE_VERSION>
1

> <PUBCHEM_EXT_DATASOURCE_NAME>
4488

> <PUBCHEM_EXT_DATASOURCE_REGID>
SCHEMBL16115675

> <PUBCHEM_SUBSTANCE_COMMENT>
InChI=1S/C18H25N3O3/c1-5-22-8-9-23-15-10-14(19-11-13(15)12-6-7-12)16-20-17(24-21-16)18(2,3)4/h10-12H,5-9H2,1-4H3
InChIKey=UJKBYEMHLKTICY-UHFFFAOYSA-N

> <PUBCHEM_SUBSTANCE_SYNONYM>
SCHEMBL16115675

> <PUBCHEM_XREF_EXT_ID>
SCHEMBL16115675

> <PUBCHEM_EXT_DATASOURCE_URL>
https://www.surechembl.org/

> <PUBCHEM_EXT_SUBSTANCE_URL>
https://www.surechembl.org/chemical/SCHEMBL16115675

> <PUBCHEM_CID_ASSOCIATIONS>
86276057  1

> <PUBCHEM_COORDINATE_TYPE>
1
3

$$$$
