310944667
  -OEChem-07211613022D

 28 31  0     0  0  0  0  0  0999 V2000
   -0.6258    3.0691    0.0000 F   0  0  0  0  0  0  0  0  0  0  0  0
    0.1034    0.2939    0.0000 F   0  0  0  0  0  0  0  0  0  0  0  0
    2.1168    2.3291    0.0000 O   0  0  0  0  0  0  0  0  0  0  0  0
   -1.3005    0.6748    0.0000 N   0  0  0  0  0  0  0  0  0  0  0  0
   -0.8108    0.0000    0.0000 N   0  0  0  0  0  0  0  0  0  0  0  0
   -1.6706   -2.0569    0.0000 N   0  0  0  0  0  0  0  0  0  0  0  0
   -0.6585   -3.0691    0.0000 N   0  0  0  0  0  0  0  0  0  0  0  0
    0.7238   -2.6991    0.0000 N   0  0  0  0  0  0  0  0  0  0  0  0
   -2.0842   -0.3809    0.0000 C   0  0  0  0  0  0  0  0  0  0  0  0
   -2.0732    0.4354    0.0000 C   0  0  0  0  0  0  0  0  0  0  0  0
   -1.3005   -0.6530    0.0000 C   0  0  0  0  0  0  0  0  0  0  0  0
   -1.0938   -1.4366    0.0000 C   0  0  0  0  0  0  0  0  0  0  0  0
   -0.2884    1.7087    0.0000 C   0  0  0  0  0  0  0  0  0  0  0  0
   -1.0720    1.4802    0.0000 C   0  0  0  0  0  0  0  0  0  0  0  0
   -2.7916   -0.8054    0.0000 C   0  0  0  0  0  0  0  0  0  0  0  0
   -2.8133    0.8271    0.0000 C   0  0  0  0  0  0  0  0  0  0  0  0
   -0.0599    2.5032    0.0000 C   0  0  0  0  0  0  0  0  0  0  0  0
    0.2993    1.1210    0.0000 C   0  0  0  0  0  0  0  0  0  0  0  0
   -0.2884   -1.6651    0.0000 C   0  0  0  0  0  0  0  0  0  0  0  0
   -3.4990   -0.4027    0.0000 C   0  0  0  0  0  0  0  0  0  0  0  0
   -3.4990    0.4245    0.0000 C   0  0  0  0  0  0  0  0  0  0  0  0
    1.3114    2.1331    0.0000 C   0  0  0  0  0  0  0  0  0  0  0  0
    0.7455    2.6991    0.0000 C   0  0  0  0  0  0  0  0  0  0  0  0
    1.1047    1.3387    0.0000 C   0  0  0  0  0  0  0  0  0  0  0  0
   -0.0816   -2.4487    0.0000 C   0  0  0  0  0  0  0  0  0  0  0  0
   -1.4529   -2.8296    0.0000 C   0  0  0  0  0  0  0  0  0  0  0  0
    2.7154    1.7522    0.0000 C   0  0  0  0  0  0  0  0  0  0  0  0
    3.4990    1.9373    0.0000 C   0  0  0  0  0  0  0  0  0  0  0  0
  1 17  1  0  0  0  0
  2 18  1  0  0  0  0
  3 22  1  0  0  0  0
  3 27  1  0  0  0  0
  4  5  1  0  0  0  0
  4 10  1  0  0  0  0
  4 14  1  0  0  0  0
  5 11  2  0  0  0  0
  6 12  2  0  0  0  0
  6 26  1  0  0  0  0
  7 25  1  0  0  0  0
  7 26  2  0  0  0  0
  8 25  1  0  0  0  0
  9 10  2  0  0  0  0
  9 11  1  0  0  0  0
  9 15  1  0  0  0  0
 10 16  1  0  0  0  0
 11 12  1  0  0  0  0
 12 19  1  0  0  0  0
 13 14  1  0  0  0  0
 13 17  2  0  0  0  0
 13 18  1  0  0  0  0
 15 20  2  0  0  0  0
 16 21  2  0  0  0  0
 17 23  1  0  0  0  0
 18 24  2  0  0  0  0
 19 25  2  0  0  0  0
 20 21  1  0  0  0  0
 22 23  2  0  0  0  0
 22 24  1  0  0  0  0
 27 28  1  0  0  0  0
M  END
> <PUBCHEM_COMPOUND_ID_TYPE>
0

> <PUBCHEM_TOTAL_CHARGE>
0

> <PUBCHEM_SUBSTANCE_ID>
310944667

> <PUBCHEM_SUBSTANCE_VERSION>
1

> <PUBCHEM_EXT_DATASOURCE_NAME>
4488

> <PUBCHEM_EXT_DATASOURCE_REGID>
SCHEMBL16122745

> <PUBCHEM_SUBSTANCE_COMMENT>
InChI=1S/C20H17F2N5O/c1-2-28-12-7-15(21)14(16(22)8-12)10-27-18-6-4-3-5-13(18)20(26-27)17-9-19(23)25-11-24-17/h3-9,11H,2,10H2,1H3,(H2,23,24,25)
InChIKey=BWWGANZXOMMFKQ-UHFFFAOYSA-N

> <PUBCHEM_SUBSTANCE_SYNONYM>
SCHEMBL16122745

> <PUBCHEM_XREF_EXT_ID>
SCHEMBL16122745

> <PUBCHEM_EXT_DATASOURCE_URL>
https://www.surechembl.org/

> <PUBCHEM_EXT_SUBSTANCE_URL>
https://www.surechembl.org/chemical/SCHEMBL16122745

> <PUBCHEM_CID_ASSOCIATIONS>
117610896  1

> <PUBCHEM_COORDINATE_TYPE>
1
3

$$$$
