310943917
  -OEChem-07211613022D

 33 37  0     1  0  0  0  0  0999 V2000
    2.1700   -2.1045    0.0000 F   0  0  0  0  0  0  0  0  0  0  0  0
    2.4862    0.7524    0.0000 O   0  0  0  0  0  0  0  0  0  0  0  0
    5.3977    0.6979    0.0000 O   0  0  0  0  0  0  0  0  0  0  0  0
    5.0924    2.1045    0.0000 O   0  0  0  0  0  0  0  0  0  0  0  0
   -1.2649   -1.6138    0.0000 O   0  0  0  0  0  0  0  0  0  0  0  0
    3.5112   -0.2617    0.0000 N   0  0  0  0  0  0  0  0  0  0  0  0
    0.4798   -0.6760    0.0000 N   0  0  3  0  0  0  0  0  0  0  0  0
   -4.1000    0.8178    0.0000 N   0  0  0  0  0  0  0  0  0  0  0  0
   -3.3912   -0.4035    0.0000 N   0  0  0  0  0  0  0  0  0  0  0  0
   -4.1872    1.6248    0.0000 N   0  0  0  0  0  0  0  0  0  0  0  0
   -4.9833    1.7992    0.0000 N   0  0  0  0  0  0  0  0  0  0  0  0
   -5.3977    1.0905    0.0000 N   0  0  0  0  0  0  0  0  0  0  0  0
    2.1917   -0.6652    0.0000 C   0  0  3  0  0  0  0  0  0  0  0  0
    2.7043   -0.0109    0.0000 C   0  0  0  0  0  0  0  0  0  0  0  0
    1.7665   -1.4067    0.0000 C   0  0  3  0  0  0  0  0  0  0  0  0
    2.7479   -1.3521    0.0000 C   0  0  0  0  0  0  0  0  0  0  0  0
    4.1655    0.2508    0.0000 C   0  0  0  0  0  0  0  0  0  0  0  0
    1.7556    0.0654    0.0000 C   0  0  0  0  0  0  0  0  0  0  0  0
    3.5331   -1.1450    0.0000 C   0  0  0  0  0  0  0  0  0  0  0  0
    4.1219    1.0469    0.0000 C   0  0  0  0  0  0  0  0  0  0  0  0
    0.9050   -1.3848    0.0000 C   0  0  0  0  0  0  0  0  0  0  0  0
    0.9160    0.0764    0.0000 C   0  0  0  0  0  0  0  0  0  0  0  0
    4.9615    0.0218    0.0000 C   0  0  0  0  0  0  0  0  0  0  0  0
    4.8743    1.3085    0.0000 C   0  0  0  0  0  0  0  0  0  0  0  0
   -0.5561   -0.3926    0.0000 C   0  0  0  0  0  0  0  0  0  0  0  0
   -1.2540   -0.7960    0.0000 C   0  0  3  0  0  0  0  0  0  0  0  0
    3.4240    1.4721    0.0000 C   0  0  0  0  0  0  0  0  0  0  0  0
   -1.9737   -0.3926    0.0000 C   0  0  0  0  0  0  0  0  0  0  0  0
   -3.3803    0.4253    0.0000 C   0  0  0  0  0  0  0  0  0  0  0  0
   -2.6607   -0.7960    0.0000 C   0  0  0  0  0  0  0  0  0  0  0  0
   -1.9737    0.4143    0.0000 C   0  0  0  0  0  0  0  0  0  0  0  0
   -2.6934    0.8178    0.0000 C   0  0  0  0  0  0  0  0  0  0  0  0
   -4.8198    0.5016    0.0000 C   0  0  0  0  0  0  0  0  0  0  0  0
  1 15  1  0  0  0  0
  2 14  2  0  0  0  0
  3 23  1  0  0  0  0
  3 24  1  0  0  0  0
  4 24  2  0  0  0  0
 26  5  1  6  0  0  0
  6 14  1  0  0  0  0
  6 17  1  0  0  0  0
  6 19  1  0  0  0  0
  7 21  1  0  0  0  0
  7 22  1  0  0  0  0
  7 25  1  0  0  0  0
  8 10  1  0  0  0  0
  8 29  1  0  0  0  0
  8 33  1  0  0  0  0
  9 29  2  0  0  0  0
  9 30  1  0  0  0  0
 10 11  2  0  0  0  0
 11 12  1  0  0  0  0
 12 33  2  0  0  0  0
 13 14  1  0  0  0  0
 13 15  1  0  0  0  0
 13 16  1  0  0  0  0
 13 18  1  0  0  0  0
 15 21  1  0  0  0  0
 16 19  1  0  0  0  0
 17 20  2  0  0  0  0
 17 23  1  0  0  0  0
 18 22  1  0  0  0  0
 20 24  1  0  0  0  0
 20 27  1  0  0  0  0
 25 26  1  0  0  0  0
 26 28  1  0  0  0  0
 28 30  2  0  0  0  0
 28 31  1  0  0  0  0
 29 32  1  0  0  0  0
 31 32  2  0  0  0  0
M  END
> <PUBCHEM_COMPOUND_ID_TYPE>
0

> <PUBCHEM_TOTAL_CHARGE>
0

> <PUBCHEM_SUBSTANCE_ID>
310943917

> <PUBCHEM_SUBSTANCE_VERSION>
1

> <PUBCHEM_EXT_DATASOURCE_NAME>
4488

> <PUBCHEM_EXT_DATASOURCE_REGID>
SCHEMBL16121988

> <PUBCHEM_SUBSTANCE_COMMENT>
InChI=1S/C21H24FN7O4/c1-13-15(11-33-19(13)31)28-7-5-21(20(28)32)4-6-27(10-17(21)22)9-16(30)14-2-3-18(23-8-14)29-12-24-25-26-29/h2-3,8,12,16-17,30H,4-7,9-11H2,1H3/t16-,17?,21?/m0/s1
InChIKey=PVBQCMXKBHULTK-BQJIDLTASA-N

> <PUBCHEM_SUBSTANCE_SYNONYM>
SCHEMBL16121988

> <PUBCHEM_XREF_EXT_ID>
SCHEMBL16121988

> <PUBCHEM_EXT_DATASOURCE_URL>
https://www.surechembl.org/

> <PUBCHEM_EXT_SUBSTANCE_URL>
https://www.surechembl.org/chemical/SCHEMBL16121988

> <PUBCHEM_CID_ASSOCIATIONS>
117610230  1

> <PUBCHEM_COORDINATE_TYPE>
1
3

> <PUBCHEM_BONDANNOTATIONS>
26  5  6

$$$$
