310943329
  -OEChem-07211613022D

 35 38  0     0  0  0  0  0  0999 V2000
    4.8032    1.6173    0.0000 F   0  0  0  0  0  0  0  0  0  0  0  0
    5.3855    0.2911    0.0000 F   0  0  0  0  0  0  0  0  0  0  0  0
   -3.9623   -0.8248    0.0000 O   0  0  0  0  0  0  0  0  0  0  0  0
   -5.3855    1.6496    0.0000 O   0  0  0  0  0  0  0  0  0  0  0  0
    1.9083    1.6819    0.0000 O   0  0  0  0  0  0  0  0  0  0  0  0
   -3.9461    0.8248    0.0000 N   0  0  0  0  0  0  0  0  0  0  0  0
   -1.8113   -0.4205    0.0000 N   0  0  0  0  0  0  0  0  0  0  0  0
   -2.5229   -0.8248    0.0000 N   0  0  0  0  0  0  0  0  0  0  0  0
   -0.3881    2.0539    0.0000 N   0  0  0  0  0  0  0  0  0  0  0  0
    1.0351    0.4043    0.0000 N   0  0  0  0  0  0  0  0  0  0  0  0
    4.0431   -0.3720    0.0000 N   0  0  0  0  0  0  0  0  0  0  0  0
   -1.8113    0.4205    0.0000 C   0  0  0  0  0  0  0  0  0  0  0  0
   -3.2345    0.4205    0.0000 C   0  0  0  0  0  0  0  0  0  0  0  0
   -1.1159    0.8248    0.0000 C   0  0  0  0  0  0  0  0  0  0  0  0
   -3.2507   -0.4043    0.0000 C   0  0  0  0  0  0  0  0  0  0  0  0
   -2.5391    0.8248    0.0000 C   0  0  0  0  0  0  0  0  0  0  0  0
   -1.0997    1.6496    0.0000 C   0  0  0  0  0  0  0  0  0  0  0  0
   -0.3881    0.4205    0.0000 C   0  0  0  0  0  0  0  0  0  0  0  0
    0.3073    0.8248    0.0000 C   0  0  0  0  0  0  0  0  0  0  0  0
    0.3396    1.6334    0.0000 C   0  0  0  0  0  0  0  0  0  0  0  0
    1.9083    0.8572    0.0000 C   0  0  0  0  0  0  0  0  0  0  0  0
   -3.9623    1.6496    0.0000 C   0  0  0  0  0  0  0  0  0  0  0  0
   -4.6415    0.4205    0.0000 C   0  0  0  0  0  0  0  0  0  0  0  0
    2.6361    0.4690    0.0000 C   0  0  0  0  0  0  0  0  0  0  0  0
   -3.9461   -1.6334    0.0000 C   0  0  0  0  0  0  0  0  0  0  0  0
   -1.8275    2.0539    0.0000 C   0  0  0  0  0  0  0  0  0  0  0  0
    3.3315    0.8733    0.0000 C   0  0  0  0  0  0  0  0  0  0  0  0
    4.0593    0.4690    0.0000 C   0  0  0  0  0  0  0  0  0  0  0  0
   -4.6739    2.0539    0.0000 C   0  0  0  0  0  0  0  0  0  0  0  0
   -5.3693    0.8248    0.0000 C   0  0  0  0  0  0  0  0  0  0  0  0
    2.6361   -0.3558    0.0000 C   0  0  0  0  0  0  0  0  0  0  0  0
    4.7224    0.8086    0.0000 C   0  0  0  0  0  0  0  0  0  0  0  0
    3.3477   -0.7763    0.0000 C   0  0  0  0  0  0  0  0  0  0  0  0
   -4.6739   -2.0539    0.0000 C   0  0  0  0  0  0  0  0  0  0  0  0
   -3.2345   -2.0539    0.0000 C   0  0  0  0  0  0  0  0  0  0  0  0
  1 32  1  0  0  0  0
  2 32  1  0  0  0  0
  3 15  1  0  0  0  0
  3 25  1  0  0  0  0
  4 29  1  0  0  0  0
  4 30  1  0  0  0  0
  5 21  2  0  0  0  0
  6 13  1  0  0  0  0
  6 22  1  0  0  0  0
  6 23  1  0  0  0  0
  7  8  2  0  0  0  0
  7 12  1  0  0  0  0
  8 15  1  0  0  0  0
  9 17  2  0  0  0  0
  9 20  1  0  0  0  0
 10 19  1  0  0  0  0
 10 21  1  0  0  0  0
 11 28  1  0  0  0  0
 11 33  2  0  0  0  0
 12 14  1  0  0  0  0
 12 16  2  0  0  0  0
 13 15  2  0  0  0  0
 13 16  1  0  0  0  0
 14 17  1  0  0  0  0
 14 18  2  0  0  0  0
 17 26  1  0  0  0  0
 18 19  1  0  0  0  0
 19 20  2  0  0  0  0
 21 24  1  0  0  0  0
 22 29  1  0  0  0  0
 23 30  1  0  0  0  0
 24 27  1  0  0  0  0
 24 31  2  0  0  0  0
 25 34  1  0  0  0  0
 25 35  1  0  0  0  0
 27 28  2  0  0  0  0
 28 32  1  0  0  0  0
 31 33  1  0  0  0  0
M  END
> <PUBCHEM_COMPOUND_ID_TYPE>
0

> <PUBCHEM_TOTAL_CHARGE>
0

> <PUBCHEM_SUBSTANCE_ID>
310943329

> <PUBCHEM_SUBSTANCE_VERSION>
1

> <PUBCHEM_EXT_DATASOURCE_NAME>
4488

> <PUBCHEM_EXT_DATASOURCE_REGID>
SCHEMBL16121391

> <PUBCHEM_SUBSTANCE_COMMENT>
InChI=1S/C24H26F2N6O3/c1-14(2)35-24-21(32-6-8-34-9-7-32)12-19(30-31-24)18-11-17(13-28-15(18)3)29-23(33)16-4-5-27-20(10-16)22(25)26/h4-5,10-14,22H,6-9H2,1-3H3,(H,29,33)
InChIKey=KRUNWNFDLHWBTA-UHFFFAOYSA-N

> <PUBCHEM_SUBSTANCE_SYNONYM>
SCHEMBL16121391

> <PUBCHEM_XREF_EXT_ID>
SCHEMBL16121391

> <PUBCHEM_EXT_DATASOURCE_URL>
https://www.surechembl.org/

> <PUBCHEM_EXT_SUBSTANCE_URL>
https://www.surechembl.org/chemical/SCHEMBL16121391

> <PUBCHEM_CID_ASSOCIATIONS>
117609754  1

> <PUBCHEM_COORDINATE_TYPE>
1
3

$$$$
