310928682
  -OEChem-07211613022D

 16 17  0     0  0  0  0  0  0999 V2000
   -2.3472   -0.6323    0.0000 F   0  0  0  0  0  0  0  0  0  0  0  0
   -1.6327   -1.0448    0.0000 F   0  0  0  0  0  0  0  0  0  0  0  0
   -2.3472    0.1927    0.0000 F   0  0  0  0  0  0  0  0  0  0  0  0
    0.9669   -1.4302    0.0000 O   0  0  0  0  0  0  0  0  0  0  0  0
    2.3472   -1.0604    0.0000 O   0  0  0  0  0  0  0  0  0  0  0  0
   -0.2038    1.4302    0.0000 N   0  0  0  0  0  0  0  0  0  0  0  0
    1.2953    1.2727    0.0000 N   0  0  0  0  0  0  0  0  0  0  0  0
    0.5107    0.1927    0.0000 C   0  0  0  0  0  0  0  0  0  0  0  0
    0.5107    1.0177    0.0000 C   0  0  0  0  0  0  0  0  0  0  0  0
   -0.9182    0.1927    0.0000 C   0  0  0  0  0  0  0  0  0  0  0  0
    1.2953   -0.0622    0.0000 C   0  0  0  0  0  0  0  0  0  0  0  0
   -0.2038   -0.2198    0.0000 C   0  0  0  0  0  0  0  0  0  0  0  0
   -1.6327   -0.2198    0.0000 C   0  0  0  0  0  0  0  0  0  0  0  0
   -0.9182    1.0177    0.0000 C   0  0  0  0  0  0  0  0  0  0  0  0
    1.7803    0.6052    0.0000 C   0  0  0  0  0  0  0  0  0  0  0  0
    1.5503   -0.8468    0.0000 C   0  0  0  0  0  0  0  0  0  0  0  0
  1 13  1  0  0  0  0
  2 13  1  0  0  0  0
  3 13  1  0  0  0  0
  4 16  2  0  0  0  0
  5 16  1  0  0  0  0
  6  9  2  0  0  0  0
  6 14  1  0  0  0  0
  7  9  1  0  0  0  0
  7 15  1  0  0  0  0
  8  9  1  0  0  0  0
  8 11  1  0  0  0  0
  8 12  2  0  0  0  0
 10 12  1  0  0  0  0
 10 13  1  0  0  0  0
 10 14  2  0  0  0  0
 11 15  2  0  0  0  0
 11 16  1  0  0  0  0
M  END
> <PUBCHEM_COMPOUND_ID_TYPE>
0

> <PUBCHEM_TOTAL_CHARGE>
0

> <PUBCHEM_SUBSTANCE_ID>
310928682

> <PUBCHEM_SUBSTANCE_VERSION>
1

> <PUBCHEM_EXT_DATASOURCE_NAME>
11752

> <PUBCHEM_EXT_DATASOURCE_REGID>
BD202069

> <PUBCHEM_SUBSTANCE_SYNONYM>
1171920-15-2
5-(Trifluoromethyl)-1H-pyrrolo[2,3-b]pyridine-3-carboxylic acid

> <PUBCHEM_GENERIC_REGISTRY_NAME>
1171920-15-2

> <PUBCHEM_XREF_EXT_ID>
BD202069

> <PUBCHEM_EXT_DATASOURCE_URL>
http://www.bidepharmatech.com/en/index.html

> <PUBCHEM_EXT_SUBSTANCE_URL>
http://www.bidepharmatech.com/en/goodsview_goodscode_BD202069.html

> <PUBCHEM_CID_ASSOCIATIONS>
46737904  1

> <PUBCHEM_COORDINATE_TYPE>
1
3

$$$$
