310938681
  -OEChem-07211613022D

 34 38  0     0  0  0  0  0  0999 V2000
   -4.3019    2.2215    0.0000 Cl  0  0  0  0  0  0  0  0  0  0  0  0
   -0.7295    1.8090    0.0000 O   0  0  0  0  0  0  0  0  0  0  0  0
   -0.0151    0.5715    0.0000 O   0  0  0  0  0  0  0  0  0  0  0  0
   -4.3019   -0.2535    0.0000 O   0  0  0  0  0  0  0  0  0  0  0  0
    0.6981    4.2840    0.0000 N   0  0  0  0  0  0  0  0  0  0  0  0
   -0.0151    3.0465    0.0000 N   0  0  0  0  0  0  0  0  0  0  0  0
    1.4139    3.0465    0.0000 N   0  0  0  0  0  0  0  0  0  0  0  0
    1.4139    0.5715    0.0000 N   0  0  0  0  0  0  0  0  0  0  0  0
    1.1106    5.5536    0.0000 C   0  0  0  0  0  0  0  0  0  0  0  0
    1.3655    4.7690    0.0000 C   0  0  0  0  0  0  0  0  0  0  0  0
    1.8643    5.8891    0.0000 C   0  0  0  0  0  0  0  0  0  0  0  0
    1.1968    6.3741    0.0000 C   0  0  0  0  0  0  0  0  0  0  0  0
    0.2856    5.5536    0.0000 C   0  0  0  0  0  0  0  0  0  0  0  0
    0.6994    3.4590    0.0000 C   0  0  0  0  0  0  0  0  0  0  0  0
    0.0307    4.7690    0.0000 C   0  0  0  0  0  0  0  0  0  0  0  0
   -0.0151    2.2215    0.0000 C   0  0  0  0  0  0  0  0  0  0  0  0
    0.6994    1.8090    0.0000 C   0  0  0  0  0  0  0  0  0  0  0  0
    1.4139    2.2215    0.0000 C   0  0  0  0  0  0  0  0  0  0  0  0
    0.6994    0.9840    0.0000 C   0  0  0  0  0  0  0  0  0  0  0  0
   -1.4440    2.2215    0.0000 C   0  0  0  0  0  0  0  0  0  0  0  0
   -2.1585    1.8090    0.0000 C   0  0  0  0  0  0  0  0  0  0  0  0
    2.1283    0.9840    0.0000 C   0  0  0  0  0  0  0  0  0  0  0  0
   -2.8730    2.2215    0.0000 C   0  0  0  0  0  0  0  0  0  0  0  0
   -3.5874    1.8090    0.0000 C   0  0  0  0  0  0  0  0  0  0  0  0
   -3.5874    0.9840    0.0000 C   0  0  0  0  0  0  0  0  0  0  0  0
   -2.1585    0.9840    0.0000 C   0  0  0  0  0  0  0  0  0  0  0  0
   -2.8730    0.5715    0.0000 C   0  0  0  0  0  0  0  0  0  0  0  0
    2.8428    0.5715    0.0000 C   0  0  0  0  0  0  0  0  0  0  0  0
    2.1283    1.8090    0.0000 C   0  0  0  0  0  0  0  0  0  0  0  0
    3.5573    1.8090    0.0000 C   0  0  0  0  0  0  0  0  0  0  0  0
    3.5573    0.9840    0.0000 C   0  0  0  0  0  0  0  0  0  0  0  0
    2.8428    2.2215    0.0000 C   0  0  0  0  0  0  0  0  0  0  0  0
   -4.3019    0.5715    0.0000 C   0  0  0  0  0  0  0  0  0  0  0  0
    4.2718    2.2215    0.0000 C   0  0  0  0  0  0  0  0  0  0  0  0
  1 24  1  0  0  0  0
  2 16  1  0  0  0  0
  2 20  1  0  0  0  0
  3 19  2  0  0  0  0
  4 33  1  0  0  0  0
  5 10  1  0  0  0  0
  5 14  1  0  0  0  0
  5 15  1  0  0  0  0
  6 14  1  0  0  0  0
  6 16  2  0  0  0  0
  7 14  2  0  0  0  0
  7 18  1  0  0  0  0
  8 19  1  0  0  0  0
 22  8  1  1  0  0  0
  9 10  1  0  0  0  0
  9 11  1  0  0  0  0
  9 12  1  0  0  0  0
  9 13  1  0  0  0  0
 11 12  1  0  0  0  0
 13 15  1  0  0  0  0
 16 17  1  0  0  0  0
 17 18  2  0  0  0  0
 17 19  1  0  0  0  0
 20 21  1  0  0  0  0
 21 23  2  0  0  0  0
 21 26  1  0  0  0  0
 22 28  1  0  0  0  0
 22 29  1  0  0  0  0
 23 24  1  0  0  0  0
 24 25  2  0  0  0  0
 25 27  1  0  0  0  0
 25 33  1  0  0  0  0
 26 27  2  0  0  0  0
 28 31  1  0  0  0  0
 29 32  1  0  0  0  0
 30 31  1  0  0  0  0
 30 32  1  0  0  0  0
 30 34  1  6  0  0  0
M  END
> <PUBCHEM_COMPOUND_ID_TYPE>
0

> <PUBCHEM_TOTAL_CHARGE>
0

> <PUBCHEM_SUBSTANCE_ID>
310938681

> <PUBCHEM_SUBSTANCE_VERSION>
1

> <PUBCHEM_EXT_DATASOURCE_NAME>
4488

> <PUBCHEM_EXT_DATASOURCE_REGID>
SCHEMBL16116595

> <PUBCHEM_SUBSTANCE_COMMENT>
InChI=1S/C26H33ClN4O3/c1-17-2-6-20(7-3-17)29-23(33)21-13-28-25(31-11-10-26(16-31)8-9-26)30-24(21)34-15-18-4-5-19(14-32)22(27)12-18/h4-5,12-13,17,20,32H,2-3,6-11,14-16H2,1H3,(H,29,33)/t17-,20-
InChIKey=BOPMQSHPHPOZFO-IRJFHVNHSA-N

> <PUBCHEM_SUBSTANCE_SYNONYM>
SCHEMBL16116595

> <PUBCHEM_XREF_EXT_ID>
SCHEMBL16116595

> <PUBCHEM_EXT_DATASOURCE_URL>
https://www.surechembl.org/

> <PUBCHEM_EXT_SUBSTANCE_URL>
https://www.surechembl.org/chemical/SCHEMBL16116595

> <PUBCHEM_CID_ASSOCIATIONS>
117606113  1

> <PUBCHEM_COORDINATE_TYPE>
1
3

> <PUBCHEM_BONDANNOTATIONS>
30  34  6
22  8  5

$$$$
