310940957
  -OEChem-07211613022D

 42 45  0     1  0  0  0  0  0999 V2000
   -5.8295   -0.7890    0.0000 F   0  0  0  0  0  0  0  0  0  0  0  0
   -5.7376    0.0536    0.0000 F   0  0  0  0  0  0  0  0  0  0  0  0
    5.5232   -1.0035    0.0000 O   0  0  0  0  0  0  0  0  0  0  0  0
    4.3894    0.9575    0.0000 O   0  0  0  0  0  0  0  0  0  0  0  0
    2.0147   -1.0035    0.0000 O   0  0  0  0  0  0  0  0  0  0  0  0
   -0.1456    1.0801    0.0000 O   0  0  0  0  0  0  0  0  0  0  0  0
   -2.3211   -1.0035    0.0000 O   0  0  0  0  0  0  0  0  0  0  0  0
    4.1749    2.7501    0.0000 O   0  0  0  0  0  0  0  0  0  0  0  0
    2.7348    0.2528    0.0000 N   0  0  0  0  0  0  0  0  0  0  0  0
    0.5745   -0.1609    0.0000 N   0  0  0  0  0  0  0  0  0  0  0  0
   -3.7459   -0.1609    0.0000 N   0  0  3  0  0  0  0  0  0  0  0  0
   -1.5857    0.2528    0.0000 N   0  0  0  0  0  0  0  0  0  0  0  0
    5.1248   -0.2834    0.0000 C   0  0  3  0  0  0  0  0  0  0  0  0
    4.3282    0.1302    0.0000 C   0  0  0  0  0  0  0  0  0  0  0  0
    4.7112   -0.9882    0.0000 C   0  0  0  0  0  0  0  0  0  0  0  0
    3.7000   -0.2528    0.0000 C   0  0  3  0  0  0  0  0  0  0  0  0
    5.8295    0.1455    0.0000 C   0  0  0  0  0  0  0  0  0  0  0  0
    3.7000   -1.3712    0.0000 C   0  0  0  0  0  0  0  0  0  0  0  0
    2.0300   -0.1149    0.0000 C   0  0  0  0  0  0  0  0  0  0  0  0
    1.2793    0.2834    0.0000 C   0  0  3  0  0  0  0  0  0  0  0  0
    2.9492   -1.7695    0.0000 C   0  0  0  0  0  0  0  0  0  0  0  0
   -5.0788   -0.4060    0.0000 C   0  0  0  0  0  0  0  0  0  0  0  0
    1.3100    1.1108    0.0000 C   0  0  0  0  0  0  0  0  0  0  0  0
   -0.1609    0.2681    0.0000 C   0  0  0  0  0  0  0  0  0  0  0  0
   -4.5120    0.1915    0.0000 C   0  0  0  0  0  0  0  0  0  0  0  0
    2.0147    1.5244    0.0000 C   0  0  0  0  0  0  0  0  0  0  0  0
    2.1985   -1.4478    0.0000 C   0  0  0  0  0  0  0  0  0  0  0  0
    2.8573   -2.5815    0.0000 C   0  0  0  0  0  0  0  0  0  0  0  0
   -4.6499   -1.1261    0.0000 C   0  0  0  0  0  0  0  0  0  0  0  0
   -0.8503   -0.1302    0.0000 C   0  0  3  0  0  0  0  0  0  0  0  0
   -3.8379   -0.9729    0.0000 C   0  0  0  0  0  0  0  0  0  0  0  0
   -3.0259    0.2834    0.0000 C   0  0  0  0  0  0  0  0  0  0  0  0
   -2.3058   -0.1149    0.0000 C   0  0  0  0  0  0  0  0  0  0  0  0
    1.6470   -2.0453    0.0000 C   0  0  0  0  0  0  0  0  0  0  0  0
    2.0453   -2.7501    0.0000 C   0  0  0  0  0  0  0  0  0  0  0  0
    2.7501    1.1108    0.0000 C   0  0  0  0  0  0  0  0  0  0  0  0
    2.0300    2.3671    0.0000 C   0  0  0  0  0  0  0  0  0  0  0  0
    3.4548    2.3671    0.0000 C   0  0  0  0  0  0  0  0  0  0  0  0
    3.4548    1.5244    0.0000 C   0  0  0  0  0  0  0  0  0  0  0  0
    2.7348    2.7501    0.0000 C   0  0  0  0  0  0  0  0  0  0  0  0
   -0.8656   -0.9575    0.0000 C   0  0  0  0  0  0  0  0  0  0  0  0
    4.9104    2.3364    0.0000 C   0  0  0  0  0  0  0  0  0  0  0  0
  1 22  1  0  0  0  0
  2 22  1  0  0  0  0
  3 13  1  0  0  0  0
  3 15  1  0  0  0  0
  4 14  2  0  0  0  0
  5 19  2  0  0  0  0
  6 24  2  0  0  0  0
  7 33  2  0  0  0  0
  8 38  1  0  0  0  0
  8 42  1  0  0  0  0
 16  9  1  6  0  0  0
  9 19  1  0  0  0  0
 20 10  1  1  0  0  0
 10 24  1  0  0  0  0
 11 25  1  0  0  0  0
 11 31  1  0  0  0  0
 11 32  1  0  0  0  0
 12 30  1  0  0  0  0
 12 33  1  0  0  0  0
 13 14  1  6  0  0  0
 13 15  1  0  0  0  0
 13 17  1  1  0  0  0
 14 16  1  0  0  0  0
 16 18  1  0  0  0  0
 18 21  1  0  0  0  0
 19 20  1  0  0  0  0
 20 23  1  0  0  0  0
 21 27  1  0  0  0  0
 21 28  1  0  0  0  0
 22 25  1  0  0  0  0
 22 29  1  0  0  0  0
 23 26  1  0  0  0  0
 24 30  1  0  0  0  0
 26 36  2  0  0  0  0
 26 37  1  0  0  0  0
 27 34  1  0  0  0  0
 28 35  1  0  0  0  0
 29 31  1  0  0  0  0
 30 41  1  6  0  0  0
 32 33  1  0  0  0  0
 34 35  1  0  0  0  0
 36 39  1  0  0  0  0
 37 40  2  0  0  0  0
 38 39  2  0  0  0  0
 38 40  1  0  0  0  0
M  END
> <PUBCHEM_COMPOUND_ID_TYPE>
0

> <PUBCHEM_TOTAL_CHARGE>
0

> <PUBCHEM_SUBSTANCE_ID>
310940957

> <PUBCHEM_SUBSTANCE_VERSION>
1

> <PUBCHEM_EXT_DATASOURCE_NAME>
4488

> <PUBCHEM_EXT_DATASOURCE_REGID>
SCHEMBL16118916

> <PUBCHEM_SUBSTANCE_COMMENT>
InChI=1S/C30H42F2N4O6/c1-19(33-25(37)16-36-13-12-30(31,32)17-36)27(39)35-24(15-21-8-10-22(41-3)11-9-21)28(40)34-23(14-20-6-4-5-7-20)26(38)29(2)18-42-29/h8-11,19-20,23-24H,4-7,12-18H2,1-3H3,(H,33,37)(H,34,40)(H,35,39)/t19-,23-,24-,29+/m0/s1
InChIKey=XFEBADUNDVRMQR-BWHDGOAMSA-N

> <PUBCHEM_SUBSTANCE_SYNONYM>
SCHEMBL16118916

> <PUBCHEM_XREF_EXT_ID>
SCHEMBL16118916

> <PUBCHEM_EXT_DATASOURCE_URL>
https://www.surechembl.org/

> <PUBCHEM_EXT_SUBSTANCE_URL>
https://www.surechembl.org/chemical/SCHEMBL16118916

> <PUBCHEM_CID_ASSOCIATIONS>
117607865  1

> <PUBCHEM_COORDINATE_TYPE>
1
3

> <PUBCHEM_BONDANNOTATIONS>
20  10  5
13  14  6
13  17  5
30  41  6
16  9  6

$$$$
