310947802
  -OEChem-07211613022D

 27 28  0     1  0  0  0  0  0999 V2000
    3.5049   -1.9719    0.0000 S   0  0  0  0  0  0  0  0  0  0  0  0
    2.6766   -1.9719    0.0000 O   0  0  0  0  0  0  0  0  0  0  0  0
   -0.1793   -1.9719    0.0000 O   0  0  0  0  0  0  0  0  0  0  0  0
   -0.1793    1.3290    0.0000 O   0  0  0  0  0  0  0  0  0  0  0  0
   -1.6134    0.5007    0.0000 O   0  0  0  0  0  0  0  0  0  0  0  0
    3.9129   -2.6890    0.0000 O   0  0  0  0  0  0  0  0  0  0  0  0
    3.9129   -1.2549    0.0000 O   0  0  0  0  0  0  0  0  0  0  0  0
    4.3209   -1.9719    0.0000 O   0  0  0  0  0  0  0  0  0  0  0  0
    0.5501   -0.7356    0.0000 N   0  0  0  0  0  0  0  0  0  0  0  0
    1.9843   -1.5516    0.0000 N   0  0  0  0  0  0  0  0  0  0  0  0
   -0.8716    0.0927    0.0000 N   0  0  0  0  0  0  0  0  0  0  0  0
   -3.6780   -0.2782    0.0000 N   0  0  0  0  0  0  0  0  0  0  0  0
   -3.7522    2.6890    0.0000 N   0  0  0  0  0  0  0  0  0  0  0  0
    0.5625    0.0927    0.0000 C   0  0  3  0  0  0  0  0  0  0  0  0
    0.5748   -1.5269    0.0000 C   0  0  0  0  0  0  0  0  0  0  0  0
   -0.2163    0.4884    0.0000 C   0  0  0  0  0  0  0  0  0  0  0  0
    1.2673   -1.1436    0.0000 C   0  0  0  0  0  0  0  0  0  0  0  0
    1.2549    0.5007    0.0000 C   0  0  0  0  0  0  0  0  0  0  0  0
    1.9596   -0.7480    0.0000 C   0  0  0  0  0  0  0  0  0  0  0  0
    1.9719    0.0927    0.0000 C   0  0  0  0  0  0  0  0  0  0  0  0
   -3.1093    0.3152    0.0000 C   0  0  3  0  0  0  0  0  0  0  0  0
   -3.3195    1.0941    0.0000 C   0  0  0  0  0  0  0  0  0  0  0  0
   -2.3057    0.0927    0.0000 C   0  0  0  0  0  0  0  0  0  0  0  0
   -4.1231    1.3290    0.0000 C   0  0  0  0  0  0  0  0  0  0  0  0
   -2.7384    1.6875    0.0000 C   0  0  0  0  0  0  0  0  0  0  0  0
   -4.3209    2.0832    0.0000 C   0  0  0  0  0  0  0  0  0  0  0  0
   -2.9486    2.4788    0.0000 C   0  0  0  0  0  0  0  0  0  0  0  0
  1  2  1  0  0  0  0
  1  6  2  0  0  0  0
  1  7  2  0  0  0  0
  1  8  1  0  0  0  0
  2 10  1  0  0  0  0
  3 15  2  0  0  0  0
  4 16  2  0  0  0  0
  5 11  1  0  0  0  0
  5 23  1  0  0  0  0
  9 14  1  0  0  0  0
  9 15  1  0  0  0  0
  9 17  1  0  0  0  0
 10 15  1  0  0  0  0
 11 16  1  0  0  0  0
 12 21  1  0  0  0  0
 13 26  1  0  0  0  0
 13 27  1  0  0  0  0
 14 16  1  6  0  0  0
 14 18  1  0  0  0  0
 17 19  1  0  0  0  0
 18 20  1  0  0  0  0
 19 20  1  0  0  0  0
 21 22  1  0  0  0  0
 21 23  1  0  0  0  0
 22 24  1  0  0  0  0
 22 25  1  0  0  0  0
 24 26  1  0  0  0  0
 25 27  1  0  0  0  0
M  END
> <PUBCHEM_COMPOUND_ID_TYPE>
0

> <PUBCHEM_TOTAL_CHARGE>
0

> <PUBCHEM_SUBSTANCE_ID>
310947802

> <PUBCHEM_SUBSTANCE_VERSION>
1

> <PUBCHEM_EXT_DATASOURCE_NAME>
4488

> <PUBCHEM_EXT_DATASOURCE_REGID>
SCHEMBL16125974

> <PUBCHEM_SUBSTANCE_COMMENT>
InChI=1S/C14H27N5O7S/c15-11(10-4-6-16-7-5-10)9-25-17-13(20)12-3-1-2-8-19(12)14(21)18-26-27(22,23)24/h10-12,16H,1-9,15H2,(H,17,20)(H,18,21)(H,22,23,24)/t11?,12-/m0/s1
InChIKey=JTOZOEPXKRBEQQ-KIYNQFGBSA-N

> <PUBCHEM_SUBSTANCE_SYNONYM>
SCHEMBL16125974

> <PUBCHEM_XREF_EXT_ID>
SCHEMBL16125974

> <PUBCHEM_EXT_DATASOURCE_URL>
https://www.surechembl.org/

> <PUBCHEM_EXT_SUBSTANCE_URL>
https://www.surechembl.org/chemical/SCHEMBL16125974

> <PUBCHEM_CID_ASSOCIATIONS>
117613471  1

> <PUBCHEM_COORDINATE_TYPE>
1
3

> <PUBCHEM_BONDANNOTATIONS>
14  16  6

$$$$
