310944334
  -OEChem-07211613022D

 26 29  0     1  0  0  0  0  0999 V2000
    3.5355    1.6204    0.0000 O   0  0  0  0  0  0  0  0  0  0  0  0
    0.0442    0.1915    0.0000 N   0  0  0  0  0  0  0  0  0  0  0  0
   -2.9315    0.1473    0.0000 N   0  0  0  0  0  0  0  0  0  0  0  0
   -3.2703    0.9133    0.0000 N   0  0  0  0  0  0  0  0  0  0  0  0
    0.8249   -0.1621    0.0000 C   0  0  3  0  0  0  0  0  0  0  0  0
    0.1178    1.0754    0.0000 C   0  0  3  0  0  0  0  0  0  0  0  0
   -3.5502   -0.4125    0.0000 C   0  0  0  0  0  0  0  0  0  0  0  0
    1.4878    1.0459    0.0000 C   0  0  0  0  0  0  0  0  0  0  0  0
   -4.2721    0.0148    0.0000 C   0  0  0  0  0  0  0  0  0  0  0  0
   -0.8986   -0.4272    0.0000 C   0  0  0  0  0  0  0  0  0  0  0  0
    0.7661    1.4437    0.0000 C   0  0  0  0  0  0  0  0  0  0  0  0
    1.4878    0.2063    0.0000 C   0  0  0  0  0  0  0  0  0  0  0  0
    1.2816    0.3977    0.0000 C   0  0  0  0  0  0  0  0  0  0  0  0
    0.8249    1.2079    0.0000 C   0  0  0  0  0  0  0  0  0  0  0  0
   -1.6204   -0.0294    0.0000 C   0  0  3  0  0  0  0  0  0  0  0  0
   -2.3128   -0.4272    0.0000 C   0  0  0  0  0  0  0  0  0  0  0  0
   -4.0952    0.8249    0.0000 C   0  0  0  0  0  0  0  0  0  0  0  0
   -3.5502   -1.2375    0.0000 C   0  0  0  0  0  0  0  0  0  0  0  0
   -4.9939   -0.4125    0.0000 C   0  0  0  0  0  0  0  0  0  0  0  0
    2.0771    1.6204    0.0000 C   0  0  0  0  0  0  0  0  0  0  0  0
   -4.2573   -1.6499    0.0000 C   0  0  0  0  0  0  0  0  0  0  0  0
   -4.9939   -1.2375    0.0000 C   0  0  0  0  0  0  0  0  0  0  0  0
   -1.6499    0.8986    0.0000 C   0  0  0  0  0  0  0  0  0  0  0  0
    2.8284    1.2227    0.0000 C   0  0  0  0  0  0  0  0  0  0  0  0
    4.2721    1.2227    0.0000 C   0  0  0  0  0  0  0  0  0  0  0  0
    4.9939    1.6499    0.0000 C   0  0  0  0  0  0  0  0  0  0  0  0
  1 24  1  0  0  0  0
  1 25  1  0  0  0  0
  5  2  1  6  0  0  0
  6  2  1  6  0  0  0
  2 10  1  0  0  0  0
  3  4  1  0  0  0  0
  3  7  1  0  0  0  0
  3 16  1  0  0  0  0
  4 17  2  0  0  0  0
  5 12  1  0  0  0  0
  5 13  1  0  0  0  0
  6 11  1  0  0  0  0
  6 14  1  0  0  0  0
  7  9  2  0  0  0  0
  7 18  1  0  0  0  0
  8 11  1  0  0  0  0
  8 12  1  0  0  0  0
  8 20  1  1  0  0  0
  9 17  1  0  0  0  0
  9 19  1  0  0  0  0
 10 15  1  0  0  0  0
 13 14  1  0  0  0  0
 15 16  1  0  0  0  0
 15 23  1  6  0  0  0
 18 21  2  0  0  0  0
 19 22  2  0  0  0  0
 20 24  1  0  0  0  0
 21 22  1  0  0  0  0
 25 26  1  0  0  0  0
M  END
> <PUBCHEM_COMPOUND_ID_TYPE>
0

> <PUBCHEM_TOTAL_CHARGE>
0

> <PUBCHEM_SUBSTANCE_ID>
310944334

> <PUBCHEM_SUBSTANCE_VERSION>
1

> <PUBCHEM_EXT_DATASOURCE_NAME>
4488

> <PUBCHEM_EXT_DATASOURCE_REGID>
SCHEMBL16122409

> <PUBCHEM_SUBSTANCE_COMMENT>
InChI=1S/C22H33N3O/c1-3-26-11-10-18-12-20-8-9-21(13-18)24(20)15-17(2)16-25-22-7-5-4-6-19(22)14-23-25/h4-7,14,17-18,20-21H,3,8-13,15-16H2,1-2H3/t17-,18-,20+,21-/m1/s1
InChIKey=BFPABIIHUPVWCO-RMVXJAJNSA-N

> <PUBCHEM_SUBSTANCE_SYNONYM>
SCHEMBL16122409

> <PUBCHEM_XREF_EXT_ID>
SCHEMBL16122409

> <PUBCHEM_EXT_DATASOURCE_URL>
https://www.surechembl.org/

> <PUBCHEM_EXT_SUBSTANCE_URL>
https://www.surechembl.org/chemical/SCHEMBL16122409

> <PUBCHEM_CID_ASSOCIATIONS>
117610591  1

> <PUBCHEM_COORDINATE_TYPE>
1
3

> <PUBCHEM_BONDANNOTATIONS>
15  23  6
5  2  6
6  2  6
8  20  5

$$$$
