310935262
  -OEChem-07211613022D

 31 33  0     0  0  0  0  0  0999 V2000
  -10.0531   -2.2593    0.0000 F   0  0  0  0  0  0  0  0  0  0  0  0
  -10.2356   -3.4117    0.0000 F   0  0  0  0  0  0  0  0  0  0  0  0
   -8.9007   -2.4418    0.0000 F   0  0  0  0  0  0  0  0  0  0  0  0
   -9.0832   -3.5942    0.0000 O   0  0  0  0  0  0  0  0  0  0  0  0
   -0.9232   -6.4143    0.0000 O   0  0  0  0  0  0  0  0  0  0  0  0
    0.5057   -6.4143    0.0000 O   0  0  0  0  0  0  0  0  0  0  0  0
   -5.8013   -3.2493    0.0000 N   0  0  0  0  0  0  0  0  0  0  0  0
   -5.2493   -3.8624    0.0000 N   0  0  0  0  0  0  0  0  0  0  0  0
   -4.5818   -2.7063    0.0000 N   0  0  0  0  0  0  0  0  0  0  0  0
   -0.2088   -5.1768    0.0000 N   0  0  0  0  0  0  0  0  0  0  0  0
   -4.4956   -3.5268    0.0000 C   0  0  0  0  0  0  0  0  0  0  0  0
   -6.6218   -3.3355    0.0000 C   0  0  0  0  0  0  0  0  0  0  0  0
   -3.7811   -3.9393    0.0000 C   0  0  0  0  0  0  0  0  0  0  0  0
   -5.3888   -2.5348    0.0000 C   0  0  0  0  0  0  0  0  0  0  0  0
   -8.2628   -3.5080    0.0000 C   0  0  0  0  0  0  0  0  0  0  0  0
   -6.9574   -4.0892    0.0000 C   0  0  0  0  0  0  0  0  0  0  0  0
   -7.1067   -2.6681    0.0000 C   0  0  0  0  0  0  0  0  0  0  0  0
   -3.7811   -4.7643    0.0000 C   0  0  0  0  0  0  0  0  0  0  0  0
   -3.0667   -3.5268    0.0000 C   0  0  0  0  0  0  0  0  0  0  0  0
   -7.7778   -4.1754    0.0000 C   0  0  0  0  0  0  0  0  0  0  0  0
   -7.9272   -2.7543    0.0000 C   0  0  0  0  0  0  0  0  0  0  0  0
   -2.3522   -4.7643    0.0000 C   0  0  0  0  0  0  0  0  0  0  0  0
   -3.0667   -5.1768    0.0000 C   0  0  0  0  0  0  0  0  0  0  0  0
   -2.3522   -3.9393    0.0000 C   0  0  0  0  0  0  0  0  0  0  0  0
   -9.5682   -2.9268    0.0000 C   0  0  0  0  0  0  0  0  0  0  0  0
   -1.6377   -5.1768    0.0000 C   0  0  0  0  0  0  0  0  0  0  0  0
   -0.9232   -4.7643    0.0000 C   0  0  0  0  0  0  0  0  0  0  0  0
   -0.2088   -6.0018    0.0000 C   0  0  0  0  0  0  0  0  0  0  0  0
    0.5057   -4.7643    0.0000 C   0  0  0  0  0  0  0  0  0  0  0  0
    1.2202   -5.1768    0.0000 C   0  0  0  0  0  0  0  0  0  0  0  0
    1.9346   -4.7643    0.0000 C   0  0  0  0  0  0  0  0  0  0  0  0
  1 25  1  0  0  0  0
  2 25  1  0  0  0  0
  3 25  1  0  0  0  0
  4 15  1  0  0  0  0
  4 25  1  0  0  0  0
  5 28  2  0  0  0  0
  6 28  1  0  0  0  0
  7  8  1  0  0  0  0
  7 12  1  0  0  0  0
  7 14  1  0  0  0  0
  8 11  2  0  0  0  0
  9 11  1  0  0  0  0
  9 14  2  0  0  0  0
 10 27  1  0  0  0  0
 10 28  1  0  0  0  0
 10 29  1  0  0  0  0
 11 13  1  0  0  0  0
 12 16  2  0  0  0  0
 12 17  1  0  0  0  0
 13 18  2  0  0  0  0
 13 19  1  0  0  0  0
 15 20  2  0  0  0  0
 15 21  1  0  0  0  0
 16 20  1  0  0  0  0
 17 21  2  0  0  0  0
 18 23  1  0  0  0  0
 19 24  2  0  0  0  0
 22 23  2  0  0  0  0
 22 24  1  0  0  0  0
 22 26  1  0  0  0  0
 26 27  1  0  0  0  0
 29 30  1  0  0  0  0
 30 31  2  0  0  0  0
M  END
> <PUBCHEM_COMPOUND_ID_TYPE>
0

> <PUBCHEM_TOTAL_CHARGE>
0

> <PUBCHEM_SUBSTANCE_ID>
310935262

> <PUBCHEM_SUBSTANCE_VERSION>
1

> <PUBCHEM_EXT_DATASOURCE_NAME>
4488

> <PUBCHEM_EXT_DATASOURCE_REGID>
SCHEMBL16112792

> <PUBCHEM_SUBSTANCE_COMMENT>
InChI=1S/C21H19F3N4O3/c1-2-12-27(20(29)30)13-11-15-3-5-16(6-4-15)19-25-14-28(26-19)17-7-9-18(10-8-17)31-21(22,23)24/h2-10,14H,1,11-13H2,(H,29,30)
InChIKey=OKVUGLMQYRFOCZ-UHFFFAOYSA-N

> <PUBCHEM_SUBSTANCE_SYNONYM>
SCHEMBL16112792

> <PUBCHEM_XREF_EXT_ID>
SCHEMBL16112792

> <PUBCHEM_EXT_DATASOURCE_URL>
https://www.surechembl.org/

> <PUBCHEM_EXT_SUBSTANCE_URL>
https://www.surechembl.org/chemical/SCHEMBL16112792

> <PUBCHEM_CID_ASSOCIATIONS>
117603334  1

> <PUBCHEM_COORDINATE_TYPE>
1
3

$$$$
