310940548
  -OEChem-07211613022D

 15 16  0     0  0  0  0  0  0999 V2000
   -2.0993   -0.4682    0.0000 O   0  0  0  0  0  0  0  0  0  0  0  0
   -0.8155    1.4650    0.0000 O   0  0  0  0  0  0  0  0  0  0  0  0
   -1.6764   -1.1931    0.0000 N   0  0  0  0  0  0  0  0  0  0  0  0
    2.0993   -0.2115    0.0000 N   0  0  0  0  0  0  0  0  0  0  0  0
   -0.7853   -0.1208    0.0000 C   0  0  0  0  0  0  0  0  0  0  0  0
   -0.0604    0.3020    0.0000 C   0  0  0  0  0  0  0  0  0  0  0  0
   -1.5405    0.2265    0.0000 C   0  0  0  0  0  0  0  0  0  0  0  0
   -0.8760   -0.9364    0.0000 C   0  0  0  0  0  0  0  0  0  0  0  0
   -0.0604    1.1327    0.0000 C   0  0  0  0  0  0  0  0  0  0  0  0
    0.6646   -0.0906    0.0000 C   0  0  0  0  0  0  0  0  0  0  0  0
    1.3592    0.3172    0.0000 C   0  0  0  0  0  0  0  0  0  0  0  0
    0.6494    1.5254    0.0000 C   0  0  0  0  0  0  0  0  0  0  0  0
    1.3744    1.1327    0.0000 C   0  0  0  0  0  0  0  0  0  0  0  0
   -1.7066    1.0421    0.0000 C   0  0  0  0  0  0  0  0  0  0  0  0
   -0.2718   -1.5254    0.0000 C   0  0  0  0  0  0  0  0  0  0  0  0
  1  3  1  0  0  0  0
  1  7  1  0  0  0  0
  2  9  1  0  0  0  0
  3  8  2  0  0  0  0
  4 11  1  0  0  0  0
  5  6  1  0  0  0  0
  5  7  2  0  0  0  0
  5  8  1  0  0  0  0
  6  9  1  0  0  0  0
  6 10  2  0  0  0  0
  7 14  1  0  0  0  0
  8 15  1  0  0  0  0
  9 12  2  0  0  0  0
 10 11  1  0  0  0  0
 11 13  2  0  0  0  0
 12 13  1  0  0  0  0
M  END
> <PUBCHEM_COMPOUND_ID_TYPE>
0

> <PUBCHEM_TOTAL_CHARGE>
0

> <PUBCHEM_SUBSTANCE_ID>
310940548

> <PUBCHEM_SUBSTANCE_VERSION>
1

> <PUBCHEM_EXT_DATASOURCE_NAME>
4488

> <PUBCHEM_EXT_DATASOURCE_REGID>
SCHEMBL16118502

> <PUBCHEM_SUBSTANCE_COMMENT>
InChI=1S/C11H12N2O2/c1-6-11(7(2)15-13-6)9-5-8(12)3-4-10(9)14/h3-5,14H,12H2,1-2H3
InChIKey=WSISBBVHAWAXDV-UHFFFAOYSA-N

> <PUBCHEM_SUBSTANCE_SYNONYM>
SCHEMBL16118502

> <PUBCHEM_XREF_EXT_ID>
SCHEMBL16118502

> <PUBCHEM_EXT_DATASOURCE_URL>
https://www.surechembl.org/

> <PUBCHEM_EXT_SUBSTANCE_URL>
https://www.surechembl.org/chemical/SCHEMBL16118502

> <PUBCHEM_CID_ASSOCIATIONS>
117607547  1

> <PUBCHEM_COORDINATE_TYPE>
1
3

$$$$
