310938050
  -OEChem-07211613022D

 28 31  0     0  0  0  0  0  0999 V2000
    0.7363   -0.8590    0.0000 F   0  0  0  0  0  0  0  0  0  0  0  0
    1.6199   -2.2334    0.0000 F   0  0  0  0  0  0  0  0  0  0  0  0
    1.4235   -0.4418    0.0000 F   0  0  0  0  0  0  0  0  0  0  0  0
    3.5097    0.0000    0.0000 O   0  0  0  0  0  0  0  0  0  0  0  0
    2.8470   -1.2272    0.0000 N   0  0  0  0  0  0  0  0  0  0  0  0
    3.5342   -3.2643    0.0000 N   0  0  0  0  0  0  0  0  0  0  0  0
    5.0559   -2.3316    0.0000 N   0  0  0  0  0  0  0  0  0  0  0  0
    5.5222   -1.6444    0.0000 N   0  0  0  0  0  0  0  0  0  0  0  0
    0.7117   -2.4543    0.0000 N   0  0  0  0  0  0  0  0  0  0  0  0
    2.8470   -2.0617    0.0000 C   0  0  0  0  0  0  0  0  0  0  0  0
    3.5342   -2.4789    0.0000 C   0  0  0  0  0  0  0  0  0  0  0  0
    4.2705   -2.0617    0.0000 C   0  0  0  0  0  0  0  0  0  0  0  0
    4.2705   -1.2272    0.0000 C   0  0  0  0  0  0  0  0  0  0  0  0
    3.5342   -0.8099    0.0000 C   0  0  0  0  0  0  0  0  0  0  0  0
    2.1353   -2.4789    0.0000 C   0  0  0  0  0  0  0  0  0  0  0  0
    2.1353   -3.2643    0.0000 C   0  0  0  0  0  0  0  0  0  0  0  0
    2.1353   -0.8344    0.0000 C   0  0  0  0  0  0  0  0  0  0  0  0
    5.0559   -0.9818    0.0000 C   0  0  0  0  0  0  0  0  0  0  0  0
    1.4235   -3.6815    0.0000 C   0  0  0  0  0  0  0  0  0  0  0  0
    2.8470   -3.6815    0.0000 C   0  0  0  0  0  0  0  0  0  0  0  0
    1.4480   -1.2517    0.0000 C   0  0  0  0  0  0  0  0  0  0  0  0
    0.7117   -3.2643    0.0000 C   0  0  0  0  0  0  0  0  0  0  0  0
    1.3989   -4.4914    0.0000 C   0  0  0  0  0  0  0  0  0  0  0  0
    0.0000   -3.6815    0.0000 C   0  0  0  0  0  0  0  0  0  0  0  0
    0.7117   -4.9086    0.0000 C   0  0  0  0  0  0  0  0  0  0  0  0
    0.0000   -4.4914    0.0000 C   0  0  0  0  0  0  0  0  0  0  0  0
    1.3989   -2.0371    0.0000 C   0  0  0  0  0  0  0  0  0  0  0  0
    0.0000   -2.0617    0.0000 C   0  0  0  0  0  0  0  0  0  0  0  0
  1 21  1  0  0  0  0
  2 21  1  0  0  0  0
  3 21  1  0  0  0  0
  4 14  2  0  0  0  0
  5 10  1  0  0  0  0
  5 14  1  0  0  0  0
  5 17  1  0  0  0  0
  6 11  2  0  0  0  0
  6 20  1  0  0  0  0
  7  8  1  0  0  0  0
  7 12  1  0  0  0  0
  8 18  2  0  0  0  0
  9 22  1  0  0  0  0
  9 27  1  0  0  0  0
  9 28  1  0  0  0  0
 10 11  1  0  0  0  0
 10 15  2  0  0  0  0
 11 12  1  0  0  0  0
 12 13  2  0  0  0  0
 13 14  1  0  0  0  0
 13 18  1  0  0  0  0
 15 16  1  0  0  0  0
 16 19  1  0  0  0  0
 16 20  2  0  0  0  0
 17 21  1  0  0  0  0
 19 22  1  0  0  0  0
 19 23  2  0  0  0  0
 22 24  2  0  0  0  0
 23 25  1  0  0  0  0
 24 26  1  0  0  0  0
 25 26  2  0  0  0  0
M  END
> <PUBCHEM_COMPOUND_ID_TYPE>
0

> <PUBCHEM_TOTAL_CHARGE>
0

> <PUBCHEM_SUBSTANCE_ID>
310938050

> <PUBCHEM_SUBSTANCE_VERSION>
1

> <PUBCHEM_EXT_DATASOURCE_NAME>
4488

> <PUBCHEM_EXT_DATASOURCE_REGID>
SCHEMBL16115891

> <PUBCHEM_SUBSTANCE_COMMENT>
InChI=1S/C19H16F3N5O/c1-26(2)14-6-4-3-5-12(14)11-7-15-17(23-8-11)16-13(9-24-25-16)18(28)27(15)10-19(20,21)22/h3-9H,10H2,1-2H3,(H,24,25)
InChIKey=CBRVJXZBOSVQQV-UHFFFAOYSA-N

> <PUBCHEM_SUBSTANCE_SYNONYM>
SCHEMBL16115891

> <PUBCHEM_XREF_EXT_ID>
SCHEMBL16115891

> <PUBCHEM_EXT_DATASOURCE_URL>
https://www.surechembl.org/

> <PUBCHEM_EXT_SUBSTANCE_URL>
https://www.surechembl.org/chemical/SCHEMBL16115891

> <PUBCHEM_CID_ASSOCIATIONS>
86298895  1

> <PUBCHEM_COORDINATE_TYPE>
1
3

$$$$
