310941791
  -OEChem-07211613022D

 40 45  0     1  0  0  0  0  0999 V2000
    4.5894    1.4722    0.0000 S   0  0  0  0  0  0  0  0  0  0  0  0
    0.6384   -1.1717    0.0000 O   0  0  0  0  0  0  0  0  0  0  0  0
    4.5894    0.6009    0.0000 O   0  0  0  0  0  0  0  0  0  0  0  0
    4.5894    2.3435    0.0000 O   0  0  0  0  0  0  0  0  0  0  0  0
    2.7867    0.1352    0.0000 N   0  0  0  0  0  0  0  0  0  0  0  0
   -2.2309   -0.4206    0.0000 N   0  0  0  0  0  0  0  0  0  0  0  0
    3.5829   -0.9915    0.0000 N   0  0  0  0  0  0  0  0  0  0  0  0
    4.0636   -0.2855    0.0000 N   0  0  0  0  0  0  0  0  0  0  0  0
    3.5979    1.2469    0.0000 N   0  0  0  0  0  0  0  0  0  0  0  0
    1.3595    0.1502    0.0000 C   0  0  0  0  0  0  0  0  0  0  0  0
    2.7717   -0.7211    0.0000 C   0  0  0  0  0  0  0  0  0  0  0  0
    1.3295   -0.7211    0.0000 C   0  0  0  0  0  0  0  0  0  0  0  0
    0.6234    0.5859    0.0000 C   0  0  0  0  0  0  0  0  0  0  0  0
    3.5678    0.4056    0.0000 C   0  0  0  0  0  0  0  0  0  0  0  0
    2.0506    0.5559    0.0000 C   0  0  0  0  0  0  0  0  0  0  0  0
    2.0807   -1.1568    0.0000 C   0  0  0  0  0  0  0  0  0  0  0  0
   -3.0871   -0.4206    0.0000 C   0  0  0  0  0  0  0  0  0  0  0  0
   -0.1427    0.5708    0.0000 C   0  0  0  0  0  0  0  0  0  0  0  0
    0.2329    1.2919    0.0000 C   0  0  0  0  0  0  0  0  0  0  0  0
   -1.7952   -1.1417    0.0000 C   0  0  3  0  0  0  0  0  0  0  0  0
   -1.7952    0.3004    0.0000 C   0  0  3  0  0  0  0  0  0  0  0  0
   -0.6084   -0.3906    0.0000 C   0  0  0  0  0  0  0  0  0  0  0  0
   -3.9735    0.1803    0.0000 C   0  0  0  0  0  0  0  0  0  0  0  0
   -3.9735   -1.0366    0.0000 C   0  0  0  0  0  0  0  0  0  0  0  0
    0.2178   -0.3906    0.0000 C   0  0  0  0  0  0  0  0  0  0  0  0
   -1.0140    0.3305    0.0000 C   0  0  0  0  0  0  0  0  0  0  0  0
   -1.0140   -1.1568    0.0000 C   0  0  0  0  0  0  0  0  0  0  0  0
   -4.7096   -0.7211    0.0000 C   0  0  0  0  0  0  0  0  0  0  0  0
   -3.9284    0.9915    0.0000 C   0  0  0  0  0  0  0  0  0  0  0  0
   -3.8983   -1.8628    0.0000 C   0  0  0  0  0  0  0  0  0  0  0  0
   -4.7096   -0.1803    0.0000 C   0  0  0  0  0  0  0  0  0  0  0  0
   -1.4647   -0.7061    0.0000 C   0  0  0  0  0  0  0  0  0  0  0  0
   -1.4347   -0.2103    0.0000 C   0  0  0  0  0  0  0  0  0  0  0  0
    5.4006    1.2318    0.0000 C   0  0  0  0  0  0  0  0  0  0  0  0
   -5.3856   -1.1868    0.0000 C   0  0  0  0  0  0  0  0  0  0  0  0
   -4.5894    1.4572    0.0000 C   0  0  0  0  0  0  0  0  0  0  0  0
   -4.5594   -2.3435    0.0000 C   0  0  0  0  0  0  0  0  0  0  0  0
   -5.4006    0.2704    0.0000 C   0  0  0  0  0  0  0  0  0  0  0  0
   -5.3255   -1.9980    0.0000 C   0  0  0  0  0  0  0  0  0  0  0  0
   -5.3406    1.1117    0.0000 C   0  0  0  0  0  0  0  0  0  0  0  0
  1  3  2  0  0  0  0
  1  4  2  0  0  0  0
  1  9  1  0  0  0  0
  1 34  1  0  0  0  0
  2 12  1  0  0  0  0
  2 25  1  0  0  0  0
  5 11  1  0  0  0  0
  5 14  1  0  0  0  0
  5 15  1  0  0  0  0
  6 17  1  0  0  0  0
  6 20  1  0  0  0  0
  6 21  1  0  0  0  0
  7  8  1  0  0  0  0
  7 11  2  0  0  0  0
  8 14  2  0  0  0  0
  9 14  1  0  0  0  0
 10 12  1  0  0  0  0
 10 13  1  0  0  0  0
 10 15  2  0  0  0  0
 11 16  1  0  0  0  0
 12 16  2  0  0  0  0
 13 18  1  0  0  0  0
 13 19  1  0  0  0  0
 17 23  1  0  0  0  0
 17 24  1  0  0  0  0
 18 19  1  0  0  0  0
 20 27  1  0  0  0  0
 20 32  1  1  0  0  0
 21 26  1  0  0  0  0
 21 33  1  1  0  0  0
 22 25  1  6  0  0  0
 22 26  1  0  0  0  0
 22 27  1  0  0  0  0
 23 29  2  0  0  0  0
 23 31  1  0  0  0  0
 24 28  2  0  0  0  0
 24 30  1  0  0  0  0
 28 35  1  0  0  0  0
 29 36  1  0  0  0  0
 30 37  2  0  0  0  0
 31 38  2  0  0  0  0
 35 39  2  0  0  0  0
 36 40  2  0  0  0  0
 37 39  1  0  0  0  0
 38 40  1  0  0  0  0
M  END
> <PUBCHEM_COMPOUND_ID_TYPE>
0

> <PUBCHEM_TOTAL_CHARGE>
0

> <PUBCHEM_SUBSTANCE_ID>
310941791

> <PUBCHEM_SUBSTANCE_VERSION>
1

> <PUBCHEM_EXT_DATASOURCE_NAME>
4488

> <PUBCHEM_EXT_DATASOURCE_REGID>
SCHEMBL16119822

> <PUBCHEM_SUBSTANCE_COMMENT>
InChI=1S/C31H37N5O3S/c1-21-16-23(17-22(2)36(21)30(25-10-6-4-7-11-25)26-12-8-5-9-13-26)20-39-28-18-29-32-33-31(34-40(3,37)38)35(29)19-27(28)24-14-15-24/h4-13,18-19,21-24,30H,14-17,20H2,1-3H3,(H,33,34)/t21-,22+,23-
InChIKey=NFJBDMZXUVYUDZ-NUNAXRQHSA-N

> <PUBCHEM_SUBSTANCE_SYNONYM>
SCHEMBL16119822

> <PUBCHEM_XREF_EXT_ID>
SCHEMBL16119822

> <PUBCHEM_EXT_DATASOURCE_URL>
https://www.surechembl.org/

> <PUBCHEM_EXT_SUBSTANCE_URL>
https://www.surechembl.org/chemical/SCHEMBL16119822

> <PUBCHEM_CID_ASSOCIATIONS>
117608540  1

> <PUBCHEM_COORDINATE_TYPE>
1
3

> <PUBCHEM_BONDANNOTATIONS>
20  32  5
21  33  5
22  25  6

$$$$
