310942924
  -OEChem-07211613022D

 32 35  0     0  0  0  0  0  0999 V2000
   -1.8603    1.1887    0.0000 O   0  0  0  0  0  0  0  0  0  0  0  0
    1.8295   -1.1887    0.0000 O   0  0  0  0  0  0  0  0  0  0  0  0
   -4.3150    2.5936    0.0000 O   0  0  0  0  0  0  0  0  0  0  0  0
    4.3150   -2.5473    0.0000 O   0  0  0  0  0  0  0  0  0  0  0  0
   -4.2995    1.1733    0.0000 N   0  0  0  0  0  0  0  0  0  0  0  0
    4.2841   -1.1270    0.0000 N   0  0  0  0  0  0  0  0  0  0  0  0
   -2.8175   -0.3088    0.0000 N   0  0  0  0  0  0  0  0  0  0  0  0
    2.7557    0.3242    0.0000 N   0  0  0  0  0  0  0  0  0  0  0  0
   -3.0799    1.8835    0.0000 N   0  0  0  0  0  0  0  0  0  0  0  0
    3.0799   -1.8681    0.0000 N   0  0  0  0  0  0  0  0  0  0  0  0
   -4.1297   -0.3088    0.0000 N   0  0  0  0  0  0  0  0  0  0  0  0
    4.0834    0.3705    0.0000 N   0  0  0  0  0  0  0  0  0  0  0  0
   -3.0799    0.4632    0.0000 C   0  0  0  0  0  0  0  0  0  0  0  0
    3.0336   -0.4477    0.0000 C   0  0  0  0  0  0  0  0  0  0  0  0
   -3.8981    0.4786    0.0000 C   0  0  0  0  0  0  0  0  0  0  0  0
    3.8518   -0.4323    0.0000 C   0  0  0  0  0  0  0  0  0  0  0  0
   -2.6785    1.2042    0.0000 C   0  0  0  0  0  0  0  0  0  0  0  0
    2.6476   -1.1733    0.0000 C   0  0  0  0  0  0  0  0  0  0  0  0
   -3.8981    1.8835    0.0000 C   0  0  0  0  0  0  0  0  0  0  0  0
    3.8827   -1.8372    0.0000 C   0  0  0  0  0  0  0  0  0  0  0  0
   -3.4659   -0.7873    0.0000 C   0  0  0  0  0  0  0  0  0  0  0  0
    3.3887    0.8182    0.0000 C   0  0  0  0  0  0  0  0  0  0  0  0
    1.8758   -0.1853    0.0000 C   0  0  0  0  0  0  0  0  0  0  0  0
   -1.9221    0.2316    0.0000 C   0  0  0  0  0  0  0  0  0  0  0  0
   -5.1178    1.1424    0.0000 C   0  0  0  0  0  0  0  0  0  0  0  0
    5.1178   -1.0961    0.0000 C   0  0  0  0  0  0  0  0  0  0  0  0
   -2.6940    2.6090    0.0000 C   0  0  0  0  0  0  0  0  0  0  0  0
    2.6940   -2.6090    0.0000 C   0  0  0  0  0  0  0  0  0  0  0  0
    1.0884    0.3397    0.0000 C   0  0  0  0  0  0  0  0  0  0  0  0
   -1.0884   -0.1853    0.0000 C   0  0  0  0  0  0  0  0  0  0  0  0
    0.3937   -0.1853    0.0000 C   0  0  0  0  0  0  0  0  0  0  0  0
   -0.3319    0.2779    0.0000 C   0  0  0  0  0  0  0  0  0  0  0  0
  1 17  2  0  0  0  0
  2 18  2  0  0  0  0
  3 19  2  0  0  0  0
  4 20  2  0  0  0  0
  5 15  1  0  0  0  0
  5 19  1  0  0  0  0
  5 25  1  0  0  0  0
  6 16  1  0  0  0  0
  6 20  1  0  0  0  0
  6 26  1  0  0  0  0
  7 13  1  0  0  0  0
  7 21  1  0  0  0  0
  7 24  1  0  0  0  0
  8 14  1  0  0  0  0
  8 22  1  0  0  0  0
  8 23  1  0  0  0  0
  9 17  1  0  0  0  0
  9 19  1  0  0  0  0
  9 27  1  0  0  0  0
 10 18  1  0  0  0  0
 10 20  1  0  0  0  0
 10 28  1  0  0  0  0
 11 15  1  0  0  0  0
 11 21  2  0  0  0  0
 12 16  1  0  0  0  0
 12 22  2  0  0  0  0
 13 15  2  0  0  0  0
 13 17  1  0  0  0  0
 14 16  2  0  0  0  0
 14 18  1  0  0  0  0
 23 29  1  0  0  0  0
 24 30  1  0  0  0  0
 29 31  1  0  0  0  0
 30 32  1  0  0  0  0
 31 32  1  0  0  0  0
M  END
> <PUBCHEM_COMPOUND_ID_TYPE>
0

> <PUBCHEM_TOTAL_CHARGE>
0

> <PUBCHEM_SUBSTANCE_ID>
310942924

> <PUBCHEM_SUBSTANCE_VERSION>
1

> <PUBCHEM_EXT_DATASOURCE_NAME>
4488

> <PUBCHEM_EXT_DATASOURCE_REGID>
SCHEMBL16120982

> <PUBCHEM_SUBSTANCE_COMMENT>
InChI=1S/C20H26N8O4/c1-23-15-13(17(29)25(3)19(23)31)27(11-21-15)9-7-5-6-8-10-28-12-22-16-14(28)18(30)26(4)20(32)24(16)2/h11-12H,5-10H2,1-4H3
InChIKey=LZSKIJIBFGKLEL-UHFFFAOYSA-N

> <PUBCHEM_SUBSTANCE_SYNONYM>
SCHEMBL16120982

> <PUBCHEM_XREF_EXT_ID>
SCHEMBL16120982

> <PUBCHEM_EXT_DATASOURCE_URL>
https://www.surechembl.org/

> <PUBCHEM_EXT_SUBSTANCE_URL>
https://www.surechembl.org/chemical/SCHEMBL16120982

> <PUBCHEM_CID_ASSOCIATIONS>
101252002  1

> <PUBCHEM_COORDINATE_TYPE>
1
3

$$$$
