310929719
  -OEChem-07211613022D

 86 94  0     1  0  0  0  0  0999 V2000
    0.0000    1.5851    0.0000 O   0  0  0  0  0  0  0  0  0  0  0  0
   -6.5279   -5.6013    0.0000 O   0  0  0  0  0  0  0  0  0  0  0  0
   -3.1084   -0.3273    0.0000 O   0  0  0  0  0  0  0  0  0  0  0  0
   -6.5094   -1.9783    0.0000 O   0  0  0  0  0  0  0  0  0  0  0  0
   -2.7412    1.2813    0.0000 O   0  0  0  0  0  0  0  0  0  0  0  0
   -5.3427   -3.1451    0.0000 O   0  0  0  0  0  0  0  0  0  0  0  0
  -24.8231    7.9446    0.0000 O   0  0  0  0  0  0  0  0  0  0  0  0
  -24.0651    5.1158    0.0000 O   0  0  0  0  0  0  0  0  0  0  0  0
  -21.7913    7.2410    0.0000 O   0  0  0  0  0  0  0  0  0  0  0  0
  -10.7493    4.2823    0.0000 O   0  0  0  0  0  0  0  0  0  0  0  0
  -13.1399    3.6417    0.0000 O   0  0  0  0  0  0  0  0  0  0  0  0
  -19.2443    5.7045    0.0000 O   0  0  0  0  0  0  0  0  0  0  0  0
  -17.2807    4.7513    0.0000 O   0  0  0  0  0  0  0  0  0  0  0  0
  -15.1036    4.5950    0.0000 O   0  0  0  0  0  0  0  0  0  0  0  0
    0.7433    0.4021    0.0000 N   0  0  0  0  0  0  0  0  0  0  0  0
   -7.9409   -5.6277    0.0000 N   0  0  0  0  0  0  0  0  0  0  0  0
   -0.4125   -1.0472    0.0000 N   0  0  0  0  0  0  0  0  0  0  0  0
   -8.5532   -3.8780    0.0000 N   0  0  0  0  0  0  0  0  0  0  0  0
   -6.4522    0.9957    0.0000 N   0  0  0  0  0  0  0  0  0  0  0  0
   -7.6189    2.1624    0.0000 N   0  0  0  0  0  0  0  0  0  0  0  0
  -24.1819    6.6005    0.0000 N   0  0  0  0  0  0  0  0  0  0  0  0
  -10.3794    2.9021    0.0000 N   0  0  0  0  0  0  0  0  0  0  0  0
  -21.4215    5.8608    0.0000 N   0  0  0  0  0  0  0  0  0  0  0  0
    0.9269   -0.4021    0.0000 C   0  0  3  0  0  0  0  0  0  0  0  0
   -8.7196   -5.3552    0.0000 C   0  0  3  0  0  0  0  0  0  0  0  0
    0.0000    0.7601    0.0000 C   0  0  0  0  0  0  0  0  0  0  0  0
   -7.2424   -5.1888    0.0000 C   0  0  0  0  0  0  0  0  0  0  0  0
   -0.7433    0.4021    0.0000 C   0  0  0  0  0  0  0  0  0  0  0  0
   -7.1500   -4.3690    0.0000 C   0  0  0  0  0  0  0  0  0  0  0  0
   -0.9269   -0.4021    0.0000 C   0  0  0  0  0  0  0  0  0  0  0  0
   -7.7334   -3.7856    0.0000 C   0  0  0  0  0  0  0  0  0  0  0  0
    1.7485   -0.4761    0.0000 C   0  0  0  0  0  0  0  0  0  0  0  0
   -9.2194   -6.0117    0.0000 C   0  0  0  0  0  0  0  0  0  0  0  0
    1.4515    0.8253    0.0000 C   0  0  0  0  0  0  0  0  0  0  0  0
   -7.9594   -6.4526    0.0000 C   0  0  0  0  0  0  0  0  0  0  0  0
    0.4125   -1.0472    0.0000 C   0  0  0  0  0  0  0  0  0  0  0  0
   -8.9921   -4.5766    0.0000 C   0  0  0  0  0  0  0  0  0  0  0  0
    2.0728    0.2825    0.0000 C   0  0  0  0  0  0  0  0  0  0  0  0
   -8.7496   -6.6898    0.0000 C   0  0  0  0  0  0  0  0  0  0  0  0
   -1.3480    0.9633    0.0000 C   0  0  0  0  0  0  0  0  0  0  0  0
   -6.3531   -4.1555    0.0000 C   0  0  0  0  0  0  0  0  0  0  0  0
   -2.1364    0.7201    0.0000 C   0  0  0  0  0  0  0  0  0  0  0  0
   -6.1396   -3.3586    0.0000 C   0  0  0  0  0  0  0  0  0  0  0  0
   -2.3200   -0.0842    0.0000 C   0  0  0  0  0  0  0  0  0  0  0  0
   -6.7229   -2.7752    0.0000 C   0  0  0  0  0  0  0  0  0  0  0  0
   -1.7152   -0.6453    0.0000 C   0  0  0  0  0  0  0  0  0  0  0  0
   -7.5198   -2.9887    0.0000 C   0  0  0  0  0  0  0  0  0  0  0  0
    2.8771    0.4661    0.0000 C   0  0  0  0  0  0  0  0  0  0  0  0
   -9.0221   -7.4685    0.0000 C   0  0  0  0  0  0  0  0  0  0  0  0
   -3.6917    0.2560    0.0000 C   0  0  0  0  0  0  0  0  0  0  0  0
   -5.7125   -1.7649    0.0000 C   0  0  0  0  0  0  0  0  0  0  0  0
   -4.4886    0.0425    0.0000 C   0  0  0  0  0  0  0  0  0  0  0  0
   -5.4990   -0.9680    0.0000 C   0  0  0  0  0  0  0  0  0  0  0  0
   -4.7021   -0.7544    0.0000 C   0  0  0  0  0  0  0  0  0  0  0  0
   -5.8689    0.4123    0.0000 C   0  0  0  0  0  0  0  0  0  0  0  0
   -5.0720    0.6258    0.0000 C   0  0  0  0  0  0  0  0  0  0  0  0
   -6.0824   -0.3846    0.0000 C   0  0  0  0  0  0  0  0  0  0  0  0
   -3.5295    1.0381    0.0000 C   0  0  0  0  0  0  0  0  0  0  0  0
   -4.7593   -3.7285    0.0000 C   0  0  0  0  0  0  0  0  0  0  0  0
   -6.2387    1.7925    0.0000 C   0  0  0  0  0  0  0  0  0  0  0  0
   -7.2491    0.7822    0.0000 C   0  0  0  0  0  0  0  0  0  0  0  0
   -6.8220    2.3759    0.0000 C   0  0  0  0  0  0  0  0  0  0  0  0
   -7.8324    1.3655    0.0000 C   0  0  0  0  0  0  0  0  0  0  0  0
   -8.2023    2.7458    0.0000 C   0  0  0  0  0  0  0  0  0  0  0  0
   -8.9992    2.5322    0.0000 C   0  0  0  0  0  0  0  0  0  0  0  0
  -24.4776    5.8303    0.0000 C   0  0  0  0  0  0  0  0  0  0  0  0
  -24.8231    7.1196    0.0000 C   0  0  0  0  0  0  0  0  0  0  0  0
   -9.5825    3.1156    0.0000 C   0  0  0  0  0  0  0  0  0  0  0  0
  -25.3014    5.8734    0.0000 C   0  0  0  0  0  0  0  0  0  0  0  0
  -25.5150    6.6703    0.0000 C   0  0  0  0  0  0  0  0  0  0  0  0
  -23.3851    6.8140    0.0000 C   0  0  0  0  0  0  0  0  0  0  0  0
  -22.8017    6.2306    0.0000 C   0  0  0  0  0  0  0  0  0  0  0  0
  -22.0048    6.4441    0.0000 C   0  0  0  0  0  0  0  0  0  0  0  0
  -10.9628    3.4854    0.0000 C   0  0  0  0  0  0  0  0  0  0  0  0
  -11.7597    3.2719    0.0000 C   0  0  0  0  0  0  0  0  0  0  0  0
  -20.6246    6.0743    0.0000 C   0  0  0  0  0  0  0  0  0  0  0  0
  -12.3431    3.8553    0.0000 C   0  0  0  0  0  0  0  0  0  0  0  0
  -20.0412    5.4910    0.0000 C   0  0  0  0  0  0  0  0  0  0  0  0
  -13.7233    4.2251    0.0000 C   0  0  0  0  0  0  0  0  0  0  0  0
  -18.6610    5.1211    0.0000 C   0  0  0  0  0  0  0  0  0  0  0  0
  -17.8641    5.3346    0.0000 C   0  0  0  0  0  0  0  0  0  0  0  0
  -14.5202    4.0116    0.0000 C   0  0  0  0  0  0  0  0  0  0  0  0
  -16.4838    4.9648    0.0000 C   0  0  0  0  0  0  0  0  0  0  0  0
  -15.9005    4.3814    0.0000 C   0  0  0  0  0  0  0  0  0  0  0  0
    1.2511   -1.1608    0.0000 H   0  0  0  0  0  0  0  0  0  0  0  0
   -9.5345   -5.2262    0.0000 H   0  0  0  0  0  0  0  0  0  0  0  0
  1 26  2  0  0  0  0
  2 27  2  0  0  0  0
  3 44  1  0  0  0  0
  3 50  1  0  0  0  0
  4 45  1  0  0  0  0
  4 51  1  0  0  0  0
  5 42  1  0  0  0  0
  5 58  1  0  0  0  0
  6 43  1  0  0  0  0
  6 59  1  0  0  0  0
  7 67  2  0  0  0  0
  8 66  2  0  0  0  0
  9 73  2  0  0  0  0
 10 74  2  0  0  0  0
 11 77  1  0  0  0  0
 11 79  1  0  0  0  0
 12 78  1  0  0  0  0
 12 80  1  0  0  0  0
 13 81  1  0  0  0  0
 13 83  1  0  0  0  0
 14 82  1  0  0  0  0
 14 84  1  0  0  0  0
 15 24  1  0  0  0  0
 15 26  1  0  0  0  0
 15 34  1  0  0  0  0
 16 25  1  0  0  0  0
 16 27  1  0  0  0  0
 16 35  1  0  0  0  0
 17 30  1  0  0  0  0
 17 36  2  0  0  0  0
 18 31  1  0  0  0  0
 18 37  2  0  0  0  0
 19 55  1  0  0  0  0
 19 60  1  0  0  0  0
 19 61  1  0  0  0  0
 20 62  1  0  0  0  0
 20 63  1  0  0  0  0
 20 64  1  0  0  0  0
 21 66  1  0  0  0  0
 21 67  1  0  0  0  0
 21 71  1  0  0  0  0
 22 68  1  0  0  0  0
 22 74  1  0  0  0  0
 23 73  1  0  0  0  0
 23 76  1  0  0  0  0
 24 32  1  0  0  0  0
 24 36  1  0  0  0  0
 24 85  1  6  0  0  0
 25 33  1  0  0  0  0
 25 37  1  0  0  0  0
 25 86  1  6  0  0  0
 26 28  1  0  0  0  0
 27 29  1  0  0  0  0
 28 30  1  0  0  0  0
 28 40  2  0  0  0  0
 29 31  1  0  0  0  0
 29 41  2  0  0  0  0
 30 46  2  0  0  0  0
 31 47  2  0  0  0  0
 32 38  1  0  0  0  0
 33 39  1  0  0  0  0
 34 38  1  0  0  0  0
 35 39  1  0  0  0  0
 38 48  2  0  0  0  0
 39 49  2  0  0  0  0
 40 42  1  0  0  0  0
 41 43  1  0  0  0  0
 42 44  2  0  0  0  0
 43 45  2  0  0  0  0
 44 46  1  0  0  0  0
 45 47  1  0  0  0  0
 50 52  1  0  0  0  0
 51 53  1  0  0  0  0
 52 54  2  0  0  0  0
 52 56  1  0  0  0  0
 53 54  1  0  0  0  0
 53 57  2  0  0  0  0
 55 56  2  0  0  0  0
 55 57  1  0  0  0  0
 60 62  1  0  0  0  0
 61 63  1  0  0  0  0
 64 65  1  0  0  0  0
 65 68  1  0  0  0  0
 66 69  1  0  0  0  0
 67 70  1  0  0  0  0
 69 70  2  0  0  0  0
 71 72  1  0  0  0  0
 72 73  1  0  0  0  0
 74 75  1  0  0  0  0
 75 77  1  0  0  0  0
 76 78  1  0  0  0  0
 79 82  1  0  0  0  0
 80 81  1  0  0  0  0
 83 84  1  0  0  0  0
M  END
> <PUBCHEM_COMPOUND_ID_TYPE>
0

> <PUBCHEM_TOTAL_CHARGE>
0

> <PUBCHEM_SUBSTANCE_ID>
310929719

> <PUBCHEM_SUBSTANCE_VERSION>
1

> <PUBCHEM_EXT_DATASOURCE_NAME>
4488

> <PUBCHEM_EXT_DATASOURCE_REGID>
SCHEMBL16106914

> <PUBCHEM_SUBSTANCE_COMMENT>
InChI=1S/C61H75N9O14/c1-41-26-46-35-64-50-33-54(52(77-3)31-48(50)60(75)69(46)37-41)83-39-43-28-44(40-84-55-34-51-49(32-53(55)78-4)61(76)70-38-42(2)27-47(70)36-65-51)30-45(29-43)67-16-14-66(15-17-67)12-5-10-62-57(72)9-18-79-20-22-81-24-25-82-23-21-80-19-11-63-56(71)8-13-68-58(73)6-7-59(68)74/h6-7,28-36,46-47H,1-2,5,8-27,37-40H2,3-4H3,(H,62,72)(H,63,71)/t46-,47-/m0/s1
InChIKey=DNVWUOWFXRULSQ-MVRBIKRMSA-N

> <PUBCHEM_SUBSTANCE_SYNONYM>
SCHEMBL16106914

> <PUBCHEM_XREF_EXT_ID>
SCHEMBL16106914

> <PUBCHEM_EXT_DATASOURCE_URL>
https://www.surechembl.org/

> <PUBCHEM_EXT_SUBSTANCE_URL>
https://www.surechembl.org/chemical/SCHEMBL16106914

> <PUBCHEM_CID_ASSOCIATIONS>
117599015  1

> <PUBCHEM_COORDINATE_TYPE>
1
3

> <PUBCHEM_BONDANNOTATIONS>
24  85  6
25  86  6

$$$$
