310941686
  -OEChem-07211613022D

 24 26  0     0  0  0  0  0  0999 V2000
   -0.3292    0.8409    0.0000 S   0  0  0  0  0  0  0  0  0  0  0  0
    1.9299    2.0667    0.0000 O   0  0  0  0  0  0  0  0  0  0  0  0
    0.4812   -2.0667    0.0000 O   0  0  0  0  0  0  0  0  0  0  0  0
    0.5014    2.0667    0.0000 N   0  0  0  0  0  0  0  0  0  0  0  0
   -1.5449    1.3980    0.0000 N   0  0  0  0  0  0  0  0  0  0  0  0
   -0.9877    2.0059    0.0000 N   0  0  0  0  0  0  0  0  0  0  0  0
    2.6694   -0.8307    0.0000 N   0  0  0  0  0  0  0  0  0  0  0  0
   -1.1599    0.7091    0.0000 C   0  0  0  0  0  0  0  0  0  0  0  0
   -0.2380    1.6816    0.0000 C   0  0  0  0  0  0  0  0  0  0  0  0
    1.2106    0.8409    0.0000 C   0  0  0  0  0  0  0  0  0  0  0  0
    1.2005    1.6614    0.0000 C   0  0  0  0  0  0  0  0  0  0  0  0
   -1.5043   -0.0506    0.0000 C   0  0  0  0  0  0  0  0  0  0  0  0
    1.9299   -0.3950    0.0000 C   0  0  0  0  0  0  0  0  0  0  0  0
    1.9299    0.4153    0.0000 C   0  0  0  0  0  0  0  0  0  0  0  0
    1.2207   -0.8105    0.0000 C   0  0  0  0  0  0  0  0  0  0  0  0
    0.4913    0.4254    0.0000 C   0  0  0  0  0  0  0  0  0  0  0  0
    0.4913   -0.4052    0.0000 C   0  0  0  0  0  0  0  0  0  0  0  0
   -2.3250   -0.1317    0.0000 C   0  0  0  0  0  0  0  0  0  0  0  0
   -1.0283   -0.7091    0.0000 C   0  0  0  0  0  0  0  0  0  0  0  0
    1.2106   -1.6411    0.0000 C   0  0  0  0  0  0  0  0  0  0  0  0
   -2.6694   -0.8814    0.0000 C   0  0  0  0  0  0  0  0  0  0  0  0
   -1.3625   -1.4588    0.0000 C   0  0  0  0  0  0  0  0  0  0  0  0
   -2.1933   -1.5398    0.0000 C   0  0  0  0  0  0  0  0  0  0  0  0
   -0.2279   -1.6513    0.0000 C   0  0  0  0  0  0  0  0  0  0  0  0
  1  8  1  0  0  0  0
  1  9  1  0  0  0  0
  2 11  2  0  0  0  0
  3 20  1  0  0  0  0
  3 24  1  0  0  0  0
  4  9  1  0  0  0  0
  4 11  1  0  0  0  0
  5  6  1  0  0  0  0
  5  8  2  0  0  0  0
  6  9  2  0  0  0  0
  7 13  1  0  0  0  0
  8 12  1  0  0  0  0
 10 11  1  0  0  0  0
 10 14  1  0  0  0  0
 10 16  2  0  0  0  0
 12 18  2  0  0  0  0
 12 19  1  0  0  0  0
 13 14  2  0  0  0  0
 13 15  1  0  0  0  0
 15 17  2  0  0  0  0
 15 20  1  0  0  0  0
 16 17  1  0  0  0  0
 18 21  1  0  0  0  0
 19 22  2  0  0  0  0
 21 23  2  0  0  0  0
 22 23  1  0  0  0  0
M  END
> <PUBCHEM_COMPOUND_ID_TYPE>
0

> <PUBCHEM_TOTAL_CHARGE>
0

> <PUBCHEM_SUBSTANCE_ID>
310941686

> <PUBCHEM_SUBSTANCE_VERSION>
1

> <PUBCHEM_EXT_DATASOURCE_NAME>
4488

> <PUBCHEM_EXT_DATASOURCE_REGID>
SCHEMBL16119717

> <PUBCHEM_SUBSTANCE_COMMENT>
InChI=1S/C17H16N4O2S/c1-23-10-13-8-7-12(9-14(13)18)15(22)19-17-21-20-16(24-17)11-5-3-2-4-6-11/h2-9H,10,18H2,1H3,(H,19,21,22)
InChIKey=WJRJZIUQIYQUJM-UHFFFAOYSA-N

> <PUBCHEM_SUBSTANCE_SYNONYM>
SCHEMBL16119717

> <PUBCHEM_XREF_EXT_ID>
SCHEMBL16119717

> <PUBCHEM_EXT_DATASOURCE_URL>
https://www.surechembl.org/

> <PUBCHEM_EXT_SUBSTANCE_URL>
https://www.surechembl.org/chemical/SCHEMBL16119717

> <PUBCHEM_CID_ASSOCIATIONS>
117608461  1

> <PUBCHEM_COORDINATE_TYPE>
1
3

$$$$
