310939852
  -OEChem-07211613022D

 31 33  0     0  0  0  0  0  0999 V2000
    1.0717    2.8875    0.0000 Cl  0  0  0  0  0  0  0  0  0  0  0  0
    1.7862    3.3000    0.0000 Cl  0  0  0  0  0  0  0  0  0  0  0  0
    3.2151    4.1250    0.0000 F   0  0  0  0  0  0  0  0  0  0  0  0
   -0.3572    0.4125    0.0000 O   0  0  0  0  0  0  0  0  0  0  0  0
    1.0717   -2.0625    0.0000 O   0  0  0  0  0  0  0  0  0  0  0  0
   -2.5006   -4.1250    0.0000 O   0  0  0  0  0  0  0  0  0  0  0  0
    1.0717   -0.4125    0.0000 N   0  0  0  0  0  0  0  0  0  0  0  0
   -0.3572   -2.0625    0.0000 N   0  0  0  0  0  0  0  0  0  0  0  0
   -1.7862   -2.8875    0.0000 N   0  0  0  0  0  0  0  0  0  0  0  0
    1.7862    1.6500    0.0000 C   0  0  0  0  0  0  0  0  0  0  0  0
    2.5006    2.0625    0.0000 C   0  0  0  0  0  0  0  0  0  0  0  0
    1.0717    2.0625    0.0000 C   0  0  0  0  0  0  0  0  0  0  0  0
    1.0717    0.4125    0.0000 C   0  0  0  0  0  0  0  0  0  0  0  0
    1.7862    0.8250    0.0000 C   0  0  0  0  0  0  0  0  0  0  0  0
    0.3572    0.8250    0.0000 C   0  0  0  0  0  0  0  0  0  0  0  0
    2.5006    2.8875    0.0000 C   0  0  0  0  0  0  0  0  0  0  0  0
    0.3572    1.6500    0.0000 C   0  0  0  0  0  0  0  0  0  0  0  0
    3.2151    3.3000    0.0000 C   0  0  0  0  0  0  0  0  0  0  0  0
    3.2151    1.6500    0.0000 C   0  0  0  0  0  0  0  0  0  0  0  0
    0.3572   -1.6500    0.0000 C   0  0  0  0  0  0  0  0  0  0  0  0
    3.9296    2.8875    0.0000 C   0  0  0  0  0  0  0  0  0  0  0  0
    3.9296    2.0625    0.0000 C   0  0  0  0  0  0  0  0  0  0  0  0
    0.3572   -0.8250    0.0000 C   0  0  0  0  0  0  0  0  0  0  0  0
   -1.0717   -1.6500    0.0000 C   0  0  0  0  0  0  0  0  0  0  0  0
   -0.3572   -2.8875    0.0000 C   0  0  0  0  0  0  0  0  0  0  0  0
   -1.7862   -2.0625    0.0000 C   0  0  0  0  0  0  0  0  0  0  0  0
   -1.0717   -3.3000    0.0000 C   0  0  0  0  0  0  0  0  0  0  0  0
   -2.5006   -3.3000    0.0000 C   0  0  0  0  0  0  0  0  0  0  0  0
   -1.0717    0.8250    0.0000 C   0  0  0  0  0  0  0  0  0  0  0  0
   -3.2151   -2.8875    0.0000 C   0  0  0  0  0  0  0  0  0  0  0  0
   -3.9296   -3.3000    0.0000 C   0  0  0  0  0  0  0  0  0  0  0  0
  1 12  1  0  0  0  0
  2 16  1  0  0  0  0
  3 18  1  0  0  0  0
  4 15  1  0  0  0  0
  4 29  1  0  0  0  0
  5 20  2  0  0  0  0
  6 28  2  0  0  0  0
  7 13  1  0  0  0  0
  7 23  1  0  0  0  0
  8 20  1  0  0  0  0
  8 24  1  0  0  0  0
  8 25  1  0  0  0  0
  9 26  1  0  0  0  0
  9 27  1  0  0  0  0
  9 28  1  0  0  0  0
 10 11  1  0  0  0  0
 10 12  2  0  0  0  0
 10 14  1  0  0  0  0
 11 16  1  0  0  0  0
 11 19  2  0  0  0  0
 12 17  1  0  0  0  0
 13 14  2  0  0  0  0
 13 15  1  0  0  0  0
 15 17  2  0  0  0  0
 16 18  2  0  0  0  0
 18 21  1  0  0  0  0
 19 22  1  0  0  0  0
 20 23  1  0  0  0  0
 21 22  2  0  0  0  0
 24 26  1  0  0  0  0
 25 27  1  0  0  0  0
 28 30  1  0  0  0  0
 30 31  2  0  0  0  0
M  END
> <PUBCHEM_COMPOUND_ID_TYPE>
0

> <PUBCHEM_TOTAL_CHARGE>
0

> <PUBCHEM_SUBSTANCE_ID>
310939852

> <PUBCHEM_SUBSTANCE_VERSION>
1

> <PUBCHEM_EXT_DATASOURCE_NAME>
4488

> <PUBCHEM_EXT_DATASOURCE_REGID>
SCHEMBL16117782

> <PUBCHEM_SUBSTANCE_COMMENT>
InChI=1S/C22H22Cl2FN3O3/c1-3-20(29)27-7-9-28(10-8-27)21(30)13-26-18-11-15(16(23)12-19(18)31-2)14-5-4-6-17(25)22(14)24/h3-6,11-12,26H,1,7-10,13H2,2H3
InChIKey=HQVVJEKSOWXINT-UHFFFAOYSA-N

> <PUBCHEM_SUBSTANCE_SYNONYM>
SCHEMBL16117782

> <PUBCHEM_XREF_EXT_ID>
SCHEMBL16117782

> <PUBCHEM_EXT_DATASOURCE_URL>
https://www.surechembl.org/

> <PUBCHEM_EXT_SUBSTANCE_URL>
https://www.surechembl.org/chemical/SCHEMBL16117782

> <PUBCHEM_CID_ASSOCIATIONS>
117607067  1

> <PUBCHEM_COORDINATE_TYPE>
1
3

$$$$
