310946025
  -OEChem-07211613022D

 43 47  0     1  0  0  0  0  0999 V2000
    5.4169    0.9900    0.0000 O   0  0  0  0  0  0  0  0  0  0  0  0
    4.2875   -0.9900    0.0000 O   0  0  0  0  0  0  0  0  0  0  0  0
    1.8893    0.9760    0.0000 O   0  0  0  0  0  0  0  0  0  0  0  0
   -2.4470    0.9760    0.0000 O   0  0  0  0  0  0  0  0  0  0  0  0
   -0.2719   -1.1155    0.0000 O   0  0  0  0  0  0  0  0  0  0  0  0
    4.0644   -2.7747    0.0000 O   0  0  0  0  0  0  0  0  0  0  0  0
    2.6143   -0.2649    0.0000 N   0  0  0  0  0  0  0  0  0  0  0  0
    0.4531    0.1394    0.0000 N   0  0  0  0  0  0  0  0  0  0  0  0
   -1.7219   -0.2649    0.0000 N   0  0  0  0  0  0  0  0  0  0  0  0
    4.9847    0.3067    0.0000 C   0  0  3  0  0  0  0  0  0  0  0  0
    4.2736   -0.1116    0.0000 C   0  0  0  0  0  0  0  0  0  0  0  0
    4.6082    1.0039    0.0000 C   0  0  0  0  0  0  0  0  0  0  0  0
    3.5485    0.2928    0.0000 C   0  0  3  0  0  0  0  0  0  0  0  0
    5.7236   -0.1116    0.0000 C   0  0  0  0  0  0  0  0  0  0  0  0
    3.5625    1.3804    0.0000 C   0  0  0  0  0  0  0  0  0  0  0  0
    1.8893    0.1534    0.0000 C   0  0  0  0  0  0  0  0  0  0  0  0
    1.1921   -0.2370    0.0000 C   0  0  3  0  0  0  0  0  0  0  0  0
   -3.1721   -0.2370    0.0000 C   0  0  0  0  0  0  0  0  0  0  0  0
   -4.0784   -1.2549    0.0000 C   0  0  0  0  0  0  0  0  0  0  0  0
   -4.4827   -0.5438    0.0000 C   0  0  0  0  0  0  0  0  0  0  0  0
    2.8235    1.7987    0.0000 C   0  0  0  0  0  0  0  0  0  0  0  0
   -3.2696   -1.0736    0.0000 C   0  0  0  0  0  0  0  0  0  0  0  0
   -3.9250    0.0697    0.0000 C   0  0  0  0  0  0  0  0  0  0  0  0
   -2.4470    0.1534    0.0000 C   0  0  0  0  0  0  0  0  0  0  0  0
   -0.2580   -0.2231    0.0000 C   0  0  0  0  0  0  0  0  0  0  0  0
    1.1643   -1.1015    0.0000 C   0  0  0  0  0  0  0  0  0  0  0  0
   -1.0108    0.1673    0.0000 C   0  0  3  0  0  0  0  0  0  0  0  0
   -4.4827   -1.9660    0.0000 C   0  0  0  0  0  0  0  0  0  0  0  0
   -5.3193   -0.5438    0.0000 C   0  0  0  0  0  0  0  0  0  0  0  0
    1.9032   -1.4919    0.0000 C   0  0  0  0  0  0  0  0  0  0  0  0
    2.0845    1.4780    0.0000 C   0  0  0  0  0  0  0  0  0  0  0  0
    2.7398    2.6074    0.0000 C   0  0  0  0  0  0  0  0  0  0  0  0
   -5.3193   -1.9660    0.0000 C   0  0  0  0  0  0  0  0  0  0  0  0
   -5.7236   -1.2688    0.0000 C   0  0  0  0  0  0  0  0  0  0  0  0
    1.5268    2.0776    0.0000 C   0  0  0  0  0  0  0  0  0  0  0  0
    1.9451    2.7747    0.0000 C   0  0  0  0  0  0  0  0  0  0  0  0
    1.9172   -2.3424    0.0000 C   0  0  0  0  0  0  0  0  0  0  0  0
    2.6143   -1.1015    0.0000 C   0  0  0  0  0  0  0  0  0  0  0  0
    3.3393   -2.3285    0.0000 C   0  0  0  0  0  0  0  0  0  0  0  0
   -0.9969    0.9900    0.0000 C   0  0  0  0  0  0  0  0  0  0  0  0
    2.6283   -2.7468    0.0000 C   0  0  0  0  0  0  0  0  0  0  0  0
    3.3534   -1.5058    0.0000 C   0  0  0  0  0  0  0  0  0  0  0  0
    4.8173   -2.3285    0.0000 C   0  0  0  0  0  0  0  0  0  0  0  0
  1 10  1  0  0  0  0
  1 12  1  0  0  0  0
  2 11  2  0  0  0  0
  3 16  2  0  0  0  0
  4 24  2  0  0  0  0
  5 25  2  0  0  0  0
  6 39  1  0  0  0  0
  6 43  1  0  0  0  0
 13  7  1  1  0  0  0
  7 16  1  0  0  0  0
 17  8  1  6  0  0  0
  8 25  1  0  0  0  0
  9 24  1  0  0  0  0
  9 27  1  0  0  0  0
 10 11  1  1  0  0  0
 10 12  1  0  0  0  0
 10 14  1  6  0  0  0
 11 13  1  0  0  0  0
 13 15  1  0  0  0  0
 15 21  1  0  0  0  0
 16 17  1  0  0  0  0
 17 26  1  0  0  0  0
 18 22  2  0  0  0  0
 18 23  1  0  0  0  0
 18 24  1  0  0  0  0
 19 20  1  0  0  0  0
 19 22  1  0  0  0  0
 19 28  2  0  0  0  0
 20 23  1  0  0  0  0
 20 29  2  0  0  0  0
 21 31  1  0  0  0  0
 21 32  1  0  0  0  0
 25 27  1  0  0  0  0
 26 30  1  0  0  0  0
 27 40  1  6  0  0  0
 28 33  1  0  0  0  0
 29 34  1  0  0  0  0
 30 37  2  0  0  0  0
 30 38  1  0  0  0  0
 31 35  1  0  0  0  0
 32 36  1  0  0  0  0
 33 34  2  0  0  0  0
 35 36  1  0  0  0  0
 37 41  1  0  0  0  0
 38 42  2  0  0  0  0
 39 41  2  0  0  0  0
 39 42  1  0  0  0  0
M  END
> <PUBCHEM_COMPOUND_ID_TYPE>
0

> <PUBCHEM_TOTAL_CHARGE>
0

> <PUBCHEM_SUBSTANCE_ID>
310946025

> <PUBCHEM_SUBSTANCE_VERSION>
1

> <PUBCHEM_EXT_DATASOURCE_NAME>
4488

> <PUBCHEM_EXT_DATASOURCE_REGID>
SCHEMBL16124131

> <PUBCHEM_SUBSTANCE_COMMENT>
InChI=1S/C34H41N3O6/c1-21(35-32(40)26-18-24-10-6-7-11-25(24)19-26)31(39)37-29(17-23-12-14-27(42-3)15-13-23)33(41)36-28(16-22-8-4-5-9-22)30(38)34(2)20-43-34/h6-7,10-15,18,21-22,28-29H,4-5,8-9,16-17,19-20H2,1-3H3,(H,35,40)(H,36,41)(H,37,39)/t21-,28+,29+,34-/m1/s1
InChIKey=YDMYZPONOBAVHY-AQQXWZQPSA-N

> <PUBCHEM_SUBSTANCE_SYNONYM>
SCHEMBL16124131

> <PUBCHEM_XREF_EXT_ID>
SCHEMBL16124131

> <PUBCHEM_EXT_DATASOURCE_URL>
https://www.surechembl.org/

> <PUBCHEM_EXT_SUBSTANCE_URL>
https://www.surechembl.org/chemical/SCHEMBL16124131

> <PUBCHEM_CID_ASSOCIATIONS>
117611996  1

> <PUBCHEM_COORDINATE_TYPE>
1
3

> <PUBCHEM_BONDANNOTATIONS>
10  11  5
10  14  6
27  40  6
13  7  5
17  8  6

$$$$
