310947157
  -OEChem-07211613022D

 14 15  0     0  0  0  0  0  0999 V2000
   -0.9300   -1.2230    0.0000 O   0  0  0  0  0  0  0  0  0  0  0  0
   -2.1023   -0.5558    0.0000 O   0  0  0  0  0  0  0  0  0  0  0  0
    1.3544   -0.8389    0.0000 N   0  0  0  0  0  0  0  0  0  0  0  0
    2.1023    0.4548    0.0000 N   0  0  0  0  0  0  0  0  0  0  0  0
   -0.7682   -0.3739    0.0000 C   0  0  0  0  0  0  0  0  0  0  0  0
   -0.0607    0.0505    0.0000 C   0  0  0  0  0  0  0  0  0  0  0  0
   -1.4757    0.0303    0.0000 C   0  0  0  0  0  0  0  0  0  0  0  0
   -0.0404    0.8591    0.0000 C   0  0  0  0  0  0  0  0  0  0  0  0
   -1.4555    0.8591    0.0000 C   0  0  0  0  0  0  0  0  0  0  0  0
   -0.7682    1.2635    0.0000 C   0  0  0  0  0  0  0  0  0  0  0  0
   -1.7789   -1.2635    0.0000 C   0  0  0  0  0  0  0  0  0  0  0  0
    0.6671   -0.4144    0.0000 C   0  0  0  0  0  0  0  0  0  0  0  0
    0.6469    1.2635    0.0000 C   0  0  0  0  0  0  0  0  0  0  0  0
    1.3948    0.8389    0.0000 C   0  0  0  0  0  0  0  0  0  0  0  0
  1  5  1  0  0  0  0
  1 11  1  0  0  0  0
  2  7  1  0  0  0  0
  2 11  1  0  0  0  0
  3 12  3  0  0  0  0
  4 14  3  0  0  0  0
  5  6  2  0  0  0  0
  5  7  1  0  0  0  0
  6  8  1  0  0  0  0
  6 12  1  0  0  0  0
  7  9  2  0  0  0  0
  8 10  2  0  0  0  0
  8 13  1  0  0  0  0
  9 10  1  0  0  0  0
 13 14  1  0  0  0  0
M  END
> <PUBCHEM_COMPOUND_ID_TYPE>
0

> <PUBCHEM_TOTAL_CHARGE>
0

> <PUBCHEM_SUBSTANCE_ID>
310947157

> <PUBCHEM_SUBSTANCE_VERSION>
1

> <PUBCHEM_EXT_DATASOURCE_NAME>
4488

> <PUBCHEM_EXT_DATASOURCE_REGID>
SCHEMBL16125311

> <PUBCHEM_SUBSTANCE_COMMENT>
InChI=1S/C10H6N2O2/c11-4-3-7-1-2-9-10(8(7)5-12)14-6-13-9/h1-2H,3,6H2
InChIKey=WOVUCMZYVQQHDD-UHFFFAOYSA-N

> <PUBCHEM_SUBSTANCE_SYNONYM>
SCHEMBL16125311

> <PUBCHEM_XREF_EXT_ID>
SCHEMBL16125311

> <PUBCHEM_EXT_DATASOURCE_URL>
https://www.surechembl.org/

> <PUBCHEM_EXT_SUBSTANCE_URL>
https://www.surechembl.org/chemical/SCHEMBL16125311

> <PUBCHEM_CID_ASSOCIATIONS>
117612988  1

> <PUBCHEM_COORDINATE_TYPE>
1
3

$$$$
