310945617
  -OEChem-07211613022D

 28 32  0     0  0  0  0  0  0999 V2000
   -0.3239   -0.2303    0.0000 N   0  0  0  0  0  0  0  0  0  0  0  0
   -0.3239   -2.7207    0.0000 N   0  0  0  0  0  0  0  0  0  0  0  0
   -0.3239    2.2745    0.0000 N   0  0  0  0  0  0  0  0  0  0  0  0
   -0.3671   -1.0509    0.0000 C   0  0  0  0  0  0  0  0  0  0  0  0
   -1.0869   -1.4540    0.0000 C   0  0  0  0  0  0  0  0  0  0  0  0
   -1.1012   -2.2889    0.0000 C   0  0  0  0  0  0  0  0  0  0  0  0
    0.3527   -2.2889    0.0000 C   0  0  0  0  0  0  0  0  0  0  0  0
    0.3671   -1.4684    0.0000 C   0  0  0  0  0  0  0  0  0  0  0  0
    1.1012   -2.7063    0.0000 C   0  0  0  0  0  0  0  0  0  0  0  0
   -1.8066   -1.0653    0.0000 C   0  0  0  0  0  0  0  0  0  0  0  0
   -1.0869    0.2015    0.0000 C   0  0  0  0  0  0  0  0  0  0  0  0
    0.3527    0.2015    0.0000 C   0  0  0  0  0  0  0  0  0  0  0  0
   -1.8210   -2.6919    0.0000 C   0  0  0  0  0  0  0  0  0  0  0  0
   -0.3671    1.4540    0.0000 C   0  0  0  0  0  0  0  0  0  0  0  0
   -1.0725    1.0365    0.0000 C   0  0  0  0  0  0  0  0  0  0  0  0
    0.3671    1.0220    0.0000 C   0  0  0  0  0  0  0  0  0  0  0  0
   -2.5408   -1.4684    0.0000 C   0  0  0  0  0  0  0  0  0  0  0  0
   -2.5408   -2.2889    0.0000 C   0  0  0  0  0  0  0  0  0  0  0  0
    1.1012   -3.5413    0.0000 C   0  0  0  0  0  0  0  0  0  0  0  0
    1.8066   -2.3032    0.0000 C   0  0  0  0  0  0  0  0  0  0  0  0
   -1.0869    2.7063    0.0000 C   0  0  0  0  0  0  0  0  0  0  0  0
    0.3527    2.6919    0.0000 C   0  0  0  0  0  0  0  0  0  0  0  0
    1.8354   -3.9444    0.0000 C   0  0  0  0  0  0  0  0  0  0  0  0
    2.5408   -2.7207    0.0000 C   0  0  0  0  0  0  0  0  0  0  0  0
    2.5408   -3.5413    0.0000 C   0  0  0  0  0  0  0  0  0  0  0  0
   -1.0725    3.5269    0.0000 C   0  0  0  0  0  0  0  0  0  0  0  0
    0.3671    3.5269    0.0000 C   0  0  0  0  0  0  0  0  0  0  0  0
   -0.3527    3.9444    0.0000 C   0  0  0  0  0  0  0  0  0  0  0  0
  1  4  1  0  0  0  0
  1 11  1  0  0  0  0
  1 12  1  0  0  0  0
  2  6  1  0  0  0  0
  2  7  2  0  0  0  0
  3 14  1  0  0  0  0
  3 21  1  0  0  0  0
  3 22  1  0  0  0  0
  4  5  1  0  0  0  0
  4  8  2  0  0  0  0
  5  6  1  0  0  0  0
  5 10  2  0  0  0  0
  6 13  2  0  0  0  0
  7  8  1  0  0  0  0
  7  9  1  0  0  0  0
  9 19  2  0  0  0  0
  9 20  1  0  0  0  0
 10 17  1  0  0  0  0
 11 15  1  0  0  0  0
 12 16  1  0  0  0  0
 13 18  1  0  0  0  0
 14 15  1  0  0  0  0
 14 16  1  0  0  0  0
 17 18  2  0  0  0  0
 19 23  1  0  0  0  0
 20 24  2  0  0  0  0
 21 26  1  0  0  0  0
 22 27  1  0  0  0  0
 23 25  2  0  0  0  0
 24 25  1  0  0  0  0
 26 28  1  0  0  0  0
 27 28  1  0  0  0  0
M  END
> <PUBCHEM_COMPOUND_ID_TYPE>
0

> <PUBCHEM_TOTAL_CHARGE>
0

> <PUBCHEM_SUBSTANCE_ID>
310945617

> <PUBCHEM_SUBSTANCE_VERSION>
1

> <PUBCHEM_EXT_DATASOURCE_NAME>
4488

> <PUBCHEM_EXT_DATASOURCE_REGID>
SCHEMBL16123716

> <PUBCHEM_SUBSTANCE_COMMENT>
InChI=1S/C25H29N3/c1-3-9-20(10-4-1)24-19-25(22-11-5-6-12-23(22)26-24)28-17-13-21(14-18-28)27-15-7-2-8-16-27/h1,3-6,9-12,19,21H,2,7-8,13-18H2
InChIKey=BVJLAIOEDPVHLO-UHFFFAOYSA-N

> <PUBCHEM_SUBSTANCE_SYNONYM>
SCHEMBL16123716

> <PUBCHEM_XREF_EXT_ID>
SCHEMBL16123716

> <PUBCHEM_EXT_DATASOURCE_URL>
https://www.surechembl.org/

> <PUBCHEM_EXT_SUBSTANCE_URL>
https://www.surechembl.org/chemical/SCHEMBL16123716

> <PUBCHEM_CID_ASSOCIATIONS>
86273092  1

> <PUBCHEM_COORDINATE_TYPE>
1
3

$$$$
