310944575
  -OEChem-07211613022D

 12 13  0     1  0  0  0  0  0999 V2000
    1.4542   -0.8695    0.0000 O   0  0  0  0  0  0  0  0  0  0  0  0
   -2.2141    0.5188    0.0000 N   0  0  0  0  0  0  0  0  0  0  0  0
   -2.1995   -0.3434    0.0000 C   0  0  3  0  0  0  0  0  0  0  0  0
   -1.4249    0.8695    0.0000 C   0  0  3  0  0  0  0  0  0  0  0  0
   -0.7819   -0.3873    0.0000 C   0  0  0  0  0  0  0  0  0  0  0  0
   -1.5126   -0.7819    0.0000 C   0  0  0  0  0  0  0  0  0  0  0  0
   -0.7234    0.4458    0.0000 C   0  0  0  0  0  0  0  0  0  0  0  0
   -1.4688   -0.3727    0.0000 C   0  0  0  0  0  0  0  0  0  0  0  0
   -1.0888    0.2411    0.0000 C   0  0  0  0  0  0  0  0  0  0  0  0
   -0.0219   -0.8550    0.0000 C   0  0  0  0  0  0  0  0  0  0  0  0
    0.6942   -0.4311    0.0000 C   0  0  0  0  0  0  0  0  0  0  0  0
    2.2141   -0.4165    0.0000 C   0  0  0  0  0  0  0  0  0  0  0  0
  1 11  1  0  0  0  0
  1 12  1  0  0  0  0
  2  3  1  0  0  0  0
  4  2  1  6  0  0  0
  3  6  1  6  0  0  0
  3  8  1  0  0  0  0
  4  7  1  0  0  0  0
  4  9  1  0  0  0  0
  5  6  1  0  0  0  0
  5  7  1  0  0  0  0
  5 10  1  1  0  0  0
  8  9  1  0  0  0  0
 10 11  1  0  0  0  0
M  END
> <PUBCHEM_COMPOUND_ID_TYPE>
0

> <PUBCHEM_TOTAL_CHARGE>
0

> <PUBCHEM_SUBSTANCE_ID>
310944575

> <PUBCHEM_SUBSTANCE_VERSION>
1

> <PUBCHEM_EXT_DATASOURCE_NAME>
4488

> <PUBCHEM_EXT_DATASOURCE_REGID>
SCHEMBL16122653

> <PUBCHEM_SUBSTANCE_COMMENT>
InChI=1S/C10H19NO/c1-12-5-4-8-6-9-2-3-10(7-8)11-9/h8-11H,2-7H2,1H3/t8-,9+,10-
InChIKey=VLEXGXPBPFJVBG-ILWJIGKKSA-N

> <PUBCHEM_SUBSTANCE_SYNONYM>
SCHEMBL16122653

> <PUBCHEM_XREF_EXT_ID>
SCHEMBL16122653

> <PUBCHEM_EXT_DATASOURCE_URL>
https://www.surechembl.org/

> <PUBCHEM_EXT_SUBSTANCE_URL>
https://www.surechembl.org/chemical/SCHEMBL16122653

> <PUBCHEM_CID_ASSOCIATIONS>
117610807  1

> <PUBCHEM_COORDINATE_TYPE>
1
3

> <PUBCHEM_BONDANNOTATIONS>
4  2  6
3  6  6
5  10  5

$$$$
