310947647
  -OEChem-07211613022D

 43 42  0     1  0  0  0  0  0999 V2000
   -4.5139    0.4084    0.0000 S   0  0  0  0  0  0  0  0  0  0  0  0
   -5.2284    0.8209    0.0000 S   0  0  0  0  0  0  0  0  0  0  0  0
   -2.3705    1.6459    0.0000 O   0  0  0  0  0  0  0  0  0  0  0  0
   -4.5139   -0.4166    0.0000 O   0  0  0  0  0  0  0  0  0  0  0  0
   -5.2284    1.6459    0.0000 O   0  0  0  0  0  0  0  0  0  0  0  0
   -7.3718   -0.4166    0.0000 O   0  0  0  0  0  0  0  0  0  0  0  0
   -8.0863    0.8209    0.0000 O   0  0  0  0  0  0  0  0  0  0  0  0
    2.6308    2.0584    0.0000 O   0  0  0  0  0  0  0  0  0  0  0  0
    1.2018    2.0584    0.0000 O   0  0  0  0  0  0  0  0  0  0  0  0
   -3.0850   -0.4166    0.0000 N   0  0  0  0  0  0  0  0  0  0  0  0
   -6.6573    1.6459    0.0000 N   0  0  0  0  0  0  0  0  0  0  0  0
   -1.6561    0.4084    0.0000 N   0  0  0  0  0  0  0  0  0  0  0  0
   -4.5139   -2.0666    0.0000 N   0  0  0  0  0  0  0  0  0  0  0  0
   -6.6573    3.2959    0.0000 N   0  0  0  0  0  0  0  0  0  0  0  0
    2.6308    0.4084    0.0000 N   0  0  0  0  0  0  0  0  0  0  0  0
   -2.3705    3.2959    0.0000 N   0  0  0  0  0  0  0  0  0  0  0  0
   -3.0850    0.4084    0.0000 C   0  0  3  0  0  0  0  0  0  0  0  0
   -2.3705    0.8209    0.0000 C   0  0  0  0  0  0  0  0  0  0  0  0
   -6.6573    0.8209    0.0000 C   0  0  3  0  0  0  0  0  0  0  0  0
   -3.7995   -0.8291    0.0000 C   0  0  0  0  0  0  0  0  0  0  0  0
   -3.7995    0.8209    0.0000 C   0  0  0  0  0  0  0  0  0  0  0  0
   -5.9429    2.0584    0.0000 C   0  0  0  0  0  0  0  0  0  0  0  0
   -3.7995   -1.6541    0.0000 C   0  0  3  0  0  0  0  0  0  0  0  0
   -7.3718    0.4084    0.0000 C   0  0  0  0  0  0  0  0  0  0  0  0
   -5.9429    0.4084    0.0000 C   0  0  0  0  0  0  0  0  0  0  0  0
   -5.9429    2.8834    0.0000 C   0  0  3  0  0  0  0  0  0  0  0  0
   -3.0850   -2.0666    0.0000 C   0  0  0  0  0  0  0  0  0  0  0  0
   -5.2284    3.2959    0.0000 C   0  0  0  0  0  0  0  0  0  0  0  0
   -0.9416    0.8209    0.0000 C   0  0  0  0  0  0  0  0  0  0  0  0
   -0.2271    0.4084    0.0000 C   0  0  0  0  0  0  0  0  0  0  0  0
   -2.3705   -1.6541    0.0000 C   0  0  0  0  0  0  0  0  0  0  0  0
    1.9163    0.8209    0.0000 C   0  0  3  0  0  0  0  0  0  0  0  0
   -4.5139    2.8834    0.0000 C   0  0  0  0  0  0  0  0  0  0  0  0
    1.9163    1.6459    0.0000 C   0  0  0  0  0  0  0  0  0  0  0  0
    0.4874    0.8209    0.0000 C   0  0  0  0  0  0  0  0  0  0  0  0
    1.2018    0.4084    0.0000 C   0  0  0  0  0  0  0  0  0  0  0  0
   -1.6561   -2.0666    0.0000 C   0  0  0  0  0  0  0  0  0  0  0  0
   -3.7995    3.2959    0.0000 C   0  0  0  0  0  0  0  0  0  0  0  0
    2.6308    2.8834    0.0000 C   0  0  0  0  0  0  0  0  0  0  0  0
   -0.9416   -1.6541    0.0000 C   0  0  0  0  0  0  0  0  0  0  0  0
   -3.0850    2.8834    0.0000 C   0  0  0  0  0  0  0  0  0  0  0  0
    3.3452    3.2959    0.0000 C   0  0  0  0  0  0  0  0  0  0  0  0
   -0.2271   -2.0666    0.0000 C   0  0  0  0  0  0  0  0  0  0  0  0
  1  2  1  0  0  0  0
  1 21  1  0  0  0  0
  2 25  1  0  0  0  0
  3 18  2  0  0  0  0
  4 20  2  0  0  0  0
  5 22  2  0  0  0  0
  6 24  2  0  0  0  0
  7 24  1  0  0  0  0
  8 34  1  0  0  0  0
  8 39  1  0  0  0  0
  9 34  2  0  0  0  0
 17 10  1  1  0  0  0
 10 20  1  0  0  0  0
 19 11  1  1  0  0  0
 11 22  1  0  0  0  0
 12 18  1  0  0  0  0
 12 29  1  0  0  0  0
 23 13  1  6  0  0  0
 26 14  1  1  0  0  0
 32 15  1  1  0  0  0
 16 41  1  0  0  0  0
 17 18  1  0  0  0  0
 17 21  1  0  0  0  0
 19 24  1  0  0  0  0
 19 25  1  0  0  0  0
 20 23  1  0  0  0  0
 22 26  1  0  0  0  0
 23 27  1  0  0  0  0
 26 28  1  0  0  0  0
 27 31  1  0  0  0  0
 28 33  1  0  0  0  0
 29 30  1  0  0  0  0
 30 35  1  0  0  0  0
 31 37  1  0  0  0  0
 32 34  1  0  0  0  0
 32 36  1  0  0  0  0
 33 38  1  0  0  0  0
 35 36  1  0  0  0  0
 37 40  1  0  0  0  0
 38 41  1  0  0  0  0
 39 42  1  0  0  0  0
 40 43  1  0  0  0  0
M  END
> <PUBCHEM_COMPOUND_ID_TYPE>
0

> <PUBCHEM_TOTAL_CHARGE>
0

> <PUBCHEM_SUBSTANCE_ID>
310947647

> <PUBCHEM_SUBSTANCE_VERSION>
1

> <PUBCHEM_EXT_DATASOURCE_NAME>
4488

> <PUBCHEM_EXT_DATASOURCE_REGID>
SCHEMBL16125814

> <PUBCHEM_SUBSTANCE_COMMENT>
InChI=1S/C27H53N7O7S2/c1-3-5-6-11-18(29)23(35)33-21(25(37)32-15-10-8-13-20(31)27(40)41-4-2)16-42-43-17-22(26(38)39)34-24(36)19(30)12-7-9-14-28/h18-22H,3-17,28-31H2,1-2H3,(H,32,37)(H,33,35)(H,34,36)(H,38,39)/t18-,19-,20-,21-,22-/m0/s1
InChIKey=BWZGIOXRXNULCH-YFNVTMOMSA-N

> <PUBCHEM_SUBSTANCE_SYNONYM>
SCHEMBL16125814

> <PUBCHEM_XREF_EXT_ID>
SCHEMBL16125814

> <PUBCHEM_EXT_DATASOURCE_URL>
https://www.surechembl.org/

> <PUBCHEM_EXT_SUBSTANCE_URL>
https://www.surechembl.org/chemical/SCHEMBL16125814

> <PUBCHEM_CID_ASSOCIATIONS>
117613363  1

> <PUBCHEM_COORDINATE_TYPE>
1
3

> <PUBCHEM_BONDANNOTATIONS>
17  10  5
19  11  5
23  13  6
26  14  5
32  15  5

$$$$
