310943814
  -OEChem-07211613022D

 25 27  0     1  0  0  0  0  0999 V2000
   -1.9113    2.0620    0.0000 O   0  0  0  0  0  0  0  0  0  0  0  0
   -0.8974   -1.5003    0.0000 N   0  0  0  0  0  0  0  0  0  0  0  0
   -0.2261   -1.9798    0.0000 N   0  0  0  0  0  0  0  0  0  0  0  0
    1.4591   -0.0617    0.0000 N   0  0  3  0  0  0  0  0  0  0  0  0
    3.1581    1.2947    0.0000 N   0  0  0  0  0  0  0  0  0  0  0  0
   -2.1579    1.2947    0.0000 C   0  0  0  0  0  0  0  0  0  0  0  0
   -0.6508   -0.7056    0.0000 C   0  0  0  0  0  0  0  0  0  0  0  0
   -1.1578   -0.0342    0.0000 C   0  0  0  0  0  0  0  0  0  0  0  0
   -3.2540    2.0620    0.0000 C   0  0  0  0  0  0  0  0  0  0  0  0
   -2.9800    1.2811    0.0000 C   0  0  0  0  0  0  0  0  0  0  0  0
    0.1712   -0.6782    0.0000 C   0  0  0  0  0  0  0  0  0  0  0  0
   -2.4593    0.5275    0.0000 C   0  0  0  0  0  0  0  0  0  0  0  0
   -1.3222    1.3770    0.0000 C   0  0  0  0  0  0  0  0  0  0  0  0
   -1.9798   -0.1165    0.0000 C   0  0  0  0  0  0  0  0  0  0  0  0
   -0.8426    0.7467    0.0000 C   0  0  0  0  0  0  0  0  0  0  0  0
   -2.5963    2.5416    0.0000 C   0  0  0  0  0  0  0  0  0  0  0  0
    0.4316   -1.4455    0.0000 C   0  0  0  0  0  0  0  0  0  0  0  0
    0.6371    0.0068    0.0000 C   0  0  0  0  0  0  0  0  0  0  0  0
   -4.0076    1.7058    0.0000 C   0  0  0  0  0  0  0  0  0  0  0  0
   -3.6650    2.7881    0.0000 C   0  0  0  0  0  0  0  0  0  0  0  0
   -0.2124   -2.7881    0.0000 C   0  0  0  0  0  0  0  0  0  0  0  0
    1.9113    0.6645    0.0000 C   0  0  0  0  0  0  0  0  0  0  0  0
    1.8565   -0.7604    0.0000 C   0  0  0  0  0  0  0  0  0  0  0  0
    2.7334    0.6234    0.0000 C   0  0  0  0  0  0  0  0  0  0  0  0
    4.0076    1.2811    0.0000 C   0  0  0  0  0  0  0  0  0  0  0  0
  6  1  1  1  0  0  0
  1 16  1  0  0  0  0
  2  3  1  0  0  0  0
  2  7  2  0  0  0  0
  3 17  1  0  0  0  0
  3 21  1  0  0  0  0
  4 18  1  0  0  0  0
  4 22  1  0  0  0  0
  4 23  1  0  0  0  0
  5 24  1  0  0  0  0
  5 25  1  0  0  0  0
  6 10  1  0  0  0  0
  6 12  1  0  0  0  0
  6 13  1  0  0  0  0
  8  7  1  1  0  0  0
  7 11  1  0  0  0  0
  8 14  1  0  0  0  0
  8 15  1  0  0  0  0
  9 10  1  0  0  0  0
  9 16  1  0  0  0  0
  9 19  1  0  0  0  0
  9 20  1  0  0  0  0
 11 17  2  0  0  0  0
 11 18  1  0  0  0  0
 12 14  1  0  0  0  0
 13 15  1  0  0  0  0
 22 24  1  0  0  0  0
M  END
> <PUBCHEM_COMPOUND_ID_TYPE>
0

> <PUBCHEM_TOTAL_CHARGE>
0

> <PUBCHEM_SUBSTANCE_ID>
310943814

> <PUBCHEM_SUBSTANCE_VERSION>
1

> <PUBCHEM_EXT_DATASOURCE_NAME>
4488

> <PUBCHEM_EXT_DATASOURCE_REGID>
SCHEMBL16121885

> <PUBCHEM_SUBSTANCE_COMMENT>
InChI=1S/C20H36N4O/c1-19(2)14-20(25-15-19)8-6-16(7-9-20)18-17(13-24(5)22-18)12-23(4)11-10-21-3/h13,16,21H,6-12,14-15H2,1-5H3/t16-,20+
InChIKey=RIHGWJJQCOUJNW-MOBUCQHHSA-N

> <PUBCHEM_SUBSTANCE_SYNONYM>
SCHEMBL16121885

> <PUBCHEM_XREF_EXT_ID>
SCHEMBL16121885

> <PUBCHEM_EXT_DATASOURCE_URL>
https://www.surechembl.org/

> <PUBCHEM_EXT_SUBSTANCE_URL>
https://www.surechembl.org/chemical/SCHEMBL16121885

> <PUBCHEM_CID_ASSOCIATIONS>
90460591  1

> <PUBCHEM_COORDINATE_TYPE>
1
3

> <PUBCHEM_BONDANNOTATIONS>
6  1  5
8  7  5

$$$$
