310945010
  -OEChem-07211613022D

 15 16  0     0  0  0  0  0  0999 V2000
   -3.3778   -0.4070    0.0000 O   0  0  0  0  0  0  0  0  0  0  0  0
   -2.5809   -0.6496    0.0000 N   0  0  0  0  0  0  0  0  0  0  0  0
   -1.2471   -0.0087    0.0000 C   0  0  0  0  0  0  0  0  0  0  0  0
   -2.0787    0.0087    0.0000 C   0  0  0  0  0  0  0  0  0  0  0  0
   -0.8314    0.6670    0.0000 C   0  0  0  0  0  0  0  0  0  0  0  0
   -0.8141   -0.7016    0.0000 C   0  0  0  0  0  0  0  0  0  0  0  0
   -2.5982    0.6496    0.0000 C   0  0  0  0  0  0  0  0  0  0  0  0
    0.4330   -0.0087    0.0000 C   0  0  0  0  0  0  0  0  0  0  0  0
    0.0346    0.6843    0.0000 C   0  0  0  0  0  0  0  0  0  0  0  0
    0.0346   -0.7016    0.0000 C   0  0  0  0  0  0  0  0  0  0  0  0
   -3.3604    0.4070    0.0000 C   0  0  0  0  0  0  0  0  0  0  0  0
    1.2818   -0.0260    0.0000 C   0  0  0  0  0  0  0  0  0  0  0  0
    2.1479    0.0087    0.0000 C   0  0  0  0  0  0  0  0  0  0  0  0
    2.9794   -0.0087    0.0000 C   0  0  0  0  0  0  0  0  0  0  0  0
    3.3778    0.7016    0.0000 C   0  0  0  0  0  0  0  0  0  0  0  0
  1  2  1  0  0  0  0
  1 11  1  0  0  0  0
  2  4  2  0  0  0  0
  3  4  1  0  0  0  0
  3  5  2  0  0  0  0
  3  6  1  0  0  0  0
  4  7  1  0  0  0  0
  5  9  1  0  0  0  0
  6 10  2  0  0  0  0
  7 11  2  0  0  0  0
  8  9  2  0  0  0  0
  8 10  1  0  0  0  0
  8 12  1  0  0  0  0
 12 13  3  0  0  0  0
 13 14  1  0  0  0  0
 14 15  1  0  0  0  0
M  END
> <PUBCHEM_COMPOUND_ID_TYPE>
0

> <PUBCHEM_TOTAL_CHARGE>
0

> <PUBCHEM_SUBSTANCE_ID>
310945010

> <PUBCHEM_SUBSTANCE_VERSION>
1

> <PUBCHEM_EXT_DATASOURCE_NAME>
4488

> <PUBCHEM_EXT_DATASOURCE_REGID>
SCHEMBL16123098

> <PUBCHEM_SUBSTANCE_COMMENT>
InChI=1S/C13H11NO/c1-2-3-4-11-5-7-12(8-6-11)13-9-10-15-14-13/h5-10H,2H2,1H3
InChIKey=DBWFWSMXPIKGHG-UHFFFAOYSA-N

> <PUBCHEM_SUBSTANCE_SYNONYM>
SCHEMBL16123098

> <PUBCHEM_XREF_EXT_ID>
SCHEMBL16123098

> <PUBCHEM_EXT_DATASOURCE_URL>
https://www.surechembl.org/

> <PUBCHEM_EXT_SUBSTANCE_URL>
https://www.surechembl.org/chemical/SCHEMBL16123098

> <PUBCHEM_CID_ASSOCIATIONS>
117611148  1

> <PUBCHEM_COORDINATE_TYPE>
1
3

$$$$
