310929513
  -OEChem-07211613022D

 46 50  0     1  0  0  0  0  0999 V2000
    1.4616   -0.4972    0.0000 O   0  0  0  0  0  0  0  0  0  0  0  0
    5.1028   -1.5144    0.0000 O   0  0  0  0  0  0  0  0  0  0  0  0
    2.2838   -0.5650    0.0000 O   0  0  0  0  0  0  0  0  0  0  0  0
    0.2870    0.3166    0.0000 O   0  0  0  0  0  0  0  0  0  0  0  0
    3.4902    1.7663    0.0000 O   0  0  0  0  0  0  0  0  0  0  0  0
    4.9188    1.7983    0.0000 O   0  0  0  0  0  0  0  0  0  0  0  0
    3.5759    0.0454    0.0000 N   0  0  0  0  0  0  0  0  0  0  0  0
    1.5791    0.9270    0.0000 N   0  0  0  0  0  0  0  0  0  0  0  0
    5.0403   -1.1700    0.0000 N   0  0  0  0  0  0  0  0  0  0  0  0
    0.9918   -1.1753    0.0000 C   0  0  3  0  0  0  0  0  0  0  0  0
    1.3442   -1.9213    0.0000 C   0  0  3  0  0  0  0  0  0  0  0  0
    0.5219   -1.8534    0.0000 C   0  0  3  0  0  0  0  0  0  0  0  0
    2.1664   -1.9891    0.0000 C   0  0  0  0  0  0  0  0  0  0  0  0
    4.2323    0.5451    0.0000 C   0  0  3  0  0  0  0  0  0  0  0  0
    2.4013    0.8591    0.0000 C   0  0  3  0  0  0  0  0  0  0  0  0
    2.7537    0.1132    0.0000 C   0  0  0  0  0  0  0  0  0  0  0  0
    1.1092    0.2488    0.0000 C   0  0  0  0  0  0  0  0  0  0  0  0
    4.7504   -0.7684    0.0000 C   0  0  3  0  0  0  0  0  0  0  0  0
   -0.2240   -2.2058    0.0000 C   0  0  0  0  0  0  0  0  0  0  0  0
    4.9104    0.0753    0.0000 C   0  0  0  0  0  0  0  0  0  0  0  0
    3.9282   -0.7006    0.0000 C   0  0  0  0  0  0  0  0  0  0  0  0
    2.8711    1.5373    0.0000 C   0  0  0  0  0  0  0  0  0  0  0  0
    4.2138    1.3699    0.0000 C   0  0  0  0  0  0  0  0  0  0  0  0
    2.5187   -2.7350    0.0000 C   0  0  0  0  0  0  0  0  0  0  0  0
    4.6330   -2.1925    0.0000 C   0  0  0  0  0  0  0  0  0  0  0  0
    4.9854   -2.9385    0.0000 C   0  0  0  0  0  0  0  0  0  0  0  0
    5.8076   -3.0063    0.0000 C   0  0  0  0  0  0  0  0  0  0  0  0
    3.3409   -2.8028    0.0000 C   0  0  0  0  0  0  0  0  0  0  0  0
    6.2774   -2.3281    0.0000 C   0  0  0  0  0  0  0  0  0  0  0  0
    5.9250   -1.5822    0.0000 C   0  0  0  0  0  0  0  0  0  0  0  0
    3.3409    2.2154    0.0000 C   0  0  0  0  0  0  0  0  0  0  0  0
    2.1930    2.0071    0.0000 C   0  0  0  0  0  0  0  0  0  0  0  0
    3.5493    1.0675    0.0000 C   0  0  0  0  0  0  0  0  0  0  0  0
    4.5155   -3.6166    0.0000 C   0  0  0  0  0  0  0  0  0  0  0  0
    3.6933   -3.5488    0.0000 C   0  0  0  0  0  0  0  0  0  0  0  0
    7.0996   -2.3960    0.0000 C   0  0  0  0  0  0  0  0  0  0  0  0
    6.1599   -3.7523    0.0000 C   0  0  0  0  0  0  0  0  0  0  0  0
    6.3949   -0.9040    0.0000 C   0  0  0  0  0  0  0  0  0  0  0  0
    7.5694   -1.7178    0.0000 C   0  0  0  0  0  0  0  0  0  0  0  0
    7.2171   -0.9719    0.0000 C   0  0  0  0  0  0  0  0  0  0  0  0
    6.9822   -3.8201    0.0000 C   0  0  0  0  0  0  0  0  0  0  0  0
    0.3136   -0.7055    0.0000 H   0  0  0  0  0  0  0  0  0  0  0  0
    1.2763   -2.7435    0.0000 H   0  0  0  0  0  0  0  0  0  0  0  0
    4.9588    0.9361    0.0000 H   0  0  0  0  0  0  0  0  0  0  0  0
    3.2235    0.7913    0.0000 H   0  0  0  0  0  0  0  0  0  0  0  0
    5.5688   -0.6639    0.0000 H   0  0  0  0  0  0  0  0  0  0  0  0
  1 10  1  0  0  0  0
  1 17  1  0  0  0  0
  2 18  1  0  0  0  0
  2 25  1  0  0  0  0
  3 16  2  0  0  0  0
  4 17  2  0  0  0  0
  5 23  2  0  0  0  0
  6 23  1  0  0  0  0
  7 14  1  0  0  0  0
  7 16  1  0  0  0  0
  7 21  1  0  0  0  0
  8 15  1  0  0  0  0
  8 17  1  0  0  0  0
  9 25  2  0  0  0  0
  9 30  1  0  0  0  0
 10 11  1  0  0  0  0
 10 12  1  0  0  0  0
 10 42  1  6  0  0  0
 11 12  1  0  0  0  0
 11 13  1  0  0  0  0
 11 43  1  1  0  0  0
 12 19  1  0  0  0  0
 13 24  1  0  0  0  0
 14 20  1  0  0  0  0
 14 23  1  0  0  0  0
 14 44  1  1  0  0  0
 15 16  1  0  0  0  0
 15 22  1  0  0  0  0
 15 45  1  6  0  0  0
 18 20  1  0  0  0  0
 18 21  1  0  0  0  0
 18 46  1  6  0  0  0
 22 31  1  0  0  0  0
 22 32  1  0  0  0  0
 22 33  1  0  0  0  0
 24 28  1  0  0  0  0
 25 26  1  0  0  0  0
 26 27  2  0  0  0  0
 26 34  1  0  0  0  0
 27 29  1  0  0  0  0
 27 37  1  0  0  0  0
 28 35  1  0  0  0  0
 29 30  2  0  0  0  0
 29 36  1  0  0  0  0
 30 38  1  0  0  0  0
 34 35  1  0  0  0  0
 36 39  2  0  0  0  0
 37 41  2  0  0  0  0
 38 40  2  0  0  0  0
 39 40  1  0  0  0  0
M  END
> <PUBCHEM_COMPOUND_ID_TYPE>
0

> <PUBCHEM_TOTAL_CHARGE>
0

> <PUBCHEM_SUBSTANCE_ID>
310929513

> <PUBCHEM_SUBSTANCE_VERSION>
1

> <PUBCHEM_EXT_DATASOURCE_NAME>
4488

> <PUBCHEM_EXT_DATASOURCE_REGID>
SCHEMBL16106692

> <PUBCHEM_SUBSTANCE_COMMENT>
InChI=1S/C32H41N3O6/c1-6-20-22-13-10-11-15-24(22)33-28-23(20)14-9-7-8-12-21-18(2)26(21)41-31(39)34-27(32(3,4)5)29(36)35-17-19(40-28)16-25(35)30(37)38/h6,10-11,13,15,18-19,21,25-27H,1,7-9,12,14,16-17H2,2-5H3,(H,34,39)(H,37,38)/t18?,19-,21-,25+,26-,27-/m1/s1
InChIKey=AIGPQFZVQKQQII-OMALDGJNSA-N

> <PUBCHEM_SUBSTANCE_SYNONYM>
SCHEMBL16106692

> <PUBCHEM_XREF_EXT_ID>
SCHEMBL16106692

> <PUBCHEM_EXT_DATASOURCE_URL>
https://www.surechembl.org/

> <PUBCHEM_EXT_SUBSTANCE_URL>
https://www.surechembl.org/chemical/SCHEMBL16106692

> <PUBCHEM_CID_ASSOCIATIONS>
117598837  1

> <PUBCHEM_COORDINATE_TYPE>
1
3

> <PUBCHEM_BONDANNOTATIONS>
10  42  6
11  43  5
14  44  5
15  45  6
18  46  6

$$$$
