310933023
  -OEChem-07211613022D

 18 19  0     0  0  0  0  0  0999 V2000
    4.3230   -3.7483    0.0000 O   0  0  0  0  0  0  0  0  0  0  0  0
    2.1739   -2.4988    0.0000 N   0  0  0  0  0  0  0  0  0  0  0  0
    0.7246   -2.4988    0.0000 N   0  0  0  0  0  0  0  0  0  0  0  0
    3.6233   -4.9976    0.0000 N   0  0  0  0  0  0  0  0  0  0  0  0
    0.0000   -2.9236    0.0000 N   0  0  0  0  0  0  0  0  0  0  0  0
    2.8736   -2.9236    0.0000 C   0  0  0  0  0  0  0  0  0  0  0  0
    2.8736   -3.7483    0.0000 C   0  0  0  0  0  0  0  0  0  0  0  0
    1.4493   -2.9236    0.0000 C   0  0  0  0  0  0  0  0  0  0  0  0
    2.1739   -4.1480    0.0000 C   0  0  0  0  0  0  0  0  0  0  0  0
    3.5983   -2.4988    0.0000 C   0  0  0  0  0  0  0  0  0  0  0  0
    3.6233   -4.1480    0.0000 C   0  0  0  0  0  0  0  0  0  0  0  0
    1.4493   -3.7483    0.0000 C   0  0  0  0  0  0  0  0  0  0  0  0
    3.6233   -1.6742    0.0000 C   0  0  0  0  0  0  0  0  0  0  0  0
    4.3230   -1.2494    0.0000 C   0  0  0  0  0  0  0  0  0  0  0  0
    2.8986   -1.2494    0.0000 C   0  0  0  0  0  0  0  0  0  0  0  0
    4.3480   -0.4248    0.0000 C   0  0  0  0  0  0  0  0  0  0  0  0
    2.8986   -0.4248    0.0000 C   0  0  0  0  0  0  0  0  0  0  0  0
    3.6233    0.0000    0.0000 C   0  0  0  0  0  0  0  0  0  0  0  0
  1 11  2  0  0  0  0
  2  6  1  0  0  0  0
  2  8  2  0  0  0  0
  3  5  1  0  0  0  0
  3  8  1  0  0  0  0
  4 11  1  0  0  0  0
  6  7  2  0  0  0  0
  6 10  1  0  0  0  0
  7  9  1  0  0  0  0
  7 11  1  0  0  0  0
  8 12  1  0  0  0  0
  9 12  2  0  0  0  0
 10 13  1  0  0  0  0
 13 14  2  0  0  0  0
 13 15  1  0  0  0  0
 14 16  1  0  0  0  0
 15 17  2  0  0  0  0
 16 18  2  0  0  0  0
 17 18  1  0  0  0  0
M  END
> <PUBCHEM_COMPOUND_ID_TYPE>
0

> <PUBCHEM_TOTAL_CHARGE>
0

> <PUBCHEM_SUBSTANCE_ID>
310933023

> <PUBCHEM_SUBSTANCE_VERSION>
1

> <PUBCHEM_EXT_DATASOURCE_NAME>
4488

> <PUBCHEM_EXT_DATASOURCE_REGID>
SCHEMBL16110423

> <PUBCHEM_SUBSTANCE_COMMENT>
InChI=1S/C13H14N4O/c14-13(18)10-6-7-12(17-15)16-11(10)8-9-4-2-1-3-5-9/h1-7H,8,15H2,(H2,14,18)(H,16,17)
InChIKey=UKFZXSMXVSXUIB-UHFFFAOYSA-N

> <PUBCHEM_SUBSTANCE_SYNONYM>
SCHEMBL16110423

> <PUBCHEM_XREF_EXT_ID>
SCHEMBL16110423

> <PUBCHEM_EXT_DATASOURCE_URL>
https://www.surechembl.org/

> <PUBCHEM_EXT_SUBSTANCE_URL>
https://www.surechembl.org/chemical/SCHEMBL16110423

> <PUBCHEM_CID_ASSOCIATIONS>
117601489  1

> <PUBCHEM_COORDINATE_TYPE>
1
3

$$$$
