310944199
  -OEChem-07211613022D

 33 37  0     1  0  0  0  0  0999 V2000
    2.5472    1.1058    0.0000 O   0  0  0  0  0  0  0  0  0  0  0  0
    5.3529    0.1155    0.0000 O   0  0  0  0  0  0  0  0  0  0  0  0
    5.5510    1.5679    0.0000 O   0  0  0  0  0  0  0  0  0  0  0  0
    3.2404   -0.1926    0.0000 N   0  0  0  0  0  0  0  0  0  0  0  0
    0.3246    0.2475    0.0000 N   0  0  0  0  0  0  0  0  0  0  0  0
   -4.2197    0.8637    0.0000 N   0  0  0  0  0  0  0  0  0  0  0  0
   -2.8333    1.1938    0.0000 N   0  0  0  0  0  0  0  0  0  0  0  0
   -2.4482   -0.4126    0.0000 N   0  0  0  0  0  0  0  0  0  0  0  0
   -4.4948    1.6339    0.0000 N   0  0  0  0  0  0  0  0  0  0  0  0
   -5.3200    1.6339    0.0000 N   0  0  0  0  0  0  0  0  0  0  0  0
   -5.5510    0.8637    0.0000 N   0  0  0  0  0  0  0  0  0  0  0  0
    1.9090   -0.2146    0.0000 C   0  0  0  0  0  0  0  0  0  0  0  0
    2.5582    0.2586    0.0000 C   0  0  0  0  0  0  0  0  0  0  0  0
    3.0093   -0.9847    0.0000 C   0  0  3  0  0  0  0  0  0  0  0  0
    2.1841   -0.9958    0.0000 C   0  0  0  0  0  0  0  0  0  0  0  0
    4.0106    0.0825    0.0000 C   0  0  0  0  0  0  0  0  0  0  0  0
    1.3149   -0.7867    0.0000 C   0  0  0  0  0  0  0  0  0  0  0  0
    1.7220    0.5777    0.0000 C   0  0  0  0  0  0  0  0  0  0  0  0
    0.5226   -0.5446    0.0000 C   0  0  0  0  0  0  0  0  0  0  0  0
    0.9298    0.8197    0.0000 C   0  0  0  0  0  0  0  0  0  0  0  0
    4.2637    0.8747    0.0000 C   0  0  0  0  0  0  0  0  0  0  0  0
    4.7038   -0.3796    0.0000 C   0  0  0  0  0  0  0  0  0  0  0  0
    3.5154   -1.6339    0.0000 C   0  0  0  0  0  0  0  0  0  0  0  0
    5.0559    0.8637    0.0000 C   0  0  0  0  0  0  0  0  0  0  0  0
   -0.4566    0.4897    0.0000 C   0  0  0  0  0  0  0  0  0  0  0  0
   -1.8540    0.1595    0.0000 C   0  0  0  0  0  0  0  0  0  0  0  0
   -3.4274    0.6217    0.0000 C   0  0  0  0  0  0  0  0  0  0  0  0
   -2.0410    0.9627    0.0000 C   0  0  0  0  0  0  0  0  0  0  0  0
   -1.0508   -0.0715    0.0000 C   0  0  0  0  0  0  0  0  0  0  0  0
   -3.2294   -0.1706    0.0000 C   0  0  0  0  0  0  0  0  0  0  0  0
   -4.8578    0.4126    0.0000 C   0  0  0  0  0  0  0  0  0  0  0  0
   -1.4359    1.5239    0.0000 C   0  0  0  0  0  0  0  0  0  0  0  0
   -0.6327    1.2929    0.0000 C   0  0  0  0  0  0  0  0  0  0  0  0
  1 13  2  0  0  0  0
  2 22  1  0  0  0  0
  2 24  1  0  0  0  0
  3 24  2  0  0  0  0
  4 13  1  0  0  0  0
  4 14  1  0  0  0  0
  4 16  1  0  0  0  0
  5 19  1  0  0  0  0
  5 20  1  0  0  0  0
  5 25  1  0  0  0  0
  6  9  1  0  0  0  0
  6 27  1  0  0  0  0
  6 31  1  0  0  0  0
  7 27  2  0  0  0  0
  7 28  1  0  0  0  0
  8 26  1  0  0  0  0
  8 30  2  0  0  0  0
  9 10  2  0  0  0  0
 10 11  1  0  0  0  0
 11 31  2  0  0  0  0
 12 13  1  0  0  0  0
 12 15  1  0  0  0  0
 12 17  1  0  0  0  0
 12 18  1  0  0  0  0
 14 15  1  0  0  0  0
 14 23  1  1  0  0  0
 16 21  2  0  0  0  0
 16 22  1  0  0  0  0
 17 19  1  0  0  0  0
 18 20  1  0  0  0  0
 21 24  1  0  0  0  0
 25 29  1  0  0  0  0
 26 28  2  0  0  0  0
 26 29  1  0  0  0  0
 27 30  1  0  0  0  0
 28 32  1  0  0  0  0
 32 33  1  0  0  0  0
M  END
> <PUBCHEM_COMPOUND_ID_TYPE>
0

> <PUBCHEM_TOTAL_CHARGE>
0

> <PUBCHEM_SUBSTANCE_ID>
310944199

> <PUBCHEM_SUBSTANCE_VERSION>
1

> <PUBCHEM_EXT_DATASOURCE_NAME>
4488

> <PUBCHEM_EXT_DATASOURCE_REGID>
SCHEMBL16122274

> <PUBCHEM_SUBSTANCE_COMMENT>
InChI=1S/C22H28N8O3/c1-3-17-18(23-12-19(25-17)29-14-24-26-27-29)4-7-28-8-5-22(6-9-28)11-15(2)30(21(22)32)16-10-20(31)33-13-16/h10,12,14-15H,3-9,11,13H2,1-2H3/t15-/m0/s1
InChIKey=UFHISVMTQCKOKP-HNNXBMFYSA-N

> <PUBCHEM_SUBSTANCE_SYNONYM>
SCHEMBL16122274

> <PUBCHEM_XREF_EXT_ID>
SCHEMBL16122274

> <PUBCHEM_EXT_DATASOURCE_URL>
https://www.surechembl.org/

> <PUBCHEM_EXT_SUBSTANCE_URL>
https://www.surechembl.org/chemical/SCHEMBL16122274

> <PUBCHEM_CID_ASSOCIATIONS>
117610470  1

> <PUBCHEM_COORDINATE_TYPE>
1
3

> <PUBCHEM_BONDANNOTATIONS>
14  23  5

$$$$
