310929961
  -OEChem-07211613022D

 23 24  0     1  0  0  0  0  0999 V2000
  -16.6542   -2.8876    0.0000 O   0  0  0  0  0  0  0  0  0  0  0  0
  -15.9398   -1.6500    0.0000 O   0  0  0  0  0  0  0  0  0  0  0  0
  -13.7963   -3.7126    0.0000 O   0  0  0  0  0  0  0  0  0  0  0  0
  -13.0818   -2.4751    0.0000 O   0  0  0  0  0  0  0  0  0  0  0  0
  -15.2253   -2.8876    0.0000 N   0  0  0  0  0  0  0  0  0  0  0  0
  -14.5108   -1.6500    0.0000 C   0  0  0  0  0  0  0  0  0  0  0  0
  -14.5108   -2.4751    0.0000 C   0  0  3  0  0  0  0  0  0  0  0  0
  -17.3688   -2.4751    0.0000 C   0  0  3  0  0  0  0  0  0  0  0  0
  -18.1938   -2.4751    0.0000 C   0  0  3  0  0  0  0  0  0  0  0  0
  -17.7813   -1.7606    0.0000 C   0  0  0  0  0  0  0  0  0  0  0  0
  -15.9398   -2.4751    0.0000 C   0  0  0  0  0  0  0  0  0  0  0  0
  -13.7963   -2.8876    0.0000 C   0  0  0  0  0  0  0  0  0  0  0  0
  -15.2253   -1.2375    0.0000 C   0  0  0  0  0  0  0  0  0  0  0  0
  -13.7963   -1.2375    0.0000 C   0  0  0  0  0  0  0  0  0  0  0  0
  -18.9082   -2.8876    0.0000 C   0  0  0  0  0  0  0  0  0  0  0  0
  -13.7963   -2.0625    0.0000 C   0  0  0  0  0  0  0  0  0  0  0  0
  -15.2253   -0.4125    0.0000 C   0  0  0  0  0  0  0  0  0  0  0  0
  -13.7963   -0.4125    0.0000 C   0  0  0  0  0  0  0  0  0  0  0  0
  -14.5108    0.0000    0.0000 C   0  0  0  0  0  0  0  0  0  0  0  0
  -19.6228   -2.4751    0.0000 C   0  0  0  0  0  0  0  0  0  0  0  0
  -20.3372   -2.8876    0.0000 C   0  0  0  0  0  0  0  0  0  0  0  0
  -21.0517   -2.4751    0.0000 C   0  0  0  0  0  0  0  0  0  0  0  0
  -21.7662   -2.0625    0.0000 C   0  0  0  0  0  0  0  0  0  0  0  0
  8  1  1  1  0  0  0
  1 11  1  0  0  0  0
  2 11  2  0  0  0  0
  3 12  2  0  0  0  0
  4 12  1  0  0  0  0
  5  7  1  0  0  0  0
  5 11  1  0  0  0  0
  6  7  1  0  0  0  0
  6 13  1  0  0  0  0
  6 14  1  0  0  0  0
  6 16  1  0  0  0  0
  7 12  1  0  0  0  0
  8  9  1  0  0  0  0
  8 10  1  0  0  0  0
  9 10  1  0  0  0  0
  9 15  1  6  0  0  0
 13 17  1  0  0  0  0
 14 18  1  0  0  0  0
 15 20  1  0  0  0  0
 17 19  1  0  0  0  0
 18 19  1  0  0  0  0
 20 21  1  0  0  0  0
 21 22  1  0  0  0  0
 22 23  3  0  0  0  0
M  END
> <PUBCHEM_COMPOUND_ID_TYPE>
0

> <PUBCHEM_TOTAL_CHARGE>
0

> <PUBCHEM_SUBSTANCE_ID>
310929961

> <PUBCHEM_SUBSTANCE_VERSION>
1

> <PUBCHEM_EXT_DATASOURCE_NAME>
4488

> <PUBCHEM_EXT_DATASOURCE_REGID>
SCHEMBL16107189

> <PUBCHEM_SUBSTANCE_COMMENT>
InChI=1S/C18H27NO4/c1-3-4-6-9-13-12-14(13)23-17(22)19-15(16(20)21)18(2)10-7-5-8-11-18/h1,13-15H,4-12H2,2H3,(H,19,22)(H,20,21)/t13-,14-,15?/m1/s1
InChIKey=NTCSFCFYZVNYLB-GRKKQISMSA-N

> <PUBCHEM_SUBSTANCE_SYNONYM>
SCHEMBL16107189

> <PUBCHEM_XREF_EXT_ID>
SCHEMBL16107189

> <PUBCHEM_EXT_DATASOURCE_URL>
https://www.surechembl.org/

> <PUBCHEM_EXT_SUBSTANCE_URL>
https://www.surechembl.org/chemical/SCHEMBL16107189

> <PUBCHEM_CID_ASSOCIATIONS>
117599220  1

> <PUBCHEM_COORDINATE_TYPE>
1
3

> <PUBCHEM_BONDANNOTATIONS>
8  1  5
9  15  6

$$$$
