310944560
  -OEChem-07211613022D

 23 24  0     0  0  0  0  0  0999 V2000
   -2.8435    1.6504    0.0000 Cl  0  0  0  0  0  0  0  0  0  0  0  0
   -2.8435   -1.6504    0.0000 Cl  0  0  0  0  0  0  0  0  0  0  0  0
    0.0000    1.6504    0.0000 O   0  0  0  0  0  0  0  0  0  0  0  0
   -4.2775   -0.8222    0.0000 O   0  0  0  0  0  0  0  0  0  0  0  0
    2.8559   -1.6504    0.0000 O   0  0  0  0  0  0  0  0  0  0  0  0
    0.7418    0.4141    0.0000 N   0  0  0  0  0  0  0  0  0  0  0  0
    2.1635   -0.4141    0.0000 N   0  0  0  0  0  0  0  0  0  0  0  0
   -1.4094    0.8222    0.0000 N   0  0  0  0  0  0  0  0  0  0  0  0
   -2.1264    0.4265    0.0000 C   0  0  0  0  0  0  0  0  0  0  0  0
   -2.8435    0.8222    0.0000 C   0  0  0  0  0  0  0  0  0  0  0  0
   -2.8435   -0.8098    0.0000 C   0  0  0  0  0  0  0  0  0  0  0  0
    0.0124    0.8098    0.0000 C   0  0  0  0  0  0  0  0  0  0  0  0
   -3.5605   -0.4018    0.0000 C   0  0  0  0  0  0  0  0  0  0  0  0
   -2.1264   -0.4018    0.0000 C   0  0  0  0  0  0  0  0  0  0  0  0
   -3.5358    0.4141    0.0000 C   0  0  0  0  0  0  0  0  0  0  0  0
   -0.6923    0.4141    0.0000 C   0  0  0  0  0  0  0  0  0  0  0  0
    1.4341    0.8222    0.0000 C   0  0  0  0  0  0  0  0  0  0  0  0
    0.7418   -0.4141    0.0000 C   0  0  0  0  0  0  0  0  0  0  0  0
    2.1512    0.4141    0.0000 C   0  0  0  0  0  0  0  0  0  0  0  0
    1.4588   -0.8222    0.0000 C   0  0  0  0  0  0  0  0  0  0  0  0
    2.8682   -0.7974    0.0000 C   0  0  0  0  0  0  0  0  0  0  0  0
    3.5729   -0.4141    0.0000 C   0  0  0  0  0  0  0  0  0  0  0  0
    4.2775   -0.8716    0.0000 C   0  0  0  0  0  0  0  0  0  0  0  0
  1 10  1  0  0  0  0
  2 11  1  0  0  0  0
  3 12  2  0  0  0  0
  4 13  1  0  0  0  0
  5 21  2  0  0  0  0
  6 12  1  0  0  0  0
  6 17  1  0  0  0  0
  6 18  1  0  0  0  0
  7 19  1  0  0  0  0
  7 20  1  0  0  0  0
  7 21  1  0  0  0  0
  8  9  1  0  0  0  0
  8 16  1  0  0  0  0
  9 10  1  0  0  0  0
  9 14  2  0  0  0  0
 10 15  2  0  0  0  0
 11 13  2  0  0  0  0
 11 14  1  0  0  0  0
 12 16  1  0  0  0  0
 13 15  1  0  0  0  0
 17 19  1  0  0  0  0
 18 20  1  0  0  0  0
 21 22  1  0  0  0  0
 22 23  2  0  0  0  0
M  END
> <PUBCHEM_COMPOUND_ID_TYPE>
0

> <PUBCHEM_TOTAL_CHARGE>
0

> <PUBCHEM_SUBSTANCE_ID>
310944560

> <PUBCHEM_SUBSTANCE_VERSION>
1

> <PUBCHEM_EXT_DATASOURCE_NAME>
4488

> <PUBCHEM_EXT_DATASOURCE_REGID>
SCHEMBL16122637

> <PUBCHEM_SUBSTANCE_COMMENT>
InChI=1S/C15H17Cl2N3O3/c1-2-14(22)19-3-5-20(6-4-19)15(23)9-18-12-7-11(17)13(21)8-10(12)16/h2,7-8,18,21H,1,3-6,9H2
InChIKey=BTDDXTZYWPLGGX-UHFFFAOYSA-N

> <PUBCHEM_SUBSTANCE_SYNONYM>
SCHEMBL16122637

> <PUBCHEM_XREF_EXT_ID>
SCHEMBL16122637

> <PUBCHEM_EXT_DATASOURCE_URL>
https://www.surechembl.org/

> <PUBCHEM_EXT_SUBSTANCE_URL>
https://www.surechembl.org/chemical/SCHEMBL16122637

> <PUBCHEM_CID_ASSOCIATIONS>
117610795  1

> <PUBCHEM_COORDINATE_TYPE>
1
3

$$$$
