310935682
  -OEChem-07211613022D

 21 23  0     0  0  0  0  0  0999 V2000
    2.0545   -1.3370    0.0000 S   0  0  0  0  0  0  0  0  0  0  0  0
    0.6522   -2.4132    0.0000 N   0  0  0  0  0  0  0  0  0  0  0  0
    2.0545    0.0000    0.0000 N   0  0  0  0  0  0  0  0  0  0  0  0
    3.3589   -0.6848    0.0000 N   0  0  0  0  0  0  0  0  0  0  0  0
    1.2718   -1.0761    0.0000 C   0  0  0  0  0  0  0  0  0  0  0  0
    0.8153   -4.0438    0.0000 C   0  0  0  0  0  0  0  0  0  0  0  0
    2.5110   -0.6848    0.0000 C   0  0  0  0  0  0  0  0  0  0  0  0
    0.5870   -1.5653    0.0000 C   0  0  0  0  0  0  0  0  0  0  0  0
    0.9131   -4.8590    0.0000 C   0  0  0  0  0  0  0  0  0  0  0  0
    1.2718   -0.2609    0.0000 C   0  0  0  0  0  0  0  0  0  0  0  0
    1.4349   -2.7393    0.0000 C   0  0  0  0  0  0  0  0  0  0  0  0
    0.0000   -2.8698    0.0000 C   0  0  0  0  0  0  0  0  0  0  0  0
    1.5001   -3.5546    0.0000 C   0  0  0  0  0  0  0  0  0  0  0  0
    0.0652   -3.6850    0.0000 C   0  0  0  0  0  0  0  0  0  0  0  0
    1.6632   -5.2177    0.0000 C   0  0  0  0  0  0  0  0  0  0  0  0
    0.2283   -5.3481    0.0000 C   0  0  0  0  0  0  0  0  0  0  0  0
    1.7284   -6.0330    0.0000 C   0  0  0  0  0  0  0  0  0  0  0  0
    0.2935   -6.1635    0.0000 C   0  0  0  0  0  0  0  0  0  0  0  0
    3.7829   -1.4023    0.0000 C   0  0  0  0  0  0  0  0  0  0  0  0
    1.0436   -6.5221    0.0000 C   0  0  0  0  0  0  0  0  0  0  0  0
    4.5981   -1.4023    0.0000 C   0  0  0  0  0  0  0  0  0  0  0  0
  1  5  1  0  0  0  0
  1  7  1  0  0  0  0
  2  8  1  0  0  0  0
  2 11  1  0  0  0  0
  2 12  1  0  0  0  0
  3  7  2  0  0  0  0
  3 10  1  0  0  0  0
  4  7  1  0  0  0  0
  4 19  1  0  0  0  0
  5  8  1  0  0  0  0
  5 10  2  0  0  0  0
  6  9  1  0  0  0  0
  6 13  1  0  0  0  0
  6 14  1  0  0  0  0
  9 15  2  0  0  0  0
  9 16  1  0  0  0  0
 11 13  1  0  0  0  0
 12 14  1  0  0  0  0
 15 17  1  0  0  0  0
 16 18  2  0  0  0  0
 17 20  2  0  0  0  0
 18 20  1  0  0  0  0
 19 21  1  0  0  0  0
M  END
> <PUBCHEM_COMPOUND_ID_TYPE>
0

> <PUBCHEM_TOTAL_CHARGE>
0

> <PUBCHEM_SUBSTANCE_ID>
310935682

> <PUBCHEM_SUBSTANCE_VERSION>
1

> <PUBCHEM_EXT_DATASOURCE_NAME>
4488

> <PUBCHEM_EXT_DATASOURCE_REGID>
SCHEMBL16113264

> <PUBCHEM_SUBSTANCE_COMMENT>
InChI=1S/C17H23N3S/c1-2-18-17-19-12-16(21-17)13-20-10-8-15(9-11-20)14-6-4-3-5-7-14/h3-7,12,15H,2,8-11,13H2,1H3,(H,18,19)
InChIKey=HBFRTSQDXDZUHQ-UHFFFAOYSA-N

> <PUBCHEM_SUBSTANCE_SYNONYM>
SCHEMBL16113264

> <PUBCHEM_XREF_EXT_ID>
SCHEMBL16113264

> <PUBCHEM_EXT_DATASOURCE_URL>
https://www.surechembl.org/

> <PUBCHEM_EXT_SUBSTANCE_URL>
https://www.surechembl.org/chemical/SCHEMBL16113264

> <PUBCHEM_CID_ASSOCIATIONS>
86274333  1

> <PUBCHEM_COORDINATE_TYPE>
1
3

$$$$
