310943689
  -OEChem-07211613022D

 37 41  0     0  0  0  0  0  0999 V2000
    4.6518    2.2828    0.0000 F   0  0  0  0  0  0  0  0  0  0  0  0
    5.3581    1.0424    0.0000 F   0  0  0  0  0  0  0  0  0  0  0  0
   -5.3581    2.2828    0.0000 O   0  0  0  0  0  0  0  0  0  0  0  0
   -2.4981   -2.6963    0.0000 O   0  0  0  0  0  0  0  0  0  0  0  0
    1.7918    2.2656    0.0000 O   0  0  0  0  0  0  0  0  0  0  0  0
   -3.2046    0.2154    0.0000 N   0  0  0  0  0  0  0  0  0  0  0  0
   -3.9281    1.4558    0.0000 N   0  0  0  0  0  0  0  0  0  0  0  0
   -2.4981   -1.0251    0.0000 N   0  0  0  0  0  0  0  0  0  0  0  0
   -0.3446    2.6963    0.0000 N   0  0  0  0  0  0  0  0  0  0  0  0
    1.0854    1.0424    0.0000 N   0  0  0  0  0  0  0  0  0  0  0  0
   -1.7746    1.0424    0.0000 C   0  0  0  0  0  0  0  0  0  0  0  0
   -1.0854    1.4558    0.0000 C   0  0  0  0  0  0  0  0  0  0  0  0
   -3.2046    1.0424    0.0000 C   0  0  0  0  0  0  0  0  0  0  0  0
   -2.4981   -0.1981    0.0000 C   0  0  0  0  0  0  0  0  0  0  0  0
   -2.4981    1.4558    0.0000 C   0  0  0  0  0  0  0  0  0  0  0  0
   -1.7918    0.1981    0.0000 C   0  0  0  0  0  0  0  0  0  0  0  0
   -1.0682    2.2828    0.0000 C   0  0  0  0  0  0  0  0  0  0  0  0
   -0.3274    1.0424    0.0000 C   0  0  0  0  0  0  0  0  0  0  0  0
    0.3446    1.4558    0.0000 C   0  0  0  0  0  0  0  0  0  0  0  0
    0.3790    2.2656    0.0000 C   0  0  0  0  0  0  0  0  0  0  0  0
    1.7746    1.4386    0.0000 C   0  0  0  0  0  0  0  0  0  0  0  0
   -3.9454    2.2828    0.0000 C   0  0  0  0  0  0  0  0  0  0  0  0
   -4.6173    1.0424    0.0000 C   0  0  0  0  0  0  0  0  0  0  0  0
   -3.2046   -1.4386    0.0000 C   0  0  0  0  0  0  0  0  0  0  0  0
   -1.7746   -1.4558    0.0000 C   0  0  0  0  0  0  0  0  0  0  0  0
    2.5154    1.0424    0.0000 C   0  0  0  0  0  0  0  0  0  0  0  0
   -1.7918    2.6790    0.0000 C   0  0  0  0  0  0  0  0  0  0  0  0
    3.2218    1.4386    0.0000 C   0  0  0  0  0  0  0  0  0  0  0  0
    3.9454    1.0424    0.0000 C   0  0  0  0  0  0  0  0  0  0  0  0
   -4.6518    2.6963    0.0000 C   0  0  0  0  0  0  0  0  0  0  0  0
   -5.3581    1.4558    0.0000 C   0  0  0  0  0  0  0  0  0  0  0  0
   -3.2046   -2.2656    0.0000 C   0  0  0  0  0  0  0  0  0  0  0  0
   -1.7918   -2.2656    0.0000 C   0  0  0  0  0  0  0  0  0  0  0  0
    2.5327    0.2154    0.0000 C   0  0  0  0  0  0  0  0  0  0  0  0
    3.9281    0.2154    0.0000 C   0  0  0  0  0  0  0  0  0  0  0  0
    3.2390   -0.1981    0.0000 C   0  0  0  0  0  0  0  0  0  0  0  0
    4.6345    1.4558    0.0000 C   0  0  0  0  0  0  0  0  0  0  0  0
  1 37  1  0  0  0  0
  2 37  1  0  0  0  0
  3 30  1  0  0  0  0
  3 31  1  0  0  0  0
  4 32  1  0  0  0  0
  4 33  1  0  0  0  0
  5 21  2  0  0  0  0
  6 13  2  0  0  0  0
  6 14  1  0  0  0  0
  7 13  1  0  0  0  0
  7 22  1  0  0  0  0
  7 23  1  0  0  0  0
  8 14  1  0  0  0  0
  8 24  1  0  0  0  0
  8 25  1  0  0  0  0
  9 17  2  0  0  0  0
  9 20  1  0  0  0  0
 10 19  1  0  0  0  0
 10 21  1  0  0  0  0
 11 12  1  0  0  0  0
 11 15  2  0  0  0  0
 11 16  1  0  0  0  0
 12 17  1  0  0  0  0
 12 18  2  0  0  0  0
 13 15  1  0  0  0  0
 14 16  2  0  0  0  0
 17 27  1  0  0  0  0
 18 19  1  0  0  0  0
 19 20  2  0  0  0  0
 21 26  1  0  0  0  0
 22 30  1  0  0  0  0
 23 31  1  0  0  0  0
 24 32  1  0  0  0  0
 25 33  1  0  0  0  0
 26 28  1  0  0  0  0
 26 34  2  0  0  0  0
 28 29  2  0  0  0  0
 29 35  1  0  0  0  0
 29 37  1  0  0  0  0
 34 36  1  0  0  0  0
 35 36  2  0  0  0  0
M  END
> <PUBCHEM_COMPOUND_ID_TYPE>
0

> <PUBCHEM_TOTAL_CHARGE>
0

> <PUBCHEM_SUBSTANCE_ID>
310943689

> <PUBCHEM_SUBSTANCE_VERSION>
1

> <PUBCHEM_EXT_DATASOURCE_NAME>
4488

> <PUBCHEM_EXT_DATASOURCE_REGID>
SCHEMBL16121757

> <PUBCHEM_SUBSTANCE_COMMENT>
InChI=1S/C27H29F2N5O3/c1-18-23(16-22(17-30-18)31-27(35)20-4-2-3-19(13-20)26(28)29)21-14-24(33-5-9-36-10-6-33)32-25(15-21)34-7-11-37-12-8-34/h2-4,13-17,26H,5-12H2,1H3,(H,31,35)
InChIKey=ZPFKPMWFOSWJLV-UHFFFAOYSA-N

> <PUBCHEM_SUBSTANCE_SYNONYM>
SCHEMBL16121757

> <PUBCHEM_XREF_EXT_ID>
SCHEMBL16121757

> <PUBCHEM_EXT_DATASOURCE_URL>
https://www.surechembl.org/

> <PUBCHEM_EXT_SUBSTANCE_URL>
https://www.surechembl.org/chemical/SCHEMBL16121757

> <PUBCHEM_CID_ASSOCIATIONS>
117610076  1

> <PUBCHEM_COORDINATE_TYPE>
1
3

$$$$
