310940196
  -OEChem-07211613022D

 23 25  0     1  0  0  0  0  0999 V2000
   -0.1703   -1.9633    0.0000 F   0  0  0  0  0  0  0  0  0  0  0  0
   -0.5910   -3.0050    0.0000 F   0  0  0  0  0  0  0  0  0  0  0  0
   -1.6527   -2.5842    0.0000 F   0  0  0  0  0  0  0  0  0  0  0  0
   -0.2304    0.6410    0.0000 O   0  0  0  0  0  0  0  0  0  0  0  0
    2.2136    1.6026    0.0000 N   0  0  0  0  0  0  0  0  0  0  0  0
    1.9532    2.4040    0.0000 N   0  0  0  0  0  0  0  0  0  0  0  0
    1.5325    0.3005    0.0000 N   0  0  0  0  0  0  0  0  0  0  0  0
   -0.5309    2.0634    0.0000 N   0  0  0  0  0  0  0  0  0  0  0  0
   -2.2136   -1.1819    0.0000 N   0  0  0  0  0  0  0  0  0  0  0  0
    0.8113    1.6227    0.0000 C   0  0  0  0  0  0  0  0  0  0  0  0
    1.5325    1.1419    0.0000 C   0  0  0  0  0  0  0  0  0  0  0  0
    1.0918    2.4040    0.0000 C   0  0  0  0  0  0  0  0  0  0  0  0
    0.0301    1.4624    0.0000 C   0  0  0  0  0  0  0  0  0  0  0  0
    0.8113   -0.1002    0.0000 C   0  0  0  0  0  0  0  0  0  0  0  0
   -0.6311   -0.9415    0.0000 C   0  0  0  0  0  0  0  0  0  0  0  0
    0.5509    3.0050    0.0000 C   0  0  0  0  0  0  0  0  0  0  0  0
   -1.2520   -1.5025    0.0000 C   0  0  3  0  0  0  0  0  0  0  0  0
   -0.9315   -2.2638    0.0000 C   0  0  0  0  0  0  0  0  0  0  0  0
   -0.2504    2.8647    0.0000 C   0  0  0  0  0  0  0  0  0  0  0  0
    0.7913   -0.9415    0.0000 C   0  0  0  0  0  0  0  0  0  0  0  0
    0.0902    0.3005    0.0000 C   0  0  0  0  0  0  0  0  0  0  0  0
    0.0701   -1.3422    0.0000 C   0  0  0  0  0  0  0  0  0  0  0  0
   -0.6110   -0.1002    0.0000 C   0  0  0  0  0  0  0  0  0  0  0  0
  1 18  1  0  0  0  0
  2 18  1  0  0  0  0
  3 18  1  0  0  0  0
  4 13  2  0  0  0  0
  5  6  1  0  0  0  0
  5 11  2  0  0  0  0
  6 12  1  0  0  0  0
  7 11  1  0  0  0  0
  7 14  1  0  0  0  0
  8 13  1  0  0  0  0
  8 19  1  0  0  0  0
 17  9  1  6  0  0  0
 10 11  1  0  0  0  0
 10 12  2  0  0  0  0
 10 13  1  0  0  0  0
 12 16  1  0  0  0  0
 14 20  2  0  0  0  0
 14 21  1  0  0  0  0
 15 17  1  0  0  0  0
 15 22  2  0  0  0  0
 15 23  1  0  0  0  0
 16 19  2  0  0  0  0
 17 18  1  0  0  0  0
 20 22  1  0  0  0  0
 21 23  2  0  0  0  0
M  END
> <PUBCHEM_COMPOUND_ID_TYPE>
0

> <PUBCHEM_TOTAL_CHARGE>
0

> <PUBCHEM_SUBSTANCE_ID>
310940196

> <PUBCHEM_SUBSTANCE_VERSION>
1

> <PUBCHEM_EXT_DATASOURCE_NAME>
4488

> <PUBCHEM_EXT_DATASOURCE_REGID>
SCHEMBL16118130

> <PUBCHEM_SUBSTANCE_COMMENT>
InChI=1S/C14H12F3N5O/c15-14(16,17)11(18)7-1-3-8(4-2-7)20-12-10-9(21-22-12)5-6-19-13(10)23/h1-6,11H,18H2,(H,19,23)(H2,20,21,22)/t11-/m1/s1
InChIKey=KZSCQWILLUHHNE-LLVKDONJSA-N

> <PUBCHEM_SUBSTANCE_SYNONYM>
SCHEMBL16118130

> <PUBCHEM_XREF_EXT_ID>
SCHEMBL16118130

> <PUBCHEM_EXT_DATASOURCE_URL>
https://www.surechembl.org/

> <PUBCHEM_EXT_SUBSTANCE_URL>
https://www.surechembl.org/chemical/SCHEMBL16118130

> <PUBCHEM_CID_ASSOCIATIONS>
117607300  1

> <PUBCHEM_COORDINATE_TYPE>
1
3

> <PUBCHEM_BONDANNOTATIONS>
17  9  6

$$$$
