310947013
  -OEChem-07211613022D

 41 45  0     0  0  0  0  0  0999 V2000
   -1.3492   -2.2193    0.0000 Cl  0  0  0  0  0  0  0  0  0  0  0  0
   -2.7782    0.2557    0.0000 Cl  0  0  0  0  0  0  0  0  0  0  0  0
   -1.2181    2.0766    0.0000 S   0  0  0  0  0  0  0  0  0  0  0  0
   -2.7782   -3.0443    0.0000 O   0  0  0  0  0  0  0  0  0  0  0  0
   -4.2071   -0.5693    0.0000 O   0  0  0  0  0  0  0  0  0  0  0  0
   -0.6348    2.6599    0.0000 O   0  0  0  0  0  0  0  0  0  0  0  0
   -1.8015    1.4932    0.0000 O   0  0  0  0  0  0  0  0  0  0  0  0
   -1.3492   -0.5693    0.0000 N   0  0  0  0  0  0  0  0  0  0  0  0
   -0.6348    1.4932    0.0000 N   0  0  0  0  0  0  0  0  0  0  0  0
    0.0797   -0.5693    0.0000 N   0  0  0  0  0  0  0  0  0  0  0  0
    0.1498    0.4133    0.0000 N   0  0  0  0  0  0  0  0  0  0  0  0
   -1.8015    2.6599    0.0000 N   0  0  0  0  0  0  0  0  0  0  0  0
    1.5086   -0.5693    0.0000 N   0  0  0  0  0  0  0  0  0  0  0  0
    1.5086   -2.2193    0.0000 N   0  0  0  0  0  0  0  0  0  0  0  0
    3.7222    0.5106    0.0000 N   0  0  0  0  0  0  0  0  0  0  0  0
    4.2071   -0.1568    0.0000 N   0  0  0  0  0  0  0  0  0  0  0  0
   -2.0637   -0.9818    0.0000 C   0  0  0  0  0  0  0  0  0  0  0  0
   -0.6348   -0.9818    0.0000 C   0  0  0  0  0  0  0  0  0  0  0  0
   -2.0637   -1.8068    0.0000 C   0  0  0  0  0  0  0  0  0  0  0  0
   -2.7782   -0.5693    0.0000 C   0  0  0  0  0  0  0  0  0  0  0  0
   -0.6348    0.6682    0.0000 C   0  0  0  0  0  0  0  0  0  0  0  0
   -1.3492    0.2557    0.0000 C   0  0  0  0  0  0  0  0  0  0  0  0
   -2.7782   -2.2193    0.0000 C   0  0  0  0  0  0  0  0  0  0  0  0
   -3.4927   -0.9818    0.0000 C   0  0  0  0  0  0  0  0  0  0  0  0
    0.7942   -0.9818    0.0000 C   0  0  0  0  0  0  0  0  0  0  0  0
    0.7942   -1.8068    0.0000 C   0  0  0  0  0  0  0  0  0  0  0  0
   -3.4927   -1.8068    0.0000 C   0  0  0  0  0  0  0  0  0  0  0  0
   -0.6348   -1.8068    0.0000 C   0  0  0  0  0  0  0  0  0  0  0  0
    0.1498    1.7481    0.0000 C   0  0  0  0  0  0  0  0  0  0  0  0
    0.0797   -2.2193    0.0000 C   0  0  0  0  0  0  0  0  0  0  0  0
    2.2231   -0.9818    0.0000 C   0  0  0  0  0  0  0  0  0  0  0  0
    0.6348    1.0807    0.0000 C   0  0  0  0  0  0  0  0  0  0  0  0
    2.9376   -0.5693    0.0000 C   0  0  0  0  0  0  0  0  0  0  0  0
    2.2231   -1.8068    0.0000 C   0  0  0  0  0  0  0  0  0  0  0  0
    2.9376    0.2557    0.0000 C   0  0  0  0  0  0  0  0  0  0  0  0
    3.7222   -0.8242    0.0000 C   0  0  0  0  0  0  0  0  0  0  0  0
   -1.5880    3.4568    0.0000 C   0  0  0  0  0  0  0  0  0  0  0  0
   -2.5984    2.4464    0.0000 C   0  0  0  0  0  0  0  0  0  0  0  0
   -3.4927   -3.4568    0.0000 C   0  0  0  0  0  0  0  0  0  0  0  0
   -4.2071    0.2557    0.0000 C   0  0  0  0  0  0  0  0  0  0  0  0
    4.1347    1.2251    0.0000 C   0  0  0  0  0  0  0  0  0  0  0  0
  1 19  1  0  0  0  0
  2 20  1  0  0  0  0
  3  6  2  0  0  0  0
  3  7  2  0  0  0  0
  3  9  1  0  0  0  0
  3 12  1  0  0  0  0
  4 23  1  0  0  0  0
  4 39  1  0  0  0  0
  5 24  1  0  0  0  0
  5 40  1  0  0  0  0
  8 17  1  0  0  0  0
  8 18  1  0  0  0  0
  8 22  1  0  0  0  0
  9 21  1  0  0  0  0
  9 29  1  0  0  0  0
 10 18  2  0  0  0  0
 10 25  1  0  0  0  0
 11 21  2  0  0  0  0
 11 32  1  0  0  0  0
 12 37  1  0  0  0  0
 12 38  1  0  0  0  0
 13 25  1  0  0  0  0
 13 31  2  0  0  0  0
 14 26  1  0  0  0  0
 14 34  2  0  0  0  0
 15 16  1  0  0  0  0
 15 35  1  0  0  0  0
 15 41  1  0  0  0  0
 16 36  2  0  0  0  0
 17 19  1  0  0  0  0
 17 20  2  0  0  0  0
 18 28  1  0  0  0  0
 19 23  2  0  0  0  0
 20 24  1  0  0  0  0
 21 22  1  0  0  0  0
 23 27  1  0  0  0  0
 24 27  2  0  0  0  0
 25 26  2  0  0  0  0
 26 30  1  0  0  0  0
 28 30  2  0  0  0  0
 29 32  2  0  0  0  0
 31 33  1  0  0  0  0
 31 34  1  0  0  0  0
 33 35  2  0  0  0  0
 33 36  1  0  0  0  0
M  END
> <PUBCHEM_COMPOUND_ID_TYPE>
0

> <PUBCHEM_TOTAL_CHARGE>
0

> <PUBCHEM_SUBSTANCE_ID>
310947013

> <PUBCHEM_SUBSTANCE_VERSION>
1

> <PUBCHEM_EXT_DATASOURCE_NAME>
4488

> <PUBCHEM_EXT_DATASOURCE_REGID>
SCHEMBL16125165

> <PUBCHEM_SUBSTANCE_COMMENT>
InChI=1S/C25H25Cl2N9O4S/c1-33(2)41(37,38)36-9-8-28-21(36)14-35(24-22(26)18(39-4)10-19(40-5)23(24)27)20-7-6-16-25(32-20)31-17(12-29-16)15-11-30-34(3)13-15/h6-13H,14H2,1-5H3
InChIKey=RDULNGVZTZCFJA-UHFFFAOYSA-N

> <PUBCHEM_SUBSTANCE_SYNONYM>
SCHEMBL16125165

> <PUBCHEM_XREF_EXT_ID>
SCHEMBL16125165

> <PUBCHEM_EXT_DATASOURCE_URL>
https://www.surechembl.org/

> <PUBCHEM_EXT_SUBSTANCE_URL>
https://www.surechembl.org/chemical/SCHEMBL16125165

> <PUBCHEM_CID_ASSOCIATIONS>
117612865  1

> <PUBCHEM_COORDINATE_TYPE>
1
3

$$$$
