310941902
  -OEChem-07211613022D

 29 30  0     1  0  0  0  0  0999 V2000
    0.6312    1.4498    0.0000 Cl  0  0  0  0  0  0  0  0  0  0  0  0
   -0.8062   -1.0499    0.0000 F   0  0  0  0  0  0  0  0  0  0  0  0
    0.6312   -0.2125    0.0000 O   0  0  0  0  0  0  0  0  0  0  0  0
    5.1181   -0.0625    0.0000 O   0  0  0  0  0  0  0  0  0  0  0  0
   -4.3808    0.2250    0.0000 O   0  0  0  0  0  0  0  0  0  0  0  0
   -2.9684    0.2000    0.0000 N   0  0  0  0  0  0  0  0  0  0  0  0
    2.8059    1.0374    0.0000 N   0  0  0  0  0  0  0  0  0  0  0  0
    3.6558   -0.2125    0.0000 N   0  0  0  0  0  0  0  0  0  0  0  0
   -5.1181    1.4623    0.0000 N   0  0  0  0  0  0  0  0  0  0  0  0
   -0.0937    0.2125    0.0000 C   0  0  0  0  0  0  0  0  0  0  0  0
   -0.8186   -0.2000    0.0000 C   0  0  0  0  0  0  0  0  0  0  0  0
   -1.5311    0.2125    0.0000 C   0  0  0  0  0  0  0  0  0  0  0  0
   -0.0812    1.0499    0.0000 C   0  0  0  0  0  0  0  0  0  0  0  0
   -2.2435   -0.2000    0.0000 C   0  0  3  0  0  0  0  0  0  0  0  0
   -1.5186    1.0374    0.0000 C   0  0  0  0  0  0  0  0  0  0  0  0
    1.3436    0.2125    0.0000 C   0  0  0  0  0  0  0  0  0  0  0  0
   -0.8186    1.4374    0.0000 C   0  0  0  0  0  0  0  0  0  0  0  0
    2.0935   -0.2125    0.0000 C   0  0  0  0  0  0  0  0  0  0  0  0
    2.7934    0.2000    0.0000 C   0  0  0  0  0  0  0  0  0  0  0  0
    1.3686    1.0499    0.0000 C   0  0  0  0  0  0  0  0  0  0  0  0
   -2.2435   -1.0499    0.0000 C   0  0  0  0  0  0  0  0  0  0  0  0
   -2.9559    1.0249    0.0000 C   0  0  3  0  0  0  0  0  0  0  0  0
    2.0685    1.4498    0.0000 C   0  0  0  0  0  0  0  0  0  0  0  0
   -3.6933    1.4498    0.0000 C   0  0  0  0  0  0  0  0  0  0  0  0
    4.3432    0.2625    0.0000 C   0  0  0  0  0  0  0  0  0  0  0  0
   -1.5311   -1.4623    0.0000 C   0  0  0  0  0  0  0  0  0  0  0  0
   -2.2935    1.4374    0.0000 C   0  0  0  0  0  0  0  0  0  0  0  0
   -4.4057    1.0374    0.0000 C   0  0  0  0  0  0  0  0  0  0  0  0
    4.2432    1.0623    0.0000 C   0  0  0  0  0  0  0  0  0  0  0  0
  1 13  1  0  0  0  0
  2 11  1  0  0  0  0
  3 10  1  0  0  0  0
  3 16  1  0  0  0  0
  4 25  2  0  0  0  0
  5 28  2  0  0  0  0
 14  6  1  1  0  0  0
  6 22  1  0  0  0  0
  7 19  2  0  0  0  0
  7 23  1  0  0  0  0
  8 19  1  0  0  0  0
  8 25  1  0  0  0  0
  9 28  1  0  0  0  0
 10 11  2  0  0  0  0
 10 13  1  0  0  0  0
 11 12  1  0  0  0  0
 12 14  1  0  0  0  0
 12 15  2  0  0  0  0
 13 17  2  0  0  0  0
 14 21  1  0  0  0  0
 15 17  1  0  0  0  0
 16 18  2  0  0  0  0
 16 20  1  0  0  0  0
 18 19  1  0  0  0  0
 20 23  2  0  0  0  0
 21 26  1  0  0  0  0
 22 24  1  0  0  0  0
 22 27  1  0  0  0  0
 24 28  1  0  0  0  0
 25 29  1  0  0  0  0
M  END
> <PUBCHEM_COMPOUND_ID_TYPE>
0

> <PUBCHEM_TOTAL_CHARGE>
0

> <PUBCHEM_SUBSTANCE_ID>
310941902

> <PUBCHEM_SUBSTANCE_VERSION>
1

> <PUBCHEM_EXT_DATASOURCE_NAME>
4488

> <PUBCHEM_EXT_DATASOURCE_REGID>
SCHEMBL16119934

> <PUBCHEM_SUBSTANCE_COMMENT>
InChI=1S/C20H24ClFN4O3/c1-4-16(25-11(2)9-17(23)28)14-5-6-15(21)20(19(14)22)29-13-7-8-24-18(10-13)26-12(3)27/h5-8,10-11,16,25H,4,9H2,1-3H3,(H2,23,28)(H,24,26,27)/t11?,16-/m1/s1
InChIKey=BNNZILFVRMMEHC-WVQRXBFSSA-N

> <PUBCHEM_SUBSTANCE_SYNONYM>
SCHEMBL16119934

> <PUBCHEM_XREF_EXT_ID>
SCHEMBL16119934

> <PUBCHEM_EXT_DATASOURCE_URL>
https://www.surechembl.org/

> <PUBCHEM_EXT_SUBSTANCE_URL>
https://www.surechembl.org/chemical/SCHEMBL16119934

> <PUBCHEM_CID_ASSOCIATIONS>
117608634  1

> <PUBCHEM_COORDINATE_TYPE>
1
3

> <PUBCHEM_BONDANNOTATIONS>
22  27  3
14  6  5

$$$$
