310934461
  -OEChem-07211613022D

 29 29  0     0  0  0  0  0  0999 V2000
    1.2352    0.6294    0.0000 S   0  0  0  0  0  0  0  0  0  0  0  0
   -0.8843    0.8843    0.0000 O   0  0  0  0  0  0  0  0  0  0  0  0
    1.4652   -0.8227    0.0000 O   0  0  0  0  0  0  0  0  0  0  0  0
    0.1553   -0.1553    0.0000 N   0  0  0  0  0  0  0  0  0  0  0  0
    0.5678    1.1143    0.0000 C   0  0  0  0  0  0  0  0  0  0  0  0
   -0.0997    0.6294    0.0000 C   0  0  0  0  0  0  0  0  0  0  0  0
    0.9803   -0.1553    0.0000 C   0  0  0  0  0  0  0  0  0  0  0  0
    0.5678    1.9393    0.0000 C   0  0  0  0  0  0  0  0  0  0  0  0
   -0.1467    2.3518    0.0000 C   0  0  0  0  0  0  0  0  0  0  0  0
   -0.1467    3.1768    0.0000 C   0  0  0  0  0  0  0  0  0  0  0  0
   -0.8612    3.5893    0.0000 C   0  0  0  0  0  0  0  0  0  0  0  0
   -0.8612    4.4143    0.0000 C   0  0  0  0  0  0  0  0  0  0  0  0
   -1.5757    4.8268    0.0000 C   0  0  0  0  0  0  0  0  0  0  0  0
   -2.2901    4.4143    0.0000 C   0  0  0  0  0  0  0  0  0  0  0  0
   -3.0046    4.8268    0.0000 C   0  0  0  0  0  0  0  0  0  0  0  0
   -3.7191    4.4143    0.0000 C   0  0  0  0  0  0  0  0  0  0  0  0
   -4.4335    4.8268    0.0000 C   0  0  0  0  0  0  0  0  0  0  0  0
   -4.4335    5.6518    0.0000 C   0  0  0  0  0  0  0  0  0  0  0  0
   -5.1480    6.0643    0.0000 C   0  0  0  0  0  0  0  0  0  0  0  0
   -5.1480    6.8893    0.0000 C   0  0  0  0  0  0  0  0  0  0  0  0
   -4.4335    7.3018    0.0000 C   0  0  0  0  0  0  0  0  0  0  0  0
   -4.4335    8.1268    0.0000 C   0  0  0  0  0  0  0  0  0  0  0  0
   -3.7191    8.5393    0.0000 C   0  0  0  0  0  0  0  0  0  0  0  0
   -3.0046    8.1268    0.0000 C   0  0  0  0  0  0  0  0  0  0  0  0
   -2.2901    8.5393    0.0000 C   0  0  0  0  0  0  0  0  0  0  0  0
   -1.5757    8.1268    0.0000 C   0  0  0  0  0  0  0  0  0  0  0  0
   -1.5757    7.3018    0.0000 C   0  0  0  0  0  0  0  0  0  0  0  0
   -0.8612    6.8893    0.0000 C   0  0  0  0  0  0  0  0  0  0  0  0
   -0.8612    6.0643    0.0000 C   0  0  0  0  0  0  0  0  0  0  0  0
  1  5  1  0  0  0  0
  1  7  1  0  0  0  0
  2  6  2  0  0  0  0
  3  7  2  0  0  0  0
  4  6  1  0  0  0  0
  4  7  1  0  0  0  0
  5  6  1  0  0  0  0
  5  8  2  0  0  0  0
  8  9  1  0  0  0  0
  9 10  1  0  0  0  0
 10 11  1  0  0  0  0
 11 12  2  0  0  0  0
 12 13  1  0  0  0  0
 13 14  1  0  0  0  0
 14 15  2  0  0  0  0
 15 16  1  0  0  0  0
 16 17  1  0  0  0  0
 17 18  2  0  0  0  0
 18 19  1  0  0  0  0
 19 20  1  0  0  0  0
 20 21  2  0  0  0  0
 21 22  1  0  0  0  0
 22 23  1  0  0  0  0
 23 24  2  0  0  0  0
 24 25  1  0  0  0  0
 25 26  1  0  0  0  0
 26 27  2  0  0  0  0
 27 28  1  0  0  0  0
 28 29  1  0  0  0  0
M  END
> <PUBCHEM_COMPOUND_ID_TYPE>
0

> <PUBCHEM_TOTAL_CHARGE>
0

> <PUBCHEM_SUBSTANCE_ID>
310934461

> <PUBCHEM_SUBSTANCE_VERSION>
1

> <PUBCHEM_EXT_DATASOURCE_NAME>
4488

> <PUBCHEM_EXT_DATASOURCE_REGID>
SCHEMBL16111941

> <PUBCHEM_SUBSTANCE_COMMENT>
InChI=1S/C25H33NO2S/c1-2-3-4-5-6-7-8-9-10-11-12-13-14-15-16-17-18-19-20-21-22-23-24(27)26-25(28)29-23/h3-4,6-7,9-10,12-13,15-16,18-19,22H,2,5,8,11,14,17,20-21H2,1H3,(H,26,27,28)
InChIKey=XOZAHVZMSDEJPE-UHFFFAOYSA-N

> <PUBCHEM_SUBSTANCE_SYNONYM>
SCHEMBL16111941

> <PUBCHEM_XREF_EXT_ID>
SCHEMBL16111941

> <PUBCHEM_EXT_DATASOURCE_URL>
https://www.surechembl.org/

> <PUBCHEM_EXT_SUBSTANCE_URL>
https://www.surechembl.org/chemical/SCHEMBL16111941

> <PUBCHEM_CID_ASSOCIATIONS>
117602667  1

> <PUBCHEM_COORDINATE_TYPE>
1
3

> <PUBCHEM_BONDANNOTATIONS>
11  10  3
14  13  3
17  16  3
20  19  3
23  22  3
26  25  3
8  9  3

$$$$
