310930572
  -OEChem-07211613022D

 41 46  0     1  0  0  0  0  0999 V2000
    4.1349   -3.9581    0.0000 O   0  0  0  0  0  0  0  0  0  0  0  0
    3.4280   -5.1951    0.0000 O   0  0  0  0  0  0  0  0  0  0  0  0
    5.8312   -2.4385    0.0000 O   0  0  0  0  0  0  0  0  0  0  0  0
    3.4280   -1.8731    0.0000 O   0  0  0  0  0  0  0  0  0  0  0  0
    4.1349   -3.1100    0.0000 O   0  0  0  0  0  0  0  0  0  0  0  0
    2.4385   -0.6361    0.0000 N   0  0  0  0  0  0  0  0  0  0  0  0
    2.7212   -3.9581    0.0000 N   0  0  0  0  0  0  0  0  0  0  0  0
    5.2304   -6.4320    0.0000 C   0  0  0  0  0  0  0  0  0  0  0  0
    4.4529   -6.4320    0.0000 C   0  0  0  0  0  0  0  0  0  0  0  0
    4.1702   -5.6545    0.0000 C   0  0  0  0  0  0  0  0  0  0  0  0
    5.4778   -5.6545    0.0000 C   0  0  0  0  0  0  0  0  0  0  0  0
    4.8770   -5.1951    0.0000 C   0  0  0  0  0  0  0  0  0  0  0  0
    2.0144   -1.8731    0.0000 C   0  0  0  0  0  0  0  0  0  0  0  0
    2.6859   -1.4136    0.0000 C   0  0  0  0  0  0  0  0  0  0  0  0
    1.3430   -1.4136    0.0000 C   0  0  0  0  0  0  0  0  0  0  0  0
    1.5903   -0.6008    0.0000 C   0  0  0  0  0  0  0  0  0  0  0  0
    3.4634   -1.6610    0.0000 C   0  0  0  0  0  0  0  0  0  0  0  0
    2.0144   -2.7212    0.0000 C   0  0  0  0  0  0  0  0  0  0  0  0
    3.8521   -7.0328    0.0000 C   0  0  0  0  0  0  0  0  0  0  0  0
    5.8312   -7.0681    0.0000 C   0  0  0  0  0  0  0  0  0  0  0  0
    3.3574   -5.5131    0.0000 C   0  0  0  0  0  0  0  0  0  0  0  0
    6.3613   -5.4778    0.0000 C   0  0  0  0  0  0  0  0  0  0  0  0
    4.8770   -4.3469    0.0000 C   0  0  0  0  0  0  0  0  0  0  0  0
    0.5301   -1.5550    0.0000 C   0  0  0  0  0  0  0  0  0  0  0  0
    2.7212   -3.1100    0.0000 C   0  0  3  0  0  0  0  0  0  0  0  0
    1.0249    0.0000    0.0000 C   0  0  0  0  0  0  0  0  0  0  0  0
    6.6440   -6.8914    0.0000 C   0  0  0  0  0  0  0  0  0  0  0  0
    3.0746   -6.8914    0.0000 C   0  0  0  0  0  0  0  0  0  0  0  0
    6.8914   -6.0785    0.0000 C   0  0  0  0  0  0  0  0  0  0  0  0
    2.8272   -6.1139    0.0000 C   0  0  0  0  0  0  0  0  0  0  0  0
    4.0995   -1.1309    0.0000 C   0  0  0  0  0  0  0  0  0  0  0  0
    3.6401   -2.4738    0.0000 C   0  0  0  0  0  0  0  0  0  0  0  0
    0.0000   -0.9895    0.0000 C   0  0  0  0  0  0  0  0  0  0  0  0
    0.2474   -0.1767    0.0000 C   0  0  0  0  0  0  0  0  0  0  0  0
    3.4280   -4.3469    0.0000 C   0  0  0  0  0  0  0  0  0  0  0  0
    3.4280   -2.7212    0.0000 C   0  0  0  0  0  0  0  0  0  0  0  0
    5.0537   -2.1911    0.0000 C   0  0  0  0  0  0  0  0  0  0  0  0
    4.8770   -1.3783    0.0000 C   0  0  0  0  0  0  0  0  0  0  0  0
    4.4176   -2.7212    0.0000 C   0  0  0  0  0  0  0  0  0  0  0  0
    6.4320   -1.9084    0.0000 C   0  0  0  0  0  0  0  0  0  0  0  0
    6.2906   -1.0956    0.0000 C   0  0  0  0  0  0  0  0  0  0  0  0
  1 23  1  0  0  0  0
  1 35  1  0  0  0  0
  2 35  2  0  0  0  0
  3 37  1  0  0  0  0
  3 40  1  0  0  0  0
  4 36  2  0  0  0  0
  5 36  1  0  0  0  0
  6 14  1  0  0  0  0
  6 16  1  0  0  0  0
 25  7  1  1  0  0  0
  7 35  1  0  0  0  0
  8  9  1  0  0  0  0
  8 11  2  0  0  0  0
  8 20  1  0  0  0  0
  9 10  2  0  0  0  0
  9 19  1  0  0  0  0
 10 12  1  0  0  0  0
 10 21  1  0  0  0  0
 11 12  1  0  0  0  0
 11 22  1  0  0  0  0
 12 23  1  0  0  0  0
 13 14  2  0  0  0  0
 13 15  1  0  0  0  0
 13 18  1  0  0  0  0
 14 17  1  0  0  0  0
 15 16  2  0  0  0  0
 15 24  1  0  0  0  0
 16 26  1  0  0  0  0
 17 31  2  0  0  0  0
 17 32  1  0  0  0  0
 18 25  1  0  0  0  0
 19 28  2  0  0  0  0
 20 27  2  0  0  0  0
 21 30  2  0  0  0  0
 22 29  2  0  0  0  0
 24 33  2  0  0  0  0
 25 36  1  0  0  0  0
 26 34  2  0  0  0  0
 27 29  1  0  0  0  0
 28 30  1  0  0  0  0
 31 38  1  0  0  0  0
 32 39  2  0  0  0  0
 33 34  1  0  0  0  0
 37 38  2  0  0  0  0
 37 39  1  0  0  0  0
 40 41  1  0  0  0  0
M  END
> <PUBCHEM_COMPOUND_ID_TYPE>
0

> <PUBCHEM_TOTAL_CHARGE>
0

> <PUBCHEM_SUBSTANCE_ID>
310930572

> <PUBCHEM_SUBSTANCE_VERSION>
1

> <PUBCHEM_EXT_DATASOURCE_NAME>
4488

> <PUBCHEM_EXT_DATASOURCE_REGID>
SCHEMBL16107867

> <PUBCHEM_SUBSTANCE_COMMENT>
InChI=1S/C34H30N2O5/c1-2-40-22-17-15-21(16-18-22)32-28(27-13-7-8-14-30(27)35-32)19-31(33(37)38)36-34(39)41-20-29-25-11-5-3-9-23(25)24-10-4-6-12-26(24)29/h3-18,29,31,35H,2,19-20H2,1H3,(H,36,39)(H,37,38)/t31-/m0/s1
InChIKey=CTNLBADECJLBCA-HKBQPEDESA-N

> <PUBCHEM_SUBSTANCE_SYNONYM>
SCHEMBL16107867

> <PUBCHEM_XREF_EXT_ID>
SCHEMBL16107867

> <PUBCHEM_EXT_DATASOURCE_URL>
https://www.surechembl.org/

> <PUBCHEM_EXT_SUBSTANCE_URL>
https://www.surechembl.org/chemical/SCHEMBL16107867

> <PUBCHEM_CID_ASSOCIATIONS>
117599659  1

> <PUBCHEM_COORDINATE_TYPE>
1
3

> <PUBCHEM_BONDANNOTATIONS>
25  7  5

$$$$
