310933309
  -OEChem-07211613022D

 28 31  0     0  0  0  0  0  0999 V2000
   10.2325   -3.2062    0.0000 F   0  0  0  0  0  0  0  0  0  0  0  0
    6.0713   -0.3070    0.0000 O   0  0  0  0  0  0  0  0  0  0  0  0
    2.6945   -2.7287    0.0000 N   0  0  0  0  0  0  0  0  0  0  0  0
    3.4450   -3.0698    0.0000 N   0  0  0  0  0  0  0  0  0  0  0  0
    4.8093   -1.0233    0.0000 N   0  0  0  0  0  0  0  0  0  0  0  0
    6.0713   -1.7395    0.0000 N   0  0  0  0  0  0  0  0  0  0  0  0
    0.9550   -0.2729    0.0000 N   0  0  0  0  0  0  0  0  0  0  0  0
    7.3333   -1.0233    0.0000 N   0  0  0  0  0  0  0  0  0  0  0  0
    3.5814   -1.7395    0.0000 C   0  0  0  0  0  0  0  0  0  0  0  0
    2.7969   -1.9101    0.0000 C   0  0  0  0  0  0  0  0  0  0  0  0
    4.0248   -2.4558    0.0000 C   0  0  0  0  0  0  0  0  0  0  0  0
    2.1488   -1.3644    0.0000 C   0  0  0  0  0  0  0  0  0  0  0  0
    4.8434   -2.4558    0.0000 C   0  0  0  0  0  0  0  0  0  0  0  0
    4.0248   -1.0233    0.0000 C   0  0  0  0  0  0  0  0  0  0  0  0
    5.2527   -1.7395    0.0000 C   0  0  0  0  0  0  0  0  0  0  0  0
    1.3644   -1.6372    0.0000 C   0  0  0  0  0  0  0  0  0  0  0  0
    2.3535   -0.5798    0.0000 C   0  0  0  0  0  0  0  0  0  0  0  0
    0.7845   -1.0574    0.0000 C   0  0  0  0  0  0  0  0  0  0  0  0
    1.7395    0.0000    0.0000 C   0  0  0  0  0  0  0  0  0  0  0  0
    6.4806   -1.0233    0.0000 C   0  0  0  0  0  0  0  0  0  0  0  0
    8.5612   -1.7736    0.0000 C   0  0  0  0  0  0  0  0  0  0  0  0
    7.7426   -1.7736    0.0000 C   0  0  0  0  0  0  0  0  0  0  0  0
    0.0000   -1.2961    0.0000 C   0  0  0  0  0  0  0  0  0  0  0  0
    8.9705   -2.4899    0.0000 C   0  0  0  0  0  0  0  0  0  0  0  0
    9.7891   -2.4899    0.0000 C   0  0  0  0  0  0  0  0  0  0  0  0
    8.9705   -1.0574    0.0000 C   0  0  0  0  0  0  0  0  0  0  0  0
   10.2325   -1.7736    0.0000 C   0  0  0  0  0  0  0  0  0  0  0  0
    9.7891   -1.0574    0.0000 C   0  0  0  0  0  0  0  0  0  0  0  0
  1 25  1  0  0  0  0
  2 20  2  0  0  0  0
  3  4  1  0  0  0  0
  3 10  2  0  0  0  0
  4 11  1  0  0  0  0
  5 14  1  0  0  0  0
  5 15  2  0  0  0  0
  6 15  1  0  0  0  0
  6 20  1  0  0  0  0
  7 18  1  0  0  0  0
  7 19  2  0  0  0  0
  8 20  1  0  0  0  0
  8 22  1  0  0  0  0
  9 10  1  0  0  0  0
  9 11  1  0  0  0  0
  9 14  2  0  0  0  0
 10 12  1  0  0  0  0
 11 13  2  0  0  0  0
 12 16  1  0  0  0  0
 12 17  2  0  0  0  0
 13 15  1  0  0  0  0
 16 18  2  0  0  0  0
 17 19  1  0  0  0  0
 18 23  1  0  0  0  0
 21 22  1  0  0  0  0
 21 24  2  0  0  0  0
 21 26  1  0  0  0  0
 24 25  1  0  0  0  0
 25 27  2  0  0  0  0
 26 28  2  0  0  0  0
 27 28  1  0  0  0  0
M  END
> <PUBCHEM_COMPOUND_ID_TYPE>
0

> <PUBCHEM_TOTAL_CHARGE>
0

> <PUBCHEM_SUBSTANCE_ID>
310933309

> <PUBCHEM_SUBSTANCE_VERSION>
1

> <PUBCHEM_EXT_DATASOURCE_NAME>
4488

> <PUBCHEM_EXT_DATASOURCE_REGID>
SCHEMBL16110720

> <PUBCHEM_SUBSTANCE_COMMENT>
InChI=1S/C20H17FN6O/c1-12-7-14(5-6-22-12)19-16-11-23-18(9-17(16)26-27-19)25-20(28)24-10-13-3-2-4-15(21)8-13/h2-9,11H,10H2,1H3,(H,26,27)(H2,23,24,25,28)
InChIKey=NUJQZAPOPJQTKN-UHFFFAOYSA-N

> <PUBCHEM_SUBSTANCE_SYNONYM>
SCHEMBL16110720

> <PUBCHEM_XREF_EXT_ID>
SCHEMBL16110720

> <PUBCHEM_EXT_DATASOURCE_URL>
https://www.surechembl.org/

> <PUBCHEM_EXT_SUBSTANCE_URL>
https://www.surechembl.org/chemical/SCHEMBL16110720

> <PUBCHEM_CID_ASSOCIATIONS>
71555763  1

> <PUBCHEM_COORDINATE_TYPE>
1
3

$$$$
