310943609
  -OEChem-07211613022D

 36 39  0     0  0  0  0  0  0999 V2000
    4.6700    2.2687    0.0000 F   0  0  0  0  0  0  0  0  0  0  0  0
    5.3919    1.8562    0.0000 F   0  0  0  0  0  0  0  0  0  0  0  0
    5.3919    1.0312    0.0000 F   0  0  0  0  0  0  0  0  0  0  0  0
    1.7973    2.2687    0.0000 O   0  0  0  0  0  0  0  0  0  0  0  0
   -5.3919    2.2687    0.0000 O   0  0  0  0  0  0  0  0  0  0  0  0
   -1.0901   -2.6959    0.0000 O   0  0  0  0  0  0  0  0  0  0  0  0
   -3.9628    1.4437    0.0000 N   0  0  0  0  0  0  0  0  0  0  0  0
   -3.2411    0.2062    0.0000 N   0  0  0  0  0  0  0  0  0  0  0  0
    1.0755    1.0312    0.0000 N   0  0  0  0  0  0  0  0  0  0  0  0
   -0.3683    2.6959    0.0000 N   0  0  0  0  0  0  0  0  0  0  0  0
    3.9481    0.2062    0.0000 N   0  0  0  0  0  0  0  0  0  0  0  0
   -2.5191   -1.0312    0.0000 N   0  0  0  0  0  0  0  0  0  0  0  0
   -1.0901    1.4585    0.0000 C   0  0  0  0  0  0  0  0  0  0  0  0
   -1.7973    1.0460    0.0000 C   0  0  0  0  0  0  0  0  0  0  0  0
   -3.2411    1.0460    0.0000 C   0  0  0  0  0  0  0  0  0  0  0  0
   -2.5338    1.4437    0.0000 C   0  0  0  0  0  0  0  0  0  0  0  0
   -1.0755    2.2834    0.0000 C   0  0  0  0  0  0  0  0  0  0  0  0
    0.3535    1.4585    0.0000 C   0  0  0  0  0  0  0  0  0  0  0  0
   -0.3388    1.0460    0.0000 C   0  0  0  0  0  0  0  0  0  0  0  0
   -1.8121    0.2062    0.0000 C   0  0  0  0  0  0  0  0  0  0  0  0
   -2.5191   -0.2062    0.0000 C   0  0  0  0  0  0  0  0  0  0  0  0
    2.5191    1.0312    0.0000 C   0  0  0  0  0  0  0  0  0  0  0  0
    3.9628    1.0460    0.0000 C   0  0  0  0  0  0  0  0  0  0  0  0
    1.7826    1.4290    0.0000 C   0  0  0  0  0  0  0  0  0  0  0  0
    4.6700    1.4585    0.0000 C   0  0  0  0  0  0  0  0  0  0  0  0
    0.3683    2.2687    0.0000 C   0  0  0  0  0  0  0  0  0  0  0  0
    3.2116    1.4437    0.0000 C   0  0  0  0  0  0  0  0  0  0  0  0
    2.5191    0.2062    0.0000 C   0  0  0  0  0  0  0  0  0  0  0  0
   -3.9481    2.2687    0.0000 C   0  0  0  0  0  0  0  0  0  0  0  0
   -4.6553    1.0460    0.0000 C   0  0  0  0  0  0  0  0  0  0  0  0
    3.2411   -0.2062    0.0000 C   0  0  0  0  0  0  0  0  0  0  0  0
   -1.8121    2.6812    0.0000 C   0  0  0  0  0  0  0  0  0  0  0  0
   -4.6700    2.6959    0.0000 C   0  0  0  0  0  0  0  0  0  0  0  0
   -5.3919    1.4437    0.0000 C   0  0  0  0  0  0  0  0  0  0  0  0
   -1.7973   -1.4585    0.0000 C   0  0  0  0  0  0  0  0  0  0  0  0
   -1.7973   -2.2687    0.0000 C   0  0  0  0  0  0  0  0  0  0  0  0
  1 25  1  0  0  0  0
  2 25  1  0  0  0  0
  3 25  1  0  0  0  0
  4 24  2  0  0  0  0
  5 33  1  0  0  0  0
  5 34  1  0  0  0  0
  6 36  1  0  0  0  0
  7 15  1  0  0  0  0
  7 29  1  0  0  0  0
  7 30  1  0  0  0  0
  8 15  2  0  0  0  0
  8 21  1  0  0  0  0
  9 18  1  0  0  0  0
  9 24  1  0  0  0  0
 10 17  2  0  0  0  0
 10 26  1  0  0  0  0
 11 23  1  0  0  0  0
 11 31  2  0  0  0  0
 12 21  1  0  0  0  0
 12 35  1  0  0  0  0
 13 14  1  0  0  0  0
 13 17  1  0  0  0  0
 13 19  2  0  0  0  0
 14 16  2  0  0  0  0
 14 20  1  0  0  0  0
 15 16  1  0  0  0  0
 17 32  1  0  0  0  0
 18 19  1  0  0  0  0
 18 26  2  0  0  0  0
 20 21  2  0  0  0  0
 22 24  1  0  0  0  0
 22 27  1  0  0  0  0
 22 28  2  0  0  0  0
 23 25  1  0  0  0  0
 23 27  2  0  0  0  0
 28 31  1  0  0  0  0
 29 33  1  0  0  0  0
 30 34  1  0  0  0  0
 35 36  1  0  0  0  0
M  END
> <PUBCHEM_COMPOUND_ID_TYPE>
0

> <PUBCHEM_TOTAL_CHARGE>
0

> <PUBCHEM_SUBSTANCE_ID>
310943609

> <PUBCHEM_SUBSTANCE_VERSION>
1

> <PUBCHEM_EXT_DATASOURCE_NAME>
4488

> <PUBCHEM_EXT_DATASOURCE_REGID>
SCHEMBL16121676

> <PUBCHEM_SUBSTANCE_COMMENT>
InChI=1S/C24H25F3N6O3/c1-15-19(17-11-21(29-4-7-34)32-22(12-17)33-5-8-36-9-6-33)13-18(14-30-15)31-23(35)16-2-3-28-20(10-16)24(25,26)27/h2-3,10-14,34H,4-9H2,1H3,(H,29,32)(H,31,35)
InChIKey=ROXFIYCNQGIOKL-UHFFFAOYSA-N

> <PUBCHEM_SUBSTANCE_SYNONYM>
SCHEMBL16121676

> <PUBCHEM_XREF_EXT_ID>
SCHEMBL16121676

> <PUBCHEM_EXT_DATASOURCE_URL>
https://www.surechembl.org/

> <PUBCHEM_EXT_SUBSTANCE_URL>
https://www.surechembl.org/chemical/SCHEMBL16121676

> <PUBCHEM_CID_ASSOCIATIONS>
117610000  1

> <PUBCHEM_COORDINATE_TYPE>
1
3

$$$$
