310941487
  -OEChem-07211613022D

 12 13  0     1  0  0  0  0  0999 V2000
   -2.0315    0.4047    0.0000 Br  0  0  0  0  0  0  0  0  0  0  0  0
    1.1598   -1.2610    0.0000 F   0  0  0  0  0  0  0  0  0  0  0  0
    1.2687    1.3543    0.0000 N   0  0  0  0  0  0  0  0  0  0  0  0
    1.1598    0.3269    0.0000 C   0  0  3  0  0  0  0  0  0  0  0  0
    0.4125   -0.1245    0.0000 C   0  0  0  0  0  0  0  0  0  0  0  0
    2.0315    0.4514    0.0000 C   0  0  0  0  0  0  0  0  0  0  0  0
    0.4280   -0.9185    0.0000 C   0  0  0  0  0  0  0  0  0  0  0  0
   -0.2879    0.2957    0.0000 C   0  0  0  0  0  0  0  0  0  0  0  0
    1.7358   -0.2802    0.0000 C   0  0  0  0  0  0  0  0  0  0  0  0
   -1.0041   -0.1090    0.0000 C   0  0  0  0  0  0  0  0  0  0  0  0
   -0.2724   -1.3543    0.0000 C   0  0  0  0  0  0  0  0  0  0  0  0
   -0.9885   -0.9497    0.0000 C   0  0  0  0  0  0  0  0  0  0  0  0
  1 10  1  0  0  0  0
  2  7  1  0  0  0  0
  3  4  1  0  0  0  0
  3  6  1  0  0  0  0
  4  5  1  0  0  0  0
  4  6  1  0  0  0  0
  4  9  1  6  0  0  0
  5  7  1  0  0  0  0
  5  8  2  0  0  0  0
  7 11  2  0  0  0  0
  8 10  1  0  0  0  0
 10 12  2  0  0  0  0
 11 12  1  0  0  0  0
M  END
> <PUBCHEM_COMPOUND_ID_TYPE>
0

> <PUBCHEM_TOTAL_CHARGE>
0

> <PUBCHEM_SUBSTANCE_ID>
310941487

> <PUBCHEM_SUBSTANCE_VERSION>
1

> <PUBCHEM_EXT_DATASOURCE_NAME>
4488

> <PUBCHEM_EXT_DATASOURCE_REGID>
SCHEMBL16119518

> <PUBCHEM_SUBSTANCE_COMMENT>
InChI=1S/C9H9BrFN/c1-9(5-12-9)7-4-6(10)2-3-8(7)11/h2-4,12H,5H2,1H3/t9-/m0/s1
InChIKey=KQFSRMFZDUMTKG-VIFPVBQESA-N

> <PUBCHEM_SUBSTANCE_SYNONYM>
SCHEMBL16119518

> <PUBCHEM_XREF_EXT_ID>
SCHEMBL16119518

> <PUBCHEM_EXT_DATASOURCE_URL>
https://www.surechembl.org/

> <PUBCHEM_EXT_SUBSTANCE_URL>
https://www.surechembl.org/chemical/SCHEMBL16119518

> <PUBCHEM_CID_ASSOCIATIONS>
117608308  1

> <PUBCHEM_COORDINATE_TYPE>
1
3

> <PUBCHEM_BONDANNOTATIONS>
4  9  6

$$$$
