310934035
  -OEChem-07211613022D

 32 37  0     0  0  0  0  0  0999 V2000
   -0.4125    2.0945    0.0000 N   0  0  0  0  0  0  0  0  0  0  0  0
    0.4125    2.0945    0.0000 N   0  0  0  0  0  0  0  0  0  0  0  0
   -1.4744    1.1384    0.0000 N   0  0  0  0  0  0  0  0  0  0  0  0
    0.0000   -1.6500    0.0000 N   0  0  0  0  0  0  0  0  0  0  0  0
   -3.9796    4.9885    0.0000 N   0  0  0  0  0  0  0  0  0  0  0  0
    2.8579   -1.6500    0.0000 N   0  0  0  0  0  0  0  0  0  0  0  0
   -5.0837    6.2147    0.0000 N   0  0  0  0  0  0  0  0  0  0  0  0
    0.0000    0.8250    0.0000 C   0  0  0  0  0  0  0  0  0  0  0  0
   -0.6674    1.3099    0.0000 C   0  0  0  0  0  0  0  0  0  0  0  0
    0.0000   -0.0000    0.0000 C   0  0  0  0  0  0  0  0  0  0  0  0
    0.7145   -0.4125    0.0000 C   0  0  0  0  0  0  0  0  0  0  0  0
    0.6674    1.3099    0.0000 C   0  0  0  0  0  0  0  0  0  0  0  0
   -1.7715    2.5361    0.0000 C   0  0  0  0  0  0  0  0  0  0  0  0
    0.7145   -1.2375    0.0000 C   0  0  0  0  0  0  0  0  0  0  0  0
   -0.9645    2.7076    0.0000 C   0  0  0  0  0  0  0  0  0  0  0  0
   -0.7145   -0.4125    0.0000 C   0  0  0  0  0  0  0  0  0  0  0  0
   -2.0264    1.7515    0.0000 C   0  0  0  0  0  0  0  0  0  0  0  0
   -2.3235    3.1492    0.0000 C   0  0  0  0  0  0  0  0  0  0  0  0
    1.4289   -0.0000    0.0000 C   0  0  0  0  0  0  0  0  0  0  0  0
    1.4289   -1.6500    0.0000 C   0  0  0  0  0  0  0  0  0  0  0  0
   -0.7145   -1.2375    0.0000 C   0  0  0  0  0  0  0  0  0  0  0  0
    2.1434   -1.2375    0.0000 C   0  0  0  0  0  0  0  0  0  0  0  0
    2.1434   -0.4125    0.0000 C   0  0  0  0  0  0  0  0  0  0  0  0
   -3.1305    2.9777    0.0000 C   0  0  0  0  0  0  0  0  0  0  0  0
   -2.0686    3.9338    0.0000 C   0  0  0  0  0  0  0  0  0  0  0  0
   -3.4276    4.3754    0.0000 C   0  0  0  0  0  0  0  0  0  0  0  0
   -3.6825    3.5908    0.0000 C   0  0  0  0  0  0  0  0  0  0  0  0
   -2.6206    4.5469    0.0000 C   0  0  0  0  0  0  0  0  0  0  0  0
   -3.7247    5.7731    0.0000 C   0  0  0  0  0  0  0  0  0  0  0  0
   -4.7866    4.8170    0.0000 C   0  0  0  0  0  0  0  0  0  0  0  0
   -4.2767    6.3862    0.0000 C   0  0  0  0  0  0  0  0  0  0  0  0
   -5.3386    5.4301    0.0000 C   0  0  0  0  0  0  0  0  0  0  0  0
  1  2  1  0  0  0  0
  1  9  1  0  0  0  0
  1 15  1  0  0  0  0
  2 12  2  0  0  0  0
  3  9  1  0  0  0  0
  3 17  2  0  0  0  0
  4 14  1  0  0  0  0
  4 21  2  0  0  0  0
  5 26  1  0  0  0  0
  5 29  1  0  0  0  0
  5 30  1  0  0  0  0
  6 22  1  0  0  0  0
  7 31  1  0  0  0  0
  7 32  1  0  0  0  0
  8  9  2  0  0  0  0
  8 10  1  0  0  0  0
  8 12  1  0  0  0  0
 10 11  1  0  0  0  0
 10 16  2  0  0  0  0
 11 14  1  0  0  0  0
 11 19  2  0  0  0  0
 13 15  2  0  0  0  0
 13 17  1  0  0  0  0
 13 18  1  0  0  0  0
 14 20  2  0  0  0  0
 16 21  1  0  0  0  0
 18 24  2  0  0  0  0
 18 25  1  0  0  0  0
 19 23  1  0  0  0  0
 20 22  1  0  0  0  0
 22 23  2  0  0  0  0
 24 27  1  0  0  0  0
 25 28  2  0  0  0  0
 26 27  2  0  0  0  0
 26 28  1  0  0  0  0
 29 31  1  0  0  0  0
 30 32  1  0  0  0  0
M  END
> <PUBCHEM_COMPOUND_ID_TYPE>
0

> <PUBCHEM_TOTAL_CHARGE>
0

> <PUBCHEM_SUBSTANCE_ID>
310934035

> <PUBCHEM_SUBSTANCE_VERSION>
1

> <PUBCHEM_EXT_DATASOURCE_NAME>
4488

> <PUBCHEM_EXT_DATASOURCE_REGID>
SCHEMBL16111479

> <PUBCHEM_SUBSTANCE_COMMENT>
InChI=1S/C25H23N7/c26-19-3-6-22-21(7-8-28-24(22)13-19)23-15-30-32-16-18(14-29-25(23)32)17-1-4-20(5-2-17)31-11-9-27-10-12-31/h1-8,13-16,27H,9-12,26H2
InChIKey=UAHBMBZHEHEEAW-UHFFFAOYSA-N

> <PUBCHEM_SUBSTANCE_SYNONYM>
SCHEMBL16111479

> <PUBCHEM_XREF_EXT_ID>
SCHEMBL16111479

> <PUBCHEM_EXT_DATASOURCE_URL>
https://www.surechembl.org/

> <PUBCHEM_EXT_SUBSTANCE_URL>
https://www.surechembl.org/chemical/SCHEMBL16111479

> <PUBCHEM_CID_ASSOCIATIONS>
117602334  1

> <PUBCHEM_COORDINATE_TYPE>
1
3

$$$$
