310941682
  -OEChem-07211613022D

 21 22  0     0  0  0  0  0  0999 V2000
   -0.0485   -1.0189    0.0000 S   0  0  0  0  0  0  0  0  0  0  0  0
   -2.1510    1.0513    0.0000 O   0  0  0  0  0  0  0  0  0  0  0  0
    1.4394   -1.0189    0.0000 O   0  0  0  0  0  0  0  0  0  0  0  0
   -0.7278    0.2103    0.0000 N   0  0  0  0  0  0  0  0  0  0  0  0
    0.7278    0.2264    0.0000 N   0  0  0  0  0  0  0  0  0  0  0  0
   -1.4233   -0.1941    0.0000 C   0  0  0  0  0  0  0  0  0  0  0  0
   -2.1510    0.2264    0.0000 C   0  0  0  0  0  0  0  0  0  0  0  0
   -2.8788   -0.1941    0.0000 C   0  0  0  0  0  0  0  0  0  0  0  0
    0.0000   -0.1618    0.0000 C   0  0  0  0  0  0  0  0  0  0  0  0
   -1.4233   -1.0189    0.0000 C   0  0  0  0  0  0  0  0  0  0  0  0
    1.4394   -0.1455    0.0000 C   0  0  0  0  0  0  0  0  0  0  0  0
    2.1510    0.2587    0.0000 C   0  0  0  0  0  0  0  0  0  0  0  0
   -2.8788   -1.0189    0.0000 C   0  0  0  0  0  0  0  0  0  0  0  0
   -2.1187   -1.4394    0.0000 C   0  0  0  0  0  0  0  0  0  0  0  0
    2.8626   -0.1618    0.0000 C   0  0  0  0  0  0  0  0  0  0  0  0
    2.1996    1.0836    0.0000 C   0  0  0  0  0  0  0  0  0  0  0  0
   -3.5743    0.2587    0.0000 C   0  0  0  0  0  0  0  0  0  0  0  0
    3.5581    0.2426    0.0000 C   0  0  0  0  0  0  0  0  0  0  0  0
    2.8303    1.4394    0.0000 C   0  0  0  0  0  0  0  0  0  0  0  0
    3.5743    1.0674    0.0000 C   0  0  0  0  0  0  0  0  0  0  0  0
   -2.8788    1.4233    0.0000 C   0  0  0  0  0  0  0  0  0  0  0  0
  1  9  2  0  0  0  0
  2  7  1  0  0  0  0
  2 21  1  0  0  0  0
  3 11  2  0  0  0  0
  4  6  1  0  0  0  0
  4  9  1  0  0  0  0
  5  9  1  0  0  0  0
  5 11  1  0  0  0  0
  6  7  2  0  0  0  0
  6 10  1  0  0  0  0
  7  8  1  0  0  0  0
  8 13  2  0  0  0  0
  8 17  1  0  0  0  0
 10 14  2  0  0  0  0
 11 12  1  0  0  0  0
 12 15  2  0  0  0  0
 12 16  1  0  0  0  0
 13 14  1  0  0  0  0
 15 18  1  0  0  0  0
 16 19  2  0  0  0  0
 18 20  2  0  0  0  0
 19 20  1  0  0  0  0
M  END
> <PUBCHEM_COMPOUND_ID_TYPE>
0

> <PUBCHEM_TOTAL_CHARGE>
0

> <PUBCHEM_SUBSTANCE_ID>
310941682

> <PUBCHEM_SUBSTANCE_VERSION>
1

> <PUBCHEM_EXT_DATASOURCE_NAME>
4488

> <PUBCHEM_EXT_DATASOURCE_REGID>
SCHEMBL16119713

> <PUBCHEM_SUBSTANCE_COMMENT>
InChI=1S/C16H16N2O2S/c1-11-7-6-10-13(14(11)20-2)17-16(21)18-15(19)12-8-4-3-5-9-12/h3-10H,1-2H3,(H2,17,18,19,21)
InChIKey=DBCJRNTZIPRBDT-UHFFFAOYSA-N

> <PUBCHEM_SUBSTANCE_SYNONYM>
SCHEMBL16119713

> <PUBCHEM_XREF_EXT_ID>
SCHEMBL16119713

> <PUBCHEM_EXT_DATASOURCE_URL>
https://www.surechembl.org/

> <PUBCHEM_EXT_SUBSTANCE_URL>
https://www.surechembl.org/chemical/SCHEMBL16119713

> <PUBCHEM_CID_ASSOCIATIONS>
117608457  1

> <PUBCHEM_COORDINATE_TYPE>
1
3

$$$$
