310944948
  -OEChem-07211613022D

 29 33  0     0  0  0  0  0  0999 V2000
   -3.7745   -1.7670    0.0000 Cl  0  0  0  0  0  0  0  0  0  0  0  0
    4.2008   -0.1444    0.0000 O   0  0  0  0  0  0  0  0  0  0  0  0
   -2.7845    1.1207    0.0000 O   0  0  0  0  0  0  0  0  0  0  0  0
    1.6844   -1.3406    0.0000 N   0  0  0  0  0  0  0  0  0  0  0  0
   -0.6394    0.7081    0.0000 N   0  0  0  0  0  0  0  0  0  0  0  0
   -3.4994   -0.1169    0.0000 N   0  0  0  0  0  0  0  0  0  0  0  0
    1.5057   -0.5294    0.0000 C   0  0  0  0  0  0  0  0  0  0  0  0
    2.2069   -0.1031    0.0000 C   0  0  0  0  0  0  0  0  0  0  0  0
    2.8395   -0.6669    0.0000 C   0  0  0  0  0  0  0  0  0  0  0  0
    0.7769   -0.1169    0.0000 C   0  0  0  0  0  0  0  0  0  0  0  0
    2.4957   -1.4094    0.0000 C   0  0  0  0  0  0  0  0  0  0  0  0
    0.8044    0.7219    0.0000 C   0  0  0  0  0  0  0  0  0  0  0  0
    3.6370   -0.7769    0.0000 C   0  0  0  0  0  0  0  0  0  0  0  0
    2.2207    0.7081    0.0000 C   0  0  0  0  0  0  0  0  0  0  0  0
    0.0894   -0.5156    0.0000 C   0  0  0  0  0  0  0  0  0  0  0  0
   -0.6532   -0.1031    0.0000 C   0  0  0  0  0  0  0  0  0  0  0  0
    3.1282   -1.9595    0.0000 C   0  0  0  0  0  0  0  0  0  0  0  0
    1.4919    1.1069    0.0000 C   0  0  0  0  0  0  0  0  0  0  0  0
    3.8295   -1.5470    0.0000 C   0  0  0  0  0  0  0  0  0  0  0  0
    0.0482    1.1207    0.0000 C   0  0  0  0  0  0  0  0  0  0  0  0
   -1.3544   -0.5156    0.0000 C   0  0  0  0  0  0  0  0  0  0  0  0
   -2.0557   -0.1169    0.0000 C   0  0  0  0  0  0  0  0  0  0  0  0
   -2.7707   -0.5156    0.0000 C   0  0  0  0  0  0  0  0  0  0  0  0
   -1.3544   -1.3406    0.0000 C   0  0  0  0  0  0  0  0  0  0  0  0
   -2.7982   -1.3406    0.0000 C   0  0  0  0  0  0  0  0  0  0  0  0
   -2.0695   -1.7532    0.0000 C   0  0  0  0  0  0  0  0  0  0  0  0
   -3.5132    0.7081    0.0000 C   0  0  0  0  0  0  0  0  0  0  0  0
   -4.2008    1.1207    0.0000 C   0  0  0  0  0  0  0  0  0  0  0  0
   -4.1320    1.9595    0.0000 C   0  0  0  0  0  0  0  0  0  0  0  0
  1 25  1  0  0  0  0
  2 13  2  0  0  0  0
  3 27  2  0  0  0  0
  4  7  1  0  0  0  0
  4 11  1  0  0  0  0
  5 16  2  0  0  0  0
  5 20  1  0  0  0  0
  6 23  1  0  0  0  0
  6 27  1  0  0  0  0
  7  8  2  0  0  0  0
  7 10  1  0  0  0  0
  8  9  1  0  0  0  0
  8 14  1  0  0  0  0
  9 11  2  0  0  0  0
  9 13  1  0  0  0  0
 10 12  1  0  0  0  0
 10 15  2  0  0  0  0
 11 17  1  0  0  0  0
 12 18  1  0  0  0  0
 12 20  2  0  0  0  0
 13 19  1  0  0  0  0
 14 18  2  0  0  0  0
 15 16  1  0  0  0  0
 16 21  1  0  0  0  0
 17 19  1  0  0  0  0
 21 22  2  0  0  0  0
 21 24  1  0  0  0  0
 22 23  1  0  0  0  0
 23 25  2  0  0  0  0
 24 26  2  0  0  0  0
 25 26  1  0  0  0  0
 27 28  1  0  0  0  0
 28 29  2  0  0  0  0
M  END
> <PUBCHEM_COMPOUND_ID_TYPE>
0

> <PUBCHEM_TOTAL_CHARGE>
0

> <PUBCHEM_SUBSTANCE_ID>
310944948

> <PUBCHEM_SUBSTANCE_VERSION>
1

> <PUBCHEM_EXT_DATASOURCE_NAME>
4488

> <PUBCHEM_EXT_DATASOURCE_REGID>
SCHEMBL16123033

> <PUBCHEM_SUBSTANCE_COMMENT>
InChI=1S/C23H16ClN3O2/c1-2-21(29)26-19-9-12(4-6-16(19)24)18-10-15-13(11-25-18)3-5-14-22-17(27-23(14)15)7-8-20(22)28/h2-6,9-11,27H,1,7-8H2,(H,26,29)
InChIKey=WGYGBMQMNZBDRT-UHFFFAOYSA-N

> <PUBCHEM_SUBSTANCE_SYNONYM>
SCHEMBL16123033

> <PUBCHEM_XREF_EXT_ID>
SCHEMBL16123033

> <PUBCHEM_EXT_DATASOURCE_URL>
https://www.surechembl.org/

> <PUBCHEM_EXT_SUBSTANCE_URL>
https://www.surechembl.org/chemical/SCHEMBL16123033

> <PUBCHEM_CID_ASSOCIATIONS>
117611101  1

> <PUBCHEM_COORDINATE_TYPE>
1
3

$$$$
