310942518
  -OEChem-07211613022D

 52 57  0     1  0  0  0  0  0999 V2000
   -4.5667    1.7259    0.0000 F   0  0  0  0  0  0  0  0  0  0  0  0
   -4.5667   -1.6095    0.0000 F   0  0  0  0  0  0  0  0  0  0  0  0
   -1.7937   -0.4072    0.0000 O   0  0  0  0  0  0  0  0  0  0  0  0
    2.4918   -0.5042    0.0000 O   0  0  0  0  0  0  0  0  0  0  0  0
    0.8047    2.8118    0.0000 O   0  0  0  0  0  0  0  0  0  0  0  0
   -0.9599   -1.8616    0.0000 O   0  0  0  0  0  0  0  0  0  0  0  0
    3.9461   -0.5042    0.0000 O   0  0  0  0  0  0  0  0  0  0  0  0
    3.1511   -4.5764    0.0000 O   0  0  0  0  0  0  0  0  0  0  0  0
    4.9157   -2.5597    0.0000 O   0  0  0  0  0  0  0  0  0  0  0  0
   -2.1233    1.8034    0.0000 N   0  0  0  0  0  0  0  0  0  0  0  0
   -0.5333    0.3102    0.0000 N   0  0  0  0  0  0  0  0  0  0  0  0
   -2.4142    0.4848    0.0000 N   0  0  0  0  0  0  0  0  0  0  0  0
    2.5306    1.6289    0.0000 N   0  0  0  0  0  0  0  0  0  0  0  0
    4.0819   -3.5293    0.0000 N   0  0  0  0  0  0  0  0  0  0  0  0
    2.9960   -1.7065    0.0000 N   0  0  0  0  0  0  0  0  0  0  0  0
   -1.7937    1.0665    0.0000 C   0  0  0  0  0  0  0  0  0  0  0  0
   -0.9599    1.0471    0.0000 C   0  0  3  0  0  0  0  0  0  0  0  0
   -3.1511    0.9114    0.0000 C   0  0  0  0  0  0  0  0  0  0  0  0
   -0.3975    1.6482    0.0000 C   0  0  0  0  0  0  0  0  0  0  0  0
   -2.9571    1.7259    0.0000 C   0  0  0  0  0  0  0  0  0  0  0  0
   -3.8686    0.4848    0.0000 C   0  0  0  0  0  0  0  0  0  0  0  0
   -0.9599   -0.3878    0.0000 C   0  0  0  0  0  0  0  0  0  0  0  0
    0.7272    0.3296    0.0000 C   0  0  0  0  0  0  0  0  0  0  0  0
   -1.6968    2.7536    0.0000 C   0  0  0  0  0  0  0  0  0  0  0  0
    1.5416    0.7369    0.0000 C   0  0  3  0  0  0  0  0  0  0  0  0
   -4.5861    0.9114    0.0000 C   0  0  0  0  0  0  0  0  0  0  0  0
   -0.5720    2.4627    0.0000 C   0  0  0  0  0  0  0  0  0  0  0  0
    0.4363    1.4155    0.0000 C   0  0  0  0  0  0  0  0  0  0  0  0
   -3.8880   -0.3490    0.0000 C   0  0  0  0  0  0  0  0  0  0  0  0
   -2.2979    3.3353    0.0000 C   0  0  0  0  0  0  0  0  0  0  0  0
    2.2591    0.3296    0.0000 C   0  0  3  0  0  0  0  0  0  0  0  0
   -0.5526   -1.0859    0.0000 C   0  0  3  0  0  0  0  0  0  0  0  0
   -4.5861   -0.7369    0.0000 C   0  0  0  0  0  0  0  0  0  0  0  0
   -5.2841    0.4848    0.0000 C   0  0  0  0  0  0  0  0  0  0  0  0
    1.6968    1.5319    0.0000 C   0  0  0  0  0  0  0  0  0  0  0  0
   -0.0097    3.0251    0.0000 C   0  0  0  0  0  0  0  0  0  0  0  0
    1.0181    2.0167    0.0000 C   0  0  0  0  0  0  0  0  0  0  0  0
   -5.2841   -0.3490    0.0000 C   0  0  0  0  0  0  0  0  0  0  0  0
    2.8602    0.9114    0.0000 C   0  0  0  0  0  0  0  0  0  0  0  0
   -2.0846    4.1304    0.0000 C   0  0  0  0  0  0  0  0  0  0  0  0
   -3.1123    3.1414    0.0000 C   0  0  0  0  0  0  0  0  0  0  0  0
    0.2618   -1.1247    0.0000 C   0  0  0  0  0  0  0  0  0  0  0  0
    3.1899   -0.9114    0.0000 C   0  0  0  0  0  0  0  0  0  0  0  0
   -2.6663    4.7121    0.0000 C   0  0  0  0  0  0  0  0  0  0  0  0
   -3.6747    3.7037    0.0000 C   0  0  0  0  0  0  0  0  0  0  0  0
   -3.4613    4.4988    0.0000 C   0  0  0  0  0  0  0  0  0  0  0  0
    3.9655   -4.3243    0.0000 C   0  0  0  0  0  0  0  0  0  0  0  0
    4.8770   -3.4323    0.0000 C   0  0  0  0  0  0  0  0  0  0  0  0
    3.5001   -2.9087    0.0000 C   0  0  0  0  0  0  0  0  0  0  0  0
    3.7134   -2.1330    0.0000 C   0  0  0  0  0  0  0  0  0  0  0  0
    4.7024   -4.7121    0.0000 C   0  0  0  0  0  0  0  0  0  0  0  0
    5.2841   -4.1304    0.0000 C   0  0  0  0  0  0  0  0  0  0  0  0
  1 26  1  0  0  0  0
  2 33  1  0  0  0  0
  3 22  2  0  0  0  0
 31  4  1  1  0  0  0
  4 43  1  0  0  0  0
  5 36  1  0  0  0  0
  5 37  1  0  0  0  0
 32  6  1  6  0  0  0
  7 43  2  0  0  0  0
  8 47  2  0  0  0  0
  9 48  2  0  0  0  0
 10 16  1  0  0  0  0
 10 20  1  0  0  0  0
 10 24  1  0  0  0  0
 17 11  1  1  0  0  0
 11 22  1  0  0  0  0
 11 23  1  0  0  0  0
 12 16  2  0  0  0  0
 12 18  1  0  0  0  0
 13 35  1  0  0  0  0
 13 39  1  0  0  0  0
 14 47  1  0  0  0  0
 14 48  1  0  0  0  0
 14 49  1  0  0  0  0
 15 43  1  0  0  0  0
 15 50  1  0  0  0  0
 16 17  1  0  0  0  0
 17 19  1  0  0  0  0
 18 20  2  0  0  0  0
 18 21  1  0  0  0  0
 19 27  1  0  0  0  0
 19 28  1  0  0  0  0
 21 26  2  0  0  0  0
 21 29  1  0  0  0  0
 22 32  1  0  0  0  0
 25 23  1  6  0  0  0
 24 30  1  0  0  0  0
 25 31  1  0  0  0  0
 25 35  1  0  0  0  0
 26 34  1  0  0  0  0
 27 36  1  0  0  0  0
 28 37  1  0  0  0  0
 29 33  2  0  0  0  0
 30 40  2  0  0  0  0
 30 41  1  0  0  0  0
 31 39  1  0  0  0  0
 32 42  1  0  0  0  0
 33 38  1  0  0  0  0
 34 38  2  0  0  0  0
 40 44  1  0  0  0  0
 41 45  2  0  0  0  0
 44 46  2  0  0  0  0
 45 46  1  0  0  0  0
 47 51  1  0  0  0  0
 48 52  1  0  0  0  0
 49 50  1  0  0  0  0
 51 52  2  0  0  0  0
M  END
> <PUBCHEM_COMPOUND_ID_TYPE>
0

> <PUBCHEM_TOTAL_CHARGE>
0

> <PUBCHEM_SUBSTANCE_ID>
310942518

> <PUBCHEM_SUBSTANCE_VERSION>
1

> <PUBCHEM_EXT_DATASOURCE_NAME>
4488

> <PUBCHEM_EXT_DATASOURCE_REGID>
SCHEMBL16120554

> <PUBCHEM_SUBSTANCE_COMMENT>
InChI=1S/C37H42F2N6O7/c1-23(46)36(49)45(21-26-18-40-19-31(26)52-37(50)41-13-14-44-32(47)9-10-33(44)48)34(25-11-15-51-16-12-25)35-42-30(28-17-27(38)7-8-29(28)39)22-43(35)20-24-5-3-2-4-6-24/h2-10,17,22-23,25-26,31,34,40,46H,11-16,18-21H2,1H3,(H,41,50)/t23-,26-,31+,34+/m0/s1
InChIKey=DUBWDYPOQNCTOP-ZGDQHIJISA-N

> <PUBCHEM_SUBSTANCE_SYNONYM>
SCHEMBL16120554

> <PUBCHEM_XREF_EXT_ID>
SCHEMBL16120554

> <PUBCHEM_EXT_DATASOURCE_URL>
https://www.surechembl.org/

> <PUBCHEM_EXT_SUBSTANCE_URL>
https://www.surechembl.org/chemical/SCHEMBL16120554

> <PUBCHEM_CID_ASSOCIATIONS>
117609082  1

> <PUBCHEM_COORDINATE_TYPE>
1
3

> <PUBCHEM_BONDANNOTATIONS>
17  11  5
25  23  6
31  4  5
32  6  6

$$$$
