310935960
  -OEChem-07211613022D

 22 24  0     0  0  0  0  0  0999 V2000
    2.9137   -3.9732    0.0000 S   0  0  0  0  0  0  0  0  0  0  0  0
    0.7152   -5.1387    0.0000 O   0  0  0  0  0  0  0  0  0  0  0  0
    4.6089   -3.7613    0.0000 N   0  0  0  0  0  0  0  0  0  0  0  0
    2.2250   -5.1387    0.0000 N   0  0  0  0  0  0  0  0  0  0  0  0
    1.4303   -3.8938    0.0000 N   0  0  0  0  0  0  0  0  0  0  0  0
    3.4699   -4.5824    0.0000 C   0  0  0  0  0  0  0  0  0  0  0  0
    2.1455   -4.3175    0.0000 C   0  0  0  0  0  0  0  0  0  0  0  0
    4.2645   -4.5030    0.0000 C   0  0  0  0  0  0  0  0  0  0  0  0
    5.2976   -2.2515    0.0000 C   0  0  0  0  0  0  0  0  0  0  0  0
    3.0461   -5.2976    0.0000 C   0  0  0  0  0  0  0  0  0  0  0  0
    5.6420   -1.5098    0.0000 C   0  0  0  0  0  0  0  0  0  0  0  0
    4.1321   -3.0726    0.0000 C   0  0  0  0  0  0  0  0  0  0  0  0
    5.4300   -3.6818    0.0000 C   0  0  0  0  0  0  0  0  0  0  0  0
    4.4500   -2.3309    0.0000 C   0  0  0  0  0  0  0  0  0  0  0  0
    5.7744   -2.9402    0.0000 C   0  0  0  0  0  0  0  0  0  0  0  0
    5.1652   -0.8211    0.0000 C   0  0  0  0  0  0  0  0  0  0  0  0
    6.4631   -1.4303    0.0000 C   0  0  0  0  0  0  0  0  0  0  0  0
    0.7152   -4.3175    0.0000 C   0  0  0  0  0  0  0  0  0  0  0  0
    5.5095   -0.0795    0.0000 C   0  0  0  0  0  0  0  0  0  0  0  0
    6.8074   -0.6887    0.0000 C   0  0  0  0  0  0  0  0  0  0  0  0
    6.3306    0.0000    0.0000 C   0  0  0  0  0  0  0  0  0  0  0  0
    0.0000   -3.8938    0.0000 C   0  0  0  0  0  0  0  0  0  0  0  0
  1  6  1  0  0  0  0
  1  7  1  0  0  0  0
  2 18  2  0  0  0  0
  3  8  1  0  0  0  0
  3 12  1  0  0  0  0
  3 13  1  0  0  0  0
  4  7  2  0  0  0  0
  4 10  1  0  0  0  0
  5  7  1  0  0  0  0
  5 18  1  0  0  0  0
  6  8  1  0  0  0  0
  6 10  2  0  0  0  0
  9 11  1  0  0  0  0
  9 14  1  0  0  0  0
  9 15  1  0  0  0  0
 11 16  2  0  0  0  0
 11 17  1  0  0  0  0
 12 14  1  0  0  0  0
 13 15  1  0  0  0  0
 16 19  1  0  0  0  0
 17 20  2  0  0  0  0
 18 22  1  0  0  0  0
 19 21  2  0  0  0  0
 20 21  1  0  0  0  0
M  END
> <PUBCHEM_COMPOUND_ID_TYPE>
0

> <PUBCHEM_TOTAL_CHARGE>
0

> <PUBCHEM_SUBSTANCE_ID>
310935960

> <PUBCHEM_SUBSTANCE_VERSION>
1

> <PUBCHEM_EXT_DATASOURCE_NAME>
4488

> <PUBCHEM_EXT_DATASOURCE_REGID>
SCHEMBL16113559

> <PUBCHEM_SUBSTANCE_COMMENT>
InChI=1S/C17H21N3OS/c1-13(21)19-17-18-11-16(22-17)12-20-9-7-15(8-10-20)14-5-3-2-4-6-14/h2-6,11,15H,7-10,12H2,1H3,(H,18,19,21)
InChIKey=ZTUPUNKLDDKVAZ-UHFFFAOYSA-N

> <PUBCHEM_SUBSTANCE_SYNONYM>
SCHEMBL16113559

> <PUBCHEM_XREF_EXT_ID>
SCHEMBL16113559

> <PUBCHEM_EXT_DATASOURCE_URL>
https://www.surechembl.org/

> <PUBCHEM_EXT_SUBSTANCE_URL>
https://www.surechembl.org/chemical/SCHEMBL16113559

> <PUBCHEM_CID_ASSOCIATIONS>
778225  1

> <PUBCHEM_COORDINATE_TYPE>
1
3

$$$$
