310934507
  -OEChem-07211613022D

 20 21  0     0  0  0  0  0  0999 V2000
    0.8450   -4.3332    0.0000 Br  0  0  0  0  0  0  0  0  0  0  0  0
    5.3949   -0.7150    0.0000 S   0  0  0  0  0  0  0  0  0  0  0  0
    0.0000   -2.9249    0.0000 F   0  0  0  0  0  0  0  0  0  0  0  0
    2.4699   -1.4300    0.0000 O   0  0  0  0  0  0  0  0  0  0  0  0
    2.4699    0.0000    0.0000 O   0  0  0  0  0  0  0  0  0  0  0  0
    3.3149   -1.4516    0.0000 N   0  0  0  0  0  0  0  0  0  0  0  0
    3.7049   -0.7150    0.0000 C   0  0  0  0  0  0  0  0  0  0  0  0
    2.8816   -0.7150    0.0000 C   0  0  0  0  0  0  0  0  0  0  0  0
    4.1599   -1.4300    0.0000 C   0  0  0  0  0  0  0  0  0  0  0  0
    4.1599   -0.0217    0.0000 C   0  0  0  0  0  0  0  0  0  0  0  0
    2.0800   -2.1667    0.0000 C   0  0  0  0  0  0  0  0  0  0  0  0
    2.6433   -1.6250    0.0000 C   0  0  0  0  0  0  0  0  0  0  0  0
    4.9616   -1.4300    0.0000 C   0  0  0  0  0  0  0  0  0  0  0  0
    4.9616   -0.0217    0.0000 C   0  0  0  0  0  0  0  0  0  0  0  0
    0.8450   -2.9033    0.0000 C   0  0  0  0  0  0  0  0  0  0  0  0
    1.2350   -2.1883    0.0000 C   0  0  0  0  0  0  0  0  0  0  0  0
    1.2566   -3.6183    0.0000 C   0  0  0  0  0  0  0  0  0  0  0  0
    2.4916   -2.8816    0.0000 C   0  0  0  0  0  0  0  0  0  0  0  0
    2.0800   -3.6183    0.0000 C   0  0  0  0  0  0  0  0  0  0  0  0
    1.6466   -1.4300    0.0000 C   0  0  0  0  0  0  0  0  0  0  0  0
  1 17  1  0  0  0  0
  2 13  1  0  0  0  0
  2 14  1  0  0  0  0
  3 15  1  0  0  0  0
  4  8  1  0  0  0  0
  4 20  1  0  0  0  0
  5  8  2  0  0  0  0
  6  7  1  0  0  0  0
  6 12  1  0  0  0  0
  7  8  1  0  0  0  0
  7  9  1  0  0  0  0
  7 10  1  0  0  0  0
  9 13  1  0  0  0  0
 10 14  1  0  0  0  0
 11 12  1  0  0  0  0
 11 16  2  0  0  0  0
 11 18  1  0  0  0  0
 15 16  1  0  0  0  0
 15 17  2  0  0  0  0
 17 19  1  0  0  0  0
 18 19  2  0  0  0  0
M  END
> <PUBCHEM_COMPOUND_ID_TYPE>
0

> <PUBCHEM_TOTAL_CHARGE>
0

> <PUBCHEM_SUBSTANCE_ID>
310934507

> <PUBCHEM_SUBSTANCE_VERSION>
1

> <PUBCHEM_EXT_DATASOURCE_NAME>
4488

> <PUBCHEM_EXT_DATASOURCE_REGID>
SCHEMBL16111992

> <PUBCHEM_SUBSTANCE_COMMENT>
InChI=1S/C14H17BrFNO2S/c1-19-13(18)14(4-6-20-7-5-14)17-9-10-2-3-11(15)12(16)8-10/h2-3,8,17H,4-7,9H2,1H3
InChIKey=UWJNESIMBPRWJA-UHFFFAOYSA-N

> <PUBCHEM_SUBSTANCE_SYNONYM>
SCHEMBL16111992

> <PUBCHEM_XREF_EXT_ID>
SCHEMBL16111992

> <PUBCHEM_EXT_DATASOURCE_URL>
https://www.surechembl.org/

> <PUBCHEM_EXT_SUBSTANCE_URL>
https://www.surechembl.org/chemical/SCHEMBL16111992

> <PUBCHEM_CID_ASSOCIATIONS>
117602704  1

> <PUBCHEM_COORDINATE_TYPE>
1
3

$$$$
