310941393
  -OEChem-07211613022D

 25 26  0     0  0  0  0  0  0999 V2000
   -0.0348    1.2859    0.0000 O   0  0  0  0  0  0  0  0  0  0  0  0
   -1.4944    0.2896    0.0000 N   0  0  0  0  0  0  0  0  0  0  0  0
    1.4249    0.2896    0.0000 N   0  0  0  0  0  0  0  0  0  0  0  0
   -1.9808   -0.2896    0.0000 C   0  0  0  0  0  0  0  0  0  0  0  0
    2.1430   -0.3128    0.0000 C   0  0  0  0  0  0  0  0  0  0  0  0
   -2.7918   -0.1275    0.0000 C   0  0  0  0  0  0  0  0  0  0  0  0
    2.9076   -0.0348    0.0000 C   0  0  0  0  0  0  0  0  0  0  0  0
   -1.6797   -1.0541    0.0000 C   0  0  0  0  0  0  0  0  0  0  0  0
    1.9577   -1.1005    0.0000 C   0  0  0  0  0  0  0  0  0  0  0  0
   -3.2782   -0.7761    0.0000 C   0  0  0  0  0  0  0  0  0  0  0  0
    3.5331   -0.5908    0.0000 C   0  0  0  0  0  0  0  0  0  0  0  0
   -2.1893   -1.7029    0.0000 C   0  0  0  0  0  0  0  0  0  0  0  0
    2.5833   -1.6334    0.0000 C   0  0  0  0  0  0  0  0  0  0  0  0
   -3.0003   -1.5638    0.0000 C   0  0  0  0  0  0  0  0  0  0  0  0
    3.3709   -1.3785    0.0000 C   0  0  0  0  0  0  0  0  0  0  0  0
   -3.0466    0.6140    0.0000 C   0  0  0  0  0  0  0  0  0  0  0  0
    3.1161    0.7761    0.0000 C   0  0  0  0  0  0  0  0  0  0  0  0
   -1.4480    1.2859    0.0000 C   0  0  0  0  0  0  0  0  0  0  0  0
    1.4480    1.2859    0.0000 C   0  0  0  0  0  0  0  0  0  0  0  0
   -0.7993   -1.1932    0.0000 C   0  0  0  0  0  0  0  0  0  0  0  0
    1.1700   -1.4017    0.0000 C   0  0  0  0  0  0  0  0  0  0  0  0
   -0.8456    1.6797    0.0000 C   0  0  0  0  0  0  0  0  0  0  0  0
    0.7993    1.7029    0.0000 C   0  0  0  0  0  0  0  0  0  0  0  0
   -3.9038    0.7297    0.0000 C   0  0  0  0  0  0  0  0  0  0  0  0
    3.9038    1.0541    0.0000 C   0  0  0  0  0  0  0  0  0  0  0  0
  1 22  1  0  0  0  0
  1 23  1  0  0  0  0
  2  4  1  0  0  0  0
  2 18  1  0  0  0  0
  3  5  1  0  0  0  0
  3 19  1  0  0  0  0
  4  6  2  0  0  0  0
  4  8  1  0  0  0  0
  5  7  1  0  0  0  0
  5  9  2  0  0  0  0
  6 10  1  0  0  0  0
  6 16  1  0  0  0  0
  7 11  2  0  0  0  0
  7 17  1  0  0  0  0
  8 12  2  0  0  0  0
  8 20  1  0  0  0  0
  9 13  1  0  0  0  0
  9 21  1  0  0  0  0
 10 14  2  0  0  0  0
 11 15  1  0  0  0  0
 12 14  1  0  0  0  0
 13 15  2  0  0  0  0
 16 24  1  0  0  0  0
 17 25  1  0  0  0  0
 18 22  1  0  0  0  0
 19 23  1  0  0  0  0
M  END
> <PUBCHEM_COMPOUND_ID_TYPE>
0

> <PUBCHEM_TOTAL_CHARGE>
0

> <PUBCHEM_SUBSTANCE_ID>
310941393

> <PUBCHEM_SUBSTANCE_VERSION>
1

> <PUBCHEM_EXT_DATASOURCE_NAME>
4488

> <PUBCHEM_EXT_DATASOURCE_REGID>
SCHEMBL16119353

> <PUBCHEM_SUBSTANCE_COMMENT>
InChI=1S/C22H32N2O/c1-5-19-11-7-9-17(3)21(19)23-13-15-25-16-14-24-22-18(4)10-8-12-20(22)6-2/h7-12,23-24H,5-6,13-16H2,1-4H3
InChIKey=VCLHZHCEZGNGJG-UHFFFAOYSA-N

> <PUBCHEM_SUBSTANCE_SYNONYM>
SCHEMBL16119353

> <PUBCHEM_XREF_EXT_ID>
SCHEMBL16119353

> <PUBCHEM_EXT_DATASOURCE_URL>
https://www.surechembl.org/

> <PUBCHEM_EXT_SUBSTANCE_URL>
https://www.surechembl.org/chemical/SCHEMBL16119353

> <PUBCHEM_CID_ASSOCIATIONS>
117608227  1

> <PUBCHEM_COORDINATE_TYPE>
1
3

$$$$
