310942800
  -OEChem-07211613022D

 56 62  0     1  0  0  0  0  0999 V2000
   -4.2848    2.4122    0.0000 F   0  0  0  0  0  0  0  0  0  0  0  0
    2.1900    1.2696    0.0000 F   0  0  0  0  0  0  0  0  0  0  0  0
   -4.2848   -0.9045    0.0000 F   0  0  0  0  0  0  0  0  0  0  0  0
   -1.5076    0.6506    0.0000 O   0  0  0  0  0  0  0  0  0  0  0  0
    0.8887   -2.0154    0.0000 O   0  0  0  0  0  0  0  0  0  0  0  0
    0.5396    4.0150    0.0000 O   0  0  0  0  0  0  0  0  0  0  0  0
   -0.8570   -2.4757    0.0000 O   0  0  0  0  0  0  0  0  0  0  0  0
    0.6824   -3.5389    0.0000 O   0  0  0  0  0  0  0  0  0  0  0  0
    2.5709   -5.1417    0.0000 O   0  0  0  0  0  0  0  0  0  0  0  0
    4.9830   -3.4913    0.0000 O   0  0  0  0  0  0  0  0  0  0  0  0
   -0.2857    1.1426    0.0000 N   0  0  0  0  0  0  0  0  0  0  0  0
   -1.9520    2.5867    0.0000 N   0  0  0  0  0  0  0  0  0  0  0  0
   -2.0789    1.2537    0.0000 N   0  0  0  0  0  0  0  0  0  0  0  0
   -0.4919   -0.3650    0.0000 N   0  0  0  0  0  0  0  0  0  0  0  0
    1.5711   -0.7617    0.0000 N   0  0  0  0  0  0  0  0  0  0  0  0
    1.9361   -2.8089    0.0000 N   0  0  0  0  0  0  0  0  0  0  0  0
    3.6659   -4.1578    0.0000 N   0  0  0  0  0  0  0  0  0  0  0  0
   -0.6983    1.8567    0.0000 C   0  0  3  0  0  0  0  0  0  0  0  0
   -1.5394    1.8726    0.0000 C   0  0  0  0  0  0  0  0  0  0  0  0
   -2.8565    1.5869    0.0000 C   0  0  0  0  0  0  0  0  0  0  0  0
   -0.2857    2.6026    0.0000 C   0  0  0  0  0  0  0  0  0  0  0  0
   -0.6983    0.4285    0.0000 C   0  0  0  0  0  0  0  0  0  0  0  0
   -2.7454    2.4122    0.0000 C   0  0  0  0  0  0  0  0  0  0  0  0
   -3.5548    1.1743    0.0000 C   0  0  0  0  0  0  0  0  0  0  0  0
    0.5396    1.1426    0.0000 C   0  0  0  0  0  0  0  0  0  0  0  0
   -1.5394    3.3009    0.0000 C   0  0  0  0  0  0  0  0  0  0  0  0
    0.9522    0.4444    0.0000 C   0  0  3  0  0  0  0  0  0  0  0  0
   -4.2848    1.5869    0.0000 C   0  0  0  0  0  0  0  0  0  0  0  0
    0.2857   -0.6665    0.0000 C   0  0  0  0  0  0  0  0  0  0  0  0
    0.2221   -1.4917    0.0000 C   0  0  3  0  0  0  0  0  0  0  0  0
   -0.9998   -1.0474    0.0000 C   0  0  0  0  0  0  0  0  0  0  0  0
   -0.6983    3.3009    0.0000 C   0  0  0  0  0  0  0  0  0  0  0  0
    0.5396    2.5867    0.0000 C   0  0  0  0  0  0  0  0  0  0  0  0
   -0.5554   -1.6981    0.0000 C   0  0  3  0  0  0  0  0  0  0  0  0
   -3.5707    0.3491    0.0000 C   0  0  0  0  0  0  0  0  0  0  0  0
   -1.9520    4.0308    0.0000 C   0  0  0  0  0  0  0  0  0  0  0  0
    1.7774    0.5554    0.0000 C   0  0  3  0  0  0  0  0  0  0  0  0
   -4.2689   -0.0635    0.0000 C   0  0  0  0  0  0  0  0  0  0  0  0
   -4.9830    1.1743    0.0000 C   0  0  0  0  0  0  0  0  0  0  0  0
    0.8570   -0.3491    0.0000 C   0  0  0  0  0  0  0  0  0  0  0  0
   -0.2857    4.0150    0.0000 C   0  0  0  0  0  0  0  0  0  0  0  0
    0.9522    3.3168    0.0000 C   0  0  0  0  0  0  0  0  0  0  0  0
   -4.9830    0.3333    0.0000 C   0  0  0  0  0  0  0  0  0  0  0  0
    2.1424   -0.1746    0.0000 C   0  0  0  0  0  0  0  0  0  0  0  0
   -2.7772    4.0308    0.0000 C   0  0  0  0  0  0  0  0  0  0  0  0
   -1.5394    4.7291    0.0000 C   0  0  0  0  0  0  0  0  0  0  0  0
    1.1109   -2.7772    0.0000 C   0  0  0  0  0  0  0  0  0  0  0  0
   -3.1739    4.7291    0.0000 C   0  0  0  0  0  0  0  0  0  0  0  0
   -1.9361    5.4433    0.0000 C   0  0  0  0  0  0  0  0  0  0  0  0
   -2.7772    5.4274    0.0000 C   0  0  0  0  0  0  0  0  0  0  0  0
    2.3646   -3.4913    0.0000 C   0  0  0  0  0  0  0  0  0  0  0  0
    3.3802   -4.9037    0.0000 C   0  0  0  0  0  0  0  0  0  0  0  0
    4.4752   -4.1737    0.0000 C   0  0  0  0  0  0  0  0  0  0  0  0
    3.1898   -3.4596    0.0000 C   0  0  0  0  0  0  0  0  0  0  0  0
    4.0308   -5.4433    0.0000 C   0  0  0  0  0  0  0  0  0  0  0  0
    4.6974   -4.9989    0.0000 C   0  0  0  0  0  0  0  0  0  0  0  0
  1 28  1  0  0  0  0
 37  2  1  1  0  0  0
  3 38  1  0  0  0  0
  4 22  2  0  0  0  0
 30  5  1  1  0  0  0
  5 47  1  0  0  0  0
  6 41  1  0  0  0  0
  6 42  1  0  0  0  0
 34  7  1  1  0  0  0
  8 47  2  0  0  0  0
  9 52  2  0  0  0  0
 10 53  2  0  0  0  0
 18 11  1  1  0  0  0
 11 22  1  0  0  0  0
 11 25  1  0  0  0  0
 12 19  1  0  0  0  0
 12 23  1  0  0  0  0
 12 26  1  0  0  0  0
 13 19  2  0  0  0  0
 13 20  1  0  0  0  0
 14 22  1  0  0  0  0
 14 29  1  0  0  0  0
 14 31  1  0  0  0  0
 15 40  1  0  0  0  0
 15 44  1  0  0  0  0
 16 47  1  0  0  0  0
 16 51  1  0  0  0  0
 17 52  1  0  0  0  0
 17 53  1  0  0  0  0
 17 54  1  0  0  0  0
 18 19  1  0  0  0  0
 18 21  1  0  0  0  0
 20 23  2  0  0  0  0
 20 24  1  0  0  0  0
 21 32  1  0  0  0  0
 21 33  1  0  0  0  0
 24 28  1  0  0  0  0
 24 35  2  0  0  0  0
 27 25  1  1  0  0  0
 26 36  1  0  0  0  0
 27 37  1  0  0  0  0
 27 40  1  0  0  0  0
 28 39  2  0  0  0  0
 29 30  1  0  0  0  0
 30 34  1  0  0  0  0
 31 34  1  0  0  0  0
 32 41  1  0  0  0  0
 33 42  1  0  0  0  0
 35 38  1  0  0  0  0
 36 45  2  0  0  0  0
 36 46  1  0  0  0  0
 37 44  1  0  0  0  0
 38 43  2  0  0  0  0
 39 43  1  0  0  0  0
 45 48  1  0  0  0  0
 46 49  2  0  0  0  0
 48 50  2  0  0  0  0
 49 50  1  0  0  0  0
 51 54  1  0  0  0  0
 52 55  1  0  0  0  0
 53 56  1  0  0  0  0
 55 56  2  0  0  0  0
M  END
> <PUBCHEM_COMPOUND_ID_TYPE>
0

> <PUBCHEM_TOTAL_CHARGE>
0

> <PUBCHEM_SUBSTANCE_ID>
310942800

> <PUBCHEM_SUBSTANCE_VERSION>
1

> <PUBCHEM_EXT_DATASOURCE_NAME>
4488

> <PUBCHEM_EXT_DATASOURCE_REGID>
SCHEMBL16120853

> <PUBCHEM_SUBSTANCE_COMMENT>
InChI=1S/C39H44F3N7O7/c40-27-6-7-29(41)28(16-27)31-21-46(19-24-4-2-1-3-5-24)37(45-31)36(25-10-14-55-15-11-25)49(20-26-17-43-18-30(26)42)39(54)47-22-32(50)33(23-47)56-38(53)44-12-13-48-34(51)8-9-35(48)52/h1-9,16,21,25-26,30,32-33,36,43,50H,10-15,17-20,22-23H2,(H,44,53)/t26-,30-,32-,33+,36+/m0/s1
InChIKey=HISQDOFTNJXDAQ-IQMZAIBISA-N

> <PUBCHEM_SUBSTANCE_SYNONYM>
SCHEMBL16120853

> <PUBCHEM_XREF_EXT_ID>
SCHEMBL16120853

> <PUBCHEM_EXT_DATASOURCE_URL>
https://www.surechembl.org/

> <PUBCHEM_EXT_SUBSTANCE_URL>
https://www.surechembl.org/chemical/SCHEMBL16120853

> <PUBCHEM_CID_ASSOCIATIONS>
117609305  1

> <PUBCHEM_COORDINATE_TYPE>
1
3

> <PUBCHEM_BONDANNOTATIONS>
18  11  5
37  2  5
27  25  5
30  5  5
34  7  5

$$$$
