310940676
  -OEChem-07211613022D

 10 11  0     0  0  0  0  0  0999 V2000
   -0.0071    1.8918    0.0000 N   0  0  0  0  0  0  0  0  0  0  0  0
   -0.0214   -0.1138    0.0000 C   0  0  0  0  0  0  0  0  0  0  0  0
   -0.0356    0.9956    0.0000 C   0  0  0  0  0  0  0  0  0  0  0  0
   -0.5903    0.4267    0.0000 C   0  0  0  0  0  0  0  0  0  0  0  0
    0.5760    0.4552    0.0000 C   0  0  0  0  0  0  0  0  0  0  0  0
   -0.2204    0.5121    0.0000 C   0  0  0  0  0  0  0  0  0  0  0  0
   -0.0071   -1.0383    0.0000 C   0  0  0  0  0  0  0  0  0  0  0  0
   -0.7468   -1.4651    0.0000 C   0  0  0  0  0  0  0  0  0  0  0  0
   -0.0071   -1.8918    0.0000 C   0  0  0  0  0  0  0  0  0  0  0  0
    0.7468   -1.4366    0.0000 C   0  0  0  0  0  0  0  0  0  0  0  0
  1  3  1  0  0  0  0
  2  4  1  0  0  0  0
  2  5  1  0  0  0  0
  2  6  1  0  0  0  0
  2  7  1  0  0  0  0
  3  4  1  0  0  0  0
  3  5  1  0  0  0  0
  3  6  1  0  0  0  0
  7  8  1  0  0  0  0
  7  9  1  0  0  0  0
  7 10  1  0  0  0  0
M  END
> <PUBCHEM_COMPOUND_ID_TYPE>
0

> <PUBCHEM_TOTAL_CHARGE>
0

> <PUBCHEM_SUBSTANCE_ID>
310940676

> <PUBCHEM_SUBSTANCE_VERSION>
1

> <PUBCHEM_EXT_DATASOURCE_NAME>
4488

> <PUBCHEM_EXT_DATASOURCE_REGID>
SCHEMBL16118631

> <PUBCHEM_SUBSTANCE_COMMENT>
InChI=1S/C9H17N/c1-7(2,3)8-4-9(10,5-8)6-8/h4-6,10H2,1-3H3
InChIKey=DBPCXNZELLOUFQ-UHFFFAOYSA-N

> <PUBCHEM_SUBSTANCE_SYNONYM>
SCHEMBL16118631

> <PUBCHEM_XREF_EXT_ID>
SCHEMBL16118631

> <PUBCHEM_EXT_DATASOURCE_URL>
https://www.surechembl.org/

> <PUBCHEM_EXT_SUBSTANCE_URL>
https://www.surechembl.org/chemical/SCHEMBL16118631

> <PUBCHEM_CID_ASSOCIATIONS>
117607651  1

> <PUBCHEM_COORDINATE_TYPE>
1
3

$$$$
