310941209
  -OEChem-07211613022D

 20 20  0     1  0  0  0  0  0999 V2000
    0.6508   -1.8312    0.0000 O   0  0  0  0  0  0  0  0  0  0  0  0
    0.1372    2.4748    0.0000 O   0  0  0  0  0  0  0  0  0  0  0  0
    0.7667    0.3925    0.0000 O   0  0  0  0  0  0  0  0  0  0  0  0
    0.1514   -2.6525    0.0000 O   0  0  0  0  0  0  0  0  0  0  0  0
   -1.3802   -0.0111    0.0000 N   0  0  0  0  0  0  0  0  0  0  0  0
   -0.6699    0.4086    0.0000 C   0  0  3  0  0  0  0  0  0  0  0  0
    0.0403   -0.0111    0.0000 C   0  0  0  0  0  0  0  0  0  0  0  0
   -0.6538    1.2481    0.0000 C   0  0  0  0  0  0  0  0  0  0  0  0
    0.0565    1.6678    0.0000 C   0  0  3  0  0  0  0  0  0  0  0  0
    0.1514   -2.1197    0.0000 C   0  0  0  0  0  0  0  0  0  0  0  0
    0.6619   -1.2763    0.0000 C   0  0  0  0  0  0  0  0  0  0  0  0
    0.0726   -0.8182    0.0000 C   0  0  0  0  0  0  0  0  0  0  0  0
    0.8313    1.3287    0.0000 C   0  0  0  0  0  0  0  0  0  0  0  0
    0.9604    2.6525    0.0000 C   0  0  0  0  0  0  0  0  0  0  0  0
    1.3802    1.9260    0.0000 C   0  0  0  0  0  0  0  0  0  0  0  0
    1.1613   -1.2541    0.0000 C   0  0  0  0  0  0  0  0  0  0  0  0
    0.1514   -1.2763    0.0000 C   0  0  0  0  0  0  0  0  0  0  0  0
    0.6508   -0.7324    0.0000 C   0  0  0  0  0  0  0  0  0  0  0  0
   -0.6699   -1.2702    0.0000 C   0  0  0  0  0  0  0  0  0  0  0  0
    0.7991   -1.2379    0.0000 C   0  0  0  0  0  0  0  0  0  0  0  0
  1 10  1  0  0  0  0
  1 11  1  0  0  0  0
  2  9  1  0  0  0  0
  2 14  1  0  0  0  0
  3  7  2  0  0  0  0
  4 10  2  0  0  0  0
  6  5  1  1  0  0  0
  5 10  1  0  0  0  0
  6  7  1  0  0  0  0
  6  8  1  0  0  0  0
  7 12  1  0  0  0  0
  9  8  1  1  0  0  0
  9 13  1  0  0  0  0
 11 16  1  0  0  0  0
 11 17  1  0  0  0  0
 11 18  1  0  0  0  0
 12 19  2  0  0  0  0
 12 20  1  0  0  0  0
 13 15  1  0  0  0  0
 14 15  1  0  0  0  0
M  END
> <PUBCHEM_COMPOUND_ID_TYPE>
0

> <PUBCHEM_TOTAL_CHARGE>
0

> <PUBCHEM_SUBSTANCE_ID>
310941209

> <PUBCHEM_SUBSTANCE_VERSION>
1

> <PUBCHEM_EXT_DATASOURCE_NAME>
4488

> <PUBCHEM_EXT_DATASOURCE_REGID>
SCHEMBL16119169

> <PUBCHEM_SUBSTANCE_COMMENT>
InChI=1S/C15H25NO4/c1-10(2)13(17)12(9-11-7-6-8-19-11)16-14(18)20-15(3,4)5/h11-12H,1,6-9H2,2-5H3,(H,16,18)/t11-,12-/m0/s1
InChIKey=SPQXTRNDNYKCCE-RYUDHWBXSA-N

> <PUBCHEM_SUBSTANCE_SYNONYM>
SCHEMBL16119169

> <PUBCHEM_XREF_EXT_ID>
SCHEMBL16119169

> <PUBCHEM_EXT_DATASOURCE_URL>
https://www.surechembl.org/

> <PUBCHEM_EXT_SUBSTANCE_URL>
https://www.surechembl.org/chemical/SCHEMBL16119169

> <PUBCHEM_CID_ASSOCIATIONS>
117608080  1

> <PUBCHEM_COORDINATE_TYPE>
1
3

> <PUBCHEM_BONDANNOTATIONS>
6  5  5
9  8  5

$$$$
