310935020
  -OEChem-07211613022D

 37 41  0     1  0  0  0  0  0999 V2000
   -4.8780   -3.5776    0.0000 F   0  0  0  0  0  0  0  0  0  0  0  0
   -4.9946   -0.5307    0.0000 O   0  0  0  0  0  0  0  0  0  0  0  0
   -3.9667    0.4620    0.0000 O   0  0  0  0  0  0  0  0  0  0  0  0
    0.7144    0.8250    0.0000 O   0  0  0  0  0  0  0  0  0  0  0  0
   -8.7656   -0.8014    0.0000 O   0  0  0  0  0  0  0  0  0  0  0  0
    0.7144   -0.8250    0.0000 N   0  0  0  0  0  0  0  0  0  0  0  0
   -3.4491   -1.1026    0.0000 C   0  0  3  0  0  0  0  0  0  0  0  0
   -4.1636   -1.5151    0.0000 C   0  0  0  0  0  0  0  0  0  0  0  0
   -2.8971   -0.4895    0.0000 C   0  0  0  0  0  0  0  0  0  0  0  0
   -2.1434   -0.8250    0.0000 C   0  0  0  0  0  0  0  0  0  0  0  0
   -4.1941   -0.3311    0.0000 C   0  0  0  0  0  0  0  0  0  0  0  0
   -3.0366   -1.8170    0.0000 C   0  0  0  0  0  0  0  0  0  0  0  0
   -1.4290   -0.4125    0.0000 C   0  0  0  0  0  0  0  0  0  0  0  0
   -4.1636   -2.3401    0.0000 C   0  0  0  0  0  0  0  0  0  0  0  0
   -2.2296   -1.6455    0.0000 C   0  0  0  0  0  0  0  0  0  0  0  0
   -4.8780   -1.1026    0.0000 C   0  0  0  0  0  0  0  0  0  0  0  0
    0.0000   -0.4125    0.0000 C   0  0  0  0  0  0  0  0  0  0  0  0
   -0.7144   -0.8250    0.0000 C   0  0  0  0  0  0  0  0  0  0  0  0
   -4.8780   -2.7526    0.0000 C   0  0  0  0  0  0  0  0  0  0  0  0
    0.0000    0.4125    0.0000 C   0  0  0  0  0  0  0  0  0  0  0  0
   -1.4290    0.4125    0.0000 C   0  0  0  0  0  0  0  0  0  0  0  0
   -0.7144    0.8250    0.0000 C   0  0  0  0  0  0  0  0  0  0  0  0
    1.4290    0.4125    0.0000 C   0  0  0  0  0  0  0  0  0  0  0  0
   -5.5926   -1.5151    0.0000 C   0  0  0  0  0  0  0  0  0  0  0  0
   -5.5926   -2.3401    0.0000 C   0  0  0  0  0  0  0  0  0  0  0  0
   -3.4491   -2.7526    0.0000 C   0  0  0  0  0  0  0  0  0  0  0  0
    1.4290   -0.4125    0.0000 C   0  0  0  0  0  0  0  0  0  0  0  0
   -5.5780    0.0527    0.0000 C   0  0  0  0  0  0  0  0  0  0  0  0
   -6.3749   -0.1608    0.0000 C   0  0  0  0  0  0  0  0  0  0  0  0
    1.8415    1.1270    0.0000 C   0  0  0  0  0  0  0  0  0  0  0  0
    2.2540    0.4125    0.0000 C   0  0  0  0  0  0  0  0  0  0  0  0
   -6.9582    0.4226    0.0000 C   0  0  0  0  0  0  0  0  0  0  0  0
   -6.5884   -0.9577    0.0000 C   0  0  0  0  0  0  0  0  0  0  0  0
   -7.9687   -0.5879    0.0000 C   0  0  0  0  0  0  0  0  0  0  0  0
   -7.7551    0.2090    0.0000 C   0  0  0  0  0  0  0  0  0  0  0  0
   -7.3853   -1.1712    0.0000 C   0  0  0  0  0  0  0  0  0  0  0  0
   -9.3489   -0.2180    0.0000 C   0  0  0  0  0  0  0  0  0  0  0  0
  1 19  1  0  0  0  0
  2 11  1  0  0  0  0
  2 28  1  0  0  0  0
  3 11  2  0  0  0  0
  4 20  1  0  0  0  0
  4 23  1  0  0  0  0
  5 34  1  0  0  0  0
  5 37  1  0  0  0  0
  6 17  1  0  0  0  0
  6 27  1  0  0  0  0
  7  8  1  0  0  0  0
  7  9  1  0  0  0  0
  7 11  1  6  0  0  0
  7 12  1  0  0  0  0
  8 14  1  0  0  0  0
  8 16  2  0  0  0  0
  9 10  2  0  0  0  0
 10 13  1  0  0  0  0
 10 15  1  0  0  0  0
 12 15  1  0  0  0  0
 13 18  1  0  0  0  0
 13 21  2  0  0  0  0
 14 19  2  0  0  0  0
 14 26  1  0  0  0  0
 16 24  1  0  0  0  0
 17 18  2  0  0  0  0
 17 20  1  0  0  0  0
 19 25  1  0  0  0  0
 20 22  2  0  0  0  0
 21 22  1  0  0  0  0
 23 27  1  0  0  0  0
 23 30  1  0  0  0  0
 23 31  1  0  0  0  0
 24 25  2  0  0  0  0
 28 29  1  0  0  0  0
 29 32  2  0  0  0  0
 29 33  1  0  0  0  0
 32 35  1  0  0  0  0
 33 36  2  0  0  0  0
 34 35  2  0  0  0  0
 34 36  1  0  0  0  0
M  END
> <PUBCHEM_COMPOUND_ID_TYPE>
0

> <PUBCHEM_TOTAL_CHARGE>
0

> <PUBCHEM_SUBSTANCE_ID>
310935020

> <PUBCHEM_SUBSTANCE_VERSION>
1

> <PUBCHEM_EXT_DATASOURCE_NAME>
4488

> <PUBCHEM_EXT_DATASOURCE_REGID>
SCHEMBL16112539

> <PUBCHEM_SUBSTANCE_COMMENT>
InChI=1S/C31H32FNO4/c1-20-25(6-5-7-26(20)32)31(29(34)36-18-21-8-11-24(35-4)12-9-21)15-14-23(17-31)22-10-13-28-27(16-22)33-19-30(2,3)37-28/h5-13,16-17,33H,14-15,18-19H2,1-4H3/t31-/m0/s1
InChIKey=RVYSMOSBNDGSRN-HKBQPEDESA-N

> <PUBCHEM_SUBSTANCE_SYNONYM>
SCHEMBL16112539

> <PUBCHEM_XREF_EXT_ID>
SCHEMBL16112539

> <PUBCHEM_EXT_DATASOURCE_URL>
https://www.surechembl.org/

> <PUBCHEM_EXT_SUBSTANCE_URL>
https://www.surechembl.org/chemical/SCHEMBL16112539

> <PUBCHEM_CID_ASSOCIATIONS>
117603131  1

> <PUBCHEM_COORDINATE_TYPE>
1
3

> <PUBCHEM_BONDANNOTATIONS>
7  11  6

$$$$
