310932722
  -OEChem-07211613022D

 31 34  0     1  0  0  0  0  0999 V2000
    4.0460   -2.1381    0.0000 O   0  0  0  0  0  0  0  0  0  0  0  0
    8.5525   -2.2039    0.0000 O   0  0  0  0  0  0  0  0  0  0  0  0
    8.8815   -2.1710    0.0000 O   0  0  0  0  0  0  0  0  0  0  0  0
    4.9670   -0.9869    0.0000 N   0  0  0  0  0  0  0  0  0  0  0  0
    4.8684   -0.1316    0.0000 N   0  0  0  0  0  0  0  0  0  0  0  0
    6.4144   -0.9869    0.0000 N   0  0  0  0  0  0  0  0  0  0  0  0
    7.8618   -3.4539    0.0000 N   0  0  0  0  0  0  0  0  0  0  0  0
    0.0000   -1.8421    0.0000 N   0  0  0  0  0  0  0  0  0  0  0  0
    4.2105   -1.3158    0.0000 C   0  0  0  0  0  0  0  0  0  0  0  0
    3.6513   -0.7237    0.0000 C   0  0  0  0  0  0  0  0  0  0  0  0
    5.6908   -1.3816    0.0000 C   0  0  0  0  0  0  0  0  0  0  0  0
    2.8289   -0.7895    0.0000 C   0  0  0  0  0  0  0  0  0  0  0  0
    4.0460    0.0000    0.0000 C   0  0  0  0  0  0  0  0  0  0  0  0
    7.1052   -2.2039    0.0000 C   0  0  0  0  0  0  0  0  0  0  0  0
    5.6908   -2.2039    0.0000 C   0  0  0  0  0  0  0  0  0  0  0  0
    7.1052   -1.3816    0.0000 C   0  0  0  0  0  0  0  0  0  0  0  0
    6.4144   -2.6315    0.0000 C   0  0  0  0  0  0  0  0  0  0  0  0
    7.8618   -2.6315    0.0000 C   0  0  0  0  0  0  0  0  0  0  0  0
    2.5000   -1.5789    0.0000 C   0  0  0  0  0  0  0  0  0  0  0  0
    2.3355   -0.1316    0.0000 C   0  0  0  0  0  0  0  0  0  0  0  0
    8.5854   -3.8815    0.0000 C   0  0  3  0  0  0  0  0  0  0  0  0
    9.3420   -3.5197    0.0000 C   0  0  3  0  0  0  0  0  0  0  0  0
    1.1842   -0.9869    0.0000 C   0  0  0  0  0  0  0  0  0  0  0  0
    1.6776   -1.6447    0.0000 C   0  0  0  0  0  0  0  0  0  0  0  0
    1.5131   -0.2303    0.0000 C   0  0  0  0  0  0  0  0  0  0  0  0
    8.6513   -4.7039    0.0000 C   0  0  0  0  0  0  0  0  0  0  0  0
    9.8683   -4.1447    0.0000 C   0  0  0  0  0  0  0  0  0  0  0  0
    9.4736   -4.8684    0.0000 C   0  0  0  0  0  0  0  0  0  0  0  0
    9.5065   -2.7302    0.0000 C   0  0  0  0  0  0  0  0  0  0  0  0
    0.3619   -1.0855    0.0000 C   0  0  0  0  0  0  0  0  0  0  0  0
    8.0920   -2.4013    0.0000 C   0  0  0  0  0  0  0  0  0  0  0  0
  1  9  1  0  0  0  0
  2 18  2  0  0  0  0
  3 29  1  0  0  0  0
  3 31  1  0  0  0  0
  4  5  1  0  0  0  0
  4  9  1  0  0  0  0
  4 11  1  0  0  0  0
  5 13  2  0  0  0  0
  6 11  2  0  0  0  0
  6 16  1  0  0  0  0
  7 18  1  0  0  0  0
 21  7  1  1  0  0  0
  8 30  3  0  0  0  0
  9 10  2  0  0  0  0
 10 12  1  0  0  0  0
 10 13  1  0  0  0  0
 11 15  1  0  0  0  0
 12 19  2  0  0  0  0
 12 20  1  0  0  0  0
 14 16  2  0  0  0  0
 14 17  1  0  0  0  0
 14 18  1  0  0  0  0
 15 17  2  0  0  0  0
 19 24  1  0  0  0  0
 20 25  2  0  0  0  0
 21 22  1  0  0  0  0
 21 26  1  0  0  0  0
 22 27  1  0  0  0  0
 22 29  1  1  0  0  0
 23 24  2  0  0  0  0
 23 25  1  0  0  0  0
 23 30  1  0  0  0  0
 26 28  1  0  0  0  0
 27 28  1  0  0  0  0
M  END
> <PUBCHEM_COMPOUND_ID_TYPE>
0

> <PUBCHEM_TOTAL_CHARGE>
0

> <PUBCHEM_SUBSTANCE_ID>
310932722

> <PUBCHEM_SUBSTANCE_VERSION>
1

> <PUBCHEM_EXT_DATASOURCE_NAME>
4488

> <PUBCHEM_EXT_DATASOURCE_REGID>
SCHEMBL16110106

> <PUBCHEM_SUBSTANCE_COMMENT>
InChI=1S/C23H23N5O3/c1-31-14-18-3-2-4-20(18)27-22(29)17-9-10-21(25-12-17)28-23(30)19(13-26-28)16-7-5-15(11-24)6-8-16/h5-10,12-13,18,20,30H,2-4,14H2,1H3,(H,27,29)/t18-,20-/m1/s1
InChIKey=LJOYQFHNDODCSD-UYAOXDASSA-N

> <PUBCHEM_SUBSTANCE_SYNONYM>
SCHEMBL16110106

> <PUBCHEM_XREF_EXT_ID>
SCHEMBL16110106

> <PUBCHEM_EXT_DATASOURCE_URL>
https://www.surechembl.org/

> <PUBCHEM_EXT_SUBSTANCE_URL>
https://www.surechembl.org/chemical/SCHEMBL16110106

> <PUBCHEM_CID_ASSOCIATIONS>
117601229  1

> <PUBCHEM_COORDINATE_TYPE>
1
3

> <PUBCHEM_BONDANNOTATIONS>
22  29  5
21  7  5

$$$$
