310944635
  -OEChem-07211613022D

 50 57  0     0  0  0  0  0  0999 V2000
   -3.4921   -0.3745    0.0000 F   0  0  0  0  0  0  0  0  0  0  0  0
    3.4921   -0.2203    0.0000 F   0  0  0  0  0  0  0  0  0  0  0  0
   -0.0551    1.0575    0.0000 N   0  0  0  0  0  0  0  0  0  0  0  0
   -5.3648   -1.5202    0.0000 N   0  0  0  0  0  0  0  0  0  0  0  0
    5.3648   -1.4542    0.0000 N   0  0  0  0  0  0  0  0  0  0  0  0
   -2.1481   -4.2081    0.0000 N   0  0  0  0  0  0  0  0  0  0  0  0
    2.1261   -4.0760    0.0000 N   0  0  0  0  0  0  0  0  0  0  0  0
    0.6500    2.3574    0.0000 C   0  0  0  0  0  0  0  0  0  0  0  0
   -0.0551    1.9388    0.0000 C   0  0  0  0  0  0  0  0  0  0  0  0
    0.6500    3.1506    0.0000 C   0  0  0  0  0  0  0  0  0  0  0  0
    1.4651    3.4370    0.0000 C   0  0  0  0  0  0  0  0  0  0  0  0
   -0.7381    0.5729    0.0000 C   0  0  0  0  0  0  0  0  0  0  0  0
    0.6500    0.6169    0.0000 C   0  0  0  0  0  0  0  0  0  0  0  0
    1.4651    2.0931    0.0000 C   0  0  0  0  0  0  0  0  0  0  0  0
    1.9278    2.7540    0.0000 C   0  0  0  0  0  0  0  0  0  0  0  0
   -0.4737   -0.1542    0.0000 C   0  0  0  0  0  0  0  0  0  0  0  0
    0.3856   -0.1763    0.0000 C   0  0  0  0  0  0  0  0  0  0  0  0
   -0.8042    2.3133    0.0000 C   0  0  0  0  0  0  0  0  0  0  0  0
   -0.0771    3.5251    0.0000 C   0  0  0  0  0  0  0  0  0  0  0  0
   -1.0465   -0.7932    0.0000 C   0  0  0  0  0  0  0  0  0  0  0  0
    0.9584   -0.7491    0.0000 C   0  0  0  0  0  0  0  0  0  0  0  0
   -1.5532    0.7270    0.0000 C   0  0  0  0  0  0  0  0  0  0  0  0
    1.4651    0.7711    0.0000 C   0  0  0  0  0  0  0  0  0  0  0  0
    1.8176    1.3660    0.0000 C   0  0  0  0  0  0  0  0  0  0  0  0
   -1.8617   -0.6169    0.0000 C   0  0  0  0  0  0  0  0  0  0  0  0
    1.7736   -0.5949    0.0000 C   0  0  0  0  0  0  0  0  0  0  0  0
    2.7870    2.6659    0.0000 C   0  0  0  0  0  0  0  0  0  0  0  0
   -0.8042    3.1286    0.0000 C   0  0  0  0  0  0  0  0  0  0  0  0
    1.2227    4.2081    0.0000 C   0  0  0  0  0  0  0  0  0  0  0  0
    2.2804    3.6132    0.0000 C   0  0  0  0  0  0  0  0  0  0  0  0
   -2.1261    0.1101    0.0000 C   0  0  0  0  0  0  0  0  0  0  0  0
    1.9939    0.2204    0.0000 C   0  0  0  0  0  0  0  0  0  0  0  0
    2.3464   -1.1457    0.0000 C   0  0  0  0  0  0  0  0  0  0  0  0
   -2.4125   -1.2999    0.0000 C   0  0  0  0  0  0  0  0  0  0  0  0
    2.6329    1.2779    0.0000 C   0  0  0  0  0  0  0  0  0  0  0  0
    3.1175    1.9388    0.0000 C   0  0  0  0  0  0  0  0  0  0  0  0
   -3.2498   -1.1237    0.0000 C   0  0  0  0  0  0  0  0  0  0  0  0
    3.1837   -0.9914    0.0000 C   0  0  0  0  0  0  0  0  0  0  0  0
    2.1261   -1.9388    0.0000 C   0  0  0  0  0  0  0  0  0  0  0  0
   -2.1701   -2.0490    0.0000 C   0  0  0  0  0  0  0  0  0  0  0  0
   -3.8006   -1.7405    0.0000 C   0  0  0  0  0  0  0  0  0  0  0  0
    3.7564   -1.5643    0.0000 C   0  0  0  0  0  0  0  0  0  0  0  0
   -2.6989   -2.6659    0.0000 C   0  0  0  0  0  0  0  0  0  0  0  0
    2.6549   -2.5337    0.0000 C   0  0  0  0  0  0  0  0  0  0  0  0
    3.4701   -2.3574    0.0000 C   0  0  0  0  0  0  0  0  0  0  0  0
   -3.4921   -2.5117    0.0000 C   0  0  0  0  0  0  0  0  0  0  0  0
    4.5717   -1.4542    0.0000 C   0  0  0  0  0  0  0  0  0  0  0  0
   -4.5937   -1.6083    0.0000 C   0  0  0  0  0  0  0  0  0  0  0  0
    2.3685   -3.3269    0.0000 C   0  0  0  0  0  0  0  0  0  0  0  0
   -2.4125   -3.4591    0.0000 C   0  0  0  0  0  0  0  0  0  0  0  0
  1 37  1  0  0  0  0
  2 38  1  0  0  0  0
  3  9  1  0  0  0  0
  3 12  1  0  0  0  0
  3 13  1  0  0  0  0
  4 48  3  0  0  0  0
  5 47  3  0  0  0  0
  6 50  3  0  0  0  0
  7 49  3  0  0  0  0
  8  9  2  0  0  0  0
  8 10  1  0  0  0  0
  8 14  1  0  0  0  0
  9 18  1  0  0  0  0
 10 11  1  0  0  0  0
 10 19  2  0  0  0  0
 11 15  1  0  0  0  0
 11 29  1  0  0  0  0
 11 30  1  0  0  0  0
 12 16  2  0  0  0  0
 12 22  1  0  0  0  0
 13 17  2  0  0  0  0
 13 23  1  0  0  0  0
 14 15  2  0  0  0  0
 14 24  1  0  0  0  0
 15 27  1  0  0  0  0
 16 17  1  0  0  0  0
 16 20  1  0  0  0  0
 17 21  1  0  0  0  0
 18 28  2  0  0  0  0
 19 28  1  0  0  0  0
 20 25  2  0  0  0  0
 21 26  2  0  0  0  0
 22 31  2  0  0  0  0
 23 32  2  0  0  0  0
 24 35  2  0  0  0  0
 25 31  1  0  0  0  0
 25 34  1  0  0  0  0
 26 32  1  0  0  0  0
 26 33  1  0  0  0  0
 27 36  2  0  0  0  0
 33 38  2  0  0  0  0
 33 39  1  0  0  0  0
 34 37  2  0  0  0  0
 34 40  1  0  0  0  0
 35 36  1  0  0  0  0
 37 41  1  0  0  0  0
 38 42  1  0  0  0  0
 39 44  2  0  0  0  0
 40 43  2  0  0  0  0
 41 46  2  0  0  0  0
 41 48  1  0  0  0  0
 42 45  2  0  0  0  0
 42 47  1  0  0  0  0
 43 46  1  0  0  0  0
 43 50  1  0  0  0  0
 44 45  1  0  0  0  0
 44 49  1  0  0  0  0
M  END
> <PUBCHEM_COMPOUND_ID_TYPE>
0

> <PUBCHEM_TOTAL_CHARGE>
0

> <PUBCHEM_SUBSTANCE_ID>
310944635

> <PUBCHEM_SUBSTANCE_VERSION>
1

> <PUBCHEM_EXT_DATASOURCE_NAME>
4488

> <PUBCHEM_EXT_DATASOURCE_REGID>
SCHEMBL16122713

> <PUBCHEM_SUBSTANCE_COMMENT>
InChI=1S/C43H23F2N5/c1-43(2)35-7-4-3-6-30(35)40-36(43)8-5-9-39(40)50-37-12-10-26(31-16-24(20-46)14-28(22-48)41(31)44)18-33(37)34-19-27(11-13-38(34)50)32-17-25(21-47)15-29(23-49)42(32)45/h3-19H,1-2H3
InChIKey=MXQIBDSGYPXQAN-UHFFFAOYSA-N

> <PUBCHEM_SUBSTANCE_SYNONYM>
SCHEMBL16122713

> <PUBCHEM_XREF_EXT_ID>
SCHEMBL16122713

> <PUBCHEM_EXT_DATASOURCE_URL>
https://www.surechembl.org/

> <PUBCHEM_EXT_SUBSTANCE_URL>
https://www.surechembl.org/chemical/SCHEMBL16122713

> <PUBCHEM_CID_ASSOCIATIONS>
117610865  1

> <PUBCHEM_COORDINATE_TYPE>
1
3

$$$$
