310939091
  -OEChem-07211613022D

 40 45  0     1  0  0  0  0  0999 V2000
    2.5418    0.1113    0.0000 Cl  0  0  0  0  0  0  0  0  0  0  0  0
   -3.8886   -0.3013    0.0000 S   0  0  0  0  0  0  0  0  0  0  0  0
    1.1129   -2.3637    0.0000 F   0  0  0  0  0  0  0  0  0  0  0  0
   -3.8886   -1.1263    0.0000 O   0  0  0  0  0  0  0  0  0  0  0  0
   -4.6030   -0.7137    0.0000 O   0  0  0  0  0  0  0  0  0  0  0  0
   -2.4596   -1.1263    0.0000 O   0  0  0  0  0  0  0  0  0  0  0  0
    2.5418   -1.5387    0.0000 O   0  0  0  0  0  0  0  0  0  0  0  0
   -3.1741    0.1113    0.0000 N   0  0  0  0  0  0  0  0  0  0  0  0
   -1.0307   -1.1263    0.0000 N   0  0  0  0  0  0  0  0  0  0  0  0
    3.9708    0.1113    0.0000 N   0  0  0  0  0  0  0  0  0  0  0  0
    5.3997    0.1113    0.0000 N   0  0  0  0  0  0  0  0  0  0  0  0
   -4.6030    0.9363    0.0000 C   0  0  3  0  0  0  0  0  0  0  0  0
   -4.6030    2.3637    0.0000 C   0  0  0  0  0  0  0  0  0  0  0  0
   -3.8062    0.7222    0.0000 C   0  0  3  0  0  0  0  0  0  0  0  0
   -4.1892    1.6500    0.0000 C   0  0  3  0  0  0  0  0  0  0  0  0
   -4.6030    0.1113    0.0000 C   0  0  0  0  0  0  0  0  0  0  0  0
   -3.3926    1.4360    0.0000 C   0  0  0  0  0  0  0  0  0  0  0  0
   -5.3997    0.7222    0.0000 C   0  0  0  0  0  0  0  0  0  0  0  0
   -4.9861    1.4360    0.0000 C   0  0  0  0  0  0  0  0  0  0  0  0
   -2.4596   -0.3013    0.0000 C   0  0  0  0  0  0  0  0  0  0  0  0
   -5.0156    3.0782    0.0000 C   0  0  0  0  0  0  0  0  0  0  0  0
   -5.3175    2.7763    0.0000 C   0  0  0  0  0  0  0  0  0  0  0  0
   -1.7451    0.1113    0.0000 C   0  0  0  0  0  0  0  0  0  0  0  0
   -1.0307   -0.3013    0.0000 C   0  0  3  0  0  0  0  0  0  0  0  0
   -0.3162   -1.5387    0.0000 C   0  0  3  0  0  0  0  0  0  0  0  0
    0.3984   -1.1263    0.0000 C   0  0  0  0  0  0  0  0  0  0  0  0
   -0.3162   -2.3637    0.0000 C   0  0  0  0  0  0  0  0  0  0  0  0
    1.1129   -1.5387    0.0000 C   0  0  0  0  0  0  0  0  0  0  0  0
    1.8274   -1.1263    0.0000 C   0  0  0  0  0  0  0  0  0  0  0  0
   -0.7286   -3.0782    0.0000 C   0  0  0  0  0  0  0  0  0  0  0  0
    0.0964   -3.0782    0.0000 C   0  0  0  0  0  0  0  0  0  0  0  0
    0.3984   -0.3013    0.0000 C   0  0  0  0  0  0  0  0  0  0  0  0
   -0.3162    0.1113    0.0000 C   0  0  0  0  0  0  0  0  0  0  0  0
    1.8274   -0.3013    0.0000 C   0  0  0  0  0  0  0  0  0  0  0  0
    1.1129    0.1113    0.0000 C   0  0  0  0  0  0  0  0  0  0  0  0
    3.2563   -1.1263    0.0000 C   0  0  0  0  0  0  0  0  0  0  0  0
    3.2563   -0.3013    0.0000 C   0  0  0  0  0  0  0  0  0  0  0  0
    3.9708   -1.5387    0.0000 C   0  0  0  0  0  0  0  0  0  0  0  0
    4.6853   -1.1263    0.0000 C   0  0  0  0  0  0  0  0  0  0  0  0
    4.6853   -0.3013    0.0000 C   0  0  0  0  0  0  0  0  0  0  0  0
  1 34  1  0  0  0  0
  2  4  2  0  0  0  0
  2  5  2  0  0  0  0
  2  8  1  0  0  0  0
  2 16  1  0  0  0  0
  3 28  1  0  0  0  0
  6 20  2  0  0  0  0
  7 29  1  0  0  0  0
  7 36  1  0  0  0  0
  8 14  1  0  0  0  0
  8 20  1  0  0  0  0
  9 24  1  0  0  0  0
 25  9  1  1  0  0  0
 10 37  2  0  0  0  0
 10 40  1  0  0  0  0
 11 40  1  0  0  0  0
 12 13  1  0  0  0  0
 12 14  1  0  0  0  0
 12 16  1  1  0  0  0
 12 18  1  0  0  0  0
 13 15  1  0  0  0  0
 13 21  1  0  0  0  0
 13 22  1  0  0  0  0
 14 17  1  0  0  0  0
 15 17  1  0  0  0  0
 15 19  1  0  0  0  0
 18 19  1  0  0  0  0
 20 23  1  0  0  0  0
 23 24  1  0  0  0  0
 24 33  1  0  0  0  0
 25 26  1  0  0  0  0
 25 27  1  0  0  0  0
 26 28  1  0  0  0  0
 26 32  2  0  0  0  0
 27 30  1  0  0  0  0
 27 31  1  0  0  0  0
 28 29  2  0  0  0  0
 29 34  1  0  0  0  0
 30 31  1  0  0  0  0
 32 35  1  0  0  0  0
 34 35  2  0  0  0  0
 36 37  1  0  0  0  0
 36 38  2  0  0  0  0
 38 39  1  0  0  0  0
 39 40  2  0  0  0  0
M  END
> <PUBCHEM_COMPOUND_ID_TYPE>
0

> <PUBCHEM_TOTAL_CHARGE>
0

> <PUBCHEM_SUBSTANCE_ID>
310939091

> <PUBCHEM_SUBSTANCE_VERSION>
1

> <PUBCHEM_EXT_DATASOURCE_NAME>
4488

> <PUBCHEM_EXT_DATASOURCE_REGID>
SCHEMBL16117010

> <PUBCHEM_SUBSTANCE_COMMENT>
InChI=1S/C29H36ClFN4O4S/c1-16(12-24(36)35-22-13-18-10-11-29(22,28(18,2)3)15-40(35,37)38)34-26(17-4-5-17)20-7-8-21(30)27(25(20)31)39-19-6-9-23(32)33-14-19/h6-9,14,16-18,22,26,34H,4-5,10-13,15H2,1-3H3,(H2,32,33)/t16?,18?,22?,26-,29-/m1/s1
InChIKey=UDUGIQBYMQUZHR-YKPADAGLSA-N

> <PUBCHEM_SUBSTANCE_SYNONYM>
SCHEMBL16117010

> <PUBCHEM_XREF_EXT_ID>
SCHEMBL16117010

> <PUBCHEM_EXT_DATASOURCE_URL>
https://www.surechembl.org/

> <PUBCHEM_EXT_SUBSTANCE_URL>
https://www.surechembl.org/chemical/SCHEMBL16117010

> <PUBCHEM_CID_ASSOCIATIONS>
117606451  1

> <PUBCHEM_COORDINATE_TYPE>
1
3

> <PUBCHEM_BONDANNOTATIONS>
12  16  5
25  9  5

$$$$
