310929078
  -OEChem-07211613022D

 54 60  0     0  0  0  0  0  0999 V2000
    3.5540  -11.4869    0.0000 F   0  0  0  0  0  0  0  0  0  0  0  0
    0.6981   -7.3618    0.0000 O   0  0  0  0  0  0  0  0  0  0  0  0
    4.3155   -7.7426    0.0000 O   0  0  0  0  0  0  0  0  0  0  0  0
    7.8060  -12.3119    0.0000 O   0  0  0  0  0  0  0  0  0  0  0  0
    3.5540   -1.6501    0.0000 O   0  0  0  0  0  0  0  0  0  0  0  0
    7.1079   -0.4443    0.0000 O   0  0  0  0  0  0  0  0  0  0  0  0
    3.5540   -9.0118    0.0000 N   0  0  0  0  0  0  0  0  0  0  0  0
    1.3962   -6.1560    0.0000 N   0  0  0  0  0  0  0  0  0  0  0  0
    5.0136   -9.0118    0.0000 N   0  0  0  0  0  0  0  0  0  0  0  0
    2.1577   -4.8867    0.0000 N   0  0  0  0  0  0  0  0  0  0  0  0
    6.4098  -11.4869    0.0000 N   0  0  0  0  0  0  0  0  0  0  0  0
    0.6981   -4.9501    0.0000 N   0  0  0  0  0  0  0  0  0  0  0  0
    4.2521   -2.8559    0.0000 N   0  0  0  0  0  0  0  0  0  0  0  0
    5.7117   -1.2058    0.0000 N   0  0  0  0  0  0  0  0  0  0  0  0
    1.4596   -8.5676    0.0000 C   0  0  0  0  0  0  0  0  0  0  0  0
    2.1577   -8.9484    0.0000 C   0  0  0  0  0  0  0  0  0  0  0  0
    1.4596   -7.7426    0.0000 C   0  0  0  0  0  0  0  0  0  0  0  0
    2.8559   -8.5676    0.0000 C   0  0  0  0  0  0  0  0  0  0  0  0
    2.1577   -7.3618    0.0000 C   0  0  0  0  0  0  0  0  0  0  0  0
    2.8559   -7.7426    0.0000 C   0  0  0  0  0  0  0  0  0  0  0  0
    0.7616   -9.0118    0.0000 C   0  0  0  0  0  0  0  0  0  0  0  0
    2.1577   -9.7734    0.0000 C   0  0  0  0  0  0  0  0  0  0  0  0
    0.6981   -6.5367    0.0000 C   0  0  0  0  0  0  0  0  0  0  0  0
    4.3155   -8.5676    0.0000 C   0  0  0  0  0  0  0  0  0  0  0  0
    0.7616   -9.8368    0.0000 C   0  0  0  0  0  0  0  0  0  0  0  0
    1.4596  -10.2176    0.0000 C   0  0  0  0  0  0  0  0  0  0  0  0
    1.4596   -5.3309    0.0000 C   0  0  0  0  0  0  0  0  0  0  0  0
    5.0136   -9.8368    0.0000 C   0  0  0  0  0  0  0  0  0  0  0  0
    5.7117  -11.0426    0.0000 C   0  0  0  0  0  0  0  0  0  0  0  0
    2.1577   -4.0616    0.0000 C   0  0  0  0  0  0  0  0  0  0  0  0
    0.0000   -6.1560    0.0000 C   0  0  0  0  0  0  0  0  0  0  0  0
    5.7117  -10.2176    0.0000 C   0  0  0  0  0  0  0  0  0  0  0  0
    2.8559   -2.8559    0.0000 C   0  0  0  0  0  0  0  0  0  0  0  0
    4.3155  -10.2176    0.0000 C   0  0  0  0  0  0  0  0  0  0  0  0
    4.2521  -11.0426    0.0000 C   0  0  0  0  0  0  0  0  0  0  0  0
    2.8559   -3.6809    0.0000 C   0  0  0  0  0  0  0  0  0  0  0  0
    4.9501  -11.4869    0.0000 C   0  0  0  0  0  0  0  0  0  0  0  0
    1.4596   -2.8559    0.0000 C   0  0  0  0  0  0  0  0  0  0  0  0
    1.4596   -3.6809    0.0000 C   0  0  0  0  0  0  0  0  0  0  0  0
    0.0000   -5.3309    0.0000 C   0  0  0  0  0  0  0  0  0  0  0  0
    2.1577   -2.4751    0.0000 C   0  0  0  0  0  0  0  0  0  0  0  0
    3.5540   -2.4751    0.0000 C   0  0  0  0  0  0  0  0  0  0  0  0
    7.1079  -11.0426    0.0000 C   0  0  0  0  0  0  0  0  0  0  0  0
    6.4098  -12.3119    0.0000 C   0  0  0  0  0  0  0  0  0  0  0  0
    0.6981   -2.4751    0.0000 C   0  0  0  0  0  0  0  0  0  0  0  0
    7.8060  -11.4869    0.0000 C   0  0  0  0  0  0  0  0  0  0  0  0
    7.1079  -12.6927    0.0000 C   0  0  0  0  0  0  0  0  0  0  0  0
    5.0136   -2.4751    0.0000 C   0  0  0  0  0  0  0  0  0  0  0  0
    0.0000   -2.8559    0.0000 C   0  0  0  0  0  0  0  0  0  0  0  0
    5.0136   -1.6501    0.0000 C   0  0  0  0  0  0  0  0  0  0  0  0
    5.7117   -0.3808    0.0000 C   0  0  0  0  0  0  0  0  0  0  0  0
    6.4098   -1.6501    0.0000 C   0  0  0  0  0  0  0  0  0  0  0  0
    6.4098    0.0000    0.0000 C   0  0  0  0  0  0  0  0  0  0  0  0
    7.1079   -1.2693    0.0000 C   0  0  0  0  0  0  0  0  0  0  0  0
  1 35  1  0  0  0  0
  2 17  1  0  0  0  0
  2 23  1  0  0  0  0
  3 24  2  0  0  0  0
  4 46  1  0  0  0  0
  4 47  1  0  0  0  0
  5 42  2  0  0  0  0
  6 53  1  0  0  0  0
  6 54  1  0  0  0  0
  7 18  1  0  0  0  0
  7 24  1  0  0  0  0
  8 23  2  0  0  0  0
  8 27  1  0  0  0  0
  9 24  1  0  0  0  0
  9 28  1  0  0  0  0
 10 27  1  0  0  0  0
 10 30  1  0  0  0  0
 11 29  1  0  0  0  0
 11 43  1  0  0  0  0
 11 44  1  0  0  0  0
 12 27  2  0  0  0  0
 12 40  1  0  0  0  0
 13 42  1  0  0  0  0
 13 48  1  0  0  0  0
 14 50  1  0  0  0  0
 14 51  1  0  0  0  0
 14 52  1  0  0  0  0
 15 16  2  0  0  0  0
 15 17  1  0  0  0  0
 15 21  1  0  0  0  0
 16 18  1  0  0  0  0
 16 22  1  0  0  0  0
 17 19  2  0  0  0  0
 18 20  2  0  0  0  0
 19 20  1  0  0  0  0
 21 25  2  0  0  0  0
 22 26  2  0  0  0  0
 23 31  1  0  0  0  0
 25 26  1  0  0  0  0
 28 32  2  0  0  0  0
 28 34  1  0  0  0  0
 29 32  1  0  0  0  0
 29 37  2  0  0  0  0
 30 36  2  0  0  0  0
 30 39  1  0  0  0  0
 31 40  2  0  0  0  0
 33 36  1  0  0  0  0
 33 41  2  0  0  0  0
 33 42  1  0  0  0  0
 34 35  2  0  0  0  0
 35 37  1  0  0  0  0
 38 39  2  0  0  0  0
 38 41  1  0  0  0  0
 38 45  1  0  0  0  0
 43 46  1  0  0  0  0
 44 47  1  0  0  0  0
 45 49  3  0  0  0  0
 48 50  1  0  0  0  0
 51 53  1  0  0  0  0
 52 54  1  0  0  0  0
M  END
> <PUBCHEM_COMPOUND_ID_TYPE>
0

> <PUBCHEM_TOTAL_CHARGE>
0

> <PUBCHEM_SUBSTANCE_ID>
310929078

> <PUBCHEM_SUBSTANCE_VERSION>
1

> <PUBCHEM_EXT_DATASOURCE_NAME>
4488

> <PUBCHEM_EXT_DATASOURCE_REGID>
SCHEMBL16106240

> <PUBCHEM_SUBSTANCE_COMMENT>
InChI=1S/C40H39FN8O5/c1-2-27-21-28(38(50)42-11-12-48-13-17-52-18-14-48)23-30(22-27)44-39-43-10-9-37(47-39)54-36-8-7-35(33-5-3-4-6-34(33)36)46-40(51)45-31-24-29(41)25-32(26-31)49-15-19-53-20-16-49/h1,3-10,21-26H,11-20H2,(H,42,50)(H,43,44,47)(H2,45,46,51)
InChIKey=OSBAGWRUCKHLEI-UHFFFAOYSA-N

> <PUBCHEM_SUBSTANCE_SYNONYM>
SCHEMBL16106240

> <PUBCHEM_XREF_EXT_ID>
SCHEMBL16106240

> <PUBCHEM_EXT_DATASOURCE_URL>
https://www.surechembl.org/

> <PUBCHEM_EXT_SUBSTANCE_URL>
https://www.surechembl.org/chemical/SCHEMBL16106240

> <PUBCHEM_CID_ASSOCIATIONS>
86275223  1

> <PUBCHEM_COORDINATE_TYPE>
1
3

$$$$
