310940394
  -OEChem-07211613022D

 18 19  0     0  0  0  0  0  0999 V2000
    2.4434    1.1252    0.0000 F   0  0  0  0  0  0  0  0  0  0  0  0
    3.5355    0.8163    0.0000 F   0  0  0  0  0  0  0  0  0  0  0  0
    3.2156   -0.2868    0.0000 F   0  0  0  0  0  0  0  0  0  0  0  0
   -2.1345   -0.0772    0.0000 O   0  0  0  0  0  0  0  0  0  0  0  0
   -0.0386    0.4192    0.0000 N   0  0  0  0  0  0  0  0  0  0  0  0
    2.1014    0.0111    0.0000 C   0  0  0  0  0  0  0  0  0  0  0  0
    2.8295    0.4192    0.0000 C   0  0  0  0  0  0  0  0  0  0  0  0
    0.6784    0.0111    0.0000 C   0  0  0  0  0  0  0  0  0  0  0  0
    1.3954    0.4192    0.0000 C   0  0  0  0  0  0  0  0  0  0  0  0
    2.1014   -0.8163    0.0000 C   0  0  0  0  0  0  0  0  0  0  0  0
   -1.4837    0.4302    0.0000 C   0  0  0  0  0  0  0  0  0  0  0  0
    0.6784   -0.8163    0.0000 C   0  0  0  0  0  0  0  0  0  0  0  0
   -0.7446    0.0111    0.0000 C   0  0  0  0  0  0  0  0  0  0  0  0
    1.3954   -1.2244    0.0000 C   0  0  0  0  0  0  0  0  0  0  0  0
   -2.8074    0.4412    0.0000 C   0  0  0  0  0  0  0  0  0  0  0  0
   -1.7264    1.2134    0.0000 C   0  0  0  0  0  0  0  0  0  0  0  0
   -2.5427    1.2244    0.0000 C   0  0  0  0  0  0  0  0  0  0  0  0
   -3.5355    0.0111    0.0000 C   0  0  0  0  0  0  0  0  0  0  0  0
  1  7  1  0  0  0  0
  2  7  1  0  0  0  0
  3  7  1  0  0  0  0
  4 11  1  0  0  0  0
  4 15  1  0  0  0  0
  5  8  1  0  0  0  0
  5 13  2  0  0  0  0
  6  7  1  0  0  0  0
  6  9  2  0  0  0  0
  6 10  1  0  0  0  0
  8  9  1  0  0  0  0
  8 12  2  0  0  0  0
 10 14  2  0  0  0  0
 11 13  1  0  0  0  0
 11 16  2  0  0  0  0
 12 14  1  0  0  0  0
 15 17  2  0  0  0  0
 15 18  1  0  0  0  0
 16 17  1  0  0  0  0
M  END
> <PUBCHEM_COMPOUND_ID_TYPE>
0

> <PUBCHEM_TOTAL_CHARGE>
0

> <PUBCHEM_SUBSTANCE_ID>
310940394

> <PUBCHEM_SUBSTANCE_VERSION>
1

> <PUBCHEM_EXT_DATASOURCE_NAME>
4488

> <PUBCHEM_EXT_DATASOURCE_REGID>
SCHEMBL16118340

> <PUBCHEM_SUBSTANCE_COMMENT>
InChI=1S/C13H10F3NO/c1-9-5-6-12(18-9)8-17-11-4-2-3-10(7-11)13(14,15)16/h2-8H,1H3/b17-8+
InChIKey=KSNBVTVCENUBRO-CAOOACKPSA-N

> <PUBCHEM_SUBSTANCE_SYNONYM>
SCHEMBL16118340

> <PUBCHEM_XREF_EXT_ID>
SCHEMBL16118340

> <PUBCHEM_EXT_DATASOURCE_URL>
https://www.surechembl.org/

> <PUBCHEM_EXT_SUBSTANCE_URL>
https://www.surechembl.org/chemical/SCHEMBL16118340

> <PUBCHEM_CID_ASSOCIATIONS>
4134232  1

> <PUBCHEM_COORDINATE_TYPE>
1
3

$$$$
