310936868
  -OEChem-07211613022D

 15 16  0     0  0  0  0  0  0999 V2000
    4.5086    0.0000    0.0000 O   0  0  0  0  0  0  0  0  0  0  0  0
    5.7557   -0.7290    0.0000 O   0  0  0  0  0  0  0  0  0  0  0  0
    4.5086   -1.4198    0.0000 N   0  0  0  0  0  0  0  0  0  0  0  0
    0.0000   -0.7290    0.0000 N   0  0  0  0  0  0  0  0  0  0  0  0
    2.4750   -0.7290    0.0000 C   0  0  0  0  0  0  0  0  0  0  0  0
    2.0721   -1.4389    0.0000 C   0  0  0  0  0  0  0  0  0  0  0  0
    3.7029   -1.4198    0.0000 C   0  0  0  0  0  0  0  0  0  0  0  0
    3.2808   -0.7099    0.0000 C   0  0  0  0  0  0  0  0  0  0  0  0
    2.4558   -2.1488    0.0000 C   0  0  0  0  0  0  0  0  0  0  0  0
    1.2471   -1.4389    0.0000 C   0  0  0  0  0  0  0  0  0  0  0  0
    3.2808   -2.1488    0.0000 C   0  0  0  0  0  0  0  0  0  0  0  0
    2.0529   -0.0192    0.0000 C   0  0  0  0  0  0  0  0  0  0  0  0
    0.8058   -0.7290    0.0000 C   0  0  0  0  0  0  0  0  0  0  0  0
    1.2279   -0.0192    0.0000 C   0  0  0  0  0  0  0  0  0  0  0  0
    4.9308   -0.7290    0.0000 C   0  0  0  0  0  0  0  0  0  0  0  0
  1 15  2  0  0  0  0
  2 15  1  0  0  0  0
  3  7  1  0  0  0  0
  3 15  1  0  0  0  0
  4 13  1  0  0  0  0
  5  6  2  0  0  0  0
  5  8  1  0  0  0  0
  5 12  1  0  0  0  0
  6  9  1  0  0  0  0
  6 10  1  0  0  0  0
  7  8  2  0  0  0  0
  7 11  1  0  0  0  0
  9 11  2  0  0  0  0
 10 13  2  0  0  0  0
 12 14  2  0  0  0  0
 13 14  1  0  0  0  0
M  END
> <PUBCHEM_COMPOUND_ID_TYPE>
0

> <PUBCHEM_TOTAL_CHARGE>
0

> <PUBCHEM_SUBSTANCE_ID>
310936868

> <PUBCHEM_SUBSTANCE_VERSION>
1

> <PUBCHEM_EXT_DATASOURCE_NAME>
4488

> <PUBCHEM_EXT_DATASOURCE_REGID>
SCHEMBL16114562

> <PUBCHEM_SUBSTANCE_COMMENT>
InChI=1S/C11H10N2O2/c12-9-3-1-8-6-10(13-11(14)15)4-2-7(8)5-9/h1-6,13H,12H2,(H,14,15)
InChIKey=RZFWHLPZNAXBJF-UHFFFAOYSA-N

> <PUBCHEM_SUBSTANCE_SYNONYM>
SCHEMBL16114562

> <PUBCHEM_XREF_EXT_ID>
SCHEMBL16114562

> <PUBCHEM_EXT_DATASOURCE_URL>
https://www.surechembl.org/

> <PUBCHEM_EXT_SUBSTANCE_URL>
https://www.surechembl.org/chemical/SCHEMBL16114562

> <PUBCHEM_CID_ASSOCIATIONS>
117604760  1

> <PUBCHEM_COORDINATE_TYPE>
1
3

$$$$
