310947306
  -OEChem-07211613022D

 41 45  0     1  0  0  0  0  0999 V2000
   -6.1049   -0.1918    0.0000 Br  0  0  0  0  0  0  0  0  0  0  0  0
   -1.8180    2.2832    0.0000 O   0  0  0  0  0  0  0  0  0  0  0  0
    4.3800    0.1356    0.0000 O   0  0  0  0  0  0  0  0  0  0  0  0
    5.8089    0.1356    0.0000 O   0  0  0  0  0  0  0  0  0  0  0  0
    1.1100   -0.0343    0.0000 N   0  0  0  0  0  0  0  0  0  0  0  0
    1.5949    0.6332    0.0000 N   0  0  0  0  0  0  0  0  0  0  0  0
   -2.5325    1.0457    0.0000 N   0  0  0  0  0  0  0  0  0  0  0  0
    0.3254    1.0457    0.0000 C   0  0  0  0  0  0  0  0  0  0  0  0
    0.3254    0.2207    0.0000 C   0  0  0  0  0  0  0  0  0  0  0  0
    1.1100    1.3006    0.0000 C   0  0  0  0  0  0  0  0  0  0  0  0
   -0.3891    1.4582    0.0000 C   0  0  0  0  0  0  0  0  0  0  0  0
   -1.1036    1.0457    0.0000 C   0  0  0  0  0  0  0  0  0  0  0  0
   -0.3891   -0.1918    0.0000 C   0  0  0  0  0  0  0  0  0  0  0  0
    1.3235    2.0975    0.0000 C   0  0  0  0  0  0  0  0  0  0  0  0
    1.3235   -0.8312    0.0000 C   0  0  0  0  0  0  0  0  0  0  0  0
   -1.1036    0.2207    0.0000 C   0  0  0  0  0  0  0  0  0  0  0  0
   -1.8180    1.4582    0.0000 C   0  0  0  0  0  0  0  0  0  0  0  0
    2.1204   -1.0447    0.0000 C   0  0  0  0  0  0  0  0  0  0  0  0
    3.7142   -1.4717    0.0000 C   0  0  0  0  0  0  0  0  0  0  0  0
    4.5111   -1.6853    0.0000 C   0  0  0  0  0  0  0  0  0  0  0  0
    2.3339   -1.8416    0.0000 C   0  0  0  0  0  0  0  0  0  0  0  0
    2.7038   -0.4613    0.0000 C   0  0  0  0  0  0  0  0  0  0  0  0
    5.0944   -1.1019    0.0000 C   0  0  0  0  0  0  0  0  0  0  0  0
    3.1308   -2.0551    0.0000 C   0  0  0  0  0  0  0  0  0  0  0  0
    3.5007   -0.6748    0.0000 C   0  0  0  0  0  0  0  0  0  0  0  0
   -3.2470    1.4582    0.0000 C   0  0  3  0  0  0  0  0  0  0  0  0
    0.7402    2.6809    0.0000 C   0  0  0  0  0  0  0  0  0  0  0  0
    2.1204    2.3110    0.0000 C   0  0  0  0  0  0  0  0  0  0  0  0
   -3.9614    1.0457    0.0000 C   0  0  0  0  0  0  0  0  0  0  0  0
    4.7246   -2.4821    0.0000 C   0  0  0  0  0  0  0  0  0  0  0  0
    5.0944   -0.2769    0.0000 C   0  0  0  0  0  0  0  0  0  0  0  0
    5.8913   -1.3154    0.0000 C   0  0  0  0  0  0  0  0  0  0  0  0
    5.5215   -2.6957    0.0000 C   0  0  0  0  0  0  0  0  0  0  0  0
   -3.2470    2.2832    0.0000 C   0  0  0  0  0  0  0  0  0  0  0  0
    6.1049   -2.1123    0.0000 C   0  0  0  0  0  0  0  0  0  0  0  0
   -4.6759    1.4582    0.0000 C   0  0  0  0  0  0  0  0  0  0  0  0
   -3.9614    0.2207    0.0000 C   0  0  0  0  0  0  0  0  0  0  0  0
   -5.3904    0.2207    0.0000 C   0  0  0  0  0  0  0  0  0  0  0  0
   -5.3904    1.0457    0.0000 C   0  0  0  0  0  0  0  0  0  0  0  0
   -4.6759   -0.1918    0.0000 C   0  0  0  0  0  0  0  0  0  0  0  0
   -3.9614    2.6957    0.0000 C   0  0  0  0  0  0  0  0  0  0  0  0
  1 38  1  0  0  0  0
  2 17  2  0  0  0  0
  3 31  2  0  0  0  0
  4 31  1  0  0  0  0
  5  6  1  0  0  0  0
  5  9  1  0  0  0  0
  5 15  1  0  0  0  0
  6 10  2  0  0  0  0
  7 17  1  0  0  0  0
 26  7  1  6  0  0  0
  8  9  1  0  0  0  0
  8 10  1  0  0  0  0
  8 11  2  0  0  0  0
  9 13  2  0  0  0  0
 10 14  1  0  0  0  0
 11 12  1  0  0  0  0
 12 16  2  0  0  0  0
 12 17  1  0  0  0  0
 13 16  1  0  0  0  0
 14 27  1  0  0  0  0
 14 28  1  0  0  0  0
 15 18  1  0  0  0  0
 18 21  2  0  0  0  0
 18 22  1  0  0  0  0
 19 20  1  0  0  0  0
 19 24  2  0  0  0  0
 19 25  1  0  0  0  0
 20 23  1  0  0  0  0
 20 30  2  0  0  0  0
 21 24  1  0  0  0  0
 22 25  2  0  0  0  0
 23 31  1  0  0  0  0
 23 32  2  0  0  0  0
 26 29  1  0  0  0  0
 26 34  1  0  0  0  0
 29 36  2  0  0  0  0
 29 37  1  0  0  0  0
 30 33  1  0  0  0  0
 32 35  1  0  0  0  0
 33 35  2  0  0  0  0
 34 41  1  0  0  0  0
 36 39  1  0  0  0  0
 37 40  2  0  0  0  0
 38 39  2  0  0  0  0
 38 40  1  0  0  0  0
M  END
> <PUBCHEM_COMPOUND_ID_TYPE>
0

> <PUBCHEM_TOTAL_CHARGE>
0

> <PUBCHEM_SUBSTANCE_ID>
310947306

> <PUBCHEM_SUBSTANCE_VERSION>
1

> <PUBCHEM_EXT_DATASOURCE_NAME>
4488

> <PUBCHEM_EXT_DATASOURCE_REGID>
SCHEMBL16125461

> <PUBCHEM_SUBSTANCE_COMMENT>
InChI=1S/C34H32BrN3O3/c1-4-30(24-13-16-26(35)17-14-24)36-33(39)25-15-18-31-29(19-25)32(21(2)3)37-38(31)20-22-9-11-23(12-10-22)27-7-5-6-8-28(27)34(40)41/h5-19,21,30H,4,20H2,1-3H3,(H,36,39)(H,40,41)/t30-/m0/s1
InChIKey=WIJDZPPVKXNNOO-PMERELPUSA-N

> <PUBCHEM_SUBSTANCE_SYNONYM>
SCHEMBL16125461

> <PUBCHEM_XREF_EXT_ID>
SCHEMBL16125461

> <PUBCHEM_EXT_DATASOURCE_URL>
https://www.surechembl.org/

> <PUBCHEM_EXT_SUBSTANCE_URL>
https://www.surechembl.org/chemical/SCHEMBL16125461

> <PUBCHEM_CID_ASSOCIATIONS>
71558637  1

> <PUBCHEM_COORDINATE_TYPE>
1
3

> <PUBCHEM_BONDANNOTATIONS>
26  7  6

$$$$
