310949824
  -OEChem-07211613022D

 44 43  0     0  0  0  0  0  0999 V2000
    4.3601   -0.1815    0.0000 N   0  0  0  0  0  0  0  0  0  0  0  0
    6.5197    0.2269    0.0000 N   0  0  0  0  0  0  0  0  0  0  0  0
    3.5616   -0.1724    0.0000 C   0  0  0  0  0  0  0  0  0  0  0  0
    5.0587    0.2359    0.0000 C   0  0  0  0  0  0  0  0  0  0  0  0
    3.1532   -0.8892    0.0000 C   0  0  0  0  0  0  0  0  0  0  0  0
    3.1532    0.5263    0.0000 C   0  0  0  0  0  0  0  0  0  0  0  0
    5.7756   -0.1724    0.0000 C   0  0  0  0  0  0  0  0  0  0  0  0
    2.4182   -0.4900    0.0000 C   0  0  0  0  0  0  0  0  0  0  0  0
    2.4182    0.1271    0.0000 C   0  0  0  0  0  0  0  0  0  0  0  0
    5.0678    0.8529    0.0000 C   0  0  0  0  0  0  0  0  0  0  0  0
    1.8466   -1.0526    0.0000 C   0  0  0  0  0  0  0  0  0  0  0  0
    1.8284    0.7078    0.0000 C   0  0  0  0  0  0  0  0  0  0  0  0
    6.5197    1.0798    0.0000 C   0  0  0  0  0  0  0  0  0  0  0  0
    7.2456   -0.1815    0.0000 C   0  0  0  0  0  0  0  0  0  0  0  0
    1.2295   -0.4900    0.0000 C   0  0  0  0  0  0  0  0  0  0  0  0
    1.2477    0.1361    0.0000 C   0  0  0  0  0  0  0  0  0  0  0  0
    0.6670   -1.0526    0.0000 C   0  0  0  0  0  0  0  0  0  0  0  0
    0.6488    0.7078    0.0000 C   0  0  0  0  0  0  0  0  0  0  0  0
    0.0590   -0.4900    0.0000 C   0  0  0  0  0  0  0  0  0  0  0  0
    0.0772    0.1361    0.0000 C   0  0  0  0  0  0  0  0  0  0  0  0
   -0.5127   -1.0526    0.0000 C   0  0  0  0  0  0  0  0  0  0  0  0
   -0.5308    0.7078    0.0000 C   0  0  0  0  0  0  0  0  0  0  0  0
   -1.1207   -0.4900    0.0000 C   0  0  0  0  0  0  0  0  0  0  0  0
   -1.1025    0.1361    0.0000 C   0  0  0  0  0  0  0  0  0  0  0  0
   -1.6923   -1.0707    0.0000 C   0  0  0  0  0  0  0  0  0  0  0  0
   -1.6832    0.7078    0.0000 C   0  0  0  0  0  0  0  0  0  0  0  0
   -2.5362   -1.0617    0.0000 C   0  0  0  0  0  0  0  0  0  0  0  0
   -2.5362    0.7078    0.0000 C   0  0  0  0  0  0  0  0  0  0  0  0
   -3.1260   -0.4900    0.0000 C   0  0  0  0  0  0  0  0  0  0  0  0
   -3.1078    0.1361    0.0000 C   0  0  0  0  0  0  0  0  0  0  0  0
   -3.6886   -1.0526    0.0000 C   0  0  0  0  0  0  0  0  0  0  0  0
   -3.7068    0.7078    0.0000 C   0  0  0  0  0  0  0  0  0  0  0  0
   -4.3056   -0.4900    0.0000 C   0  0  0  0  0  0  0  0  0  0  0  0
   -4.2875    0.1361    0.0000 C   0  0  0  0  0  0  0  0  0  0  0  0
   -4.8682   -1.0526    0.0000 C   0  0  0  0  0  0  0  0  0  0  0  0
   -4.8864    0.7078    0.0000 C   0  0  0  0  0  0  0  0  0  0  0  0
   -5.4762   -0.4900    0.0000 C   0  0  0  0  0  0  0  0  0  0  0  0
   -5.4580    0.1361    0.0000 C   0  0  0  0  0  0  0  0  0  0  0  0
   -6.0478   -1.0526    0.0000 C   0  0  0  0  0  0  0  0  0  0  0  0
   -6.0660    0.7078    0.0000 C   0  0  0  0  0  0  0  0  0  0  0  0
   -6.6558   -0.4900    0.0000 C   0  0  0  0  0  0  0  0  0  0  0  0
   -6.6377    0.1361    0.0000 C   0  0  0  0  0  0  0  0  0  0  0  0
   -7.2366   -1.0798    0.0000 C   0  0  0  0  0  0  0  0  0  0  0  0
   -7.2456    0.7350    0.0000 C   0  0  0  0  0  0  0  0  0  0  0  0
  1  3  1  0  0  0  0
  1  4  1  0  0  0  0
  2  7  1  0  0  0  0
  2 13  1  0  0  0  0
  2 14  1  0  0  0  0
  3  5  1  0  0  0  0
  3  6  1  0  0  0  0
  4  7  1  0  0  0  0
  4 10  2  0  0  0  0
  5  8  1  0  0  0  0
  6  9  1  0  0  0  0
  8 11  1  0  0  0  0
  9 12  1  0  0  0  0
 11 15  1  0  0  0  0
 12 16  1  0  0  0  0
 15 17  1  0  0  0  0
 16 18  1  0  0  0  0
 17 19  1  0  0  0  0
 18 20  1  0  0  0  0
 19 21  1  0  0  0  0
 20 22  1  0  0  0  0
 21 23  1  0  0  0  0
 22 24  1  0  0  0  0
 23 25  1  0  0  0  0
 24 26  1  0  0  0  0
 25 27  2  0  0  0  0
 26 28  2  0  0  0  0
 27 29  1  0  0  0  0
 28 30  1  0  0  0  0
 29 31  1  0  0  0  0
 30 32  1  0  0  0  0
 31 33  1  0  0  0  0
 32 34  1  0  0  0  0
 33 35  1  0  0  0  0
 34 36  1  0  0  0  0
 35 37  1  0  0  0  0
 36 38  1  0  0  0  0
 37 39  1  0  0  0  0
 38 40  1  0  0  0  0
 39 41  1  0  0  0  0
 40 42  1  0  0  0  0
 41 43  1  0  0  0  0
 42 44  1  0  0  0  0
M  END
> <PUBCHEM_COMPOUND_ID_TYPE>
0

> <PUBCHEM_TOTAL_CHARGE>
0

> <PUBCHEM_SUBSTANCE_ID>
310949824

> <PUBCHEM_SUBSTANCE_VERSION>
1

> <PUBCHEM_EXT_DATASOURCE_NAME>
4488

> <PUBCHEM_EXT_DATASOURCE_REGID>
SCHEMBL16128025

> <PUBCHEM_SUBSTANCE_COMMENT>
InChI=1S/C42H82N2/c1-6-8-10-12-14-16-18-20-22-24-26-28-30-32-34-36-38-42(43-41(3)40-44(4)5)39-37-35-33-31-29-27-25-23-21-19-17-15-13-11-9-7-2/h20-23,42-43H,3,6-19,24-40H2,1-2,4-5H3/b22-20-,23-21-
InChIKey=RODULVLXBZNQOF-YEUCEMRASA-N

> <PUBCHEM_SUBSTANCE_SYNONYM>
SCHEMBL16128025

> <PUBCHEM_XREF_EXT_ID>
SCHEMBL16128025

> <PUBCHEM_EXT_DATASOURCE_URL>
https://www.surechembl.org/

> <PUBCHEM_EXT_SUBSTANCE_URL>
https://www.surechembl.org/chemical/SCHEMBL16128025

> <PUBCHEM_CID_ASSOCIATIONS>
117615142  1

> <PUBCHEM_COORDINATE_TYPE>
1
3

$$$$
