310936967
  -OEChem-07211613022D

 23 27  0     0  0  0  0  0  0999 V2000
    6.3274   -2.5705    0.0000 O   0  0  0  0  0  0  0  0  0  0  0  0
    2.2315   -3.2767    0.0000 O   0  0  0  0  0  0  0  0  0  0  0  0
    5.0846   -2.1751    0.0000 N   0  0  0  0  0  0  0  0  0  0  0  0
    4.4914   -4.2654    0.0000 N   0  0  0  0  0  0  0  0  0  0  0  0
    5.8755   -3.2484    0.0000 N   0  0  0  0  0  0  0  0  0  0  0  0
    6.4970    0.0000    0.0000 N   0  0  0  0  0  0  0  0  0  0  0  0
    4.4066   -3.4744    0.0000 C   0  0  0  0  0  0  0  0  0  0  0  0
    5.0846   -2.9942    0.0000 C   0  0  0  0  0  0  0  0  0  0  0  0
    3.0790   -4.4349    0.0000 C   0  0  0  0  0  0  0  0  0  0  0  0
    2.9942   -3.6157    0.0000 C   0  0  0  0  0  0  0  0  0  0  0  0
    5.8755   -1.8926    0.0000 C   0  0  0  0  0  0  0  0  0  0  0  0
    2.4011   -4.9150    0.0000 C   0  0  0  0  0  0  0  0  0  0  0  0
    3.6439   -3.1072    0.0000 C   0  0  0  0  0  0  0  0  0  0  0  0
    6.1297   -1.1017    0.0000 C   0  0  0  0  0  0  0  0  0  0  0  0
    3.8417   -4.7738    0.0000 C   0  0  0  0  0  0  0  0  0  0  0  0
    2.0621   -5.6495    0.0000 C   0  0  0  0  0  0  0  0  0  0  0  0
    1.5536   -4.9998    0.0000 C   0  0  0  0  0  0  0  0  0  0  0  0
    6.8642   -0.7345    0.0000 C   0  0  0  0  0  0  0  0  0  0  0  0
    5.7343   -0.3672    0.0000 C   0  0  0  0  0  0  0  0  0  0  0  0
    1.5536   -3.7852    0.0000 C   0  0  0  0  0  0  0  0  0  0  0  0
    0.7909   -3.4744    0.0000 C   0  0  0  0  0  0  0  0  0  0  0  0
    0.0000   -3.5592    0.0000 C   0  0  0  0  0  0  0  0  0  0  0  0
    0.2825   -2.7965    0.0000 C   0  0  0  0  0  0  0  0  0  0  0  0
  1  5  1  0  0  0  0
  1 11  1  0  0  0  0
  2 10  1  0  0  0  0
  2 20  1  0  0  0  0
  3  8  1  0  0  0  0
  3 11  2  0  0  0  0
  4  7  1  0  0  0  0
  4 15  2  0  0  0  0
  5  8  2  0  0  0  0
  6 18  1  0  0  0  0
  6 19  1  0  0  0  0
  7  8  1  0  0  0  0
  7 13  2  0  0  0  0
  9 10  2  0  0  0  0
  9 12  1  0  0  0  0
  9 15  1  0  0  0  0
 10 13  1  0  0  0  0
 11 14  1  0  0  0  0
 12 16  1  0  0  0  0
 12 17  1  0  0  0  0
 14 18  1  0  0  0  0
 14 19  1  0  0  0  0
 16 17  1  0  0  0  0
 20 21  1  0  0  0  0
 21 22  1  0  0  0  0
 21 23  1  0  0  0  0
 22 23  1  0  0  0  0
M  END
> <PUBCHEM_COMPOUND_ID_TYPE>
0

> <PUBCHEM_TOTAL_CHARGE>
0

> <PUBCHEM_SUBSTANCE_ID>
310936967

> <PUBCHEM_SUBSTANCE_VERSION>
1

> <PUBCHEM_EXT_DATASOURCE_NAME>
4488

> <PUBCHEM_EXT_DATASOURCE_REGID>
SCHEMBL16114670

> <PUBCHEM_SUBSTANCE_COMMENT>
InChI=1S/C17H20N4O2/c1-2-10(1)9-22-15-5-14(19-8-13(15)11-3-4-11)16-20-17(23-21-16)12-6-18-7-12/h5,8,10-12,18H,1-4,6-7,9H2
InChIKey=YCCGAOVHKNJCAU-UHFFFAOYSA-N

> <PUBCHEM_SUBSTANCE_SYNONYM>
SCHEMBL16114670

> <PUBCHEM_XREF_EXT_ID>
SCHEMBL16114670

> <PUBCHEM_EXT_DATASOURCE_URL>
https://www.surechembl.org/

> <PUBCHEM_EXT_SUBSTANCE_URL>
https://www.surechembl.org/chemical/SCHEMBL16114670

> <PUBCHEM_CID_ASSOCIATIONS>
86275914  1

> <PUBCHEM_COORDINATE_TYPE>
1
3

$$$$
