310942129
  -OEChem-07211613022D

 26 28  0     1  0  0  0  0  0999 V2000
   -3.5151    1.4433    0.0000 S   0  0  3  0  0  0  0  0  0  0  0  0
   -1.3901   -0.6110    0.0000 O   0  0  0  0  0  0  0  0  0  0  0  0
   -4.3651    1.4433    0.0000 O   0  0  0  0  0  0  0  0  0  0  0  0
    2.2047   -1.8682    0.0000 O   0  0  0  0  0  0  0  0  0  0  0  0
   -2.8068    1.8505    0.0000 N   0  0  0  0  0  0  0  0  0  0  0  0
   -3.5151    0.6287    0.0000 N   0  0  0  0  0  0  0  0  0  0  0  0
    1.4786   -0.6110    0.0000 N   0  0  0  0  0  0  0  0  0  0  0  0
   -2.8245   -0.5932    0.0000 N   0  0  0  0  0  0  0  0  0  0  0  0
   -2.1161    0.6287    0.0000 C   0  0  0  0  0  0  0  0  0  0  0  0
   -2.0808    1.4786    0.0000 C   0  0  0  0  0  0  0  0  0  0  0  0
   -1.3724    0.2568    0.0000 C   0  0  0  0  0  0  0  0  0  0  0  0
   -2.7890    0.2568    0.0000 C   0  0  0  0  0  0  0  0  0  0  0  0
   -1.3724    1.8682    0.0000 C   0  0  0  0  0  0  0  0  0  0  0  0
   -0.6640    0.6287    0.0000 C   0  0  0  0  0  0  0  0  0  0  0  0
   -0.6640    1.4610    0.0000 C   0  0  0  0  0  0  0  0  0  0  0  0
    0.0620   -0.5932    0.0000 C   0  0  3  0  0  0  0  0  0  0  0  0
   -0.6464   -1.0005    0.0000 C   0  0  0  0  0  0  0  0  0  0  0  0
    0.7703   -1.0182    0.0000 C   0  0  0  0  0  0  0  0  0  0  0  0
    2.2047   -0.9828    0.0000 C   0  0  0  0  0  0  0  0  0  0  0  0
    0.0797    0.2568    0.0000 C   0  0  0  0  0  0  0  0  0  0  0  0
    1.4786    0.2391    0.0000 C   0  0  0  0  0  0  0  0  0  0  0  0
    0.7526    0.6287    0.0000 C   0  0  0  0  0  0  0  0  0  0  0  0
    2.8953   -0.6110    0.0000 C   0  0  0  0  0  0  0  0  0  0  0  0
    3.6391   -1.0005    0.0000 C   0  0  0  0  0  0  0  0  0  0  0  0
    4.3651   -0.5755    0.0000 C   0  0  0  0  0  0  0  0  0  0  0  0
    3.6568   -1.8505    0.0000 C   0  0  0  0  0  0  0  0  0  0  0  0
  1  3  2  0  0  0  0
  1  5  1  0  0  0  0
  1  6  1  0  0  0  0
  2 11  1  0  0  0  0
  2 17  1  0  0  0  0
  4 19  2  0  0  0  0
  5 10  1  0  0  0  0
  6 12  2  0  0  0  0
  7 18  1  0  0  0  0
  7 19  1  0  0  0  0
  7 21  1  0  0  0  0
  8 12  1  0  0  0  0
  9 10  1  0  0  0  0
  9 11  2  0  0  0  0
  9 12  1  0  0  0  0
 10 13  2  0  0  0  0
 11 14  1  0  0  0  0
 13 15  1  0  0  0  0
 14 15  2  0  0  0  0
 16 17  1  1  0  0  0
 16 18  1  0  0  0  0
 16 20  1  0  0  0  0
 19 23  1  0  0  0  0
 20 22  1  0  0  0  0
 21 22  1  0  0  0  0
 23 24  1  0  0  0  0
 24 25  1  0  0  0  0
 24 26  1  0  0  0  0
M  END
> <PUBCHEM_COMPOUND_ID_TYPE>
0

> <PUBCHEM_TOTAL_CHARGE>
0

> <PUBCHEM_SUBSTANCE_ID>
310942129

> <PUBCHEM_SUBSTANCE_VERSION>
1

> <PUBCHEM_EXT_DATASOURCE_NAME>
4488

> <PUBCHEM_EXT_DATASOURCE_REGID>
SCHEMBL16120164

> <PUBCHEM_SUBSTANCE_COMMENT>
InChI=1S/C18H26N4O3S/c1-12(2)9-16(23)22-8-4-5-13(10-22)11-25-15-7-3-6-14-17(15)18(19)21-26(24)20-14/h3,6-7,12-13,20H,4-5,8-11H2,1-2H3,(H2,19,21)/t13-,26?/m0/s1
InChIKey=PPNPQMUGYQGDFN-ABGKOZRJSA-N

> <PUBCHEM_SUBSTANCE_SYNONYM>
SCHEMBL16120164

> <PUBCHEM_XREF_EXT_ID>
SCHEMBL16120164

> <PUBCHEM_EXT_DATASOURCE_URL>
https://www.surechembl.org/

> <PUBCHEM_EXT_SUBSTANCE_URL>
https://www.surechembl.org/chemical/SCHEMBL16120164

> <PUBCHEM_CID_ASSOCIATIONS>
117608788  1

> <PUBCHEM_COORDINATE_TYPE>
1
3

> <PUBCHEM_BONDANNOTATIONS>
16  17  5

$$$$
