310945330
  -OEChem-07211613022D

 27 32  0     0  0  0  0  0  0999 V2000
   -0.7759   -0.8101    0.0000 O   0  0  0  0  0  0  0  0  0  0  0  0
    4.0846    1.4241    0.0000 O   0  0  0  0  0  0  0  0  0  0  0  0
    2.2768    0.1791    0.0000 N   0  0  0  0  0  0  0  0  0  0  0  0
    3.9482    0.0085    0.0000 N   0  0  0  0  0  0  0  0  0  0  0  0
   -1.4411    0.3667    0.0000 N   0  0  0  0  0  0  0  0  0  0  0  0
   -4.0846   -0.9806    0.0000 N   0  0  0  0  0  0  0  0  0  0  0  0
    2.6179   -0.5714    0.0000 C   0  0  0  0  0  0  0  0  0  0  0  0
    1.4752    0.4520    0.0000 C   0  0  0  0  0  0  0  0  0  0  0  0
    2.7714    0.8612    0.0000 C   0  0  0  0  0  0  0  0  0  0  0  0
    1.4922    1.2706    0.0000 C   0  0  0  0  0  0  0  0  0  0  0  0
    2.2938    1.5093    0.0000 C   0  0  0  0  0  0  0  0  0  0  0  0
    3.5900    0.7419    0.0000 C   0  0  0  0  0  0  0  0  0  0  0  0
    3.4535   -0.6737    0.0000 C   0  0  0  0  0  0  0  0  0  0  0  0
    1.8163   -0.7248    0.0000 C   0  0  0  0  0  0  0  0  0  0  0  0
    2.7373   -1.3899    0.0000 C   0  0  0  0  0  0  0  0  0  0  0  0
    0.7589    0.0256    0.0000 C   0  0  0  0  0  0  0  0  0  0  0  0
    0.0256    0.4349    0.0000 C   0  0  0  0  0  0  0  0  0  0  0  0
    1.9357   -1.5093    0.0000 C   0  0  0  0  0  0  0  0  0  0  0  0
   -0.6737    0.0256    0.0000 C   0  0  0  0  0  0  0  0  0  0  0  0
    0.7589    1.6799    0.0000 C   0  0  0  0  0  0  0  0  0  0  0  0
    0.0597    1.2706    0.0000 C   0  0  0  0  0  0  0  0  0  0  0  0
   -2.0210   -0.2643    0.0000 C   0  0  0  0  0  0  0  0  0  0  0  0
   -1.5946   -0.9636    0.0000 C   0  0  0  0  0  0  0  0  0  0  0  0
   -2.8396   -0.2814    0.0000 C   0  0  0  0  0  0  0  0  0  0  0  0
   -2.0039   -1.6799    0.0000 C   0  0  0  0  0  0  0  0  0  0  0  0
   -3.2489   -0.9636    0.0000 C   0  0  0  0  0  0  0  0  0  0  0  0
   -2.8225   -1.6799    0.0000 C   0  0  0  0  0  0  0  0  0  0  0  0
  1 19  1  0  0  0  0
  1 23  1  0  0  0  0
  2 12  2  0  0  0  0
  3  7  1  0  0  0  0
  3  8  1  0  0  0  0
  3  9  1  0  0  0  0
  4 12  1  0  0  0  0
  4 13  1  0  0  0  0
  5 19  2  0  0  0  0
  5 22  1  0  0  0  0
  6 26  1  0  0  0  0
  7 13  1  0  0  0  0
  7 14  1  0  0  0  0
  7 15  1  0  0  0  0
  8 10  1  0  0  0  0
  8 16  2  0  0  0  0
  9 11  2  0  0  0  0
  9 12  1  0  0  0  0
 10 11  1  0  0  0  0
 10 20  2  0  0  0  0
 14 18  1  0  0  0  0
 15 18  1  0  0  0  0
 16 17  1  0  0  0  0
 17 19  1  0  0  0  0
 17 21  2  0  0  0  0
 20 21  1  0  0  0  0
 22 23  2  0  0  0  0
 22 24  1  0  0  0  0
 23 25  1  0  0  0  0
 24 26  2  0  0  0  0
 25 27  2  0  0  0  0
 26 27  1  0  0  0  0
M  END
> <PUBCHEM_COMPOUND_ID_TYPE>
0

> <PUBCHEM_TOTAL_CHARGE>
0

> <PUBCHEM_SUBSTANCE_ID>
310945330

> <PUBCHEM_SUBSTANCE_VERSION>
1

> <PUBCHEM_EXT_DATASOURCE_NAME>
4488

> <PUBCHEM_EXT_DATASOURCE_REGID>
SCHEMBL16123428

> <PUBCHEM_SUBSTANCE_COMMENT>
InChI=1S/C21H18N4O2/c22-14-4-5-18-15(10-14)24-20(27-18)13-3-2-12-8-17-19(26)23-11-21(6-1-7-21)25(17)16(12)9-13/h2-5,8-10H,1,6-7,11,22H2,(H,23,26)
InChIKey=TYKKYOFXWYXOJQ-UHFFFAOYSA-N

> <PUBCHEM_SUBSTANCE_SYNONYM>
SCHEMBL16123428

> <PUBCHEM_XREF_EXT_ID>
SCHEMBL16123428

> <PUBCHEM_EXT_DATASOURCE_URL>
https://www.surechembl.org/

> <PUBCHEM_EXT_SUBSTANCE_URL>
https://www.surechembl.org/chemical/SCHEMBL16123428

> <PUBCHEM_CID_ASSOCIATIONS>
117611389  1

> <PUBCHEM_COORDINATE_TYPE>
1
3

$$$$
