310949463
  -OEChem-07211613022D

 29 32  0     0  0  0  0  0  0999 V2000
    4.2576   -1.8980    0.0000 I   0  0  0  0  0  0  0  0  0  0  0  0
   -2.1178    2.3377    0.0000 Cl  0  0  0  0  0  0  0  0  0  0  0  0
   -4.2576    1.0919    0.0000 F   0  0  0  0  0  0  0  0  0  0  0  0
   -3.5541    2.3377    0.0000 F   0  0  0  0  0  0  0  0  0  0  0  0
   -2.8360    1.9273    0.0000 F   0  0  0  0  0  0  0  0  0  0  0  0
   -0.6815    2.3230    0.0000 O   0  0  0  0  0  0  0  0  0  0  0  0
    2.2351    0.0220    0.0000 N   0  0  0  0  0  0  0  0  0  0  0  0
    0.0220    1.0919    0.0000 N   0  0  0  0  0  0  0  0  0  0  0  0
    2.2351    1.3557    0.0000 N   0  0  0  0  0  0  0  0  0  0  0  0
    2.7334    0.6815    0.0000 N   0  0  0  0  0  0  0  0  0  0  0  0
    1.9420   -1.3850    0.0000 N   0  0  0  0  0  0  0  0  0  0  0  0
    1.4437    0.2711    0.0000 C   0  0  0  0  0  0  0  0  0  0  0  0
    1.4583    1.1066    0.0000 C   0  0  0  0  0  0  0  0  0  0  0  0
   -1.3997    1.1066    0.0000 C   0  0  0  0  0  0  0  0  0  0  0  0
   -0.6962    1.4876    0.0000 C   0  0  0  0  0  0  0  0  0  0  0  0
   -2.1325    1.5169    0.0000 C   0  0  0  0  0  0  0  0  0  0  0  0
    0.7401    1.5169    0.0000 C   0  0  0  0  0  0  0  0  0  0  0  0
   -2.8360    1.1066    0.0000 C   0  0  0  0  0  0  0  0  0  0  0  0
    2.4989   -0.7548    0.0000 C   0  0  0  0  0  0  0  0  0  0  0  0
    0.7548   -0.1392    0.0000 C   0  0  0  0  0  0  0  0  0  0  0  0
    0.0220    0.2711    0.0000 C   0  0  0  0  0  0  0  0  0  0  0  0
   -3.5395    1.5169    0.0000 C   0  0  0  0  0  0  0  0  0  0  0  0
   -1.4143    0.2711    0.0000 C   0  0  0  0  0  0  0  0  0  0  0  0
   -2.8360    0.2858    0.0000 C   0  0  0  0  0  0  0  0  0  0  0  0
    3.3196   -0.9453    0.0000 C   0  0  0  0  0  0  0  0  0  0  0  0
   -2.1178   -0.1392    0.0000 C   0  0  0  0  0  0  0  0  0  0  0  0
    3.5688   -1.7221    0.0000 C   0  0  0  0  0  0  0  0  0  0  0  0
    2.2058   -2.1618    0.0000 C   0  0  0  0  0  0  0  0  0  0  0  0
    3.0118   -2.3377    0.0000 C   0  0  0  0  0  0  0  0  0  0  0  0
  1 27  1  0  0  0  0
  2 16  1  0  0  0  0
  3 22  1  0  0  0  0
  4 22  1  0  0  0  0
  5 22  1  0  0  0  0
  6 15  2  0  0  0  0
  7 10  1  0  0  0  0
  7 12  1  0  0  0  0
  7 19  1  0  0  0  0
  8 15  1  0  0  0  0
  8 17  1  0  0  0  0
  8 21  1  0  0  0  0
  9 10  2  0  0  0  0
  9 13  1  0  0  0  0
 11 19  2  0  0  0  0
 11 28  1  0  0  0  0
 12 13  2  0  0  0  0
 12 20  1  0  0  0  0
 13 17  1  0  0  0  0
 14 15  1  0  0  0  0
 14 16  1  0  0  0  0
 14 23  2  0  0  0  0
 16 18  2  0  0  0  0
 18 22  1  0  0  0  0
 18 24  1  0  0  0  0
 19 25  1  0  0  0  0
 20 21  1  0  0  0  0
 23 26  1  0  0  0  0
 24 26  2  0  0  0  0
 25 27  2  0  0  0  0
 27 29  1  0  0  0  0
 28 29  2  0  0  0  0
M  END
> <PUBCHEM_COMPOUND_ID_TYPE>
0

> <PUBCHEM_TOTAL_CHARGE>
0

> <PUBCHEM_SUBSTANCE_ID>
310949463

> <PUBCHEM_SUBSTANCE_VERSION>
1

> <PUBCHEM_EXT_DATASOURCE_NAME>
4488

> <PUBCHEM_EXT_DATASOURCE_REGID>
SCHEMBL16127657

> <PUBCHEM_SUBSTANCE_COMMENT>
InChI=1S/C18H12ClF3IN5O/c19-16-11(2-1-3-12(16)18(20,21)22)17(29)27-7-5-14-13(9-27)25-26-28(14)15-8-10(23)4-6-24-15/h1-4,6,8H,5,7,9H2
InChIKey=YKWWSTWZZDYLCP-UHFFFAOYSA-N

> <PUBCHEM_SUBSTANCE_SYNONYM>
SCHEMBL16127657

> <PUBCHEM_XREF_EXT_ID>
SCHEMBL16127657

> <PUBCHEM_EXT_DATASOURCE_URL>
https://www.surechembl.org/

> <PUBCHEM_EXT_SUBSTANCE_URL>
https://www.surechembl.org/chemical/SCHEMBL16127657

> <PUBCHEM_CID_ASSOCIATIONS>
117614908  1

> <PUBCHEM_COORDINATE_TYPE>
1
3

$$$$
