310943458
  -OEChem-07211613022D

 35 38  0     0  0  0  0  0  0999 V2000
    4.6800    1.6591    0.0000 F   0  0  0  0  0  0  0  0  0  0  0  0
    5.3897    1.2563    0.0000 F   0  0  0  0  0  0  0  0  0  0  0  0
    5.3897    0.4316    0.0000 F   0  0  0  0  0  0  0  0  0  0  0  0
   -3.9512   -0.8152    0.0000 O   0  0  0  0  0  0  0  0  0  0  0  0
   -5.3897    1.6591    0.0000 O   0  0  0  0  0  0  0  0  0  0  0  0
    1.8030    1.6591    0.0000 O   0  0  0  0  0  0  0  0  0  0  0  0
   -3.9512    0.8344    0.0000 N   0  0  0  0  0  0  0  0  0  0  0  0
   -1.7838   -0.3932    0.0000 N   0  0  0  0  0  0  0  0  0  0  0  0
   -2.5127   -0.8152    0.0000 N   0  0  0  0  0  0  0  0  0  0  0  0
   -0.3452    2.0811    0.0000 N   0  0  0  0  0  0  0  0  0  0  0  0
    1.0933    0.4316    0.0000 N   0  0  0  0  0  0  0  0  0  0  0  0
   -1.7838    0.4316    0.0000 C   0  0  0  0  0  0  0  0  0  0  0  0
   -1.0933    0.8535    0.0000 C   0  0  0  0  0  0  0  0  0  0  0  0
   -3.2223    0.4316    0.0000 C   0  0  0  0  0  0  0  0  0  0  0  0
   -3.2415   -0.3932    0.0000 C   0  0  0  0  0  0  0  0  0  0  0  0
   -2.5127    0.8344    0.0000 C   0  0  0  0  0  0  0  0  0  0  0  0
   -1.0741    1.6783    0.0000 C   0  0  0  0  0  0  0  0  0  0  0  0
   -0.3452    0.4316    0.0000 C   0  0  0  0  0  0  0  0  0  0  0  0
    0.3452    0.8344    0.0000 C   0  0  0  0  0  0  0  0  0  0  0  0
    2.5127    0.4316    0.0000 C   0  0  0  0  0  0  0  0  0  0  0  0
    1.7838    0.8152    0.0000 C   0  0  0  0  0  0  0  0  0  0  0  0
    3.9512    0.4316    0.0000 C   0  0  0  0  0  0  0  0  0  0  0  0
    0.3644    1.6591    0.0000 C   0  0  0  0  0  0  0  0  0  0  0  0
    4.6800    0.8535    0.0000 C   0  0  0  0  0  0  0  0  0  0  0  0
    3.2223    0.8344    0.0000 C   0  0  0  0  0  0  0  0  0  0  0  0
   -3.9512    1.6591    0.0000 C   0  0  0  0  0  0  0  0  0  0  0  0
   -4.6608    0.4316    0.0000 C   0  0  0  0  0  0  0  0  0  0  0  0
    2.5318   -0.4123    0.0000 C   0  0  0  0  0  0  0  0  0  0  0  0
    3.9512   -0.3932    0.0000 C   0  0  0  0  0  0  0  0  0  0  0  0
   -1.8030    2.0619    0.0000 C   0  0  0  0  0  0  0  0  0  0  0  0
    3.2415   -0.7960    0.0000 C   0  0  0  0  0  0  0  0  0  0  0  0
   -4.6800    2.0811    0.0000 C   0  0  0  0  0  0  0  0  0  0  0  0
   -5.3897    0.8344    0.0000 C   0  0  0  0  0  0  0  0  0  0  0  0
   -3.9512   -1.6400    0.0000 C   0  0  0  0  0  0  0  0  0  0  0  0
   -4.6608   -2.0811    0.0000 C   0  0  0  0  0  0  0  0  0  0  0  0
  1 24  1  0  0  0  0
  2 24  1  0  0  0  0
  3 24  1  0  0  0  0
  4 15  1  0  0  0  0
  4 34  1  0  0  0  0
  5 32  1  0  0  0  0
  5 33  1  0  0  0  0
  6 21  2  0  0  0  0
  7 14  1  0  0  0  0
  7 26  1  0  0  0  0
  7 27  1  0  0  0  0
  8  9  1  0  0  0  0
  8 12  2  0  0  0  0
  9 15  2  0  0  0  0
 10 17  1  0  0  0  0
 10 23  2  0  0  0  0
 11 19  1  0  0  0  0
 11 21  1  0  0  0  0
 12 13  1  0  0  0  0
 12 16  1  0  0  0  0
 13 17  2  0  0  0  0
 13 18  1  0  0  0  0
 14 15  1  0  0  0  0
 14 16  2  0  0  0  0
 17 30  1  0  0  0  0
 18 19  2  0  0  0  0
 19 23  1  0  0  0  0
 20 21  1  0  0  0  0
 20 25  1  0  0  0  0
 20 28  2  0  0  0  0
 22 24  1  0  0  0  0
 22 25  2  0  0  0  0
 22 29  1  0  0  0  0
 26 32  1  0  0  0  0
 27 33  1  0  0  0  0
 28 31  1  0  0  0  0
 29 31  2  0  0  0  0
 34 35  1  0  0  0  0
M  END
> <PUBCHEM_COMPOUND_ID_TYPE>
0

> <PUBCHEM_TOTAL_CHARGE>
0

> <PUBCHEM_SUBSTANCE_ID>
310943458

> <PUBCHEM_SUBSTANCE_VERSION>
1

> <PUBCHEM_EXT_DATASOURCE_NAME>
4488

> <PUBCHEM_EXT_DATASOURCE_REGID>
SCHEMBL16121523

> <PUBCHEM_SUBSTANCE_COMMENT>
InChI=1S/C24H24F3N5O3/c1-3-35-23-21(32-7-9-34-10-8-32)13-20(30-31-23)19-12-18(14-28-15(19)2)29-22(33)16-5-4-6-17(11-16)24(25,26)27/h4-6,11-14H,3,7-10H2,1-2H3,(H,29,33)
InChIKey=CTNPMQXPGPPUPD-UHFFFAOYSA-N

> <PUBCHEM_SUBSTANCE_SYNONYM>
SCHEMBL16121523

> <PUBCHEM_XREF_EXT_ID>
SCHEMBL16121523

> <PUBCHEM_EXT_DATASOURCE_URL>
https://www.surechembl.org/

> <PUBCHEM_EXT_SUBSTANCE_URL>
https://www.surechembl.org/chemical/SCHEMBL16121523

> <PUBCHEM_CID_ASSOCIATIONS>
117609882  1

> <PUBCHEM_COORDINATE_TYPE>
1
3

$$$$
