310941155
  -OEChem-07211613022D

 19 19  0     1  0  0  0  0  0999 V2000
    2.4954   -1.7302    0.0000 O   0  0  0  0  0  0  0  0  0  0  0  0
    1.9950   -2.5531    0.0000 O   0  0  0  0  0  0  0  0  0  0  0  0
    0.4435    2.5531    0.0000 O   0  0  0  0  0  0  0  0  0  0  0  0
    0.4605    0.0934    0.0000 N   0  0  0  0  0  0  0  0  0  0  0  0
   -0.2569    1.3062    0.0000 C   0  0  3  0  0  0  0  0  0  0  0  0
    1.9950   -2.0193    0.0000 C   0  0  0  0  0  0  0  0  0  0  0  0
   -1.0085    1.7161    0.0000 C   0  0  0  0  0  0  0  0  0  0  0  0
    0.4435    1.6990    0.0000 C   0  0  0  0  0  0  0  0  0  0  0  0
   -1.7259    1.3062    0.0000 C   0  0  0  0  0  0  0  0  0  0  0  0
    2.5065   -1.1743    0.0000 C   0  0  0  0  0  0  0  0  0  0  0  0
   -1.7430    0.4521    0.0000 C   0  0  0  0  0  0  0  0  0  0  0  0
   -2.5287    1.5453    0.0000 C   0  0  0  0  0  0  0  0  0  0  0  0
    1.1779    1.3232    0.0000 C   0  0  0  0  0  0  0  0  0  0  0  0
   -2.5115    0.1959    0.0000 C   0  0  0  0  0  0  0  0  0  0  0  0
   -3.0069    0.8449    0.0000 C   0  0  0  0  0  0  0  0  0  0  0  0
    3.0069   -1.1520    0.0000 C   0  0  0  0  0  0  0  0  0  0  0  0
    1.9950   -1.1743    0.0000 C   0  0  0  0  0  0  0  0  0  0  0  0
    2.4954   -0.6293    0.0000 C   0  0  0  0  0  0  0  0  0  0  0  0
    1.9294    1.6990    0.0000 C   0  0  0  0  0  0  0  0  0  0  0  0
  1  6  1  0  0  0  0
  1 10  1  0  0  0  0
  2  6  2  0  0  0  0
  3  8  2  0  0  0  0
  5  4  1  1  0  0  0
  4  6  1  0  0  0  0
  5  7  1  0  0  0  0
  5  8  1  0  0  0  0
  7  9  1  0  0  0  0
  8 13  1  0  0  0  0
  9 11  2  0  0  0  0
  9 12  1  0  0  0  0
 10 16  1  0  0  0  0
 10 17  1  0  0  0  0
 10 18  1  0  0  0  0
 11 14  1  0  0  0  0
 12 15  1  0  0  0  0
 13 19  1  0  0  0  0
 14 15  1  0  0  0  0
M  END
> <PUBCHEM_COMPOUND_ID_TYPE>
0

> <PUBCHEM_TOTAL_CHARGE>
0

> <PUBCHEM_SUBSTANCE_ID>
310941155

> <PUBCHEM_SUBSTANCE_VERSION>
1

> <PUBCHEM_EXT_DATASOURCE_NAME>
4488

> <PUBCHEM_EXT_DATASOURCE_REGID>
SCHEMBL16119115

> <PUBCHEM_SUBSTANCE_COMMENT>
InChI=1S/C15H25NO3/c1-5-13(17)12(10-11-8-6-7-9-11)16-14(18)19-15(2,3)4/h8,12H,5-7,9-10H2,1-4H3,(H,16,18)/t12-/m0/s1
InChIKey=ZMVOGOPKFQOEFN-LBPRGKRZSA-N

> <PUBCHEM_SUBSTANCE_SYNONYM>
SCHEMBL16119115

> <PUBCHEM_XREF_EXT_ID>
SCHEMBL16119115

> <PUBCHEM_EXT_DATASOURCE_URL>
https://www.surechembl.org/

> <PUBCHEM_EXT_SUBSTANCE_URL>
https://www.surechembl.org/chemical/SCHEMBL16119115

> <PUBCHEM_CID_ASSOCIATIONS>
117608035  1

> <PUBCHEM_COORDINATE_TYPE>
1
3

> <PUBCHEM_BONDANNOTATIONS>
5  4  5

$$$$
