310932924
  -OEChem-07211613022D

 29 32  0     1  0  0  0  0  0999 V2000
    4.0381   -2.1084    0.0000 O   0  0  0  0  0  0  0  0  0  0  0  0
    8.5764   -2.2156    0.0000 O   0  0  0  0  0  0  0  0  0  0  0  0
   10.7206   -4.0738    0.0000 O   0  0  0  0  0  0  0  0  0  0  0  0
    4.9314   -0.9649    0.0000 N   0  0  0  0  0  0  0  0  0  0  0  0
    4.8600   -0.1429    0.0000 N   0  0  0  0  0  0  0  0  0  0  0  0
    6.3966   -0.9649    0.0000 N   0  0  0  0  0  0  0  0  0  0  0  0
    7.8617   -3.4663    0.0000 N   0  0  0  0  0  0  0  0  0  0  0  0
    0.0000   -1.8225    0.0000 N   0  0  0  0  0  0  0  0  0  0  0  0
    4.1810   -1.3222    0.0000 C   0  0  0  0  0  0  0  0  0  0  0  0
    3.6092   -0.7147    0.0000 C   0  0  0  0  0  0  0  0  0  0  0  0
    5.6819   -1.3937    0.0000 C   0  0  0  0  0  0  0  0  0  0  0  0
    2.7873   -0.7862    0.0000 C   0  0  0  0  0  0  0  0  0  0  0  0
    4.0381    0.0000    0.0000 C   0  0  0  0  0  0  0  0  0  0  0  0
    7.1113   -2.2156    0.0000 C   0  0  0  0  0  0  0  0  0  0  0  0
    5.6819   -2.2156    0.0000 C   0  0  0  0  0  0  0  0  0  0  0  0
    7.1113   -1.3937    0.0000 C   0  0  0  0  0  0  0  0  0  0  0  0
    6.3966   -2.6087    0.0000 C   0  0  0  0  0  0  0  0  0  0  0  0
    2.4657   -1.5723    0.0000 C   0  0  0  0  0  0  0  0  0  0  0  0
    2.2871   -0.1429    0.0000 C   0  0  0  0  0  0  0  0  0  0  0  0
    7.8617   -2.6087    0.0000 C   0  0  0  0  0  0  0  0  0  0  0  0
    1.1435   -1.0006    0.0000 C   0  0  0  0  0  0  0  0  0  0  0  0
    1.6438   -1.6438    0.0000 C   0  0  0  0  0  0  0  0  0  0  0  0
    1.4651   -0.2144    0.0000 C   0  0  0  0  0  0  0  0  0  0  0  0
    8.5764   -3.8594    0.0000 C   0  0  3  0  0  0  0  0  0  0  0  0
    9.3268   -3.5378    0.0000 C   0  0  0  0  0  0  0  0  0  0  0  0
    8.6479   -4.6813    0.0000 C   0  0  0  0  0  0  0  0  0  0  0  0
    9.8629   -4.1453    0.0000 C   0  0  3  0  0  0  0  0  0  0  0  0
    9.4698   -4.8600    0.0000 C   0  0  0  0  0  0  0  0  0  0  0  0
    0.3216   -1.0721    0.0000 C   0  0  0  0  0  0  0  0  0  0  0  0
  1  9  1  0  0  0  0
  2 20  2  0  0  0  0
 27  3  1  1  0  0  0
  4  5  1  0  0  0  0
  4  9  1  0  0  0  0
  4 11  1  0  0  0  0
  5 13  2  0  0  0  0
  6 11  2  0  0  0  0
  6 16  1  0  0  0  0
  7 20  1  0  0  0  0
 24  7  1  6  0  0  0
  8 29  3  0  0  0  0
  9 10  2  0  0  0  0
 10 12  1  0  0  0  0
 10 13  1  0  0  0  0
 11 15  1  0  0  0  0
 12 18  2  0  0  0  0
 12 19  1  0  0  0  0
 14 16  2  0  0  0  0
 14 17  1  0  0  0  0
 14 20  1  0  0  0  0
 15 17  2  0  0  0  0
 18 22  1  0  0  0  0
 19 23  2  0  0  0  0
 21 22  2  0  0  0  0
 21 23  1  0  0  0  0
 21 29  1  0  0  0  0
 24 25  1  0  0  0  0
 24 26  1  0  0  0  0
 25 27  1  0  0  0  0
 26 28  1  0  0  0  0
 27 28  1  0  0  0  0
M  END
> <PUBCHEM_COMPOUND_ID_TYPE>
0

> <PUBCHEM_TOTAL_CHARGE>
0

> <PUBCHEM_SUBSTANCE_ID>
310932924

> <PUBCHEM_SUBSTANCE_VERSION>
1

> <PUBCHEM_EXT_DATASOURCE_NAME>
4488

> <PUBCHEM_EXT_DATASOURCE_REGID>
SCHEMBL16110318

> <PUBCHEM_SUBSTANCE_COMMENT>
InChI=1S/C21H19N5O3/c22-10-13-1-3-14(4-2-13)18-12-24-26(21(18)29)19-8-5-15(11-23-19)20(28)25-16-6-7-17(27)9-16/h1-5,8,11-12,16-17,27,29H,6-7,9H2,(H,25,28)/t16-,17-/m0/s1
InChIKey=XMHSRVMRNRFPFY-IRXDYDNUSA-N

> <PUBCHEM_SUBSTANCE_SYNONYM>
SCHEMBL16110318

> <PUBCHEM_XREF_EXT_ID>
SCHEMBL16110318

> <PUBCHEM_EXT_DATASOURCE_URL>
https://www.surechembl.org/

> <PUBCHEM_EXT_SUBSTANCE_URL>
https://www.surechembl.org/chemical/SCHEMBL16110318

> <PUBCHEM_CID_ASSOCIATIONS>
117601406  1

> <PUBCHEM_COORDINATE_TYPE>
1
3

> <PUBCHEM_BONDANNOTATIONS>
27  3  5
24  7  6

$$$$
