310937490
  -OEChem-07211613022D

 35 39  0     0  0  0  0  0  0999 V2000
   -0.3194    1.8936    0.0000 Cl  0  0  0  0  0  0  0  0  0  0  0  0
    5.6264    1.6966    0.0000 O   0  0  0  0  0  0  0  0  0  0  0  0
    9.1935   -1.1974    0.0000 O   0  0  0  0  0  0  0  0  0  0  0  0
    0.7846    0.6674    0.0000 N   0  0  0  0  0  0  0  0  0  0  0  0
    1.8465    1.6236    0.0000 N   0  0  0  0  0  0  0  0  0  0  0  0
    0.7846   -0.6674    0.0000 N   0  0  0  0  0  0  0  0  0  0  0  0
    1.5495    3.0213    0.0000 N   0  0  0  0  0  0  0  0  0  0  0  0
    2.9084    2.5797    0.0000 N   0  0  0  0  0  0  0  0  0  0  0  0
    7.5374    0.6420    0.0000 N   0  0  0  0  0  0  0  0  0  0  0  0
    0.0000    0.4125    0.0000 C   0  0  0  0  0  0  0  0  0  0  0  0
    1.0396    1.4520    0.0000 C   0  0  0  0  0  0  0  0  0  0  0  0
    0.0000   -0.4125    0.0000 C   0  0  0  0  0  0  0  0  0  0  0  0
    0.4875    2.0651    0.0000 C   0  0  0  0  0  0  0  0  0  0  0  0
    1.2695    0.0000    0.0000 C   0  0  0  0  0  0  0  0  0  0  0  0
    2.1014    2.4082    0.0000 C   0  0  0  0  0  0  0  0  0  0  0  0
   -0.7144    0.8250    0.0000 C   0  0  0  0  0  0  0  0  0  0  0  0
   -0.7144   -0.8250    0.0000 C   0  0  0  0  0  0  0  0  0  0  0  0
    0.7424    2.8498    0.0000 C   0  0  0  0  0  0  0  0  0  0  0  0
    3.4604    1.9666    0.0000 C   0  0  0  0  0  0  0  0  0  0  0  0
   -1.4289    0.4125    0.0000 C   0  0  0  0  0  0  0  0  0  0  0  0
   -1.4289   -0.4125    0.0000 C   0  0  0  0  0  0  0  0  0  0  0  0
    4.2674    2.1381    0.0000 C   0  0  0  0  0  0  0  0  0  0  0  0
    4.8194    1.5251    0.0000 C   0  0  0  0  0  0  0  0  0  0  0  0
    3.2055    1.1820    0.0000 C   0  0  0  0  0  0  0  0  0  0  0  0
    3.7576    0.5690    0.0000 C   0  0  0  0  0  0  0  0  0  0  0  0
    4.5645    0.7404    0.0000 C   0  0  0  0  0  0  0  0  0  0  0  0
    3.5026   -0.2157    0.0000 C   0  0  0  0  0  0  0  0  0  0  0  0
    6.1784    1.0835    0.0000 C   0  0  0  0  0  0  0  0  0  0  0  0
    6.9854    1.2551    0.0000 C   0  0  0  0  0  0  0  0  0  0  0  0
    8.3444    0.8134    0.0000 C   0  0  0  0  0  0  0  0  0  0  0  0
    7.2825   -0.1427    0.0000 C   0  0  0  0  0  0  0  0  0  0  0  0
    8.6415   -0.5843    0.0000 C   0  0  0  0  0  0  0  0  0  0  0  0
    8.8964    0.2004    0.0000 C   0  0  0  0  0  0  0  0  0  0  0  0
    7.8346   -0.7558    0.0000 C   0  0  0  0  0  0  0  0  0  0  0  0
    2.6957   -0.3872    0.0000 C   0  0  0  0  0  0  0  0  0  0  0  0
  1 13  1  0  0  0  0
  2 23  1  0  0  0  0
  2 28  1  0  0  0  0
  3 32  1  0  0  0  0
  4 10  1  0  0  0  0
  4 11  1  0  0  0  0
  4 14  1  0  0  0  0
  5 11  2  0  0  0  0
  5 15  1  0  0  0  0
  6 12  1  0  0  0  0
  6 14  2  0  0  0  0
  7 15  2  0  0  0  0
  7 18  1  0  0  0  0
  8 15  1  0  0  0  0
  8 19  1  0  0  0  0
  9 29  1  0  0  0  0
  9 30  1  0  0  0  0
  9 31  1  0  0  0  0
 10 12  1  0  0  0  0
 10 16  2  0  0  0  0
 11 13  1  0  0  0  0
 12 17  2  0  0  0  0
 13 18  2  0  0  0  0
 16 20  1  0  0  0  0
 17 21  1  0  0  0  0
 19 22  2  0  0  0  0
 19 24  1  0  0  0  0
 20 21  2  0  0  0  0
 22 23  1  0  0  0  0
 23 26  2  0  0  0  0
 24 25  2  0  0  0  0
 25 26  1  0  0  0  0
 25 27  1  0  0  0  0
 27 35  1  0  0  0  0
 28 29  1  0  0  0  0
 30 33  1  0  0  0  0
 31 34  1  0  0  0  0
 32 33  1  0  0  0  0
 32 34  1  0  0  0  0
M  END
> <PUBCHEM_COMPOUND_ID_TYPE>
0

> <PUBCHEM_TOTAL_CHARGE>
0

> <PUBCHEM_SUBSTANCE_ID>
310937490

> <PUBCHEM_SUBSTANCE_VERSION>
1

> <PUBCHEM_EXT_DATASOURCE_NAME>
4488

> <PUBCHEM_EXT_DATASOURCE_REGID>
SCHEMBL16115260

> <PUBCHEM_SUBSTANCE_COMMENT>
InChI=1S/C26H29ClN6O2/c1-2-18-13-19(15-21(14-18)35-12-11-32-9-7-20(34)8-10-32)30-26-28-16-22(27)25(31-26)33-17-29-23-5-3-4-6-24(23)33/h3-6,13-17,20,34H,2,7-12H2,1H3,(H,28,30,31)
InChIKey=YLDNFZYBKHNTCK-UHFFFAOYSA-N

> <PUBCHEM_SUBSTANCE_SYNONYM>
SCHEMBL16115260

> <PUBCHEM_XREF_EXT_ID>
SCHEMBL16115260

> <PUBCHEM_EXT_DATASOURCE_URL>
https://www.surechembl.org/

> <PUBCHEM_EXT_SUBSTANCE_URL>
https://www.surechembl.org/chemical/SCHEMBL16115260

> <PUBCHEM_CID_ASSOCIATIONS>
86300239  1

> <PUBCHEM_COORDINATE_TYPE>
1
3

$$$$
