310947839
  -OEChem-07211613022D

 12 11  0     0  0  0  0  0  0999 V2000
    0.3107   -1.2102    0.0000 N   0  0  0  0  0  0  0  0  0  0  0  0
   -3.2054   -1.2102    0.0000 N   0  0  0  0  0  0  0  0  0  0  0  0
    1.7498   -0.5070    0.0000 C   0  0  0  0  0  0  0  0  0  0  0  0
    2.4858   -0.5561    0.0000 C   0  0  0  0  0  0  0  0  0  0  0  0
    2.0769   -0.3271    0.0000 C   0  0  0  0  0  0  0  0  0  0  0  0
   -1.4555   -0.3434    0.0000 C   0  0  0  0  0  0  0  0  0  0  0  0
    1.9133   -1.3574    0.0000 C   0  0  0  0  0  0  0  0  0  0  0  0
    1.9624    0.1308    0.0000 C   0  0  0  0  0  0  0  0  0  0  0  0
    2.2895   -1.3574    0.0000 C   0  0  0  0  0  0  0  0  0  0  0  0
    2.3222    0.1144    0.0000 C   0  0  0  0  0  0  0  0  0  0  0  0
    3.2054   -0.9976    0.0000 C   0  0  0  0  0  0  0  0  0  0  0  0
   -1.4555    1.3574    0.0000 C   0  0  0  0  0  0  0  0  0  0  0  0
  1  3  1  0  0  0  0
  1  6  1  0  0  0  0
  2  6  1  0  0  0  0
  3  5  1  0  0  0  0
  3  7  1  0  0  0  0
  3  8  1  0  0  0  0
  4  5  1  0  0  0  0
  4  9  1  0  0  0  0
  4 10  1  0  0  0  0
  4 11  1  0  0  0  0
  6 12  2  0  0  0  0
M  END
> <PUBCHEM_COMPOUND_ID_TYPE>
0

> <PUBCHEM_TOTAL_CHARGE>
0

> <PUBCHEM_SUBSTANCE_ID>
310947839

> <PUBCHEM_SUBSTANCE_VERSION>
1

> <PUBCHEM_EXT_DATASOURCE_NAME>
4488

> <PUBCHEM_EXT_DATASOURCE_REGID>
SCHEMBL16126013

> <PUBCHEM_SUBSTANCE_COMMENT>
InChI=1S/C10H22N2/c1-8(11)12-10(5,6)7-9(2,3)4/h12H,1,7,11H2,2-6H3
InChIKey=IEOFDACAVVWWCZ-UHFFFAOYSA-N

> <PUBCHEM_SUBSTANCE_SYNONYM>
SCHEMBL16126013

> <PUBCHEM_XREF_EXT_ID>
SCHEMBL16126013

> <PUBCHEM_EXT_DATASOURCE_URL>
https://www.surechembl.org/

> <PUBCHEM_EXT_SUBSTANCE_URL>
https://www.surechembl.org/chemical/SCHEMBL16126013

> <PUBCHEM_CID_ASSOCIATIONS>
117613504  1

> <PUBCHEM_COORDINATE_TYPE>
1
3

$$$$
