310940051
  -OEChem-07211613022D

 13 14  0     0  0  0  0  0  0999 V2000
   -3.9616    9.1917    0.0000 Cl  0  0  0  0  0  0  0  0  0  0  0  0
   -1.1036    9.1917    0.0000 O   0  0  0  0  0  0  0  0  0  0  0  0
   -1.1036   10.8417    0.0000 N   0  0  0  0  0  0  0  0  0  0  0  0
   -3.2471   10.4292    0.0000 C   0  0  0  0  0  0  0  0  0  0  0  0
   -3.9616   10.8417    0.0000 C   0  0  0  0  0  0  0  0  0  0  0  0
   -3.2471    9.6041    0.0000 C   0  0  0  0  0  0  0  0  0  0  0  0
   -1.8181    9.6041    0.0000 C   0  0  0  0  0  0  0  0  0  0  0  0
   -1.8181   10.4292    0.0000 C   0  0  0  0  0  0  0  0  0  0  0  0
   -2.5327   10.8417    0.0000 C   0  0  0  0  0  0  0  0  0  0  0  0
   -2.5327    9.1917    0.0000 C   0  0  0  0  0  0  0  0  0  0  0  0
   -4.3741   11.5561    0.0000 C   0  0  0  0  0  0  0  0  0  0  0  0
   -4.7865   10.8417    0.0000 C   0  0  0  0  0  0  0  0  0  0  0  0
   -0.3892    9.6041    0.0000 C   0  0  0  0  0  0  0  0  0  0  0  0
  1  6  1  0  0  0  0
  2  7  1  0  0  0  0
  2 13  1  0  0  0  0
  3  8  1  0  0  0  0
  4  5  1  0  0  0  0
  4  6  2  0  0  0  0
  4  9  1  0  0  0  0
  5 11  1  0  0  0  0
  5 12  1  0  0  0  0
  6 10  1  0  0  0  0
  7  8  1  0  0  0  0
  7 10  2  0  0  0  0
  8  9  2  0  0  0  0
 11 12  1  0  0  0  0
M  END
> <PUBCHEM_COMPOUND_ID_TYPE>
0

> <PUBCHEM_TOTAL_CHARGE>
0

> <PUBCHEM_SUBSTANCE_ID>
310940051

> <PUBCHEM_SUBSTANCE_VERSION>
1

> <PUBCHEM_EXT_DATASOURCE_NAME>
4488

> <PUBCHEM_EXT_DATASOURCE_REGID>
SCHEMBL16117981

> <PUBCHEM_SUBSTANCE_COMMENT>
InChI=1S/C10H12ClNO/c1-13-10-5-8(11)7(4-9(10)12)6-2-3-6/h4-6H,2-3,12H2,1H3
InChIKey=CEFCMWQEJFMZMX-UHFFFAOYSA-N

> <PUBCHEM_SUBSTANCE_SYNONYM>
SCHEMBL16117981

> <PUBCHEM_XREF_EXT_ID>
SCHEMBL16117981

> <PUBCHEM_EXT_DATASOURCE_URL>
https://www.surechembl.org/

> <PUBCHEM_EXT_SUBSTANCE_URL>
https://www.surechembl.org/chemical/SCHEMBL16117981

> <PUBCHEM_CID_ASSOCIATIONS>
117607201  1

> <PUBCHEM_COORDINATE_TYPE>
1
3

$$$$
