310936932
  -OEChem-07211613022D

 23 26  0     0  0  0  0  0  0999 V2000
    5.3584   -3.8471    0.0000 O   0  0  0  0  0  0  0  0  0  0  0  0
    1.8319   -1.6487    0.0000 O   0  0  0  0  0  0  0  0  0  0  0  0
    6.1599   -3.4578    0.0000 O   0  0  0  0  0  0  0  0  0  0  0  0
    4.6944   -2.7021    0.0000 N   0  0  0  0  0  0  0  0  0  0  0  0
    2.8624   -3.8699    0.0000 N   0  0  0  0  0  0  0  0  0  0  0  0
    4.5569   -4.0302    0.0000 N   0  0  0  0  0  0  0  0  0  0  0  0
    3.3204   -3.2288    0.0000 C   0  0  0  0  0  0  0  0  0  0  0  0
    4.1448   -3.3204    0.0000 C   0  0  0  0  0  0  0  0  0  0  0  0
    1.6946   -3.0456    0.0000 C   0  0  0  0  0  0  0  0  0  0  0  0
    2.1754   -2.4044    0.0000 C   0  0  0  0  0  0  0  0  0  0  0  0
    5.4500   -3.0456    0.0000 C   0  0  0  0  0  0  0  0  0  0  0  0
    0.8702   -2.9540    0.0000 C   0  0  0  0  0  0  0  0  0  0  0  0
    2.9998   -2.4502    0.0000 C   0  0  0  0  0  0  0  0  0  0  0  0
    6.1599   -2.6334    0.0000 C   0  0  0  0  0  0  0  0  0  0  0  0
    2.0151   -3.8013    0.0000 C   0  0  0  0  0  0  0  0  0  0  0  0
    0.1374   -3.2746    0.0000 C   0  0  0  0  0  0  0  0  0  0  0  0
    0.2061   -2.4502    0.0000 C   0  0  0  0  0  0  0  0  0  0  0  0
    1.0075   -1.5800    0.0000 C   0  0  0  0  0  0  0  0  0  0  0  0
    0.6641   -0.8244    0.0000 C   0  0  0  0  0  0  0  0  0  0  0  0
    5.4500   -2.2212    0.0000 C   0  0  0  0  0  0  0  0  0  0  0  0
    6.8697   -2.2212    0.0000 C   0  0  0  0  0  0  0  0  0  0  0  0
    0.0000   -0.3435    0.0000 C   0  0  0  0  0  0  0  0  0  0  0  0
    0.7328    0.0000    0.0000 C   0  0  0  0  0  0  0  0  0  0  0  0
  1  6  1  0  0  0  0
  1 11  1  0  0  0  0
  2 10  1  0  0  0  0
  2 18  1  0  0  0  0
  3 14  1  0  0  0  0
  4  8  1  0  0  0  0
  4 11  2  0  0  0  0
  5  7  1  0  0  0  0
  5 15  2  0  0  0  0
  6  8  2  0  0  0  0
  7  8  1  0  0  0  0
  7 13  2  0  0  0  0
  9 10  2  0  0  0  0
  9 12  1  0  0  0  0
  9 15  1  0  0  0  0
 10 13  1  0  0  0  0
 11 14  1  0  0  0  0
 12 16  1  0  0  0  0
 12 17  1  0  0  0  0
 14 20  1  0  0  0  0
 14 21  1  0  0  0  0
 16 17  1  0  0  0  0
 18 19  1  0  0  0  0
 19 22  1  0  0  0  0
 19 23  1  0  0  0  0
 22 23  1  0  0  0  0
M  END
> <PUBCHEM_COMPOUND_ID_TYPE>
0

> <PUBCHEM_TOTAL_CHARGE>
0

> <PUBCHEM_SUBSTANCE_ID>
310936932

> <PUBCHEM_SUBSTANCE_VERSION>
1

> <PUBCHEM_EXT_DATASOURCE_NAME>
4488

> <PUBCHEM_EXT_DATASOURCE_REGID>
SCHEMBL16114633

> <PUBCHEM_SUBSTANCE_COMMENT>
InChI=1S/C17H21N3O3/c1-17(2,21)16-19-15(20-23-16)13-7-14(22-9-10-3-4-10)12(8-18-13)11-5-6-11/h7-8,10-11,21H,3-6,9H2,1-2H3
InChIKey=VPMWTKZJXOPHMS-UHFFFAOYSA-N

> <PUBCHEM_SUBSTANCE_SYNONYM>
SCHEMBL16114633

> <PUBCHEM_XREF_EXT_ID>
SCHEMBL16114633

> <PUBCHEM_EXT_DATASOURCE_URL>
https://www.surechembl.org/

> <PUBCHEM_EXT_SUBSTANCE_URL>
https://www.surechembl.org/chemical/SCHEMBL16114633

> <PUBCHEM_CID_ASSOCIATIONS>
86275911  1

> <PUBCHEM_COORDINATE_TYPE>
1
3

$$$$
