310944405
  -OEChem-07211613022D

 12 12  0     0  0  0  0  0  0999 V2000
    0.0107    1.6125    0.0000 F   0  0  0  0  0  0  0  0  0  0  0  0
    2.1429    1.1947    0.0000 N   0  0  0  0  0  0  0  0  0  0  0  0
   -2.1429    1.1625    0.0000 N   0  0  0  0  0  0  0  0  0  0  0  0
   -0.0107    0.8303    0.0000 C   0  0  0  0  0  0  0  0  0  0  0  0
    0.7286    0.4232    0.0000 C   0  0  0  0  0  0  0  0  0  0  0  0
   -0.7286    0.4125    0.0000 C   0  0  0  0  0  0  0  0  0  0  0  0
    0.0107   -0.7875    0.0000 C   0  0  0  0  0  0  0  0  0  0  0  0
    0.7179   -0.4018    0.0000 C   0  0  0  0  0  0  0  0  0  0  0  0
   -0.7179   -0.3803    0.0000 C   0  0  0  0  0  0  0  0  0  0  0  0
    1.4358    0.8197    0.0000 C   0  0  0  0  0  0  0  0  0  0  0  0
   -1.4464    0.7982    0.0000 C   0  0  0  0  0  0  0  0  0  0  0  0
    0.0107   -1.6125    0.0000 C   0  0  0  0  0  0  0  0  0  0  0  0
  1  4  1  0  0  0  0
  2 10  3  0  0  0  0
  3 11  3  0  0  0  0
  4  5  2  0  0  0  0
  4  6  1  0  0  0  0
  5  8  1  0  0  0  0
  5 10  1  0  0  0  0
  6  9  2  0  0  0  0
  6 11  1  0  0  0  0
  7  8  2  0  0  0  0
  7  9  1  0  0  0  0
  7 12  1  0  0  0  0
M  END
> <PUBCHEM_COMPOUND_ID_TYPE>
0

> <PUBCHEM_TOTAL_CHARGE>
0

> <PUBCHEM_SUBSTANCE_ID>
310944405

> <PUBCHEM_SUBSTANCE_VERSION>
1

> <PUBCHEM_EXT_DATASOURCE_NAME>
4488

> <PUBCHEM_EXT_DATASOURCE_REGID>
SCHEMBL16122480

> <PUBCHEM_SUBSTANCE_COMMENT>
InChI=1S/C9H5FN2/c1-6-2-7(4-11)9(10)8(3-6)5-12/h2-3H,1H3
InChIKey=LJOXBZJVTJRCEB-UHFFFAOYSA-N

> <PUBCHEM_SUBSTANCE_SYNONYM>
SCHEMBL16122480

> <PUBCHEM_XREF_EXT_ID>
SCHEMBL16122480

> <PUBCHEM_EXT_DATASOURCE_URL>
https://www.surechembl.org/

> <PUBCHEM_EXT_SUBSTANCE_URL>
https://www.surechembl.org/chemical/SCHEMBL16122480

> <PUBCHEM_CID_ASSOCIATIONS>
117610662  1

> <PUBCHEM_COORDINATE_TYPE>
1
3

$$$$
