310938358
  -OEChem-07211613022D

 17 19  0     1  0  0  0  0  0999 V2000
    2.4622   -4.1973    0.0000 Br  0  0  0  0  0  0  0  0  0  0  0  0
    0.4999   -0.1173    0.0000 N   0  0  0  0  0  0  0  0  0  0  0  0
    0.6562   -2.9715    0.0000 N   0  0  0  0  0  0  0  0  0  0  0  0
    3.7658   -1.5556    0.0000 N   0  0  0  0  0  0  0  0  0  0  0  0
    2.1275   -1.3591    0.0000 C   0  0  0  0  0  0  0  0  0  0  0  0
    1.8015   -2.1170    0.0000 C   0  0  0  0  0  0  0  0  0  0  0  0
    1.6113   -0.9304    0.0000 C   0  0  0  0  0  0  0  0  0  0  0  0
    1.9893   -0.5417    0.0000 C   0  0  0  0  0  0  0  0  0  0  0  0
    0.6396   -0.9304    0.0000 C   0  0  3  0  0  0  0  0  0  0  0  0
    1.0605   -0.5572    0.0000 C   0  0  3  0  0  0  0  0  0  0  0  0
    2.9466   -1.4573    0.0000 C   0  0  0  0  0  0  0  0  0  0  0  0
    2.2949   -2.7782    0.0000 C   0  0  0  0  0  0  0  0  0  0  0  0
    0.9822   -2.2136    0.0000 C   0  0  0  0  0  0  0  0  0  0  0  0
    0.1197   -1.6427    0.0000 C   0  0  0  0  0  0  0  0  0  0  0  0
    0.7400   -1.2658    0.0000 C   0  0  0  0  0  0  0  0  0  0  0  0
    1.9689   -3.5361    0.0000 C   0  0  0  0  0  0  0  0  0  0  0  0
    1.1496   -3.6327    0.0000 C   0  0  0  0  0  0  0  0  0  0  0  0
  1 16  1  0  0  0  0
  9  2  1  1  0  0  0
  2 10  1  0  0  0  0
  3 13  2  0  0  0  0
  3 17  1  0  0  0  0
  4 11  3  0  0  0  0
  5  6  1  0  0  0  0
  5  7  1  0  0  0  0
  5  8  1  0  0  0  0
  5 11  1  0  0  0  0
  6 12  2  0  0  0  0
  6 13  1  0  0  0  0
  7  9  1  0  0  0  0
 10  8  1  6  0  0  0
  9 14  1  0  0  0  0
 10 15  1  0  0  0  0
 12 16  1  0  0  0  0
 14 15  2  0  0  0  0
 16 17  2  0  0  0  0
M  END
> <PUBCHEM_COMPOUND_ID_TYPE>
0

> <PUBCHEM_TOTAL_CHARGE>
0

> <PUBCHEM_SUBSTANCE_ID>
310938358

> <PUBCHEM_SUBSTANCE_VERSION>
1

> <PUBCHEM_EXT_DATASOURCE_NAME>
4488

> <PUBCHEM_EXT_DATASOURCE_REGID>
SCHEMBL16116243

> <PUBCHEM_SUBSTANCE_COMMENT>
InChI=1S/C13H12BrN3/c14-10-3-9(6-16-7-10)13(8-15)4-11-1-2-12(5-13)17-11/h1-3,6-7,11-12,17H,4-5H2/t11-,12+,13?
InChIKey=ZRFANFOVKRQZME-FUNVUKJBSA-N

> <PUBCHEM_SUBSTANCE_SYNONYM>
SCHEMBL16116243

> <PUBCHEM_XREF_EXT_ID>
SCHEMBL16116243

> <PUBCHEM_EXT_DATASOURCE_URL>
https://www.surechembl.org/

> <PUBCHEM_EXT_SUBSTANCE_URL>
https://www.surechembl.org/chemical/SCHEMBL16116243

> <PUBCHEM_CID_ASSOCIATIONS>
117605841  1

> <PUBCHEM_COORDINATE_TYPE>
1
3

> <PUBCHEM_BONDANNOTATIONS>
9  2  5
10  8  6

$$$$
