310941877
  -OEChem-07211613022D

 10 11  0     0  0  0  0  0  0999 V2000
   -1.5906    0.0413    0.0000 F   0  0  0  0  0  0  0  0  0  0  0  0
   -1.2050    0.9777    0.0000 F   0  0  0  0  0  0  0  0  0  0  0  0
    0.8056   -0.1790    0.0000 C   0  0  0  0  0  0  0  0  0  0  0  0
   -0.7918    0.2754    0.0000 C   0  0  0  0  0  0  0  0  0  0  0  0
    1.0397   -0.9777    0.0000 C   0  0  0  0  0  0  0  0  0  0  0  0
    1.5906   -0.3856    0.0000 C   0  0  0  0  0  0  0  0  0  0  0  0
    0.2272   -0.7299    0.0000 C   0  0  0  0  0  0  0  0  0  0  0  0
    0.5853    0.6335    0.0000 C   0  0  0  0  0  0  0  0  0  0  0  0
   -0.5715   -0.5233    0.0000 C   0  0  0  0  0  0  0  0  0  0  0  0
   -0.1997    0.8538    0.0000 C   0  0  0  0  0  0  0  0  0  0  0  0
  1  4  1  0  0  0  0
  2  4  1  0  0  0  0
  3  5  1  0  0  0  0
  3  6  1  0  0  0  0
  3  7  1  0  0  0  0
  3  8  1  0  0  0  0
  4  9  1  0  0  0  0
  4 10  1  0  0  0  0
  5  6  1  0  0  0  0
  7  9  1  0  0  0  0
  8 10  1  0  0  0  0
M  END
> <PUBCHEM_COMPOUND_ID_TYPE>
0

> <PUBCHEM_TOTAL_CHARGE>
0

> <PUBCHEM_SUBSTANCE_ID>
310941877

> <PUBCHEM_SUBSTANCE_VERSION>
1

> <PUBCHEM_EXT_DATASOURCE_NAME>
4488

> <PUBCHEM_EXT_DATASOURCE_REGID>
SCHEMBL16119909

> <PUBCHEM_SUBSTANCE_COMMENT>
InChI=1S/C8H12F2/c9-8(10)5-3-7(1-2-7)4-6-8/h1-6H2
InChIKey=VDFJJJRLTOIYJK-UHFFFAOYSA-N

> <PUBCHEM_SUBSTANCE_SYNONYM>
SCHEMBL16119909

> <PUBCHEM_XREF_EXT_ID>
SCHEMBL16119909

> <PUBCHEM_EXT_DATASOURCE_URL>
https://www.surechembl.org/

> <PUBCHEM_EXT_SUBSTANCE_URL>
https://www.surechembl.org/chemical/SCHEMBL16119909

> <PUBCHEM_CID_ASSOCIATIONS>
58561650  1

> <PUBCHEM_COORDINATE_TYPE>
1
3

> <PUBCHEM_BONDANNOTATIONS>
5  6  3

$$$$
