310943450
  -OEChem-07211613022D

 35 38  0     0  0  0  0  0  0999 V2000
    3.8839    0.3163    0.0000 F   0  0  0  0  0  0  0  0  0  0  0  0
    4.7077    0.3163    0.0000 F   0  0  0  0  0  0  0  0  0  0  0  0
   -3.5749   -0.8312    0.0000 O   0  0  0  0  0  0  0  0  0  0  0  0
   -5.0166    1.6551    0.0000 O   0  0  0  0  0  0  0  0  0  0  0  0
    0.7209   -0.8312    0.0000 O   0  0  0  0  0  0  0  0  0  0  0  0
   -2.1479    0.8459    0.0000 N   0  0  0  0  0  0  0  0  0  0  0  0
   -3.5896    0.8459    0.0000 N   0  0  0  0  0  0  0  0  0  0  0  0
   -2.1479   -0.8165    0.0000 N   0  0  0  0  0  0  0  0  0  0  0  0
    0.0000    2.0817    0.0000 N   0  0  0  0  0  0  0  0  0  0  0  0
    1.4270    0.4193    0.0000 N   0  0  0  0  0  0  0  0  0  0  0  0
    3.5749   -1.6551    0.0000 N   0  0  0  0  0  0  0  0  0  0  0  0
   -1.4270    0.4193    0.0000 C   0  0  0  0  0  0  0  0  0  0  0  0
   -0.7356    0.8459    0.0000 C   0  0  0  0  0  0  0  0  0  0  0  0
   -2.8540    0.4193    0.0000 C   0  0  0  0  0  0  0  0  0  0  0  0
   -2.8687   -0.4046    0.0000 C   0  0  0  0  0  0  0  0  0  0  0  0
   -0.7061    1.6698    0.0000 C   0  0  0  0  0  0  0  0  0  0  0  0
    0.0147    0.4340    0.0000 C   0  0  0  0  0  0  0  0  0  0  0  0
    0.7061    0.8459    0.0000 C   0  0  0  0  0  0  0  0  0  0  0  0
   -1.4417   -0.4046    0.0000 C   0  0  0  0  0  0  0  0  0  0  0  0
    2.1479   -0.8165    0.0000 C   0  0  0  0  0  0  0  0  0  0  0  0
    1.4417   -0.3898    0.0000 C   0  0  0  0  0  0  0  0  0  0  0  0
    3.5896   -0.8165    0.0000 C   0  0  0  0  0  0  0  0  0  0  0  0
    0.7209    1.6698    0.0000 C   0  0  0  0  0  0  0  0  0  0  0  0
    4.2957   -0.3898    0.0000 C   0  0  0  0  0  0  0  0  0  0  0  0
    2.8540   -0.4046    0.0000 C   0  0  0  0  0  0  0  0  0  0  0  0
   -3.5896    1.6698    0.0000 C   0  0  0  0  0  0  0  0  0  0  0  0
   -4.2810    0.4340    0.0000 C   0  0  0  0  0  0  0  0  0  0  0  0
    2.1479   -1.6403    0.0000 C   0  0  0  0  0  0  0  0  0  0  0  0
   -1.4417    2.0669    0.0000 C   0  0  0  0  0  0  0  0  0  0  0  0
    2.8835   -2.0522    0.0000 C   0  0  0  0  0  0  0  0  0  0  0  0
   -4.3105    2.0817    0.0000 C   0  0  0  0  0  0  0  0  0  0  0  0
   -5.0166    0.8459    0.0000 C   0  0  0  0  0  0  0  0  0  0  0  0
   -3.5896   -1.6551    0.0000 C   0  0  0  0  0  0  0  0  0  0  0  0
    5.0166   -0.8312    0.0000 C   0  0  0  0  0  0  0  0  0  0  0  0
   -4.2957   -2.0817    0.0000 C   0  0  0  0  0  0  0  0  0  0  0  0
  1 24  1  0  0  0  0
  2 24  1  0  0  0  0
  3 15  1  0  0  0  0
  3 33  1  0  0  0  0
  4 31  1  0  0  0  0
  4 32  1  0  0  0  0
  5 21  2  0  0  0  0
  6 12  1  0  0  0  0
  6 14  2  0  0  0  0
  7 14  1  0  0  0  0
  7 26  1  0  0  0  0
  7 27  1  0  0  0  0
  8 15  2  0  0  0  0
  8 19  1  0  0  0  0
  9 16  1  0  0  0  0
  9 23  2  0  0  0  0
 10 18  1  0  0  0  0
 10 21  1  0  0  0  0
 11 22  1  0  0  0  0
 11 30  2  0  0  0  0
 12 13  1  0  0  0  0
 12 19  2  0  0  0  0
 13 16  2  0  0  0  0
 13 17  1  0  0  0  0
 14 15  1  0  0  0  0
 16 29  1  0  0  0  0
 17 18  2  0  0  0  0
 18 23  1  0  0  0  0
 20 21  1  0  0  0  0
 20 25  1  0  0  0  0
 20 28  2  0  0  0  0
 22 24  1  0  0  0  0
 22 25  2  0  0  0  0
 24 34  1  0  0  0  0
 26 31  1  0  0  0  0
 27 32  1  0  0  0  0
 28 30  1  0  0  0  0
 33 35  1  0  0  0  0
M  END
> <PUBCHEM_COMPOUND_ID_TYPE>
0

> <PUBCHEM_TOTAL_CHARGE>
0

> <PUBCHEM_SUBSTANCE_ID>
310943450

> <PUBCHEM_SUBSTANCE_VERSION>
1

> <PUBCHEM_EXT_DATASOURCE_NAME>
4488

> <PUBCHEM_EXT_DATASOURCE_REGID>
SCHEMBL16121514

> <PUBCHEM_SUBSTANCE_COMMENT>
InChI=1S/C24H26F2N6O3/c1-4-35-23-21(32-7-9-34-10-8-32)31-19(14-29-23)18-12-17(13-28-15(18)2)30-22(33)16-5-6-27-20(11-16)24(3,25)26/h5-6,11-14H,4,7-10H2,1-3H3,(H,30,33)
InChIKey=JJFFBOSJXCOLFE-UHFFFAOYSA-N

> <PUBCHEM_SUBSTANCE_SYNONYM>
SCHEMBL16121514

> <PUBCHEM_XREF_EXT_ID>
SCHEMBL16121514

> <PUBCHEM_EXT_DATASOURCE_URL>
https://www.surechembl.org/

> <PUBCHEM_EXT_SUBSTANCE_URL>
https://www.surechembl.org/chemical/SCHEMBL16121514

> <PUBCHEM_CID_ASSOCIATIONS>
117609874  1

> <PUBCHEM_COORDINATE_TYPE>
1
3

$$$$
