310944136
  -OEChem-07211613022D

 11 11  0     0  0  0  0  0  0999 V2000
    1.4312   -0.2125    0.0000 Br  0  0  0  0  0  0  0  0  0  0  0  0
   -0.7188   -1.4500    0.0000 F   0  0  0  0  0  0  0  0  0  0  0  0
    0.7188   -1.4500    0.0000 F   0  0  0  0  0  0  0  0  0  0  0  0
    0.0062    1.4500    0.0000 N   0  0  0  0  0  0  0  0  0  0  0  0
   -1.4312    1.4375    0.0000 N   0  0  0  0  0  0  0  0  0  0  0  0
    0.0062   -0.2125    0.0000 C   0  0  0  0  0  0  0  0  0  0  0  0
    0.7188    0.2000    0.0000 C   0  0  0  0  0  0  0  0  0  0  0  0
   -0.7062    0.2125    0.0000 C   0  0  0  0  0  0  0  0  0  0  0  0
   -0.0062   -1.0375    0.0000 C   0  0  0  0  0  0  0  0  0  0  0  0
   -0.7062    1.0375    0.0000 C   0  0  0  0  0  0  0  0  0  0  0  0
    0.7188    1.0250    0.0000 C   0  0  0  0  0  0  0  0  0  0  0  0
  1  7  1  0  0  0  0
  2  9  1  0  0  0  0
  3  9  1  0  0  0  0
  4 10  1  0  0  0  0
  4 11  2  0  0  0  0
  5 10  1  0  0  0  0
  6  7  2  0  0  0  0
  6  8  1  0  0  0  0
  6  9  1  0  0  0  0
  7 11  1  0  0  0  0
  8 10  2  0  0  0  0
M  END
> <PUBCHEM_COMPOUND_ID_TYPE>
0

> <PUBCHEM_TOTAL_CHARGE>
0

> <PUBCHEM_SUBSTANCE_ID>
310944136

> <PUBCHEM_SUBSTANCE_VERSION>
1

> <PUBCHEM_EXT_DATASOURCE_NAME>
4488

> <PUBCHEM_EXT_DATASOURCE_REGID>
SCHEMBL16122211

> <PUBCHEM_SUBSTANCE_COMMENT>
InChI=1S/C6H5BrF2N2/c7-4-2-11-5(10)1-3(4)6(8)9/h1-2,6H,(H2,10,11)
InChIKey=NBCWAKGCURZVDC-UHFFFAOYSA-N

> <PUBCHEM_SUBSTANCE_SYNONYM>
SCHEMBL16122211

> <PUBCHEM_XREF_EXT_ID>
SCHEMBL16122211

> <PUBCHEM_EXT_DATASOURCE_URL>
https://www.surechembl.org/

> <PUBCHEM_EXT_SUBSTANCE_URL>
https://www.surechembl.org/chemical/SCHEMBL16122211

> <PUBCHEM_CID_ASSOCIATIONS>
117610417  1

> <PUBCHEM_COORDINATE_TYPE>
1
3

$$$$
