310948140
  -OEChem-07211613022D

 47 51  0     0  0  0  0  0  0999 V2000
    3.5342   -2.6268    0.0000 S   0  0  0  0  0  0  0  0  0  0  0  0
   -2.8274   -3.0280    0.0000 F   0  0  0  0  0  0  0  0  0  0  0  0
   -3.8399   -3.2572    0.0000 F   0  0  0  0  0  0  0  0  0  0  0  0
    3.5342    0.2579    0.0000 F   0  0  0  0  0  0  0  0  0  0  0  0
    3.7062    3.3337    0.0000 F   0  0  0  0  0  0  0  0  0  0  0  0
    2.5600    3.0089    0.0000 F   0  0  0  0  0  0  0  0  0  0  0  0
    3.9736    2.1874    0.0000 F   0  0  0  0  0  0  0  0  0  0  0  0
    2.8274   -3.0280    0.0000 O   0  0  0  0  0  0  0  0  0  0  0  0
    4.2602   -2.2066    0.0000 O   0  0  0  0  0  0  0  0  0  0  0  0
   -3.5916   -1.0985    0.0000 O   0  0  0  0  0  0  0  0  0  0  0  0
    2.8656    1.9009    0.0000 O   0  0  0  0  0  0  0  0  0  0  0  0
    4.7760   -0.4680    0.0000 O   0  0  0  0  0  0  0  0  0  0  0  0
   -0.7259    0.4680    0.0000 N   0  0  0  0  0  0  0  0  0  0  0  0
   -2.2543   -0.7737    0.0000 N   0  0  0  0  0  0  0  0  0  0  0  0
   -2.9994   -1.1367    0.0000 N   0  0  0  0  0  0  0  0  0  0  0  0
   -1.5665    0.5636    0.0000 N   0  0  0  0  0  0  0  0  0  0  0  0
   -1.7384    1.3659    0.0000 N   0  0  0  0  0  0  0  0  0  0  0  0
   -4.7760   -1.9390    0.0000 N   0  0  0  0  0  0  0  0  0  0  0  0
   -0.1911   -0.4489    0.0000 C   0  0  0  0  0  0  0  0  0  0  0  0
   -0.5922   -1.1558    0.0000 C   0  0  0  0  0  0  0  0  0  0  0  0
   -1.6812   -1.3087    0.0000 C   0  0  0  0  0  0  0  0  0  0  0  0
   -2.9038   -1.9200    0.0000 C   0  0  0  0  0  0  0  0  0  0  0  0
    1.0507   -1.1749    0.0000 C   0  0  0  0  0  0  0  0  0  0  0  0
    0.6496   -0.4871    0.0000 C   0  0  0  0  0  0  0  0  0  0  0  0
   -0.3630    1.2322    0.0000 C   0  0  0  0  0  0  0  0  0  0  0  0
   -2.0632   -2.0919    0.0000 C   0  0  0  0  0  0  0  0  0  0  0  0
    1.8913   -1.1749    0.0000 C   0  0  0  0  0  0  0  0  0  0  0  0
   -3.4579   -2.5122    0.0000 C   0  0  0  0  0  0  0  0  0  0  0  0
   -0.1911   -1.8818    0.0000 C   0  0  0  0  0  0  0  0  0  0  0  0
    0.6496   -1.8818    0.0000 C   0  0  0  0  0  0  0  0  0  0  0  0
    3.1140   -1.9009    0.0000 C   0  0  0  0  0  0  0  0  0  0  0  0
    0.4394    1.4041    0.0000 C   0  0  0  0  0  0  0  0  0  0  0  0
    2.3116   -1.8818    0.0000 C   0  0  0  0  0  0  0  0  0  0  0  0
    3.5342   -1.1749    0.0000 C   0  0  0  0  0  0  0  0  0  0  0  0
    2.2925   -0.4871    0.0000 C   0  0  0  0  0  0  0  0  0  0  0  0
    3.1140   -0.4680    0.0000 C   0  0  0  0  0  0  0  0  0  0  0  0
   -1.0125    1.7862    0.0000 C   0  0  0  0  0  0  0  0  0  0  0  0
   -3.9545   -1.8435    0.0000 C   0  0  0  0  0  0  0  0  0  0  0  0
   -2.1397    0.0477    0.0000 C   0  0  0  0  0  0  0  0  0  0  0  0
    0.9934    0.7928    0.0000 C   0  0  0  0  0  0  0  0  0  0  0  0
    0.7068    2.1683    0.0000 C   0  0  0  0  0  0  0  0  0  0  0  0
    4.3748   -1.1749    0.0000 C   0  0  0  0  0  0  0  0  0  0  0  0
    2.0441    1.7671    0.0000 C   0  0  0  0  0  0  0  0  0  0  0  0
    1.7958    0.9648    0.0000 C   0  0  0  0  0  0  0  0  0  0  0  0
    1.5092    2.3403    0.0000 C   0  0  0  0  0  0  0  0  0  0  0  0
    3.9545   -3.3337    0.0000 C   0  0  0  0  0  0  0  0  0  0  0  0
    3.2859    2.6077    0.0000 C   0  0  0  0  0  0  0  0  0  0  0  0
  1  8  2  0  0  0  0
  1  9  2  0  0  0  0
  1 31  1  0  0  0  0
  1 46  1  0  0  0  0
  2 28  1  0  0  0  0
  3 28  1  0  0  0  0
  4 36  1  0  0  0  0
  5 47  1  0  0  0  0
  6 47  1  0  0  0  0
  7 47  1  0  0  0  0
 10 38  2  0  0  0  0
 11 43  1  0  0  0  0
 11 47  1  0  0  0  0
 12 42  1  0  0  0  0
 13 16  1  0  0  0  0
 13 19  1  0  0  0  0
 13 25  1  0  0  0  0
 14 15  1  0  0  0  0
 14 21  1  0  0  0  0
 14 39  1  0  0  0  0
 15 22  2  0  0  0  0
 16 17  2  0  0  0  0
 17 37  1  0  0  0  0
 18 38  1  0  0  0  0
 19 20  2  0  0  0  0
 19 24  1  0  0  0  0
 20 21  1  0  0  0  0
 20 29  1  0  0  0  0
 21 26  2  0  0  0  0
 22 26  1  0  0  0  0
 22 28  1  0  0  0  0
 23 24  2  0  0  0  0
 23 27  1  0  0  0  0
 23 30  1  0  0  0  0
 25 32  1  0  0  0  0
 25 37  2  0  0  0  0
 27 33  1  0  0  0  0
 27 35  2  0  0  0  0
 28 38  1  0  0  0  0
 29 30  2  0  0  0  0
 31 33  2  0  0  0  0
 31 34  1  0  0  0  0
 32 40  2  0  0  0  0
 32 41  1  0  0  0  0
 34 36  2  0  0  0  0
 34 42  1  0  0  0  0
 35 36  1  0  0  0  0
 40 44  1  0  0  0  0
 41 45  2  0  0  0  0
 43 44  2  0  0  0  0
 43 45  1  0  0  0  0
M  END
> <PUBCHEM_COMPOUND_ID_TYPE>
0

> <PUBCHEM_TOTAL_CHARGE>
0

> <PUBCHEM_SUBSTANCE_ID>
310948140

> <PUBCHEM_SUBSTANCE_VERSION>
1

> <PUBCHEM_EXT_DATASOURCE_NAME>
4488

> <PUBCHEM_EXT_DATASOURCE_REGID>
SCHEMBL16126316

> <PUBCHEM_SUBSTANCE_COMMENT>
InChI=1S/C29H22F6N6O5S/c1-40-22(12-26(38-40)28(31,32)27(36)43)19-8-5-16(17-9-21(30)20(14-42)25(11-17)47(2,44)45)10-23(19)41-24(13-37-39-41)15-3-6-18(7-4-15)46-29(33,34)35/h3-13,42H,14H2,1-2H3,(H2,36,43)
InChIKey=HOXVSDMOXIERER-UHFFFAOYSA-N

> <PUBCHEM_SUBSTANCE_SYNONYM>
SCHEMBL16126316

> <PUBCHEM_XREF_EXT_ID>
SCHEMBL16126316

> <PUBCHEM_EXT_DATASOURCE_URL>
https://www.surechembl.org/

> <PUBCHEM_EXT_SUBSTANCE_URL>
https://www.surechembl.org/chemical/SCHEMBL16126316

> <PUBCHEM_CID_ASSOCIATIONS>
86275970  1

> <PUBCHEM_COORDINATE_TYPE>
1
3

$$$$
