310945798
  -OEChem-07211613022D

 36 39  0     1  0  0  0  0  0999 V2000
    3.6649    1.4480    0.0000 O   0  0  0  0  0  0  0  0  0  0  0  0
    1.3925    1.4480    0.0000 O   0  0  0  0  0  0  0  0  0  0  0  0
    0.6720    1.0323    0.0000 O   0  0  0  0  0  0  0  0  0  0  0  0
   -0.0485    1.4480    0.0000 O   0  0  0  0  0  0  0  0  0  0  0  0
   -2.9305   -2.7089    0.0000 O   0  0  0  0  0  0  0  0  0  0  0  0
    1.3925   -0.2009    0.0000 N   0  0  0  0  0  0  0  0  0  0  0  0
   -0.7690    0.2147    0.0000 N   0  0  0  0  0  0  0  0  0  0  0  0
   -2.9305    1.4618    0.0000 N   0  0  0  0  0  0  0  0  0  0  0  0
   -2.2100    2.7089    0.0000 N   0  0  0  0  0  0  0  0  0  0  0  0
    2.8474    1.4618    0.0000 C   0  0  3  0  0  0  0  0  0  0  0  0
    2.0992    0.9907    0.0000 C   0  0  0  0  0  0  0  0  0  0  0  0
    3.2631    0.7551    0.0000 C   0  0  0  0  0  0  0  0  0  0  0  0
    2.1131    0.2009    0.0000 C   0  0  3  0  0  0  0  0  0  0  0  0
    2.8474    2.2793    0.0000 C   0  0  0  0  0  0  0  0  0  0  0  0
    2.8474   -0.1870    0.0000 C   0  0  0  0  0  0  0  0  0  0  0  0
    0.6582    0.1870    0.0000 C   0  0  0  0  0  0  0  0  0  0  0  0
   -0.0346   -0.2009    0.0000 C   0  0  3  0  0  0  0  0  0  0  0  0
    2.8336   -1.0323    0.0000 C   0  0  0  0  0  0  0  0  0  0  0  0
   -0.0346   -1.0184    0.0000 C   0  0  0  0  0  0  0  0  0  0  0  0
   -0.7828    1.0323    0.0000 C   0  0  0  0  0  0  0  0  0  0  0  0
   -0.7551   -1.4480    0.0000 C   0  0  0  0  0  0  0  0  0  0  0  0
   -1.5034    1.4618    0.0000 C   0  0  0  0  0  0  0  0  0  0  0  0
    3.5541   -1.4480    0.0000 C   0  0  0  0  0  0  0  0  0  0  0  0
    2.1269   -1.4480    0.0000 C   0  0  0  0  0  0  0  0  0  0  0  0
   -1.4756   -1.0462    0.0000 C   0  0  0  0  0  0  0  0  0  0  0  0
   -0.7690   -2.2793    0.0000 C   0  0  0  0  0  0  0  0  0  0  0  0
   -2.2100    1.0462    0.0000 C   0  0  0  0  0  0  0  0  0  0  0  0
   -1.4756    2.2793    0.0000 C   0  0  0  0  0  0  0  0  0  0  0  0
   -2.2100   -2.2793    0.0000 C   0  0  0  0  0  0  0  0  0  0  0  0
   -2.1961   -1.4618    0.0000 C   0  0  0  0  0  0  0  0  0  0  0  0
   -1.4756   -2.6812    0.0000 C   0  0  0  0  0  0  0  0  0  0  0  0
    3.5541   -2.2793    0.0000 C   0  0  0  0  0  0  0  0  0  0  0  0
    2.1269   -2.2793    0.0000 C   0  0  0  0  0  0  0  0  0  0  0  0
    2.8474   -2.6812    0.0000 C   0  0  0  0  0  0  0  0  0  0  0  0
   -2.9167    2.2932    0.0000 C   0  0  0  0  0  0  0  0  0  0  0  0
   -3.6649   -2.2932    0.0000 C   0  0  0  0  0  0  0  0  0  0  0  0
  1 10  1  0  0  0  0
  1 12  1  0  0  0  0
  2 11  2  0  0  0  0
  3 16  2  0  0  0  0
  4 20  2  0  0  0  0
  5 29  1  0  0  0  0
  5 36  1  0  0  0  0
 13  6  1  6  0  0  0
  6 16  1  0  0  0  0
 17  7  1  6  0  0  0
  7 20  1  0  0  0  0
  8 27  2  0  0  0  0
  8 35  1  0  0  0  0
  9 28  1  0  0  0  0
  9 35  2  0  0  0  0
 10 11  1  6  0  0  0
 10 12  1  0  0  0  0
 10 14  1  1  0  0  0
 11 13  1  0  0  0  0
 13 15  1  0  0  0  0
 15 18  1  0  0  0  0
 16 17  1  0  0  0  0
 17 19  1  0  0  0  0
 18 23  2  0  0  0  0
 18 24  1  0  0  0  0
 19 21  1  0  0  0  0
 20 22  1  0  0  0  0
 21 25  2  0  0  0  0
 21 26  1  0  0  0  0
 22 27  1  0  0  0  0
 22 28  2  0  0  0  0
 23 32  1  0  0  0  0
 24 33  2  0  0  0  0
 25 30  1  0  0  0  0
 26 31  2  0  0  0  0
 29 30  2  0  0  0  0
 29 31  1  0  0  0  0
 32 34  2  0  0  0  0
 33 34  1  0  0  0  0
M  END
> <PUBCHEM_COMPOUND_ID_TYPE>
0

> <PUBCHEM_TOTAL_CHARGE>
0

> <PUBCHEM_SUBSTANCE_ID>
310945798

> <PUBCHEM_SUBSTANCE_VERSION>
1

> <PUBCHEM_EXT_DATASOURCE_NAME>
4488

> <PUBCHEM_EXT_DATASOURCE_REGID>
SCHEMBL16123902

> <PUBCHEM_SUBSTANCE_COMMENT>
InChI=1S/C27H28N4O5/c1-27(16-36-27)24(32)22(12-18-6-4-3-5-7-18)30-26(34)23(13-19-8-10-21(35-2)11-9-19)31-25(33)20-14-28-17-29-15-20/h3-11,14-15,17,22-23H,12-13,16H2,1-2H3,(H,30,34)(H,31,33)/t22-,23-,27+/m0/s1
InChIKey=GYJDRGPPCUZIBO-VMODYCNZSA-N

> <PUBCHEM_SUBSTANCE_SYNONYM>
SCHEMBL16123902

> <PUBCHEM_XREF_EXT_ID>
SCHEMBL16123902

> <PUBCHEM_EXT_DATASOURCE_URL>
https://www.surechembl.org/

> <PUBCHEM_EXT_SUBSTANCE_URL>
https://www.surechembl.org/chemical/SCHEMBL16123902

> <PUBCHEM_CID_ASSOCIATIONS>
117611785  1

> <PUBCHEM_COORDINATE_TYPE>
1
3

> <PUBCHEM_BONDANNOTATIONS>
10  11  6
10  14  5
13  6  6
17  7  6

$$$$
