310943024
  -OEChem-07211613022D

 28 31  0     1  0  0  0  0  0999 V2000
    1.2042   -3.2433    0.0000 F   0  0  0  0  0  0  0  0  0  0  0  0
   -2.4245   -1.3166    0.0000 O   0  0  0  0  0  0  0  0  0  0  0  0
   -0.7386    3.1470    0.0000 O   0  0  0  0  0  0  0  0  0  0  0  0
   -0.8671    0.9634    0.0000 N   0  0  0  0  0  0  0  0  0  0  0  0
   -0.4335    0.2569    0.0000 N   0  0  0  0  0  0  0  0  0  0  0  0
   -0.7867   -1.1721    0.0000 N   0  0  0  0  0  0  0  0  0  0  0  0
   -3.1791   -0.0963    0.0000 N   0  0  0  0  0  0  0  0  0  0  0  0
    1.2684    0.5298    0.0000 N   0  0  0  0  0  0  0  0  0  0  0  0
    3.1791   -2.3442    0.0000 N   0  0  0  0  0  0  0  0  0  0  0  0
   -1.7501   -0.0482    0.0000 C   0  0  0  0  0  0  0  0  0  0  0  0
   -1.6698    0.7707    0.0000 C   0  0  0  0  0  0  0  0  0  0  0  0
   -0.9794   -0.3693    0.0000 C   0  0  0  0  0  0  0  0  0  0  0  0
   -0.5459    1.7501    0.0000 C   0  0  3  0  0  0  0  0  0  0  0  0
   -2.4405   -0.4657    0.0000 C   0  0  0  0  0  0  0  0  0  0  0  0
   -2.4887    1.1721    0.0000 C   0  0  0  0  0  0  0  0  0  0  0  0
    0.2729    1.8465    0.0000 C   0  0  3  0  0  0  0  0  0  0  0  0
    0.0161   -1.3969    0.0000 C   0  0  0  0  0  0  0  0  0  0  0  0
   -1.0436    2.3763    0.0000 C   0  0  0  0  0  0  0  0  0  0  0  0
   -3.1630    0.7547    0.0000 C   0  0  0  0  0  0  0  0  0  0  0  0
    0.5780    2.6171    0.0000 C   0  0  0  0  0  0  0  0  0  0  0  0
    0.2087   -2.1997    0.0000 C   0  0  0  0  0  0  0  0  0  0  0  0
    0.7547    1.1721    0.0000 C   0  0  0  0  0  0  0  0  0  0  0  0
    0.6102   -0.8510    0.0000 C   0  0  0  0  0  0  0  0  0  0  0  0
    0.9955   -2.4405    0.0000 C   0  0  0  0  0  0  0  0  0  0  0  0
    0.0963    3.2433    0.0000 C   0  0  0  0  0  0  0  0  0  0  0  0
    1.5896   -1.8465    0.0000 C   0  0  0  0  0  0  0  0  0  0  0  0
    1.3969   -1.0757    0.0000 C   0  0  0  0  0  0  0  0  0  0  0  0
    2.3763   -2.1194    0.0000 C   0  0  0  0  0  0  0  0  0  0  0  0
  1 24  1  0  0  0  0
  2 14  2  0  0  0  0
  3 18  1  0  0  0  0
  3 25  1  0  0  0  0
  4  5  1  0  0  0  0
  4 11  1  0  0  0  0
 13  4  1  1  0  0  0
  5 12  2  0  0  0  0
  6 12  1  0  0  0  0
  6 17  1  0  0  0  0
  7 14  1  0  0  0  0
  7 19  1  0  0  0  0
  8 22  3  0  0  0  0
  9 28  3  0  0  0  0
 10 11  2  0  0  0  0
 10 12  1  0  0  0  0
 10 14  1  0  0  0  0
 11 15  1  0  0  0  0
 13 16  1  0  0  0  0
 13 18  1  0  0  0  0
 15 19  2  0  0  0  0
 16 20  1  0  0  0  0
 16 22  1  6  0  0  0
 17 21  1  0  0  0  0
 17 23  2  0  0  0  0
 20 25  1  0  0  0  0
 21 24  2  0  0  0  0
 23 27  1  0  0  0  0
 24 26  1  0  0  0  0
 26 27  2  0  0  0  0
 26 28  1  0  0  0  0
M  END
> <PUBCHEM_COMPOUND_ID_TYPE>
0

> <PUBCHEM_TOTAL_CHARGE>
0

> <PUBCHEM_SUBSTANCE_ID>
310943024

> <PUBCHEM_SUBSTANCE_VERSION>
1

> <PUBCHEM_EXT_DATASOURCE_NAME>
4488

> <PUBCHEM_EXT_DATASOURCE_REGID>
SCHEMBL16121083

> <PUBCHEM_SUBSTANCE_COMMENT>
InChI=1S/C19H15FN6O2/c20-14-7-13(2-1-11(14)8-21)24-18-17-15(3-5-23-19(17)27)26(25-18)16-10-28-6-4-12(16)9-22/h1-3,5,7,12,16H,4,6,10H2,(H,23,27)(H,24,25)/t12-,16+/m1/s1
InChIKey=MSLAFAQZAUHBCE-WBMJQRKESA-N

> <PUBCHEM_SUBSTANCE_SYNONYM>
SCHEMBL16121083

> <PUBCHEM_XREF_EXT_ID>
SCHEMBL16121083

> <PUBCHEM_EXT_DATASOURCE_URL>
https://www.surechembl.org/

> <PUBCHEM_EXT_SUBSTANCE_URL>
https://www.surechembl.org/chemical/SCHEMBL16121083

> <PUBCHEM_CID_ASSOCIATIONS>
117609469  1

> <PUBCHEM_COORDINATE_TYPE>
1
3

> <PUBCHEM_BONDANNOTATIONS>
16  22  6
13  4  5

$$$$
