310934289
  -OEChem-07211613022D

 22 24  0     0  0  0  0  0  0999 V2000
    0.7144   -0.4125    0.0000 Cl  0  0  0  0  0  0  0  0  0  0  0  0
    2.7637    3.0694    0.0000 O   0  0  0  0  0  0  0  0  0  0  0  0
    1.4583    3.6506    0.0000 O   0  0  0  0  0  0  0  0  0  0  0  0
    2.0202    1.5151    0.0000 N   0  0  0  0  0  0  0  0  0  0  0  0
    0.8007    2.0580    0.0000 C   0  0  0  0  0  0  0  0  0  0  0  0
    0.7144    1.2375    0.0000 C   0  0  0  0  0  0  0  0  0  0  0  0
    1.6077    2.2295    0.0000 C   0  0  0  0  0  0  0  0  0  0  0  0
    0.0000    0.8250    0.0000 C   0  0  0  0  0  0  0  0  0  0  0  0
    0.1876    2.6100    0.0000 C   0  0  0  0  0  0  0  0  0  0  0  0
    1.4681    0.9020    0.0000 C   0  0  0  0  0  0  0  0  0  0  0  0
    1.9432    2.9832    0.0000 C   0  0  0  0  0  0  0  0  0  0  0  0
    0.0000    0.0000    0.0000 C   0  0  0  0  0  0  0  0  0  0  0  0
   -0.7144    1.2375    0.0000 C   0  0  0  0  0  0  0  0  0  0  0  0
    0.3591    3.4170    0.0000 C   0  0  0  0  0  0  0  0  0  0  0  0
   -0.5970    2.3551    0.0000 C   0  0  0  0  0  0  0  0  0  0  0  0
   -0.7144   -0.4125    0.0000 C   0  0  0  0  0  0  0  0  0  0  0  0
   -1.4290    0.8250    0.0000 C   0  0  0  0  0  0  0  0  0  0  0  0
   -1.4290    0.0000    0.0000 C   0  0  0  0  0  0  0  0  0  0  0  0
   -0.2540    3.9690    0.0000 C   0  0  0  0  0  0  0  0  0  0  0  0
   -1.2101    2.9071    0.0000 C   0  0  0  0  0  0  0  0  0  0  0  0
   -1.0386    3.7141    0.0000 C   0  0  0  0  0  0  0  0  0  0  0  0
    3.0993    3.8231    0.0000 C   0  0  0  0  0  0  0  0  0  0  0  0
  1 12  1  0  0  0  0
  2 11  1  0  0  0  0
  2 22  1  0  0  0  0
  3 11  2  0  0  0  0
  4  7  1  0  0  0  0
  4 10  1  0  0  0  0
  5  6  1  0  0  0  0
  5  7  2  0  0  0  0
  5  9  1  0  0  0  0
  6  8  1  0  0  0  0
  6 10  2  0  0  0  0
  7 11  1  0  0  0  0
  8 12  1  0  0  0  0
  8 13  2  0  0  0  0
  9 14  2  0  0  0  0
  9 15  1  0  0  0  0
 12 16  2  0  0  0  0
 13 17  1  0  0  0  0
 14 19  1  0  0  0  0
 15 20  2  0  0  0  0
 16 18  1  0  0  0  0
 17 18  2  0  0  0  0
 19 21  2  0  0  0  0
 20 21  1  0  0  0  0
M  END
> <PUBCHEM_COMPOUND_ID_TYPE>
0

> <PUBCHEM_TOTAL_CHARGE>
0

> <PUBCHEM_SUBSTANCE_ID>
310934289

> <PUBCHEM_SUBSTANCE_VERSION>
1

> <PUBCHEM_EXT_DATASOURCE_NAME>
4488

> <PUBCHEM_EXT_DATASOURCE_REGID>
SCHEMBL16111747

> <PUBCHEM_SUBSTANCE_COMMENT>
InChI=1S/C18H14ClNO2/c1-22-18(21)17-16(12-7-3-2-4-8-12)14(11-20-17)13-9-5-6-10-15(13)19/h2-11,20H,1H3
InChIKey=DZTAYUCAZWSNPI-UHFFFAOYSA-N

> <PUBCHEM_SUBSTANCE_SYNONYM>
SCHEMBL16111747

> <PUBCHEM_XREF_EXT_ID>
SCHEMBL16111747

> <PUBCHEM_EXT_DATASOURCE_URL>
https://www.surechembl.org/

> <PUBCHEM_EXT_SUBSTANCE_URL>
https://www.surechembl.org/chemical/SCHEMBL16111747

> <PUBCHEM_CID_ASSOCIATIONS>
117602535  1

> <PUBCHEM_COORDINATE_TYPE>
1
3

$$$$
