310936361
  -OEChem-07211613022D

 36 39  0     0  0  0  0  0  0999 V2000
    5.7901   -5.7473    0.0000 F   0  0  0  0  0  0  0  0  0  0  0  0
    0.0000   -1.3725    0.0000 F   0  0  0  0  0  0  0  0  0  0  0  0
    1.2009   -2.1445    0.0000 F   0  0  0  0  0  0  0  0  0  0  0  0
    4.9752   -1.4582    0.0000 O   0  0  0  0  0  0  0  0  0  0  0  0
    1.2438   -0.6863    0.0000 O   0  0  0  0  0  0  0  0  0  0  0  0
    1.1581   -7.8060    0.0000 O   0  0  0  0  0  0  0  0  0  0  0  0
    4.9323   -2.8737    0.0000 N   0  0  0  0  0  0  0  0  0  0  0  0
    2.4876    0.0000    0.0000 N   0  0  0  0  0  0  0  0  0  0  0  0
    3.6885   -6.4764    0.0000 N   0  0  0  0  0  0  0  0  0  0  0  0
    4.8895   -7.1626    0.0000 N   0  0  0  0  0  0  0  0  0  0  0  0
    3.6885   -2.1445    0.0000 C   0  0  0  0  0  0  0  0  0  0  0  0
    3.3026   -1.4582    0.0000 C   0  0  0  0  0  0  0  0  0  0  0  0
    4.5463   -2.1874    0.0000 C   0  0  0  0  0  0  0  0  0  0  0  0
    3.6885   -3.6028    0.0000 C   0  0  0  0  0  0  0  0  0  0  0  0
    3.3026   -2.9165    0.0000 C   0  0  0  0  0  0  0  0  0  0  0  0
    3.6885   -5.0181    0.0000 C   0  0  0  0  0  0  0  0  0  0  0  0
    2.4448   -1.4582    0.0000 C   0  0  0  0  0  0  0  0  0  0  0  0
    3.3026   -4.3319    0.0000 C   0  0  0  0  0  0  0  0  0  0  0  0
    4.5463   -3.6456    0.0000 C   0  0  0  0  0  0  0  0  0  0  0  0
    2.0587   -0.7292    0.0000 C   0  0  0  0  0  0  0  0  0  0  0  0
    3.6885   -0.7720    0.0000 C   0  0  0  0  0  0  0  0  0  0  0  0
    4.5034   -6.4764    0.0000 C   0  0  0  0  0  0  0  0  0  0  0  0
    4.9323   -5.7473    0.0000 C   0  0  0  0  0  0  0  0  0  0  0  0
    4.5034   -5.0181    0.0000 C   0  0  0  0  0  0  0  0  0  0  0  0
    3.2596   -5.7473    0.0000 C   0  0  0  0  0  0  0  0  0  0  0  0
    3.3026    0.0000    0.0000 C   0  0  0  0  0  0  0  0  0  0  0  0
    3.6456   -7.8918    0.0000 C   0  0  0  0  0  0  0  0  0  0  0  0
    4.4606   -7.8918    0.0000 C   0  0  0  0  0  0  0  0  0  0  0  0
    0.8149   -1.4154    0.0000 C   0  0  0  0  0  0  0  0  0  0  0  0
    4.5463   -0.7720    0.0000 C   0  0  0  0  0  0  0  0  0  0  0  0
    3.2596   -7.1626    0.0000 C   0  0  0  0  0  0  0  0  0  0  0  0
    3.2167   -8.5780    0.0000 C   0  0  0  0  0  0  0  0  0  0  0  0
    2.0159   -7.8489    0.0000 C   0  0  0  0  0  0  0  0  0  0  0  0
    2.4448   -7.1197    0.0000 C   0  0  0  0  0  0  0  0  0  0  0  0
    2.4018   -8.5780    0.0000 C   0  0  0  0  0  0  0  0  0  0  0  0
    0.7292   -8.5352    0.0000 C   0  0  0  0  0  0  0  0  0  0  0  0
  1 23  1  0  0  0  0
  2 29  1  0  0  0  0
  3 29  1  0  0  0  0
  4 13  1  0  0  0  0
  4 30  1  0  0  0  0
  5 20  1  0  0  0  0
  5 29  1  0  0  0  0
  6 33  1  0  0  0  0
  6 36  1  0  0  0  0
  7 13  1  0  0  0  0
  7 19  2  0  0  0  0
  8 20  1  0  0  0  0
  8 26  2  0  0  0  0
  9 22  1  0  0  0  0
  9 25  2  0  0  0  0
 10 22  1  0  0  0  0
 10 28  1  0  0  0  0
 11 12  1  0  0  0  0
 11 13  2  0  0  0  0
 11 15  1  0  0  0  0
 12 17  1  0  0  0  0
 12 21  2  0  0  0  0
 14 15  2  0  0  0  0
 14 18  1  0  0  0  0
 14 19  1  0  0  0  0
 16 18  1  0  0  0  0
 16 24  2  0  0  0  0
 16 25  1  0  0  0  0
 17 20  2  0  0  0  0
 21 26  1  0  0  0  0
 22 23  2  0  0  0  0
 23 24  1  0  0  0  0
 27 28  1  0  0  0  0
 27 31  2  0  0  0  0
 27 32  1  0  0  0  0
 31 34  1  0  0  0  0
 32 35  2  0  0  0  0
 33 34  2  0  0  0  0
 33 35  1  0  0  0  0
M  END
> <PUBCHEM_COMPOUND_ID_TYPE>
0

> <PUBCHEM_TOTAL_CHARGE>
0

> <PUBCHEM_SUBSTANCE_ID>
310936361

> <PUBCHEM_SUBSTANCE_VERSION>
1

> <PUBCHEM_EXT_DATASOURCE_NAME>
4488

> <PUBCHEM_EXT_DATASOURCE_REGID>
SCHEMBL16113995

> <PUBCHEM_SUBSTANCE_COMMENT>
InChI=1S/C26H23F3N4O3/c1-34-20-5-3-16(4-6-20)13-31-24-22(27)11-18(14-32-24)9-17-10-21(25(35-2)33-15-17)19-7-8-30-23(12-19)36-26(28)29/h3-8,10-12,14-15,26H,9,13H2,1-2H3,(H,31,32)
InChIKey=IIUXRQYHYRLQAX-UHFFFAOYSA-N

> <PUBCHEM_SUBSTANCE_SYNONYM>
SCHEMBL16113995

> <PUBCHEM_XREF_EXT_ID>
SCHEMBL16113995

> <PUBCHEM_EXT_DATASOURCE_URL>
https://www.surechembl.org/

> <PUBCHEM_EXT_SUBSTANCE_URL>
https://www.surechembl.org/chemical/SCHEMBL16113995

> <PUBCHEM_CID_ASSOCIATIONS>
117604303  1

> <PUBCHEM_COORDINATE_TYPE>
1
3

$$$$
