310948268
  -OEChem-07211613022D

 31 35  0     1  0  0  0  0  0999 V2000
   -2.6223    2.3093    0.0000 O   0  0  0  0  0  0  0  0  0  0  0  0
    0.7025   -3.2552    0.0000 O   0  0  0  0  0  0  0  0  0  0  0  0
   -0.5495   -3.9787    0.0000 O   0  0  0  0  0  0  0  0  0  0  0  0
    0.1739    2.1841    0.0000 N   0  0  0  0  0  0  0  0  0  0  0  0
   -0.1600    1.4190    0.0000 N   0  0  0  0  0  0  0  0  0  0  0  0
   -1.5511    0.8764    0.0000 N   0  0  0  0  0  0  0  0  0  0  0  0
   -1.8989    3.5752    0.0000 N   0  0  0  0  0  0  0  0  0  0  0  0
    1.0503    0.1531    0.0000 N   0  0  0  0  0  0  0  0  0  0  0  0
   -1.1755    2.3232    0.0000 C   0  0  0  0  0  0  0  0  0  0  0  0
   -0.4661    2.7405    0.0000 C   0  0  0  0  0  0  0  0  0  0  0  0
   -0.9947    1.5164    0.0000 C   0  0  0  0  0  0  0  0  0  0  0  0
    0.9807    2.3510    0.0000 C   0  0  3  0  0  0  0  0  0  0  0  0
   -1.8850    2.7405    0.0000 C   0  0  0  0  0  0  0  0  0  0  0  0
   -0.4521    3.5614    0.0000 C   0  0  0  0  0  0  0  0  0  0  0  0
   -1.5511    0.0418    0.0000 C   0  0  0  0  0  0  0  0  0  0  0  0
    1.5789    1.7389    0.0000 C   0  0  3  0  0  0  0  0  0  0  0  0
   -0.8416   -1.1964    0.0000 C   0  0  0  0  0  0  0  0  0  0  0  0
   -1.5372   -1.6137    0.0000 C   0  0  0  0  0  0  0  0  0  0  0  0
   -1.1755    3.9787    0.0000 C   0  0  0  0  0  0  0  0  0  0  0  0
    1.2590    3.1440    0.0000 C   0  0  0  0  0  0  0  0  0  0  0  0
   -0.8416   -0.3756    0.0000 C   0  0  0  0  0  0  0  0  0  0  0  0
   -2.2745   -0.3756    0.0000 C   0  0  0  0  0  0  0  0  0  0  0  0
   -0.5495   -2.5179    0.0000 C   0  0  3  0  0  0  0  0  0  0  0  0
   -0.2156   -1.7668    0.0000 C   0  0  0  0  0  0  0  0  0  0  0  0
   -2.2745   -1.1964    0.0000 C   0  0  0  0  0  0  0  0  0  0  0  0
   -1.3703   -2.4345    0.0000 C   0  0  0  0  0  0  0  0  0  0  0  0
    2.3580    1.9197    0.0000 C   0  0  0  0  0  0  0  0  0  0  0  0
    1.3007    0.9321    0.0000 C   0  0  0  0  0  0  0  0  0  0  0  0
    2.0658    3.3109    0.0000 C   0  0  0  0  0  0  0  0  0  0  0  0
    2.6223    2.7127    0.0000 C   0  0  0  0  0  0  0  0  0  0  0  0
   -0.1600   -3.2274    0.0000 C   0  0  0  0  0  0  0  0  0  0  0  0
  1 13  2  0  0  0  0
  2 31  2  0  0  0  0
  3 31  1  0  0  0  0
  4  5  1  0  0  0  0
  4 10  1  0  0  0  0
 12  4  1  1  0  0  0
  5 11  2  0  0  0  0
  6 11  1  0  0  0  0
  6 15  1  0  0  0  0
  7 13  1  0  0  0  0
  7 19  1  0  0  0  0
  8 28  3  0  0  0  0
  9 10  2  0  0  0  0
  9 11  1  0  0  0  0
  9 13  1  0  0  0  0
 10 14  1  0  0  0  0
 12 16  1  0  0  0  0
 12 20  1  0  0  0  0
 14 19  2  0  0  0  0
 15 21  1  0  0  0  0
 15 22  2  0  0  0  0
 16 27  1  0  0  0  0
 16 28  1  6  0  0  0
 17 18  1  0  0  0  0
 17 21  2  0  0  0  0
 17 24  1  0  0  0  0
 18 25  2  0  0  0  0
 18 26  1  0  0  0  0
 20 29  1  0  0  0  0
 22 25  1  0  0  0  0
 23 24  1  0  0  0  0
 23 26  1  0  0  0  0
 23 31  1  0  0  0  0
 27 30  1  0  0  0  0
 29 30  1  0  0  0  0
M  END
> <PUBCHEM_COMPOUND_ID_TYPE>
0

> <PUBCHEM_TOTAL_CHARGE>
0

> <PUBCHEM_SUBSTANCE_ID>
310948268

> <PUBCHEM_SUBSTANCE_VERSION>
1

> <PUBCHEM_EXT_DATASOURCE_NAME>
4488

> <PUBCHEM_EXT_DATASOURCE_REGID>
SCHEMBL16126445

> <PUBCHEM_SUBSTANCE_COMMENT>
InChI=1S/C23H23N5O3/c24-12-14-3-1-2-4-18(14)28-19-7-8-25-22(29)20(19)21(27-28)26-17-6-5-13-9-16(23(30)31)10-15(13)11-17/h5-8,11,14,16,18H,1-4,9-10H2,(H,25,29)(H,26,27)(H,30,31)/t14-,16?,18+/m1/s1
InChIKey=PTPJMVHMKNLZSY-ZRFIFAGDSA-N

> <PUBCHEM_SUBSTANCE_SYNONYM>
SCHEMBL16126445

> <PUBCHEM_XREF_EXT_ID>
SCHEMBL16126445

> <PUBCHEM_EXT_DATASOURCE_URL>
https://www.surechembl.org/

> <PUBCHEM_EXT_SUBSTANCE_URL>
https://www.surechembl.org/chemical/SCHEMBL16126445

> <PUBCHEM_CID_ASSOCIATIONS>
117613848  1

> <PUBCHEM_COORDINATE_TYPE>
1
3

> <PUBCHEM_BONDANNOTATIONS>
16  28  6
12  4  5

$$$$
