310929826
  -OEChem-07211613022D

 18 19  0     0  0  0  0  0  0999 V2000
    2.4674   -3.5759    0.0000 Cl  0  0  0  0  0  0  0  0  0  0  0  0
    4.9526   -2.1277    0.0000 O   0  0  0  0  0  0  0  0  0  0  0  0
    2.4852   -0.7152    0.0000 O   0  0  0  0  0  0  0  0  0  0  0  0
    1.2516    0.0000    0.0000 O   0  0  0  0  0  0  0  0  0  0  0  0
    1.6628   -2.1456    0.0000 C   0  0  0  0  0  0  0  0  0  0  0  0
    2.4674   -2.1277    0.0000 C   0  0  0  0  0  0  0  0  0  0  0  0
    1.2516   -1.4304    0.0000 C   0  0  0  0  0  0  0  0  0  0  0  0
    2.8786   -2.8607    0.0000 C   0  0  0  0  0  0  0  0  0  0  0  0
    2.8786   -1.4304    0.0000 C   0  0  0  0  0  0  0  0  0  0  0  0
    1.2337   -2.8607    0.0000 C   0  0  0  0  0  0  0  0  0  0  0  0
    3.7190   -2.8607    0.0000 C   0  0  0  0  0  0  0  0  0  0  0  0
    4.1302   -2.1277    0.0000 C   0  0  0  0  0  0  0  0  0  0  0  0
    1.6628   -0.7152    0.0000 C   0  0  0  0  0  0  0  0  0  0  0  0
    0.4112   -1.4304    0.0000 C   0  0  0  0  0  0  0  0  0  0  0  0
    3.7011   -1.4124    0.0000 C   0  0  0  0  0  0  0  0  0  0  0  0
    0.4112   -2.8607    0.0000 C   0  0  0  0  0  0  0  0  0  0  0  0
    0.0000   -2.1277    0.0000 C   0  0  0  0  0  0  0  0  0  0  0  0
    5.3638   -1.4124    0.0000 C   0  0  0  0  0  0  0  0  0  0  0  0
  1  8  1  0  0  0  0
  2 12  1  0  0  0  0
  2 18  1  0  0  0  0
  3 13  2  0  0  0  0
  4 13  1  0  0  0  0
  5  6  1  0  0  0  0
  5  7  2  0  0  0  0
  5 10  1  0  0  0  0
  6  8  2  0  0  0  0
  6  9  1  0  0  0  0
  7 13  1  0  0  0  0
  7 14  1  0  0  0  0
  8 11  1  0  0  0  0
  9 15  2  0  0  0  0
 10 16  2  0  0  0  0
 11 12  2  0  0  0  0
 12 15  1  0  0  0  0
 14 17  2  0  0  0  0
 16 17  1  0  0  0  0
M  END
> <PUBCHEM_COMPOUND_ID_TYPE>
0

> <PUBCHEM_TOTAL_CHARGE>
0

> <PUBCHEM_SUBSTANCE_ID>
310929826

> <PUBCHEM_SUBSTANCE_VERSION>
1

> <PUBCHEM_EXT_DATASOURCE_NAME>
4488

> <PUBCHEM_EXT_DATASOURCE_REGID>
SCHEMBL16107035

> <PUBCHEM_SUBSTANCE_COMMENT>
InChI=1S/C14H11ClO3/c1-18-9-6-7-11(13(15)8-9)10-4-2-3-5-12(10)14(16)17/h2-8H,1H3,(H,16,17)
InChIKey=DMLWEDKTRJNAKZ-UHFFFAOYSA-N

> <PUBCHEM_SUBSTANCE_SYNONYM>
SCHEMBL16107035

> <PUBCHEM_XREF_EXT_ID>
SCHEMBL16107035

> <PUBCHEM_EXT_DATASOURCE_URL>
https://www.surechembl.org/

> <PUBCHEM_EXT_SUBSTANCE_URL>
https://www.surechembl.org/chemical/SCHEMBL16107035

> <PUBCHEM_CID_ASSOCIATIONS>
117599100  1

> <PUBCHEM_COORDINATE_TYPE>
1
3

$$$$
