310946834
  -OEChem-07211613022D

 30 33  0     1  0  0  0  0  0999 V2000
   -2.0100   -3.6300    0.0000 Cl  0  0  0  0  0  0  0  0  0  0  0  0
    1.3800    0.5400    0.0000 O   0  0  0  0  0  0  0  0  0  0  0  0
   -3.2400    0.9300    0.0000 O   0  0  0  0  0  0  0  0  0  0  0  0
    3.2400    1.6650    0.0000 O   0  0  0  0  0  0  0  0  0  0  0  0
   -0.4950    1.1850    0.0000 N   0  0  0  0  0  0  0  0  0  0  0  0
   -0.7200    0.3900    0.0000 N   0  0  0  0  0  0  0  0  0  0  0  0
   -2.0100   -0.3150    0.0000 N   0  0  0  0  0  0  0  0  0  0  0  0
   -2.7150    2.2650    0.0000 N   0  0  0  0  0  0  0  0  0  0  0  0
   -0.1500    3.6300    0.0000 N   0  0  0  0  0  0  0  0  0  0  0  0
    0.2850    1.4700    0.0000 C   0  0  3  0  0  0  0  0  0  0  0  0
   -1.1850    1.6350    0.0000 C   0  0  0  0  0  0  0  0  0  0  0  0
   -1.8300    1.1400    0.0000 C   0  0  0  0  0  0  0  0  0  0  0  0
   -1.5450    0.3600    0.0000 C   0  0  0  0  0  0  0  0  0  0  0  0
   -2.5800    1.4700    0.0000 C   0  0  0  0  0  0  0  0  0  0  0  0
    0.5550    0.6900    0.0000 C   0  0  0  0  0  0  0  0  0  0  0  0
    0.8100    2.1000    0.0000 C   0  0  0  0  0  0  0  0  0  0  0  0
   -1.2900    2.4600    0.0000 C   0  0  0  0  0  0  0  0  0  0  0  0
   -0.3450    1.9950    0.0000 C   0  0  0  0  0  0  0  0  0  0  0  0
    1.8900    1.1850    0.0000 C   0  0  3  0  0  0  0  0  0  0  0  0
   -2.0550    2.7600    0.0000 C   0  0  0  0  0  0  0  0  0  0  0  0
    1.6350    1.9500    0.0000 C   0  0  0  0  0  0  0  0  0  0  0  0
   -1.9950   -1.1550    0.0000 C   0  0  0  0  0  0  0  0  0  0  0  0
   -0.2400    2.7900    0.0000 C   0  0  0  0  0  0  0  0  0  0  0  0
    2.7150    1.0200    0.0000 C   0  0  0  0  0  0  0  0  0  0  0  0
   -2.7150   -1.5600    0.0000 C   0  0  0  0  0  0  0  0  0  0  0  0
   -1.3050   -1.5600    0.0000 C   0  0  0  0  0  0  0  0  0  0  0  0
   -2.7150   -2.3850    0.0000 C   0  0  0  0  0  0  0  0  0  0  0  0
   -1.3050   -2.3850    0.0000 C   0  0  0  0  0  0  0  0  0  0  0  0
   -1.9950   -2.7900    0.0000 C   0  0  0  0  0  0  0  0  0  0  0  0
    3.0150    0.2400    0.0000 C   0  0  0  0  0  0  0  0  0  0  0  0
  1 29  1  0  0  0  0
  2 15  1  0  0  0  0
  2 19  1  0  0  0  0
  3 14  2  0  0  0  0
  4 24  2  0  0  0  0
  5  6  1  0  0  0  0
  5 10  1  0  0  0  0
  5 11  1  0  0  0  0
  6 13  2  0  0  0  0
  7 13  1  0  0  0  0
  7 22  1  0  0  0  0
  8 14  1  0  0  0  0
  8 20  1  0  0  0  0
  9 23  3  0  0  0  0
 10 15  1  0  0  0  0
 10 16  1  0  0  0  0
 10 18  1  1  0  0  0
 11 12  2  0  0  0  0
 11 17  1  0  0  0  0
 12 13  1  0  0  0  0
 12 14  1  0  0  0  0
 16 21  1  0  0  0  0
 17 20  2  0  0  0  0
 18 23  1  0  0  0  0
 19 21  1  0  0  0  0
 19 24  1  1  0  0  0
 22 25  2  0  0  0  0
 22 26  1  0  0  0  0
 24 30  1  0  0  0  0
 25 27  1  0  0  0  0
 26 28  2  0  0  0  0
 27 29  2  0  0  0  0
 28 29  1  0  0  0  0
M  END
> <PUBCHEM_COMPOUND_ID_TYPE>
0

> <PUBCHEM_TOTAL_CHARGE>
0

> <PUBCHEM_SUBSTANCE_ID>
310946834

> <PUBCHEM_SUBSTANCE_VERSION>
1

> <PUBCHEM_EXT_DATASOURCE_NAME>
4488

> <PUBCHEM_EXT_DATASOURCE_REGID>
SCHEMBL16124958

> <PUBCHEM_SUBSTANCE_COMMENT>
InChI=1S/C21H20ClN5O3/c1-13(28)17-6-8-21(9-10-23,12-30-17)27-16-7-11-24-20(29)18(16)19(26-27)25-15-4-2-14(22)3-5-15/h2-5,7,11,17H,6,8-9,12H2,1H3,(H,24,29)(H,25,26)/t17-,21-/m0/s1
InChIKey=YCCWXUSIKDEWSK-UWJYYQICSA-N

> <PUBCHEM_SUBSTANCE_SYNONYM>
SCHEMBL16124958

> <PUBCHEM_XREF_EXT_ID>
SCHEMBL16124958

> <PUBCHEM_EXT_DATASOURCE_URL>
https://www.surechembl.org/

> <PUBCHEM_EXT_SUBSTANCE_URL>
https://www.surechembl.org/chemical/SCHEMBL16124958

> <PUBCHEM_CID_ASSOCIATIONS>
117612693  1

> <PUBCHEM_COORDINATE_TYPE>
1
3

> <PUBCHEM_BONDANNOTATIONS>
10  18  5
19  24  5

$$$$
