310931486
  -OEChem-07211613022D

 24 26  0     0  0  0  0  0  0999 V2000
    0.0000   -0.7916    0.0000 Br  0  0  0  0  0  0  0  0  0  0  0  0
    1.2138   -2.1111    0.0000 O   0  0  0  0  0  0  0  0  0  0  0  0
    5.7262   -2.2166    0.0000 O   0  0  0  0  0  0  0  0  0  0  0  0
    7.9164   -2.6124    0.0000 O   0  0  0  0  0  0  0  0  0  0  0  0
    2.1374   -0.9764    0.0000 N   0  0  0  0  0  0  0  0  0  0  0  0
    2.0319   -0.1319    0.0000 N   0  0  0  0  0  0  0  0  0  0  0  0
    3.5624   -0.9764    0.0000 N   0  0  0  0  0  0  0  0  0  0  0  0
    5.0137   -3.4568    0.0000 N   0  0  0  0  0  0  0  0  0  0  0  0
    1.3722   -1.2930    0.0000 C   0  0  0  0  0  0  0  0  0  0  0  0
    2.8499   -1.3722    0.0000 C   0  0  0  0  0  0  0  0  0  0  0  0
    0.8180   -0.7125    0.0000 C   0  0  0  0  0  0  0  0  0  0  0  0
    1.2138    0.0000    0.0000 C   0  0  0  0  0  0  0  0  0  0  0  0
    2.8499   -2.2166    0.0000 C   0  0  0  0  0  0  0  0  0  0  0  0
    4.2748   -2.2166    0.0000 C   0  0  0  0  0  0  0  0  0  0  0  0
    4.2748   -1.3722    0.0000 C   0  0  0  0  0  0  0  0  0  0  0  0
    3.5624   -2.6124    0.0000 C   0  0  0  0  0  0  0  0  0  0  0  0
    5.0137   -2.6124    0.0000 C   0  0  0  0  0  0  0  0  0  0  0  0
    1.8472   -2.6652    0.0000 C   0  0  0  0  0  0  0  0  0  0  0  0
    5.7262   -3.8526    0.0000 C   0  0  0  0  0  0  0  0  0  0  0  0
    6.4387   -3.4568    0.0000 C   0  0  0  0  0  0  0  0  0  0  0  0
    7.1775   -3.8526    0.0000 C   0  0  0  0  0  0  0  0  0  0  0  0
    6.4650   -2.6124    0.0000 C   0  0  0  0  0  0  0  0  0  0  0  0
    7.8900   -3.4304    0.0000 C   0  0  0  0  0  0  0  0  0  0  0  0
    7.1775   -2.2166    0.0000 C   0  0  0  0  0  0  0  0  0  0  0  0
  1 11  1  0  0  0  0
  2  9  1  0  0  0  0
  2 18  1  0  0  0  0
  3 17  2  0  0  0  0
  4 23  1  0  0  0  0
  4 24  1  0  0  0  0
  5  6  1  0  0  0  0
  5  9  1  0  0  0  0
  5 10  1  0  0  0  0
  6 12  2  0  0  0  0
  7 10  2  0  0  0  0
  7 15  1  0  0  0  0
  8 17  1  0  0  0  0
  8 19  1  0  0  0  0
  9 11  2  0  0  0  0
 10 13  1  0  0  0  0
 11 12  1  0  0  0  0
 13 16  2  0  0  0  0
 14 15  2  0  0  0  0
 14 16  1  0  0  0  0
 14 17  1  0  0  0  0
 19 20  1  0  0  0  0
 20 21  1  0  0  0  0
 20 22  1  0  0  0  0
 21 23  1  0  0  0  0
 22 24  1  0  0  0  0
M  END
> <PUBCHEM_COMPOUND_ID_TYPE>
0

> <PUBCHEM_TOTAL_CHARGE>
0

> <PUBCHEM_SUBSTANCE_ID>
310931486

> <PUBCHEM_SUBSTANCE_VERSION>
1

> <PUBCHEM_EXT_DATASOURCE_NAME>
4488

> <PUBCHEM_EXT_DATASOURCE_REGID>
SCHEMBL16108811

> <PUBCHEM_SUBSTANCE_COMMENT>
InChI=1S/C16H19BrN4O3/c1-23-16-13(17)10-20-21(16)14-3-2-12(9-18-14)15(22)19-8-11-4-6-24-7-5-11/h2-3,9-11H,4-8H2,1H3,(H,19,22)
InChIKey=BLVZYAOTUWCHKI-UHFFFAOYSA-N

> <PUBCHEM_SUBSTANCE_SYNONYM>
SCHEMBL16108811

> <PUBCHEM_XREF_EXT_ID>
SCHEMBL16108811

> <PUBCHEM_EXT_DATASOURCE_URL>
https://www.surechembl.org/

> <PUBCHEM_EXT_SUBSTANCE_URL>
https://www.surechembl.org/chemical/SCHEMBL16108811

> <PUBCHEM_CID_ASSOCIATIONS>
117600251  1

> <PUBCHEM_COORDINATE_TYPE>
1
3

$$$$
