310940183
  -OEChem-07211613022D

 38 41  0     1  0  0  0  0  0999 V2000
   -2.5355   -4.1641    0.0000 S   0  0  0  0  0  0  0  0  0  0  0  0
   -1.4043   -2.1552    0.0000 O   0  0  0  0  0  0  0  0  0  0  0  0
    0.8387    3.2084    0.0000 O   0  0  0  0  0  0  0  0  0  0  0  0
    2.2625    3.0719    0.0000 O   0  0  0  0  0  0  0  0  0  0  0  0
   -3.2377   -4.5932    0.0000 O   0  0  0  0  0  0  0  0  0  0  0  0
   -2.1260   -4.8858    0.0000 O   0  0  0  0  0  0  0  0  0  0  0  0
    0.7606   -0.4194    0.0000 N   0  0  0  0  0  0  0  0  0  0  0  0
    1.0142   -1.1995    0.0000 N   0  0  0  0  0  0  0  0  0  0  0  0
    1.4238    1.9016    0.0000 N   0  0  0  0  0  0  0  0  0  0  0  0
    0.3511   -2.5258    0.0000 N   0  0  0  0  0  0  0  0  0  0  0  0
   -1.6969   -0.7509    0.0000 N   0  0  0  0  0  0  0  0  0  0  0  0
    3.2377   -0.6924    0.0000 N   0  0  0  0  0  0  0  0  0  0  0  0
    1.2678    0.2243    0.0000 C   0  0  3  0  0  0  0  0  0  0  0  0
   -0.0780   -0.3999    0.0000 C   0  0  0  0  0  0  0  0  0  0  0  0
   -0.3511   -1.1800    0.0000 C   0  0  0  0  0  0  0  0  0  0  0  0
    0.3511   -1.6676    0.0000 C   0  0  0  0  0  0  0  0  0  0  0  0
    0.5852    0.7509    0.0000 C   0  0  3  0  0  0  0  0  0  0  0  0
    1.9894    0.5949    0.0000 C   0  0  0  0  0  0  0  0  0  0  0  0
   -1.1312   -1.3555    0.0000 C   0  0  0  0  0  0  0  0  0  0  0  0
    1.5993   -0.4779    0.0000 C   0  0  0  0  0  0  0  0  0  0  0  0
   -0.6241    0.2048    0.0000 C   0  0  0  0  0  0  0  0  0  0  0  0
    0.6826    1.5701    0.0000 C   0  0  0  0  0  0  0  0  0  0  0  0
    2.1064    1.4140    0.0000 C   0  0  0  0  0  0  0  0  0  0  0  0
   -1.4238    0.0292    0.0000 C   0  0  0  0  0  0  0  0  0  0  0  0
   -0.3706   -2.9159    0.0000 C   0  0  0  0  0  0  0  0  0  0  0  0
   -0.1561    0.4194    0.0000 C   0  0  0  0  0  0  0  0  0  0  0  0
    1.5018    2.7403    0.0000 C   0  0  0  0  0  0  0  0  0  0  0  0
    2.3990   -0.5949    0.0000 C   0  0  0  0  0  0  0  0  0  0  0  0
   -1.1117   -2.5258    0.0000 C   0  0  0  0  0  0  0  0  0  0  0  0
   -0.3901   -3.7545    0.0000 C   0  0  0  0  0  0  0  0  0  0  0  0
   -1.8334   -3.7545    0.0000 C   0  0  0  0  0  0  0  0  0  0  0  0
   -1.7944   -2.9159    0.0000 C   0  0  0  0  0  0  0  0  0  0  0  0
   -1.0727   -4.1446    0.0000 C   0  0  0  0  0  0  0  0  0  0  0  0
    0.9167    4.0666    0.0000 C   0  0  0  0  0  0  0  0  0  0  0  0
   -2.9451   -3.4815    0.0000 C   0  0  0  0  0  0  0  0  0  0  0  0
    1.0142    4.8858    0.0000 C   0  0  0  0  0  0  0  0  0  0  0  0
    0.2535    4.4957    0.0000 C   0  0  0  0  0  0  0  0  0  0  0  0
    1.6969    4.3982    0.0000 C   0  0  0  0  0  0  0  0  0  0  0  0
  1  5  2  0  0  0  0
  1  6  2  0  0  0  0
  1 31  1  0  0  0  0
  1 35  1  0  0  0  0
  2 19  2  0  0  0  0
  3 27  1  0  0  0  0
  3 34  1  0  0  0  0
  4 27  2  0  0  0  0
  7  8  1  0  0  0  0
  7 13  1  0  0  0  0
  7 14  1  0  0  0  0
  8 16  2  0  0  0  0
  9 22  1  0  0  0  0
  9 23  1  0  0  0  0
  9 27  1  0  0  0  0
 10 16  1  0  0  0  0
 10 25  1  0  0  0  0
 11 19  1  0  0  0  0
 11 24  1  0  0  0  0
 12 28  3  0  0  0  0
 13 17  1  0  0  0  0
 13 18  1  0  0  0  0
 13 20  1  1  0  0  0
 14 15  2  0  0  0  0
 14 21  1  0  0  0  0
 15 16  1  0  0  0  0
 15 19  1  0  0  0  0
 17 22  1  0  0  0  0
 17 26  1  6  0  0  0
 18 23  1  0  0  0  0
 20 28  1  0  0  0  0
 21 24  2  0  0  0  0
 25 29  2  0  0  0  0
 25 30  1  0  0  0  0
 29 32  1  0  0  0  0
 30 33  2  0  0  0  0
 31 32  2  0  0  0  0
 31 33  1  0  0  0  0
 34 36  1  0  0  0  0
 34 37  1  0  0  0  0
 34 38  1  0  0  0  0
M  END
> <PUBCHEM_COMPOUND_ID_TYPE>
0

> <PUBCHEM_TOTAL_CHARGE>
0

> <PUBCHEM_SUBSTANCE_ID>
310940183

> <PUBCHEM_SUBSTANCE_VERSION>
1

> <PUBCHEM_EXT_DATASOURCE_NAME>
4488

> <PUBCHEM_EXT_DATASOURCE_REGID>
SCHEMBL16118117

> <PUBCHEM_SUBSTANCE_COMMENT>
InChI=1S/C26H32N6O5S/c1-17-16-31(24(34)37-25(2,3)4)15-12-26(17,11-13-27)32-20-10-14-28-23(33)21(20)22(30-32)29-18-6-8-19(9-7-18)38(5,35)36/h6-10,14,17H,11-12,15-16H2,1-5H3,(H,28,33)(H,29,30)/t17-,26+/m1/s1
InChIKey=SVSICBNDPXKYPD-QUGAMOGWSA-N

> <PUBCHEM_SUBSTANCE_SYNONYM>
SCHEMBL16118117

> <PUBCHEM_XREF_EXT_ID>
SCHEMBL16118117

> <PUBCHEM_EXT_DATASOURCE_URL>
https://www.surechembl.org/

> <PUBCHEM_EXT_SUBSTANCE_URL>
https://www.surechembl.org/chemical/SCHEMBL16118117

> <PUBCHEM_CID_ASSOCIATIONS>
117607291  1

> <PUBCHEM_COORDINATE_TYPE>
1
3

> <PUBCHEM_BONDANNOTATIONS>
13  20  5
17  26  6

$$$$
