310938197
  -OEChem-07211613022D

 36 40  0     0  0  0  0  0  0999 V2000
    4.2467   -2.6262    0.0000 F   0  0  0  0  0  0  0  0  0  0  0  0
    0.0000   -6.7053    0.0000 O   0  0  0  0  0  0  0  0  0  0  0  0
    0.7264  -11.1754    0.0000 O   0  0  0  0  0  0  0  0  0  0  0  0
    2.8497   -1.8439    0.0000 N   0  0  0  0  0  0  0  0  0  0  0  0
    3.1850   -0.6147    0.0000 N   0  0  0  0  0  0  0  0  0  0  0  0
    2.1233   -3.0732    0.0000 N   0  0  0  0  0  0  0  0  0  0  0  0
    2.8497   -4.2467    0.0000 N   0  0  0  0  0  0  0  0  0  0  0  0
    1.3969   -4.3025    0.0000 N   0  0  0  0  0  0  0  0  0  0  0  0
    0.7264   -8.7168    0.0000 N   0  0  0  0  0  0  0  0  0  0  0  0
    2.1233   -1.3969    0.0000 C   0  0  0  0  0  0  0  0  0  0  0  0
    2.8497   -2.6262    0.0000 C   0  0  0  0  0  0  0  0  0  0  0  0
    2.4027   -0.6147    0.0000 C   0  0  0  0  0  0  0  0  0  0  0  0
    3.4644   -1.3969    0.0000 C   0  0  0  0  0  0  0  0  0  0  0  0
    3.5762   -3.0174    0.0000 C   0  0  0  0  0  0  0  0  0  0  0  0
    1.3411   -1.5646    0.0000 C   0  0  0  0  0  0  0  0  0  0  0  0
    2.1233   -3.8555    0.0000 C   0  0  0  0  0  0  0  0  0  0  0  0
    1.8439    0.0000    0.0000 C   0  0  0  0  0  0  0  0  0  0  0  0
    3.5203   -3.8555    0.0000 C   0  0  0  0  0  0  0  0  0  0  0  0
    0.7823   -0.9499    0.0000 C   0  0  0  0  0  0  0  0  0  0  0  0
    4.2467   -1.6204    0.0000 C   0  0  0  0  0  0  0  0  0  0  0  0
    1.0617   -0.1676    0.0000 C   0  0  0  0  0  0  0  0  0  0  0  0
    1.3969   -5.0848    0.0000 C   0  0  0  0  0  0  0  0  0  0  0  0
    0.7264   -5.4759    0.0000 C   0  0  0  0  0  0  0  0  0  0  0  0
    2.1233   -5.4759    0.0000 C   0  0  0  0  0  0  0  0  0  0  0  0
    0.7264   -6.3141    0.0000 C   0  0  0  0  0  0  0  0  0  0  0  0
    2.1233   -6.3141    0.0000 C   0  0  0  0  0  0  0  0  0  0  0  0
    1.4528   -6.7053    0.0000 C   0  0  0  0  0  0  0  0  0  0  0  0
    2.8497   -6.7053    0.0000 C   0  0  0  0  0  0  0  0  0  0  0  0
    0.0000   -7.5434    0.0000 C   0  0  0  0  0  0  0  0  0  0  0  0
    0.7264   -7.9345    0.0000 C   0  0  0  0  0  0  0  0  0  0  0  0
    1.4528   -9.1639    0.0000 C   0  0  0  0  0  0  0  0  0  0  0  0
    0.0000   -9.1639    0.0000 C   0  0  0  0  0  0  0  0  0  0  0  0
    0.7264  -10.3373    0.0000 C   0  0  0  0  0  0  0  0  0  0  0  0
    3.5203   -6.3141    0.0000 C   0  0  0  0  0  0  0  0  0  0  0  0
    1.4528   -9.9461    0.0000 C   0  0  0  0  0  0  0  0  0  0  0  0
    0.0000   -9.9461    0.0000 C   0  0  0  0  0  0  0  0  0  0  0  0
  1 14  1  0  0  0  0
  2 25  1  0  0  0  0
  2 29  1  0  0  0  0
  3 33  1  0  0  0  0
  4 10  1  0  0  0  0
  4 11  1  0  0  0  0
  4 13  1  0  0  0  0
  5 12  1  0  0  0  0
  5 13  2  0  0  0  0
  6 11  2  0  0  0  0
  6 16  1  0  0  0  0
  7 16  2  0  0  0  0
  7 18  1  0  0  0  0
  8 16  1  0  0  0  0
  8 22  1  0  0  0  0
  9 30  1  0  0  0  0
  9 31  1  0  0  0  0
  9 32  1  0  0  0  0
 10 12  2  0  0  0  0
 10 15  1  0  0  0  0
 11 14  1  0  0  0  0
 12 17  1  0  0  0  0
 13 20  1  0  0  0  0
 14 18  2  0  0  0  0
 15 19  2  0  0  0  0
 17 21  2  0  0  0  0
 19 21  1  0  0  0  0
 22 23  2  0  0  0  0
 22 24  1  0  0  0  0
 23 25  1  0  0  0  0
 24 26  2  0  0  0  0
 25 27  2  0  0  0  0
 26 27  1  0  0  0  0
 26 28  1  0  0  0  0
 28 34  1  0  0  0  0
 29 30  1  0  0  0  0
 31 35  1  0  0  0  0
 32 36  1  0  0  0  0
 33 35  1  0  0  0  0
 33 36  1  0  0  0  0
M  END
> <PUBCHEM_COMPOUND_ID_TYPE>
0

> <PUBCHEM_TOTAL_CHARGE>
0

> <PUBCHEM_SUBSTANCE_ID>
310938197

> <PUBCHEM_SUBSTANCE_VERSION>
1

> <PUBCHEM_EXT_DATASOURCE_NAME>
4488

> <PUBCHEM_EXT_DATASOURCE_REGID>
SCHEMBL16116052

> <PUBCHEM_SUBSTANCE_COMMENT>
InChI=1S/C27H31FN6O2/c1-3-19-14-20(16-22(15-19)36-13-12-33-10-8-21(35)9-11-33)31-27-29-17-23(28)26(32-27)34-18(2)30-24-6-4-5-7-25(24)34/h4-7,14-17,21,35H,3,8-13H2,1-2H3,(H,29,31,32)
InChIKey=YJYHMSYHIYEIGP-UHFFFAOYSA-N

> <PUBCHEM_SUBSTANCE_SYNONYM>
SCHEMBL16116052

> <PUBCHEM_XREF_EXT_ID>
SCHEMBL16116052

> <PUBCHEM_EXT_DATASOURCE_URL>
https://www.surechembl.org/

> <PUBCHEM_EXT_SUBSTANCE_URL>
https://www.surechembl.org/chemical/SCHEMBL16116052

> <PUBCHEM_CID_ASSOCIATIONS>
86300236  1

> <PUBCHEM_COORDINATE_TYPE>
1
3

$$$$
