310934825
  -OEChem-07211613022D

 27 29  0     0  0  0  0  0  0999 V2000
    4.4734   -0.7063    0.0000 S   0  0  0  0  0  0  0  0  0  0  0  0
    5.2974   -0.7063    0.0000 O   0  0  0  0  0  0  0  0  0  0  0  0
    4.8657    0.0000    0.0000 O   0  0  0  0  0  0  0  0  0  0  0  0
    1.5696    0.0000    0.0000 O   0  0  0  0  0  0  0  0  0  0  0  0
    1.5696   -1.4126    0.0000 O   0  0  0  0  0  0  0  0  0  0  0  0
    2.3936   -1.4519    0.0000 N   0  0  0  0  0  0  0  0  0  0  0  0
    2.7860   -0.7063    0.0000 C   0  0  0  0  0  0  0  0  0  0  0  0
    3.2177   -1.4126    0.0000 C   0  0  0  0  0  0  0  0  0  0  0  0
    3.2177    0.0000    0.0000 C   0  0  0  0  0  0  0  0  0  0  0  0
    1.9620   -0.7063    0.0000 C   0  0  0  0  0  0  0  0  0  0  0  0
    4.0417   -1.4126    0.0000 C   0  0  0  0  0  0  0  0  0  0  0  0
    4.0417    0.0000    0.0000 C   0  0  0  0  0  0  0  0  0  0  0  0
    2.8252   -2.1190    0.0000 C   0  0  0  0  0  0  0  0  0  0  0  0
    2.3936   -2.8645    0.0000 C   0  0  0  0  0  0  0  0  0  0  0  0
    1.6088   -2.8645    0.0000 C   0  0  0  0  0  0  0  0  0  0  0  0
    2.8252   -3.5708    0.0000 C   0  0  0  0  0  0  0  0  0  0  0  0
    1.6088   -4.2771    0.0000 C   0  0  0  0  0  0  0  0  0  0  0  0
    1.1772   -3.5708    0.0000 C   0  0  0  0  0  0  0  0  0  0  0  0
    2.4329   -4.2771    0.0000 C   0  0  0  0  0  0  0  0  0  0  0  0
    1.1772   -4.9835    0.0000 C   0  0  0  0  0  0  0  0  0  0  0  0
    1.6088   -5.6898    0.0000 C   0  0  0  0  0  0  0  0  0  0  0  0
    1.2164   -6.3961    0.0000 C   0  0  0  0  0  0  0  0  0  0  0  0
    1.6481   -7.1416    0.0000 C   0  0  0  0  0  0  0  0  0  0  0  0
    0.3924   -6.4354    0.0000 C   0  0  0  0  0  0  0  0  0  0  0  0
    1.2164   -7.8480    0.0000 C   0  0  0  0  0  0  0  0  0  0  0  0
    0.0000   -7.1416    0.0000 C   0  0  0  0  0  0  0  0  0  0  0  0
    0.3924   -7.8480    0.0000 C   0  0  0  0  0  0  0  0  0  0  0  0
  1  2  2  0  0  0  0
  1  3  2  0  0  0  0
  1 11  1  0  0  0  0
  1 12  1  0  0  0  0
  4 10  2  0  0  0  0
  5 10  1  0  0  0  0
  6  7  1  0  0  0  0
  6 13  1  0  0  0  0
  7  8  1  0  0  0  0
  7  9  1  0  0  0  0
  7 10  1  0  0  0  0
  8 11  1  0  0  0  0
  9 12  1  0  0  0  0
 13 14  1  0  0  0  0
 14 15  2  0  0  0  0
 14 16  1  0  0  0  0
 15 18  1  0  0  0  0
 16 19  2  0  0  0  0
 17 18  2  0  0  0  0
 17 19  1  0  0  0  0
 17 20  1  0  0  0  0
 20 21  3  0  0  0  0
 21 22  1  0  0  0  0
 22 23  2  0  0  0  0
 22 24  1  0  0  0  0
 23 25  1  0  0  0  0
 24 26  2  0  0  0  0
 25 27  2  0  0  0  0
 26 27  1  0  0  0  0
M  END
> <PUBCHEM_COMPOUND_ID_TYPE>
0

> <PUBCHEM_TOTAL_CHARGE>
0

> <PUBCHEM_SUBSTANCE_ID>
310934825

> <PUBCHEM_SUBSTANCE_VERSION>
1

> <PUBCHEM_EXT_DATASOURCE_NAME>
4488

> <PUBCHEM_EXT_DATASOURCE_REGID>
SCHEMBL16112331

> <PUBCHEM_SUBSTANCE_COMMENT>
InChI=1S/C21H21NO4S/c23-20(24)21(12-14-27(25,26)15-13-21)22-16-19-10-8-18(9-11-19)7-6-17-4-2-1-3-5-17/h1-5,8-11,22H,12-16H2,(H,23,24)
InChIKey=LWABQYZCEATIOG-UHFFFAOYSA-N

> <PUBCHEM_SUBSTANCE_SYNONYM>
SCHEMBL16112331

> <PUBCHEM_XREF_EXT_ID>
SCHEMBL16112331

> <PUBCHEM_EXT_DATASOURCE_URL>
https://www.surechembl.org/

> <PUBCHEM_EXT_SUBSTANCE_URL>
https://www.surechembl.org/chemical/SCHEMBL16112331

> <PUBCHEM_CID_ASSOCIATIONS>
117602969  1

> <PUBCHEM_COORDINATE_TYPE>
1
3

$$$$
