310948415
  -OEChem-07211613022D

 33 37  0     1  0  0  0  0  0999 V2000
    2.6824   -2.4326    0.0000 F   0  0  0  0  0  0  0  0  0  0  0  0
    3.2559   -3.3946    0.0000 F   0  0  0  0  0  0  0  0  0  0  0  0
    2.2569   -3.9496    0.0000 F   0  0  0  0  0  0  0  0  0  0  0  0
   -2.5530   -2.6546    0.0000 O   0  0  0  0  0  0  0  0  0  0  0  0
   -1.0360   -0.3237    0.0000 N   0  0  0  0  0  0  0  0  0  0  0  0
   -0.5550   -0.9897    0.0000 N   0  0  0  0  0  0  0  0  0  0  0  0
   -0.7770   -2.4512    0.0000 N   0  0  0  0  0  0  0  0  0  0  0  0
   -3.2559   -1.3967    0.0000 N   0  0  0  0  0  0  0  0  0  0  0  0
   -0.0555    2.8397    0.0000 N   0  0  0  0  0  0  0  0  0  0  0  0
    1.1284   -0.6013    0.0000 N   0  0  0  0  0  0  0  0  0  0  0  0
   -1.8130   -0.5642    0.0000 C   0  0  0  0  0  0  0  0  0  0  0  0
   -1.8315   -1.3967    0.0000 C   0  0  0  0  0  0  0  0  0  0  0  0
   -1.0360   -1.6557    0.0000 C   0  0  0  0  0  0  0  0  0  0  0  0
   -0.7770    0.4903    0.0000 C   0  0  3  0  0  0  0  0  0  0  0  0
   -2.5344   -1.7852    0.0000 C   0  0  0  0  0  0  0  0  0  0  0  0
    0.0370    0.6382    0.0000 C   0  0  3  0  0  0  0  0  0  0  0  0
   -2.5530   -0.1572    0.0000 C   0  0  0  0  0  0  0  0  0  0  0  0
   -1.3135    1.0822    0.0000 C   0  0  0  0  0  0  0  0  0  0  0  0
   -0.2590    2.0442    0.0000 C   0  0  3  0  0  0  0  0  0  0  0  0
    0.2775    1.4337    0.0000 C   0  0  0  0  0  0  0  0  0  0  0  0
    0.0370   -2.6177    0.0000 C   0  0  0  0  0  0  0  0  0  0  0  0
   -3.2374   -0.5642    0.0000 C   0  0  0  0  0  0  0  0  0  0  0  0
   -1.0545    1.8777    0.0000 C   0  0  0  0  0  0  0  0  0  0  0  0
    0.5919    0.0092    0.0000 C   0  0  0  0  0  0  0  0  0  0  0  0
    1.6464   -2.9506    0.0000 C   0  0  0  0  0  0  0  0  0  0  0  0
    0.2960   -3.3946    0.0000 C   0  0  0  0  0  0  0  0  0  0  0  0
    0.5919   -2.0072    0.0000 C   0  0  0  0  0  0  0  0  0  0  0  0
    2.4605   -3.1911    0.0000 C   0  0  0  0  0  0  0  0  0  0  0  0
    1.1099   -3.5612    0.0000 C   0  0  0  0  0  0  0  0  0  0  0  0
    1.4060   -2.1737    0.0000 C   0  0  0  0  0  0  0  0  0  0  0  0
    0.6475    3.2651    0.0000 C   0  0  0  0  0  0  0  0  0  0  0  0
   -0.4625    3.5427    0.0000 C   0  0  0  0  0  0  0  0  0  0  0  0
    0.2590    3.9496    0.0000 C   0  0  0  0  0  0  0  0  0  0  0  0
  1 28  1  0  0  0  0
  2 28  1  0  0  0  0
  3 28  1  0  0  0  0
  4 15  2  0  0  0  0
  5  6  1  0  0  0  0
  5 11  1  0  0  0  0
 14  5  1  6  0  0  0
  6 13  2  0  0  0  0
  7 13  1  0  0  0  0
  7 21  1  0  0  0  0
  8 15  1  0  0  0  0
  8 22  1  0  0  0  0
  9 19  1  0  0  0  0
  9 31  1  0  0  0  0
  9 32  1  0  0  0  0
 10 24  3  0  0  0  0
 11 12  2  0  0  0  0
 11 17  1  0  0  0  0
 12 13  1  0  0  0  0
 12 15  1  0  0  0  0
 14 16  1  0  0  0  0
 14 18  1  0  0  0  0
 16 20  1  0  0  0  0
 16 24  1  1  0  0  0
 17 22  2  0  0  0  0
 18 23  1  0  0  0  0
 19 20  1  1  0  0  0
 19 23  1  0  0  0  0
 21 26  2  0  0  0  0
 21 27  1  0  0  0  0
 25 28  1  0  0  0  0
 25 29  2  0  0  0  0
 25 30  1  0  0  0  0
 26 29  1  0  0  0  0
 27 30  2  0  0  0  0
 31 33  1  0  0  0  0
 32 33  1  0  0  0  0
M  END
> <PUBCHEM_COMPOUND_ID_TYPE>
0

> <PUBCHEM_TOTAL_CHARGE>
0

> <PUBCHEM_SUBSTANCE_ID>
310948415

> <PUBCHEM_SUBSTANCE_VERSION>
1

> <PUBCHEM_EXT_DATASOURCE_NAME>
4488

> <PUBCHEM_EXT_DATASOURCE_REGID>
SCHEMBL16126596

> <PUBCHEM_SUBSTANCE_COMMENT>
InChI=1S/C23H23F3N6O/c24-23(25,26)15-2-4-16(5-3-15)29-21-20-19(8-9-28-22(20)33)32(30-21)18-7-6-17(12-14(18)13-27)31-10-1-11-31/h2-5,8-9,14,17-18H,1,6-7,10-12H2,(H,28,33)(H,29,30)/t14-,17+,18+/m0/s1
InChIKey=VCQNYQGTTSUEIM-BMGDILEWSA-N

> <PUBCHEM_SUBSTANCE_SYNONYM>
SCHEMBL16126596

> <PUBCHEM_XREF_EXT_ID>
SCHEMBL16126596

> <PUBCHEM_EXT_DATASOURCE_URL>
https://www.surechembl.org/

> <PUBCHEM_EXT_SUBSTANCE_URL>
https://www.surechembl.org/chemical/SCHEMBL16126596

> <PUBCHEM_CID_ASSOCIATIONS>
117613976  1

> <PUBCHEM_COORDINATE_TYPE>
1
3

> <PUBCHEM_BONDANNOTATIONS>
16  24  5
19  20  5
14  5  6

$$$$
