310932550
  -OEChem-07211613022D

 31 34  0     0  0  0  0  0  0999 V2000
    7.4255   -0.6188    0.0000 F   0  0  0  0  0  0  0  0  0  0  0  0
    5.0682   -1.9448    0.0000 O   0  0  0  0  0  0  0  0  0  0  0  0
    0.9724   -3.6538    0.0000 O   0  0  0  0  0  0  0  0  0  0  0  0
    4.6851   -3.3592    0.0000 N   0  0  0  0  0  0  0  0  0  0  0  0
    5.0977   -4.0663    0.0000 N   0  0  0  0  0  0  0  0  0  0  0  0
    3.4181   -3.9190    0.0000 N   0  0  0  0  0  0  0  0  0  0  0  0
    1.1197   -2.2394    0.0000 N   0  0  0  0  0  0  0  0  0  0  0  0
    0.4715   -0.7367    0.0000 N   0  0  0  0  0  0  0  0  0  0  0  0
    8.8399   -0.6188    0.0000 N   0  0  0  0  0  0  0  0  0  0  0  0
    5.9817   -3.0940    0.0000 C   0  0  0  0  0  0  0  0  0  0  0  0
    5.2450   -2.7404    0.0000 C   0  0  0  0  0  0  0  0  0  0  0  0
    6.6888   -2.6814    0.0000 C   0  0  0  0  0  0  0  0  0  0  0  0
    3.8895   -3.2708    0.0000 C   0  0  0  0  0  0  0  0  0  0  0  0
    5.8933   -3.8895    0.0000 C   0  0  0  0  0  0  0  0  0  0  0  0
    7.4255   -3.0940    0.0000 C   0  0  0  0  0  0  0  0  0  0  0  0
    6.6888   -1.8564    0.0000 C   0  0  0  0  0  0  0  0  0  0  0  0
    7.4255   -1.4438    0.0000 C   0  0  0  0  0  0  0  0  0  0  0  0
    2.2689   -3.0940    0.0000 C   0  0  0  0  0  0  0  0  0  0  0  0
    8.1032   -1.8564    0.0000 C   0  0  0  0  0  0  0  0  0  0  0  0
    3.5654   -2.5046    0.0000 C   0  0  0  0  0  0  0  0  0  0  0  0
    8.1032   -2.6814    0.0000 C   0  0  0  0  0  0  0  0  0  0  0  0
    1.4438   -3.0056    0.0000 C   0  0  0  0  0  0  0  0  0  0  0  0
    2.5930   -3.8601    0.0000 C   0  0  0  0  0  0  0  0  0  0  0  0
    2.7404   -2.4457    0.0000 C   0  0  0  0  0  0  0  0  0  0  0  0
    7.4255   -3.8895    0.0000 C   0  0  0  0  0  0  0  0  0  0  0  0
    8.8399   -1.4438    0.0000 C   0  0  0  0  0  0  0  0  0  0  0  0
    1.6206   -1.5912    0.0000 C   0  0  0  0  0  0  0  0  0  0  0  0
    0.3241   -2.1510    0.0000 C   0  0  0  0  0  0  0  0  0  0  0  0
    0.0000   -1.4144    0.0000 C   0  0  0  0  0  0  0  0  0  0  0  0
    1.2965   -0.8251    0.0000 C   0  0  0  0  0  0  0  0  0  0  0  0
    0.1473    0.0000    0.0000 C   0  0  0  0  0  0  0  0  0  0  0  0
  1 17  1  0  0  0  0
  2 11  1  0  0  0  0
  3 22  2  0  0  0  0
  4  5  1  0  0  0  0
  4 11  1  0  0  0  0
  4 13  1  0  0  0  0
  5 14  2  0  0  0  0
  6 13  1  0  0  0  0
  6 23  2  0  0  0  0
  7 22  1  0  0  0  0
  7 27  1  0  0  0  0
  7 28  1  0  0  0  0
  8 29  1  0  0  0  0
  8 30  1  0  0  0  0
  8 31  1  0  0  0  0
  9 26  3  0  0  0  0
 10 11  2  0  0  0  0
 10 12  1  0  0  0  0
 10 14  1  0  0  0  0
 12 15  1  0  0  0  0
 12 16  2  0  0  0  0
 13 20  2  0  0  0  0
 15 21  2  0  0  0  0
 15 25  1  0  0  0  0
 16 17  1  0  0  0  0
 17 19  2  0  0  0  0
 18 22  1  0  0  0  0
 18 23  1  0  0  0  0
 18 24  2  0  0  0  0
 19 21  1  0  0  0  0
 19 26  1  0  0  0  0
 20 24  1  0  0  0  0
 27 30  1  0  0  0  0
 28 29  1  0  0  0  0
M  END
> <PUBCHEM_COMPOUND_ID_TYPE>
0

> <PUBCHEM_TOTAL_CHARGE>
0

> <PUBCHEM_SUBSTANCE_ID>
310932550

> <PUBCHEM_SUBSTANCE_VERSION>
1

> <PUBCHEM_EXT_DATASOURCE_NAME>
4488

> <PUBCHEM_EXT_DATASOURCE_REGID>
SCHEMBL16109927

> <PUBCHEM_SUBSTANCE_COMMENT>
InChI=1S/C22H21FN6O2/c1-14-9-16(11-24)19(23)10-17(14)18-13-26-29(22(18)31)20-4-3-15(12-25-20)21(30)28-7-5-27(2)6-8-28/h3-4,9-10,12-13,31H,5-8H2,1-2H3
InChIKey=XFQHZUOLRHLKJY-UHFFFAOYSA-N

> <PUBCHEM_SUBSTANCE_SYNONYM>
SCHEMBL16109927

> <PUBCHEM_XREF_EXT_ID>
SCHEMBL16109927

> <PUBCHEM_EXT_DATASOURCE_URL>
https://www.surechembl.org/

> <PUBCHEM_EXT_SUBSTANCE_URL>
https://www.surechembl.org/chemical/SCHEMBL16109927

> <PUBCHEM_CID_ASSOCIATIONS>
117601077  1

> <PUBCHEM_COORDINATE_TYPE>
1
3

$$$$
