310949711
  -OEChem-07211613022D

 23 24  0     0  0  0  0  0  0999 V2000
   -1.0793   -2.2985    0.0000 Cl  0  0  0  0  0  0  0  0  0  0  0  0
   -3.1980   -0.1932    0.0000 F   0  0  0  0  0  0  0  0  0  0  0  0
   -3.1847    0.6329    0.0000 F   0  0  0  0  0  0  0  0  0  0  0  0
   -2.4784    1.0593    0.0000 F   0  0  0  0  0  0  0  0  0  0  0  0
    1.0526   -1.0460    0.0000 O   0  0  0  0  0  0  0  0  0  0  0  0
    1.0660    2.2985    0.0000 O   0  0  0  0  0  0  0  0  0  0  0  0
    0.3597    1.0327    0.0000 O   0  0  0  0  0  0  0  0  0  0  0  0
    0.3464    0.2066    0.0000 N   0  0  0  0  0  0  0  0  0  0  0  0
   -1.7989   -0.2066    0.0000 C   0  0  0  0  0  0  0  0  0  0  0  0
   -2.5317    0.2332    0.0000 C   0  0  0  0  0  0  0  0  0  0  0  0
   -0.3731   -0.2199    0.0000 C   0  0  0  0  0  0  0  0  0  0  0  0
   -1.0926    0.1932    0.0000 C   0  0  0  0  0  0  0  0  0  0  0  0
    1.7589    0.2199    0.0000 C   0  0  0  0  0  0  0  0  0  0  0  0
    1.0660   -0.1932    0.0000 C   0  0  0  0  0  0  0  0  0  0  0  0
   -1.7722   -1.0460    0.0000 C   0  0  0  0  0  0  0  0  0  0  0  0
   -1.0793   -1.4724    0.0000 C   0  0  0  0  0  0  0  0  0  0  0  0
    1.7855    1.0327    0.0000 C   0  0  0  0  0  0  0  0  0  0  0  0
   -0.3731   -1.0460    0.0000 C   0  0  0  0  0  0  0  0  0  0  0  0
    2.4651   -0.2066    0.0000 C   0  0  0  0  0  0  0  0  0  0  0  0
    1.0660    1.4458    0.0000 C   0  0  0  0  0  0  0  0  0  0  0  0
    2.4784    1.4458    0.0000 C   0  0  0  0  0  0  0  0  0  0  0  0
    3.1847    0.2066    0.0000 C   0  0  0  0  0  0  0  0  0  0  0  0
    3.1980    1.0193    0.0000 C   0  0  0  0  0  0  0  0  0  0  0  0
  1 16  1  0  0  0  0
  2 10  1  0  0  0  0
  3 10  1  0  0  0  0
  4 10  1  0  0  0  0
  5 14  2  0  0  0  0
  6 20  2  0  0  0  0
  7 20  1  0  0  0  0
  8 11  1  0  0  0  0
  8 14  1  0  0  0  0
  9 10  1  0  0  0  0
  9 12  2  0  0  0  0
  9 15  1  0  0  0  0
 11 12  1  0  0  0  0
 11 18  2  0  0  0  0
 13 14  1  0  0  0  0
 13 17  1  0  0  0  0
 13 19  2  0  0  0  0
 15 16  2  0  0  0  0
 16 18  1  0  0  0  0
 17 20  1  0  0  0  0
 17 21  2  0  0  0  0
 19 22  1  0  0  0  0
 21 23  1  0  0  0  0
 22 23  2  0  0  0  0
M  END
> <PUBCHEM_COMPOUND_ID_TYPE>
0

> <PUBCHEM_TOTAL_CHARGE>
0

> <PUBCHEM_SUBSTANCE_ID>
310949711

> <PUBCHEM_SUBSTANCE_VERSION>
1

> <PUBCHEM_EXT_DATASOURCE_NAME>
4488

> <PUBCHEM_EXT_DATASOURCE_REGID>
SCHEMBL16127909

> <PUBCHEM_SUBSTANCE_COMMENT>
InChI=1S/C15H9ClF3NO3/c16-9-5-8(15(17,18)19)6-10(7-9)20-13(21)11-3-1-2-4-12(11)14(22)23/h1-7H,(H,20,21)(H,22,23)
InChIKey=YOHGCKVZCJDONQ-UHFFFAOYSA-N

> <PUBCHEM_SUBSTANCE_SYNONYM>
SCHEMBL16127909

> <PUBCHEM_XREF_EXT_ID>
SCHEMBL16127909

> <PUBCHEM_EXT_DATASOURCE_URL>
https://www.surechembl.org/

> <PUBCHEM_EXT_SUBSTANCE_URL>
https://www.surechembl.org/chemical/SCHEMBL16127909

> <PUBCHEM_CID_ASSOCIATIONS>
85472840  1

> <PUBCHEM_COORDINATE_TYPE>
1
3

$$$$
