310947522
  -OEChem-07211613022D

 14 15  0     1  0  0  0  0  0999 V2000
    0.4303    4.1598    0.0000 O   0  0  0  0  0  0  0  0  0  0  0  0
    0.8428    5.4294    0.0000 O   0  0  0  0  0  0  0  0  0  0  0  0
   -0.6496    5.9143    0.0000 O   0  0  0  0  0  0  0  0  0  0  0  0
   -0.2371    4.6448    0.0000 C   0  0  3  0  0  0  0  0  0  0  0  0
    0.0178    5.4294    0.0000 C   0  0  3  0  0  0  0  0  0  0  0  0
   -1.0621    4.6448    0.0000 C   0  0  3  0  0  0  0  0  0  0  0  0
    1.0978    4.6448    0.0000 C   0  0  0  0  0  0  0  0  0  0  0  0
   -1.3171    5.4294    0.0000 C   0  0  3  0  0  0  0  0  0  0  0  0
    0.4774    5.0573    0.0000 C   0  0  0  0  0  0  0  0  0  0  0  0
   -1.4746    3.9303    0.0000 C   0  0  0  0  0  0  0  0  0  0  0  0
    1.5103    3.9303    0.0000 C   0  0  0  0  0  0  0  0  0  0  0  0
    1.8122    5.0573    0.0000 C   0  0  0  0  0  0  0  0  0  0  0  0
   -2.1139    5.6429    0.0000 C   0  0  0  0  0  0  0  0  0  0  0  0
   -2.6973    5.0595    0.0000 C   0  0  0  0  0  0  0  0  0  0  0  0
  1  4  1  0  0  0  0
  1  7  1  0  0  0  0
  2  5  1  0  0  0  0
  2  7  1  0  0  0  0
  5  3  1  6  0  0  0
  3  8  1  0  0  0  0
  4  5  1  0  0  0  0
  4  6  1  0  0  0  0
  4  9  1  1  0  0  0
  6  8  1  0  0  0  0
  6 10  1  6  0  0  0
  7 11  1  0  0  0  0
  7 12  1  0  0  0  0
  8 13  1  1  0  0  0
 13 14  1  0  0  0  0
M  END
> <PUBCHEM_COMPOUND_ID_TYPE>
0

> <PUBCHEM_TOTAL_CHARGE>
0

> <PUBCHEM_SUBSTANCE_ID>
310947522

> <PUBCHEM_SUBSTANCE_VERSION>
1

> <PUBCHEM_EXT_DATASOURCE_NAME>
4488

> <PUBCHEM_EXT_DATASOURCE_REGID>
SCHEMBL16125684

> <PUBCHEM_SUBSTANCE_COMMENT>
InChI=1S/C11H20O3/c1-6-8-7(2)11(5)9(12-8)13-10(3,4)14-11/h7-9H,6H2,1-5H3/t7-,8-,9-,11-/m1/s1
InChIKey=OGTMQYIDBOCBBF-TURQNECASA-N

> <PUBCHEM_SUBSTANCE_SYNONYM>
SCHEMBL16125684

> <PUBCHEM_XREF_EXT_ID>
SCHEMBL16125684

> <PUBCHEM_EXT_DATASOURCE_URL>
https://www.surechembl.org/

> <PUBCHEM_EXT_SUBSTANCE_URL>
https://www.surechembl.org/chemical/SCHEMBL16125684

> <PUBCHEM_CID_ASSOCIATIONS>
117613244  1

> <PUBCHEM_COORDINATE_TYPE>
1
3

> <PUBCHEM_BONDANNOTATIONS>
5  3  6
4  9  5
6  10  6
8  13  5

$$$$
