310933253
  -OEChem-07211613022D

 27 30  0     1  0  0  0  0  0999 V2000
    4.9647   -6.6640    0.0000 O   0  0  0  0  0  0  0  0  0  0  0  0
    2.4657   -0.7330    0.0000 O   0  0  0  0  0  0  0  0  0  0  0  0
    6.2309   -3.8984    0.0000 N   0  0  0  0  0  0  0  0  0  0  0  0
    6.1309   -3.0654    0.0000 N   0  0  0  0  0  0  0  0  0  0  0  0
    3.6986   -2.8989    0.0000 N   0  0  0  0  0  0  0  0  0  0  0  0
    3.6986   -1.4328    0.0000 N   0  0  0  0  0  0  0  0  0  0  0  0
    2.4657   -2.1658    0.0000 N   0  0  0  0  0  0  0  0  0  0  0  0
    4.9313   -3.6319    0.0000 C   0  0  0  0  0  0  0  0  0  0  0  0
    5.4978   -4.2317    0.0000 C   0  0  0  0  0  0  0  0  0  0  0  0
    5.3646   -2.8656    0.0000 C   0  0  0  0  0  0  0  0  0  0  0  0
    5.3312   -5.0313    0.0000 C   0  0  0  0  0  0  0  0  0  0  0  0
    4.9313   -2.1658    0.0000 C   0  0  0  0  0  0  0  0  0  0  0  0
    4.0983   -3.5986    0.0000 C   0  0  0  0  0  0  0  0  0  0  0  0
    4.1317   -2.1658    0.0000 C   0  0  0  0  0  0  0  0  0  0  0  0
    4.5316   -5.2979    0.0000 C   0  0  0  0  0  0  0  0  0  0  0  0
    5.9310   -5.5978    0.0000 C   0  0  0  0  0  0  0  0  0  0  0  0
    2.8989   -1.4328    0.0000 C   0  0  0  0  0  0  0  0  0  0  0  0
    4.3649   -6.0976    0.0000 C   0  0  0  0  0  0  0  0  0  0  0  0
    5.7643   -6.3974    0.0000 C   0  0  0  0  0  0  0  0  0  0  0  0
    1.6327   -2.1658    0.0000 C   0  0  3  0  0  0  0  0  0  0  0  0
    1.2329   -1.4328    0.0000 C   0  0  0  0  0  0  0  0  0  0  0  0
    0.3999   -1.4328    0.0000 C   0  0  0  0  0  0  0  0  0  0  0  0
    1.6327   -0.7330    0.0000 C   0  0  0  0  0  0  0  0  0  0  0  0
    1.2329   -2.8656    0.0000 C   0  0  0  0  0  0  0  0  0  0  0  0
    0.0000   -0.7330    0.0000 C   0  0  0  0  0  0  0  0  0  0  0  0
    1.2329    0.0000    0.0000 C   0  0  0  0  0  0  0  0  0  0  0  0
    0.3999    0.0000    0.0000 C   0  0  0  0  0  0  0  0  0  0  0  0
  1 18  1  0  0  0  0
  1 19  1  0  0  0  0
  2 17  2  0  0  0  0
  3  4  1  0  0  0  0
  3  9  2  0  0  0  0
  4 10  1  0  0  0  0
  5 13  1  0  0  0  0
  5 14  2  0  0  0  0
  6 14  1  0  0  0  0
  6 17  1  0  0  0  0
  7 17  1  0  0  0  0
  7 20  1  0  0  0  0
  8  9  1  0  0  0  0
  8 10  1  0  0  0  0
  8 13  2  0  0  0  0
  9 11  1  0  0  0  0
 10 12  2  0  0  0  0
 11 15  2  0  0  0  0
 11 16  1  0  0  0  0
 12 14  1  0  0  0  0
 15 18  1  0  0  0  0
 16 19  1  0  0  0  0
 20 21  1  0  0  0  0
 20 24  1  6  0  0  0
 21 22  2  0  0  0  0
 21 23  1  0  0  0  0
 22 25  1  0  0  0  0
 23 26  2  0  0  0  0
 25 27  2  0  0  0  0
 26 27  1  0  0  0  0
M  END
> <PUBCHEM_COMPOUND_ID_TYPE>
0

> <PUBCHEM_TOTAL_CHARGE>
0

> <PUBCHEM_SUBSTANCE_ID>
310933253

> <PUBCHEM_SUBSTANCE_VERSION>
1

> <PUBCHEM_EXT_DATASOURCE_NAME>
4488

> <PUBCHEM_EXT_DATASOURCE_REGID>
SCHEMBL16110662

> <PUBCHEM_SUBSTANCE_COMMENT>
InChI=1S/C20H21N5O2/c1-13(14-5-3-2-4-6-14)22-20(26)23-18-11-17-16(12-21-18)19(25-24-17)15-7-9-27-10-8-15/h2-7,11-13H,8-10H2,1H3,(H,24,25)(H2,21,22,23,26)/t13-/m1/s1
InChIKey=LWZZFSHAAKKQMA-CYBMUJFWSA-N

> <PUBCHEM_SUBSTANCE_SYNONYM>
SCHEMBL16110662

> <PUBCHEM_XREF_EXT_ID>
SCHEMBL16110662

> <PUBCHEM_EXT_DATASOURCE_URL>
https://www.surechembl.org/

> <PUBCHEM_EXT_SUBSTANCE_URL>
https://www.surechembl.org/chemical/SCHEMBL16110662

> <PUBCHEM_CID_ASSOCIATIONS>
71555391  1

> <PUBCHEM_COORDINATE_TYPE>
1
3

> <PUBCHEM_BONDANNOTATIONS>
20  24  6

$$$$
