310933079
  -OEChem-07211613022D

 23 25  0     0  0  0  0  0  0999 V2000
    2.8714   -2.1106    0.0000 O   0  0  0  0  0  0  0  0  0  0  0  0
    0.1473   -2.3806    0.0000 O   0  0  0  0  0  0  0  0  0  0  0  0
    7.3626   -2.2088    0.0000 O   0  0  0  0  0  0  0  0  0  0  0  0
    6.6509   -3.4359    0.0000 O   0  0  0  0  0  0  0  0  0  0  0  0
    3.7795   -0.9572    0.0000 N   0  0  0  0  0  0  0  0  0  0  0  0
    3.6813   -0.1473    0.0000 N   0  0  0  0  0  0  0  0  0  0  0  0
    5.2030   -0.9572    0.0000 N   0  0  0  0  0  0  0  0  0  0  0  0
    0.0000   -0.9817    0.0000 N   0  0  0  0  0  0  0  0  0  0  0  0
    2.4542   -0.7117    0.0000 C   0  0  0  0  0  0  0  0  0  0  0  0
    3.0187   -1.3007    0.0000 C   0  0  0  0  0  0  0  0  0  0  0  0
    4.4912   -1.3743    0.0000 C   0  0  0  0  0  0  0  0  0  0  0  0
    1.6443   -0.7853    0.0000 C   0  0  0  0  0  0  0  0  0  0  0  0
    2.8714    0.0000    0.0000 C   0  0  0  0  0  0  0  0  0  0  0  0
    1.3253   -1.5707    0.0000 C   0  0  0  0  0  0  0  0  0  0  0  0
    4.4912   -2.2088    0.0000 C   0  0  0  0  0  0  0  0  0  0  0  0
    1.1780   -0.1473    0.0000 C   0  0  0  0  0  0  0  0  0  0  0  0
    5.9147   -2.2088    0.0000 C   0  0  0  0  0  0  0  0  0  0  0  0
    0.4908   -1.6198    0.0000 C   0  0  0  0  0  0  0  0  0  0  0  0
    5.9147   -1.3743    0.0000 C   0  0  0  0  0  0  0  0  0  0  0  0
    5.2030   -2.6014    0.0000 C   0  0  0  0  0  0  0  0  0  0  0  0
    0.3436   -0.1963    0.0000 C   0  0  0  0  0  0  0  0  0  0  0  0
    6.6509   -2.6014    0.0000 C   0  0  0  0  0  0  0  0  0  0  0  0
    0.6136   -3.0432    0.0000 C   0  0  0  0  0  0  0  0  0  0  0  0
  1 10  1  0  0  0  0
  2 18  1  0  0  0  0
  2 23  1  0  0  0  0
  3 22  2  0  0  0  0
  4 22  1  0  0  0  0
  5  6  1  0  0  0  0
  5 10  1  0  0  0  0
  5 11  1  0  0  0  0
  6 13  2  0  0  0  0
  7 11  2  0  0  0  0
  7 19  1  0  0  0  0
  8 18  1  0  0  0  0
  8 21  2  0  0  0  0
  9 10  2  0  0  0  0
  9 12  1  0  0  0  0
  9 13  1  0  0  0  0
 11 15  1  0  0  0  0
 12 14  1  0  0  0  0
 12 16  2  0  0  0  0
 14 18  2  0  0  0  0
 15 20  2  0  0  0  0
 16 21  1  0  0  0  0
 17 19  2  0  0  0  0
 17 20  1  0  0  0  0
 17 22  1  0  0  0  0
M  END
> <PUBCHEM_COMPOUND_ID_TYPE>
0

> <PUBCHEM_TOTAL_CHARGE>
0

> <PUBCHEM_SUBSTANCE_ID>
310933079

> <PUBCHEM_SUBSTANCE_VERSION>
1

> <PUBCHEM_EXT_DATASOURCE_NAME>
4488

> <PUBCHEM_EXT_DATASOURCE_REGID>
SCHEMBL16110481

> <PUBCHEM_SUBSTANCE_COMMENT>
InChI=1S/C15H12N4O4/c1-23-13-6-9(4-5-16-13)11-8-18-19(14(11)20)12-3-2-10(7-17-12)15(21)22/h2-8,20H,1H3,(H,21,22)
InChIKey=RVHURNNPGLCJNE-UHFFFAOYSA-N

> <PUBCHEM_SUBSTANCE_SYNONYM>
SCHEMBL16110481

> <PUBCHEM_XREF_EXT_ID>
SCHEMBL16110481

> <PUBCHEM_EXT_DATASOURCE_URL>
https://www.surechembl.org/

> <PUBCHEM_EXT_SUBSTANCE_URL>
https://www.surechembl.org/chemical/SCHEMBL16110481

> <PUBCHEM_CID_ASSOCIATIONS>
117601539  1

> <PUBCHEM_COORDINATE_TYPE>
1
3

$$$$
