310931612
  -OEChem-07211613022D

 20 22  0     0  0  0  0  0  0999 V2000
    0.4433   -1.4409    0.0000 N   0  0  0  0  0  0  0  0  0  0  0  0
    2.5271   -0.7315    0.0000 C   0  0  0  0  0  0  0  0  0  0  0  0
    1.6848   -0.7315    0.0000 C   0  0  0  0  0  0  0  0  0  0  0  0
    3.7464   -1.4409    0.0000 C   0  0  0  0  0  0  0  0  0  0  0  0
    2.9483   -1.4409    0.0000 C   0  0  0  0  0  0  0  0  0  0  0  0
    2.9483    0.0000    0.0000 C   0  0  0  0  0  0  0  0  0  0  0  0
    1.2635   -1.4409    0.0000 C   0  0  0  0  0  0  0  0  0  0  0  0
    1.2635   -0.0222    0.0000 C   0  0  0  0  0  0  0  0  0  0  0  0
    4.1675   -0.7315    0.0000 C   0  0  0  0  0  0  0  0  0  0  0  0
    3.7464    0.0000    0.0000 C   0  0  0  0  0  0  0  0  0  0  0  0
    4.1675   -2.1503    0.0000 C   0  0  0  0  0  0  0  0  0  0  0  0
    5.4090   -2.8596    0.0000 C   0  0  0  0  0  0  0  0  0  0  0  0
    5.0099   -2.1503    0.0000 C   0  0  0  0  0  0  0  0  0  0  0  0
    0.4433   -0.0222    0.0000 C   0  0  0  0  0  0  0  0  0  0  0  0
    0.0000   -0.7315    0.0000 C   0  0  0  0  0  0  0  0  0  0  0  0
    6.2513   -2.8596    0.0000 C   0  0  0  0  0  0  0  0  0  0  0  0
    5.0099   -3.5912    0.0000 C   0  0  0  0  0  0  0  0  0  0  0  0
    6.6503   -3.5912    0.0000 C   0  0  0  0  0  0  0  0  0  0  0  0
    5.4311   -4.3005    0.0000 C   0  0  0  0  0  0  0  0  0  0  0  0
    6.2292   -4.3005    0.0000 C   0  0  0  0  0  0  0  0  0  0  0  0
  1  7  1  0  0  0  0
  1 15  2  0  0  0  0
  2  3  1  0  0  0  0
  2  5  1  0  0  0  0
  2  6  2  0  0  0  0
  3  7  2  0  0  0  0
  3  8  1  0  0  0  0
  4  5  2  0  0  0  0
  4  9  1  0  0  0  0
  4 11  1  0  0  0  0
  6 10  1  0  0  0  0
  8 14  2  0  0  0  0
  9 10  2  0  0  0  0
 11 13  3  0  0  0  0
 12 13  1  0  0  0  0
 12 16  2  0  0  0  0
 12 17  1  0  0  0  0
 14 15  1  0  0  0  0
 16 18  1  0  0  0  0
 17 19  2  0  0  0  0
 18 20  2  0  0  0  0
 19 20  1  0  0  0  0
M  END
> <PUBCHEM_COMPOUND_ID_TYPE>
0

> <PUBCHEM_TOTAL_CHARGE>
0

> <PUBCHEM_SUBSTANCE_ID>
310931612

> <PUBCHEM_SUBSTANCE_VERSION>
1

> <PUBCHEM_EXT_DATASOURCE_NAME>
4488

> <PUBCHEM_EXT_DATASOURCE_REGID>
SCHEMBL16108938

> <PUBCHEM_SUBSTANCE_COMMENT>
InChI=1S/C19H13N/c1-2-6-16(7-3-1)11-12-17-8-4-9-18(14-17)19-10-5-13-20-15-19/h1-10,13-15H
InChIKey=VLLKWYYEPXTXSE-UHFFFAOYSA-N

> <PUBCHEM_SUBSTANCE_SYNONYM>
SCHEMBL16108938

> <PUBCHEM_XREF_EXT_ID>
SCHEMBL16108938

> <PUBCHEM_EXT_DATASOURCE_URL>
https://www.surechembl.org/

> <PUBCHEM_EXT_SUBSTANCE_URL>
https://www.surechembl.org/chemical/SCHEMBL16108938

> <PUBCHEM_CID_ASSOCIATIONS>
117600334  1

> <PUBCHEM_COORDINATE_TYPE>
1
3

$$$$
