310948128
  -OEChem-07211613022D

 34 38  0     1  0  0  0  0  0999 V2000
    1.9737    3.4368    0.0000 F   0  0  0  0  0  0  0  0  0  0  0  0
    2.7881    2.7052    0.0000 F   0  0  0  0  0  0  0  0  0  0  0  0
   -2.7881    1.9462    0.0000 O   0  0  0  0  0  0  0  0  0  0  0  0
   -1.1456   -3.3402    0.0000 O   0  0  0  0  0  0  0  0  0  0  0  0
   -0.0138    1.7943    0.0000 N   0  0  0  0  0  0  0  0  0  0  0  0
   -0.3588    1.0352    0.0000 N   0  0  0  0  0  0  0  0  0  0  0  0
   -1.7391    0.5107    0.0000 N   0  0  0  0  0  0  0  0  0  0  0  0
   -2.0566    3.1746    0.0000 N   0  0  0  0  0  0  0  0  0  0  0  0
    0.0552   -2.8295    0.0000 N   0  0  0  0  0  0  0  0  0  0  0  0
    1.2284   -0.2484    0.0000 N   0  0  0  0  0  0  0  0  0  0  0  0
   -0.6349    2.3464    0.0000 C   0  0  0  0  0  0  0  0  0  0  0  0
   -1.3527    1.9462    0.0000 C   0  0  0  0  0  0  0  0  0  0  0  0
    0.8005    1.9599    0.0000 C   0  0  3  0  0  0  0  0  0  0  0  0
   -1.1870    1.1318    0.0000 C   0  0  0  0  0  0  0  0  0  0  0  0
    1.4216    1.4079    0.0000 C   0  0  3  0  0  0  0  0  0  0  0  0
    1.9599    2.6363    0.0000 C   0  0  0  0  0  0  0  0  0  0  0  0
   -2.0703    2.3740    0.0000 C   0  0  0  0  0  0  0  0  0  0  0  0
    1.1456    2.7052    0.0000 C   0  0  0  0  0  0  0  0  0  0  0  0
   -0.6211    3.1607    0.0000 C   0  0  0  0  0  0  0  0  0  0  0  0
    2.1255    1.8081    0.0000 C   0  0  0  0  0  0  0  0  0  0  0  0
   -1.4906   -0.2622    0.0000 C   0  0  0  0  0  0  0  0  0  0  0  0
   -1.3527    3.5886    0.0000 C   0  0  0  0  0  0  0  0  0  0  0  0
    1.3250    0.5797    0.0000 C   0  0  0  0  0  0  0  0  0  0  0  0
   -0.9800   -1.8357    0.0000 C   0  0  0  0  0  0  0  0  0  0  0  0
   -0.6763   -0.4417    0.0000 C   0  0  0  0  0  0  0  0  0  0  0  0
   -0.4279   -1.2284    0.0000 C   0  0  0  0  0  0  0  0  0  0  0  0
   -2.0289   -0.8696    0.0000 C   0  0  0  0  0  0  0  0  0  0  0  0
   -0.7315   -2.6086    0.0000 C   0  0  0  0  0  0  0  0  0  0  0  0
   -1.7943   -1.6563    0.0000 C   0  0  0  0  0  0  0  0  0  0  0  0
    0.4003   -1.3940    0.0000 C   0  0  0  0  0  0  0  0  0  0  0  0
    0.3588   -3.5886    0.0000 C   0  0  0  0  0  0  0  0  0  0  0  0
    0.6901   -2.3188    0.0000 C   0  0  0  0  0  0  0  0  0  0  0  0
    1.1594   -3.5610    0.0000 C   0  0  0  0  0  0  0  0  0  0  0  0
    1.3802   -2.7743    0.0000 C   0  0  0  0  0  0  0  0  0  0  0  0
  1 16  1  0  0  0  0
  2 16  1  0  0  0  0
  3 17  2  0  0  0  0
  4 28  2  0  0  0  0
  5  6  1  0  0  0  0
  5 11  1  0  0  0  0
 13  5  1  1  0  0  0
  6 14  2  0  0  0  0
  7 14  1  0  0  0  0
  7 21  1  0  0  0  0
  8 17  1  0  0  0  0
  8 22  1  0  0  0  0
  9 28  1  0  0  0  0
  9 31  1  0  0  0  0
  9 32  1  0  0  0  0
 10 23  3  0  0  0  0
 11 12  2  0  0  0  0
 11 19  1  0  0  0  0
 12 14  1  0  0  0  0
 12 17  1  0  0  0  0
 13 15  1  0  0  0  0
 13 18  1  0  0  0  0
 15 20  1  0  0  0  0
 15 23  1  1  0  0  0
 16 18  1  0  0  0  0
 16 20  1  0  0  0  0
 19 22  2  0  0  0  0
 21 25  1  0  0  0  0
 21 27  2  0  0  0  0
 24 26  1  0  0  0  0
 24 28  1  0  0  0  0
 24 29  2  0  0  0  0
 25 26  2  0  0  0  0
 26 30  1  0  0  0  0
 27 29  1  0  0  0  0
 31 33  1  0  0  0  0
 32 34  1  0  0  0  0
 33 34  1  0  0  0  0
M  END
> <PUBCHEM_COMPOUND_ID_TYPE>
0

> <PUBCHEM_TOTAL_CHARGE>
0

> <PUBCHEM_SUBSTANCE_ID>
310948128

> <PUBCHEM_SUBSTANCE_VERSION>
1

> <PUBCHEM_EXT_DATASOURCE_NAME>
4488

> <PUBCHEM_EXT_DATASOURCE_REGID>
SCHEMBL16126304

> <PUBCHEM_SUBSTANCE_COMMENT>
InChI=1S/C24H24F2N6O2/c1-14-10-16(4-5-17(14)23(34)31-8-2-3-9-31)29-21-20-18(6-7-28-22(20)33)32(30-21)19-12-24(25,26)11-15(19)13-27/h4-7,10,15,19H,2-3,8-9,11-12H2,1H3,(H,28,33)(H,29,30)/t15-,19-/m0/s1
InChIKey=IIBGSSDECOOUPY-KXBFYZLASA-N

> <PUBCHEM_SUBSTANCE_SYNONYM>
SCHEMBL16126304

> <PUBCHEM_XREF_EXT_ID>
SCHEMBL16126304

> <PUBCHEM_EXT_DATASOURCE_URL>
https://www.surechembl.org/

> <PUBCHEM_EXT_SUBSTANCE_URL>
https://www.surechembl.org/chemical/SCHEMBL16126304

> <PUBCHEM_CID_ASSOCIATIONS>
117613745  1

> <PUBCHEM_COORDINATE_TYPE>
1
3

> <PUBCHEM_BONDANNOTATIONS>
15  23  5
13  5  5

$$$$
