310945915
  -OEChem-07211613022D

 46 50  0     1  0  0  0  0  0999 V2000
    5.2663   -1.0106    0.0000 O   0  0  0  0  0  0  0  0  0  0  0  0
    4.1388    0.9419    0.0000 O   0  0  0  0  0  0  0  0  0  0  0  0
    1.7738   -0.9969    0.0000 O   0  0  0  0  0  0  0  0  0  0  0  0
   -3.5338    0.9419    0.0000 O   0  0  0  0  0  0  0  0  0  0  0  0
   -0.5775    0.9419    0.0000 O   0  0  0  0  0  0  0  0  0  0  0  0
   -2.7226   -1.1206    0.0000 O   0  0  0  0  0  0  0  0  0  0  0  0
    0.8525   -2.3581    0.0000 O   0  0  0  0  0  0  0  0  0  0  0  0
    3.9326    2.7156    0.0000 O   0  0  0  0  0  0  0  0  0  0  0  0
    2.5025    0.2544    0.0000 N   0  0  0  0  0  0  0  0  0  0  0  0
    0.1375   -0.2819    0.0000 N   0  0  0  0  0  0  0  0  0  0  0  0
   -2.0075    0.1307    0.0000 N   0  0  0  0  0  0  0  0  0  0  0  0
   -0.5775   -1.5194    0.0000 N   0  0  0  0  0  0  0  0  0  0  0  0
   -4.3313    1.1206    0.0000 N   0  0  0  0  0  0  0  0  0  0  0  0
    4.8676   -0.2682    0.0000 C   0  0  3  0  0  0  0  0  0  0  0  0
    4.0838    0.1307    0.0000 C   0  0  0  0  0  0  0  0  0  0  0  0
    4.4689   -0.9832    0.0000 C   0  0  0  0  0  0  0  0  0  0  0  0
    3.4513   -0.2544    0.0000 C   0  0  3  0  0  0  0  0  0  0  0  0
    5.5826    0.1444    0.0000 C   0  0  0  0  0  0  0  0  0  0  0  0
    3.4513   -1.3544    0.0000 C   0  0  0  0  0  0  0  0  0  0  0  0
    1.7875   -0.1169    0.0000 C   0  0  0  0  0  0  0  0  0  0  0  0
    1.0725    0.2682    0.0000 C   0  0  3  0  0  0  0  0  0  0  0  0
    2.7088   -1.7394    0.0000 C   0  0  0  0  0  0  0  0  0  0  0  0
   -0.5775    0.1307    0.0000 C   0  0  0  0  0  0  0  0  0  0  0  0
   -1.2788   -0.2544    0.0000 C   0  0  3  0  0  0  0  0  0  0  0  0
    1.0725    1.0932    0.0000 C   0  0  0  0  0  0  0  0  0  0  0  0
   -2.7088   -0.2406    0.0000 C   0  0  0  0  0  0  0  0  0  0  0  0
   -3.4513    0.1444    0.0000 C   0  0  0  0  0  0  0  0  0  0  0  0
    1.7875    1.5056    0.0000 C   0  0  0  0  0  0  0  0  0  0  0  0
    1.9525   -1.4369    0.0000 C   0  0  0  0  0  0  0  0  0  0  0  0
    2.6125   -2.5644    0.0000 C   0  0  0  0  0  0  0  0  0  0  0  0
   -1.2788   -1.0932    0.0000 C   0  0  0  0  0  0  0  0  0  0  0  0
   -4.1938   -0.1856    0.0000 C   0  0  0  0  0  0  0  0  0  0  0  0
   -4.7576    0.4331    0.0000 C   0  0  0  0  0  0  0  0  0  0  0  0
    1.4163   -2.0282    0.0000 C   0  0  0  0  0  0  0  0  0  0  0  0
    1.8288   -2.7294    0.0000 C   0  0  0  0  0  0  0  0  0  0  0  0
    1.8013    2.3306    0.0000 C   0  0  0  0  0  0  0  0  0  0  0  0
    2.5025    1.1069    0.0000 C   0  0  0  0  0  0  0  0  0  0  0  0
    3.2175    2.3306    0.0000 C   0  0  0  0  0  0  0  0  0  0  0  0
    2.4888    2.7294    0.0000 C   0  0  0  0  0  0  0  0  0  0  0  0
    3.2175    1.5056    0.0000 C   0  0  0  0  0  0  0  0  0  0  0  0
   -0.5775   -2.3306    0.0000 C   0  0  0  0  0  0  0  0  0  0  0  0
    0.1237   -1.0932    0.0000 C   0  0  0  0  0  0  0  0  0  0  0  0
   -5.5826    0.3231    0.0000 C   0  0  0  0  0  0  0  0  0  0  0  0
    0.1650   -2.7294    0.0000 C   0  0  0  0  0  0  0  0  0  0  0  0
    0.8525   -1.5056    0.0000 C   0  0  0  0  0  0  0  0  0  0  0  0
    4.6751    2.3169    0.0000 C   0  0  0  0  0  0  0  0  0  0  0  0
  1 14  1  0  0  0  0
  1 16  1  0  0  0  0
  2 15  2  0  0  0  0
  3 20  2  0  0  0  0
  4 13  1  0  0  0  0
  4 27  1  0  0  0  0
  5 23  2  0  0  0  0
  6 26  2  0  0  0  0
  7 44  1  0  0  0  0
  7 45  1  0  0  0  0
  8 38  1  0  0  0  0
  8 46  1  0  0  0  0
 17  9  1  6  0  0  0
  9 20  1  0  0  0  0
 21 10  1  1  0  0  0
 10 23  1  0  0  0  0
 24 11  1  1  0  0  0
 11 26  1  0  0  0  0
 12 31  1  0  0  0  0
 12 41  1  0  0  0  0
 12 42  1  0  0  0  0
 13 33  2  0  0  0  0
 14 15  1  6  0  0  0
 14 16  1  0  0  0  0
 14 18  1  1  0  0  0
 15 17  1  0  0  0  0
 17 19  1  0  0  0  0
 19 22  1  0  0  0  0
 20 21  1  0  0  0  0
 21 25  1  0  0  0  0
 22 29  1  0  0  0  0
 22 30  1  0  0  0  0
 23 24  1  0  0  0  0
 24 31  1  0  0  0  0
 25 28  1  0  0  0  0
 26 27  1  0  0  0  0
 27 32  2  0  0  0  0
 28 36  2  0  0  0  0
 28 37  1  0  0  0  0
 29 34  1  0  0  0  0
 30 35  1  0  0  0  0
 32 33  1  0  0  0  0
 33 43  1  0  0  0  0
 34 35  1  0  0  0  0
 36 39  1  0  0  0  0
 37 40  2  0  0  0  0
 38 39  2  0  0  0  0
 38 40  1  0  0  0  0
 41 44  1  0  0  0  0
 42 45  1  0  0  0  0
M  END
> <PUBCHEM_COMPOUND_ID_TYPE>
0

> <PUBCHEM_TOTAL_CHARGE>
0

> <PUBCHEM_SUBSTANCE_ID>
310945915

> <PUBCHEM_SUBSTANCE_VERSION>
1

> <PUBCHEM_EXT_DATASOURCE_NAME>
4488

> <PUBCHEM_EXT_DATASOURCE_REGID>
SCHEMBL16124020

> <PUBCHEM_SUBSTANCE_COMMENT>
InChI=1S/C33H45N5O8/c1-21-16-28(46-37-21)32(42)36-27(19-38-12-14-44-15-13-38)31(41)35-26(18-23-8-10-24(43-3)11-9-23)30(40)34-25(17-22-6-4-5-7-22)29(39)33(2)20-45-33/h8-11,16,22,25-27H,4-7,12-15,17-20H2,1-3H3,(H,34,40)(H,35,41)(H,36,42)/t25-,26-,27+,33+/m0/s1
InChIKey=QCQDDRIVVMHWRO-SQQWPVGBSA-N

> <PUBCHEM_SUBSTANCE_SYNONYM>
SCHEMBL16124020

> <PUBCHEM_XREF_EXT_ID>
SCHEMBL16124020

> <PUBCHEM_EXT_DATASOURCE_URL>
https://www.surechembl.org/

> <PUBCHEM_EXT_SUBSTANCE_URL>
https://www.surechembl.org/chemical/SCHEMBL16124020

> <PUBCHEM_CID_ASSOCIATIONS>
117611898  1

> <PUBCHEM_COORDINATE_TYPE>
1
3

> <PUBCHEM_BONDANNOTATIONS>
21  10  5
24  11  5
14  15  6
14  18  5
17  9  6

$$$$
