310934275
  -OEChem-07211613022D

 28 32  0     1  0  0  0  0  0999 V2000
    0.7846    0.6674    0.0000 S   0  0  0  0  0  0  0  0  0  0  0  0
   -5.0924   -3.7013    0.0000 F   0  0  0  0  0  0  0  0  0  0  0  0
   -3.7948    0.2840    0.0000 O   0  0  0  0  0  0  0  0  0  0  0  0
   -4.8227   -0.7087    0.0000 O   0  0  0  0  0  0  0  0  0  0  0  0
    0.7846   -0.6674    0.0000 N   0  0  0  0  0  0  0  0  0  0  0  0
   -3.4491   -1.1026    0.0000 C   0  0  3  0  0  0  0  0  0  0  0  0
   -4.3779   -1.6388    0.0000 C   0  0  0  0  0  0  0  0  0  0  0  0
   -2.1434   -0.8250    0.0000 C   0  0  3  0  0  0  0  0  0  0  0  0
   -2.8971   -0.4895    0.0000 C   0  0  0  0  0  0  0  0  0  0  0  0
   -1.4290   -0.4125    0.0000 C   0  0  0  0  0  0  0  0  0  0  0  0
   -3.0366   -1.8170    0.0000 C   0  0  0  0  0  0  0  0  0  0  0  0
   -4.0222   -0.5091    0.0000 C   0  0  0  0  0  0  0  0  0  0  0  0
    0.0000   -0.4125    0.0000 C   0  0  0  0  0  0  0  0  0  0  0  0
    0.0000    0.4125    0.0000 C   0  0  0  0  0  0  0  0  0  0  0  0
   -2.2296   -1.6455    0.0000 C   0  0  0  0  0  0  0  0  0  0  0  0
   -4.3779   -2.4638    0.0000 C   0  0  0  0  0  0  0  0  0  0  0  0
    1.2696    0.0000    0.0000 C   0  0  0  0  0  0  0  0  0  0  0  0
   -0.7144   -0.8250    0.0000 C   0  0  0  0  0  0  0  0  0  0  0  0
    2.0946    0.0000    0.0000 C   0  0  0  0  0  0  0  0  0  0  0  0
   -5.0924   -1.2263    0.0000 C   0  0  0  0  0  0  0  0  0  0  0  0
   -1.4290    0.4125    0.0000 C   0  0  0  0  0  0  0  0  0  0  0  0
   -0.7144    0.8250    0.0000 C   0  0  0  0  0  0  0  0  0  0  0  0
   -5.0924   -2.8763    0.0000 C   0  0  0  0  0  0  0  0  0  0  0  0
    2.8090    0.4125    0.0000 C   0  0  0  0  0  0  0  0  0  0  0  0
    2.8090   -0.4125    0.0000 C   0  0  0  0  0  0  0  0  0  0  0  0
   -5.8069   -1.6388    0.0000 C   0  0  0  0  0  0  0  0  0  0  0  0
   -5.8069   -2.4638    0.0000 C   0  0  0  0  0  0  0  0  0  0  0  0
   -3.6635   -2.8763    0.0000 C   0  0  0  0  0  0  0  0  0  0  0  0
  1 14  1  0  0  0  0
  1 17  1  0  0  0  0
  2 23  1  0  0  0  0
  3 12  2  0  0  0  0
  4 12  1  0  0  0  0
  5 13  1  0  0  0  0
  5 17  2  0  0  0  0
  6  7  1  0  0  0  0
  6  9  1  0  0  0  0
  6 11  1  0  0  0  0
  6 12  1  6  0  0  0
  7 16  1  0  0  0  0
  7 20  2  0  0  0  0
  8  9  1  0  0  0  0
  8 10  1  0  0  0  0
  8 15  1  0  0  0  0
 10 18  1  0  0  0  0
 10 21  2  0  0  0  0
 11 15  1  0  0  0  0
 13 14  1  0  0  0  0
 13 18  2  0  0  0  0
 14 22  2  0  0  0  0
 16 23  2  0  0  0  0
 16 28  1  0  0  0  0
 17 19  1  0  0  0  0
 19 24  1  0  0  0  0
 19 25  1  0  0  0  0
 20 26  1  0  0  0  0
 21 22  1  0  0  0  0
 23 27  1  0  0  0  0
 24 25  1  0  0  0  0
 26 27  2  0  0  0  0
M  END
> <PUBCHEM_COMPOUND_ID_TYPE>
0

> <PUBCHEM_TOTAL_CHARGE>
0

> <PUBCHEM_SUBSTANCE_ID>
310934275

> <PUBCHEM_SUBSTANCE_VERSION>
1

> <PUBCHEM_EXT_DATASOURCE_NAME>
4488

> <PUBCHEM_EXT_DATASOURCE_REGID>
SCHEMBL16111733

> <PUBCHEM_SUBSTANCE_COMMENT>
InChI=1S/C23H22FNO2S/c1-13-17(3-2-4-18(13)24)23(22(26)27)10-9-16(12-23)15-7-8-20-19(11-15)25-21(28-20)14-5-6-14/h2-4,7-8,11,14,16H,5-6,9-10,12H2,1H3,(H,26,27)/t16?,23-/m0/s1
InChIKey=XNAJAGSVFCDEMW-KESSSICBSA-N

> <PUBCHEM_SUBSTANCE_SYNONYM>
SCHEMBL16111733

> <PUBCHEM_XREF_EXT_ID>
SCHEMBL16111733

> <PUBCHEM_EXT_DATASOURCE_URL>
https://www.surechembl.org/

> <PUBCHEM_EXT_SUBSTANCE_URL>
https://www.surechembl.org/chemical/SCHEMBL16111733

> <PUBCHEM_CID_ASSOCIATIONS>
117602527  1

> <PUBCHEM_COORDINATE_TYPE>
1
3

> <PUBCHEM_BONDANNOTATIONS>
6  12  6

$$$$
