310941249
  -OEChem-07211613022D

 41 44  0     1  0  0  0  0  0999 V2000
    5.0916    0.6720    0.0000 O   0  0  0  0  0  0  0  0  0  0  0  0
    3.9555   -1.2815    0.0000 O   0  0  0  0  0  0  0  0  0  0  0  0
    1.8081    0.7828    0.0000 O   0  0  0  0  0  0  0  0  0  0  0  0
   -0.3533   -1.2815    0.0000 O   0  0  0  0  0  0  0  0  0  0  0  0
   -2.5145    0.7828    0.0000 O   0  0  0  0  0  0  0  0  0  0  0  0
    3.9555   -2.9441    0.0000 O   0  0  0  0  0  0  0  0  0  0  0  0
    2.5284   -0.4503    0.0000 N   0  0  0  0  0  0  0  0  0  0  0  0
    0.3672   -0.0346    0.0000 N   0  0  0  0  0  0  0  0  0  0  0  0
   -1.7942   -0.4503    0.0000 N   0  0  0  0  0  0  0  0  0  0  0  0
   -4.5512   -0.7274    0.0000 N   0  0  3  0  0  0  0  0  0  0  0  0
    4.6760   -0.0208    0.0000 C   0  0  3  0  0  0  0  0  0  0  0  0
    3.9555   -0.4365    0.0000 C   0  0  0  0  0  0  0  0  0  0  0  0
    4.2879    0.6858    0.0000 C   0  0  0  0  0  0  0  0  0  0  0  0
    3.2489   -0.0208    0.0000 C   0  0  3  0  0  0  0  0  0  0  0  0
    5.3825   -0.4226    0.0000 C   0  0  0  0  0  0  0  0  0  0  0  0
    3.2489    1.2954    0.0000 C   0  0  0  0  0  0  0  0  0  0  0  0
    1.8081   -0.0485    0.0000 C   0  0  0  0  0  0  0  0  0  0  0  0
    1.1014   -0.4365    0.0000 C   0  0  3  0  0  0  0  0  0  0  0  0
    2.5145    1.7249    0.0000 C   0  0  0  0  0  0  0  0  0  0  0  0
    1.0737   -1.2815    0.0000 C   0  0  0  0  0  0  0  0  0  0  0  0
   -0.3533   -0.4226    0.0000 C   0  0  0  0  0  0  0  0  0  0  0  0
    1.8081   -1.6833    0.0000 C   0  0  0  0  0  0  0  0  0  0  0  0
   -1.0737   -0.0346    0.0000 C   0  0  3  0  0  0  0  0  0  0  0  0
    2.5145    2.5423    0.0000 C   0  0  0  0  0  0  0  0  0  0  0  0
    1.7804    1.3093    0.0000 C   0  0  0  0  0  0  0  0  0  0  0  0
   -3.2351   -0.4503    0.0000 C   0  0  3  0  0  0  0  0  0  0  0  0
   -2.4592   -0.0485    0.0000 C   0  0  0  0  0  0  0  0  0  0  0  0
    1.8081   -2.5145    0.0000 C   0  0  0  0  0  0  0  0  0  0  0  0
    2.5284   -1.2954    0.0000 C   0  0  0  0  0  0  0  0  0  0  0  0
   -3.9971   -0.1177    0.0000 C   0  0  0  0  0  0  0  0  0  0  0  0
   -3.3182   -1.2677    0.0000 C   0  0  0  0  0  0  0  0  0  0  0  0
    1.8081    2.9441    0.0000 C   0  0  0  0  0  0  0  0  0  0  0  0
    1.0875    1.7249    0.0000 C   0  0  0  0  0  0  0  0  0  0  0  0
    3.2351   -2.5145    0.0000 C   0  0  0  0  0  0  0  0  0  0  0  0
   -4.1080   -1.4339    0.0000 C   0  0  0  0  0  0  0  0  0  0  0  0
    2.5423   -2.9302    0.0000 C   0  0  0  0  0  0  0  0  0  0  0  0
    3.2351   -1.6833    0.0000 C   0  0  0  0  0  0  0  0  0  0  0  0
    1.0875    2.5423    0.0000 C   0  0  0  0  0  0  0  0  0  0  0  0
   -1.0598    0.7967    0.0000 C   0  0  0  0  0  0  0  0  0  0  0  0
   -5.3825   -0.6443    0.0000 C   0  0  0  0  0  0  0  0  0  0  0  0
    4.7037   -2.5145    0.0000 C   0  0  0  0  0  0  0  0  0  0  0  0
  1 11  1  0  0  0  0
  1 13  1  0  0  0  0
  2 12  2  0  0  0  0
  3 17  2  0  0  0  0
  4 21  2  0  0  0  0
  5 27  2  0  0  0  0
  6 34  1  0  0  0  0
  6 41  1  0  0  0  0
 14  7  1  1  0  0  0
  7 17  1  0  0  0  0
 18  8  1  6  0  0  0
  8 21  1  0  0  0  0
  9 23  1  0  0  0  0
  9 27  1  0  0  0  0
 10 30  1  0  0  0  0
 10 35  1  0  0  0  0
 10 40  1  0  0  0  0
 11 12  1  1  0  0  0
 11 13  1  0  0  0  0
 11 15  1  6  0  0  0
 12 14  1  0  0  0  0
 14 16  1  0  0  0  0
 16 19  1  0  0  0  0
 17 18  1  0  0  0  0
 18 20  1  0  0  0  0
 19 24  2  0  0  0  0
 19 25  1  0  0  0  0
 20 22  1  0  0  0  0
 21 23  1  0  0  0  0
 22 28  2  0  0  0  0
 22 29  1  0  0  0  0
 23 39  1  1  0  0  0
 24 32  1  0  0  0  0
 25 33  2  0  0  0  0
 26 27  1  6  0  0  0
 26 30  1  0  0  0  0
 26 31  1  0  0  0  0
 28 36  1  0  0  0  0
 29 37  2  0  0  0  0
 31 35  1  0  0  0  0
 32 38  2  0  0  0  0
 33 38  1  0  0  0  0
 34 36  2  0  0  0  0
 34 37  1  0  0  0  0
M  END
> <PUBCHEM_COMPOUND_ID_TYPE>
0

> <PUBCHEM_TOTAL_CHARGE>
0

> <PUBCHEM_SUBSTANCE_ID>
310941249

> <PUBCHEM_SUBSTANCE_VERSION>
1

> <PUBCHEM_EXT_DATASOURCE_NAME>
4488

> <PUBCHEM_EXT_DATASOURCE_REGID>
SCHEMBL16119209

> <PUBCHEM_SUBSTANCE_COMMENT>
InChI=1S/C31H40N4O6/c1-20(32-29(38)23-14-15-35(3)18-23)28(37)34-26(17-22-10-12-24(40-4)13-11-22)30(39)33-25(27(36)31(2)19-41-31)16-21-8-6-5-7-9-21/h5-13,20,23,25-26H,14-19H2,1-4H3,(H,32,38)(H,33,39)(H,34,37)/t20-,23+,25-,26-,31+/m0/s1
InChIKey=QOFKBMGJDTYSRB-CKMXRKCCSA-N

> <PUBCHEM_SUBSTANCE_SYNONYM>
SCHEMBL16119209

> <PUBCHEM_XREF_EXT_ID>
SCHEMBL16119209

> <PUBCHEM_EXT_DATASOURCE_URL>
https://www.surechembl.org/

> <PUBCHEM_EXT_SUBSTANCE_URL>
https://www.surechembl.org/chemical/SCHEMBL16119209

> <PUBCHEM_CID_ASSOCIATIONS>
117608108  1

> <PUBCHEM_COORDINATE_TYPE>
1
3

> <PUBCHEM_BONDANNOTATIONS>
11  12  5
11  15  6
23  39  5
26  27  6
14  7  5
18  8  6

$$$$
