310938562
  -OEChem-07211613022D

 15 15  0     0  0  0  0  0  0999 V2000
   -0.7942  -12.8455    0.0000 F   0  0  0  0  0  0  0  0  0  0  0  0
   -0.7942  -11.1955    0.0000 F   0  0  0  0  0  0  0  0  0  0  0  0
   -2.2231  -12.0205    0.0000 O   0  0  0  0  0  0  0  0  0  0  0  0
   -2.9376  -10.7830    0.0000 N   0  0  0  0  0  0  0  0  0  0  0  0
   -4.3665  -10.7830    0.0000 N   0  0  0  0  0  0  0  0  0  0  0  0
   -2.9376  -11.6080    0.0000 C   0  0  0  0  0  0  0  0  0  0  0  0
   -3.6521  -10.3705    0.0000 C   0  0  0  0  0  0  0  0  0  0  0  0
   -0.7942  -12.0205    0.0000 C   0  0  0  0  0  0  0  0  0  0  0  0
   -1.5086  -11.6080    0.0000 C   0  0  0  0  0  0  0  0  0  0  0  0
   -3.6521  -12.0205    0.0000 C   0  0  0  0  0  0  0  0  0  0  0  0
   -3.6521   -9.5455    0.0000 C   0  0  0  0  0  0  0  0  0  0  0  0
   -4.3665  -11.6080    0.0000 C   0  0  0  0  0  0  0  0  0  0  0  0
   -0.0797  -11.6080    0.0000 C   0  0  0  0  0  0  0  0  0  0  0  0
   -4.4771   -9.5455    0.0000 C   0  0  0  0  0  0  0  0  0  0  0  0
   -2.8271   -9.5455    0.0000 C   0  0  0  0  0  0  0  0  0  0  0  0
  1  8  1  0  0  0  0
  2  8  1  0  0  0  0
  3  6  1  0  0  0  0
  3  9  1  0  0  0  0
  4  6  2  0  0  0  0
  4  7  1  0  0  0  0
  5  7  2  0  0  0  0
  5 12  1  0  0  0  0
  6 10  1  0  0  0  0
  7 11  1  0  0  0  0
  8  9  1  0  0  0  0
  8 13  1  0  0  0  0
 10 12  2  0  0  0  0
 11 14  1  0  0  0  0
 11 15  1  0  0  0  0
M  END
> <PUBCHEM_COMPOUND_ID_TYPE>
0

> <PUBCHEM_TOTAL_CHARGE>
0

> <PUBCHEM_SUBSTANCE_ID>
310938562

> <PUBCHEM_SUBSTANCE_VERSION>
1

> <PUBCHEM_EXT_DATASOURCE_NAME>
4488

> <PUBCHEM_EXT_DATASOURCE_REGID>
SCHEMBL16116476

> <PUBCHEM_SUBSTANCE_COMMENT>
InChI=1S/C10H14F2N2O/c1-7(2)9-13-5-4-8(14-9)15-6-10(3,11)12/h4-5,7H,6H2,1-3H3
InChIKey=GZNKNCALOBSPMS-UHFFFAOYSA-N

> <PUBCHEM_SUBSTANCE_SYNONYM>
SCHEMBL16116476

> <PUBCHEM_XREF_EXT_ID>
SCHEMBL16116476

> <PUBCHEM_EXT_DATASOURCE_URL>
https://www.surechembl.org/

> <PUBCHEM_EXT_SUBSTANCE_URL>
https://www.surechembl.org/chemical/SCHEMBL16116476

> <PUBCHEM_CID_ASSOCIATIONS>
117606001  1

> <PUBCHEM_COORDINATE_TYPE>
1
3

> <PUBCHEM_BONDANNOTATIONS>
11  14  3
11  15  3

$$$$
