310931790
  -OEChem-07211613022D

 33 36  0     1  0  0  0  0  0999 V2000
    0.0000   -5.2948    0.0000 Cl  0  0  0  0  0  0  0  0  0  0  0  0
    2.6151   -6.4570    0.0000 Cl  0  0  0  0  0  0  0  0  0  0  0  0
    8.5232   -0.4197    0.0000 S   0  0  0  0  0  0  0  0  0  0  0  0
    0.7426   -3.2931    0.0000 F   0  0  0  0  0  0  0  0  0  0  0  0
    1.5497   -4.4876    0.0000 F   0  0  0  0  0  0  0  0  0  0  0  0
    1.4528   -2.8088    0.0000 F   0  0  0  0  0  0  0  0  0  0  0  0
    9.2658    0.0000    0.0000 O   0  0  0  0  0  0  0  0  0  0  0  0
    9.2012   -0.9363    0.0000 O   0  0  0  0  0  0  0  0  0  0  0  0
    6.0696   -0.1291    0.0000 O   0  0  0  0  0  0  0  0  0  0  0  0
    3.2285   -2.6151    0.0000 N   0  0  3  0  0  0  0  0  0  0  0  0
    6.7798   -1.3882    0.0000 N   0  0  0  0  0  0  0  0  0  0  0  0
    2.3245   -3.6159    0.0000 C   0  0  3  0  0  0  0  0  0  0  0  0
    1.4851   -3.6482    0.0000 C   0  0  0  0  0  0  0  0  0  0  0  0
    1.9694   -4.3585    0.0000 C   0  0  0  0  0  0  0  0  0  0  0  0
    3.1316   -3.4545    0.0000 C   0  0  0  0  0  0  0  0  0  0  0  0
    1.9048   -2.9056    0.0000 C   0  0  0  0  0  0  0  0  0  0  0  0
    2.4537   -2.2922    0.0000 C   0  0  0  0  0  0  0  0  0  0  0  0
    3.9388   -2.1954    0.0000 C   0  0  0  0  0  0  0  0  0  0  0  0
    2.4537   -5.0364    0.0000 C   0  0  0  0  0  0  0  0  0  0  0  0
    1.1623   -4.4553    0.0000 C   0  0  0  0  0  0  0  0  0  0  0  0
    0.8394   -5.1979    0.0000 C   0  0  0  0  0  0  0  0  0  0  0  0
    2.1308   -5.7790    0.0000 C   0  0  0  0  0  0  0  0  0  0  0  0
    3.9388   -1.3882    0.0000 C   0  0  0  0  0  0  0  0  0  0  0  0
    5.3593   -1.3882    0.0000 C   0  0  0  0  0  0  0  0  0  0  0  0
    4.6490   -2.6151    0.0000 C   0  0  0  0  0  0  0  0  0  0  0  0
    4.6490   -0.9685    0.0000 C   0  0  0  0  0  0  0  0  0  0  0  0
    7.5224   -0.9685    0.0000 C   0  0  0  0  0  0  0  0  0  0  0  0
    1.2914   -5.8758    0.0000 C   0  0  0  0  0  0  0  0  0  0  0  0
    6.0696   -0.9685    0.0000 C   0  0  0  0  0  0  0  0  0  0  0  0
    5.3593   -2.1954    0.0000 C   0  0  0  0  0  0  0  0  0  0  0  0
    8.3295   -1.1945    0.0000 C   0  0  0  0  0  0  0  0  0  0  0  0
    7.7161   -0.1614    0.0000 C   0  0  0  0  0  0  0  0  0  0  0  0
    4.6490   -0.1291    0.0000 C   0  0  0  0  0  0  0  0  0  0  0  0
  1 21  1  0  0  0  0
  2 22  1  0  0  0  0
  3  7  2  0  0  0  0
  3  8  2  0  0  0  0
  3 31  1  0  0  0  0
  3 32  1  0  0  0  0
  4 13  1  0  0  0  0
  5 13  1  0  0  0  0
  6 13  1  0  0  0  0
  9 29  2  0  0  0  0
 10 15  1  0  0  0  0
 10 17  1  0  0  0  0
 10 18  1  0  0  0  0
 11 27  1  0  0  0  0
 11 29  1  0  0  0  0
 12 13  1  6  0  0  0
 12 14  1  0  0  0  0
 12 15  1  0  0  0  0
 12 16  1  0  0  0  0
 14 19  2  0  0  0  0
 14 20  1  0  0  0  0
 16 17  1  0  0  0  0
 18 23  2  0  0  0  0
 18 25  1  0  0  0  0
 19 22  1  0  0  0  0
 20 21  2  0  0  0  0
 21 28  1  0  0  0  0
 22 28  2  0  0  0  0
 23 26  1  0  0  0  0
 24 26  2  0  0  0  0
 24 29  1  0  0  0  0
 24 30  1  0  0  0  0
 25 30  2  0  0  0  0
 26 33  1  0  0  0  0
 27 31  1  0  0  0  0
 27 32  1  0  0  0  0
M  END
> <PUBCHEM_COMPOUND_ID_TYPE>
0

> <PUBCHEM_TOTAL_CHARGE>
0

> <PUBCHEM_SUBSTANCE_ID>
310931790

> <PUBCHEM_SUBSTANCE_VERSION>
1

> <PUBCHEM_EXT_DATASOURCE_NAME>
4488

> <PUBCHEM_EXT_DATASOURCE_REGID>
SCHEMBL16109122

> <PUBCHEM_SUBSTANCE_COMMENT>
InChI=1S/C22H21Cl2F3N2O3S/c1-13-6-18(2-3-19(13)20(30)28-17-10-33(31,32)11-17)29-5-4-21(12-29,22(25,26)27)14-7-15(23)9-16(24)8-14/h2-3,6-9,17H,4-5,10-12H2,1H3,(H,28,30)/t21-/m1/s1
InChIKey=IWOMKXKOJLWWHN-OAQYLSRUSA-N

> <PUBCHEM_SUBSTANCE_SYNONYM>
SCHEMBL16109122

> <PUBCHEM_XREF_EXT_ID>
SCHEMBL16109122

> <PUBCHEM_EXT_DATASOURCE_URL>
https://www.surechembl.org/

> <PUBCHEM_EXT_SUBSTANCE_URL>
https://www.surechembl.org/chemical/SCHEMBL16109122

> <PUBCHEM_CID_ASSOCIATIONS>
117600471  1

> <PUBCHEM_COORDINATE_TYPE>
1
3

> <PUBCHEM_BONDANNOTATIONS>
12  13  6

$$$$
