310945852
  -OEChem-07211613022D

 35 38  0     1  0  0  0  0  0999 V2000
    3.6713    1.5446    0.0000 O   0  0  0  0  0  0  0  0  0  0  0  0
    1.3992    1.5585    0.0000 O   0  0  0  0  0  0  0  0  0  0  0  0
    0.6650    1.1430    0.0000 O   0  0  0  0  0  0  0  0  0  0  0  0
   -2.2581    1.2399    0.0000 O   0  0  0  0  0  0  0  0  0  0  0  0
   -0.0416    1.5723    0.0000 O   0  0  0  0  0  0  0  0  0  0  0  0
   -2.9507   -2.5699    0.0000 O   0  0  0  0  0  0  0  0  0  0  0  0
    1.3853   -0.0901    0.0000 N   0  0  0  0  0  0  0  0  0  0  0  0
   -0.7758    0.3395    0.0000 N   0  0  0  0  0  0  0  0  0  0  0  0
    2.8401    1.5446    0.0000 C   0  0  3  0  0  0  0  0  0  0  0  0
    2.1195    1.1153    0.0000 C   0  0  0  0  0  0  0  0  0  0  0  0
    3.2556    0.8520    0.0000 C   0  0  0  0  0  0  0  0  0  0  0  0
    2.0918    0.3118    0.0000 C   0  0  3  0  0  0  0  0  0  0  0  0
    2.8401    2.3481    0.0000 C   0  0  0  0  0  0  0  0  0  0  0  0
    2.8401   -0.1178    0.0000 C   0  0  0  0  0  0  0  0  0  0  0  0
    0.6511    0.2979    0.0000 C   0  0  0  0  0  0  0  0  0  0  0  0
   -0.0416   -0.0762    0.0000 C   0  0  3  0  0  0  0  0  0  0  0  0
    2.8123   -0.9490    0.0000 C   0  0  0  0  0  0  0  0  0  0  0  0
   -0.0693   -0.9213    0.0000 C   0  0  0  0  0  0  0  0  0  0  0  0
   -0.7619    1.1430    0.0000 C   0  0  0  0  0  0  0  0  0  0  0  0
   -0.7758   -1.3230    0.0000 C   0  0  0  0  0  0  0  0  0  0  0  0
   -1.4962    1.5723    0.0000 C   0  0  3  0  0  0  0  0  0  0  0  0
    3.5327   -1.3645    0.0000 C   0  0  0  0  0  0  0  0  0  0  0  0
    2.1057   -1.3645    0.0000 C   0  0  0  0  0  0  0  0  0  0  0  0
   -1.4962   -0.9213    0.0000 C   0  0  0  0  0  0  0  0  0  0  0  0
   -0.7896   -2.1542    0.0000 C   0  0  0  0  0  0  0  0  0  0  0  0
   -1.5516    2.4036    0.0000 C   0  0  0  0  0  0  0  0  0  0  0  0
   -2.2165   -2.1403    0.0000 C   0  0  0  0  0  0  0  0  0  0  0  0
   -2.2165   -1.3091    0.0000 C   0  0  0  0  0  0  0  0  0  0  0  0
   -1.4962   -2.5699    0.0000 C   0  0  0  0  0  0  0  0  0  0  0  0
    3.5327   -2.1819    0.0000 C   0  0  0  0  0  0  0  0  0  0  0  0
    2.1057   -2.1819    0.0000 C   0  0  0  0  0  0  0  0  0  0  0  0
   -2.7846    1.8633    0.0000 C   0  0  0  0  0  0  0  0  0  0  0  0
   -2.3689    2.5837    0.0000 C   0  0  0  0  0  0  0  0  0  0  0  0
    2.8262   -2.5837    0.0000 C   0  0  0  0  0  0  0  0  0  0  0  0
   -3.6713   -2.1680    0.0000 C   0  0  0  0  0  0  0  0  0  0  0  0
  1  9  1  0  0  0  0
  1 11  1  0  0  0  0
  2 10  2  0  0  0  0
  3 15  2  0  0  0  0
  4 21  1  0  0  0  0
  4 32  1  0  0  0  0
  5 19  2  0  0  0  0
  6 27  1  0  0  0  0
  6 35  1  0  0  0  0
 12  7  1  1  0  0  0
  7 15  1  0  0  0  0
  8 16  1  0  0  0  0
  8 19  1  0  0  0  0
  9 10  1  1  0  0  0
  9 11  1  0  0  0  0
  9 13  1  6  0  0  0
 10 12  1  0  0  0  0
 12 14  1  0  0  0  0
 14 17  1  0  0  0  0
 15 16  1  0  0  0  0
 16 18  1  0  0  0  0
 17 22  2  0  0  0  0
 17 23  1  0  0  0  0
 18 20  1  0  0  0  0
 21 19  1  1  0  0  0
 20 24  2  0  0  0  0
 20 25  1  0  0  0  0
 21 26  1  0  0  0  0
 22 30  1  0  0  0  0
 23 31  2  0  0  0  0
 24 28  1  0  0  0  0
 25 29  2  0  0  0  0
 26 33  1  0  0  0  0
 27 28  2  0  0  0  0
 27 29  1  0  0  0  0
 30 34  2  0  0  0  0
 31 34  1  0  0  0  0
 32 33  1  0  0  0  0
M  END
> <PUBCHEM_COMPOUND_ID_TYPE>
0

> <PUBCHEM_TOTAL_CHARGE>
0

> <PUBCHEM_SUBSTANCE_ID>
310945852

> <PUBCHEM_SUBSTANCE_VERSION>
1

> <PUBCHEM_EXT_DATASOURCE_NAME>
4488

> <PUBCHEM_EXT_DATASOURCE_REGID>
SCHEMBL16123957

> <PUBCHEM_SUBSTANCE_COMMENT>
InChI=1S/C27H32N2O6/c1-27(17-35-27)24(30)21(15-18-7-4-3-5-8-18)28-25(31)22(29-26(32)23-9-6-14-34-23)16-19-10-12-20(33-2)13-11-19/h3-5,7-8,10-13,21-23H,6,9,14-17H2,1-2H3,(H,28,31)(H,29,32)/t21-,22?,23+,27+/m1/s1
InChIKey=ZLYYMQMPXCBLTN-ABIOMGQESA-N

> <PUBCHEM_SUBSTANCE_SYNONYM>
SCHEMBL16123957

> <PUBCHEM_XREF_EXT_ID>
SCHEMBL16123957

> <PUBCHEM_EXT_DATASOURCE_URL>
https://www.surechembl.org/

> <PUBCHEM_EXT_SUBSTANCE_URL>
https://www.surechembl.org/chemical/SCHEMBL16123957

> <PUBCHEM_CID_ASSOCIATIONS>
117611837  1

> <PUBCHEM_COORDINATE_TYPE>
1
3

> <PUBCHEM_BONDANNOTATIONS>
21  19  5
12  7  5
9  10  5
9  13  6

$$$$
