310930137
  -OEChem-07211613022D

 10 11  0     1  0  0  0  0  0999 V2000
    1.2630   -0.6706    0.0000 N   0  0  0  0  0  0  0  0  0  0  0  0
    0.7824   -1.3412    0.0000 N   0  0  0  0  0  0  0  0  0  0  0  0
    2.5706   -1.3412    0.0000 N   0  0  0  0  0  0  0  0  0  0  0  0
    0.0000   -1.0841    0.0000 N   0  0  0  0  0  0  0  0  0  0  0  0
    0.0000   -0.2682    0.0000 N   0  0  0  0  0  0  0  0  0  0  0  0
    2.0900   -0.6706    0.0000 C   0  0  3  0  0  0  0  0  0  0  0  0
    0.7824    0.0000    0.0000 C   0  0  0  0  0  0  0  0  0  0  0  0
    2.5706    0.0000    0.0000 C   0  0  0  0  0  0  0  0  0  0  0  0
    3.3529   -1.0841    0.0000 C   0  0  0  0  0  0  0  0  0  0  0  0
    3.3529   -0.2570    0.0000 C   0  0  0  0  0  0  0  0  0  0  0  0
  1  2  1  0  0  0  0
  6  1  1  6  0  0  0
  1  7  1  0  0  0  0
  2  4  2  0  0  0  0
  3  6  1  0  0  0  0
  3  9  1  0  0  0  0
  4  5  1  0  0  0  0
  5  7  2  0  0  0  0
  6  8  1  0  0  0  0
  8 10  1  0  0  0  0
  9 10  1  0  0  0  0
M  END
> <PUBCHEM_COMPOUND_ID_TYPE>
0

> <PUBCHEM_TOTAL_CHARGE>
0

> <PUBCHEM_SUBSTANCE_ID>
310930137

> <PUBCHEM_SUBSTANCE_VERSION>
1

> <PUBCHEM_EXT_DATASOURCE_NAME>
4488

> <PUBCHEM_EXT_DATASOURCE_REGID>
SCHEMBL16107395

> <PUBCHEM_SUBSTANCE_COMMENT>
InChI=1S/C5H9N5/c1-2-5(6-3-1)10-4-7-8-9-10/h4-6H,1-3H2/t5-/m1/s1
InChIKey=CSXLVARCOLLWPI-RXMQYKEDSA-N

> <PUBCHEM_SUBSTANCE_SYNONYM>
SCHEMBL16107395

> <PUBCHEM_XREF_EXT_ID>
SCHEMBL16107395

> <PUBCHEM_EXT_DATASOURCE_URL>
https://www.surechembl.org/

> <PUBCHEM_EXT_SUBSTANCE_URL>
https://www.surechembl.org/chemical/SCHEMBL16107395

> <PUBCHEM_CID_ASSOCIATIONS>
117599364  1

> <PUBCHEM_COORDINATE_TYPE>
1
3

> <PUBCHEM_BONDANNOTATIONS>
6  1  6

$$$$
