310929824
  -OEChem-07211613022D

 71 78  0     1  0  0  0  0  0999 V2000
    1.0945   -5.3171    0.0000 S   0  0  0  0  0  0  0  0  0  0  0  0
    1.1870   -3.6697    0.0000 O   0  0  0  0  0  0  0  0  0  0  0  0
   -1.2278   -2.2682    0.0000 O   0  0  0  0  0  0  0  0  0  0  0  0
   -0.0216    0.8226    0.0000 O   0  0  0  0  0  0  0  0  0  0  0  0
    1.5464   -4.6269    0.0000 O   0  0  0  0  0  0  0  0  0  0  0  0
    1.7848   -5.7690    0.0000 O   0  0  0  0  0  0  0  0  0  0  0  0
    1.4525   -2.4575    0.0000 O   0  0  0  0  0  0  0  0  0  0  0  0
    4.0479   -1.3492    0.0000 O   0  0  0  0  0  0  0  0  0  0  0  0
    2.8360    0.8619    0.0000 O   0  0  0  0  0  0  0  0  0  0  0  0
    3.5674   -0.3657    0.0000 O   0  0  0  0  0  0  0  0  0  0  0  0
    0.0855   -2.8314    0.0000 N   0  0  0  0  0  0  0  0  0  0  0  0
    0.7211   -1.2299    0.0000 N   0  0  0  0  0  0  0  0  0  0  0  0
    0.4043   -4.8653    0.0000 N   0  0  0  0  0  0  0  0  0  0  0  0
    2.6191   -1.3688    0.0000 N   0  0  0  0  0  0  0  0  0  0  0  0
    0.6757    2.0698    0.0000 N   0  0  0  0  0  0  0  0  0  0  0  0
    2.8700   -1.6129    0.0000 N   0  0  0  0  0  0  0  0  0  0  0  0
   -0.2397   -3.5897    0.0000 C   0  0  3  0  0  0  0  0  0  0  0  0
   -1.0429   -3.4011    0.0000 C   0  0  3  0  0  0  0  0  0  0  0  0
   -0.8046   -4.1909    0.0000 C   0  0  0  0  0  0  0  0  0  0  0  0
    0.4505   -4.0416    0.0000 C   0  0  0  0  0  0  0  0  0  0  0  0
   -0.0834   -1.4125    0.0000 C   0  0  3  0  0  0  0  0  0  0  0  0
   -0.4086   -2.1707    0.0000 C   0  0  0  0  0  0  0  0  0  0  0  0
   -1.6441   -2.8362    0.0000 C   0  0  0  0  0  0  0  0  0  0  0  0
   -0.0103   -0.0024    0.0000 C   0  0  3  0  0  0  0  0  0  0  0  0
   -0.5057   -0.7038    0.0000 C   0  0  0  0  0  0  0  0  0  0  0  0
    0.6426   -6.0074    0.0000 C   0  0  0  0  0  0  0  0  0  0  0  0
    1.4412   -1.6326    0.0000 C   0  0  0  0  0  0  0  0  0  0  0  0
    0.7098   -0.4050    0.0000 C   0  0  0  0  0  0  0  0  0  0  0  0
    2.3940   -0.9594    0.0000 C   0  0  3  0  0  0  0  0  0  0  0  0
   -0.1156   -5.6822    0.0000 C   0  0  0  0  0  0  0  0  0  0  0  0
   -0.0181   -6.5014    0.0000 C   0  0  0  0  0  0  0  0  0  0  0  0
   -2.4340   -3.0745    0.0000 C   0  0  0  0  0  0  0  0  0  0  0  0
    2.1613   -2.0352    0.0000 C   0  0  0  0  0  0  0  0  0  0  0  0
    0.6871    1.2448    0.0000 C   0  0  0  0  0  0  0  0  0  0  0  0
    1.2439   -6.5723    0.0000 C   0  0  0  0  0  0  0  0  0  0  0  0
    1.4072    0.8422    0.0000 C   0  0  0  0  0  0  0  0  0  0  0  0
    3.3278   -0.9466    0.0000 C   0  0  0  0  0  0  0  0  0  0  0  0
    2.1159    1.2645    0.0000 C   0  0  0  0  0  0  0  0  0  0  0  0
    5.0075   -1.1710    0.0000 C   0  0  3  0  0  0  0  0  0  0  0  0
    2.1726   -2.8601    0.0000 C   0  0  0  0  0  0  0  0  0  0  0  0
    2.9862   -2.0239    0.0000 C   0  0  0  0  0  0  0  0  0  0  0  0
    1.3363   -2.0465    0.0000 C   0  0  0  0  0  0  0  0  0  0  0  0
    1.3845    2.4921    0.0000 C   0  0  0  0  0  0  0  0  0  0  0  0
    2.1046    2.0894    0.0000 C   0  0  0  0  0  0  0  0  0  0  0  0
    4.9962   -0.3461    0.0000 C   0  0  3  0  0  0  0  0  0  0  0  0
    1.8650    1.5086    0.0000 C   0  0  0  0  0  0  0  0  0  0  0  0
    5.7956   -1.4151    0.0000 C   0  0  0  0  0  0  0  0  0  0  0  0
    5.7772   -0.0804    0.0000 C   0  0  0  0  0  0  0  0  0  0  0  0
    1.3731    3.3170    0.0000 C   0  0  0  0  0  0  0  0  0  0  0  0
    2.8133    2.5117    0.0000 C   0  0  0  0  0  0  0  0  0  0  0  0
    4.2761    0.0566    0.0000 C   0  0  0  0  0  0  0  0  0  0  0  0
    6.2713   -0.7411    0.0000 C   0  0  0  0  0  0  0  0  0  0  0  0
    2.5851    1.1059    0.0000 C   0  0  0  0  0  0  0  0  0  0  0  0
    2.0819    3.7393    0.0000 C   0  0  0  0  0  0  0  0  0  0  0  0
    2.8019    3.3366    0.0000 C   0  0  0  0  0  0  0  0  0  0  0  0
    4.2648    0.8815    0.0000 C   0  0  0  0  0  0  0  0  0  0  0  0
    2.8473    0.0369    0.0000 C   0  0  0  0  0  0  0  0  0  0  0  0
    3.5447    1.2841    0.0000 C   0  0  0  0  0  0  0  0  0  0  0  0
    2.1386   -0.3854    0.0000 C   0  0  0  0  0  0  0  0  0  0  0  0
    2.1499   -1.2103    0.0000 C   0  0  0  0  0  0  0  0  0  0  0  0
    2.8813   -2.4378    0.0000 C   0  0  0  0  0  0  0  0  0  0  0  0
    3.5787   -1.1906    0.0000 C   0  0  0  0  0  0  0  0  0  0  0  0
    3.6014   -2.8405    0.0000 C   0  0  0  0  0  0  0  0  0  0  0  0
    4.2988   -1.5933    0.0000 C   0  0  0  0  0  0  0  0  0  0  0  0
    4.3101   -2.4182    0.0000 C   0  0  0  0  0  0  0  0  0  0  0  0
   -0.6529   -2.6741    0.0000 H   0  0  0  0  0  0  0  0  0  0  0  0
   -0.9066   -1.4670    0.0000 H   0  0  0  0  0  0  0  0  0  0  0  0
   -0.7983    0.2419    0.0000 H   0  0  0  0  0  0  0  0  0  0  0  0
    1.9389   -1.6475    0.0000 H   0  0  0  0  0  0  0  0  0  0  0  0
    4.9594   -1.9946    0.0000 H   0  0  0  0  0  0  0  0  0  0  0  0
    5.0711    0.4755    0.0000 H   0  0  0  0  0  0  0  0  0  0  0  0
  1  5  2  0  0  0  0
  1  6  2  0  0  0  0
  1 13  1  0  0  0  0
  1 26  1  0  0  0  0
  2 20  2  0  0  0  0
  3 22  2  0  0  0  0
  4 24  1  0  0  0  0
  4 34  1  0  0  0  0
  7 27  2  0  0  0  0
  8 37  1  0  0  0  0
  8 39  1  0  0  0  0
  9 38  1  0  0  0  0
  9 57  1  0  0  0  0
 10 37  2  0  0  0  0
 17 11  1  6  0  0  0
 11 22  1  0  0  0  0
 12 21  1  0  0  0  0
 12 27  1  0  0  0  0
 12 28  1  0  0  0  0
 13 20  1  0  0  0  0
 14 29  1  0  0  0  0
 14 37  1  0  0  0  0
 15 34  2  0  0  0  0
 15 43  1  0  0  0  0
 16 60  1  0  0  0  0
 16 61  1  0  0  0  0
 16 62  1  0  0  0  0
 17 18  1  0  0  0  0
 17 19  1  0  0  0  0
 17 20  1  1  0  0  0
 18 19  1  0  0  0  0
 18 23  1  0  0  0  0
 18 66  1  6  0  0  0
 21 22  1  0  0  0  0
 21 25  1  0  0  0  0
 21 67  1  1  0  0  0
 23 32  2  0  0  0  0
 24 25  1  0  0  0  0
 24 28  1  0  0  0  0
 24 68  1  6  0  0  0
 26 30  1  0  0  0  0
 26 31  1  0  0  0  0
 26 35  1  0  0  0  0
 27 29  1  0  0  0  0
 29 33  1  0  0  0  0
 29 69  1  6  0  0  0
 30 31  1  0  0  0  0
 33 40  1  0  0  0  0
 33 41  1  0  0  0  0
 33 42  1  0  0  0  0
 34 36  1  0  0  0  0
 36 38  2  0  0  0  0
 36 46  1  0  0  0  0
 38 44  1  0  0  0  0
 39 45  1  0  0  0  0
 39 47  1  0  0  0  0
 39 70  1  6  0  0  0
 43 44  2  0  0  0  0
 43 49  1  0  0  0  0
 44 50  1  0  0  0  0
 45 48  1  0  0  0  0
 45 51  1  0  0  0  0
 45 71  1  1  0  0  0
 46 53  1  0  0  0  0
 47 52  1  0  0  0  0
 48 52  1  0  0  0  0
 49 54  2  0  0  0  0
 50 55  2  0  0  0  0
 51 56  1  0  0  0  0
 53 58  2  0  0  0  0
 54 55  1  0  0  0  0
 56 58  1  0  0  0  0
 57 59  1  0  0  0  0
 59 60  1  0  0  0  0
 61 63  1  0  0  0  0
 62 64  1  0  0  0  0
 63 65  1  0  0  0  0
 64 65  1  0  0  0  0
M  END
> <PUBCHEM_COMPOUND_ID_TYPE>
0

> <PUBCHEM_TOTAL_CHARGE>
0

> <PUBCHEM_SUBSTANCE_ID>
310929824

> <PUBCHEM_SUBSTANCE_VERSION>
1

> <PUBCHEM_EXT_DATASOURCE_NAME>
4488

> <PUBCHEM_EXT_DATASOURCE_REGID>
SCHEMBL16107033

> <PUBCHEM_SUBSTANCE_COMMENT>
InChI=1S/C49H68N6O9S/c1-6-33-30-49(33,45(58)53-65(60,61)48(5)23-24-48)52-42(56)38-29-34-31-55(38)44(57)41(47(2,3)4)51-46(59)64-39-22-15-18-32(39)17-9-7-10-20-36-40(62-28-16-27-54-25-13-8-14-26-54)35-19-11-12-21-37(35)50-43(36)63-34/h6-7,10-12,19,21,32-34,38-39,41H,1,8-9,13-18,20,22-31H2,2-5H3,(H,51,59)(H,52,56)(H,53,58)/t32-,33-,34-,38+,39-,41-,49-/m1/s1
InChIKey=KHUOHPCMQBIVFL-NHMFNZSOSA-N

> <PUBCHEM_SUBSTANCE_SYNONYM>
SCHEMBL16107033

> <PUBCHEM_XREF_EXT_ID>
SCHEMBL16107033

> <PUBCHEM_EXT_DATASOURCE_URL>
https://www.surechembl.org/

> <PUBCHEM_EXT_SUBSTANCE_URL>
https://www.surechembl.org/chemical/SCHEMBL16107033

> <PUBCHEM_CID_ASSOCIATIONS>
117599096  1

> <PUBCHEM_COORDINATE_TYPE>
1
3

> <PUBCHEM_BONDANNOTATIONS>
17  11  6
17  20  5
18  66  6
21  67  5
24  68  6
29  69  6
39  70  6
45  71  5
58  56  3

$$$$
