310947146
  -OEChem-07211613022D

 22 23  0     1  0  0  0  0  0999 V2000
    0.4327    3.8449    0.0000 F   0  0  0  0  0  0  0  0  0  0  0  0
   -0.3923    5.8289    0.0000 O   0  0  0  0  0  0  0  0  0  0  0  0
   -1.2173    3.8449    0.0000 O   0  0  0  0  0  0  0  0  0  0  0  0
    1.8689    4.9169    0.0000 O   0  0  0  0  0  0  0  0  0  0  0  0
   -2.4887    5.3440    0.0000 O   0  0  0  0  0  0  0  0  0  0  0  0
    2.6086    7.6774    0.0000 O   0  0  0  0  0  0  0  0  0  0  0  0
    0.8585    5.9273    0.0000 N   0  0  0  0  0  0  0  0  0  0  0  0
    2.2387    6.2972    0.0000 N   0  0  0  0  0  0  0  0  0  0  0  0
    0.0202    4.5593    0.0000 C   0  0  3  0  0  0  0  0  0  0  0  0
    0.2751    5.3440    0.0000 C   0  0  3  0  0  0  0  0  0  0  0  0
   -0.8048    4.5593    0.0000 C   0  0  3  0  0  0  0  0  0  0  0  0
   -1.0597    5.3440    0.0000 C   0  0  3  0  0  0  0  0  0  0  0  0
    0.8452    4.5593    0.0000 C   0  0  0  0  0  0  0  0  0  0  0  0
    1.6554    5.7138    0.0000 C   0  0  0  0  0  0  0  0  0  0  0  0
    0.6450    6.7242    0.0000 C   0  0  0  0  0  0  0  0  0  0  0  0
   -1.7742    5.7565    0.0000 C   0  0  0  0  0  0  0  0  0  0  0  0
    2.0252    7.0941    0.0000 C   0  0  0  0  0  0  0  0  0  0  0  0
    1.2283    7.3076    0.0000 C   0  0  0  0  0  0  0  0  0  0  0  0
    1.2577    3.8449    0.0000 C   0  0  0  0  0  0  0  0  0  0  0  0
   -3.2032    5.7565    0.0000 C   0  0  0  0  0  0  0  0  0  0  0  0
   -2.7907    6.4709    0.0000 C   0  0  0  0  0  0  0  0  0  0  0  0
   -3.6157    5.0420    0.0000 C   0  0  0  0  0  0  0  0  0  0  0  0
  9  1  1  6  0  0  0
 10  2  1  1  0  0  0
  2 12  1  0  0  0  0
 11  3  1  6  0  0  0
  4 14  2  0  0  0  0
  5 16  1  0  0  0  0
  5 20  1  0  0  0  0
  6 17  2  0  0  0  0
  7 10  1  0  0  0  0
  7 14  1  0  0  0  0
  7 15  1  0  0  0  0
  8 14  1  0  0  0  0
  8 17  1  0  0  0  0
  9 10  1  0  0  0  0
  9 11  1  0  0  0  0
  9 13  1  1  0  0  0
 11 12  1  0  0  0  0
 12 16  1  1  0  0  0
 13 19  1  0  0  0  0
 15 18  2  0  0  0  0
 17 18  1  0  0  0  0
 20 21  1  0  0  0  0
 20 22  1  0  0  0  0
M  END
> <PUBCHEM_COMPOUND_ID_TYPE>
0

> <PUBCHEM_TOTAL_CHARGE>
0

> <PUBCHEM_SUBSTANCE_ID>
310947146

> <PUBCHEM_SUBSTANCE_VERSION>
1

> <PUBCHEM_EXT_DATASOURCE_NAME>
4488

> <PUBCHEM_EXT_DATASOURCE_REGID>
SCHEMBL16125300

> <PUBCHEM_SUBSTANCE_COMMENT>
InChI=1S/C14H21FN2O5/c1-4-14(15)11(19)9(7-21-8(2)3)22-12(14)17-6-5-10(18)16-13(17)20/h5-6,8-9,11-12,19H,4,7H2,1-3H3,(H,16,18,20)/t9-,11-,12-,14-/m1/s1
InChIKey=LPMUJKFOXHLMIR-XIDUGBJDSA-N

> <PUBCHEM_SUBSTANCE_SYNONYM>
SCHEMBL16125300

> <PUBCHEM_XREF_EXT_ID>
SCHEMBL16125300

> <PUBCHEM_EXT_DATASOURCE_URL>
https://www.surechembl.org/

> <PUBCHEM_EXT_SUBSTANCE_URL>
https://www.surechembl.org/chemical/SCHEMBL16125300

> <PUBCHEM_CID_ASSOCIATIONS>
117612981  1

> <PUBCHEM_COORDINATE_TYPE>
1
3

> <PUBCHEM_BONDANNOTATIONS>
9  1  6
12  16  5
10  2  5
20  21  3
20  22  3
11  3  6
9  13  5

$$$$
