310940198
  -OEChem-07211613022D

 16 16  0     1  0  0  0  0  0999 V2000
   -0.9112    1.1115    0.0000 O   0  0  0  0  0  0  0  0  0  0  0  0
    0.3505   -0.6909    0.0000 O   0  0  0  0  0  0  0  0  0  0  0  0
    0.5307    0.9512    0.0000 O   0  0  0  0  0  0  0  0  0  0  0  0
    1.4919   -2.7737    0.0000 N   0  0  0  0  0  0  0  0  0  0  0  0
   -0.3304   -0.1902    0.0000 C   0  0  3  0  0  0  0  0  0  0  0  0
   -0.2303    0.6309    0.0000 C   0  0  0  0  0  0  0  0  0  0  0  0
   -0.8110    1.9526    0.0000 C   0  0  0  0  0  0  0  0  0  0  0  0
   -1.0714   -0.5307    0.0000 C   0  0  0  0  0  0  0  0  0  0  0  0
   -0.4706   -1.8324    0.0000 C   0  0  3  0  0  0  0  0  0  0  0  0
    0.2704   -1.5119    0.0000 C   0  0  0  0  0  0  0  0  0  0  0  0
   -1.1515   -1.3518    0.0000 C   0  0  0  0  0  0  0  0  0  0  0  0
   -0.1302   -2.5934    0.0000 C   0  0  0  0  0  0  0  0  0  0  0  0
   -0.7310    2.7737    0.0000 C   0  0  0  0  0  0  0  0  0  0  0  0
   -1.4919    2.3931    0.0000 C   0  0  0  0  0  0  0  0  0  0  0  0
   -0.0301    2.2529    0.0000 C   0  0  0  0  0  0  0  0  0  0  0  0
    0.6708   -2.6935    0.0000 C   0  0  0  0  0  0  0  0  0  0  0  0
  1  6  1  0  0  0  0
  1  7  1  0  0  0  0
  2  5  1  0  0  0  0
  2 10  1  0  0  0  0
  3  6  2  0  0  0  0
  4 16  3  0  0  0  0
  5  6  1  6  0  0  0
  5  8  1  0  0  0  0
  7 13  1  0  0  0  0
  7 14  1  0  0  0  0
  7 15  1  0  0  0  0
  8 11  1  0  0  0  0
  9 10  1  0  0  0  0
  9 11  1  0  0  0  0
  9 12  1  1  0  0  0
 12 16  1  0  0  0  0
M  END
> <PUBCHEM_COMPOUND_ID_TYPE>
0

> <PUBCHEM_TOTAL_CHARGE>
0

> <PUBCHEM_SUBSTANCE_ID>
310940198

> <PUBCHEM_SUBSTANCE_VERSION>
1

> <PUBCHEM_EXT_DATASOURCE_NAME>
4488

> <PUBCHEM_EXT_DATASOURCE_REGID>
SCHEMBL16118132

> <PUBCHEM_SUBSTANCE_COMMENT>
InChI=1S/C12H19NO3/c1-12(2,3)16-11(14)10-5-4-9(6-7-13)8-15-10/h9-10H,4-6,8H2,1-3H3/t9-,10-/m1/s1
InChIKey=FVMABOPXNFWTHV-NXEZZACHSA-N

> <PUBCHEM_SUBSTANCE_SYNONYM>
SCHEMBL16118132

> <PUBCHEM_XREF_EXT_ID>
SCHEMBL16118132

> <PUBCHEM_EXT_DATASOURCE_URL>
https://www.surechembl.org/

> <PUBCHEM_EXT_SUBSTANCE_URL>
https://www.surechembl.org/chemical/SCHEMBL16118132

> <PUBCHEM_CID_ASSOCIATIONS>
117607302  1

> <PUBCHEM_COORDINATE_TYPE>
1
3

> <PUBCHEM_BONDANNOTATIONS>
5  6  6
9  12  5

$$$$
