310930439
  -OEChem-07211613022D

 35 38  0     0  0  0  0  0  0999 V2000
    7.4751   -1.4250    0.0000 O   0  0  0  0  0  0  0  0  0  0  0  0
    3.3751   -1.4501    0.0000 O   0  5  0  0  0  0  0  0  0  0  0  0
    4.6001   -2.1500    0.0000 O   0  0  0  0  0  0  0  0  0  0  0  0
    0.1000   -3.0251    0.0000 N   0  0  0  0  0  0  0  0  0  0  0  0
    1.3250   -2.1500    0.0000 N   0  0  0  0  0  0  0  0  0  0  0  0
    3.3751   -4.2751    0.0000 N   0  0  0  0  0  0  0  0  0  0  0  0
    4.6001   -3.5751    0.0000 N   0  0  0  0  0  0  0  0  0  0  0  0
    3.3751   -2.8500    0.0000 N   0  0  0  0  0  0  0  0  0  0  0  0
    7.4751   -2.8500    0.0000 N   0  0  0  0  0  0  0  0  0  0  0  0
    3.7751   -2.1500    0.0000 N   0  3  0  0  0  0  0  0  0  0  0  0
    1.3000   -3.5751    0.0000 C   0  0  0  0  0  0  0  0  0  0  0  0
    0.9000   -2.8500    0.0000 C   0  0  0  0  0  0  0  0  0  0  0  0
    2.1251   -3.5751    0.0000 C   0  0  0  0  0  0  0  0  0  0  0  0
    0.7500   -4.1751    0.0000 C   0  0  0  0  0  0  0  0  0  0  0  0
    2.5501   -2.8751    0.0000 C   0  0  0  0  0  0  0  0  0  0  0  0
    2.5501   -4.3001    0.0000 C   0  0  0  0  0  0  0  0  0  0  0  0
    0.0000   -3.8501    0.0000 C   0  0  0  0  0  0  0  0  0  0  0  0
    2.1251   -2.1500    0.0000 C   0  0  0  0  0  0  0  0  0  0  0  0
    3.7751   -3.5751    0.0000 C   0  0  0  0  0  0  0  0  0  0  0  0
    5.8501   -4.2751    0.0000 C   0  0  0  0  0  0  0  0  0  0  0  0
    7.0751   -3.5751    0.0000 C   0  0  0  0  0  0  0  0  0  0  0  0
    6.2501   -3.5751    0.0000 C   0  0  0  0  0  0  0  0  0  0  0  0
    5.0001   -4.2751    0.0000 C   0  0  0  0  0  0  0  0  0  0  0  0
    6.2501   -5.0001    0.0000 C   0  0  0  0  0  0  0  0  0  0  0  0
    7.4751   -4.3001    0.0000 C   0  0  0  0  0  0  0  0  0  0  0  0
    7.0751   -5.0001    0.0000 C   0  0  0  0  0  0  0  0  0  0  0  0
    7.0502   -2.1500    0.0000 C   0  0  0  0  0  0  0  0  0  0  0  0
    6.2252   -2.1500    0.0000 C   0  0  0  0  0  0  0  0  0  0  0  0
    5.0001   -1.4250    0.0000 C   0  0  0  0  0  0  0  0  0  0  0  0
    5.4251   -2.1500    0.0000 C   0  0  0  0  0  0  0  0  0  0  0  0
    4.1751   -1.4250    0.0000 C   0  0  0  0  0  0  0  0  0  0  0  0
    5.4001   -0.7250    0.0000 C   0  0  0  0  0  0  0  0  0  0  0  0
    3.7501   -0.7250    0.0000 C   0  0  0  0  0  0  0  0  0  0  0  0
    5.0001    0.0000    0.0000 C   0  0  0  0  0  0  0  0  0  0  0  0
    4.1751    0.0000    0.0000 C   0  0  0  0  0  0  0  0  0  0  0  0
  1 27  2  0  0  0  0
  2 10  1  0  0  0  0
  3 10  2  0  0  0  0
  4 12  1  0  0  0  0
  4 17  1  0  0  0  0
  5 12  1  0  0  0  0
  5 18  2  0  0  0  0
  6 16  1  0  0  0  0
  6 19  1  0  0  0  0
  7 19  1  0  0  0  0
  7 23  1  0  0  0  0
  8 10  1  0  0  0  0
  8 19  2  0  0  0  0
  9 21  1  0  0  0  0
  9 27  1  0  0  0  0
 11 12  2  0  0  0  0
 11 13  1  0  0  0  0
 11 14  1  0  0  0  0
 13 15  2  0  0  0  0
 13 16  1  0  0  0  0
 14 17  2  0  0  0  0
 15 18  1  0  0  0  0
 20 22  2  0  0  0  0
 20 23  1  0  0  0  0
 20 24  1  0  0  0  0
 21 22  1  0  0  0  0
 21 25  2  0  0  0  0
 24 26  2  0  0  0  0
 25 26  1  0  0  0  0
 27 28  1  0  0  0  0
 28 30  3  0  0  0  0
 29 30  1  0  0  0  0
 29 31  2  0  0  0  0
 29 32  1  0  0  0  0
 31 33  1  0  0  0  0
 32 34  2  0  0  0  0
 33 35  2  0  0  0  0
 34 35  1  0  0  0  0
M  CHG  2   2  -1  10   1
M  END
> <PUBCHEM_COMPOUND_ID_TYPE>
0

> <PUBCHEM_TOTAL_CHARGE>
0

> <PUBCHEM_SUBSTANCE_ID>
310930439

> <PUBCHEM_SUBSTANCE_VERSION>
1

> <PUBCHEM_EXT_DATASOURCE_NAME>
4488

> <PUBCHEM_EXT_DATASOURCE_REGID>
SCHEMBL16107729

> <PUBCHEM_SUBSTANCE_COMMENT>
InChI=1S/C25H21N7O3/c33-23(10-9-18-5-2-1-3-6-18)30-21-8-4-7-19(15-21)16-28-25(31-32(34)35)29-17-20-11-13-26-24-22(20)12-14-27-24/h1-8,11-15H,16-17H2,(H,26,27)(H,30,33)(H2,28,29,31)
InChIKey=DLBRILJIORBAOU-UHFFFAOYSA-N

> <PUBCHEM_SUBSTANCE_SYNONYM>
SCHEMBL16107729

> <PUBCHEM_XREF_EXT_ID>
SCHEMBL16107729

> <PUBCHEM_EXT_DATASOURCE_URL>
https://www.surechembl.org/

> <PUBCHEM_EXT_SUBSTANCE_URL>
https://www.surechembl.org/chemical/SCHEMBL16107729

> <PUBCHEM_CID_ASSOCIATIONS>
71555817  1

> <PUBCHEM_COORDINATE_TYPE>
1
3

$$$$
