310932992
  -OEChem-07211613022D

 34 37  0     0  0  0  0  0  0999 V2000
    3.9916   -2.7420    0.0000 O   0  0  0  0  0  0  0  0  0  0  0  0
    8.4691   -2.8115    0.0000 O   0  0  0  0  0  0  0  0  0  0  0  0
    4.8940   -1.5966    0.0000 N   0  0  0  0  0  0  0  0  0  0  0  0
    4.8246   -0.7636    0.0000 N   0  0  0  0  0  0  0  0  0  0  0  0
    6.3518   -1.5966    0.0000 N   0  0  0  0  0  0  0  0  0  0  0  0
    7.7749   -4.0610    0.0000 N   0  0  0  0  0  0  0  0  0  0  0  0
    5.6229   -5.2758    0.0000 N   0  0  0  0  0  0  0  0  0  0  0  0
    0.0000   -2.4644    0.0000 N   0  0  0  0  0  0  0  0  0  0  0  0
    3.6098   -1.3189    0.0000 C   0  0  0  0  0  0  0  0  0  0  0  0
    4.1651   -1.9437    0.0000 C   0  0  0  0  0  0  0  0  0  0  0  0
    2.7767   -1.4231    0.0000 C   0  0  0  0  0  0  0  0  0  0  0  0
    5.6229   -2.0131    0.0000 C   0  0  0  0  0  0  0  0  0  0  0  0
    3.9916   -0.6247    0.0000 C   0  0  0  0  0  0  0  0  0  0  0  0
    2.2908   -0.7636    0.0000 C   0  0  0  0  0  0  0  0  0  0  0  0
    7.0460   -2.8115    0.0000 C   0  0  0  0  0  0  0  0  0  0  0  0
    5.6229   -2.8115    0.0000 C   0  0  0  0  0  0  0  0  0  0  0  0
    2.4644   -2.1867    0.0000 C   0  0  0  0  0  0  0  0  0  0  0  0
    7.7749   -3.2280    0.0000 C   0  0  0  0  0  0  0  0  0  0  0  0
    7.0460   -2.0131    0.0000 C   0  0  0  0  0  0  0  0  0  0  0  0
    6.3518   -3.2280    0.0000 C   0  0  0  0  0  0  0  0  0  0  0  0
    1.4578   -0.8677    0.0000 C   0  0  0  0  0  0  0  0  0  0  0  0
    1.1454   -1.5966    0.0000 C   0  0  0  0  0  0  0  0  0  0  0  0
    7.0460   -4.4775    0.0000 C   0  0  0  0  0  0  0  0  0  0  0  0
    1.6313   -2.2561    0.0000 C   0  0  0  0  0  0  0  0  0  0  0  0
    2.6032    0.0000    0.0000 C   0  0  0  0  0  0  0  0  0  0  0  0
    6.3518   -4.0610    0.0000 C   0  0  0  0  0  0  0  0  0  0  0  0
    7.0460   -5.2758    0.0000 C   0  0  0  0  0  0  0  0  0  0  0  0
    0.3124   -1.7007    0.0000 C   0  0  0  0  0  0  0  0  0  0  0  0
    8.5038   -4.4775    0.0000 C   0  0  0  0  0  0  0  0  0  0  0  0
    5.6229   -4.4775    0.0000 C   0  0  0  0  0  0  0  0  0  0  0  0
    6.3518   -5.6924    0.0000 C   0  0  0  0  0  0  0  0  0  0  0  0
    4.9287   -5.6924    0.0000 C   0  0  0  0  0  0  0  0  0  0  0  0
    4.9287   -6.5253    0.0000 C   0  0  0  0  0  0  0  0  0  0  0  0
    5.6229   -6.9419    0.0000 C   0  0  0  0  0  0  0  0  0  0  0  0
  1 10  1  0  0  0  0
  2 18  2  0  0  0  0
  3  4  1  0  0  0  0
  3 10  1  0  0  0  0
  3 12  1  0  0  0  0
  4 13  2  0  0  0  0
  5 12  2  0  0  0  0
  5 19  1  0  0  0  0
  6 18  1  0  0  0  0
  6 23  1  0  0  0  0
  6 29  1  0  0  0  0
  7 30  1  0  0  0  0
  7 31  1  0  0  0  0
  7 32  1  0  0  0  0
  8 28  3  0  0  0  0
  9 10  2  0  0  0  0
  9 11  1  0  0  0  0
  9 13  1  0  0  0  0
 11 14  1  0  0  0  0
 11 17  2  0  0  0  0
 12 16  1  0  0  0  0
 14 21  2  0  0  0  0
 14 25  1  0  0  0  0
 15 18  1  0  0  0  0
 15 19  2  0  0  0  0
 15 20  1  0  0  0  0
 16 20  2  0  0  0  0
 17 24  1  0  0  0  0
 21 22  1  0  0  0  0
 22 24  2  0  0  0  0
 22 28  1  0  0  0  0
 23 26  1  0  0  0  0
 23 27  1  0  0  0  0
 26 30  1  0  0  0  0
 27 31  1  0  0  0  0
 32 33  1  0  0  0  0
 33 34  1  0  0  0  0
M  END
> <PUBCHEM_COMPOUND_ID_TYPE>
0

> <PUBCHEM_TOTAL_CHARGE>
0

> <PUBCHEM_SUBSTANCE_ID>
310932992

> <PUBCHEM_SUBSTANCE_VERSION>
1

> <PUBCHEM_EXT_DATASOURCE_NAME>
4488

> <PUBCHEM_EXT_DATASOURCE_REGID>
SCHEMBL16110389

> <PUBCHEM_SUBSTANCE_COMMENT>
InChI=1S/C26H30N6O2/c1-4-11-31-12-9-21(10-13-31)30(3)25(33)20-6-8-24(28-16-20)32-26(34)23(17-29-32)22-7-5-19(15-27)14-18(22)2/h5-8,14,16-17,21,34H,4,9-13H2,1-3H3
InChIKey=ZOUIUUOVIHTFKZ-UHFFFAOYSA-N

> <PUBCHEM_SUBSTANCE_SYNONYM>
SCHEMBL16110389

> <PUBCHEM_XREF_EXT_ID>
SCHEMBL16110389

> <PUBCHEM_EXT_DATASOURCE_URL>
https://www.surechembl.org/

> <PUBCHEM_EXT_SUBSTANCE_URL>
https://www.surechembl.org/chemical/SCHEMBL16110389

> <PUBCHEM_CID_ASSOCIATIONS>
117601467  1

> <PUBCHEM_COORDINATE_TYPE>
1
3

$$$$
