310949573
  -OEChem-07211613022D

 25 28  0     0  0  0  0  0  0999 V2000
   -1.9260    2.3687    0.0000 Cl  0  0  0  0  0  0  0  0  0  0  0  0
   -3.6675    1.5423    0.0000 Cl  0  0  0  0  0  0  0  0  0  0  0  0
   -0.4796    2.3687    0.0000 O   0  0  0  0  0  0  0  0  0  0  0  0
    2.4573    0.0074    0.0000 N   0  0  0  0  0  0  0  0  0  0  0  0
    0.2435    1.1438    0.0000 N   0  0  0  0  0  0  0  0  0  0  0  0
    2.4573    1.4094    0.0000 N   0  0  0  0  0  0  0  0  0  0  0  0
    2.9295    0.7158    0.0000 N   0  0  0  0  0  0  0  0  0  0  0  0
    1.6898    0.2878    0.0000 C   0  0  0  0  0  0  0  0  0  0  0  0
    1.7046    1.1585    0.0000 C   0  0  0  0  0  0  0  0  0  0  0  0
   -0.4944    1.5275    0.0000 C   0  0  0  0  0  0  0  0  0  0  0  0
    0.9372    1.5423    0.0000 C   0  0  0  0  0  0  0  0  0  0  0  0
   -1.2323    1.1585    0.0000 C   0  0  0  0  0  0  0  0  0  0  0  0
    0.9667   -0.0959    0.0000 C   0  0  0  0  0  0  0  0  0  0  0  0
    2.6639   -0.7748    0.0000 C   0  0  0  0  0  0  0  0  0  0  0  0
    0.1992    0.2878    0.0000 C   0  0  0  0  0  0  0  0  0  0  0  0
   -1.9260    1.5423    0.0000 C   0  0  0  0  0  0  0  0  0  0  0  0
   -2.6491    1.1585    0.0000 C   0  0  0  0  0  0  0  0  0  0  0  0
   -1.2323    0.2878    0.0000 C   0  0  0  0  0  0  0  0  0  0  0  0
    3.4608   -0.9814    0.0000 C   0  0  0  0  0  0  0  0  0  0  0  0
    2.0883   -1.3651    0.0000 C   0  0  0  0  0  0  0  0  0  0  0  0
   -2.6491    0.2878    0.0000 C   0  0  0  0  0  0  0  0  0  0  0  0
   -1.8965   -0.0959    0.0000 C   0  0  0  0  0  0  0  0  0  0  0  0
    3.6675   -1.8079    0.0000 C   0  0  0  0  0  0  0  0  0  0  0  0
    2.2949   -2.1473    0.0000 C   0  0  0  0  0  0  0  0  0  0  0  0
    3.1213   -2.3687    0.0000 C   0  0  0  0  0  0  0  0  0  0  0  0
  1 16  1  0  0  0  0
  2 17  1  0  0  0  0
  3 10  2  0  0  0  0
  4  7  1  0  0  0  0
  4  8  1  0  0  0  0
  4 14  1  0  0  0  0
  5 10  1  0  0  0  0
  5 11  1  0  0  0  0
  5 15  1  0  0  0  0
  6  7  1  0  0  0  0
  6  9  1  0  0  0  0
  8  9  2  0  0  0  0
  8 13  1  0  0  0  0
  9 11  1  0  0  0  0
 10 12  1  0  0  0  0
 12 16  2  0  0  0  0
 12 18  1  0  0  0  0
 13 15  1  0  0  0  0
 14 19  2  0  0  0  0
 14 20  1  0  0  0  0
 16 17  1  0  0  0  0
 17 21  2  0  0  0  0
 18 22  2  0  0  0  0
 19 23  1  0  0  0  0
 20 24  2  0  0  0  0
 21 22  1  0  0  0  0
 23 25  2  0  0  0  0
 24 25  1  0  0  0  0
M  END
> <PUBCHEM_COMPOUND_ID_TYPE>
0

> <PUBCHEM_TOTAL_CHARGE>
0

> <PUBCHEM_SUBSTANCE_ID>
310949573

> <PUBCHEM_SUBSTANCE_VERSION>
1

> <PUBCHEM_EXT_DATASOURCE_NAME>
4488

> <PUBCHEM_EXT_DATASOURCE_REGID>
SCHEMBL16127769

> <PUBCHEM_SUBSTANCE_COMMENT>
InChI=1S/C18H16Cl2N4O/c19-14-8-4-7-13(17(14)20)18(25)23-10-9-16-15(11-23)21-22-24(16)12-5-2-1-3-6-12/h1-8,21-22H,9-11H2
InChIKey=VGTUJSUIFSWNPA-UHFFFAOYSA-N

> <PUBCHEM_SUBSTANCE_SYNONYM>
SCHEMBL16127769

> <PUBCHEM_XREF_EXT_ID>
SCHEMBL16127769

> <PUBCHEM_EXT_DATASOURCE_URL>
https://www.surechembl.org/

> <PUBCHEM_EXT_SUBSTANCE_URL>
https://www.surechembl.org/chemical/SCHEMBL16127769

> <PUBCHEM_CID_ASSOCIATIONS>
117614984  1

> <PUBCHEM_COORDINATE_TYPE>
1
3

$$$$
