310948373
  -OEChem-07211613022D

 25 27  0     1  0  0  0  0  0999 V2000
   -1.9938    3.8777    0.0000 Br  0  0  0  0  0  0  0  0  0  0  0  0
   -1.8289    0.5912    0.0000 S   0  0  0  0  0  0  0  0  0  0  0  0
   -1.8151   -0.2200    0.0000 O   0  0  0  0  0  0  0  0  0  0  0  0
   -2.6263    0.5088    0.0000 O   0  0  0  0  0  0  0  0  0  0  0  0
    1.4713   -2.3513    0.0000 O   0  0  0  0  0  0  0  0  0  0  0  0
    0.2338   -3.0664    0.0000 O   0  0  0  0  0  0  0  0  0  0  0  0
   -1.0038    0.5088    0.0000 N   0  0  3  0  0  0  0  0  0  0  0  0
   -2.0076    1.4300    0.0000 C   0  0  0  0  0  0  0  0  0  0  0  0
   -1.2926    1.8426    0.0000 C   0  0  0  0  0  0  0  0  0  0  0  0
   -0.6875    1.2926    0.0000 C   0  0  0  0  0  0  0  0  0  0  0  0
   -0.5912   -0.1925    0.0000 C   0  0  0  0  0  0  0  0  0  0  0  0
   -2.7088    1.8289    0.0000 C   0  0  0  0  0  0  0  0  0  0  0  0
   -1.2926    2.6539    0.0000 C   0  0  0  0  0  0  0  0  0  0  0  0
   -1.9938    3.0664    0.0000 C   0  0  0  0  0  0  0  0  0  0  0  0
   -0.9901   -0.9076    0.0000 C   0  0  0  0  0  0  0  0  0  0  0  0
    0.2200   -0.1925    0.0000 C   0  0  0  0  0  0  0  0  0  0  0  0
   -2.7088    2.6539    0.0000 C   0  0  0  0  0  0  0  0  0  0  0  0
    0.2200   -1.6088    0.0000 C   0  0  0  0  0  0  0  0  0  0  0  0
   -0.6050   -1.6088    0.0000 C   0  0  0  0  0  0  0  0  0  0  0  0
    0.6325   -0.8938    0.0000 C   0  0  0  0  0  0  0  0  0  0  0  0
    0.6463   -2.3238    0.0000 C   0  0  0  0  0  0  0  0  0  0  0  0
    1.8701   -3.0389    0.0000 C   0  0  0  0  0  0  0  0  0  0  0  0
    1.0863   -3.3551    0.0000 C   0  0  0  0  0  0  0  0  0  0  0  0
    2.7088   -3.0389    0.0000 C   0  0  0  0  0  0  0  0  0  0  0  0
    2.0351   -3.8777    0.0000 C   0  0  0  0  0  0  0  0  0  0  0  0
  1 14  1  0  0  0  0
  2  3  2  0  0  0  0
  2  4  2  0  0  0  0
  2  7  1  0  0  0  0
  2  8  1  0  0  0  0
  5 21  1  0  0  0  0
  5 22  1  0  0  0  0
  6 21  2  0  0  0  0
  7 10  1  0  0  0  0
 11  7  1  6  0  0  0
  8  9  1  0  0  0  0
  8 12  2  0  0  0  0
  9 10  1  0  0  0  0
  9 13  2  0  0  0  0
 11 15  1  0  0  0  0
 11 16  1  0  0  0  0
 12 17  1  0  0  0  0
 13 14  1  0  0  0  0
 14 17  2  0  0  0  0
 15 19  1  0  0  0  0
 16 20  1  0  0  0  0
 18 19  1  0  0  0  0
 18 20  1  0  0  0  0
 18 21  1  1  0  0  0
 22 23  1  0  0  0  0
 22 24  1  0  0  0  0
 22 25  1  0  0  0  0
M  END
> <PUBCHEM_COMPOUND_ID_TYPE>
0

> <PUBCHEM_TOTAL_CHARGE>
0

> <PUBCHEM_SUBSTANCE_ID>
310948373

> <PUBCHEM_SUBSTANCE_VERSION>
1

> <PUBCHEM_EXT_DATASOURCE_NAME>
4488

> <PUBCHEM_EXT_DATASOURCE_REGID>
SCHEMBL16126554

> <PUBCHEM_SUBSTANCE_COMMENT>
InChI=1S/C18H24BrNO4S/c1-18(2,3)24-17(21)12-4-7-15(8-5-12)20-11-13-10-14(19)6-9-16(13)25(20,22)23/h6,9-10,12,15H,4-5,7-8,11H2,1-3H3/t12-,15-
InChIKey=OQUIZLXMDDXTFH-NNUKFRKNSA-N

> <PUBCHEM_SUBSTANCE_SYNONYM>
SCHEMBL16126554

> <PUBCHEM_XREF_EXT_ID>
SCHEMBL16126554

> <PUBCHEM_EXT_DATASOURCE_URL>
https://www.surechembl.org/

> <PUBCHEM_EXT_SUBSTANCE_URL>
https://www.surechembl.org/chemical/SCHEMBL16126554

> <PUBCHEM_CID_ASSOCIATIONS>
117613936  1

> <PUBCHEM_COORDINATE_TYPE>
1
3

> <PUBCHEM_BONDANNOTATIONS>
18  21  5
11  7  6

$$$$
