310944395
  -OEChem-07211613022D

 14 14  0     0  0  0  0  0  0999 V2000
    0.7395   -0.6005    0.0000 Br  0  0  0  0  0  0  0  0  0  0  0  0
    1.4443    0.5906    0.0000 Cl  0  0  0  0  0  0  0  0  0  0  0  0
   -1.4343   -1.8512    0.0000 Cl  0  0  0  0  0  0  0  0  0  0  0  0
   -0.7196    1.8512    0.0000 F   0  0  0  0  0  0  0  0  0  0  0  0
    0.7395    1.8314    0.0000 O   0  0  0  0  0  0  0  0  0  0  0  0
   -0.0149   -1.8115    0.0000 O   0  0  0  0  0  0  0  0  0  0  0  0
    0.0149    0.6501    0.0000 C   0  0  0  0  0  0  0  0  0  0  0  0
    0.0049   -0.1638    0.0000 C   0  0  0  0  0  0  0  0  0  0  0  0
   -0.7097   -0.5906    0.0000 C   0  0  0  0  0  0  0  0  0  0  0  0
   -0.7296    1.0372    0.0000 C   0  0  0  0  0  0  0  0  0  0  0  0
    0.7296    1.0372    0.0000 C   0  0  0  0  0  0  0  0  0  0  0  0
   -1.4244   -0.1936    0.0000 C   0  0  0  0  0  0  0  0  0  0  0  0
   -1.4443    0.6105    0.0000 C   0  0  0  0  0  0  0  0  0  0  0  0
   -0.7196   -1.4244    0.0000 C   0  0  0  0  0  0  0  0  0  0  0  0
  1  8  1  0  0  0  0
  2 11  1  0  0  0  0
  3 14  1  0  0  0  0
  4 10  1  0  0  0  0
  5 11  2  0  0  0  0
  6 14  2  0  0  0  0
  7  8  1  0  0  0  0
  7 10  2  0  0  0  0
  7 11  1  0  0  0  0
  8  9  2  0  0  0  0
  9 12  1  0  0  0  0
  9 14  1  0  0  0  0
 10 13  1  0  0  0  0
 12 13  2  0  0  0  0
M  END
> <PUBCHEM_COMPOUND_ID_TYPE>
0

> <PUBCHEM_TOTAL_CHARGE>
0

> <PUBCHEM_SUBSTANCE_ID>
310944395

> <PUBCHEM_SUBSTANCE_VERSION>
1

> <PUBCHEM_EXT_DATASOURCE_NAME>
4488

> <PUBCHEM_EXT_DATASOURCE_REGID>
SCHEMBL16122470

> <PUBCHEM_SUBSTANCE_COMMENT>
InChI=1S/C8H2BrCl2FO2/c9-6-3(7(10)13)1-2-4(12)5(6)8(11)14/h1-2H
InChIKey=PZGMETQNQJMKGA-UHFFFAOYSA-N

> <PUBCHEM_SUBSTANCE_SYNONYM>
SCHEMBL16122470

> <PUBCHEM_XREF_EXT_ID>
SCHEMBL16122470

> <PUBCHEM_EXT_DATASOURCE_URL>
https://www.surechembl.org/

> <PUBCHEM_EXT_SUBSTANCE_URL>
https://www.surechembl.org/chemical/SCHEMBL16122470

> <PUBCHEM_CID_ASSOCIATIONS>
117610652  1

> <PUBCHEM_COORDINATE_TYPE>
1
3

$$$$
