310942686
  -OEChem-07211613022D

 51 55  0     1  0  0  0  0  0999 V2000
   -2.6192   -1.4445    0.0000 S   0  0  0  0  0  0  0  0  0  0  0  0
   -2.8891    2.6986    0.0000 F   0  0  0  0  0  0  0  0  0  0  0  0
    3.6193    1.5556    0.0000 F   0  0  0  0  0  0  0  0  0  0  0  0
   -2.8891   -0.6349    0.0000 F   0  0  0  0  0  0  0  0  0  0  0  0
   -0.1270    0.7143    0.0000 O   0  0  0  0  0  0  0  0  0  0  0  0
    1.9684    4.3337    0.0000 O   0  0  0  0  0  0  0  0  0  0  0  0
   -2.1272   -0.9525    0.0000 O   0  0  0  0  0  0  0  0  0  0  0  0
   -3.0955   -1.9367    0.0000 O   0  0  0  0  0  0  0  0  0  0  0  0
   -3.2859   -1.2699    0.0000 O   0  0  0  0  0  0  0  0  0  0  0  0
   -3.2225   -4.0161    0.0000 O   0  0  0  0  0  0  0  0  0  0  0  0
   -1.1112   -2.7939    0.0000 O   0  0  0  0  0  0  0  0  0  0  0  0
   -1.5716   -0.8413    0.0000 O   0  0  0  0  0  0  0  0  0  0  0  0
    1.1271    1.4287    0.0000 N   0  0  0  0  0  0  0  0  0  0  0  0
   -0.6826    1.5239    0.0000 N   0  0  0  0  0  0  0  0  0  0  0  0
   -0.5398    2.8732    0.0000 N   0  0  0  0  0  0  0  0  0  0  0  0
    1.1271   -0.0159    0.0000 N   0  0  0  0  0  0  0  0  0  0  0  0
   -2.2700   -3.2542    0.0000 N   0  0  0  0  0  0  0  0  0  0  0  0
    3.0002   -0.5080    0.0000 N   0  0  0  0  0  0  0  0  0  0  0  0
   -0.5398   -1.4605    0.0000 N   0  0  0  0  0  0  0  0  0  0  0  0
    0.6985    2.1589    0.0000 C   0  0  3  0  0  0  0  0  0  0  0  0
   -0.1429    2.1748    0.0000 C   0  0  0  0  0  0  0  0  0  0  0  0
   -1.4605    1.8890    0.0000 C   0  0  0  0  0  0  0  0  0  0  0  0
    1.1112    2.9050    0.0000 C   0  0  0  0  0  0  0  0  0  0  0  0
   -2.1748    1.4763    0.0000 C   0  0  0  0  0  0  0  0  0  0  0  0
    0.7143    0.7143    0.0000 C   0  0  0  0  0  0  0  0  0  0  0  0
   -1.3493    2.7145    0.0000 C   0  0  0  0  0  0  0  0  0  0  0  0
    1.9684    1.4287    0.0000 C   0  0  0  0  0  0  0  0  0  0  0  0
    2.3812    0.7302    0.0000 C   0  0  3  0  0  0  0  0  0  0  0  0
   -2.9050    1.8890    0.0000 C   0  0  0  0  0  0  0  0  0  0  0  0
    0.7143    3.6034    0.0000 C   0  0  0  0  0  0  0  0  0  0  0  0
    1.9525    2.8891    0.0000 C   0  0  0  0  0  0  0  0  0  0  0  0
   -2.1907    0.6349    0.0000 C   0  0  0  0  0  0  0  0  0  0  0  0
    3.1907    0.8413    0.0000 C   0  0  3  0  0  0  0  0  0  0  0  0
   -2.2859   -2.0319    0.0000 C   0  0  3  0  0  0  0  0  0  0  0  0
   -2.8891    0.2222    0.0000 C   0  0  0  0  0  0  0  0  0  0  0  0
   -3.6193    1.4605    0.0000 C   0  0  0  0  0  0  0  0  0  0  0  0
    2.2700   -0.0635    0.0000 C   0  0  0  0  0  0  0  0  0  0  0  0
   -2.6034   -2.6510    0.0000 C   0  0  0  0  0  0  0  0  0  0  0  0
   -2.5557   -3.8574    0.0000 C   0  0  0  0  0  0  0  0  0  0  0  0
   -1.6033   -3.3494    0.0000 C   0  0  0  0  0  0  0  0  0  0  0  0
    1.1271    4.3337    0.0000 C   0  0  0  0  0  0  0  0  0  0  0  0
    2.3812    3.6034    0.0000 C   0  0  0  0  0  0  0  0  0  0  0  0
    0.6985   -0.7302    0.0000 C   0  0  3  0  0  0  0  0  0  0  0  0
   -3.6193    0.6349    0.0000 C   0  0  0  0  0  0  0  0  0  0  0  0
    3.5717    0.1111    0.0000 C   0  0  0  0  0  0  0  0  0  0  0  0
   -1.5716   -2.0478    0.0000 C   0  0  0  0  0  0  0  0  0  0  0  0
   -2.0160   -4.3337    0.0000 C   0  0  0  0  0  0  0  0  0  0  0  0
   -1.4287   -3.9844    0.0000 C   0  0  0  0  0  0  0  0  0  0  0  0
   -1.2223   -1.4445    0.0000 C   0  0  0  0  0  0  0  0  0  0  0  0
   -0.1270   -0.7302    0.0000 C   0  0  0  0  0  0  0  0  0  0  0  0
    1.1271   -1.4287    0.0000 C   0  0  0  0  0  0  0  0  0  0  0  0
  1  7  2  0  0  0  0
  1  8  2  0  0  0  0
  1  9  1  0  0  0  0
  1 34  1  0  0  0  0
  2 29  1  0  0  0  0
 33  3  1  1  0  0  0
  4 35  1  0  0  0  0
  5 25  2  0  0  0  0
  6 41  1  0  0  0  0
  6 42  1  0  0  0  0
 10 39  2  0  0  0  0
 11 40  2  0  0  0  0
 12 49  2  0  0  0  0
 20 13  1  1  0  0  0
 13 25  1  0  0  0  0
 13 27  1  0  0  0  0
 14 21  2  0  0  0  0
 14 22  1  0  0  0  0
 15 21  1  0  0  0  0
 15 26  1  0  0  0  0
 16 25  1  0  0  0  0
 16 43  1  0  0  0  0
 17 38  1  0  0  0  0
 17 39  1  0  0  0  0
 17 40  1  0  0  0  0
 18 37  1  0  0  0  0
 18 45  1  0  0  0  0
 19 49  1  0  0  0  0
 19 50  1  0  0  0  0
 20 21  1  0  0  0  0
 20 23  1  0  0  0  0
 22 24  1  0  0  0  0
 22 26  2  0  0  0  0
 23 30  1  0  0  0  0
 23 31  1  0  0  0  0
 24 29  1  0  0  0  0
 24 32  2  0  0  0  0
 28 27  1  1  0  0  0
 28 33  1  0  0  0  0
 28 37  1  0  0  0  0
 29 36  2  0  0  0  0
 30 41  1  0  0  0  0
 31 42  1  0  0  0  0
 32 35  1  0  0  0  0
 33 45  1  0  0  0  0
 34 38  1  1  0  0  0
 34 46  1  0  0  0  0
 35 44  2  0  0  0  0
 36 44  1  0  0  0  0
 39 47  1  0  0  0  0
 40 48  1  0  0  0  0
 43 50  1  0  0  0  0
 43 51  1  1  0  0  0
 46 49  1  0  0  0  0
 47 48  2  0  0  0  0
M  END
> <PUBCHEM_COMPOUND_ID_TYPE>
0

> <PUBCHEM_TOTAL_CHARGE>
0

> <PUBCHEM_SUBSTANCE_ID>
310942686

> <PUBCHEM_SUBSTANCE_VERSION>
1

> <PUBCHEM_EXT_DATASOURCE_NAME>
4488

> <PUBCHEM_EXT_DATASOURCE_REGID>
SCHEMBL16120732

> <PUBCHEM_SUBSTANCE_COMMENT>
InChI=1S/C32H40F3N7O8S/c1-18(12-37-27(43)11-22(51(47,48)49)17-41-28(44)4-5-29(41)45)39-32(46)42(16-20-13-36-14-25(20)35)30(19-6-8-50-9-7-19)31-38-15-26(40-31)23-10-21(33)2-3-24(23)34/h2-5,10,15,18-20,22,25,30,36H,6-9,11-14,16-17H2,1H3,(H,37,43)(H,38,40)(H,39,46)(H,47,48,49)/t18-,20-,22-,25-,30+/m0/s1
InChIKey=JFZMKGFQXJEISK-LXQFZPSPSA-N

> <PUBCHEM_SUBSTANCE_SYNONYM>
SCHEMBL16120732

> <PUBCHEM_XREF_EXT_ID>
SCHEMBL16120732

> <PUBCHEM_EXT_DATASOURCE_URL>
https://www.surechembl.org/

> <PUBCHEM_EXT_SUBSTANCE_URL>
https://www.surechembl.org/chemical/SCHEMBL16120732

> <PUBCHEM_CID_ASSOCIATIONS>
117609214  1

> <PUBCHEM_COORDINATE_TYPE>
1
3

> <PUBCHEM_BONDANNOTATIONS>
20  13  5
28  27  5
33  3  5
34  38  5
43  51  5

$$$$
