310947832
  -OEChem-07211613022D

 31 33  0     1  0  0  0  0  0999 V2000
   -3.2039   -0.8143    0.0000 I   0  0  0  0  0  0  0  0  0  0  0  0
   -1.7731    1.6514    0.0000 I   0  0  0  0  0  0  0  0  0  0  0  0
   -3.2191    0.8295    0.0000 O   0  0  0  0  0  0  0  0  0  0  0  0
   -6.0805   -0.8143    0.0000 O   0  0  0  0  0  0  0  0  0  0  0  0
    2.4885   -1.6514    0.0000 O   0  0  0  0  0  0  0  0  0  0  0  0
    1.7884   -0.4033    0.0000 N   0  0  0  0  0  0  0  0  0  0  0  0
    0.5251    0.4185    0.0000 N   0  0  0  0  0  0  0  0  0  0  0  0
    3.2191   -0.4033    0.0000 N   0  0  0  0  0  0  0  0  0  0  0  0
   -2.4733    0.4185    0.0000 C   0  0  0  0  0  0  0  0  0  0  0  0
   -2.4885   -0.4033    0.0000 C   0  0  0  0  0  0  0  0  0  0  0  0
   -1.7884    0.8295    0.0000 C   0  0  0  0  0  0  0  0  0  0  0  0
   -1.0730   -0.3881    0.0000 C   0  0  0  0  0  0  0  0  0  0  0  0
   -1.7731   -0.8143    0.0000 C   0  0  0  0  0  0  0  0  0  0  0  0
   -1.0578    0.4185    0.0000 C   0  0  0  0  0  0  0  0  0  0  0  0
   -3.9192    0.4338    0.0000 C   0  0  0  0  0  0  0  0  0  0  0  0
   -0.3425   -0.8143    0.0000 C   0  0  0  0  0  0  0  0  0  0  0  0
    0.3729   -0.4033    0.0000 C   0  0  3  0  0  0  0  0  0  0  0  0
   -4.6498    0.8143    0.0000 C   0  0  0  0  0  0  0  0  0  0  0  0
   -3.9192   -0.4033    0.0000 C   0  0  0  0  0  0  0  0  0  0  0  0
   -5.3500   -0.4033    0.0000 C   0  0  0  0  0  0  0  0  0  0  0  0
   -5.3347    0.4185    0.0000 C   0  0  0  0  0  0  0  0  0  0  0  0
   -4.6194   -0.8143    0.0000 C   0  0  0  0  0  0  0  0  0  0  0  0
    1.0882   -0.8143    0.0000 C   0  0  0  0  0  0  0  0  0  0  0  0
    2.5038   -0.7991    0.0000 C   0  0  0  0  0  0  0  0  0  0  0  0
    4.6498   -0.4033    0.0000 C   0  0  0  0  0  0  0  0  0  0  0  0
    3.9344   -0.8143    0.0000 C   0  0  0  0  0  0  0  0  0  0  0  0
    5.3652   -0.8143    0.0000 C   0  0  0  0  0  0  0  0  0  0  0  0
    4.6650    0.4185    0.0000 C   0  0  0  0  0  0  0  0  0  0  0  0
    6.0805   -0.4033    0.0000 C   0  0  0  0  0  0  0  0  0  0  0  0
    5.3500    0.8143    0.0000 C   0  0  0  0  0  0  0  0  0  0  0  0
    6.0805    0.4185    0.0000 C   0  0  0  0  0  0  0  0  0  0  0  0
  1 10  1  0  0  0  0
  2 11  1  0  0  0  0
  3  9  1  0  0  0  0
  3 15  1  0  0  0  0
  4 20  1  0  0  0  0
  5 24  2  0  0  0  0
  6 23  1  0  0  0  0
  6 24  1  0  0  0  0
 17  7  1  6  0  0  0
  8 24  1  0  0  0  0
  8 26  1  0  0  0  0
  9 10  2  0  0  0  0
  9 11  1  0  0  0  0
 10 13  1  0  0  0  0
 11 14  2  0  0  0  0
 12 13  2  0  0  0  0
 12 14  1  0  0  0  0
 12 16  1  0  0  0  0
 15 18  2  0  0  0  0
 15 19  1  0  0  0  0
 16 17  1  0  0  0  0
 17 23  1  0  0  0  0
 18 21  1  0  0  0  0
 19 22  2  0  0  0  0
 20 21  2  0  0  0  0
 20 22  1  0  0  0  0
 25 26  1  0  0  0  0
 25 27  2  0  0  0  0
 25 28  1  0  0  0  0
 27 29  1  0  0  0  0
 28 30  2  0  0  0  0
 29 31  2  0  0  0  0
 30 31  1  0  0  0  0
M  END
> <PUBCHEM_COMPOUND_ID_TYPE>
0

> <PUBCHEM_TOTAL_CHARGE>
0

> <PUBCHEM_SUBSTANCE_ID>
310947832

> <PUBCHEM_SUBSTANCE_VERSION>
1

> <PUBCHEM_EXT_DATASOURCE_NAME>
4488

> <PUBCHEM_EXT_DATASOURCE_REGID>
SCHEMBL16126004

> <PUBCHEM_SUBSTANCE_COMMENT>
InChI=1S/C23H23I2N3O3/c24-20-11-16(12-21(25)22(20)31-19-8-6-18(29)7-9-19)10-17(26)14-28-23(30)27-13-15-4-2-1-3-5-15/h1-9,11-12,17,29H,10,13-14,26H2,(H2,27,28,30)/t17-/m0/s1
InChIKey=HAFXSFRSTWSHLW-KRWDZBQOSA-N

> <PUBCHEM_SUBSTANCE_SYNONYM>
SCHEMBL16126004

> <PUBCHEM_XREF_EXT_ID>
SCHEMBL16126004

> <PUBCHEM_EXT_DATASOURCE_URL>
https://www.surechembl.org/

> <PUBCHEM_EXT_SUBSTANCE_URL>
https://www.surechembl.org/chemical/SCHEMBL16126004

> <PUBCHEM_CID_ASSOCIATIONS>
117613498  1

> <PUBCHEM_COORDINATE_TYPE>
1
3

> <PUBCHEM_BONDANNOTATIONS>
17  7  6

$$$$
