310943436
  -OEChem-07211613022D

 36 39  0     0  0  0  0  0  0999 V2000
   -3.2234   -0.0073    0.0000 O   0  0  0  0  0  0  0  0  0  0  0  0
    1.0745   -0.0073    0.0000 O   0  0  0  0  0  0  0  0  0  0  0  0
   -4.6560    2.4632    0.0000 O   0  0  0  0  0  0  0  0  0  0  0  0
   -3.2234    1.6446    0.0000 N   0  0  0  0  0  0  0  0  0  0  0  0
   -1.7908   -0.0073    0.0000 N   0  0  0  0  0  0  0  0  0  0  0  0
    1.7908    1.2353    0.0000 N   0  0  0  0  0  0  0  0  0  0  0  0
    0.3582    2.8726    0.0000 N   0  0  0  0  0  0  0  0  0  0  0  0
    3.9397   -0.8260    0.0000 N   0  0  0  0  0  0  0  0  0  0  0  0
    3.9397   -0.0073    0.0000 N   0  0  0  0  0  0  0  0  0  0  0  0
    4.6560   -2.8726    0.0000 N   0  0  0  0  0  0  0  0  0  0  0  0
   -1.0745    1.2353    0.0000 C   0  0  0  0  0  0  0  0  0  0  0  0
   -0.3728    1.6446    0.0000 C   0  0  0  0  0  0  0  0  0  0  0  0
   -2.5071    1.2353    0.0000 C   0  0  0  0  0  0  0  0  0  0  0  0
   -2.5217    0.4166    0.0000 C   0  0  0  0  0  0  0  0  0  0  0  0
   -1.7908    1.6446    0.0000 C   0  0  0  0  0  0  0  0  0  0  0  0
   -0.3582    2.4779    0.0000 C   0  0  0  0  0  0  0  0  0  0  0  0
    0.3582    1.2353    0.0000 C   0  0  0  0  0  0  0  0  0  0  0  0
    1.0599    1.6446    0.0000 C   0  0  0  0  0  0  0  0  0  0  0  0
   -1.0745    0.4166    0.0000 C   0  0  0  0  0  0  0  0  0  0  0  0
    3.2381   -1.2353    0.0000 C   0  0  0  0  0  0  0  0  0  0  0  0
    2.5217    0.0073    0.0000 C   0  0  0  0  0  0  0  0  0  0  0  0
    3.2088   -2.0685    0.0000 C   0  0  0  0  0  0  0  0  0  0  0  0
    1.8054    0.4166    0.0000 C   0  0  0  0  0  0  0  0  0  0  0  0
    1.0745    2.4632    0.0000 C   0  0  0  0  0  0  0  0  0  0  0  0
    2.5071   -0.8260    0.0000 C   0  0  0  0  0  0  0  0  0  0  0  0
   -3.2234    2.4632    0.0000 C   0  0  0  0  0  0  0  0  0  0  0  0
   -3.9251    1.2353    0.0000 C   0  0  0  0  0  0  0  0  0  0  0  0
    3.2088    0.4020    0.0000 C   0  0  0  0  0  0  0  0  0  0  0  0
   -1.0891    2.8580    0.0000 C   0  0  0  0  0  0  0  0  0  0  0  0
    3.9251   -2.4779    0.0000 C   0  0  0  0  0  0  0  0  0  0  0  0
   -3.9544    2.8726    0.0000 C   0  0  0  0  0  0  0  0  0  0  0  0
   -4.6560    1.6446    0.0000 C   0  0  0  0  0  0  0  0  0  0  0  0
    2.3901   -2.0539    0.0000 C   0  0  0  0  0  0  0  0  0  0  0  0
    2.8287   -2.7848    0.0000 C   0  0  0  0  0  0  0  0  0  0  0  0
   -3.9397    0.4166    0.0000 C   0  0  0  0  0  0  0  0  0  0  0  0
   -4.6414   -0.0219    0.0000 C   0  0  0  0  0  0  0  0  0  0  0  0
  1 14  1  0  0  0  0
  1 35  1  0  0  0  0
  2 23  2  0  0  0  0
  3 31  1  0  0  0  0
  3 32  1  0  0  0  0
  4 13  1  0  0  0  0
  4 26  1  0  0  0  0
  4 27  1  0  0  0  0
  5 14  2  0  0  0  0
  5 19  1  0  0  0  0
  6 18  1  0  0  0  0
  6 23  1  0  0  0  0
  7 16  1  0  0  0  0
  7 24  2  0  0  0  0
  8  9  1  0  0  0  0
  8 20  2  0  0  0  0
  9 28  2  0  0  0  0
 10 30  3  0  0  0  0
 11 12  1  0  0  0  0
 11 15  1  0  0  0  0
 11 19  2  0  0  0  0
 12 16  2  0  0  0  0
 12 17  1  0  0  0  0
 13 14  1  0  0  0  0
 13 15  2  0  0  0  0
 16 29  1  0  0  0  0
 17 18  2  0  0  0  0
 18 24  1  0  0  0  0
 20 22  1  0  0  0  0
 20 25  1  0  0  0  0
 21 23  1  0  0  0  0
 21 25  2  0  0  0  0
 21 28  1  0  0  0  0
 22 30  1  0  0  0  0
 22 33  1  0  0  0  0
 22 34  1  0  0  0  0
 26 31  1  0  0  0  0
 27 32  1  0  0  0  0
 35 36  1  0  0  0  0
M  END
> <PUBCHEM_COMPOUND_ID_TYPE>
0

> <PUBCHEM_TOTAL_CHARGE>
0

> <PUBCHEM_SUBSTANCE_ID>
310943436

> <PUBCHEM_SUBSTANCE_VERSION>
1

> <PUBCHEM_EXT_DATASOURCE_NAME>
4488

> <PUBCHEM_EXT_DATASOURCE_REGID>
SCHEMBL16121500

> <PUBCHEM_SUBSTANCE_COMMENT>
InChI=1S/C26H29N7O3/c1-5-36-25-22(33-6-8-35-9-7-33)10-18(13-29-25)21-12-20(15-28-17(21)2)31-24(34)19-11-23(32-30-14-19)26(3,4)16-27/h10-15H,5-9H2,1-4H3,(H,31,34)
InChIKey=IMKFQMQVYSGGDN-UHFFFAOYSA-N

> <PUBCHEM_SUBSTANCE_SYNONYM>
SCHEMBL16121500

> <PUBCHEM_XREF_EXT_ID>
SCHEMBL16121500

> <PUBCHEM_EXT_DATASOURCE_URL>
https://www.surechembl.org/

> <PUBCHEM_EXT_SUBSTANCE_URL>
https://www.surechembl.org/chemical/SCHEMBL16121500

> <PUBCHEM_CID_ASSOCIATIONS>
117609860  1

> <PUBCHEM_COORDINATE_TYPE>
1
3

$$$$
