310933132
  -OEChem-07211613022D

 25 29  0     0  0  0  0  0  0999 V2000
    3.3759   -0.7989    0.0000 S   0  0  0  0  0  0  0  0  0  0  0  0
    0.0000   -4.0716    0.0000 O   0  0  0  0  0  0  0  0  0  0  0  0
    5.5663   -2.9378    0.0000 O   0  0  0  0  0  0  0  0  0  0  0  0
    4.2520   -2.2677    0.0000 N   0  0  0  0  0  0  0  0  0  0  0  0
    4.2520   -3.6078    0.0000 N   0  0  0  0  0  0  0  0  0  0  0  0
    2.2677    0.0000    0.0000 N   0  0  0  0  0  0  0  0  0  0  0  0
    0.4123   -4.7932    0.0000 N   0  0  0  0  0  0  0  0  0  0  0  0
    2.7316   -2.1132    0.0000 C   0  0  0  0  0  0  0  0  0  0  0  0
    3.4532   -2.4997    0.0000 C   0  0  0  0  0  0  0  0  0  0  0  0
    2.7058   -1.2885    0.0000 C   0  0  0  0  0  0  0  0  0  0  0  0
    3.4532   -3.3759    0.0000 C   0  0  0  0  0  0  0  0  0  0  0  0
    2.0358   -3.3759    0.0000 C   0  0  0  0  0  0  0  0  0  0  0  0
    2.0358   -0.7989    0.0000 C   0  0  0  0  0  0  0  0  0  0  0  0
    2.0358   -2.4997    0.0000 C   0  0  0  0  0  0  0  0  0  0  0  0
    1.3143   -3.7882    0.0000 C   0  0  0  0  0  0  0  0  0  0  0  0
    2.7316   -3.7624    0.0000 C   0  0  0  0  0  0  0  0  0  0  0  0
    1.2627   -1.0823    0.0000 C   0  0  0  0  0  0  0  0  0  0  0  0
    4.7416   -2.9378    0.0000 C   0  0  0  0  0  0  0  0  0  0  0  0
    0.5670   -3.4532    0.0000 C   0  0  0  0  0  0  0  0  0  0  0  0
    1.2370   -4.5871    0.0000 C   0  0  0  0  0  0  0  0  0  0  0  0
    0.7215   -1.7008    0.0000 C   0  0  0  0  0  0  0  0  0  0  0  0
    0.4381   -0.9277    0.0000 C   0  0  0  0  0  0  0  0  0  0  0  0
    3.1181    0.0000    0.0000 C   0  0  0  0  0  0  0  0  0  0  0  0
    0.3608   -2.6543    0.0000 C   0  0  0  0  0  0  0  0  0  0  0  0
    1.8554   -5.1540    0.0000 C   0  0  0  0  0  0  0  0  0  0  0  0
  1 10  1  0  0  0  0
  1 23  1  0  0  0  0
  2  7  1  0  0  0  0
  2 19  1  0  0  0  0
  3 18  2  0  0  0  0
  4  9  1  0  0  0  0
  4 18  1  0  0  0  0
  5 11  1  0  0  0  0
  5 18  1  0  0  0  0
  6 13  1  0  0  0  0
  6 23  2  0  0  0  0
  7 20  2  0  0  0  0
  8  9  1  0  0  0  0
  8 10  1  0  0  0  0
  8 14  2  0  0  0  0
  9 11  2  0  0  0  0
 10 13  2  0  0  0  0
 11 16  1  0  0  0  0
 12 14  1  0  0  0  0
 12 15  1  0  0  0  0
 12 16  2  0  0  0  0
 13 17  1  0  0  0  0
 15 19  2  0  0  0  0
 15 20  1  0  0  0  0
 17 21  1  0  0  0  0
 17 22  1  0  0  0  0
 19 24  1  0  0  0  0
 20 25  1  0  0  0  0
 21 22  1  0  0  0  0
M  END
> <PUBCHEM_COMPOUND_ID_TYPE>
0

> <PUBCHEM_TOTAL_CHARGE>
0

> <PUBCHEM_SUBSTANCE_ID>
310933132

> <PUBCHEM_SUBSTANCE_VERSION>
1

> <PUBCHEM_EXT_DATASOURCE_NAME>
4488

> <PUBCHEM_EXT_DATASOURCE_REGID>
SCHEMBL16110539

> <PUBCHEM_SUBSTANCE_COMMENT>
InChI=1S/C18H16N4O2S/c1-8-14(9(2)24-22-8)11-5-12(16-13(6-11)20-18(23)21-16)17-15(10-3-4-10)19-7-25-17/h5-7,10H,3-4H2,1-2H3,(H2,20,21,23)
InChIKey=IQLCSHAKNURPMJ-UHFFFAOYSA-N

> <PUBCHEM_SUBSTANCE_SYNONYM>
SCHEMBL16110539

> <PUBCHEM_XREF_EXT_ID>
SCHEMBL16110539

> <PUBCHEM_EXT_DATASOURCE_URL>
https://www.surechembl.org/

> <PUBCHEM_EXT_SUBSTANCE_URL>
https://www.surechembl.org/chemical/SCHEMBL16110539

> <PUBCHEM_CID_ASSOCIATIONS>
117601587  1

> <PUBCHEM_COORDINATE_TYPE>
1
3

$$$$
