310948994
  -OEChem-07211613022D

 14 14  0     0  0  0  0  0  0999 V2000
    0.8327    0.7012    0.0000 Cl  0  0  0  0  0  0  0  0  0  0  0  0
   -2.2461   -0.9970    0.0000 Cl  0  0  0  0  0  0  0  0  0  0  0  0
    1.5338   -0.5697    0.0000 O   0  0  0  0  0  0  0  0  0  0  0  0
   -0.5916   -0.9861    0.0000 N   0  0  0  0  0  0  0  0  0  0  0  0
   -0.5916    1.5667    0.0000 N   0  0  0  0  0  0  0  0  0  0  0  0
    0.1096   -0.5697    0.0000 C   0  0  0  0  0  0  0  0  0  0  0  0
    0.1205    0.2849    0.0000 C   0  0  0  0  0  0  0  0  0  0  0  0
   -0.6026    0.7121    0.0000 C   0  0  0  0  0  0  0  0  0  0  0  0
   -1.3038    0.2849    0.0000 C   0  0  0  0  0  0  0  0  0  0  0  0
   -1.3148   -0.5587    0.0000 C   0  0  0  0  0  0  0  0  0  0  0  0
    0.8327   -0.9642    0.0000 C   0  0  0  0  0  0  0  0  0  0  0  0
   -2.0160    0.7012    0.0000 C   0  0  0  0  0  0  0  0  0  0  0  0
    0.8327   -1.5667    0.0000 C   0  0  0  0  0  0  0  0  0  0  0  0
    2.2461   -0.9970    0.0000 C   0  0  0  0  0  0  0  0  0  0  0  0
  1  7  1  0  0  0  0
  2 10  1  0  0  0  0
  3 11  1  0  0  0  0
  3 14  1  0  0  0  0
  4  6  2  0  0  0  0
  4 10  1  0  0  0  0
  5  8  1  0  0  0  0
  6  7  1  0  0  0  0
  6 11  1  0  0  0  0
  7  8  2  0  0  0  0
  8  9  1  0  0  0  0
  9 10  2  0  0  0  0
  9 12  1  0  0  0  0
 11 13  2  0  0  0  0
M  END
> <PUBCHEM_COMPOUND_ID_TYPE>
0

> <PUBCHEM_TOTAL_CHARGE>
0

> <PUBCHEM_SUBSTANCE_ID>
310948994

> <PUBCHEM_SUBSTANCE_VERSION>
1

> <PUBCHEM_EXT_DATASOURCE_NAME>
4488

> <PUBCHEM_EXT_DATASOURCE_REGID>
SCHEMBL16127182

> <PUBCHEM_SUBSTANCE_COMMENT>
InChI=1S/C9H10Cl2N2O/c1-4-7(12)6(10)8(5(2)14-3)13-9(4)11/h2H2,1,3H3,(H2,12,13)
InChIKey=GUBWLYOIUHLHMR-UHFFFAOYSA-N

> <PUBCHEM_SUBSTANCE_SYNONYM>
SCHEMBL16127182

> <PUBCHEM_XREF_EXT_ID>
SCHEMBL16127182

> <PUBCHEM_EXT_DATASOURCE_URL>
https://www.surechembl.org/

> <PUBCHEM_EXT_SUBSTANCE_URL>
https://www.surechembl.org/chemical/SCHEMBL16127182

> <PUBCHEM_CID_ASSOCIATIONS>
117614503  1

> <PUBCHEM_COORDINATE_TYPE>
1
3

$$$$
