310928809
  -OEChem-07211613022D

 12 13  0     0  0  0  0  0  0999 V2000
   -1.7065    0.4125    0.0000 Cl  0  0  0  0  0  0  0  0  0  0  0  0
    1.4765    1.0396    0.0000 O   0  0  0  0  0  0  0  0  0  0  0  0
    0.4369    0.0000    0.0000 C   0  0  0  0  0  0  0  0  0  0  0  0
    0.4369   -0.8250    0.0000 C   0  0  0  0  0  0  0  0  0  0  0  0
   -0.2775    0.4125    0.0000 C   0  0  0  0  0  0  0  0  0  0  0  0
    1.2216    0.2549    0.0000 C   0  0  0  0  0  0  0  0  0  0  0  0
   -0.9920   -0.0000    0.0000 C   0  0  0  0  0  0  0  0  0  0  0  0
    1.2216   -1.0799    0.0000 C   0  0  0  0  0  0  0  0  0  0  0  0
   -0.2775   -1.2375    0.0000 C   0  0  0  0  0  0  0  0  0  0  0  0
    1.7065   -0.4125    0.0000 C   0  0  0  0  0  0  0  0  0  0  0  0
   -0.9920   -0.8250    0.0000 C   0  0  0  0  0  0  0  0  0  0  0  0
   -0.2775    1.2375    0.0000 C   0  0  0  0  0  0  0  0  0  0  0  0
  1  7  1  0  0  0  0
  2  6  2  0  0  0  0
  3  4  2  0  0  0  0
  3  5  1  0  0  0  0
  3  6  1  0  0  0  0
  4  8  1  0  0  0  0
  4  9  1  0  0  0  0
  5  7  2  0  0  0  0
  5 12  1  0  0  0  0
  6 10  1  0  0  0  0
  7 11  1  0  0  0  0
  8 10  1  0  0  0  0
  9 11  2  0  0  0  0
M  END
> <PUBCHEM_COMPOUND_ID_TYPE>
0

> <PUBCHEM_TOTAL_CHARGE>
0

> <PUBCHEM_SUBSTANCE_ID>
310928809

> <PUBCHEM_SUBSTANCE_VERSION>
1

> <PUBCHEM_EXT_DATASOURCE_NAME>
11752

> <PUBCHEM_EXT_DATASOURCE_REGID>
BD270526

> <PUBCHEM_SUBSTANCE_SYNONYM>
6-Chloro-7-methyl-2,3-dihydro-1H-inden-1-one
628732-10-5

> <PUBCHEM_GENERIC_REGISTRY_NAME>
628732-10-5

> <PUBCHEM_XREF_EXT_ID>
BD270526

> <PUBCHEM_EXT_DATASOURCE_URL>
http://www.bidepharmatech.com/en/index.html

> <PUBCHEM_EXT_SUBSTANCE_URL>
http://www.bidepharmatech.com/en/goodsview_goodscode_BD270526.html

> <PUBCHEM_CID_ASSOCIATIONS>
21986067  1

> <PUBCHEM_COORDINATE_TYPE>
1
3

$$$$
