310948370
  -OEChem-07211613022D

 30 33  0     1  0  0  0  0  0999 V2000
    2.6716   -1.9347    0.0000 F   0  0  0  0  0  0  0  0  0  0  0  0
    3.2428   -2.8927    0.0000 F   0  0  0  0  0  0  0  0  0  0  0  0
    2.2663   -3.4455    0.0000 F   0  0  0  0  0  0  0  0  0  0  0  0
   -2.5242   -2.0452    0.0000 O   0  0  0  0  0  0  0  0  0  0  0  0
   -0.0369    3.4455    0.0000 O   0  0  0  0  0  0  0  0  0  0  0  0
   -1.0134    0.2948    0.0000 N   0  0  0  0  0  0  0  0  0  0  0  0
   -0.5344   -0.3685    0.0000 N   0  0  0  0  0  0  0  0  0  0  0  0
   -0.7555   -1.8241    0.0000 N   0  0  0  0  0  0  0  0  0  0  0  0
   -3.2428   -0.7922    0.0000 N   0  0  0  0  0  0  0  0  0  0  0  0
    1.1423    0.0184    0.0000 N   0  0  0  0  0  0  0  0  0  0  0  0
   -1.8241   -0.7738    0.0000 C   0  0  0  0  0  0  0  0  0  0  0  0
   -1.8057    0.0553    0.0000 C   0  0  0  0  0  0  0  0  0  0  0  0
   -1.0318   -1.0318    0.0000 C   0  0  0  0  0  0  0  0  0  0  0  0
   -0.7555    1.1055    0.0000 C   0  0  3  0  0  0  0  0  0  0  0  0
   -2.5242   -1.1792    0.0000 C   0  0  0  0  0  0  0  0  0  0  0  0
   -2.5242    0.4607    0.0000 C   0  0  0  0  0  0  0  0  0  0  0  0
    0.0553    1.2713    0.0000 C   0  0  3  0  0  0  0  0  0  0  0  0
    0.0369   -2.0268    0.0000 C   0  0  0  0  0  0  0  0  0  0  0  0
   -1.3082    1.6951    0.0000 C   0  0  0  0  0  0  0  0  0  0  0  0
   -3.2244    0.0553    0.0000 C   0  0  0  0  0  0  0  0  0  0  0  0
    0.2948    2.0636    0.0000 C   0  0  0  0  0  0  0  0  0  0  0  0
   -0.2580    2.6716    0.0000 C   0  0  3  0  0  0  0  0  0  0  0  0
   -1.0502    2.4874    0.0000 C   0  0  0  0  0  0  0  0  0  0  0  0
    1.6398   -2.4689    0.0000 C   0  0  0  0  0  0  0  0  0  0  0  0
    0.2580   -2.8375    0.0000 C   0  0  0  0  0  0  0  0  0  0  0  0
    0.6265   -1.4740    0.0000 C   0  0  0  0  0  0  0  0  0  0  0  0
    0.6081    0.6265    0.0000 C   0  0  0  0  0  0  0  0  0  0  0  0
    2.4505   -2.6900    0.0000 C   0  0  0  0  0  0  0  0  0  0  0  0
    1.0686   -3.0401    0.0000 C   0  0  0  0  0  0  0  0  0  0  0  0
    1.4187   -1.6767    0.0000 C   0  0  0  0  0  0  0  0  0  0  0  0
  1 28  1  0  0  0  0
  2 28  1  0  0  0  0
  3 28  1  0  0  0  0
  4 15  2  0  0  0  0
 22  5  1  1  0  0  0
  6  7  1  0  0  0  0
  6 12  1  0  0  0  0
 14  6  1  1  0  0  0
  7 13  2  0  0  0  0
  8 13  1  0  0  0  0
  8 18  1  0  0  0  0
  9 15  1  0  0  0  0
  9 20  1  0  0  0  0
 10 27  3  0  0  0  0
 11 12  2  0  0  0  0
 11 13  1  0  0  0  0
 11 15  1  0  0  0  0
 12 16  1  0  0  0  0
 14 17  1  0  0  0  0
 14 19  1  0  0  0  0
 16 20  2  0  0  0  0
 17 21  1  0  0  0  0
 17 27  1  6  0  0  0
 18 25  2  0  0  0  0
 18 26  1  0  0  0  0
 19 23  1  0  0  0  0
 21 22  1  0  0  0  0
 22 23  1  0  0  0  0
 24 28  1  0  0  0  0
 24 29  2  0  0  0  0
 24 30  1  0  0  0  0
 25 29  1  0  0  0  0
 26 30  2  0  0  0  0
M  END
> <PUBCHEM_COMPOUND_ID_TYPE>
0

> <PUBCHEM_TOTAL_CHARGE>
0

> <PUBCHEM_SUBSTANCE_ID>
310948370

> <PUBCHEM_SUBSTANCE_VERSION>
1

> <PUBCHEM_EXT_DATASOURCE_NAME>
4488

> <PUBCHEM_EXT_DATASOURCE_REGID>
SCHEMBL16126551

> <PUBCHEM_SUBSTANCE_COMMENT>
InChI=1S/C20H18F3N5O2/c21-20(22,23)12-1-3-13(4-2-12)26-18-17-16(7-8-25-19(17)30)28(27-18)15-6-5-14(29)9-11(15)10-24/h1-4,7-8,11,14-15,29H,5-6,9H2,(H,25,30)(H,26,27)/t11-,14-,15+/m1/s1
InChIKey=BLXQKRIUTLZSSJ-DFBGVHRSSA-N

> <PUBCHEM_SUBSTANCE_SYNONYM>
SCHEMBL16126551

> <PUBCHEM_XREF_EXT_ID>
SCHEMBL16126551

> <PUBCHEM_EXT_DATASOURCE_URL>
https://www.surechembl.org/

> <PUBCHEM_EXT_SUBSTANCE_URL>
https://www.surechembl.org/chemical/SCHEMBL16126551

> <PUBCHEM_CID_ASSOCIATIONS>
117613933  1

> <PUBCHEM_COORDINATE_TYPE>
1
3

> <PUBCHEM_BONDANNOTATIONS>
17  27  6
22  5  5
14  6  5

$$$$
