310945764
  -OEChem-07211613022D

 30 34  0     1  0  0  0  0  0999 V2000
    0.4745    2.6692    0.0000 F   0  0  0  0  0  0  0  0  0  0  0  0
    0.8304    1.6015    0.0000 F   0  0  0  0  0  0  0  0  0  0  0  0
   -0.2570    1.2852    0.0000 F   0  0  0  0  0  0  0  0  0  0  0  0
   -2.0761   -2.5902    0.0000 O   0  0  0  0  0  0  0  0  0  0  0  0
   -1.3642   -1.3840    0.0000 N   0  0  0  0  0  0  0  0  0  0  0  0
   -1.3247    1.1270    0.0000 N   0  0  0  0  0  0  0  0  0  0  0  0
    0.1186   -2.2737    0.0000 N   0  0  0  0  0  0  0  0  0  0  0  0
   -0.5536   -3.4601    0.0000 N   0  0  0  0  0  0  0  0  0  0  0  0
    0.2373   -3.5985    0.0000 N   0  0  0  0  0  0  0  0  0  0  0  0
   -0.9293   -0.1186    0.0000 C   0  0  3  0  0  0  0  0  0  0  0  0
   -1.7795   -0.0988    0.0000 C   0  0  3  0  0  0  0  0  0  0  0  0
   -0.6327   -2.6099    0.0000 C   0  0  0  0  0  0  0  0  0  0  0  0
   -1.3642   -2.1749    0.0000 C   0  0  0  0  0  0  0  0  0  0  0  0
   -1.3247    1.9970    0.0000 C   0  0  0  0  0  0  0  0  0  0  0  0
   -0.7118   -0.8502    0.0000 C   0  0  0  0  0  0  0  0  0  0  0  0
   -2.0365   -0.9095    0.0000 C   0  0  0  0  0  0  0  0  0  0  0  0
   -1.9970    0.6920    0.0000 C   0  0  0  0  0  0  0  0  0  0  0  0
   -0.6723    0.6723    0.0000 C   0  0  0  0  0  0  0  0  0  0  0  0
    0.6920   -2.8867    0.0000 C   0  0  0  0  0  0  0  0  0  0  0  0
   -0.6327    2.3924    0.0000 C   0  0  0  0  0  0  0  0  0  0  0  0
    0.0988    1.9772    0.0000 C   0  0  0  0  0  0  0  0  0  0  0  0
    0.3559   -1.5027    0.0000 C   0  0  0  0  0  0  0  0  0  0  0  0
   -2.0365    2.3924    0.0000 C   0  0  0  0  0  0  0  0  0  0  0  0
    1.4434   -2.7286    0.0000 C   0  0  0  0  0  0  0  0  0  0  0  0
   -0.6129    3.1635    0.0000 C   0  0  0  0  0  0  0  0  0  0  0  0
    1.7202   -1.9376    0.0000 C   0  0  0  0  0  0  0  0  0  0  0  0
    1.1468   -1.3445    0.0000 C   0  0  0  0  0  0  0  0  0  0  0  0
   -2.0563    3.1635    0.0000 C   0  0  0  0  0  0  0  0  0  0  0  0
   -1.3247    3.5985    0.0000 C   0  0  0  0  0  0  0  0  0  0  0  0
    2.5704   -1.7795    0.0000 C   0  0  0  0  0  0  0  0  0  0  0  0
  1 21  1  0  0  0  0
  2 21  1  0  0  0  0
  3 21  1  0  0  0  0
  4 13  2  0  0  0  0
  5 13  1  0  0  0  0
  5 15  1  0  0  0  0
  5 16  1  0  0  0  0
  6 14  1  0  0  0  0
  6 17  1  0  0  0  0
  6 18  1  0  0  0  0
  7 12  1  0  0  0  0
  7 19  1  0  0  0  0
  7 22  1  0  0  0  0
  8  9  1  0  0  0  0
  8 12  2  0  0  0  0
  9 19  2  0  0  0  0
 10 11  1  0  0  0  0
 10 15  1  1  0  0  0
 10 18  1  0  0  0  0
 11 16  1  1  0  0  0
 11 17  1  0  0  0  0
 12 13  1  0  0  0  0
 14 20  2  0  0  0  0
 14 23  1  0  0  0  0
 19 24  1  0  0  0  0
 20 21  1  0  0  0  0
 20 25  1  0  0  0  0
 22 27  2  0  0  0  0
 23 28  2  0  0  0  0
 24 26  2  0  0  0  0
 25 29  2  0  0  0  0
 26 27  1  0  0  0  0
 26 30  1  0  0  0  0
 28 29  1  0  0  0  0
M  END
> <PUBCHEM_COMPOUND_ID_TYPE>
0

> <PUBCHEM_TOTAL_CHARGE>
0

> <PUBCHEM_SUBSTANCE_ID>
310945764

> <PUBCHEM_SUBSTANCE_VERSION>
1

> <PUBCHEM_EXT_DATASOURCE_NAME>
4488

> <PUBCHEM_EXT_DATASOURCE_REGID>
SCHEMBL16123868

> <PUBCHEM_SUBSTANCE_COMMENT>
InChI=1S/C21H20F3N5O/c1-13-6-7-29-18(8-13)25-26-19(29)20(30)28-11-14-9-27(10-15(14)12-28)17-5-3-2-4-16(17)21(22,23)24/h2-8,14-15H,9-12H2,1H3/t14-,15+
InChIKey=QLQOWLFQAMORAV-GASCZTMLSA-N

> <PUBCHEM_SUBSTANCE_SYNONYM>
SCHEMBL16123868

> <PUBCHEM_XREF_EXT_ID>
SCHEMBL16123868

> <PUBCHEM_EXT_DATASOURCE_URL>
https://www.surechembl.org/

> <PUBCHEM_EXT_SUBSTANCE_URL>
https://www.surechembl.org/chemical/SCHEMBL16123868

> <PUBCHEM_CID_ASSOCIATIONS>
86296828  1

> <PUBCHEM_COORDINATE_TYPE>
1
3

> <PUBCHEM_BONDANNOTATIONS>
10  15  5
11  16  5

$$$$
