310939230
  -OEChem-07211613022D

 24 26  0     1  0  0  0  0  0999 V2000
    0.6740   -0.7145    0.0000 Cl  0  0  0  0  0  0  0  0  0  0  0  0
   -1.8010    0.7145    0.0000 F   0  0  0  0  0  0  0  0  0  0  0  0
   -0.1510    0.7145    0.0000 O   0  0  0  0  0  0  0  0  0  0  0  0
    2.3240   -0.7145    0.0000 N   0  0  0  0  0  0  0  0  0  0  0  0
   -3.0385    0.0000    0.0000 N   0  0  0  0  0  0  0  0  0  0  0  0
    3.1490    0.7145    0.0000 C   0  0  0  0  0  0  0  0  0  0  0  0
    2.3240    0.7145    0.0000 C   0  0  0  0  0  0  0  0  0  0  0  0
    3.8635    0.3020    0.0000 C   0  0  0  0  0  0  0  0  0  0  0  0
    3.8635    1.1270    0.0000 C   0  0  0  0  0  0  0  0  0  0  0  0
   -0.5635    0.0000    0.0000 C   0  0  0  0  0  0  0  0  0  0  0  0
   -1.3885    0.0000    0.0000 C   0  0  0  0  0  0  0  0  0  0  0  0
    2.7365    0.0000    0.0000 C   0  0  0  0  0  0  0  0  0  0  0  0
   -1.8010   -0.7145    0.0000 C   0  0  0  0  0  0  0  0  0  0  0  0
    0.6740    0.7145    0.0000 C   0  0  0  0  0  0  0  0  0  0  0  0
    1.9115    1.4289    0.0000 C   0  0  0  0  0  0  0  0  0  0  0  0
    1.9115    0.0000    0.0000 C   0  0  0  0  0  0  0  0  0  0  0  0
   -0.1510   -0.7145    0.0000 C   0  0  0  0  0  0  0  0  0  0  0  0
    1.0865    1.4289    0.0000 C   0  0  0  0  0  0  0  0  0  0  0  0
    1.0865    0.0000    0.0000 C   0  0  0  0  0  0  0  0  0  0  0  0
   -1.3885   -1.4289    0.0000 C   0  0  0  0  0  0  0  0  0  0  0  0
   -2.6260   -0.7145    0.0000 C   0  0  3  0  0  0  0  0  0  0  0  0
   -0.5635   -1.4289    0.0000 C   0  0  0  0  0  0  0  0  0  0  0  0
   -3.0385   -1.4289    0.0000 C   0  0  0  0  0  0  0  0  0  0  0  0
   -3.8635   -1.4289    0.0000 C   0  0  0  0  0  0  0  0  0  0  0  0
  1 17  1  0  0  0  0
  2 11  1  0  0  0  0
  3 10  1  0  0  0  0
  3 14  1  0  0  0  0
  4 12  3  0  0  0  0
 21  5  1  1  0  0  0
  6  7  1  0  0  0  0
  6  8  1  0  0  0  0
  6  9  1  0  0  0  0
  6 12  1  0  0  0  0
  7 15  2  0  0  0  0
  7 16  1  0  0  0  0
  8  9  1  0  0  0  0
 10 11  1  0  0  0  0
 10 17  2  0  0  0  0
 11 13  2  0  0  0  0
 13 20  1  0  0  0  0
 13 21  1  0  0  0  0
 14 18  2  0  0  0  0
 14 19  1  0  0  0  0
 15 18  1  0  0  0  0
 16 19  2  0  0  0  0
 17 22  1  0  0  0  0
 20 22  2  0  0  0  0
 21 23  1  0  0  0  0
 23 24  1  0  0  0  0
M  END
> <PUBCHEM_COMPOUND_ID_TYPE>
0

> <PUBCHEM_TOTAL_CHARGE>
0

> <PUBCHEM_SUBSTANCE_ID>
310939230

> <PUBCHEM_SUBSTANCE_VERSION>
1

> <PUBCHEM_EXT_DATASOURCE_NAME>
4488

> <PUBCHEM_EXT_DATASOURCE_REGID>
SCHEMBL16117151

> <PUBCHEM_SUBSTANCE_COMMENT>
InChI=1S/C19H18ClFN2O/c1-2-16(23)14-7-8-15(20)18(17(14)21)24-13-5-3-12(4-6-13)19(11-22)9-10-19/h3-8,16H,2,9-10,23H2,1H3/t16-/m1/s1
InChIKey=HXHFFKFLLWYSHT-MRXNPFEDSA-N

> <PUBCHEM_SUBSTANCE_SYNONYM>
SCHEMBL16117151

> <PUBCHEM_XREF_EXT_ID>
SCHEMBL16117151

> <PUBCHEM_EXT_DATASOURCE_URL>
https://www.surechembl.org/

> <PUBCHEM_EXT_SUBSTANCE_URL>
https://www.surechembl.org/chemical/SCHEMBL16117151

> <PUBCHEM_CID_ASSOCIATIONS>
117606578  1

> <PUBCHEM_COORDINATE_TYPE>
1
3

> <PUBCHEM_BONDANNOTATIONS>
21  5  5

$$$$
