310939381
  -OEChem-07211613022D

 25 26  0     1  0  0  0  0  0999 V2000
    1.8659    1.1653    0.0000 Cl  0  0  0  0  0  0  0  0  0  0  0  0
    2.5803    0.7528    0.0000 S   0  0  0  0  0  0  0  0  0  0  0  0
    0.4369   -1.3097    0.0000 F   0  0  0  0  0  0  0  0  0  0  0  0
    1.8659   -0.4847    0.0000 O   0  0  0  0  0  0  0  0  0  0  0  0
   -3.8499   -0.4847    0.0000 O   0  0  0  0  0  0  0  0  0  0  0  0
    3.3650   -0.3271    0.0000 N   0  0  0  0  0  0  0  0  0  0  0  0
   -1.7065   -0.0722    0.0000 N   0  0  0  0  0  0  0  0  0  0  0  0
    3.8499    0.3403    0.0000 N   0  0  0  0  0  0  0  0  0  0  0  0
   -3.1354    0.7528    0.0000 N   0  0  0  0  0  0  0  0  0  0  0  0
    1.1514   -0.0722    0.0000 C   0  0  0  0  0  0  0  0  0  0  0  0
    0.4369   -0.4847    0.0000 C   0  0  0  0  0  0  0  0  0  0  0  0
   -0.2775   -0.0722    0.0000 C   0  0  0  0  0  0  0  0  0  0  0  0
    1.1514    0.7528    0.0000 C   0  0  0  0  0  0  0  0  0  0  0  0
   -0.9920   -0.4847    0.0000 C   0  0  3  0  0  0  0  0  0  0  0  0
    2.5803   -0.0722    0.0000 C   0  0  0  0  0  0  0  0  0  0  0  0
   -0.2775    0.7528    0.0000 C   0  0  0  0  0  0  0  0  0  0  0  0
    0.4369    1.1653    0.0000 C   0  0  0  0  0  0  0  0  0  0  0  0
    3.3650    1.0077    0.0000 C   0  0  0  0  0  0  0  0  0  0  0  0
   -0.9920   -1.3097    0.0000 C   0  0  0  0  0  0  0  0  0  0  0  0
   -1.7065    0.7528    0.0000 C   0  0  3  0  0  0  0  0  0  0  0  0
    3.7775    1.7222    0.0000 C   0  0  0  0  0  0  0  0  0  0  0  0
   -2.4209    1.1653    0.0000 C   0  0  0  0  0  0  0  0  0  0  0  0
   -0.2775   -1.7222    0.0000 C   0  0  0  0  0  0  0  0  0  0  0  0
   -0.9920    1.1653    0.0000 C   0  0  0  0  0  0  0  0  0  0  0  0
   -3.1354   -0.0722    0.0000 C   0  0  0  0  0  0  0  0  0  0  0  0
  1 13  1  0  0  0  0
  2 15  1  0  0  0  0
  2 18  1  0  0  0  0
  3 11  1  0  0  0  0
  4 10  1  0  0  0  0
  4 15  1  0  0  0  0
  5 25  2  0  0  0  0
  6  8  1  0  0  0  0
  6 15  2  0  0  0  0
 14  7  1  1  0  0  0
  7 20  1  0  0  0  0
  8 18  2  0  0  0  0
  9 22  1  0  0  0  0
  9 25  1  0  0  0  0
 10 11  2  0  0  0  0
 10 13  1  0  0  0  0
 11 12  1  0  0  0  0
 12 14  1  0  0  0  0
 12 16  2  0  0  0  0
 13 17  2  0  0  0  0
 14 19  1  0  0  0  0
 16 17  1  0  0  0  0
 18 21  1  0  0  0  0
 19 23  1  0  0  0  0
 20 22  1  0  0  0  0
 20 24  1  6  0  0  0
M  END
> <PUBCHEM_COMPOUND_ID_TYPE>
0

> <PUBCHEM_TOTAL_CHARGE>
0

> <PUBCHEM_SUBSTANCE_ID>
310939381

> <PUBCHEM_SUBSTANCE_VERSION>
1

> <PUBCHEM_EXT_DATASOURCE_NAME>
4488

> <PUBCHEM_EXT_DATASOURCE_REGID>
SCHEMBL16117302

> <PUBCHEM_SUBSTANCE_COMMENT>
InChI=1S/C16H20ClFN4O2S/c1-4-13(20-9(2)7-19-8-23)11-5-6-12(17)15(14(11)18)24-16-22-21-10(3)25-16/h5-6,8-9,13,20H,4,7H2,1-3H3,(H,19,23)/t9-,13+/m0/s1
InChIKey=XYXRFPGCFVZEIM-TVQRCGJNSA-N

> <PUBCHEM_SUBSTANCE_SYNONYM>
SCHEMBL16117302

> <PUBCHEM_XREF_EXT_ID>
SCHEMBL16117302

> <PUBCHEM_EXT_DATASOURCE_URL>
https://www.surechembl.org/

> <PUBCHEM_EXT_SUBSTANCE_URL>
https://www.surechembl.org/chemical/SCHEMBL16117302

> <PUBCHEM_CID_ASSOCIATIONS>
117606708  1

> <PUBCHEM_COORDINATE_TYPE>
1
3

> <PUBCHEM_BONDANNOTATIONS>
20  24  6
14  7  5

$$$$
