310929160
  -OEChem-07211613022D

 56 61  0     0  0  0  0  0  0999 V2000
    6.3200   -1.2263    0.0000 O   0  0  0  0  0  0  0  0  0  0  0  0
    3.6788   -1.4149    0.0000 O   0  0  0  0  0  0  0  0  0  0  0  0
    2.8298   -4.1032    0.0000 O   0  0  0  0  0  0  0  0  0  0  0  0
    9.1498   -6.0841    0.0000 O   0  0  0  0  0  0  0  0  0  0  0  0
   10.5647   -2.8298    0.0000 O   0  0  0  0  0  0  0  0  0  0  0  0
   14.1492   -1.6036    0.0000 O   0  0  0  0  0  0  0  0  0  0  0  0
    3.4901   -2.8770    0.0000 N   0  0  0  0  0  0  0  0  0  0  0  0
    4.1976   -4.1032    0.0000 N   0  0  0  0  0  0  0  0  0  0  0  0
    7.7349   -3.6316    0.0000 N   0  0  0  0  0  0  0  0  0  0  0  0
    8.4424   -2.4054    0.0000 N   0  0  0  0  0  0  0  0  0  0  0  0
    0.7075   -0.4245    0.0000 N   0  0  0  0  0  0  0  0  0  0  0  0
   11.2722   -4.0561    0.0000 N   0  0  0  0  0  0  0  0  0  0  0  0
   12.6871   -2.4054    0.0000 N   0  0  0  0  0  0  0  0  0  0  0  0
    4.1976   -2.4525    0.0000 C   0  0  0  0  0  0  0  0  0  0  0  0
    2.7827   -2.4525    0.0000 C   0  0  0  0  0  0  0  0  0  0  0  0
    4.1976   -1.6508    0.0000 C   0  0  0  0  0  0  0  0  0  0  0  0
    4.9050   -1.2734    0.0000 C   0  0  0  0  0  0  0  0  0  0  0  0
    2.7827   -1.6508    0.0000 C   0  0  0  0  0  0  0  0  0  0  0  0
    5.6125   -1.6508    0.0000 C   0  0  0  0  0  0  0  0  0  0  0  0
    1.3678   -2.4525    0.0000 C   0  0  0  0  0  0  0  0  0  0  0  0
    2.0752   -2.8770    0.0000 C   0  0  0  0  0  0  0  0  0  0  0  0
    2.0752   -1.2263    0.0000 C   0  0  0  0  0  0  0  0  0  0  0  0
    4.9050   -2.8770    0.0000 C   0  0  0  0  0  0  0  0  0  0  0  0
    3.4901   -3.6788    0.0000 C   0  0  0  0  0  0  0  0  0  0  0  0
    1.3678   -1.6508    0.0000 C   0  0  0  0  0  0  0  0  0  0  0  0
    5.6125   -2.4525    0.0000 C   0  0  0  0  0  0  0  0  0  0  0  0
    0.6603   -2.8770    0.0000 C   0  0  0  0  0  0  0  0  0  0  0  0
    3.4901   -1.2734    0.0000 C   0  0  0  0  0  0  0  0  0  0  0  0
    4.9050   -0.4245    0.0000 C   0  0  0  0  0  0  0  0  0  0  0  0
    2.1224   -0.4245    0.0000 C   0  0  0  0  0  0  0  0  0  0  0  0
    3.4901   -0.4245    0.0000 C   0  0  0  0  0  0  0  0  0  0  0  0
    4.1976    0.0000    0.0000 C   0  0  0  0  0  0  0  0  0  0  0  0
    7.0274   -1.6036    0.0000 C   0  0  0  0  0  0  0  0  0  0  0  0
    0.2830   -2.1696    0.0000 C   0  0  0  0  0  0  0  0  0  0  0  0
    0.0000   -3.3015    0.0000 C   0  0  0  0  0  0  0  0  0  0  0  0
    1.0848   -3.5844    0.0000 C   0  0  0  0  0  0  0  0  0  0  0  0
    7.0274   -2.4054    0.0000 C   0  0  0  0  0  0  0  0  0  0  0  0
    7.7349   -2.8298    0.0000 C   0  0  0  0  0  0  0  0  0  0  0  0
    7.7349   -1.1791    0.0000 C   0  0  0  0  0  0  0  0  0  0  0  0
    1.4149    0.0000    0.0000 C   0  0  0  0  0  0  0  0  0  0  0  0
    3.6316   -0.5660    0.0000 C   0  0  0  0  0  0  0  0  0  0  0  0
    8.4424   -4.0561    0.0000 C   0  0  0  0  0  0  0  0  0  0  0  0
    8.4424   -1.6036    0.0000 C   0  0  0  0  0  0  0  0  0  0  0  0
    9.8572   -4.0561    0.0000 C   0  0  0  0  0  0  0  0  0  0  0  0
    9.1498   -3.6316    0.0000 C   0  0  0  0  0  0  0  0  0  0  0  0
    8.4424   -4.8579    0.0000 C   0  0  0  0  0  0  0  0  0  0  0  0
    9.1498   -5.2823    0.0000 C   0  0  0  0  0  0  0  0  0  0  0  0
    9.8572   -4.8579    0.0000 C   0  0  0  0  0  0  0  0  0  0  0  0
   10.5647   -3.6316    0.0000 C   0  0  0  0  0  0  0  0  0  0  0  0
   11.9796   -3.6316    0.0000 C   0  0  0  0  0  0  0  0  0  0  0  0
    9.9044   -6.5086    0.0000 C   0  0  0  0  0  0  0  0  0  0  0  0
   11.9796   -2.8298    0.0000 C   0  0  0  0  0  0  0  0  0  0  0  0
   12.6871   -1.6036    0.0000 C   0  0  0  0  0  0  0  0  0  0  0  0
   13.3946   -2.8298    0.0000 C   0  0  0  0  0  0  0  0  0  0  0  0
   13.4417   -1.1791    0.0000 C   0  0  0  0  0  0  0  0  0  0  0  0
   14.1020   -2.4525    0.0000 C   0  0  0  0  0  0  0  0  0  0  0  0
  1 19  1  0  0  0  0
  1 33  1  0  0  0  0
  2 18  1  0  0  0  0
  2 41  1  0  0  0  0
  3 24  2  0  0  0  0
  4 47  1  0  0  0  0
  4 51  1  0  0  0  0
  5 49  2  0  0  0  0
  6 55  1  0  0  0  0
  6 56  1  0  0  0  0
  7 14  1  0  0  0  0
  7 15  1  0  0  0  0
  7 24  1  0  0  0  0
  8 24  1  0  0  0  0
  9 38  1  0  0  0  0
  9 42  1  0  0  0  0
 10 38  2  0  0  0  0
 10 43  1  0  0  0  0
 11 40  3  0  0  0  0
 12 49  1  0  0  0  0
 12 50  1  0  0  0  0
 13 52  1  0  0  0  0
 13 53  1  0  0  0  0
 13 54  1  0  0  0  0
 14 16  1  0  0  0  0
 14 23  2  0  0  0  0
 15 18  1  0  0  0  0
 15 21  2  0  0  0  0
 16 17  2  0  0  0  0
 16 28  1  0  0  0  0
 17 19  1  0  0  0  0
 17 29  1  0  0  0  0
 18 22  2  0  0  0  0
 19 26  2  0  0  0  0
 20 21  1  0  0  0  0
 20 25  2  0  0  0  0
 20 27  1  0  0  0  0
 22 25  1  0  0  0  0
 22 30  1  0  0  0  0
 23 26  1  0  0  0  0
 27 34  1  0  0  0  0
 27 35  1  0  0  0  0
 27 36  1  0  0  0  0
 28 31  2  0  0  0  0
 29 32  2  0  0  0  0
 30 40  1  0  0  0  0
 31 32  1  0  0  0  0
 33 37  2  0  0  0  0
 33 39  1  0  0  0  0
 37 38  1  0  0  0  0
 39 43  2  0  0  0  0
 42 45  1  0  0  0  0
 42 46  2  0  0  0  0
 44 45  2  0  0  0  0
 44 48  1  0  0  0  0
 44 49  1  0  0  0  0
 46 47  1  0  0  0  0
 47 48  2  0  0  0  0
 50 52  1  0  0  0  0
 53 55  1  0  0  0  0
 54 56  1  0  0  0  0
M  END
> <PUBCHEM_COMPOUND_ID_TYPE>
0

> <PUBCHEM_TOTAL_CHARGE>
0

> <PUBCHEM_SUBSTANCE_ID>
310929160

> <PUBCHEM_SUBSTANCE_VERSION>
1

> <PUBCHEM_EXT_DATASOURCE_NAME>
4488

> <PUBCHEM_EXT_DATASOURCE_REGID>
SCHEMBL16106323

> <PUBCHEM_SUBSTANCE_COMMENT>
InChI=1S/C43H47N7O6/c1-43(2,3)30-22-28(12-14-44)40(54-5)37(25-30)50(42(45)52)36-10-11-38(35-9-7-6-8-34(35)36)56-32-13-15-46-39(27-32)48-31-23-29(24-33(26-31)53-4)41(51)47-16-17-49-18-20-55-21-19-49/h6-11,13,15,22-27H,12,16-21H2,1-5H3,(H2,45,52)(H,46,48)(H,47,51)
InChIKey=GLYJQIPENXWGOR-UHFFFAOYSA-N

> <PUBCHEM_SUBSTANCE_SYNONYM>
SCHEMBL16106323

> <PUBCHEM_XREF_EXT_ID>
SCHEMBL16106323

> <PUBCHEM_EXT_DATASOURCE_URL>
https://www.surechembl.org/

> <PUBCHEM_EXT_SUBSTANCE_URL>
https://www.surechembl.org/chemical/SCHEMBL16106323

> <PUBCHEM_CID_ASSOCIATIONS>
117598623  1

> <PUBCHEM_COORDINATE_TYPE>
1
3

$$$$
