310945116
  -OEChem-07211613022D

 34 37  0     1  0  0  0  0  0999 V2000
    2.7764    1.6403    0.0000 S   0  0  0  0  0  0  0  0  0  0  0  0
    4.3074    1.8104    0.0000 O   0  0  0  0  0  0  0  0  0  0  0  0
   -0.8688    0.5468    0.0000 O   0  0  0  0  0  0  0  0  0  0  0  0
   -3.1409   -0.6562    0.0000 O   0  0  0  0  0  0  0  0  0  0  0  0
    3.0073   -0.5103    0.0000 N   0  0  0  0  0  0  0  0  0  0  0  0
    4.6477    0.3767    0.0000 N   0  0  0  0  0  0  0  0  0  0  0  0
   -0.1519   -0.7047    0.0000 N   0  0  0  0  0  0  0  0  0  0  0  0
   -1.7558   -0.2795    0.0000 N   0  0  0  0  0  0  0  0  0  0  0  0
   -4.5990    1.9441    0.0000 N   0  0  0  0  0  0  0  0  0  0  0  0
    1.9866    0.5589    0.0000 C   0  0  0  0  0  0  0  0  0  0  0  0
    2.7764    0.2916    0.0000 C   0  0  0  0  0  0  0  0  0  0  0  0
    3.2625    0.9721    0.0000 C   0  0  0  0  0  0  0  0  0  0  0  0
    1.9988    1.3730    0.0000 C   0  0  0  0  0  0  0  0  0  0  0  0
    1.2697    0.1458    0.0000 C   0  0  0  0  0  0  0  0  0  0  0  0
    4.0887    0.9964    0.0000 C   0  0  0  0  0  0  0  0  0  0  0  0
    0.5650    0.5589    0.0000 C   0  0  0  0  0  0  0  0  0  0  0  0
    1.2940    1.7740    0.0000 C   0  0  0  0  0  0  0  0  0  0  0  0
    0.5771    1.3852    0.0000 C   0  0  0  0  0  0  0  0  0  0  0  0
   -0.1398    0.1337    0.0000 C   0  0  0  0  0  0  0  0  0  0  0  0
    3.7971   -0.8263    0.0000 C   0  0  0  0  0  0  0  0  0  0  0  0
    4.4897   -0.4374    0.0000 C   0  0  3  0  0  0  0  0  0  0  0  0
   -0.7959   -1.3852    0.0000 C   0  0  0  0  0  0  0  0  0  0  0  0
   -1.5735   -1.1422    0.0000 C   0  0  0  0  0  0  0  0  0  0  0  0
   -0.6014   -2.1872    0.0000 C   0  0  0  0  0  0  0  0  0  0  0  0
    5.1944   -0.8384    0.0000 C   0  0  0  0  0  0  0  0  0  0  0  0
   -2.1567   -1.7011    0.0000 C   0  0  0  0  0  0  0  0  0  0  0  0
   -1.1969   -2.7582    0.0000 C   0  0  0  0  0  0  0  0  0  0  0  0
   -1.9744   -2.5274    0.0000 C   0  0  0  0  0  0  0  0  0  0  0  0
   -2.5577   -0.0486    0.0000 C   0  0  0  0  0  0  0  0  0  0  0  0
   -2.7764    0.7169    0.0000 C   0  0  0  0  0  0  0  0  0  0  0  0
   -3.5784    0.9356    0.0000 C   0  0  0  0  0  0  0  0  0  0  0  0
   -3.7971    1.7254    0.0000 C   0  0  0  0  0  0  0  0  0  0  0  0
   -4.8421    2.7582    0.0000 C   0  0  0  0  0  0  0  0  0  0  0  0
   -5.1944    1.3245    0.0000 C   0  0  0  0  0  0  0  0  0  0  0  0
  1 12  1  0  0  0  0
  1 13  1  0  0  0  0
  2 15  2  0  0  0  0
  3 19  2  0  0  0  0
  4 29  2  0  0  0  0
  5 11  1  0  0  0  0
  5 20  1  0  0  0  0
  6 15  1  0  0  0  0
  6 21  1  0  0  0  0
  7 19  1  0  0  0  0
  7 22  1  0  0  0  0
  8 23  1  0  0  0  0
  8 29  1  0  0  0  0
  9 32  1  0  0  0  0
  9 33  1  0  0  0  0
  9 34  1  0  0  0  0
 10 11  1  0  0  0  0
 10 13  2  0  0  0  0
 10 14  1  0  0  0  0
 11 12  2  0  0  0  0
 12 15  1  0  0  0  0
 13 17  1  0  0  0  0
 14 16  2  0  0  0  0
 16 18  1  0  0  0  0
 16 19  1  0  0  0  0
 17 18  2  0  0  0  0
 20 21  1  0  0  0  0
 21 25  1  6  0  0  0
 22 23  1  0  0  0  0
 22 24  2  0  0  0  0
 23 26  2  0  0  0  0
 24 27  1  0  0  0  0
 26 28  1  0  0  0  0
 27 28  2  0  0  0  0
 29 30  1  0  0  0  0
 30 31  2  0  0  0  0
 31 32  1  0  0  0  0
M  END
> <PUBCHEM_COMPOUND_ID_TYPE>
0

> <PUBCHEM_TOTAL_CHARGE>
0

> <PUBCHEM_SUBSTANCE_ID>
310945116

> <PUBCHEM_SUBSTANCE_VERSION>
1

> <PUBCHEM_EXT_DATASOURCE_NAME>
4488

> <PUBCHEM_EXT_DATASOURCE_REGID>
SCHEMBL16123206

> <PUBCHEM_SUBSTANCE_COMMENT>
InChI=1S/C25H27N5O3S/c1-15-14-26-22-17-13-16(10-11-20(17)34-23(22)25(33)27-15)24(32)29-19-8-5-4-7-18(19)28-21(31)9-6-12-30(2)3/h4-11,13,15,26H,12,14H2,1-3H3,(H,27,33)(H,28,31)(H,29,32)/b9-6+/t15-/m1/s1
InChIKey=PUQNFNVTYUKVJB-RZIFZGNASA-N

> <PUBCHEM_SUBSTANCE_SYNONYM>
SCHEMBL16123206

> <PUBCHEM_XREF_EXT_ID>
SCHEMBL16123206

> <PUBCHEM_EXT_DATASOURCE_URL>
https://www.surechembl.org/

> <PUBCHEM_EXT_SUBSTANCE_URL>
https://www.surechembl.org/chemical/SCHEMBL16123206

> <PUBCHEM_CID_ASSOCIATIONS>
117611211  1

> <PUBCHEM_COORDINATE_TYPE>
1
3

> <PUBCHEM_BONDANNOTATIONS>
21  25  6

$$$$
