310949981
  -OEChem-07211613022D

 34 36  0     1  0  0  0  0  0999 V2000
   -0.3928   -0.1964    0.0000 O   0  0  0  0  0  0  0  0  0  0  0  0
   -0.3928    1.1724    0.0000 O   0  0  0  0  0  0  0  0  0  0  0  0
    0.4166   -1.1010    0.0000 O   0  0  0  0  0  0  0  0  0  0  0  0
    2.4162    1.2795    0.0000 O   0  0  0  0  0  0  0  0  0  0  0  0
    1.7259    2.4698    0.0000 O   0  0  0  0  0  0  0  0  0  0  0  0
    0.8570    0.4939    0.0000 N   0  0  0  0  0  0  0  0  0  0  0  0
    1.0594    1.2915    0.0000 N   0  0  0  0  0  0  0  0  0  0  0  0
   -1.7021    2.0651    0.0000 N   0  0  0  0  0  0  0  0  0  0  0  0
   -2.0353    3.4101    0.0000 N   0  0  0  0  0  0  0  0  0  0  0  0
   -2.9757    2.4817    0.0000 N   0  0  0  0  0  0  0  0  0  0  0  0
   -2.3210   -1.2200    0.0000 C   0  0  0  0  0  0  0  0  0  0  0  0
   -1.1189   -1.8032    0.0000 C   0  0  0  0  0  0  0  0  0  0  0  0
   -2.4400   -2.0294    0.0000 C   0  0  0  0  0  0  0  0  0  0  0  0
   -1.6902   -2.3984    0.0000 C   0  0  0  0  0  0  0  0  0  0  0  0
   -1.4878   -1.0772    0.0000 C   0  0  0  0  0  0  0  0  0  0  0  0
   -0.3095   -2.0294    0.0000 C   0  0  0  0  0  0  0  0  0  0  0  0
   -2.9519   -0.6963    0.0000 C   0  0  0  0  0  0  0  0  0  0  0  0
   -1.4759   -3.1959    0.0000 C   0  0  0  0  0  0  0  0  0  0  0  0
   -3.2018   -2.3270    0.0000 C   0  0  0  0  0  0  0  0  0  0  0  0
   -1.1426   -0.3868    0.0000 C   0  0  0  0  0  0  0  0  0  0  0  0
   -0.0952   -2.8269    0.0000 C   0  0  0  0  0  0  0  0  0  0  0  0
   -3.7136   -0.9939    0.0000 C   0  0  0  0  0  0  0  0  0  0  0  0
   -0.6785   -3.4101    0.0000 C   0  0  0  0  0  0  0  0  0  0  0  0
   -3.8326   -1.8152    0.0000 C   0  0  0  0  0  0  0  0  0  0  0  0
   -0.0714    0.4939    0.0000 C   0  0  0  0  0  0  0  0  0  0  0  0
   -0.1428   -0.5296    0.0000 C   0  0  0  0  0  0  0  0  0  0  0  0
    0.0714    0.2678    0.0000 C   0  0  3  0  0  0  0  0  0  0  0  0
   -0.5356    0.8748    0.0000 C   0  0  0  0  0  0  0  0  0  0  0  0
   -0.2499    1.6485    0.0000 C   0  0  0  0  0  0  0  0  0  0  0  0
    1.7259    1.6724    0.0000 C   0  0  0  0  0  0  0  0  0  0  0  0
   -0.9046    2.2793    0.0000 C   0  0  0  0  0  0  0  0  0  0  0  0
    3.1066    1.6724    0.0000 C   0  0  0  0  0  0  0  0  0  0  0  0
   -2.2377    2.6365    0.0000 C   0  0  0  0  0  0  0  0  0  0  0  0
    3.8326    1.2676    0.0000 C   0  0  0  0  0  0  0  0  0  0  0  0
  1 20  1  0  0  0  0
  1 25  1  0  0  0  0
  2 25  2  0  0  0  0
  3 26  2  0  0  0  0
  4 30  1  0  0  0  0
  4 32  1  0  0  0  0
  5 30  2  0  0  0  0
  6  7  1  0  0  0  0
 27  6  1  6  0  0  0
  7 30  1  0  0  0  0
  8 31  1  0  0  0  0
  8 33  1  0  0  0  0
  9 33  1  0  0  0  0
 10 33  1  0  0  0  0
 11 13  2  0  0  0  0
 11 15  1  0  0  0  0
 11 17  1  0  0  0  0
 12 14  2  0  0  0  0
 12 15  1  0  0  0  0
 12 16  1  0  0  0  0
 13 14  1  0  0  0  0
 13 19  1  0  0  0  0
 14 18  1  0  0  0  0
 15 20  1  0  0  0  0
 16 21  2  0  0  0  0
 17 22  2  0  0  0  0
 18 23  2  0  0  0  0
 19 24  2  0  0  0  0
 21 23  1  0  0  0  0
 22 24  1  0  0  0  0
 25 26  1  0  0  0  0
 26 27  1  0  0  0  0
 27 28  1  0  0  0  0
 28 29  1  0  0  0  0
 29 31  1  0  0  0  0
 32 34  1  0  0  0  0
M  END
> <PUBCHEM_COMPOUND_ID_TYPE>
0

> <PUBCHEM_TOTAL_CHARGE>
0

> <PUBCHEM_SUBSTANCE_ID>
310949981

> <PUBCHEM_SUBSTANCE_VERSION>
1

> <PUBCHEM_EXT_DATASOURCE_NAME>
4488

> <PUBCHEM_EXT_DATASOURCE_REGID>
SCHEMBL16128210

> <PUBCHEM_SUBSTANCE_COMMENT>
InChI=1S/C24H31N5O5/c1-2-33-24(32)29-28-20(12-7-13-27-23(25)26)21(30)22(31)34-14-19-17-10-5-3-8-15(17)16-9-4-6-11-18(16)19/h3-6,8-11,19-20,23,27-28H,2,7,12-14,25-26H2,1H3,(H,29,32)/t20-/m0/s1
InChIKey=XZCBDGRFHPLHAY-FQEVSTJZSA-N

> <PUBCHEM_SUBSTANCE_SYNONYM>
SCHEMBL16128210

> <PUBCHEM_XREF_EXT_ID>
SCHEMBL16128210

> <PUBCHEM_EXT_DATASOURCE_URL>
https://www.surechembl.org/

> <PUBCHEM_EXT_SUBSTANCE_URL>
https://www.surechembl.org/chemical/SCHEMBL16128210

> <PUBCHEM_CID_ASSOCIATIONS>
117615221  1

> <PUBCHEM_COORDINATE_TYPE>
1
3

> <PUBCHEM_BONDANNOTATIONS>
27  6  6

$$$$
