310942868
  -OEChem-07211613022D

 57 62  0     1  0  0  0  0  0999 V2000
   -4.4649    0.1213    0.0000 F   0  0  0  0  0  0  0  0  0  0  0  0
    2.4889   -2.1267    0.0000 F   0  0  0  0  0  0  0  0  0  0  0  0
   -4.4649   -3.2264    0.0000 F   0  0  0  0  0  0  0  0  0  0  0  0
   -1.1659   -2.5633    0.0000 O   0  0  0  0  0  0  0  0  0  0  0  0
    1.9554    1.2048    0.0000 O   0  0  0  0  0  0  0  0  0  0  0  0
    0.9365    2.2236    0.0000 O   0  0  0  0  0  0  0  0  0  0  0  0
    0.2734   -3.3881    0.0000 O   0  0  0  0  0  0  0  0  0  0  0  0
    4.6756   -1.8194    0.0000 O   0  0  0  0  0  0  0  0  0  0  0  0
    4.1697   -2.6512    0.0000 O   0  0  0  0  0  0  0  0  0  0  0  0
    3.0550    3.3719    0.0000 O   0  0  0  0  0  0  0  0  0  0  0  0
    5.1250    1.3018    0.0000 O   0  0  0  0  0  0  0  0  0  0  0  0
   -0.4381   -1.3018    0.0000 N   0  0  0  0  0  0  0  0  0  0  0  0
   -2.0230    0.1860    0.0000 N   0  0  0  0  0  0  0  0  0  0  0  0
   -2.3140   -1.1401    0.0000 N   0  0  0  0  0  0  0  0  0  0  0  0
    0.5646    0.8490    0.0000 N   0  0  0  0  0  0  0  0  0  0  0  0
    2.6183    0.0242    0.0000 N   0  0  0  0  0  0  0  0  0  0  0  0
    3.9282    2.1751    0.0000 N   0  0  0  0  0  0  0  0  0  0  0  0
   -0.8586   -0.5903    0.0000 C   0  0  3  0  0  0  0  0  0  0  0  0
   -1.6996   -0.5580    0.0000 C   0  0  0  0  0  0  0  0  0  0  0  0
   -0.2764    0.0242    0.0000 C   0  0  0  0  0  0  0  0  0  0  0  0
   -3.0419   -0.7197    0.0000 C   0  0  0  0  0  0  0  0  0  0  0  0
   -0.2603    0.8490    0.0000 C   0  0  0  0  0  0  0  0  0  0  0  0
    0.5483    0.0081    0.0000 C   0  0  0  0  0  0  0  0  0  0  0  0
   -2.8478    0.0889    0.0000 C   0  0  0  0  0  0  0  0  0  0  0  0
   -0.4381   -2.1105    0.0000 C   0  0  0  0  0  0  0  0  0  0  0  0
   -3.7533   -1.1240    0.0000 C   0  0  0  0  0  0  0  0  0  0  0  0
    0.8232   -1.2857    0.0000 C   0  0  0  0  0  0  0  0  0  0  0  0
    1.6481   -0.8975    0.0000 C   0  0  3  0  0  0  0  0  0  0  0  0
   -1.6026    1.1077    0.0000 C   0  0  0  0  0  0  0  0  0  0  0  0
    1.1467    1.4312    0.0000 C   0  0  0  0  0  0  0  0  0  0  0  0
   -4.4812   -0.7197    0.0000 C   0  0  0  0  0  0  0  0  0  0  0  0
    2.3758   -1.2857    0.0000 C   0  0  3  0  0  0  0  0  0  0  0  0
    0.2734   -2.5470    0.0000 C   0  0  3  0  0  0  0  0  0  0  0  0
   -3.7696   -1.9811    0.0000 C   0  0  0  0  0  0  0  0  0  0  0  0
    1.7936   -0.0889    0.0000 C   0  0  0  0  0  0  0  0  0  0  0  0
   -2.1847    1.7062    0.0000 C   0  0  0  0  0  0  0  0  0  0  0  0
    2.9741   -0.7358    0.0000 C   0  0  0  0  0  0  0  0  0  0  0  0
   -4.4649   -2.3692    0.0000 C   0  0  0  0  0  0  0  0  0  0  0  0
   -5.1926   -1.1401    0.0000 C   0  0  0  0  0  0  0  0  0  0  0  0
    4.1697   -2.1117    0.0000 C   0  0  0  0  0  0  0  0  0  0  0  0
   -5.1765   -1.9649    0.0000 C   0  0  0  0  0  0  0  0  0  0  0  0
   -1.9746    2.5147    0.0000 C   0  0  0  0  0  0  0  0  0  0  0  0
   -2.9933    1.5121    0.0000 C   0  0  0  0  0  0  0  0  0  0  0  0
    0.9849   -2.1429    0.0000 C   0  0  0  0  0  0  0  0  0  0  0  0
    2.5375    1.8032    0.0000 C   0  0  0  0  0  0  0  0  0  0  0  0
    4.6869   -1.2573    0.0000 C   0  0  0  0  0  0  0  0  0  0  0  0
   -2.5405    3.0808    0.0000 C   0  0  0  0  0  0  0  0  0  0  0  0
   -3.5594    2.0782    0.0000 C   0  0  0  0  0  0  0  0  0  0  0  0
    3.3461    1.5929    0.0000 C   0  0  0  0  0  0  0  0  0  0  0  0
   -3.3492    2.8867    0.0000 C   0  0  0  0  0  0  0  0  0  0  0  0
    4.7207    2.0782    0.0000 C   0  0  0  0  0  0  0  0  0  0  0  0
    3.8151    2.9999    0.0000 C   0  0  0  0  0  0  0  0  0  0  0  0
    5.1088    2.8058    0.0000 C   0  0  0  0  0  0  0  0  0  0  0  0
    4.5267    3.3881    0.0000 C   0  0  0  0  0  0  0  0  0  0  0  0
    5.1926   -1.2348    0.0000 C   0  0  0  0  0  0  0  0  0  0  0  0
    4.1697   -1.2573    0.0000 C   0  0  0  0  0  0  0  0  0  0  0  0
    4.6756   -0.7065    0.0000 C   0  0  0  0  0  0  0  0  0  0  0  0
  1 31  1  0  0  0  0
 32  2  1  6  0  0  0
  3 38  1  0  0  0  0
  4 25  2  0  0  0  0
  5 30  1  0  0  0  0
  5 45  1  0  0  0  0
  6 30  2  0  0  0  0
 33  7  1  6  0  0  0
  8 40  1  0  0  0  0
  8 46  1  0  0  0  0
  9 40  2  0  0  0  0
 10 52  2  0  0  0  0
 11 51  2  0  0  0  0
 18 12  1  1  0  0  0
 12 25  1  0  0  0  0
 12 27  1  0  0  0  0
 13 19  1  0  0  0  0
 13 24  1  0  0  0  0
 13 29  1  0  0  0  0
 14 19  2  0  0  0  0
 14 21  1  0  0  0  0
 15 22  1  0  0  0  0
 15 23  1  0  0  0  0
 15 30  1  0  0  0  0
 16 35  1  0  0  0  0
 16 37  1  0  0  0  0
 16 40  1  0  0  0  0
 17 49  1  0  0  0  0
 17 51  1  0  0  0  0
 17 52  1  0  0  0  0
 18 19  1  0  0  0  0
 18 20  1  0  0  0  0
 20 22  1  0  0  0  0
 20 23  1  0  0  0  0
 21 24  2  0  0  0  0
 21 26  1  0  0  0  0
 25 33  1  0  0  0  0
 26 31  2  0  0  0  0
 26 34  1  0  0  0  0
 28 27  1  6  0  0  0
 28 32  1  0  0  0  0
 28 35  1  0  0  0  0
 29 36  1  0  0  0  0
 31 39  1  0  0  0  0
 32 37  1  0  0  0  0
 33 44  1  0  0  0  0
 34 38  2  0  0  0  0
 36 42  2  0  0  0  0
 36 43  1  0  0  0  0
 38 41  1  0  0  0  0
 39 41  2  0  0  0  0
 42 47  1  0  0  0  0
 43 48  2  0  0  0  0
 45 49  1  0  0  0  0
 46 55  1  0  0  0  0
 46 56  1  0  0  0  0
 46 57  1  0  0  0  0
 47 50  2  0  0  0  0
 48 50  1  0  0  0  0
 51 53  1  0  0  0  0
 52 54  1  0  0  0  0
 53 54  2  0  0  0  0
M  END
> <PUBCHEM_COMPOUND_ID_TYPE>
0

> <PUBCHEM_TOTAL_CHARGE>
0

> <PUBCHEM_SUBSTANCE_ID>
310942868

> <PUBCHEM_SUBSTANCE_VERSION>
1

> <PUBCHEM_EXT_DATASOURCE_NAME>
4488

> <PUBCHEM_EXT_DATASOURCE_REGID>
SCHEMBL16120926

> <PUBCHEM_SUBSTANCE_COMMENT>
InChI=1S/C40H45F3N6O8/c1-24(50)37(53)49(21-26-18-47(22-31(26)43)39(55)57-40(2,3)4)35(27-19-46(20-27)38(54)56-15-14-48-33(51)12-13-34(48)52)36-44-32(29-16-28(41)10-11-30(29)42)23-45(36)17-25-8-6-5-7-9-25/h5-13,16,23-24,26-27,31,35,50H,14-15,17-22H2,1-4H3/t24-,26-,31-,35+/m0/s1
InChIKey=OYJHCVOQERTLLX-AEDITISFSA-N

> <PUBCHEM_SUBSTANCE_SYNONYM>
SCHEMBL16120926

> <PUBCHEM_XREF_EXT_ID>
SCHEMBL16120926

> <PUBCHEM_EXT_DATASOURCE_URL>
https://www.surechembl.org/

> <PUBCHEM_EXT_SUBSTANCE_URL>
https://www.surechembl.org/chemical/SCHEMBL16120926

> <PUBCHEM_CID_ASSOCIATIONS>
117609356  1

> <PUBCHEM_COORDINATE_TYPE>
1
3

> <PUBCHEM_BONDANNOTATIONS>
18  12  5
32  2  6
28  27  6
33  7  6

$$$$
