310941829
  -OEChem-07211613022D

 32 37  0     0  0  0  0  0  0999 V2000
    0.2807   -1.6484    0.0000 Br  0  0  0  0  0  0  0  0  0  0  0  0
    3.2607    0.6982    0.0000 S   0  0  0  0  0  0  0  0  0  0  0  0
   -1.1589   -0.7846    0.0000 O   0  0  0  0  0  0  0  0  0  0  0  0
    3.4335    1.5332    0.0000 O   0  0  0  0  0  0  0  0  0  0  0  0
    4.0381    0.9717    0.0000 O   0  0  0  0  0  0  0  0  0  0  0  0
    4.0093   -1.7491    0.0000 O   0  0  0  0  0  0  0  0  0  0  0  0
    1.0149    0.4823    0.0000 N   0  0  0  0  0  0  0  0  0  0  0  0
    2.4401    0.8853    0.0000 N   0  0  0  0  0  0  0  0  0  0  0  0
    1.3028    1.8355    0.0000 N   0  0  0  0  0  0  0  0  0  0  0  0
    0.4679    1.7635    0.0000 N   0  0  0  0  0  0  0  0  0  0  0  0
    3.5054   -0.1223    0.0000 N   0  0  0  0  0  0  0  0  0  0  0  0
   -2.6129   -0.7702    0.0000 C   0  0  0  0  0  0  0  0  0  0  0  0
    1.6195    1.0869    0.0000 C   0  0  0  0  0  0  0  0  0  0  0  0
    0.2807    0.9286    0.0000 C   0  0  0  0  0  0  0  0  0  0  0  0
   -0.4390   -0.3671    0.0000 C   0  0  0  0  0  0  0  0  0  0  0  0
   -3.7933   -0.2807    0.0000 C   0  0  0  0  0  0  0  0  0  0  0  0
   -4.1821   -0.7846    0.0000 C   0  0  0  0  0  0  0  0  0  0  0  0
   -3.4046   -1.8355    0.0000 C   0  0  0  0  0  0  0  0  0  0  0  0
    0.2952   -0.7846    0.0000 C   0  0  0  0  0  0  0  0  0  0  0  0
    1.0005   -0.3671    0.0000 C   0  0  0  0  0  0  0  0  0  0  0  0
   -3.0016   -0.0648    0.0000 C   0  0  0  0  0  0  0  0  0  0  0  0
   -3.3471   -0.5542    0.0000 C   0  0  0  0  0  0  0  0  0  0  0  0
   -2.6129   -1.6339    0.0000 C   0  0  0  0  0  0  0  0  0  0  0  0
   -0.4103    0.4967    0.0000 C   0  0  0  0  0  0  0  0  0  0  0  0
   -1.8931   -0.3671    0.0000 C   0  0  0  0  0  0  0  0  0  0  0  0
   -4.5707   -0.0792    0.0000 C   0  0  0  0  0  0  0  0  0  0  0  0
   -3.7933   -1.1732    0.0000 C   0  0  0  0  0  0  0  0  0  0  0  0
   -4.1821   -1.6339    0.0000 C   0  0  0  0  0  0  0  0  0  0  0  0
    2.9728   -0.7702    0.0000 C   0  0  0  0  0  0  0  0  0  0  0  0
    4.3260   -0.3095    0.0000 C   0  0  0  0  0  0  0  0  0  0  0  0
    3.2031   -1.5620    0.0000 C   0  0  0  0  0  0  0  0  0  0  0  0
    4.5707   -1.1301    0.0000 C   0  0  0  0  0  0  0  0  0  0  0  0
  1 19  1  0  0  0  0
  2  4  2  0  0  0  0
  2  5  2  0  0  0  0
  2  8  1  0  0  0  0
  2 11  1  0  0  0  0
  3 15  1  0  0  0  0
  3 25  1  0  0  0  0
  6 31  1  0  0  0  0
  6 32  1  0  0  0  0
  7 13  1  0  0  0  0
  7 14  1  0  0  0  0
  7 20  1  0  0  0  0
  8 13  1  0  0  0  0
  9 10  1  0  0  0  0
  9 13  2  0  0  0  0
 10 14  2  0  0  0  0
 11 29  1  0  0  0  0
 11 30  1  0  0  0  0
 12 21  1  0  0  0  0
 12 22  1  0  0  0  0
 12 23  1  0  0  0  0
 12 25  1  0  0  0  0
 14 24  1  0  0  0  0
 15 19  1  0  0  0  0
 15 24  2  0  0  0  0
 16 21  1  0  0  0  0
 16 26  1  1  0  0  0
 16 27  1  0  0  0  0
 17 22  1  0  0  0  0
 17 26  1  0  0  0  0
 17 28  1  0  0  0  0
 18 23  1  0  0  0  0
 18 27  1  0  0  0  0
 18 28  1  0  0  0  0
 19 20  2  0  0  0  0
 29 31  1  0  0  0  0
 30 32  1  0  0  0  0
M  END
> <PUBCHEM_COMPOUND_ID_TYPE>
0

> <PUBCHEM_TOTAL_CHARGE>
0

> <PUBCHEM_SUBSTANCE_ID>
310941829

> <PUBCHEM_SUBSTANCE_VERSION>
1

> <PUBCHEM_EXT_DATASOURCE_NAME>
4488

> <PUBCHEM_EXT_DATASOURCE_REGID>
SCHEMBL16119861

> <PUBCHEM_SUBSTANCE_COMMENT>
InChI=1S/C21H28BrN5O4S/c22-17-12-27-19(23-24-20(27)25-32(28,29)26-1-3-30-4-2-26)8-18(17)31-13-21-9-14-5-15(10-21)7-16(6-14)11-21/h8,12,14-16H,1-7,9-11,13H2,(H,24,25)/t14-,15?,16?,21?
InChIKey=BLBHTWCDIJCZNG-IIQXKVQHSA-N

> <PUBCHEM_SUBSTANCE_SYNONYM>
SCHEMBL16119861

> <PUBCHEM_XREF_EXT_ID>
SCHEMBL16119861

> <PUBCHEM_EXT_DATASOURCE_URL>
https://www.surechembl.org/

> <PUBCHEM_EXT_SUBSTANCE_URL>
https://www.surechembl.org/chemical/SCHEMBL16119861

> <PUBCHEM_CID_ASSOCIATIONS>
86270326  1

> <PUBCHEM_COORDINATE_TYPE>
1
3

> <PUBCHEM_BONDANNOTATIONS>
16  26  5

$$$$
