310932283
  -OEChem-07211613022D

 14 15  0     1  0  0  0  0  0999 V2000
    0.0000   -4.7951    0.0000 F   0  0  0  0  0  0  0  0  0  0  0  0
    2.3736   -0.8391    0.0000 N   0  0  3  0  0  0  0  0  0  0  0  0
    1.3187   -4.1958    0.0000 N   0  0  0  0  0  0  0  0  0  0  0  0
    3.2847   -2.7573    0.0000 N   0  0  0  0  0  0  0  0  0  0  0  0
    1.9660   -2.1099    0.0000 C   0  0  3  0  0  0  0  0  0  0  0  0
    1.4625   -2.7573    0.0000 C   0  0  0  0  0  0  0  0  0  0  0  0
    2.7812   -2.1099    0.0000 C   0  0  3  0  0  0  0  0  0  0  0  0
    1.7023   -1.3187    0.0000 C   0  0  0  0  0  0  0  0  0  0  0  0
    3.0449   -1.3187    0.0000 C   0  0  0  0  0  0  0  0  0  0  0  0
    1.7982   -3.5484    0.0000 C   0  0  0  0  0  0  0  0  0  0  0  0
    0.6473   -2.7093    0.0000 C   0  0  0  0  0  0  0  0  0  0  0  0
    0.4795   -4.1238    0.0000 C   0  0  0  0  0  0  0  0  0  0  0  0
    0.1678   -3.3566    0.0000 C   0  0  0  0  0  0  0  0  0  0  0  0
    2.3736    0.0000    0.0000 C   0  0  0  0  0  0  0  0  0  0  0  0
  1 12  1  0  0  0  0
  2  8  1  0  0  0  0
  2  9  1  0  0  0  0
  2 14  1  0  0  0  0
  3 10  1  0  0  0  0
  3 12  2  0  0  0  0
  7  4  1  1  0  0  0
  5  6  1  0  0  0  0
  5  7  1  0  0  0  0
  5  8  1  6  0  0  0
  6 10  2  0  0  0  0
  6 11  1  0  0  0  0
  7  9  1  0  0  0  0
 11 13  2  0  0  0  0
 12 13  1  0  0  0  0
M  END
> <PUBCHEM_COMPOUND_ID_TYPE>
0

> <PUBCHEM_TOTAL_CHARGE>
0

> <PUBCHEM_SUBSTANCE_ID>
310932283

> <PUBCHEM_SUBSTANCE_VERSION>
1

> <PUBCHEM_EXT_DATASOURCE_NAME>
4488

> <PUBCHEM_EXT_DATASOURCE_REGID>
SCHEMBL16109646

> <PUBCHEM_SUBSTANCE_COMMENT>
InChI=1S/C10H14FN3/c1-14-5-8(9(12)6-14)7-2-3-10(11)13-4-7/h2-4,8-9H,5-6,12H2,1H3/t8-,9+/m0/s1
InChIKey=BYAGAXKYEBTSMX-DTWKUNHWSA-N

> <PUBCHEM_SUBSTANCE_SYNONYM>
SCHEMBL16109646

> <PUBCHEM_XREF_EXT_ID>
SCHEMBL16109646

> <PUBCHEM_EXT_DATASOURCE_URL>
https://www.surechembl.org/

> <PUBCHEM_EXT_SUBSTANCE_URL>
https://www.surechembl.org/chemical/SCHEMBL16109646

> <PUBCHEM_CID_ASSOCIATIONS>
117600846  1

> <PUBCHEM_COORDINATE_TYPE>
1
3

> <PUBCHEM_BONDANNOTATIONS>
7  4  5
5  8  6

$$$$
