310948947
  -OEChem-07211613022D

 26 27  0     0  0  0  0  0  0999 V2000
    2.2441    1.4756    0.0000 Cl  0  0  0  0  0  0  0  0  0  0  0  0
   -0.6302    1.4602    0.0000 F   0  0  0  0  0  0  0  0  0  0  0  0
    0.0922   -1.4448    0.0000 F   0  0  0  0  0  0  0  0  0  0  0  0
   -1.3526   -2.2902    0.0000 F   0  0  0  0  0  0  0  0  0  0  0  0
    2.9511    0.2152    0.0000 O   0  0  0  0  0  0  0  0  0  0  0  0
    2.2441   -1.0298    0.0000 O   0  0  0  0  0  0  0  0  0  0  0  0
    0.7839   -0.1998    0.0000 N   0  0  0  0  0  0  0  0  0  0  0  0
    0.7839    2.2902    0.0000 N   0  0  0  0  0  0  0  0  0  0  0  0
    0.0461    0.1845    0.0000 C   0  0  0  0  0  0  0  0  0  0  0  0
   -0.6456   -0.2152    0.0000 C   0  0  0  0  0  0  0  0  0  0  0  0
    0.0615    1.0298    0.0000 C   0  0  0  0  0  0  0  0  0  0  0  0
    1.4909    0.1845    0.0000 C   0  0  0  0  0  0  0  0  0  0  0  0
    0.7685    1.4448    0.0000 C   0  0  0  0  0  0  0  0  0  0  0  0
    1.5063    1.0298    0.0000 C   0  0  0  0  0  0  0  0  0  0  0  0
   -0.6763   -1.0452    0.0000 C   0  0  0  0  0  0  0  0  0  0  0  0
   -1.3679   -1.4602    0.0000 C   0  0  0  0  0  0  0  0  0  0  0  0
   -1.3833    0.1691    0.0000 C   0  0  0  0  0  0  0  0  0  0  0  0
   -2.1057   -1.0606    0.0000 C   0  0  0  0  0  0  0  0  0  0  0  0
    2.2287   -0.2152    0.0000 C   0  0  0  0  0  0  0  0  0  0  0  0
   -2.0904   -0.2152    0.0000 C   0  0  0  0  0  0  0  0  0  0  0  0
   -2.7974   -1.4602    0.0000 C   0  0  0  0  0  0  0  0  0  0  0  0
   -3.3815   -1.6139    0.0000 C   0  0  0  0  0  0  0  0  0  0  0  0
    3.6889   -0.1998    0.0000 C   0  0  0  0  0  0  0  0  0  0  0  0
   -3.3968   -2.0289    0.0000 C   0  0  0  0  0  0  0  0  0  0  0  0
   -3.6889   -1.6754    0.0000 C   0  0  0  0  0  0  0  0  0  0  0  0
   -3.6889   -2.0904    0.0000 C   0  0  0  0  0  0  0  0  0  0  0  0
  1 14  1  0  0  0  0
  2 11  1  0  0  0  0
  3 15  1  0  0  0  0
  4 16  1  0  0  0  0
  5 19  1  0  0  0  0
  5 23  1  0  0  0  0
  6 19  2  0  0  0  0
  7  9  1  0  0  0  0
  7 12  2  0  0  0  0
  8 13  1  0  0  0  0
  9 10  1  0  0  0  0
  9 11  2  0  0  0  0
 10 15  1  0  0  0  0
 10 17  2  0  0  0  0
 11 13  1  0  0  0  0
 12 14  1  0  0  0  0
 12 19  1  0  0  0  0
 13 14  2  0  0  0  0
 15 16  2  0  0  0  0
 16 18  1  0  0  0  0
 17 20  1  0  0  0  0
 18 20  2  0  0  0  0
 18 21  1  0  0  0  0
 21 22  3  0  0  0  0
 22 24  1  0  0  0  0
 24 25  1  0  0  0  0
 25 26  1  0  0  0  0
M  END
> <PUBCHEM_COMPOUND_ID_TYPE>
0

> <PUBCHEM_TOTAL_CHARGE>
0

> <PUBCHEM_SUBSTANCE_ID>
310948947

> <PUBCHEM_SUBSTANCE_VERSION>
1

> <PUBCHEM_EXT_DATASOURCE_NAME>
4488

> <PUBCHEM_EXT_DATASOURCE_REGID>
SCHEMBL16127135

> <PUBCHEM_SUBSTANCE_COMMENT>
InChI=1S/C18H14ClF3N2O2/c1-3-4-5-6-9-7-8-10(13(21)12(9)20)16-14(22)15(23)11(19)17(24-16)18(25)26-2/h7-8H,3-4H2,1-2H3,(H2,23,24)
InChIKey=UPFHCEPKVWTMGW-UHFFFAOYSA-N

> <PUBCHEM_SUBSTANCE_SYNONYM>
SCHEMBL16127135

> <PUBCHEM_XREF_EXT_ID>
SCHEMBL16127135

> <PUBCHEM_EXT_DATASOURCE_URL>
https://www.surechembl.org/

> <PUBCHEM_EXT_SUBSTANCE_URL>
https://www.surechembl.org/chemical/SCHEMBL16127135

> <PUBCHEM_CID_ASSOCIATIONS>
117614457  1

> <PUBCHEM_COORDINATE_TYPE>
1
3

$$$$
