310938969
  -OEChem-07211613022D

 29 32  0     1  0  0  0  0  0999 V2000
    0.6007   -1.1141    0.0000 O   0  0  0  0  0  0  0  0  0  0  0  0
   -0.8753   -2.8365    0.0000 N   0  0  0  0  0  0  0  0  0  0  0  0
   -1.5428   -1.5266    0.0000 N   0  0  0  0  0  0  0  0  0  0  0  0
   -1.1303   -3.6212    0.0000 C   0  0  3  0  0  0  0  0  0  0  0  0
   -1.9553   -3.6212    0.0000 C   0  0  3  0  0  0  0  0  0  0  0  0
   -1.5428   -2.3516    0.0000 C   0  0  0  0  0  0  0  0  0  0  0  0
   -2.2102   -2.8365    0.0000 C   0  0  0  0  0  0  0  0  0  0  0  0
    0.6660   -3.8859    0.0000 C   0  0  0  0  0  0  0  0  0  0  0  0
   -0.9840   -3.8859    0.0000 C   0  0  0  0  0  0  0  0  0  0  0  0
    0.2535   -4.6004    0.0000 C   0  0  0  0  0  0  0  0  0  0  0  0
    1.4910   -3.8859    0.0000 C   0  0  0  0  0  0  0  0  0  0  0  0
   -1.4274   -2.2234    0.0000 C   0  0  0  0  0  0  0  0  0  0  0  0
   -1.8091   -3.8859    0.0000 C   0  0  0  0  0  0  0  0  0  0  0  0
   -0.5715   -4.6004    0.0000 C   0  0  0  0  0  0  0  0  0  0  0  0
   -0.8283   -1.1141    0.0000 C   0  0  3  0  0  0  0  0  0  0  0  0
    0.6660   -5.3149    0.0000 C   0  0  0  0  0  0  0  0  0  0  0  0
    1.9035   -4.6004    0.0000 C   0  0  0  0  0  0  0  0  0  0  0  0
   -0.8283   -0.2891    0.0000 C   0  0  0  0  0  0  0  0  0  0  0  0
   -2.2216   -4.6004    0.0000 C   0  0  0  0  0  0  0  0  0  0  0  0
   -0.9840   -5.3149    0.0000 C   0  0  0  0  0  0  0  0  0  0  0  0
    1.4910   -5.3149    0.0000 C   0  0  0  0  0  0  0  0  0  0  0  0
   -0.1138   -1.5266    0.0000 C   0  0  0  0  0  0  0  0  0  0  0  0
   -1.8091   -5.3149    0.0000 C   0  0  0  0  0  0  0  0  0  0  0  0
   -0.1138    0.1234    0.0000 C   0  0  0  0  0  0  0  0  0  0  0  0
    0.6007   -0.2891    0.0000 C   0  0  0  0  0  0  0  0  0  0  0  0
   -0.1138    0.9484    0.0000 C   0  0  0  0  0  0  0  0  0  0  0  0
    1.3151    0.1234    0.0000 C   0  0  0  0  0  0  0  0  0  0  0  0
    0.6007    1.3609    0.0000 C   0  0  0  0  0  0  0  0  0  0  0  0
    1.3151    0.9484    0.0000 C   0  0  0  0  0  0  0  0  0  0  0  0
  1 22  1  0  0  0  0
  4  2  1  1  0  0  0
  2  6  1  0  0  0  0
  2 12  1  0  0  0  0
  3  6  2  0  0  0  0
 15  3  1  1  0  0  0
  4  5  1  0  0  0  0
  4  8  1  0  0  0  0
  5  7  1  1  0  0  0
  5  9  1  0  0  0  0
  6  7  1  0  0  0  0
  8 10  2  0  0  0  0
  8 11  1  0  0  0  0
  9 13  2  0  0  0  0
  9 14  1  0  0  0  0
 10 16  1  0  0  0  0
 11 17  2  0  0  0  0
 13 19  1  0  0  0  0
 14 20  2  0  0  0  0
 15 18  1  0  0  0  0
 15 22  1  0  0  0  0
 16 21  2  0  0  0  0
 17 21  1  0  0  0  0
 18 24  1  0  0  0  0
 19 23  2  0  0  0  0
 20 23  1  0  0  0  0
 24 25  2  0  0  0  0
 24 26  1  0  0  0  0
 25 27  1  0  0  0  0
 26 28  2  0  0  0  0
 27 29  2  0  0  0  0
 28 29  1  0  0  0  0
M  END
> <PUBCHEM_COMPOUND_ID_TYPE>
0

> <PUBCHEM_TOTAL_CHARGE>
0

> <PUBCHEM_SUBSTANCE_ID>
310938969

> <PUBCHEM_SUBSTANCE_VERSION>
1

> <PUBCHEM_EXT_DATASOURCE_NAME>
4488

> <PUBCHEM_EXT_DATASOURCE_REGID>
SCHEMBL16116888

> <PUBCHEM_SUBSTANCE_COMMENT>
InChI=1S/C26H28N2O/c1-28-25(27-23(19-29)17-20-11-5-2-6-12-20)18-24(21-13-7-3-8-14-21)26(28)22-15-9-4-10-16-22/h2-16,23-24,26,29H,17-19H2,1H3/b27-25-/t23-,24+,26-/m0/s1
InChIKey=ZIXAMZLYUJNTMN-KUNIUXNUSA-N

> <PUBCHEM_SUBSTANCE_SYNONYM>
SCHEMBL16116888

> <PUBCHEM_XREF_EXT_ID>
SCHEMBL16116888

> <PUBCHEM_EXT_DATASOURCE_URL>
https://www.surechembl.org/

> <PUBCHEM_EXT_SUBSTANCE_URL>
https://www.surechembl.org/chemical/SCHEMBL16116888

> <PUBCHEM_CID_ASSOCIATIONS>
117606354  1

> <PUBCHEM_COORDINATE_TYPE>
1
3

> <PUBCHEM_BONDANNOTATIONS>
4  2  5
15  3  5
5  7  5

$$$$
