310949234
  -OEChem-07211613022D

 39 45  0     0  0  0  0  0  0999 V2000
    3.9583   -0.7174    0.0000 F   0  0  0  0  0  0  0  0  0  0  0  0
    1.0719   -0.7005    0.0000 F   0  0  0  0  0  0  0  0  0  0  0  0
    1.0550   -2.3378    0.0000 F   0  0  0  0  0  0  0  0  0  0  0  0
    3.9583   -2.3715    0.0000 F   0  0  0  0  0  0  0  0  0  0  0  0
    2.4898   -3.1650    0.0000 F   0  0  0  0  0  0  0  0  0  0  0  0
   -1.5614    2.4391    0.0000 O   0  0  0  0  0  0  0  0  0  0  0  0
    0.0422   -0.0422    0.0000 N   0  0  0  0  0  0  0  0  0  0  0  0
    0.3292    2.1353    0.0000 N   0  0  0  0  0  0  0  0  0  0  0  0
   -0.6836    0.3967    0.0000 C   0  0  0  0  0  0  0  0  0  0  0  0
   -1.3588   -0.0085    0.0000 C   0  0  0  0  0  0  0  0  0  0  0  0
    0.0422   -0.8355    0.0000 C   0  0  0  0  0  0  0  0  0  0  0  0
    1.7471    0.5317    0.0000 C   0  0  0  0  0  0  0  0  0  0  0  0
   -0.6836   -1.2238    0.0000 C   0  0  0  0  0  0  0  0  0  0  0  0
    2.5066    0.1435    0.0000 C   0  0  0  0  0  0  0  0  0  0  0  0
   -2.1015    1.2238    0.0000 C   0  0  0  0  0  0  0  0  0  0  0  0
   -1.3926    1.6458    0.0000 C   0  0  0  0  0  0  0  0  0  0  0  0
   -0.6667    1.2069    0.0000 C   0  0  0  0  0  0  0  0  0  0  0  0
   -2.0846    0.4135    0.0000 C   0  0  0  0  0  0  0  0  0  0  0  0
    2.4898   -0.7005    0.0000 C   0  0  0  0  0  0  0  0  0  0  0  0
    1.7808    1.3419    0.0000 C   0  0  0  0  0  0  0  0  0  0  0  0
   -2.7092    1.7977    0.0000 C   0  0  0  0  0  0  0  0  0  0  0  0
   -2.4053    2.5235    0.0000 C   0  0  0  0  0  0  0  0  0  0  0  0
    0.7512   -1.2744    0.0000 C   0  0  0  0  0  0  0  0  0  0  0  0
    3.2325   -1.1056    0.0000 C   0  0  0  0  0  0  0  0  0  0  0  0
    1.7808   -1.1056    0.0000 C   0  0  0  0  0  0  0  0  0  0  0  0
   -0.6667   -2.0508    0.0000 C   0  0  0  0  0  0  0  0  0  0  0  0
    3.2325    0.5486    0.0000 C   0  0  0  0  0  0  0  0  0  0  0  0
    1.7808   -1.9158    0.0000 C   0  0  0  0  0  0  0  0  0  0  0  0
    3.2156   -1.9327    0.0000 C   0  0  0  0  0  0  0  0  0  0  0  0
    2.5066   -2.3210    0.0000 C   0  0  0  0  0  0  0  0  0  0  0  0
    2.5066    1.7471    0.0000 C   0  0  0  0  0  0  0  0  0  0  0  0
    0.7512   -2.0508    0.0000 C   0  0  0  0  0  0  0  0  0  0  0  0
    3.2325    1.3419    0.0000 C   0  0  0  0  0  0  0  0  0  0  0  0
    0.0591   -2.4391    0.0000 C   0  0  0  0  0  0  0  0  0  0  0  0
   -3.5025    1.6964    0.0000 C   0  0  0  0  0  0  0  0  0  0  0  0
    1.0550    1.7471    0.0000 C   0  0  0  0  0  0  0  0  0  0  0  0
   -2.8105    3.1650    0.0000 C   0  0  0  0  0  0  0  0  0  0  0  0
   -3.9583    2.3547    0.0000 C   0  0  0  0  0  0  0  0  0  0  0  0
   -3.6375    3.0805    0.0000 C   0  0  0  0  0  0  0  0  0  0  0  0
  1 24  1  0  0  0  0
  2 25  1  0  0  0  0
  3 28  1  0  0  0  0
  4 29  1  0  0  0  0
  5 30  1  0  0  0  0
  6 16  1  0  0  0  0
  6 22  1  0  0  0  0
  7  9  1  0  0  0  0
  7 11  1  0  0  0  0
  7 12  1  0  0  0  0
  8 36  3  0  0  0  0
  9 10  2  0  0  0  0
  9 17  1  0  0  0  0
 10 13  1  0  0  0  0
 10 18  1  0  0  0  0
 11 13  2  0  0  0  0
 11 23  1  0  0  0  0
 12 14  1  0  0  0  0
 12 20  2  0  0  0  0
 13 26  1  0  0  0  0
 14 19  1  0  0  0  0
 14 27  2  0  0  0  0
 15 16  1  0  0  0  0
 15 18  2  0  0  0  0
 15 21  1  0  0  0  0
 16 17  2  0  0  0  0
 19 24  2  0  0  0  0
 19 25  1  0  0  0  0
 20 31  1  0  0  0  0
 20 36  1  0  0  0  0
 21 22  2  0  0  0  0
 21 35  1  0  0  0  0
 22 37  1  0  0  0  0
 23 32  2  0  0  0  0
 24 29  1  0  0  0  0
 25 28  2  0  0  0  0
 26 34  2  0  0  0  0
 27 33  1  0  0  0  0
 28 30  1  0  0  0  0
 29 30  2  0  0  0  0
 31 33  2  0  0  0  0
 32 34  1  0  0  0  0
 35 38  2  0  0  0  0
 37 39  2  0  0  0  0
 38 39  1  0  0  0  0
M  END
> <PUBCHEM_COMPOUND_ID_TYPE>
0

> <PUBCHEM_TOTAL_CHARGE>
0

> <PUBCHEM_SUBSTANCE_ID>
310949234

> <PUBCHEM_SUBSTANCE_VERSION>
1

> <PUBCHEM_EXT_DATASOURCE_NAME>
4488

> <PUBCHEM_EXT_DATASOURCE_REGID>
SCHEMBL16127424

> <PUBCHEM_SUBSTANCE_COMMENT>
InChI=1S/C31H13F5N2O/c32-26-25(27(33)29(35)30(36)28(26)34)18-9-5-6-15(14-37)31(18)38-21-10-3-1-7-16(21)19-12-20-17-8-2-4-11-23(17)39-24(20)13-22(19)38/h1-13H
InChIKey=HLWLVFRSQUWALO-UHFFFAOYSA-N

> <PUBCHEM_SUBSTANCE_SYNONYM>
SCHEMBL16127424

> <PUBCHEM_XREF_EXT_ID>
SCHEMBL16127424

> <PUBCHEM_EXT_DATASOURCE_URL>
https://www.surechembl.org/

> <PUBCHEM_EXT_SUBSTANCE_URL>
https://www.surechembl.org/chemical/SCHEMBL16127424

> <PUBCHEM_CID_ASSOCIATIONS>
117614722  1

> <PUBCHEM_COORDINATE_TYPE>
1
3

$$$$
