310949829
  -OEChem-07211613022D

 34 38  0     1  0  0  0  0  0999 V2000
    1.2306    3.0042    0.0000 Cl  0  0  0  0  0  0  0  0  0  0  0  0
    2.5230    3.1830    0.0000 F   0  0  0  0  0  0  0  0  0  0  0  0
    3.6505    3.2655    0.0000 F   0  0  0  0  0  0  0  0  0  0  0  0
    3.7055    2.1243    0.0000 F   0  0  0  0  0  0  0  0  0  0  0  0
   -1.2031   -2.1518    0.0000 F   0  0  0  0  0  0  0  0  0  0  0  0
   -1.2581   -3.2655    0.0000 F   0  0  0  0  0  0  0  0  0  0  0  0
   -2.3855   -3.2105    0.0000 F   0  0  0  0  0  0  0  0  0  0  0  0
   -0.1994    1.2306    0.0000 N   0  0  0  0  0  0  0  0  0  0  0  0
   -1.6156    0.4056    0.0000 N   0  0  0  0  0  0  0  0  0  0  0  0
   -0.7356    2.4543    0.0000 N   0  0  0  0  0  0  0  0  0  0  0  0
    0.0756    2.5368    0.0000 N   0  0  0  0  0  0  0  0  0  0  0  0
   -2.3993    1.4781    0.0000 N   0  0  0  0  0  0  0  0  0  0  0  0
   -2.8805    0.8181    0.0000 N   0  0  0  0  0  0  0  0  0  0  0  0
   -3.4580   -0.8181    0.0000 N   0  0  0  0  0  0  0  0  0  0  0  0
   -0.9143    1.6430    0.0000 C   0  0  0  0  0  0  0  0  0  0  0  0
   -1.6156    1.2306    0.0000 C   0  0  0  0  0  0  0  0  0  0  0  0
    0.4056    1.7943    0.0000 C   0  0  0  0  0  0  0  0  0  0  0  0
   -0.1994    0.4056    0.0000 C   0  0  3  0  0  0  0  0  0  0  0  0
   -2.3993    0.1444    0.0000 C   0  0  0  0  0  0  0  0  0  0  0  0
    1.2168    1.6018    0.0000 C   0  0  0  0  0  0  0  0  0  0  0  0
   -0.8731   -0.0069    0.0000 C   0  0  0  0  0  0  0  0  0  0  0  0
   -2.6605   -0.6393    0.0000 C   0  0  0  0  0  0  0  0  0  0  0  0
    1.7668    2.2205    0.0000 C   0  0  0  0  0  0  0  0  0  0  0  0
    2.5643    2.0418    0.0000 C   0  0  0  0  0  0  0  0  0  0  0  0
    1.4781    0.8318    0.0000 C   0  0  0  0  0  0  0  0  0  0  0  0
   -2.1105   -1.2581    0.0000 C   0  0  0  0  0  0  0  0  0  0  0  0
    3.1142    2.6605    0.0000 C   0  0  0  0  0  0  0  0  0  0  0  0
    0.5156   -0.0206    0.0000 C   0  0  0  0  0  0  0  0  0  0  0  0
   -2.3580   -2.0555    0.0000 C   0  0  0  0  0  0  0  0  0  0  0  0
    2.8255    1.2581    0.0000 C   0  0  0  0  0  0  0  0  0  0  0  0
    2.2755    0.6531    0.0000 C   0  0  0  0  0  0  0  0  0  0  0  0
   -1.8080   -2.6743    0.0000 C   0  0  0  0  0  0  0  0  0  0  0  0
   -3.1555   -2.2205    0.0000 C   0  0  0  0  0  0  0  0  0  0  0  0
   -3.7055   -1.6155    0.0000 C   0  0  0  0  0  0  0  0  0  0  0  0
  1 23  1  0  0  0  0
  2 27  1  0  0  0  0
  3 27  1  0  0  0  0
  4 27  1  0  0  0  0
  5 32  1  0  0  0  0
  6 32  1  0  0  0  0
  7 32  1  0  0  0  0
  8 15  1  0  0  0  0
  8 17  1  0  0  0  0
  8 18  1  0  0  0  0
  9 16  1  0  0  0  0
  9 19  1  0  0  0  0
  9 21  1  0  0  0  0
 10 11  1  0  0  0  0
 10 15  2  0  0  0  0
 11 17  2  0  0  0  0
 12 13  1  0  0  0  0
 12 16  2  0  0  0  0
 13 19  2  0  0  0  0
 14 22  2  0  0  0  0
 14 34  1  0  0  0  0
 15 16  1  0  0  0  0
 17 20  1  0  0  0  0
 18 21  1  0  0  0  0
 18 28  1  1  0  0  0
 19 22  1  0  0  0  0
 20 23  1  0  0  0  0
 20 25  2  0  0  0  0
 22 26  1  0  0  0  0
 23 24  2  0  0  0  0
 24 27  1  0  0  0  0
 24 30  1  0  0  0  0
 25 31  1  0  0  0  0
 26 29  2  0  0  0  0
 29 32  1  0  0  0  0
 29 33  1  0  0  0  0
 30 31  2  0  0  0  0
 33 34  2  0  0  0  0
M  END
> <PUBCHEM_COMPOUND_ID_TYPE>
0

> <PUBCHEM_TOTAL_CHARGE>
0

> <PUBCHEM_SUBSTANCE_ID>
310949829

> <PUBCHEM_SUBSTANCE_VERSION>
1

> <PUBCHEM_EXT_DATASOURCE_NAME>
4488

> <PUBCHEM_EXT_DATASOURCE_REGID>
SCHEMBL16128030

> <PUBCHEM_SUBSTANCE_COMMENT>
InChI=1S/C20H12ClF6N7/c1-9-8-33-16(13-7-10(5-6-28-13)19(22,23)24)30-31-17(33)18-32-29-15(34(9)18)11-3-2-4-12(14(11)21)20(25,26)27/h2-7,9H,8H2,1H3/t9-/m0/s1
InChIKey=AHVILQICUAKSNE-VIFPVBQESA-N

> <PUBCHEM_SUBSTANCE_SYNONYM>
SCHEMBL16128030

> <PUBCHEM_XREF_EXT_ID>
SCHEMBL16128030

> <PUBCHEM_EXT_DATASOURCE_URL>
https://www.surechembl.org/

> <PUBCHEM_EXT_SUBSTANCE_URL>
https://www.surechembl.org/chemical/SCHEMBL16128030

> <PUBCHEM_CID_ASSOCIATIONS>
117615147  1

> <PUBCHEM_COORDINATE_TYPE>
1
3

> <PUBCHEM_BONDANNOTATIONS>
18  28  5

$$$$
