310946892
  -OEChem-07211613022D

 31 35  0     1  0  0  0  0  0999 V2000
    0.2787    1.6302    0.0000 O   0  0  0  0  0  0  0  0  0  0  0  0
   -2.8295   -1.8329    0.0000 O   0  0  0  0  0  0  0  0  0  0  0  0
   -1.3430    0.5152    0.0000 N   0  0  0  0  0  0  0  0  0  0  0  0
   -0.8531   -0.1436    0.0000 N   0  0  0  0  0  0  0  0  0  0  0  0
   -1.0558   -1.5963    0.0000 N   0  0  0  0  0  0  0  0  0  0  0  0
   -3.5390   -0.5997    0.0000 N   0  0  0  0  0  0  0  0  0  0  0  0
    2.1877   -2.2214    0.0000 N   0  0  0  0  0  0  0  0  0  0  0  0
   -3.0323    2.3228    0.0000 N   0  0  0  0  0  0  0  0  0  0  0  0
   -2.1369    0.2619    0.0000 C   0  0  0  0  0  0  0  0  0  0  0  0
   -1.1402    1.3261    0.0000 C   0  0  3  0  0  0  0  0  0  0  0  0
   -2.1201   -0.5659    0.0000 C   0  0  0  0  0  0  0  0  0  0  0  0
   -1.3430   -0.8193    0.0000 C   0  0  0  0  0  0  0  0  0  0  0  0
   -2.8295   -0.9882    0.0000 C   0  0  0  0  0  0  0  0  0  0  0  0
   -2.8802    0.6503    0.0000 C   0  0  0  0  0  0  0  0  0  0  0  0
   -0.3125    1.0727    0.0000 C   0  0  0  0  0  0  0  0  0  0  0  0
   -1.2923    2.1032    0.0000 C   0  0  0  0  0  0  0  0  0  0  0  0
   -1.9511    1.1572    0.0000 C   0  0  0  0  0  0  0  0  0  0  0  0
   -0.2619   -1.7484    0.0000 C   0  0  0  0  0  0  0  0  0  0  0  0
   -3.5390    0.2449    0.0000 C   0  0  0  0  0  0  0  0  0  0  0  0
   -0.7011    2.6775    0.0000 C   0  0  0  0  0  0  0  0  0  0  0  0
    0.2787   -1.1402    0.0000 C   0  0  0  0  0  0  0  0  0  0  0  0
    1.0896   -1.2923    0.0000 C   0  0  0  0  0  0  0  0  0  0  0  0
    1.3599   -2.0694    0.0000 C   0  0  0  0  0  0  0  0  0  0  0  0
    0.0085   -2.5255    0.0000 C   0  0  0  0  0  0  0  0  0  0  0  0
   -2.4748    1.7146    0.0000 C   0  0  0  0  0  0  0  0  0  0  0  0
    0.1098    2.4241    0.0000 C   0  0  0  0  0  0  0  0  0  0  0  0
    0.8193   -2.6775    0.0000 C   0  0  0  0  0  0  0  0  0  0  0  0
    1.6470   -0.6673    0.0000 C   0  0  0  0  0  0  0  0  0  0  0  0
    2.7113   -1.5795    0.0000 C   0  0  0  0  0  0  0  0  0  0  0  0
    2.4579   -0.8362    0.0000 C   0  0  0  0  0  0  0  0  0  0  0  0
    3.5390   -1.7484    0.0000 C   0  0  0  0  0  0  0  0  0  0  0  0
  1 15  1  0  0  0  0
  1 26  1  0  0  0  0
  2 13  2  0  0  0  0
  3  4  1  0  0  0  0
  3  9  1  0  0  0  0
  3 10  1  0  0  0  0
  4 12  2  0  0  0  0
  5 12  1  0  0  0  0
  5 18  1  0  0  0  0
  6 13  1  0  0  0  0
  6 19  1  0  0  0  0
  7 23  1  0  0  0  0
  7 29  2  0  0  0  0
  8 25  3  0  0  0  0
  9 11  2  0  0  0  0
  9 14  1  0  0  0  0
 10 15  1  0  0  0  0
 10 16  1  0  0  0  0
 10 17  1  1  0  0  0
 11 12  1  0  0  0  0
 11 13  1  0  0  0  0
 14 19  2  0  0  0  0
 16 20  1  0  0  0  0
 17 25  1  0  0  0  0
 18 21  2  0  0  0  0
 18 24  1  0  0  0  0
 20 26  1  0  0  0  0
 21 22  1  0  0  0  0
 22 23  2  0  0  0  0
 22 28  1  0  0  0  0
 23 27  1  0  0  0  0
 24 27  2  0  0  0  0
 28 30  2  0  0  0  0
 29 30  1  0  0  0  0
 29 31  1  0  0  0  0
M  END
> <PUBCHEM_COMPOUND_ID_TYPE>
0

> <PUBCHEM_TOTAL_CHARGE>
0

> <PUBCHEM_SUBSTANCE_ID>
310946892

> <PUBCHEM_SUBSTANCE_VERSION>
1

> <PUBCHEM_EXT_DATASOURCE_NAME>
4488

> <PUBCHEM_EXT_DATASOURCE_REGID>
SCHEMBL16125016

> <PUBCHEM_SUBSTANCE_COMMENT>
InChI=1S/C23H22N6O2/c1-15-3-4-16-13-17(5-6-18(16)26-15)27-21-20-19(7-11-25-22(20)30)29(28-21)23(9-10-24)8-2-12-31-14-23/h3-7,11,13H,2,8-9,12,14H2,1H3,(H,25,30)(H,27,28)/t23-/m0/s1
InChIKey=LDAVCWRDFVEWLN-QHCPKHFHSA-N

> <PUBCHEM_SUBSTANCE_SYNONYM>
SCHEMBL16125016

> <PUBCHEM_XREF_EXT_ID>
SCHEMBL16125016

> <PUBCHEM_EXT_DATASOURCE_URL>
https://www.surechembl.org/

> <PUBCHEM_EXT_SUBSTANCE_URL>
https://www.surechembl.org/chemical/SCHEMBL16125016

> <PUBCHEM_CID_ASSOCIATIONS>
117612750  1

> <PUBCHEM_COORDINATE_TYPE>
1
3

> <PUBCHEM_BONDANNOTATIONS>
10  17  5

$$$$
