310935511
  -OEChem-07211613022D

 19 20  0     0  0  0  0  0  0999 V2000
    0.7136    0.0000    0.0000 F   0  0  0  0  0  0  0  0  0  0  0  0
    0.0000   -1.2304    0.0000 F   0  0  0  0  0  0  0  0  0  0  0  0
    1.4273   -0.4183    0.0000 F   0  0  0  0  0  0  0  0  0  0  0  0
    4.3309   -2.2147    0.0000 O   0  0  0  0  0  0  0  0  0  0  0  0
    4.0110   -4.9215    0.0000 O   0  0  0  0  0  0  0  0  0  0  0  0
    5.3644   -4.4786    0.0000 N   0  0  0  0  0  0  0  0  0  0  0  0
    3.5435   -3.2974    0.0000 C   0  0  0  0  0  0  0  0  0  0  0  0
    4.3309   -3.5435    0.0000 C   0  0  0  0  0  0  0  0  0  0  0  0
    3.5435   -2.4608    0.0000 C   0  0  0  0  0  0  0  0  0  0  0  0
    4.7985   -2.8791    0.0000 C   0  0  0  0  0  0  0  0  0  0  0  0
    2.8053   -2.0670    0.0000 C   0  0  0  0  0  0  0  0  0  0  0  0
    2.8053   -3.6912    0.0000 C   0  0  0  0  0  0  0  0  0  0  0  0
    2.1163   -2.4608    0.0000 C   0  0  0  0  0  0  0  0  0  0  0  0
    4.5770   -4.3063    0.0000 C   0  0  0  0  0  0  0  0  0  0  0  0
    2.1163   -3.2974    0.0000 C   0  0  0  0  0  0  0  0  0  0  0  0
    1.4273   -2.0425    0.0000 C   0  0  0  0  0  0  0  0  0  0  0  0
    5.6352   -2.8791    0.0000 C   0  0  0  0  0  0  0  0  0  0  0  0
    0.7136   -0.8120    0.0000 C   0  0  0  0  0  0  0  0  0  0  0  0
    1.4273   -1.2304    0.0000 C   0  0  0  0  0  0  0  0  0  0  0  0
  1 18  1  0  0  0  0
  2 18  1  0  0  0  0
  3 18  1  0  0  0  0
  4  9  1  0  0  0  0
  4 10  1  0  0  0  0
  5 14  2  0  0  0  0
  6 14  1  0  0  0  0
  7  8  1  0  0  0  0
  7  9  2  0  0  0  0
  7 12  1  0  0  0  0
  8 10  2  0  0  0  0
  8 14  1  0  0  0  0
  9 11  1  0  0  0  0
 10 17  1  0  0  0  0
 11 13  2  0  0  0  0
 12 15  2  0  0  0  0
 13 15  1  0  0  0  0
 13 16  1  0  0  0  0
 16 19  1  0  0  0  0
 18 19  1  0  0  0  0
M  END
> <PUBCHEM_COMPOUND_ID_TYPE>
0

> <PUBCHEM_TOTAL_CHARGE>
0

> <PUBCHEM_SUBSTANCE_ID>
310935511

> <PUBCHEM_SUBSTANCE_VERSION>
1

> <PUBCHEM_EXT_DATASOURCE_NAME>
4488

> <PUBCHEM_EXT_DATASOURCE_REGID>
SCHEMBL16113079

> <PUBCHEM_SUBSTANCE_COMMENT>
InChI=1S/C13H12F3NO2/c1-7-11(12(17)18)9-3-2-8(6-10(9)19-7)4-5-13(14,15)16/h2-3,6H,4-5H2,1H3,(H2,17,18)
InChIKey=LGGQNKLYAMDORN-UHFFFAOYSA-N

> <PUBCHEM_SUBSTANCE_SYNONYM>
SCHEMBL16113079

> <PUBCHEM_XREF_EXT_ID>
SCHEMBL16113079

> <PUBCHEM_EXT_DATASOURCE_URL>
https://www.surechembl.org/

> <PUBCHEM_EXT_SUBSTANCE_URL>
https://www.surechembl.org/chemical/SCHEMBL16113079

> <PUBCHEM_CID_ASSOCIATIONS>
117603541  1

> <PUBCHEM_COORDINATE_TYPE>
1
3

$$$$
