310947236
  -OEChem-07211613022D

 24 27  0     0  0  0  0  0  0999 V2000
   -3.6892   -4.7708    0.0000 O   0  0  0  0  0  0  0  0  0  0  0  0
   -3.6892   -1.4708    0.0000 N   0  0  0  0  0  0  0  0  0  0  0  0
   -2.9747   -1.0583    0.0000 C   0  0  0  0  0  0  0  0  0  0  0  0
   -2.9747   -0.2333    0.0000 C   0  0  0  0  0  0  0  0  0  0  0  0
   -3.6892   -2.2958    0.0000 C   0  0  0  0  0  0  0  0  0  0  0  0
   -4.4036   -1.0583    0.0000 C   0  0  0  0  0  0  0  0  0  0  0  0
   -2.2602    0.1792    0.0000 C   0  0  0  0  0  0  0  0  0  0  0  0
   -2.2602   -1.4708    0.0000 C   0  0  0  0  0  0  0  0  0  0  0  0
   -3.6892    0.1792    0.0000 C   0  0  0  0  0  0  0  0  0  0  0  0
   -1.5458   -0.2333    0.0000 C   0  0  0  0  0  0  0  0  0  0  0  0
   -4.4036   -2.7083    0.0000 C   0  0  0  0  0  0  0  0  0  0  0  0
   -2.9747   -2.7083    0.0000 C   0  0  0  0  0  0  0  0  0  0  0  0
   -1.5458   -1.0583    0.0000 C   0  0  0  0  0  0  0  0  0  0  0  0
   -5.1181   -1.4708    0.0000 C   0  0  0  0  0  0  0  0  0  0  0  0
   -4.4036   -0.2333    0.0000 C   0  0  0  0  0  0  0  0  0  0  0  0
   -2.2602    1.0042    0.0000 C   0  0  0  0  0  0  0  0  0  0  0  0
   -3.6892    1.0042    0.0000 C   0  0  0  0  0  0  0  0  0  0  0  0
   -4.4036   -3.5333    0.0000 C   0  0  0  0  0  0  0  0  0  0  0  0
   -2.9747   -3.5333    0.0000 C   0  0  0  0  0  0  0  0  0  0  0  0
   -3.6892   -3.9458    0.0000 C   0  0  0  0  0  0  0  0  0  0  0  0
   -2.9747    1.4167    0.0000 C   0  0  0  0  0  0  0  0  0  0  0  0
   -5.8326   -1.0583    0.0000 C   0  0  0  0  0  0  0  0  0  0  0  0
   -5.1181    0.1792    0.0000 C   0  0  0  0  0  0  0  0  0  0  0  0
   -5.8326   -0.2333    0.0000 C   0  0  0  0  0  0  0  0  0  0  0  0
  1 20  1  0  0  0  0
  2  3  1  0  0  0  0
  2  5  1  0  0  0  0
  2  6  1  0  0  0  0
  3  4  1  0  0  0  0
  3  8  2  0  0  0  0
  4  7  2  0  0  0  0
  4  9  1  0  0  0  0
  5 11  2  0  0  0  0
  5 12  1  0  0  0  0
  6 14  2  0  0  0  0
  6 15  1  0  0  0  0
  7 10  1  0  0  0  0
  7 16  1  0  0  0  0
  8 13  1  0  0  0  0
  9 17  2  0  0  0  0
 10 13  2  0  0  0  0
 11 18  1  0  0  0  0
 12 19  2  0  0  0  0
 14 22  1  0  0  0  0
 15 23  2  0  0  0  0
 16 21  2  0  0  0  0
 17 21  1  0  0  0  0
 18 20  2  0  0  0  0
 19 20  1  0  0  0  0
 22 24  2  0  0  0  0
 23 24  1  0  0  0  0
M  END
> <PUBCHEM_COMPOUND_ID_TYPE>
0

> <PUBCHEM_TOTAL_CHARGE>
0

> <PUBCHEM_SUBSTANCE_ID>
310947236

> <PUBCHEM_SUBSTANCE_VERSION>
1

> <PUBCHEM_EXT_DATASOURCE_NAME>
4488

> <PUBCHEM_EXT_DATASOURCE_REGID>
SCHEMBL16125391

> <PUBCHEM_SUBSTANCE_COMMENT>
InChI=1S/C22H17NO/c24-20-15-13-19(14-16-20)23(18-9-2-1-3-10-18)22-12-6-8-17-7-4-5-11-21(17)22/h1-16,24H
InChIKey=AVEXMNNLMHFEKY-UHFFFAOYSA-N

> <PUBCHEM_SUBSTANCE_SYNONYM>
SCHEMBL16125391

> <PUBCHEM_XREF_EXT_ID>
SCHEMBL16125391

> <PUBCHEM_EXT_DATASOURCE_URL>
https://www.surechembl.org/

> <PUBCHEM_EXT_SUBSTANCE_URL>
https://www.surechembl.org/chemical/SCHEMBL16125391

> <PUBCHEM_CID_ASSOCIATIONS>
117613051  1

> <PUBCHEM_COORDINATE_TYPE>
1
3

$$$$
