310942235
  -OEChem-07211613022D

 28 29  0     1  0  0  0  0  0999 V2000
    1.0811    1.0686    0.0000 Cl  0  0  0  0  0  0  0  0  0  0  0  0
   -0.3562   -1.4311    0.0000 F   0  0  0  0  0  0  0  0  0  0  0  0
    1.0811   -0.6062    0.0000 O   0  0  0  0  0  0  0  0  0  0  0  0
    3.9558    1.8435    0.0000 O   0  0  0  0  0  0  0  0  0  0  0  0
   -3.9058   -0.1688    0.0000 O   0  0  0  0  0  0  0  0  0  0  0  0
   -2.5184   -0.1812    0.0000 N   0  0  0  0  0  0  0  0  0  0  0  0
    4.6806    0.6437    0.0000 N   0  0  0  0  0  0  0  0  0  0  0  0
   -4.6806    1.0561    0.0000 N   0  0  0  0  0  0  0  0  0  0  0  0
    0.3562   -0.1688    0.0000 C   0  0  0  0  0  0  0  0  0  0  0  0
   -0.3562   -0.5937    0.0000 C   0  0  0  0  0  0  0  0  0  0  0  0
   -1.0811   -0.1812    0.0000 C   0  0  0  0  0  0  0  0  0  0  0  0
    0.3687    0.6562    0.0000 C   0  0  0  0  0  0  0  0  0  0  0  0
   -1.7935   -0.5937    0.0000 C   0  0  3  0  0  0  0  0  0  0  0  0
   -1.0686    0.6437    0.0000 C   0  0  0  0  0  0  0  0  0  0  0  0
   -0.3562    1.0561    0.0000 C   0  0  0  0  0  0  0  0  0  0  0  0
    1.8060   -0.1812    0.0000 C   0  0  0  0  0  0  0  0  0  0  0  0
    2.5434   -0.5937    0.0000 C   0  0  0  0  0  0  0  0  0  0  0  0
    1.8185    0.6437    0.0000 C   0  0  0  0  0  0  0  0  0  0  0  0
   -1.7935   -1.4311    0.0000 C   0  0  0  0  0  0  0  0  0  0  0  0
    3.2559    0.6562    0.0000 C   0  0  0  0  0  0  0  0  0  0  0  0
   -2.5184    0.6562    0.0000 C   0  0  3  0  0  0  0  0  0  0  0  0
    3.2559   -0.1812    0.0000 C   0  0  0  0  0  0  0  0  0  0  0  0
    2.5184    1.0561    0.0000 C   0  0  0  0  0  0  0  0  0  0  0  0
    3.9682    1.0686    0.0000 C   0  0  0  0  0  0  0  0  0  0  0  0
   -3.2309    1.0686    0.0000 C   0  0  0  0  0  0  0  0  0  0  0  0
   -1.0811   -1.8435    0.0000 C   0  0  0  0  0  0  0  0  0  0  0  0
   -1.8060    1.0686    0.0000 C   0  0  0  0  0  0  0  0  0  0  0  0
   -3.9558    0.6437    0.0000 C   0  0  0  0  0  0  0  0  0  0  0  0
  1 12  1  0  0  0  0
  2 10  1  0  0  0  0
  3  9  1  0  0  0  0
  3 16  1  0  0  0  0
  4 24  2  0  0  0  0
  5 28  2  0  0  0  0
 13  6  1  1  0  0  0
  6 21  1  0  0  0  0
  7 24  1  0  0  0  0
  8 28  1  0  0  0  0
  9 10  2  0  0  0  0
  9 12  1  0  0  0  0
 10 11  1  0  0  0  0
 11 13  1  0  0  0  0
 11 14  2  0  0  0  0
 12 15  2  0  0  0  0
 13 19  1  0  0  0  0
 14 15  1  0  0  0  0
 16 17  2  0  0  0  0
 16 18  1  0  0  0  0
 17 22  1  0  0  0  0
 18 23  2  0  0  0  0
 19 26  1  0  0  0  0
 20 22  2  0  0  0  0
 20 23  1  0  0  0  0
 20 24  1  0  0  0  0
 21 25  1  0  0  0  0
 21 27  1  1  0  0  0
 25 28  1  0  0  0  0
M  END
> <PUBCHEM_COMPOUND_ID_TYPE>
0

> <PUBCHEM_TOTAL_CHARGE>
0

> <PUBCHEM_SUBSTANCE_ID>
310942235

> <PUBCHEM_SUBSTANCE_VERSION>
1

> <PUBCHEM_EXT_DATASOURCE_NAME>
4488

> <PUBCHEM_EXT_DATASOURCE_REGID>
SCHEMBL16120270

> <PUBCHEM_SUBSTANCE_COMMENT>
InChI=1S/C20H23ClFN3O3/c1-3-16(25-11(2)10-17(23)26)14-8-9-15(21)19(18(14)22)28-13-6-4-12(5-7-13)20(24)27/h4-9,11,16,25H,3,10H2,1-2H3,(H2,23,26)(H2,24,27)/t11-,16-/m1/s1
InChIKey=WSHUVWUKQWYZMN-BDJLRTHQSA-N

> <PUBCHEM_SUBSTANCE_SYNONYM>
SCHEMBL16120270

> <PUBCHEM_XREF_EXT_ID>
SCHEMBL16120270

> <PUBCHEM_EXT_DATASOURCE_URL>
https://www.surechembl.org/

> <PUBCHEM_EXT_SUBSTANCE_URL>
https://www.surechembl.org/chemical/SCHEMBL16120270

> <PUBCHEM_CID_ASSOCIATIONS>
117608886  1

> <PUBCHEM_COORDINATE_TYPE>
1
3

> <PUBCHEM_BONDANNOTATIONS>
21  27  5
13  6  5

$$$$
