310948958
  -OEChem-07211613022D

 22 23  0     0  0  0  0  0  0999 V2000
   -0.0229   -0.6098    0.0000 S   0  0  0  0  0  0  0  0  0  0  0  0
   -2.1266    1.4635    0.0000 O   0  0  0  0  0  0  0  0  0  0  0  0
    1.4559   -0.6098    0.0000 O   0  0  0  0  0  0  0  0  0  0  0  0
   -0.7241    0.6403    0.0000 N   0  0  0  0  0  0  0  0  0  0  0  0
    0.7394    0.6403    0.0000 N   0  0  0  0  0  0  0  0  0  0  0  0
   -1.4101    0.2287    0.0000 C   0  0  0  0  0  0  0  0  0  0  0  0
   -2.1419    0.6098    0.0000 C   0  0  0  0  0  0  0  0  0  0  0  0
   -2.8736    0.2287    0.0000 C   0  0  0  0  0  0  0  0  0  0  0  0
   -1.4101   -0.5945    0.0000 C   0  0  0  0  0  0  0  0  0  0  0  0
   -2.1419   -1.0214    0.0000 C   0  0  0  0  0  0  0  0  0  0  0  0
   -2.8584   -0.5945    0.0000 C   0  0  0  0  0  0  0  0  0  0  0  0
    0.0229    0.2591    0.0000 C   0  0  0  0  0  0  0  0  0  0  0  0
    1.4406    0.2439    0.0000 C   0  0  0  0  0  0  0  0  0  0  0  0
    2.1723    0.6251    0.0000 C   0  0  0  0  0  0  0  0  0  0  0  0
   -3.5901    0.6098    0.0000 C   0  0  0  0  0  0  0  0  0  0  0  0
    2.8584    0.2439    0.0000 C   0  0  0  0  0  0  0  0  0  0  0  0
    2.1876    1.4787    0.0000 C   0  0  0  0  0  0  0  0  0  0  0  0
   -2.1419   -1.8751    0.0000 C   0  0  0  0  0  0  0  0  0  0  0  0
    3.5901    0.6098    0.0000 C   0  0  0  0  0  0  0  0  0  0  0  0
    2.8584    1.8598    0.0000 C   0  0  0  0  0  0  0  0  0  0  0  0
   -2.8432    1.8751    0.0000 C   0  0  0  0  0  0  0  0  0  0  0  0
    3.5901    1.4787    0.0000 C   0  0  0  0  0  0  0  0  0  0  0  0
  1 12  2  0  0  0  0
  2  7  1  0  0  0  0
  2 21  1  0  0  0  0
  3 13  2  0  0  0  0
  4  6  1  0  0  0  0
  4 12  1  0  0  0  0
  5 12  1  0  0  0  0
  5 13  1  0  0  0  0
  6  7  2  0  0  0  0
  6  9  1  0  0  0  0
  7  8  1  0  0  0  0
  8 11  2  0  0  0  0
  8 15  1  0  0  0  0
  9 10  2  0  0  0  0
 10 11  1  0  0  0  0
 10 18  1  0  0  0  0
 13 14  1  0  0  0  0
 14 16  2  0  0  0  0
 14 17  1  0  0  0  0
 16 19  1  0  0  0  0
 17 20  2  0  0  0  0
 19 22  2  0  0  0  0
 20 22  1  0  0  0  0
M  END
> <PUBCHEM_COMPOUND_ID_TYPE>
0

> <PUBCHEM_TOTAL_CHARGE>
0

> <PUBCHEM_SUBSTANCE_ID>
310948958

> <PUBCHEM_SUBSTANCE_VERSION>
1

> <PUBCHEM_EXT_DATASOURCE_NAME>
4488

> <PUBCHEM_EXT_DATASOURCE_REGID>
SCHEMBL16127146

> <PUBCHEM_SUBSTANCE_COMMENT>
InChI=1S/C17H18N2O2S/c1-11-9-12(2)15(21-3)14(10-11)18-17(22)19-16(20)13-7-5-4-6-8-13/h4-10H,1-3H3,(H2,18,19,20,22)
InChIKey=VZOCPZFYIBLVFI-UHFFFAOYSA-N

> <PUBCHEM_SUBSTANCE_SYNONYM>
SCHEMBL16127146

> <PUBCHEM_XREF_EXT_ID>
SCHEMBL16127146

> <PUBCHEM_EXT_DATASOURCE_URL>
https://www.surechembl.org/

> <PUBCHEM_EXT_SUBSTANCE_URL>
https://www.surechembl.org/chemical/SCHEMBL16127146

> <PUBCHEM_CID_ASSOCIATIONS>
117614467  1

> <PUBCHEM_COORDINATE_TYPE>
1
3

$$$$
