310946918
  -OEChem-07211613022D

 23 25  0     0  0  0  0  0  0999 V2000
   -1.1825   -0.8456    0.0000 O   0  0  0  0  0  0  0  0  0  0  0  0
    1.3750    0.1581    0.0000 N   0  0  0  0  0  0  0  0  0  0  0  0
    1.3750   -0.6669    0.0000 N   0  0  0  0  0  0  0  0  0  0  0  0
   -1.0312    0.5844    0.0000 N   0  0  0  0  0  0  0  0  0  0  0  0
    0.3438   -1.6981    0.0000 N   0  0  0  0  0  0  0  0  0  0  0  0
    3.4650   -0.9969    0.0000 N   0  0  0  0  0  0  0  0  0  0  0  0
    2.0488    0.6257    0.0000 C   0  0  0  0  0  0  0  0  0  0  0  0
    0.5912    0.4194    0.0000 C   0  0  0  0  0  0  0  0  0  0  0  0
    0.1100   -0.2544    0.0000 C   0  0  0  0  0  0  0  0  0  0  0  0
    0.6050   -0.9144    0.0000 C   0  0  0  0  0  0  0  0  0  0  0  0
   -0.7012   -0.1719    0.0000 C   0  0  0  0  0  0  0  0  0  0  0  0
    0.2750    1.1482    0.0000 C   0  0  0  0  0  0  0  0  0  0  0  0
    2.0625    1.4507    0.0000 C   0  0  0  0  0  0  0  0  0  0  0  0
    2.8325    0.3919    0.0000 C   0  0  0  0  0  0  0  0  0  0  0  0
    2.0488   -0.1857    0.0000 C   0  0  0  0  0  0  0  0  0  0  0  0
   -0.5500    1.2444    0.0000 C   0  0  0  0  0  0  0  0  0  0  0  0
    2.8188    1.6981    0.0000 C   0  0  0  0  0  0  0  0  0  0  0  0
    3.3001    1.0382    0.0000 C   0  0  0  0  0  0  0  0  0  0  0  0
    2.7638   -0.5982    0.0000 C   0  0  0  0  0  0  0  0  0  0  0  0
   -1.9662   -0.7906    0.0000 C   0  0  0  0  0  0  0  0  0  0  0  0
   -2.2963   -0.0344    0.0000 C   0  0  0  0  0  0  0  0  0  0  0  0
   -3.1213    0.0206    0.0000 C   0  0  0  0  0  0  0  0  0  0  0  0
   -3.4650    0.7769    0.0000 C   0  0  0  0  0  0  0  0  0  0  0  0
  1 11  1  0  0  0  0
  1 20  1  0  0  0  0
  2  3  1  0  0  0  0
  2  7  1  0  0  0  0
  2  8  1  0  0  0  0
  3 10  2  0  0  0  0
  4 11  2  0  0  0  0
  4 16  1  0  0  0  0
  5 10  1  0  0  0  0
  6 19  3  0  0  0  0
  7 13  1  0  0  0  0
  7 14  1  0  0  0  0
  7 15  1  0  0  0  0
  8  9  2  0  0  0  0
  8 12  1  0  0  0  0
  9 10  1  0  0  0  0
  9 11  1  0  0  0  0
 12 16  2  0  0  0  0
 13 17  1  0  0  0  0
 14 18  1  0  0  0  0
 15 19  1  0  0  0  0
 17 18  1  0  0  0  0
 20 21  1  0  0  0  0
 21 22  1  0  0  0  0
 22 23  1  0  0  0  0
M  END
> <PUBCHEM_COMPOUND_ID_TYPE>
0

> <PUBCHEM_TOTAL_CHARGE>
0

> <PUBCHEM_SUBSTANCE_ID>
310946918

> <PUBCHEM_SUBSTANCE_VERSION>
1

> <PUBCHEM_EXT_DATASOURCE_NAME>
4488

> <PUBCHEM_EXT_DATASOURCE_REGID>
SCHEMBL16125042

> <PUBCHEM_SUBSTANCE_COMMENT>
InChI=1S/C17H23N5O/c1-2-3-12-23-16-14-13(6-11-20-16)22(21-15(14)19)17(9-10-18)7-4-5-8-17/h6,11H,2-5,7-9,12H2,1H3,(H2,19,21)
InChIKey=YKYJLFFCPDTOIM-UHFFFAOYSA-N

> <PUBCHEM_SUBSTANCE_SYNONYM>
SCHEMBL16125042

> <PUBCHEM_XREF_EXT_ID>
SCHEMBL16125042

> <PUBCHEM_EXT_DATASOURCE_URL>
https://www.surechembl.org/

> <PUBCHEM_EXT_SUBSTANCE_URL>
https://www.surechembl.org/chemical/SCHEMBL16125042

> <PUBCHEM_CID_ASSOCIATIONS>
117612775  1

> <PUBCHEM_COORDINATE_TYPE>
1
3

$$$$
