310942636
  -OEChem-07211613022D

 56 59  0     1  0  0  0  0  0999 V2000
    1.5118    2.9710    0.0000 S   0  0  3  0  0  0  0  0  0  0  0  0
   -3.7487    0.3845    0.0000 F   0  0  0  0  0  0  0  0  0  0  0  0
    3.1371   -0.8039    0.0000 F   0  0  0  0  0  0  0  0  0  0  0  0
   -3.3992   -2.9361    0.0000 F   0  0  0  0  0  0  0  0  0  0  0  0
   -1.0748   -1.5380    0.0000 O   0  0  0  0  0  0  0  0  0  0  0  0
   -0.2534   -2.9885    0.0000 O   0  0  0  0  0  0  0  0  0  0  0  0
    2.8399   -4.0022    0.0000 O   0  0  0  0  0  0  0  0  0  0  0  0
    1.3894   -3.9497    0.0000 O   0  0  0  0  0  0  0  0  0  0  0  0
   -0.2534   -4.4216    0.0000 O   0  0  0  0  0  0  0  0  0  0  0  0
    2.3506    2.9710    0.0000 O   0  0  0  0  0  0  0  0  0  0  0  0
    0.2884   -0.6117    0.0000 N   0  0  0  0  0  0  0  0  0  0  0  0
   -1.4419    0.7865    0.0000 N   0  0  0  0  0  0  0  0  0  0  0  0
   -1.4419   -0.5767    0.0000 N   0  0  0  0  0  0  0  0  0  0  0  0
    2.0535   -2.6390    0.0000 N   0  0  0  0  0  0  0  0  0  0  0  0
    1.1098    2.2719    0.0000 N   0  0  0  0  0  0  0  0  0  0  0  0
   -0.1310    0.1049    0.0000 C   0  0  3  0  0  0  0  0  0  0  0  0
   -0.9700    0.1224    0.0000 C   0  0  0  0  0  0  0  0  0  0  0  0
    0.2709    0.8388    0.0000 C   0  0  0  0  0  0  0  0  0  0  0  0
   -2.2457   -0.2971    0.0000 C   0  0  0  0  0  0  0  0  0  0  0  0
   -2.2108    0.5243    0.0000 C   0  0  0  0  0  0  0  0  0  0  0  0
   -0.2359   -1.5380    0.0000 C   0  0  0  0  0  0  0  0  0  0  0  0
   -2.8924   -0.7865    0.0000 C   0  0  0  0  0  0  0  0  0  0  0  0
    1.3544   -0.6117    0.0000 C   0  0  0  0  0  0  0  0  0  0  0  0
    1.7564   -1.3107    0.0000 C   0  0  3  0  0  0  0  0  0  0  0  0
   -1.1797    1.5729    0.0000 C   0  0  0  0  0  0  0  0  0  0  0  0
    1.1098    0.8214    0.0000 C   0  0  0  0  0  0  0  0  0  0  0  0
   -3.6613   -0.4544    0.0000 C   0  0  0  0  0  0  0  0  0  0  0  0
    0.1486   -2.2545    0.0000 C   0  0  3  0  0  0  0  0  0  0  0  0
   -0.4282    1.2583    0.0000 C   0  0  0  0  0  0  0  0  0  0  0  0
    0.2709    1.6602    0.0000 C   0  0  0  0  0  0  0  0  0  0  0  0
    2.5778   -1.4331    0.0000 C   0  0  3  0  0  0  0  0  0  0  0  0
   -2.8399   -1.6253    0.0000 C   0  0  0  0  0  0  0  0  0  0  0  0
    1.4419   -2.0797    0.0000 C   0  0  0  0  0  0  0  0  0  0  0  0
   -1.7389    2.1846    0.0000 C   0  0  0  0  0  0  0  0  0  0  0  0
    2.7700   -2.2370    0.0000 C   0  0  0  0  0  0  0  0  0  0  0  0
   -3.4866   -2.0972    0.0000 C   0  0  0  0  0  0  0  0  0  0  0  0
    1.5118    1.5554    0.0000 C   0  0  0  0  0  0  0  0  0  0  0  0
   -4.3255   -0.9438    0.0000 C   0  0  0  0  0  0  0  0  0  0  0  0
    2.0884   -3.5477    0.0000 C   0  0  0  0  0  0  0  0  0  0  0  0
   -4.2381   -1.7651    0.0000 C   0  0  0  0  0  0  0  0  0  0  0  0
   -1.4942    2.9710    0.0000 C   0  0  0  0  0  0  0  0  0  0  0  0
   -2.5429    2.0273    0.0000 C   0  0  0  0  0  0  0  0  0  0  0  0
    0.9700   -2.2545    0.0000 C   0  0  0  0  0  0  0  0  0  0  0  0
    0.1486   -3.6701    0.0000 C   0  0  0  0  0  0  0  0  0  0  0  0
    3.6089   -3.6002    0.0000 C   0  0  0  0  0  0  0  0  0  0  0  0
   -2.0185    3.5652    0.0000 C   0  0  0  0  0  0  0  0  0  0  0  0
   -3.0846    2.6215    0.0000 C   0  0  0  0  0  0  0  0  0  0  0  0
    1.1098    3.7050    0.0000 C   0  0  0  0  0  0  0  0  0  0  0  0
   -2.8225    3.4254    0.0000 C   0  0  0  0  0  0  0  0  0  0  0  0
    1.0049   -3.6875    0.0000 C   0  0  0  0  0  0  0  0  0  0  0  0
    4.0108   -4.2468    0.0000 C   0  0  0  0  0  0  0  0  0  0  0  0
    3.2070   -2.9186    0.0000 C   0  0  0  0  0  0  0  0  0  0  0  0
    4.3255   -3.1808    0.0000 C   0  0  0  0  0  0  0  0  0  0  0  0
    0.7253    4.4216    0.0000 C   0  0  0  0  0  0  0  0  0  0  0  0
    0.2709    3.6875    0.0000 C   0  0  0  0  0  0  0  0  0  0  0  0
    1.5467    4.4041    0.0000 C   0  0  0  0  0  0  0  0  0  0  0  0
  1 10  2  0  0  0  0
  1 15  1  0  0  0  0
  1 48  1  0  0  0  0
  2 27  1  0  0  0  0
 31  3  1  1  0  0  0
  4 36  1  0  0  0  0
  5 21  2  0  0  0  0
  6 28  1  0  0  0  0
  6 44  1  0  0  0  0
  7 39  1  0  0  0  0
  7 45  1  0  0  0  0
  8 39  2  0  0  0  0
  9 44  2  0  0  0  0
 16 11  1  1  0  0  0
 11 21  1  0  0  0  0
 11 23  1  0  0  0  0
 12 17  1  0  0  0  0
 12 20  1  0  0  0  0
 12 25  1  0  0  0  0
 13 17  2  0  0  0  0
 13 19  1  0  0  0  0
 14 33  1  0  0  0  0
 14 35  1  0  0  0  0
 14 39  1  0  0  0  0
 15 37  2  0  0  0  0
 16 17  1  0  0  0  0
 16 18  1  0  0  0  0
 18 26  1  0  0  0  0
 18 29  1  0  0  0  0
 18 30  1  0  0  0  0
 19 20  2  0  0  0  0
 19 22  1  0  0  0  0
 21 28  1  0  0  0  0
 22 27  2  0  0  0  0
 22 32  1  0  0  0  0
 24 23  1  1  0  0  0
 24 31  1  0  0  0  0
 24 33  1  0  0  0  0
 25 34  1  0  0  0  0
 26 37  1  0  0  0  0
 27 38  1  0  0  0  0
 28 43  1  6  0  0  0
 31 35  1  0  0  0  0
 32 36  2  0  0  0  0
 34 41  2  0  0  0  0
 34 42  1  0  0  0  0
 36 40  1  0  0  0  0
 38 40  2  0  0  0  0
 41 46  1  0  0  0  0
 42 47  2  0  0  0  0
 44 50  1  0  0  0  0
 45 51  1  0  0  0  0
 45 52  1  0  0  0  0
 45 53  1  0  0  0  0
 46 49  2  0  0  0  0
 47 49  1  0  0  0  0
 48 54  1  0  0  0  0
 48 55  1  0  0  0  0
 48 56  1  0  0  0  0
M  END
> <PUBCHEM_COMPOUND_ID_TYPE>
0

> <PUBCHEM_TOTAL_CHARGE>
0

> <PUBCHEM_SUBSTANCE_ID>
310942636

> <PUBCHEM_SUBSTANCE_VERSION>
1

> <PUBCHEM_EXT_DATASOURCE_NAME>
4488

> <PUBCHEM_EXT_DATASOURCE_REGID>
SCHEMBL16120682

> <PUBCHEM_SUBSTANCE_COMMENT>
InChI=1S/C41H54F3N5O6S/c1-26(54-27(2)50)37(51)49(23-29-22-48(24-33(29)44)38(52)55-39(3,4)5)35(41(9,10)18-19-45-56(53)40(6,7)8)36-46-34(31-20-30(42)16-17-32(31)43)25-47(36)21-28-14-12-11-13-15-28/h11-17,19-20,25-26,29,33,35H,18,21-24H2,1-10H3/b45-19+/t26-,29-,33-,35-,56?/m0/s1
InChIKey=JDAIDIJLDSEUDG-FUBMWJJMSA-N

> <PUBCHEM_SUBSTANCE_SYNONYM>
SCHEMBL16120682

> <PUBCHEM_XREF_EXT_ID>
SCHEMBL16120682

> <PUBCHEM_EXT_DATASOURCE_URL>
https://www.surechembl.org/

> <PUBCHEM_EXT_SUBSTANCE_URL>
https://www.surechembl.org/chemical/SCHEMBL16120682

> <PUBCHEM_CID_ASSOCIATIONS>
90456821  1

> <PUBCHEM_COORDINATE_TYPE>
1
3

> <PUBCHEM_BONDANNOTATIONS>
16  11  5
24  23  5
28  43  6
31  3  5

$$$$
