310943021
  -OEChem-07211613022D

 35 39  0     1  0  0  0  0  0999 V2000
   -1.6400   -2.1304    0.0000 S   0  0  0  0  0  0  0  0  0  0  0  0
    0.1379   -3.8624    0.0000 F   0  0  0  0  0  0  0  0  0  0  0  0
   -0.0460   -4.6748    0.0000 F   0  0  0  0  0  0  0  0  0  0  0  0
   -0.8277   -4.9200    0.0000 F   0  0  0  0  0  0  0  0  0  0  0  0
   -2.3144   -2.6056    0.0000 O   0  0  0  0  0  0  0  0  0  0  0  0
   -2.3911   -1.7779    0.0000 O   0  0  0  0  0  0  0  0  0  0  0  0
   -1.3181    0.2299    0.0000 O   0  0  0  0  0  0  0  0  0  0  0  0
    0.1839    4.7514    0.0000 O   0  0  0  0  0  0  0  0  0  0  0  0
   -1.0882   -2.7436    0.0000 N   0  0  3  0  0  0  0  0  0  0  0  0
    0.2146    2.5443    0.0000 N   0  0  0  0  0  0  0  0  0  0  0  0
    0.7051    1.8699    0.0000 N   0  0  0  0  0  0  0  0  0  0  0  0
    0.4598    0.4138    0.0000 N   0  0  0  0  0  0  0  0  0  0  0  0
   -2.0232    1.4714    0.0000 N   0  0  0  0  0  0  0  0  0  0  0  0
    2.3911    2.2684    0.0000 N   0  0  0  0  0  0  0  0  0  0  0  0
   -1.2109   -1.4101    0.0000 C   0  0  0  0  0  0  0  0  0  0  0  0
   -0.4138   -1.5787    0.0000 C   0  0  0  0  0  0  0  0  0  0  0  0
   -0.5824    1.4714    0.0000 C   0  0  0  0  0  0  0  0  0  0  0  0
   -0.5518    2.3144    0.0000 C   0  0  0  0  0  0  0  0  0  0  0  0
    0.1993    1.1955    0.0000 C   0  0  0  0  0  0  0  0  0  0  0  0
   -0.3372   -2.4217    0.0000 C   0  0  0  0  0  0  0  0  0  0  0  0
   -0.1073   -0.1839    0.0000 C   0  0  0  0  0  0  0  0  0  0  0  0
    0.1379   -0.9809    0.0000 C   0  0  0  0  0  0  0  0  0  0  0  0
    0.4905    3.3413    0.0000 C   0  0  3  0  0  0  0  0  0  0  0  0
   -1.4560   -0.6284    0.0000 C   0  0  0  0  0  0  0  0  0  0  0  0
   -1.3028    1.0729    0.0000 C   0  0  0  0  0  0  0  0  0  0  0  0
   -1.2568   -3.5559    0.0000 C   0  0  0  0  0  0  0  0  0  0  0  0
   -0.9043   -0.0153    0.0000 C   0  0  0  0  0  0  0  0  0  0  0  0
   -1.2874    2.7282    0.0000 C   0  0  0  0  0  0  0  0  0  0  0  0
    1.2874    3.4946    0.0000 C   0  0  3  0  0  0  0  0  0  0  0  0
   -0.6284   -4.1076    0.0000 C   0  0  0  0  0  0  0  0  0  0  0  0
   -1.9925    2.3144    0.0000 C   0  0  0  0  0  0  0  0  0  0  0  0
   -0.0767    3.9697    0.0000 C   0  0  0  0  0  0  0  0  0  0  0  0
    1.5481    4.3069    0.0000 C   0  0  0  0  0  0  0  0  0  0  0  0
    1.8239    2.8815    0.0000 C   0  0  0  0  0  0  0  0  0  0  0  0
    0.9809    4.9200    0.0000 C   0  0  0  0  0  0  0  0  0  0  0  0
  1  5  2  0  0  0  0
  1  6  2  0  0  0  0
  1  9  1  0  0  0  0
  1 15  1  0  0  0  0
  2 30  1  0  0  0  0
  3 30  1  0  0  0  0
  4 30  1  0  0  0  0
  7 25  2  0  0  0  0
  8 32  1  0  0  0  0
  8 35  1  0  0  0  0
  9 20  1  0  0  0  0
  9 26  1  0  0  0  0
 10 11  1  0  0  0  0
 10 18  1  0  0  0  0
 23 10  1  1  0  0  0
 11 19  2  0  0  0  0
 12 19  1  0  0  0  0
 12 21  1  0  0  0  0
 13 25  1  0  0  0  0
 13 31  1  0  0  0  0
 14 34  3  0  0  0  0
 15 16  2  0  0  0  0
 15 24  1  0  0  0  0
 16 20  1  0  0  0  0
 16 22  1  0  0  0  0
 17 18  2  0  0  0  0
 17 19  1  0  0  0  0
 17 25  1  0  0  0  0
 18 28  1  0  0  0  0
 21 22  2  0  0  0  0
 21 27  1  0  0  0  0
 23 29  1  0  0  0  0
 23 32  1  0  0  0  0
 24 27  2  0  0  0  0
 26 30  1  0  0  0  0
 28 31  2  0  0  0  0
 29 33  1  0  0  0  0
 29 34  1  6  0  0  0
 33 35  1  0  0  0  0
M  END
> <PUBCHEM_COMPOUND_ID_TYPE>
0

> <PUBCHEM_TOTAL_CHARGE>
0

> <PUBCHEM_SUBSTANCE_ID>
310943021

> <PUBCHEM_SUBSTANCE_VERSION>
1

> <PUBCHEM_EXT_DATASOURCE_NAME>
4488

> <PUBCHEM_EXT_DATASOURCE_REGID>
SCHEMBL16121080

> <PUBCHEM_SUBSTANCE_COMMENT>
InChI=1S/C21H19F3N6O4S/c22-21(23,24)11-29-9-13-7-14(1-2-17(13)35(29,32)33)27-19-18-15(3-5-26-20(18)31)30(28-19)16-10-34-6-4-12(16)8-25/h1-3,5,7,12,16H,4,6,9-11H2,(H,26,31)(H,27,28)/t12-,16+/m1/s1
InChIKey=TXNUHPWHEOYEHV-WBMJQRKESA-N

> <PUBCHEM_SUBSTANCE_SYNONYM>
SCHEMBL16121080

> <PUBCHEM_XREF_EXT_ID>
SCHEMBL16121080

> <PUBCHEM_EXT_DATASOURCE_URL>
https://www.surechembl.org/

> <PUBCHEM_EXT_SUBSTANCE_URL>
https://www.surechembl.org/chemical/SCHEMBL16121080

> <PUBCHEM_CID_ASSOCIATIONS>
117609467  1

> <PUBCHEM_COORDINATE_TYPE>
1
3

> <PUBCHEM_BONDANNOTATIONS>
23  10  5
29  34  6

$$$$
