310942606
  -OEChem-07211613022D

 30 33  0     0  0  0  0  0  0999 V2000
    1.4501   -0.3991    0.0000 N   0  0  0  0  0  0  0  0  0  0  0  0
   -2.8868    1.2505    0.0000 N   0  0  0  0  0  0  0  0  0  0  0  0
    0.0044   -0.3991    0.0000 N   0  0  0  0  0  0  0  0  0  0  0  0
    0.7317    0.8425    0.0000 N   0  0  0  0  0  0  0  0  0  0  0  0
    2.8956   -0.3991    0.0000 N   0  0  0  0  0  0  0  0  0  0  0  0
   -1.4411   -0.3991    0.0000 N   0  0  0  0  0  0  0  0  0  0  0  0
   -4.3324    2.0753    0.0000 N   0  0  0  0  0  0  0  0  0  0  0  0
    5.0596    1.6496    0.0000 N   0  0  0  0  0  0  0  0  0  0  0  0
    2.1684    0.0177    0.0000 C   0  0  0  0  0  0  0  0  0  0  0  0
    0.7228    0.0177    0.0000 C   0  0  0  0  0  0  0  0  0  0  0  0
    2.1862    0.8425    0.0000 C   0  0  0  0  0  0  0  0  0  0  0  0
   -2.1507    0.8425    0.0000 C   0  0  0  0  0  0  0  0  0  0  0  0
   -0.7228    0.0177    0.0000 C   0  0  0  0  0  0  0  0  0  0  0  0
    1.4501    1.2505    0.0000 C   0  0  0  0  0  0  0  0  0  0  0  0
   -2.1595    0.0177    0.0000 C   0  0  0  0  0  0  0  0  0  0  0  0
   -1.4411    1.2505    0.0000 C   0  0  0  0  0  0  0  0  0  0  0  0
   -0.7140    0.8425    0.0000 C   0  0  0  0  0  0  0  0  0  0  0  0
    2.8868   -1.2150    0.0000 C   0  0  0  0  0  0  0  0  0  0  0  0
   -3.5963    0.8425    0.0000 C   0  0  0  0  0  0  0  0  0  0  0  0
   -2.8868    2.0753    0.0000 C   0  0  0  0  0  0  0  0  0  0  0  0
    2.8956    1.2505    0.0000 C   0  0  0  0  0  0  0  0  0  0  0  0
   -4.3235    1.2593    0.0000 C   0  0  0  0  0  0  0  0  0  0  0  0
   -3.6140    2.4833    0.0000 C   0  0  0  0  0  0  0  0  0  0  0  0
    2.2305   -1.7028    0.0000 C   0  0  0  0  0  0  0  0  0  0  0  0
    3.5519   -1.6939    0.0000 C   0  0  0  0  0  0  0  0  0  0  0  0
    3.6317    0.8425    0.0000 C   0  0  0  0  0  0  0  0  0  0  0  0
    2.4699   -2.4833    0.0000 C   0  0  0  0  0  0  0  0  0  0  0  0
    3.3036   -2.4833    0.0000 C   0  0  0  0  0  0  0  0  0  0  0  0
   -5.0596    2.4833    0.0000 C   0  0  0  0  0  0  0  0  0  0  0  0
    4.3413    1.2505    0.0000 C   0  0  0  0  0  0  0  0  0  0  0  0
  1  9  2  0  0  0  0
  1 10  1  0  0  0  0
  2 12  1  0  0  0  0
  2 19  1  0  0  0  0
  2 20  1  0  0  0  0
  3 10  1  0  0  0  0
  3 13  1  0  0  0  0
  4 10  2  0  0  0  0
  4 14  1  0  0  0  0
  5  9  1  0  0  0  0
  5 18  1  0  0  0  0
  6 13  2  0  0  0  0
  6 15  1  0  0  0  0
  7 22  1  0  0  0  0
  7 23  1  0  0  0  0
  7 29  1  0  0  0  0
  8 30  3  0  0  0  0
  9 11  1  0  0  0  0
 11 14  2  0  0  0  0
 11 21  1  0  0  0  0
 12 15  2  0  0  0  0
 12 16  1  0  0  0  0
 13 17  1  0  0  0  0
 16 17  2  0  0  0  0
 18 24  1  0  0  0  0
 18 25  1  0  0  0  0
 19 22  1  0  0  0  0
 20 23  1  0  0  0  0
 21 26  2  0  0  0  0
 24 27  1  0  0  0  0
 25 28  1  0  0  0  0
 26 30  1  0  0  0  0
 27 28  1  0  0  0  0
M  END
> <PUBCHEM_COMPOUND_ID_TYPE>
0

> <PUBCHEM_TOTAL_CHARGE>
0

> <PUBCHEM_SUBSTANCE_ID>
310942606

> <PUBCHEM_SUBSTANCE_VERSION>
1

> <PUBCHEM_EXT_DATASOURCE_NAME>
4488

> <PUBCHEM_EXT_DATASOURCE_REGID>
SCHEMBL16120652

> <PUBCHEM_SUBSTANCE_COMMENT>
InChI=1S/C22H28N8/c1-29-11-13-30(14-12-29)19-8-9-20(24-16-19)27-22-25-15-17(5-4-10-23)21(28-22)26-18-6-2-3-7-18/h4-5,8-9,15-16,18H,2-3,6-7,11-14H2,1H3,(H2,24,25,26,27,28)/b5-4+
InChIKey=MGFZTVUYSBEHLJ-SNAWJCMRSA-N

> <PUBCHEM_SUBSTANCE_SYNONYM>
SCHEMBL16120652

> <PUBCHEM_XREF_EXT_ID>
SCHEMBL16120652

> <PUBCHEM_EXT_DATASOURCE_URL>
https://www.surechembl.org/

> <PUBCHEM_EXT_SUBSTANCE_URL>
https://www.surechembl.org/chemical/SCHEMBL16120652

> <PUBCHEM_CID_ASSOCIATIONS>
90466480  1

> <PUBCHEM_COORDINATE_TYPE>
1
3

$$$$
