310944711
  -OEChem-07211613022D

 17 19  0     0  0  0  0  0  0999 V2000
    0.9896   -1.4726    0.0000 N   0  0  0  0  0  0  0  0  0  0  0  0
    0.9660   -0.0825    0.0000 N   0  0  0  0  0  0  0  0  0  0  0  0
   -0.2356   -0.7893    0.0000 N   0  0  0  0  0  0  0  0  0  0  0  0
   -1.4608    1.2841    0.0000 N   0  0  0  0  0  0  0  0  0  0  0  0
    0.5655   -0.7657    0.0000 C   0  0  0  0  0  0  0  0  0  0  0  0
   -0.2592    0.6479    0.0000 C   0  0  0  0  0  0  0  0  0  0  0  0
   -0.6597    1.3076    0.0000 C   0  0  0  0  0  0  0  0  0  0  0  0
    0.5890    0.6008    0.0000 C   0  0  0  0  0  0  0  0  0  0  0  0
   -0.6361   -0.1060    0.0000 C   0  0  0  0  0  0  0  0  0  0  0  0
    0.6597   -2.1558    0.0000 C   0  0  0  0  0  0  0  0  0  0  0  0
    1.7906   -1.5432    0.0000 C   0  0  0  0  0  0  0  0  0  0  0  0
   -0.2592    2.0380    0.0000 C   0  0  0  0  0  0  0  0  0  0  0  0
    1.2959   -2.6976    0.0000 C   0  0  0  0  0  0  0  0  0  0  0  0
    1.9320   -2.3207    0.0000 C   0  0  0  0  0  0  0  0  0  0  0  0
   -1.9320    1.9909    0.0000 C   0  0  0  0  0  0  0  0  0  0  0  0
   -0.6361    2.6741    0.0000 C   0  0  0  0  0  0  0  0  0  0  0  0
   -1.4608    2.6976    0.0000 C   0  0  0  0  0  0  0  0  0  0  0  0
  1  5  1  0  0  0  0
  1 10  1  0  0  0  0
  1 11  1  0  0  0  0
  2  5  1  0  0  0  0
  2  8  2  0  0  0  0
  3  5  2  0  0  0  0
  3  9  1  0  0  0  0
  4  7  1  0  0  0  0
  4 15  2  0  0  0  0
  6  7  1  0  0  0  0
  6  8  1  0  0  0  0
  6  9  2  0  0  0  0
  7 12  2  0  0  0  0
 10 13  1  0  0  0  0
 11 14  1  0  0  0  0
 12 16  1  0  0  0  0
 13 14  1  0  0  0  0
 15 17  1  0  0  0  0
 16 17  2  0  0  0  0
M  END
> <PUBCHEM_COMPOUND_ID_TYPE>
0

> <PUBCHEM_TOTAL_CHARGE>
0

> <PUBCHEM_SUBSTANCE_ID>
310944711

> <PUBCHEM_SUBSTANCE_VERSION>
1

> <PUBCHEM_EXT_DATASOURCE_NAME>
4488

> <PUBCHEM_EXT_DATASOURCE_REGID>
SCHEMBL16122790

> <PUBCHEM_SUBSTANCE_COMMENT>
InChI=1S/C13H14N4/c1-2-6-14-12(5-1)11-9-15-13(16-10-11)17-7-3-4-8-17/h1-2,5-6,9-10H,3-4,7-8H2
InChIKey=DFCGBXJTCXOQCH-UHFFFAOYSA-N

> <PUBCHEM_SUBSTANCE_SYNONYM>
SCHEMBL16122790

> <PUBCHEM_XREF_EXT_ID>
SCHEMBL16122790

> <PUBCHEM_EXT_DATASOURCE_URL>
https://www.surechembl.org/

> <PUBCHEM_EXT_SUBSTANCE_URL>
https://www.surechembl.org/chemical/SCHEMBL16122790

> <PUBCHEM_CID_ASSOCIATIONS>
117610933  1

> <PUBCHEM_COORDINATE_TYPE>
1
3

$$$$
