310944529
  -OEChem-07211613022D

 22 23  0     0  0  0  0  0  0999 V2000
    1.7950    0.8538    0.0000 O   0  0  0  0  0  0  0  0  0  0  0  0
   -2.5179    1.6765    0.0000 O   0  0  0  0  0  0  0  0  0  0  0  0
    0.3740    0.8538    0.0000 N   0  0  0  0  0  0  0  0  0  0  0  0
   -1.0595    1.6765    0.0000 N   0  0  0  0  0  0  0  0  0  0  0  0
    1.9445   -0.8165    0.0000 N   0  0  0  0  0  0  0  0  0  0  0  0
    0.3116   -1.8012    0.0000 N   0  0  0  0  0  0  0  0  0  0  0  0
    0.3116   -3.1473    0.0000 N   0  0  0  0  0  0  0  0  0  0  0  0
    1.0720    0.4300    0.0000 C   0  0  0  0  0  0  0  0  0  0  0  0
    1.8074   -1.6516    0.0000 C   0  0  0  0  0  0  0  0  0  0  0  0
    1.0844   -2.0629    0.0000 C   0  0  0  0  0  0  0  0  0  0  0  0
    0.3740    1.6765    0.0000 C   0  0  0  0  0  0  0  0  0  0  0  0
   -0.3365    0.4425    0.0000 C   0  0  0  0  0  0  0  0  0  0  0  0
   -0.3490    2.1003    0.0000 C   0  0  0  0  0  0  0  0  0  0  0  0
   -1.0720    0.8538    0.0000 C   0  0  0  0  0  0  0  0  0  0  0  0
    1.0844   -2.8856    0.0000 C   0  0  0  0  0  0  0  0  0  0  0  0
    1.0844   -0.3927    0.0000 C   0  0  0  0  0  0  0  0  0  0  0  0
   -1.7950    2.1003    0.0000 C   0  0  0  0  0  0  0  0  0  0  0  0
    2.5304   -2.0629    0.0000 C   0  0  0  0  0  0  0  0  0  0  0  0
    1.8198   -3.2969    0.0000 C   0  0  0  0  0  0  0  0  0  0  0  0
    2.5304   -2.8856    0.0000 C   0  0  0  0  0  0  0  0  0  0  0  0
   -1.7950    2.9230    0.0000 C   0  0  0  0  0  0  0  0  0  0  0  0
   -2.5304    3.2969    0.0000 C   0  0  0  0  0  0  0  0  0  0  0  0
  1  8  2  0  0  0  0
  2 17  2  0  0  0  0
  3  8  1  0  0  0  0
  3 11  1  0  0  0  0
  3 12  1  0  0  0  0
  4 13  1  0  0  0  0
  4 14  1  0  0  0  0
  4 17  1  0  0  0  0
  5  9  1  0  0  0  0
  5 16  1  0  0  0  0
  6 10  1  0  0  0  0
  7 15  1  0  0  0  0
  8 16  1  0  0  0  0
  9 10  1  0  0  0  0
  9 18  2  0  0  0  0
 10 15  2  0  0  0  0
 11 13  1  0  0  0  0
 12 14  1  0  0  0  0
 15 19  1  0  0  0  0
 17 21  1  0  0  0  0
 18 20  1  0  0  0  0
 19 20  2  0  0  0  0
 21 22  2  0  0  0  0
M  END
> <PUBCHEM_COMPOUND_ID_TYPE>
0

> <PUBCHEM_TOTAL_CHARGE>
0

> <PUBCHEM_SUBSTANCE_ID>
310944529

> <PUBCHEM_SUBSTANCE_VERSION>
1

> <PUBCHEM_EXT_DATASOURCE_NAME>
4488

> <PUBCHEM_EXT_DATASOURCE_REGID>
SCHEMBL16122605

> <PUBCHEM_SUBSTANCE_COMMENT>
InChI=1S/C15H21N5O2/c1-2-13(21)19-6-8-20(9-7-19)14(22)10-18-12-5-3-4-11(16)15(12)17/h2-5,18H,1,6-10,16-17H2
InChIKey=VLZGRMKFXUMDFB-UHFFFAOYSA-N

> <PUBCHEM_SUBSTANCE_SYNONYM>
SCHEMBL16122605

> <PUBCHEM_XREF_EXT_ID>
SCHEMBL16122605

> <PUBCHEM_EXT_DATASOURCE_URL>
https://www.surechembl.org/

> <PUBCHEM_EXT_SUBSTANCE_URL>
https://www.surechembl.org/chemical/SCHEMBL16122605

> <PUBCHEM_CID_ASSOCIATIONS>
117610764  1

> <PUBCHEM_COORDINATE_TYPE>
1
3

$$$$
