310946122
  -OEChem-07211613022D

 44 49  0     0  0  0  0  0  0999 V2000
    3.7354    1.9141    0.0000 F   0  0  0  0  0  0  0  0  0  0  0  0
    3.7359    3.0808    0.0000 F   0  0  0  0  0  0  0  0  0  0  0  0
    2.5691    3.0813    0.0000 F   0  0  0  0  0  0  0  0  0  0  0  0
    1.6157   -0.4762    0.0000 F   0  0  0  0  0  0  0  0  0  0  0  0
    2.6262   -1.0594    0.0000 F   0  0  0  0  0  0  0  0  0  0  0  0
    3.2094   -0.0489    0.0000 F   0  0  0  0  0  0  0  0  0  0  0  0
   -1.7518   -1.1293    0.0000 N   0  0  0  0  0  0  0  0  0  0  0  0
   -3.2509   -0.9717    0.0000 N   0  0  0  0  0  0  0  0  0  0  0  0
   -0.3229   -1.1293    0.0000 N   0  0  0  0  0  0  0  0  0  0  0  0
   -3.7359   -0.3043    0.0000 N   0  0  0  0  0  0  0  0  0  0  0  0
   -0.3229    1.3457    0.0000 N   0  0  0  0  0  0  0  0  0  0  0  0
   -1.0374    2.5832    0.0000 N   0  0  0  0  0  0  0  0  0  0  0  0
   -1.7518    1.3457    0.0000 N   0  0  0  0  0  0  0  0  0  0  0  0
   -2.4663   -0.7168    0.0000 C   0  0  0  0  0  0  0  0  0  0  0  0
   -2.4663    0.1082    0.0000 C   0  0  0  0  0  0  0  0  0  0  0  0
   -1.0374   -0.7168    0.0000 C   0  0  0  0  0  0  0  0  0  0  0  0
   -1.0374    0.1082    0.0000 C   0  0  0  0  0  0  0  0  0  0  0  0
   -1.7518    0.5207    0.0000 C   0  0  0  0  0  0  0  0  0  0  0  0
   -3.2509    0.3632    0.0000 C   0  0  0  0  0  0  0  0  0  0  0  0
   -0.3229    0.5207    0.0000 C   0  0  0  0  0  0  0  0  0  0  0  0
    1.1885    1.5447    0.0000 C   0  0  0  0  0  0  0  0  0  0  0  0
    0.3916   -0.7168    0.0000 C   0  0  0  0  0  0  0  0  0  0  0  0
   -0.3229   -1.9543    0.0000 C   0  0  0  0  0  0  0  0  0  0  0  0
    2.5687    1.9145    0.0000 C   0  0  0  0  0  0  0  0  0  0  0  0
    2.1989    0.5343    0.0000 C   0  0  0  0  0  0  0  0  0  0  0  0
    0.3916    1.7582    0.0000 C   0  0  0  0  0  0  0  0  0  0  0  0
   -1.0374    1.7582    0.0000 C   0  0  0  0  0  0  0  0  0  0  0  0
    1.1060   -1.1293    0.0000 C   0  0  0  0  0  0  0  0  0  0  0  0
    0.3916   -2.3668    0.0000 C   0  0  0  0  0  0  0  0  0  0  0  0
    1.4020    0.7478    0.0000 C   0  0  0  0  0  0  0  0  0  0  0  0
    1.7718    2.1281    0.0000 C   0  0  0  0  0  0  0  0  0  0  0  0
    2.7817    1.1175    0.0000 C   0  0  0  0  0  0  0  0  0  0  0  0
    3.1523    2.4977    0.0000 C   0  0  0  0  0  0  0  0  0  0  0  0
    2.4125   -0.2626    0.0000 C   0  0  0  0  0  0  0  0  0  0  0  0
   -3.6634   -1.6862    0.0000 C   0  0  0  0  0  0  0  0  0  0  0  0
   -3.3371    1.0952    0.0000 C   0  0  0  0  0  0  0  0  0  0  0  0
    0.8041   -3.0813    0.0000 C   0  0  0  0  0  0  0  0  0  0  0  0
    1.2166   -2.3668    0.0000 C   0  0  0  0  0  0  0  0  0  0  0  0
    1.5185   -1.8438    0.0000 C   0  0  0  0  0  0  0  0  0  0  0  0
    1.9310   -1.1293    0.0000 C   0  0  0  0  0  0  0  0  0  0  0  0
   -1.7518    2.9957    0.0000 C   0  0  0  0  0  0  0  0  0  0  0  0
   -2.4663    1.7582    0.0000 C   0  0  0  0  0  0  0  0  0  0  0  0
   -2.4663    2.5832    0.0000 C   0  0  0  0  0  0  0  0  0  0  0  0
   -3.1808    2.9957    0.0000 C   0  0  0  0  0  0  0  0  0  0  0  0
  1 33  1  0  0  0  0
  2 33  1  0  0  0  0
  3 33  1  0  0  0  0
  4 34  1  0  0  0  0
  5 34  1  0  0  0  0
  6 34  1  0  0  0  0
  7 14  2  0  0  0  0
  7 16  1  0  0  0  0
  8 10  1  0  0  0  0
  8 14  1  0  0  0  0
  8 35  1  0  0  0  0
  9 16  1  0  0  0  0
  9 22  1  0  0  0  0
  9 23  1  0  0  0  0
 10 19  2  0  0  0  0
 11 20  1  0  0  0  0
 11 26  1  0  0  0  0
 11 27  1  0  0  0  0
 12 27  2  0  0  0  0
 12 41  1  0  0  0  0
 13 27  1  0  0  0  0
 13 42  2  0  0  0  0
 14 15  1  0  0  0  0
 15 18  2  0  0  0  0
 15 19  1  0  0  0  0
 16 17  2  0  0  0  0
 17 18  1  0  0  0  0
 17 20  1  0  0  0  0
 19 36  1  0  0  0  0
 21 26  1  0  0  0  0
 21 30  2  0  0  0  0
 21 31  1  0  0  0  0
 22 28  1  0  0  0  0
 23 29  1  0  0  0  0
 24 31  2  0  0  0  0
 24 32  1  0  0  0  0
 24 33  1  0  0  0  0
 25 30  1  0  0  0  0
 25 32  2  0  0  0  0
 25 34  1  0  0  0  0
 28 39  1  0  0  0  0
 28 40  1  0  0  0  0
 29 37  1  0  0  0  0
 29 38  1  0  0  0  0
 37 38  1  0  0  0  0
 39 40  1  0  0  0  0
 41 43  2  0  0  0  0
 42 43  1  0  0  0  0
 43 44  1  0  0  0  0
M  END
> <PUBCHEM_COMPOUND_ID_TYPE>
0

> <PUBCHEM_TOTAL_CHARGE>
0

> <PUBCHEM_SUBSTANCE_ID>
310946122

> <PUBCHEM_SUBSTANCE_VERSION>
1

> <PUBCHEM_EXT_DATASOURCE_NAME>
4488

> <PUBCHEM_EXT_DATASOURCE_REGID>
SCHEMBL16124231

> <PUBCHEM_SUBSTANCE_COMMENT>
InChI=1S/C31H33F6N7/c1-18-12-38-29(39-13-18)44(16-22-8-24(30(32,33)34)11-25(9-22)31(35,36)37)17-23-10-26-19(2)41-42(3)28(26)40-27(23)43(14-20-4-5-20)15-21-6-7-21/h8-13,20-21H,4-7,14-17H2,1-3H3
InChIKey=JIZBUKNKCWCURB-UHFFFAOYSA-N

> <PUBCHEM_SUBSTANCE_SYNONYM>
SCHEMBL16124231

> <PUBCHEM_XREF_EXT_ID>
SCHEMBL16124231

> <PUBCHEM_EXT_DATASOURCE_URL>
https://www.surechembl.org/

> <PUBCHEM_EXT_SUBSTANCE_URL>
https://www.surechembl.org/chemical/SCHEMBL16124231

> <PUBCHEM_CID_ASSOCIATIONS>
117612081  1

> <PUBCHEM_COORDINATE_TYPE>
1
3

$$$$
