310945239
  -OEChem-07211613022D

 17 17  0     0  0  0  0  0  0999 V2000
    1.4575    1.4759    0.0000 O   0  0  0  0  0  0  0  0  0  0  0  0
   -0.6875   -0.6142    0.0000 N   0  0  0  0  0  0  0  0  0  0  0  0
    0.7425    0.2109    0.0000 N   0  0  0  0  0  0  0  0  0  0  0  0
   -2.1175    0.2292    0.0000 N   0  0  0  0  0  0  0  0  0  0  0  0
    0.0275   -1.0176    0.0000 C   0  0  0  0  0  0  0  0  0  0  0  0
    0.7425   -0.5958    0.0000 C   0  0  0  0  0  0  0  0  0  0  0  0
   -1.4209   -1.0176    0.0000 C   0  0  0  0  0  0  0  0  0  0  0  0
   -0.6875    0.2292    0.0000 C   0  0  0  0  0  0  0  0  0  0  0  0
   -2.1175   -0.5958    0.0000 C   0  0  0  0  0  0  0  0  0  0  0  0
   -1.4209    0.6325    0.0000 C   0  0  0  0  0  0  0  0  0  0  0  0
    1.4575   -1.0176    0.0000 C   0  0  0  0  0  0  0  0  0  0  0  0
    1.4392    0.6325    0.0000 C   0  0  0  0  0  0  0  0  0  0  0  0
    0.1192   -1.4759    0.0000 C   0  0  0  0  0  0  0  0  0  0  0  0
   -2.8509    0.6325    0.0000 C   0  0  0  0  0  0  0  0  0  0  0  0
    2.1909    0.2292    0.0000 C   0  0  0  0  0  0  0  0  0  0  0  0
    1.4759   -1.4759    0.0000 C   0  0  0  0  0  0  0  0  0  0  0  0
    2.8509    0.7058    0.0000 C   0  0  0  0  0  0  0  0  0  0  0  0
  1 12  2  0  0  0  0
  2  5  1  0  0  0  0
  2  7  1  0  0  0  0
  2  8  1  0  0  0  0
  3  6  1  0  0  0  0
  3 12  1  0  0  0  0
  4  9  1  0  0  0  0
  4 10  1  0  0  0  0
  4 14  1  0  0  0  0
  5  6  1  0  0  0  0
  5 13  2  0  0  0  0
  6 11  2  0  0  0  0
  7  9  1  0  0  0  0
  8 10  1  0  0  0  0
 11 16  1  0  0  0  0
 12 15  1  0  0  0  0
 15 17  2  0  0  0  0
M  END
> <PUBCHEM_COMPOUND_ID_TYPE>
0

> <PUBCHEM_TOTAL_CHARGE>
0

> <PUBCHEM_SUBSTANCE_ID>
310945239

> <PUBCHEM_SUBSTANCE_VERSION>
1

> <PUBCHEM_EXT_DATASOURCE_NAME>
4488

> <PUBCHEM_EXT_DATASOURCE_REGID>
SCHEMBL16123333

> <PUBCHEM_SUBSTANCE_COMMENT>
InChI=1S/C13H21N3O/c1-5-12(14-13(17)6-2)11(3)16-9-7-15(4)8-10-16/h5-6H,2-3,7-10H2,1,4H3,(H,14,17)/b12-5+
InChIKey=NXLDKHWTTBPPQG-LFYBBSHMSA-N

> <PUBCHEM_SUBSTANCE_SYNONYM>
SCHEMBL16123333

> <PUBCHEM_XREF_EXT_ID>
SCHEMBL16123333

> <PUBCHEM_EXT_DATASOURCE_URL>
https://www.surechembl.org/

> <PUBCHEM_EXT_SUBSTANCE_URL>
https://www.surechembl.org/chemical/SCHEMBL16123333

> <PUBCHEM_CID_ASSOCIATIONS>
117611309  1

> <PUBCHEM_COORDINATE_TYPE>
1
3

$$$$
