310938649
  -OEChem-07211613022D

 29 32  0     0  0  0  0  0  0999 V2000
   -5.1430    3.3807    0.0000 Cl  0  0  0  0  0  0  0  0  0  0  0  0
   -1.5707    2.9682    0.0000 O   0  0  0  0  0  0  0  0  0  0  0  0
   -0.8562    1.7307    0.0000 O   0  0  0  0  0  0  0  0  0  0  0  0
   -5.1430    0.9057    0.0000 O   0  0  0  0  0  0  0  0  0  0  0  0
   -0.1417    5.4432    0.0000 N   0  0  0  0  0  0  0  0  0  0  0  0
   -0.8562    4.2057    0.0000 N   0  0  0  0  0  0  0  0  0  0  0  0
    0.5727    4.2057    0.0000 N   0  0  0  0  0  0  0  0  0  0  0  0
    0.5727    1.7307    0.0000 N   0  0  0  0  0  0  0  0  0  0  0  0
    0.5257    5.9281    0.0000 C   0  0  0  0  0  0  0  0  0  0  0  0
    1.1091    5.3447    0.0000 C   0  0  0  0  0  0  0  0  0  0  0  0
    1.3226    6.1416    0.0000 C   0  0  0  0  0  0  0  0  0  0  0  0
   -0.1417    4.6182    0.0000 C   0  0  0  0  0  0  0  0  0  0  0  0
    0.2708    6.7127    0.0000 C   0  0  0  0  0  0  0  0  0  0  0  0
   -0.8092    5.9281    0.0000 C   0  0  0  0  0  0  0  0  0  0  0  0
   -0.5542    6.7127    0.0000 C   0  0  0  0  0  0  0  0  0  0  0  0
   -0.8562    3.3807    0.0000 C   0  0  0  0  0  0  0  0  0  0  0  0
   -0.1417    2.9682    0.0000 C   0  0  0  0  0  0  0  0  0  0  0  0
    0.5727    3.3807    0.0000 C   0  0  0  0  0  0  0  0  0  0  0  0
   -0.1417    2.1432    0.0000 C   0  0  0  0  0  0  0  0  0  0  0  0
   -2.2851    3.3807    0.0000 C   0  0  0  0  0  0  0  0  0  0  0  0
   -2.9996    2.9682    0.0000 C   0  0  0  0  0  0  0  0  0  0  0  0
   -4.4286    2.9682    0.0000 C   0  0  0  0  0  0  0  0  0  0  0  0
   -3.7141    3.3807    0.0000 C   0  0  0  0  0  0  0  0  0  0  0  0
   -4.4286    2.1432    0.0000 C   0  0  0  0  0  0  0  0  0  0  0  0
   -2.9996    2.1432    0.0000 C   0  0  0  0  0  0  0  0  0  0  0  0
   -3.7141    1.7307    0.0000 C   0  0  0  0  0  0  0  0  0  0  0  0
    1.2872    2.1432    0.0000 C   0  0  0  0  0  0  0  0  0  0  0  0
   -5.1430    1.7307    0.0000 C   0  0  0  0  0  0  0  0  0  0  0  0
    2.0017    1.7307    0.0000 C   0  0  0  0  0  0  0  0  0  0  0  0
  1 22  1  0  0  0  0
  2 16  1  0  0  0  0
  2 20  1  0  0  0  0
  3 19  2  0  0  0  0
  4 28  1  0  0  0  0
  5  9  1  0  0  0  0
  5 12  1  0  0  0  0
  5 14  1  0  0  0  0
  6 12  1  0  0  0  0
  6 16  2  0  0  0  0
  7 12  2  0  0  0  0
  7 18  1  0  0  0  0
  8 19  1  0  0  0  0
  8 27  1  0  0  0  0
  9 10  1  0  0  0  0
  9 11  1  0  0  0  0
  9 13  1  0  0  0  0
 10 11  1  0  0  0  0
 13 15  1  0  0  0  0
 14 15  1  0  0  0  0
 16 17  1  0  0  0  0
 17 18  2  0  0  0  0
 17 19  1  0  0  0  0
 20 21  1  0  0  0  0
 21 23  2  0  0  0  0
 21 25  1  0  0  0  0
 22 23  1  0  0  0  0
 22 24  2  0  0  0  0
 24 26  1  0  0  0  0
 24 28  1  0  0  0  0
 25 26  2  0  0  0  0
 27 29  1  0  0  0  0
M  END
> <PUBCHEM_COMPOUND_ID_TYPE>
0

> <PUBCHEM_TOTAL_CHARGE>
0

> <PUBCHEM_SUBSTANCE_ID>
310938649

> <PUBCHEM_SUBSTANCE_VERSION>
1

> <PUBCHEM_EXT_DATASOURCE_NAME>
4488

> <PUBCHEM_EXT_DATASOURCE_REGID>
SCHEMBL16116563

> <PUBCHEM_SUBSTANCE_COMMENT>
InChI=1S/C21H25ClN4O3/c1-2-23-18(28)16-11-24-20(26-9-3-6-21(26)7-8-21)25-19(16)29-13-14-4-5-15(12-27)17(22)10-14/h4-5,10-11,27H,2-3,6-9,12-13H2,1H3,(H,23,28)
InChIKey=IOSZMSROTAKQAV-UHFFFAOYSA-N

> <PUBCHEM_SUBSTANCE_SYNONYM>
SCHEMBL16116563

> <PUBCHEM_XREF_EXT_ID>
SCHEMBL16116563

> <PUBCHEM_EXT_DATASOURCE_URL>
https://www.surechembl.org/

> <PUBCHEM_EXT_SUBSTANCE_URL>
https://www.surechembl.org/chemical/SCHEMBL16116563

> <PUBCHEM_CID_ASSOCIATIONS>
117606081  1

> <PUBCHEM_COORDINATE_TYPE>
1
3

$$$$
