310942802
  -OEChem-07211613022D

 10 11  0     0  0  0  0  0  0999 V2000
   -0.3177   -0.3929    0.0000 N   0  0  0  0  0  0  0  0  0  0  0  0
   -0.9614    0.1171    0.0000 N   0  0  0  0  0  0  0  0  0  0  0  0
    1.1035   -0.3093    0.0000 N   0  0  0  0  0  0  0  0  0  0  0  0
    0.3595    0.0669    0.0000 C   0  0  0  0  0  0  0  0  0  0  0  0
   -0.6772    0.8778    0.0000 C   0  0  0  0  0  0  0  0  0  0  0  0
    0.1505    0.8360    0.0000 C   0  0  0  0  0  0  0  0  0  0  0  0
   -0.2759   -1.2039    0.0000 C   0  0  0  0  0  0  0  0  0  0  0  0
    0.4765   -1.5633    0.0000 C   0  0  0  0  0  0  0  0  0  0  0  0
    1.1453   -1.1202    0.0000 C   0  0  0  0  0  0  0  0  0  0  0  0
   -1.1453    1.5633    0.0000 C   0  0  0  0  0  0  0  0  0  0  0  0
  1  2  1  0  0  0  0
  1  4  1  0  0  0  0
  1  7  1  0  0  0  0
  2  5  2  0  0  0  0
  3  4  1  0  0  0  0
  3  9  1  0  0  0  0
  4  6  2  0  0  0  0
  5  6  1  0  0  0  0
  5 10  1  0  0  0  0
  7  8  1  0  0  0  0
  8  9  1  0  0  0  0
M  END
> <PUBCHEM_COMPOUND_ID_TYPE>
0

> <PUBCHEM_TOTAL_CHARGE>
0

> <PUBCHEM_SUBSTANCE_ID>
310942802

> <PUBCHEM_SUBSTANCE_VERSION>
1

> <PUBCHEM_EXT_DATASOURCE_NAME>
4488

> <PUBCHEM_EXT_DATASOURCE_REGID>
SCHEMBL16120856

> <PUBCHEM_SUBSTANCE_COMMENT>
InChI=1S/C7H11N3/c1-6-5-7-8-3-2-4-10(7)9-6/h5,8H,2-4H2,1H3
InChIKey=YPLDOUXBCHDJMW-UHFFFAOYSA-N

> <PUBCHEM_SUBSTANCE_SYNONYM>
SCHEMBL16120856

> <PUBCHEM_XREF_EXT_ID>
SCHEMBL16120856

> <PUBCHEM_EXT_DATASOURCE_URL>
https://www.surechembl.org/

> <PUBCHEM_EXT_SUBSTANCE_URL>
https://www.surechembl.org/chemical/SCHEMBL16120856

> <PUBCHEM_CID_ASSOCIATIONS>
53213071  1

> <PUBCHEM_COORDINATE_TYPE>
1
3

$$$$
