310942862
  -OEChem-07211613022D

 33 37  0     0  0  0  0  0  0999 V2000
    6.3102   -0.5180    0.0000 F   0  0  0  0  0  0  0  0  0  0  0  0
    4.0514    1.3263    0.0000 O   0  0  0  0  0  0  0  0  0  0  0  0
   -5.6056   -1.3263    0.0000 O   0  0  0  0  0  0  0  0  0  0  0  0
   -2.7458   -1.3263    0.0000 O   0  0  0  0  0  0  0  0  0  0  0  0
   -5.6056    1.1605    0.0000 O   0  0  0  0  0  0  0  0  0  0  0  0
    3.2432    1.1605    0.0000 N   0  0  0  0  0  0  0  0  0  0  0  0
    1.0258   -0.9118    0.0000 N   0  0  0  0  0  0  0  0  0  0  0  0
    3.9063    0.0000    0.0000 C   0  0  0  0  0  0  0  0  0  0  0  0
    3.1603    0.3316    0.0000 C   0  0  0  0  0  0  0  0  0  0  0  0
    4.4451    0.6217    0.0000 C   0  0  0  0  0  0  0  0  0  0  0  0
    2.4557   -0.0829    0.0000 C   0  0  0  0  0  0  0  0  0  0  0  0
   -4.8803   -0.0829    0.0000 C   0  0  0  0  0  0  0  0  0  0  0  0
   -4.8803   -0.9118    0.0000 C   0  0  0  0  0  0  0  0  0  0  0  0
    4.1757   -0.7668    0.0000 C   0  0  0  0  0  0  0  0  0  0  0  0
    5.2740    0.4145    0.0000 C   0  0  0  0  0  0  0  0  0  0  0  0
   -3.4711   -0.8911    0.0000 C   0  0  0  0  0  0  0  0  0  0  0  0
   -3.4504   -0.0829    0.0000 C   0  0  0  0  0  0  0  0  0  0  0  0
   -5.6056    0.3109    0.0000 C   0  0  0  0  0  0  0  0  0  0  0  0
    5.5020   -0.3523    0.0000 C   0  0  0  0  0  0  0  0  0  0  0  0
   -4.1964    0.3109    0.0000 C   0  0  0  0  0  0  0  0  0  0  0  0
   -4.1964   -1.3056    0.0000 C   0  0  0  0  0  0  0  0  0  0  0  0
    4.9840   -0.9532    0.0000 C   0  0  0  0  0  0  0  0  0  0  0  0
    2.4349   -0.9118    0.0000 C   0  0  0  0  0  0  0  0  0  0  0  0
    1.7097    0.3316    0.0000 C   0  0  0  0  0  0  0  0  0  0  0  0
   -6.2894   -0.0622    0.0000 C   0  0  0  0  0  0  0  0  0  0  0  0
    1.7097   -1.3056    0.0000 C   0  0  0  0  0  0  0  0  0  0  0  0
    1.0258   -0.0829    0.0000 C   0  0  0  0  0  0  0  0  0  0  0  0
   -6.3102   -0.9118    0.0000 C   0  0  0  0  0  0  0  0  0  0  0  0
   -2.6837    0.3937    0.0000 C   0  0  0  0  0  0  0  0  0  0  0  0
    0.2798   -1.3056    0.0000 C   0  0  0  0  0  0  0  0  0  0  0  0
   -1.8547   -0.9118    0.0000 C   0  0  0  0  0  0  0  0  0  0  0  0
   -0.4249   -0.9118    0.0000 C   0  0  0  0  0  0  0  0  0  0  0  0
   -1.0880   -1.3056    0.0000 C   0  0  0  0  0  0  0  0  0  0  0  0
  1 19  1  0  0  0  0
  2  6  1  0  0  0  0
  2 10  1  0  0  0  0
  3 13  1  0  0  0  0
  3 28  1  0  0  0  0
  4 16  1  0  0  0  0
  4 31  1  0  0  0  0
  5 18  2  0  0  0  0
  6  9  2  0  0  0  0
  7 26  1  0  0  0  0
  7 27  1  0  0  0  0
  7 30  1  0  0  0  0
  8  9  1  0  0  0  0
  8 10  2  0  0  0  0
  8 14  1  0  0  0  0
  9 11  1  0  0  0  0
 10 15  1  0  0  0  0
 11 23  1  0  0  0  0
 11 24  1  0  0  0  0
 12 13  1  0  0  0  0
 12 18  1  0  0  0  0
 12 20  2  0  0  0  0
 13 21  2  0  0  0  0
 14 22  2  0  0  0  0
 15 19  2  0  0  0  0
 16 17  2  0  0  0  0
 16 21  1  0  0  0  0
 17 20  1  0  0  0  0
 17 29  1  0  0  0  0
 18 25  1  0  0  0  0
 19 22  1  0  0  0  0
 23 26  1  0  0  0  0
 24 27  1  0  0  0  0
 25 28  1  0  0  0  0
 30 32  1  0  0  0  0
 31 33  1  0  0  0  0
 32 33  1  0  0  0  0
M  END
> <PUBCHEM_COMPOUND_ID_TYPE>
0

> <PUBCHEM_TOTAL_CHARGE>
0

> <PUBCHEM_SUBSTANCE_ID>
310942862

> <PUBCHEM_SUBSTANCE_VERSION>
1

> <PUBCHEM_EXT_DATASOURCE_NAME>
4488

> <PUBCHEM_EXT_DATASOURCE_REGID>
SCHEMBL16120920

> <PUBCHEM_SUBSTANCE_COMMENT>
InChI=1S/C26H29FN2O4/c1-17-14-21-22(30)8-13-32-24(21)16-23(17)31-12-3-2-9-29-10-6-18(7-11-29)26-20-5-4-19(27)15-25(20)33-28-26/h4-5,14-16,18H,2-3,6-13H2,1H3
InChIKey=BYFNDDYWJOESKW-UHFFFAOYSA-N

> <PUBCHEM_SUBSTANCE_SYNONYM>
SCHEMBL16120920

> <PUBCHEM_XREF_EXT_ID>
SCHEMBL16120920

> <PUBCHEM_EXT_DATASOURCE_URL>
https://www.surechembl.org/

> <PUBCHEM_EXT_SUBSTANCE_URL>
https://www.surechembl.org/chemical/SCHEMBL16120920

> <PUBCHEM_CID_ASSOCIATIONS>
86272091  1

> <PUBCHEM_COORDINATE_TYPE>
1
3

$$$$
