310945294
  -OEChem-07211613022D

 17 17  0     0  0  0  0  0  0999 V2000
   -0.0879   -0.0741    0.0000 S   0  0  0  0  0  0  0  0  0  0  0  0
    3.3410   -1.2758    0.0000 O   0  0  0  0  0  0  0  0  0  0  0  0
    2.8247   -2.1250    0.0000 O   0  0  0  0  0  0  0  0  0  0  0  0
   -0.0721    1.2865    0.0000 N   0  0  0  0  0  0  0  0  0  0  0  0
    1.2410    0.6062    0.0000 N   0  0  0  0  0  0  0  0  0  0  0  0
   -2.5400    1.0967    0.0000 N   0  0  0  0  0  0  0  0  0  0  0  0
   -3.2045    1.6029    0.0000 N   0  3  0  0  0  0  0  0  0  0  0  0
   -3.8689    2.1250    0.0000 N   0  5  0  0  0  0  0  0  0  0  0  0
    0.4025    0.6062    0.0000 C   0  0  0  0  0  0  0  0  0  0  0  0
   -0.8631    1.0334    0.0000 C   0  0  0  0  0  0  0  0  0  0  0  0
    2.8247   -1.5741    0.0000 C   0  0  0  0  0  0  0  0  0  0  0  0
   -0.8631    0.1949    0.0000 C   0  0  0  0  0  0  0  0  0  0  0  0
    3.3525   -0.7020    0.0000 C   0  0  0  0  0  0  0  0  0  0  0  0
   -1.5592    1.5080    0.0000 C   0  0  0  0  0  0  0  0  0  0  0  0
    3.8689   -0.6791    0.0000 C   0  0  0  0  0  0  0  0  0  0  0  0
    2.8247   -0.7020    0.0000 C   0  0  0  0  0  0  0  0  0  0  0  0
    3.3410   -0.1397    0.0000 C   0  0  0  0  0  0  0  0  0  0  0  0
  1  9  1  0  0  0  0
  1 12  1  0  0  0  0
  2 11  1  0  0  0  0
  2 13  1  0  0  0  0
  3 11  2  0  0  0  0
  4  9  2  0  0  0  0
  4 10  1  0  0  0  0
  5  9  1  0  0  0  0
  5 11  1  0  0  0  0
  6  7  2  0  0  0  0
  6 14  1  0  0  0  0
  7  8  2  0  0  0  0
 10 12  2  0  0  0  0
 10 14  1  0  0  0  0
 13 15  1  0  0  0  0
 13 16  1  0  0  0  0
 13 17  1  0  0  0  0
M  CHG  2   7   1   8  -1
M  END
> <PUBCHEM_COMPOUND_ID_TYPE>
0

> <PUBCHEM_TOTAL_CHARGE>
0

> <PUBCHEM_SUBSTANCE_ID>
310945294

> <PUBCHEM_SUBSTANCE_VERSION>
1

> <PUBCHEM_EXT_DATASOURCE_NAME>
4488

> <PUBCHEM_EXT_DATASOURCE_REGID>
SCHEMBL16123392

> <PUBCHEM_SUBSTANCE_COMMENT>
InChI=1S/C9H13N5O2S/c1-9(2,3)16-8(15)13-7-12-6(5-17-7)4-11-14-10/h5H,4H2,1-3H3,(H,12,13,15)
InChIKey=HSZJCSYOJOUPRO-UHFFFAOYSA-N

> <PUBCHEM_SUBSTANCE_SYNONYM>
SCHEMBL16123392

> <PUBCHEM_XREF_EXT_ID>
SCHEMBL16123392

> <PUBCHEM_EXT_DATASOURCE_URL>
https://www.surechembl.org/

> <PUBCHEM_EXT_SUBSTANCE_URL>
https://www.surechembl.org/chemical/SCHEMBL16123392

> <PUBCHEM_CID_ASSOCIATIONS>
117611353  1

> <PUBCHEM_COORDINATE_TYPE>
1
3

$$$$
