310932336
  -OEChem-07211613022D

 39 44  0     1  0  0  0  0  0999 V2000
    4.5377   -2.0282    0.0000 S   0  0  0  0  0  0  0  0  0  0  0  0
    1.2375   -4.9158    0.0000 F   0  0  0  0  0  0  0  0  0  0  0  0
    1.5813    0.0000    0.0000 F   0  0  0  0  0  0  0  0  0  0  0  0
    2.9220   -4.9502    0.0000 O   0  0  0  0  0  0  0  0  0  0  0  0
    6.1878   -3.4721    0.0000 O   0  0  0  0  0  0  0  0  0  0  0  0
    9.9004   -4.1939    0.0000 O   0  0  0  0  0  0  0  0  0  0  0  0
    4.5377   -3.4721    0.0000 N   0  0  0  0  0  0  0  0  0  0  0  0
    1.2719   -3.5408    0.0000 N   0  0  0  0  0  0  0  0  0  0  0  0
    6.1878   -4.9158    0.0000 N   0  0  0  0  0  0  0  0  0  0  0  0
    5.7752   -2.7845    0.0000 N   0  0  0  0  0  0  0  0  0  0  0  0
    0.0000   -1.4438    0.0000 N   0  0  0  0  0  0  0  0  0  0  0  0
    7.8378   -4.9158    0.0000 N   0  0  0  0  0  0  0  0  0  0  0  0
    8.6285   -3.5064    0.0000 N   0  0  0  0  0  0  0  0  0  0  0  0
    3.7127   -3.5064    0.0000 C   0  0  3  0  0  0  0  0  0  0  0  0
    2.8877   -3.5064    0.0000 C   0  0  0  0  0  0  0  0  0  0  0  0
    4.1596   -4.2283    0.0000 C   0  0  0  0  0  0  0  0  0  0  0  0
    2.4751   -4.2283    0.0000 C   0  0  0  0  0  0  0  0  0  0  0  0
    3.7471   -4.9158    0.0000 C   0  0  0  0  0  0  0  0  0  0  0  0
    3.3345   -2.7845    0.0000 C   0  0  0  0  0  0  0  0  0  0  0  0
    2.4751   -2.7845    0.0000 C   0  0  0  0  0  0  0  0  0  0  0  0
    1.6501   -4.2283    0.0000 C   0  0  0  0  0  0  0  0  0  0  0  0
    4.9846   -4.1939    0.0000 C   0  0  0  0  0  0  0  0  0  0  0  0
    1.6845   -2.8189    0.0000 C   0  0  0  0  0  0  0  0  0  0  0  0
    4.1596   -5.6377    0.0000 C   0  0  0  0  0  0  0  0  0  0  0  0
    4.9502   -2.7845    0.0000 C   0  0  0  0  0  0  0  0  0  0  0  0
    5.3627   -4.9158    0.0000 C   0  0  0  0  0  0  0  0  0  0  0  0
    3.7127   -2.0626    0.0000 C   0  0  0  0  0  0  0  0  0  0  0  0
    1.2375   -2.1313    0.0000 C   0  0  0  0  0  0  0  0  0  0  0  0
    4.9502   -5.6034    0.0000 C   0  0  0  0  0  0  0  0  0  0  0  0
    1.6157   -1.3751    0.0000 C   0  0  0  0  0  0  0  0  0  0  0  0
    0.4125   -2.1313    0.0000 C   0  0  0  0  0  0  0  0  0  0  0  0
    6.6003   -4.1939    0.0000 C   0  0  0  0  0  0  0  0  0  0  0  0
    1.2032   -0.7219    0.0000 C   0  0  0  0  0  0  0  0  0  0  0  0
    7.4253   -4.1939    0.0000 C   0  0  0  0  0  0  0  0  0  0  0  0
    0.3437   -0.7219    0.0000 C   0  0  0  0  0  0  0  0  0  0  0  0
    7.8378   -3.5064    0.0000 C   0  0  0  0  0  0  0  0  0  0  0  0
    9.0754   -4.1939    0.0000 C   0  0  0  0  0  0  0  0  0  0  0  0
    8.6285   -4.9158    0.0000 C   0  0  0  0  0  0  0  0  0  0  0  0
   10.3130   -3.4721    0.0000 C   0  0  0  0  0  0  0  0  0  0  0  0
  1 25  1  0  0  0  0
  1 27  1  0  0  0  0
  2 21  1  0  0  0  0
  3 33  1  0  0  0  0
  4 17  1  0  0  0  0
  4 18  1  0  0  0  0
  5 32  2  0  0  0  0
  6 37  1  0  0  0  0
  6 39  1  0  0  0  0
 14  7  1  1  0  0  0
  7 25  2  0  0  0  0
  8 21  1  0  0  0  0
  8 23  2  0  0  0  0
  9 26  1  0  0  0  0
  9 32  1  0  0  0  0
 10 25  1  0  0  0  0
 11 31  1  0  0  0  0
 11 35  2  0  0  0  0
 12 34  2  0  0  0  0
 12 38  1  0  0  0  0
 13 36  2  0  0  0  0
 13 37  1  0  0  0  0
 14 15  1  0  0  0  0
 14 16  1  0  0  0  0
 14 19  1  0  0  0  0
 15 17  1  0  0  0  0
 15 20  2  0  0  0  0
 16 18  2  0  0  0  0
 16 22  1  0  0  0  0
 17 21  2  0  0  0  0
 18 24  1  0  0  0  0
 19 27  1  0  0  0  0
 20 23  1  0  0  0  0
 22 26  2  0  0  0  0
 23 28  1  0  0  0  0
 24 29  2  0  0  0  0
 26 29  1  0  0  0  0
 28 30  1  0  0  0  0
 28 31  2  0  0  0  0
 30 33  2  0  0  0  0
 32 34  1  0  0  0  0
 33 35  1  0  0  0  0
 34 36  1  0  0  0  0
 37 38  2  0  0  0  0
M  END
> <PUBCHEM_COMPOUND_ID_TYPE>
0

> <PUBCHEM_TOTAL_CHARGE>
0

> <PUBCHEM_SUBSTANCE_ID>
310932336

> <PUBCHEM_SUBSTANCE_VERSION>
1

> <PUBCHEM_EXT_DATASOURCE_NAME>
4488

> <PUBCHEM_EXT_DATASOURCE_REGID>
SCHEMBL16109702

> <PUBCHEM_SUBSTANCE_COMMENT>
InChI=1S/C26H19F2N7O3S/c1-37-21-12-31-19(11-32-21)24(36)33-15-2-3-20-16(7-15)26(4-5-39-25(29)35-26)17-8-18(34-23(28)22(17)38-20)13-6-14(27)10-30-9-13/h2-3,6-12H,4-5H2,1H3,(H2,29,35)(H,33,36)/t26-/m0/s1
InChIKey=PEZGSBQHDVWHLU-SANMLTNESA-N

> <PUBCHEM_SUBSTANCE_SYNONYM>
SCHEMBL16109702

> <PUBCHEM_XREF_EXT_ID>
SCHEMBL16109702

> <PUBCHEM_EXT_DATASOURCE_URL>
https://www.surechembl.org/

> <PUBCHEM_EXT_SUBSTANCE_URL>
https://www.surechembl.org/chemical/SCHEMBL16109702

> <PUBCHEM_CID_ASSOCIATIONS>
71542324  1

> <PUBCHEM_COORDINATE_TYPE>
1
3

> <PUBCHEM_BONDANNOTATIONS>
14  7  5

$$$$
