310943765
  -OEChem-07211613022D

 37 39  0     0  0  0  0  0  0999 V2000
    3.2242   -1.4496    0.0000 F   0  0  0  0  0  0  0  0  0  0  0  0
    4.6467   -1.4496    0.0000 F   0  0  0  0  0  0  0  0  0  0  0  0
    3.7254   -1.8424    0.0000 F   0  0  0  0  0  0  0  0  0  0  0  0
   -1.7882   -1.0296    0.0000 O   0  0  0  0  0  0  0  0  0  0  0  0
    2.5062    2.2758    0.0000 O   0  0  0  0  0  0  0  0  0  0  0  0
   -4.6467    2.2758    0.0000 O   0  0  0  0  0  0  0  0  0  0  0  0
   -3.2242   -2.6824    0.0000 O   0  0  0  0  0  0  0  0  0  0  0  0
   -3.2107    1.4360    0.0000 N   0  0  0  0  0  0  0  0  0  0  0  0
   -2.5062    0.2032    0.0000 N   0  0  0  0  0  0  0  0  0  0  0  0
    1.8018    1.0296    0.0000 N   0  0  0  0  0  0  0  0  0  0  0  0
   -1.0702    1.0432    0.0000 C   0  0  0  0  0  0  0  0  0  0  0  0
   -2.5062    1.0432    0.0000 C   0  0  0  0  0  0  0  0  0  0  0  0
   -0.3658    1.4496    0.0000 C   0  0  0  0  0  0  0  0  0  0  0  0
   -1.7882    1.4496    0.0000 C   0  0  0  0  0  0  0  0  0  0  0  0
   -1.7882   -0.2032    0.0000 C   0  0  0  0  0  0  0  0  0  0  0  0
   -1.0838    0.2032    0.0000 C   0  0  0  0  0  0  0  0  0  0  0  0
    3.9421   -0.2032    0.0000 C   0  0  0  0  0  0  0  0  0  0  0  0
    3.2242    1.0432    0.0000 C   0  0  0  0  0  0  0  0  0  0  0  0
    0.3793    1.0432    0.0000 C   0  0  0  0  0  0  0  0  0  0  0  0
   -0.3522    2.2758    0.0000 C   0  0  0  0  0  0  0  0  0  0  0  0
    3.9286   -1.0432    0.0000 C   0  0  0  0  0  0  0  0  0  0  0  0
    1.0702    1.4496    0.0000 C   0  0  0  0  0  0  0  0  0  0  0  0
    2.5062    1.4224    0.0000 C   0  0  0  0  0  0  0  0  0  0  0  0
    3.2242    0.2032    0.0000 C   0  0  0  0  0  0  0  0  0  0  0  0
    4.6467    0.2167    0.0000 C   0  0  0  0  0  0  0  0  0  0  0  0
   -3.2107    2.2623    0.0000 C   0  0  0  0  0  0  0  0  0  0  0  0
   -3.9150    1.0432    0.0000 C   0  0  0  0  0  0  0  0  0  0  0  0
    3.9421    1.4360    0.0000 C   0  0  0  0  0  0  0  0  0  0  0  0
    4.6467    1.0296    0.0000 C   0  0  0  0  0  0  0  0  0  0  0  0
    1.0838    2.2623    0.0000 C   0  0  0  0  0  0  0  0  0  0  0  0
   -3.9421    2.6824    0.0000 C   0  0  0  0  0  0  0  0  0  0  0  0
   -4.6467    1.4360    0.0000 C   0  0  0  0  0  0  0  0  0  0  0  0
    0.1355    2.4927    0.0000 C   0  0  0  0  0  0  0  0  0  0  0  0
   -1.0838    2.6688    0.0000 C   0  0  0  0  0  0  0  0  0  0  0  0
   -2.5062   -1.4496    0.0000 C   0  0  0  0  0  0  0  0  0  0  0  0
    0.6096    2.5198    0.0000 C   0  0  0  0  0  0  0  0  0  0  0  0
   -2.5198   -2.2894    0.0000 C   0  0  0  0  0  0  0  0  0  0  0  0
  1 21  1  0  0  0  0
  2 21  1  0  0  0  0
  3 21  1  0  0  0  0
  4 15  1  0  0  0  0
  4 35  1  0  0  0  0
  5 23  2  0  0  0  0
  6 31  1  0  0  0  0
  6 32  1  0  0  0  0
  7 37  1  0  0  0  0
  8 12  1  0  0  0  0
  8 26  1  0  0  0  0
  8 27  1  0  0  0  0
  9 12  2  0  0  0  0
  9 15  1  0  0  0  0
 10 22  1  0  0  0  0
 10 23  1  0  0  0  0
 11 13  1  0  0  0  0
 11 14  2  0  0  0  0
 11 16  1  0  0  0  0
 12 14  1  0  0  0  0
 13 19  2  0  0  0  0
 13 20  1  0  0  0  0
 15 16  2  0  0  0  0
 17 21  1  0  0  0  0
 17 24  1  0  0  0  0
 17 25  2  0  0  0  0
 18 23  1  0  0  0  0
 18 24  2  0  0  0  0
 18 28  1  0  0  0  0
 19 22  1  0  0  0  0
 20 33  2  0  0  0  0
 20 34  1  0  0  0  0
 22 30  2  0  0  0  0
 25 29  1  0  0  0  0
 26 31  1  0  0  0  0
 27 32  1  0  0  0  0
 28 29  2  0  0  0  0
 30 36  1  0  0  0  0
 35 37  1  0  0  0  0
M  END
> <PUBCHEM_COMPOUND_ID_TYPE>
0

> <PUBCHEM_TOTAL_CHARGE>
0

> <PUBCHEM_SUBSTANCE_ID>
310943765

> <PUBCHEM_SUBSTANCE_VERSION>
1

> <PUBCHEM_EXT_DATASOURCE_NAME>
4488

> <PUBCHEM_EXT_DATASOURCE_REGID>
SCHEMBL16121834

> <PUBCHEM_SUBSTANCE_COMMENT>
InChI=1S/C27H30F3N3O4/c1-4-22(31-26(35)19-6-5-7-21(14-19)27(28,29)30)17-23(18(2)3)20-15-24(33-8-11-36-12-9-33)32-25(16-20)37-13-10-34/h4-7,14-17,34H,2,8-13H2,1,3H3,(H,31,35)/b22-4+,23-17+
InChIKey=IPRKWXUYZCDJNN-VGTJAZHUSA-N

> <PUBCHEM_SUBSTANCE_SYNONYM>
SCHEMBL16121834

> <PUBCHEM_XREF_EXT_ID>
SCHEMBL16121834

> <PUBCHEM_EXT_DATASOURCE_URL>
https://www.surechembl.org/

> <PUBCHEM_EXT_SUBSTANCE_URL>
https://www.surechembl.org/chemical/SCHEMBL16121834

> <PUBCHEM_CID_ASSOCIATIONS>
117610127  1

> <PUBCHEM_COORDINATE_TYPE>
1
3

$$$$
