310942294
  -OEChem-07211613022D

 72 77  0     1  0  0  0  0  0999 V2000
   -0.9370   -1.7810    0.0000 S   0  0  0  0  0  0  0  0  0  0  0  0
   -1.1604   -2.5753    0.0000 S   0  0  0  0  0  0  0  0  0  0  0  0
    5.6657    1.3094    0.0000 O   0  0  0  0  0  0  0  0  0  0  0  0
    4.3625    0.6516    0.0000 O   0  0  0  0  0  0  0  0  0  0  0  0
    2.6746    0.0807    0.0000 O   0  0  0  0  0  0  0  0  0  0  0  0
    0.9743    0.5648    0.0000 O   0  0  0  0  0  0  0  0  0  0  0  0
    4.3625    3.9654    0.0000 O   0  0  0  0  0  0  0  0  0  0  0  0
    3.3447    3.8537    0.0000 O   0  0  0  0  0  0  0  0  0  0  0  0
    1.6942    3.8537    0.0000 O   0  0  0  0  0  0  0  0  0  0  0  0
   -0.6765    2.0044    0.0000 O   0  0  0  0  0  0  0  0  0  0  0  0
    5.0824   -0.5896    0.0000 O   0  0  0  0  0  0  0  0  0  0  0  0
    1.2348    0.0807    0.0000 O   0  0  0  0  0  0  0  0  0  0  0  0
   -1.0487    3.3820    0.0000 O   0  0  0  0  0  0  0  0  0  0  0  0
   -2.2774    1.5700    0.0000 O   0  0  0  0  0  0  0  0  0  0  0  0
   -1.9051    0.1924    0.0000 O   0  0  0  0  0  0  0  0  0  0  0  0
   -0.8874    1.1976    0.0000 O   0  0  0  0  0  0  0  0  0  0  0  0
   -4.4618    1.7314    0.0000 O   0  0  0  0  0  0  0  0  0  0  0  0
   -3.0718    1.3590    0.0000 O   0  0  0  0  0  0  0  0  0  0  0  0
   -3.4316    2.7491    0.0000 N   0  0  0  0  0  0  0  0  0  0  0  0
   -0.0558   -4.5487    0.0000 N   0  0  0  0  0  0  0  0  0  0  0  0
    3.6675    1.8927    0.0000 C   0  0  3  0  0  0  0  0  0  0  0  0
    4.3873    1.4955    0.0000 C   0  0  3  0  0  0  0  0  0  0  0  0
    3.6675    2.7367    0.0000 C   0  0  3  0  0  0  0  0  0  0  0  0
    1.4086    1.2969    0.0000 C   0  0  3  0  0  0  0  0  0  0  0  0
    2.6871    0.9122    0.0000 C   0  0  3  0  0  0  0  0  0  0  0  0
    1.8182    2.0044    0.0000 C   0  0  0  0  0  0  0  0  0  0  0  0
    5.0824    1.9051    0.0000 C   0  0  3  0  0  0  0  0  0  0  0  0
    2.9476    3.1338    0.0000 C   0  0  0  0  0  0  0  0  0  0  0  0
    1.4086    2.7243    0.0000 C   0  0  0  0  0  0  0  0  0  0  0  0
    4.3748    3.1338    0.0000 C   0  0  3  0  0  0  0  0  0  0  0  0
    2.1160    3.1338    0.0000 C   0  0  3  0  0  0  0  0  0  0  0  0
    4.9706    0.8998    0.0000 C   0  0  0  0  0  0  0  0  0  0  0  0
    5.0948    2.7243    0.0000 C   0  0  0  0  0  0  0  0  0  0  0  0
    0.5772    1.2969    0.0000 C   0  0  0  0  0  0  0  0  0  0  0  0
    0.5648    2.7367    0.0000 C   0  0  0  0  0  0  0  0  0  0  0  0
    0.1800    1.9920    0.0000 C   0  0  3  0  0  0  0  0  0  0  0  0
    3.6675    3.5434    0.0000 C   0  0  0  0  0  0  0  0  0  0  0  0
    2.5381    2.4263    0.0000 C   0  0  0  0  0  0  0  0  0  0  0  0
    2.5257    1.5949    0.0000 C   0  0  0  0  0  0  0  0  0  0  0  0
    5.0948    0.2544    0.0000 C   0  0  0  0  0  0  0  0  0  0  0  0
    1.9796   -0.3289    0.0000 C   0  0  0  0  0  0  0  0  0  0  0  0
    0.1675    3.4316    0.0000 C   0  0  0  0  0  0  0  0  0  0  0  0
    1.9671   -1.1604    0.0000 C   0  0  0  0  0  0  0  0  0  0  0  0
   -1.2597    2.5753    0.0000 C   0  0  0  0  0  0  0  0  0  0  0  0
    5.0824    4.3748    0.0000 C   0  0  0  0  0  0  0  0  0  0  0  0
    2.1037    4.5487    0.0000 C   0  0  0  0  0  0  0  0  0  0  0  0
    5.8146    0.6516    0.0000 C   0  0  0  0  0  0  0  0  0  0  0  0
   -2.0416    2.3767    0.0000 C   0  0  3  0  0  0  0  0  0  0  0  0
    1.2597   -1.5700    0.0000 C   0  0  0  0  0  0  0  0  0  0  0  0
    2.6871   -1.5700    0.0000 C   0  0  0  0  0  0  0  0  0  0  0  0
   -2.6374    2.9600    0.0000 C   0  0  3  0  0  0  0  0  0  0  0  0
    1.2597   -2.3891    0.0000 C   0  0  0  0  0  0  0  0  0  0  0  0
    2.6871   -2.3891    0.0000 C   0  0  0  0  0  0  0  0  0  0  0  0
   -2.4263    3.7668    0.0000 C   0  0  0  0  0  0  0  0  0  0  0  0
    1.9796   -2.7987    0.0000 C   0  0  0  0  0  0  0  0  0  0  0  0
   -1.6817    0.9866    0.0000 C   0  0  0  0  0  0  0  0  0  0  0  0
   -2.9972    4.3501    0.0000 C   0  0  0  0  0  0  0  0  0  0  0  0
   -1.6197    3.9777    0.0000 C   0  0  0  0  0  0  0  0  0  0  0  0
   -3.6551    1.9548    0.0000 C   0  0  0  0  0  0  0  0  0  0  0  0
   -2.7863    5.1320    0.0000 C   0  0  0  0  0  0  0  0  0  0  0  0
   -1.4086    4.7721    0.0000 C   0  0  0  0  0  0  0  0  0  0  0  0
   -1.9796    5.3430    0.0000 C   0  0  0  0  0  0  0  0  0  0  0  0
   -1.3094   -0.3909    0.0000 C   0  0  0  0  0  0  0  0  0  0  0  0
   -5.0327    2.3146    0.0000 C   0  0  0  0  0  0  0  0  0  0  0  0
   -1.5204   -1.1976    0.0000 C   0  0  0  0  0  0  0  0  0  0  0  0
   -5.6036    2.8980    0.0000 C   0  0  0  0  0  0  0  0  0  0  0  0
   -5.8146    2.0913    0.0000 C   0  0  0  0  0  0  0  0  0  0  0  0
   -4.8217    3.1090    0.0000 C   0  0  0  0  0  0  0  0  0  0  0  0
   -0.5648   -3.1586    0.0000 C   0  0  0  0  0  0  0  0  0  0  0  0
   -0.7757   -3.9654    0.0000 C   0  0  0  0  0  0  0  0  0  0  0  0
   -0.3413   -5.1444    0.0000 C   0  0  0  0  0  0  0  0  0  0  0  0
   -1.1480   -5.3430    0.0000 C   0  0  0  0  0  0  0  0  0  0  0  0
  1  2  1  0  0  0  0
  1 65  1  0  0  0  0
  2 69  1  0  0  0  0
  3 27  1  0  0  0  0
  3 32  1  0  0  0  0
 22  4  1  6  0  0  0
  4 40  1  0  0  0  0
 25  5  1  6  0  0  0
  5 41  1  0  0  0  0
 24  6  1  1  0  0  0
 30  7  1  1  0  0  0
  7 45  1  0  0  0  0
  8 28  2  0  0  0  0
 31  9  1  1  0  0  0
  9 46  1  0  0  0  0
 36 10  1  6  0  0  0
 10 44  1  0  0  0  0
 11 40  2  0  0  0  0
 12 41  2  0  0  0  0
 13 44  2  0  0  0  0
 48 14  1  6  0  0  0
 14 56  1  0  0  0  0
 15 56  1  0  0  0  0
 15 63  1  0  0  0  0
 16 56  2  0  0  0  0
 17 59  1  0  0  0  0
 17 64  1  0  0  0  0
 18 59  2  0  0  0  0
 51 19  1  1  0  0  0
 19 59  1  0  0  0  0
 20 70  1  0  0  0  0
 20 71  1  0  0  0  0
 21 22  1  0  0  0  0
 21 23  1  1  0  0  0
 21 25  1  0  0  0  0
 22 27  1  0  0  0  0
 22 32  1  0  0  0  0
 23 28  1  0  0  0  0
 23 30  1  0  0  0  0
 23 37  1  1  0  0  0
 24 25  1  0  0  0  0
 24 26  1  0  0  0  0
 24 34  1  0  0  0  0
 26 29  1  0  0  0  0
 26 38  1  0  0  0  0
 26 39  1  0  0  0  0
 27 33  1  1  0  0  0
 28 31  1  0  0  0  0
 29 31  1  0  0  0  0
 29 35  2  0  0  0  0
 30 33  1  0  0  0  0
 34 36  1  0  0  0  0
 35 36  1  0  0  0  0
 35 42  1  0  0  0  0
 40 47  1  0  0  0  0
 41 43  1  0  0  0  0
 43 49  2  0  0  0  0
 43 50  1  0  0  0  0
 44 48  1  0  0  0  0
 48 51  1  0  0  0  0
 49 52  1  0  0  0  0
 50 53  2  0  0  0  0
 51 54  1  0  0  0  0
 52 55  2  0  0  0  0
 53 55  1  0  0  0  0
 54 57  2  0  0  0  0
 54 58  1  0  0  0  0
 57 60  1  0  0  0  0
 58 61  2  0  0  0  0
 60 62  2  0  0  0  0
 61 62  1  0  0  0  0
 63 65  1  0  0  0  0
 64 66  1  0  0  0  0
 64 67  1  0  0  0  0
 64 68  1  0  0  0  0
 69 70  1  0  0  0  0
 71 72  1  0  0  0  0
M  END
> <PUBCHEM_COMPOUND_ID_TYPE>
0

> <PUBCHEM_TOTAL_CHARGE>
0

> <PUBCHEM_SUBSTANCE_ID>
310942294

> <PUBCHEM_SUBSTANCE_VERSION>
1

> <PUBCHEM_EXT_DATASOURCE_NAME>
4488

> <PUBCHEM_EXT_DATASOURCE_REGID>
SCHEMBL16120330

> <PUBCHEM_SUBSTANCE_COMMENT>
InChI=1S/C52H70N2O16S2/c1-12-53-23-25-71-72-26-24-64-47(60)67-40(38(32-19-15-13-16-20-32)54-46(59)70-48(4,5)6)45(58)66-34-28-52(61)43(68-44(57)33-21-17-14-18-22-33)41-50(9,42(56)39(63-11)37(30(34)2)49(52,7)8)35(62-10)27-36-51(41,29-65-36)69-31(3)55/h13-22,34-36,38-41,43,53,61H,12,23-29H2,1-11H3,(H,54,59)/t34-,35-,36+,38-,39+,40+,41-,43-,50+,51-,52+/m0/s1
InChIKey=BBJXPDREEBICLS-XPYIIJPASA-N

> <PUBCHEM_SUBSTANCE_SYNONYM>
SCHEMBL16120330

> <PUBCHEM_XREF_EXT_ID>
SCHEMBL16120330

> <PUBCHEM_EXT_DATASOURCE_URL>
https://www.surechembl.org/

> <PUBCHEM_EXT_SUBSTANCE_URL>
https://www.surechembl.org/chemical/SCHEMBL16120330

> <PUBCHEM_CID_ASSOCIATIONS>
117608942  1

> <PUBCHEM_COORDINATE_TYPE>
1
3

> <PUBCHEM_BONDANNOTATIONS>
36  10  6
48  14  6
51  19  5
21  23  5
23  37  5
27  33  5
22  4  6
25  5  6
24  6  5
30  7  5
72  71  3
31  9  5

$$$$
