310947052
  -OEChem-07211613022D

 38 42  0     0  0  0  0  0  0999 V2000
   -2.4762    2.0625    0.0000 O   0  0  0  0  0  0  0  0  0  0  0  0
    0.3817    2.0625    0.0000 O   0  0  0  0  0  0  0  0  0  0  0  0
   -4.6196   -0.8250    0.0000 O   0  0  0  0  0  0  0  0  0  0  0  0
   -1.0473   -0.4125    0.0000 N   0  0  0  0  0  0  0  0  0  0  0  0
    0.3817   -0.4125    0.0000 N   0  0  0  0  0  0  0  0  0  0  0  0
    1.8106   -0.4125    0.0000 N   0  0  0  0  0  0  0  0  0  0  0  0
    1.8106   -2.0625    0.0000 N   0  0  0  0  0  0  0  0  0  0  0  0
    4.5091    0.0000    0.0000 N   0  0  0  0  0  0  0  0  0  0  0  0
    4.0242    0.6674    0.0000 N   0  0  0  0  0  0  0  0  0  0  0  0
   -3.9052    1.2375    0.0000 N   0  0  0  0  0  0  0  0  0  0  0  0
    1.0961   -0.8250    0.0000 C   0  0  0  0  0  0  0  0  0  0  0  0
   -0.3328   -0.8250    0.0000 C   0  0  0  0  0  0  0  0  0  0  0  0
    1.0961   -1.6500    0.0000 C   0  0  0  0  0  0  0  0  0  0  0  0
   -1.0473    0.4125    0.0000 C   0  0  0  0  0  0  0  0  0  0  0  0
    2.5251   -0.8250    0.0000 C   0  0  0  0  0  0  0  0  0  0  0  0
   -0.3328   -1.6500    0.0000 C   0  0  0  0  0  0  0  0  0  0  0  0
    3.2396   -0.4125    0.0000 C   0  0  0  0  0  0  0  0  0  0  0  0
    0.3817   -2.0625    0.0000 C   0  0  0  0  0  0  0  0  0  0  0  0
    2.5251   -1.6500    0.0000 C   0  0  0  0  0  0  0  0  0  0  0  0
   -0.3328    0.8250    0.0000 C   0  0  0  0  0  0  0  0  0  0  0  0
   -1.7617    0.8250    0.0000 C   0  0  0  0  0  0  0  0  0  0  0  0
   -1.7617   -0.8250    0.0000 C   0  0  0  0  0  0  0  0  0  0  0  0
   -1.7617    1.6500    0.0000 C   0  0  0  0  0  0  0  0  0  0  0  0
   -0.3328    1.6500    0.0000 C   0  0  0  0  0  0  0  0  0  0  0  0
    4.0242   -0.6674    0.0000 C   0  0  0  0  0  0  0  0  0  0  0  0
    3.2396    0.4125    0.0000 C   0  0  0  0  0  0  0  0  0  0  0  0
   -1.0473    2.0625    0.0000 C   0  0  0  0  0  0  0  0  0  0  0  0
   -2.4762   -0.4125    0.0000 C   0  0  0  0  0  0  0  0  0  0  0  0
   -3.9052    0.4125    0.0000 C   0  0  0  0  0  0  0  0  0  0  0  0
   -3.1907    0.0000    0.0000 C   0  0  0  0  0  0  0  0  0  0  0  0
   -4.6196    0.0000    0.0000 C   0  0  0  0  0  0  0  0  0  0  0  0
    5.3341    0.0000    0.0000 C   0  0  0  0  0  0  0  0  0  0  0  0
   -5.3341    0.4125    0.0000 C   0  0  0  0  0  0  0  0  0  0  0  0
   -3.1907    1.6500    0.0000 C   0  0  0  0  0  0  0  0  0  0  0  0
    1.0961    1.6500    0.0000 C   0  0  0  0  0  0  0  0  0  0  0  0
   -4.6196    1.6500    0.0000 C   0  0  0  0  0  0  0  0  0  0  0  0
   -5.3341    1.2375    0.0000 C   0  0  0  0  0  0  0  0  0  0  0  0
   -3.9052   -1.2375    0.0000 C   0  0  0  0  0  0  0  0  0  0  0  0
  1 23  1  0  0  0  0
  1 34  1  0  0  0  0
  2 24  1  0  0  0  0
  2 35  1  0  0  0  0
  3 31  1  0  0  0  0
  3 38  1  0  0  0  0
  4 12  1  0  0  0  0
  4 14  1  0  0  0  0
  4 22  1  0  0  0  0
  5 11  2  0  0  0  0
  5 12  1  0  0  0  0
  6 11  1  0  0  0  0
  6 15  2  0  0  0  0
  7 13  1  0  0  0  0
  7 19  2  0  0  0  0
  8  9  1  0  0  0  0
  8 25  1  0  0  0  0
  8 32  1  0  0  0  0
  9 26  2  0  0  0  0
 10 29  1  0  0  0  0
 10 36  2  0  0  0  0
 11 13  1  0  0  0  0
 12 16  2  0  0  0  0
 13 18  2  0  0  0  0
 14 20  2  0  0  0  0
 14 21  1  0  0  0  0
 15 17  1  0  0  0  0
 15 19  1  0  0  0  0
 16 18  1  0  0  0  0
 17 25  2  0  0  0  0
 17 26  1  0  0  0  0
 20 24  1  0  0  0  0
 21 23  2  0  0  0  0
 22 28  1  0  0  0  0
 23 27  1  0  0  0  0
 24 27  2  0  0  0  0
 28 30  3  0  0  0  0
 29 30  1  0  0  0  0
 29 31  2  0  0  0  0
 31 33  1  0  0  0  0
 33 37  2  0  0  0  0
 36 37  1  0  0  0  0
M  END
> <PUBCHEM_COMPOUND_ID_TYPE>
0

> <PUBCHEM_TOTAL_CHARGE>
0

> <PUBCHEM_SUBSTANCE_ID>
310947052

> <PUBCHEM_SUBSTANCE_VERSION>
1

> <PUBCHEM_EXT_DATASOURCE_NAME>
4488

> <PUBCHEM_EXT_DATASOURCE_REGID>
SCHEMBL16125205

> <PUBCHEM_SUBSTANCE_COMMENT>
InChI=1S/C28H25N7O3/c1-34-18-19(16-31-34)25-17-30-24-9-10-27(33-28(24)32-25)35(20-13-21(36-2)15-22(14-20)37-3)12-6-7-23-26(38-4)8-5-11-29-23/h5,8-11,13-18H,12H2,1-4H3
InChIKey=BFWKQTWZJDQMPT-UHFFFAOYSA-N

> <PUBCHEM_SUBSTANCE_SYNONYM>
SCHEMBL16125205

> <PUBCHEM_XREF_EXT_ID>
SCHEMBL16125205

> <PUBCHEM_EXT_DATASOURCE_URL>
https://www.surechembl.org/

> <PUBCHEM_EXT_SUBSTANCE_URL>
https://www.surechembl.org/chemical/SCHEMBL16125205

> <PUBCHEM_CID_ASSOCIATIONS>
117612903  1

> <PUBCHEM_COORDINATE_TYPE>
1
3

$$$$
