310942378
  -OEChem-07211613022D

 31 33  0     1  0  0  0  0  0999 V2000
   -2.7476   -0.4124    0.0000 P   0  0  3  0  0  0  0  0  0  0  0  0
    0.0424   -0.6551    0.0000 O   0  0  0  0  0  0  0  0  0  0  0  0
    0.6854   -2.7537    0.0000 O   0  0  0  0  0  0  0  0  0  0  0  0
   -0.6005   -2.7537    0.0000 O   0  0  0  0  0  0  0  0  0  0  0  0
   -1.9105   -0.4124    0.0000 O   0  0  0  0  0  0  0  0  0  0  0  0
   -2.7476    0.4246    0.0000 O   0  0  0  0  0  0  0  0  0  0  0  0
    1.0251   -0.0485    0.0000 N   0  0  0  0  0  0  0  0  0  0  0  0
    1.0251    1.3101    0.0000 N   0  0  0  0  0  0  0  0  0  0  0  0
    2.5656   -0.2062    0.0000 N   0  0  0  0  0  0  0  0  0  0  0  0
    3.2935    1.0554    0.0000 N   0  0  0  0  0  0  0  0  0  0  0  0
    2.5656    2.3048    0.0000 N   0  0  0  0  0  0  0  0  0  0  0  0
    0.6854   -1.1039    0.0000 C   0  0  3  0  0  0  0  0  0  0  0  0
    1.8136    0.2426    0.0000 C   0  0  0  0  0  0  0  0  0  0  0  0
    0.4549   -1.9166    0.0000 C   0  0  3  0  0  0  0  0  0  0  0  0
    1.8257    1.0675    0.0000 C   0  0  0  0  0  0  0  0  0  0  0  0
   -0.6248   -1.1403    0.0000 C   0  0  3  0  0  0  0  0  0  0  0  0
   -0.3821   -1.9166    0.0000 C   0  0  3  0  0  0  0  0  0  0  0  0
    0.5277    0.6429    0.0000 C   0  0  0  0  0  0  0  0  0  0  0  0
    2.5535    1.4920    0.0000 C   0  0  0  0  0  0  0  0  0  0  0  0
   -1.0614   -0.4003    0.0000 C   0  0  0  0  0  0  0  0  0  0  0  0
   -1.4981   -0.4003    0.0000 C   0  0  3  0  0  0  0  0  0  0  0  0
    3.2814    0.2305    0.0000 C   0  0  0  0  0  0  0  0  0  0  0  0
   -1.5345   -0.9219    0.0000 C   0  0  0  0  0  0  0  0  0  0  0  0
   -1.8257    0.8491    0.0000 C   0  0  0  0  0  0  0  0  0  0  0  0
   -3.2935   -0.4003    0.0000 C   0  0  0  0  0  0  0  0  0  0  0  0
    1.8014    2.7537    0.0000 C   0  0  0  0  0  0  0  0  0  0  0  0
   -1.8378   -1.7104    0.0000 C   0  0  0  0  0  0  0  0  0  0  0  0
   -3.1964   -1.1281    0.0000 C   0  0  0  0  0  0  0  0  0  0  0  0
   -3.2328    0.1213    0.0000 C   0  0  0  0  0  0  0  0  0  0  0  0
   -2.9295   -1.7468    0.0000 C   0  0  0  0  0  0  0  0  0  0  0  0
   -2.9417    0.8734    0.0000 C   0  0  0  0  0  0  0  0  0  0  0  0
  1  5  1  0  0  0  0
  1  6  2  0  0  0  0
  1 25  1  0  0  0  0
  2 12  1  0  0  0  0
  2 16  1  0  0  0  0
 14  3  1  6  0  0  0
 17  4  1  6  0  0  0
 21  5  1  6  0  0  0
  7 12  1  0  0  0  0
  7 13  1  0  0  0  0
  7 18  1  0  0  0  0
  8 15  1  0  0  0  0
  8 18  2  0  0  0  0
  9 13  1  0  0  0  0
  9 22  2  0  0  0  0
 10 19  2  0  0  0  0
 10 22  1  0  0  0  0
 11 19  1  0  0  0  0
 11 26  1  0  0  0  0
 12 14  1  0  0  0  0
 13 15  2  0  0  0  0
 14 17  1  0  0  0  0
 15 19  1  0  0  0  0
 16 17  1  0  0  0  0
 16 20  1  1  0  0  0
 20 21  1  0  0  0  0
 21 23  1  0  0  0  0
 21 24  1  1  0  0  0
 23 27  1  0  0  0  0
 25 28  1  0  0  0  0
 25 29  1  0  0  0  0
 28 30  1  0  0  0  0
 29 31  1  0  0  0  0
M  END
> <PUBCHEM_COMPOUND_ID_TYPE>
0

> <PUBCHEM_TOTAL_CHARGE>
0

> <PUBCHEM_SUBSTANCE_ID>
310942378

> <PUBCHEM_SUBSTANCE_VERSION>
1

> <PUBCHEM_EXT_DATASOURCE_NAME>
4488

> <PUBCHEM_EXT_DATASOURCE_REGID>
SCHEMBL16120414

> <PUBCHEM_SUBSTANCE_COMMENT>
InChI=1S/C20H34N5O5P/c1-6-12(7-2)31(28)30-20(4,8-3)9-13-15(26)16(27)19(29-13)25-11-24-14-17(21-5)22-10-23-18(14)25/h10-13,15-16,19,26-27,31H,6-9H2,1-5H3,(H,21,22,23)/t13-,15-,16-,19?,20+/m1/s1
InChIKey=JCLKVGZCPLUKBU-GDBPGGMRSA-N

> <PUBCHEM_SUBSTANCE_SYNONYM>
SCHEMBL16120414

> <PUBCHEM_XREF_EXT_ID>
SCHEMBL16120414

> <PUBCHEM_EXT_DATASOURCE_URL>
https://www.surechembl.org/

> <PUBCHEM_EXT_SUBSTANCE_URL>
https://www.surechembl.org/chemical/SCHEMBL16120414

> <PUBCHEM_CID_ASSOCIATIONS>
117608993  1

> <PUBCHEM_COORDINATE_TYPE>
1
3

> <PUBCHEM_BONDANNOTATIONS>
16  20  5
21  24  5
14  3  6
17  4  6
21  5  6

$$$$
