310943468
  -OEChem-07211613022D

 30 33  0     0  0  0  0  0  0999 V2000
   -1.7686   -1.8787    0.0000 O   0  0  0  0  0  0  0  0  0  0  0  0
   -4.6455    1.4542    0.0000 O   0  0  0  0  0  0  0  0  0  0  0  0
    2.5232    1.4542    0.0000 O   0  0  0  0  0  0  0  0  0  0  0  0
   -2.4918   -0.6210    0.0000 N   0  0  0  0  0  0  0  0  0  0  0  0
   -3.1992    0.6210    0.0000 N   0  0  0  0  0  0  0  0  0  0  0  0
    1.8001    0.2122    0.0000 N   0  0  0  0  0  0  0  0  0  0  0  0
   -1.0455    0.2122    0.0000 C   0  0  0  0  0  0  0  0  0  0  0  0
   -2.4918    0.2122    0.0000 C   0  0  0  0  0  0  0  0  0  0  0  0
   -0.3537    0.6210    0.0000 C   0  0  0  0  0  0  0  0  0  0  0  0
   -1.7686    0.6210    0.0000 C   0  0  0  0  0  0  0  0  0  0  0  0
   -1.7686   -1.0140    0.0000 C   0  0  0  0  0  0  0  0  0  0  0  0
   -1.0612   -0.6210    0.0000 C   0  0  0  0  0  0  0  0  0  0  0  0
   -0.3380    1.4699    0.0000 C   0  0  0  0  0  0  0  0  0  0  0  0
    0.3695    0.2122    0.0000 C   0  0  0  0  0  0  0  0  0  0  0  0
    1.0769    0.6367    0.0000 C   0  0  0  0  0  0  0  0  0  0  0  0
    0.3695    1.8629    0.0000 C   0  0  0  0  0  0  0  0  0  0  0  0
    1.0769    1.4542    0.0000 C   0  0  0  0  0  0  0  0  0  0  0  0
   -3.2149    1.4542    0.0000 C   0  0  0  0  0  0  0  0  0  0  0  0
   -3.9066    0.2122    0.0000 C   0  0  0  0  0  0  0  0  0  0  0  0
   -3.1992   -1.0612    0.0000 C   0  0  0  0  0  0  0  0  0  0  0  0
    2.5075    0.6052    0.0000 C   0  0  0  0  0  0  0  0  0  0  0  0
   -1.0769    1.8629    0.0000 C   0  0  0  0  0  0  0  0  0  0  0  0
    3.2306    0.2122    0.0000 C   0  0  0  0  0  0  0  0  0  0  0  0
   -3.9224    1.8787    0.0000 C   0  0  0  0  0  0  0  0  0  0  0  0
   -4.6298    0.6210    0.0000 C   0  0  0  0  0  0  0  0  0  0  0  0
    3.2464   -0.6210    0.0000 C   0  0  0  0  0  0  0  0  0  0  0  0
    3.9381    0.6052    0.0000 C   0  0  0  0  0  0  0  0  0  0  0  0
    3.9538   -1.0297    0.0000 C   0  0  0  0  0  0  0  0  0  0  0  0
    4.6455    0.2122    0.0000 C   0  0  0  0  0  0  0  0  0  0  0  0
    4.6455   -0.6210    0.0000 C   0  0  0  0  0  0  0  0  0  0  0  0
  1 11  2  0  0  0  0
  2 24  1  0  0  0  0
  2 25  1  0  0  0  0
  3 21  2  0  0  0  0
  4  8  1  0  0  0  0
  4 11  1  0  0  0  0
  4 20  1  0  0  0  0
  5  8  1  0  0  0  0
  5 18  1  0  0  0  0
  5 19  1  0  0  0  0
  6 15  1  0  0  0  0
  6 21  1  0  0  0  0
  7  9  1  0  0  0  0
  7 10  1  0  0  0  0
  7 12  2  0  0  0  0
  8 10  2  0  0  0  0
  9 13  2  0  0  0  0
  9 14  1  0  0  0  0
 11 12  1  0  0  0  0
 13 16  1  0  0  0  0
 13 22  1  0  0  0  0
 14 15  2  0  0  0  0
 15 17  1  0  0  0  0
 16 17  2  0  0  0  0
 18 24  1  0  0  0  0
 19 25  1  0  0  0  0
 21 23  1  0  0  0  0
 23 26  2  0  0  0  0
 23 27  1  0  0  0  0
 26 28  1  0  0  0  0
 27 29  2  0  0  0  0
 28 30  2  0  0  0  0
 29 30  1  0  0  0  0
M  END
> <PUBCHEM_COMPOUND_ID_TYPE>
0

> <PUBCHEM_TOTAL_CHARGE>
0

> <PUBCHEM_SUBSTANCE_ID>
310943468

> <PUBCHEM_SUBSTANCE_VERSION>
1

> <PUBCHEM_EXT_DATASOURCE_NAME>
4488

> <PUBCHEM_EXT_DATASOURCE_REGID>
SCHEMBL16121533

> <PUBCHEM_SUBSTANCE_COMMENT>
InChI=1S/C24H25N3O3/c1-17-8-9-20(25-24(29)18-6-4-3-5-7-18)16-21(17)19-14-22(26(2)23(28)15-19)27-10-12-30-13-11-27/h3-9,14-16H,10-13H2,1-2H3,(H,25,29)
InChIKey=IGGYTHFMLBLDCT-UHFFFAOYSA-N

> <PUBCHEM_SUBSTANCE_SYNONYM>
SCHEMBL16121533

> <PUBCHEM_XREF_EXT_ID>
SCHEMBL16121533

> <PUBCHEM_EXT_DATASOURCE_URL>
https://www.surechembl.org/

> <PUBCHEM_EXT_SUBSTANCE_URL>
https://www.surechembl.org/chemical/SCHEMBL16121533

> <PUBCHEM_CID_ASSOCIATIONS>
117609891  1

> <PUBCHEM_COORDINATE_TYPE>
1
3

$$$$
