310942222
  -OEChem-07211613022D

 30 31  0     1  0  0  0  0  0999 V2000
    1.7661    0.4635    0.0000 Cl  0  0  0  0  0  0  0  0  0  0  0  0
    0.3256   -2.0292    0.0000 F   0  0  0  0  0  0  0  0  0  0  0  0
    1.7536   -1.2024    0.0000 O   0  0  0  0  0  0  0  0  0  0  0  0
   -0.4133    1.7160    0.0000 O   0  0  0  0  0  0  0  0  0  0  0  0
   -1.8412   -0.7766    0.0000 N   0  0  0  0  0  0  0  0  0  0  0  0
   -1.8538    1.7286    0.0000 N   0  0  0  0  0  0  0  0  0  0  0  0
   -3.9331    2.4425    0.0000 N   0  0  0  0  0  0  0  0  0  0  0  0
   -0.4133   -0.7766    0.0000 C   0  0  0  0  0  0  0  0  0  0  0  0
    0.3256   -1.1899    0.0000 C   0  0  0  0  0  0  0  0  0  0  0  0
    1.0396   -0.7766    0.0000 C   0  0  0  0  0  0  0  0  0  0  0  0
    1.0396    0.0626    0.0000 C   0  0  0  0  0  0  0  0  0  0  0  0
   -1.1147   -1.1899    0.0000 C   0  0  3  0  0  0  0  0  0  0  0  0
   -0.3883    0.0501    0.0000 C   0  0  0  0  0  0  0  0  0  0  0  0
    0.3256    0.4635    0.0000 C   0  0  0  0  0  0  0  0  0  0  0  0
    2.4801   -0.7766    0.0000 C   0  0  0  0  0  0  0  0  0  0  0  0
   -1.1273   -2.0417    0.0000 C   0  0  0  0  0  0  0  0  0  0  0  0
   -1.8412    0.0626    0.0000 C   0  0  3  0  0  0  0  0  0  0  0  0
    2.5051    0.0501    0.0000 C   0  0  0  0  0  0  0  0  0  0  0  0
    3.2191   -1.1899    0.0000 C   0  0  0  0  0  0  0  0  0  0  0  0
   -1.1273    0.4635    0.0000 C   0  0  0  0  0  0  0  0  0  0  0  0
   -1.1398    1.3027    0.0000 C   0  0  0  0  0  0  0  0  0  0  0  0
   -2.6930    1.7286    0.0000 C   0  0  0  0  0  0  0  0  0  0  0  0
    3.2191    0.4635    0.0000 C   0  0  0  0  0  0  0  0  0  0  0  0
    3.9331   -0.7766    0.0000 C   0  0  0  0  0  0  0  0  0  0  0  0
   -1.8287   -2.4425    0.0000 C   0  0  0  0  0  0  0  0  0  0  0  0
   -2.5552    0.4759    0.0000 C   0  0  0  0  0  0  0  0  0  0  0  0
    3.9331    0.0501    0.0000 C   0  0  0  0  0  0  0  0  0  0  0  0
   -3.0939    2.4425    0.0000 C   0  0  0  0  0  0  0  0  0  0  0  0
   -3.5072    1.7160    0.0000 C   0  0  0  0  0  0  0  0  0  0  0  0
   -3.0813    1.0021    0.0000 C   0  0  0  0  0  0  0  0  0  0  0  0
  1 11  1  0  0  0  0
  2  9  1  0  0  0  0
  3 10  1  0  0  0  0
  3 15  1  0  0  0  0
  4 21  2  0  0  0  0
 12  5  1  1  0  0  0
  5 17  1  0  0  0  0
  6 21  1  0  0  0  0
  6 22  1  0  0  0  0
  7 28  1  0  0  0  0
  8  9  2  0  0  0  0
  8 12  1  0  0  0  0
  8 13  1  0  0  0  0
  9 10  1  0  0  0  0
 10 11  2  0  0  0  0
 11 14  1  0  0  0  0
 12 16  1  0  0  0  0
 13 14  2  0  0  0  0
 15 18  2  0  0  0  0
 15 19  1  0  0  0  0
 16 25  1  0  0  0  0
 17 20  1  0  0  0  0
 17 26  1  1  0  0  0
 18 23  1  0  0  0  0
 19 24  2  0  0  0  0
 20 21  1  0  0  0  0
 22 28  1  0  0  0  0
 22 29  1  0  0  0  0
 22 30  1  0  0  0  0
 23 27  2  0  0  0  0
 24 27  1  0  0  0  0
M  END
> <PUBCHEM_COMPOUND_ID_TYPE>
0

> <PUBCHEM_TOTAL_CHARGE>
0

> <PUBCHEM_SUBSTANCE_ID>
310942222

> <PUBCHEM_SUBSTANCE_VERSION>
1

> <PUBCHEM_EXT_DATASOURCE_NAME>
4488

> <PUBCHEM_EXT_DATASOURCE_REGID>
SCHEMBL16120257

> <PUBCHEM_SUBSTANCE_COMMENT>
InChI=1S/C23H31ClFN3O2/c1-5-19(27-15(2)13-20(29)28-23(3,4)14-26)17-11-12-18(24)22(21(17)25)30-16-9-7-6-8-10-16/h6-12,15,19,27H,5,13-14,26H2,1-4H3,(H,28,29)/t15-,19+/m0/s1
InChIKey=UHRHGDKMBSROSK-HNAYVOBHSA-N

> <PUBCHEM_SUBSTANCE_SYNONYM>
SCHEMBL16120257

> <PUBCHEM_XREF_EXT_ID>
SCHEMBL16120257

> <PUBCHEM_EXT_DATASOURCE_URL>
https://www.surechembl.org/

> <PUBCHEM_EXT_SUBSTANCE_URL>
https://www.surechembl.org/chemical/SCHEMBL16120257

> <PUBCHEM_CID_ASSOCIATIONS>
117608873  1

> <PUBCHEM_COORDINATE_TYPE>
1
3

> <PUBCHEM_BONDANNOTATIONS>
17  26  5
12  5  5

$$$$
