310934017
  -OEChem-07211613022D

 33 36  0     1  0  0  0  0  0999 V2000
    8.8421   -0.0341    0.0000 F   0  0  0  0  0  0  0  0  0  0  0  0
    7.9203   -3.8919    0.0000 O   0  0  0  0  0  0  0  0  0  0  0  0
    2.3215   -3.1067    0.0000 O   0  0  0  0  0  0  0  0  0  0  0  0
    6.0768   -2.7994    0.0000 N   0  0  0  0  0  0  0  0  0  0  0  0
    6.4865   -3.5164    0.0000 N   0  0  0  0  0  0  0  0  0  0  0  0
    4.7795   -3.3798    0.0000 N   0  0  0  0  0  0  0  0  0  0  0  0
    2.4580   -1.6728    0.0000 N   0  0  0  0  0  0  0  0  0  0  0  0
    0.5121   -0.7511    0.0000 N   0  0  0  0  0  0  0  0  0  0  0  0
   10.2418   -0.0341    0.0000 N   0  0  0  0  0  0  0  0  0  0  0  0
    7.3741   -2.5263    0.0000 C   0  0  0  0  0  0  0  0  0  0  0  0
    8.0910   -2.1166    0.0000 C   0  0  0  0  0  0  0  0  0  0  0  0
    7.3058   -3.3457    0.0000 C   0  0  0  0  0  0  0  0  0  0  0  0
    6.6230   -2.1849    0.0000 C   0  0  0  0  0  0  0  0  0  0  0  0
    8.0910   -1.2973    0.0000 C   0  0  0  0  0  0  0  0  0  0  0  0
    5.2574   -2.7311    0.0000 C   0  0  0  0  0  0  0  0  0  0  0  0
    8.8421   -0.8535    0.0000 C   0  0  0  0  0  0  0  0  0  0  0  0
    8.8421   -2.5263    0.0000 C   0  0  0  0  0  0  0  0  0  0  0  0
    9.5249   -1.2973    0.0000 C   0  0  0  0  0  0  0  0  0  0  0  0
    3.6188   -2.5263    0.0000 C   0  0  0  0  0  0  0  0  0  0  0  0
    4.9502   -1.9460    0.0000 C   0  0  0  0  0  0  0  0  0  0  0  0
    2.7994   -2.4580    0.0000 C   0  0  0  0  0  0  0  0  0  0  0  0
    9.5249   -2.1166    0.0000 C   0  0  0  0  0  0  0  0  0  0  0  0
    3.9601   -3.3115    0.0000 C   0  0  0  0  0  0  0  0  0  0  0  0
    4.0967   -1.8777    0.0000 C   0  0  0  0  0  0  0  0  0  0  0  0
    7.3741   -0.8535    0.0000 C   0  0  0  0  0  0  0  0  0  0  0  0
    1.6387   -1.6046    0.0000 C   0  0  0  0  0  0  0  0  0  0  0  0
   10.2418   -0.8535    0.0000 C   0  0  0  0  0  0  0  0  0  0  0  0
    1.3314   -0.8535    0.0000 C   0  0  3  0  0  0  0  0  0  0  0  0
    2.9701   -1.0241    0.0000 C   0  0  0  0  0  0  0  0  0  0  0  0
    1.8435   -0.1707    0.0000 C   0  0  0  0  0  0  0  0  0  0  0  0
    2.6628   -0.2731    0.0000 C   0  0  0  0  0  0  0  0  0  0  0  0
    0.1707    0.0000    0.0000 C   0  0  0  0  0  0  0  0  0  0  0  0
    0.0000   -1.3997    0.0000 C   0  0  0  0  0  0  0  0  0  0  0  0
  1 16  1  0  0  0  0
  2 12  1  0  0  0  0
  3 21  2  0  0  0  0
  4  5  1  0  0  0  0
  4 13  1  0  0  0  0
  4 15  1  0  0  0  0
  5 12  2  0  0  0  0
  6 15  1  0  0  0  0
  6 23  2  0  0  0  0
  7 21  1  0  0  0  0
  7 26  1  0  0  0  0
  7 29  1  0  0  0  0
 28  8  1  6  0  0  0
  8 32  1  0  0  0  0
  8 33  1  0  0  0  0
  9 27  3  0  0  0  0
 10 11  1  0  0  0  0
 10 12  1  0  0  0  0
 10 13  2  0  0  0  0
 11 14  2  0  0  0  0
 11 17  1  0  0  0  0
 14 16  1  0  0  0  0
 14 25  1  0  0  0  0
 15 20  2  0  0  0  0
 16 18  2  0  0  0  0
 17 22  2  0  0  0  0
 18 22  1  0  0  0  0
 18 27  1  0  0  0  0
 19 21  1  0  0  0  0
 19 23  1  0  0  0  0
 19 24  2  0  0  0  0
 20 24  1  0  0  0  0
 26 28  1  0  0  0  0
 28 30  1  0  0  0  0
 29 31  1  0  0  0  0
 30 31  1  0  0  0  0
M  END
> <PUBCHEM_COMPOUND_ID_TYPE>
0

> <PUBCHEM_TOTAL_CHARGE>
0

> <PUBCHEM_SUBSTANCE_ID>
310934017

> <PUBCHEM_SUBSTANCE_VERSION>
1

> <PUBCHEM_EXT_DATASOURCE_NAME>
4488

> <PUBCHEM_EXT_DATASOURCE_REGID>
SCHEMBL16111461

> <PUBCHEM_SUBSTANCE_COMMENT>
InChI=1S/C24H25FN6O2/c1-15-19(8-6-16(11-26)22(15)25)20-14-31(28-23(20)32)21-9-7-17(12-27-21)24(33)30-10-4-5-18(13-30)29(2)3/h6-9,12,14,18H,4-5,10,13H2,1-3H3,(H,28,32)/t18-/m1/s1
InChIKey=OHQQGAZQAPKTSZ-GOSISDBHSA-N

> <PUBCHEM_SUBSTANCE_SYNONYM>
SCHEMBL16111461

> <PUBCHEM_XREF_EXT_ID>
SCHEMBL16111461

> <PUBCHEM_EXT_DATASOURCE_URL>
https://www.surechembl.org/

> <PUBCHEM_EXT_SUBSTANCE_URL>
https://www.surechembl.org/chemical/SCHEMBL16111461

> <PUBCHEM_CID_ASSOCIATIONS>
117602318  1

> <PUBCHEM_COORDINATE_TYPE>
1
3

> <PUBCHEM_BONDANNOTATIONS>
28  8  6

$$$$
