310949597
  -OEChem-07211613022D

 31 35  0     1  0  0  0  0  0999 V2000
   -0.3685    2.0823    0.0000 N   0  0  0  0  0  0  0  0  0  0  0  0
   -0.3685    3.4159    0.0000 N   0  0  0  0  0  0  0  0  0  0  0  0
    0.4036   -0.2808    0.0000 N   0  0  0  0  0  0  0  0  0  0  0  0
    2.1935    2.0355    0.0000 N   0  0  0  0  0  0  0  0  0  0  0  0
    0.1111    2.7608    0.0000 C   0  0  0  0  0  0  0  0  0  0  0  0
   -1.1640    2.3514    0.0000 C   0  0  0  0  0  0  0  0  0  0  0  0
   -1.1640    3.1702    0.0000 C   0  0  0  0  0  0  0  0  0  0  0  0
   -0.1228    1.3102    0.0000 C   0  0  0  0  0  0  0  0  0  0  0  0
    0.9534    2.7491    0.0000 C   0  0  3  0  0  0  0  0  0  0  0  0
   -1.8659    1.9302    0.0000 C   0  0  0  0  0  0  0  0  0  0  0  0
   -1.8893    3.5680    0.0000 C   0  0  0  0  0  0  0  0  0  0  0  0
   -0.6726    0.6785    0.0000 C   0  0  0  0  0  0  0  0  0  0  0  0
    0.6961    1.1113    0.0000 C   0  0  0  0  0  0  0  0  0  0  0  0
    1.3512    2.0355    0.0000 C   0  0  0  0  0  0  0  0  0  0  0  0
    1.3512    3.4510    0.0000 C   0  0  0  0  0  0  0  0  0  0  0  0
   -2.5912    2.3397    0.0000 C   0  0  0  0  0  0  0  0  0  0  0  0
   -0.4153   -0.1053    0.0000 C   0  0  0  0  0  0  0  0  0  0  0  0
    0.9417    0.3393    0.0000 C   0  0  0  0  0  0  0  0  0  0  0  0
   -2.5912    3.1586    0.0000 C   0  0  0  0  0  0  0  0  0  0  0  0
    0.6493   -1.0529    0.0000 C   0  0  3  0  0  0  0  0  0  0  0  0
    0.0994   -1.6846    0.0000 C   0  0  0  0  0  0  0  0  0  0  0  0
    2.1817    3.4627    0.0000 C   0  0  0  0  0  0  0  0  0  0  0  0
    2.5912    2.7725    0.0000 C   0  0  0  0  0  0  0  0  0  0  0  0
    1.4798   -1.2283    0.0000 C   0  0  0  0  0  0  0  0  0  0  0  0
   -0.6844   -1.4155    0.0000 C   0  0  0  0  0  0  0  0  0  0  0  0
    0.4504   -2.4215    0.0000 C   0  0  0  0  0  0  0  0  0  0  0  0
   -1.4213   -1.7664    0.0000 C   0  0  0  0  0  0  0  0  0  0  0  0
    0.1814   -3.2054    0.0000 C   0  0  0  0  0  0  0  0  0  0  0  0
   -1.7021   -2.5619    0.0000 C   0  0  0  0  0  0  0  0  0  0  0  0
   -0.5673   -3.5680    0.0000 C   0  0  0  0  0  0  0  0  0  0  0  0
   -1.3395   -3.2872    0.0000 C   0  0  0  0  0  0  0  0  0  0  0  0
  1  5  1  0  0  0  0
  1  6  1  0  0  0  0
  1  8  1  0  0  0  0
  2  5  2  0  0  0  0
  2  7  1  0  0  0  0
  3 17  1  0  0  0  0
  3 18  1  0  0  0  0
  3 20  1  0  0  0  0
  4 14  1  0  0  0  0
  4 23  1  0  0  0  0
  9  5  1  6  0  0  0
  6  7  2  0  0  0  0
  6 10  1  0  0  0  0
  7 11  1  0  0  0  0
  8 12  1  0  0  0  0
  8 13  1  0  0  0  0
  9 14  1  0  0  0  0
  9 15  1  0  0  0  0
 10 16  2  0  0  0  0
 11 19  2  0  0  0  0
 12 17  1  0  0  0  0
 13 18  1  0  0  0  0
 15 22  1  0  0  0  0
 16 19  1  0  0  0  0
 20 21  1  0  0  0  0
 20 24  1  0  0  0  0
 21 25  1  0  0  0  0
 21 26  1  0  0  0  0
 22 23  1  0  0  0  0
 25 27  1  0  0  0  0
 26 28  1  0  0  0  0
 27 29  1  0  0  0  0
 28 30  1  0  0  0  0
 29 31  1  0  0  0  0
 30 31  1  0  0  0  0
M  END
> <PUBCHEM_COMPOUND_ID_TYPE>
0

> <PUBCHEM_TOTAL_CHARGE>
0

> <PUBCHEM_SUBSTANCE_ID>
310949597

> <PUBCHEM_SUBSTANCE_VERSION>
1

> <PUBCHEM_EXT_DATASOURCE_NAME>
4488

> <PUBCHEM_EXT_DATASOURCE_REGID>
SCHEMBL16127794

> <PUBCHEM_SUBSTANCE_COMMENT>
InChI=1S/C27H42N4/c1-21(22-10-5-3-2-4-6-11-22)30-18-15-24(16-19-30)31-26-14-8-7-13-25(26)29-27(31)23-12-9-17-28-20-23/h7-8,13-14,21-24,28H,2-6,9-12,15-20H2,1H3/t21?,23-/m1/s1
InChIKey=HATJVFFACIQOQW-JFGZAKSSSA-N

> <PUBCHEM_SUBSTANCE_SYNONYM>
SCHEMBL16127794

> <PUBCHEM_XREF_EXT_ID>
SCHEMBL16127794

> <PUBCHEM_EXT_DATASOURCE_URL>
https://www.surechembl.org/

> <PUBCHEM_EXT_SUBSTANCE_URL>
https://www.surechembl.org/chemical/SCHEMBL16127794

> <PUBCHEM_CID_ASSOCIATIONS>
86275012  1

> <PUBCHEM_COORDINATE_TYPE>
1
3

> <PUBCHEM_BONDANNOTATIONS>
9  5  6

$$$$
