310932056
  -OEChem-07211613022D

 38 43  0     1  0  0  0  0  0999 V2000
    1.2450   -1.3488    0.0000 F   0  0  0  0  0  0  0  0  0  0  0  0
    2.9397   -1.3488    0.0000 O   0  0  0  0  0  0  0  0  0  0  0  0
    4.5305   -4.2884    0.0000 O   0  0  0  0  0  0  0  0  0  0  0  0
    1.2105   -5.6026    0.0000 O   0  0  0  0  0  0  0  0  0  0  0  0
    6.2251    0.0000    0.0000 O   0  0  0  0  0  0  0  0  0  0  0  0
    9.9602   -0.7263    0.0000 O   0  0  0  0  0  0  0  0  0  0  0  0
    3.3201   -3.5276    0.0000 N   0  0  0  0  0  0  0  0  0  0  0  0
    6.2251   -1.4179    0.0000 N   0  0  0  0  0  0  0  0  0  0  0  0
    3.2855   -4.9455    0.0000 N   0  0  0  0  0  0  0  0  0  0  0  0
    7.8852   -1.4179    0.0000 N   0  0  0  0  0  0  0  0  0  0  0  0
    8.6806   -0.0346    0.0000 N   0  0  0  0  0  0  0  0  0  0  0  0
    3.7351   -2.8013    0.0000 C   0  0  3  0  0  0  0  0  0  0  0  0
    2.9051   -2.8013    0.0000 C   0  0  0  0  0  0  0  0  0  0  0  0
    4.1847   -2.1096    0.0000 C   0  0  0  0  0  0  0  0  0  0  0  0
    2.4901   -2.0751    0.0000 C   0  0  0  0  0  0  0  0  0  0  0  0
    3.7697   -1.3833    0.0000 C   0  0  0  0  0  0  0  0  0  0  0  0
    4.5651   -2.8705    0.0000 C   0  0  0  0  0  0  0  0  0  0  0  0
    2.4555   -3.5276    0.0000 C   0  0  0  0  0  0  0  0  0  0  0  0
    1.6601   -2.0405    0.0000 C   0  0  0  0  0  0  0  0  0  0  0  0
    5.0147   -2.1096    0.0000 C   0  0  0  0  0  0  0  0  0  0  0  0
    1.6601   -3.4584    0.0000 C   0  0  0  0  0  0  0  0  0  0  0  0
    4.2193   -0.6571    0.0000 C   0  0  0  0  0  0  0  0  0  0  0  0
    3.7005   -4.2539    0.0000 C   0  0  0  0  0  0  0  0  0  0  0  0
    5.3951   -1.4179    0.0000 C   0  0  0  0  0  0  0  0  0  0  0  0
    1.2796   -2.7321    0.0000 C   0  0  0  0  0  0  0  0  0  0  0  0
    4.9455   -3.5621    0.0000 C   0  0  0  0  0  0  0  0  0  0  0  0
    5.0147   -0.7263    0.0000 C   0  0  0  0  0  0  0  0  0  0  0  0
    1.2450   -4.1847    0.0000 C   0  0  0  0  0  0  0  0  0  0  0  0
    1.6255   -4.8763    0.0000 C   0  0  0  0  0  0  0  0  0  0  0  0
    0.4150   -4.1155    0.0000 C   0  0  0  0  0  0  0  0  0  0  0  0
    6.6401   -0.7263    0.0000 C   0  0  0  0  0  0  0  0  0  0  0  0
    7.4356   -0.7263    0.0000 C   0  0  0  0  0  0  0  0  0  0  0  0
    0.0000   -4.8418    0.0000 C   0  0  0  0  0  0  0  0  0  0  0  0
    0.3804   -5.5680    0.0000 C   0  0  0  0  0  0  0  0  0  0  0  0
    7.8852   -0.0346    0.0000 C   0  0  0  0  0  0  0  0  0  0  0  0
    9.1302   -0.7263    0.0000 C   0  0  0  0  0  0  0  0  0  0  0  0
    8.6806   -1.4179    0.0000 C   0  0  0  0  0  0  0  0  0  0  0  0
   10.3752    0.0000    0.0000 C   0  0  0  0  0  0  0  0  0  0  0  0
  1 19  1  0  0  0  0
  2 15  1  0  0  0  0
  2 16  1  0  0  0  0
  3 23  1  0  0  0  0
  3 26  1  0  0  0  0
  4 29  1  0  0  0  0
  4 34  1  0  0  0  0
  5 31  2  0  0  0  0
  6 36  1  0  0  0  0
  6 38  1  0  0  0  0
 12  7  1  6  0  0  0
  7 23  2  0  0  0  0
  8 24  1  0  0  0  0
  8 31  1  0  0  0  0
  9 23  1  0  0  0  0
 10 32  2  0  0  0  0
 10 37  1  0  0  0  0
 11 35  2  0  0  0  0
 11 36  1  0  0  0  0
 12 13  1  0  0  0  0
 12 14  1  0  0  0  0
 12 17  1  0  0  0  0
 13 15  2  0  0  0  0
 13 18  1  0  0  0  0
 14 16  2  0  0  0  0
 14 20  1  0  0  0  0
 15 19  1  0  0  0  0
 16 22  1  0  0  0  0
 17 26  1  0  0  0  0
 18 21  2  0  0  0  0
 19 25  2  0  0  0  0
 20 24  2  0  0  0  0
 21 25  1  0  0  0  0
 21 28  1  0  0  0  0
 22 27  2  0  0  0  0
 24 27  1  0  0  0  0
 28 29  1  0  0  0  0
 28 30  2  0  0  0  0
 30 33  1  0  0  0  0
 31 32  1  0  0  0  0
 32 35  1  0  0  0  0
 33 34  1  0  0  0  0
 36 37  2  0  0  0  0
M  END
> <PUBCHEM_COMPOUND_ID_TYPE>
0

> <PUBCHEM_TOTAL_CHARGE>
0

> <PUBCHEM_SUBSTANCE_ID>
310932056

> <PUBCHEM_SUBSTANCE_VERSION>
1

> <PUBCHEM_EXT_DATASOURCE_NAME>
4488

> <PUBCHEM_EXT_DATASOURCE_REGID>
SCHEMBL16109402

> <PUBCHEM_SUBSTANCE_COMMENT>
InChI=1S/C27H24FN5O5/c1-35-23-13-30-21(12-31-23)25(34)32-17-4-5-22-18(11-17)27(6-8-37-26(29)33-27)19-9-16(10-20(28)24(19)38-22)15-3-2-7-36-14-15/h3-5,9-13H,2,6-8,14H2,1H3,(H2,29,33)(H,32,34)/t27-/m0/s1
InChIKey=HTJRKXCAHDGRGW-MHZLTWQESA-N

> <PUBCHEM_SUBSTANCE_SYNONYM>
SCHEMBL16109402

> <PUBCHEM_XREF_EXT_ID>
SCHEMBL16109402

> <PUBCHEM_EXT_DATASOURCE_URL>
https://www.surechembl.org/

> <PUBCHEM_EXT_SUBSTANCE_URL>
https://www.surechembl.org/chemical/SCHEMBL16109402

> <PUBCHEM_CID_ASSOCIATIONS>
117600686  1

> <PUBCHEM_COORDINATE_TYPE>
1
3

> <PUBCHEM_BONDANNOTATIONS>
12  7  6

$$$$
