310932468
  -OEChem-07211613022D

 34 37  0     0  0  0  0  0  0999 V2000
    6.8620   -3.4664    0.0000 O   0  0  0  0  0  0  0  0  0  0  0  0
    2.7590   -5.1642    0.0000 O   0  0  0  0  0  0  0  0  0  0  0  0
    6.5083   -4.8458    0.0000 N   0  0  0  0  0  0  0  0  0  0  0  0
    6.8974   -5.5887    0.0000 N   0  0  0  0  0  0  0  0  0  0  0  0
    5.1995   -5.4118    0.0000 N   0  0  0  0  0  0  0  0  0  0  0  0
    2.9358   -3.7494    0.0000 N   0  0  0  0  0  0  0  0  0  0  0  0
    2.2637   -2.2637    0.0000 N   0  0  0  0  0  0  0  0  0  0  0  0
   10.6114   -2.1223    0.0000 N   0  0  0  0  0  0  0  0  0  0  0  0
    0.8136   -0.6720    0.0000 N   0  0  0  0  0  0  0  0  0  0  0  0
    7.7817   -4.5983    0.0000 C   0  0  0  0  0  0  0  0  0  0  0  0
    7.0389   -4.2445    0.0000 C   0  0  0  0  0  0  0  0  0  0  0  0
    8.4891   -4.1738    0.0000 C   0  0  0  0  0  0  0  0  0  0  0  0
    5.6948   -4.7751    0.0000 C   0  0  0  0  0  0  0  0  0  0  0  0
    7.6755   -5.3764    0.0000 C   0  0  0  0  0  0  0  0  0  0  0  0
    8.4891   -3.3603    0.0000 C   0  0  0  0  0  0  0  0  0  0  0  0
    4.0677   -4.5983    0.0000 C   0  0  0  0  0  0  0  0  0  0  0  0
    5.3764   -3.9970    0.0000 C   0  0  0  0  0  0  0  0  0  0  0  0
    3.2541   -4.4921    0.0000 C   0  0  0  0  0  0  0  0  0  0  0  0
    9.1965   -4.5983    0.0000 C   0  0  0  0  0  0  0  0  0  0  0  0
    4.3860   -5.3411    0.0000 C   0  0  0  0  0  0  0  0  0  0  0  0
    4.5275   -3.9616    0.0000 C   0  0  0  0  0  0  0  0  0  0  0  0
    9.1965   -2.9358    0.0000 C   0  0  0  0  0  0  0  0  0  0  0  0
    9.9039   -3.3603    0.0000 C   0  0  0  0  0  0  0  0  0  0  0  0
    9.9039   -4.1738    0.0000 C   0  0  0  0  0  0  0  0  0  0  0  0
    3.4310   -3.1127    0.0000 C   0  0  0  0  0  0  0  0  0  0  0  0
    2.1223   -3.6786    0.0000 C   0  0  0  0  0  0  0  0  0  0  0  0
    7.7817   -2.9358    0.0000 C   0  0  0  0  0  0  0  0  0  0  0  0
    1.8040   -2.9004    0.0000 C   0  0  0  0  0  0  0  0  0  0  0  0
    3.1127   -2.3345    0.0000 C   0  0  0  0  0  0  0  0  0  0  0  0
   10.6114   -2.9358    0.0000 C   0  0  0  0  0  0  0  0  0  0  0  0
    1.9454   -1.4856    0.0000 C   0  0  0  0  0  0  0  0  0  0  0  0
    1.1319   -1.4148    0.0000 C   0  0  0  0  0  0  0  0  0  0  0  0
    1.3087    0.0000    0.0000 C   0  0  0  0  0  0  0  0  0  0  0  0
    0.0000   -0.5660    0.0000 C   0  0  0  0  0  0  0  0  0  0  0  0
  1 11  1  0  0  0  0
  2 18  2  0  0  0  0
  3  4  1  0  0  0  0
  3 11  1  0  0  0  0
  3 13  1  0  0  0  0
  4 14  2  0  0  0  0
  5 13  1  0  0  0  0
  5 20  2  0  0  0  0
  6 18  1  0  0  0  0
  6 25  1  0  0  0  0
  6 26  1  0  0  0  0
  7 28  1  0  0  0  0
  7 29  1  0  0  0  0
  7 31  1  0  0  0  0
  8 30  3  0  0  0  0
  9 32  1  0  0  0  0
  9 33  1  0  0  0  0
  9 34  1  0  0  0  0
 10 11  2  0  0  0  0
 10 12  1  0  0  0  0
 10 14  1  0  0  0  0
 12 15  2  0  0  0  0
 12 19  1  0  0  0  0
 13 17  2  0  0  0  0
 15 22  1  0  0  0  0
 15 27  1  0  0  0  0
 16 18  1  0  0  0  0
 16 20  1  0  0  0  0
 16 21  2  0  0  0  0
 17 21  1  0  0  0  0
 19 24  2  0  0  0  0
 22 23  2  0  0  0  0
 23 24  1  0  0  0  0
 23 30  1  0  0  0  0
 25 29  1  0  0  0  0
 26 28  1  0  0  0  0
 31 32  1  0  0  0  0
M  END
> <PUBCHEM_COMPOUND_ID_TYPE>
0

> <PUBCHEM_TOTAL_CHARGE>
0

> <PUBCHEM_SUBSTANCE_ID>
310932468

> <PUBCHEM_SUBSTANCE_VERSION>
1

> <PUBCHEM_EXT_DATASOURCE_NAME>
4488

> <PUBCHEM_EXT_DATASOURCE_REGID>
SCHEMBL16109840

> <PUBCHEM_SUBSTANCE_COMMENT>
InChI=1S/C25H29N7O2/c1-18-14-19(15-26)4-6-21(18)22-17-28-32(25(22)34)23-7-5-20(16-27-23)24(33)31-12-10-30(11-13-31)9-8-29(2)3/h4-7,14,16-17,34H,8-13H2,1-3H3
InChIKey=WMFBRKNNCDJUOY-UHFFFAOYSA-N

> <PUBCHEM_SUBSTANCE_SYNONYM>
SCHEMBL16109840

> <PUBCHEM_XREF_EXT_ID>
SCHEMBL16109840

> <PUBCHEM_EXT_DATASOURCE_URL>
https://www.surechembl.org/

> <PUBCHEM_EXT_SUBSTANCE_URL>
https://www.surechembl.org/chemical/SCHEMBL16109840

> <PUBCHEM_CID_ASSOCIATIONS>
117601009  1

> <PUBCHEM_COORDINATE_TYPE>
1
3

$$$$
