310944133
  -OEChem-07211613022D

 33 38  0     1  0  0  0  0  0999 V2000
    2.3431    0.7920    0.0000 O   0  0  0  0  0  0  0  0  0  0  0  0
    5.3131    0.6380    0.0000 O   0  0  0  0  0  0  0  0  0  0  0  0
    5.0821    2.1011    0.0000 O   0  0  0  0  0  0  0  0  0  0  0  0
   -0.3520   -2.1011    0.0000 O   0  0  0  0  0  0  0  0  0  0  0  0
    3.3881   -0.2530    0.0000 N   0  0  0  0  0  0  0  0  0  0  0  0
    0.4730   -0.6710    0.0000 N   0  0  0  0  0  0  0  0  0  0  0  0
   -4.0481   -1.3970    0.0000 N   0  0  0  0  0  0  0  0  0  0  0  0
   -1.9910   -0.6710    0.0000 N   0  0  0  0  0  0  0  0  0  0  0  0
   -2.8161   -2.1011    0.0000 N   0  0  0  0  0  0  0  0  0  0  0  0
   -4.5211   -0.7150    0.0000 N   0  0  0  0  0  0  0  0  0  0  0  0
   -5.3131   -0.9680    0.0000 N   0  0  0  0  0  0  0  0  0  0  0  0
   -5.3131   -1.8040    0.0000 N   0  0  0  0  0  0  0  0  0  0  0  0
    3.3991   -1.0890    0.0000 C   0  0  0  0  0  0  0  0  0  0  0  0
    2.1230   -0.6490    0.0000 C   0  0  0  0  0  0  0  0  0  0  0  0
    2.6071    0.0000    0.0000 C   0  0  0  0  0  0  0  0  0  0  0  0
    2.6071   -1.3310    0.0000 C   0  0  0  0  0  0  0  0  0  0  0  0
    3.6081   -1.8591    0.0000 C   0  0  0  0  0  0  0  0  0  0  0  0
    4.1691   -1.2980    0.0000 C   0  0  0  0  0  0  0  0  0  0  0  0
    4.0481    0.2420    0.0000 C   0  0  0  0  0  0  0  0  0  0  0  0
    1.7050   -1.3861    0.0000 C   0  0  0  0  0  0  0  0  0  0  0  0
    1.7160    0.0440    0.0000 C   0  0  0  0  0  0  0  0  0  0  0  0
    4.0591    1.0781    0.0000 C   0  0  0  0  0  0  0  0  0  0  0  0
    4.8291   -0.0110    0.0000 C   0  0  0  0  0  0  0  0  0  0  0  0
    0.8800   -1.3861    0.0000 C   0  0  0  0  0  0  0  0  0  0  0  0
    0.8800    0.0550    0.0000 C   0  0  0  0  0  0  0  0  0  0  0  0
    4.8071    1.2980    0.0000 C   0  0  0  0  0  0  0  0  0  0  0  0
   -0.3410   -0.6490    0.0000 C   0  0  0  0  0  0  0  0  0  0  0  0
   -0.7590   -1.3861    0.0000 C   0  0  3  0  0  0  0  0  0  0  0  0
   -1.5841   -1.3861    0.0000 C   0  0  0  0  0  0  0  0  0  0  0  0
   -3.2341   -1.3861    0.0000 C   0  0  0  0  0  0  0  0  0  0  0  0
   -1.9910   -2.0900    0.0000 C   0  0  0  0  0  0  0  0  0  0  0  0
   -2.8161   -0.6600    0.0000 C   0  0  0  0  0  0  0  0  0  0  0  0
   -4.5211   -2.0460    0.0000 C   0  0  0  0  0  0  0  0  0  0  0  0
  1 15  2  0  0  0  0
  2 23  1  0  0  0  0
  2 26  1  0  0  0  0
  3 26  2  0  0  0  0
 28  4  1  6  0  0  0
  5 13  1  0  0  0  0
  5 15  1  0  0  0  0
  5 19  1  0  0  0  0
  6 24  1  0  0  0  0
  6 25  1  0  0  0  0
  6 27  1  0  0  0  0
  7 10  1  0  0  0  0
  7 30  1  0  0  0  0
  7 33  1  0  0  0  0
  8 29  2  0  0  0  0
  8 32  1  0  0  0  0
  9 30  1  0  0  0  0
  9 31  2  0  0  0  0
 10 11  2  0  0  0  0
 11 12  1  0  0  0  0
 12 33  2  0  0  0  0
 13 16  1  0  0  0  0
 13 17  1  0  0  0  0
 13 18  1  0  0  0  0
 14 15  1  0  0  0  0
 14 16  1  0  0  0  0
 14 20  1  0  0  0  0
 14 21  1  0  0  0  0
 17 18  1  0  0  0  0
 19 22  2  0  0  0  0
 19 23  1  0  0  0  0
 20 24  1  0  0  0  0
 21 25  1  0  0  0  0
 22 26  1  0  0  0  0
 27 28  1  0  0  0  0
 28 29  1  0  0  0  0
 29 31  1  0  0  0  0
 30 32  2  0  0  0  0
M  END
> <PUBCHEM_COMPOUND_ID_TYPE>
0

> <PUBCHEM_TOTAL_CHARGE>
0

> <PUBCHEM_SUBSTANCE_ID>
310944133

> <PUBCHEM_SUBSTANCE_VERSION>
1

> <PUBCHEM_EXT_DATASOURCE_NAME>
4488

> <PUBCHEM_EXT_DATASOURCE_REGID>
SCHEMBL16122208

> <PUBCHEM_SUBSTANCE_COMMENT>
InChI=1S/C21H24N8O4/c30-16(15-8-23-17(9-22-15)28-13-24-25-26-28)10-27-5-3-20(4-6-27)12-21(1-2-21)29(19(20)32)14-7-18(31)33-11-14/h7-9,13,16,30H,1-6,10-12H2/t16-/m0/s1
InChIKey=HSPPLOSVOOXHPK-INIZCTEOSA-N

> <PUBCHEM_SUBSTANCE_SYNONYM>
SCHEMBL16122208

> <PUBCHEM_XREF_EXT_ID>
SCHEMBL16122208

> <PUBCHEM_EXT_DATASOURCE_URL>
https://www.surechembl.org/

> <PUBCHEM_EXT_SUBSTANCE_URL>
https://www.surechembl.org/chemical/SCHEMBL16122208

> <PUBCHEM_CID_ASSOCIATIONS>
117610414  1

> <PUBCHEM_COORDINATE_TYPE>
1
3

> <PUBCHEM_BONDANNOTATIONS>
28  4  6

$$$$
