310930632
  -OEChem-07211613022D

 29 32  0     0  0  0  0  0  0999 V2000
    0.0000   -5.8141    0.0000 O   0  0  0  0  0  0  0  0  0  0  0  0
    2.7499   -7.8177    0.0000 O   0  5  0  0  0  0  0  0  0  0  0  0
    1.3357   -7.8569    0.0000 O   0  0  0  0  0  0  0  0  0  0  0  0
    5.5784   -2.9071    0.0000 O   0  0  0  0  0  0  0  0  0  0  0  0
    4.8713   -1.6499    0.0000 O   0  0  0  0  0  0  0  0  0  0  0  0
    0.4714   -5.1070    0.0000 N   0  0  0  0  0  0  0  0  0  0  0  0
    0.5107   -6.4427    0.0000 N   0  0  0  0  0  0  0  0  0  0  0  0
    2.0035   -4.1249    0.0000 N   0  0  0  0  0  0  0  0  0  0  0  0
    2.0428   -7.4248    0.0000 N   0  3  0  0  0  0  0  0  0  0  0  0
    1.2571   -5.3427    0.0000 C   0  0  0  0  0  0  0  0  0  0  0  0
    1.2964   -6.2069    0.0000 C   0  0  0  0  0  0  0  0  0  0  0  0
    2.0035   -4.9499    0.0000 C   0  0  0  0  0  0  0  0  0  0  0  0
    2.0035   -6.5998    0.0000 C   0  0  0  0  0  0  0  0  0  0  0  0
    2.7106   -5.3427    0.0000 C   0  0  0  0  0  0  0  0  0  0  0  0
    2.7106   -6.2069    0.0000 C   0  0  0  0  0  0  0  0  0  0  0  0
    2.7106   -3.7320    0.0000 C   0  0  0  0  0  0  0  0  0  0  0  0
    4.1641   -2.9071    0.0000 C   0  0  0  0  0  0  0  0  0  0  0  0
    2.7106   -2.9071    0.0000 C   0  0  0  0  0  0  0  0  0  0  0  0
    3.4570   -4.1249    0.0000 C   0  0  0  0  0  0  0  0  0  0  0  0
    3.4570   -2.4749    0.0000 C   0  0  0  0  0  0  0  0  0  0  0  0
    4.1641   -3.7320    0.0000 C   0  0  0  0  0  0  0  0  0  0  0  0
    4.8713   -2.4749    0.0000 C   0  0  0  0  0  0  0  0  0  0  0  0
    6.3248   -2.4749    0.0000 C   0  0  0  0  0  0  0  0  0  0  0  0
    6.3248   -1.6499    0.0000 C   0  0  0  0  0  0  0  0  0  0  0  0
    7.0319   -1.2571    0.0000 C   0  0  0  0  0  0  0  0  0  0  0  0
    5.5784   -1.2178    0.0000 C   0  0  0  0  0  0  0  0  0  0  0  0
    7.0319   -0.3929    0.0000 C   0  0  0  0  0  0  0  0  0  0  0  0
    5.5784   -0.3929    0.0000 C   0  0  0  0  0  0  0  0  0  0  0  0
    6.3248    0.0000    0.0000 C   0  0  0  0  0  0  0  0  0  0  0  0
  1  6  1  0  0  0  0
  1  7  1  0  0  0  0
  2  9  1  0  0  0  0
  3  9  2  0  0  0  0
  4 22  1  0  0  0  0
  4 23  1  0  0  0  0
  5 22  2  0  0  0  0
  6 10  2  0  0  0  0
  7 11  2  0  0  0  0
  8 12  1  0  0  0  0
  8 16  1  0  0  0  0
  9 13  1  0  0  0  0
 10 11  1  0  0  0  0
 10 12  1  0  0  0  0
 11 13  1  0  0  0  0
 12 14  2  0  0  0  0
 13 15  2  0  0  0  0
 14 15  1  0  0  0  0
 16 18  2  0  0  0  0
 16 19  1  0  0  0  0
 17 20  2  0  0  0  0
 17 21  1  0  0  0  0
 17 22  1  0  0  0  0
 18 20  1  0  0  0  0
 19 21  2  0  0  0  0
 23 24  1  0  0  0  0
 24 25  2  0  0  0  0
 24 26  1  0  0  0  0
 25 27  1  0  0  0  0
 26 28  2  0  0  0  0
 27 29  2  0  0  0  0
 28 29  1  0  0  0  0
M  CHG  2   2  -1   9   1
M  END
> <PUBCHEM_COMPOUND_ID_TYPE>
0

> <PUBCHEM_TOTAL_CHARGE>
0

> <PUBCHEM_SUBSTANCE_ID>
310930632

> <PUBCHEM_SUBSTANCE_VERSION>
1

> <PUBCHEM_EXT_DATASOURCE_NAME>
4488

> <PUBCHEM_EXT_DATASOURCE_REGID>
SCHEMBL16107929

> <PUBCHEM_SUBSTANCE_COMMENT>
InChI=1S/C20H14N4O5/c25-20(28-12-13-4-2-1-3-5-13)14-6-8-15(9-7-14)21-16-10-11-17(24(26)27)19-18(16)22-29-23-19/h1-11,21H,12H2
InChIKey=OMUCPLAJAGAINM-UHFFFAOYSA-N

> <PUBCHEM_SUBSTANCE_SYNONYM>
SCHEMBL16107929

> <PUBCHEM_XREF_EXT_ID>
SCHEMBL16107929

> <PUBCHEM_EXT_DATASOURCE_URL>
https://www.surechembl.org/

> <PUBCHEM_EXT_SUBSTANCE_URL>
https://www.surechembl.org/chemical/SCHEMBL16107929

> <PUBCHEM_CID_ASSOCIATIONS>
117599696  1

> <PUBCHEM_COORDINATE_TYPE>
1
3

$$$$
