310941208
  -OEChem-07211613022D

 21 22  0     1  0  0  0  0  0999 V2000
    1.4381    0.8222    0.0000 O   0  0  0  0  0  0  0  0  0  0  0  0
    0.0000   -0.8527    0.0000 O   0  0  0  0  0  0  0  0  0  0  0  0
    0.5809   -1.8330    0.0000 O   0  0  0  0  0  0  0  0  0  0  0  0
    0.0844   -2.6494    0.0000 O   0  0  0  0  0  0  0  0  0  0  0  0
   -1.4381   -0.0236    0.0000 N   0  0  0  0  0  0  0  0  0  0  0  0
    0.7275    0.4162    0.0000 C   0  0  3  0  0  0  0  0  0  0  0  0
    0.0000    0.0271    0.0000 C   0  0  0  0  0  0  0  0  0  0  0  0
    1.4211   -0.0068    0.0000 C   0  0  0  0  0  0  0  0  0  0  0  0
   -0.7275    0.4162    0.0000 C   0  0  3  0  0  0  0  0  0  0  0  0
    0.1353    0.9914    0.0000 C   0  0  0  0  0  0  0  0  0  0  0  0
   -0.7106    1.2452    0.0000 C   0  0  0  0  0  0  0  0  0  0  0  0
    0.0844   -2.1199    0.0000 C   0  0  0  0  0  0  0  0  0  0  0  0
    0.0169    1.6681    0.0000 C   0  0  0  0  0  0  0  0  0  0  0  0
    0.5919   -1.2814    0.0000 C   0  0  0  0  0  0  0  0  0  0  0  0
    0.7783    1.3298    0.0000 C   0  0  0  0  0  0  0  0  0  0  0  0
    0.1015    2.4802    0.0000 C   0  0  0  0  0  0  0  0  0  0  0  0
    1.3027    1.9219    0.0000 C   0  0  0  0  0  0  0  0  0  0  0  0
    0.9136    2.6494    0.0000 C   0  0  0  0  0  0  0  0  0  0  0  0
    1.0884   -1.2593    0.0000 C   0  0  0  0  0  0  0  0  0  0  0  0
    0.0844   -1.2814    0.0000 C   0  0  0  0  0  0  0  0  0  0  0  0
    0.5809   -0.7408    0.0000 C   0  0  0  0  0  0  0  0  0  0  0  0
  1  6  1  0  0  0  0
  1  8  1  0  0  0  0
  2  7  2  0  0  0  0
  3 12  1  0  0  0  0
  3 14  1  0  0  0  0
  4 12  2  0  0  0  0
  9  5  1  1  0  0  0
  5 12  1  0  0  0  0
  6  7  1  6  0  0  0
  6  8  1  0  0  0  0
  6 10  1  1  0  0  0
  7  9  1  0  0  0  0
  9 11  1  0  0  0  0
 11 13  1  0  0  0  0
 13 15  2  0  0  0  0
 13 16  1  0  0  0  0
 14 19  1  0  0  0  0
 14 20  1  0  0  0  0
 14 21  1  0  0  0  0
 15 17  1  0  0  0  0
 16 18  1  0  0  0  0
 17 18  1  0  0  0  0
M  END
> <PUBCHEM_COMPOUND_ID_TYPE>
0

> <PUBCHEM_TOTAL_CHARGE>
0

> <PUBCHEM_SUBSTANCE_ID>
310941208

> <PUBCHEM_SUBSTANCE_VERSION>
1

> <PUBCHEM_EXT_DATASOURCE_NAME>
4488

> <PUBCHEM_EXT_DATASOURCE_REGID>
SCHEMBL16119168

> <PUBCHEM_SUBSTANCE_COMMENT>
InChI=1S/C16H25NO4/c1-15(2,3)21-14(19)17-12(9-11-7-5-6-8-11)13(18)16(4)10-20-16/h7,12H,5-6,8-10H2,1-4H3,(H,17,19)/t12-,16+/m0/s1
InChIKey=MJXUKFGFGAPUTC-BLLLJJGKSA-N

> <PUBCHEM_SUBSTANCE_SYNONYM>
SCHEMBL16119168

> <PUBCHEM_XREF_EXT_ID>
SCHEMBL16119168

> <PUBCHEM_EXT_DATASOURCE_URL>
https://www.surechembl.org/

> <PUBCHEM_EXT_SUBSTANCE_URL>
https://www.surechembl.org/chemical/SCHEMBL16119168

> <PUBCHEM_CID_ASSOCIATIONS>
117608079  1

> <PUBCHEM_COORDINATE_TYPE>
1
3

> <PUBCHEM_BONDANNOTATIONS>
9  5  5
6  10  5
6  7  6

$$$$
