310943566
  -OEChem-07211613022D

 37 40  0     0  0  0  0  0  0999 V2000
   -2.4962   -1.3683    0.0000 F   0  0  0  0  0  0  0  0  0  0  0  0
   -3.9060   -1.5342    0.0000 F   0  0  0  0  0  0  0  0  0  0  0  0
   -3.2094   -0.2073    0.0000 O   0  0  0  0  0  0  0  0  0  0  0  0
   -4.6358    2.2640    0.0000 O   0  0  0  0  0  0  0  0  0  0  0  0
    1.0698   -0.2073    0.0000 O   0  0  0  0  0  0  0  0  0  0  0  0
   -3.1928    1.4347    0.0000 N   0  0  0  0  0  0  0  0  0  0  0  0
   -1.7830   -0.2073    0.0000 N   0  0  0  0  0  0  0  0  0  0  0  0
    0.3566    2.6621    0.0000 N   0  0  0  0  0  0  0  0  0  0  0  0
    1.7830    1.0200    0.0000 N   0  0  0  0  0  0  0  0  0  0  0  0
    3.1928    0.2073    0.0000 N   0  0  0  0  0  0  0  0  0  0  0  0
    4.6358   -1.5011    0.0000 N   0  0  0  0  0  0  0  0  0  0  0  0
   -1.0532    1.0366    0.0000 C   0  0  0  0  0  0  0  0  0  0  0  0
   -2.4796    1.0366    0.0000 C   0  0  0  0  0  0  0  0  0  0  0  0
   -0.3732    1.4347    0.0000 C   0  0  0  0  0  0  0  0  0  0  0  0
   -2.4962    0.2073    0.0000 C   0  0  0  0  0  0  0  0  0  0  0  0
   -1.7996    1.4347    0.0000 C   0  0  0  0  0  0  0  0  0  0  0  0
   -0.3566    2.2640    0.0000 C   0  0  0  0  0  0  0  0  0  0  0  0
   -1.0698    0.2073    0.0000 C   0  0  0  0  0  0  0  0  0  0  0  0
    0.3566    1.0366    0.0000 C   0  0  0  0  0  0  0  0  0  0  0  0
    1.0698    1.4513    0.0000 C   0  0  0  0  0  0  0  0  0  0  0  0
    2.4962   -0.1908    0.0000 C   0  0  0  0  0  0  0  0  0  0  0  0
    3.2094   -1.4347    0.0000 C   0  0  0  0  0  0  0  0  0  0  0  0
    1.7830    0.2239    0.0000 C   0  0  0  0  0  0  0  0  0  0  0  0
    1.0698    2.2640    0.0000 C   0  0  0  0  0  0  0  0  0  0  0  0
    3.2094   -2.2309    0.0000 C   0  0  0  0  0  0  0  0  0  0  0  0
   -3.2094    2.2640    0.0000 C   0  0  0  0  0  0  0  0  0  0  0  0
   -3.9060    1.0366    0.0000 C   0  0  0  0  0  0  0  0  0  0  0  0
    2.4962   -1.0200    0.0000 C   0  0  0  0  0  0  0  0  0  0  0  0
    3.9060   -1.0200    0.0000 C   0  0  0  0  0  0  0  0  0  0  0  0
   -1.0698    2.6454    0.0000 C   0  0  0  0  0  0  0  0  0  0  0  0
   -3.2094   -1.0366    0.0000 C   0  0  0  0  0  0  0  0  0  0  0  0
    3.9226   -0.2073    0.0000 C   0  0  0  0  0  0  0  0  0  0  0  0
   -3.9226    2.6787    0.0000 C   0  0  0  0  0  0  0  0  0  0  0  0
   -4.6193    1.4347    0.0000 C   0  0  0  0  0  0  0  0  0  0  0  0
    3.9060   -1.8494    0.0000 C   0  0  0  0  0  0  0  0  0  0  0  0
    2.4796   -2.6787    0.0000 C   0  0  0  0  0  0  0  0  0  0  0  0
    3.9226   -2.6787    0.0000 C   0  0  0  0  0  0  0  0  0  0  0  0
  1 31  1  0  0  0  0
  2 31  1  0  0  0  0
  3 15  1  0  0  0  0
  3 31  1  0  0  0  0
  4 33  1  0  0  0  0
  4 34  1  0  0  0  0
  5 23  2  0  0  0  0
  6 13  1  0  0  0  0
  6 26  1  0  0  0  0
  6 27  1  0  0  0  0
  7 15  1  0  0  0  0
  7 18  2  0  0  0  0
  8 17  2  0  0  0  0
  8 24  1  0  0  0  0
  9 20  1  0  0  0  0
  9 23  1  0  0  0  0
 10 21  1  0  0  0  0
 10 32  2  0  0  0  0
 11 35  3  0  0  0  0
 12 14  1  0  0  0  0
 12 16  2  0  0  0  0
 12 18  1  0  0  0  0
 13 15  2  0  0  0  0
 13 16  1  0  0  0  0
 14 17  1  0  0  0  0
 14 19  2  0  0  0  0
 17 30  1  0  0  0  0
 19 20  1  0  0  0  0
 20 24  2  0  0  0  0
 21 23  1  0  0  0  0
 21 28  2  0  0  0  0
 22 25  1  0  0  0  0
 22 28  1  0  0  0  0
 22 29  2  0  0  0  0
 25 35  1  0  0  0  0
 25 36  1  0  0  0  0
 25 37  1  0  0  0  0
 26 33  1  0  0  0  0
 27 34  1  0  0  0  0
 29 32  1  0  0  0  0
M  END
> <PUBCHEM_COMPOUND_ID_TYPE>
0

> <PUBCHEM_TOTAL_CHARGE>
0

> <PUBCHEM_SUBSTANCE_ID>
310943566

> <PUBCHEM_SUBSTANCE_VERSION>
1

> <PUBCHEM_EXT_DATASOURCE_NAME>
4488

> <PUBCHEM_EXT_DATASOURCE_REGID>
SCHEMBL16121633

> <PUBCHEM_SUBSTANCE_COMMENT>
InChI=1S/C26H26F2N6O3/c1-16-20(17-10-22(34-6-8-36-9-7-34)24(32-13-17)37-25(27)28)12-19(14-31-16)33-23(35)21-11-18(4-5-30-21)26(2,3)15-29/h4-5,10-14,25H,6-9H2,1-3H3,(H,33,35)
InChIKey=YNSRMAHHANADGG-UHFFFAOYSA-N

> <PUBCHEM_SUBSTANCE_SYNONYM>
SCHEMBL16121633

> <PUBCHEM_XREF_EXT_ID>
SCHEMBL16121633

> <PUBCHEM_EXT_DATASOURCE_URL>
https://www.surechembl.org/

> <PUBCHEM_EXT_SUBSTANCE_URL>
https://www.surechembl.org/chemical/SCHEMBL16121633

> <PUBCHEM_CID_ASSOCIATIONS>
117609976  1

> <PUBCHEM_COORDINATE_TYPE>
1
3

$$$$
