310943160
  -OEChem-07211613022D

 33 36  0     0  0  0  0  0  0999 V2000
   -0.9867    2.6897    0.0000 Cl  0  0  0  0  0  0  0  0  0  0  0  0
   -2.8725   -0.2046    0.0000 O   0  0  0  0  0  0  0  0  0  0  0  0
   -4.3050    2.2804    0.0000 O   0  0  0  0  0  0  0  0  0  0  0  0
    1.4252   -0.2046    0.0000 O   0  0  0  0  0  0  0  0  0  0  0  0
   -1.4399   -0.2046    0.0000 N   0  0  0  0  0  0  0  0  0  0  0  0
   -2.8725    1.4472    0.0000 N   0  0  0  0  0  0  0  0  0  0  0  0
    2.1415    1.0379    0.0000 N   0  0  0  0  0  0  0  0  0  0  0  0
    4.2904   -1.0233    0.0000 N   0  0  0  0  0  0  0  0  0  0  0  0
   -0.7090    1.0379    0.0000 C   0  0  0  0  0  0  0  0  0  0  0  0
   -2.1415    1.0379    0.0000 C   0  0  0  0  0  0  0  0  0  0  0  0
   -0.0220    1.4472    0.0000 C   0  0  0  0  0  0  0  0  0  0  0  0
   -2.1415    0.2339    0.0000 C   0  0  0  0  0  0  0  0  0  0  0  0
   -1.4545    1.4472    0.0000 C   0  0  0  0  0  0  0  0  0  0  0  0
   -0.7236    0.2193    0.0000 C   0  0  0  0  0  0  0  0  0  0  0  0
    0.0073    2.2950    0.0000 C   0  0  0  0  0  0  0  0  0  0  0  0
    0.7090    1.0525    0.0000 C   0  0  0  0  0  0  0  0  0  0  0  0
    1.4106    1.4618    0.0000 C   0  0  0  0  0  0  0  0  0  0  0  0
    0.7090    2.6751    0.0000 C   0  0  0  0  0  0  0  0  0  0  0  0
    1.4252    2.2658    0.0000 C   0  0  0  0  0  0  0  0  0  0  0  0
    2.1562    0.2339    0.0000 C   0  0  0  0  0  0  0  0  0  0  0  0
   -2.8725    2.2804    0.0000 C   0  0  0  0  0  0  0  0  0  0  0  0
   -3.5595    1.0525    0.0000 C   0  0  0  0  0  0  0  0  0  0  0  0
    2.8578   -0.1900    0.0000 C   0  0  0  0  0  0  0  0  0  0  0  0
   -1.4106   -1.0379    0.0000 C   0  0  0  0  0  0  0  0  0  0  0  0
    2.8578   -1.0233    0.0000 C   0  0  0  0  0  0  0  0  0  0  0  0
    3.5741   -1.4326    0.0000 C   0  0  0  0  0  0  0  0  0  0  0  0
   -3.6034    2.6897    0.0000 C   0  0  0  0  0  0  0  0  0  0  0  0
   -4.2904    1.4472    0.0000 C   0  0  0  0  0  0  0  0  0  0  0  0
    3.5741    0.2193    0.0000 C   0  0  0  0  0  0  0  0  0  0  0  0
    4.2904   -0.2046    0.0000 C   0  0  0  0  0  0  0  0  0  0  0  0
    3.5595   -2.2512    0.0000 C   0  0  0  0  0  0  0  0  0  0  0  0
    2.8578   -2.6897    0.0000 C   0  0  0  0  0  0  0  0  0  0  0  0
    4.3050   -2.6751    0.0000 C   0  0  0  0  0  0  0  0  0  0  0  0
  1 15  1  0  0  0  0
  2 12  2  0  0  0  0
  3 27  1  0  0  0  0
  3 28  1  0  0  0  0
  4 20  2  0  0  0  0
  5 12  1  0  0  0  0
  5 14  1  0  0  0  0
  5 24  1  0  0  0  0
  6 10  1  0  0  0  0
  6 21  1  0  0  0  0
  6 22  1  0  0  0  0
  7 17  1  0  0  0  0
  7 20  1  0  0  0  0
  8 26  2  0  0  0  0
  8 30  1  0  0  0  0
  9 11  1  0  0  0  0
  9 13  1  0  0  0  0
  9 14  2  0  0  0  0
 10 12  1  0  0  0  0
 10 13  2  0  0  0  0
 11 15  2  0  0  0  0
 11 16  1  0  0  0  0
 15 18  1  0  0  0  0
 16 17  2  0  0  0  0
 17 19  1  0  0  0  0
 18 19  2  0  0  0  0
 20 23  1  0  0  0  0
 21 27  1  0  0  0  0
 22 28  1  0  0  0  0
 23 25  2  0  0  0  0
 23 29  1  0  0  0  0
 25 26  1  0  0  0  0
 26 31  1  0  0  0  0
 29 30  2  0  0  0  0
 31 32  1  0  0  0  0
 31 33  1  0  0  0  0
M  END
> <PUBCHEM_COMPOUND_ID_TYPE>
0

> <PUBCHEM_TOTAL_CHARGE>
0

> <PUBCHEM_SUBSTANCE_ID>
310943160

> <PUBCHEM_SUBSTANCE_VERSION>
1

> <PUBCHEM_EXT_DATASOURCE_NAME>
4488

> <PUBCHEM_EXT_DATASOURCE_REGID>
SCHEMBL16121220

> <PUBCHEM_SUBSTANCE_COMMENT>
InChI=1S/C25H27ClN4O3/c1-16(2)22-12-17(6-7-27-22)24(31)28-19-4-5-21(26)20(14-19)18-13-23(25(32)29(3)15-18)30-8-10-33-11-9-30/h4-7,12-16H,8-11H2,1-3H3,(H,28,31)
InChIKey=ZNYCGIDJNUIIRX-UHFFFAOYSA-N

> <PUBCHEM_SUBSTANCE_SYNONYM>
SCHEMBL16121220

> <PUBCHEM_XREF_EXT_ID>
SCHEMBL16121220

> <PUBCHEM_EXT_DATASOURCE_URL>
https://www.surechembl.org/

> <PUBCHEM_EXT_SUBSTANCE_URL>
https://www.surechembl.org/chemical/SCHEMBL16121220

> <PUBCHEM_CID_ASSOCIATIONS>
117609589  1

> <PUBCHEM_COORDINATE_TYPE>
1
3

$$$$
