310934012
  -OEChem-07211613022D

 37 42  0     0  0  0  0  0  0999 V2000
    6.3657   -5.4787    0.0000 O   0  0  0  0  0  0  0  0  0  0  0  0
    6.3657  -10.4356    0.0000 O   0  0  0  0  0  0  0  0  0  0  0  0
    7.8267  -10.4356    0.0000 O   0  0  0  0  0  0  0  0  0  0  0  0
    2.0871   -3.8611    0.0000 N   0  0  0  0  0  0  0  0  0  0  0  0
    1.3045   -4.1221    0.0000 N   0  0  0  0  0  0  0  0  0  0  0  0
    2.8176   -2.6089    0.0000 N   0  0  0  0  0  0  0  0  0  0  0  0
    0.5218   -0.4696    0.0000 N   0  0  0  0  0  0  0  0  0  0  0  0
    4.9569   -5.4787    0.0000 N   0  0  0  0  0  0  0  0  0  0  0  0
    7.0962   -7.5658    0.0000 N   0  0  0  0  0  0  0  0  0  0  0  0
    7.0962   -9.1833    0.0000 N   0  0  0  0  0  0  0  0  0  0  0  0
    1.3045   -2.7654    0.0000 C   0  0  0  0  0  0  0  0  0  0  0  0
    2.0871   -3.0263    0.0000 C   0  0  0  0  0  0  0  0  0  0  0  0
    1.0436   -1.9828    0.0000 C   0  0  0  0  0  0  0  0  0  0  0  0
    1.6175   -1.4088    0.0000 C   0  0  0  0  0  0  0  0  0  0  0  0
    0.8349   -3.4437    0.0000 C   0  0  0  0  0  0  0  0  0  0  0  0
    3.5481   -3.8611    0.0000 C   0  0  0  0  0  0  0  0  0  0  0  0
    2.8176   -4.2786    0.0000 C   0  0  0  0  0  0  0  0  0  0  0  0
    1.3566   -0.6262    0.0000 C   0  0  0  0  0  0  0  0  0  0  0  0
    0.2609   -1.8262    0.0000 C   0  0  0  0  0  0  0  0  0  0  0  0
    3.5481   -3.0263    0.0000 C   0  0  0  0  0  0  0  0  0  0  0  0
    4.2264   -4.2786    0.0000 C   0  0  0  0  0  0  0  0  0  0  0  0
    2.4002   -1.5653    0.0000 C   0  0  0  0  0  0  0  0  0  0  0  0
    0.0000   -1.0436    0.0000 C   0  0  0  0  0  0  0  0  0  0  0  0
    1.8784    0.0000    0.0000 C   0  0  0  0  0  0  0  0  0  0  0  0
    4.2264   -5.1134    0.0000 C   0  0  0  0  0  0  0  0  0  0  0  0
    4.9569   -3.8611    0.0000 C   0  0  0  0  0  0  0  0  0  0  0  0
    2.9219   -0.9392    0.0000 C   0  0  0  0  0  0  0  0  0  0  0  0
    2.7132   -0.1566    0.0000 C   0  0  0  0  0  0  0  0  0  0  0  0
    5.6874   -5.0613    0.0000 C   0  0  0  0  0  0  0  0  0  0  0  0
    5.6874   -4.2264    0.0000 C   0  0  0  0  0  0  0  0  0  0  0  0
    6.3657   -6.3135    0.0000 C   0  0  0  0  0  0  0  0  0  0  0  0
    7.0962   -6.7309    0.0000 C   0  0  0  0  0  0  0  0  0  0  0  0
    6.4179   -7.9832    0.0000 C   0  0  0  0  0  0  0  0  0  0  0  0
    7.8267   -7.9832    0.0000 C   0  0  0  0  0  0  0  0  0  0  0  0
    7.8267   -8.8181    0.0000 C   0  0  0  0  0  0  0  0  0  0  0  0
    6.4179   -8.8181    0.0000 C   0  0  0  0  0  0  0  0  0  0  0  0
    7.0962  -10.0182    0.0000 C   0  0  0  0  0  0  0  0  0  0  0  0
  1 29  1  0  0  0  0
  1 31  1  0  0  0  0
  2 37  2  0  0  0  0
  3 37  1  0  0  0  0
  4  5  1  0  0  0  0
  4 12  1  0  0  0  0
  4 17  1  0  0  0  0
  5 15  2  0  0  0  0
  6 12  1  0  0  0  0
  6 20  2  0  0  0  0
  7 18  2  0  0  0  0
  7 23  1  0  0  0  0
  8 25  2  0  0  0  0
  8 29  1  0  0  0  0
  9 32  1  0  0  0  0
  9 33  1  0  0  0  0
  9 34  1  0  0  0  0
 10 35  1  0  0  0  0
 10 36  1  0  0  0  0
 10 37  1  0  0  0  0
 11 12  2  0  0  0  0
 11 13  1  0  0  0  0
 11 15  1  0  0  0  0
 13 14  2  0  0  0  0
 13 19  1  0  0  0  0
 14 18  1  0  0  0  0
 14 22  1  0  0  0  0
 16 17  2  0  0  0  0
 16 20  1  0  0  0  0
 16 21  1  0  0  0  0
 18 24  1  0  0  0  0
 19 23  2  0  0  0  0
 21 25  1  0  0  0  0
 21 26  2  0  0  0  0
 22 27  2  0  0  0  0
 24 28  2  0  0  0  0
 26 30  1  0  0  0  0
 27 28  1  0  0  0  0
 29 30  2  0  0  0  0
 31 32  1  0  0  0  0
 33 36  1  0  0  0  0
 34 35  1  0  0  0  0
M  END
> <PUBCHEM_COMPOUND_ID_TYPE>
0

> <PUBCHEM_TOTAL_CHARGE>
0

> <PUBCHEM_SUBSTANCE_ID>
310934012

> <PUBCHEM_SUBSTANCE_VERSION>
1

> <PUBCHEM_EXT_DATASOURCE_NAME>
4488

> <PUBCHEM_EXT_DATASOURCE_REGID>
SCHEMBL16111456

> <PUBCHEM_SUBSTANCE_COMMENT>
InChI=1S/C27H25N7O3/c35-27(36)33-11-9-32(10-12-33)13-14-37-25-6-5-19(15-29-25)20-16-30-26-23(17-31-34(26)18-20)21-7-8-28-24-4-2-1-3-22(21)24/h1-8,15-18H,9-14H2,(H,35,36)
InChIKey=JTTALPXPKPZLSD-UHFFFAOYSA-N

> <PUBCHEM_SUBSTANCE_SYNONYM>
SCHEMBL16111456

> <PUBCHEM_XREF_EXT_ID>
SCHEMBL16111456

> <PUBCHEM_EXT_DATASOURCE_URL>
https://www.surechembl.org/

> <PUBCHEM_EXT_SUBSTANCE_URL>
https://www.surechembl.org/chemical/SCHEMBL16111456

> <PUBCHEM_CID_ASSOCIATIONS>
117602314  1

> <PUBCHEM_COORDINATE_TYPE>
1
3

$$$$
