310942119
  -OEChem-07211613022D

 31 33  0     1  0  0  0  0  0999 V2000
    1.9551    0.4546    0.0000 Cl  0  0  0  0  0  0  0  0  0  0  0  0
    0.5230   -2.0236    0.0000 F   0  0  0  0  0  0  0  0  0  0  0  0
    1.9551   -1.2017    0.0000 O   0  0  0  0  0  0  0  0  0  0  0  0
   -0.2118    1.7123    0.0000 O   0  0  0  0  0  0  0  0  0  0  0  0
   -1.6314   -0.7783    0.0000 N   0  0  0  0  0  0  0  0  0  0  0  0
   -1.6314    1.7123    0.0000 N   0  0  0  0  0  0  0  0  0  0  0  0
   -4.1219    1.7123    0.0000 N   0  0  0  0  0  0  0  0  0  0  0  0
   -0.1992   -0.7783    0.0000 C   0  0  0  0  0  0  0  0  0  0  0  0
    0.5230   -1.1893    0.0000 C   0  0  0  0  0  0  0  0  0  0  0  0
    1.2329   -0.7783    0.0000 C   0  0  0  0  0  0  0  0  0  0  0  0
    1.2453    0.0560    0.0000 C   0  0  0  0  0  0  0  0  0  0  0  0
   -0.9090   -1.1893    0.0000 C   0  0  3  0  0  0  0  0  0  0  0  0
   -0.1868    0.0436    0.0000 C   0  0  0  0  0  0  0  0  0  0  0  0
    0.5355    0.4546    0.0000 C   0  0  0  0  0  0  0  0  0  0  0  0
    2.6774   -0.7783    0.0000 C   0  0  0  0  0  0  0  0  0  0  0  0
   -0.9215   -2.0360    0.0000 C   0  0  0  0  0  0  0  0  0  0  0  0
   -1.6314    0.0560    0.0000 C   0  0  3  0  0  0  0  0  0  0  0  0
    2.6898    0.0436    0.0000 C   0  0  0  0  0  0  0  0  0  0  0  0
    3.4121   -1.1893    0.0000 C   0  0  0  0  0  0  0  0  0  0  0  0
   -0.9090    0.4546    0.0000 C   0  0  0  0  0  0  0  0  0  0  0  0
   -0.9215    1.2889    0.0000 C   0  0  0  0  0  0  0  0  0  0  0  0
    3.4121    0.4546    0.0000 C   0  0  0  0  0  0  0  0  0  0  0  0
    4.1219   -0.7783    0.0000 C   0  0  0  0  0  0  0  0  0  0  0  0
   -2.4657    1.7123    0.0000 C   0  0  0  0  0  0  0  0  0  0  0  0
   -1.6189   -2.4346    0.0000 C   0  0  0  0  0  0  0  0  0  0  0  0
   -2.3412    0.4546    0.0000 C   0  0  0  0  0  0  0  0  0  0  0  0
    4.1219    0.0436    0.0000 C   0  0  0  0  0  0  0  0  0  0  0  0
   -2.8766    0.9900    0.0000 C   0  0  0  0  0  0  0  0  0  0  0  0
   -2.8766    2.4221    0.0000 C   0  0  0  0  0  0  0  0  0  0  0  0
   -3.7110    0.9900    0.0000 C   0  0  0  0  0  0  0  0  0  0  0  0
   -3.6986    2.4346    0.0000 C   0  0  0  0  0  0  0  0  0  0  0  0
  1 11  1  0  0  0  0
  2  9  1  0  0  0  0
  3 10  1  0  0  0  0
  3 15  1  0  0  0  0
  4 21  2  0  0  0  0
 12  5  1  1  0  0  0
  5 17  1  0  0  0  0
  6 21  1  0  0  0  0
  6 24  1  0  0  0  0
  7 30  1  0  0  0  0
  7 31  1  0  0  0  0
  8  9  2  0  0  0  0
  8 12  1  0  0  0  0
  8 13  1  0  0  0  0
  9 10  1  0  0  0  0
 10 11  2  0  0  0  0
 11 14  1  0  0  0  0
 12 16  1  0  0  0  0
 13 14  2  0  0  0  0
 15 18  2  0  0  0  0
 15 19  1  0  0  0  0
 16 25  1  0  0  0  0
 17 20  1  0  0  0  0
 17 26  1  1  0  0  0
 18 22  1  0  0  0  0
 19 23  2  0  0  0  0
 20 21  1  0  0  0  0
 22 27  2  0  0  0  0
 23 27  1  0  0  0  0
 24 28  1  0  0  0  0
 24 29  1  0  0  0  0
 28 30  1  0  0  0  0
 29 31  1  0  0  0  0
M  END
> <PUBCHEM_COMPOUND_ID_TYPE>
0

> <PUBCHEM_TOTAL_CHARGE>
0

> <PUBCHEM_SUBSTANCE_ID>
310942119

> <PUBCHEM_SUBSTANCE_VERSION>
1

> <PUBCHEM_EXT_DATASOURCE_NAME>
4488

> <PUBCHEM_EXT_DATASOURCE_REGID>
SCHEMBL16120154

> <PUBCHEM_SUBSTANCE_COMMENT>
InChI=1S/C24H31ClFN3O2/c1-3-21(28-16(2)15-22(30)29-17-11-13-27-14-12-17)19-9-10-20(25)24(23(19)26)31-18-7-5-4-6-8-18/h4-10,16-17,21,27-28H,3,11-15H2,1-2H3,(H,29,30)/t16-,21+/m0/s1
InChIKey=XVJIMRJEBRYQEN-HRAATJIYSA-N

> <PUBCHEM_SUBSTANCE_SYNONYM>
SCHEMBL16120154

> <PUBCHEM_XREF_EXT_ID>
SCHEMBL16120154

> <PUBCHEM_EXT_DATASOURCE_URL>
https://www.surechembl.org/

> <PUBCHEM_EXT_SUBSTANCE_URL>
https://www.surechembl.org/chemical/SCHEMBL16120154

> <PUBCHEM_CID_ASSOCIATIONS>
117608779  1

> <PUBCHEM_COORDINATE_TYPE>
1
3

> <PUBCHEM_BONDANNOTATIONS>
17  26  5
12  5  5

$$$$
