310935599
  -OEChem-07211613022D

 37 40  0     0  0  0  0  0  0999 V2000
    2.0812   -3.6648    0.0000 F   0  0  0  0  0  0  0  0  0  0  0  0
    0.8144   -9.0490    0.0000 F   0  0  0  0  0  0  0  0  0  0  0  0
    3.3029   -6.1081    0.0000 O   0  0  0  0  0  0  0  0  0  0  0  0
    1.0859   -4.5245    0.0000 O   0  0  0  0  0  0  0  0  0  0  0  0
    4.8864   -2.8956    0.0000 O   0  0  0  0  0  0  0  0  0  0  0  0
    3.4386   -0.4072    0.0000 O   0  0  0  0  0  0  0  0  0  0  0  0
    5.5651   -1.6288    0.0000 O   0  0  0  0  0  0  0  0  0  0  0  0
    4.8864   -0.4072    0.0000 O   0  0  0  0  0  0  0  0  0  0  0  0
    0.8144   -5.8818    0.0000 N   0  0  0  0  0  0  0  0  0  0  0  0
    2.7599   -4.9317    0.0000 C   0  0  0  0  0  0  0  0  0  0  0  0
    2.1718   -5.4746    0.0000 C   0  0  0  0  0  0  0  0  0  0  0  0
    3.4838   -5.3389    0.0000 C   0  0  0  0  0  0  0  0  0  0  0  0
    2.7599   -4.0720    0.0000 C   0  0  0  0  0  0  0  0  0  0  0  0
    3.4386   -3.7101    0.0000 C   0  0  0  0  0  0  0  0  0  0  0  0
    2.4884   -6.1985    0.0000 C   0  0  0  0  0  0  0  0  0  0  0  0
    4.2078   -4.1173    0.0000 C   0  0  0  0  0  0  0  0  0  0  0  0
    3.4386   -2.8504    0.0000 C   0  0  0  0  0  0  0  0  0  0  0  0
    4.2078   -4.9317    0.0000 C   0  0  0  0  0  0  0  0  0  0  0  0
    1.3573   -5.2936    0.0000 C   0  0  0  0  0  0  0  0  0  0  0  0
    2.0812   -6.9225    0.0000 C   0  0  0  0  0  0  0  0  0  0  0  0
    2.7599   -2.4432    0.0000 C   0  0  0  0  0  0  0  0  0  0  0  0
    4.1625   -2.4432    0.0000 C   0  0  0  0  0  0  0  0  0  0  0  0
    4.1625   -1.6288    0.0000 C   0  0  0  0  0  0  0  0  0  0  0  0
    4.8864   -3.7101    0.0000 C   0  0  0  0  0  0  0  0  0  0  0  0
    3.4386   -1.2216    0.0000 C   0  0  0  0  0  0  0  0  0  0  0  0
    2.7599   -1.6288    0.0000 C   0  0  0  0  0  0  0  0  0  0  0  0
    2.4884   -7.6464    0.0000 C   0  0  0  0  0  0  0  0  0  0  0  0
    1.2669   -6.9225    0.0000 C   0  0  0  0  0  0  0  0  0  0  0  0
    4.8864   -1.2216    0.0000 C   0  0  0  0  0  0  0  0  0  0  0  0
    2.0360   -2.8504    0.0000 C   0  0  0  0  0  0  0  0  0  0  0  0
    2.0812   -8.3703    0.0000 C   0  0  0  0  0  0  0  0  0  0  0  0
    0.8597   -7.6464    0.0000 C   0  0  0  0  0  0  0  0  0  0  0  0
    1.2669   -8.3251    0.0000 C   0  0  0  0  0  0  0  0  0  0  0  0
    0.0000   -5.7009    0.0000 C   0  0  0  0  0  0  0  0  0  0  0  0
    4.3435   -2.6242    0.0000 C   0  0  0  0  0  0  0  0  0  0  0  0
    2.7599    0.0000    0.0000 C   0  0  0  0  0  0  0  0  0  0  0  0
    6.2890   -1.2216    0.0000 C   0  0  0  0  0  0  0  0  0  0  0  0
  1 13  1  0  0  0  0
  2 33  1  0  0  0  0
  3 12  1  0  0  0  0
  3 15  1  0  0  0  0
  4 19  2  0  0  0  0
  5 24  1  0  0  0  0
  5 35  1  0  0  0  0
  6 25  1  0  0  0  0
  6 36  1  0  0  0  0
  7 29  1  0  0  0  0
  7 37  1  0  0  0  0
  8 29  2  0  0  0  0
  9 19  1  0  0  0  0
  9 34  1  0  0  0  0
 10 11  1  0  0  0  0
 10 12  2  0  0  0  0
 10 13  1  0  0  0  0
 11 15  2  0  0  0  0
 11 19  1  0  0  0  0
 12 18  1  0  0  0  0
 13 14  2  0  0  0  0
 14 16  1  0  0  0  0
 14 17  1  0  0  0  0
 15 20  1  0  0  0  0
 16 18  2  0  0  0  0
 16 24  1  0  0  0  0
 17 21  1  0  0  0  0
 17 22  2  0  0  0  0
 20 27  2  0  0  0  0
 20 28  1  0  0  0  0
 21 26  2  0  0  0  0
 21 30  1  0  0  0  0
 22 23  1  0  0  0  0
 23 25  2  0  0  0  0
 23 29  1  0  0  0  0
 25 26  1  0  0  0  0
 27 31  1  0  0  0  0
 28 32  2  0  0  0  0
 31 33  2  0  0  0  0
 32 33  1  0  0  0  0
M  END
> <PUBCHEM_COMPOUND_ID_TYPE>
0

> <PUBCHEM_TOTAL_CHARGE>
0

> <PUBCHEM_SUBSTANCE_ID>
310935599

> <PUBCHEM_SUBSTANCE_VERSION>
1

> <PUBCHEM_EXT_DATASOURCE_NAME>
4488

> <PUBCHEM_EXT_DATASOURCE_REGID>
SCHEMBL16113172

> <PUBCHEM_SUBSTANCE_COMMENT>
InChI=1S/C28H25F2NO6/c1-14-10-20(35-4)19(28(33)36-5)12-18(14)22-16(13-34-3)11-21-23(25(22)30)24(27(32)31-2)26(37-21)15-6-8-17(29)9-7-15/h6-12H,13H2,1-5H3,(H,31,32)
InChIKey=RXRCYHXQHFVMOJ-UHFFFAOYSA-N

> <PUBCHEM_SUBSTANCE_SYNONYM>
SCHEMBL16113172

> <PUBCHEM_XREF_EXT_ID>
SCHEMBL16113172

> <PUBCHEM_EXT_DATASOURCE_URL>
https://www.surechembl.org/

> <PUBCHEM_EXT_SUBSTANCE_URL>
https://www.surechembl.org/chemical/SCHEMBL16113172

> <PUBCHEM_CID_ASSOCIATIONS>
117603620  1

> <PUBCHEM_COORDINATE_TYPE>
1
3

$$$$
