310948642
  -OEChem-07211613022D

 28 31  0     1  0  0  0  0  0999 V2000
   -1.8787   -3.0724    0.0000 F   0  0  0  0  0  0  0  0  0  0  0  0
   -2.4461    1.9373    0.0000 O   0  0  0  0  0  0  0  0  0  0  0  0
    0.1370    0.9392    0.0000 N   0  0  0  0  0  0  0  0  0  0  0  0
   -0.4110    0.3327    0.0000 N   0  0  0  0  0  0  0  0  0  0  0  0
   -1.8787    0.2544    0.0000 N   0  0  0  0  0  0  0  0  0  0  0  0
   -1.3698    2.8962    0.0000 N   0  0  0  0  0  0  0  0  0  0  0  0
    0.3523   -1.2328    0.0000 N   0  0  0  0  0  0  0  0  0  0  0  0
   -0.4501   -3.0724    0.0000 N   0  0  0  0  0  0  0  0  0  0  0  0
   -1.0763    1.5069    0.0000 C   0  0  0  0  0  0  0  0  0  0  0  0
   -0.2936    1.6634    0.0000 C   0  0  0  0  0  0  0  0  0  0  0  0
   -1.1742    0.6850    0.0000 C   0  0  0  0  0  0  0  0  0  0  0  0
    0.9589    0.8610    0.0000 C   0  0  3  0  0  0  0  0  0  0  0  0
   -1.6243    2.1135    0.0000 C   0  0  0  0  0  0  0  0  0  0  0  0
   -0.0196    2.4657    0.0000 C   0  0  0  0  0  0  0  0  0  0  0  0
    1.2916    0.0979    0.0000 C   0  0  3  0  0  0  0  0  0  0  0  0
   -1.8982   -0.5871    0.0000 C   0  0  0  0  0  0  0  0  0  0  0  0
   -0.5675    3.0724    0.0000 C   0  0  0  0  0  0  0  0  0  0  0  0
    1.4481    1.5264    0.0000 C   0  0  0  0  0  0  0  0  0  0  0  0
    2.1135    0.0196    0.0000 C   0  0  0  0  0  0  0  0  0  0  0  0
   -1.1742   -0.9980    0.0000 C   0  0  0  0  0  0  0  0  0  0  0  0
   -2.5831   -0.9980    0.0000 C   0  0  0  0  0  0  0  0  0  0  0  0
   -1.1742   -1.8199    0.0000 C   0  0  0  0  0  0  0  0  0  0  0  0
    0.8023   -0.5871    0.0000 C   0  0  0  0  0  0  0  0  0  0  0  0
    2.2699    1.4286    0.0000 C   0  0  0  0  0  0  0  0  0  0  0  0
   -1.8787   -2.2308    0.0000 C   0  0  0  0  0  0  0  0  0  0  0  0
    2.5831    0.6654    0.0000 C   0  0  0  0  0  0  0  0  0  0  0  0
   -2.5831   -1.8199    0.0000 C   0  0  0  0  0  0  0  0  0  0  0  0
   -0.4501   -2.2504    0.0000 C   0  0  0  0  0  0  0  0  0  0  0  0
  1 25  1  0  0  0  0
  2 13  2  0  0  0  0
  3  4  1  0  0  0  0
  3 10  1  0  0  0  0
 12  3  1  1  0  0  0
  4 11  2  0  0  0  0
  5 11  1  0  0  0  0
  5 16  1  0  0  0  0
  6 13  1  0  0  0  0
  6 17  1  0  0  0  0
  7 23  3  0  0  0  0
  8 28  1  0  0  0  0
  9 10  2  0  0  0  0
  9 11  1  0  0  0  0
  9 13  1  0  0  0  0
 10 14  1  0  0  0  0
 12 15  1  0  0  0  0
 12 18  1  0  0  0  0
 14 17  2  0  0  0  0
 15 19  1  0  0  0  0
 15 23  1  6  0  0  0
 16 20  2  0  0  0  0
 16 21  1  0  0  0  0
 18 24  1  0  0  0  0
 19 26  1  0  0  0  0
 20 22  1  0  0  0  0
 21 27  2  0  0  0  0
 22 25  2  0  0  0  0
 22 28  1  0  0  0  0
 24 26  1  0  0  0  0
 25 27  1  0  0  0  0
M  END
> <PUBCHEM_COMPOUND_ID_TYPE>
0

> <PUBCHEM_TOTAL_CHARGE>
0

> <PUBCHEM_SUBSTANCE_ID>
310948642

> <PUBCHEM_SUBSTANCE_VERSION>
1

> <PUBCHEM_EXT_DATASOURCE_NAME>
4488

> <PUBCHEM_EXT_DATASOURCE_REGID>
SCHEMBL16126826

> <PUBCHEM_SUBSTANCE_COMMENT>
InChI=1S/C20H21FN6O/c21-15-6-5-14(9-13(15)11-23)25-19-18-17(7-8-24-20(18)28)27(26-19)16-4-2-1-3-12(16)10-22/h5-9,12,16H,1-4,11,23H2,(H,24,28)(H,25,26)/t12-,16+/m1/s1
InChIKey=GCXNPUUZRKRWBG-WBMJQRKESA-N

> <PUBCHEM_SUBSTANCE_SYNONYM>
SCHEMBL16126826

> <PUBCHEM_XREF_EXT_ID>
SCHEMBL16126826

> <PUBCHEM_EXT_DATASOURCE_URL>
https://www.surechembl.org/

> <PUBCHEM_EXT_SUBSTANCE_URL>
https://www.surechembl.org/chemical/SCHEMBL16126826

> <PUBCHEM_CID_ASSOCIATIONS>
117614186  1

> <PUBCHEM_COORDINATE_TYPE>
1
3

> <PUBCHEM_BONDANNOTATIONS>
15  23  6
12  3  5

$$$$
