310943992
  -OEChem-07211613022D

 14 14  0     0  0  0  0  0  0999 V2000
   -0.7401    2.0626    0.0000 F   0  0  0  0  0  0  0  0  0  0  0  0
    0.7159   -0.3882    0.0000 N   0  0  0  0  0  0  0  0  0  0  0  0
    1.4317    1.6380    0.0000 N   0  0  0  0  0  0  0  0  0  0  0  0
   -0.7401   -2.0626    0.0000 N   0  0  0  0  0  0  0  0  0  0  0  0
   -0.0243    0.0486    0.0000 C   0  0  0  0  0  0  0  0  0  0  0  0
   -0.0121    0.8615    0.0000 C   0  0  0  0  0  0  0  0  0  0  0  0
   -0.7280   -0.3761    0.0000 C   0  0  0  0  0  0  0  0  0  0  0  0
   -0.7522    1.2619    0.0000 C   0  0  0  0  0  0  0  0  0  0  0  0
   -1.4560    0.0121    0.0000 C   0  0  0  0  0  0  0  0  0  0  0  0
   -1.4560    0.8373    0.0000 C   0  0  0  0  0  0  0  0  0  0  0  0
    0.7037    1.2619    0.0000 C   0  0  0  0  0  0  0  0  0  0  0  0
   -0.7401   -1.2376    0.0000 C   0  0  0  0  0  0  0  0  0  0  0  0
    0.7280   -1.2134    0.0000 C   0  0  0  0  0  0  0  0  0  0  0  0
    1.4560    0.0607    0.0000 C   0  0  0  0  0  0  0  0  0  0  0  0
  1  8  1  0  0  0  0
  2  5  1  0  0  0  0
  2 13  1  0  0  0  0
  2 14  1  0  0  0  0
  3 11  3  0  0  0  0
  4 12  3  0  0  0  0
  5  6  1  0  0  0  0
  5  7  2  0  0  0  0
  6  8  2  0  0  0  0
  6 11  1  0  0  0  0
  7  9  1  0  0  0  0
  7 12  1  0  0  0  0
  8 10  1  0  0  0  0
  9 10  2  0  0  0  0
M  END
> <PUBCHEM_COMPOUND_ID_TYPE>
0

> <PUBCHEM_TOTAL_CHARGE>
0

> <PUBCHEM_SUBSTANCE_ID>
310943992

> <PUBCHEM_SUBSTANCE_VERSION>
1

> <PUBCHEM_EXT_DATASOURCE_NAME>
4488

> <PUBCHEM_EXT_DATASOURCE_REGID>
SCHEMBL16122063

> <PUBCHEM_SUBSTANCE_COMMENT>
InChI=1S/C10H8FN3/c1-14(2)10-7(5-12)3-4-9(11)8(10)6-13/h3-4H,1-2H3
InChIKey=SVGUPFTXFLTAPC-UHFFFAOYSA-N

> <PUBCHEM_SUBSTANCE_SYNONYM>
SCHEMBL16122063

> <PUBCHEM_XREF_EXT_ID>
SCHEMBL16122063

> <PUBCHEM_EXT_DATASOURCE_URL>
https://www.surechembl.org/

> <PUBCHEM_EXT_SUBSTANCE_URL>
https://www.surechembl.org/chemical/SCHEMBL16122063

> <PUBCHEM_CID_ASSOCIATIONS>
117610298  1

> <PUBCHEM_COORDINATE_TYPE>
1
3

$$$$
