310933272
  -OEChem-07211613022D

 30 33  0     1  0  0  0  0  0999 V2000
    6.0273   -4.9185    0.0000 F   0  0  0  0  0  0  0  0  0  0  0  0
    0.3128    0.0000    0.0000 O   0  0  0  0  0  0  0  0  0  0  0  0
    6.0558   -0.6255    0.0000 O   0  0  0  0  0  0  0  0  0  0  0  0
    2.7009   -3.0137    0.0000 N   0  0  0  0  0  0  0  0  0  0  0  0
    3.4401   -3.3548    0.0000 N   0  0  0  0  0  0  0  0  0  0  0  0
    4.8048   -1.3078    0.0000 N   0  0  0  0  0  0  0  0  0  0  0  0
    0.7676   -1.3647    0.0000 N   0  0  0  0  0  0  0  0  0  0  0  0
    6.0558   -2.0470    0.0000 N   0  0  0  0  0  0  0  0  0  0  0  0
    7.2783   -1.3363    0.0000 N   0  0  0  0  0  0  0  0  0  0  0  0
    3.5823   -2.0186    0.0000 C   0  0  0  0  0  0  0  0  0  0  0  0
    2.7862   -2.2176    0.0000 C   0  0  0  0  0  0  0  0  0  0  0  0
    4.0087   -2.7578    0.0000 C   0  0  0  0  0  0  0  0  0  0  0  0
    2.1607   -1.6490    0.0000 C   0  0  0  0  0  0  0  0  0  0  0  0
    4.8332   -2.7294    0.0000 C   0  0  0  0  0  0  0  0  0  0  0  0
    4.0087   -1.3078    0.0000 C   0  0  0  0  0  0  0  0  0  0  0  0
    5.2312   -2.0470    0.0000 C   0  0  0  0  0  0  0  0  0  0  0  0
    1.3647   -1.9049    0.0000 C   0  0  0  0  0  0  0  0  0  0  0  0
    2.3313   -0.8529    0.0000 C   0  0  0  0  0  0  0  0  0  0  0  0
    0.9098   -0.5402    0.0000 C   0  0  0  0  0  0  0  0  0  0  0  0
    1.7059   -0.3128    0.0000 C   0  0  0  0  0  0  0  0  0  0  0  0
    6.4822   -1.3363    0.0000 C   0  0  0  0  0  0  0  0  0  0  0  0
    7.7047   -2.0470    0.0000 C   0  0  3  0  0  0  0  0  0  0  0  0
    7.2783   -2.7578    0.0000 C   0  0  0  0  0  0  0  0  0  0  0  0
    0.0000   -1.6206    0.0000 C   0  0  0  0  0  0  0  0  0  0  0  0
    7.7047   -3.4970    0.0000 C   0  0  0  0  0  0  0  0  0  0  0  0
    6.4822   -2.7862    0.0000 C   0  0  0  0  0  0  0  0  0  0  0  0
    6.4538   -4.1793    0.0000 C   0  0  0  0  0  0  0  0  0  0  0  0
    7.2783   -4.2077    0.0000 C   0  0  0  0  0  0  0  0  0  0  0  0
    6.0558   -3.4685    0.0000 C   0  0  0  0  0  0  0  0  0  0  0  0
    8.5292   -2.0470    0.0000 C   0  0  0  0  0  0  0  0  0  0  0  0
  1 27  1  0  0  0  0
  2 19  2  0  0  0  0
  3 21  2  0  0  0  0
  4  5  1  0  0  0  0
  4 11  2  0  0  0  0
  5 12  1  0  0  0  0
  6 15  1  0  0  0  0
  6 16  2  0  0  0  0
  7 17  1  0  0  0  0
  7 19  1  0  0  0  0
  7 24  1  0  0  0  0
  8 16  1  0  0  0  0
  8 21  1  0  0  0  0
  9 21  1  0  0  0  0
  9 22  1  0  0  0  0
 10 11  1  0  0  0  0
 10 12  1  0  0  0  0
 10 15  2  0  0  0  0
 11 13  1  0  0  0  0
 12 14  2  0  0  0  0
 13 17  2  0  0  0  0
 13 18  1  0  0  0  0
 14 16  1  0  0  0  0
 18 20  2  0  0  0  0
 19 20  1  0  0  0  0
 22 23  1  0  0  0  0
 22 30  1  6  0  0  0
 23 25  2  0  0  0  0
 23 26  1  0  0  0  0
 25 28  1  0  0  0  0
 26 29  2  0  0  0  0
 27 28  2  0  0  0  0
 27 29  1  0  0  0  0
M  END
> <PUBCHEM_COMPOUND_ID_TYPE>
0

> <PUBCHEM_TOTAL_CHARGE>
0

> <PUBCHEM_SUBSTANCE_ID>
310933272

> <PUBCHEM_SUBSTANCE_VERSION>
1

> <PUBCHEM_EXT_DATASOURCE_NAME>
4488

> <PUBCHEM_EXT_DATASOURCE_REGID>
SCHEMBL16110681

> <PUBCHEM_SUBSTANCE_COMMENT>
InChI=1S/C21H19FN6O2/c1-12(13-3-6-15(22)7-4-13)24-21(30)25-18-9-17-16(10-23-18)20(27-26-17)14-5-8-19(29)28(2)11-14/h3-12H,1-2H3,(H,26,27)(H2,23,24,25,30)/t12-/m1/s1
InChIKey=HHKRXGAKPXPOCF-GFCCVEGCSA-N

> <PUBCHEM_SUBSTANCE_SYNONYM>
SCHEMBL16110681

> <PUBCHEM_XREF_EXT_ID>
SCHEMBL16110681

> <PUBCHEM_EXT_DATASOURCE_URL>
https://www.surechembl.org/

> <PUBCHEM_EXT_SUBSTANCE_URL>
https://www.surechembl.org/chemical/SCHEMBL16110681

> <PUBCHEM_CID_ASSOCIATIONS>
71554797  1

> <PUBCHEM_COORDINATE_TYPE>
1
3

> <PUBCHEM_BONDANNOTATIONS>
22  30  6

$$$$
