310944749
  -OEChem-07211613022D

 16 16  0     0  0  0  0  0  0999 V2000
   -3.2950    0.4080    0.0000 Cl  0  0  0  0  0  0  0  0  0  0  0  0
   -3.2950   -1.2363    0.0000 Cl  0  0  0  0  0  0  0  0  0  0  0  0
   -0.2782   -1.2363    0.0000 O   0  0  0  0  0  0  0  0  0  0  0  0
    1.8608    0.0000    0.0000 O   0  0  0  0  0  0  0  0  0  0  0  0
    1.1436    1.2363    0.0000 O   0  0  0  0  0  0  0  0  0  0  0  0
   -0.2658    0.4080    0.0000 N   0  0  0  0  0  0  0  0  0  0  0  0
   -0.9829    0.0123    0.0000 C   0  0  0  0  0  0  0  0  0  0  0  0
   -0.9953   -0.8160    0.0000 C   0  0  0  0  0  0  0  0  0  0  0  0
   -2.4048    0.0000    0.0000 C   0  0  0  0  0  0  0  0  0  0  0  0
   -2.4171   -0.8160    0.0000 C   0  0  0  0  0  0  0  0  0  0  0  0
   -1.6876    0.4080    0.0000 C   0  0  0  0  0  0  0  0  0  0  0  0
   -1.7001   -1.2240    0.0000 C   0  0  0  0  0  0  0  0  0  0  0  0
    0.4513    0.0000    0.0000 C   0  0  0  0  0  0  0  0  0  0  0  0
    1.1436    0.3956    0.0000 C   0  0  0  0  0  0  0  0  0  0  0  0
    2.5532    0.4080    0.0000 C   0  0  0  0  0  0  0  0  0  0  0  0
    3.2950    0.0000    0.0000 C   0  0  0  0  0  0  0  0  0  0  0  0
  1  9  1  0  0  0  0
  2 10  1  0  0  0  0
  3  8  1  0  0  0  0
  4 14  1  0  0  0  0
  4 15  1  0  0  0  0
  5 14  2  0  0  0  0
  6  7  1  0  0  0  0
  6 13  1  0  0  0  0
  7  8  1  0  0  0  0
  7 11  2  0  0  0  0
  8 12  2  0  0  0  0
  9 10  2  0  0  0  0
  9 11  1  0  0  0  0
 10 12  1  0  0  0  0
 13 14  1  0  0  0  0
 15 16  1  0  0  0  0
M  END
> <PUBCHEM_COMPOUND_ID_TYPE>
0

> <PUBCHEM_TOTAL_CHARGE>
0

> <PUBCHEM_SUBSTANCE_ID>
310944749

> <PUBCHEM_SUBSTANCE_VERSION>
1

> <PUBCHEM_EXT_DATASOURCE_NAME>
4488

> <PUBCHEM_EXT_DATASOURCE_REGID>
SCHEMBL16122828

> <PUBCHEM_SUBSTANCE_COMMENT>
InChI=1S/C10H11Cl2NO3/c1-2-16-10(15)5-13-8-3-6(11)7(12)4-9(8)14/h3-4,13-14H,2,5H2,1H3
InChIKey=OAGSACLWERICLI-UHFFFAOYSA-N

> <PUBCHEM_SUBSTANCE_SYNONYM>
SCHEMBL16122828

> <PUBCHEM_XREF_EXT_ID>
SCHEMBL16122828

> <PUBCHEM_EXT_DATASOURCE_URL>
https://www.surechembl.org/

> <PUBCHEM_EXT_SUBSTANCE_URL>
https://www.surechembl.org/chemical/SCHEMBL16122828

> <PUBCHEM_CID_ASSOCIATIONS>
117610965  1

> <PUBCHEM_COORDINATE_TYPE>
1
3

$$$$
