310942125
  -OEChem-07211613022D

 26 28  0     1  0  0  0  0  0999 V2000
   -3.5051    1.4319    0.0000 S   0  0  3  0  0  0  0  0  0  0  0  0
   -1.3617   -0.6061    0.0000 O   0  0  0  0  0  0  0  0  0  0  0  0
   -4.3133    1.4319    0.0000 O   0  0  0  0  0  0  0  0  0  0  0  0
    2.1698   -1.8536    0.0000 O   0  0  0  0  0  0  0  0  0  0  0  0
   -2.7848    1.8360    0.0000 N   0  0  0  0  0  0  0  0  0  0  0  0
   -3.5051    0.6237    0.0000 N   0  0  0  0  0  0  0  0  0  0  0  0
    1.4671   -0.6061    0.0000 N   0  0  0  0  0  0  0  0  0  0  0  0
   -2.8023   -0.5886    0.0000 N   0  0  0  0  0  0  0  0  0  0  0  0
   -2.0996    0.6413    0.0000 C   0  0  0  0  0  0  0  0  0  0  0  0
   -2.0644    1.4671    0.0000 C   0  0  0  0  0  0  0  0  0  0  0  0
   -1.3617    0.2547    0.0000 C   0  0  0  0  0  0  0  0  0  0  0  0
   -2.7848    0.2547    0.0000 C   0  0  0  0  0  0  0  0  0  0  0  0
   -1.3792    1.8536    0.0000 C   0  0  0  0  0  0  0  0  0  0  0  0
   -0.6764    0.6237    0.0000 C   0  0  0  0  0  0  0  0  0  0  0  0
   -0.6588    1.4495    0.0000 C   0  0  0  0  0  0  0  0  0  0  0  0
    0.0615   -0.5886    0.0000 C   0  0  3  0  0  0  0  0  0  0  0  0
   -0.6588   -1.0102    0.0000 C   0  0  0  0  0  0  0  0  0  0  0  0
    0.7818   -1.0102    0.0000 C   0  0  0  0  0  0  0  0  0  0  0  0
    2.1698   -0.9751    0.0000 C   0  0  0  0  0  0  0  0  0  0  0  0
    0.0615    0.2372    0.0000 C   0  0  0  0  0  0  0  0  0  0  0  0
    1.4671    0.2372    0.0000 C   0  0  0  0  0  0  0  0  0  0  0  0
    0.7467    0.6061    0.0000 C   0  0  0  0  0  0  0  0  0  0  0  0
    2.9077   -0.6061    0.0000 C   0  0  0  0  0  0  0  0  0  0  0  0
    3.6105   -0.9927    0.0000 C   0  0  0  0  0  0  0  0  0  0  0  0
    4.3133   -0.5710    0.0000 C   0  0  0  0  0  0  0  0  0  0  0  0
    3.6281   -1.8360    0.0000 C   0  0  0  0  0  0  0  0  0  0  0  0
  1  3  2  0  0  0  0
  1  5  1  0  0  0  0
  1  6  1  0  0  0  0
  2 11  1  0  0  0  0
  2 17  1  0  0  0  0
  4 19  2  0  0  0  0
  5 10  1  0  0  0  0
  6 12  2  0  0  0  0
  7 18  1  0  0  0  0
  7 19  1  0  0  0  0
  7 21  1  0  0  0  0
  8 12  1  0  0  0  0
  9 10  1  0  0  0  0
  9 11  2  0  0  0  0
  9 12  1  0  0  0  0
 10 13  2  0  0  0  0
 11 14  1  0  0  0  0
 13 15  1  0  0  0  0
 14 15  2  0  0  0  0
 16 17  1  6  0  0  0
 16 18  1  0  0  0  0
 16 20  1  0  0  0  0
 19 23  1  0  0  0  0
 20 22  1  0  0  0  0
 21 22  1  0  0  0  0
 23 24  1  0  0  0  0
 24 25  1  0  0  0  0
 24 26  1  0  0  0  0
M  END
> <PUBCHEM_COMPOUND_ID_TYPE>
0

> <PUBCHEM_TOTAL_CHARGE>
0

> <PUBCHEM_SUBSTANCE_ID>
310942125

> <PUBCHEM_SUBSTANCE_VERSION>
1

> <PUBCHEM_EXT_DATASOURCE_NAME>
4488

> <PUBCHEM_EXT_DATASOURCE_REGID>
SCHEMBL16120160

> <PUBCHEM_SUBSTANCE_COMMENT>
InChI=1S/C18H26N4O3S/c1-12(2)9-16(23)22-8-4-5-13(10-22)11-25-15-7-3-6-14-17(15)18(19)21-26(24)20-14/h3,6-7,12-13,20H,4-5,8-11H2,1-2H3,(H2,19,21)/t13-,26?/m1/s1
InChIKey=PPNPQMUGYQGDFN-OLADXZERSA-N

> <PUBCHEM_SUBSTANCE_SYNONYM>
SCHEMBL16120160

> <PUBCHEM_XREF_EXT_ID>
SCHEMBL16120160

> <PUBCHEM_EXT_DATASOURCE_URL>
https://www.surechembl.org/

> <PUBCHEM_EXT_SUBSTANCE_URL>
https://www.surechembl.org/chemical/SCHEMBL16120160

> <PUBCHEM_CID_ASSOCIATIONS>
117608785  1

> <PUBCHEM_COORDINATE_TYPE>
1
3

> <PUBCHEM_BONDANNOTATIONS>
16  17  6

$$$$
