310943418
  -OEChem-07211613022D

 38 42  0     0  0  0  0  0  0999 V2000
    4.3304    2.1526    0.0000 F   0  0  0  0  0  0  0  0  0  0  0  0
    5.4193    1.8344    0.0000 F   0  0  0  0  0  0  0  0  0  0  0  0
    5.0842    0.7454    0.0000 F   0  0  0  0  0  0  0  0  0  0  0  0
    1.8008    2.2866    0.0000 O   0  0  0  0  0  0  0  0  0  0  0  0
   -5.4193    2.2866    0.0000 O   0  0  0  0  0  0  0  0  0  0  0  0
   -3.2415    0.2094    0.0000 N   0  0  0  0  0  0  0  0  0  0  0  0
   -3.9619    1.4491    0.0000 N   0  0  0  0  0  0  0  0  0  0  0  0
   -2.5211   -1.0302    0.0000 N   0  0  0  0  0  0  0  0  0  0  0  0
   -0.3602    2.6887    0.0000 N   0  0  0  0  0  0  0  0  0  0  0  0
    1.0973    1.0302    0.0000 N   0  0  0  0  0  0  0  0  0  0  0  0
   -2.5211   -2.6887    0.0000 N   0  0  0  0  0  0  0  0  0  0  0  0
   -1.7841    1.0470    0.0000 C   0  0  0  0  0  0  0  0  0  0  0  0
   -1.0805    1.4491    0.0000 C   0  0  0  0  0  0  0  0  0  0  0  0
   -3.2415    1.0470    0.0000 C   0  0  0  0  0  0  0  0  0  0  0  0
   -2.5211   -0.1927    0.0000 C   0  0  0  0  0  0  0  0  0  0  0  0
   -2.5211    1.4491    0.0000 C   0  0  0  0  0  0  0  0  0  0  0  0
   -1.8008    0.1927    0.0000 C   0  0  0  0  0  0  0  0  0  0  0  0
   -1.0637    2.2866    0.0000 C   0  0  0  0  0  0  0  0  0  0  0  0
   -0.3267    1.0470    0.0000 C   0  0  0  0  0  0  0  0  0  0  0  0
    0.3602    1.4491    0.0000 C   0  0  0  0  0  0  0  0  0  0  0  0
    2.5379    1.0470    0.0000 C   0  0  0  0  0  0  0  0  0  0  0  0
    0.3769    2.2699    0.0000 C   0  0  0  0  0  0  0  0  0  0  0  0
    1.8008    1.4323    0.0000 C   0  0  0  0  0  0  0  0  0  0  0  0
    3.9786    1.0470    0.0000 C   0  0  0  0  0  0  0  0  0  0  0  0
    4.6989    1.4491    0.0000 C   0  0  0  0  0  0  0  0  0  0  0  0
    3.2750    1.4323    0.0000 C   0  0  0  0  0  0  0  0  0  0  0  0
   -3.9786    2.2866    0.0000 C   0  0  0  0  0  0  0  0  0  0  0  0
   -4.6654    1.0470    0.0000 C   0  0  0  0  0  0  0  0  0  0  0  0
   -3.2248   -1.4491    0.0000 C   0  0  0  0  0  0  0  0  0  0  0  0
   -1.7841   -1.4658    0.0000 C   0  0  0  0  0  0  0  0  0  0  0  0
   -1.8008    2.6719    0.0000 C   0  0  0  0  0  0  0  0  0  0  0  0
    2.5547    0.2094    0.0000 C   0  0  0  0  0  0  0  0  0  0  0  0
    3.9619    0.2094    0.0000 C   0  0  0  0  0  0  0  0  0  0  0  0
    3.2750   -0.1927    0.0000 C   0  0  0  0  0  0  0  0  0  0  0  0
   -4.6989    2.6887    0.0000 C   0  0  0  0  0  0  0  0  0  0  0  0
   -5.4025    1.4491    0.0000 C   0  0  0  0  0  0  0  0  0  0  0  0
   -3.2415   -2.2699    0.0000 C   0  0  0  0  0  0  0  0  0  0  0  0
   -1.8008   -2.2699    0.0000 C   0  0  0  0  0  0  0  0  0  0  0  0
  1 25  1  0  0  0  0
  2 25  1  0  0  0  0
  3 25  1  0  0  0  0
  4 23  2  0  0  0  0
  5 35  1  0  0  0  0
  5 36  1  0  0  0  0
  6 14  2  0  0  0  0
  6 15  1  0  0  0  0
  7 14  1  0  0  0  0
  7 27  1  0  0  0  0
  7 28  1  0  0  0  0
  8 15  1  0  0  0  0
  8 29  1  0  0  0  0
  8 30  1  0  0  0  0
  9 18  2  0  0  0  0
  9 22  1  0  0  0  0
 10 20  1  0  0  0  0
 10 23  1  0  0  0  0
 11 37  1  0  0  0  0
 11 38  1  0  0  0  0
 12 13  1  0  0  0  0
 12 16  2  0  0  0  0
 12 17  1  0  0  0  0
 13 18  1  0  0  0  0
 13 19  2  0  0  0  0
 14 16  1  0  0  0  0
 15 17  2  0  0  0  0
 18 31  1  0  0  0  0
 19 20  1  0  0  0  0
 20 22  2  0  0  0  0
 21 23  1  0  0  0  0
 21 26  1  0  0  0  0
 21 32  2  0  0  0  0
 24 25  1  0  0  0  0
 24 26  2  0  0  0  0
 24 33  1  0  0  0  0
 27 35  1  0  0  0  0
 28 36  1  0  0  0  0
 29 37  1  0  0  0  0
 30 38  1  0  0  0  0
 32 34  1  0  0  0  0
 33 34  2  0  0  0  0
M  END
> <PUBCHEM_COMPOUND_ID_TYPE>
0

> <PUBCHEM_TOTAL_CHARGE>
0

> <PUBCHEM_SUBSTANCE_ID>
310943418

> <PUBCHEM_SUBSTANCE_VERSION>
1

> <PUBCHEM_EXT_DATASOURCE_NAME>
4488

> <PUBCHEM_EXT_DATASOURCE_REGID>
SCHEMBL16121482

> <PUBCHEM_SUBSTANCE_COMMENT>
InChI=1S/C27H29F3N6O2/c1-18-23(16-22(17-32-18)33-26(37)19-3-2-4-21(13-19)27(28,29)30)20-14-24(35-7-5-31-6-8-35)34-25(15-20)36-9-11-38-12-10-36/h2-4,13-17,31H,5-12H2,1H3,(H,33,37)
InChIKey=AUZTXNXFVOPUFB-UHFFFAOYSA-N

> <PUBCHEM_SUBSTANCE_SYNONYM>
SCHEMBL16121482

> <PUBCHEM_XREF_EXT_ID>
SCHEMBL16121482

> <PUBCHEM_EXT_DATASOURCE_URL>
https://www.surechembl.org/

> <PUBCHEM_EXT_SUBSTANCE_URL>
https://www.surechembl.org/chemical/SCHEMBL16121482

> <PUBCHEM_CID_ASSOCIATIONS>
117609842  1

> <PUBCHEM_COORDINATE_TYPE>
1
3

$$$$
