310948882
  -OEChem-07211613022D

 20 20  0     1  0  0  0  0  0999 V2000
    0.3470    1.4747    0.0000 O   0  0  0  0  0  0  0  0  0  0  0  0
    1.8121   -0.2024    0.0000 O   0  0  0  0  0  0  0  0  0  0  0  0
    0.3470   -1.0507    0.0000 O   0  0  0  0  0  0  0  0  0  0  0  0
    1.9278    1.1856    0.0000 O   0  0  0  0  0  0  0  0  0  0  0  0
   -1.8314    1.0507    0.0000 O   0  0  0  0  0  0  0  0  0  0  0  0
    3.2387   -0.2024    0.0000 O   0  0  0  0  0  0  0  0  0  0  0  0
    1.0410   -2.2459    0.0000 O   0  0  0  0  0  0  0  0  0  0  0  0
   -2.5640    2.2459    0.0000 O   0  0  0  0  0  0  0  0  0  0  0  0
    1.0603    0.2217    0.0000 C   0  0  3  0  0  0  0  0  0  0  0  0
    0.3662   -0.1831    0.0000 C   0  0  3  0  0  0  0  0  0  0  0  0
    1.0795    1.0699    0.0000 C   0  0  3  0  0  0  0  0  0  0  0  0
   -0.3662    1.0699    0.0000 C   0  0  3  0  0  0  0  0  0  0  0  0
   -0.3662    0.2217    0.0000 C   0  0  0  0  0  0  0  0  0  0  0  0
   -1.1374    1.4747    0.0000 C   0  0  0  0  0  0  0  0  0  0  0  0
    2.5447    0.2024    0.0000 C   0  0  0  0  0  0  0  0  0  0  0  0
    1.0603   -1.4747    0.0000 C   0  0  0  0  0  0  0  0  0  0  0  0
   -2.5447    1.4555    0.0000 C   0  0  0  0  0  0  0  0  0  0  0  0
    2.5254    1.0121    0.0000 C   0  0  0  0  0  0  0  0  0  0  0  0
    1.7543   -1.1085    0.0000 C   0  0  0  0  0  0  0  0  0  0  0  0
   -3.2387    1.0314    0.0000 C   0  0  0  0  0  0  0  0  0  0  0  0
  1 11  1  0  0  0  0
  1 12  1  0  0  0  0
  9  2  1  1  0  0  0
  2 15  1  0  0  0  0
 10  3  1  1  0  0  0
  3 16  1  0  0  0  0
 11  4  1  6  0  0  0
  5 14  1  0  0  0  0
  5 17  1  0  0  0  0
  6 15  2  0  0  0  0
  7 16  2  0  0  0  0
  8 17  2  0  0  0  0
  9 10  1  0  0  0  0
  9 11  1  0  0  0  0
 10 13  1  0  0  0  0
 12 13  1  0  0  0  0
 12 14  1  1  0  0  0
 15 18  1  0  0  0  0
 16 19  1  0  0  0  0
 17 20  1  0  0  0  0
M  END
> <PUBCHEM_COMPOUND_ID_TYPE>
0

> <PUBCHEM_TOTAL_CHARGE>
0

> <PUBCHEM_SUBSTANCE_ID>
310948882

> <PUBCHEM_SUBSTANCE_VERSION>
1

> <PUBCHEM_EXT_DATASOURCE_NAME>
4488

> <PUBCHEM_EXT_DATASOURCE_REGID>
SCHEMBL16127067

> <PUBCHEM_SUBSTANCE_COMMENT>
InChI=1S/C12H18O8/c1-6(13)17-5-9-4-10(18-7(2)14)11(12(16)20-9)19-8(3)15/h9-12,16H,4-5H2,1-3H3/t9-,10-,11-,12-/m0/s1
InChIKey=PRZNRDSMJYOYKG-BJDJZHNGSA-N

> <PUBCHEM_SUBSTANCE_SYNONYM>
SCHEMBL16127067

> <PUBCHEM_XREF_EXT_ID>
SCHEMBL16127067

> <PUBCHEM_EXT_DATASOURCE_URL>
https://www.surechembl.org/

> <PUBCHEM_EXT_SUBSTANCE_URL>
https://www.surechembl.org/chemical/SCHEMBL16127067

> <PUBCHEM_CID_ASSOCIATIONS>
117614412  1

> <PUBCHEM_COORDINATE_TYPE>
1
3

> <PUBCHEM_BONDANNOTATIONS>
12  14  5
9  2  5
10  3  5
11  4  6

$$$$
