310936218
  -OEChem-07211613022D

 35 38  0     0  0  0  0  0  0999 V2000
    3.4979    0.0000    0.0000 F   0  0  0  0  0  0  0  0  0  0  0  0
    0.8307   -8.7447    0.0000 F   0  0  0  0  0  0  0  0  0  0  0  0
    3.3230   -5.7716    0.0000 O   0  0  0  0  0  0  0  0  0  0  0  0
    1.0931   -4.1538    0.0000 O   0  0  0  0  0  0  0  0  0  0  0  0
    5.6841   -2.0988    0.0000 O   0  0  0  0  0  0  0  0  0  0  0  0
    4.4161   -2.2737    0.0000 O   0  0  0  0  0  0  0  0  0  0  0  0
    4.9408    0.0000    0.0000 O   0  0  0  0  0  0  0  0  0  0  0  0
    5.6404   -1.2680    0.0000 O   0  0  0  0  0  0  0  0  0  0  0  0
    0.7870   -5.5529    0.0000 N   0  0  0  0  0  0  0  0  0  0  0  0
    2.7546   -4.5473    0.0000 C   0  0  0  0  0  0  0  0  0  0  0  0
    2.1862   -5.1157    0.0000 C   0  0  0  0  0  0  0  0  0  0  0  0
    3.4979   -4.9845    0.0000 C   0  0  0  0  0  0  0  0  0  0  0  0
    2.4923   -5.9027    0.0000 C   0  0  0  0  0  0  0  0  0  0  0  0
    3.4979   -3.3230    0.0000 C   0  0  0  0  0  0  0  0  0  0  0  0
    2.7983   -3.7166    0.0000 C   0  0  0  0  0  0  0  0  0  0  0  0
    4.2412   -3.7602    0.0000 C   0  0  0  0  0  0  0  0  0  0  0  0
    4.2412   -4.5473    0.0000 C   0  0  0  0  0  0  0  0  0  0  0  0
    2.0550   -6.6023    0.0000 C   0  0  0  0  0  0  0  0  0  0  0  0
    1.3554   -4.9408    0.0000 C   0  0  0  0  0  0  0  0  0  0  0  0
    3.4979   -2.4923    0.0000 C   0  0  0  0  0  0  0  0  0  0  0  0
    4.9408   -3.3230    0.0000 C   0  0  0  0  0  0  0  0  0  0  0  0
    4.1975   -2.0550    0.0000 C   0  0  0  0  0  0  0  0  0  0  0  0
    2.4923   -7.3019    0.0000 C   0  0  0  0  0  0  0  0  0  0  0  0
    1.2680   -6.6023    0.0000 C   0  0  0  0  0  0  0  0  0  0  0  0
    2.7546   -2.0550    0.0000 C   0  0  0  0  0  0  0  0  0  0  0  0
    4.1975   -1.2680    0.0000 C   0  0  0  0  0  0  0  0  0  0  0  0
    3.4979   -0.8307    0.0000 C   0  0  0  0  0  0  0  0  0  0  0  0
    2.7546   -1.2680    0.0000 C   0  0  0  0  0  0  0  0  0  0  0  0
    4.9408   -2.5360    0.0000 C   0  0  0  0  0  0  0  0  0  0  0  0
    2.0550   -8.0452    0.0000 C   0  0  0  0  0  0  0  0  0  0  0  0
    0.8307   -7.3019    0.0000 C   0  0  0  0  0  0  0  0  0  0  0  0
    4.9408   -0.8307    0.0000 C   0  0  0  0  0  0  0  0  0  0  0  0
    1.2680   -8.0452    0.0000 C   0  0  0  0  0  0  0  0  0  0  0  0
    0.0000   -5.3780    0.0000 C   0  0  0  0  0  0  0  0  0  0  0  0
    5.8590   -1.4429    0.0000 C   0  0  0  0  0  0  0  0  0  0  0  0
  1 27  1  0  0  0  0
  2 33  1  0  0  0  0
  3 12  1  0  0  0  0
  3 13  1  0  0  0  0
  4 19  2  0  0  0  0
  5 29  1  0  0  0  0
  5 35  1  0  0  0  0
  6 29  2  0  0  0  0
  7 32  2  0  0  0  0
  8 32  1  0  0  0  0
  9 19  1  0  0  0  0
  9 34  1  0  0  0  0
 10 11  1  0  0  0  0
 10 12  2  0  0  0  0
 10 15  1  0  0  0  0
 11 13  2  0  0  0  0
 11 19  1  0  0  0  0
 12 17  1  0  0  0  0
 13 18  1  0  0  0  0
 14 15  2  0  0  0  0
 14 16  1  0  0  0  0
 14 20  1  0  0  0  0
 16 17  2  0  0  0  0
 16 21  1  0  0  0  0
 18 23  2  0  0  0  0
 18 24  1  0  0  0  0
 20 22  2  0  0  0  0
 20 25  1  0  0  0  0
 21 29  1  0  0  0  0
 22 26  1  0  0  0  0
 23 30  1  0  0  0  0
 24 31  2  0  0  0  0
 25 28  2  0  0  0  0
 26 27  2  0  0  0  0
 26 32  1  0  0  0  0
 27 28  1  0  0  0  0
 30 33  2  0  0  0  0
 31 33  1  0  0  0  0
M  END
> <PUBCHEM_COMPOUND_ID_TYPE>
0

> <PUBCHEM_TOTAL_CHARGE>
0

> <PUBCHEM_SUBSTANCE_ID>
310936218

> <PUBCHEM_SUBSTANCE_VERSION>
1

> <PUBCHEM_EXT_DATASOURCE_NAME>
4488

> <PUBCHEM_EXT_DATASOURCE_REGID>
SCHEMBL16113830

> <PUBCHEM_SUBSTANCE_COMMENT>
InChI=1S/C26H19F2NO6/c1-29-25(31)23-19-12-17(14-5-8-20(28)18(9-14)26(32)33)15(11-22(30)34-2)10-21(19)35-24(23)13-3-6-16(27)7-4-13/h3-10,12H,11H2,1-2H3,(H,29,31)(H,32,33)
InChIKey=KJJMXHFLEMRUTG-UHFFFAOYSA-N

> <PUBCHEM_SUBSTANCE_SYNONYM>
SCHEMBL16113830

> <PUBCHEM_XREF_EXT_ID>
SCHEMBL16113830

> <PUBCHEM_EXT_DATASOURCE_URL>
https://www.surechembl.org/

> <PUBCHEM_EXT_SUBSTANCE_URL>
https://www.surechembl.org/chemical/SCHEMBL16113830

> <PUBCHEM_CID_ASSOCIATIONS>
117604171  1

> <PUBCHEM_COORDINATE_TYPE>
1
3

$$$$
