310938668
  -OEChem-07211613022D

 20 19  0     0  0  0  0  0  0999 V2000
   -3.1471   -7.7635    0.0000 O   0  0  0  0  0  0  0  0  0  0  0  0
   -1.7182   -7.7635    0.0000 O   0  0  0  0  0  0  0  0  0  0  0  0
   -2.4326   -7.3510    0.0000 C   0  0  0  0  0  0  0  0  0  0  0  0
   -2.4326   -6.5260    0.0000 C   0  0  0  0  0  0  0  0  0  0  0  0
   -4.4951   -0.0957    0.0000 C   0  0  0  0  0  0  0  0  0  0  0  0
   -4.0826   -0.8102    0.0000 C   0  0  0  0  0  0  0  0  0  0  0  0
   -4.9076    0.6188    0.0000 C   0  0  0  0  0  0  0  0  0  0  0  0
   -3.6701   -1.5247    0.0000 C   0  0  0  0  0  0  0  0  0  0  0  0
   -2.8451   -5.8115    0.0000 C   0  0  0  0  0  0  0  0  0  0  0  0
   -3.2576   -2.2391    0.0000 C   0  0  0  0  0  0  0  0  0  0  0  0
   -2.4326   -5.0970    0.0000 C   0  0  0  0  0  0  0  0  0  0  0  0
   -5.3201    1.3332    0.0000 C   0  0  0  0  0  0  0  0  0  0  0  0
   -2.8451   -2.9536    0.0000 C   0  0  0  0  0  0  0  0  0  0  0  0
   -2.8451   -4.3825    0.0000 C   0  0  0  0  0  0  0  0  0  0  0  0
   -2.4326   -3.6681    0.0000 C   0  0  0  0  0  0  0  0  0  0  0  0
   -5.7326    2.0477    0.0000 C   0  0  0  0  0  0  0  0  0  0  0  0
   -6.1451    2.7622    0.0000 C   0  0  0  0  0  0  0  0  0  0  0  0
   -6.5576    3.4766    0.0000 C   0  0  0  0  0  0  0  0  0  0  0  0
   -6.9701    4.1911    0.0000 C   0  0  0  0  0  0  0  0  0  0  0  0
   -7.3826    4.9056    0.0000 C   0  0  0  0  0  0  0  0  0  0  0  0
  1  3  2  0  0  0  0
  2  3  1  0  0  0  0
  3  4  1  0  0  0  0
  4  9  1  0  0  0  0
  5  6  1  0  0  0  0
  5  7  3  0  0  0  0
  6  8  3  0  0  0  0
  7 12  1  0  0  0  0
  8 10  1  0  0  0  0
  9 11  1  0  0  0  0
 10 13  3  0  0  0  0
 11 14  1  0  0  0  0
 12 16  3  0  0  0  0
 13 15  1  0  0  0  0
 14 15  1  0  0  0  0
 16 17  1  0  0  0  0
 17 18  3  0  0  0  0
 18 19  1  0  0  0  0
 19 20  3  0  0  0  0
M  END
> <PUBCHEM_COMPOUND_ID_TYPE>
0

> <PUBCHEM_TOTAL_CHARGE>
0

> <PUBCHEM_SUBSTANCE_ID>
310938668

> <PUBCHEM_SUBSTANCE_VERSION>
1

> <PUBCHEM_EXT_DATASOURCE_NAME>
4488

> <PUBCHEM_EXT_DATASOURCE_REGID>
SCHEMBL16116582

> <PUBCHEM_SUBSTANCE_COMMENT>
InChI=1S/C18H12O2/c1-2-3-4-5-6-7-8-9-10-11-12-13-14-15-16-17-18(19)20/h1H,13-17H2,(H,19,20)
InChIKey=MCZKNNWUJLKINZ-UHFFFAOYSA-N

> <PUBCHEM_SUBSTANCE_SYNONYM>
SCHEMBL16116582

> <PUBCHEM_XREF_EXT_ID>
SCHEMBL16116582

> <PUBCHEM_EXT_DATASOURCE_URL>
https://www.surechembl.org/

> <PUBCHEM_EXT_SUBSTANCE_URL>
https://www.surechembl.org/chemical/SCHEMBL16116582

> <PUBCHEM_CID_ASSOCIATIONS>
117606100  1

> <PUBCHEM_COORDINATE_TYPE>
1
3

$$$$
