310929453
  -OEChem-07211613022D

 72 81  0     1  0  0  0  0  0999 V2000
    9.2539    6.3698    0.0000 S   0  0  0  0  0  0  0  0  0  0  0  0
    8.1077    5.1829    0.0000 O   0  0  0  0  0  0  0  0  0  0  0  0
    5.4388    6.0031    0.0000 O   0  0  0  0  0  0  0  0  0  0  0  0
    5.4957    2.3479    0.0000 O   0  0  0  0  0  0  0  0  0  0  0  0
    9.0543    5.5693    0.0000 O   0  0  0  0  0  0  0  0  0  0  0  0
    9.4535    7.1703    0.0000 O   0  0  0  0  0  0  0  0  0  0  0  0
    4.0668    5.6479    0.0000 O   0  0  0  0  0  0  0  0  0  0  0  0
    2.6680    2.4606    0.0000 O   0  0  0  0  0  0  0  0  0  0  0  0
    6.9246   -0.1271    0.0000 O   0  0  0  0  0  0  0  0  0  0  0  0
    1.9233    3.5854    0.0000 O   0  0  0  0  0  0  0  0  0  0  0  0
    6.7442    5.4219    0.0000 N   0  0  0  0  0  0  0  0  0  0  0  0
    4.7812    4.4104    0.0000 N   0  0  0  0  0  0  0  0  0  0  0  0
    8.4534    6.5694    0.0000 N   0  0  0  0  0  0  0  0  0  0  0  0
    3.3523    3.5854    0.0000 N   0  0  0  0  0  0  0  0  0  0  0  0
    6.9246    2.3479    0.0000 N   0  0  0  0  0  0  0  0  0  0  0  0
    8.3536   -1.7771    0.0000 N   0  0  0  0  0  0  0  0  0  0  0  0
    7.0798    6.1756    0.0000 C   0  0  3  0  0  0  0  0  0  0  0  0
    6.3958    6.6369    0.0000 C   0  0  3  0  0  0  0  0  0  0  0  0
    7.1373    6.9985    0.0000 C   0  0  0  0  0  0  0  0  0  0  0  0
    7.8803    5.9760    0.0000 C   0  0  0  0  0  0  0  0  0  0  0  0
    5.5882    4.5820    0.0000 C   0  0  3  0  0  0  0  0  0  0  0  0
    5.9238    5.3356    0.0000 C   0  0  0  0  0  0  0  0  0  0  0  0
    5.5728    6.6944    0.0000 C   0  0  0  0  0  0  0  0  0  0  0  0
    5.4957    3.1729    0.0000 C   0  0  3  0  0  0  0  0  0  0  0  0
    6.0007    3.8675    0.0000 C   0  0  0  0  0  0  0  0  0  0  0  0
   10.0544    6.1703    0.0000 C   0  0  0  0  0  0  0  0  0  0  0  0
    4.7812    3.5854    0.0000 C   0  0  0  0  0  0  0  0  0  0  0  0
    4.0668    4.8229    0.0000 C   0  0  0  0  0  0  0  0  0  0  0  0
    3.3523    4.4104    0.0000 C   0  0  3  0  0  0  0  0  0  0  0  0
    9.9968    5.3473    0.0000 C   0  0  0  0  0  0  0  0  0  0  0  0
   10.7383    5.7089    0.0000 C   0  0  0  0  0  0  0  0  0  0  0  0
    5.2112    7.4359    0.0000 C   0  0  0  0  0  0  0  0  0  0  0  0
    2.6378    4.8229    0.0000 C   0  0  0  0  0  0  0  0  0  0  0  0
    6.2102    1.9354    0.0000 C   0  0  0  0  0  0  0  0  0  0  0  0
   10.3899    6.9239    0.0000 C   0  0  0  0  0  0  0  0  0  0  0  0
    6.2102    1.1104    0.0000 C   0  0  0  0  0  0  0  0  0  0  0  0
    2.6378    3.1729    0.0000 C   0  0  0  0  0  0  0  0  0  0  0  0
    6.9246    0.6979    0.0000 C   0  0  0  0  0  0  0  0  0  0  0  0
    2.5516    5.6434    0.0000 C   0  0  0  0  0  0  0  0  0  0  0  0
    1.8841    4.4874    0.0000 C   0  0  0  0  0  0  0  0  0  0  0  0
    7.6391    1.9354    0.0000 C   0  0  0  0  0  0  0  0  0  0  0  0
    7.6391    1.1104    0.0000 C   0  0  0  0  0  0  0  0  0  0  0  0
    3.3523    1.9354    0.0000 C   0  0  3  0  0  0  0  0  0  0  0  0
    3.3523    1.1104    0.0000 C   0  0  3  0  0  0  0  0  0  0  0  0
    5.4957    0.6979    0.0000 C   0  0  0  0  0  0  0  0  0  0  0  0
    1.7446    5.8150    0.0000 C   0  0  0  0  0  0  0  0  0  0  0  0
    1.3321    5.1005    0.0000 C   0  0  0  0  0  0  0  0  0  0  0  0
    2.5677    2.1904    0.0000 C   0  0  0  0  0  0  0  0  0  0  0  0
    8.3536    2.3479    0.0000 C   0  0  0  0  0  0  0  0  0  0  0  0
    8.3536    0.6979    0.0000 C   0  0  0  0  0  0  0  0  0  0  0  0
    2.5677    0.8555    0.0000 C   0  0  0  0  0  0  0  0  0  0  0  0
    4.0668    0.6979    0.0000 C   0  0  0  0  0  0  0  0  0  0  0  0
    9.3640   -2.3604    0.0000 C   0  0  0  0  0  0  0  0  0  0  0  0
    2.0827    1.5229    0.0000 C   0  0  0  0  0  0  0  0  0  0  0  0
    5.4957   -0.1271    0.0000 C   0  0  0  0  0  0  0  0  0  0  0  0
    9.0681    1.9354    0.0000 C   0  0  0  0  0  0  0  0  0  0  0  0
    9.0681    1.1104    0.0000 C   0  0  0  0  0  0  0  0  0  0  0  0
    7.6391   -0.5396    0.0000 C   0  0  0  0  0  0  0  0  0  0  0  0
    9.1505   -1.5635    0.0000 C   0  0  0  0  0  0  0  0  0  0  0  0
    8.5671   -2.5739    0.0000 C   0  0  0  0  0  0  0  0  0  0  0  0
    4.0668   -0.1271    0.0000 C   0  0  0  0  0  0  0  0  0  0  0  0
    7.6391   -1.3646    0.0000 C   0  0  0  0  0  0  0  0  0  0  0  0
    9.5775   -3.1573    0.0000 C   0  0  0  0  0  0  0  0  0  0  0  0
   10.1609   -2.1469    0.0000 C   0  0  0  0  0  0  0  0  0  0  0  0
    4.7812   -0.5396    0.0000 C   0  0  0  0  0  0  0  0  0  0  0  0
   10.3744   -2.9438    0.0000 C   0  0  0  0  0  0  0  0  0  0  0  0
    6.1272    5.8568    0.0000 H   0  0  0  0  0  0  0  0  0  0  0  0
    6.4121    4.6251    0.0000 H   0  0  0  0  0  0  0  0  0  0  0  0
    6.2803    2.9179    0.0000 H   0  0  0  0  0  0  0  0  0  0  0  0
    3.3523    5.2354    0.0000 H   0  0  0  0  0  0  0  0  0  0  0  0
    3.0399    2.6990    0.0000 H   0  0  0  0  0  0  0  0  0  0  0  0
    3.2660    0.2900    0.0000 H   0  0  0  0  0  0  0  0  0  0  0  0
  1  5  2  0  0  0  0
  1  6  2  0  0  0  0
  1 13  1  0  0  0  0
  1 26  1  0  0  0  0
  2 20  2  0  0  0  0
  3 22  2  0  0  0  0
  4 24  1  0  0  0  0
  4 34  1  0  0  0  0
  7 28  2  0  0  0  0
  8 37  1  0  0  0  0
  8 43  1  0  0  0  0
  9 38  1  0  0  0  0
  9 58  1  0  0  0  0
 10 37  2  0  0  0  0
 17 11  1  1  0  0  0
 11 22  1  0  0  0  0
 12 21  1  0  0  0  0
 12 27  1  0  0  0  0
 12 28  1  0  0  0  0
 13 20  1  0  0  0  0
 14 29  1  0  0  0  0
 14 37  1  0  0  0  0
 15 34  2  0  0  0  0
 15 41  1  0  0  0  0
 16 59  1  0  0  0  0
 16 60  1  0  0  0  0
 16 62  1  0  0  0  0
 17 18  1  0  0  0  0
 17 19  1  0  0  0  0
 17 20  1  6  0  0  0
 18 19  1  0  0  0  0
 18 23  1  6  0  0  0
 18 67  1  1  0  0  0
 21 22  1  0  0  0  0
 21 25  1  0  0  0  0
 21 68  1  1  0  0  0
 23 32  2  0  0  0  0
 24 25  1  0  0  0  0
 24 27  1  0  0  0  0
 24 69  1  6  0  0  0
 26 30  1  0  0  0  0
 26 31  1  0  0  0  0
 26 35  1  0  0  0  0
 28 29  1  0  0  0  0
 29 33  1  0  0  0  0
 29 70  1  6  0  0  0
 30 31  1  0  0  0  0
 33 39  1  0  0  0  0
 33 40  1  0  0  0  0
 34 36  1  0  0  0  0
 36 38  2  0  0  0  0
 36 45  1  0  0  0  0
 38 42  1  0  0  0  0
 39 46  1  0  0  0  0
 40 47  1  0  0  0  0
 41 42  2  0  0  0  0
 41 49  1  0  0  0  0
 42 50  1  0  0  0  0
 43 44  1  0  0  0  0
 43 48  1  0  0  0  0
 43 71  1  6  0  0  0
 44 51  1  0  0  0  0
 44 52  1  0  0  0  0
 44 72  1  1  0  0  0
 45 55  1  0  0  0  0
 46 47  1  0  0  0  0
 48 54  1  0  0  0  0
 49 56  2  0  0  0  0
 50 57  2  0  0  0  0
 51 54  1  0  0  0  0
 52 61  1  0  0  0  0
 53 59  1  0  0  0  0
 53 60  1  0  0  0  0
 53 63  1  0  0  0  0
 53 64  1  0  0  0  0
 55 65  2  0  0  0  0
 56 57  1  0  0  0  0
 58 62  1  0  0  0  0
 61 65  1  0  0  0  0
 63 66  1  0  0  0  0
 64 66  1  0  0  0  0
M  END
> <PUBCHEM_COMPOUND_ID_TYPE>
0

> <PUBCHEM_TOTAL_CHARGE>
0

> <PUBCHEM_SUBSTANCE_ID>
310929453

> <PUBCHEM_SUBSTANCE_VERSION>
1

> <PUBCHEM_EXT_DATASOURCE_NAME>
4488

> <PUBCHEM_EXT_DATASOURCE_REGID>
SCHEMBL16106627

> <PUBCHEM_SUBSTANCE_COMMENT>
InChI=1S/C50H66N6O9S/c1-3-34-28-50(34,46(59)54-66(61,62)48(2)23-24-48)53-43(57)39-27-35-29-56(39)45(58)41(33-14-7-8-15-33)52-47(60)65-40-20-11-16-32(40)13-5-4-6-18-37-42(36-17-9-10-19-38(36)51-44(37)64-35)63-26-25-55-30-49(31-55)21-12-22-49/h3-4,6,9-10,17,19,32-35,39-41H,1,5,7-8,11-16,18,20-31H2,2H3,(H,52,60)(H,53,57)(H,54,59)/t32-,34-,35-,39+,40-,41+,50-/m1/s1
InChIKey=IVSMDLMXUQIZJV-ZKLFGUGWSA-N

> <PUBCHEM_SUBSTANCE_SYNONYM>
SCHEMBL16106627

> <PUBCHEM_XREF_EXT_ID>
SCHEMBL16106627

> <PUBCHEM_EXT_DATASOURCE_URL>
https://www.surechembl.org/

> <PUBCHEM_EXT_SUBSTANCE_URL>
https://www.surechembl.org/chemical/SCHEMBL16106627

> <PUBCHEM_CID_ASSOCIATIONS>
117598798  1

> <PUBCHEM_COORDINATE_TYPE>
1
3

> <PUBCHEM_BONDANNOTATIONS>
17  11  5
17  20  6
18  23  6
18  67  5
21  68  5
24  69  6
29  70  6
43  71  6
44  72  5
65  61  3

$$$$
