310931104
  -OEChem-07211613022D

 30 33  0     0  0  0  0  0  0999 V2000
    2.4265   -6.9399    0.0000 S   0  0  0  0  0  0  0  0  0  0  0  0
    3.2030   -6.4546    0.0000 O   0  0  0  0  0  0  0  0  0  0  0  0
    1.7471   -7.3282    0.0000 O   0  0  0  0  0  0  0  0  0  0  0  0
    4.0281   -9.7062    0.0000 O   0  0  0  0  0  0  0  0  0  0  0  0
    0.0000   -2.7177    0.0000 O   0  0  0  0  0  0  0  0  0  0  0  0
    2.4265   -1.3103    0.0000 N   0  0  0  0  0  0  0  0  0  0  0  0
    3.6398   -7.6194    0.0000 N   0  0  0  0  0  0  0  0  0  0  0  0
    2.5722    0.0000    0.0000 N   0  0  0  0  0  0  0  0  0  0  0  0
    1.2133   -3.3972    0.0000 N   0  0  0  0  0  0  0  0  0  0  0  0
    2.0383   -6.2119    0.0000 C   0  0  0  0  0  0  0  0  0  0  0  0
    2.8148   -7.6194    0.0000 C   0  0  0  0  0  0  0  0  0  0  0  0
    2.4751   -5.5325    0.0000 C   0  0  0  0  0  0  0  0  0  0  0  0
    1.2133   -6.2119    0.0000 C   0  0  0  0  0  0  0  0  0  0  0  0
    2.4265   -8.2988    0.0000 C   0  0  0  0  0  0  0  0  0  0  0  0
    2.0383   -0.6309    0.0000 C   0  0  0  0  0  0  0  0  0  0  0  0
    1.2133   -1.9898    0.0000 C   0  0  0  0  0  0  0  0  0  0  0  0
    1.2133   -4.8045    0.0000 C   0  0  0  0  0  0  0  0  0  0  0  0
    2.0383   -1.9898    0.0000 C   0  0  0  0  0  0  0  0  0  0  0  0
    2.0383   -4.8045    0.0000 C   0  0  0  0  0  0  0  0  0  0  0  0
    0.8250   -5.5325    0.0000 C   0  0  0  0  0  0  0  0  0  0  0  0
    0.8250   -2.7177    0.0000 C   0  0  0  0  0  0  0  0  0  0  0  0
    3.6398   -8.9782    0.0000 C   0  0  0  0  0  0  0  0  0  0  0  0
    4.0766   -8.2988    0.0000 C   0  0  0  0  0  0  0  0  0  0  0  0
    2.8148   -9.0267    0.0000 C   0  0  0  0  0  0  0  0  0  0  0  0
    1.2133   -0.6309    0.0000 C   0  0  0  0  0  0  0  0  0  0  0  0
    0.8250   -1.3103    0.0000 C   0  0  0  0  0  0  0  0  0  0  0  0
    3.2516   -1.1162    0.0000 C   0  0  0  0  0  0  0  0  0  0  0  0
    0.8250   -4.1252    0.0000 C   0  0  0  0  0  0  0  0  0  0  0  0
    3.3001   -0.3397    0.0000 C   0  0  0  0  0  0  0  0  0  0  0  0
    4.8531   -9.7062    0.0000 C   0  0  0  0  0  0  0  0  0  0  0  0
  1  2  2  0  0  0  0
  1  3  2  0  0  0  0
  1 10  1  0  0  0  0
  1 11  1  0  0  0  0
  4 22  1  0  0  0  0
  4 30  1  0  0  0  0
  5 21  2  0  0  0  0
  6 15  1  0  0  0  0
  6 18  1  0  0  0  0
  6 27  1  0  0  0  0
  7 11  1  0  0  0  0
  7 23  2  0  0  0  0
  8 15  2  0  0  0  0
  8 29  1  0  0  0  0
  9 21  1  0  0  0  0
  9 28  1  0  0  0  0
 10 12  2  0  0  0  0
 10 13  1  0  0  0  0
 11 14  2  0  0  0  0
 12 19  1  0  0  0  0
 13 20  2  0  0  0  0
 14 24  1  0  0  0  0
 15 25  1  0  0  0  0
 16 18  2  0  0  0  0
 16 21  1  0  0  0  0
 16 26  1  0  0  0  0
 17 19  2  0  0  0  0
 17 20  1  0  0  0  0
 17 28  1  0  0  0  0
 22 23  1  0  0  0  0
 22 24  2  0  0  0  0
 25 26  2  0  0  0  0
 27 29  2  0  0  0  0
M  END
> <PUBCHEM_COMPOUND_ID_TYPE>
0

> <PUBCHEM_TOTAL_CHARGE>
0

> <PUBCHEM_SUBSTANCE_ID>
310931104

> <PUBCHEM_SUBSTANCE_VERSION>
1

> <PUBCHEM_EXT_DATASOURCE_NAME>
4488

> <PUBCHEM_EXT_DATASOURCE_REGID>
SCHEMBL16108408

> <PUBCHEM_SUBSTANCE_COMMENT>
InChI=1S/C21H18N4O4S/c1-29-17-5-9-20(23-13-17)30(27,28)18-6-2-15(3-7-18)12-24-21(26)16-4-8-19-22-10-11-25(19)14-16/h2-11,13-14H,12H2,1H3,(H,24,26)
InChIKey=RLTCMCQUOIDLNH-UHFFFAOYSA-N

> <PUBCHEM_SUBSTANCE_SYNONYM>
SCHEMBL16108408

> <PUBCHEM_XREF_EXT_ID>
SCHEMBL16108408

> <PUBCHEM_EXT_DATASOURCE_URL>
https://www.surechembl.org/

> <PUBCHEM_EXT_SUBSTANCE_URL>
https://www.surechembl.org/chemical/SCHEMBL16108408

> <PUBCHEM_CID_ASSOCIATIONS>
90013063  1

> <PUBCHEM_COORDINATE_TYPE>
1
3

$$$$
