310942673
  -OEChem-07211613022D

 16 15  0     0  0  0  0  0  0999 V2000
    2.3204    0.8271    0.0000 I   0  0  0  0  0  0  0  0  0  0  0  0
   -2.3204    1.2370    0.0000 I   0  0  0  0  0  0  0  0  0  0  0  0
    0.3586   -0.4319    0.0000 O   0  0  0  0  0  0  0  0  0  0  0  0
   -1.0760   -0.4319    0.0000 O   0  0  0  0  0  0  0  0  0  0  0  0
    1.8080    2.0569    0.0000 O   0  0  0  0  0  0  0  0  0  0  0  0
   -0.3586    0.8271    0.0000 N   0  0  0  0  0  0  0  0  0  0  0  0
   -0.3586    0.0073    0.0000 C   0  0  0  0  0  0  0  0  0  0  0  0
    0.3733   -1.2810    0.0000 C   0  0  0  0  0  0  0  0  0  0  0  0
    0.3586    1.2370    0.0000 C   0  0  0  0  0  0  0  0  0  0  0  0
   -1.0760    1.2370    0.0000 C   0  0  0  0  0  0  0  0  0  0  0  0
    1.1053    0.8271    0.0000 C   0  0  0  0  0  0  0  0  0  0  0  0
   -0.3586   -1.6909    0.0000 C   0  0  0  0  0  0  0  0  0  0  0  0
    1.1053   -1.6616    0.0000 C   0  0  0  0  0  0  0  0  0  0  0  0
    0.5783   -2.0569    0.0000 C   0  0  0  0  0  0  0  0  0  0  0  0
    1.7934    1.2224    0.0000 C   0  0  0  0  0  0  0  0  0  0  0  0
   -1.7641    0.8271    0.0000 C   0  0  0  0  0  0  0  0  0  0  0  0
  1 15  1  0  0  0  0
  2 16  1  0  0  0  0
  3  7  1  0  0  0  0
  3  8  1  0  0  0  0
  4  7  2  0  0  0  0
  5 15  2  0  0  0  0
  6  7  1  0  0  0  0
  6  9  1  0  0  0  0
  6 10  1  0  0  0  0
  8 12  1  0  0  0  0
  8 13  1  0  0  0  0
  8 14  1  0  0  0  0
  9 11  1  0  0  0  0
 10 16  1  0  0  0  0
 11 15  1  0  0  0  0
M  END
> <PUBCHEM_COMPOUND_ID_TYPE>
0

> <PUBCHEM_TOTAL_CHARGE>
0

> <PUBCHEM_SUBSTANCE_ID>
310942673

> <PUBCHEM_SUBSTANCE_VERSION>
1

> <PUBCHEM_EXT_DATASOURCE_NAME>
4488

> <PUBCHEM_EXT_DATASOURCE_REGID>
SCHEMBL16120719

> <PUBCHEM_SUBSTANCE_COMMENT>
InChI=1S/C10H17I2NO3/c1-10(2,3)16-9(15)13(7-5-11)6-4-8(12)14/h4-7H2,1-3H3
InChIKey=LCRHKMBXOIUHGJ-UHFFFAOYSA-N

> <PUBCHEM_SUBSTANCE_SYNONYM>
SCHEMBL16120719

> <PUBCHEM_XREF_EXT_ID>
SCHEMBL16120719

> <PUBCHEM_EXT_DATASOURCE_URL>
https://www.surechembl.org/

> <PUBCHEM_EXT_SUBSTANCE_URL>
https://www.surechembl.org/chemical/SCHEMBL16120719

> <PUBCHEM_CID_ASSOCIATIONS>
117609202  1

> <PUBCHEM_COORDINATE_TYPE>
1
3

$$$$
