310934907
  -OEChem-07211613022D

 25 27  0     0  0  0  0  0  0999 V2000
    6.6171   -0.7059    0.0000 F   0  0  0  0  0  0  0  0  0  0  0  0
    5.3819   -1.4558    0.0000 O   0  0  0  0  0  0  0  0  0  0  0  0
    5.3819   -2.8674    0.0000 O   0  0  0  0  0  0  0  0  0  0  0  0
    1.6543   -2.1616    0.0000 O   0  0  0  0  0  0  0  0  0  0  0  0
    4.1468   -2.1616    0.0000 C   0  0  0  0  0  0  0  0  0  0  0  0
    4.5658   -1.4337    0.0000 C   0  0  0  0  0  0  0  0  0  0  0  0
    4.9849   -2.1616    0.0000 C   0  0  0  0  0  0  0  0  0  0  0  0
    5.5584   -1.5881    0.0000 C   0  0  0  0  0  0  0  0  0  0  0  0
    3.7277   -2.8674    0.0000 C   0  0  0  0  0  0  0  0  0  0  0  0
    3.7277   -1.4558    0.0000 C   0  0  0  0  0  0  0  0  0  0  0  0
    4.1468   -0.7279    0.0000 C   0  0  0  0  0  0  0  0  0  0  0  0
    2.4704   -2.1616    0.0000 C   0  0  0  0  0  0  0  0  0  0  0  0
    5.7790   -0.7059    0.0000 C   0  0  0  0  0  0  0  0  0  0  0  0
    2.9115   -2.8674    0.0000 C   0  0  0  0  0  0  0  0  0  0  0  0
    2.9115   -1.4558    0.0000 C   0  0  0  0  0  0  0  0  0  0  0  0
    4.5438    0.0000    0.0000 C   0  0  0  0  0  0  0  0  0  0  0  0
    5.3599    0.0000    0.0000 C   0  0  0  0  0  0  0  0  0  0  0  0
    5.8010   -2.1395    0.0000 C   0  0  0  0  0  0  0  0  0  0  0  0
    1.2352   -2.8674    0.0000 C   0  0  0  0  0  0  0  0  0  0  0  0
    6.1981   -1.4558    0.0000 C   0  0  0  0  0  0  0  0  0  0  0  0
    0.3971   -2.8674    0.0000 C   0  0  0  0  0  0  0  0  0  0  0  0
    1.6322   -3.5733    0.0000 C   0  0  0  0  0  0  0  0  0  0  0  0
    0.0000   -3.5733    0.0000 C   0  0  0  0  0  0  0  0  0  0  0  0
    1.2352   -4.3012    0.0000 C   0  0  0  0  0  0  0  0  0  0  0  0
    0.3971   -4.3012    0.0000 C   0  0  0  0  0  0  0  0  0  0  0  0
  1 13  1  0  0  0  0
  2  7  1  0  0  0  0
  2 20  1  0  0  0  0
  3  7  2  0  0  0  0
  4 12  1  0  0  0  0
  4 19  1  0  0  0  0
  5  6  1  0  0  0  0
  5  7  1  0  0  0  0
  5  9  1  0  0  0  0
  5 10  1  0  0  0  0
  6  8  1  0  0  0  0
  6 11  2  0  0  0  0
  8 13  2  0  0  0  0
  8 18  1  0  0  0  0
  9 14  1  0  0  0  0
 10 15  1  0  0  0  0
 11 16  1  0  0  0  0
 12 14  1  0  0  0  0
 12 15  1  0  0  0  0
 13 17  1  0  0  0  0
 16 17  2  0  0  0  0
 19 21  2  0  0  0  0
 19 22  1  0  0  0  0
 21 23  1  0  0  0  0
 22 24  2  0  0  0  0
 23 25  2  0  0  0  0
 24 25  1  0  0  0  0
M  END
> <PUBCHEM_COMPOUND_ID_TYPE>
0

> <PUBCHEM_TOTAL_CHARGE>
0

> <PUBCHEM_SUBSTANCE_ID>
310934907

> <PUBCHEM_SUBSTANCE_VERSION>
1

> <PUBCHEM_EXT_DATASOURCE_NAME>
4488

> <PUBCHEM_EXT_DATASOURCE_REGID>
SCHEMBL16112420

> <PUBCHEM_SUBSTANCE_COMMENT>
InChI=1S/C21H23FO3/c1-15-18(9-6-10-19(15)22)21(20(23)24-2)13-11-17(12-14-21)25-16-7-4-3-5-8-16/h3-10,17H,11-14H2,1-2H3
InChIKey=JYRXJRJJYFQRRH-UHFFFAOYSA-N

> <PUBCHEM_SUBSTANCE_SYNONYM>
SCHEMBL16112420

> <PUBCHEM_XREF_EXT_ID>
SCHEMBL16112420

> <PUBCHEM_EXT_DATASOURCE_URL>
https://www.surechembl.org/

> <PUBCHEM_EXT_SUBSTANCE_URL>
https://www.surechembl.org/chemical/SCHEMBL16112420

> <PUBCHEM_CID_ASSOCIATIONS>
117603033  1

> <PUBCHEM_COORDINATE_TYPE>
1
3

$$$$
