310946152
  -OEChem-07211613022D

 41 48  0     0  0  0  0  0  0999 V2000
    2.9051  -12.5727    0.0000 O   0  0  0  0  0  0  0  0  0  0  0  0
   -0.3768  -12.4011    0.0000 N   0  0  0  0  0  0  0  0  0  0  0  0
   -2.8338  -14.0016    0.0000 C   0  0  0  0  0  0  0  0  0  0  0  0
   -2.0268  -13.8301    0.0000 C   0  0  0  0  0  0  0  0  0  0  0  0
   -1.6143  -14.5446    0.0000 C   0  0  0  0  0  0  0  0  0  0  0  0
   -2.9200  -14.8221    0.0000 C   0  0  0  0  0  0  0  0  0  0  0  0
   -2.1664  -15.1576    0.0000 C   0  0  0  0  0  0  0  0  0  0  0  0
   -0.7893  -13.1156    0.0000 C   0  0  0  0  0  0  0  0  0  0  0  0
   -1.6143  -13.1156    0.0000 C   0  0  0  0  0  0  0  0  0  0  0  0
    0.4482  -12.4011    0.0000 C   0  0  0  0  0  0  0  0  0  0  0  0
   -0.7893  -14.5446    0.0000 C   0  0  0  0  0  0  0  0  0  0  0  0
   -0.7893  -11.6867    0.0000 C   0  0  0  0  0  0  0  0  0  0  0  0
    1.6857  -13.1156    0.0000 C   0  0  0  0  0  0  0  0  0  0  0  0
   -0.3768  -13.8301    0.0000 C   0  0  0  0  0  0  0  0  0  0  0  0
   -3.5875  -15.3070    0.0000 C   0  0  0  0  0  0  0  0  0  0  0  0
    2.0982  -12.4011    0.0000 C   0  0  0  0  0  0  0  0  0  0  0  0
   -2.0801  -15.9781    0.0000 C   0  0  0  0  0  0  0  0  0  0  0  0
    2.2377  -13.7287    0.0000 C   0  0  0  0  0  0  0  0  0  0  0  0
    0.8607  -13.1156    0.0000 C   0  0  0  0  0  0  0  0  0  0  0  0
   -2.8338  -13.1766    0.0000 C   0  0  0  0  0  0  0  0  0  0  0  0
   -3.6588  -14.0016    0.0000 C   0  0  0  0  0  0  0  0  0  0  0  0
    2.9914  -13.3931    0.0000 C   0  0  0  0  0  0  0  0  0  0  0  0
   -0.5758  -10.8898    0.0000 C   0  0  0  0  0  0  0  0  0  0  0  0
    0.8607  -11.6867    0.0000 C   0  0  0  0  0  0  0  0  0  0  0  0
    1.6857  -11.6867    0.0000 C   0  0  0  0  0  0  0  0  0  0  0  0
   -3.5012  -16.1275    0.0000 C   0  0  0  0  0  0  0  0  0  0  0  0
   -2.7476  -16.4630    0.0000 C   0  0  0  0  0  0  0  0  0  0  0  0
   -1.5862  -11.9002    0.0000 C   0  0  0  0  0  0  0  0  0  0  0  0
    0.2211  -10.6763    0.0000 C   0  0  0  0  0  0  0  0  0  0  0  0
    2.1515  -14.5492    0.0000 C   0  0  0  0  0  0  0  0  0  0  0  0
    3.6588  -13.8781    0.0000 C   0  0  0  0  0  0  0  0  0  0  0  0
   -1.1592  -10.3064    0.0000 C   0  0  0  0  0  0  0  0  0  0  0  0
   -2.1696  -11.3168    0.0000 C   0  0  0  0  0  0  0  0  0  0  0  0
    2.8189  -15.0341    0.0000 C   0  0  0  0  0  0  0  0  0  0  0  0
   -1.9561  -10.5199    0.0000 C   0  0  0  0  0  0  0  0  0  0  0  0
    3.5726  -14.6985    0.0000 C   0  0  0  0  0  0  0  0  0  0  0  0
    0.8044  -11.2596    0.0000 C   0  0  0  0  0  0  0  0  0  0  0  0
    0.4346   -9.8794    0.0000 C   0  0  0  0  0  0  0  0  0  0  0  0
    1.6013  -11.0461    0.0000 C   0  0  0  0  0  0  0  0  0  0  0  0
    1.2315   -9.6658    0.0000 C   0  0  0  0  0  0  0  0  0  0  0  0
    1.8149  -10.2492    0.0000 C   0  0  0  0  0  0  0  0  0  0  0  0
  1 16  1  0  0  0  0
  1 22  1  0  0  0  0
  2  8  1  0  0  0  0
  2 10  1  0  0  0  0
  2 12  1  0  0  0  0
  3  4  1  0  0  0  0
  3  6  1  0  0  0  0
  3 20  1  0  0  0  0
  3 21  1  0  0  0  0
  4  5  2  0  0  0  0
  4  9  1  0  0  0  0
  5  7  1  0  0  0  0
  5 11  1  0  0  0  0
  6  7  2  0  0  0  0
  6 15  1  0  0  0  0
  7 17  1  0  0  0  0
  8  9  2  0  0  0  0
  8 14  1  0  0  0  0
 10 19  2  0  0  0  0
 10 24  1  0  0  0  0
 11 14  2  0  0  0  0
 12 23  2  0  0  0  0
 12 28  1  0  0  0  0
 13 16  2  0  0  0  0
 13 18  1  0  0  0  0
 13 19  1  0  0  0  0
 15 26  2  0  0  0  0
 16 25  1  0  0  0  0
 17 27  2  0  0  0  0
 18 22  2  0  0  0  0
 18 30  1  0  0  0  0
 22 31  1  0  0  0  0
 23 29  1  0  0  0  0
 23 32  1  0  0  0  0
 24 25  2  0  0  0  0
 26 27  1  0  0  0  0
 28 33  2  0  0  0  0
 29 37  2  0  0  0  0
 29 38  1  0  0  0  0
 30 34  2  0  0  0  0
 31 36  2  0  0  0  0
 32 35  2  0  0  0  0
 33 35  1  0  0  0  0
 34 36  1  0  0  0  0
 37 39  1  0  0  0  0
 38 40  2  0  0  0  0
 39 41  2  0  0  0  0
 40 41  1  0  0  0  0
M  END
> <PUBCHEM_COMPOUND_ID_TYPE>
0

> <PUBCHEM_TOTAL_CHARGE>
0

> <PUBCHEM_SUBSTANCE_ID>
310946152

> <PUBCHEM_SUBSTANCE_VERSION>
1

> <PUBCHEM_EXT_DATASOURCE_NAME>
4488

> <PUBCHEM_EXT_DATASOURCE_REGID>
SCHEMBL16124261

> <PUBCHEM_SUBSTANCE_COMMENT>
InChI=1S/C39H29NO/c1-39(2)34-17-9-6-15-30(34)31-22-20-28(25-35(31)39)40(36-18-10-7-14-29(36)26-12-4-3-5-13-26)27-21-23-38-33(24-27)32-16-8-11-19-37(32)41-38/h3-25H,1-2H3
InChIKey=BWZQCEDLCVTWAH-UHFFFAOYSA-N

> <PUBCHEM_SUBSTANCE_SYNONYM>
SCHEMBL16124261

> <PUBCHEM_XREF_EXT_ID>
SCHEMBL16124261

> <PUBCHEM_EXT_DATASOURCE_URL>
https://www.surechembl.org/

> <PUBCHEM_EXT_SUBSTANCE_URL>
https://www.surechembl.org/chemical/SCHEMBL16124261

> <PUBCHEM_CID_ASSOCIATIONS>
117612109  1

> <PUBCHEM_COORDINATE_TYPE>
1
3

$$$$
