310946147
  -OEChem-07211613022D

 51 60  0     0  0  0  0  0  0999 V2000
    1.6216   -2.3736    0.0000 S   0  0  0  0  0  0  0  0  0  0  0  0
    0.6390   -3.8727    0.0000 N   0  0  0  0  0  0  0  0  0  0  0  0
   -1.8179   -5.4732    0.0000 C   0  0  0  0  0  0  0  0  0  0  0  0
   -1.0110   -5.3017    0.0000 C   0  0  0  0  0  0  0  0  0  0  0  0
   -1.9042   -6.2937    0.0000 C   0  0  0  0  0  0  0  0  0  0  0  0
   -0.5985   -6.0162    0.0000 C   0  0  0  0  0  0  0  0  0  0  0  0
   -1.1505   -6.6292    0.0000 C   0  0  0  0  0  0  0  0  0  0  0  0
   -1.8179   -4.6482    0.0000 C   0  0  0  0  0  0  0  0  0  0  0  0
   -2.6429   -5.4732    0.0000 C   0  0  0  0  0  0  0  0  0  0  0  0
   -0.5985   -4.5872    0.0000 C   0  0  0  0  0  0  0  0  0  0  0  0
    0.2265   -4.5872    0.0000 C   0  0  0  0  0  0  0  0  0  0  0  0
   -2.5716   -6.7786    0.0000 C   0  0  0  0  0  0  0  0  0  0  0  0
    0.2265   -6.0162    0.0000 C   0  0  0  0  0  0  0  0  0  0  0  0
   -1.0643   -7.4497    0.0000 C   0  0  0  0  0  0  0  0  0  0  0  0
    0.6390   -5.3017    0.0000 C   0  0  0  0  0  0  0  0  0  0  0  0
   -3.0554   -4.7587    0.0000 C   0  0  0  0  0  0  0  0  0  0  0  0
   -1.1035   -4.2357    0.0000 C   0  0  0  0  0  0  0  0  0  0  0  0
   -3.0554   -6.1877    0.0000 C   0  0  0  0  0  0  0  0  0  0  0  0
   -2.5324   -4.2357    0.0000 C   0  0  0  0  0  0  0  0  0  0  0  0
    1.4640   -3.8727    0.0000 C   0  0  0  0  0  0  0  0  0  0  0  0
    1.8765   -3.1583    0.0000 C   0  0  0  0  0  0  0  0  0  0  0  0
   -2.4854   -7.5991    0.0000 C   0  0  0  0  0  0  0  0  0  0  0  0
   -1.7317   -7.9347    0.0000 C   0  0  0  0  0  0  0  0  0  0  0  0
    0.2265   -3.1583    0.0000 C   0  0  0  0  0  0  0  0  0  0  0  0
    2.7015   -3.1583    0.0000 C   0  0  0  0  0  0  0  0  0  0  0  0
    2.9565   -2.3736    0.0000 C   0  0  0  0  0  0  0  0  0  0  0  0
   -3.8804   -4.7587    0.0000 C   0  0  0  0  0  0  0  0  0  0  0  0
   -1.1035   -3.4107    0.0000 C   0  0  0  0  0  0  0  0  0  0  0  0
   -3.8804   -6.1877    0.0000 C   0  0  0  0  0  0  0  0  0  0  0  0
   -2.5324   -3.4107    0.0000 C   0  0  0  0  0  0  0  0  0  0  0  0
    2.2890   -1.8887    0.0000 C   0  0  0  0  0  0  0  0  0  0  0  0
    1.8765   -4.5872    0.0000 C   0  0  0  0  0  0  0  0  0  0  0  0
   -4.2929   -5.4732    0.0000 C   0  0  0  0  0  0  0  0  0  0  0  0
   -1.8179   -2.9982    0.0000 C   0  0  0  0  0  0  0  0  0  0  0  0
    3.1140   -3.8727    0.0000 C   0  0  0  0  0  0  0  0  0  0  0  0
    0.6390   -2.4438    0.0000 C   0  0  0  0  0  0  0  0  0  0  0  0
   -0.5985   -3.1583    0.0000 C   0  0  0  0  0  0  0  0  0  0  0  0
    2.7015   -4.5872    0.0000 C   0  0  0  0  0  0  0  0  0  0  0  0
    3.7101   -2.0381    0.0000 C   0  0  0  0  0  0  0  0  0  0  0  0
    2.3753   -1.0682    0.0000 C   0  0  0  0  0  0  0  0  0  0  0  0
    0.2265   -1.7293    0.0000 C   0  0  0  0  0  0  0  0  0  0  0  0
   -1.0110   -2.4438    0.0000 C   0  0  0  0  0  0  0  0  0  0  0  0
   -0.5985   -1.7293    0.0000 C   0  0  0  0  0  0  0  0  0  0  0  0
    3.7964   -1.2176    0.0000 C   0  0  0  0  0  0  0  0  0  0  0  0
    3.1289   -0.7327    0.0000 C   0  0  0  0  0  0  0  0  0  0  0  0
   -1.0110   -1.0149    0.0000 C   0  0  0  0  0  0  0  0  0  0  0  0
   -0.5985   -0.3004    0.0000 C   0  0  0  0  0  0  0  0  0  0  0  0
   -1.8360   -1.0149    0.0000 C   0  0  0  0  0  0  0  0  0  0  0  0
   -1.0110    0.4141    0.0000 C   0  0  0  0  0  0  0  0  0  0  0  0
   -2.2485   -0.3004    0.0000 C   0  0  0  0  0  0  0  0  0  0  0  0
   -1.8360    0.4141    0.0000 C   0  0  0  0  0  0  0  0  0  0  0  0
  1 21  1  0  0  0  0
  1 31  1  0  0  0  0
  2 11  1  0  0  0  0
  2 20  1  0  0  0  0
  2 24  1  0  0  0  0
  3  4  1  0  0  0  0
  3  5  1  0  0  0  0
  3  8  1  0  0  0  0
  3  9  1  0  0  0  0
  4  6  2  0  0  0  0
  4 10  1  0  0  0  0
  5  7  2  0  0  0  0
  5 12  1  0  0  0  0
  6  7  1  0  0  0  0
  6 13  1  0  0  0  0
  7 14  1  0  0  0  0
  8 17  2  0  0  0  0
  8 19  1  0  0  0  0
  9 16  2  0  0  0  0
  9 18  1  0  0  0  0
 10 11  2  0  0  0  0
 11 15  1  0  0  0  0
 12 22  2  0  0  0  0
 13 15  2  0  0  0  0
 14 23  2  0  0  0  0
 16 27  1  0  0  0  0
 17 28  1  0  0  0  0
 18 29  2  0  0  0  0
 19 30  2  0  0  0  0
 20 21  1  0  0  0  0
 20 32  2  0  0  0  0
 21 25  2  0  0  0  0
 22 23  1  0  0  0  0
 24 36  2  0  0  0  0
 24 37  1  0  0  0  0
 25 26  1  0  0  0  0
 25 35  1  0  0  0  0
 26 31  2  0  0  0  0
 26 39  1  0  0  0  0
 27 33  2  0  0  0  0
 28 34  2  0  0  0  0
 29 33  1  0  0  0  0
 30 34  1  0  0  0  0
 31 40  1  0  0  0  0
 32 38  1  0  0  0  0
 35 38  2  0  0  0  0
 36 41  1  0  0  0  0
 37 42  2  0  0  0  0
 39 44  2  0  0  0  0
 40 45  2  0  0  0  0
 41 43  2  0  0  0  0
 42 43  1  0  0  0  0
 43 46  1  0  0  0  0
 44 45  1  0  0  0  0
 46 47  2  0  0  0  0
 46 48  1  0  0  0  0
 47 49  1  0  0  0  0
 48 50  2  0  0  0  0
 49 51  2  0  0  0  0
 50 51  1  0  0  0  0
M  END
> <PUBCHEM_COMPOUND_ID_TYPE>
0

> <PUBCHEM_TOTAL_CHARGE>
0

> <PUBCHEM_SUBSTANCE_ID>
310946147

> <PUBCHEM_SUBSTANCE_VERSION>
1

> <PUBCHEM_EXT_DATASOURCE_NAME>
4488

> <PUBCHEM_EXT_DATASOURCE_REGID>
SCHEMBL16124256

> <PUBCHEM_SUBSTANCE_COMMENT>
InChI=1S/C49H33NS/c1-4-15-34(16-5-1)35-27-29-38(30-28-35)50(46-25-14-23-43-42-22-11-13-26-47(42)51-48(43)46)39-31-32-41-40-21-10-12-24-44(40)49(45(41)33-39,36-17-6-2-7-18-36)37-19-8-3-9-20-37/h1-33H
InChIKey=HSXNXTHOKSJXEC-UHFFFAOYSA-N

> <PUBCHEM_SUBSTANCE_SYNONYM>
SCHEMBL16124256

> <PUBCHEM_XREF_EXT_ID>
SCHEMBL16124256

> <PUBCHEM_EXT_DATASOURCE_URL>
https://www.surechembl.org/

> <PUBCHEM_EXT_SUBSTANCE_URL>
https://www.surechembl.org/chemical/SCHEMBL16124256

> <PUBCHEM_CID_ASSOCIATIONS>
117612104  1

> <PUBCHEM_COORDINATE_TYPE>
1
3

$$$$
