310949390
  -OEChem-07211613022D

 45 51  0     0  0  0  0  0  0999 V2000
    0.0320    0.1840    0.0000 N   0  0  0  0  0  0  0  0  0  0  0  0
    0.0160   -3.9452    0.0000 N   0  0  0  0  0  0  0  0  0  0  0  0
    2.1767   -0.2641    0.0000 N   0  0  0  0  0  0  0  0  0  0  0  0
   -0.7362   -1.8966    0.0000 C   0  0  0  0  0  0  0  0  0  0  0  0
   -1.5205   -2.1367    0.0000 C   0  0  0  0  0  0  0  0  0  0  0  0
   -0.7202   -1.0643    0.0000 C   0  0  0  0  0  0  0  0  0  0  0  0
   -2.0006   -1.4805    0.0000 C   0  0  0  0  0  0  0  0  0  0  0  0
   -1.5205   -0.8082    0.0000 C   0  0  0  0  0  0  0  0  0  0  0  0
    0.0160   -0.6482    0.0000 C   0  0  0  0  0  0  0  0  0  0  0  0
    0.0320   -2.2807    0.0000 C   0  0  0  0  0  0  0  0  0  0  0  0
    0.7523   -1.0323    0.0000 C   0  0  0  0  0  0  0  0  0  0  0  0
    0.7362   -1.8646    0.0000 C   0  0  0  0  0  0  0  0  0  0  0  0
   -2.8009   -1.3845    0.0000 C   0  0  0  0  0  0  0  0  0  0  0  0
   -1.8405   -0.0880    0.0000 C   0  0  0  0  0  0  0  0  0  0  0  0
   -2.2407   -2.5688    0.0000 C   0  0  0  0  0  0  0  0  0  0  0  0
   -1.2644   -2.9530    0.0000 C   0  0  0  0  0  0  0  0  0  0  0  0
    0.6882    0.7122    0.0000 C   0  0  0  0  0  0  0  0  0  0  0  0
    0.0160   -3.1449    0.0000 C   0  0  0  0  0  0  0  0  0  0  0  0
   -3.1530   -0.6642    0.0000 C   0  0  0  0  0  0  0  0  0  0  0  0
   -2.6568    0.0080    0.0000 C   0  0  0  0  0  0  0  0  0  0  0  0
    0.4482    1.4805    0.0000 C   0  0  0  0  0  0  0  0  0  0  0  0
    1.4725   -0.6322    0.0000 C   0  0  0  0  0  0  0  0  0  0  0  0
   -0.4321    1.4644    0.0000 C   0  0  0  0  0  0  0  0  0  0  0  0
    1.4884    0.5521    0.0000 C   0  0  0  0  0  0  0  0  0  0  0  0
    0.9763    2.0887    0.0000 C   0  0  0  0  0  0  0  0  0  0  0  0
    1.8086    1.9286    0.0000 C   0  0  0  0  0  0  0  0  0  0  0  0
   -0.7042    0.6642    0.0000 C   0  0  0  0  0  0  0  0  0  0  0  0
    2.0807    1.1444    0.0000 C   0  0  0  0  0  0  0  0  0  0  0  0
   -0.9763    2.0407    0.0000 C   0  0  0  0  0  0  0  0  0  0  0  0
   -1.7925    1.8646    0.0000 C   0  0  0  0  0  0  0  0  0  0  0  0
    2.3527    2.5688    0.0000 C   0  0  0  0  0  0  0  0  0  0  0  0
   -1.4884    0.5041    0.0000 C   0  0  0  0  0  0  0  0  0  0  0  0
   -2.0486    1.0804    0.0000 C   0  0  0  0  0  0  0  0  0  0  0  0
   -2.4007    2.4888    0.0000 C   0  0  0  0  0  0  0  0  0  0  0  0
   -0.2081    0.3601    0.0000 C   0  0  0  0  0  0  0  0  0  0  0  0
    3.2330    2.4088    0.0000 C   0  0  0  0  0  0  0  0  0  0  0  0
    2.1287    3.3370    0.0000 C   0  0  0  0  0  0  0  0  0  0  0  0
   -2.1446    3.2730    0.0000 C   0  0  0  0  0  0  0  0  0  0  0  0
   -3.1850    2.3127    0.0000 C   0  0  0  0  0  0  0  0  0  0  0  0
    3.7452    3.0170    0.0000 C   0  0  0  0  0  0  0  0  0  0  0  0
    2.6729    3.9452    0.0000 C   0  0  0  0  0  0  0  0  0  0  0  0
    3.5051    3.7852    0.0000 C   0  0  0  0  0  0  0  0  0  0  0  0
   -2.6729    3.8492    0.0000 C   0  0  0  0  0  0  0  0  0  0  0  0
   -3.7452    2.8889    0.0000 C   0  0  0  0  0  0  0  0  0  0  0  0
   -3.4891    3.6571    0.0000 C   0  0  0  0  0  0  0  0  0  0  0  0
  1  9  1  0  0  0  0
  1 17  1  0  0  0  0
  2 18  3  0  0  0  0
  3 22  3  0  0  0  0
  4  5  1  0  0  0  0
  4  6  2  0  0  0  0
  4 10  1  0  0  0  0
  5  7  1  0  0  0  0
  5 15  1  0  0  0  0
  5 16  1  0  0  0  0
  6  8  1  0  0  0  0
  6  9  1  0  0  0  0
  7  8  2  0  0  0  0
  7 13  1  0  0  0  0
  8 14  1  0  0  0  0
  9 11  2  0  0  0  0
 10 12  2  0  0  0  0
 10 18  1  0  0  0  0
 11 12  1  0  0  0  0
 11 22  1  0  0  0  0
 13 19  2  0  0  0  0
 14 20  2  0  0  0  0
 17 21  2  0  0  0  0
 17 24  1  0  0  0  0
 19 20  1  0  0  0  0
 21 23  1  0  0  0  0
 21 25  1  0  0  0  0
 23 27  2  0  0  0  0
 23 29  1  0  0  0  0
 24 28  2  0  0  0  0
 25 26  2  0  0  0  0
 26 28  1  0  0  0  0
 26 31  1  0  0  0  0
 27 32  1  0  0  0  0
 27 35  1  0  0  0  0
 29 30  2  0  0  0  0
 30 33  1  0  0  0  0
 30 34  1  0  0  0  0
 31 36  2  0  0  0  0
 31 37  1  0  0  0  0
 32 33  2  0  0  0  0
 34 38  2  0  0  0  0
 34 39  1  0  0  0  0
 36 40  1  0  0  0  0
 37 41  2  0  0  0  0
 38 43  1  0  0  0  0
 39 44  2  0  0  0  0
 40 42  2  0  0  0  0
 41 42  1  0  0  0  0
 43 45  2  0  0  0  0
 44 45  1  0  0  0  0
M  END
> <PUBCHEM_COMPOUND_ID_TYPE>
0

> <PUBCHEM_TOTAL_CHARGE>
0

> <PUBCHEM_SUBSTANCE_ID>
310949390

> <PUBCHEM_SUBSTANCE_VERSION>
1

> <PUBCHEM_EXT_DATASOURCE_NAME>
4488

> <PUBCHEM_EXT_DATASOURCE_REGID>
SCHEMBL16127582

> <PUBCHEM_SUBSTANCE_COMMENT>
InChI=1S/C42H31N3/c1-27-18-19-30(28-12-6-4-7-13-28)23-35(27)36-24-31(29-14-8-5-9-15-29)20-21-38(36)45-41-33(26-44)22-32(25-43)40-39(41)34-16-10-11-17-37(34)42(40,2)3/h4-24,45H,1-3H3
InChIKey=YPGJOJWOKUMZPD-UHFFFAOYSA-N

> <PUBCHEM_SUBSTANCE_SYNONYM>
SCHEMBL16127582

> <PUBCHEM_XREF_EXT_ID>
SCHEMBL16127582

> <PUBCHEM_EXT_DATASOURCE_URL>
https://www.surechembl.org/

> <PUBCHEM_EXT_SUBSTANCE_URL>
https://www.surechembl.org/chemical/SCHEMBL16127582

> <PUBCHEM_CID_ASSOCIATIONS>
117614843  1

> <PUBCHEM_COORDINATE_TYPE>
1
3

$$$$
