310942695
  -OEChem-07211613022D

 18 18  0     0  0  0  0  0  0999 V2000
   -2.6751    3.3094    0.0000 Cl  0  0  0  0  0  0  0  0  0  0  0  0
    0.4547    1.6601    0.0000 O   0  0  0  0  0  0  0  0  0  0  0  0
    1.8715   -3.3305    0.0000 O   0  0  0  0  0  0  0  0  0  0  0  0
    0.4124   -3.3305    0.0000 O   0  0  0  0  0  0  0  0  0  0  0  0
    0.4547   -0.8141    0.0000 N   0  0  0  0  0  0  0  0  0  0  0  0
   -0.9833    1.7023    0.0000 C   0  0  0  0  0  0  0  0  0  0  0  0
   -0.2855    2.1041    0.0000 C   0  0  0  0  0  0  0  0  0  0  0  0
   -1.6812    2.1041    0.0000 C   0  0  0  0  0  0  0  0  0  0  0  0
   -1.7023    2.9289    0.0000 C   0  0  0  0  0  0  0  0  0  0  0  0
   -0.2855    2.9077    0.0000 C   0  0  0  0  0  0  0  0  0  0  0  0
   -1.0044    3.3305    0.0000 C   0  0  0  0  0  0  0  0  0  0  0  0
   -0.9833    0.8564    0.0000 C   0  0  0  0  0  0  0  0  0  0  0  0
   -0.2855    0.4335    0.0000 C   0  0  0  0  0  0  0  0  0  0  0  0
   -0.2644   -0.3913    0.0000 C   0  0  0  0  0  0  0  0  0  0  0  0
    1.1313   -2.8654    0.0000 C   0  0  0  0  0  0  0  0  0  0  0  0
    1.1525   -2.0617    0.0000 C   0  0  0  0  0  0  0  0  0  0  0  0
    0.4335   -1.6389    0.0000 C   0  0  0  0  0  0  0  0  0  0  0  0
    2.6751   -3.1614    0.0000 C   0  0  0  0  0  0  0  0  0  0  0  0
  1  9  1  0  0  0  0
  2  7  1  0  0  0  0
  3 15  1  0  0  0  0
  3 18  1  0  0  0  0
  4 15  2  0  0  0  0
  5 14  1  0  0  0  0
  5 17  1  0  0  0  0
  6  7  2  0  0  0  0
  6  8  1  0  0  0  0
  6 12  1  0  0  0  0
  7 10  1  0  0  0  0
  8  9  2  0  0  0  0
  9 11  1  0  0  0  0
 10 11  2  0  0  0  0
 12 13  1  0  0  0  0
 13 14  1  0  0  0  0
 15 16  1  0  0  0  0
 16 17  1  0  0  0  0
M  END
> <PUBCHEM_COMPOUND_ID_TYPE>
0

> <PUBCHEM_TOTAL_CHARGE>
0

> <PUBCHEM_SUBSTANCE_ID>
310942695

> <PUBCHEM_SUBSTANCE_VERSION>
1

> <PUBCHEM_EXT_DATASOURCE_NAME>
4488

> <PUBCHEM_EXT_DATASOURCE_REGID>
SCHEMBL16120741

> <PUBCHEM_SUBSTANCE_COMMENT>
InChI=1S/C13H18ClNO3/c1-18-13(17)6-8-15-7-2-3-10-9-11(14)4-5-12(10)16/h4-5,9,15-16H,2-3,6-8H2,1H3
InChIKey=PMZCASKHZXWSET-UHFFFAOYSA-N

> <PUBCHEM_SUBSTANCE_SYNONYM>
SCHEMBL16120741

> <PUBCHEM_XREF_EXT_ID>
SCHEMBL16120741

> <PUBCHEM_EXT_DATASOURCE_URL>
https://www.surechembl.org/

> <PUBCHEM_EXT_SUBSTANCE_URL>
https://www.surechembl.org/chemical/SCHEMBL16120741

> <PUBCHEM_CID_ASSOCIATIONS>
117609223  1

> <PUBCHEM_COORDINATE_TYPE>
1
3

$$$$
