310929732
  -OEChem-07211613022D

 65 72  0     1  0  0  0  0  0999 V2000
    7.0627    2.3261    0.0000 S   0  0  0  0  0  0  0  0  0  0  0  0
   10.7408   -3.4132    0.0000 F   0  0  0  0  0  0  0  0  0  0  0  0
    5.9741    3.5660    0.0000 O   0  0  0  0  0  0  0  0  0  0  0  0
    7.2242    1.5170    0.0000 O   0  0  0  0  0  0  0  0  0  0  0  0
    6.9013    3.1351    0.0000 O   0  0  0  0  0  0  0  0  0  0  0  0
    3.4902    1.7663    0.0000 O   0  0  0  0  0  0  0  0  0  0  0  0
    5.1028   -1.5144    0.0000 O   0  0  0  0  0  0  0  0  0  0  0  0
    2.2838   -0.5650    0.0000 O   0  0  0  0  0  0  0  0  0  0  0  0
    1.4616   -0.4972    0.0000 O   0  0  0  0  0  0  0  0  0  0  0  0
    6.1599   -3.7523    0.0000 O   0  0  0  0  0  0  0  0  0  0  0  0
    0.2870    0.3166    0.0000 O   0  0  0  0  0  0  0  0  0  0  0  0
    4.9188    1.7983    0.0000 N   0  0  0  0  0  0  0  0  0  0  0  0
    6.2537    2.1646    0.0000 N   0  0  0  0  0  0  0  0  0  0  0  0
    3.5759    0.0454    0.0000 N   0  0  0  0  0  0  0  0  0  0  0  0
    5.0403   -1.1700    0.0000 N   0  0  0  0  0  0  0  0  0  0  0  0
    1.5791    0.9270    0.0000 N   0  0  0  0  0  0  0  0  0  0  0  0
    8.6266   -3.9557    0.0000 N   0  0  3  0  0  0  0  0  0  0  0  0
    4.9003    2.6231    0.0000 C   0  0  3  0  0  0  0  0  0  0  0  0
    4.0848    2.7481    0.0000 C   0  0  3  0  0  0  0  0  0  0  0  0
    4.6008    3.3919    0.0000 C   0  0  0  0  0  0  0  0  0  0  0  0
    5.7093    2.7846    0.0000 C   0  0  0  0  0  0  0  0  0  0  0  0
    3.3161    2.4487    0.0000 C   0  0  0  0  0  0  0  0  0  0  0  0
    7.8718    2.4875    0.0000 C   0  0  0  0  0  0  0  0  0  0  0  0
    4.2138    1.3699    0.0000 C   0  0  0  0  0  0  0  0  0  0  0  0
    4.2323    0.5451    0.0000 C   0  0  3  0  0  0  0  0  0  0  0  0
    8.1713    1.7188    0.0000 C   0  0  0  0  0  0  0  0  0  0  0  0
    8.6873    2.3625    0.0000 C   0  0  0  0  0  0  0  0  0  0  0  0
    2.6724    2.9647    0.0000 C   0  0  0  0  0  0  0  0  0  0  0  0
    4.9104    0.0753    0.0000 C   0  0  0  0  0  0  0  0  0  0  0  0
    7.8533    3.3123    0.0000 C   0  0  0  0  0  0  0  0  0  0  0  0
    4.7504   -0.7684    0.0000 C   0  0  3  0  0  0  0  0  0  0  0  0
    3.9282   -0.7006    0.0000 C   0  0  0  0  0  0  0  0  0  0  0  0
    2.7537    0.1132    0.0000 C   0  0  0  0  0  0  0  0  0  0  0  0
    4.6330   -2.1925    0.0000 C   0  0  0  0  0  0  0  0  0  0  0  0
    4.9854   -2.9385    0.0000 C   0  0  0  0  0  0  0  0  0  0  0  0
    2.4013    0.8591    0.0000 C   0  0  0  0  0  0  0  0  0  0  0  0
    0.9918   -1.1753    0.0000 C   0  0  3  0  0  0  0  0  0  0  0  0
    1.3442   -1.9213    0.0000 C   0  0  3  0  0  0  0  0  0  0  0  0
    0.5219   -1.8534    0.0000 C   0  0  3  0  0  0  0  0  0  0  0  0
    5.8076   -3.0063    0.0000 C   0  0  0  0  0  0  0  0  0  0  0  0
    6.2774   -2.3281    0.0000 C   0  0  0  0  0  0  0  0  0  0  0  0
    5.9250   -1.5822    0.0000 C   0  0  0  0  0  0  0  0  0  0  0  0
    1.1092    0.2488    0.0000 C   0  0  0  0  0  0  0  0  0  0  0  0
    4.5155   -3.6166    0.0000 C   0  0  0  0  0  0  0  0  0  0  0  0
    2.1664   -1.9891    0.0000 C   0  0  0  0  0  0  0  0  0  0  0  0
   -0.2240   -2.2058    0.0000 C   0  0  0  0  0  0  0  0  0  0  0  0
    7.0996   -2.3960    0.0000 C   0  0  0  0  0  0  0  0  0  0  0  0
    6.3949   -0.9040    0.0000 C   0  0  0  0  0  0  0  0  0  0  0  0
    3.6933   -3.5488    0.0000 C   0  0  0  0  0  0  0  0  0  0  0  0
    2.5187   -2.7350    0.0000 C   0  0  0  0  0  0  0  0  0  0  0  0
    7.5694   -1.7178    0.0000 C   0  0  0  0  0  0  0  0  0  0  0  0
    7.2171   -0.9719    0.0000 C   0  0  0  0  0  0  0  0  0  0  0  0
   -0.9022   -1.7360    0.0000 C   0  0  0  0  0  0  0  0  0  0  0  0
    3.3409   -2.8028    0.0000 C   0  0  0  0  0  0  0  0  0  0  0  0
    6.9822   -3.8201    0.0000 C   0  0  0  0  0  0  0  0  0  0  0  0
   -1.6481   -2.0884    0.0000 C   0  0  0  0  0  0  0  0  0  0  0  0
    7.3345   -4.5660    0.0000 C   0  0  0  0  0  0  0  0  0  0  0  0
    8.1567   -4.6338    0.0000 C   0  0  0  0  0  0  0  0  0  0  0  0
   -2.3263   -1.6185    0.0000 C   0  0  0  0  0  0  0  0  0  0  0  0
    9.4488   -4.0235    0.0000 C   0  0  0  0  0  0  0  0  0  0  0  0
    8.2742   -3.2097    0.0000 C   0  0  0  0  0  0  0  0  0  0  0  0
    9.9186   -3.3454    0.0000 C   0  0  3  0  0  0  0  0  0  0  0  0
    8.7440   -2.5316    0.0000 C   0  0  0  0  0  0  0  0  0  0  0  0
    9.5662   -2.5994    0.0000 C   0  0  0  0  0  0  0  0  0  0  0  0
    4.1751    1.9281    0.0000 H   0  0  0  0  0  0  0  0  0  0  0  0
  1  4  2  0  0  0  0
  1  5  2  0  0  0  0
  1 13  1  0  0  0  0
  1 23  1  0  0  0  0
  2 62  1  0  0  0  0
  3 21  2  0  0  0  0
  6 24  2  0  0  0  0
  7 31  1  0  0  0  0
  7 34  1  0  0  0  0
  8 33  2  0  0  0  0
  9 37  1  0  0  0  0
  9 43  1  0  0  0  0
 10 40  1  0  0  0  0
 10 55  1  0  0  0  0
 11 43  2  0  0  0  0
 18 12  1  1  0  0  0
 12 24  1  0  0  0  0
 13 21  1  0  0  0  0
 14 25  1  0  0  0  0
 14 32  1  0  0  0  0
 14 33  1  0  0  0  0
 15 34  2  0  0  0  0
 15 42  1  0  0  0  0
 16 36  1  0  0  0  0
 16 43  1  0  0  0  0
 17 58  1  0  0  0  0
 17 60  1  0  0  0  0
 17 61  1  0  0  0  0
 18 19  1  0  0  0  0
 18 20  1  0  0  0  0
 18 21  1  6  0  0  0
 19 20  1  0  0  0  0
 19 22  1  6  0  0  0
 19 65  1  1  0  0  0
 22 28  2  0  0  0  0
 23 26  1  0  0  0  0
 23 27  1  0  0  0  0
 23 30  1  0  0  0  0
 24 25  1  0  0  0  0
 25 29  1  0  0  0  0
 26 27  1  0  0  0  0
 29 31  1  0  0  0  0
 31 32  1  0  0  0  0
 33 36  1  0  0  0  0
 34 35  1  0  0  0  0
 35 40  2  0  0  0  0
 35 44  1  0  0  0  0
 37 38  1  0  0  0  0
 37 39  1  0  0  0  0
 38 39  1  0  0  0  0
 38 45  1  0  0  0  0
 39 46  1  0  0  0  0
 40 41  1  0  0  0  0
 41 42  2  0  0  0  0
 41 47  1  0  0  0  0
 42 48  1  0  0  0  0
 44 49  1  0  0  0  0
 45 50  1  0  0  0  0
 46 53  1  0  0  0  0
 47 51  2  0  0  0  0
 48 52  2  0  0  0  0
 49 54  1  0  0  0  0
 50 54  1  0  0  0  0
 51 52  1  0  0  0  0
 53 56  1  0  0  0  0
 55 57  1  0  0  0  0
 56 59  1  0  0  0  0
 57 58  1  0  0  0  0
 60 62  1  0  0  0  0
 61 63  1  0  0  0  0
 62 64  1  0  0  0  0
 63 64  1  0  0  0  0
M  END
> <PUBCHEM_COMPOUND_ID_TYPE>
0

> <PUBCHEM_TOTAL_CHARGE>
0

> <PUBCHEM_SUBSTANCE_ID>
310929732

> <PUBCHEM_SUBSTANCE_VERSION>
1

> <PUBCHEM_EXT_DATASOURCE_NAME>
4488

> <PUBCHEM_EXT_DATASOURCE_REGID>
SCHEMBL16106930

> <PUBCHEM_SUBSTANCE_COMMENT>
InChI=1S/C47H65FN6O9S/c1-4-6-15-33-34-16-8-7-9-18-36-40(61-24-13-23-53-22-12-14-31(48)28-53)35-17-10-11-19-37(35)50-43(36)62-32-25-38(54(29-32)39(55)27-49-45(58)63-41(33)34)42(56)51-47(26-30(47)5-2)44(57)52-64(59,60)46(3)20-21-46/h5,10-11,17,19,30-34,38,41H,2,4,6-9,12-16,18,20-29H2,1,3H3,(H,49,58)(H,51,56)(H,52,57)/t30-,31?,32?,33?,34?,38?,41?,47-/m1/s1
InChIKey=UHCKDLPQGCDHJU-SPDVEKGLSA-N

> <PUBCHEM_SUBSTANCE_SYNONYM>
SCHEMBL16106930

> <PUBCHEM_XREF_EXT_ID>
SCHEMBL16106930

> <PUBCHEM_EXT_DATASOURCE_URL>
https://www.surechembl.org/

> <PUBCHEM_EXT_SUBSTANCE_URL>
https://www.surechembl.org/chemical/SCHEMBL16106930

> <PUBCHEM_CID_ASSOCIATIONS>
117599026  1

> <PUBCHEM_COORDINATE_TYPE>
1
3

> <PUBCHEM_BONDANNOTATIONS>
18  12  5
18  21  6
19  22  6
19  65  5

$$$$
