310931752
  -OEChem-07211613022D

 30 33  0     0  0  0  0  0  0999 V2000
    2.0558   -2.6799    0.0000 O   0  0  0  0  0  0  0  0  0  0  0  0
    0.4772   -4.9193    0.0000 O   0  0  0  0  0  0  0  0  0  0  0  0
    2.9369   -6.6079    0.0000 O   0  0  0  0  0  0  0  0  0  0  0  0
    3.5242   -2.4596    0.0000 N   0  0  0  0  0  0  0  0  0  0  0  0
    3.9281   -3.7445    0.0000 N   0  0  0  0  0  0  0  0  0  0  0  0
    4.9560   -2.6799    0.0000 N   0  0  0  0  0  0  0  0  0  0  0  0
    3.0837   -3.7445    0.0000 C   0  0  0  0  0  0  0  0  0  0  0  0
    2.8634   -2.9369    0.0000 C   0  0  0  0  0  0  0  0  0  0  0  0
    2.6065   -4.4053    0.0000 C   0  0  0  0  0  0  0  0  0  0  0  0
    3.4509   -4.4787    0.0000 C   0  0  0  0  0  0  0  0  0  0  0  0
    4.1851   -2.9369    0.0000 C   0  0  0  0  0  0  0  0  0  0  0  0
    1.7989   -4.3319    0.0000 C   0  0  0  0  0  0  0  0  0  0  0  0
    3.1938   -5.3231    0.0000 C   0  0  0  0  0  0  0  0  0  0  0  0
    2.9369   -5.1762    0.0000 C   0  0  0  0  0  0  0  0  0  0  0  0
    4.2952   -4.5154    0.0000 C   0  0  0  0  0  0  0  0  0  0  0  0
    3.5242   -1.6520    0.0000 C   0  0  0  0  0  0  0  0  0  0  0  0
    1.3216   -4.9927    0.0000 C   0  0  0  0  0  0  0  0  0  0  0  0
    3.3774   -5.9105    0.0000 C   0  0  0  0  0  0  0  0  0  0  0  0
    2.7900   -1.2482    0.0000 C   0  0  0  0  0  0  0  0  0  0  0  0
    2.4596   -5.8371    0.0000 C   0  0  0  0  0  0  0  0  0  0  0  0
    4.6623   -5.2496    0.0000 C   0  0  0  0  0  0  0  0  0  0  0  0
    1.6520   -5.7636    0.0000 C   0  0  0  0  0  0  0  0  0  0  0  0
    4.2217   -5.9472    0.0000 C   0  0  0  0  0  0  0  0  0  0  0  0
    2.7900   -0.4038    0.0000 C   0  0  0  0  0  0  0  0  0  0  0  0
    2.0925   -1.6520    0.0000 C   0  0  0  0  0  0  0  0  0  0  0  0
    2.0925    0.0000    0.0000 C   0  0  0  0  0  0  0  0  0  0  0  0
    1.3583   -1.2482    0.0000 C   0  0  0  0  0  0  0  0  0  0  0  0
    1.3583   -0.4038    0.0000 C   0  0  0  0  0  0  0  0  0  0  0  0
    0.0000   -5.5800    0.0000 C   0  0  0  0  0  0  0  0  0  0  0  0
    3.3040   -7.3422    0.0000 C   0  0  0  0  0  0  0  0  0  0  0  0
  1  8  2  0  0  0  0
  2 17  1  0  0  0  0
  2 29  1  0  0  0  0
  3 18  1  0  0  0  0
  3 30  1  0  0  0  0
  4  8  1  0  0  0  0
  4 11  1  0  0  0  0
  4 16  1  0  0  0  0
  5  7  1  0  0  0  0
  5 11  1  0  0  0  0
  6 11  2  3  0  0  0
  7  8  1  0  0  0  0
  7  9  1  0  0  0  0
  7 10  1  0  0  0  0
  9 12  1  0  0  0  0
  9 14  2  0  0  0  0
 10 13  1  0  0  0  0
 10 15  2  0  0  0  0
 12 17  2  0  0  0  0
 13 18  2  0  0  0  0
 14 20  1  0  0  0  0
 15 21  1  0  0  0  0
 16 19  1  0  0  0  0
 17 22  1  0  0  0  0
 18 23  1  0  0  0  0
 19 24  2  0  0  0  0
 19 25  1  0  0  0  0
 20 22  2  0  0  0  0
 21 23  2  0  0  0  0
 24 26  1  0  0  0  0
 25 27  2  0  0  0  0
 26 28  2  0  0  0  0
 27 28  1  0  0  0  0
M  END
> <PUBCHEM_COMPOUND_ID_TYPE>
0

> <PUBCHEM_TOTAL_CHARGE>
0

> <PUBCHEM_SUBSTANCE_ID>
310931752

> <PUBCHEM_SUBSTANCE_VERSION>
1

> <PUBCHEM_EXT_DATASOURCE_NAME>
4488

> <PUBCHEM_EXT_DATASOURCE_REGID>
SCHEMBL16109081

> <PUBCHEM_SUBSTANCE_COMMENT>
InChI=1S/C24H23N3O3/c1-29-20-12-6-10-18(14-20)24(19-11-7-13-21(15-19)30-2)22(28)27(23(25)26-24)16-17-8-4-3-5-9-17/h3-15H,16H2,1-2H3,(H2,25,26)
InChIKey=WPCGOFZZJFTHEH-UHFFFAOYSA-N

> <PUBCHEM_SUBSTANCE_SYNONYM>
SCHEMBL16109081

> <PUBCHEM_XREF_EXT_ID>
SCHEMBL16109081

> <PUBCHEM_EXT_DATASOURCE_URL>
https://www.surechembl.org/

> <PUBCHEM_EXT_SUBSTANCE_URL>
https://www.surechembl.org/chemical/SCHEMBL16109081

> <PUBCHEM_CID_ASSOCIATIONS>
86274801  1

> <PUBCHEM_COORDINATE_TYPE>
1
3

$$$$
