310930494
  -OEChem-07211613022D

 12 12  0     0  0  0  0  0  0999 V2000
    1.4341    0.0000    0.0000 I   0  0  0  0  0  0  0  0  0  0  0  0
    0.0000   -2.4725    0.0000 Br  0  0  0  0  0  0  0  0  0  0  0  0
    2.8681    0.0000    0.0000 O   0  0  0  0  0  0  0  0  0  0  0  0
    3.5728   -1.2363    0.0000 O   0  0  0  0  0  0  0  0  0  0  0  0
    2.1511   -1.2363    0.0000 C   0  0  0  0  0  0  0  0  0  0  0  0
    1.4341   -0.8283    0.0000 C   0  0  0  0  0  0  0  0  0  0  0  0
    0.7170   -1.2363    0.0000 C   0  0  0  0  0  0  0  0  0  0  0  0
    0.7170   -2.0646    0.0000 C   0  0  0  0  0  0  0  0  0  0  0  0
    2.1511   -2.0646    0.0000 C   0  0  0  0  0  0  0  0  0  0  0  0
    2.8681   -0.8283    0.0000 C   0  0  0  0  0  0  0  0  0  0  0  0
    1.4341   -2.4725    0.0000 C   0  0  0  0  0  0  0  0  0  0  0  0
    0.0000   -0.8283    0.0000 C   0  0  0  0  0  0  0  0  0  0  0  0
  1  6  1  0  0  0  0
  2  8  1  0  0  0  0
  3 10  2  0  0  0  0
  4 10  1  0  0  0  0
  5  6  2  0  0  0  0
  5  9  1  0  0  0  0
  5 10  1  0  0  0  0
  6  7  1  0  0  0  0
  7  8  2  0  0  0  0
  7 12  1  0  0  0  0
  8 11  1  0  0  0  0
  9 11  2  0  0  0  0
M  END
> <PUBCHEM_COMPOUND_ID_TYPE>
0

> <PUBCHEM_TOTAL_CHARGE>
0

> <PUBCHEM_SUBSTANCE_ID>
310930494

> <PUBCHEM_SUBSTANCE_VERSION>
1

> <PUBCHEM_EXT_DATASOURCE_NAME>
4488

> <PUBCHEM_EXT_DATASOURCE_REGID>
SCHEMBL16107785

> <PUBCHEM_SUBSTANCE_COMMENT>
InChI=1S/C8H6BrIO2/c1-4-6(9)3-2-5(7(4)10)8(11)12/h2-3H,1H3,(H,11,12)
InChIKey=MCJZTHXAZZCAEK-UHFFFAOYSA-N

> <PUBCHEM_SUBSTANCE_SYNONYM>
SCHEMBL16107785

> <PUBCHEM_XREF_EXT_ID>
SCHEMBL16107785

> <PUBCHEM_EXT_DATASOURCE_URL>
https://www.surechembl.org/

> <PUBCHEM_EXT_SUBSTANCE_URL>
https://www.surechembl.org/chemical/SCHEMBL16107785

> <PUBCHEM_CID_ASSOCIATIONS>
14885553  1

> <PUBCHEM_COORDINATE_TYPE>
1
3

$$$$
