310945177
  -OEChem-07211613022D

 36 40  0     0  0  0  0  0  0999 V2000
    5.0130    1.7265    0.0000 O   0  0  0  0  0  0  0  0  0  0  0  0
    0.5829   -0.8938    0.0000 O   0  0  0  0  0  0  0  0  0  0  0  0
   -2.3372    1.6710    0.0000 O   0  0  0  0  0  0  0  0  0  0  0  0
    3.4363    0.1832    0.0000 N   0  0  0  0  0  0  0  0  0  0  0  0
   -0.2054    0.3831    0.0000 N   0  0  0  0  0  0  0  0  0  0  0  0
    5.3017    0.3053    0.0000 N   0  0  0  0  0  0  0  0  0  0  0  0
   -3.1366   -1.2602    0.0000 N   0  0  0  0  0  0  0  0  0  0  0  0
   -3.0700    0.4275    0.0000 N   0  0  0  0  0  0  0  0  0  0  0  0
   -4.5800   -2.0929    0.0000 N   0  0  0  0  0  0  0  0  0  0  0  0
    2.6259    0.4497    0.0000 C   0  0  0  0  0  0  0  0  0  0  0  0
    2.6370    1.2713    0.0000 C   0  0  0  0  0  0  0  0  0  0  0  0
    3.9027    0.8827    0.0000 C   0  0  0  0  0  0  0  0  0  0  0  0
    3.4141    1.5266    0.0000 C   0  0  0  0  0  0  0  0  0  0  0  0
    1.9153    0.0166    0.0000 C   0  0  0  0  0  0  0  0  0  0  0  0
    1.1936    0.4164    0.0000 C   0  0  0  0  0  0  0  0  0  0  0  0
    4.7354    0.9160    0.0000 C   0  0  0  0  0  0  0  0  0  0  0  0
    1.8931    1.6599    0.0000 C   0  0  0  0  0  0  0  0  0  0  0  0
    3.6695   -0.6051    0.0000 C   0  0  0  0  0  0  0  0  0  0  0  0
    1.1936    1.2380    0.0000 C   0  0  0  0  0  0  0  0  0  0  0  0
    0.5829   -0.0388    0.0000 C   0  0  0  0  0  0  0  0  0  0  0  0
   -2.3483   -0.8160    0.0000 C   0  0  0  0  0  0  0  0  0  0  0  0
   -2.3372    0.0055    0.0000 C   0  0  0  0  0  0  0  0  0  0  0  0
   -0.8938    0.0166    0.0000 C   0  0  0  0  0  0  0  0  0  0  0  0
   -1.6266    0.4164    0.0000 C   0  0  0  0  0  0  0  0  0  0  0  0
    4.4579   -0.9160    0.0000 C   0  0  0  0  0  0  0  0  0  0  0  0
   -1.6044   -1.2269    0.0000 C   0  0  0  0  0  0  0  0  0  0  0  0
   -0.9049   -0.8271    0.0000 C   0  0  0  0  0  0  0  0  0  0  0  0
    5.1685   -0.5163    0.0000 C   0  0  0  0  0  0  0  0  0  0  0  0
   -3.1366   -2.0929    0.0000 C   0  0  0  0  0  0  0  0  0  0  0  0
   -3.8694   -0.8494    0.0000 C   0  0  0  0  0  0  0  0  0  0  0  0
   -3.0700    1.2602    0.0000 C   0  0  0  0  0  0  0  0  0  0  0  0
   -3.8472   -2.5037    0.0000 C   0  0  0  0  0  0  0  0  0  0  0  0
   -4.5689   -1.2602    0.0000 C   0  0  0  0  0  0  0  0  0  0  0  0
   -3.7806    1.6821    0.0000 C   0  0  0  0  0  0  0  0  0  0  0  0
   -5.3017   -2.5260    0.0000 C   0  0  0  0  0  0  0  0  0  0  0  0
   -3.7362    2.5260    0.0000 C   0  0  0  0  0  0  0  0  0  0  0  0
  1 16  2  0  0  0  0
  2 20  2  0  0  0  0
  3 31  2  0  0  0  0
  4 10  1  0  0  0  0
  4 12  1  0  0  0  0
  4 18  1  0  0  0  0
  5 20  1  0  0  0  0
  5 23  1  0  0  0  0
  6 16  1  0  0  0  0
  6 28  1  0  0  0  0
  7 21  1  0  0  0  0
  7 29  1  0  0  0  0
  7 30  1  0  0  0  0
  8 22  1  0  0  0  0
  8 31  1  0  0  0  0
  9 32  1  0  0  0  0
  9 33  1  0  0  0  0
  9 35  1  0  0  0  0
 10 11  2  0  0  0  0
 10 14  1  0  0  0  0
 11 13  1  0  0  0  0
 11 17  1  0  0  0  0
 12 13  2  0  0  0  0
 12 16  1  0  0  0  0
 14 15  2  0  0  0  0
 15 19  1  0  0  0  0
 15 20  1  0  0  0  0
 17 19  2  0  0  0  0
 18 25  1  0  0  0  0
 21 22  2  0  0  0  0
 21 26  1  0  0  0  0
 22 24  1  0  0  0  0
 23 24  2  0  0  0  0
 23 27  1  0  0  0  0
 25 28  1  0  0  0  0
 26 27  2  0  0  0  0
 29 32  1  0  0  0  0
 30 33  1  0  0  0  0
 31 34  1  0  0  0  0
 34 36  2  0  0  0  0
M  END
> <PUBCHEM_COMPOUND_ID_TYPE>
0

> <PUBCHEM_TOTAL_CHARGE>
0

> <PUBCHEM_SUBSTANCE_ID>
310945177

> <PUBCHEM_SUBSTANCE_VERSION>
1

> <PUBCHEM_EXT_DATASOURCE_NAME>
4488

> <PUBCHEM_EXT_DATASOURCE_REGID>
SCHEMBL16123267

> <PUBCHEM_SUBSTANCE_COMMENT>
InChI=1S/C27H30N6O3/c1-3-25(34)30-21-17-20(7-8-22(21)32-13-11-31(2)12-14-32)29-26(35)19-6-5-18-15-24-27(36)28-9-4-10-33(24)23(18)16-19/h3,5-8,15-17H,1,4,9-14H2,2H3,(H,28,36)(H,29,35)(H,30,34)
InChIKey=LVLLLDUDSORYQB-UHFFFAOYSA-N

> <PUBCHEM_SUBSTANCE_SYNONYM>
SCHEMBL16123267

> <PUBCHEM_XREF_EXT_ID>
SCHEMBL16123267

> <PUBCHEM_EXT_DATASOURCE_URL>
https://www.surechembl.org/

> <PUBCHEM_EXT_SUBSTANCE_URL>
https://www.surechembl.org/chemical/SCHEMBL16123267

> <PUBCHEM_CID_ASSOCIATIONS>
117611263  1

> <PUBCHEM_COORDINATE_TYPE>
1
3

$$$$
