310942602
  -OEChem-07211613022D

 38 42  0     1  0  0  0  0  0999 V2000
   -4.4957    0.1856    0.0000 F   0  0  0  0  0  0  0  0  0  0  0  0
   -4.4957   -3.1559    0.0000 F   0  0  0  0  0  0  0  0  0  0  0  0
    2.2519    1.6224    0.0000 O   0  0  0  0  0  0  0  0  0  0  0  0
    1.2349    2.6393    0.0000 O   0  0  0  0  0  0  0  0  0  0  0  0
   -2.0582    0.2502    0.0000 N   0  0  0  0  0  0  0  0  0  0  0  0
   -2.3487   -1.0574    0.0000 N   0  0  0  0  0  0  0  0  0  0  0  0
   -0.4762   -1.2349    0.0000 N   0  0  0  0  0  0  0  0  0  0  0  0
    0.8637    1.2672    0.0000 N   0  0  0  0  0  0  0  0  0  0  0  0
   -1.7353   -0.4923    0.0000 C   0  0  0  0  0  0  0  0  0  0  0  0
   -3.0752   -0.6538    0.0000 C   0  0  0  0  0  0  0  0  0  0  0  0
   -3.7854   -1.0574    0.0000 C   0  0  0  0  0  0  0  0  0  0  0  0
   -0.8959   -0.5085    0.0000 C   0  0  3  0  0  0  0  0  0  0  0  0
   -2.8815    0.1695    0.0000 C   0  0  0  0  0  0  0  0  0  0  0  0
   -0.3148    0.1049    0.0000 C   0  0  0  0  0  0  0  0  0  0  0  0
   -4.5119   -0.6538    0.0000 C   0  0  0  0  0  0  0  0  0  0  0  0
   -1.6384    1.1865    0.0000 C   0  0  0  0  0  0  0  0  0  0  0  0
   -3.8016   -1.9129    0.0000 C   0  0  0  0  0  0  0  0  0  0  0  0
   -2.2357    1.7837    0.0000 C   0  0  0  0  0  0  0  0  0  0  0  0
   -0.5085    0.8959    0.0000 C   0  0  0  0  0  0  0  0  0  0  0  0
    0.4923   -0.1211    0.0000 C   0  0  0  0  0  0  0  0  0  0  0  0
   -4.4957   -2.3003    0.0000 C   0  0  0  0  0  0  0  0  0  0  0  0
   -5.2222   -1.0735    0.0000 C   0  0  0  0  0  0  0  0  0  0  0  0
   -5.2060   -1.8967    0.0000 C   0  0  0  0  0  0  0  0  0  0  0  0
    0.0565    1.4771    0.0000 C   0  0  0  0  0  0  0  0  0  0  0  0
    1.0735    0.4762    0.0000 C   0  0  0  0  0  0  0  0  0  0  0  0
    1.4609    1.8322    0.0000 C   0  0  0  0  0  0  0  0  0  0  0  0
   -2.0259    2.5909    0.0000 C   0  0  0  0  0  0  0  0  0  0  0  0
   -3.0268    1.5739    0.0000 C   0  0  0  0  0  0  0  0  0  0  0  0
   -2.5909    3.1559    0.0000 C   0  0  0  0  0  0  0  0  0  0  0  0
   -3.5917    2.1550    0.0000 C   0  0  0  0  0  0  0  0  0  0  0  0
   -3.3819    2.9622    0.0000 C   0  0  0  0  0  0  0  0  0  0  0  0
    2.8330    2.2196    0.0000 C   0  0  0  0  0  0  0  0  0  0  0  0
    3.6401    2.0098    0.0000 C   0  0  0  0  0  0  0  0  0  0  0  0
    3.8178    1.2349    0.0000 C   0  0  0  0  0  0  0  0  0  0  0  0
    4.2374    2.5748    0.0000 C   0  0  0  0  0  0  0  0  0  0  0  0
    4.6249    0.9766    0.0000 C   0  0  0  0  0  0  0  0  0  0  0  0
    5.0445    2.3165    0.0000 C   0  0  0  0  0  0  0  0  0  0  0  0
    5.2222    1.5255    0.0000 C   0  0  0  0  0  0  0  0  0  0  0  0
  1 15  1  0  0  0  0
  2 21  1  0  0  0  0
  3 26  1  0  0  0  0
  3 32  1  0  0  0  0
  4 26  2  0  0  0  0
  5  9  1  0  0  0  0
  5 13  1  0  0  0  0
  5 16  1  0  0  0  0
  6  9  2  0  0  0  0
  6 10  1  0  0  0  0
 12  7  1  1  0  0  0
  8 24  1  0  0  0  0
  8 25  1  0  0  0  0
  8 26  1  0  0  0  0
  9 12  1  0  0  0  0
 10 11  1  0  0  0  0
 10 13  2  0  0  0  0
 11 15  2  0  0  0  0
 11 17  1  0  0  0  0
 12 14  1  0  0  0  0
 14 19  1  0  0  0  0
 14 20  1  0  0  0  0
 15 22  1  0  0  0  0
 16 18  1  0  0  0  0
 17 21  2  0  0  0  0
 18 27  2  0  0  0  0
 18 28  1  0  0  0  0
 19 24  1  0  0  0  0
 20 25  1  0  0  0  0
 21 23  1  0  0  0  0
 22 23  2  0  0  0  0
 27 29  1  0  0  0  0
 28 30  2  0  0  0  0
 29 31  2  0  0  0  0
 30 31  1  0  0  0  0
 32 33  1  0  0  0  0
 33 34  2  0  0  0  0
 33 35  1  0  0  0  0
 34 36  1  0  0  0  0
 35 37  2  0  0  0  0
 36 38  2  0  0  0  0
 37 38  1  0  0  0  0
M  END
> <PUBCHEM_COMPOUND_ID_TYPE>
0

> <PUBCHEM_TOTAL_CHARGE>
0

> <PUBCHEM_SUBSTANCE_ID>
310942602

> <PUBCHEM_SUBSTANCE_VERSION>
1

> <PUBCHEM_EXT_DATASOURCE_NAME>
4488

> <PUBCHEM_EXT_DATASOURCE_REGID>
SCHEMBL16120648

> <PUBCHEM_SUBSTANCE_COMMENT>
InChI=1S/C30H30F2N4O2/c31-24-11-12-26(32)25(17-24)27-19-36(18-21-7-3-1-4-8-21)29(34-27)28(33)23-13-15-35(16-14-23)30(37)38-20-22-9-5-2-6-10-22/h1-12,17,19,23,28H,13-16,18,20,33H2/t28-/m1/s1
InChIKey=HVINXUSXMPBOQD-MUUNZHRXSA-N

> <PUBCHEM_SUBSTANCE_SYNONYM>
SCHEMBL16120648

> <PUBCHEM_XREF_EXT_ID>
SCHEMBL16120648

> <PUBCHEM_EXT_DATASOURCE_URL>
https://www.surechembl.org/

> <PUBCHEM_EXT_SUBSTANCE_URL>
https://www.surechembl.org/chemical/SCHEMBL16120648

> <PUBCHEM_CID_ASSOCIATIONS>
117609141  1

> <PUBCHEM_COORDINATE_TYPE>
1
3

> <PUBCHEM_BONDANNOTATIONS>
12  7  5

$$$$
