310930389
  -OEChem-07211613022D

 21 22  0     0  0  0  0  0  0999 V2000
    0.0000   -2.8550    0.0000 Br  0  0  0  0  0  0  0  0  0  0  0  0
    2.0728   -0.7040    0.0000 O   0  0  0  0  0  0  0  0  0  0  0  0
    2.5031   -7.1180    0.0000 O   0  0  0  0  0  0  0  0  0  0  0  0
    3.3243   -1.4080    0.0000 O   0  0  0  0  0  0  0  0  0  0  0  0
    1.2515   -6.4140    0.0000 O   0  0  0  0  0  0  0  0  0  0  0  0
    1.2515   -3.5590    0.0000 N   0  0  0  0  0  0  0  0  0  0  0  0
    3.2853   -4.2630    0.0000 N   0  0  0  0  0  0  0  0  0  0  0  0
    2.0728   -3.5590    0.0000 C   0  0  0  0  0  0  0  0  0  0  0  0
    2.4639   -4.2630    0.0000 C   0  0  0  0  0  0  0  0  0  0  0  0
    2.0728   -2.1511    0.0000 C   0  0  0  0  0  0  0  0  0  0  0  0
    2.5031   -2.8550    0.0000 C   0  0  0  0  0  0  0  0  0  0  0  0
    2.0337   -4.9670    0.0000 C   0  0  0  0  0  0  0  0  0  0  0  0
    2.4639   -5.6710    0.0000 C   0  0  0  0  0  0  0  0  0  0  0  0
    0.8213   -2.8550    0.0000 C   0  0  0  0  0  0  0  0  0  0  0  0
    1.2515   -2.1511    0.0000 C   0  0  0  0  0  0  0  0  0  0  0  0
    2.4639   -1.4080    0.0000 C   0  0  0  0  0  0  0  0  0  0  0  0
    2.0728   -6.4140    0.0000 C   0  0  0  0  0  0  0  0  0  0  0  0
    3.2853   -5.6710    0.0000 C   0  0  0  0  0  0  0  0  0  0  0  0
    3.7155   -4.9670    0.0000 C   0  0  0  0  0  0  0  0  0  0  0  0
    2.4639    0.0000    0.0000 C   0  0  0  0  0  0  0  0  0  0  0  0
    2.1119   -7.8220    0.0000 C   0  0  0  0  0  0  0  0  0  0  0  0
  1 14  1  0  0  0  0
  2 16  1  0  0  0  0
  2 20  1  0  0  0  0
  3 17  1  0  0  0  0
  3 21  1  0  0  0  0
  4 16  2  0  0  0  0
  5 17  2  0  0  0  0
  6  8  1  0  0  0  0
  6 14  2  0  0  0  0
  7  9  1  0  0  0  0
  7 19  2  0  0  0  0
  8  9  1  0  0  0  0
  8 11  2  0  0  0  0
  9 12  2  0  0  0  0
 10 11  1  0  0  0  0
 10 15  2  0  0  0  0
 10 16  1  0  0  0  0
 12 13  1  0  0  0  0
 13 17  1  0  0  0  0
 13 18  2  0  0  0  0
 14 15  1  0  0  0  0
 18 19  1  0  0  0  0
M  END
> <PUBCHEM_COMPOUND_ID_TYPE>
0

> <PUBCHEM_TOTAL_CHARGE>
0

> <PUBCHEM_SUBSTANCE_ID>
310930389

> <PUBCHEM_SUBSTANCE_VERSION>
1

> <PUBCHEM_EXT_DATASOURCE_NAME>
4488

> <PUBCHEM_EXT_DATASOURCE_REGID>
SCHEMBL16107675

> <PUBCHEM_SUBSTANCE_COMMENT>
InChI=1S/C14H11BrN2O4/c1-20-13(18)8-3-4-16-10(5-8)11-6-9(14(19)21-2)7-12(15)17-11/h3-7H,1-2H3
InChIKey=VVRUNLLLSCQIMF-UHFFFAOYSA-N

> <PUBCHEM_SUBSTANCE_SYNONYM>
SCHEMBL16107675

> <PUBCHEM_XREF_EXT_ID>
SCHEMBL16107675

> <PUBCHEM_EXT_DATASOURCE_URL>
https://www.surechembl.org/

> <PUBCHEM_EXT_SUBSTANCE_URL>
https://www.surechembl.org/chemical/SCHEMBL16107675

> <PUBCHEM_CID_ASSOCIATIONS>
117599541  1

> <PUBCHEM_COORDINATE_TYPE>
1
3

$$$$
