310947648
  -OEChem-07211613022D

 65 64  0     1  0  0  0  0  0999 V2000
   -2.4973   -9.7677    0.0000 S   0  0  0  0  0  0  0  0  0  0  0  0
   -3.2116   -9.3553    0.0000 S   0  0  0  0  0  0  0  0  0  0  0  0
   -2.4973  -10.5927    0.0000 O   0  0  0  0  0  0  0  0  0  0  0  0
   -0.3540   -8.5303    0.0000 O   0  0  0  0  0  0  0  0  0  0  0  0
   -1.7828  -13.4801    0.0000 O   0  0  0  0  0  0  0  0  0  0  0  0
   -5.3551   -7.2928    0.0000 O   0  0  0  0  0  0  0  0  0  0  0  0
   -5.3551  -10.5927    0.0000 O   0  0  0  0  0  0  0  0  0  0  0  0
   -6.1469   -9.2973    0.0000 O   0  0  0  0  0  0  0  0  0  0  0  0
   -6.0695   -8.5303    0.0000 O   0  0  0  0  0  0  0  0  0  0  0  0
   -4.6405  -13.4801    0.0000 O   0  0  0  0  0  0  0  0  0  0  0  0
    4.6470   -8.1178    0.0000 O   0  0  0  0  0  0  0  0  0  0  0  0
    3.2182   -8.1178    0.0000 O   0  0  0  0  0  0  0  0  0  0  0  0
   -3.2116   -6.8804    0.0000 O   0  0  0  0  0  0  0  0  0  0  0  0
   -1.0684   -7.2928    0.0000 O   0  0  0  0  0  0  0  0  0  0  0  0
    1.0750   -6.8804    0.0000 O   0  0  0  0  0  0  0  0  0  0  0  0
   -1.0684  -10.5927    0.0000 N   0  0  0  0  0  0  0  0  0  0  0  0
   -1.0684  -12.2426    0.0000 N   0  0  0  0  0  0  0  0  0  0  0  0
    0.3605   -9.7677    0.0000 N   0  0  0  0  0  0  0  0  0  0  0  0
   -4.6405   -8.5303    0.0000 N   0  0  0  0  0  0  0  0  0  0  0  0
   -0.3540  -14.3051    0.0000 N   0  0  0  0  0  0  0  0  0  0  0  0
   -5.3551  -12.2426    0.0000 N   0  0  0  0  0  0  0  0  0  0  0  0
   -6.0695  -14.3051    0.0000 N   0  0  0  0  0  0  0  0  0  0  0  0
    4.6470   -9.7677    0.0000 N   0  0  0  0  0  0  0  0  0  0  0  0
    3.2182  -13.0676    0.0000 N   0  0  0  0  0  0  0  0  0  0  0  0
   -9.6416  -13.0676    0.0000 N   0  0  0  0  0  0  0  0  0  0  0  0
   -1.7828  -11.8302    0.0000 C   0  0  3  0  0  0  0  0  0  0  0  0
   -1.7828  -11.0052    0.0000 C   0  0  0  0  0  0  0  0  0  0  0  0
   -1.0684   -9.7677    0.0000 C   0  0  3  0  0  0  0  0  0  0  0  0
   -0.3540   -9.3553    0.0000 C   0  0  0  0  0  0  0  0  0  0  0  0
   -1.0684  -13.0676    0.0000 C   0  0  0  0  0  0  0  0  0  0  0  0
   -2.4973  -12.2426    0.0000 C   0  0  0  0  0  0  0  0  0  0  0  0
   -1.7828   -9.3553    0.0000 C   0  0  0  0  0  0  0  0  0  0  0  0
   -0.3540  -13.4801    0.0000 C   0  0  3  0  0  0  0  0  0  0  0  0
   -3.2116  -11.8302    0.0000 C   0  0  0  0  0  0  0  0  0  0  0  0
   -4.6405   -9.3553    0.0000 C   0  0  3  0  0  0  0  0  0  0  0  0
    0.3605  -13.0676    0.0000 C   0  0  0  0  0  0  0  0  0  0  0  0
   -3.9261   -9.7677    0.0000 C   0  0  0  0  0  0  0  0  0  0  0  0
    1.0750   -9.3553    0.0000 C   0  0  0  0  0  0  0  0  0  0  0  0
   -5.3551   -9.7677    0.0000 C   0  0  0  0  0  0  0  0  0  0  0  0
   -3.9261  -12.2426    0.0000 C   0  0  0  0  0  0  0  0  0  0  0  0
   -5.3551   -8.1178    0.0000 C   0  0  0  0  0  0  0  0  0  0  0  0
    1.0750  -13.4801    0.0000 C   0  0  0  0  0  0  0  0  0  0  0  0
    1.7893   -9.7677    0.0000 C   0  0  0  0  0  0  0  0  0  0  0  0
   -4.6405  -11.8302    0.0000 C   0  0  0  0  0  0  0  0  0  0  0  0
   -5.3551  -13.0676    0.0000 C   0  0  0  0  0  0  0  0  0  0  0  0
    2.5038   -9.3553    0.0000 C   0  0  0  0  0  0  0  0  0  0  0  0
    1.7893  -13.0676    0.0000 C   0  0  0  0  0  0  0  0  0  0  0  0
   -6.0695  -13.4801    0.0000 C   0  0  3  0  0  0  0  0  0  0  0  0
    3.9327   -9.3553    0.0000 C   0  0  3  0  0  0  0  0  0  0  0  0
    3.2182   -9.7677    0.0000 C   0  0  0  0  0  0  0  0  0  0  0  0
    3.9327   -8.5303    0.0000 C   0  0  0  0  0  0  0  0  0  0  0  0
   -4.6405   -6.8804    0.0000 C   0  0  0  0  0  0  0  0  0  0  0  0
   -6.7839  -13.0676    0.0000 C   0  0  0  0  0  0  0  0  0  0  0  0
    2.5038  -13.4801    0.0000 C   0  0  0  0  0  0  0  0  0  0  0  0
   -3.9261   -7.2928    0.0000 C   0  0  0  0  0  0  0  0  0  0  0  0
   -7.4984  -13.4801    0.0000 C   0  0  0  0  0  0  0  0  0  0  0  0
    4.6470   -7.2928    0.0000 C   0  0  0  0  0  0  0  0  0  0  0  0
   -8.2127  -13.0676    0.0000 C   0  0  0  0  0  0  0  0  0  0  0  0
   -2.4973   -7.2928    0.0000 C   0  0  0  0  0  0  0  0  0  0  0  0
   -8.9272  -13.4801    0.0000 C   0  0  0  0  0  0  0  0  0  0  0  0
    5.3616   -6.8804    0.0000 C   0  0  0  0  0  0  0  0  0  0  0  0
   -1.7828   -6.8804    0.0000 C   0  0  0  0  0  0  0  0  0  0  0  0
   -0.3540   -6.8804    0.0000 C   0  0  0  0  0  0  0  0  0  0  0  0
    0.3605   -7.2928    0.0000 C   0  0  0  0  0  0  0  0  0  0  0  0
    1.7893   -7.2928    0.0000 C   0  0  0  0  0  0  0  0  0  0  0  0
  1  2  1  0  0  0  0
  1 32  1  0  0  0  0
  2 37  1  0  0  0  0
  3 27  2  0  0  0  0
  4 29  2  0  0  0  0
  5 30  2  0  0  0  0
  6 41  1  0  0  0  0
  6 52  1  0  0  0  0
  7 39  2  0  0  0  0
  8 39  1  0  0  0  0
  9 41  2  0  0  0  0
 10 45  2  0  0  0  0
 11 51  1  0  0  0  0
 11 57  1  0  0  0  0
 12 51  2  0  0  0  0
 13 55  1  0  0  0  0
 13 59  1  0  0  0  0
 14 62  1  0  0  0  0
 14 63  1  0  0  0  0
 15 64  1  0  0  0  0
 15 65  1  0  0  0  0
 16 27  1  0  0  0  0
 28 16  1  1  0  0  0
 26 17  1  1  0  0  0
 17 30  1  0  0  0  0
 18 29  1  0  0  0  0
 18 38  1  0  0  0  0
 35 19  1  1  0  0  0
 19 41  1  0  0  0  0
 33 20  1  6  0  0  0
 21 44  1  0  0  0  0
 21 45  1  0  0  0  0
 48 22  1  1  0  0  0
 49 23  1  1  0  0  0
 24 54  1  0  0  0  0
 25 60  1  0  0  0  0
 26 27  1  0  0  0  0
 26 31  1  0  0  0  0
 28 29  1  0  0  0  0
 28 32  1  0  0  0  0
 30 33  1  0  0  0  0
 31 34  1  0  0  0  0
 33 36  1  0  0  0  0
 34 40  1  0  0  0  0
 35 37  1  0  0  0  0
 35 39  1  0  0  0  0
 36 42  1  0  0  0  0
 38 43  1  0  0  0  0
 40 44  1  0  0  0  0
 42 47  1  0  0  0  0
 43 46  1  0  0  0  0
 45 48  1  0  0  0  0
 46 50  1  0  0  0  0
 47 54  1  0  0  0  0
 48 53  1  0  0  0  0
 49 50  1  0  0  0  0
 49 51  1  0  0  0  0
 52 55  1  0  0  0  0
 53 56  1  0  0  0  0
 56 58  1  0  0  0  0
 57 61  1  0  0  0  0
 58 60  1  0  0  0  0
 59 62  1  0  0  0  0
 63 64  1  0  0  0  0
M  END
> <PUBCHEM_COMPOUND_ID_TYPE>
0

> <PUBCHEM_TOTAL_CHARGE>
0

> <PUBCHEM_SUBSTANCE_ID>
310947648

> <PUBCHEM_SUBSTANCE_VERSION>
1

> <PUBCHEM_EXT_DATASOURCE_NAME>
4488

> <PUBCHEM_EXT_DATASOURCE_REGID>
SCHEMBL16125815

> <PUBCHEM_SUBSTANCE_COMMENT>
InChI=1S/C40H78N10O13S2/c1-3-62-39(57)30(45)14-6-10-19-47-36(53)32(26-64-65-27-33(38(55)56)50-40(58)63-25-24-61-23-22-60-21-20-59-2)49-37(54)31(48-35(52)29(44)13-5-9-17-42)15-7-11-18-46-34(51)28(43)12-4-8-16-41/h28-33H,3-27,41-45H2,1-2H3,(H,46,51)(H,47,53)(H,48,52)(H,49,54)(H,50,58)(H,55,56)/t28-,29-,30-,31-,32-,33-/m0/s1
InChIKey=RIQZFTPUSOHSDL-FSJACQRISA-N

> <PUBCHEM_SUBSTANCE_SYNONYM>
SCHEMBL16125815

> <PUBCHEM_XREF_EXT_ID>
SCHEMBL16125815

> <PUBCHEM_EXT_DATASOURCE_URL>
https://www.surechembl.org/

> <PUBCHEM_EXT_SUBSTANCE_URL>
https://www.surechembl.org/chemical/SCHEMBL16125815

> <PUBCHEM_CID_ASSOCIATIONS>
117613364  1

> <PUBCHEM_COORDINATE_TYPE>
1
3

> <PUBCHEM_BONDANNOTATIONS>
28  16  5
26  17  5
35  19  5
33  20  6
48  22  5
49  23  5

$$$$
