310941038
  -OEChem-07211613022D

 42 46  0     1  0  0  0  0  0999 V2000
    5.2190   -1.6081    0.0000 O   0  0  0  0  0  0  0  0  0  0  0  0
    4.0787    0.3655    0.0000 O   0  0  0  0  0  0  0  0  0  0  0  0
    3.0115    1.1842    0.0000 O   0  0  0  0  0  0  0  0  0  0  0  0
    1.6958   -1.5934    0.0000 O   0  0  0  0  0  0  0  0  0  0  0  0
   -0.4824    0.4971    0.0000 O   0  0  0  0  0  0  0  0  0  0  0  0
   -2.6460   -1.5934    0.0000 O   0  0  0  0  0  0  0  0  0  0  0  0
   -5.5260   -1.5934    0.0000 O   0  0  0  0  0  0  0  0  0  0  0  0
    2.4121   -0.3363    0.0000 N   0  0  0  0  0  0  0  0  0  0  0  0
    0.2485   -0.7602    0.0000 N   0  0  0  0  0  0  0  0  0  0  0  0
   -1.9151   -0.3363    0.0000 N   0  0  0  0  0  0  0  0  0  0  0  0
   -4.0787   -0.7602    0.0000 N   0  0  0  0  0  0  0  0  0  0  0  0
    4.8096   -0.8625    0.0000 C   0  0  3  0  0  0  0  0  0  0  0  0
    4.0202   -0.4532    0.0000 C   0  0  0  0  0  0  0  0  0  0  0  0
    4.4003   -1.5496    0.0000 C   0  0  0  0  0  0  0  0  0  0  0  0
    3.3624   -0.8479    0.0000 C   0  0  3  0  0  0  0  0  0  0  0  0
    5.5260   -0.4385    0.0000 C   0  0  0  0  0  0  0  0  0  0  0  0
    1.6958    0.9356    0.0000 C   0  0  0  0  0  0  0  0  0  0  0  0
    1.7981    1.7689    0.0000 C   0  0  0  0  0  0  0  0  0  0  0  0
    1.7104   -0.7017    0.0000 C   0  0  0  0  0  0  0  0  0  0  0  0
    0.9794   -0.3070    0.0000 C   0  0  3  0  0  0  0  0  0  0  0  0
    3.3478   -1.9297    0.0000 C   0  0  0  0  0  0  0  0  0  0  0  0
    2.5876    1.9443    0.0000 C   0  0  0  0  0  0  0  0  0  0  0  0
    0.9941    0.5263    0.0000 C   0  0  0  0  0  0  0  0  0  0  0  0
    2.4706    0.6140    0.0000 C   0  0  0  0  0  0  0  0  0  0  0  0
    2.6460   -2.3537    0.0000 C   0  0  0  0  0  0  0  0  0  0  0  0
    1.2426    2.3829    0.0000 C   0  0  0  0  0  0  0  0  0  0  0  0
    2.8507    2.7338    0.0000 C   0  0  0  0  0  0  0  0  0  0  0  0
   -0.4824   -0.3363    0.0000 C   0  0  0  0  0  0  0  0  0  0  0  0
    1.4912    3.1723    0.0000 C   0  0  0  0  0  0  0  0  0  0  0  0
    1.8712   -2.0174    0.0000 C   0  0  0  0  0  0  0  0  0  0  0  0
    2.5437   -3.1723    0.0000 C   0  0  0  0  0  0  0  0  0  0  0  0
    2.2951    3.3331    0.0000 C   0  0  0  0  0  0  0  0  0  0  0  0
   -1.1695   -0.7163    0.0000 C   0  0  3  0  0  0  0  0  0  0  0  0
    1.3303   -2.6314    0.0000 C   0  0  0  0  0  0  0  0  0  0  0  0
    1.7397   -3.3331    0.0000 C   0  0  0  0  0  0  0  0  0  0  0  0
   -2.6314   -0.7017    0.0000 C   0  0  0  0  0  0  0  0  0  0  0  0
   -1.1842   -1.5350    0.0000 C   0  0  0  0  0  0  0  0  0  0  0  0
   -3.3916   -0.3216    0.0000 C   0  0  0  0  0  0  0  0  0  0  0  0
   -4.0787   -1.5642    0.0000 C   0  0  0  0  0  0  0  0  0  0  0  0
   -4.8096   -0.3216    0.0000 C   0  0  0  0  0  0  0  0  0  0  0  0
   -4.7804   -1.9590    0.0000 C   0  0  0  0  0  0  0  0  0  0  0  0
   -5.5113   -0.7163    0.0000 C   0  0  0  0  0  0  0  0  0  0  0  0
  1 12  1  0  0  0  0
  1 14  1  0  0  0  0
  2 13  2  0  0  0  0
  3 22  1  0  0  0  0
  3 24  1  0  0  0  0
  4 19  2  0  0  0  0
  5 28  2  0  0  0  0
  6 36  2  0  0  0  0
  7 41  1  0  0  0  0
  7 42  1  0  0  0  0
 15  8  1  6  0  0  0
  8 19  1  0  0  0  0
 20  9  1  1  0  0  0
  9 28  1  0  0  0  0
 10 33  1  0  0  0  0
 10 36  1  0  0  0  0
 11 38  1  0  0  0  0
 11 39  1  0  0  0  0
 11 40  1  0  0  0  0
 12 13  1  6  0  0  0
 12 14  1  0  0  0  0
 12 16  1  1  0  0  0
 13 15  1  0  0  0  0
 15 21  1  0  0  0  0
 17 18  1  0  0  0  0
 17 23  1  0  0  0  0
 17 24  2  0  0  0  0
 18 22  1  0  0  0  0
 18 26  2  0  0  0  0
 19 20  1  0  0  0  0
 20 23  1  0  0  0  0
 21 25  1  0  0  0  0
 22 27  2  0  0  0  0
 25 30  1  0  0  0  0
 25 31  1  0  0  0  0
 26 29  1  0  0  0  0
 27 32  1  0  0  0  0
 28 33  1  0  0  0  0
 29 32  2  0  0  0  0
 30 34  1  0  0  0  0
 31 35  1  0  0  0  0
 33 37  1  6  0  0  0
 34 35  1  0  0  0  0
 36 38  1  0  0  0  0
 39 41  1  0  0  0  0
 40 42  1  0  0  0  0
M  END
> <PUBCHEM_COMPOUND_ID_TYPE>
0

> <PUBCHEM_TOTAL_CHARGE>
0

> <PUBCHEM_SUBSTANCE_ID>
310941038

> <PUBCHEM_SUBSTANCE_VERSION>
1

> <PUBCHEM_EXT_DATASOURCE_NAME>
4488

> <PUBCHEM_EXT_DATASOURCE_REGID>
SCHEMBL16118997

> <PUBCHEM_SUBSTANCE_COMMENT>
InChI=1S/C31H42N4O7/c1-20(32-27(36)17-35-11-13-40-14-12-35)29(38)34-25(16-22-18-41-26-10-6-5-9-23(22)26)30(39)33-24(15-21-7-3-4-8-21)28(37)31(2)19-42-31/h5-6,9-10,18,20-21,24-25H,3-4,7-8,11-17,19H2,1-2H3,(H,32,36)(H,33,39)(H,34,38)/t20-,24-,25-,31+/m0/s1
InChIKey=IEKZIZCPJXIFNH-QXLKWZLXSA-N

> <PUBCHEM_SUBSTANCE_SYNONYM>
SCHEMBL16118997

> <PUBCHEM_XREF_EXT_ID>
SCHEMBL16118997

> <PUBCHEM_EXT_DATASOURCE_URL>
https://www.surechembl.org/

> <PUBCHEM_EXT_SUBSTANCE_URL>
https://www.surechembl.org/chemical/SCHEMBL16118997

> <PUBCHEM_CID_ASSOCIATIONS>
117607932  1

> <PUBCHEM_COORDINATE_TYPE>
1
3

> <PUBCHEM_BONDANNOTATIONS>
12  13  6
12  16  5
33  37  6
15  8  6
20  9  5

$$$$
