310947097
  -OEChem-07211613022D

 42 43  0     1  0  0  0  0  0999 V2000
   -5.0013   -0.7271    0.0000 O   0  0  0  0  0  0  0  0  0  0  0  0
   -7.0977    0.5828    0.0000 O   0  0  0  0  0  0  0  0  0  0  0  0
   -2.9049   -0.2422    0.0000 O   0  0  0  0  0  0  0  0  0  0  0  0
   -8.5266   -1.8922    0.0000 O   0  0  0  0  0  0  0  0  0  0  0  0
   -2.1904   -1.4797    0.0000 O   0  0  0  0  0  0  0  0  0  0  0  0
   -6.3832   -0.6547    0.0000 N   0  0  0  0  0  0  0  0  0  0  0  0
   -7.8121   -0.6547    0.0000 N   0  0  0  0  0  0  0  0  0  0  0  0
   -4.1039    1.2099    0.0000 N   0  0  0  0  0  0  0  0  0  0  0  0
   -4.4394    1.9635    0.0000 N   0  3  0  0  0  0  0  0  0  0  0  0
   -4.7750    2.7172    0.0000 N   0  5  0  0  0  0  0  0  0  0  0  0
   -5.6687   -0.2422    0.0000 C   0  0  3  0  0  0  0  0  0  0  0  0
   -4.3339   -0.2422    0.0000 C   0  0  3  0  0  0  0  0  0  0  0  0
   -4.5888    0.5424    0.0000 C   0  0  3  0  0  0  0  0  0  0  0  0
   -5.4138    0.5424    0.0000 C   0  0  0  0  0  0  0  0  0  0  0  0
   -7.0977   -0.2422    0.0000 C   0  0  0  0  0  0  0  0  0  0  0  0
   -6.3832   -1.4797    0.0000 C   0  0  0  0  0  0  0  0  0  0  0  0
   -7.0977   -1.8922    0.0000 C   0  0  0  0  0  0  0  0  0  0  0  0
   -7.8121   -1.4797    0.0000 C   0  0  0  0  0  0  0  0  0  0  0  0
   -3.6194   -0.6547    0.0000 C   0  0  0  0  0  0  0  0  0  0  0  0
   -7.0977   -2.7172    0.0000 C   0  0  0  0  0  0  0  0  0  0  0  0
   -2.1904   -0.6547    0.0000 C   0  0  0  0  0  0  0  0  0  0  0  0
   -1.4760   -0.2422    0.0000 C   0  0  0  0  0  0  0  0  0  0  0  0
   -0.7615   -0.6547    0.0000 C   0  0  0  0  0  0  0  0  0  0  0  0
   -0.0470   -0.2422    0.0000 C   0  0  0  0  0  0  0  0  0  0  0  0
    0.6674   -0.6547    0.0000 C   0  0  0  0  0  0  0  0  0  0  0  0
    0.6674   -1.4797    0.0000 C   0  0  0  0  0  0  0  0  0  0  0  0
    1.3819   -1.8922    0.0000 C   0  0  0  0  0  0  0  0  0  0  0  0
    2.0964   -1.4797    0.0000 C   0  0  0  0  0  0  0  0  0  0  0  0
    2.0964   -0.6547    0.0000 C   0  0  0  0  0  0  0  0  0  0  0  0
    2.8109   -0.2422    0.0000 C   0  0  0  0  0  0  0  0  0  0  0  0
    3.5253   -0.6547    0.0000 C   0  0  0  0  0  0  0  0  0  0  0  0
    3.5253   -1.4797    0.0000 C   0  0  0  0  0  0  0  0  0  0  0  0
    4.2398   -1.8922    0.0000 C   0  0  0  0  0  0  0  0  0  0  0  0
    4.9543   -1.4797    0.0000 C   0  0  0  0  0  0  0  0  0  0  0  0
    4.9543   -0.6547    0.0000 C   0  0  0  0  0  0  0  0  0  0  0  0
    5.6687   -0.2422    0.0000 C   0  0  0  0  0  0  0  0  0  0  0  0
    6.3832   -0.6547    0.0000 C   0  0  0  0  0  0  0  0  0  0  0  0
    6.3832   -1.4797    0.0000 C   0  0  0  0  0  0  0  0  0  0  0  0
    7.0977   -1.8922    0.0000 C   0  0  0  0  0  0  0  0  0  0  0  0
    7.8121   -1.4797    0.0000 C   0  0  0  0  0  0  0  0  0  0  0  0
    7.8121   -0.6547    0.0000 C   0  0  0  0  0  0  0  0  0  0  0  0
    8.5266   -0.2422    0.0000 C   0  0  0  0  0  0  0  0  0  0  0  0
  1 11  1  0  0  0  0
  1 12  1  0  0  0  0
  2 15  2  0  0  0  0
  3 19  1  0  0  0  0
  3 21  1  0  0  0  0
  4 18  2  0  0  0  0
  5 21  2  0  0  0  0
  6 11  1  0  0  0  0
  6 15  1  0  0  0  0
  6 16  1  0  0  0  0
  7 15  1  0  0  0  0
  7 18  1  0  0  0  0
  8  9  2  0  0  0  0
 13  8  1  6  0  0  0
  9 10  2  0  0  0  0
 11 14  1  0  0  0  0
 12 13  1  0  0  0  0
 12 19  1  0  0  0  0
 13 14  1  0  0  0  0
 16 17  2  0  0  0  0
 17 18  1  0  0  0  0
 17 20  1  0  0  0  0
 21 22  1  0  0  0  0
 22 23  1  0  0  0  0
 23 24  1  0  0  0  0
 24 25  2  0  0  0  0
 25 26  1  0  0  0  0
 26 27  1  0  0  0  0
 27 28  2  0  0  0  0
 28 29  1  0  0  0  0
 29 30  1  0  0  0  0
 30 31  2  0  0  0  0
 31 32  1  0  0  0  0
 32 33  1  0  0  0  0
 33 34  2  0  0  0  0
 34 35  1  0  0  0  0
 35 36  1  0  0  0  0
 36 37  2  0  0  0  0
 37 38  1  0  0  0  0
 38 39  1  0  0  0  0
 39 40  2  0  0  0  0
 40 41  1  0  0  0  0
 41 42  1  0  0  0  0
M  CHG  2   9   1  10  -1
M  END
> <PUBCHEM_COMPOUND_ID_TYPE>
0

> <PUBCHEM_TOTAL_CHARGE>
0

> <PUBCHEM_SUBSTANCE_ID>
310947097

> <PUBCHEM_SUBSTANCE_VERSION>
1

> <PUBCHEM_EXT_DATASOURCE_NAME>
4488

> <PUBCHEM_EXT_DATASOURCE_REGID>
SCHEMBL16125251

> <PUBCHEM_SUBSTANCE_COMMENT>
InChI=1S/C32H43N5O5/c1-3-4-5-6-7-8-9-10-11-12-13-14-15-16-17-18-19-20-21-22-30(38)41-25-28-27(35-36-33)23-29(42-28)37-24-26(2)31(39)34-32(37)40/h4-5,7-8,10-11,13-14,16-17,19-20,24,27-29H,3,6,9,12,15,18,21-23,25H2,1-2H3,(H,34,39,40)/b5-4-,8-7-,11-10-,14-13-,17-16-,20-19-/t27-,28?,29?/m0/s1
InChIKey=MLMWFOLSIKNICF-CYMDLWRXSA-N

> <PUBCHEM_SUBSTANCE_SYNONYM>
SCHEMBL16125251

> <PUBCHEM_XREF_EXT_ID>
SCHEMBL16125251

> <PUBCHEM_EXT_DATASOURCE_URL>
https://www.surechembl.org/

> <PUBCHEM_EXT_SUBSTANCE_URL>
https://www.surechembl.org/chemical/SCHEMBL16125251

> <PUBCHEM_CID_ASSOCIATIONS>
117612949  1

> <PUBCHEM_COORDINATE_TYPE>
1
3

> <PUBCHEM_BONDANNOTATIONS>
13  8  6

$$$$
