310931907
  -OEChem-07211613022D

 32 35  0     0  0  0  0  0  0999 V2000
    0.1415   -1.5209    0.0000 F   0  0  0  0  0  0  0  0  0  0  0  0
    3.8907   -2.5820    0.0000 O   0  0  0  0  0  0  0  0  0  0  0  0
    8.4181   -2.6527    0.0000 O   0  0  0  0  0  0  0  0  0  0  0  0
   10.6110   -3.0418    0.0000 O   0  0  0  0  0  0  0  0  0  0  0  0
    4.7750   -1.4148    0.0000 N   0  0  0  0  0  0  0  0  0  0  0  0
    4.7042   -0.5659    0.0000 N   0  0  0  0  0  0  0  0  0  0  0  0
    6.2251   -1.4148    0.0000 N   0  0  0  0  0  0  0  0  0  0  0  0
    7.6753   -3.8907    0.0000 N   0  0  0  0  0  0  0  0  0  0  0  0
    0.0000   -0.0707    0.0000 N   0  0  0  0  0  0  0  0  0  0  0  0
    4.0322   -1.7331    0.0000 C   0  0  0  0  0  0  0  0  0  0  0  0
    3.4663   -1.1318    0.0000 C   0  0  0  0  0  0  0  0  0  0  0  0
    2.6527   -1.2380    0.0000 C   0  0  0  0  0  0  0  0  0  0  0  0
    5.5178   -1.8393    0.0000 C   0  0  0  0  0  0  0  0  0  0  0  0
    3.8907   -0.4244    0.0000 C   0  0  0  0  0  0  0  0  0  0  0  0
    2.1576   -0.5659    0.0000 C   0  0  0  0  0  0  0  0  0  0  0  0
    2.2990   -2.0161    0.0000 C   0  0  0  0  0  0  0  0  0  0  0  0
    5.5178   -2.6527    0.0000 C   0  0  0  0  0  0  0  0  0  0  0  0
    1.3087   -0.6721    0.0000 C   0  0  0  0  0  0  0  0  0  0  0  0
    6.9679   -2.6527    0.0000 C   0  0  0  0  0  0  0  0  0  0  0  0
    0.9903   -1.4148    0.0000 C   0  0  0  0  0  0  0  0  0  0  0  0
    6.9679   -1.8393    0.0000 C   0  0  0  0  0  0  0  0  0  0  0  0
    6.2251   -3.0772    0.0000 C   0  0  0  0  0  0  0  0  0  0  0  0
    1.4855   -2.0868    0.0000 C   0  0  0  0  0  0  0  0  0  0  0  0
    7.6753   -3.0772    0.0000 C   0  0  0  0  0  0  0  0  0  0  0  0
    0.8135    0.0000    0.0000 C   0  0  0  0  0  0  0  0  0  0  0  0
    4.5274   -3.1126    0.0000 C   0  0  0  0  0  0  0  0  0  0  0  0
    8.4181   -4.3151    0.0000 C   0  0  0  0  0  0  0  0  0  0  0  0
    9.1255   -3.8907    0.0000 C   0  0  0  0  0  0  0  0  0  0  0  0
    9.8683   -4.3151    0.0000 C   0  0  0  0  0  0  0  0  0  0  0  0
    9.1608   -3.0772    0.0000 C   0  0  0  0  0  0  0  0  0  0  0  0
   10.5757   -3.8907    0.0000 C   0  0  0  0  0  0  0  0  0  0  0  0
    9.8683   -2.6527    0.0000 C   0  0  0  0  0  0  0  0  0  0  0  0
  1 20  1  0  0  0  0
  2 10  1  0  0  0  0
  2 26  1  0  0  0  0
  3 24  2  0  0  0  0
  4 31  1  0  0  0  0
  4 32  1  0  0  0  0
  5  6  1  0  0  0  0
  5 10  1  0  0  0  0
  5 13  1  0  0  0  0
  6 14  2  0  0  0  0
  7 13  2  0  0  0  0
  7 21  1  0  0  0  0
  8 24  1  0  0  0  0
  8 27  1  0  0  0  0
  9 25  3  0  0  0  0
 10 11  2  0  0  0  0
 11 12  1  0  0  0  0
 11 14  1  0  0  0  0
 12 15  1  0  0  0  0
 12 16  2  0  0  0  0
 13 17  1  0  0  0  0
 15 18  2  0  0  0  0
 16 23  1  0  0  0  0
 17 22  2  0  0  0  0
 18 20  1  0  0  0  0
 18 25  1  0  0  0  0
 19 21  2  0  0  0  0
 19 22  1  0  0  0  0
 19 24  1  0  0  0  0
 20 23  2  0  0  0  0
 27 28  1  0  0  0  0
 28 29  1  0  0  0  0
 28 30  1  0  0  0  0
 29 31  1  0  0  0  0
 30 32  1  0  0  0  0
M  END
> <PUBCHEM_COMPOUND_ID_TYPE>
0

> <PUBCHEM_TOTAL_CHARGE>
0

> <PUBCHEM_SUBSTANCE_ID>
310931907

> <PUBCHEM_SUBSTANCE_VERSION>
1

> <PUBCHEM_EXT_DATASOURCE_NAME>
4488

> <PUBCHEM_EXT_DATASOURCE_REGID>
SCHEMBL16109242

> <PUBCHEM_SUBSTANCE_COMMENT>
InChI=1S/C23H22FN5O3/c1-31-23-19(16-2-4-20(24)18(10-16)11-25)14-28-29(23)21-5-3-17(13-26-21)22(30)27-12-15-6-8-32-9-7-15/h2-5,10,13-15H,6-9,12H2,1H3,(H,27,30)
InChIKey=PBCTUFGQONKTOT-UHFFFAOYSA-N

> <PUBCHEM_SUBSTANCE_SYNONYM>
SCHEMBL16109242

> <PUBCHEM_XREF_EXT_ID>
SCHEMBL16109242

> <PUBCHEM_EXT_DATASOURCE_URL>
https://www.surechembl.org/

> <PUBCHEM_EXT_SUBSTANCE_URL>
https://www.surechembl.org/chemical/SCHEMBL16109242

> <PUBCHEM_CID_ASSOCIATIONS>
117600561  1

> <PUBCHEM_COORDINATE_TYPE>
1
3

$$$$
