310939214
  -OEChem-07211613022D

 28 29  0     1  0  0  0  0  0999 V2000
   -1.0717    1.8563    0.0000 Cl  0  0  0  0  0  0  0  0  0  0  0  0
   -2.5006   -0.6187    0.0000 F   0  0  0  0  0  0  0  0  0  0  0  0
    3.9296   -1.8563    0.0000 F   0  0  0  0  0  0  0  0  0  0  0  0
    4.6441   -0.6187    0.0000 F   0  0  0  0  0  0  0  0  0  0  0  0
    4.6441   -1.4437    0.0000 F   0  0  0  0  0  0  0  0  0  0  0  0
   -1.0717    0.2062    0.0000 O   0  0  0  0  0  0  0  0  0  0  0  0
    1.0717   -1.0313    0.0000 O   0  0  0  0  0  0  0  0  0  0  0  0
    1.7862    0.2062    0.0000 N   0  0  0  0  0  0  0  0  0  0  0  0
   -4.6441    0.6187    0.0000 N   0  0  0  0  0  0  0  0  0  0  0  0
    2.5006   -1.0313    0.0000 N   0  0  0  0  0  0  0  0  0  0  0  0
   -1.7862    0.6187    0.0000 C   0  0  0  0  0  0  0  0  0  0  0  0
   -2.5006    0.2062    0.0000 C   0  0  0  0  0  0  0  0  0  0  0  0
   -3.2151    0.6187    0.0000 C   0  0  0  0  0  0  0  0  0  0  0  0
   -1.7862    1.4437    0.0000 C   0  0  0  0  0  0  0  0  0  0  0  0
   -0.3572    0.6187    0.0000 C   0  0  0  0  0  0  0  0  0  0  0  0
   -3.2151    1.4437    0.0000 C   0  0  0  0  0  0  0  0  0  0  0  0
   -3.9296    0.2062    0.0000 C   0  0  3  0  0  0  0  0  0  0  0  0
   -2.5006    1.8563    0.0000 C   0  0  0  0  0  0  0  0  0  0  0  0
    1.0717    0.6187    0.0000 C   0  0  0  0  0  0  0  0  0  0  0  0
    0.3572    0.2062    0.0000 C   0  0  0  0  0  0  0  0  0  0  0  0
   -0.3572    1.4437    0.0000 C   0  0  0  0  0  0  0  0  0  0  0  0
    1.0717    1.4437    0.0000 C   0  0  0  0  0  0  0  0  0  0  0  0
    0.3572    1.8563    0.0000 C   0  0  0  0  0  0  0  0  0  0  0  0
   -3.9296   -0.6187    0.0000 C   0  0  0  0  0  0  0  0  0  0  0  0
    1.7862   -0.6187    0.0000 C   0  0  0  0  0  0  0  0  0  0  0  0
    3.9296   -1.0313    0.0000 C   0  0  0  0  0  0  0  0  0  0  0  0
    3.2151   -0.6187    0.0000 C   0  0  0  0  0  0  0  0  0  0  0  0
   -4.6441   -1.0313    0.0000 C   0  0  0  0  0  0  0  0  0  0  0  0
  1 14  1  0  0  0  0
  2 12  1  0  0  0  0
  3 26  1  0  0  0  0
  4 26  1  0  0  0  0
  5 26  1  0  0  0  0
  6 11  1  0  0  0  0
  6 15  1  0  0  0  0
  7 25  2  0  0  0  0
  8 19  1  0  0  0  0
  8 25  1  0  0  0  0
 17  9  1  1  0  0  0
 10 25  1  0  0  0  0
 10 27  1  0  0  0  0
 11 12  1  0  0  0  0
 11 14  2  0  0  0  0
 12 13  2  0  0  0  0
 13 16  1  0  0  0  0
 13 17  1  0  0  0  0
 14 18  1  0  0  0  0
 15 20  2  0  0  0  0
 15 21  1  0  0  0  0
 16 18  2  0  0  0  0
 17 24  1  0  0  0  0
 19 20  1  0  0  0  0
 19 22  2  0  0  0  0
 21 23  2  0  0  0  0
 22 23  1  0  0  0  0
 24 28  1  0  0  0  0
 26 27  1  0  0  0  0
M  END
> <PUBCHEM_COMPOUND_ID_TYPE>
0

> <PUBCHEM_TOTAL_CHARGE>
0

> <PUBCHEM_SUBSTANCE_ID>
310939214

> <PUBCHEM_SUBSTANCE_VERSION>
1

> <PUBCHEM_EXT_DATASOURCE_NAME>
4488

> <PUBCHEM_EXT_DATASOURCE_REGID>
SCHEMBL16117135

> <PUBCHEM_SUBSTANCE_COMMENT>
InChI=1S/C18H18ClF4N3O2/c1-2-14(24)12-6-7-13(19)16(15(12)20)28-11-5-3-4-10(8-11)26-17(27)25-9-18(21,22)23/h3-8,14H,2,9,24H2,1H3,(H2,25,26,27)/t14-/m1/s1
InChIKey=MZMXWHUAVIQGNS-CQSZACIVSA-N

> <PUBCHEM_SUBSTANCE_SYNONYM>
SCHEMBL16117135

> <PUBCHEM_XREF_EXT_ID>
SCHEMBL16117135

> <PUBCHEM_EXT_DATASOURCE_URL>
https://www.surechembl.org/

> <PUBCHEM_EXT_SUBSTANCE_URL>
https://www.surechembl.org/chemical/SCHEMBL16117135

> <PUBCHEM_CID_ASSOCIATIONS>
117606563  1

> <PUBCHEM_COORDINATE_TYPE>
1
3

> <PUBCHEM_BONDANNOTATIONS>
17  9  5

$$$$
