310934027
  -OEChem-07211613022D

 31 34  0     1  0  0  0  0  0999 V2000
    1.0396   -1.4521    0.0000 Br  0  0  0  0  0  0  0  0  0  0  0  0
   -7.1447    2.8875    0.0000 O   0  0  0  0  0  0  0  0  0  0  0  0
   -6.4302    4.1250    0.0000 O   0  0  0  0  0  0  0  0  0  0  0  0
   -4.2868    2.0625    0.0000 N   0  0  0  0  0  0  0  0  0  0  0  0
    0.0000    0.4125    0.0000 N   0  0  0  0  0  0  0  0  0  0  0  0
   -5.7158    2.8875    0.0000 N   0  0  0  0  0  0  0  0  0  0  0  0
   -0.7144   -0.8250    0.0000 N   0  0  0  0  0  0  0  0  0  0  0  0
   -3.5724    0.8250    0.0000 N   0  0  0  0  0  0  0  0  0  0  0  0
    0.7846    0.6674    0.0000 N   0  0  0  0  0  0  0  0  0  0  0  0
   -3.5724    1.6500    0.0000 C   0  0  0  0  0  0  0  0  0  0  0  0
    0.0000   -0.4125    0.0000 C   0  0  0  0  0  0  0  0  0  0  0  0
   -1.4290    0.4125    0.0000 C   0  0  0  0  0  0  0  0  0  0  0  0
   -2.1434    0.8250    0.0000 C   0  0  0  0  0  0  0  0  0  0  0  0
   -4.2868    2.8875    0.0000 C   0  0  3  0  0  0  0  0  0  0  0  0
   -5.0013    1.6500    0.0000 C   0  0  3  0  0  0  0  0  0  0  0  0
   -0.7144    0.8250    0.0000 C   0  0  0  0  0  0  0  0  0  0  0  0
    0.7846   -0.6674    0.0000 C   0  0  0  0  0  0  0  0  0  0  0  0
   -5.0013    3.3000    0.0000 C   0  0  0  0  0  0  0  0  0  0  0  0
   -5.7158    2.0625    0.0000 C   0  0  0  0  0  0  0  0  0  0  0  0
   -1.4290   -0.4125    0.0000 C   0  0  0  0  0  0  0  0  0  0  0  0
   -2.8579    2.0625    0.0000 C   0  0  0  0  0  0  0  0  0  0  0  0
   -2.8579    0.4125    0.0000 C   0  0  0  0  0  0  0  0  0  0  0  0
   -2.1434    1.6500    0.0000 C   0  0  0  0  0  0  0  0  0  0  0  0
   -6.4302    3.3000    0.0000 C   0  0  0  0  0  0  0  0  0  0  0  0
    1.2696    0.0000    0.0000 C   0  0  0  0  0  0  0  0  0  0  0  0
   -5.0013    0.8250    0.0000 C   0  0  0  0  0  0  0  0  0  0  0  0
   -3.5724    3.3000    0.0000 C   0  0  0  0  0  0  0  0  0  0  0  0
   -7.8592    3.3000    0.0000 C   0  0  0  0  0  0  0  0  0  0  0  0
   -8.5736    3.7125    0.0000 C   0  0  0  0  0  0  0  0  0  0  0  0
   -7.8592    4.1250    0.0000 C   0  0  0  0  0  0  0  0  0  0  0  0
   -8.5736    2.8875    0.0000 C   0  0  0  0  0  0  0  0  0  0  0  0
  1 17  1  0  0  0  0
  2 24  1  0  0  0  0
  2 28  1  0  0  0  0
  3 24  2  0  0  0  0
  4 10  1  0  0  0  0
  4 14  1  0  0  0  0
  4 15  1  0  0  0  0
  5  9  1  0  0  0  0
  5 11  1  0  0  0  0
  5 16  1  0  0  0  0
  6 18  1  0  0  0  0
  6 19  1  0  0  0  0
  6 24  1  0  0  0  0
  7 11  1  0  0  0  0
  7 20  2  0  0  0  0
  8 10  2  0  0  0  0
  8 22  1  0  0  0  0
  9 25  2  0  0  0  0
 10 21  1  0  0  0  0
 11 17  2  0  0  0  0
 12 13  1  0  0  0  0
 12 16  2  0  0  0  0
 12 20  1  0  0  0  0
 13 22  2  0  0  0  0
 13 23  1  0  0  0  0
 14 18  1  0  0  0  0
 14 27  1  1  0  0  0
 15 19  1  0  0  0  0
 15 26  1  1  0  0  0
 17 25  1  0  0  0  0
 21 23  2  0  0  0  0
 28 29  1  0  0  0  0
 28 30  1  0  0  0  0
 28 31  1  0  0  0  0
M  END
> <PUBCHEM_COMPOUND_ID_TYPE>
0

> <PUBCHEM_TOTAL_CHARGE>
0

> <PUBCHEM_SUBSTANCE_ID>
310934027

> <PUBCHEM_SUBSTANCE_VERSION>
1

> <PUBCHEM_EXT_DATASOURCE_NAME>
4488

> <PUBCHEM_EXT_DATASOURCE_REGID>
SCHEMBL16111471

> <PUBCHEM_SUBSTANCE_COMMENT>
InChI=1S/C22H27BrN6O2/c1-14-11-27(21(30)31-22(3,4)5)12-15(2)29(14)19-7-6-16(8-24-19)17-9-25-20-18(23)10-26-28(20)13-17/h6-10,13-15H,11-12H2,1-5H3/t14-,15+
InChIKey=YPBAPZWOSXUSOE-GASCZTMLSA-N

> <PUBCHEM_SUBSTANCE_SYNONYM>
SCHEMBL16111471

> <PUBCHEM_XREF_EXT_ID>
SCHEMBL16111471

> <PUBCHEM_EXT_DATASOURCE_URL>
https://www.surechembl.org/

> <PUBCHEM_EXT_SUBSTANCE_URL>
https://www.surechembl.org/chemical/SCHEMBL16111471

> <PUBCHEM_CID_ASSOCIATIONS>
117602327  1

> <PUBCHEM_COORDINATE_TYPE>
1
3

> <PUBCHEM_BONDANNOTATIONS>
14  27  5
15  26  5

$$$$
