310938570
  -OEChem-07211613022D

 18 20  0     0  0  0  0  0  0999 V2000
   -3.9540    0.8254    0.0000 Br  0  0  0  0  0  0  0  0  0  0  0  0
   -5.3829    3.3004    0.0000 Cl  0  0  0  0  0  0  0  0  0  0  0  0
   -3.2395    2.8879    0.0000 N   0  0  0  0  0  0  0  0  0  0  0  0
   -2.4549    1.8080    0.0000 N   0  0  0  0  0  0  0  0  0  0  0  0
   -3.9540    3.3004    0.0000 N   0  0  0  0  0  0  0  0  0  0  0  0
   -3.2395    2.0629    0.0000 C   0  0  0  0  0  0  0  0  0  0  0  0
   -1.9699    2.4754    0.0000 C   0  0  0  0  0  0  0  0  0  0  0  0
   -3.9540    1.6504    0.0000 C   0  0  0  0  0  0  0  0  0  0  0  0
   -2.4549    3.1428    0.0000 C   0  0  0  0  0  0  0  0  0  0  0  0
   -1.1449    2.4754    0.0000 C   0  0  0  0  0  0  0  0  0  0  0  0
   -4.6684    2.8879    0.0000 C   0  0  0  0  0  0  0  0  0  0  0  0
   -4.6684    2.0629    0.0000 C   0  0  0  0  0  0  0  0  0  0  0  0
   -0.7324    3.1899    0.0000 C   0  0  0  0  0  0  0  0  0  0  0  0
   -0.7324    1.7609    0.0000 C   0  0  0  0  0  0  0  0  0  0  0  0
    0.0926    3.1899    0.0000 C   0  0  0  0  0  0  0  0  0  0  0  0
    0.0926    1.7609    0.0000 C   0  0  0  0  0  0  0  0  0  0  0  0
    0.5051    2.4754    0.0000 C   0  0  0  0  0  0  0  0  0  0  0  0
   -1.1449    3.9043    0.0000 C   0  0  0  0  0  0  0  0  0  0  0  0
  1  8  1  0  0  0  0
  2 11  1  0  0  0  0
  3  5  1  0  0  0  0
  3  6  1  0  0  0  0
  3  9  1  0  0  0  0
  4  6  2  0  0  0  0
  4  7  1  0  0  0  0
  5 11  2  0  0  0  0
  6  8  1  0  0  0  0
  7  9  2  0  0  0  0
  7 10  1  0  0  0  0
  8 12  2  0  0  0  0
 10 13  1  0  0  0  0
 10 14  2  0  0  0  0
 11 12  1  0  0  0  0
 13 15  2  0  0  0  0
 13 18  1  0  0  0  0
 14 16  1  0  0  0  0
 15 17  1  0  0  0  0
 16 17  2  0  0  0  0
M  END
> <PUBCHEM_COMPOUND_ID_TYPE>
0

> <PUBCHEM_TOTAL_CHARGE>
0

> <PUBCHEM_SUBSTANCE_ID>
310938570

> <PUBCHEM_SUBSTANCE_VERSION>
1

> <PUBCHEM_EXT_DATASOURCE_NAME>
4488

> <PUBCHEM_EXT_DATASOURCE_REGID>
SCHEMBL16116484

> <PUBCHEM_SUBSTANCE_COMMENT>
InChI=1S/C13H9BrClN3/c1-8-4-2-3-5-9(8)11-7-18-13(16-11)10(14)6-12(15)17-18/h2-7H,1H3
InChIKey=JARCBFXULBSINJ-UHFFFAOYSA-N

> <PUBCHEM_SUBSTANCE_SYNONYM>
SCHEMBL16116484

> <PUBCHEM_XREF_EXT_ID>
SCHEMBL16116484

> <PUBCHEM_EXT_DATASOURCE_URL>
https://www.surechembl.org/

> <PUBCHEM_EXT_SUBSTANCE_URL>
https://www.surechembl.org/chemical/SCHEMBL16116484

> <PUBCHEM_CID_ASSOCIATIONS>
117606007  1

> <PUBCHEM_COORDINATE_TYPE>
1
3

$$$$
