310947622
  -OEChem-07211613022D

 38 41  0     1  0  0  0  0  0999 V2000
   -3.3531   -2.2931    0.0000 Cl  0  0  0  0  0  0  0  0  0  0  0  0
    1.9259   -3.5540    0.0000 Cl  0  0  0  0  0  0  0  0  0  0  0  0
   -1.6488    1.8913    0.0000 S   0  0  0  0  0  0  0  0  0  0  0  0
   -3.0898   -0.6166    0.0000 F   0  0  0  0  0  0  0  0  0  0  0  0
    1.2193   -0.6166    0.0000 O   0  0  0  0  0  0  0  0  0  0  0  0
    0.4988    1.4756    0.0000 O   0  0  0  0  0  0  0  0  0  0  0  0
   -2.3693    2.3070    0.0000 O   0  0  0  0  0  0  0  0  0  0  0  0
   -2.2307    1.2955    0.0000 O   0  0  0  0  0  0  0  0  0  0  0  0
   -0.2217    0.2148    0.0000 N   0  0  0  0  0  0  0  0  0  0  0  0
    3.3531   -0.2009    0.0000 N   0  0  0  0  0  0  0  0  0  0  0  0
   -0.2078   -0.6027    0.0000 C   0  0  3  0  0  0  0  0  0  0  0  0
    1.2193    0.2286    0.0000 C   0  0  3  0  0  0  0  0  0  0  0  0
    0.4988    0.6166    0.0000 C   0  0  0  0  0  0  0  0  0  0  0  0
   -0.9283    0.6581    0.0000 C   0  0  3  0  0  0  0  0  0  0  0  0
    0.5126   -1.0323    0.0000 C   0  0  3  0  0  0  0  0  0  0  0  0
   -0.9422   -1.0323    0.0000 C   0  0  0  0  0  0  0  0  0  0  0  0
   -1.7181    0.1871    0.0000 C   0  0  0  0  0  0  0  0  0  0  0  0
    0.5126   -1.8774    0.0000 C   0  0  0  0  0  0  0  0  0  0  0  0
   -0.9283    1.4756    0.0000 C   0  0  0  0  0  0  0  0  0  0  0  0
    1.9398    0.6443    0.0000 C   0  0  0  0  0  0  0  0  0  0  0  0
   -2.4386    0.2148    0.0000 C   0  0  0  0  0  0  0  0  0  0  0  0
   -2.0645   -0.4780    0.0000 C   0  0  0  0  0  0  0  0  0  0  0  0
    1.4271    1.0184    0.0000 C   0  0  0  0  0  0  0  0  0  0  0  0
   -1.6627   -0.6305    0.0000 C   0  0  0  0  0  0  0  0  0  0  0  0
   -1.6627    2.7642    0.0000 C   0  0  0  0  0  0  0  0  0  0  0  0
   -0.9422   -1.8636    0.0000 C   0  0  0  0  0  0  0  0  0  0  0  0
    1.2193   -2.2931    0.0000 C   0  0  0  0  0  0  0  0  0  0  0  0
   -0.2078   -2.2931    0.0000 C   0  0  0  0  0  0  0  0  0  0  0  0
   -2.3554   -1.0323    0.0000 C   0  0  0  0  0  0  0  0  0  0  0  0
   -2.3693   -1.8636    0.0000 C   0  0  0  0  0  0  0  0  0  0  0  0
   -1.6488   -2.2792    0.0000 C   0  0  0  0  0  0  0  0  0  0  0  0
    2.6464    0.2148    0.0000 C   0  0  0  0  0  0  0  0  0  0  0  0
    1.2055   -3.1106    0.0000 C   0  0  0  0  0  0  0  0  0  0  0  0
   -0.2078   -3.1245    0.0000 C   0  0  0  0  0  0  0  0  0  0  0  0
    0.5126   -3.5263    0.0000 C   0  0  0  0  0  0  0  0  0  0  0  0
   -1.8705    3.5540    0.0000 C   0  0  0  0  0  0  0  0  0  0  0  0
   -2.3832    3.1383    0.0000 C   0  0  0  0  0  0  0  0  0  0  0  0
   -0.9283    3.1521    0.0000 C   0  0  0  0  0  0  0  0  0  0  0  0
  1 30  1  0  0  0  0
  2 33  1  0  0  0  0
  3  7  2  0  0  0  0
  3  8  2  0  0  0  0
  3 19  1  0  0  0  0
  3 25  1  0  0  0  0
  4 29  1  0  0  0  0
  5 12  1  0  0  0  0
 15  5  1  6  0  0  0
  6 13  2  0  0  0  0
 11  9  1  1  0  0  0
  9 13  1  0  0  0  0
  9 14  1  0  0  0  0
 10 32  3  0  0  0  0
 11 15  1  0  0  0  0
 11 16  1  0  0  0  0
 12 13  1  0  0  0  0
 12 20  1  1  0  0  0
 12 23  1  6  0  0  0
 14 17  1  0  0  0  0
 14 19  1  1  0  0  0
 15 18  1  0  0  0  0
 16 24  2  0  0  0  0
 16 26  1  0  0  0  0
 17 21  1  0  0  0  0
 17 22  1  0  0  0  0
 18 27  1  0  0  0  0
 18 28  2  0  0  0  0
 20 32  1  0  0  0  0
 21 22  1  0  0  0  0
 24 29  1  0  0  0  0
 25 36  1  0  0  0  0
 25 37  1  0  0  0  0
 25 38  1  0  0  0  0
 26 31  2  0  0  0  0
 27 33  2  0  0  0  0
 28 34  1  0  0  0  0
 29 30  2  0  0  0  0
 30 31  1  0  0  0  0
 33 35  1  0  0  0  0
 34 35  2  0  0  0  0
M  END
> <PUBCHEM_COMPOUND_ID_TYPE>
0

> <PUBCHEM_TOTAL_CHARGE>
0

> <PUBCHEM_SUBSTANCE_ID>
310947622

> <PUBCHEM_SUBSTANCE_VERSION>
1

> <PUBCHEM_EXT_DATASOURCE_NAME>
4488

> <PUBCHEM_EXT_DATASOURCE_REGID>
SCHEMBL16125788

> <PUBCHEM_SUBSTANCE_COMMENT>
InChI=1S/C28H31Cl2FN2O4S/c1-27(2,3)38(35,36)16-23(17-8-9-17)33-24(18-10-11-21(30)22(31)15-18)25(19-6-5-7-20(29)14-19)37-28(4,12-13-32)26(33)34/h5-7,10-11,14-15,17,23-25H,8-9,12,16H2,1-4H3/t23-,24-,25-,28-/m1/s1
InChIKey=DXKGQBYEJFBSHX-PAHOUZJPSA-N

> <PUBCHEM_SUBSTANCE_SYNONYM>
SCHEMBL16125788

> <PUBCHEM_XREF_EXT_ID>
SCHEMBL16125788

> <PUBCHEM_EXT_DATASOURCE_URL>
https://www.surechembl.org/

> <PUBCHEM_EXT_SUBSTANCE_URL>
https://www.surechembl.org/chemical/SCHEMBL16125788

> <PUBCHEM_CID_ASSOCIATIONS>
117613340  1

> <PUBCHEM_COORDINATE_TYPE>
1
3

> <PUBCHEM_BONDANNOTATIONS>
12  20  5
12  23  6
14  19  5
15  5  6
11  9  5

$$$$
