310946969
  -OEChem-07211613022D

 34 37  0     1  0  0  0  0  0999 V2000
   -1.0031   -3.4669    0.0000 Cl  0  0  0  0  0  0  0  0  0  0  0  0
    3.1379    0.3210    0.0000 S   0  0  0  0  0  0  0  0  0  0  0  0
    0.6661    0.4815    0.0000 O   0  0  0  0  0  0  0  0  0  0  0  0
   -3.9885    0.5618    0.0000 O   0  0  0  0  0  0  0  0  0  0  0  0
    2.4637    1.7335    0.0000 O   0  0  0  0  0  0  0  0  0  0  0  0
    3.1379    1.1556    0.0000 O   0  0  0  0  0  0  0  0  0  0  0  0
    3.1379   -0.4976    0.0000 O   0  0  0  0  0  0  0  0  0  0  0  0
   -1.2600    1.0112    0.0000 N   0  0  0  0  0  0  0  0  0  0  0  0
   -1.4365    0.1926    0.0000 N   0  0  0  0  0  0  0  0  0  0  0  0
   -2.6724   -0.5939    0.0000 N   0  0  0  0  0  0  0  0  0  0  0  0
   -3.5552    1.9260    0.0000 N   0  0  0  0  0  0  0  0  0  0  0  0
    2.3032    0.3210    0.0000 N   0  0  0  0  0  0  0  0  0  0  0  0
   -1.0031    3.4669    0.0000 N   0  0  0  0  0  0  0  0  0  0  0  0
   -0.5056    1.3482    0.0000 C   0  0  3  0  0  0  0  0  0  0  0  0
   -1.9823    1.4285    0.0000 C   0  0  0  0  0  0  0  0  0  0  0  0
   -2.5921    0.8667    0.0000 C   0  0  0  0  0  0  0  0  0  0  0  0
   -2.2551    0.1284    0.0000 C   0  0  0  0  0  0  0  0  0  0  0  0
   -3.3626    1.1556    0.0000 C   0  0  0  0  0  0  0  0  0  0  0  0
   -0.1686    0.5939    0.0000 C   0  0  0  0  0  0  0  0  0  0  0  0
   -0.0080    2.0063    0.0000 C   0  0  0  0  0  0  0  0  0  0  0  0
   -2.1427    2.2150    0.0000 C   0  0  0  0  0  0  0  0  0  0  0  0
   -1.1637    1.8137    0.0000 C   0  0  0  0  0  0  0  0  0  0  0  0
    1.1315    1.1878    0.0000 C   0  0  3  0  0  0  0  0  0  0  0  0
    0.8106    1.9260    0.0000 C   0  0  0  0  0  0  0  0  0  0  0  0
   -2.9292    2.4878    0.0000 C   0  0  0  0  0  0  0  0  0  0  0  0
   -2.2551   -1.3161    0.0000 C   0  0  0  0  0  0  0  0  0  0  0  0
    1.9823    1.0593    0.0000 C   0  0  0  0  0  0  0  0  0  0  0  0
   -1.0674    2.6323    0.0000 C   0  0  0  0  0  0  0  0  0  0  0  0
   -2.6403   -2.0223    0.0000 C   0  0  0  0  0  0  0  0  0  0  0  0
   -1.4205   -1.3322    0.0000 C   0  0  0  0  0  0  0  0  0  0  0  0
   -2.2551   -2.7286    0.0000 C   0  0  0  0  0  0  0  0  0  0  0  0
   -1.0192   -2.0223    0.0000 C   0  0  0  0  0  0  0  0  0  0  0  0
   -1.4205   -2.7446    0.0000 C   0  0  0  0  0  0  0  0  0  0  0  0
    3.9885    0.3210    0.0000 C   0  0  0  0  0  0  0  0  0  0  0  0
  1 33  1  0  0  0  0
  2  6  2  0  0  0  0
  2  7  2  0  0  0  0
  2 12  1  0  0  0  0
  2 34  1  0  0  0  0
  3 19  1  0  0  0  0
  3 23  1  0  0  0  0
  4 18  2  0  0  0  0
  5 27  2  0  0  0  0
  8  9  1  0  0  0  0
  8 14  1  0  0  0  0
  8 15  1  0  0  0  0
  9 17  2  0  0  0  0
 10 17  1  0  0  0  0
 10 26  1  0  0  0  0
 11 18  1  0  0  0  0
 11 25  1  0  0  0  0
 12 27  1  0  0  0  0
 13 28  3  0  0  0  0
 14 19  1  0  0  0  0
 14 20  1  0  0  0  0
 14 22  1  1  0  0  0
 15 16  2  0  0  0  0
 15 21  1  0  0  0  0
 16 17  1  0  0  0  0
 16 18  1  0  0  0  0
 20 24  1  0  0  0  0
 21 25  2  0  0  0  0
 22 28  1  0  0  0  0
 23 24  1  0  0  0  0
 23 27  1  1  0  0  0
 26 29  2  0  0  0  0
 26 30  1  0  0  0  0
 29 31  1  0  0  0  0
 30 32  2  0  0  0  0
 31 33  2  0  0  0  0
 32 33  1  0  0  0  0
M  END
> <PUBCHEM_COMPOUND_ID_TYPE>
0

> <PUBCHEM_TOTAL_CHARGE>
0

> <PUBCHEM_SUBSTANCE_ID>
310946969

> <PUBCHEM_SUBSTANCE_VERSION>
1

> <PUBCHEM_EXT_DATASOURCE_NAME>
4488

> <PUBCHEM_EXT_DATASOURCE_REGID>
SCHEMBL16125100

> <PUBCHEM_SUBSTANCE_COMMENT>
InChI=1S/C21H21ClN6O5S/c1-34(31,32)27-19(29)16-6-8-21(9-10-23,12-33-16)28-15-7-11-24-20(30)17(15)18(26-28)25-14-4-2-13(22)3-5-14/h2-5,7,11,16H,6,8-9,12H2,1H3,(H,24,30)(H,25,26)(H,27,29)/t16-,21-/m0/s1
InChIKey=YXBPJVSWLMSNNZ-KKSFZXQISA-N

> <PUBCHEM_SUBSTANCE_SYNONYM>
SCHEMBL16125100

> <PUBCHEM_XREF_EXT_ID>
SCHEMBL16125100

> <PUBCHEM_EXT_DATASOURCE_URL>
https://www.surechembl.org/

> <PUBCHEM_EXT_SUBSTANCE_URL>
https://www.surechembl.org/chemical/SCHEMBL16125100

> <PUBCHEM_CID_ASSOCIATIONS>
117612823  1

> <PUBCHEM_COORDINATE_TYPE>
1
3

> <PUBCHEM_BONDANNOTATIONS>
14  22  5
23  27  5

$$$$
