310949741
  -OEChem-07211613022D

 24 25  0     0  0  0  0  0  0999 V2000
   -0.8377    0.3580    0.0000 O   0  0  0  0  0  0  0  0  0  0  0  0
   -2.5267    1.7903    0.0000 O   0  0  0  0  0  0  0  0  0  0  0  0
   -1.2566    1.0742    0.0000 O   0  0  0  0  0  0  0  0  0  0  0  0
    4.2022    0.3580    0.0000 O   0  0  0  0  0  0  0  0  0  0  0  0
   -0.8377   -1.0742    0.0000 N   0  0  0  0  0  0  0  0  0  0  0  0
   -4.2022    1.7903    0.0000 N   0  0  0  0  0  0  0  0  0  0  0  0
   -2.5402    0.3580    0.0000 C   0  0  0  0  0  0  0  0  0  0  0  0
   -2.1078   -0.3446    0.0000 C   0  0  0  0  0  0  0  0  0  0  0  0
   -3.3644    0.3716    0.0000 C   0  0  0  0  0  0  0  0  0  0  0  0
   -1.2837   -0.3716    0.0000 C   0  0  0  0  0  0  0  0  0  0  0  0
   -2.1078    1.0742    0.0000 C   0  0  0  0  0  0  0  0  0  0  0  0
   -2.5267   -1.0606    0.0000 C   0  0  0  0  0  0  0  0  0  0  0  0
   -3.7698   -0.3580    0.0000 C   0  0  0  0  0  0  0  0  0  0  0  0
    0.0000   -1.0742    0.0000 C   0  0  0  0  0  0  0  0  0  0  0  0
   -3.3509   -1.0742    0.0000 C   0  0  0  0  0  0  0  0  0  0  0  0
   -3.7698    1.0472    0.0000 C   0  0  0  0  0  0  0  0  0  0  0  0
    0.4189   -1.7768    0.0000 C   0  0  0  0  0  0  0  0  0  0  0  0
    0.4324   -0.3716    0.0000 C   0  0  0  0  0  0  0  0  0  0  0  0
    1.6754   -1.0606    0.0000 C   0  0  0  0  0  0  0  0  0  0  0  0
    1.2566   -1.7903    0.0000 C   0  0  0  0  0  0  0  0  0  0  0  0
    1.2566   -0.3580    0.0000 C   0  0  0  0  0  0  0  0  0  0  0  0
    2.5267   -1.0742    0.0000 C   0  0  0  0  0  0  0  0  0  0  0  0
    2.9591   -0.3580    0.0000 C   0  0  0  0  0  0  0  0  0  0  0  0
    3.7832   -0.3580    0.0000 C   0  0  0  0  0  0  0  0  0  0  0  0
  1 10  2  0  0  0  0
  2 11  2  0  0  0  0
  3 11  1  0  0  0  0
  4 24  1  0  0  0  0
  5 10  1  0  0  0  0
  5 14  1  0  0  0  0
  6 16  3  0  0  0  0
  7  8  1  0  0  0  0
  7  9  2  0  0  0  0
  7 11  1  0  0  0  0
  8 10  1  0  0  0  0
  8 12  2  0  0  0  0
  9 13  1  0  0  0  0
  9 16  1  0  0  0  0
 12 15  1  0  0  0  0
 13 15  2  0  0  0  0
 14 17  2  0  0  0  0
 14 18  1  0  0  0  0
 17 20  1  0  0  0  0
 18 21  2  0  0  0  0
 19 20  2  0  0  0  0
 19 21  1  0  0  0  0
 19 22  1  0  0  0  0
 22 23  1  0  0  0  0
 23 24  1  0  0  0  0
M  END
> <PUBCHEM_COMPOUND_ID_TYPE>
0

> <PUBCHEM_TOTAL_CHARGE>
0

> <PUBCHEM_SUBSTANCE_ID>
310949741

> <PUBCHEM_SUBSTANCE_VERSION>
1

> <PUBCHEM_EXT_DATASOURCE_NAME>
4488

> <PUBCHEM_EXT_DATASOURCE_REGID>
SCHEMBL16127939

> <PUBCHEM_SUBSTANCE_COMMENT>
InChI=1S/C18H16N2O4/c19-11-13-4-1-5-15(16(13)18(23)24)17(22)20-14-8-6-12(7-9-14)3-2-10-21/h1,4-9,21H,2-3,10H2,(H,20,22)(H,23,24)
InChIKey=PIHBBBZHBAWHAF-UHFFFAOYSA-N

> <PUBCHEM_SUBSTANCE_SYNONYM>
SCHEMBL16127939

> <PUBCHEM_XREF_EXT_ID>
SCHEMBL16127939

> <PUBCHEM_EXT_DATASOURCE_URL>
https://www.surechembl.org/

> <PUBCHEM_EXT_SUBSTANCE_URL>
https://www.surechembl.org/chemical/SCHEMBL16127939

> <PUBCHEM_CID_ASSOCIATIONS>
85471803  1

> <PUBCHEM_COORDINATE_TYPE>
1
3

$$$$
