310949144
  -OEChem-07211613022D

 41 48  0     0  0  0  0  0  0999 V2000
   -0.4072    0.3878    0.0000 N   0  0  0  0  0  0  0  0  0  0  0  0
    1.7516   -0.1034    0.0000 N   0  0  0  0  0  0  0  0  0  0  0  0
   -0.4331   -3.7746    0.0000 N   0  0  0  0  0  0  0  0  0  0  0  0
   -1.1311   -0.8531    0.0000 C   0  0  0  0  0  0  0  0  0  0  0  0
   -0.4201   -0.4395    0.0000 C   0  0  0  0  0  0  0  0  0  0  0  0
   -1.9196   -0.5817    0.0000 C   0  0  0  0  0  0  0  0  0  0  0  0
    0.2650    0.9048    0.0000 C   0  0  0  0  0  0  0  0  0  0  0  0
   -1.1440   -1.6676    0.0000 C   0  0  0  0  0  0  0  0  0  0  0  0
   -0.0065    1.6676    0.0000 C   0  0  0  0  0  0  0  0  0  0  0  0
   -1.0923    0.8919    0.0000 C   0  0  0  0  0  0  0  0  0  0  0  0
   -2.3979   -1.2668    0.0000 C   0  0  0  0  0  0  0  0  0  0  0  0
    1.6094    1.3573    0.0000 C   0  0  0  0  0  0  0  0  0  0  0  0
   -1.9196   -1.9261    0.0000 C   0  0  0  0  0  0  0  0  0  0  0  0
   -0.8467    1.6934    0.0000 C   0  0  0  0  0  0  0  0  0  0  0  0
    1.3638    2.1329    0.0000 C   0  0  0  0  0  0  0  0  0  0  0  0
    2.4496    1.3444    0.0000 C   0  0  0  0  0  0  0  0  0  0  0  0
    0.3167   -0.8531    0.0000 C   0  0  0  0  0  0  0  0  0  0  0  0
    1.0665    0.7239    0.0000 C   0  0  0  0  0  0  0  0  0  0  0  0
   -0.3943   -2.0941    0.0000 C   0  0  0  0  0  0  0  0  0  0  0  0
    2.0360    2.6112    0.0000 C   0  0  0  0  0  0  0  0  0  0  0  0
    2.7082    2.1458    0.0000 C   0  0  0  0  0  0  0  0  0  0  0  0
    0.5494    2.2881    0.0000 C   0  0  0  0  0  0  0  0  0  0  0  0
    0.3037   -1.6934    0.0000 C   0  0  0  0  0  0  0  0  0  0  0  0
   -1.8938    0.7239    0.0000 C   0  0  0  0  0  0  0  0  0  0  0  0
   -3.2382   -1.3702    0.0000 C   0  0  0  0  0  0  0  0  0  0  0  0
   -2.2687   -2.6888    0.0000 C   0  0  0  0  0  0  0  0  0  0  0  0
   -1.3896    2.3010    0.0000 C   0  0  0  0  0  0  0  0  0  0  0  0
   -2.7340   -0.3749    0.0000 C   0  0  0  0  0  0  0  0  0  0  0  0
   -1.5059    0.1293    0.0000 C   0  0  0  0  0  0  0  0  0  0  0  0
    1.0277   -0.4654    0.0000 C   0  0  0  0  0  0  0  0  0  0  0  0
    2.1264    3.4256    0.0000 C   0  0  0  0  0  0  0  0  0  0  0  0
    3.4450    2.4820    0.0000 C   0  0  0  0  0  0  0  0  0  0  0  0
   -0.4201   -2.9603    0.0000 C   0  0  0  0  0  0  0  0  0  0  0  0
    3.3157    1.3315    0.0000 C   0  0  0  0  0  0  0  0  0  0  0  0
    2.2428    0.5300    0.0000 C   0  0  0  0  0  0  0  0  0  0  0  0
   -2.4367    1.3315    0.0000 C   0  0  0  0  0  0  0  0  0  0  0  0
   -3.5485   -2.0812    0.0000 C   0  0  0  0  0  0  0  0  0  0  0  0
   -2.1781    2.1200    0.0000 C   0  0  0  0  0  0  0  0  0  0  0  0
   -3.0831   -2.7663    0.0000 C   0  0  0  0  0  0  0  0  0  0  0  0
    2.8504    3.7746    0.0000 C   0  0  0  0  0  0  0  0  0  0  0  0
    3.5485    3.2834    0.0000 C   0  0  0  0  0  0  0  0  0  0  0  0
  1  5  1  0  0  0  0
  1  7  1  0  0  0  0
  1 10  1  0  0  0  0
  2 30  3  0  0  0  0
  3 33  3  0  0  0  0
  4  5  1  0  0  0  0
  4  6  1  0  0  0  0
  4  8  2  0  0  0  0
  5 17  2  0  0  0  0
  6 11  1  0  0  0  0
  6 28  1  0  0  0  0
  6 29  1  0  0  0  0
  7  9  2  0  0  0  0
  7 18  1  0  0  0  0
  8 13  1  0  0  0  0
  8 19  1  0  0  0  0
  9 14  1  0  0  0  0
  9 22  1  0  0  0  0
 10 14  2  0  0  0  0
 10 24  1  0  0  0  0
 11 13  2  0  0  0  0
 11 25  1  0  0  0  0
 12 15  1  0  0  0  0
 12 16  1  0  0  0  0
 12 18  2  0  0  0  0
 13 26  1  0  0  0  0
 14 27  1  0  0  0  0
 15 20  1  0  0  0  0
 15 22  2  0  0  0  0
 16 21  1  0  0  0  0
 16 34  1  0  0  0  0
 16 35  1  0  0  0  0
 17 23  1  0  0  0  0
 17 30  1  0  0  0  0
 19 23  2  0  0  0  0
 19 33  1  0  0  0  0
 20 21  2  0  0  0  0
 20 31  1  0  0  0  0
 21 32  1  0  0  0  0
 24 36  2  0  0  0  0
 25 37  2  0  0  0  0
 26 39  2  0  0  0  0
 27 38  2  0  0  0  0
 31 40  2  0  0  0  0
 32 41  2  0  0  0  0
 36 38  1  0  0  0  0
 37 39  1  0  0  0  0
 40 41  1  0  0  0  0
M  END
> <PUBCHEM_COMPOUND_ID_TYPE>
0

> <PUBCHEM_TOTAL_CHARGE>
0

> <PUBCHEM_SUBSTANCE_ID>
310949144

> <PUBCHEM_SUBSTANCE_VERSION>
1

> <PUBCHEM_EXT_DATASOURCE_NAME>
4488

> <PUBCHEM_EXT_DATASOURCE_REGID>
SCHEMBL16127334

> <PUBCHEM_SUBSTANCE_COMMENT>
InChI=1S/C38H27N3/c1-37(2)29-14-8-5-11-24(29)27-18-28-25-12-7-10-16-32(25)41(33(28)19-31(27)37)36-23(21-40)17-22(20-39)34-26-13-6-9-15-30(26)38(3,4)35(34)36/h5-19H,1-4H3
InChIKey=MGFULVHCOLVROP-UHFFFAOYSA-N

> <PUBCHEM_SUBSTANCE_SYNONYM>
SCHEMBL16127334

> <PUBCHEM_XREF_EXT_ID>
SCHEMBL16127334

> <PUBCHEM_EXT_DATASOURCE_URL>
https://www.surechembl.org/

> <PUBCHEM_EXT_SUBSTANCE_URL>
https://www.surechembl.org/chemical/SCHEMBL16127334

> <PUBCHEM_CID_ASSOCIATIONS>
117614640  1

> <PUBCHEM_COORDINATE_TYPE>
1
3

$$$$
