310931429
  -OEChem-07211613022D

 37 42  0     1  0  0  0  0  0999 V2000
    4.5377   -1.3407    0.0000 S   0  0  0  0  0  0  0  0  0  0  0  0
    2.9220   -4.2283    0.0000 O   0  0  0  0  0  0  0  0  0  0  0  0
    6.1878   -2.7845    0.0000 O   0  0  0  0  0  0  0  0  0  0  0  0
    0.3437    0.0000    0.0000 O   0  0  0  0  0  0  0  0  0  0  0  0
    9.9004   -3.5064    0.0000 O   0  0  0  0  0  0  0  0  0  0  0  0
    4.5377   -2.7501    0.0000 N   0  0  0  0  0  0  0  0  0  0  0  0
    1.2720   -2.8189    0.0000 N   0  0  0  0  0  0  0  0  0  0  0  0
    6.1878   -4.1939    0.0000 N   0  0  0  0  0  0  0  0  0  0  0  0
    5.7752   -2.0626    0.0000 N   0  0  0  0  0  0  0  0  0  0  0  0
    7.8378   -4.1939    0.0000 N   0  0  0  0  0  0  0  0  0  0  0  0
    8.6285   -2.7845    0.0000 N   0  0  0  0  0  0  0  0  0  0  0  0
    3.7127   -2.7845    0.0000 C   0  0  3  0  0  0  0  0  0  0  0  0
    2.8876   -2.8189    0.0000 C   0  0  0  0  0  0  0  0  0  0  0  0
    4.1595   -3.5064    0.0000 C   0  0  0  0  0  0  0  0  0  0  0  0
    2.4751   -3.5064    0.0000 C   0  0  0  0  0  0  0  0  0  0  0  0
    3.7470   -4.2283    0.0000 C   0  0  0  0  0  0  0  0  0  0  0  0
    3.3345   -2.0626    0.0000 C   0  0  0  0  0  0  0  0  0  0  0  0
    2.4751   -2.0970    0.0000 C   0  0  0  0  0  0  0  0  0  0  0  0
    4.9846   -3.5064    0.0000 C   0  0  0  0  0  0  0  0  0  0  0  0
    1.6844   -2.1313    0.0000 C   0  0  0  0  0  0  0  0  0  0  0  0
    1.6501   -3.5408    0.0000 C   0  0  0  0  0  0  0  0  0  0  0  0
    4.9502   -2.0626    0.0000 C   0  0  0  0  0  0  0  0  0  0  0  0
    4.1595   -4.9502    0.0000 C   0  0  0  0  0  0  0  0  0  0  0  0
    5.3627   -4.1939    0.0000 C   0  0  0  0  0  0  0  0  0  0  0  0
    3.7127   -1.3750    0.0000 C   0  0  0  0  0  0  0  0  0  0  0  0
    4.9502   -4.9158    0.0000 C   0  0  0  0  0  0  0  0  0  0  0  0
    1.2375   -1.4094    0.0000 C   0  0  0  0  0  0  0  0  0  0  0  0
    6.6002   -3.5064    0.0000 C   0  0  0  0  0  0  0  0  0  0  0  0
    1.6157   -0.6876    0.0000 C   0  0  0  0  0  0  0  0  0  0  0  0
    0.4125   -1.4094    0.0000 C   0  0  0  0  0  0  0  0  0  0  0  0
    7.3909   -3.5064    0.0000 C   0  0  0  0  0  0  0  0  0  0  0  0
    1.2032    0.0000    0.0000 C   0  0  0  0  0  0  0  0  0  0  0  0
    0.0000   -0.7563    0.0000 C   0  0  0  0  0  0  0  0  0  0  0  0
    7.8378   -2.7845    0.0000 C   0  0  0  0  0  0  0  0  0  0  0  0
    9.0754   -3.5064    0.0000 C   0  0  0  0  0  0  0  0  0  0  0  0
    8.6285   -4.1939    0.0000 C   0  0  0  0  0  0  0  0  0  0  0  0
   10.3129   -2.7845    0.0000 C   0  0  0  0  0  0  0  0  0  0  0  0
  1 22  1  0  0  0  0
  1 25  1  0  0  0  0
  2 15  1  0  0  0  0
  2 16  1  0  0  0  0
  3 28  2  0  0  0  0
  4 32  1  0  0  0  0
  4 33  1  0  0  0  0
  5 35  1  0  0  0  0
  5 37  1  0  0  0  0
 12  6  1  1  0  0  0
  6 22  2  0  0  0  0
  7 20  2  0  0  0  0
  7 21  1  0  0  0  0
  8 24  1  0  0  0  0
  8 28  1  0  0  0  0
  9 22  1  0  0  0  0
 10 31  2  0  0  0  0
 10 36  1  0  0  0  0
 11 34  2  0  0  0  0
 11 35  1  0  0  0  0
 12 13  1  0  0  0  0
 12 14  1  0  0  0  0
 12 17  1  0  0  0  0
 13 15  1  0  0  0  0
 13 18  2  0  0  0  0
 14 16  2  0  0  0  0
 14 19  1  0  0  0  0
 15 21  2  0  0  0  0
 16 23  1  0  0  0  0
 17 25  1  0  0  0  0
 18 20  1  0  0  0  0
 19 24  2  0  0  0  0
 20 27  1  0  0  0  0
 23 26  2  0  0  0  0
 24 26  1  0  0  0  0
 27 29  2  0  0  0  0
 27 30  1  0  0  0  0
 28 31  1  0  0  0  0
 29 32  1  0  0  0  0
 30 33  1  0  0  0  0
 31 34  1  0  0  0  0
 35 36  2  0  0  0  0
M  END
> <PUBCHEM_COMPOUND_ID_TYPE>
0

> <PUBCHEM_TOTAL_CHARGE>
0

> <PUBCHEM_SUBSTANCE_ID>
310931429

> <PUBCHEM_SUBSTANCE_VERSION>
1

> <PUBCHEM_EXT_DATASOURCE_NAME>
4488

> <PUBCHEM_EXT_DATASOURCE_REGID>
SCHEMBL16108754

> <PUBCHEM_SUBSTANCE_COMMENT>
InChI=1S/C26H24N6O4S/c1-34-23-14-29-20(12-30-23)24(33)31-16-2-3-21-17(10-16)26(6-9-37-25(27)32-26)18-11-19(28-13-22(18)36-21)15-4-7-35-8-5-15/h2-4,10-14H,5-9H2,1H3,(H2,27,32)(H,31,33)/t26-/m0/s1
InChIKey=KFXVRPUVEOJZQK-SANMLTNESA-N

> <PUBCHEM_SUBSTANCE_SYNONYM>
SCHEMBL16108754

> <PUBCHEM_XREF_EXT_ID>
SCHEMBL16108754

> <PUBCHEM_EXT_DATASOURCE_URL>
https://www.surechembl.org/

> <PUBCHEM_EXT_SUBSTANCE_URL>
https://www.surechembl.org/chemical/SCHEMBL16108754

> <PUBCHEM_CID_ASSOCIATIONS>
71542522  1

> <PUBCHEM_COORDINATE_TYPE>
1
3

> <PUBCHEM_BONDANNOTATIONS>
12  6  5

$$$$
