310947309
  -OEChem-07211613022D

 32 35  0     1  0  0  0  0  0999 V2000
   -5.3080   -0.3272    0.0000 Br  0  0  0  0  0  0  0  0  0  0  0  0
    2.5475   -2.5603    0.0000 F   0  0  0  0  0  0  0  0  0  0  0  0
    5.3080   -1.8206    0.0000 F   0  0  0  0  0  0  0  0  0  0  0  0
   -1.0211    2.1478    0.0000 O   0  0  0  0  0  0  0  0  0  0  0  0
    1.9069   -0.1696    0.0000 N   0  0  0  0  0  0  0  0  0  0  0  0
    2.3918    0.4978    0.0000 N   0  0  0  0  0  0  0  0  0  0  0  0
   -1.7356    0.9103    0.0000 N   0  0  0  0  0  0  0  0  0  0  0  0
    1.1223    0.0853    0.0000 C   0  0  0  0  0  0  0  0  0  0  0  0
    1.1223    0.9103    0.0000 C   0  0  0  0  0  0  0  0  0  0  0  0
    1.9069    1.1652    0.0000 C   0  0  0  0  0  0  0  0  0  0  0  0
    0.4078    1.3228    0.0000 C   0  0  0  0  0  0  0  0  0  0  0  0
   -0.3067    0.9103    0.0000 C   0  0  0  0  0  0  0  0  0  0  0  0
    0.4078   -0.3272    0.0000 C   0  0  0  0  0  0  0  0  0  0  0  0
    2.1204   -0.9665    0.0000 C   0  0  0  0  0  0  0  0  0  0  0  0
   -0.3067    0.0853    0.0000 C   0  0  0  0  0  0  0  0  0  0  0  0
    2.9173   -1.1801    0.0000 C   0  0  0  0  0  0  0  0  0  0  0  0
   -1.0211    1.3228    0.0000 C   0  0  0  0  0  0  0  0  0  0  0  0
    3.1308   -1.9769    0.0000 C   0  0  0  0  0  0  0  0  0  0  0  0
    2.3194    1.8797    0.0000 C   0  0  0  0  0  0  0  0  0  0  0  0
   -2.4501    1.3228    0.0000 C   0  0  3  0  0  0  0  0  0  0  0  0
    3.5007   -0.5967    0.0000 C   0  0  0  0  0  0  0  0  0  0  0  0
   -3.1646    0.9103    0.0000 C   0  0  0  0  0  0  0  0  0  0  0  0
    3.9277   -2.1905    0.0000 C   0  0  0  0  0  0  0  0  0  0  0  0
    4.5111   -1.6071    0.0000 C   0  0  0  0  0  0  0  0  0  0  0  0
    4.2976   -0.8102    0.0000 C   0  0  0  0  0  0  0  0  0  0  0  0
   -3.8790    1.3228    0.0000 C   0  0  0  0  0  0  0  0  0  0  0  0
   -3.1646    0.0853    0.0000 C   0  0  0  0  0  0  0  0  0  0  0  0
   -2.4501    2.1478    0.0000 C   0  0  0  0  0  0  0  0  0  0  0  0
   -4.5935    0.0853    0.0000 C   0  0  0  0  0  0  0  0  0  0  0  0
   -4.5935    0.9103    0.0000 C   0  0  0  0  0  0  0  0  0  0  0  0
   -3.8790   -0.3272    0.0000 C   0  0  0  0  0  0  0  0  0  0  0  0
   -3.1646    2.5603    0.0000 C   0  0  0  0  0  0  0  0  0  0  0  0
  1 29  1  0  0  0  0
  2 18  1  0  0  0  0
  3 24  1  0  0  0  0
  4 17  2  0  0  0  0
  5  6  1  0  0  0  0
  5  8  1  0  0  0  0
  5 14  1  0  0  0  0
  6 10  2  0  0  0  0
  7 17  1  0  0  0  0
 20  7  1  6  0  0  0
  8  9  1  0  0  0  0
  8 13  2  0  0  0  0
  9 10  1  0  0  0  0
  9 11  2  0  0  0  0
 10 19  1  0  0  0  0
 11 12  1  0  0  0  0
 12 15  2  0  0  0  0
 12 17  1  0  0  0  0
 13 15  1  0  0  0  0
 14 16  1  0  0  0  0
 16 18  2  0  0  0  0
 16 21  1  0  0  0  0
 18 23  1  0  0  0  0
 20 22  1  0  0  0  0
 20 28  1  0  0  0  0
 21 25  2  0  0  0  0
 22 26  2  0  0  0  0
 22 27  1  0  0  0  0
 23 24  2  0  0  0  0
 24 25  1  0  0  0  0
 26 30  1  0  0  0  0
 27 31  2  0  0  0  0
 28 32  1  0  0  0  0
 29 30  2  0  0  0  0
 29 31  1  0  0  0  0
M  END
> <PUBCHEM_COMPOUND_ID_TYPE>
0

> <PUBCHEM_TOTAL_CHARGE>
0

> <PUBCHEM_SUBSTANCE_ID>
310947309

> <PUBCHEM_SUBSTANCE_VERSION>
1

> <PUBCHEM_EXT_DATASOURCE_NAME>
4488

> <PUBCHEM_EXT_DATASOURCE_REGID>
SCHEMBL16125464

> <PUBCHEM_SUBSTANCE_COMMENT>
InChI=1S/C25H22BrF2N3O/c1-3-23(16-4-8-19(26)9-5-16)29-25(32)17-7-11-24-21(12-17)15(2)30-31(24)14-18-6-10-20(27)13-22(18)28/h4-13,23H,3,14H2,1-2H3,(H,29,32)/t23-/m0/s1
InChIKey=BKRFQSVDIQWZID-QHCPKHFHSA-N

> <PUBCHEM_SUBSTANCE_SYNONYM>
SCHEMBL16125464

> <PUBCHEM_XREF_EXT_ID>
SCHEMBL16125464

> <PUBCHEM_EXT_DATASOURCE_URL>
https://www.surechembl.org/

> <PUBCHEM_EXT_SUBSTANCE_URL>
https://www.surechembl.org/chemical/SCHEMBL16125464

> <PUBCHEM_CID_ASSOCIATIONS>
71577400  1

> <PUBCHEM_COORDINATE_TYPE>
1
3

> <PUBCHEM_BONDANNOTATIONS>
20  7  6

$$$$
