310934212
  -OEChem-07211613022D

 25 27  0     0  0  0  0  0  0999 V2000
   -1.0606    2.0890    0.0000 S   0  0  0  0  0  0  0  0  0  0  0  0
    1.0946   -0.0935    0.0000 O   0  0  0  0  0  0  0  0  0  0  0  0
   -1.2321    2.8959    0.0000 O   0  0  0  0  0  0  0  0  0  0  0  0
   -1.8255    2.3980    0.0000 O   0  0  0  0  0  0  0  0  0  0  0  0
    2.1552    1.1705    0.0000 O   0  0  0  0  0  0  0  0  0  0  0  0
    0.7145   -1.2375    0.0000 N   0  0  0  0  0  0  0  0  0  0  0  0
    1.3428    1.3137    0.0000 N   0  0  0  0  0  0  0  0  0  0  0  0
    0.0470   -1.7224    0.0000 N   0  0  0  0  0  0  0  0  0  0  0  0
    0.0000    0.8250    0.0000 C   0  0  0  0  0  0  0  0  0  0  0  0
    0.8125    0.6817    0.0000 C   0  0  0  0  0  0  0  0  0  0  0  0
    0.2822    1.6002    0.0000 C   0  0  0  0  0  0  0  0  0  0  0  0
   -0.8125    0.6817    0.0000 C   0  0  0  0  0  0  0  0  0  0  0  0
    0.0000    0.0000    0.0000 C   0  0  0  0  0  0  0  0  0  0  0  0
   -0.2481    2.2322    0.0000 C   0  0  0  0  0  0  0  0  0  0  0  0
   -1.3428    1.3137    0.0000 C   0  0  0  0  0  0  0  0  0  0  0  0
    0.7145   -0.4125    0.0000 C   0  0  0  0  0  0  0  0  0  0  0  0
    1.1270   -2.5070    0.0000 C   0  0  0  0  0  0  0  0  0  0  0  0
    1.3819   -1.7224    0.0000 C   0  0  0  0  0  0  0  0  0  0  0  0
    1.6119   -3.1745    0.0000 C   0  0  0  0  0  0  0  0  0  0  0  0
    0.3020   -2.5070    0.0000 C   0  0  0  0  0  0  0  0  0  0  0  0
    1.2763   -3.9282    0.0000 C   0  0  0  0  0  0  0  0  0  0  0  0
    2.4324   -3.0882    0.0000 C   0  0  0  0  0  0  0  0  0  0  0  0
    1.7613   -4.5956    0.0000 C   0  0  0  0  0  0  0  0  0  0  0  0
    2.9173   -3.7557    0.0000 C   0  0  0  0  0  0  0  0  0  0  0  0
    2.5817   -4.5094    0.0000 C   0  0  0  0  0  0  0  0  0  0  0  0
  1  3  2  0  0  0  0
  1  4  2  0  0  0  0
  1 14  1  0  0  0  0
  1 15  1  0  0  0  0
  2 10  2  0  0  0  0
  5  7  1  0  0  0  0
  6  8  1  0  0  0  0
  6 16  1  0  0  0  0
  6 18  1  0  0  0  0
  7 10  1  0  0  0  0
  8 20  2  0  0  0  0
  9 10  1  0  0  0  0
  9 11  1  0  0  0  0
  9 12  1  0  0  0  0
  9 13  1  0  0  0  0
 11 14  1  0  0  0  0
 12 15  1  0  0  0  0
 13 16  1  0  0  0  0
 17 18  2  0  0  0  0
 17 19  1  0  0  0  0
 17 20  1  0  0  0  0
 19 21  2  0  0  0  0
 19 22  1  0  0  0  0
 21 23  1  0  0  0  0
 22 24  2  0  0  0  0
 23 25  2  0  0  0  0
 24 25  1  0  0  0  0
M  END
> <PUBCHEM_COMPOUND_ID_TYPE>
0

> <PUBCHEM_TOTAL_CHARGE>
0

> <PUBCHEM_SUBSTANCE_ID>
310934212

> <PUBCHEM_SUBSTANCE_VERSION>
1

> <PUBCHEM_EXT_DATASOURCE_NAME>
4488

> <PUBCHEM_EXT_DATASOURCE_REGID>
SCHEMBL16111667

> <PUBCHEM_SUBSTANCE_COMMENT>
InChI=1S/C17H21N3O4S/c21-16(19-22)17(7-10-25(23,24)11-8-17)6-9-20-13-15(12-18-20)14-4-2-1-3-5-14/h1-5,12-13,22H,6-11H2,(H,19,21)
InChIKey=RAVLLWJDVRSEJO-UHFFFAOYSA-N

> <PUBCHEM_SUBSTANCE_SYNONYM>
SCHEMBL16111667

> <PUBCHEM_XREF_EXT_ID>
SCHEMBL16111667

> <PUBCHEM_EXT_DATASOURCE_URL>
https://www.surechembl.org/

> <PUBCHEM_EXT_SUBSTANCE_URL>
https://www.surechembl.org/chemical/SCHEMBL16111667

> <PUBCHEM_CID_ASSOCIATIONS>
117602476  1

> <PUBCHEM_COORDINATE_TYPE>
1
3

$$$$
