310940473
  -OEChem-07211613022D

 11 11  0     0  0  0  0  0  0999 V2000
   -0.3879   -0.9954    0.0000 N   0  0  0  0  0  0  0  0  0  0  0  0
   -1.0989   -0.5946    0.0000 N   0  0  0  0  0  0  0  0  0  0  0  0
   -0.1293    0.3232    0.0000 C   0  0  0  0  0  0  0  0  0  0  0  0
    0.2327   -0.4395    0.0000 C   0  0  0  0  0  0  0  0  0  0  0  0
   -0.9567    0.2327    0.0000 C   0  0  0  0  0  0  0  0  0  0  0  0
    1.0342   -0.5042    0.0000 C   0  0  0  0  0  0  0  0  0  0  0  0
    0.3490    0.9954    0.0000 C   0  0  0  0  0  0  0  0  0  0  0  0
   -1.5384    0.5430    0.0000 C   0  0  0  0  0  0  0  0  0  0  0  0
    1.5384    0.1810    0.0000 C   0  0  0  0  0  0  0  0  0  0  0  0
    1.0600    0.9308    0.0000 C   0  0  0  0  0  0  0  0  0  0  0  0
    1.2411    0.7627    0.0000 C   0  0  0  0  0  0  0  0  0  0  0  0
  1  2  1  0  0  0  0
  1  4  1  0  0  0  0
  2  5  2  0  0  0  0
  3  4  2  0  0  0  0
  3  5  1  0  0  0  0
  3  7  1  0  0  0  0
  4  6  1  0  0  0  0
  5  8  1  0  0  0  0
  6  9  1  0  0  0  0
  7 10  1  0  0  0  0
  9 11  1  0  0  0  0
M  END
> <PUBCHEM_COMPOUND_ID_TYPE>
0

> <PUBCHEM_TOTAL_CHARGE>
0

> <PUBCHEM_SUBSTANCE_ID>
310940473

> <PUBCHEM_SUBSTANCE_VERSION>
1

> <PUBCHEM_EXT_DATASOURCE_NAME>
4488

> <PUBCHEM_EXT_DATASOURCE_REGID>
SCHEMBL16118426

> <PUBCHEM_SUBSTANCE_COMMENT>
InChI=1S/C9H16N2/c1-4-6-9-8(5-2)7(3)10-11-9/h4-6H2,1-3H3,(H,10,11)
InChIKey=NFPPCYYLMLLWOG-UHFFFAOYSA-N

> <PUBCHEM_SUBSTANCE_SYNONYM>
SCHEMBL16118426

> <PUBCHEM_XREF_EXT_ID>
SCHEMBL16118426

> <PUBCHEM_EXT_DATASOURCE_URL>
https://www.surechembl.org/

> <PUBCHEM_EXT_SUBSTANCE_URL>
https://www.surechembl.org/chemical/SCHEMBL16118426

> <PUBCHEM_CID_ASSOCIATIONS>
117607491  1

> <PUBCHEM_COORDINATE_TYPE>
1
3

$$$$
