310929825
  -OEChem-07211613022D

 24 25  0     1  0  0  0  0  0999 V2000
    2.0682   -1.5831    0.0000 S   0  0  0  0  0  0  0  0  0  0  0  0
    2.8087   -1.2767    0.0000 O   0  0  0  0  0  0  0  0  0  0  0  0
    1.3022   -1.8894    0.0000 O   0  0  0  0  0  0  0  0  0  0  0  0
    3.7023   -1.8129    0.0000 O   0  0  0  0  0  0  0  0  0  0  0  0
    1.2001   -2.1448    0.0000 O   0  0  0  0  0  0  0  0  0  0  0  0
    4.3407   -1.7873    0.0000 O   0  0  0  0  0  0  0  0  0  0  0  0
    5.5663   -2.5023    0.0000 O   0  0  0  0  0  0  0  0  0  0  0  0
    0.0000   -3.9832    0.0000 O   0  0  0  0  0  0  0  0  0  0  0  0
    2.3746   -2.3491    0.0000 N   0  0  0  0  0  0  0  0  0  0  0  0
    4.3407   -3.2172    0.0000 N   0  0  0  0  0  0  0  0  0  0  0  0
    3.4981   -3.2172    0.0000 C   0  0  3  0  0  0  0  0  0  0  0  0
    1.7618   -0.8171    0.0000 C   0  0  0  0  0  0  0  0  0  0  0  0
    3.1917   -3.9832    0.0000 C   0  0  3  0  0  0  0  0  0  0  0  0
    3.1917   -2.4512    0.0000 C   0  0  0  0  0  0  0  0  0  0  0  0
    2.6810   -3.3449    0.0000 C   0  0  0  0  0  0  0  0  0  0  0  0
    1.0979   -0.3064    0.0000 C   0  0  0  0  0  0  0  0  0  0  0  0
    1.8639    0.0000    0.0000 C   0  0  0  0  0  0  0  0  0  0  0  0
    1.0979   -1.3533    0.0000 C   0  0  0  0  0  0  0  0  0  0  0  0
    3.2938   -4.8003    0.0000 C   0  0  0  0  0  0  0  0  0  0  0  0
    4.7492   -2.5023    0.0000 C   0  0  0  0  0  0  0  0  0  0  0  0
    4.0853   -5.1067    0.0000 C   0  0  0  0  0  0  0  0  0  0  0  0
    0.5362   -2.6554    0.0000 C   0  0  0  0  0  0  0  0  0  0  0  0
    0.6383   -3.4726    0.0000 C   0  0  0  0  0  0  0  0  0  0  0  0
    0.1021   -4.8003    0.0000 C   0  0  0  0  0  0  0  0  0  0  0  0
  1  2  2  0  0  0  0
  1  3  2  0  0  0  0
  1  9  1  0  0  0  0
  1 12  1  0  0  0  0
  4 14  2  0  0  0  0
  5 18  1  0  0  0  0
  5 22  1  0  0  0  0
  6 20  2  0  0  0  0
  7 20  1  0  0  0  0
  8 23  1  0  0  0  0
  8 24  1  0  0  0  0
  9 14  1  0  0  0  0
 11 10  1  1  0  0  0
 10 20  1  0  0  0  0
 11 13  1  0  0  0  0
 11 14  1  6  0  0  0
 11 15  1  0  0  0  0
 12 16  1  0  0  0  0
 12 17  1  0  0  0  0
 12 18  1  0  0  0  0
 13 15  1  0  0  0  0
 13 19  1  6  0  0  0
 16 17  1  0  0  0  0
 19 21  2  0  0  0  0
 22 23  1  0  0  0  0
M  END
> <PUBCHEM_COMPOUND_ID_TYPE>
0

> <PUBCHEM_TOTAL_CHARGE>
0

> <PUBCHEM_SUBSTANCE_ID>
310929825

> <PUBCHEM_SUBSTANCE_VERSION>
1

> <PUBCHEM_EXT_DATASOURCE_NAME>
4488

> <PUBCHEM_EXT_DATASOURCE_REGID>
SCHEMBL16107034

> <PUBCHEM_SUBSTANCE_COMMENT>
InChI=1S/C14H22N2O7S/c1-3-10-8-14(10,15-12(18)19)11(17)16-24(20,21)13(4-5-13)9-23-7-6-22-2/h3,10,15H,1,4-9H2,2H3,(H,16,17)(H,18,19)/t10-,14-/m1/s1
InChIKey=SJKSWLUBPSXCFG-QMTHXVAHSA-N

> <PUBCHEM_SUBSTANCE_SYNONYM>
SCHEMBL16107034

> <PUBCHEM_XREF_EXT_ID>
SCHEMBL16107034

> <PUBCHEM_EXT_DATASOURCE_URL>
https://www.surechembl.org/

> <PUBCHEM_EXT_SUBSTANCE_URL>
https://www.surechembl.org/chemical/SCHEMBL16107034

> <PUBCHEM_CID_ASSOCIATIONS>
117599099  1

> <PUBCHEM_COORDINATE_TYPE>
1
3

> <PUBCHEM_BONDANNOTATIONS>
11  10  5
11  14  6
13  19  6

$$$$
