310935983
  -OEChem-07211613022D

 19 21  0     0  0  0  0  0  0999 V2000
    3.0561   -0.3236    0.0000 O   0  0  0  0  0  0  0  0  0  0  0  0
    1.6539   -2.8403    0.0000 O   0  0  0  0  0  0  0  0  0  0  0  0
    2.5527   -1.6898    0.0000 N   0  0  0  0  0  0  0  0  0  0  0  0
    5.3931   -0.8809    0.0000 N   0  0  0  0  0  0  0  0  0  0  0  0
    1.2404   -1.4382    0.0000 C   0  0  0  0  0  0  0  0  0  0  0  0
    1.6539   -0.7191    0.0000 C   0  0  0  0  0  0  0  0  0  0  0  0
    1.7977   -2.0314    0.0000 C   0  0  0  0  0  0  0  0  0  0  0  0
    2.4629   -0.8809    0.0000 C   0  0  0  0  0  0  0  0  0  0  0  0
    3.2718   -2.1033    0.0000 C   0  0  0  0  0  0  0  0  0  0  0  0
    1.2225    0.0000    0.0000 C   0  0  0  0  0  0  0  0  0  0  0  0
    0.4314   -1.4382    0.0000 C   0  0  0  0  0  0  0  0  0  0  0  0
    3.9729   -1.6898    0.0000 C   0  0  0  0  0  0  0  0  0  0  0  0
    3.2718   -2.9303    0.0000 C   0  0  0  0  0  0  0  0  0  0  0  0
    4.6920   -2.1033    0.0000 C   0  0  0  0  0  0  0  0  0  0  0  0
    0.0000   -0.7370    0.0000 C   0  0  0  0  0  0  0  0  0  0  0  0
    0.4135   -0.0180    0.0000 C   0  0  0  0  0  0  0  0  0  0  0  0
    3.9729   -3.3437    0.0000 C   0  0  0  0  0  0  0  0  0  0  0  0
    4.6920   -2.9303    0.0000 C   0  0  0  0  0  0  0  0  0  0  0  0
    5.3931   -1.6898    0.0000 C   0  0  0  0  0  0  0  0  0  0  0  0
  1  8  2  0  0  0  0
  2  7  2  0  0  0  0
  3  7  1  0  0  0  0
  3  8  1  0  0  0  0
  3  9  1  0  0  0  0
  4 19  3  0  0  0  0
  5  6  1  0  0  0  0
  5  7  1  0  0  0  0
  5 11  2  0  0  0  0
  6  8  1  0  0  0  0
  6 10  2  0  0  0  0
  9 12  1  0  0  0  0
  9 13  2  0  0  0  0
 10 16  1  0  0  0  0
 11 15  1  0  0  0  0
 12 14  2  0  0  0  0
 13 17  1  0  0  0  0
 14 18  1  0  0  0  0
 14 19  1  0  0  0  0
 15 16  2  0  0  0  0
 17 18  2  0  0  0  0
M  END
> <PUBCHEM_COMPOUND_ID_TYPE>
0

> <PUBCHEM_TOTAL_CHARGE>
0

> <PUBCHEM_SUBSTANCE_ID>
310935983

> <PUBCHEM_SUBSTANCE_VERSION>
1

> <PUBCHEM_EXT_DATASOURCE_NAME>
4488

> <PUBCHEM_EXT_DATASOURCE_REGID>
SCHEMBL16113584

> <PUBCHEM_SUBSTANCE_COMMENT>
InChI=1S/C15H8N2O2/c16-9-10-4-3-5-11(8-10)17-14(18)12-6-1-2-7-13(12)15(17)19/h1-8H
InChIKey=FXHQNXLLFSHPJL-UHFFFAOYSA-N

> <PUBCHEM_SUBSTANCE_SYNONYM>
SCHEMBL16113584

> <PUBCHEM_XREF_EXT_ID>
SCHEMBL16113584

> <PUBCHEM_EXT_DATASOURCE_URL>
https://www.surechembl.org/

> <PUBCHEM_EXT_SUBSTANCE_URL>
https://www.surechembl.org/chemical/SCHEMBL16113584

> <PUBCHEM_CID_ASSOCIATIONS>
693739  1

> <PUBCHEM_COORDINATE_TYPE>
1
3

$$$$
