310948398
  -OEChem-07211613022D

 28 31  0     1  0  0  0  0  0999 V2000
    2.8638   -2.8250    0.0000 Cl  0  0  0  0  0  0  0  0  0  0  0  0
    2.3826   -1.2262    0.0000 F   0  0  0  0  0  0  0  0  0  0  0  0
   -2.1498   -2.2817    0.0000 O   0  0  0  0  0  0  0  0  0  0  0  0
    0.3492    3.2131    0.0000 O   0  0  0  0  0  0  0  0  0  0  0  0
   -0.6287    0.0466    0.0000 N   0  0  0  0  0  0  0  0  0  0  0  0
   -0.1474   -0.6364    0.0000 N   0  0  0  0  0  0  0  0  0  0  0  0
   -0.3803   -2.0954    0.0000 N   0  0  0  0  0  0  0  0  0  0  0  0
   -2.8638   -1.0400    0.0000 N   0  0  0  0  0  0  0  0  0  0  0  0
    1.5289   -0.2173    0.0000 N   0  0  0  0  0  0  0  0  0  0  0  0
   -1.4358   -1.0400    0.0000 C   0  0  0  0  0  0  0  0  0  0  0  0
   -1.4202   -0.2018    0.0000 C   0  0  0  0  0  0  0  0  0  0  0  0
   -0.6441   -1.2883    0.0000 C   0  0  0  0  0  0  0  0  0  0  0  0
   -0.3803    0.8537    0.0000 C   0  0  3  0  0  0  0  0  0  0  0  0
   -2.1498   -1.4280    0.0000 C   0  0  0  0  0  0  0  0  0  0  0  0
   -2.1653    0.2018    0.0000 C   0  0  0  0  0  0  0  0  0  0  0  0
    0.4268    1.0244    0.0000 C   0  0  3  0  0  0  0  0  0  0  0  0
   -0.9236    1.4590    0.0000 C   0  0  0  0  0  0  0  0  0  0  0  0
    0.4268   -2.2507    0.0000 C   0  0  0  0  0  0  0  0  0  0  0  0
   -2.8483   -0.2018    0.0000 C   0  0  0  0  0  0  0  0  0  0  0  0
    0.6752    1.8005    0.0000 C   0  0  0  0  0  0  0  0  0  0  0  0
    0.1319    2.4214    0.0000 C   0  0  3  0  0  0  0  0  0  0  0  0
   -0.6752    2.2352    0.0000 C   0  0  0  0  0  0  0  0  0  0  0  0
    0.9856   -1.6453    0.0000 C   0  0  0  0  0  0  0  0  0  0  0  0
    0.9856    0.3880    0.0000 C   0  0  0  0  0  0  0  0  0  0  0  0
    0.6907   -3.0423    0.0000 C   0  0  0  0  0  0  0  0  0  0  0  0
    1.7928   -1.8316    0.0000 C   0  0  0  0  0  0  0  0  0  0  0  0
    2.0411   -2.5921    0.0000 C   0  0  0  0  0  0  0  0  0  0  0  0
    1.4978   -3.2131    0.0000 C   0  0  0  0  0  0  0  0  0  0  0  0
  1 27  1  0  0  0  0
  2 26  1  0  0  0  0
  3 14  2  0  0  0  0
 21  4  1  1  0  0  0
  5  6  1  0  0  0  0
  5 11  1  0  0  0  0
 13  5  1  1  0  0  0
  6 12  2  0  0  0  0
  7 12  1  0  0  0  0
  7 18  1  0  0  0  0
  8 14  1  0  0  0  0
  8 19  1  0  0  0  0
  9 24  3  0  0  0  0
 10 11  2  0  0  0  0
 10 12  1  0  0  0  0
 10 14  1  0  0  0  0
 11 15  1  0  0  0  0
 13 16  1  0  0  0  0
 13 17  1  0  0  0  0
 15 19  2  0  0  0  0
 16 20  1  0  0  0  0
 16 24  1  6  0  0  0
 17 22  1  0  0  0  0
 18 23  1  0  0  0  0
 18 25  2  0  0  0  0
 20 21  1  0  0  0  0
 21 22  1  0  0  0  0
 23 26  2  0  0  0  0
 25 28  1  0  0  0  0
 26 27  1  0  0  0  0
 27 28  2  0  0  0  0
M  END
> <PUBCHEM_COMPOUND_ID_TYPE>
0

> <PUBCHEM_TOTAL_CHARGE>
0

> <PUBCHEM_SUBSTANCE_ID>
310948398

> <PUBCHEM_SUBSTANCE_VERSION>
1

> <PUBCHEM_EXT_DATASOURCE_NAME>
4488

> <PUBCHEM_EXT_DATASOURCE_REGID>
SCHEMBL16126579

> <PUBCHEM_SUBSTANCE_COMMENT>
InChI=1S/C19H17ClFN5O2/c20-13-3-1-11(8-14(13)21)24-18-17-16(5-6-23-19(17)28)26(25-18)15-4-2-12(27)7-10(15)9-22/h1,3,5-6,8,10,12,15,27H,2,4,7H2,(H,23,28)(H,24,25)/t10-,12-,15+/m1/s1
InChIKey=PUQKGTGEFHPTSX-HCKVZZMMSA-N

> <PUBCHEM_SUBSTANCE_SYNONYM>
SCHEMBL16126579

> <PUBCHEM_XREF_EXT_ID>
SCHEMBL16126579

> <PUBCHEM_EXT_DATASOURCE_URL>
https://www.surechembl.org/

> <PUBCHEM_EXT_SUBSTANCE_URL>
https://www.surechembl.org/chemical/SCHEMBL16126579

> <PUBCHEM_CID_ASSOCIATIONS>
117613959  1

> <PUBCHEM_COORDINATE_TYPE>
1
3

> <PUBCHEM_BONDANNOTATIONS>
16  24  6
21  4  5
13  5  5

$$$$
