310940649
  -OEChem-07211613022D

 42 46  0     0  0  0  0  0  0999 V2000
   -1.5664   -1.7347    0.0000 O   0  0  0  0  0  0  0  0  0  0  0  0
    3.0596   -4.6772    0.0000 O   0  0  0  0  0  0  0  0  0  0  0  0
    1.8299   -4.0478    0.0000 O   0  0  0  0  0  0  0  0  0  0  0  0
    1.6103    4.0917    0.0000 O   0  0  0  0  0  0  0  0  0  0  0  0
    1.3468   -1.8958    0.0000 N   0  0  0  0  0  0  0  0  0  0  0  0
    1.3468   -3.2280    0.0000 N   0  0  0  0  0  0  0  0  0  0  0  0
    0.6002    3.0815    0.0000 N   0  0  0  0  0  0  0  0  0  0  0  0
    1.9763    2.7156    0.0000 N   0  0  0  0  0  0  0  0  0  0  0  0
   -3.0157   -0.9150    0.0000 N   0  0  0  0  0  0  0  0  0  0  0  0
    0.5709   -2.1300    0.0000 C   0  0  0  0  0  0  0  0  0  0  0  0
    1.8299   -2.5545    0.0000 C   0  0  0  0  0  0  0  0  0  0  0  0
    0.5563   -2.9498    0.0000 C   0  0  0  0  0  0  0  0  0  0  0  0
    3.0596   -3.2718    0.0000 C   0  0  0  0  0  0  0  0  0  0  0  0
    2.6643   -2.5692    0.0000 C   0  0  0  0  0  0  0  0  0  0  0  0
   -0.1611   -1.7494    0.0000 C   0  0  0  0  0  0  0  0  0  0  0  0
    1.5957   -1.1053    0.0000 C   0  0  0  0  0  0  0  0  0  0  0  0
   -0.1464   -3.3744    0.0000 C   0  0  0  0  0  0  0  0  0  0  0  0
   -0.8491   -2.1446    0.0000 C   0  0  0  0  0  0  0  0  0  0  0  0
    1.0394   -0.4904    0.0000 C   0  0  0  0  0  0  0  0  0  0  0  0
   -0.8637   -2.9645    0.0000 C   0  0  0  0  0  0  0  0  0  0  0  0
    2.6497   -4.0038    0.0000 C   0  0  0  0  0  0  0  0  0  0  0  0
    3.4842   -3.9892    0.0000 C   0  0  0  0  0  0  0  0  0  0  0  0
    3.6305   -2.7009    0.0000 C   0  0  0  0  0  0  0  0  0  0  0  0
    1.3029    0.2854    0.0000 C   0  0  0  0  0  0  0  0  0  0  0  0
    0.7466    0.9003    0.0000 C   0  0  0  0  0  0  0  0  0  0  0  0
    0.2488   -0.6515    0.0000 C   0  0  0  0  0  0  0  0  0  0  0  0
    0.9662    1.7055    0.0000 C   0  0  0  0  0  0  0  0  0  0  0  0
   -0.0439    0.7247    0.0000 C   0  0  0  0  0  0  0  0  0  0  0  0
   -0.2928   -0.0659    0.0000 C   0  0  0  0  0  0  0  0  0  0  0  0
   -1.5810   -0.9150    0.0000 C   0  0  0  0  0  0  0  0  0  0  0  0
    4.4503   -2.8912    0.0000 C   0  0  0  0  0  0  0  0  0  0  0  0
    4.3186   -3.9892    0.0000 C   0  0  0  0  0  0  0  0  0  0  0  0
    0.3806    2.2910    0.0000 C   0  0  0  0  0  0  0  0  0  0  0  0
    1.7567    1.9104    0.0000 C   0  0  0  0  0  0  0  0  0  0  0  0
   -2.3130   -0.4904    0.0000 C   0  0  0  0  0  0  0  0  0  0  0  0
    1.3761    3.3012    0.0000 C   0  0  0  0  0  0  0  0  0  0  0  0
   -2.2837    0.3294    0.0000 C   0  0  0  0  0  0  0  0  0  0  0  0
   -3.7184   -0.4904    0.0000 C   0  0  0  0  0  0  0  0  0  0  0  0
   -3.0157    0.7393    0.0000 C   0  0  0  0  0  0  0  0  0  0  0  0
   -3.7184    0.3294    0.0000 C   0  0  0  0  0  0  0  0  0  0  0  0
    1.0101    4.6772    0.0000 C   0  0  0  0  0  0  0  0  0  0  0  0
   -4.4503    0.7247    0.0000 C   0  0  0  0  0  0  0  0  0  0  0  0
  1 18  1  0  0  0  0
  1 30  1  0  0  0  0
  2 21  2  0  0  0  0
  3 21  1  0  0  0  0
  4 36  1  0  0  0  0
  4 41  1  0  0  0  0
  5 10  1  0  0  0  0
  5 11  1  0  0  0  0
  5 16  1  0  0  0  0
  6 11  2  0  0  0  0
  6 12  1  0  0  0  0
  7 33  2  0  0  0  0
  7 36  1  0  0  0  0
  8 34  1  0  0  0  0
  8 36  2  0  0  0  0
  9 35  1  0  0  0  0
  9 38  2  0  0  0  0
 10 12  1  0  0  0  0
 10 15  2  0  0  0  0
 11 14  1  0  0  0  0
 12 17  2  0  0  0  0
 13 14  1  0  0  0  0
 13 21  1  0  0  0  0
 13 22  1  0  0  0  0
 13 23  1  0  0  0  0
 15 18  1  0  0  0  0
 16 19  1  0  0  0  0
 17 20  1  0  0  0  0
 18 20  2  0  0  0  0
 19 24  1  0  0  0  0
 19 26  2  0  0  0  0
 22 32  1  0  0  0  0
 23 31  1  0  0  0  0
 24 25  2  0  0  0  0
 25 27  1  0  0  0  0
 25 28  1  0  0  0  0
 26 29  1  0  0  0  0
 27 33  1  0  0  0  0
 27 34  2  0  0  0  0
 28 29  2  0  0  0  0
 30 35  1  0  0  0  0
 35 37  2  0  0  0  0
 37 39  1  0  0  0  0
 38 40  1  0  0  0  0
 39 40  2  0  0  0  0
 40 42  1  0  0  0  0
M  END
> <PUBCHEM_COMPOUND_ID_TYPE>
0

> <PUBCHEM_TOTAL_CHARGE>
0

> <PUBCHEM_SUBSTANCE_ID>
310940649

> <PUBCHEM_SUBSTANCE_VERSION>
1

> <PUBCHEM_EXT_DATASOURCE_NAME>
4488

> <PUBCHEM_EXT_DATASOURCE_REGID>
SCHEMBL16118604

> <PUBCHEM_SUBSTANCE_COMMENT>
InChI=1S/C33H35N5O4/c1-5-33(6-2,31(39)40)16-30-37-28-13-12-27(42-21-26-11-10-22(3)17-34-26)15-29(28)38(30)20-23-8-7-9-24(14-23)25-18-35-32(41-4)36-19-25/h7-15,17-19H,5-6,16,20-21H2,1-4H3,(H,39,40)
InChIKey=AMBKEXMYDALDRW-UHFFFAOYSA-N

> <PUBCHEM_SUBSTANCE_SYNONYM>
SCHEMBL16118604

> <PUBCHEM_XREF_EXT_ID>
SCHEMBL16118604

> <PUBCHEM_EXT_DATASOURCE_URL>
https://www.surechembl.org/

> <PUBCHEM_EXT_SUBSTANCE_URL>
https://www.surechembl.org/chemical/SCHEMBL16118604

> <PUBCHEM_CID_ASSOCIATIONS>
117607628  1

> <PUBCHEM_COORDINATE_TYPE>
1
3

$$$$
