310940607
  -OEChem-07211613022D

 15 16  0     1  0  0  0  0  0999 V2000
    1.5232   -1.5371    0.0000 O   0  0  0  0  0  0  0  0  0  0  0  0
    1.6066   -0.0626    0.0000 O   0  0  0  0  0  0  0  0  0  0  0  0
    0.3825   -0.8555    0.0000 N   0  0  0  0  0  0  0  0  0  0  0  0
   -0.2017   -0.2991    0.0000 C   0  0  3  0  0  0  0  0  0  0  0  0
    1.1615   -0.8138    0.0000 C   0  0  0  0  0  0  0  0  0  0  0  0
    0.0069    0.5356    0.0000 C   0  0  0  0  0  0  0  0  0  0  0  0
    0.2017   -1.7040    0.0000 C   0  0  0  0  0  0  0  0  0  0  0  0
    0.9251   -2.1075    0.0000 C   0  0  0  0  0  0  0  0  0  0  0  0
   -0.9946   -0.5216    0.0000 C   0  0  0  0  0  0  0  0  0  0  0  0
   -0.5634    1.0919    0.0000 C   0  0  0  0  0  0  0  0  0  0  0  0
    0.8138    0.7442    0.0000 C   0  0  0  0  0  0  0  0  0  0  0  0
   -0.3547    1.9127    0.0000 C   0  0  0  0  0  0  0  0  0  0  0  0
    1.0085    1.5371    0.0000 C   0  0  0  0  0  0  0  0  0  0  0  0
    0.4382    2.1075    0.0000 C   0  0  0  0  0  0  0  0  0  0  0  0
   -1.6066    0.0626    0.0000 C   0  0  0  0  0  0  0  0  0  0  0  0
  1  5  1  0  0  0  0
  1  8  1  0  0  0  0
  2  5  2  0  0  0  0
  3  4  1  0  0  0  0
  3  5  1  0  0  0  0
  3  7  1  0  0  0  0
  4  6  1  0  0  0  0
  4  9  1  6  0  0  0
  6 10  2  0  0  0  0
  6 11  1  0  0  0  0
  7  8  2  0  0  0  0
  9 15  1  0  0  0  0
 10 12  1  0  0  0  0
 11 13  2  0  0  0  0
 12 14  2  0  0  0  0
 13 14  1  0  0  0  0
M  END
> <PUBCHEM_COMPOUND_ID_TYPE>
0

> <PUBCHEM_TOTAL_CHARGE>
0

> <PUBCHEM_SUBSTANCE_ID>
310940607

> <PUBCHEM_SUBSTANCE_VERSION>
1

> <PUBCHEM_EXT_DATASOURCE_NAME>
4488

> <PUBCHEM_EXT_DATASOURCE_REGID>
SCHEMBL16118561

> <PUBCHEM_SUBSTANCE_COMMENT>
InChI=1S/C12H13NO2/c1-2-11(10-6-4-3-5-7-10)13-8-9-15-12(13)14/h3-9,11H,2H2,1H3/t11-/m1/s1
InChIKey=ZGYVEYOOZHLVCJ-LLVKDONJSA-N

> <PUBCHEM_SUBSTANCE_SYNONYM>
SCHEMBL16118561

> <PUBCHEM_XREF_EXT_ID>
SCHEMBL16118561

> <PUBCHEM_EXT_DATASOURCE_URL>
https://www.surechembl.org/

> <PUBCHEM_EXT_SUBSTANCE_URL>
https://www.surechembl.org/chemical/SCHEMBL16118561

> <PUBCHEM_CID_ASSOCIATIONS>
117607594  1

> <PUBCHEM_COORDINATE_TYPE>
1
3

> <PUBCHEM_BONDANNOTATIONS>
4  9  6

$$$$
