310929372
  -OEChem-07211613022D

 23 22  0     0  0  0  0  0  0999 V2000
   15.3494    0.0000    0.0000 Cl  0  0  0  0  0  0  0  0  0  0  0  0
    9.1073   -0.4093    0.0000 O   0  0  0  0  0  0  0  0  0  0  0  0
    7.0096    0.0000    0.0000 O   0  0  0  0  0  0  0  0  0  0  0  0
    4.9118   -0.4093    0.0000 O   0  0  0  0  0  0  0  0  0  0  0  0
   11.1539    0.0000    0.0000 O   0  0  0  0  0  0  0  0  0  0  0  0
    2.8141    0.0000    0.0000 O   0  0  0  0  0  0  0  0  0  0  0  0
   13.2517   -0.4093    0.0000 O   0  0  0  0  0  0  0  0  0  0  0  0
    0.7163   -0.4093    0.0000 O   0  0  0  0  0  0  0  0  0  0  0  0
    8.3910    0.0000    0.0000 C   0  0  0  0  0  0  0  0  0  0  0  0
    7.6747   -0.4093    0.0000 C   0  0  0  0  0  0  0  0  0  0  0  0
    6.2933   -0.4093    0.0000 C   0  0  0  0  0  0  0  0  0  0  0  0
    9.7725    0.0000    0.0000 C   0  0  0  0  0  0  0  0  0  0  0  0
    5.6281    0.0000    0.0000 C   0  0  0  0  0  0  0  0  0  0  0  0
   10.4888   -0.4093    0.0000 C   0  0  0  0  0  0  0  0  0  0  0  0
    4.1955    0.0000    0.0000 C   0  0  0  0  0  0  0  0  0  0  0  0
   11.8702   -0.4093    0.0000 C   0  0  0  0  0  0  0  0  0  0  0  0
    3.5304   -0.4093    0.0000 C   0  0  0  0  0  0  0  0  0  0  0  0
   12.5865    0.0000    0.0000 C   0  0  0  0  0  0  0  0  0  0  0  0
    2.0978   -0.4093    0.0000 C   0  0  0  0  0  0  0  0  0  0  0  0
   13.9680    0.0000    0.0000 C   0  0  0  0  0  0  0  0  0  0  0  0
    1.4326    0.0000    0.0000 C   0  0  0  0  0  0  0  0  0  0  0  0
   14.6844   -0.4093    0.0000 C   0  0  0  0  0  0  0  0  0  0  0  0
    0.0000    0.0000    0.0000 C   0  0  0  0  0  0  0  0  0  0  0  0
  1 22  1  0  0  0  0
  2  9  1  0  0  0  0
  2 12  1  0  0  0  0
  3 10  1  0  0  0  0
  3 11  1  0  0  0  0
  4 13  1  0  0  0  0
  4 15  1  0  0  0  0
  5 14  1  0  0  0  0
  5 16  1  0  0  0  0
  6 17  1  0  0  0  0
  6 19  1  0  0  0  0
  7 18  1  0  0  0  0
  7 20  1  0  0  0  0
  8 21  1  0  0  0  0
  8 23  1  0  0  0  0
  9 10  1  0  0  0  0
 11 13  1  0  0  0  0
 12 14  1  0  0  0  0
 15 17  1  0  0  0  0
 16 18  1  0  0  0  0
 19 21  1  0  0  0  0
 20 22  1  0  0  0  0
M  END
> <PUBCHEM_COMPOUND_ID_TYPE>
0

> <PUBCHEM_TOTAL_CHARGE>
0

> <PUBCHEM_SUBSTANCE_ID>
310929372

> <PUBCHEM_SUBSTANCE_VERSION>
1

> <PUBCHEM_EXT_DATASOURCE_NAME>
4488

> <PUBCHEM_EXT_DATASOURCE_REGID>
SCHEMBL16106544

> <PUBCHEM_SUBSTANCE_COMMENT>
InChI=1S/C15H31ClO7/c1-17-4-5-19-8-9-21-12-13-23-15-14-22-11-10-20-7-6-18-3-2-16/h2-15H2,1H3
InChIKey=ZZDXNYQKOPDFBX-UHFFFAOYSA-N

> <PUBCHEM_SUBSTANCE_SYNONYM>
SCHEMBL16106544

> <PUBCHEM_XREF_EXT_ID>
SCHEMBL16106544

> <PUBCHEM_EXT_DATASOURCE_URL>
https://www.surechembl.org/

> <PUBCHEM_EXT_SUBSTANCE_URL>
https://www.surechembl.org/chemical/SCHEMBL16106544

> <PUBCHEM_CID_ASSOCIATIONS>
85982906  1

> <PUBCHEM_COORDINATE_TYPE>
1
3

$$$$
