310948500
  -OEChem-07211613022D

 35 39  0     1  0  0  0  0  0999 V2000
   -2.5682    3.0744    0.0000 O   0  0  0  0  0  0  0  0  0  0  0  0
   -2.6245   -1.5559    0.0000 O   0  0  0  0  0  0  0  0  0  0  0  0
   -0.8248   -4.7427    0.0000 O   0  0  0  0  0  0  0  0  0  0  0  0
   -2.2683   -4.7427    0.0000 O   0  0  0  0  0  0  0  0  0  0  0  0
    0.2062    2.9244    0.0000 N   0  0  0  0  0  0  0  0  0  0  0  0
   -0.1499    2.1745    0.0000 N   0  0  0  0  0  0  0  0  0  0  0  0
   -1.5747    1.4809    0.0000 N   0  0  0  0  0  0  0  0  0  0  0  0
   -1.8746    4.3116    0.0000 N   0  0  0  0  0  0  0  0  0  0  0  0
    1.0310    0.9185    0.0000 N   0  0  0  0  0  0  0  0  0  0  0  0
   -1.1435    3.0931    0.0000 C   0  0  0  0  0  0  0  0  0  0  0  0
   -0.4312    3.5055    0.0000 C   0  0  0  0  0  0  0  0  0  0  0  0
   -0.9748    2.3057    0.0000 C   0  0  0  0  0  0  0  0  0  0  0  0
    0.9936    3.1118    0.0000 C   0  0  3  0  0  0  0  0  0  0  0  0
   -1.8559    3.5242    0.0000 C   0  0  0  0  0  0  0  0  0  0  0  0
   -0.4124    4.3303    0.0000 C   0  0  0  0  0  0  0  0  0  0  0  0
    1.5934    2.5120    0.0000 C   0  0  3  0  0  0  0  0  0  0  0  0
   -1.5559    0.6561    0.0000 C   0  0  0  0  0  0  0  0  0  0  0  0
   -1.5934   -1.8184    0.0000 C   0  0  0  0  0  0  0  0  0  0  0  0
   -1.5559   -0.9936    0.0000 C   0  0  0  0  0  0  0  0  0  0  0  0
   -1.1435    4.7427    0.0000 C   0  0  0  0  0  0  0  0  0  0  0  0
    1.2747    3.8992    0.0000 C   0  0  0  0  0  0  0  0  0  0  0  0
   -2.2683    0.2437    0.0000 C   0  0  0  0  0  0  0  0  0  0  0  0
   -0.8435    0.2437    0.0000 C   0  0  0  0  0  0  0  0  0  0  0  0
   -2.2683   -0.5811    0.0000 C   0  0  0  0  0  0  0  0  0  0  0  0
   -0.8435   -0.5624    0.0000 C   0  0  0  0  0  0  0  0  0  0  0  0
    2.3620    2.6994    0.0000 C   0  0  0  0  0  0  0  0  0  0  0  0
   -0.8435   -2.2308    0.0000 C   0  0  0  0  0  0  0  0  0  0  0  0
   -2.2683   -2.2495    0.0000 C   0  0  0  0  0  0  0  0  0  0  0  0
    1.2935    1.6872    0.0000 C   0  0  0  0  0  0  0  0  0  0  0  0
    2.0808    4.0679    0.0000 C   0  0  0  0  0  0  0  0  0  0  0  0
   -1.5559   -3.4868    0.0000 C   0  0  0  0  0  0  0  0  0  0  0  0
    2.6245    3.4868    0.0000 C   0  0  0  0  0  0  0  0  0  0  0  0
   -0.8435   -3.0744    0.0000 C   0  0  0  0  0  0  0  0  0  0  0  0
   -2.2495   -3.0931    0.0000 C   0  0  0  0  0  0  0  0  0  0  0  0
   -1.5934   -4.3491    0.0000 C   0  0  0  0  0  0  0  0  0  0  0  0
  1 14  2  0  0  0  0
 18  2  1  1  0  0  0
  3 35  2  0  0  0  0
  4 35  1  0  0  0  0
  5  6  1  0  0  0  0
  5 11  1  0  0  0  0
 13  5  1  1  0  0  0
  6 12  2  0  0  0  0
  7 12  1  0  0  0  0
  7 17  1  0  0  0  0
  8 14  1  0  0  0  0
  8 20  1  0  0  0  0
  9 29  3  0  0  0  0
 10 11  2  0  0  0  0
 10 12  1  0  0  0  0
 10 14  1  0  0  0  0
 11 15  1  0  0  0  0
 13 16  1  0  0  0  0
 13 21  1  0  0  0  0
 15 20  2  0  0  0  0
 16 26  1  0  0  0  0
 16 29  1  6  0  0  0
 17 22  2  0  0  0  0
 17 23  1  0  0  0  0
 18 19  1  0  0  0  0
 18 27  1  0  0  0  0
 18 28  1  0  0  0  0
 19 24  2  0  0  0  0
 19 25  1  0  0  0  0
 21 30  1  0  0  0  0
 22 24  1  0  0  0  0
 23 25  2  0  0  0  0
 26 32  1  0  0  0  0
 27 33  1  0  0  0  0
 28 34  1  0  0  0  0
 30 32  1  0  0  0  0
 31 33  1  0  0  0  0
 31 34  1  0  0  0  0
 31 35  1  1  0  0  0
M  END
> <PUBCHEM_COMPOUND_ID_TYPE>
0

> <PUBCHEM_TOTAL_CHARGE>
0

> <PUBCHEM_SUBSTANCE_ID>
310948500

> <PUBCHEM_SUBSTANCE_VERSION>
1

> <PUBCHEM_EXT_DATASOURCE_NAME>
4488

> <PUBCHEM_EXT_DATASOURCE_REGID>
SCHEMBL16126682

> <PUBCHEM_SUBSTANCE_COMMENT>
InChI=1S/C26H29N5O4/c27-15-17-3-1-2-4-20(17)31-21-11-14-28-24(32)22(21)23(30-31)29-19-7-5-18(6-8-19)26(35)12-9-16(10-13-26)25(33)34/h5-8,11,14,16-17,20,35H,1-4,9-10,12-13H2,(H,28,32)(H,29,30)(H,33,34)/t16-,17-,20+,26+/m1/s1
InChIKey=IHZHRJVOUQAPPG-HVIULFBWSA-N

> <PUBCHEM_SUBSTANCE_SYNONYM>
SCHEMBL16126682

> <PUBCHEM_XREF_EXT_ID>
SCHEMBL16126682

> <PUBCHEM_EXT_DATASOURCE_URL>
https://www.surechembl.org/

> <PUBCHEM_EXT_SUBSTANCE_URL>
https://www.surechembl.org/chemical/SCHEMBL16126682

> <PUBCHEM_CID_ASSOCIATIONS>
117614057  1

> <PUBCHEM_COORDINATE_TYPE>
1
3

> <PUBCHEM_BONDANNOTATIONS>
16  29  6
18  2  5
31  35  5
13  5  5

$$$$
