310948240
  -OEChem-07211613022D

 34 39  0     1  0  0  0  0  0999 V2000
   -2.5963    2.1601    0.0000 O   0  0  0  0  0  0  0  0  0  0  0  0
   -0.6577   -3.0878    0.0000 O   0  0  0  0  0  0  0  0  0  0  0  0
    0.1869    2.0355    0.0000 N   0  0  0  0  0  0  0  0  0  0  0  0
   -0.1454    1.2878    0.0000 N   0  0  0  0  0  0  0  0  0  0  0  0
   -1.5301    0.7477    0.0000 N   0  0  0  0  0  0  0  0  0  0  0  0
    0.4915   -2.1463    0.0000 N   0  0  0  0  0  0  0  0  0  0  0  0
   -1.8901    3.4063    0.0000 N   0  0  0  0  0  0  0  0  0  0  0  0
    1.0869    0.1385    0.0000 N   0  0  0  0  0  0  0  0  0  0  0  0
   -1.1424    2.1740    0.0000 C   0  0  0  0  0  0  0  0  0  0  0  0
   -0.4500    2.5893    0.0000 C   0  0  0  0  0  0  0  0  0  0  0  0
   -0.9901    1.3708    0.0000 C   0  0  0  0  0  0  0  0  0  0  0  0
    0.9901    2.2293    0.0000 C   0  0  3  0  0  0  0  0  0  0  0  0
   -1.8901    2.5893    0.0000 C   0  0  0  0  0  0  0  0  0  0  0  0
   -0.7546   -1.6062    0.0000 C   0  0  0  0  0  0  0  0  0  0  0  0
   -0.2007   -0.9970    0.0000 C   0  0  0  0  0  0  0  0  0  0  0  0
   -1.2809   -0.0139    0.0000 C   0  0  0  0  0  0  0  0  0  0  0  0
   -0.3254   -2.3124    0.0000 C   0  0  0  0  0  0  0  0  0  0  0  0
   -0.4500    3.4201    0.0000 C   0  0  0  0  0  0  0  0  0  0  0  0
    0.5746   -1.3154    0.0000 C   0  0  0  0  0  0  0  0  0  0  0  0
   -0.4638   -0.2077    0.0000 C   0  0  0  0  0  0  0  0  0  0  0  0
    1.5578    1.6201    0.0000 C   0  0  3  0  0  0  0  0  0  0  0  0
   -1.5439   -1.4401    0.0000 C   0  0  0  0  0  0  0  0  0  0  0  0
    1.1285   -2.7002    0.0000 C   0  0  0  0  0  0  0  0  0  0  0  0
   -1.8070   -0.6647    0.0000 C   0  0  0  0  0  0  0  0  0  0  0  0
   -1.1701    3.8356    0.0000 C   0  0  0  0  0  0  0  0  0  0  0  0
    1.2532    3.0048    0.0000 C   0  0  0  0  0  0  0  0  0  0  0  0
    2.3609    1.8001    0.0000 C   0  0  0  0  0  0  0  0  0  0  0  0
    1.0454   -3.5171    0.0000 C   0  0  0  0  0  0  0  0  0  0  0  0
    1.9316   -2.5339    0.0000 C   0  0  0  0  0  0  0  0  0  0  0  0
    1.2947    0.8308    0.0000 C   0  0  0  0  0  0  0  0  0  0  0  0
    2.0701    3.1709    0.0000 C   0  0  0  0  0  0  0  0  0  0  0  0
    2.5963    2.5893    0.0000 C   0  0  0  0  0  0  0  0  0  0  0  0
    2.3470   -3.2125    0.0000 C   0  0  0  0  0  0  0  0  0  0  0  0
    1.8070   -3.8356    0.0000 C   0  0  0  0  0  0  0  0  0  0  0  0
  1 13  2  0  0  0  0
  2 17  2  0  0  0  0
  3  4  1  0  0  0  0
  3 10  1  0  0  0  0
 12  3  1  1  0  0  0
  4 11  2  0  0  0  0
  5 11  1  0  0  0  0
  5 16  1  0  0  0  0
  6 17  1  0  0  0  0
  6 19  1  0  0  0  0
  6 23  1  0  0  0  0
  7 13  1  0  0  0  0
  7 25  1  0  0  0  0
  8 30  3  0  0  0  0
  9 10  2  0  0  0  0
  9 11  1  0  0  0  0
  9 13  1  0  0  0  0
 10 18  1  0  0  0  0
 12 21  1  0  0  0  0
 12 26  1  0  0  0  0
 14 15  1  0  0  0  0
 14 17  1  0  0  0  0
 14 22  2  0  0  0  0
 15 19  1  0  0  0  0
 15 20  2  0  0  0  0
 16 20  1  0  0  0  0
 16 24  2  0  0  0  0
 18 25  2  0  0  0  0
 21 27  1  0  0  0  0
 21 30  1  6  0  0  0
 22 24  1  0  0  0  0
 23 28  1  0  0  0  0
 23 29  1  0  0  0  0
 26 31  1  0  0  0  0
 27 32  1  0  0  0  0
 28 34  1  0  0  0  0
 29 33  1  0  0  0  0
 31 32  1  0  0  0  0
 33 34  1  0  0  0  0
M  END
> <PUBCHEM_COMPOUND_ID_TYPE>
0

> <PUBCHEM_TOTAL_CHARGE>
0

> <PUBCHEM_SUBSTANCE_ID>
310948240

> <PUBCHEM_SUBSTANCE_VERSION>
1

> <PUBCHEM_EXT_DATASOURCE_NAME>
4488

> <PUBCHEM_EXT_DATASOURCE_REGID>
SCHEMBL16126417

> <PUBCHEM_SUBSTANCE_COMMENT>
InChI=1S/C26H28N6O2/c27-14-16-5-1-4-8-21(16)32-22-11-12-28-25(33)23(22)24(30-32)29-18-9-10-20-17(13-18)15-31(26(20)34)19-6-2-3-7-19/h9-13,16,19,21H,1-8,15H2,(H,28,33)(H,29,30)/t16-,21+/m1/s1
InChIKey=CVLDIBUYNTTXTB-IERDGZPVSA-N

> <PUBCHEM_SUBSTANCE_SYNONYM>
SCHEMBL16126417

> <PUBCHEM_XREF_EXT_ID>
SCHEMBL16126417

> <PUBCHEM_EXT_DATASOURCE_URL>
https://www.surechembl.org/

> <PUBCHEM_EXT_SUBSTANCE_URL>
https://www.surechembl.org/chemical/SCHEMBL16126417

> <PUBCHEM_CID_ASSOCIATIONS>
117613820  1

> <PUBCHEM_COORDINATE_TYPE>
1
3

> <PUBCHEM_BONDANNOTATIONS>
21  30  6
12  3  5

$$$$
