310938599
  -OEChem-07211613022D

 14 14  0     0  0  0  0  0  0999 V2000
    0.2976  -12.4261    0.0000 F   0  0  0  0  0  0  0  0  0  0  0  0
   -2.5603  -13.2511    0.0000 O   0  0  0  0  0  0  0  0  0  0  0  0
   -0.4168  -11.1886    0.0000 C   0  0  0  0  0  0  0  0  0  0  0  0
   -0.4168  -12.0136    0.0000 C   0  0  0  0  0  0  0  0  0  0  0  0
   -1.8458  -12.0136    0.0000 C   0  0  0  0  0  0  0  0  0  0  0  0
    0.2976  -10.7761    0.0000 C   0  0  0  0  0  0  0  0  0  0  0  0
   -1.1313  -12.4261    0.0000 C   0  0  0  0  0  0  0  0  0  0  0  0
    1.0121  -11.1886    0.0000 C   0  0  0  0  0  0  0  0  0  0  0  0
   -1.1313  -10.7761    0.0000 C   0  0  0  0  0  0  0  0  0  0  0  0
   -1.8458  -11.1886    0.0000 C   0  0  0  0  0  0  0  0  0  0  0  0
   -2.5603  -12.4261    0.0000 C   0  0  0  0  0  0  0  0  0  0  0  0
    1.4246  -10.4741    0.0000 C   0  0  0  0  0  0  0  0  0  0  0  0
    0.5996  -11.9031    0.0000 C   0  0  0  0  0  0  0  0  0  0  0  0
    1.7266  -11.6011    0.0000 C   0  0  0  0  0  0  0  0  0  0  0  0
  1  4  1  0  0  0  0
  2 11  1  0  0  0  0
  3  4  1  0  0  0  0
  3  6  1  0  0  0  0
  3  9  2  0  0  0  0
  4  7  2  0  0  0  0
  5  7  1  0  0  0  0
  5 10  2  0  0  0  0
  5 11  1  0  0  0  0
  6  8  1  0  0  0  0
  8 12  1  0  0  0  0
  8 13  1  0  0  0  0
  8 14  1  0  0  0  0
  9 10  1  0  0  0  0
M  END
> <PUBCHEM_COMPOUND_ID_TYPE>
0

> <PUBCHEM_TOTAL_CHARGE>
0

> <PUBCHEM_SUBSTANCE_ID>
310938599

> <PUBCHEM_SUBSTANCE_VERSION>
1

> <PUBCHEM_EXT_DATASOURCE_NAME>
4488

> <PUBCHEM_EXT_DATASOURCE_REGID>
SCHEMBL16116513

> <PUBCHEM_SUBSTANCE_COMMENT>
InChI=1S/C12H17FO/c1-12(2,3)7-10-5-4-9(8-14)6-11(10)13/h4-6,14H,7-8H2,1-3H3
InChIKey=BAIPQNLDHUDZKJ-UHFFFAOYSA-N

> <PUBCHEM_SUBSTANCE_SYNONYM>
SCHEMBL16116513

> <PUBCHEM_XREF_EXT_ID>
SCHEMBL16116513

> <PUBCHEM_EXT_DATASOURCE_URL>
https://www.surechembl.org/

> <PUBCHEM_EXT_SUBSTANCE_URL>
https://www.surechembl.org/chemical/SCHEMBL16116513

> <PUBCHEM_CID_ASSOCIATIONS>
117606032  1

> <PUBCHEM_COORDINATE_TYPE>
1
3

> <PUBCHEM_BONDANNOTATIONS>
8  12  3
8  13  3

$$$$
