310949451
  -OEChem-07211613022D

 14 15  0     1  0  0  0  0  0999 V2000
   -1.5777    1.3775    0.0000 O   0  0  0  0  0  0  0  0  0  0  0  0
   -0.2427    0.7342    0.0000 N   0  0  0  0  0  0  0  0  0  0  0  0
    1.4564    0.8556    0.0000 N   0  0  0  0  0  0  0  0  0  0  0  0
    0.2670    0.0667    0.0000 C   0  0  3  0  0  0  0  0  0  0  0  0
    0.1577    1.5109    0.0000 C   0  0  3  0  0  0  0  0  0  0  0  0
   -1.0923    0.6736    0.0000 C   0  0  0  0  0  0  0  0  0  0  0  0
    0.9709    0.4915    0.0000 C   0  0  0  0  0  0  0  0  0  0  0  0
    0.8616    1.0862    0.0000 C   0  0  0  0  0  0  0  0  0  0  0  0
    0.9831    1.5716    0.0000 C   0  0  0  0  0  0  0  0  0  0  0  0
    1.0801    0.1032    0.0000 C   0  0  0  0  0  0  0  0  0  0  0  0
   -1.4564   -0.0667    0.0000 C   0  0  0  0  0  0  0  0  0  0  0  0
    2.3180    0.9284    0.0000 C   0  0  0  0  0  0  0  0  0  0  0  0
   -1.8811   -0.8313    0.0000 C   0  0  0  0  0  0  0  0  0  0  0  0
   -2.3180   -1.5716    0.0000 C   0  0  0  0  0  0  0  0  0  0  0  0
  1  6  2  0  0  0  0
  4  2  1  6  0  0  0
  5  2  1  6  0  0  0
  2  6  1  0  0  0  0
  3  9  1  0  0  0  0
  3 10  1  0  0  0  0
  3 12  1  0  0  0  0
  4  7  1  0  0  0  0
  4 10  1  0  0  0  0
  5  8  1  0  0  0  0
  5  9  1  0  0  0  0
  6 11  1  0  0  0  0
  7  8  1  0  0  0  0
 11 13  3  0  0  0  0
 13 14  1  0  0  0  0
M  END
> <PUBCHEM_COMPOUND_ID_TYPE>
0

> <PUBCHEM_TOTAL_CHARGE>
0

> <PUBCHEM_SUBSTANCE_ID>
310949451

> <PUBCHEM_SUBSTANCE_VERSION>
1

> <PUBCHEM_EXT_DATASOURCE_NAME>
4488

> <PUBCHEM_EXT_DATASOURCE_REGID>
SCHEMBL16127645

> <PUBCHEM_SUBSTANCE_COMMENT>
InChI=1S/C11H16N2O/c1-3-4-11(14)13-9-5-6-10(13)8-12(2)7-9/h9-10H,5-8H2,1-2H3/t9-,10+
InChIKey=UZUCUDRUZNHSBF-AOOOYVTPSA-N

> <PUBCHEM_SUBSTANCE_SYNONYM>
SCHEMBL16127645

> <PUBCHEM_XREF_EXT_ID>
SCHEMBL16127645

> <PUBCHEM_EXT_DATASOURCE_URL>
https://www.surechembl.org/

> <PUBCHEM_EXT_SUBSTANCE_URL>
https://www.surechembl.org/chemical/SCHEMBL16127645

> <PUBCHEM_CID_ASSOCIATIONS>
117614897  1

> <PUBCHEM_COORDINATE_TYPE>
1
3

> <PUBCHEM_BONDANNOTATIONS>
4  2  6
5  2  6

$$$$
