310934634
  -OEChem-07211613022D

 26 28  0     0  0  0  0  0  0999 V2000
    6.5859   -5.7466    0.0000 S   0  0  0  0  0  0  0  0  0  0  0  0
    3.6804   -5.0363    0.0000 O   0  0  0  0  0  0  0  0  0  0  0  0
    2.8410   -6.4568    0.0000 O   0  0  0  0  0  0  0  0  0  0  0  0
    0.8394    0.0000    0.0000 O   0  0  0  0  0  0  0  0  0  0  0  0
    4.4875   -5.0363    0.0000 N   0  0  0  0  0  0  0  0  0  0  0  0
    3.6804   -6.4568    0.0000 N   0  0  0  0  0  0  0  0  0  0  0  0
    4.9072   -5.7466    0.0000 C   0  0  0  0  0  0  0  0  0  0  0  0
    4.0678   -5.7466    0.0000 C   0  0  0  0  0  0  0  0  0  0  0  0
    5.3268   -6.4568    0.0000 C   0  0  0  0  0  0  0  0  0  0  0  0
    5.3268   -5.0363    0.0000 C   0  0  0  0  0  0  0  0  0  0  0  0
    3.2607   -4.2938    0.0000 C   0  0  0  0  0  0  0  0  0  0  0  0
    3.8418   -5.1977    0.0000 C   0  0  0  0  0  0  0  0  0  0  0  0
    2.4536   -2.8733    0.0000 C   0  0  0  0  0  0  0  0  0  0  0  0
    2.0662   -2.1631    0.0000 C   0  0  0  0  0  0  0  0  0  0  0  0
    6.1340   -6.4568    0.0000 C   0  0  0  0  0  0  0  0  0  0  0  0
    6.1340   -5.0363    0.0000 C   0  0  0  0  0  0  0  0  0  0  0  0
    3.6804   -3.5835    0.0000 C   0  0  0  0  0  0  0  0  0  0  0  0
    2.4536   -4.2938    0.0000 C   0  0  0  0  0  0  0  0  0  0  0  0
    3.2930   -2.8733    0.0000 C   0  0  0  0  0  0  0  0  0  0  0  0
    2.0339   -3.5835    0.0000 C   0  0  0  0  0  0  0  0  0  0  0  0
    1.2268   -2.1631    0.0000 C   0  0  0  0  0  0  0  0  0  0  0  0
    2.4536   -1.4528    0.0000 C   0  0  0  0  0  0  0  0  0  0  0  0
    1.2268   -0.7103    0.0000 C   0  0  0  0  0  0  0  0  0  0  0  0
    0.8071   -1.4528    0.0000 C   0  0  0  0  0  0  0  0  0  0  0  0
    2.0662   -0.7426    0.0000 C   0  0  0  0  0  0  0  0  0  0  0  0
    0.0000    0.0000    0.0000 C   0  0  0  0  0  0  0  0  0  0  0  0
  1 15  1  0  0  0  0
  1 16  1  0  0  0  0
  2  8  2  0  0  0  0
  3  6  1  0  0  0  0
  4 23  1  0  0  0  0
  4 26  1  0  0  0  0
  5  7  1  0  0  0  0
  5 12  1  0  0  0  0
  6  8  1  0  0  0  0
  7  8  1  0  0  0  0
  7  9  1  0  0  0  0
  7 10  1  0  0  0  0
  9 15  1  0  0  0  0
 10 16  1  0  0  0  0
 11 12  1  0  0  0  0
 11 17  2  0  0  0  0
 11 18  1  0  0  0  0
 13 14  1  0  0  0  0
 13 19  2  0  0  0  0
 13 20  1  0  0  0  0
 14 21  2  0  0  0  0
 14 22  1  0  0  0  0
 17 19  1  0  0  0  0
 18 20  2  0  0  0  0
 21 24  1  0  0  0  0
 22 25  2  0  0  0  0
 23 24  2  0  0  0  0
 23 25  1  0  0  0  0
M  END
> <PUBCHEM_COMPOUND_ID_TYPE>
0

> <PUBCHEM_TOTAL_CHARGE>
0

> <PUBCHEM_SUBSTANCE_ID>
310934634

> <PUBCHEM_SUBSTANCE_VERSION>
1

> <PUBCHEM_EXT_DATASOURCE_NAME>
4488

> <PUBCHEM_EXT_DATASOURCE_REGID>
SCHEMBL16112131

> <PUBCHEM_SUBSTANCE_COMMENT>
InChI=1S/C20H24N2O3S/c1-25-18-8-6-17(7-9-18)16-4-2-15(3-5-16)14-21-20(19(23)22-24)10-12-26-13-11-20/h2-9,21,24H,10-14H2,1H3,(H,22,23)
InChIKey=VOCQTLSEJGBILV-UHFFFAOYSA-N

> <PUBCHEM_SUBSTANCE_SYNONYM>
SCHEMBL16112131

> <PUBCHEM_XREF_EXT_ID>
SCHEMBL16112131

> <PUBCHEM_EXT_DATASOURCE_URL>
https://www.surechembl.org/

> <PUBCHEM_EXT_SUBSTANCE_URL>
https://www.surechembl.org/chemical/SCHEMBL16112131

> <PUBCHEM_CID_ASSOCIATIONS>
117602805  1

> <PUBCHEM_COORDINATE_TYPE>
1
3

$$$$
