310944377
  -OEChem-07211613022D

 17 19  0     0  0  0  0  0  0999 V2000
   -1.0434   -0.7946    0.0000 S   0  0  0  0  0  0  0  0  0  0  0  0
    0.5095    1.5225    0.0000 F   0  0  0  0  0  0  0  0  0  0  0  0
    2.6691    1.0737    0.0000 N   0  0  0  0  0  0  0  0  0  0  0  0
   -0.2184    0.3093    0.0000 C   0  0  0  0  0  0  0  0  0  0  0  0
   -0.2427   -0.5156    0.0000 C   0  0  0  0  0  0  0  0  0  0  0  0
   -1.0434    0.5641    0.0000 C   0  0  0  0  0  0  0  0  0  0  0  0
   -1.5286   -0.1031    0.0000 C   0  0  0  0  0  0  0  0  0  0  0  0
    0.4975    0.7098    0.0000 C   0  0  0  0  0  0  0  0  0  0  0  0
    0.5095   -0.9281    0.0000 C   0  0  0  0  0  0  0  0  0  0  0  0
    1.2375    0.3093    0.0000 C   0  0  0  0  0  0  0  0  0  0  0  0
    1.2375   -0.5156    0.0000 C   0  0  0  0  0  0  0  0  0  0  0  0
   -1.3345    1.3042    0.0000 C   0  0  0  0  0  0  0  0  0  0  0  0
   -2.3415   -0.0061    0.0000 C   0  0  0  0  0  0  0  0  0  0  0  0
    1.9532    0.6976    0.0000 C   0  0  0  0  0  0  0  0  0  0  0  0
   -2.1838    1.4013    0.0000 C   0  0  0  0  0  0  0  0  0  0  0  0
   -2.6691    0.7340    0.0000 C   0  0  0  0  0  0  0  0  0  0  0  0
    0.5095   -1.5226    0.0000 C   0  0  0  0  0  0  0  0  0  0  0  0
  1  5  1  0  0  0  0
  1  7  1  0  0  0  0
  2  8  1  0  0  0  0
  3 14  3  0  0  0  0
  4  5  2  0  0  0  0
  4  6  1  0  0  0  0
  4  8  1  0  0  0  0
  5  9  1  0  0  0  0
  6  7  2  0  0  0  0
  6 12  1  0  0  0  0
  7 13  1  0  0  0  0
  8 10  2  0  0  0  0
  9 11  2  0  0  0  0
  9 17  1  0  0  0  0
 10 11  1  0  0  0  0
 10 14  1  0  0  0  0
 12 15  2  0  0  0  0
 13 16  2  0  0  0  0
 15 16  1  0  0  0  0
M  END
> <PUBCHEM_COMPOUND_ID_TYPE>
0

> <PUBCHEM_TOTAL_CHARGE>
0

> <PUBCHEM_SUBSTANCE_ID>
310944377

> <PUBCHEM_SUBSTANCE_VERSION>
1

> <PUBCHEM_EXT_DATASOURCE_NAME>
4488

> <PUBCHEM_EXT_DATASOURCE_REGID>
SCHEMBL16122452

> <PUBCHEM_SUBSTANCE_COMMENT>
InChI=1S/C14H8FNS/c1-8-6-9(7-16)13(15)12-10-4-2-3-5-11(10)17-14(8)12/h2-6H,1H3
InChIKey=KMYGONRHQHVBRR-UHFFFAOYSA-N

> <PUBCHEM_SUBSTANCE_SYNONYM>
SCHEMBL16122452

> <PUBCHEM_XREF_EXT_ID>
SCHEMBL16122452

> <PUBCHEM_EXT_DATASOURCE_URL>
https://www.surechembl.org/

> <PUBCHEM_EXT_SUBSTANCE_URL>
https://www.surechembl.org/chemical/SCHEMBL16122452

> <PUBCHEM_CID_ASSOCIATIONS>
117610634  1

> <PUBCHEM_COORDINATE_TYPE>
1
3

$$$$
