310947479
  -OEChem-07211613022D

 13 14  0     0  0  0  0  0  0999 V2000
    2.7976    4.3761    0.0000 O   0  0  0  0  0  0  0  0  0  0  0  0
    3.2101    2.2327    0.0000 O   0  0  0  0  0  0  0  0  0  0  0  0
    4.1927    5.1607    0.0000 N   0  0  0  0  0  0  0  0  0  0  0  0
    5.5276    5.1607    0.0000 N   0  0  0  0  0  0  0  0  0  0  0  0
    4.4476    4.3761    0.0000 C   0  0  0  0  0  0  0  0  0  0  0  0
    4.0351    3.6616    0.0000 C   0  0  0  0  0  0  0  0  0  0  0  0
    5.2726    4.3761    0.0000 C   0  0  0  0  0  0  0  0  0  0  0  0
    3.2101    3.6616    0.0000 C   0  0  0  0  0  0  0  0  0  0  0  0
    4.4476    2.9472    0.0000 C   0  0  0  0  0  0  0  0  0  0  0  0
    5.6851    3.6616    0.0000 C   0  0  0  0  0  0  0  0  0  0  0  0
    4.8601    5.6457    0.0000 C   0  0  0  0  0  0  0  0  0  0  0  0
    5.2726    2.9472    0.0000 C   0  0  0  0  0  0  0  0  0  0  0  0
    2.7976    2.9472    0.0000 C   0  0  0  0  0  0  0  0  0  0  0  0
  1  8  2  0  0  0  0
  2 13  1  0  0  0  0
  3  5  1  0  0  0  0
  3 11  2  0  0  0  0
  4  7  1  0  0  0  0
  4 11  1  0  0  0  0
  5  6  1  0  0  0  0
  5  7  2  0  0  0  0
  6  8  1  0  0  0  0
  6  9  2  0  0  0  0
  7 10  1  0  0  0  0
  8 13  1  0  0  0  0
  9 12  1  0  0  0  0
 10 12  2  0  0  0  0
M  END
> <PUBCHEM_COMPOUND_ID_TYPE>
0

> <PUBCHEM_TOTAL_CHARGE>
0

> <PUBCHEM_SUBSTANCE_ID>
310947479

> <PUBCHEM_SUBSTANCE_VERSION>
1

> <PUBCHEM_EXT_DATASOURCE_NAME>
4488

> <PUBCHEM_EXT_DATASOURCE_REGID>
SCHEMBL16125640

> <PUBCHEM_SUBSTANCE_COMMENT>
InChI=1S/C9H8N2O2/c12-4-8(13)6-2-1-3-7-9(6)11-5-10-7/h1-3,5,12H,4H2,(H,10,11)
InChIKey=HHNZQPUGLJPGMZ-UHFFFAOYSA-N

> <PUBCHEM_SUBSTANCE_SYNONYM>
SCHEMBL16125640

> <PUBCHEM_XREF_EXT_ID>
SCHEMBL16125640

> <PUBCHEM_EXT_DATASOURCE_URL>
https://www.surechembl.org/

> <PUBCHEM_EXT_SUBSTANCE_URL>
https://www.surechembl.org/chemical/SCHEMBL16125640

> <PUBCHEM_CID_ASSOCIATIONS>
117613209  1

> <PUBCHEM_COORDINATE_TYPE>
1
3

$$$$
