310944814
  -OEChem-07211613022D

 29 31  0     0  0  0  0  0  0999 V2000
   -5.0457   -0.3225    0.0000 Cl  0  0  0  0  0  0  0  0  0  0  0  0
   -1.9584   -0.3225    0.0000 O   0  0  0  0  0  0  0  0  0  0  0  0
    4.1087   -2.1657    0.0000 O   0  0  0  0  0  0  0  0  0  0  0  0
   -0.5145    2.1658    0.0000 O   0  0  0  0  0  0  0  0  0  0  0  0
    1.6665    0.0922    0.0000 N   0  0  0  0  0  0  0  0  0  0  0  0
    3.4022   -0.9062    0.0000 N   0  0  0  0  0  0  0  0  0  0  0  0
    0.2227    0.9216    0.0000 N   0  0  0  0  0  0  0  0  0  0  0  0
   -1.9430    1.3363    0.0000 N   0  0  0  0  0  0  0  0  0  0  0  0
    2.3884   -0.3225    0.0000 C   0  0  0  0  0  0  0  0  0  0  0  0
    2.5881   -1.1212    0.0000 C   0  0  0  0  0  0  0  0  0  0  0  0
    3.1871   -0.1229    0.0000 C   0  0  0  0  0  0  0  0  0  0  0  0
   -2.6650    0.9369    0.0000 C   0  0  0  0  0  0  0  0  0  0  0  0
    4.1241   -1.3055    0.0000 C   0  0  0  0  0  0  0  0  0  0  0  0
    1.6511    0.9369    0.0000 C   0  0  0  0  0  0  0  0  0  0  0  0
    0.9447   -0.3225    0.0000 C   0  0  0  0  0  0  0  0  0  0  0  0
   -2.6803    0.1075    0.0000 C   0  0  0  0  0  0  0  0  0  0  0  0
   -0.5145    1.3210    0.0000 C   0  0  0  0  0  0  0  0  0  0  0  0
    0.9293    1.3363    0.0000 C   0  0  0  0  0  0  0  0  0  0  0  0
    0.2227    0.0922    0.0000 C   0  0  0  0  0  0  0  0  0  0  0  0
   -4.0934    0.9216    0.0000 C   0  0  0  0  0  0  0  0  0  0  0  0
   -4.1087    0.1075    0.0000 C   0  0  0  0  0  0  0  0  0  0  0  0
   -3.4022    1.3210    0.0000 C   0  0  0  0  0  0  0  0  0  0  0  0
   -3.3714   -0.3072    0.0000 C   0  0  0  0  0  0  0  0  0  0  0  0
   -1.2211    0.9216    0.0000 C   0  0  0  0  0  0  0  0  0  0  0  0
    4.8460   -0.9062    0.0000 C   0  0  0  0  0  0  0  0  0  0  0  0
   -4.8306    1.3363    0.0000 C   0  0  0  0  0  0  0  0  0  0  0  0
    5.5372   -1.3671    0.0000 C   0  0  0  0  0  0  0  0  0  0  0  0
   -1.9277   -1.1520    0.0000 C   0  0  0  0  0  0  0  0  0  0  0  0
   -5.5372    0.9216    0.0000 C   0  0  0  0  0  0  0  0  0  0  0  0
  1 21  1  0  0  0  0
  2 16  1  0  0  0  0
  2 28  1  0  0  0  0
  3 13  2  0  0  0  0
  4 17  2  0  0  0  0
  5  9  1  0  0  0  0
  5 14  1  0  0  0  0
  5 15  1  0  0  0  0
  6 10  1  0  0  0  0
  6 11  1  0  0  0  0
  6 13  1  0  0  0  0
  7 17  1  0  0  0  0
  7 18  1  0  0  0  0
  7 19  1  0  0  0  0
  8 12  1  0  0  0  0
  8 24  1  0  0  0  0
  9 10  1  0  0  0  0
  9 11  1  0  0  0  0
 12 16  1  0  0  0  0
 12 22  2  0  0  0  0
 13 25  1  0  0  0  0
 14 18  1  0  0  0  0
 15 19  1  0  0  0  0
 16 23  2  0  0  0  0
 17 24  1  0  0  0  0
 20 21  2  0  0  0  0
 20 22  1  0  0  0  0
 20 26  1  0  0  0  0
 21 23  1  0  0  0  0
 25 27  2  0  0  0  0
 26 29  1  0  0  0  0
M  END
> <PUBCHEM_COMPOUND_ID_TYPE>
0

> <PUBCHEM_TOTAL_CHARGE>
0

> <PUBCHEM_SUBSTANCE_ID>
310944814

> <PUBCHEM_SUBSTANCE_VERSION>
1

> <PUBCHEM_EXT_DATASOURCE_NAME>
4488

> <PUBCHEM_EXT_DATASOURCE_REGID>
SCHEMBL16122893

> <PUBCHEM_SUBSTANCE_COMMENT>
InChI=1S/C21H29ClN4O3/c1-4-15-10-18(19(29-3)11-17(15)22)23-12-21(28)25-8-6-24(7-9-25)16-13-26(14-16)20(27)5-2/h5,10-11,16,23H,2,4,6-9,12-14H2,1,3H3
InChIKey=CXGWGNLLFCEIFJ-UHFFFAOYSA-N

> <PUBCHEM_SUBSTANCE_SYNONYM>
SCHEMBL16122893

> <PUBCHEM_XREF_EXT_ID>
SCHEMBL16122893

> <PUBCHEM_EXT_DATASOURCE_URL>
https://www.surechembl.org/

> <PUBCHEM_EXT_SUBSTANCE_URL>
https://www.surechembl.org/chemical/SCHEMBL16122893

> <PUBCHEM_CID_ASSOCIATIONS>
117611024  1

> <PUBCHEM_COORDINATE_TYPE>
1
3

$$$$
