310937653
  -OEChem-07211613022D

 26 29  0     0  0  0  0  0  0999 V2000
    2.3344   -2.1575    0.0000 O   0  0  0  0  0  0  0  0  0  0  0  0
    2.6174   -6.3665    0.0000 O   0  0  0  0  0  0  0  0  0  0  0  0
    0.7074   -5.0579    0.0000 O   0  5  0  0  0  0  0  0  0  0  0  0
    1.0257    0.0000    0.0000 O   0  0  0  0  0  0  0  0  0  0  0  0
    1.1318   -4.3151    0.0000 N   0  3  0  0  0  0  0  0  0  0  0  0
    3.1479   -5.1286    0.0000 N   0  0  0  0  0  0  0  0  0  0  0  0
    1.9807   -5.8006    0.0000 N   0  0  0  0  0  0  0  0  0  0  0  0
    1.9453   -4.3151    0.0000 C   0  0  0  0  0  0  0  0  0  0  0  0
    1.1318   -2.9003    0.0000 C   0  0  0  0  0  0  0  0  0  0  0  0
    1.9453   -2.9003    0.0000 C   0  0  0  0  0  0  0  0  0  0  0  0
    2.3344   -5.0579    0.0000 C   0  0  0  0  0  0  0  0  0  0  0  0
    0.7074   -2.1575    0.0000 C   0  0  0  0  0  0  0  0  0  0  0  0
    2.3698   -3.6077    0.0000 C   0  0  0  0  0  0  0  0  0  0  0  0
    0.6720   -3.6077    0.0000 C   0  0  0  0  0  0  0  0  0  0  0  0
    3.3247   -5.9421    0.0000 C   0  0  0  0  0  0  0  0  0  0  0  0
    4.1029   -6.2958    0.0000 C   0  0  0  0  0  0  0  0  0  0  0  0
    0.0000   -1.7331    0.0000 C   0  0  0  0  0  0  0  0  0  0  0  0
    0.7074   -1.3087    0.0000 C   0  0  0  0  0  0  0  0  0  0  0  0
    1.9099   -1.4502    0.0000 C   0  0  0  0  0  0  0  0  0  0  0  0
    3.7492   -7.0739    0.0000 C   0  0  0  0  0  0  0  0  0  0  0  0
    4.8457   -6.6495    0.0000 C   0  0  0  0  0  0  0  0  0  0  0  0
    4.4212   -5.5530    0.0000 C   0  0  0  0  0  0  0  0  0  0  0  0
    2.2990   -0.7074    0.0000 C   0  0  0  0  0  0  0  0  0  0  0  0
    1.0611   -1.4502    0.0000 C   0  0  0  0  0  0  0  0  0  0  0  0
    1.8746    0.0000    0.0000 C   0  0  0  0  0  0  0  0  0  0  0  0
    0.6366   -0.7427    0.0000 C   0  0  0  0  0  0  0  0  0  0  0  0
  1 10  1  0  0  0  0
  1 19  1  0  0  0  0
  2  7  1  0  0  0  0
  2 15  1  0  0  0  0
  3  5  1  0  0  0  0
  4 25  1  0  0  0  0
  4 26  1  0  0  0  0
  5  8  1  0  0  0  0
  5 14  2  0  0  0  0
  6 11  1  0  0  0  0
  6 15  2  0  0  0  0
  7 11  2  0  0  0  0
  8 11  1  0  0  0  0
  8 13  2  0  0  0  0
  9 10  2  0  0  0  0
  9 12  1  0  0  0  0
  9 14  1  0  0  0  0
 10 13  1  0  0  0  0
 12 17  1  0  0  0  0
 12 18  1  0  0  0  0
 15 16  1  0  0  0  0
 16 20  1  0  0  0  0
 16 21  1  0  0  0  0
 16 22  1  0  0  0  0
 17 18  1  0  0  0  0
 19 23  1  0  0  0  0
 19 24  1  0  0  0  0
 23 25  1  0  0  0  0
 24 26  1  0  0  0  0
M  CHG  2   3  -1   5   1
M  END
> <PUBCHEM_COMPOUND_ID_TYPE>
0

> <PUBCHEM_TOTAL_CHARGE>
0

> <PUBCHEM_SUBSTANCE_ID>
310937653

> <PUBCHEM_SUBSTANCE_VERSION>
1

> <PUBCHEM_EXT_DATASOURCE_NAME>
4488

> <PUBCHEM_EXT_DATASOURCE_REGID>
SCHEMBL16115442

> <PUBCHEM_SUBSTANCE_COMMENT>
InChI=1S/C19H25N3O4/c1-19(2,3)18-20-17(21-26-18)15-10-16(25-13-6-8-24-9-7-13)14(11-22(15)23)12-4-5-12/h10-13H,4-9H2,1-3H3
InChIKey=GTAGKDLDACJXTP-UHFFFAOYSA-N

> <PUBCHEM_SUBSTANCE_SYNONYM>
SCHEMBL16115442

> <PUBCHEM_XREF_EXT_ID>
SCHEMBL16115442

> <PUBCHEM_EXT_DATASOURCE_URL>
https://www.surechembl.org/

> <PUBCHEM_EXT_SUBSTANCE_URL>
https://www.surechembl.org/chemical/SCHEMBL16115442

> <PUBCHEM_CID_ASSOCIATIONS>
117605342  1

> <PUBCHEM_COORDINATE_TYPE>
1
3

$$$$
