310938420
  -OEChem-07211613022D

 36 40  0     0  0  0  0  0  0999 V2000
    9.5404   -1.8127    0.0000 F   0  0  0  0  0  0  0  0  0  0  0  0
    9.2224   -0.8268    0.0000 O   0  0  0  0  0  0  0  0  0  0  0  0
    4.5794   -5.1200    0.0000 O   0  0  0  0  0  0  0  0  0  0  0  0
    0.0000   -4.8338    0.0000 O   0  0  0  0  0  0  0  0  0  0  0  0
    7.9186   -1.4629    0.0000 N   0  0  0  0  0  0  0  0  0  0  0  0
    7.9186   -0.1590    0.0000 N   0  0  0  0  0  0  0  0  0  0  0  0
    7.6323   -2.8621    0.0000 N   0  0  0  0  0  0  0  0  0  0  0  0
    8.6500   -3.8162    0.0000 N   0  0  0  0  0  0  0  0  0  0  0  0
    7.2825   -4.2614    0.0000 N   0  0  0  0  0  0  0  0  0  0  0  0
    2.3851   -5.3744    0.0000 N   0  0  0  0  0  0  0  0  0  0  0  0
    7.1235   -1.2403    0.0000 C   0  0  0  0  0  0  0  0  0  0  0  0
    8.1729   -2.2579    0.0000 C   0  0  0  0  0  0  0  0  0  0  0  0
    7.1235   -0.3816    0.0000 C   0  0  0  0  0  0  0  0  0  0  0  0
    8.3955   -0.8268    0.0000 C   0  0  0  0  0  0  0  0  0  0  0  0
    8.9680   -2.4169    0.0000 C   0  0  0  0  0  0  0  0  0  0  0  0
    6.3920   -1.6219    0.0000 C   0  0  0  0  0  0  0  0  0  0  0  0
    7.8549   -3.6572    0.0000 C   0  0  0  0  0  0  0  0  0  0  0  0
    6.3920    0.0000    0.0000 C   0  0  0  0  0  0  0  0  0  0  0  0
    9.1906   -3.2119    0.0000 C   0  0  0  0  0  0  0  0  0  0  0  0
    5.7243   -1.2403    0.0000 C   0  0  0  0  0  0  0  0  0  0  0  0
    5.7243   -0.3816    0.0000 C   0  0  0  0  0  0  0  0  0  0  0  0
    6.4875   -4.0706    0.0000 C   0  0  0  0  0  0  0  0  0  0  0  0
    5.9151   -4.7066    0.0000 C   0  0  0  0  0  0  0  0  0  0  0  0
    6.2331   -3.3074    0.0000 C   0  0  0  0  0  0  0  0  0  0  0  0
    5.1200   -4.5158    0.0000 C   0  0  0  0  0  0  0  0  0  0  0  0
    5.4380   -3.1165    0.0000 C   0  0  0  0  0  0  0  0  0  0  0  0
    4.8656   -3.7208    0.0000 C   0  0  0  0  0  0  0  0  0  0  0  0
    5.1836   -2.3215    0.0000 C   0  0  0  0  0  0  0  0  0  0  0  0
    3.7525   -4.9292    0.0000 C   0  0  0  0  0  0  0  0  0  0  0  0
    3.2119   -5.5652    0.0000 C   0  0  0  0  0  0  0  0  0  0  0  0
    1.8445   -5.9786    0.0000 C   0  0  0  0  0  0  0  0  0  0  0  0
    2.1625   -4.5794    0.0000 C   0  0  0  0  0  0  0  0  0  0  0  0
    0.7950   -5.0246    0.0000 C   0  0  0  0  0  0  0  0  0  0  0  0
    4.3886   -2.1625    0.0000 C   0  0  0  0  0  0  0  0  0  0  0  0
    1.0495   -5.8196    0.0000 C   0  0  0  0  0  0  0  0  0  0  0  0
    1.3674   -4.4204    0.0000 C   0  0  0  0  0  0  0  0  0  0  0  0
  1 15  1  0  0  0  0
  2 14  2  0  0  0  0
  3 25  1  0  0  0  0
  3 29  1  0  0  0  0
  4 33  1  0  0  0  0
  5 11  1  0  0  0  0
  5 12  1  0  0  0  0
  5 14  1  0  0  0  0
  6 13  1  0  0  0  0
  6 14  1  0  0  0  0
  7 12  2  0  0  0  0
  7 17  1  0  0  0  0
  8 17  2  0  0  0  0
  8 19  1  0  0  0  0
  9 17  1  0  0  0  0
  9 22  1  0  0  0  0
 10 30  1  0  0  0  0
 10 31  1  0  0  0  0
 10 32  1  0  0  0  0
 11 13  2  0  0  0  0
 11 16  1  0  0  0  0
 12 15  1  0  0  0  0
 13 18  1  0  0  0  0
 15 19  2  0  0  0  0
 16 20  2  0  0  0  0
 18 21  2  0  0  0  0
 20 21  1  0  0  0  0
 22 23  2  0  0  0  0
 22 24  1  0  0  0  0
 23 25  1  0  0  0  0
 24 26  2  0  0  0  0
 25 27  2  0  0  0  0
 26 27  1  0  0  0  0
 26 28  1  0  0  0  0
 28 34  1  0  0  0  0
 29 30  1  0  0  0  0
 31 35  1  0  0  0  0
 32 36  1  0  0  0  0
 33 35  1  0  0  0  0
 33 36  1  0  0  0  0
M  END
> <PUBCHEM_COMPOUND_ID_TYPE>
0

> <PUBCHEM_TOTAL_CHARGE>
0

> <PUBCHEM_SUBSTANCE_ID>
310938420

> <PUBCHEM_SUBSTANCE_VERSION>
1

> <PUBCHEM_EXT_DATASOURCE_NAME>
4488

> <PUBCHEM_EXT_DATASOURCE_REGID>
SCHEMBL16116313

> <PUBCHEM_SUBSTANCE_COMMENT>
InChI=1S/C26H29FN6O3/c1-2-17-13-18(15-20(14-17)36-12-11-32-9-7-19(34)8-10-32)29-25-28-16-21(27)24(31-25)33-23-6-4-3-5-22(23)30-26(33)35/h3-6,13-16,19,34H,2,7-12H2,1H3,(H,30,35)(H,28,29,31)
InChIKey=PKDBTILELDTYAU-UHFFFAOYSA-N

> <PUBCHEM_SUBSTANCE_SYNONYM>
SCHEMBL16116313

> <PUBCHEM_XREF_EXT_ID>
SCHEMBL16116313

> <PUBCHEM_EXT_DATASOURCE_URL>
https://www.surechembl.org/

> <PUBCHEM_EXT_SUBSTANCE_URL>
https://www.surechembl.org/chemical/SCHEMBL16116313

> <PUBCHEM_CID_ASSOCIATIONS>
86300390  1

> <PUBCHEM_COORDINATE_TYPE>
1
3

$$$$
