310936471
  -OEChem-07211613022D

 16 17  0     0  0  0  0  0  0999 V2000
    0.7333   -4.5835    0.0000 F   0  0  0  0  0  0  0  0  0  0  0  0
    0.0458   -0.7792    0.0000 O   0  0  0  0  0  0  0  0  0  0  0  0
    2.8876   -2.4979    0.0000 O   0  0  0  0  0  0  0  0  0  0  0  0
    2.1542   -1.2604    0.0000 O   0  0  0  0  0  0  0  0  0  0  0  0
    1.3979   -0.7792    0.0000 N   0  0  0  0  0  0  0  0  0  0  0  0
    0.7333   -2.0854    0.0000 C   0  0  0  0  0  0  0  0  0  0  0  0
    1.4438   -2.4979    0.0000 C   0  0  0  0  0  0  0  0  0  0  0  0
    0.7333   -1.2604    0.0000 C   0  0  0  0  0  0  0  0  0  0  0  0
    2.1542   -2.0854    0.0000 C   0  0  0  0  0  0  0  0  0  0  0  0
    1.4438   -3.3459    0.0000 C   0  0  0  0  0  0  0  0  0  0  0  0
    0.0000   -2.4979    0.0000 C   0  0  0  0  0  0  0  0  0  0  0  0
    0.7333   -3.7584    0.0000 C   0  0  0  0  0  0  0  0  0  0  0  0
    0.0000   -3.3459    0.0000 C   0  0  0  0  0  0  0  0  0  0  0  0
    0.3208    0.0000    0.0000 C   0  0  0  0  0  0  0  0  0  0  0  0
    1.1458    0.0000    0.0000 C   0  0  0  0  0  0  0  0  0  0  0  0
    2.8876   -3.3459    0.0000 C   0  0  0  0  0  0  0  0  0  0  0  0
  1 12  1  0  0  0  0
  2  8  1  0  0  0  0
  2 14  1  0  0  0  0
  3  9  1  0  0  0  0
  3 16  1  0  0  0  0
  4  9  2  0  0  0  0
  5  8  2  0  0  0  0
  5 15  1  0  0  0  0
  6  7  2  0  0  0  0
  6  8  1  0  0  0  0
  6 11  1  0  0  0  0
  7  9  1  0  0  0  0
  7 10  1  0  0  0  0
 10 12  2  0  0  0  0
 11 13  2  0  0  0  0
 12 13  1  0  0  0  0
 14 15  2  0  0  0  0
M  END
> <PUBCHEM_COMPOUND_ID_TYPE>
0

> <PUBCHEM_TOTAL_CHARGE>
0

> <PUBCHEM_SUBSTANCE_ID>
310936471

> <PUBCHEM_SUBSTANCE_VERSION>
1

> <PUBCHEM_EXT_DATASOURCE_NAME>
4488

> <PUBCHEM_EXT_DATASOURCE_REGID>
SCHEMBL16114117

> <PUBCHEM_SUBSTANCE_COMMENT>
InChI=1S/C11H8FNO3/c1-15-11(14)9-6-7(12)2-3-8(9)10-13-4-5-16-10/h2-6H,1H3
InChIKey=SNQAQKDWFFYFRE-UHFFFAOYSA-N

> <PUBCHEM_SUBSTANCE_SYNONYM>
SCHEMBL16114117

> <PUBCHEM_XREF_EXT_ID>
SCHEMBL16114117

> <PUBCHEM_EXT_DATASOURCE_URL>
https://www.surechembl.org/

> <PUBCHEM_EXT_SUBSTANCE_URL>
https://www.surechembl.org/chemical/SCHEMBL16114117

> <PUBCHEM_CID_ASSOCIATIONS>
117604402  1

> <PUBCHEM_COORDINATE_TYPE>
1
3

$$$$
