310948386
  -OEChem-07211613022D

 39 42  0     1  0  0  0  0  0999 V2000
    1.4091    0.0000    0.0000 F   0  0  0  0  0  0  0  0  0  0  0  0
    2.5177    0.1315    0.0000 F   0  0  0  0  0  0  0  0  0  0  0  0
    2.6492   -0.9770    0.0000 F   0  0  0  0  0  0  0  0  0  0  0  0
    1.1837   -0.3570    0.0000 O   0  0  0  0  0  0  0  0  0  0  0  0
    3.3820   -2.3110    0.0000 O   0  0  0  0  0  0  0  0  0  0  0  0
    3.1941   -0.9018    0.0000 O   0  0  0  0  0  0  0  0  0  0  0  0
   -3.3632   -2.2734    0.0000 O   0  0  0  0  0  0  0  0  0  0  0  0
   -2.6492    0.3945    0.0000 N   0  0  0  0  0  0  0  0  0  0  0  0
   -1.9728   -0.0940    0.0000 N   0  0  0  0  0  0  0  0  0  0  0  0
   -1.7473   -1.5407    0.0000 N   0  0  0  0  0  0  0  0  0  0  0  0
   -4.4341   -1.3152    0.0000 N   0  0  0  0  0  0  0  0  0  0  0  0
   -0.4885    0.8455    0.0000 N   0  0  0  0  0  0  0  0  0  0  0  0
    1.5407   -1.1086    0.0000 C   0  0  3  0  0  0  0  0  0  0  0  0
    2.0667   -1.7661    0.0000 C   0  0  0  0  0  0  0  0  0  0  0  0
    2.0292   -0.4885    0.0000 C   0  0  0  0  0  0  0  0  0  0  0  0
    0.7140   -1.2212    0.0000 C   0  0  0  0  0  0  0  0  0  0  0  0
    2.8559   -1.6534    0.0000 C   0  0  0  0  0  0  0  0  0  0  0  0
   -3.0626   -0.8455    0.0000 C   0  0  0  0  0  0  0  0  0  0  0  0
   -3.3256   -0.0940    0.0000 C   0  0  0  0  0  0  0  0  0  0  0  0
   -2.2358   -0.8831    0.0000 C   0  0  0  0  0  0  0  0  0  0  0  0
    0.4133   -1.9916    0.0000 C   0  0  0  0  0  0  0  0  0  0  0  0
    0.2254   -0.5824    0.0000 C   0  0  0  0  0  0  0  0  0  0  0  0
   -0.9018   -1.4655    0.0000 C   0  0  0  0  0  0  0  0  0  0  0  0
   -2.6492    1.2400    0.0000 C   0  0  3  0  0  0  0  0  0  0  0  0
    0.9395   -2.1795    0.0000 C   0  0  0  0  0  0  0  0  0  0  0  0
    2.2734   -2.5553    0.0000 C   0  0  0  0  0  0  0  0  0  0  0  0
   -3.6263   -1.4843    0.0000 C   0  0  0  0  0  0  0  0  0  0  0  0
   -0.4133   -2.0855    0.0000 C   0  0  0  0  0  0  0  0  0  0  0  0
   -0.6013   -0.6952    0.0000 C   0  0  0  0  0  0  0  0  0  0  0  0
   -4.1336    0.0751    0.0000 C   0  0  0  0  0  0  0  0  0  0  0  0
   -1.9352    1.6346    0.0000 C   0  0  3  0  0  0  0  0  0  0  0  0
   -4.6784   -0.5261    0.0000 C   0  0  0  0  0  0  0  0  0  0  0  0
   -3.3632    1.6534    0.0000 C   0  0  0  0  0  0  0  0  0  0  0  0
   -1.9352    2.4614    0.0000 C   0  0  0  0  0  0  0  0  0  0  0  0
    4.1711   -2.2171    0.0000 C   0  0  0  0  0  0  0  0  0  0  0  0
   -1.2025    1.2212    0.0000 C   0  0  0  0  0  0  0  0  0  0  0  0
   -3.3444    2.4614    0.0000 C   0  0  0  0  0  0  0  0  0  0  0  0
   -2.6305    2.8559    0.0000 C   0  0  0  0  0  0  0  0  0  0  0  0
    4.6784   -2.8559    0.0000 C   0  0  0  0  0  0  0  0  0  0  0  0
  1 15  1  0  0  0  0
  2 15  1  0  0  0  0
  3 15  1  0  0  0  0
  4 13  1  0  0  0  0
  5 17  1  0  0  0  0
  5 35  1  0  0  0  0
  6 17  2  0  0  0  0
  7 27  2  0  0  0  0
  8  9  1  0  0  0  0
  8 19  1  0  0  0  0
 24  8  1  1  0  0  0
  9 20  2  0  0  0  0
 10 20  1  0  0  0  0
 10 23  1  0  0  0  0
 11 27  1  0  0  0  0
 11 32  1  0  0  0  0
 12 36  3  0  0  0  0
 13 14  1  0  0  0  0
 13 15  1  0  0  0  0
 13 16  1  0  0  0  0
 14 17  1  0  0  0  0
 14 25  1  0  0  0  0
 14 26  1  0  0  0  0
 16 21  2  0  0  0  0
 16 22  1  0  0  0  0
 18 19  2  0  0  0  0
 18 20  1  0  0  0  0
 18 27  1  0  0  0  0
 19 30  1  0  0  0  0
 21 28  1  0  0  0  0
 22 29  2  0  0  0  0
 23 28  2  0  0  0  0
 23 29  1  0  0  0  0
 24 31  1  0  0  0  0
 24 33  1  0  0  0  0
 30 32  2  0  0  0  0
 31 34  1  0  0  0  0
 31 36  1  6  0  0  0
 33 37  1  0  0  0  0
 34 38  1  0  0  0  0
 35 39  1  0  0  0  0
 37 38  1  0  0  0  0
M  END
> <PUBCHEM_COMPOUND_ID_TYPE>
0

> <PUBCHEM_TOTAL_CHARGE>
0

> <PUBCHEM_SUBSTANCE_ID>
310948386

> <PUBCHEM_SUBSTANCE_VERSION>
1

> <PUBCHEM_EXT_DATASOURCE_NAME>
4488

> <PUBCHEM_EXT_DATASOURCE_REGID>
SCHEMBL16126567

> <PUBCHEM_SUBSTANCE_COMMENT>
InChI=1S/C27H30F3N5O4/c1-4-39-24(37)25(2,3)26(38,27(28,29)30)17-9-11-18(12-10-17)33-22-21-20(13-14-32-23(21)36)35(34-22)19-8-6-5-7-16(19)15-31/h9-14,16,19,38H,4-8H2,1-3H3,(H,32,36)(H,33,34)/t16-,19+,26?/m1/s1
InChIKey=ZKNJDSWDGNMUQM-QGGXTUAISA-N

> <PUBCHEM_SUBSTANCE_SYNONYM>
SCHEMBL16126567

> <PUBCHEM_XREF_EXT_ID>
SCHEMBL16126567

> <PUBCHEM_EXT_DATASOURCE_URL>
https://www.surechembl.org/

> <PUBCHEM_EXT_SUBSTANCE_URL>
https://www.surechembl.org/chemical/SCHEMBL16126567

> <PUBCHEM_CID_ASSOCIATIONS>
117613947  1

> <PUBCHEM_COORDINATE_TYPE>
1
3

> <PUBCHEM_BONDANNOTATIONS>
31  36  6
24  8  5

$$$$
