310943688
  -OEChem-07211613022D

 37 41  0     0  0  0  0  0  0999 V2000
   -5.3515    2.2723    0.0000 O   0  0  0  0  0  0  0  0  0  0  0  0
   -2.4915   -2.7109    0.0000 O   0  0  0  0  0  0  0  0  0  0  0  0
    1.7897    2.2723    0.0000 O   0  0  0  0  0  0  0  0  0  0  0  0
   -3.2110    0.2018    0.0000 N   0  0  0  0  0  0  0  0  0  0  0  0
   -3.9304    1.4475    0.0000 N   0  0  0  0  0  0  0  0  0  0  0  0
   -2.5090   -1.0440    0.0000 N   0  0  0  0  0  0  0  0  0  0  0  0
   -0.3510    2.6933    0.0000 N   0  0  0  0  0  0  0  0  0  0  0  0
    1.0703    1.0264    0.0000 N   0  0  0  0  0  0  0  0  0  0  0  0
    3.9304    0.2018    0.0000 N   0  0  0  0  0  0  0  0  0  0  0  0
   -1.7721    1.0440    0.0000 C   0  0  0  0  0  0  0  0  0  0  0  0
   -1.0879    1.4475    0.0000 C   0  0  0  0  0  0  0  0  0  0  0  0
   -3.2110    1.0440    0.0000 C   0  0  0  0  0  0  0  0  0  0  0  0
   -2.4915   -0.2018    0.0000 C   0  0  0  0  0  0  0  0  0  0  0  0
   -2.5090    1.4475    0.0000 C   0  0  0  0  0  0  0  0  0  0  0  0
   -1.7897    0.2018    0.0000 C   0  0  0  0  0  0  0  0  0  0  0  0
   -1.0703    2.2899    0.0000 C   0  0  0  0  0  0  0  0  0  0  0  0
   -0.3334    1.0440    0.0000 C   0  0  0  0  0  0  0  0  0  0  0  0
    0.3510    1.4475    0.0000 C   0  0  0  0  0  0  0  0  0  0  0  0
    0.3685    2.2723    0.0000 C   0  0  0  0  0  0  0  0  0  0  0  0
    1.7721    1.4300    0.0000 C   0  0  0  0  0  0  0  0  0  0  0  0
   -3.9304    2.2723    0.0000 C   0  0  0  0  0  0  0  0  0  0  0  0
   -4.6147    1.0440    0.0000 C   0  0  0  0  0  0  0  0  0  0  0  0
   -3.1934   -1.4475    0.0000 C   0  0  0  0  0  0  0  0  0  0  0  0
   -1.7721   -1.4650    0.0000 C   0  0  0  0  0  0  0  0  0  0  0  0
    2.5090    1.0440    0.0000 C   0  0  0  0  0  0  0  0  0  0  0  0
   -1.7721    2.7109    0.0000 C   0  0  0  0  0  0  0  0  0  0  0  0
    3.2110    1.4475    0.0000 C   0  0  0  0  0  0  0  0  0  0  0  0
    3.9304    1.0440    0.0000 C   0  0  0  0  0  0  0  0  0  0  0  0
   -4.6321    2.6933    0.0000 C   0  0  0  0  0  0  0  0  0  0  0  0
   -5.3515    1.4475    0.0000 C   0  0  0  0  0  0  0  0  0  0  0  0
   -3.2110   -2.2899    0.0000 C   0  0  0  0  0  0  0  0  0  0  0  0
   -1.7897   -2.2899    0.0000 C   0  0  0  0  0  0  0  0  0  0  0  0
    2.4915    0.2018    0.0000 C   0  0  0  0  0  0  0  0  0  0  0  0
    3.2285   -0.2018    0.0000 C   0  0  0  0  0  0  0  0  0  0  0  0
    4.6321    1.4475    0.0000 C   0  0  0  0  0  0  0  0  0  0  0  0
    4.6321    2.2899    0.0000 C   0  0  0  0  0  0  0  0  0  0  0  0
    5.3515    1.0089    0.0000 C   0  0  0  0  0  0  0  0  0  0  0  0
  1 29  1  0  0  0  0
  1 30  1  0  0  0  0
  2 31  1  0  0  0  0
  2 32  1  0  0  0  0
  3 20  2  0  0  0  0
  4 12  2  0  0  0  0
  4 13  1  0  0  0  0
  5 12  1  0  0  0  0
  5 21  1  0  0  0  0
  5 22  1  0  0  0  0
  6 13  1  0  0  0  0
  6 23  1  0  0  0  0
  6 24  1  0  0  0  0
  7 16  2  0  0  0  0
  7 19  1  0  0  0  0
  8 18  1  0  0  0  0
  8 20  1  0  0  0  0
  9 28  1  0  0  0  0
  9 34  2  0  0  0  0
 10 11  1  0  0  0  0
 10 14  2  0  0  0  0
 10 15  1  0  0  0  0
 11 16  1  0  0  0  0
 11 17  2  0  0  0  0
 12 14  1  0  0  0  0
 13 15  2  0  0  0  0
 16 26  1  0  0  0  0
 17 18  1  0  0  0  0
 18 19  2  0  0  0  0
 20 25  1  0  0  0  0
 21 29  1  0  0  0  0
 22 30  1  0  0  0  0
 23 31  1  0  0  0  0
 24 32  1  0  0  0  0
 25 27  1  0  0  0  0
 25 33  2  0  0  0  0
 27 28  2  0  0  0  0
 28 35  1  0  0  0  0
 33 34  1  0  0  0  0
 35 36  1  0  0  0  0
 35 37  1  0  0  0  0
M  END
> <PUBCHEM_COMPOUND_ID_TYPE>
0

> <PUBCHEM_TOTAL_CHARGE>
0

> <PUBCHEM_SUBSTANCE_ID>
310943688

> <PUBCHEM_SUBSTANCE_VERSION>
1

> <PUBCHEM_EXT_DATASOURCE_NAME>
4488

> <PUBCHEM_EXT_DATASOURCE_REGID>
SCHEMBL16121756

> <PUBCHEM_SUBSTANCE_COMMENT>
InChI=1S/C28H34N6O3/c1-19(2)25-14-21(4-5-29-25)28(35)31-23-17-24(20(3)30-18-23)22-15-26(33-6-10-36-11-7-33)32-27(16-22)34-8-12-37-13-9-34/h4-5,14-19H,6-13H2,1-3H3,(H,31,35)
InChIKey=KYDSKCOSDPLKLI-UHFFFAOYSA-N

> <PUBCHEM_SUBSTANCE_SYNONYM>
SCHEMBL16121756

> <PUBCHEM_XREF_EXT_ID>
SCHEMBL16121756

> <PUBCHEM_EXT_DATASOURCE_URL>
https://www.surechembl.org/

> <PUBCHEM_EXT_SUBSTANCE_URL>
https://www.surechembl.org/chemical/SCHEMBL16121756

> <PUBCHEM_CID_ASSOCIATIONS>
117610075  1

> <PUBCHEM_COORDINATE_TYPE>
1
3

$$$$
