310936328
  -OEChem-07211613022D

 24 23  0     0  0  0  0  0  0999 V2000
    4.2673   -2.7595    0.0000 P   0  0  0  0  0  0  0  0  0  0  0  0
    7.1122   -0.3129    0.0000 O   0  0  0  0  0  0  0  0  0  0  0  0
    1.3940   -5.1777    0.0000 O   0  0  0  0  0  0  0  0  0  0  0  0
    4.2673   -1.9345    0.0000 O   0  0  0  0  0  0  0  0  0  0  0  0
    4.2673   -3.5846    0.0000 O   0  0  0  0  0  0  0  0  0  0  0  0
    6.4010   -1.5363    0.0000 O   0  0  0  0  0  0  0  0  0  0  0  0
    2.1337   -3.9544    0.0000 O   0  0  0  0  0  0  0  0  0  0  0  0
    5.0924   -2.7595    0.0000 O   0  0  0  0  0  0  0  0  0  0  0  0
    5.6898   -0.3129    0.0000 N   0  0  0  0  0  0  0  0  0  0  0  0
    2.8164   -5.2061    0.0000 N   0  0  0  0  0  0  0  0  0  0  0  0
    7.8235   -0.7113    0.0000 C   0  0  0  0  0  0  0  0  0  0  0  0
    0.6828   -4.7510    0.0000 C   0  0  0  0  0  0  0  0  0  0  0  0
    6.4010   -0.7113    0.0000 C   0  0  0  0  0  0  0  0  0  0  0  0
    2.1052   -4.7794    0.0000 C   0  0  0  0  0  0  0  0  0  0  0  0
    4.9786   -0.7113    0.0000 C   0  0  0  0  0  0  0  0  0  0  0  0
    3.5277   -4.8079    0.0000 C   0  0  0  0  0  0  0  0  0  0  0  0
    4.9786   -1.5363    0.0000 C   0  0  0  0  0  0  0  0  0  0  0  0
    3.5561   -3.9829    0.0000 C   0  0  0  0  0  0  0  0  0  0  0  0
    8.5347   -1.1380    0.0000 C   0  0  0  0  0  0  0  0  0  0  0  0
    7.3967   -1.4224    0.0000 C   0  0  0  0  0  0  0  0  0  0  0  0
    8.2217    0.0000    0.0000 C   0  0  0  0  0  0  0  0  0  0  0  0
    0.0000   -4.3242    0.0000 C   0  0  0  0  0  0  0  0  0  0  0  0
    1.1095   -4.0398    0.0000 C   0  0  0  0  0  0  0  0  0  0  0  0
    0.2845   -5.4622    0.0000 C   0  0  0  0  0  0  0  0  0  0  0  0
  1  4  1  0  0  0  0
  1  5  1  0  0  0  0
  1  8  2  0  0  0  0
  2 11  1  0  0  0  0
  2 13  1  0  0  0  0
  3 12  1  0  0  0  0
  3 14  1  0  0  0  0
  4 17  1  0  0  0  0
  5 18  1  0  0  0  0
  6 13  2  0  0  0  0
  7 14  2  0  0  0  0
  9 13  1  0  0  0  0
  9 15  1  0  0  0  0
 10 14  1  0  0  0  0
 10 16  1  0  0  0  0
 11 19  1  0  0  0  0
 11 20  1  0  0  0  0
 11 21  1  0  0  0  0
 12 22  1  0  0  0  0
 12 23  1  0  0  0  0
 12 24  1  0  0  0  0
 15 17  1  0  0  0  0
 16 18  1  0  0  0  0
M  END
> <PUBCHEM_COMPOUND_ID_TYPE>
0

> <PUBCHEM_TOTAL_CHARGE>
0

> <PUBCHEM_SUBSTANCE_ID>
310936328

> <PUBCHEM_SUBSTANCE_VERSION>
1

> <PUBCHEM_EXT_DATASOURCE_NAME>
4488

> <PUBCHEM_EXT_DATASOURCE_REGID>
SCHEMBL16113954

> <PUBCHEM_SUBSTANCE_COMMENT>
InChI=1S/C14H29N2O7P/c1-13(2,3)22-11(17)15-7-9-20-24(19)21-10-8-16-12(18)23-14(4,5)6/h24H,7-10H2,1-6H3,(H,15,17)(H,16,18)
InChIKey=OKIBWROIDYPRCM-UHFFFAOYSA-N

> <PUBCHEM_SUBSTANCE_SYNONYM>
SCHEMBL16113954

> <PUBCHEM_XREF_EXT_ID>
SCHEMBL16113954

> <PUBCHEM_EXT_DATASOURCE_URL>
https://www.surechembl.org/

> <PUBCHEM_EXT_SUBSTANCE_URL>
https://www.surechembl.org/chemical/SCHEMBL16113954

> <PUBCHEM_CID_ASSOCIATIONS>
117604273  1

> <PUBCHEM_COORDINATE_TYPE>
1
3

$$$$
