310949920
  -OEChem-07211613022D

 30 34  0     1  0  0  0  0  0999 V2000
   -0.6073    1.6148    0.0000 N   0  0  0  0  0  0  0  0  0  0  0  0
   -0.6073    2.9536    0.0000 N   0  0  0  0  0  0  0  0  0  0  0  0
    0.1518   -0.7453    0.0000 N   0  0  0  0  0  0  0  0  0  0  0  0
    1.9737    1.8633    0.0000 N   0  0  0  0  0  0  0  0  0  0  0  0
   -0.1380    2.2911    0.0000 C   0  0  0  0  0  0  0  0  0  0  0  0
   -1.4078    1.8908    0.0000 C   0  0  0  0  0  0  0  0  0  0  0  0
   -1.3940    2.6913    0.0000 C   0  0  0  0  0  0  0  0  0  0  0  0
   -0.3589    0.8419    0.0000 C   0  0  0  0  0  0  0  0  0  0  0  0
    0.7039    2.2773    0.0000 C   0  0  3  0  0  0  0  0  0  0  0  0
   -2.0979    1.4630    0.0000 C   0  0  0  0  0  0  0  0  0  0  0  0
   -2.1255    3.0916    0.0000 C   0  0  0  0  0  0  0  0  0  0  0  0
   -0.9109    0.2070    0.0000 C   0  0  0  0  0  0  0  0  0  0  0  0
    0.4555    0.6625    0.0000 C   0  0  0  0  0  0  0  0  0  0  0  0
    1.2145   -1.6976    0.0000 C   0  0  0  0  0  0  0  0  0  0  0  0
    1.7666   -1.0766    0.0000 C   0  0  0  0  0  0  0  0  0  0  0  0
    1.2145    1.6148    0.0000 C   0  0  0  0  0  0  0  0  0  0  0  0
    1.1870    2.9536    0.0000 C   0  0  0  0  0  0  0  0  0  0  0  0
   -0.6487   -0.5659    0.0000 C   0  0  0  0  0  0  0  0  0  0  0  0
    0.7039   -0.1242    0.0000 C   0  0  0  0  0  0  0  0  0  0  0  0
   -2.8294    1.8770    0.0000 C   0  0  0  0  0  0  0  0  0  0  0  0
    0.4140   -1.5182    0.0000 C   0  0  0  0  0  0  0  0  0  0  0  0
   -2.8294    2.6913    0.0000 C   0  0  0  0  0  0  0  0  0  0  0  0
    1.4630   -2.4843    0.0000 C   0  0  0  0  0  0  0  0  0  0  0  0
    1.9737    2.6913    0.0000 C   0  0  0  0  0  0  0  0  0  0  0  0
    2.5671   -1.2560    0.0000 C   0  0  0  0  0  0  0  0  0  0  0  0
    2.2773   -2.6500    0.0000 C   0  0  0  0  0  0  0  0  0  0  0  0
    2.8294   -2.0427    0.0000 C   0  0  0  0  0  0  0  0  0  0  0  0
    1.1594   -0.5383    0.0000 C   0  0  0  0  0  0  0  0  0  0  0  0
    1.9323   -0.2623    0.0000 C   0  0  0  0  0  0  0  0  0  0  0  0
    0.9247   -3.0916    0.0000 C   0  0  0  0  0  0  0  0  0  0  0  0
  1  5  1  0  0  0  0
  1  6  1  0  0  0  0
  1  8  1  0  0  0  0
  2  5  2  0  0  0  0
  2  7  1  0  0  0  0
  3 18  1  0  0  0  0
  3 19  1  0  0  0  0
  3 21  1  0  0  0  0
  4 16  1  0  0  0  0
  4 24  1  0  0  0  0
  9  5  1  1  0  0  0
  6  7  1  0  0  0  0
  6 10  2  0  0  0  0
  7 11  2  0  0  0  0
  8 12  1  0  0  0  0
  8 13  1  0  0  0  0
  9 16  1  0  0  0  0
  9 17  1  0  0  0  0
 10 20  1  0  0  0  0
 11 22  1  0  0  0  0
 12 18  1  0  0  0  0
 13 19  1  0  0  0  0
 14 15  1  0  0  0  0
 14 21  1  0  0  0  0
 14 23  2  0  0  0  0
 15 25  1  0  0  0  0
 15 28  1  0  0  0  0
 15 29  1  0  0  0  0
 17 24  1  0  0  0  0
 20 22  2  0  0  0  0
 23 26  1  0  0  0  0
 23 30  1  0  0  0  0
 25 27  1  0  0  0  0
 26 27  1  0  0  0  0
M  END
> <PUBCHEM_COMPOUND_ID_TYPE>
0

> <PUBCHEM_TOTAL_CHARGE>
0

> <PUBCHEM_SUBSTANCE_ID>
310949920

> <PUBCHEM_SUBSTANCE_VERSION>
1

> <PUBCHEM_EXT_DATASOURCE_NAME>
4488

> <PUBCHEM_EXT_DATASOURCE_REGID>
SCHEMBL16128143

> <PUBCHEM_SUBSTANCE_COMMENT>
InChI=1S/C26H38N4/c1-19-7-6-13-26(2,3)22(19)18-29-15-11-21(12-16-29)30-24-9-5-4-8-23(24)28-25(30)20-10-14-27-17-20/h4-5,8-9,20-21,27H,6-7,10-18H2,1-3H3/t20-/m0/s1
InChIKey=CZDCCOVRQVSKEE-FQEVSTJZSA-N

> <PUBCHEM_SUBSTANCE_SYNONYM>
SCHEMBL16128143

> <PUBCHEM_XREF_EXT_ID>
SCHEMBL16128143

> <PUBCHEM_EXT_DATASOURCE_URL>
https://www.surechembl.org/

> <PUBCHEM_EXT_SUBSTANCE_URL>
https://www.surechembl.org/chemical/SCHEMBL16128143

> <PUBCHEM_CID_ASSOCIATIONS>
86273814  1

> <PUBCHEM_COORDINATE_TYPE>
1
3

> <PUBCHEM_BONDANNOTATIONS>
9  5  5

$$$$
