310930615
  -OEChem-07211613022D

 32 36  0     0  0  0  0  0  0999 V2000
    6.4528   -2.1400    0.0000 S   0  0  0  0  0  0  0  0  0  0  0  0
    2.2058   -6.4199    0.0000 S   0  0  0  0  0  0  0  0  0  0  0  0
    5.6627   -1.6790    0.0000 O   0  0  0  0  0  0  0  0  0  0  0  0
    7.1441   -2.5679    0.0000 O   0  0  0  0  0  0  0  0  0  0  0  0
    3.9507   -6.4857    0.0000 O   0  0  0  0  0  0  0  0  0  0  0  0
    8.0989   -2.1729    0.0000 N   0  0  0  0  0  0  0  0  0  0  0  0
    3.9507   -5.0371    0.0000 N   0  0  0  0  0  0  0  0  0  0  0  0
    0.0000   -6.1894    0.0000 N   0  0  0  0  0  0  0  0  0  0  0  0
    6.8807   -1.4486    0.0000 C   0  0  0  0  0  0  0  0  0  0  0  0
    7.7038   -1.4486    0.0000 C   0  0  0  0  0  0  0  0  0  0  0  0
    6.0577   -2.8642    0.0000 C   0  0  0  0  0  0  0  0  0  0  0  0
    8.1318   -0.7572    0.0000 C   0  0  0  0  0  0  0  0  0  0  0  0
    6.4857   -0.7243    0.0000 C   0  0  0  0  0  0  0  0  0  0  0  0
    2.6996   -5.7614    0.0000 C   0  0  0  0  0  0  0  0  0  0  0  0
    5.2017   -2.8642    0.0000 C   0  0  0  0  0  0  0  0  0  0  0  0
    6.4528   -3.5885    0.0000 C   0  0  0  0  0  0  0  0  0  0  0  0
    1.4156   -6.1894    0.0000 C   0  0  0  0  0  0  0  0  0  0  0  0
    1.4156   -5.3334    0.0000 C   0  0  0  0  0  0  0  0  0  0  0  0
    7.7367   -0.0329    0.0000 C   0  0  0  0  0  0  0  0  0  0  0  0
    6.9137    0.0000    0.0000 C   0  0  0  0  0  0  0  0  0  0  0  0
    2.2058   -5.1029    0.0000 C   0  0  0  0  0  0  0  0  0  0  0  0
    5.2017   -4.3128    0.0000 C   0  0  0  0  0  0  0  0  0  0  0  0
    8.9878   -0.7572    0.0000 C   0  0  0  0  0  0  0  0  0  0  0  0
    3.5227   -5.7614    0.0000 C   0  0  0  0  0  0  0  0  0  0  0  0
    4.8067   -3.5885    0.0000 C   0  0  0  0  0  0  0  0  0  0  0  0
    6.0248   -4.3128    0.0000 C   0  0  0  0  0  0  0  0  0  0  0  0
    8.9548   -2.2058    0.0000 C   0  0  0  0  0  0  0  0  0  0  0  0
    0.6914   -6.5845    0.0000 C   0  0  0  0  0  0  0  0  0  0  0  0
    0.6914   -4.9383    0.0000 C   0  0  0  0  0  0  0  0  0  0  0  0
    9.3828   -1.4815    0.0000 C   0  0  0  0  0  0  0  0  0  0  0  0
    4.7737   -5.0371    0.0000 C   0  0  0  0  0  0  0  0  0  0  0  0
    0.0000   -5.3334    0.0000 C   0  0  0  0  0  0  0  0  0  0  0  0
  1  3  2  0  0  0  0
  1  4  2  0  0  0  0
  1  9  1  0  0  0  0
  1 11  1  0  0  0  0
  2 14  1  0  0  0  0
  2 17  1  0  0  0  0
  5 24  2  0  0  0  0
  6 10  2  0  0  0  0
  6 27  1  0  0  0  0
  7 24  1  0  0  0  0
  7 31  1  0  0  0  0
  8 28  1  0  0  0  0
  8 32  2  0  0  0  0
  9 10  1  0  0  0  0
  9 13  2  0  0  0  0
 10 12  1  0  0  0  0
 11 15  2  0  0  0  0
 11 16  1  0  0  0  0
 12 19  1  0  0  0  0
 12 23  2  0  0  0  0
 13 20  1  0  0  0  0
 14 21  2  0  0  0  0
 14 24  1  0  0  0  0
 15 25  1  0  0  0  0
 16 26  2  0  0  0  0
 17 18  1  0  0  0  0
 17 28  2  0  0  0  0
 18 21  1  0  0  0  0
 18 29  2  0  0  0  0
 19 20  2  0  0  0  0
 22 25  2  0  0  0  0
 22 26  1  0  0  0  0
 22 31  1  0  0  0  0
 23 30  1  0  0  0  0
 27 30  2  0  0  0  0
 29 32  1  0  0  0  0
M  END
> <PUBCHEM_COMPOUND_ID_TYPE>
0

> <PUBCHEM_TOTAL_CHARGE>
0

> <PUBCHEM_SUBSTANCE_ID>
310930615

> <PUBCHEM_SUBSTANCE_VERSION>
1

> <PUBCHEM_EXT_DATASOURCE_NAME>
4488

> <PUBCHEM_EXT_DATASOURCE_REGID>
SCHEMBL16107912

> <PUBCHEM_SUBSTANCE_COMMENT>
InChI=1S/C24H17N3O3S2/c28-24(20-13-18-10-12-25-15-21(18)31-20)27-14-16-6-8-19(9-7-16)32(29,30)22-5-1-3-17-4-2-11-26-23(17)22/h1-13,15H,14H2,(H,27,28)
InChIKey=GGQMGHQWJNFHRQ-UHFFFAOYSA-N

> <PUBCHEM_SUBSTANCE_SYNONYM>
SCHEMBL16107912

> <PUBCHEM_XREF_EXT_ID>
SCHEMBL16107912

> <PUBCHEM_EXT_DATASOURCE_URL>
https://www.surechembl.org/

> <PUBCHEM_EXT_SUBSTANCE_URL>
https://www.surechembl.org/chemical/SCHEMBL16107912

> <PUBCHEM_CID_ASSOCIATIONS>
117599686  1

> <PUBCHEM_COORDINATE_TYPE>
1
3

$$$$
