310938240
  -OEChem-07211613022D

 21 22  0     0  0  0  0  0  0999 V2000
    2.8875   -2.9250    0.0000 O   0  0  0  0  0  0  0  0  0  0  0  0
    0.7500    0.0000    0.0000 O   0  5  0  0  0  0  0  0  0  0  0  0
    2.1750    0.0000    0.0000 O   0  0  0  0  0  0  0  0  0  0  0  0
    3.6375   -7.5000    0.0000 O   0  0  0  0  0  0  0  0  0  0  0  0
    1.4625   -0.4125    0.0000 N   0  3  0  0  0  0  0  0  0  0  0  0
    3.6375   -5.0250    0.0000 N   0  0  0  0  0  0  0  0  0  0  0  0
    1.4625   -1.2375    0.0000 C   0  0  0  0  0  0  0  0  0  0  0  0
    2.1750   -2.5125    0.0000 C   0  0  0  0  0  0  0  0  0  0  0  0
    0.7500   -2.5125    0.0000 C   0  0  0  0  0  0  0  0  0  0  0  0
    2.1750   -1.6500    0.0000 C   0  0  0  0  0  0  0  0  0  0  0  0
    0.7500   -1.6500    0.0000 C   0  0  0  0  0  0  0  0  0  0  0  0
    1.4625   -2.9250    0.0000 C   0  0  0  0  0  0  0  0  0  0  0  0
    2.8875   -3.7500    0.0000 C   0  0  0  0  0  0  0  0  0  0  0  0
    0.0000   -2.9250    0.0000 C   0  0  0  0  0  0  0  0  0  0  0  0
    3.6375   -4.1626    0.0000 C   0  0  0  0  0  0  0  0  0  0  0  0
    4.3500   -5.4000    0.0000 C   0  0  0  0  0  0  0  0  0  0  0  0
    2.9250   -5.4000    0.0000 C   0  0  0  0  0  0  0  0  0  0  0  0
    3.6375   -6.6750    0.0000 C   0  0  0  0  0  0  0  0  0  0  0  0
    4.3500   -6.2625    0.0000 C   0  0  0  0  0  0  0  0  0  0  0  0
    2.9250   -6.2625    0.0000 C   0  0  0  0  0  0  0  0  0  0  0  0
    0.0000   -3.7500    0.0000 C   0  0  0  0  0  0  0  0  0  0  0  0
  1  8  1  0  0  0  0
  1 13  1  0  0  0  0
  2  5  1  0  0  0  0
  3  5  2  0  0  0  0
  4 18  2  0  0  0  0
  5  7  1  0  0  0  0
  6 15  1  0  0  0  0
  6 16  1  0  0  0  0
  6 17  1  0  0  0  0
  7 10  1  0  0  0  0
  7 11  2  0  0  0  0
  8 10  2  0  0  0  0
  8 12  1  0  0  0  0
  9 11  1  0  0  0  0
  9 12  2  0  0  0  0
  9 14  1  0  0  0  0
 13 15  1  0  0  0  0
 14 21  2  0  0  0  0
 16 19  1  0  0  0  0
 17 20  1  0  0  0  0
 18 19  1  0  0  0  0
 18 20  1  0  0  0  0
M  CHG  2   2  -1   5   1
M  END
> <PUBCHEM_COMPOUND_ID_TYPE>
0

> <PUBCHEM_TOTAL_CHARGE>
0

> <PUBCHEM_SUBSTANCE_ID>
310938240

> <PUBCHEM_SUBSTANCE_VERSION>
1

> <PUBCHEM_EXT_DATASOURCE_NAME>
4488

> <PUBCHEM_EXT_DATASOURCE_REGID>
SCHEMBL16116105

> <PUBCHEM_SUBSTANCE_COMMENT>
InChI=1S/C15H18N2O4/c1-2-12-9-13(17(19)20)11-15(10-12)21-8-7-16-5-3-14(18)4-6-16/h2,9-11H,1,3-8H2
InChIKey=CIAGXVPLCCKJCY-UHFFFAOYSA-N

> <PUBCHEM_SUBSTANCE_SYNONYM>
SCHEMBL16116105

> <PUBCHEM_XREF_EXT_ID>
SCHEMBL16116105

> <PUBCHEM_EXT_DATASOURCE_URL>
https://www.surechembl.org/

> <PUBCHEM_EXT_SUBSTANCE_URL>
https://www.surechembl.org/chemical/SCHEMBL16116105

> <PUBCHEM_CID_ASSOCIATIONS>
117605759  1

> <PUBCHEM_COORDINATE_TYPE>
1
3

$$$$
