310941608
  -OEChem-07211613022D

 33 37  0     0  0  0  0  0  0999 V2000
    0.7437    3.1884    0.0000 S   0  0  0  0  0  0  0  0  0  0  0  0
   -1.5814    0.5385    0.0000 O   0  0  0  0  0  0  0  0  0  0  0  0
   -3.0174   -0.2992    0.0000 O   0  0  0  0  0  0  0  0  0  0  0  0
   -0.1453    0.5385    0.0000 O   0  0  0  0  0  0  0  0  0  0  0  0
    3.6329    2.2139    0.0000 O   0  0  0  0  0  0  0  0  0  0  0  0
    0.6240    1.8549    0.0000 N   0  0  0  0  0  0  0  0  0  0  0  0
    1.9917    2.3849    0.0000 N   0  0  0  0  0  0  0  0  0  0  0  0
   -0.8463    1.7866    0.0000 C   0  0  0  0  0  0  0  0  0  0  0  0
   -2.3165    0.9659    0.0000 C   0  0  0  0  0  0  0  0  0  0  0  0
   -2.2994    1.8036    0.0000 C   0  0  0  0  0  0  0  0  0  0  0  0
   -0.1624    2.2139    0.0000 C   0  0  0  0  0  0  0  0  0  0  0  0
   -0.8975    0.9659    0.0000 C   0  0  0  0  0  0  0  0  0  0  0  0
   -1.5984    2.1968    0.0000 C   0  0  0  0  0  0  0  0  0  0  0  0
   -3.0174    0.5556    0.0000 C   0  0  0  0  0  0  0  0  0  0  0  0
    1.1540    2.5045    0.0000 C   0  0  0  0  0  0  0  0  0  0  0  0
   -0.0428    3.0345    0.0000 C   0  0  0  0  0  0  0  0  0  0  0  0
   -3.0345    2.1968    0.0000 C   0  0  0  0  0  0  0  0  0  0  0  0
   -3.7184    0.9489    0.0000 C   0  0  0  0  0  0  0  0  0  0  0  0
   -3.7355    1.7866    0.0000 C   0  0  0  0  0  0  0  0  0  0  0  0
    2.3336    1.6326    0.0000 C   0  0  0  0  0  0  0  0  0  0  0  0
    3.1542    1.5472    0.0000 C   0  0  0  0  0  0  0  0  0  0  0  0
   -3.7355   -0.6924    0.0000 C   0  0  0  0  0  0  0  0  0  0  0  0
    1.8550    0.9659    0.0000 C   0  0  0  0  0  0  0  0  0  0  0  0
    3.4790    0.7779    0.0000 C   0  0  0  0  0  0  0  0  0  0  0  0
   -3.7526   -1.5472    0.0000 C   0  0  0  0  0  0  0  0  0  0  0  0
    2.1797    0.2137    0.0000 C   0  0  0  0  0  0  0  0  0  0  0  0
    3.0174    0.1282    0.0000 C   0  0  0  0  0  0  0  0  0  0  0  0
   -4.4364   -1.9575    0.0000 C   0  0  0  0  0  0  0  0  0  0  0  0
   -3.0345   -1.9575    0.0000 C   0  0  0  0  0  0  0  0  0  0  0  0
   -4.4193   -2.7952    0.0000 C   0  0  0  0  0  0  0  0  0  0  0  0
   -3.0345   -2.7952    0.0000 C   0  0  0  0  0  0  0  0  0  0  0  0
    4.4364    2.1284    0.0000 C   0  0  0  0  0  0  0  0  0  0  0  0
   -3.7184   -3.1884    0.0000 C   0  0  0  0  0  0  0  0  0  0  0  0
  1 15  1  0  0  0  0
  1 16  1  0  0  0  0
  2  9  1  0  0  0  0
  2 12  1  0  0  0  0
  3 14  1  0  0  0  0
  3 22  1  0  0  0  0
  4 12  2  0  0  0  0
  5 21  1  0  0  0  0
  5 32  1  0  0  0  0
  6 11  1  0  0  0  0
  6 15  2  0  0  0  0
  7 15  1  0  0  0  0
  7 20  1  0  0  0  0
  8 11  1  0  0  0  0
  8 12  1  0  0  0  0
  8 13  2  0  0  0  0
  9 10  1  0  0  0  0
  9 14  2  0  0  0  0
 10 13  1  0  0  0  0
 10 17  2  0  0  0  0
 11 16  2  0  0  0  0
 14 18  1  0  0  0  0
 17 19  1  0  0  0  0
 18 19  2  0  0  0  0
 20 21  1  0  0  0  0
 20 23  2  0  0  0  0
 21 24  2  0  0  0  0
 22 25  1  0  0  0  0
 23 26  1  0  0  0  0
 24 27  1  0  0  0  0
 25 28  2  0  0  0  0
 25 29  1  0  0  0  0
 26 27  2  0  0  0  0
 28 30  1  0  0  0  0
 29 31  2  0  0  0  0
 30 33  2  0  0  0  0
 31 33  1  0  0  0  0
M  END
> <PUBCHEM_COMPOUND_ID_TYPE>
0

> <PUBCHEM_TOTAL_CHARGE>
0

> <PUBCHEM_SUBSTANCE_ID>
310941608

> <PUBCHEM_SUBSTANCE_VERSION>
1

> <PUBCHEM_EXT_DATASOURCE_NAME>
4488

> <PUBCHEM_EXT_DATASOURCE_REGID>
SCHEMBL16119639

> <PUBCHEM_SUBSTANCE_COMMENT>
InChI=1S/C26H20N2O4S/c1-30-22-12-6-5-11-20(22)27-26-28-21(16-33-26)19-14-18-10-7-13-23(24(18)32-25(19)29)31-15-17-8-3-2-4-9-17/h2-14,16H,15H2,1H3,(H,27,28)
InChIKey=YMIKQAATAXIJDL-UHFFFAOYSA-N

> <PUBCHEM_SUBSTANCE_SYNONYM>
SCHEMBL16119639

> <PUBCHEM_XREF_EXT_ID>
SCHEMBL16119639

> <PUBCHEM_EXT_DATASOURCE_URL>
https://www.surechembl.org/

> <PUBCHEM_EXT_SUBSTANCE_URL>
https://www.surechembl.org/chemical/SCHEMBL16119639

> <PUBCHEM_CID_ASSOCIATIONS>
86274501  1

> <PUBCHEM_COORDINATE_TYPE>
1
3

$$$$
