310949560
  -OEChem-07211613022D

 27 30  0     1  0  0  0  0  0999 V2000
   -2.0127    2.4988    0.0000 Cl  0  0  0  0  0  0  0  0  0  0  0  0
   -3.7045    1.6627    0.0000 Cl  0  0  0  0  0  0  0  0  0  0  0  0
   -0.5737    2.4988    0.0000 O   0  0  0  0  0  0  0  0  0  0  0  0
    2.2655   -0.0098    0.0000 N   0  0  0  0  0  0  0  0  0  0  0  0
    0.1264    1.2543    0.0000 N   0  0  0  0  0  0  0  0  0  0  0  0
    2.4016    1.3904    0.0000 N   0  0  0  0  0  0  0  0  0  0  0  0
    2.8100    0.6709    0.0000 N   0  0  0  0  0  0  0  0  0  0  0  0
    2.9655   -1.2543    0.0000 N   0  0  0  0  0  0  0  0  0  0  0  0
    1.5071    0.3987    0.0000 C   0  0  0  0  0  0  0  0  0  0  0  0
    1.6238    1.2154    0.0000 C   0  0  0  0  0  0  0  0  0  0  0  0
    0.8459    1.6627    0.0000 C   0  0  3  0  0  0  0  0  0  0  0  0
   -0.5737    1.6433    0.0000 C   0  0  0  0  0  0  0  0  0  0  0  0
    0.8654    0.0098    0.0000 C   0  0  0  0  0  0  0  0  0  0  0  0
    2.2655   -0.8265    0.0000 C   0  0  0  0  0  0  0  0  0  0  0  0
    0.1458    0.4181    0.0000 C   0  0  0  0  0  0  0  0  0  0  0  0
   -1.2738    1.2543    0.0000 C   0  0  0  0  0  0  0  0  0  0  0  0
   -1.9933    1.6627    0.0000 C   0  0  0  0  0  0  0  0  0  0  0  0
    0.8654    2.4600    0.0000 C   0  0  0  0  0  0  0  0  0  0  0  0
    1.5849   -1.2348    0.0000 C   0  0  0  0  0  0  0  0  0  0  0  0
   -1.2932    0.4181    0.0000 C   0  0  0  0  0  0  0  0  0  0  0  0
   -2.6933    1.2543    0.0000 C   0  0  0  0  0  0  0  0  0  0  0  0
    2.9655   -2.0710    0.0000 C   0  0  0  0  0  0  0  0  0  0  0  0
   -1.9738    0.0098    0.0000 C   0  0  0  0  0  0  0  0  0  0  0  0
   -2.6739    0.4181    0.0000 C   0  0  0  0  0  0  0  0  0  0  0  0
    1.5655   -2.0710    0.0000 C   0  0  0  0  0  0  0  0  0  0  0  0
    2.2850   -2.4794    0.0000 C   0  0  0  0  0  0  0  0  0  0  0  0
    3.7045   -2.4988    0.0000 C   0  0  0  0  0  0  0  0  0  0  0  0
  1 17  1  0  0  0  0
  2 21  1  0  0  0  0
  3 12  2  0  0  0  0
  4  7  1  0  0  0  0
  4  9  1  0  0  0  0
  4 14  1  0  0  0  0
  5 11  1  0  0  0  0
  5 12  1  0  0  0  0
  5 15  1  0  0  0  0
  6  7  1  0  0  0  0
  6 10  1  0  0  0  0
  8 14  2  0  0  0  0
  8 22  1  0  0  0  0
  9 10  2  0  0  0  0
  9 13  1  0  0  0  0
 10 11  1  0  0  0  0
 11 18  1  6  0  0  0
 12 16  1  0  0  0  0
 13 15  1  0  0  0  0
 14 19  1  0  0  0  0
 16 17  2  0  0  0  0
 16 20  1  0  0  0  0
 17 21  1  0  0  0  0
 19 25  2  0  0  0  0
 20 23  2  0  0  0  0
 21 24  2  0  0  0  0
 22 26  2  0  0  0  0
 22 27  1  0  0  0  0
 23 24  1  0  0  0  0
 25 26  1  0  0  0  0
M  END
> <PUBCHEM_COMPOUND_ID_TYPE>
0

> <PUBCHEM_TOTAL_CHARGE>
0

> <PUBCHEM_SUBSTANCE_ID>
310949560

> <PUBCHEM_SUBSTANCE_VERSION>
1

> <PUBCHEM_EXT_DATASOURCE_NAME>
4488

> <PUBCHEM_EXT_DATASOURCE_REGID>
SCHEMBL16127755

> <PUBCHEM_SUBSTANCE_COMMENT>
InChI=1S/C19H19Cl2N5O/c1-11-5-3-8-16(22-11)26-15-9-10-25(12(2)18(15)23-24-26)19(27)13-6-4-7-14(20)17(13)21/h3-8,12,23-24H,9-10H2,1-2H3/t12-/m1/s1
InChIKey=ORSIKJSWHLFWRN-GFCCVEGCSA-N

> <PUBCHEM_SUBSTANCE_SYNONYM>
SCHEMBL16127755

> <PUBCHEM_XREF_EXT_ID>
SCHEMBL16127755

> <PUBCHEM_EXT_DATASOURCE_URL>
https://www.surechembl.org/

> <PUBCHEM_EXT_SUBSTANCE_URL>
https://www.surechembl.org/chemical/SCHEMBL16127755

> <PUBCHEM_CID_ASSOCIATIONS>
117614978  1

> <PUBCHEM_COORDINATE_TYPE>
1
3

> <PUBCHEM_BONDANNOTATIONS>
11  18  6

$$$$
