310945369
  -OEChem-07211613022D

 35 39  0     0  0  0  0  0  0999 V2000
   -2.8983   -2.9076    0.0000 O   0  0  0  0  0  0  0  0  0  0  0  0
    4.1721    2.2060    0.0000 O   0  0  0  0  0  0  0  0  0  0  0  0
    0.3692   -1.3938    0.0000 O   0  0  0  0  0  0  0  0  0  0  0  0
   -4.4675   -0.3600    0.0000 O   0  0  0  0  0  0  0  0  0  0  0  0
    2.8615    0.4707    0.0000 N   0  0  0  0  0  0  0  0  0  0  0  0
   -3.3968   -1.3200    0.0000 N   0  0  0  0  0  0  0  0  0  0  0  0
    4.4675    0.8215    0.0000 N   0  0  0  0  0  0  0  0  0  0  0  0
   -0.6831   -0.4154    0.0000 N   0  0  0  0  0  0  0  0  0  0  0  0
   -3.0645    2.2984    0.0000 N   0  0  0  0  0  0  0  0  0  0  0  0
    2.0122    0.4523    0.0000 C   0  0  0  0  0  0  0  0  0  0  0  0
    3.1199    1.2645    0.0000 C   0  0  0  0  0  0  0  0  0  0  0  0
    1.7723    1.2461    0.0000 C   0  0  0  0  0  0  0  0  0  0  0  0
    2.4368    1.7445    0.0000 C   0  0  0  0  0  0  0  0  0  0  0  0
    1.4953   -0.1385    0.0000 C   0  0  0  0  0  0  0  0  0  0  0  0
    0.6831    0.0461    0.0000 C   0  0  0  0  0  0  0  0  0  0  0  0
    3.9137    1.4122    0.0000 C   0  0  0  0  0  0  0  0  0  0  0  0
    0.9600    1.3938    0.0000 C   0  0  0  0  0  0  0  0  0  0  0  0
    3.4337   -0.1569    0.0000 C   0  0  0  0  0  0  0  0  0  0  0  0
   -2.5845   -1.4861    0.0000 C   0  0  0  0  0  0  0  0  0  0  0  0
    0.1107   -0.6000    0.0000 C   0  0  0  0  0  0  0  0  0  0  0  0
    0.4430    0.8215    0.0000 C   0  0  0  0  0  0  0  0  0  0  0  0
   -2.3445   -2.2615    0.0000 C   0  0  0  0  0  0  0  0  0  0  0  0
   -1.2369   -1.0431    0.0000 C   0  0  0  0  0  0  0  0  0  0  0  0
   -2.0307   -0.8769    0.0000 C   0  0  0  0  0  0  0  0  0  0  0  0
    4.2091    0.0092    0.0000 C   0  0  0  0  0  0  0  0  0  0  0  0
   -1.5322   -2.4461    0.0000 C   0  0  0  0  0  0  0  0  0  0  0  0
   -3.6368   -0.5446    0.0000 C   0  0  0  0  0  0  0  0  0  0  0  0
   -0.9969   -1.8554    0.0000 C   0  0  0  0  0  0  0  0  0  0  0  0
   -3.9507   -1.9661    0.0000 C   0  0  0  0  0  0  0  0  0  0  0  0
   -3.6922   -2.7230    0.0000 C   0  0  0  0  0  0  0  0  0  0  0  0
   -3.1014    0.0831    0.0000 C   0  0  0  0  0  0  0  0  0  0  0  0
   -3.3415    0.8769    0.0000 C   0  0  0  0  0  0  0  0  0  0  0  0
   -2.8061    1.4861    0.0000 C   0  0  0  0  0  0  0  0  0  0  0  0
   -2.5292    2.9076    0.0000 C   0  0  0  0  0  0  0  0  0  0  0  0
   -3.8768    2.4276    0.0000 C   0  0  0  0  0  0  0  0  0  0  0  0
  1 22  1  0  0  0  0
  1 30  1  0  0  0  0
  2 16  2  0  0  0  0
  3 20  2  0  0  0  0
  4 27  2  0  0  0  0
  5 10  1  0  0  0  0
  5 11  1  0  0  0  0
  5 18  1  0  0  0  0
  6 19  1  0  0  0  0
  6 27  1  0  0  0  0
  6 29  1  0  0  0  0
  7 16  1  0  0  0  0
  7 25  1  0  0  0  0
  8 20  1  0  0  0  0
  8 23  1  0  0  0  0
  9 33  1  0  0  0  0
  9 34  1  0  0  0  0
  9 35  1  0  0  0  0
 10 12  1  0  0  0  0
 10 14  2  0  0  0  0
 11 13  2  0  0  0  0
 11 16  1  0  0  0  0
 12 13  1  0  0  0  0
 12 17  2  0  0  0  0
 14 15  1  0  0  0  0
 15 20  1  0  0  0  0
 15 21  2  0  0  0  0
 17 21  1  0  0  0  0
 18 25  1  0  0  0  0
 19 22  2  0  0  0  0
 19 24  1  0  0  0  0
 22 26  1  0  0  0  0
 23 24  2  0  0  0  0
 23 28  1  0  0  0  0
 26 28  2  0  0  0  0
 27 31  1  0  0  0  0
 29 30  1  0  0  0  0
 31 32  2  0  0  0  0
 32 33  1  0  0  0  0
M  END
> <PUBCHEM_COMPOUND_ID_TYPE>
0

> <PUBCHEM_TOTAL_CHARGE>
0

> <PUBCHEM_SUBSTANCE_ID>
310945369

> <PUBCHEM_SUBSTANCE_VERSION>
1

> <PUBCHEM_EXT_DATASOURCE_NAME>
4488

> <PUBCHEM_EXT_DATASOURCE_REGID>
SCHEMBL16123467

> <PUBCHEM_SUBSTANCE_COMMENT>
InChI=1S/C26H27N5O4/c1-29(2)10-3-4-24(32)31-12-13-35-23-8-7-19(16-21(23)31)28-25(33)18-6-5-17-14-22-26(34)27-9-11-30(22)20(17)15-18/h3-8,14-16H,9-13H2,1-2H3,(H,27,34)(H,28,33)/b4-3+
InChIKey=JXZRWMHQJUHDPP-ONEGZZNKSA-N

> <PUBCHEM_SUBSTANCE_SYNONYM>
SCHEMBL16123467

> <PUBCHEM_XREF_EXT_ID>
SCHEMBL16123467

> <PUBCHEM_EXT_DATASOURCE_URL>
https://www.surechembl.org/

> <PUBCHEM_EXT_SUBSTANCE_URL>
https://www.surechembl.org/chemical/SCHEMBL16123467

> <PUBCHEM_CID_ASSOCIATIONS>
117611424  1

> <PUBCHEM_COORDINATE_TYPE>
1
3

$$$$
