310949767
  -OEChem-07211613022D

 39 43  0     0  0  0  0  0  0999 V2000
   -2.9666    4.6618    0.0000 F   0  0  0  0  0  0  0  0  0  0  0  0
    2.7604    4.6618    0.0000 F   0  0  0  0  0  0  0  0  0  0  0  0
    0.6071   -0.8591    0.0000 N   0  0  0  0  0  0  0  0  0  0  0  0
   -0.1260    0.5154    0.0000 N   0  0  0  0  0  0  0  0  0  0  0  0
   -0.8361   -0.8591    0.0000 N   0  0  0  0  0  0  0  0  0  0  0  0
   -0.1260   -2.9208    0.0000 N   0  0  0  0  0  0  0  0  0  0  0  0
   -0.1260    2.1877    0.0000 N   0  0  0  0  0  0  0  0  0  0  0  0
    1.3172   -2.9208    0.0000 N   0  0  0  0  0  0  0  0  0  0  0  0
   -1.5463   -2.0961    0.0000 N   0  0  0  0  0  0  0  0  0  0  0  0
    2.0273   -1.6837    0.0000 N   0  0  0  0  0  0  0  0  0  0  0  0
    0.6071   -4.1578    0.0000 N   0  0  0  0  0  0  0  0  0  0  0  0
    0.6071   -1.6608    0.0000 C   0  0  0  0  0  0  0  0  0  0  0  0
   -0.0802   -2.0503    0.0000 C   0  0  0  0  0  0  0  0  0  0  0  0
   -0.1031   -0.4009    0.0000 C   0  0  0  0  0  0  0  0  0  0  0  0
   -0.8132   -1.6608    0.0000 C   0  0  0  0  0  0  0  0  0  0  0  0
    1.3401   -2.0503    0.0000 C   0  0  0  0  0  0  0  0  0  0  0  0
    0.6299   -3.2873    0.0000 C   0  0  0  0  0  0  0  0  0  0  0  0
   -0.0802    3.0582    0.0000 C   0  0  0  0  0  0  0  0  0  0  0  0
   -0.8132    0.9736    0.0000 C   0  0  0  0  0  0  0  0  0  0  0  0
    0.6071    0.9736    0.0000 C   0  0  0  0  0  0  0  0  0  0  0  0
    0.6071    3.4476    0.0000 C   0  0  0  0  0  0  0  0  0  0  0  0
   -0.8361    3.4476    0.0000 C   0  0  0  0  0  0  0  0  0  0  0  0
   -0.7903    1.7983    0.0000 C   0  0  0  0  0  0  0  0  0  0  0  0
    0.6299    1.7754    0.0000 C   0  0  0  0  0  0  0  0  0  0  0  0
    1.2943    3.0582    0.0000 C   0  0  0  0  0  0  0  0  0  0  0  0
   -0.8361    4.2723    0.0000 C   0  0  0  0  0  0  0  0  0  0  0  0
    0.6529    4.2723    0.0000 C   0  0  0  0  0  0  0  0  0  0  0  0
   -1.5234    3.0582    0.0000 C   0  0  0  0  0  0  0  0  0  0  0  0
    2.0503    3.4476    0.0000 C   0  0  0  0  0  0  0  0  0  0  0  0
   -1.5463    4.6847    0.0000 C   0  0  0  0  0  0  0  0  0  0  0  0
    1.3401    4.6847    0.0000 C   0  0  0  0  0  0  0  0  0  0  0  0
   -2.2335    3.4476    0.0000 C   0  0  0  0  0  0  0  0  0  0  0  0
   -2.4397   -1.5463    0.0000 C   0  0  0  0  0  0  0  0  0  0  0  0
   -2.2335    4.2723    0.0000 C   0  0  0  0  0  0  0  0  0  0  0  0
    2.0731    4.2953    0.0000 C   0  0  0  0  0  0  0  0  0  0  0  0
    2.9666   -2.2564    0.0000 C   0  0  0  0  0  0  0  0  0  0  0  0
    1.4318   -4.6618    0.0000 C   0  0  0  0  0  0  0  0  0  0  0  0
    2.1648   -4.2494    0.0000 C   0  0  0  0  0  0  0  0  0  0  0  0
    2.8978   -4.6618    0.0000 C   0  0  0  0  0  0  0  0  0  0  0  0
  1 34  1  0  0  0  0
  2 35  1  0  0  0  0
  3 12  1  0  0  0  0
  3 14  2  0  0  0  0
  4 14  1  0  0  0  0
  4 19  1  0  0  0  0
  4 20  1  0  0  0  0
  5 14  1  0  0  0  0
  5 15  2  0  0  0  0
  6 13  1  0  0  0  0
  6 17  2  0  0  0  0
  7 18  1  0  0  0  0
  7 23  1  0  0  0  0
  7 24  1  0  0  0  0
  8 16  2  0  0  0  0
  8 17  1  0  0  0  0
  9 15  1  0  0  0  0
  9 33  1  0  0  0  0
 10 16  1  0  0  0  0
 10 36  1  0  0  0  0
 11 17  1  0  0  0  0
 11 37  1  0  0  0  0
 12 13  2  0  0  0  0
 12 16  1  0  0  0  0
 13 15  1  0  0  0  0
 18 21  1  0  0  0  0
 18 22  1  0  0  0  0
 19 23  1  0  0  0  0
 20 24  1  0  0  0  0
 21 25  2  0  0  0  0
 21 27  1  0  0  0  0
 22 26  2  0  0  0  0
 22 28  1  0  0  0  0
 25 29  1  0  0  0  0
 26 30  1  0  0  0  0
 27 31  2  0  0  0  0
 28 32  2  0  0  0  0
 29 35  2  0  0  0  0
 30 34  2  0  0  0  0
 31 35  1  0  0  0  0
 32 34  1  0  0  0  0
 37 38  1  0  0  0  0
 38 39  1  0  0  0  0
M  END
> <PUBCHEM_COMPOUND_ID_TYPE>
0

> <PUBCHEM_TOTAL_CHARGE>
0

> <PUBCHEM_SUBSTANCE_ID>
310949767

> <PUBCHEM_SUBSTANCE_VERSION>
1

> <PUBCHEM_EXT_DATASOURCE_NAME>
4488

> <PUBCHEM_EXT_DATASOURCE_REGID>
SCHEMBL16127965

> <PUBCHEM_SUBSTANCE_COMMENT>
InChI=1S/C28H33F2N9/c1-4-13-33-27-34-22-23(25(31-2)36-27)35-28(37-26(22)32-3)39-16-14-38(15-17-39)24(18-5-9-20(29)10-6-18)19-7-11-21(30)12-8-19/h5-12,24H,4,13-17H2,1-3H3,(H,32,35,37)(H2,31,33,34,36)
InChIKey=WXLKJNURWWSACT-UHFFFAOYSA-N

> <PUBCHEM_SUBSTANCE_SYNONYM>
SCHEMBL16127965

> <PUBCHEM_XREF_EXT_ID>
SCHEMBL16127965

> <PUBCHEM_EXT_DATASOURCE_URL>
https://www.surechembl.org/

> <PUBCHEM_EXT_SUBSTANCE_URL>
https://www.surechembl.org/chemical/SCHEMBL16127965

> <PUBCHEM_CID_ASSOCIATIONS>
117615092  1

> <PUBCHEM_COORDINATE_TYPE>
1
3

$$$$
