310943106
  -OEChem-07211613022D

 27 28  0     0  0  0  0  0  0999 V2000
   -1.4496   -1.4496    0.0000 F   0  0  0  0  0  0  0  0  0  0  0  0
   -2.2341   -2.2682    0.0000 F   0  0  0  0  0  0  0  0  0  0  0  0
   -3.0527   -1.4667    0.0000 F   0  0  0  0  0  0  0  0  0  0  0  0
   -3.4279   -0.6481    0.0000 F   0  0  0  0  0  0  0  0  0  0  0  0
   -3.4791    0.4775    0.0000 F   0  0  0  0  0  0  0  0  0  0  0  0
   -2.3364    0.5117    0.0000 F   0  0  0  0  0  0  0  0  0  0  0  0
    2.7628   -0.2217    0.0000 F   0  0  0  0  0  0  0  0  0  0  0  0
   -2.9845   -1.0574    0.0000 O   0  0  0  0  0  0  0  0  0  0  0  0
    1.3303   -0.2046    0.0000 O   0  0  0  0  0  0  0  0  0  0  0  0
    0.6310    1.0403    0.0000 N   0  0  0  0  0  0  0  0  0  0  0  0
   -2.2853   -0.6140    0.0000 C   0  0  0  0  0  0  0  0  0  0  0  0
   -2.8822   -0.0512    0.0000 C   0  0  0  0  0  0  0  0  0  0  0  0
   -2.2682   -1.4496    0.0000 C   0  0  0  0  0  0  0  0  0  0  0  0
   -1.5690   -0.1876    0.0000 C   0  0  0  0  0  0  0  0  0  0  0  0
   -1.5349    0.6310    0.0000 C   0  0  0  0  0  0  0  0  0  0  0  0
   -0.8527   -0.5969    0.0000 C   0  0  0  0  0  0  0  0  0  0  0  0
   -0.1023    0.6481    0.0000 C   0  0  0  0  0  0  0  0  0  0  0  0
   -0.8015    1.0403    0.0000 C   0  0  0  0  0  0  0  0  0  0  0  0
   -0.1194   -0.2046    0.0000 C   0  0  0  0  0  0  0  0  0  0  0  0
    1.3303    0.6481    0.0000 C   0  0  0  0  0  0  0  0  0  0  0  0
    2.0465    1.0574    0.0000 C   0  0  0  0  0  0  0  0  0  0  0  0
    2.7799    0.6481    0.0000 C   0  0  0  0  0  0  0  0  0  0  0  0
    0.6310    1.8589    0.0000 C   0  0  0  0  0  0  0  0  0  0  0  0
    2.0636    1.8589    0.0000 C   0  0  0  0  0  0  0  0  0  0  0  0
    3.4791    1.0232    0.0000 C   0  0  0  0  0  0  0  0  0  0  0  0
    2.7969    2.2682    0.0000 C   0  0  0  0  0  0  0  0  0  0  0  0
    3.4791    1.8760    0.0000 C   0  0  0  0  0  0  0  0  0  0  0  0
  1 13  1  0  0  0  0
  2 13  1  0  0  0  0
  3 13  1  0  0  0  0
  4 12  1  0  0  0  0
  5 12  1  0  0  0  0
  6 12  1  0  0  0  0
  7 22  1  0  0  0  0
  8 11  1  0  0  0  0
  9 20  2  0  0  0  0
 10 17  1  0  0  0  0
 10 20  1  0  0  0  0
 10 23  1  0  0  0  0
 11 12  1  0  0  0  0
 11 13  1  0  0  0  0
 11 14  1  0  0  0  0
 14 15  2  0  0  0  0
 14 16  1  0  0  0  0
 15 18  1  0  0  0  0
 16 19  2  0  0  0  0
 17 18  2  0  0  0  0
 17 19  1  0  0  0  0
 20 21  1  0  0  0  0
 21 22  2  0  0  0  0
 21 24  1  0  0  0  0
 22 25  1  0  0  0  0
 24 26  2  0  0  0  0
 25 27  2  0  0  0  0
 26 27  1  0  0  0  0
M  END
> <PUBCHEM_COMPOUND_ID_TYPE>
0

> <PUBCHEM_TOTAL_CHARGE>
0

> <PUBCHEM_SUBSTANCE_ID>
310943106

> <PUBCHEM_SUBSTANCE_VERSION>
1

> <PUBCHEM_EXT_DATASOURCE_NAME>
4488

> <PUBCHEM_EXT_DATASOURCE_REGID>
SCHEMBL16121165

> <PUBCHEM_SUBSTANCE_COMMENT>
InChI=1S/C17H12F7NO2/c1-25(14(26)12-4-2-3-5-13(12)18)11-8-6-10(7-9-11)15(27,16(19,20)21)17(22,23)24/h2-9,27H,1H3
InChIKey=YYHCZUGSNHCXEF-UHFFFAOYSA-N

> <PUBCHEM_SUBSTANCE_SYNONYM>
SCHEMBL16121165

> <PUBCHEM_XREF_EXT_ID>
SCHEMBL16121165

> <PUBCHEM_EXT_DATASOURCE_URL>
https://www.surechembl.org/

> <PUBCHEM_EXT_SUBSTANCE_URL>
https://www.surechembl.org/chemical/SCHEMBL16121165

> <PUBCHEM_CID_ASSOCIATIONS>
86297470  1

> <PUBCHEM_COORDINATE_TYPE>
1
3

$$$$
