310941582
  -OEChem-07211613022D

 28 31  0     0  0  0  0  0  0999 V2000
    0.4037    1.9744    0.0000 S   0  0  0  0  0  0  0  0  0  0  0  0
   -1.9481   -0.7108    0.0000 O   0  0  0  0  0  0  0  0  0  0  0  0
   -0.5089   -0.6932    0.0000 O   0  0  0  0  0  0  0  0  0  0  0  0
   -2.7027   -1.9568    0.0000 O   0  0  0  0  0  0  0  0  0  0  0  0
   -4.0716   -1.9744    0.0000 O   0  0  0  0  0  0  0  0  0  0  0  0
    3.2818    0.9916    0.0000 O   0  0  0  0  0  0  0  0  0  0  0  0
    0.2632    0.6406    0.0000 N   0  0  0  0  0  0  0  0  0  0  0  0
    1.6322    1.1670    0.0000 N   0  0  0  0  0  0  0  0  0  0  0  0
   -1.2285    0.5704    0.0000 C   0  0  0  0  0  0  0  0  0  0  0  0
   -2.6852   -0.2720    0.0000 C   0  0  0  0  0  0  0  0  0  0  0  0
   -2.6676    0.5528    0.0000 C   0  0  0  0  0  0  0  0  0  0  0  0
   -0.5089    0.9740    0.0000 C   0  0  0  0  0  0  0  0  0  0  0  0
   -1.2636   -0.2545    0.0000 C   0  0  0  0  0  0  0  0  0  0  0  0
   -1.9481    0.9565    0.0000 C   0  0  0  0  0  0  0  0  0  0  0  0
   -3.3871   -0.6932    0.0000 C   0  0  0  0  0  0  0  0  0  0  0  0
    0.7898    1.2548    0.0000 C   0  0  0  0  0  0  0  0  0  0  0  0
   -0.4037    1.7989    0.0000 C   0  0  0  0  0  0  0  0  0  0  0  0
   -3.3871    0.9389    0.0000 C   0  0  0  0  0  0  0  0  0  0  0  0
   -4.0892   -0.2720    0.0000 C   0  0  0  0  0  0  0  0  0  0  0  0
   -3.3871   -1.5532    0.0000 C   0  0  0  0  0  0  0  0  0  0  0  0
   -4.0892    0.5353    0.0000 C   0  0  0  0  0  0  0  0  0  0  0  0
    1.9831    0.4124    0.0000 C   0  0  0  0  0  0  0  0  0  0  0  0
    2.7904    0.3247    0.0000 C   0  0  0  0  0  0  0  0  0  0  0  0
    1.4917   -0.2545    0.0000 C   0  0  0  0  0  0  0  0  0  0  0  0
    3.1239   -0.4475    0.0000 C   0  0  0  0  0  0  0  0  0  0  0  0
    1.8252   -1.0091    0.0000 C   0  0  0  0  0  0  0  0  0  0  0  0
    2.6500   -1.0968    0.0000 C   0  0  0  0  0  0  0  0  0  0  0  0
    4.0892    0.9038    0.0000 C   0  0  0  0  0  0  0  0  0  0  0  0
  1 16  1  0  0  0  0
  1 17  1  0  0  0  0
  2 10  1  0  0  0  0
  2 13  1  0  0  0  0
  3 13  2  0  0  0  0
  4 20  2  0  0  0  0
  5 20  1  0  0  0  0
  6 23  1  0  0  0  0
  6 28  1  0  0  0  0
  7 12  1  0  0  0  0
  7 16  2  0  0  0  0
  8 16  1  0  0  0  0
  8 22  1  0  0  0  0
  9 12  1  0  0  0  0
  9 13  1  0  0  0  0
  9 14  2  0  0  0  0
 10 11  1  0  0  0  0
 10 15  2  0  0  0  0
 11 14  1  0  0  0  0
 11 18  2  0  0  0  0
 12 17  2  0  0  0  0
 15 19  1  0  0  0  0
 15 20  1  0  0  0  0
 18 21  1  0  0  0  0
 19 21  2  0  0  0  0
 22 23  1  0  0  0  0
 22 24  2  0  0  0  0
 23 25  2  0  0  0  0
 24 26  1  0  0  0  0
 25 27  1  0  0  0  0
 26 27  2  0  0  0  0
M  END
> <PUBCHEM_COMPOUND_ID_TYPE>
0

> <PUBCHEM_TOTAL_CHARGE>
0

> <PUBCHEM_SUBSTANCE_ID>
310941582

> <PUBCHEM_SUBSTANCE_VERSION>
1

> <PUBCHEM_EXT_DATASOURCE_NAME>
4488

> <PUBCHEM_EXT_DATASOURCE_REGID>
SCHEMBL16119613

> <PUBCHEM_SUBSTANCE_COMMENT>
InChI=1S/C20H14N2O5S/c1-26-16-8-3-2-7-14(16)21-20-22-15(10-28-20)13-9-11-5-4-6-12(18(23)24)17(11)27-19(13)25/h2-10H,1H3,(H,21,22)(H,23,24)
InChIKey=IHLKDFZPUHOIHY-UHFFFAOYSA-N

> <PUBCHEM_SUBSTANCE_SYNONYM>
SCHEMBL16119613

> <PUBCHEM_XREF_EXT_ID>
SCHEMBL16119613

> <PUBCHEM_EXT_DATASOURCE_URL>
https://www.surechembl.org/

> <PUBCHEM_EXT_SUBSTANCE_URL>
https://www.surechembl.org/chemical/SCHEMBL16119613

> <PUBCHEM_CID_ASSOCIATIONS>
117608384  1

> <PUBCHEM_COORDINATE_TYPE>
1
3

$$$$
