310949933
  -OEChem-07211613022D

 30 34  0     1  0  0  0  0  0999 V2000
   -0.6096    1.6280    0.0000 N   0  0  0  0  0  0  0  0  0  0  0  0
   -0.6096    2.9719    0.0000 N   0  0  0  0  0  0  0  0  0  0  0  0
    0.1524   -0.7413    0.0000 N   0  0  0  0  0  0  0  0  0  0  0  0
    1.9812    1.8912    0.0000 N   0  0  0  0  0  0  0  0  0  0  0  0
   -0.1385    2.3069    0.0000 C   0  0  0  0  0  0  0  0  0  0  0  0
   -1.4132    1.9051    0.0000 C   0  0  0  0  0  0  0  0  0  0  0  0
   -1.4132    2.7225    0.0000 C   0  0  0  0  0  0  0  0  0  0  0  0
   -0.3602    0.8521    0.0000 C   0  0  0  0  0  0  0  0  0  0  0  0
    0.7204    2.2930    0.0000 C   0  0  3  0  0  0  0  0  0  0  0  0
   -2.1198    1.4894    0.0000 C   0  0  0  0  0  0  0  0  0  0  0  0
   -2.1336    3.1243    0.0000 C   0  0  0  0  0  0  0  0  0  0  0  0
   -0.9145    0.2286    0.0000 C   0  0  0  0  0  0  0  0  0  0  0  0
    0.4572    0.6720    0.0000 C   0  0  0  0  0  0  0  0  0  0  0  0
    1.2193   -1.6973    0.0000 C   0  0  0  0  0  0  0  0  0  0  0  0
    1.7595   -1.0599    0.0000 C   0  0  0  0  0  0  0  0  0  0  0  0
    1.1915    1.6418    0.0000 C   0  0  0  0  0  0  0  0  0  0  0  0
    1.1776    2.9580    0.0000 C   0  0  0  0  0  0  0  0  0  0  0  0
   -0.6650   -0.5473    0.0000 C   0  0  0  0  0  0  0  0  0  0  0  0
    0.7066   -0.1178    0.0000 C   0  0  0  0  0  0  0  0  0  0  0  0
   -2.8403    1.8912    0.0000 C   0  0  0  0  0  0  0  0  0  0  0  0
    0.4156   -1.5171    0.0000 C   0  0  0  0  0  0  0  0  0  0  0  0
   -2.8403    2.7225    0.0000 C   0  0  0  0  0  0  0  0  0  0  0  0
    1.4825   -2.4592    0.0000 C   0  0  0  0  0  0  0  0  0  0  0  0
    1.9812    2.7225    0.0000 C   0  0  0  0  0  0  0  0  0  0  0  0
    2.5770   -1.2539    0.0000 C   0  0  0  0  0  0  0  0  0  0  0  0
    2.2860   -2.6532    0.0000 C   0  0  0  0  0  0  0  0  0  0  0  0
    2.8403   -2.0436    0.0000 C   0  0  0  0  0  0  0  0  0  0  0  0
    1.1500   -0.5196    0.0000 C   0  0  0  0  0  0  0  0  0  0  0  0
    1.9397   -0.2563    0.0000 C   0  0  0  0  0  0  0  0  0  0  0  0
    0.9283   -3.1243    0.0000 C   0  0  0  0  0  0  0  0  0  0  0  0
  1  5  1  0  0  0  0
  1  6  1  0  0  0  0
  1  8  1  0  0  0  0
  2  5  2  0  0  0  0
  2  7  1  0  0  0  0
  3 18  1  0  0  0  0
  3 19  1  0  0  0  0
  3 21  1  0  0  0  0
  4 16  1  0  0  0  0
  4 24  1  0  0  0  0
  9  5  1  6  0  0  0
  6  7  1  0  0  0  0
  6 10  2  0  0  0  0
  7 11  2  0  0  0  0
  8 12  1  0  0  0  0
  8 13  1  0  0  0  0
  9 16  1  0  0  0  0
  9 17  1  0  0  0  0
 10 20  1  0  0  0  0
 11 22  1  0  0  0  0
 12 18  1  0  0  0  0
 13 19  1  0  0  0  0
 14 15  1  0  0  0  0
 14 21  1  0  0  0  0
 14 23  2  0  0  0  0
 15 25  1  0  0  0  0
 15 28  1  0  0  0  0
 15 29  1  0  0  0  0
 17 24  1  0  0  0  0
 20 22  2  0  0  0  0
 23 26  1  0  0  0  0
 23 30  1  0  0  0  0
 25 27  1  0  0  0  0
 26 27  1  0  0  0  0
M  END
> <PUBCHEM_COMPOUND_ID_TYPE>
0

> <PUBCHEM_TOTAL_CHARGE>
0

> <PUBCHEM_SUBSTANCE_ID>
310949933

> <PUBCHEM_SUBSTANCE_VERSION>
1

> <PUBCHEM_EXT_DATASOURCE_NAME>
4488

> <PUBCHEM_EXT_DATASOURCE_REGID>
SCHEMBL16128160

> <PUBCHEM_SUBSTANCE_COMMENT>
InChI=1S/C26H38N4/c1-19-7-6-13-26(2,3)22(19)18-29-15-11-21(12-16-29)30-24-9-5-4-8-23(24)28-25(30)20-10-14-27-17-20/h4-5,8-9,20-21,27H,6-7,10-18H2,1-3H3/t20-/m1/s1
InChIKey=CZDCCOVRQVSKEE-HXUWFJFHSA-N

> <PUBCHEM_SUBSTANCE_SYNONYM>
SCHEMBL16128160

> <PUBCHEM_XREF_EXT_ID>
SCHEMBL16128160

> <PUBCHEM_EXT_DATASOURCE_URL>
https://www.surechembl.org/

> <PUBCHEM_EXT_SUBSTANCE_URL>
https://www.surechembl.org/chemical/SCHEMBL16128160

> <PUBCHEM_CID_ASSOCIATIONS>
86273812  1

> <PUBCHEM_COORDINATE_TYPE>
1
3

> <PUBCHEM_BONDANNOTATIONS>
9  5  6

$$$$
