310942998
  -OEChem-07211613022D

 20 22  0     0  0  0  0  0  0999 V2000
   -0.7111   -2.5026    0.0000 Cl  0  0  0  0  0  0  0  0  0  0  0  0
   -2.1611    0.0070    0.0000 N   0  0  0  0  0  0  0  0  0  0  0  0
   -0.7250    0.0209    0.0000 C   0  0  0  0  0  0  0  0  0  0  0  0
    0.0140   -0.3974    0.0000 C   0  0  0  0  0  0  0  0  0  0  0  0
   -1.4361   -0.3974    0.0000 C   0  0  0  0  0  0  0  0  0  0  0  0
   -0.7111    0.8574    0.0000 C   0  0  0  0  0  0  0  0  0  0  0  0
    0.7111    0.0209    0.0000 C   0  0  0  0  0  0  0  0  0  0  0  0
    0.0000   -1.2339    0.0000 C   0  0  0  0  0  0  0  0  0  0  0  0
   -0.7111   -1.6522    0.0000 C   0  0  0  0  0  0  0  0  0  0  0  0
   -1.4361   -1.2339    0.0000 C   0  0  0  0  0  0  0  0  0  0  0  0
   -0.0140    1.2757    0.0000 C   0  0  0  0  0  0  0  0  0  0  0  0
   -1.4361    1.2618    0.0000 C   0  0  0  0  0  0  0  0  0  0  0  0
    0.7250    0.8574    0.0000 C   0  0  0  0  0  0  0  0  0  0  0  0
    1.4500   -0.3834    0.0000 C   0  0  0  0  0  0  0  0  0  0  0  0
   -0.0140    2.0983    0.0000 C   0  0  0  0  0  0  0  0  0  0  0  0
   -1.4361    2.0844    0.0000 C   0  0  0  0  0  0  0  0  0  0  0  0
    1.4361    1.2618    0.0000 C   0  0  0  0  0  0  0  0  0  0  0  0
    2.1611    0.0348    0.0000 C   0  0  0  0  0  0  0  0  0  0  0  0
   -0.7250    2.5026    0.0000 C   0  0  0  0  0  0  0  0  0  0  0  0
    2.1611    0.8574    0.0000 C   0  0  0  0  0  0  0  0  0  0  0  0
  1  9  1  0  0  0  0
  2  5  1  0  0  0  0
  3  4  2  0  0  0  0
  3  5  1  0  0  0  0
  3  6  1  0  0  0  0
  4  7  1  0  0  0  0
  4  8  1  0  0  0  0
  5 10  2  0  0  0  0
  6 11  2  0  0  0  0
  6 12  1  0  0  0  0
  7 13  2  0  0  0  0
  7 14  1  0  0  0  0
  8  9  2  0  0  0  0
  9 10  1  0  0  0  0
 11 15  1  0  0  0  0
 12 16  2  0  0  0  0
 13 17  1  0  0  0  0
 14 18  2  0  0  0  0
 15 19  2  0  0  0  0
 16 19  1  0  0  0  0
 17 20  2  0  0  0  0
 18 20  1  0  0  0  0
M  END
> <PUBCHEM_COMPOUND_ID_TYPE>
0

> <PUBCHEM_TOTAL_CHARGE>
0

> <PUBCHEM_SUBSTANCE_ID>
310942998

> <PUBCHEM_SUBSTANCE_VERSION>
1

> <PUBCHEM_EXT_DATASOURCE_NAME>
4488

> <PUBCHEM_EXT_DATASOURCE_REGID>
SCHEMBL16121057

> <PUBCHEM_SUBSTANCE_COMMENT>
InChI=1S/C18H14ClN/c19-15-11-16(13-7-3-1-4-8-13)18(17(20)12-15)14-9-5-2-6-10-14/h1-12H,20H2
InChIKey=SEPSXRJMJPKWDR-UHFFFAOYSA-N

> <PUBCHEM_SUBSTANCE_SYNONYM>
SCHEMBL16121057

> <PUBCHEM_XREF_EXT_ID>
SCHEMBL16121057

> <PUBCHEM_EXT_DATASOURCE_URL>
https://www.surechembl.org/

> <PUBCHEM_EXT_SUBSTANCE_URL>
https://www.surechembl.org/chemical/SCHEMBL16121057

> <PUBCHEM_CID_ASSOCIATIONS>
117609451  1

> <PUBCHEM_COORDINATE_TYPE>
1
3

$$$$
