310936694
  -OEChem-07211613022D

 60 67  0     0  0  0  0  0  0999 V2000
    0.7145   -1.6500    0.0000 N   0  0  0  0  0  0  0  0  0  0  0  0
    0.7145    4.1250    0.0000 N   0  0  0  0  0  0  0  0  0  0  0  0
    0.7145    0.8250    0.0000 C   0  0  0  0  0  0  0  0  0  0  0  0
    0.0000    0.4125    0.0000 C   0  0  0  0  0  0  0  0  0  0  0  0
    0.7145   -0.8250    0.0000 C   0  0  0  0  0  0  0  0  0  0  0  0
    0.0000   -0.4125    0.0000 C   0  0  0  0  0  0  0  0  0  0  0  0
    1.4290    0.4125    0.0000 C   0  0  0  0  0  0  0  0  0  0  0  0
    0.7145    1.6500    0.0000 C   0  0  0  0  0  0  0  0  0  0  0  0
    1.4290    2.0625    0.0000 C   0  0  0  0  0  0  0  0  0  0  0  0
    1.4290   -0.4125    0.0000 C   0  0  0  0  0  0  0  0  0  0  0  0
    2.1434    0.8250    0.0000 C   0  0  0  0  0  0  0  0  0  0  0  0
    0.7145    3.3000    0.0000 C   0  0  0  0  0  0  0  0  0  0  0  0
    0.0000    2.0625    0.0000 C   0  0  0  0  0  0  0  0  0  0  0  0
   -0.7145    0.8250    0.0000 C   0  0  0  0  0  0  0  0  0  0  0  0
    2.1434    1.6500    0.0000 C   0  0  0  0  0  0  0  0  0  0  0  0
    0.0000   -2.0625    0.0000 C   0  0  0  0  0  0  0  0  0  0  0  0
    1.4290   -2.0625    0.0000 C   0  0  0  0  0  0  0  0  0  0  0  0
    1.4290    2.8875    0.0000 C   0  0  0  0  0  0  0  0  0  0  0  0
   -0.7145   -0.8250    0.0000 C   0  0  0  0  0  0  0  0  0  0  0  0
    0.0000    2.8875    0.0000 C   0  0  0  0  0  0  0  0  0  0  0  0
   -1.4290    0.4125    0.0000 C   0  0  0  0  0  0  0  0  0  0  0  0
   -1.4290   -0.4125    0.0000 C   0  0  0  0  0  0  0  0  0  0  0  0
    1.4290    4.5375    0.0000 C   0  0  0  0  0  0  0  0  0  0  0  0
    0.0000    4.5375    0.0000 C   0  0  0  0  0  0  0  0  0  0  0  0
   -0.7145   -1.6500    0.0000 C   0  0  0  0  0  0  0  0  0  0  0  0
    1.4290   -2.8875    0.0000 C   0  0  0  0  0  0  0  0  0  0  0  0
    0.0000   -2.8875    0.0000 C   0  0  0  0  0  0  0  0  0  0  0  0
    2.1434   -1.6500    0.0000 C   0  0  0  0  0  0  0  0  0  0  0  0
   -1.4290   -2.8875    0.0000 C   0  0  0  0  0  0  0  0  0  0  0  0
    2.8579   -2.8875    0.0000 C   0  0  0  0  0  0  0  0  0  0  0  0
   -1.4290   -2.0625    0.0000 C   0  0  0  0  0  0  0  0  0  0  0  0
    2.1434   -3.3000    0.0000 C   0  0  0  0  0  0  0  0  0  0  0  0
   -0.7145   -3.3000    0.0000 C   0  0  0  0  0  0  0  0  0  0  0  0
    2.8579   -2.0625    0.0000 C   0  0  0  0  0  0  0  0  0  0  0  0
    2.1434    4.1250    0.0000 C   0  0  0  0  0  0  0  0  0  0  0  0
    0.0000    5.3625    0.0000 C   0  0  0  0  0  0  0  0  0  0  0  0
    1.4290    5.3625    0.0000 C   0  0  0  0  0  0  0  0  0  0  0  0
   -0.7145    4.1250    0.0000 C   0  0  0  0  0  0  0  0  0  0  0  0
   -2.1434   -3.3000    0.0000 C   0  0  0  0  0  0  0  0  0  0  0  0
    3.5724   -3.3000    0.0000 C   0  0  0  0  0  0  0  0  0  0  0  0
    2.8579    5.3625    0.0000 C   0  0  0  0  0  0  0  0  0  0  0  0
   -1.4290    5.3625    0.0000 C   0  0  0  0  0  0  0  0  0  0  0  0
    2.8579    4.5375    0.0000 C   0  0  0  0  0  0  0  0  0  0  0  0
   -0.7145    5.7750    0.0000 C   0  0  0  0  0  0  0  0  0  0  0  0
    2.1434    5.7750    0.0000 C   0  0  0  0  0  0  0  0  0  0  0  0
   -1.4290    4.5375    0.0000 C   0  0  0  0  0  0  0  0  0  0  0  0
    3.5724    5.7750    0.0000 C   0  0  0  0  0  0  0  0  0  0  0  0
   -2.1434    5.7750    0.0000 C   0  0  0  0  0  0  0  0  0  0  0  0
   -2.1434   -4.1250    0.0000 C   0  0  0  0  0  0  0  0  0  0  0  0
   -2.8579   -3.7125    0.0000 C   0  0  0  0  0  0  0  0  0  0  0  0
   -2.8579   -2.8875    0.0000 C   0  0  0  0  0  0  0  0  0  0  0  0
    4.2868   -3.7125    0.0000 C   0  0  0  0  0  0  0  0  0  0  0  0
    3.5724   -4.1250    0.0000 C   0  0  0  0  0  0  0  0  0  0  0  0
    4.2868   -2.8875    0.0000 C   0  0  0  0  0  0  0  0  0  0  0  0
    3.5724    6.6000    0.0000 C   0  0  0  0  0  0  0  0  0  0  0  0
    4.2868    6.1875    0.0000 C   0  0  0  0  0  0  0  0  0  0  0  0
    4.2868    5.3625    0.0000 C   0  0  0  0  0  0  0  0  0  0  0  0
   -2.8579    6.1875    0.0000 C   0  0  0  0  0  0  0  0  0  0  0  0
   -2.1434    6.6000    0.0000 C   0  0  0  0  0  0  0  0  0  0  0  0
   -2.8579    5.3625    0.0000 C   0  0  0  0  0  0  0  0  0  0  0  0
  1  5  1  0  0  0  0
  1 16  1  0  0  0  0
  1 17  1  0  0  0  0
  2 12  1  0  0  0  0
  2 23  1  0  0  0  0
  2 24  1  0  0  0  0
  3  4  2  0  0  0  0
  3  7  1  0  0  0  0
  3  8  1  0  0  0  0
  4  6  1  0  0  0  0
  4 14  1  0  0  0  0
  5  6  2  0  0  0  0
  5 10  1  0  0  0  0
  6 19  1  0  0  0  0
  7 10  2  0  0  0  0
  7 11  1  0  0  0  0
  8  9  2  0  0  0  0
  8 13  1  0  0  0  0
  9 15  1  0  0  0  0
  9 18  1  0  0  0  0
 11 15  1  0  0  0  0
 12 18  2  0  0  0  0
 12 20  1  0  0  0  0
 13 20  2  0  0  0  0
 14 21  2  0  0  0  0
 16 25  2  0  0  0  0
 16 27  1  0  0  0  0
 17 26  2  0  0  0  0
 17 28  1  0  0  0  0
 19 22  2  0  0  0  0
 21 22  1  0  0  0  0
 23 35  2  0  0  0  0
 23 37  1  0  0  0  0
 24 36  2  0  0  0  0
 24 38  1  0  0  0  0
 25 31  1  0  0  0  0
 26 32  1  0  0  0  0
 27 33  2  0  0  0  0
 28 34  2  0  0  0  0
 29 31  2  0  0  0  0
 29 33  1  0  0  0  0
 29 39  1  0  0  0  0
 30 32  2  0  0  0  0
 30 34  1  0  0  0  0
 30 40  1  0  0  0  0
 35 43  1  0  0  0  0
 36 44  1  0  0  0  0
 37 45  2  0  0  0  0
 38 46  2  0  0  0  0
 39 49  1  0  0  0  0
 39 50  1  0  0  0  0
 39 51  1  0  0  0  0
 40 52  1  0  0  0  0
 40 53  1  0  0  0  0
 40 54  1  0  0  0  0
 41 43  2  0  0  0  0
 41 45  1  0  0  0  0
 41 47  1  0  0  0  0
 42 44  2  0  0  0  0
 42 46  1  0  0  0  0
 42 48  1  0  0  0  0
 47 55  1  0  0  0  0
 47 56  1  0  0  0  0
 47 57  1  0  0  0  0
 48 58  1  0  0  0  0
 48 59  1  0  0  0  0
 48 60  1  0  0  0  0
M  END
> <PUBCHEM_COMPOUND_ID_TYPE>
0

> <PUBCHEM_TOTAL_CHARGE>
0

> <PUBCHEM_SUBSTANCE_ID>
310936694

> <PUBCHEM_SUBSTANCE_VERSION>
1

> <PUBCHEM_EXT_DATASOURCE_NAME>
4488

> <PUBCHEM_EXT_DATASOURCE_REGID>
SCHEMBL16114369

> <PUBCHEM_SUBSTANCE_COMMENT>
InChI=1S/C58H64N2/c1-55(2,3)41-19-27-45(28-20-41)59(46-29-21-42(22-30-46)56(4,5)6)49-35-36-50-39(37-49)17-18-40-38-53(51-15-13-14-16-52(51)54(40)50)60(47-31-23-43(24-32-47)57(7,8)9)48-33-25-44(26-34-48)58(10,11)12/h13-16,19-38H,17-18H2,1-12H3
InChIKey=LPUQNDWJXIYSPH-UHFFFAOYSA-N

> <PUBCHEM_SUBSTANCE_SYNONYM>
SCHEMBL16114369

> <PUBCHEM_XREF_EXT_ID>
SCHEMBL16114369

> <PUBCHEM_EXT_DATASOURCE_URL>
https://www.surechembl.org/

> <PUBCHEM_EXT_SUBSTANCE_URL>
https://www.surechembl.org/chemical/SCHEMBL16114369

> <PUBCHEM_CID_ASSOCIATIONS>
117604597  1

> <PUBCHEM_COORDINATE_TYPE>
1
3

$$$$
