310939901
  -OEChem-07211613022D

 28 30  0     0  0  0  0  0  0999 V2000
   -1.7862    4.7084    0.0000 Cl  0  0  0  0  0  0  0  0  0  0  0  0
    1.0717    4.7084    0.0000 Cl  0  0  0  0  0  0  0  0  0  0  0  0
    1.0717    3.0584    0.0000 O   0  0  0  0  0  0  0  0  0  0  0  0
   -0.3572   -3.8834    0.0000 O   0  0  0  0  0  0  0  0  0  0  0  0
   -0.3572    2.2334    0.0000 O   0  0  0  0  0  0  0  0  0  0  0  0
   -1.0717   -0.6541    0.0000 N   0  0  0  0  0  0  0  0  0  0  0  0
   -1.0717   -2.6459    0.0000 N   0  0  0  0  0  0  0  0  0  0  0  0
   -1.0717    0.9959    0.0000 N   0  0  0  0  0  0  0  0  0  0  0  0
   -1.7862    3.0584    0.0000 N   0  0  0  0  0  0  0  0  0  0  0  0
   -1.0717   -1.4791    0.0000 C   0  0  0  0  0  0  0  0  0  0  0  0
   -1.6551   -2.0625    0.0000 C   0  0  0  0  0  0  0  0  0  0  0  0
   -0.4883   -2.0625    0.0000 C   0  0  0  0  0  0  0  0  0  0  0  0
   -1.0717    3.4709    0.0000 C   0  0  0  0  0  0  0  0  0  0  0  0
   -1.0717   -3.4709    0.0000 C   0  0  0  0  0  0  0  0  0  0  0  0
   -1.7862   -0.2416    0.0000 C   0  0  0  0  0  0  0  0  0  0  0  0
   -0.3572   -0.2416    0.0000 C   0  0  0  0  0  0  0  0  0  0  0  0
   -1.0717    4.2959    0.0000 C   0  0  0  0  0  0  0  0  0  0  0  0
    0.3572    3.4709    0.0000 C   0  0  0  0  0  0  0  0  0  0  0  0
   -1.0717    1.8209    0.0000 C   0  0  0  0  0  0  0  0  0  0  0  0
   -1.7862    0.5834    0.0000 C   0  0  0  0  0  0  0  0  0  0  0  0
   -0.3572    0.5834    0.0000 C   0  0  0  0  0  0  0  0  0  0  0  0
    0.3572    4.2959    0.0000 C   0  0  0  0  0  0  0  0  0  0  0  0
   -0.3572    3.0584    0.0000 C   0  0  0  0  0  0  0  0  0  0  0  0
   -0.3572    4.7084    0.0000 C   0  0  0  0  0  0  0  0  0  0  0  0
   -1.7862    2.2334    0.0000 C   0  0  0  0  0  0  0  0  0  0  0  0
   -1.7862   -3.8834    0.0000 C   0  0  0  0  0  0  0  0  0  0  0  0
   -1.7862   -4.7084    0.0000 C   0  0  0  0  0  0  0  0  0  0  0  0
    1.7862    3.4709    0.0000 C   0  0  0  0  0  0  0  0  0  0  0  0
  1 17  1  0  0  0  0
  2 22  1  0  0  0  0
  3 18  1  0  0  0  0
  3 28  1  0  0  0  0
  4 14  2  0  0  0  0
  5 19  2  0  0  0  0
  6 10  1  0  0  0  0
  6 15  1  0  0  0  0
  6 16  1  0  0  0  0
  7 11  1  0  0  0  0
  7 12  1  0  0  0  0
  7 14  1  0  0  0  0
  8 19  1  0  0  0  0
  8 20  1  0  0  0  0
  8 21  1  0  0  0  0
  9 13  1  0  0  0  0
  9 25  1  0  0  0  0
 10 11  1  0  0  0  0
 10 12  1  0  0  0  0
 13 17  1  0  0  0  0
 13 23  2  0  0  0  0
 14 26  1  0  0  0  0
 15 20  1  0  0  0  0
 16 21  1  0  0  0  0
 17 24  2  0  0  0  0
 18 22  2  0  0  0  0
 18 23  1  0  0  0  0
 19 25  1  0  0  0  0
 22 24  1  0  0  0  0
 26 27  2  0  0  0  0
M  END
> <PUBCHEM_COMPOUND_ID_TYPE>
0

> <PUBCHEM_TOTAL_CHARGE>
0

> <PUBCHEM_SUBSTANCE_ID>
310939901

> <PUBCHEM_SUBSTANCE_VERSION>
1

> <PUBCHEM_EXT_DATASOURCE_NAME>
4488

> <PUBCHEM_EXT_DATASOURCE_REGID>
SCHEMBL16117831

> <PUBCHEM_SUBSTANCE_COMMENT>
InChI=1S/C19H24Cl2N4O3/c1-3-18(26)25-11-13(12-25)23-4-6-24(7-5-23)19(27)10-22-16-9-17(28-2)15(21)8-14(16)20/h3,8-9,13,22H,1,4-7,10-12H2,2H3
InChIKey=AMWWFELFOIOUBG-UHFFFAOYSA-N

> <PUBCHEM_SUBSTANCE_SYNONYM>
SCHEMBL16117831

> <PUBCHEM_XREF_EXT_ID>
SCHEMBL16117831

> <PUBCHEM_EXT_DATASOURCE_URL>
https://www.surechembl.org/

> <PUBCHEM_EXT_SUBSTANCE_URL>
https://www.surechembl.org/chemical/SCHEMBL16117831

> <PUBCHEM_CID_ASSOCIATIONS>
86279629  1

> <PUBCHEM_COORDINATE_TYPE>
1
3

$$$$
