310948137
  -OEChem-07211613022D

 44 48  0     0  0  0  0  0  0999 V2000
    3.9919    0.0169    0.0000 S   0  0  0  0  0  0  0  0  0  0  0  0
   -3.6037   -0.0169    0.0000 F   0  0  0  0  0  0  0  0  0  0  0  0
   -2.4390    0.1688    0.0000 F   0  0  0  0  0  0  0  0  0  0  0  0
    4.2619    2.8694    0.0000 F   0  0  0  0  0  0  0  0  0  0  0  0
    3.1479    2.5487    0.0000 F   0  0  0  0  0  0  0  0  0  0  0  0
    4.5320    1.7385    0.0000 F   0  0  0  0  0  0  0  0  0  0  0  0
   -4.2450   -1.0802    0.0000 O   0  0  0  0  0  0  0  0  0  0  0  0
    3.4349    1.4516    0.0000 O   0  0  0  0  0  0  0  0  0  0  0  0
    3.2661    0.4389    0.0000 O   0  0  0  0  0  0  0  0  0  0  0  0
    4.7176   -0.3883    0.0000 O   0  0  0  0  0  0  0  0  0  0  0  0
   -0.1604    0.0337    0.0000 N   0  0  0  0  0  0  0  0  0  0  0  0
   -1.4769   -2.0592    0.0000 N   0  0  0  0  0  0  0  0  0  0  0  0
   -2.2702   -1.8061    0.0000 N   0  0  0  0  0  0  0  0  0  0  0  0
   -0.9874    0.1182    0.0000 N   0  0  0  0  0  0  0  0  0  0  0  0
   -1.1562    0.9283    0.0000 N   0  0  0  0  0  0  0  0  0  0  0  0
    0.2616   -0.6751    0.0000 C   0  0  0  0  0  0  0  0  0  0  0  0
   -0.1434   -1.4009    0.0000 C   0  0  0  0  0  0  0  0  0  0  0  0
   -0.9874   -1.3841    0.0000 C   0  0  0  0  0  0  0  0  0  0  0  0
    0.1773    0.7933    0.0000 C   0  0  0  0  0  0  0  0  0  0  0  0
   -2.2365   -0.9789    0.0000 C   0  0  0  0  0  0  0  0  0  0  0  0
    1.1056   -0.7089    0.0000 C   0  0  0  0  0  0  0  0  0  0  0  0
    1.4938   -1.3841    0.0000 C   0  0  0  0  0  0  0  0  0  0  0  0
   -1.4432   -0.7596    0.0000 C   0  0  0  0  0  0  0  0  0  0  0  0
    0.2616   -2.0930    0.0000 C   0  0  0  0  0  0  0  0  0  0  0  0
   -2.9285   -0.4895    0.0000 C   0  0  0  0  0  0  0  0  0  0  0  0
    0.9874    0.9621    0.0000 C   0  0  0  0  0  0  0  0  0  0  0  0
    1.1056   -2.0930    0.0000 C   0  0  0  0  0  0  0  0  0  0  0  0
    2.3378   -1.4009    0.0000 C   0  0  0  0  0  0  0  0  0  0  0  0
   -0.4304    1.3335    0.0000 C   0  0  0  0  0  0  0  0  0  0  0  0
    2.7597   -0.7089    0.0000 C   0  0  0  0  0  0  0  0  0  0  0  0
    3.5699   -0.6921    0.0000 C   0  0  0  0  0  0  0  0  0  0  0  0
    1.2744    1.7385    0.0000 C   0  0  0  0  0  0  0  0  0  0  0  0
    1.5782    0.3544    0.0000 C   0  0  0  0  0  0  0  0  0  0  0  0
   -3.4180   -1.1647    0.0000 C   0  0  0  0  0  0  0  0  0  0  0  0
   -1.1899   -2.8694    0.0000 C   0  0  0  0  0  0  0  0  0  0  0  0
    2.7597   -2.0930    0.0000 C   0  0  0  0  0  0  0  0  0  0  0  0
    2.6247    1.3166    0.0000 C   0  0  0  0  0  0  0  0  0  0  0  0
    2.0677    1.8904    0.0000 C   0  0  0  0  0  0  0  0  0  0  0  0
    2.3546    0.5232    0.0000 C   0  0  0  0  0  0  0  0  0  0  0  0
    3.9919   -1.3841    0.0000 C   0  0  0  0  0  0  0  0  0  0  0  0
    3.5868   -2.0930    0.0000 C   0  0  0  0  0  0  0  0  0  0  0  0
    3.8569    2.1436    0.0000 C   0  0  0  0  0  0  0  0  0  0  0  0
    4.4138    0.7596    0.0000 C   0  0  0  0  0  0  0  0  0  0  0  0
   -4.7176   -1.7723    0.0000 C   0  0  0  0  0  0  0  0  0  0  0  0
  1  9  2  0  0  0  0
  1 10  2  0  0  0  0
  1 31  1  0  0  0  0
  1 43  1  0  0  0  0
  2 25  1  0  0  0  0
  3 25  1  0  0  0  0
  4 42  1  0  0  0  0
  5 42  1  0  0  0  0
  6 42  1  0  0  0  0
  7 34  1  0  0  0  0
  7 44  1  0  0  0  0
  8 37  1  0  0  0  0
  8 42  1  0  0  0  0
 11 14  1  0  0  0  0
 11 16  1  0  0  0  0
 11 19  1  0  0  0  0
 12 13  1  0  0  0  0
 12 18  1  0  0  0  0
 12 35  1  0  0  0  0
 13 20  2  0  0  0  0
 14 15  2  0  0  0  0
 15 29  1  0  0  0  0
 16 17  1  0  0  0  0
 16 21  2  0  0  0  0
 17 18  1  0  0  0  0
 17 24  2  0  0  0  0
 18 23  2  0  0  0  0
 19 26  1  0  0  0  0
 19 29  2  0  0  0  0
 20 23  1  0  0  0  0
 20 25  1  0  0  0  0
 21 22  1  0  0  0  0
 22 27  2  0  0  0  0
 22 28  1  0  0  0  0
 24 27  1  0  0  0  0
 25 34  1  0  0  0  0
 26 32  2  0  0  0  0
 26 33  1  0  0  0  0
 28 30  1  0  0  0  0
 28 36  2  0  0  0  0
 30 31  2  0  0  0  0
 31 40  1  0  0  0  0
 32 38  1  0  0  0  0
 33 39  2  0  0  0  0
 36 41  1  0  0  0  0
 37 38  2  0  0  0  0
 37 39  1  0  0  0  0
 40 41  2  0  0  0  0
M  END
> <PUBCHEM_COMPOUND_ID_TYPE>
0

> <PUBCHEM_TOTAL_CHARGE>
0

> <PUBCHEM_SUBSTANCE_ID>
310948137

> <PUBCHEM_SUBSTANCE_VERSION>
1

> <PUBCHEM_EXT_DATASOURCE_NAME>
4488

> <PUBCHEM_EXT_DATASOURCE_REGID>
SCHEMBL16126313

> <PUBCHEM_SUBSTANCE_COMMENT>
InChI=1S/C29H24F5N5O4S/c1-38-24(15-27(36-38)28(30,31)17-42-2)23-12-9-20(19-5-4-6-22(13-19)44(3,40)41)14-25(23)39-26(16-35-37-39)18-7-10-21(11-8-18)43-29(32,33)34/h4-16H,17H2,1-3H3
InChIKey=CIPXRMLASBCQJG-UHFFFAOYSA-N

> <PUBCHEM_SUBSTANCE_SYNONYM>
SCHEMBL16126313

> <PUBCHEM_XREF_EXT_ID>
SCHEMBL16126313

> <PUBCHEM_EXT_DATASOURCE_URL>
https://www.surechembl.org/

> <PUBCHEM_EXT_SUBSTANCE_URL>
https://www.surechembl.org/chemical/SCHEMBL16126313

> <PUBCHEM_CID_ASSOCIATIONS>
86276004  1

> <PUBCHEM_COORDINATE_TYPE>
1
3

$$$$
