310935306
  -OEChem-07211613022D

 44 48  0     0  0  0  0  0  0999 V2000
   -6.1795   -6.7474    0.0000 S   0  0  0  0  0  0  0  0  0  0  0  0
   -5.7670   -2.1778    0.0000 F   0  0  0  0  0  0  0  0  0  0  0  0
  -16.2727  -10.6859    0.0000 F   0  0  0  0  0  0  0  0  0  0  0  0
  -15.7431   -9.6464    0.0000 F   0  0  0  0  0  0  0  0  0  0  0  0
  -15.2332  -11.2156    0.0000 F   0  0  0  0  0  0  0  0  0  0  0  0
   -4.3149   -5.7078    0.0000 O   0  0  0  0  0  0  0  0  0  0  0  0
  -14.7035  -10.1760    0.0000 O   0  0  0  0  0  0  0  0  0  0  0  0
   -7.6606   -7.0668    0.0000 O   0  0  0  0  0  0  0  0  0  0  0  0
   -5.7670   -5.4778    0.0000 N   0  0  0  0  0  0  0  0  0  0  0  0
  -13.1343   -9.6662    0.0000 N   0  0  0  0  0  0  0  0  0  0  0  0
   -7.2190   -5.7078    0.0000 N   0  0  0  0  0  0  0  0  0  0  0  0
  -12.3806   -9.3306    0.0000 N   0  0  0  0  0  0  0  0  0  0  0  0
  -13.2738   -8.3386    0.0000 N   0  0  0  0  0  0  0  0  0  0  0  0
   -8.6167   -6.0049    0.0000 N   0  0  0  0  0  0  0  0  0  0  0  0
   -5.7670   -4.6528    0.0000 C   0  0  0  0  0  0  0  0  0  0  0  0
   -6.4344   -5.9627    0.0000 C   0  0  0  0  0  0  0  0  0  0  0  0
   -5.0525   -4.2403    0.0000 C   0  0  0  0  0  0  0  0  0  0  0  0
   -5.0995   -5.9627    0.0000 C   0  0  0  0  0  0  0  0  0  0  0  0
   -6.4814   -4.2403    0.0000 C   0  0  0  0  0  0  0  0  0  0  0  0
  -13.3058  -10.4731    0.0000 C   0  0  0  0  0  0  0  0  0  0  0  0
   -5.3545   -6.7474    0.0000 C   0  0  0  0  0  0  0  0  0  0  0  0
   -5.0525   -3.4153    0.0000 C   0  0  0  0  0  0  0  0  0  0  0  0
  -12.4668   -8.5101    0.0000 C   0  0  0  0  0  0  0  0  0  0  0  0
   -4.3380   -4.6528    0.0000 C   0  0  0  0  0  0  0  0  0  0  0  0
  -14.0904  -10.7281    0.0000 C   0  0  0  0  0  0  0  0  0  0  0  0
   -5.7670   -3.0028    0.0000 C   0  0  0  0  0  0  0  0  0  0  0  0
   -6.4814   -3.4153    0.0000 C   0  0  0  0  0  0  0  0  0  0  0  0
  -11.8537   -7.9581    0.0000 C   0  0  0  0  0  0  0  0  0  0  0  0
  -13.6863   -9.0531    0.0000 C   0  0  0  0  0  0  0  0  0  0  0  0
   -7.8321   -6.2598    0.0000 C   0  0  0  0  0  0  0  0  0  0  0  0
  -12.6927  -11.0252    0.0000 C   0  0  0  0  0  0  0  0  0  0  0  0
  -14.2619  -11.5351    0.0000 C   0  0  0  0  0  0  0  0  0  0  0  0
  -15.4881  -10.4310    0.0000 C   0  0  0  0  0  0  0  0  0  0  0  0
  -12.0253   -7.1511    0.0000 C   0  0  0  0  0  0  0  0  0  0  0  0
  -11.0691   -8.2130    0.0000 C   0  0  0  0  0  0  0  0  0  0  0  0
  -12.8642  -11.8321    0.0000 C   0  0  0  0  0  0  0  0  0  0  0  0
  -10.6275   -6.8540    0.0000 C   0  0  0  0  0  0  0  0  0  0  0  0
  -13.6488  -12.0871    0.0000 C   0  0  0  0  0  0  0  0  0  0  0  0
   -4.0831   -5.4374    0.0000 C   0  0  0  0  0  0  0  0  0  0  0  0
   -3.6235   -4.2403    0.0000 C   0  0  0  0  0  0  0  0  0  0  0  0
  -11.4122   -6.5991    0.0000 C   0  0  0  0  0  0  0  0  0  0  0  0
  -10.4560   -7.6610    0.0000 C   0  0  0  0  0  0  0  0  0  0  0  0
  -10.0144   -6.3020    0.0000 C   0  0  0  0  0  0  0  0  0  0  0  0
   -9.2298   -6.5569    0.0000 C   0  0  0  0  0  0  0  0  0  0  0  0
  1 16  1  0  0  0  0
  1 21  1  0  0  0  0
  2 26  1  0  0  0  0
  3 33  1  0  0  0  0
  4 33  1  0  0  0  0
  5 33  1  0  0  0  0
  6 18  2  0  0  0  0
  7 25  1  0  0  0  0
  7 33  1  0  0  0  0
  8 30  2  0  0  0  0
  9 15  1  0  0  0  0
  9 16  1  0  0  0  0
  9 18  1  0  0  0  0
 10 12  1  0  0  0  0
 10 20  1  0  0  0  0
 10 29  1  0  0  0  0
 11 16  2  0  0  0  0
 11 30  1  0  0  0  0
 12 23  2  0  0  0  0
 13 23  1  0  0  0  0
 13 29  2  0  0  0  0
 14 30  1  0  0  0  0
 14 44  1  0  0  0  0
 15 17  2  0  0  0  0
 15 19  1  0  0  0  0
 17 22  1  0  0  0  0
 17 24  1  0  0  0  0
 18 21  1  0  0  0  0
 19 27  2  0  0  0  0
 20 25  2  0  0  0  0
 20 31  1  0  0  0  0
 22 26  2  0  0  0  0
 23 28  1  0  0  0  0
 24 39  1  0  0  0  0
 24 40  1  0  0  0  0
 25 32  1  0  0  0  0
 26 27  1  0  0  0  0
 28 34  2  0  0  0  0
 28 35  1  0  0  0  0
 31 36  2  0  0  0  0
 32 38  2  0  0  0  0
 34 41  1  0  0  0  0
 35 42  2  0  0  0  0
 36 38  1  0  0  0  0
 37 41  2  0  0  0  0
 37 42  1  0  0  0  0
 37 43  1  0  0  0  0
 43 44  1  0  0  0  0
M  END
> <PUBCHEM_COMPOUND_ID_TYPE>
0

> <PUBCHEM_TOTAL_CHARGE>
0

> <PUBCHEM_SUBSTANCE_ID>
310935306

> <PUBCHEM_SUBSTANCE_VERSION>
1

> <PUBCHEM_EXT_DATASOURCE_NAME>
4488

> <PUBCHEM_EXT_DATASOURCE_REGID>
SCHEMBL16112839

> <PUBCHEM_SUBSTANCE_COMMENT>
InChI=1S/C30H26F4N6O3S/c1-18(2)22-15-21(31)11-12-23(22)40-26(41)16-44-29(40)37-28(42)35-14-13-19-7-9-20(10-8-19)27-36-17-39(38-27)24-5-3-4-6-25(24)43-30(32,33)34/h3-12,15,17-18H,13-14,16H2,1-2H3,(H,35,42)
InChIKey=ZXEBRTMGIAYVQZ-UHFFFAOYSA-N

> <PUBCHEM_SUBSTANCE_SYNONYM>
SCHEMBL16112839

> <PUBCHEM_XREF_EXT_ID>
SCHEMBL16112839

> <PUBCHEM_EXT_DATASOURCE_URL>
https://www.surechembl.org/

> <PUBCHEM_EXT_SUBSTANCE_URL>
https://www.surechembl.org/chemical/SCHEMBL16112839

> <PUBCHEM_CID_ASSOCIATIONS>
117603369  1

> <PUBCHEM_COORDINATE_TYPE>
1
3

> <PUBCHEM_BONDANNOTATIONS>
11  30  3

$$$$
