310937842
  -OEChem-07211613022D

 20 21  0     0  0  0  0  0  0999 V2000
    3.7428   -0.1745    0.0000 F   0  0  0  0  0  0  0  0  0  0  0  0
    2.3465   -0.4848    0.0000 F   0  0  0  0  0  0  0  0  0  0  0  0
    3.9174   -0.9890    0.0000 F   0  0  0  0  0  0  0  0  0  0  0  0
    4.5767   -1.4738    0.0000 O   0  0  0  0  0  0  0  0  0  0  0  0
    4.5767   -2.9089    0.0000 O   0  0  0  0  0  0  0  0  0  0  0  0
    2.8702   -2.8702    0.0000 N   0  0  0  0  0  0  0  0  0  0  0  0
    0.0969   -0.3491    0.0000 N   0  0  0  0  0  0  0  0  0  0  0  0
    2.8702   -1.5126    0.0000 C   0  0  0  0  0  0  0  0  0  0  0  0
    2.0944   -1.7841    0.0000 C   0  0  0  0  0  0  0  0  0  0  0  0
    3.3550   -2.1914    0.0000 C   0  0  0  0  0  0  0  0  0  0  0  0
    3.1222   -0.7369    0.0000 C   0  0  0  0  0  0  0  0  0  0  0  0
    1.4157   -1.2993    0.0000 C   0  0  0  0  0  0  0  0  0  0  0  0
    2.0944   -2.5986    0.0000 C   0  0  0  0  0  0  0  0  0  0  0  0
    4.1695   -2.1914    0.0000 C   0  0  0  0  0  0  0  0  0  0  0  0
    1.5126   -0.5042    0.0000 C   0  0  0  0  0  0  0  0  0  0  0  0
    0.6593   -1.6678    0.0000 C   0  0  0  0  0  0  0  0  0  0  0  0
    0.8533    0.0000    0.0000 C   0  0  0  0  0  0  0  0  0  0  0  0
    0.0000   -1.1442    0.0000 C   0  0  0  0  0  0  0  0  0  0  0  0
    5.4106   -1.4738    0.0000 C   0  0  0  0  0  0  0  0  0  0  0  0
    5.8178   -0.7563    0.0000 C   0  0  0  0  0  0  0  0  0  0  0  0
  1 11  1  0  0  0  0
  2 11  1  0  0  0  0
  3 11  1  0  0  0  0
  4 14  1  0  0  0  0
  4 19  1  0  0  0  0
  5 14  2  0  0  0  0
  6 10  1  0  0  0  0
  6 13  1  0  0  0  0
  7 17  2  0  0  0  0
  7 18  1  0  0  0  0
  8  9  1  0  0  0  0
  8 10  2  0  0  0  0
  8 11  1  0  0  0  0
  9 12  1  0  0  0  0
  9 13  2  0  0  0  0
 10 14  1  0  0  0  0
 12 15  2  0  0  0  0
 12 16  1  0  0  0  0
 15 17  1  0  0  0  0
 16 18  2  0  0  0  0
 19 20  1  0  0  0  0
M  END
> <PUBCHEM_COMPOUND_ID_TYPE>
0

> <PUBCHEM_TOTAL_CHARGE>
0

> <PUBCHEM_SUBSTANCE_ID>
310937842

> <PUBCHEM_SUBSTANCE_VERSION>
1

> <PUBCHEM_EXT_DATASOURCE_NAME>
4488

> <PUBCHEM_EXT_DATASOURCE_REGID>
SCHEMBL16115666

> <PUBCHEM_SUBSTANCE_COMMENT>
InChI=1S/C13H11F3N2O2/c1-2-20-12(19)11-10(13(14,15)16)9(7-18-11)8-3-5-17-6-4-8/h3-7,18H,2H2,1H3
InChIKey=MPCPQSAZYJHFHY-UHFFFAOYSA-N

> <PUBCHEM_SUBSTANCE_SYNONYM>
SCHEMBL16115666

> <PUBCHEM_XREF_EXT_ID>
SCHEMBL16115666

> <PUBCHEM_EXT_DATASOURCE_URL>
https://www.surechembl.org/

> <PUBCHEM_EXT_SUBSTANCE_URL>
https://www.surechembl.org/chemical/SCHEMBL16115666

> <PUBCHEM_CID_ASSOCIATIONS>
117605477  1

> <PUBCHEM_COORDINATE_TYPE>
1
3

$$$$
