310931440
  -OEChem-07211613022D

 50 54  0     1  0  0  0  0  0999 V2000
    0.8212    5.1777    0.0000 Cl  0  0  0  0  0  0  0  0  0  0  0  0
   -0.6078    1.0527    0.0000 S   0  0  0  0  0  0  0  0  0  0  0  0
   -0.6548   -0.6697    0.0000 S   0  0  0  0  0  0  0  0  0  0  0  0
   -0.6078    2.7027    0.0000 F   0  0  0  0  0  0  0  0  0  0  0  0
    2.2501    1.0527    0.0000 F   0  0  0  0  0  0  0  0  0  0  0  0
    4.9975    1.4652    0.0000 F   0  0  0  0  0  0  0  0  0  0  0  0
    6.6475    1.4652    0.0000 F   0  0  0  0  0  0  0  0  0  0  0  0
    5.8225    0.6402    0.0000 F   0  0  0  0  0  0  0  0  0  0  0  0
    2.2501    2.7027    0.0000 O   0  0  0  0  0  0  0  0  0  0  0  0
   -1.0203    1.7672    0.0000 O   0  0  0  0  0  0  0  0  0  0  0  0
   -0.1953    0.3382    0.0000 O   0  0  0  0  0  0  0  0  0  0  0  0
   -3.4656    1.8777    0.0000 O   0  0  0  0  0  0  0  0  0  0  0  0
   -4.8946   -0.5973    0.0000 O   0  0  0  0  0  0  0  0  0  0  0  0
   -1.3222    0.6402    0.0000 N   0  0  0  0  0  0  0  0  0  0  0  0
    5.1080    2.7027    0.0000 N   0  0  3  0  0  0  0  0  0  0  0  0
   -1.9897   -0.6697    0.0000 N   0  0  0  0  0  0  0  0  0  0  0  0
   -0.9097   -1.4544    0.0000 N   0  0  0  0  0  0  0  0  0  0  0  0
    3.6791    3.5277    0.0000 C   0  0  3  0  0  0  0  0  0  0  0  0
    3.6791    2.7027    0.0000 C   0  0  3  0  0  0  0  0  0  0  0  0
    2.9646    3.9402    0.0000 C   0  0  0  0  0  0  0  0  0  0  0  0
    0.1067    1.4652    0.0000 C   0  0  0  0  0  0  0  0  0  0  0  0
    4.3935    2.2902    0.0000 C   0  0  0  0  0  0  0  0  0  0  0  0
    4.3935    3.9402    0.0000 C   0  0  0  0  0  0  0  0  0  0  0  0
    2.9646    2.2902    0.0000 C   0  0  0  0  0  0  0  0  0  0  0  0
    0.1067    2.2902    0.0000 C   0  0  0  0  0  0  0  0  0  0  0  0
    1.5356    2.2902    0.0000 C   0  0  0  0  0  0  0  0  0  0  0  0
    5.1080    3.5277    0.0000 C   0  0  0  0  0  0  0  0  0  0  0  0
    1.5356    1.4652    0.0000 C   0  0  0  0  0  0  0  0  0  0  0  0
    0.8212    1.0527    0.0000 C   0  0  0  0  0  0  0  0  0  0  0  0
   -1.3222   -0.1848    0.0000 C   0  0  0  0  0  0  0  0  0  0  0  0
    0.8212    2.7027    0.0000 C   0  0  0  0  0  0  0  0  0  0  0  0
    2.2501    3.5277    0.0000 C   0  0  0  0  0  0  0  0  0  0  0  0
    2.9646    4.7652    0.0000 C   0  0  0  0  0  0  0  0  0  0  0  0
   -2.0367    1.0527    0.0000 C   0  0  0  0  0  0  0  0  0  0  0  0
    5.8225    2.2902    0.0000 C   0  0  0  0  0  0  0  0  0  0  0  0
   -2.7512    0.6402    0.0000 C   0  0  0  0  0  0  0  0  0  0  0  0
    1.5356    3.9402    0.0000 C   0  0  0  0  0  0  0  0  0  0  0  0
    2.2501    5.1777    0.0000 C   0  0  0  0  0  0  0  0  0  0  0  0
    5.8225    1.4652    0.0000 C   0  0  0  0  0  0  0  0  0  0  0  0
    1.5356    4.7652    0.0000 C   0  0  0  0  0  0  0  0  0  0  0  0
   -3.4656    1.0527    0.0000 C   0  0  0  0  0  0  0  0  0  0  0  0
   -2.7512   -0.1848    0.0000 C   0  0  0  0  0  0  0  0  0  0  0  0
   -1.7347   -1.4544    0.0000 C   0  0  0  0  0  0  0  0  0  0  0  0
   -4.1801    0.6402    0.0000 C   0  0  0  0  0  0  0  0  0  0  0  0
   -4.1801   -0.1848    0.0000 C   0  0  0  0  0  0  0  0  0  0  0  0
   -3.4656   -0.5973    0.0000 C   0  0  0  0  0  0  0  0  0  0  0  0
   -4.1801    2.2902    0.0000 C   0  0  0  0  0  0  0  0  0  0  0  0
   -4.8946   -1.4223    0.0000 C   0  0  0  0  0  0  0  0  0  0  0  0
    3.6791    4.3527    0.0000 H   0  0  0  0  0  0  0  0  0  0  0  0
    2.9646    3.1152    0.0000 H   0  0  0  0  0  0  0  0  0  0  0  0
  1 40  1  0  0  0  0
  2 10  2  0  0  0  0
  2 11  2  0  0  0  0
  2 14  1  0  0  0  0
  2 21  1  0  0  0  0
  3 17  1  0  0  0  0
  3 30  1  0  0  0  0
  4 25  1  0  0  0  0
  5 28  1  0  0  0  0
  6 39  1  0  0  0  0
  7 39  1  0  0  0  0
  8 39  1  0  0  0  0
  9 24  1  0  0  0  0
  9 26  1  0  0  0  0
 12 41  1  0  0  0  0
 12 47  1  0  0  0  0
 13 45  1  0  0  0  0
 13 48  1  0  0  0  0
 14 30  1  0  0  0  0
 14 34  1  0  0  0  0
 15 22  1  0  0  0  0
 15 27  1  0  0  0  0
 15 35  1  0  0  0  0
 16 30  2  0  0  0  0
 16 43  1  0  0  0  0
 17 43  2  0  0  0  0
 18 19  1  0  0  0  0
 18 20  1  0  0  0  0
 18 23  1  0  0  0  0
 18 49  1  1  0  0  0
 19 22  1  0  0  0  0
 19 24  1  0  0  0  0
 19 50  1  6  0  0  0
 20 32  2  0  0  0  0
 20 33  1  0  0  0  0
 21 25  2  0  0  0  0
 21 29  1  0  0  0  0
 23 27  1  0  0  0  0
 25 31  1  0  0  0  0
 26 28  1  0  0  0  0
 26 31  2  0  0  0  0
 28 29  2  0  0  0  0
 32 37  1  0  0  0  0
 33 38  2  0  0  0  0
 34 36  1  0  0  0  0
 35 39  1  0  0  0  0
 36 41  2  0  0  0  0
 36 42  1  0  0  0  0
 37 40  2  0  0  0  0
 38 40  1  0  0  0  0
 41 44  1  0  0  0  0
 42 46  2  0  0  0  0
 44 45  2  0  0  0  0
 45 46  1  0  0  0  0
M  END
> <PUBCHEM_COMPOUND_ID_TYPE>
0

> <PUBCHEM_TOTAL_CHARGE>
0

> <PUBCHEM_SUBSTANCE_ID>
310931440

> <PUBCHEM_SUBSTANCE_VERSION>
1

> <PUBCHEM_EXT_DATASOURCE_NAME>
4488

> <PUBCHEM_EXT_DATASOURCE_REGID>
SCHEMBL16108765

> <PUBCHEM_SUBSTANCE_COMMENT>
InChI=1S/C31H30ClF5N4O5S2/c1-44-23-8-5-20(27(11-23)45-2)15-41(30-38-18-39-47-30)48(42,43)29-13-25(33)28(12-26(29)34)46-16-21-14-40(17-31(35,36)37)10-9-24(21)19-3-6-22(32)7-4-19/h3-8,11-13,18,21,24H,9-10,14-17H2,1-2H3/t21-,24-/m0/s1
InChIKey=SIGOYMOPJDHEFU-URXFXBBRSA-N

> <PUBCHEM_SUBSTANCE_SYNONYM>
SCHEMBL16108765

> <PUBCHEM_XREF_EXT_ID>
SCHEMBL16108765

> <PUBCHEM_EXT_DATASOURCE_URL>
https://www.surechembl.org/

> <PUBCHEM_EXT_SUBSTANCE_URL>
https://www.surechembl.org/chemical/SCHEMBL16108765

> <PUBCHEM_CID_ASSOCIATIONS>
117600217  1

> <PUBCHEM_COORDINATE_TYPE>
1
3

> <PUBCHEM_BONDANNOTATIONS>
18  49  5
19  50  6

$$$$
