310937472
  -OEChem-07211613022D

 25 28  0     0  0  0  0  0  0999 V2000
    6.1633   -2.2125    0.0000 O   0  0  0  0  0  0  0  0  0  0  0  0
    2.0808   -2.9236    0.0000 O   0  0  0  0  0  0  0  0  0  0  0  0
    0.0790   -4.4513    0.0000 O   0  0  0  0  0  0  0  0  0  0  0  0
    4.8991   -1.8174    0.0000 N   0  0  0  0  0  0  0  0  0  0  0  0
    4.3196   -3.8981    0.0000 N   0  0  0  0  0  0  0  0  0  0  0  0
    5.6892   -2.8973    0.0000 N   0  0  0  0  0  0  0  0  0  0  0  0
    2.9236   -4.0562    0.0000 C   0  0  0  0  0  0  0  0  0  0  0  0
    4.2406   -3.1080    0.0000 C   0  0  0  0  0  0  0  0  0  0  0  0
    2.8183   -3.2660    0.0000 C   0  0  0  0  0  0  0  0  0  0  0  0
    4.8991   -2.6339    0.0000 C   0  0  0  0  0  0  0  0  0  0  0  0
    2.2388   -4.5303    0.0000 C   0  0  0  0  0  0  0  0  0  0  0  0
    5.6892   -1.5540    0.0000 C   0  0  0  0  0  0  0  0  0  0  0  0
    3.4767   -2.7392    0.0000 C   0  0  0  0  0  0  0  0  0  0  0  0
    3.6611   -4.3986    0.0000 C   0  0  0  0  0  0  0  0  0  0  0  0
    5.9262   -0.7638    0.0000 C   0  0  0  0  0  0  0  0  0  0  0  0
    1.9228   -5.2678    0.0000 C   0  0  0  0  0  0  0  0  0  0  0  0
    1.4223   -4.6093    0.0000 C   0  0  0  0  0  0  0  0  0  0  0  0
    1.4223   -3.4240    0.0000 C   0  0  0  0  0  0  0  0  0  0  0  0
    6.7164   -1.0272    0.0000 C   0  0  0  0  0  0  0  0  0  0  0  0
    6.1896    0.0000    0.0000 C   0  0  0  0  0  0  0  0  0  0  0  0
    5.1624   -0.5268    0.0000 C   0  0  0  0  0  0  0  0  0  0  0  0
    0.6585   -3.1080    0.0000 C   0  0  0  0  0  0  0  0  0  0  0  0
    1.5013   -4.2669    0.0000 C   0  0  0  0  0  0  0  0  0  0  0  0
    0.0000   -3.6084    0.0000 C   0  0  0  0  0  0  0  0  0  0  0  0
    0.8428   -4.7410    0.0000 C   0  0  0  0  0  0  0  0  0  0  0  0
  1  6  1  0  0  0  0
  1 12  1  0  0  0  0
  2  9  1  0  0  0  0
  2 18  1  0  0  0  0
  3 24  1  0  0  0  0
  3 25  1  0  0  0  0
  4 10  1  0  0  0  0
  4 12  2  0  0  0  0
  5  8  1  0  0  0  0
  5 14  2  0  0  0  0
  6 10  2  0  0  0  0
  7  9  2  0  0  0  0
  7 11  1  0  0  0  0
  7 14  1  0  0  0  0
  8 10  1  0  0  0  0
  8 13  2  0  0  0  0
  9 13  1  0  0  0  0
 11 16  1  0  0  0  0
 11 17  1  0  0  0  0
 12 15  1  0  0  0  0
 15 19  1  0  0  0  0
 15 20  1  0  0  0  0
 15 21  1  0  0  0  0
 16 17  1  0  0  0  0
 18 22  1  0  0  0  0
 18 23  1  0  0  0  0
 22 24  1  0  0  0  0
 23 25  1  0  0  0  0
M  END
> <PUBCHEM_COMPOUND_ID_TYPE>
0

> <PUBCHEM_TOTAL_CHARGE>
0

> <PUBCHEM_SUBSTANCE_ID>
310937472

> <PUBCHEM_SUBSTANCE_VERSION>
1

> <PUBCHEM_EXT_DATASOURCE_NAME>
4488

> <PUBCHEM_EXT_DATASOURCE_REGID>
SCHEMBL16115242

> <PUBCHEM_SUBSTANCE_COMMENT>
InChI=1S/C19H25N3O3/c1-19(2,3)18-21-17(22-25-18)15-10-16(14(11-20-15)12-4-5-12)24-13-6-8-23-9-7-13/h10-13H,4-9H2,1-3H3
InChIKey=OAYJCQBZUOXJSK-UHFFFAOYSA-N

> <PUBCHEM_SUBSTANCE_SYNONYM>
SCHEMBL16115242

> <PUBCHEM_XREF_EXT_ID>
SCHEMBL16115242

> <PUBCHEM_EXT_DATASOURCE_URL>
https://www.surechembl.org/

> <PUBCHEM_EXT_SUBSTANCE_URL>
https://www.surechembl.org/chemical/SCHEMBL16115242

> <PUBCHEM_CID_ASSOCIATIONS>
86276000  1

> <PUBCHEM_COORDINATE_TYPE>
1
3

$$$$
