310948333
  -OEChem-07211613022D

 20 22  0     1  0  0  0  0  0999 V2000
   -2.6990    0.1791    0.0000 O   0  0  0  0  0  0  0  0  0  0  0  0
    0.0551    0.0826    0.0000 N   0  0  0  0  0  0  0  0  0  0  0  0
   -0.2754   -0.6747    0.0000 N   0  0  0  0  0  0  0  0  0  0  0  0
   -1.9967    1.4322    0.0000 N   0  0  0  0  0  0  0  0  0  0  0  0
   -1.6386   -1.2118    0.0000 N   0  0  0  0  0  0  0  0  0  0  0  0
    0.6609   -1.8590    0.0000 N   0  0  0  0  0  0  0  0  0  0  0  0
   -0.5783    0.6334    0.0000 C   0  0  0  0  0  0  0  0  0  0  0  0
   -1.2807    0.2203    0.0000 C   0  0  0  0  0  0  0  0  0  0  0  0
   -1.1016   -0.5646    0.0000 C   0  0  0  0  0  0  0  0  0  0  0  0
    0.8400    0.2754    0.0000 C   0  0  3  0  0  0  0  0  0  0  0  0
   -1.9967    0.6196    0.0000 C   0  0  0  0  0  0  0  0  0  0  0  0
   -0.5783    1.4596    0.0000 C   0  0  0  0  0  0  0  0  0  0  0  0
    1.3633   -0.3718    0.0000 C   0  0  3  0  0  0  0  0  0  0  0  0
   -1.3082    1.8590    0.0000 C   0  0  0  0  0  0  0  0  0  0  0  0
    1.0466    1.0741    0.0000 C   0  0  0  0  0  0  0  0  0  0  0  0
    2.1895   -0.3718    0.0000 C   0  0  0  0  0  0  0  0  0  0  0  0
    1.0053   -1.1291    0.0000 C   0  0  0  0  0  0  0  0  0  0  0  0
    1.7901    1.4184    0.0000 C   0  0  0  0  0  0  0  0  0  0  0  0
    2.6990    0.2616    0.0000 C   0  0  0  0  0  0  0  0  0  0  0  0
    2.5337    1.0603    0.0000 C   0  0  0  0  0  0  0  0  0  0  0  0
  1 11  2  0  0  0  0
  2  3  1  0  0  0  0
  2  7  1  0  0  0  0
 10  2  1  1  0  0  0
  3  9  2  0  0  0  0
  4 11  1  0  0  0  0
  4 14  1  0  0  0  0
  5  9  1  0  0  0  0
  6 17  3  0  0  0  0
  7  8  2  0  0  0  0
  7 12  1  0  0  0  0
  8  9  1  0  0  0  0
  8 11  1  0  0  0  0
 10 13  1  0  0  0  0
 10 15  1  0  0  0  0
 12 14  2  0  0  0  0
 13 16  1  0  0  0  0
 13 17  1  6  0  0  0
 15 18  1  0  0  0  0
 16 19  1  0  0  0  0
 18 20  1  0  0  0  0
 19 20  1  0  0  0  0
M  END
> <PUBCHEM_COMPOUND_ID_TYPE>
0

> <PUBCHEM_TOTAL_CHARGE>
0

> <PUBCHEM_SUBSTANCE_ID>
310948333

> <PUBCHEM_SUBSTANCE_VERSION>
1

> <PUBCHEM_EXT_DATASOURCE_NAME>
4488

> <PUBCHEM_EXT_DATASOURCE_REGID>
SCHEMBL16126511

> <PUBCHEM_SUBSTANCE_COMMENT>
InChI=1S/C14H17N5O/c15-8-9-4-2-1-3-5-10(9)19-11-6-7-17-14(20)12(11)13(16)18-19/h6-7,9-10H,1-5H2,(H2,16,18)(H,17,20)/t9-,10+/m1/s1
InChIKey=LEQMCYARURHXCV-ZJUUUORDSA-N

> <PUBCHEM_SUBSTANCE_SYNONYM>
SCHEMBL16126511

> <PUBCHEM_XREF_EXT_ID>
SCHEMBL16126511

> <PUBCHEM_EXT_DATASOURCE_URL>
https://www.surechembl.org/

> <PUBCHEM_EXT_SUBSTANCE_URL>
https://www.surechembl.org/chemical/SCHEMBL16126511

> <PUBCHEM_CID_ASSOCIATIONS>
117613898  1

> <PUBCHEM_COORDINATE_TYPE>
1
3

> <PUBCHEM_BONDANNOTATIONS>
13  17  6
10  2  5

$$$$
