310929612
  -OEChem-07211613022D

 59 66  0     1  0  0  0  0  0999 V2000
    9.9518   -4.0731    0.0000 S   0  0  0  0  0  0  0  0  0  0  0  0
    9.9518   -5.7108    0.0000 O   0  0  0  0  0  0  0  0  0  0  0  0
    7.0124   -6.3406    0.0000 O   0  0  0  0  0  0  0  0  0  0  0  0
    4.4090   -6.0887    0.0000 O   0  0  0  0  0  0  0  0  0  0  0  0
   10.3717   -4.7450    0.0000 O   0  0  0  0  0  0  0  0  0  0  0  0
    9.5319   -3.3173    0.0000 O   0  0  0  0  0  0  0  0  0  0  0  0
    7.7683   -3.3592    0.0000 O   0  0  0  0  0  0  0  0  0  0  0  0
    1.4277   -5.5008    0.0000 O   0  0  0  0  0  0  0  0  0  0  0  0
    4.9129   -1.1338    0.0000 O   0  0  0  0  0  0  0  0  0  0  0  0
    6.1307   -0.7558    0.0000 O   0  0  0  0  0  0  0  0  0  0  0  0
    0.7139   -6.7185    0.0000 O   0  0  0  0  0  0  0  0  0  0  0  0
    7.8523   -5.2069    0.0000 N   0  0  0  0  0  0  0  0  0  0  0  0
    9.2380   -4.4510    0.0000 N   0  0  0  0  0  0  0  0  0  0  0  0
    6.8865   -4.2831    0.0000 N   0  0  0  0  0  0  0  0  0  0  0  0
    3.5692   -6.7185    0.0000 N   0  0  0  0  0  0  0  0  0  0  0  0
    6.3406   -1.9316    0.0000 N   0  0  0  0  0  0  0  0  0  0  0  0
    8.5241   -5.7108    0.0000 C   0  0  3  0  0  0  0  0  0  0  0  0
    9.1120   -6.2567    0.0000 C   0  0  3  0  0  0  0  0  0  0  0  0
    8.3142   -6.5086    0.0000 C   0  0  0  0  0  0  0  0  0  0  0  0
    9.2380   -5.2909    0.0000 C   0  0  0  0  0  0  0  0  0  0  0  0
    7.0964   -5.5428    0.0000 C   0  0  0  0  0  0  0  0  0  0  0  0
    6.4666   -5.0389    0.0000 C   0  0  3  0  0  0  0  0  0  0  0  0
    9.8679   -6.4666    0.0000 C   0  0  0  0  0  0  0  0  0  0  0  0
   10.6237   -3.6532    0.0000 C   0  0  0  0  0  0  0  0  0  0  0  0
    5.8787   -5.6268    0.0000 C   0  0  0  0  0  0  0  0  0  0  0  0
    5.2069   -6.0047    0.0000 C   0  0  3  0  0  0  0  0  0  0  0  0
    6.9285   -3.4012    0.0000 C   0  0  0  0  0  0  0  0  0  0  0  0
    6.5505   -5.6268    0.0000 C   0  0  0  0  0  0  0  0  0  0  0  0
   11.0435   -2.9393    0.0000 C   0  0  0  0  0  0  0  0  0  0  0  0
   11.5055   -3.6112    0.0000 C   0  0  0  0  0  0  0  0  0  0  0  0
    3.5692   -5.9627    0.0000 C   0  0  0  0  0  0  0  0  0  0  0  0
    6.7185   -2.6034    0.0000 C   0  0  3  0  0  0  0  0  0  0  0  0
   10.4557   -5.8787    0.0000 C   0  0  0  0  0  0  0  0  0  0  0  0
    2.8134   -5.5008    0.0000 C   0  0  0  0  0  0  0  0  0  0  0  0
    2.1416   -5.9207    0.0000 C   0  0  0  0  0  0  0  0  0  0  0  0
    2.1416   -6.6765    0.0000 C   0  0  0  0  0  0  0  0  0  0  0  0
    2.8973   -7.1384    0.0000 C   0  0  0  0  0  0  0  0  0  0  0  0
    7.4743   -2.3095    0.0000 C   0  0  0  0  0  0  0  0  0  0  0  0
    2.2675   -4.8709    0.0000 C   0  0  0  0  0  0  0  0  0  0  0  0
    1.4277   -7.1804    0.0000 C   0  0  0  0  0  0  0  0  0  0  0  0
    2.8554   -7.9782    0.0000 C   0  0  0  0  0  0  0  0  0  0  0  0
    7.6423   -1.5117    0.0000 C   0  0  0  0  0  0  0  0  0  0  0  0
    8.1882   -2.7294    0.0000 C   0  0  0  0  0  0  0  0  0  0  0  0
    5.7108   -1.4697    0.0000 C   0  0  0  0  0  0  0  0  0  0  0  0
    1.4277   -7.9362    0.0000 C   0  0  0  0  0  0  0  0  0  0  0  0
    2.1835   -8.3982    0.0000 C   0  0  0  0  0  0  0  0  0  0  0  0
    0.7139   -5.9207    0.0000 C   0  0  0  0  0  0  0  0  0  0  0  0
    2.0156   -4.1571    0.0000 C   0  0  0  0  0  0  0  0  0  0  0  0
    8.4821   -1.4277    0.0000 C   0  0  0  0  0  0  0  0  0  0  0  0
    8.7761   -2.1835    0.0000 C   0  0  0  0  0  0  0  0  0  0  0  0
    4.1151   -1.1338    0.0000 C   0  0  3  0  0  0  0  0  0  0  0  0
    3.3173   -1.3437    0.0000 C   0  0  3  0  0  0  0  0  0  0  0  0
    2.2255   -3.3592    0.0000 C   0  0  0  0  0  0  0  0  0  0  0  0
    0.0000   -5.5008    0.0000 C   0  0  0  0  0  0  0  0  0  0  0  0
    4.1151   -0.3359    0.0000 C   0  0  0  0  0  0  0  0  0  0  0  0
    2.6874   -1.8476    0.0000 C   0  0  0  0  0  0  0  0  0  0  0  0
    2.1416   -2.5614    0.0000 C   0  0  0  0  0  0  0  0  0  0  0  0
    2.8134   -0.7139    0.0000 C   0  0  0  0  0  0  0  0  0  0  0  0
    3.3173    0.0000    0.0000 C   0  0  0  0  0  0  0  0  0  0  0  0
  1  5  2  0  0  0  0
  1  6  2  0  0  0  0
  1 13  1  0  0  0  0
  1 24  1  0  0  0  0
  2 20  2  0  0  0  0
  3 21  2  0  0  0  0
  4 26  1  0  0  0  0
  4 31  1  0  0  0  0
  7 27  2  0  0  0  0
  8 35  1  0  0  0  0
  8 47  1  0  0  0  0
  9 44  1  0  0  0  0
  9 51  1  0  0  0  0
 10 44  2  0  0  0  0
 11 47  2  0  0  0  0
 17 12  1  1  0  0  0
 12 21  1  0  0  0  0
 13 20  1  0  0  0  0
 14 22  1  0  0  0  0
 14 27  1  0  0  0  0
 14 28  1  0  0  0  0
 15 31  1  0  0  0  0
 15 37  2  0  0  0  0
 16 32  1  0  0  0  0
 16 44  1  0  0  0  0
 17 18  1  0  0  0  0
 17 19  1  0  0  0  0
 17 20  1  6  0  0  0
 18 19  1  0  0  0  0
 18 23  1  6  0  0  0
 22 21  1  6  0  0  0
 22 25  1  0  0  0  0
 23 33  2  0  0  0  0
 24 29  1  0  0  0  0
 24 30  1  0  0  0  0
 26 25  1  1  0  0  0
 26 28  1  0  0  0  0
 32 27  1  1  0  0  0
 29 30  1  0  0  0  0
 31 34  2  0  0  0  0
 32 38  1  0  0  0  0
 34 35  1  0  0  0  0
 34 39  1  0  0  0  0
 35 36  2  0  0  0  0
 36 37  1  0  0  0  0
 36 40  1  0  0  0  0
 37 41  1  0  0  0  0
 38 42  1  0  0  0  0
 38 43  1  0  0  0  0
 39 48  1  0  0  0  0
 40 45  2  0  0  0  0
 41 46  2  0  0  0  0
 42 49  1  0  0  0  0
 43 50  1  0  0  0  0
 45 46  1  0  0  0  0
 47 54  1  0  0  0  0
 48 53  2  0  0  0  0
 49 50  1  0  0  0  0
 51 52  1  0  0  0  0
 51 55  1  1  0  0  0
 52 56  1  0  0  0  0
 52 58  1  6  0  0  0
 53 57  1  0  0  0  0
 55 59  1  0  0  0  0
 56 57  1  0  0  0  0
 58 59  1  0  0  0  0
M  END
> <PUBCHEM_COMPOUND_ID_TYPE>
0

> <PUBCHEM_TOTAL_CHARGE>
0

> <PUBCHEM_SUBSTANCE_ID>
310929612

> <PUBCHEM_SUBSTANCE_VERSION>
1

> <PUBCHEM_EXT_DATASOURCE_NAME>
4488

> <PUBCHEM_EXT_DATASOURCE_REGID>
SCHEMBL16106800

> <PUBCHEM_SUBSTANCE_COMMENT>
InChI=1S/C43H53N5O10S/c1-3-28-23-43(28,41(52)47-59(54,55)30-20-21-30)46-38(50)34-22-29-24-48(34)40(51)36(27-13-7-8-14-27)45-42(53)58-35-19-11-15-26(35)12-5-4-6-17-32-37(56-25(2)49)31-16-9-10-18-33(31)44-39(32)57-29/h3-4,6,9-10,16,18,26-30,34-36H,1,5,7-8,11-15,17,19-24H2,2H3,(H,45,53)(H,46,50)(H,47,52)/b6-4+/t26-,28-,29-,34+,35-,36+,43-/m1/s1
InChIKey=PTUZIPURAUTGBO-QGNOTUPKSA-N

> <PUBCHEM_SUBSTANCE_SYNONYM>
SCHEMBL16106800

> <PUBCHEM_XREF_EXT_ID>
SCHEMBL16106800

> <PUBCHEM_EXT_DATASOURCE_URL>
https://www.surechembl.org/

> <PUBCHEM_EXT_SUBSTANCE_URL>
https://www.surechembl.org/chemical/SCHEMBL16106800

> <PUBCHEM_CID_ASSOCIATIONS>
117598919  1

> <PUBCHEM_COORDINATE_TYPE>
1
3

> <PUBCHEM_BONDANNOTATIONS>
17  12  5
17  20  6
18  23  6
22  21  6
26  25  5
32  27  5
51  55  5
52  58  6

$$$$
