310941573
  -OEChem-07211613022D

 25 28  0     0  0  0  0  0  0999 V2000
    0.3070    1.6518    0.0000 S   0  0  0  0  0  0  0  0  0  0  0  0
   -0.5847   -1.0086    0.0000 O   0  0  0  0  0  0  0  0  0  0  0  0
    3.2013    0.6724    0.0000 O   0  0  0  0  0  0  0  0  0  0  0  0
   -2.0319   -1.0086    0.0000 N   0  0  0  0  0  0  0  0  0  0  0  0
   -3.5375   -0.8479    0.0000 N   0  0  0  0  0  0  0  0  0  0  0  0
    0.1754    0.3070    0.0000 N   0  0  0  0  0  0  0  0  0  0  0  0
    1.5495    0.8479    0.0000 N   0  0  0  0  0  0  0  0  0  0  0  0
   -1.3010    0.2485    0.0000 C   0  0  0  0  0  0  0  0  0  0  0  0
   -2.7482   -0.5847    0.0000 C   0  0  0  0  0  0  0  0  0  0  0  0
   -2.7336    0.2339    0.0000 C   0  0  0  0  0  0  0  0  0  0  0  0
   -0.5993    0.6578    0.0000 C   0  0  0  0  0  0  0  0  0  0  0  0
   -1.3303   -0.5701    0.0000 C   0  0  0  0  0  0  0  0  0  0  0  0
   -2.0611    0.6432    0.0000 C   0  0  0  0  0  0  0  0  0  0  0  0
    0.7163    0.9502    0.0000 C   0  0  0  0  0  0  0  0  0  0  0  0
   -3.5375    0.4970    0.0000 C   0  0  0  0  0  0  0  0  0  0  0  0
   -0.4824    1.4764    0.0000 C   0  0  0  0  0  0  0  0  0  0  0  0
   -4.0200   -0.1754    0.0000 C   0  0  0  0  0  0  0  0  0  0  0  0
    1.8857    0.1023    0.0000 C   0  0  0  0  0  0  0  0  0  0  0  0
    2.7043    0.0000    0.0000 C   0  0  0  0  0  0  0  0  0  0  0  0
   -3.6838   -1.6518    0.0000 C   0  0  0  0  0  0  0  0  0  0  0  0
    1.4179   -0.5847    0.0000 C   0  0  0  0  0  0  0  0  0  0  0  0
    3.0406   -0.7309    0.0000 C   0  0  0  0  0  0  0  0  0  0  0  0
    1.7395   -1.3303    0.0000 C   0  0  0  0  0  0  0  0  0  0  0  0
    2.5581   -1.4179    0.0000 C   0  0  0  0  0  0  0  0  0  0  0  0
    4.0200    0.5847    0.0000 C   0  0  0  0  0  0  0  0  0  0  0  0
  1 14  1  0  0  0  0
  1 16  1  0  0  0  0
  2 12  2  0  0  0  0
  3 19  1  0  0  0  0
  3 25  1  0  0  0  0
  4  9  1  0  0  0  0
  4 12  1  0  0  0  0
  5  9  1  0  0  0  0
  5 17  1  0  0  0  0
  5 20  1  0  0  0  0
  6 11  1  0  0  0  0
  6 14  2  0  0  0  0
  7 14  1  0  0  0  0
  7 18  1  0  0  0  0
  8 11  1  0  0  0  0
  8 12  1  0  0  0  0
  8 13  2  0  0  0  0
  9 10  2  0  0  0  0
 10 13  1  0  0  0  0
 10 15  1  0  0  0  0
 11 16  2  0  0  0  0
 15 17  2  0  0  0  0
 18 19  1  0  0  0  0
 18 21  2  0  0  0  0
 19 22  2  0  0  0  0
 21 23  1  0  0  0  0
 22 24  1  0  0  0  0
 23 24  2  0  0  0  0
M  END
> <PUBCHEM_COMPOUND_ID_TYPE>
0

> <PUBCHEM_TOTAL_CHARGE>
0

> <PUBCHEM_SUBSTANCE_ID>
310941573

> <PUBCHEM_SUBSTANCE_VERSION>
1

> <PUBCHEM_EXT_DATASOURCE_NAME>
4488

> <PUBCHEM_EXT_DATASOURCE_REGID>
SCHEMBL16119604

> <PUBCHEM_SUBSTANCE_COMMENT>
InChI=1S/C18H16N4O2S/c1-22-8-7-11-9-12(17(23)21-16(11)22)14-10-25-18(20-14)19-13-5-3-4-6-15(13)24-2/h3-10H,1-2H3,(H,19,20)(H,21,23)
InChIKey=UVSBPWGSDAQYPO-UHFFFAOYSA-N

> <PUBCHEM_SUBSTANCE_SYNONYM>
SCHEMBL16119604

> <PUBCHEM_XREF_EXT_ID>
SCHEMBL16119604

> <PUBCHEM_EXT_DATASOURCE_URL>
https://www.surechembl.org/

> <PUBCHEM_EXT_SUBSTANCE_URL>
https://www.surechembl.org/chemical/SCHEMBL16119604

> <PUBCHEM_CID_ASSOCIATIONS>
117608375  1

> <PUBCHEM_COORDINATE_TYPE>
1
3

$$$$
