310942238
  -OEChem-07211613022D

 31 34  0     0  0  0  0  0  0999 V2000
    2.3536    0.8687    0.0000 S   0  0  0  0  0  0  0  0  0  0  0  0
    3.8074    1.6932    0.0000 F   0  0  0  0  0  0  0  0  0  0  0  0
    5.2524   -0.7801    0.0000 F   0  0  0  0  0  0  0  0  0  0  0  0
    2.7791    1.5868    0.0000 O   0  0  0  0  0  0  0  0  0  0  0  0
    1.9458    1.5868    0.0000 O   0  0  0  0  0  0  0  0  0  0  0  0
   -2.7791    0.4521    0.0000 N   0  0  0  0  0  0  0  0  0  0  0  0
   -3.4529   -0.7003    0.0000 N   0  0  0  0  0  0  0  0  0  0  0  0
   -1.9724   -0.7801    0.0000 N   0  0  0  0  0  0  0  0  0  0  0  0
   -0.5274   -0.7801    0.0000 N   0  0  0  0  0  0  0  0  0  0  0  0
   -1.2455    0.4610    0.0000 N   0  0  0  0  0  0  0  0  0  0  0  0
    0.9175   -0.7801    0.0000 N   0  0  0  0  0  0  0  0  0  0  0  0
    3.0982    0.4610    0.0000 C   0  0  0  0  0  0  0  0  0  0  0  0
    3.8074    0.8687    0.0000 C   0  0  0  0  0  0  0  0  0  0  0  0
   -2.6994   -0.3634    0.0000 C   0  0  0  0  0  0  0  0  0  0  0  0
    0.2083    0.4610    0.0000 C   0  0  0  0  0  0  0  0  0  0  0  0
   -3.5947    0.6294    0.0000 C   0  0  0  0  0  0  0  0  0  0  0  0
   -4.0113   -0.0886    0.0000 C   0  0  0  0  0  0  0  0  0  0  0  0
    1.6533    0.4610    0.0000 C   0  0  0  0  0  0  0  0  0  0  0  0
   -1.2544   -0.3634    0.0000 C   0  0  0  0  0  0  0  0  0  0  0  0
    0.1906   -0.3634    0.0000 C   0  0  0  0  0  0  0  0  0  0  0  0
    3.0982   -0.3634    0.0000 C   0  0  0  0  0  0  0  0  0  0  0  0
    0.9087    0.8687    0.0000 C   0  0  0  0  0  0  0  0  0  0  0  0
    4.5344    0.4521    0.0000 C   0  0  0  0  0  0  0  0  0  0  0  0
   -0.5363    0.8687    0.0000 C   0  0  0  0  0  0  0  0  0  0  0  0
    4.5255   -0.3634    0.0000 C   0  0  0  0  0  0  0  0  0  0  0  0
    3.8252   -0.7712    0.0000 C   0  0  0  0  0  0  0  0  0  0  0  0
   -4.0113    1.3386    0.0000 C   0  0  0  0  0  0  0  0  0  0  0  0
   -4.8446   -0.0798    0.0000 C   0  0  0  0  0  0  0  0  0  0  0  0
   -4.8446    1.3386    0.0000 C   0  0  0  0  0  0  0  0  0  0  0  0
   -5.2524    0.6294    0.0000 C   0  0  0  0  0  0  0  0  0  0  0  0
    0.9087   -1.6932    0.0000 C   0  0  0  0  0  0  0  0  0  0  0  0
  1  4  2  0  0  0  0
  1  5  2  0  0  0  0
  1 12  1  0  0  0  0
  1 18  1  0  0  0  0
  2 13  1  0  0  0  0
  3 25  1  0  0  0  0
  6 14  2  0  0  0  0
  6 16  1  0  0  0  0
  7 14  1  0  0  0  0
  7 17  1  0  0  0  0
  8 14  1  0  0  0  0
  8 19  1  0  0  0  0
  9 19  1  0  0  0  0
  9 20  2  0  0  0  0
 10 19  2  0  0  0  0
 10 24  1  0  0  0  0
 11 20  1  0  0  0  0
 11 31  1  0  0  0  0
 12 13  1  0  0  0  0
 12 21  2  0  0  0  0
 13 23  2  0  0  0  0
 15 20  1  0  0  0  0
 15 22  1  0  0  0  0
 15 24  2  0  0  0  0
 16 17  2  0  0  0  0
 16 27  1  0  0  0  0
 17 28  1  0  0  0  0
 18 22  2  0  0  0  0
 21 26  1  0  0  0  0
 23 25  1  0  0  0  0
 25 26  2  0  0  0  0
 27 29  2  0  0  0  0
 28 30  2  0  0  0  0
 29 30  1  0  0  0  0
M  END
> <PUBCHEM_COMPOUND_ID_TYPE>
0

> <PUBCHEM_TOTAL_CHARGE>
0

> <PUBCHEM_SUBSTANCE_ID>
310942238

> <PUBCHEM_SUBSTANCE_VERSION>
1

> <PUBCHEM_EXT_DATASOURCE_NAME>
4488

> <PUBCHEM_EXT_DATASOURCE_REGID>
SCHEMBL16120273

> <PUBCHEM_SUBSTANCE_COMMENT>
InChI=1S/C20H16F2N6O2S/c1-23-18-12(8-9-31(29,30)17-7-6-13(21)10-14(17)22)11-24-19(27-18)28-20-25-15-4-2-3-5-16(15)26-20/h2-11H,1H3,(H3,23,24,25,26,27,28)/b9-8+
InChIKey=VZFCNCUCXCRVAM-CMDGGOBGSA-N

> <PUBCHEM_SUBSTANCE_SYNONYM>
SCHEMBL16120273

> <PUBCHEM_XREF_EXT_ID>
SCHEMBL16120273

> <PUBCHEM_EXT_DATASOURCE_URL>
https://www.surechembl.org/

> <PUBCHEM_EXT_SUBSTANCE_URL>
https://www.surechembl.org/chemical/SCHEMBL16120273

> <PUBCHEM_CID_ASSOCIATIONS>
117608889  1

> <PUBCHEM_COORDINATE_TYPE>
1
3

$$$$
