310943365
  -OEChem-07211613022D

 33 36  0     0  0  0  0  0  0999 V2000
    4.8237    1.5079    0.0000 F   0  0  0  0  0  0  0  0  0  0  0  0
    5.5265    0.2782    0.0000 F   0  0  0  0  0  0  0  0  0  0  0  0
   -2.6571   -1.8885    0.0000 O   0  0  0  0  0  0  0  0  0  0  0  0
   -5.5265    1.4786    0.0000 O   0  0  0  0  0  0  0  0  0  0  0  0
    1.9690    1.5079    0.0000 O   0  0  0  0  0  0  0  0  0  0  0  0
   -3.3744   -0.6441    0.0000 N   0  0  0  0  0  0  0  0  0  0  0  0
   -4.1065    0.6588    0.0000 N   0  0  0  0  0  0  0  0  0  0  0  0
   -0.4026    1.8885    0.0000 N   0  0  0  0  0  0  0  0  0  0  0  0
    1.0175    0.2342    0.0000 N   0  0  0  0  0  0  0  0  0  0  0  0
    4.1065   -0.5416    0.0000 N   0  0  0  0  0  0  0  0  0  0  0  0
   -1.9398    0.1756    0.0000 C   0  0  0  0  0  0  0  0  0  0  0  0
   -3.3744    0.1756    0.0000 C   0  0  0  0  0  0  0  0  0  0  0  0
   -1.1200    0.6588    0.0000 C   0  0  0  0  0  0  0  0  0  0  0  0
   -2.6571    0.5855    0.0000 C   0  0  0  0  0  0  0  0  0  0  0  0
   -2.6571   -1.0394    0.0000 C   0  0  0  0  0  0  0  0  0  0  0  0
   -1.9544   -0.6441    0.0000 C   0  0  0  0  0  0  0  0  0  0  0  0
   -1.1054    1.4640    0.0000 C   0  0  0  0  0  0  0  0  0  0  0  0
   -0.4172    0.2489    0.0000 C   0  0  0  0  0  0  0  0  0  0  0  0
    0.3001    0.6441    0.0000 C   0  0  0  0  0  0  0  0  0  0  0  0
    0.3148    1.4640    0.0000 C   0  0  0  0  0  0  0  0  0  0  0  0
    1.9544    0.6734    0.0000 C   0  0  0  0  0  0  0  0  0  0  0  0
    2.6864    0.2928    0.0000 C   0  0  0  0  0  0  0  0  0  0  0  0
   -4.1065    1.4786    0.0000 C   0  0  0  0  0  0  0  0  0  0  0  0
   -4.8091    0.2489    0.0000 C   0  0  0  0  0  0  0  0  0  0  0  0
   -4.1065   -1.0541    0.0000 C   0  0  0  0  0  0  0  0  0  0  0  0
    4.1065    0.2928    0.0000 C   0  0  0  0  0  0  0  0  0  0  0  0
    3.3744    0.6881    0.0000 C   0  0  0  0  0  0  0  0  0  0  0  0
   -1.8372    1.8592    0.0000 C   0  0  0  0  0  0  0  0  0  0  0  0
    2.6717   -0.5416    0.0000 C   0  0  0  0  0  0  0  0  0  0  0  0
   -4.8384    1.8885    0.0000 C   0  0  0  0  0  0  0  0  0  0  0  0
   -5.5265    0.6588    0.0000 C   0  0  0  0  0  0  0  0  0  0  0  0
    4.8091    0.7027    0.0000 C   0  0  0  0  0  0  0  0  0  0  0  0
    3.3744   -0.9516    0.0000 C   0  0  0  0  0  0  0  0  0  0  0  0
  1 32  1  0  0  0  0
  2 32  1  0  0  0  0
  3 15  2  0  0  0  0
  4 30  1  0  0  0  0
  4 31  1  0  0  0  0
  5 21  2  0  0  0  0
  6 12  1  0  0  0  0
  6 15  1  0  0  0  0
  6 25  1  0  0  0  0
  7 12  1  0  0  0  0
  7 23  1  0  0  0  0
  7 24  1  0  0  0  0
  8 17  2  0  0  0  0
  8 20  1  0  0  0  0
  9 19  1  0  0  0  0
  9 21  1  0  0  0  0
 10 26  1  0  0  0  0
 10 33  2  0  0  0  0
 11 13  1  0  0  0  0
 11 14  1  0  0  0  0
 11 16  2  0  0  0  0
 12 14  2  0  0  0  0
 13 17  1  0  0  0  0
 13 18  2  0  0  0  0
 15 16  1  0  0  0  0
 17 28  1  0  0  0  0
 18 19  1  0  0  0  0
 19 20  2  0  0  0  0
 21 22  1  0  0  0  0
 22 27  1  0  0  0  0
 22 29  2  0  0  0  0
 23 30  1  0  0  0  0
 24 31  1  0  0  0  0
 26 27  2  0  0  0  0
 26 32  1  0  0  0  0
 29 33  1  0  0  0  0
M  END
> <PUBCHEM_COMPOUND_ID_TYPE>
0

> <PUBCHEM_TOTAL_CHARGE>
0

> <PUBCHEM_SUBSTANCE_ID>
310943365

> <PUBCHEM_SUBSTANCE_VERSION>
1

> <PUBCHEM_EXT_DATASOURCE_NAME>
4488

> <PUBCHEM_EXT_DATASOURCE_REGID>
SCHEMBL16121428

> <PUBCHEM_SUBSTANCE_COMMENT>
InChI=1S/C23H23F2N5O3/c1-14-18(16-10-20(29(2)21(31)11-16)30-5-7-33-8-6-30)12-17(13-27-14)28-23(32)15-3-4-26-19(9-15)22(24)25/h3-4,9-13,22H,5-8H2,1-2H3,(H,28,32)
InChIKey=MUJKFLDNKIDIID-UHFFFAOYSA-N

> <PUBCHEM_SUBSTANCE_SYNONYM>
SCHEMBL16121428

> <PUBCHEM_XREF_EXT_ID>
SCHEMBL16121428

> <PUBCHEM_EXT_DATASOURCE_URL>
https://www.surechembl.org/

> <PUBCHEM_EXT_SUBSTANCE_URL>
https://www.surechembl.org/chemical/SCHEMBL16121428

> <PUBCHEM_CID_ASSOCIATIONS>
117609789  1

> <PUBCHEM_COORDINATE_TYPE>
1
3

$$$$
