310941594
  -OEChem-07211613022D

 33 37  0     0  0  0  0  0  0999 V2000
    2.1917    1.9358    0.0000 S   0  0  0  0  0  0  0  0  0  0  0  0
   -0.1449   -0.7078    0.0000 O   0  0  0  0  0  0  0  0  0  0  0  0
    1.3048   -0.7078    0.0000 O   0  0  0  0  0  0  0  0  0  0  0  0
   -3.0274   -0.7078    0.0000 O   0  0  0  0  0  0  0  0  0  0  0  0
    5.0741    0.9637    0.0000 O   0  0  0  0  0  0  0  0  0  0  0  0
    2.0552    0.6055    0.0000 N   0  0  0  0  0  0  0  0  0  0  0  0
    3.4367    1.1342    0.0000 N   0  0  0  0  0  0  0  0  0  0  0  0
   -5.8927   -1.5435    0.0000 N   0  0  0  0  0  0  0  0  0  0  0  0
    0.5713    0.5373    0.0000 C   0  0  0  0  0  0  0  0  0  0  0  0
    1.2706    0.9466    0.0000 C   0  0  0  0  0  0  0  0  0  0  0  0
   -0.8613    0.5373    0.0000 C   0  0  0  0  0  0  0  0  0  0  0  0
   -0.8784   -0.2814    0.0000 C   0  0  0  0  0  0  0  0  0  0  0  0
    0.5543   -0.2644    0.0000 C   0  0  0  0  0  0  0  0  0  0  0  0
   -0.1620    0.9466    0.0000 C   0  0  0  0  0  0  0  0  0  0  0  0
    2.6010    1.2366    0.0000 C   0  0  0  0  0  0  0  0  0  0  0  0
    1.3900    1.7823    0.0000 C   0  0  0  0  0  0  0  0  0  0  0  0
   -1.5947   -0.6907    0.0000 C   0  0  0  0  0  0  0  0  0  0  0  0
   -1.5947    0.9466    0.0000 C   0  0  0  0  0  0  0  0  0  0  0  0
   -2.3110   -0.2985    0.0000 C   0  0  0  0  0  0  0  0  0  0  0  0
   -2.2940    0.5373    0.0000 C   0  0  0  0  0  0  0  0  0  0  0  0
    3.7779    0.4008    0.0000 C   0  0  0  0  0  0  0  0  0  0  0  0
    4.5794    0.2985    0.0000 C   0  0  0  0  0  0  0  0  0  0  0  0
    3.3003   -0.2644    0.0000 C   0  0  0  0  0  0  0  0  0  0  0  0
    4.9206   -0.4349    0.0000 C   0  0  0  0  0  0  0  0  0  0  0  0
   -3.7437   -0.2985    0.0000 C   0  0  0  0  0  0  0  0  0  0  0  0
    3.6243   -1.0319    0.0000 C   0  0  0  0  0  0  0  0  0  0  0  0
   -4.4601   -0.7078    0.0000 C   0  0  0  0  0  0  0  0  0  0  0  0
    4.4601   -1.1171    0.0000 C   0  0  0  0  0  0  0  0  0  0  0  0
   -5.1934   -0.2985    0.0000 C   0  0  0  0  0  0  0  0  0  0  0  0
   -4.4772   -1.5435    0.0000 C   0  0  0  0  0  0  0  0  0  0  0  0
    5.8927    0.8613    0.0000 C   0  0  0  0  0  0  0  0  0  0  0  0
   -5.8927   -0.7078    0.0000 C   0  0  0  0  0  0  0  0  0  0  0  0
   -5.1594   -1.9358    0.0000 C   0  0  0  0  0  0  0  0  0  0  0  0
  1 15  1  0  0  0  0
  1 16  1  0  0  0  0
  2 12  1  0  0  0  0
  2 13  1  0  0  0  0
  3 13  2  0  0  0  0
  4 19  1  0  0  0  0
  4 25  1  0  0  0  0
  5 22  1  0  0  0  0
  5 31  1  0  0  0  0
  6 10  1  0  0  0  0
  6 15  2  0  0  0  0
  7 15  1  0  0  0  0
  7 21  1  0  0  0  0
  8 32  2  0  0  0  0
  8 33  1  0  0  0  0
  9 10  1  0  0  0  0
  9 13  1  0  0  0  0
  9 14  2  0  0  0  0
 10 16  2  0  0  0  0
 11 12  1  0  0  0  0
 11 14  1  0  0  0  0
 11 18  2  0  0  0  0
 12 17  2  0  0  0  0
 17 19  1  0  0  0  0
 18 20  1  0  0  0  0
 19 20  2  0  0  0  0
 21 22  1  0  0  0  0
 21 23  2  0  0  0  0
 22 24  2  0  0  0  0
 23 26  1  0  0  0  0
 24 28  1  0  0  0  0
 25 27  1  0  0  0  0
 26 28  2  0  0  0  0
 27 29  2  0  0  0  0
 27 30  1  0  0  0  0
 29 32  1  0  0  0  0
 30 33  2  0  0  0  0
M  END
> <PUBCHEM_COMPOUND_ID_TYPE>
0

> <PUBCHEM_TOTAL_CHARGE>
0

> <PUBCHEM_SUBSTANCE_ID>
310941594

> <PUBCHEM_SUBSTANCE_VERSION>
1

> <PUBCHEM_EXT_DATASOURCE_NAME>
4488

> <PUBCHEM_EXT_DATASOURCE_REGID>
SCHEMBL16119625

> <PUBCHEM_SUBSTANCE_COMMENT>
InChI=1S/C25H19N3O4S/c1-30-22-5-3-2-4-20(22)27-25-28-21(15-33-25)19-12-17-6-7-18(13-23(17)32-24(19)29)31-14-16-8-10-26-11-9-16/h2-13,15H,14H2,1H3,(H,27,28)
InChIKey=IVNQPNGNJNKONZ-UHFFFAOYSA-N

> <PUBCHEM_SUBSTANCE_SYNONYM>
SCHEMBL16119625

> <PUBCHEM_XREF_EXT_ID>
SCHEMBL16119625

> <PUBCHEM_EXT_DATASOURCE_URL>
https://www.surechembl.org/

> <PUBCHEM_EXT_SUBSTANCE_URL>
https://www.surechembl.org/chemical/SCHEMBL16119625

> <PUBCHEM_CID_ASSOCIATIONS>
117608395  1

> <PUBCHEM_COORDINATE_TYPE>
1
3

$$$$
