310947107
  -OEChem-07211613022D

 42 46  0     1  0  0  0  0  0999 V2000
    1.0042    4.1591    0.0000 F   0  0  0  0  0  0  0  0  0  0  0  0
    1.4469    5.1869    0.0000 F   0  0  0  0  0  0  0  0  0  0  0  0
    2.4749    4.7442    0.0000 F   0  0  0  0  0  0  0  0  0  0  0  0
    0.2609   -3.8428    0.0000 F   0  0  0  0  0  0  0  0  0  0  0  0
   -0.5140   -3.6531    0.0000 F   0  0  0  0  0  0  0  0  0  0  0  0
   -0.0711   -5.1869    0.0000 F   0  0  0  0  0  0  0  0  0  0  0  0
   -3.1865    0.2847    0.0000 O   0  0  0  0  0  0  0  0  0  0  0  0
   -1.5577   -4.8549    0.0000 O   0  0  0  0  0  0  0  0  0  0  0  0
   -0.4191    0.1582    0.0000 N   0  0  0  0  0  0  0  0  0  0  0  0
   -0.7669   -0.6167    0.0000 N   0  0  0  0  0  0  0  0  0  0  0  0
   -2.1111   -1.1228    0.0000 N   0  0  0  0  0  0  0  0  0  0  0  0
    1.3679    1.6447    0.0000 N   0  0  0  0  0  0  0  0  0  0  0  0
   -2.5065    1.5340    0.0000 N   0  0  0  0  0  0  0  0  0  0  0  0
    2.6804    2.1665    0.0000 N   0  0  0  0  0  0  0  0  0  0  0  0
    1.7791   -1.2493    0.0000 N   0  0  0  0  0  0  0  0  0  0  0  0
    0.3400    0.3163    0.0000 C   0  0  0  0  0  0  0  0  0  0  0  0
   -1.0516    0.6958    0.0000 C   0  0  0  0  0  0  0  0  0  0  0  0
   -1.7791    0.2847    0.0000 C   0  0  0  0  0  0  0  0  0  0  0  0
   -1.5893   -0.5060    0.0000 C   0  0  0  0  0  0  0  0  0  0  0  0
   -2.4907    0.7116    0.0000 C   0  0  0  0  0  0  0  0  0  0  0  0
    0.0395    1.0753    0.0000 C   0  0  0  0  0  0  0  0  0  0  0  0
    1.1940    0.2214    0.0000 C   0  0  0  0  0  0  0  0  0  0  0  0
   -1.0516    1.5340    0.0000 C   0  0  0  0  0  0  0  0  0  0  0  0
    0.3874   -0.4744    0.0000 C   0  0  0  0  0  0  0  0  0  0  0  0
    0.5614    1.7553    0.0000 C   0  0  0  0  0  0  0  0  0  0  0  0
    1.6684    0.8698    0.0000 C   0  0  0  0  0  0  0  0  0  0  0  0
   -1.7791    1.9609    0.0000 C   0  0  0  0  0  0  0  0  0  0  0  0
   -1.8582   -1.8818    0.0000 C   0  0  0  0  0  0  0  0  0  0  0  0
    1.8582    2.2772    0.0000 C   0  0  0  0  0  0  0  0  0  0  0  0
    1.0674   -0.8698    0.0000 C   0  0  0  0  0  0  0  0  0  0  0  0
    1.5418    3.0521    0.0000 C   0  0  0  0  0  0  0  0  0  0  0  0
    2.0321    3.7321    0.0000 C   0  0  0  0  0  0  0  0  0  0  0  0
   -2.3800   -2.4986    0.0000 C   0  0  0  0  0  0  0  0  0  0  0  0
   -1.0358   -2.0558    0.0000 C   0  0  0  0  0  0  0  0  0  0  0  0
   -1.3205   -3.4633    0.0000 C   0  0  0  0  0  0  0  0  0  0  0  0
    1.7474    4.4595    0.0000 C   0  0  0  0  0  0  0  0  0  0  0  0
   -2.1269   -3.2893    0.0000 C   0  0  0  0  0  0  0  0  0  0  0  0
   -0.7669   -2.8307    0.0000 C   0  0  0  0  0  0  0  0  0  0  0  0
   -1.0674   -4.2223    0.0000 C   0  0  3  0  0  0  0  0  0  0  0  0
    2.8860    3.5898    0.0000 C   0  0  0  0  0  0  0  0  0  0  0  0
    3.1865    2.8149    0.0000 C   0  0  0  0  0  0  0  0  0  0  0  0
   -0.2926   -4.4121    0.0000 C   0  0  0  0  0  0  0  0  0  0  0  0
  1 36  1  0  0  0  0
  2 36  1  0  0  0  0
  3 36  1  0  0  0  0
  4 42  1  0  0  0  0
  5 42  1  0  0  0  0
  6 42  1  0  0  0  0
  7 20  2  0  0  0  0
 39  8  1  6  0  0  0
  9 10  1  0  0  0  0
  9 16  1  0  0  0  0
  9 17  1  0  0  0  0
 10 19  2  0  0  0  0
 11 19  1  0  0  0  0
 11 28  1  0  0  0  0
 12 25  1  0  0  0  0
 12 26  1  0  0  0  0
 12 29  1  0  0  0  0
 13 20  1  0  0  0  0
 13 27  1  0  0  0  0
 14 29  2  0  0  0  0
 14 41  1  0  0  0  0
 15 30  3  0  0  0  0
 16 21  1  0  0  0  0
 16 22  1  0  0  0  0
 16 24  1  0  0  0  0
 17 18  2  0  0  0  0
 17 23  1  0  0  0  0
 18 19  1  0  0  0  0
 18 20  1  0  0  0  0
 21 25  1  0  0  0  0
 22 26  1  0  0  0  0
 23 27  2  0  0  0  0
 24 30  1  0  0  0  0
 28 33  2  0  0  0  0
 28 34  1  0  0  0  0
 29 31  1  0  0  0  0
 31 32  2  0  0  0  0
 32 36  1  0  0  0  0
 32 40  1  0  0  0  0
 33 37  1  0  0  0  0
 34 38  2  0  0  0  0
 35 37  2  0  0  0  0
 35 38  1  0  0  0  0
 35 39  1  0  0  0  0
 39 42  1  0  0  0  0
 40 41  2  0  0  0  0
M  END
> <PUBCHEM_COMPOUND_ID_TYPE>
0

> <PUBCHEM_TOTAL_CHARGE>
0

> <PUBCHEM_SUBSTANCE_ID>
310947107

> <PUBCHEM_SUBSTANCE_VERSION>
1

> <PUBCHEM_EXT_DATASOURCE_NAME>
4488

> <PUBCHEM_EXT_DATASOURCE_REGID>
SCHEMBL16125261

> <PUBCHEM_SUBSTANCE_COMMENT>
InChI=1S/C27H23F6N7O2/c28-26(29,30)17-5-11-35-20(15-17)39-13-8-25(7-10-34,9-14-39)40-19-6-12-36-24(42)21(19)23(38-40)37-18-3-1-16(2-4-18)22(41)27(31,32)33/h1-6,11-12,15,22,41H,7-9,13-14H2,(H,36,42)(H,37,38)/t22-/m1/s1
InChIKey=UTVLIIWEALHXFJ-JOCHJYFZSA-N

> <PUBCHEM_SUBSTANCE_SYNONYM>
SCHEMBL16125261

> <PUBCHEM_XREF_EXT_ID>
SCHEMBL16125261

> <PUBCHEM_EXT_DATASOURCE_URL>
https://www.surechembl.org/

> <PUBCHEM_EXT_SUBSTANCE_URL>
https://www.surechembl.org/chemical/SCHEMBL16125261

> <PUBCHEM_CID_ASSOCIATIONS>
117612958  1

> <PUBCHEM_COORDINATE_TYPE>
1
3

> <PUBCHEM_BONDANNOTATIONS>
39  8  6

$$$$
