310941647
  -OEChem-07211613022D

 30 33  0     0  0  0  0  0  0999 V2000
    1.1021    1.9414    0.0000 S   0  0  0  0  0  0  0  0  0  0  0  0
   -1.2208   -0.7206    0.0000 O   0  0  0  0  0  0  0  0  0  0  0  0
    0.2035   -0.7206    0.0000 O   0  0  0  0  0  0  0  0  0  0  0  0
    3.9846    0.9580    0.0000 O   0  0  0  0  0  0  0  0  0  0  0  0
    0.9834    0.6019    0.0000 N   0  0  0  0  0  0  0  0  0  0  0  0
    2.3399    1.1275    0.0000 N   0  0  0  0  0  0  0  0  0  0  0  0
   -4.0863   -0.7206    0.0000 N   0  0  0  0  0  0  0  0  0  0  0  0
   -0.4748    0.5511    0.0000 C   0  0  0  0  0  0  0  0  0  0  0  0
   -1.9330    0.5341    0.0000 C   0  0  0  0  0  0  0  0  0  0  0  0
    0.2035    0.9410    0.0000 C   0  0  0  0  0  0  0  0  0  0  0  0
   -1.9499   -0.2798    0.0000 C   0  0  0  0  0  0  0  0  0  0  0  0
   -0.5256   -0.2798    0.0000 C   0  0  0  0  0  0  0  0  0  0  0  0
   -1.2208    0.9410    0.0000 C   0  0  0  0  0  0  0  0  0  0  0  0
    1.5091    1.2463    0.0000 C   0  0  0  0  0  0  0  0  0  0  0  0
   -2.6281   -0.7037    0.0000 C   0  0  0  0  0  0  0  0  0  0  0  0
   -3.3572   -0.2967    0.0000 C   0  0  0  0  0  0  0  0  0  0  0  0
    0.3052    1.7719    0.0000 C   0  0  0  0  0  0  0  0  0  0  0  0
   -2.6621    0.9241    0.0000 C   0  0  0  0  0  0  0  0  0  0  0  0
   -3.3572    0.5341    0.0000 C   0  0  0  0  0  0  0  0  0  0  0  0
    2.6790    0.3815    0.0000 C   0  0  0  0  0  0  0  0  0  0  0  0
    3.4928    0.2798    0.0000 C   0  0  0  0  0  0  0  0  0  0  0  0
    2.2043   -0.2967    0.0000 C   0  0  0  0  0  0  0  0  0  0  0  0
   -4.0524   -1.5515    0.0000 C   0  0  0  0  0  0  0  0  0  0  0  0
   -4.7985   -0.2967    0.0000 C   0  0  0  0  0  0  0  0  0  0  0  0
    3.8320   -0.4493    0.0000 C   0  0  0  0  0  0  0  0  0  0  0  0
    2.5264   -1.0258    0.0000 C   0  0  0  0  0  0  0  0  0  0  0  0
    3.3572   -1.1106    0.0000 C   0  0  0  0  0  0  0  0  0  0  0  0
   -3.3572   -1.9414    0.0000 C   0  0  0  0  0  0  0  0  0  0  0  0
   -4.7985    0.5511    0.0000 C   0  0  0  0  0  0  0  0  0  0  0  0
    4.7985    0.8732    0.0000 C   0  0  0  0  0  0  0  0  0  0  0  0
  1 14  1  0  0  0  0
  1 17  1  0  0  0  0
  2 11  1  0  0  0  0
  2 12  1  0  0  0  0
  3 12  2  0  0  0  0
  4 21  1  0  0  0  0
  4 30  1  0  0  0  0
  5 10  1  0  0  0  0
  5 14  2  0  0  0  0
  6 14  1  0  0  0  0
  6 20  1  0  0  0  0
  7 16  1  0  0  0  0
  7 23  1  0  0  0  0
  7 24  1  0  0  0  0
  8 10  1  0  0  0  0
  8 12  1  0  0  0  0
  8 13  2  0  0  0  0
  9 11  1  0  0  0  0
  9 13  1  0  0  0  0
  9 18  2  0  0  0  0
 10 17  2  0  0  0  0
 11 15  2  0  0  0  0
 15 16  1  0  0  0  0
 16 19  2  0  0  0  0
 18 19  1  0  0  0  0
 20 21  1  0  0  0  0
 20 22  2  0  0  0  0
 21 25  2  0  0  0  0
 22 26  1  0  0  0  0
 23 28  1  0  0  0  0
 24 29  1  0  0  0  0
 25 27  1  0  0  0  0
 26 27  2  0  0  0  0
M  END
> <PUBCHEM_COMPOUND_ID_TYPE>
0

> <PUBCHEM_TOTAL_CHARGE>
0

> <PUBCHEM_SUBSTANCE_ID>
310941647

> <PUBCHEM_SUBSTANCE_VERSION>
1

> <PUBCHEM_EXT_DATASOURCE_NAME>
4488

> <PUBCHEM_EXT_DATASOURCE_REGID>
SCHEMBL16119678

> <PUBCHEM_SUBSTANCE_COMMENT>
InChI=1S/C23H23N3O3S/c1-4-26(5-2)16-11-10-15-12-17(22(27)29-21(15)13-16)19-14-30-23(25-19)24-18-8-6-7-9-20(18)28-3/h6-14H,4-5H2,1-3H3,(H,24,25)
InChIKey=IKTOYTYOVKDFMN-UHFFFAOYSA-N

> <PUBCHEM_SUBSTANCE_SYNONYM>
SCHEMBL16119678

> <PUBCHEM_XREF_EXT_ID>
SCHEMBL16119678

> <PUBCHEM_EXT_DATASOURCE_URL>
https://www.surechembl.org/

> <PUBCHEM_EXT_SUBSTANCE_URL>
https://www.surechembl.org/chemical/SCHEMBL16119678

> <PUBCHEM_CID_ASSOCIATIONS>
3993811  1

> <PUBCHEM_COORDINATE_TYPE>
1
3

$$$$
