310948095
  -OEChem-07211613022D

 47 51  0     0  0  0  0  0  0999 V2000
   -2.2146   -3.1353    0.0000 S   0  0  0  0  0  0  0  0  0  0  0  0
    0.5318   -3.2941    0.0000 F   0  0  0  0  0  0  0  0  0  0  0  0
   -0.5160    4.1989    0.0000 F   0  0  0  0  0  0  0  0  0  0  0  0
    0.5953    4.3577    0.0000 F   0  0  0  0  0  0  0  0  0  0  0  0
    0.7541    3.2464    0.0000 F   0  0  0  0  0  0  0  0  0  0  0  0
    2.7702   -3.5798    0.0000 F   0  0  0  0  0  0  0  0  0  0  0  0
    2.4845   -2.4527    0.0000 F   0  0  0  0  0  0  0  0  0  0  0  0
    1.6430   -3.8179    0.0000 F   0  0  0  0  0  0  0  0  0  0  0  0
    0.8176    1.7700    0.0000 O   0  0  0  0  0  0  0  0  0  0  0  0
   -2.6115   -2.4686    0.0000 O   0  0  0  0  0  0  0  0  0  0  0  0
   -1.8018   -3.8338    0.0000 O   0  0  0  0  0  0  0  0  0  0  0  0
    1.3573   -2.7226    0.0000 O   0  0  0  0  0  0  0  0  0  0  0  0
   -0.0714   -4.3577    0.0000 O   0  0  0  0  0  0  0  0  0  0  0  0
   -0.7858    1.8018    0.0000 N   0  0  0  0  0  0  0  0  0  0  0  0
    1.9764    1.1192    0.0000 N   0  0  0  0  0  0  0  0  0  0  0  0
   -0.1191    2.2939    0.0000 N   0  0  0  0  0  0  0  0  0  0  0  0
   -0.0556    0.5795    0.0000 C   0  0  0  0  0  0  0  0  0  0  0  0
    0.6588    0.9922    0.0000 C   0  0  0  0  0  0  0  0  0  0  0  0
   -0.7700    0.9922    0.0000 C   0  0  0  0  0  0  0  0  0  0  0  0
    1.3732    0.5795    0.0000 C   0  0  0  0  0  0  0  0  0  0  0  0
   -0.7700   -0.6430    0.0000 C   0  0  0  0  0  0  0  0  0  0  0  0
   -0.0556   -0.2302    0.0000 C   0  0  0  0  0  0  0  0  0  0  0  0
   -0.7858   -1.4843    0.0000 C   0  0  0  0  0  0  0  0  0  0  0  0
    1.6589    1.8653    0.0000 C   0  0  0  0  0  0  0  0  0  0  0  0
    1.3732   -0.2302    0.0000 C   0  0  0  0  0  0  0  0  0  0  0  0
   -1.4843    0.5795    0.0000 C   0  0  0  0  0  0  0  0  0  0  0  0
   -1.5002   -2.7067    0.0000 C   0  0  0  0  0  0  0  0  0  0  0  0
   -1.4843   -0.2461    0.0000 C   0  0  0  0  0  0  0  0  0  0  0  0
   -0.7700   -3.1036    0.0000 C   0  0  0  0  0  0  0  0  0  0  0  0
   -1.4843   -1.8812    0.0000 C   0  0  0  0  0  0  0  0  0  0  0  0
   -0.3572    3.0718    0.0000 C   0  0  0  0  0  0  0  0  0  0  0  0
   -0.0556   -1.8812    0.0000 C   0  0  0  0  0  0  0  0  0  0  0  0
   -0.0714   -2.6908    0.0000 C   0  0  0  0  0  0  0  0  0  0  0  0
   -1.4367    2.2939    0.0000 C   0  0  0  0  0  0  0  0  0  0  0  0
    2.0717    2.5956    0.0000 C   0  0  0  0  0  0  0  0  0  0  0  0
   -1.1827    3.0718    0.0000 C   0  0  0  0  0  0  0  0  0  0  0  0
    0.1191    3.7227    0.0000 C   0  0  0  0  0  0  0  0  0  0  0  0
    0.6747   -0.6430    0.0000 C   0  0  0  0  0  0  0  0  0  0  0  0
    2.0875   -0.6588    0.0000 C   0  0  0  0  0  0  0  0  0  0  0  0
   -0.7700   -3.9290    0.0000 C   0  0  0  0  0  0  0  0  0  0  0  0
    1.3732   -1.8653    0.0000 C   0  0  0  0  0  0  0  0  0  0  0  0
    0.6747   -1.4843    0.0000 C   0  0  0  0  0  0  0  0  0  0  0  0
    2.0875   -1.4684    0.0000 C   0  0  0  0  0  0  0  0  0  0  0  0
   -2.8813   -3.5480    0.0000 C   0  0  0  0  0  0  0  0  0  0  0  0
    1.5002    3.1829    0.0000 C   0  0  0  0  0  0  0  0  0  0  0  0
    2.8813    2.8178    0.0000 C   0  0  0  0  0  0  0  0  0  0  0  0
    2.0717   -3.1512    0.0000 C   0  0  0  0  0  0  0  0  0  0  0  0
  1 10  2  0  0  0  0
  1 11  2  0  0  0  0
  1 27  1  0  0  0  0
  1 44  1  0  0  0  0
  2 33  1  0  0  0  0
  3 37  1  0  0  0  0
  4 37  1  0  0  0  0
  5 37  1  0  0  0  0
  6 47  1  0  0  0  0
  7 47  1  0  0  0  0
  8 47  1  0  0  0  0
  9 18  1  0  0  0  0
  9 24  1  0  0  0  0
 12 41  1  0  0  0  0
 12 47  1  0  0  0  0
 13 40  1  0  0  0  0
 14 16  1  0  0  0  0
 14 19  1  0  0  0  0
 14 34  1  0  0  0  0
 15 20  1  0  0  0  0
 15 24  2  0  0  0  0
 16 31  2  0  0  0  0
 17 18  1  0  0  0  0
 17 19  1  0  0  0  0
 17 22  2  0  0  0  0
 18 20  2  0  0  0  0
 19 26  2  0  0  0  0
 20 25  1  0  0  0  0
 21 22  1  0  0  0  0
 21 23  1  0  0  0  0
 21 28  2  0  0  0  0
 23 30  2  0  0  0  0
 23 32  1  0  0  0  0
 24 35  1  0  0  0  0
 25 38  2  0  0  0  0
 25 39  1  0  0  0  0
 26 28  1  0  0  0  0
 27 29  2  0  0  0  0
 27 30  1  0  0  0  0
 29 33  1  0  0  0  0
 29 40  1  0  0  0  0
 31 36  1  0  0  0  0
 31 37  1  0  0  0  0
 32 33  2  0  0  0  0
 34 36  2  0  0  0  0
 35 45  1  0  0  0  0
 35 46  1  0  0  0  0
 38 42  1  0  0  0  0
 39 43  2  0  0  0  0
 41 42  2  0  0  0  0
 41 43  1  0  0  0  0
M  END
> <PUBCHEM_COMPOUND_ID_TYPE>
0

> <PUBCHEM_TOTAL_CHARGE>
0

> <PUBCHEM_SUBSTANCE_ID>
310948095

> <PUBCHEM_SUBSTANCE_VERSION>
1

> <PUBCHEM_EXT_DATASOURCE_NAME>
4488

> <PUBCHEM_EXT_DATASOURCE_REGID>
SCHEMBL16126271

> <PUBCHEM_SUBSTANCE_COMMENT>
InChI=1S/C31H24F7N3O5S/c1-16(2)29-39-27(17-4-7-20(8-5-17)46-31(36,37)38)28(45-29)21-12-18(6-9-24(21)41-11-10-26(40-41)30(33,34)35)19-13-23(32)22(15-42)25(14-19)47(3,43)44/h4-14,16,42H,15H2,1-3H3
InChIKey=WPCOSDNAMGZGCJ-UHFFFAOYSA-N

> <PUBCHEM_SUBSTANCE_SYNONYM>
SCHEMBL16126271

> <PUBCHEM_XREF_EXT_ID>
SCHEMBL16126271

> <PUBCHEM_EXT_DATASOURCE_URL>
https://www.surechembl.org/

> <PUBCHEM_EXT_SUBSTANCE_URL>
https://www.surechembl.org/chemical/SCHEMBL16126271

> <PUBCHEM_CID_ASSOCIATIONS>
117613714  1

> <PUBCHEM_COORDINATE_TYPE>
1
3

$$$$
