310949938
  -OEChem-07211613022D

 17 19  0     1  0  0  0  0  0999 V2000
   -0.7759   -0.5681    0.0000 N   0  0  0  0  0  0  0  0  0  0  0  0
   -2.9374    0.6651    0.0000 N   0  0  0  0  0  0  0  0  0  0  0  0
    2.0922    0.2633    0.0000 C   0  0  0  0  0  0  0  0  0  0  0  0
    1.3855    0.6651    0.0000 C   0  0  3  0  0  0  0  0  0  0  0  0
    2.0784   -0.5681    0.0000 C   0  0  3  0  0  0  0  0  0  0  0  0
    1.4410   -0.1108    0.0000 C   0  0  0  0  0  0  0  0  0  0  0  0
    0.6373   -0.5681    0.0000 C   0  0  0  0  0  0  0  0  0  0  0  0
    0.6651    0.2494    0.0000 C   0  0  0  0  0  0  0  0  0  0  0  0
    1.3855   -0.9838    0.0000 C   0  0  0  0  0  0  0  0  0  0  0  0
   -0.0554   -0.9838    0.0000 C   0  0  0  0  0  0  0  0  0  0  0  0
    2.4941    0.9838    0.0000 C   0  0  0  0  0  0  0  0  0  0  0  0
    2.9374    0.2633    0.0000 C   0  0  0  0  0  0  0  0  0  0  0  0
   -1.4964   -0.9838    0.0000 C   0  0  0  0  0  0  0  0  0  0  0  0
   -0.7898    0.2494    0.0000 C   0  0  0  0  0  0  0  0  0  0  0  0
   -2.2169    0.2633    0.0000 C   0  0  0  0  0  0  0  0  0  0  0  0
   -2.2169   -0.5681    0.0000 C   0  0  0  0  0  0  0  0  0  0  0  0
   -1.5103    0.6651    0.0000 C   0  0  0  0  0  0  0  0  0  0  0  0
  1 10  1  0  0  0  0
  1 13  1  0  0  0  0
  1 14  1  0  0  0  0
  2 15  1  0  0  0  0
  3  4  1  0  0  0  0
  3  5  1  0  0  0  0
  3 11  1  0  0  0  0
  3 12  1  0  0  0  0
  4  6  1  0  0  0  0
  4  8  1  1  0  0  0
  5  6  1  0  0  0  0
  5  9  1  1  0  0  0
  7  8  1  0  0  0  0
  7  9  1  0  0  0  0
  7 10  1  1  0  0  0
 13 16  1  0  0  0  0
 14 17  1  0  0  0  0
 15 16  1  0  0  0  0
 15 17  1  0  0  0  0
M  END
> <PUBCHEM_COMPOUND_ID_TYPE>
0

> <PUBCHEM_TOTAL_CHARGE>
0

> <PUBCHEM_SUBSTANCE_ID>
310949938

> <PUBCHEM_SUBSTANCE_VERSION>
1

> <PUBCHEM_EXT_DATASOURCE_NAME>
4488

> <PUBCHEM_EXT_DATASOURCE_REGID>
SCHEMBL16128165

> <PUBCHEM_SUBSTANCE_COMMENT>
InChI=1S/C15H28N2/c1-15(2)12-7-11(8-13(15)9-12)10-17-5-3-14(16)4-6-17/h11-14H,3-10,16H2,1-2H3/t11-,12+,13-
InChIKey=WQVZAEDBHYAKTD-CLLJXQQHSA-N

> <PUBCHEM_SUBSTANCE_SYNONYM>
SCHEMBL16128165

> <PUBCHEM_XREF_EXT_ID>
SCHEMBL16128165

> <PUBCHEM_EXT_DATASOURCE_URL>
https://www.surechembl.org/

> <PUBCHEM_EXT_SUBSTANCE_URL>
https://www.surechembl.org/chemical/SCHEMBL16128165

> <PUBCHEM_CID_ASSOCIATIONS>
117615201  1

> <PUBCHEM_COORDINATE_TYPE>
1
3

> <PUBCHEM_BONDANNOTATIONS>
4  8  5
5  9  5
7  10  5

$$$$
