310947026
  -OEChem-07211613022D

 46 51  0     1  0  0  0  0  0999 V2000
   -0.7042    0.9860    0.0000 O   0  0  0  0  0  0  0  0  0  0  0  0
   -3.9237   -2.4347    0.0000 O   0  0  0  0  0  0  0  0  0  0  0  0
    0.5433    2.0927    0.0000 O   0  0  0  0  0  0  0  0  0  0  0  0
   -0.4226    3.1591    0.0000 O   0  0  0  0  0  0  0  0  0  0  0  0
   -2.3744   -0.1006    0.0000 N   0  0  0  0  0  0  0  0  0  0  0  0
   -1.8914   -0.7848    0.0000 N   0  0  0  0  0  0  0  0  0  0  0  0
   -2.1329   -2.2335    0.0000 N   0  0  0  0  0  0  0  0  0  0  0  0
   -4.6281   -1.1872    0.0000 N   0  0  0  0  0  0  0  0  0  0  0  0
    1.1067   -2.9177    0.0000 N   0  0  0  0  0  0  0  0  0  0  0  0
    2.4750   -2.4750    0.0000 N   0  0  0  0  0  0  0  0  0  0  0  0
   -4.0445    1.7506    0.0000 N   0  0  0  0  0  0  0  0  0  0  0  0
   -2.1530    0.7042    0.0000 C   0  0  3  0  0  0  0  0  0  0  0  0
   -3.1591   -0.3420    0.0000 C   0  0  0  0  0  0  0  0  0  0  0  0
   -3.1994   -1.1670    0.0000 C   0  0  0  0  0  0  0  0  0  0  0  0
   -2.3945   -1.4689    0.0000 C   0  0  0  0  0  0  0  0  0  0  0  0
   -3.9037   -1.5695    0.0000 C   0  0  0  0  0  0  0  0  0  0  0  0
   -1.3079    0.4426    0.0000 C   0  0  0  0  0  0  0  0  0  0  0  0
   -2.2536    1.5494    0.0000 C   0  0  0  0  0  0  0  0  0  0  0  0
   -3.9237    0.0604    0.0000 C   0  0  0  0  0  0  0  0  0  0  0  0
   -2.9579    0.5433    0.0000 C   0  0  0  0  0  0  0  0  0  0  0  0
   -0.8652    1.8110    0.0000 C   0  0  3  0  0  0  0  0  0  0  0  0
   -1.3280   -2.4146    0.0000 C   0  0  0  0  0  0  0  0  0  0  0  0
   -1.6701    2.0524    0.0000 C   0  0  0  0  0  0  0  0  0  0  0  0
   -4.6079   -0.3420    0.0000 C   0  0  0  0  0  0  0  0  0  0  0  0
    0.0402   -1.9719    0.0000 C   0  0  0  0  0  0  0  0  0  0  0  0
   -0.7646   -1.7908    0.0000 C   0  0  0  0  0  0  0  0  0  0  0  0
   -3.4811    1.1470    0.0000 C   0  0  0  0  0  0  0  0  0  0  0  0
   -0.2414    2.3542    0.0000 C   0  0  0  0  0  0  0  0  0  0  0  0
    0.2817   -2.7366    0.0000 C   0  0  0  0  0  0  0  0  0  0  0  0
   -1.0664   -3.1591    0.0000 C   0  0  0  0  0  0  0  0  0  0  0  0
   -0.2616   -3.3402    0.0000 C   0  0  0  0  0  0  0  0  0  0  0  0
    1.6500   -2.2536    0.0000 C   0  0  0  0  0  0  0  0  0  0  0  0
    0.6036   -1.3482    0.0000 C   0  0  0  0  0  0  0  0  0  0  0  0
    1.4286   -1.5494    0.0000 C   0  0  0  0  0  0  0  0  0  0  0  0
    1.1670    2.6963    0.0000 C   0  0  0  0  0  0  0  0  0  0  0  0
    2.7366   -3.2597    0.0000 C   0  0  0  0  0  0  0  0  0  0  0  0
    3.0585   -1.8512    0.0000 C   0  0  0  0  0  0  0  0  0  0  0  0
    3.5213   -3.4006    0.0000 C   0  0  3  0  0  0  0  0  0  0  0  0
    3.8835   -2.0726    0.0000 C   0  0  3  0  0  0  0  0  0  0  0  0
    1.7908    3.2195    0.0000 C   0  0  0  0  0  0  0  0  0  0  0  0
    1.0262    3.4811    0.0000 C   0  0  0  0  0  0  0  0  0  0  0  0
    1.9921    2.3945    0.0000 C   0  0  0  0  0  0  0  0  0  0  0  0
    4.3865   -3.4811    0.0000 C   0  0  0  0  0  0  0  0  0  0  0  0
    4.6281   -2.6963    0.0000 C   0  0  0  0  0  0  0  0  0  0  0  0
    3.9237   -3.0787    0.0000 C   0  0  0  0  0  0  0  0  0  0  0  0
    4.0043   -2.5555    0.0000 C   0  0  0  0  0  0  0  0  0  0  0  0
  1 17  1  0  0  0  0
  1 21  1  0  0  0  0
  2 16  2  0  0  0  0
  3 28  1  0  0  0  0
  3 35  1  0  0  0  0
  4 28  2  0  0  0  0
  5  6  1  0  0  0  0
  5 12  1  0  0  0  0
  5 13  1  0  0  0  0
  6 15  2  0  0  0  0
  7 15  1  0  0  0  0
  7 22  1  0  0  0  0
  8 16  1  0  0  0  0
  8 24  1  0  0  0  0
  9 29  2  0  0  0  0
  9 32  1  0  0  0  0
 10 32  1  0  0  0  0
 10 36  1  0  0  0  0
 10 37  1  0  0  0  0
 11 27  3  0  0  0  0
 12 17  1  0  0  0  0
 12 18  1  0  0  0  0
 12 20  1  1  0  0  0
 13 14  2  0  0  0  0
 13 19  1  0  0  0  0
 14 15  1  0  0  0  0
 14 16  1  0  0  0  0
 18 23  1  0  0  0  0
 19 24  2  0  0  0  0
 20 27  1  0  0  0  0
 21 23  1  0  0  0  0
 21 28  1  1  0  0  0
 22 26  2  0  0  0  0
 22 30  1  0  0  0  0
 25 26  1  0  0  0  0
 25 29  1  0  0  0  0
 25 33  2  0  0  0  0
 29 31  1  0  0  0  0
 30 31  2  0  0  0  0
 32 34  2  0  0  0  0
 33 34  1  0  0  0  0
 35 40  1  0  0  0  0
 35 41  1  0  0  0  0
 35 42  1  0  0  0  0
 36 38  1  0  0  0  0
 37 39  1  0  0  0  0
 38 43  1  0  0  0  0
 38 45  1  0  0  0  0
 39 44  1  0  0  0  0
 39 46  1  0  0  0  0
 43 44  1  0  0  0  0
M  END
> <PUBCHEM_COMPOUND_ID_TYPE>
0

> <PUBCHEM_TOTAL_CHARGE>
0

> <PUBCHEM_SUBSTANCE_ID>
310947026

> <PUBCHEM_SUBSTANCE_VERSION>
1

> <PUBCHEM_EXT_DATASOURCE_NAME>
4488

> <PUBCHEM_EXT_DATASOURCE_REGID>
SCHEMBL16125179

> <PUBCHEM_SUBSTANCE_COMMENT>
InChI=1S/C35H43N7O4/c1-22-6-7-23(2)20-41(19-22)29-11-8-24-18-25(9-10-26(24)39-29)38-31-30-27(13-17-37-32(30)43)42(40-31)35(15-16-36)14-12-28(45-21-35)33(44)46-34(3,4)5/h8-11,13,17-18,22-23,28H,6-7,12,14-15,19-21H2,1-5H3,(H,37,43)(H,38,40)/t22?,23?,28-,35-/m0/s1
InChIKey=LINXQGAZBNRYMV-BLHSNPSXSA-N

> <PUBCHEM_SUBSTANCE_SYNONYM>
SCHEMBL16125179

> <PUBCHEM_XREF_EXT_ID>
SCHEMBL16125179

> <PUBCHEM_EXT_DATASOURCE_URL>
https://www.surechembl.org/

> <PUBCHEM_EXT_SUBSTANCE_URL>
https://www.surechembl.org/chemical/SCHEMBL16125179

> <PUBCHEM_CID_ASSOCIATIONS>
117612878  1

> <PUBCHEM_COORDINATE_TYPE>
1
3

> <PUBCHEM_BONDANNOTATIONS>
12  20  5
21  28  5

$$$$
