310938311
  -OEChem-07211613022D

 36 40  0     0  0  0  0  0  0999 V2000
    4.3017   -3.1232    0.0000 F   0  0  0  0  0  0  0  0  0  0  0  0
    0.5304    0.0000    0.0000 F   0  0  0  0  0  0  0  0  0  0  0  0
    0.0000   -7.2481    0.0000 O   0  0  0  0  0  0  0  0  0  0  0  0
    0.7072  -11.7856    0.0000 O   0  0  0  0  0  0  0  0  0  0  0  0
    2.8875   -2.2982    0.0000 N   0  0  0  0  0  0  0  0  0  0  0  0
    3.2410   -1.0607    0.0000 N   0  0  0  0  0  0  0  0  0  0  0  0
    2.1803   -3.5357    0.0000 N   0  0  0  0  0  0  0  0  0  0  0  0
    2.8875   -4.7732    0.0000 N   0  0  0  0  0  0  0  0  0  0  0  0
    1.4142   -4.7732    0.0000 N   0  0  0  0  0  0  0  0  0  0  0  0
    0.7072   -9.3106    0.0000 N   0  0  0  0  0  0  0  0  0  0  0  0
    2.1803   -1.8268    0.0000 C   0  0  0  0  0  0  0  0  0  0  0  0
    2.8875   -3.1232    0.0000 C   0  0  0  0  0  0  0  0  0  0  0  0
    2.4160   -1.0018    0.0000 C   0  0  0  0  0  0  0  0  0  0  0  0
    3.5357   -1.8268    0.0000 C   0  0  0  0  0  0  0  0  0  0  0  0
    3.5946   -3.5357    0.0000 C   0  0  0  0  0  0  0  0  0  0  0  0
    1.3553   -2.0035    0.0000 C   0  0  0  0  0  0  0  0  0  0  0  0
    2.1214   -4.3606    0.0000 C   0  0  0  0  0  0  0  0  0  0  0  0
    1.8268   -0.4125    0.0000 C   0  0  0  0  0  0  0  0  0  0  0  0
    1.0607   -0.5893    0.0000 C   0  0  0  0  0  0  0  0  0  0  0  0
    3.5946   -4.3606    0.0000 C   0  0  0  0  0  0  0  0  0  0  0  0
    0.8250   -1.4142    0.0000 C   0  0  0  0  0  0  0  0  0  0  0  0
    1.4142   -5.5982    0.0000 C   0  0  0  0  0  0  0  0  0  0  0  0
    0.7072   -6.0106    0.0000 C   0  0  0  0  0  0  0  0  0  0  0  0
    2.1803   -6.0106    0.0000 C   0  0  0  0  0  0  0  0  0  0  0  0
    0.7072   -6.8356    0.0000 C   0  0  0  0  0  0  0  0  0  0  0  0
    2.1214   -6.8356    0.0000 C   0  0  0  0  0  0  0  0  0  0  0  0
    1.4732   -7.2481    0.0000 C   0  0  0  0  0  0  0  0  0  0  0  0
    2.8875   -7.2481    0.0000 C   0  0  0  0  0  0  0  0  0  0  0  0
    0.0000   -8.0731    0.0000 C   0  0  0  0  0  0  0  0  0  0  0  0
    0.7072   -8.4856    0.0000 C   0  0  0  0  0  0  0  0  0  0  0  0
    1.4732   -9.7231    0.0000 C   0  0  0  0  0  0  0  0  0  0  0  0
    0.0000   -9.7231    0.0000 C   0  0  0  0  0  0  0  0  0  0  0  0
    0.7072  -10.9606    0.0000 C   0  0  0  0  0  0  0  0  0  0  0  0
    3.5946   -6.8356    0.0000 C   0  0  0  0  0  0  0  0  0  0  0  0
    1.4732  -10.5481    0.0000 C   0  0  0  0  0  0  0  0  0  0  0  0
    0.0000  -10.5481    0.0000 C   0  0  0  0  0  0  0  0  0  0  0  0
  1 15  1  0  0  0  0
  2 19  1  0  0  0  0
  3 25  1  0  0  0  0
  3 29  1  0  0  0  0
  4 33  1  0  0  0  0
  5 11  1  0  0  0  0
  5 12  1  0  0  0  0
  5 14  1  0  0  0  0
  6 13  1  0  0  0  0
  6 14  2  0  0  0  0
  7 12  2  0  0  0  0
  7 17  1  0  0  0  0
  8 17  2  0  0  0  0
  8 20  1  0  0  0  0
  9 17  1  0  0  0  0
  9 22  1  0  0  0  0
 10 30  1  0  0  0  0
 10 31  1  0  0  0  0
 10 32  1  0  0  0  0
 11 13  2  0  0  0  0
 11 16  1  0  0  0  0
 12 15  1  0  0  0  0
 13 18  1  0  0  0  0
 15 20  2  0  0  0  0
 16 21  2  0  0  0  0
 18 19  2  0  0  0  0
 19 21  1  0  0  0  0
 22 23  2  0  0  0  0
 22 24  1  0  0  0  0
 23 25  1  0  0  0  0
 24 26  2  0  0  0  0
 25 27  2  0  0  0  0
 26 27  1  0  0  0  0
 26 28  1  0  0  0  0
 28 34  1  0  0  0  0
 29 30  1  0  0  0  0
 31 35  1  0  0  0  0
 32 36  1  0  0  0  0
 33 35  1  0  0  0  0
 33 36  1  0  0  0  0
M  END
> <PUBCHEM_COMPOUND_ID_TYPE>
0

> <PUBCHEM_TOTAL_CHARGE>
0

> <PUBCHEM_SUBSTANCE_ID>
310938311

> <PUBCHEM_SUBSTANCE_VERSION>
1

> <PUBCHEM_EXT_DATASOURCE_NAME>
4488

> <PUBCHEM_EXT_DATASOURCE_REGID>
SCHEMBL16116186

> <PUBCHEM_SUBSTANCE_COMMENT>
InChI=1S/C26H28F2N6O2/c1-2-17-11-19(14-21(12-17)36-10-9-33-7-5-20(35)6-8-33)31-26-29-15-22(28)25(32-26)34-16-30-23-13-18(27)3-4-24(23)34/h3-4,11-16,20,35H,2,5-10H2,1H3,(H,29,31,32)
InChIKey=PNCNKQBSRBVFAN-UHFFFAOYSA-N

> <PUBCHEM_SUBSTANCE_SYNONYM>
SCHEMBL16116186

> <PUBCHEM_XREF_EXT_ID>
SCHEMBL16116186

> <PUBCHEM_EXT_DATASOURCE_URL>
https://www.surechembl.org/

> <PUBCHEM_EXT_SUBSTANCE_URL>
https://www.surechembl.org/chemical/SCHEMBL16116186

> <PUBCHEM_CID_ASSOCIATIONS>
86300087  1

> <PUBCHEM_COORDINATE_TYPE>
1
3

$$$$
