310943522
  -OEChem-07211613022D

 25 27  0     0  0  0  0  0  0999 V2000
    3.5670    0.7397    0.0000 Cl  0  0  0  0  0  0  0  0  0  0  0  0
   -2.1889   -0.8208    0.0000 O   0  0  0  0  0  0  0  0  0  0  0  0
   -3.5670    1.6720    0.0000 O   0  0  0  0  0  0  0  0  0  0  0  0
    2.8577   -0.4762    0.0000 O   0  0  0  0  0  0  0  0  0  0  0  0
   -2.1483    0.8208    0.0000 N   0  0  0  0  0  0  0  0  0  0  0  0
   -0.7701   -0.8411    0.0000 N   0  0  0  0  0  0  0  0  0  0  0  0
   -1.4390    0.4155    0.0000 C   0  0  0  0  0  0  0  0  0  0  0  0
   -0.0203    0.3952    0.0000 C   0  0  0  0  0  0  0  0  0  0  0  0
    0.7094    0.7600    0.0000 C   0  0  0  0  0  0  0  0  0  0  0  0
   -1.4795   -0.4155    0.0000 C   0  0  0  0  0  0  0  0  0  0  0  0
   -0.7296    0.8006    0.0000 C   0  0  0  0  0  0  0  0  0  0  0  0
    0.7499    1.5909    0.0000 C   0  0  0  0  0  0  0  0  0  0  0  0
   -0.0405   -0.4560    0.0000 C   0  0  0  0  0  0  0  0  0  0  0  0
    1.4390    0.3546    0.0000 C   0  0  0  0  0  0  0  0  0  0  0  0
    2.1483    0.7600    0.0000 C   0  0  0  0  0  0  0  0  0  0  0  0
    1.4187    1.9760    0.0000 C   0  0  0  0  0  0  0  0  0  0  0  0
   -2.1280    1.6518    0.0000 C   0  0  0  0  0  0  0  0  0  0  0  0
   -2.8577    0.4357    0.0000 C   0  0  0  0  0  0  0  0  0  0  0  0
    2.1483    1.5707    0.0000 C   0  0  0  0  0  0  0  0  0  0  0  0
    2.8779    0.3750    0.0000 C   0  0  0  0  0  0  0  0  0  0  0  0
    0.0203    1.9760    0.0000 C   0  0  0  0  0  0  0  0  0  0  0  0
   -2.8374    2.0774    0.0000 C   0  0  0  0  0  0  0  0  0  0  0  0
   -3.5670    0.8613    0.0000 C   0  0  0  0  0  0  0  0  0  0  0  0
   -2.1889   -1.6518    0.0000 C   0  0  0  0  0  0  0  0  0  0  0  0
   -2.8779   -2.0774    0.0000 C   0  0  0  0  0  0  0  0  0  0  0  0
  1 20  1  0  0  0  0
  2 10  1  0  0  0  0
  2 24  1  0  0  0  0
  3 22  1  0  0  0  0
  3 23  1  0  0  0  0
  4 20  2  0  0  0  0
  5  7  1  0  0  0  0
  5 17  1  0  0  0  0
  5 18  1  0  0  0  0
  6 10  1  0  0  0  0
  6 13  2  0  0  0  0
  7 10  2  0  0  0  0
  7 11  1  0  0  0  0
  8  9  1  0  0  0  0
  8 11  2  0  0  0  0
  8 13  1  0  0  0  0
  9 12  2  0  0  0  0
  9 14  1  0  0  0  0
 12 16  1  0  0  0  0
 12 21  1  0  0  0  0
 14 15  2  0  0  0  0
 15 19  1  0  0  0  0
 15 20  1  0  0  0  0
 16 19  2  0  0  0  0
 17 22  1  0  0  0  0
 18 23  1  0  0  0  0
 24 25  1  0  0  0  0
M  END
> <PUBCHEM_COMPOUND_ID_TYPE>
0

> <PUBCHEM_TOTAL_CHARGE>
0

> <PUBCHEM_SUBSTANCE_ID>
310943522

> <PUBCHEM_SUBSTANCE_VERSION>
1

> <PUBCHEM_EXT_DATASOURCE_NAME>
4488

> <PUBCHEM_EXT_DATASOURCE_REGID>
SCHEMBL16121588

> <PUBCHEM_SUBSTANCE_COMMENT>
InChI=1S/C19H21ClN2O3/c1-3-25-19-17(22-6-8-24-9-7-22)11-15(12-21-19)16-10-14(18(20)23)5-4-13(16)2/h4-5,10-12H,3,6-9H2,1-2H3
InChIKey=NFVBPFRFVXCQRB-UHFFFAOYSA-N

> <PUBCHEM_SUBSTANCE_SYNONYM>
SCHEMBL16121588

> <PUBCHEM_XREF_EXT_ID>
SCHEMBL16121588

> <PUBCHEM_EXT_DATASOURCE_URL>
https://www.surechembl.org/

> <PUBCHEM_EXT_SUBSTANCE_URL>
https://www.surechembl.org/chemical/SCHEMBL16121588

> <PUBCHEM_CID_ASSOCIATIONS>
117609936  1

> <PUBCHEM_COORDINATE_TYPE>
1
3

$$$$
