310937112
  -OEChem-07211613022D

 24 27  0     0  0  0  0  0  0999 V2000
    1.4403    0.0000    0.0000 F   0  0  0  0  0  0  0  0  0  0  0  0
    0.3389   -0.9108    0.0000 F   0  0  0  0  0  0  0  0  0  0  0  0
    0.6142   -0.1271    0.0000 F   0  0  0  0  0  0  0  0  0  0  0  0
    5.3588   -3.4526    0.0000 O   0  0  0  0  0  0  0  0  0  0  0  0
    6.2272   -2.7747    0.0000 O   0  0  0  0  0  0  0  0  0  0  0  0
    1.3767   -2.1817    0.0000 O   0  0  0  0  0  0  0  0  0  0  0  0
    4.4269   -2.4994    0.0000 N   0  0  0  0  0  0  0  0  0  0  0  0
    4.6175   -3.8338    0.0000 N   0  0  0  0  0  0  0  0  0  0  0  0
    2.9230   -4.0879    0.0000 N   0  0  0  0  0  0  0  0  0  0  0  0
    5.8248   -2.0546    0.0000 C   0  0  0  0  0  0  0  0  0  0  0  0
    5.2317   -2.6476    0.0000 C   0  0  0  0  0  0  0  0  0  0  0  0
    4.0456   -3.2407    0.0000 C   0  0  0  0  0  0  0  0  0  0  0  0
    5.1259   -1.6309    0.0000 C   0  0  0  0  0  0  0  0  0  0  0  0
    5.8248   -1.2285    0.0000 C   0  0  0  0  0  0  0  0  0  0  0  0
    3.2196   -3.3466    0.0000 C   0  0  0  0  0  0  0  0  0  0  0  0
    1.6097   -3.5796    0.0000 C   0  0  0  0  0  0  0  0  0  0  0  0
    1.9063   -2.8382    0.0000 C   0  0  0  0  0  0  0  0  0  0  0  0
    0.7837   -3.6855    0.0000 C   0  0  0  0  0  0  0  0  0  0  0  0
    2.7324   -2.6900    0.0000 C   0  0  0  0  0  0  0  0  0  0  0  0
    2.0969   -4.2362    0.0000 C   0  0  0  0  0  0  0  0  0  0  0  0
    0.1271   -4.1727    0.0000 C   0  0  0  0  0  0  0  0  0  0  0  0
    0.0000   -3.3890    0.0000 C   0  0  0  0  0  0  0  0  0  0  0  0
    1.6733   -1.4191    0.0000 C   0  0  0  0  0  0  0  0  0  0  0  0
    1.1649   -0.7625    0.0000 C   0  0  0  0  0  0  0  0  0  0  0  0
  1 24  1  0  0  0  0
  2 24  1  0  0  0  0
  3 24  1  0  0  0  0
  4  8  1  0  0  0  0
  4 11  1  0  0  0  0
  5 10  1  0  0  0  0
  6 17  1  0  0  0  0
  6 23  1  0  0  0  0
  7 11  2  0  0  0  0
  7 12  1  0  0  0  0
  8 12  2  0  0  0  0
  9 15  1  0  0  0  0
  9 20  2  0  0  0  0
 10 11  1  0  0  0  0
 10 13  1  0  0  0  0
 10 14  1  0  0  0  0
 12 15  1  0  0  0  0
 13 14  1  0  0  0  0
 15 19  2  0  0  0  0
 16 17  2  0  0  0  0
 16 18  1  0  0  0  0
 16 20  1  0  0  0  0
 17 19  1  0  0  0  0
 18 21  1  0  0  0  0
 18 22  1  0  0  0  0
 21 22  1  0  0  0  0
 23 24  1  0  0  0  0
M  END
> <PUBCHEM_COMPOUND_ID_TYPE>
0

> <PUBCHEM_TOTAL_CHARGE>
0

> <PUBCHEM_SUBSTANCE_ID>
310937112

> <PUBCHEM_SUBSTANCE_VERSION>
1

> <PUBCHEM_EXT_DATASOURCE_NAME>
4488

> <PUBCHEM_EXT_DATASOURCE_REGID>
SCHEMBL16114829

> <PUBCHEM_SUBSTANCE_COMMENT>
InChI=1S/C15H14F3N3O3/c16-15(17,18)7-23-11-5-10(19-6-9(11)8-1-2-8)12-20-13(24-21-12)14(22)3-4-14/h5-6,8,22H,1-4,7H2
InChIKey=AKSFJNNWWVUINI-UHFFFAOYSA-N

> <PUBCHEM_SUBSTANCE_SYNONYM>
SCHEMBL16114829

> <PUBCHEM_XREF_EXT_ID>
SCHEMBL16114829

> <PUBCHEM_EXT_DATASOURCE_URL>
https://www.surechembl.org/

> <PUBCHEM_EXT_SUBSTANCE_URL>
https://www.surechembl.org/chemical/SCHEMBL16114829

> <PUBCHEM_CID_ASSOCIATIONS>
86275932  1

> <PUBCHEM_COORDINATE_TYPE>
1
3

$$$$
