310943845
  -OEChem-07211613022D

 33 37  0     1  0  0  0  0  0999 V2000
    2.6258    1.0138    0.0000 O   0  0  0  0  0  0  0  0  0  0  0  0
    5.3625   -0.2271    0.0000 O   0  0  0  0  0  0  0  0  0  0  0  0
    5.6838    1.2243    0.0000 O   0  0  0  0  0  0  0  0  0  0  0  0
   -0.7535   -0.7035    0.0000 O   0  0  0  0  0  0  0  0  0  0  0  0
    3.2241   -0.3490    0.0000 N   0  0  0  0  0  0  0  0  0  0  0  0
    0.3434    0.3379    0.0000 N   0  0  0  0  0  0  0  0  0  0  0  0
   -4.3542    0.5151    0.0000 N   0  0  0  0  0  0  0  0  0  0  0  0
   -2.3932   -0.4819    0.0000 N   0  0  0  0  0  0  0  0  0  0  0  0
   -3.0247    1.0581    0.0000 N   0  0  0  0  0  0  0  0  0  0  0  0
   -4.9303   -0.0831    0.0000 N   0  0  0  0  0  0  0  0  0  0  0  0
   -5.6838    0.2715    0.0000 N   0  0  0  0  0  0  0  0  0  0  0  0
   -5.5619    1.1024    0.0000 N   0  0  0  0  0  0  0  0  0  0  0  0
    1.8724   -0.2604    0.0000 C   0  0  0  0  0  0  0  0  0  0  0  0
    2.5705    0.1717    0.0000 C   0  0  0  0  0  0  0  0  0  0  0  0
    4.0219   -0.1274    0.0000 C   0  0  0  0  0  0  0  0  0  0  0  0
    2.0939   -1.0581    0.0000 C   0  0  0  0  0  0  0  0  0  0  0  0
    2.9139   -1.1024    0.0000 C   0  0  0  0  0  0  0  0  0  0  0  0
    1.2409   -0.7590    0.0000 C   0  0  0  0  0  0  0  0  0  0  0  0
    1.7505    0.5705    0.0000 C   0  0  0  0  0  0  0  0  0  0  0  0
    4.3321    0.6370    0.0000 C   0  0  0  0  0  0  0  0  0  0  0  0
    4.6755   -0.6592    0.0000 C   0  0  0  0  0  0  0  0  0  0  0  0
    0.4653   -0.4487    0.0000 C   0  0  0  0  0  0  0  0  0  0  0  0
    0.9861    0.8698    0.0000 C   0  0  0  0  0  0  0  0  0  0  0  0
    5.1409    0.5595    0.0000 C   0  0  0  0  0  0  0  0  0  0  0  0
   -0.5539    0.7257    0.0000 C   0  0  0  0  0  0  0  0  0  0  0  0
   -1.0636    0.0831    0.0000 C   0  0  3  0  0  0  0  0  0  0  0  0
   -1.8945    0.1939    0.0000 C   0  0  0  0  0  0  0  0  0  0  0  0
    3.8778    1.3572    0.0000 C   0  0  0  0  0  0  0  0  0  0  0  0
   -3.5454    0.4044    0.0000 C   0  0  0  0  0  0  0  0  0  0  0  0
   -2.1938    0.9473    0.0000 C   0  0  0  0  0  0  0  0  0  0  0  0
   -3.2241   -0.3490    0.0000 C   0  0  0  0  0  0  0  0  0  0  0  0
   -4.7530    1.2575    0.0000 C   0  0  0  0  0  0  0  0  0  0  0  0
   -1.2742   -1.3572    0.0000 C   0  0  0  0  0  0  0  0  0  0  0  0
  1 14  2  0  0  0  0
  2 21  1  0  0  0  0
  2 24  1  0  0  0  0
  3 24  2  0  0  0  0
 26  4  1  6  0  0  0
  4 33  1  0  0  0  0
  5 14  1  0  0  0  0
  5 15  1  0  0  0  0
  5 17  1  0  0  0  0
  6 22  1  0  0  0  0
  6 23  1  0  0  0  0
  6 25  1  0  0  0  0
  7 10  1  0  0  0  0
  7 29  1  0  0  0  0
  7 32  1  0  0  0  0
  8 27  1  0  0  0  0
  8 31  2  0  0  0  0
  9 29  2  0  0  0  0
  9 30  1  0  0  0  0
 10 11  2  0  0  0  0
 11 12  1  0  0  0  0
 12 32  2  0  0  0  0
 13 14  1  0  0  0  0
 13 16  1  0  0  0  0
 13 18  1  0  0  0  0
 13 19  1  0  0  0  0
 15 20  2  0  0  0  0
 15 21  1  0  0  0  0
 16 17  1  0  0  0  0
 18 22  1  0  0  0  0
 19 23  1  0  0  0  0
 20 24  1  0  0  0  0
 20 28  1  0  0  0  0
 25 26  1  0  0  0  0
 26 27  1  0  0  0  0
 27 30  2  0  0  0  0
 29 31  1  0  0  0  0
M  END
> <PUBCHEM_COMPOUND_ID_TYPE>
0

> <PUBCHEM_TOTAL_CHARGE>
0

> <PUBCHEM_SUBSTANCE_ID>
310943845

> <PUBCHEM_SUBSTANCE_VERSION>
1

> <PUBCHEM_EXT_DATASOURCE_NAME>
4488

> <PUBCHEM_EXT_DATASOURCE_REGID>
SCHEMBL16121916

> <PUBCHEM_SUBSTANCE_COMMENT>
InChI=1S/C21H26N8O4/c1-14-16(12-33-19(14)30)28-8-5-21(20(28)31)3-6-27(7-4-21)11-17(32-2)15-9-23-18(10-22-15)29-13-24-25-26-29/h9-10,13,17H,3-8,11-12H2,1-2H3/t17-/m0/s1
InChIKey=QHFLYOJFASCFIF-KRWDZBQOSA-N

> <PUBCHEM_SUBSTANCE_SYNONYM>
SCHEMBL16121916

> <PUBCHEM_XREF_EXT_ID>
SCHEMBL16121916

> <PUBCHEM_EXT_DATASOURCE_URL>
https://www.surechembl.org/

> <PUBCHEM_EXT_SUBSTANCE_URL>
https://www.surechembl.org/chemical/SCHEMBL16121916

> <PUBCHEM_CID_ASSOCIATIONS>
117610183  1

> <PUBCHEM_COORDINATE_TYPE>
1
3

> <PUBCHEM_BONDANNOTATIONS>
26  4  6

$$$$
