310948507
  -OEChem-07211613022D

 45 49  0     0  0  0  0  0  0999 V2000
    2.7298   -4.2860    0.0000 F   0  0  0  0  0  0  0  0  0  0  0  0
    2.3208   -3.1833    0.0000 F   0  0  0  0  0  0  0  0  0  0  0  0
    1.6272   -4.6416    0.0000 F   0  0  0  0  0  0  0  0  0  0  0  0
    0.3290    0.9426    0.0000 O   0  0  0  0  0  0  0  0  0  0  0  0
    1.2182   -3.5746    0.0000 O   0  0  0  0  0  0  0  0  0  0  0  0
   -1.4672    3.8414    0.0000 O   0  0  0  0  0  0  0  0  0  0  0  0
   -1.1293   -5.1396    0.0000 O   0  0  0  0  0  0  0  0  0  0  0  0
   -2.7298    4.5527    0.0000 O   0  0  0  0  0  0  0  0  0  0  0  0
   -1.1827    1.1026    0.0000 N   0  0  0  0  0  0  0  0  0  0  0  0
    1.5028    0.2846    0.0000 N   0  0  0  0  0  0  0  0  0  0  0  0
   -1.8050    1.6539    0.0000 N   0  0  0  0  0  0  0  0  0  0  0  0
    0.3112   -5.2818    0.0000 N   0  0  0  0  0  0  0  0  0  0  0  0
   -1.4672    5.2818    0.0000 N   0  0  0  0  0  0  0  0  0  0  0  0
   -0.5958   -0.1956    0.0000 C   0  0  0  0  0  0  0  0  0  0  0  0
    0.1512    0.1423    0.0000 C   0  0  0  0  0  0  0  0  0  0  0  0
   -1.2716    0.2846    0.0000 C   0  0  0  0  0  0  0  0  0  0  0  0
    0.8981   -0.2668    0.0000 C   0  0  0  0  0  0  0  0  0  0  0  0
   -1.4494   -1.3338    0.0000 C   0  0  0  0  0  0  0  0  0  0  0  0
   -0.6847   -1.0137    0.0000 C   0  0  0  0  0  0  0  0  0  0  0  0
    0.9693   -1.1026    0.0000 C   0  0  0  0  0  0  0  0  0  0  0  0
    1.1649    1.0137    0.0000 C   0  0  0  0  0  0  0  0  0  0  0  0
   -2.0362   -0.0534    0.0000 C   0  0  0  0  0  0  0  0  0  0  0  0
   -1.5383   -2.1696    0.0000 C   0  0  0  0  0  0  0  0  0  0  0  0
   -2.1074   -0.8714    0.0000 C   0  0  0  0  0  0  0  0  0  0  0  0
   -0.9515   -3.4857    0.0000 C   0  0  0  0  0  0  0  0  0  0  0  0
   -0.4713    1.5294    0.0000 C   0  0  0  0  0  0  0  0  0  0  0  0
   -0.8803   -2.6676    0.0000 C   0  0  0  0  0  0  0  0  0  0  0  0
   -0.2757   -3.9659    0.0000 C   0  0  0  0  0  0  0  0  0  0  0  0
   -1.4672    2.4364    0.0000 C   0  0  0  0  0  0  0  0  0  0  0  0
    1.7339   -1.4405    0.0000 C   0  0  0  0  0  0  0  0  0  0  0  0
    0.3112   -1.5828    0.0000 C   0  0  0  0  0  0  0  0  0  0  0  0
   -2.2852   -2.5253    0.0000 C   0  0  0  0  0  0  0  0  0  0  0  0
   -0.6314    2.3297    0.0000 C   0  0  0  0  0  0  0  0  0  0  0  0
    1.1471   -2.7387    0.0000 C   0  0  0  0  0  0  0  0  0  0  0  0
   -1.7161   -3.8058    0.0000 C   0  0  0  0  0  0  0  0  0  0  0  0
    1.8050   -2.2585    0.0000 C   0  0  0  0  0  0  0  0  0  0  0  0
    0.3824   -2.4008    0.0000 C   0  0  0  0  0  0  0  0  0  0  0  0
    1.5739    1.7428    0.0000 C   0  0  0  0  0  0  0  0  0  0  0  0
   -2.3741   -3.3434    0.0000 C   0  0  0  0  0  0  0  0  0  0  0  0
   -0.3646   -4.7839    0.0000 C   0  0  0  0  0  0  0  0  0  0  0  0
   -1.8762    3.1122    0.0000 C   0  0  0  0  0  0  0  0  0  0  0  0
    0.2045   -3.3078    0.0000 C   0  0  0  0  0  0  0  0  0  0  0  0
    0.5424   -4.0726    0.0000 C   0  0  0  0  0  0  0  0  0  0  0  0
    1.9829   -3.9303    0.0000 C   0  0  0  0  0  0  0  0  0  0  0  0
   -1.8584    4.5527    0.0000 C   0  0  0  0  0  0  0  0  0  0  0  0
  1 44  1  0  0  0  0
  2 44  1  0  0  0  0
  3 44  1  0  0  0  0
  4 15  1  0  0  0  0
  4 21  1  0  0  0  0
  5 34  1  0  0  0  0
  5 44  1  0  0  0  0
  6 41  1  0  0  0  0
  6 45  1  0  0  0  0
  7 40  2  0  0  0  0
  8 45  2  0  0  0  0
  9 11  1  0  0  0  0
  9 16  1  0  0  0  0
  9 26  1  0  0  0  0
 10 17  1  0  0  0  0
 10 21  2  0  0  0  0
 11 29  2  0  0  0  0
 12 40  1  0  0  0  0
 13 45  1  0  0  0  0
 14 15  1  0  0  0  0
 14 16  1  0  0  0  0
 14 19  2  0  0  0  0
 15 17  2  0  0  0  0
 16 22  2  0  0  0  0
 17 20  1  0  0  0  0
 18 19  1  0  0  0  0
 18 23  1  0  0  0  0
 18 24  2  0  0  0  0
 20 30  2  0  0  0  0
 20 31  1  0  0  0  0
 21 38  1  0  0  0  0
 22 24  1  0  0  0  0
 23 27  2  0  0  0  0
 23 32  1  0  0  0  0
 25 27  1  0  0  0  0
 25 28  1  0  0  0  0
 25 35  2  0  0  0  0
 26 33  2  0  0  0  0
 28 40  1  0  0  0  0
 28 42  1  0  0  0  0
 28 43  1  0  0  0  0
 29 33  1  0  0  0  0
 29 41  1  0  0  0  0
 30 36  1  0  0  0  0
 31 37  2  0  0  0  0
 32 39  2  0  0  0  0
 34 36  2  0  0  0  0
 34 37  1  0  0  0  0
 35 39  1  0  0  0  0
M  END
> <PUBCHEM_COMPOUND_ID_TYPE>
0

> <PUBCHEM_TOTAL_CHARGE>
0

> <PUBCHEM_SUBSTANCE_ID>
310948507

> <PUBCHEM_SUBSTANCE_VERSION>
1

> <PUBCHEM_EXT_DATASOURCE_NAME>
4488

> <PUBCHEM_EXT_DATASOURCE_REGID>
SCHEMBL16126689

> <PUBCHEM_SUBSTANCE_COMMENT>
InChI=1S/C32H28F3N5O5/c1-18-38-27(19-7-10-24(11-8-19)45-32(33,34)35)28(44-18)25-16-21(20-5-4-6-22(15-20)31(2,3)29(36)41)9-12-26(25)40-14-13-23(39-40)17-43-30(37)42/h4-16H,17H2,1-3H3,(H2,36,41)(H2,37,42)
InChIKey=AAIAGSOCMCVWAW-UHFFFAOYSA-N

> <PUBCHEM_SUBSTANCE_SYNONYM>
SCHEMBL16126689

> <PUBCHEM_XREF_EXT_ID>
SCHEMBL16126689

> <PUBCHEM_EXT_DATASOURCE_URL>
https://www.surechembl.org/

> <PUBCHEM_EXT_SUBSTANCE_URL>
https://www.surechembl.org/chemical/SCHEMBL16126689

> <PUBCHEM_CID_ASSOCIATIONS>
117614064  1

> <PUBCHEM_COORDINATE_TYPE>
1
3

$$$$
