310940395
  -OEChem-07211613022D

 15 16  0     0  0  0  0  0  0999 V2000
    3.1985    0.4192    0.0000 F   0  0  0  0  0  0  0  0  0  0  0  0
   -1.7868   -0.0772    0.0000 O   0  0  0  0  0  0  0  0  0  0  0  0
    0.3198    0.4192    0.0000 N   0  0  0  0  0  0  0  0  0  0  0  0
   -1.1360    0.4412    0.0000 C   0  0  0  0  0  0  0  0  0  0  0  0
    1.0368    0.0000    0.0000 C   0  0  0  0  0  0  0  0  0  0  0  0
   -2.4706    0.4412    0.0000 C   0  0  0  0  0  0  0  0  0  0  0  0
   -0.3860    0.0110    0.0000 C   0  0  0  0  0  0  0  0  0  0  0  0
   -1.3787    1.2132    0.0000 C   0  0  0  0  0  0  0  0  0  0  0  0
    1.7426    0.4192    0.0000 C   0  0  0  0  0  0  0  0  0  0  0  0
   -2.1949    1.2243    0.0000 C   0  0  0  0  0  0  0  0  0  0  0  0
    2.4706    0.0110    0.0000 C   0  0  0  0  0  0  0  0  0  0  0  0
    1.0368   -0.8161    0.0000 C   0  0  0  0  0  0  0  0  0  0  0  0
    2.4706   -0.8161    0.0000 C   0  0  0  0  0  0  0  0  0  0  0  0
    1.7537   -1.2243    0.0000 C   0  0  0  0  0  0  0  0  0  0  0  0
   -3.1985   -0.0110    0.0000 C   0  0  0  0  0  0  0  0  0  0  0  0
  1 11  1  0  0  0  0
  2  4  1  0  0  0  0
  2  6  1  0  0  0  0
  3  5  1  0  0  0  0
  3  7  2  0  0  0  0
  4  7  1  0  0  0  0
  4  8  2  0  0  0  0
  5  9  1  0  0  0  0
  5 12  2  0  0  0  0
  6 10  2  0  0  0  0
  6 15  1  0  0  0  0
  8 10  1  0  0  0  0
  9 11  2  0  0  0  0
 11 13  1  0  0  0  0
 12 14  1  0  0  0  0
 13 14  2  0  0  0  0
M  END
> <PUBCHEM_COMPOUND_ID_TYPE>
0

> <PUBCHEM_TOTAL_CHARGE>
0

> <PUBCHEM_SUBSTANCE_ID>
310940395

> <PUBCHEM_SUBSTANCE_VERSION>
1

> <PUBCHEM_EXT_DATASOURCE_NAME>
4488

> <PUBCHEM_EXT_DATASOURCE_REGID>
SCHEMBL16118341

> <PUBCHEM_SUBSTANCE_COMMENT>
InChI=1S/C12H10FNO/c1-9-5-6-12(15-9)8-14-11-4-2-3-10(13)7-11/h2-8H,1H3/b14-8+
InChIKey=UMMUPCJYRXPDBJ-RIYZIHGNSA-N

> <PUBCHEM_SUBSTANCE_SYNONYM>
SCHEMBL16118341

> <PUBCHEM_XREF_EXT_ID>
SCHEMBL16118341

> <PUBCHEM_EXT_DATASOURCE_URL>
https://www.surechembl.org/

> <PUBCHEM_EXT_SUBSTANCE_URL>
https://www.surechembl.org/chemical/SCHEMBL16118341

> <PUBCHEM_CID_ASSOCIATIONS>
117607424  1

> <PUBCHEM_COORDINATE_TYPE>
1
3

$$$$
