310936639
  -OEChem-07211613022D

 40 43  0     0  0  0  0  0  0999 V2000
    3.3565    4.5761    0.0000 F   0  0  0  0  0  0  0  0  0  0  0  0
   -2.1434   -1.6500    0.0000 F   0  0  0  0  0  0  0  0  0  0  0  0
   -2.8579   -1.2375    0.0000 F   0  0  0  0  0  0  0  0  0  0  0  0
   -2.8579   -0.4125    0.0000 F   0  0  0  0  0  0  0  0  0  0  0  0
    0.8860    1.6320    0.0000 O   0  0  0  0  0  0  0  0  0  0  0  0
    3.1039    0.0084    0.0000 O   0  0  0  0  0  0  0  0  0  0  0  0
    2.1434   -1.6500    0.0000 O   0  0  0  0  0  0  0  0  0  0  0  0
    0.0000    0.4125    0.0000 N   0  0  0  0  0  0  0  0  0  0  0  0
    3.4011    1.4061    0.0000 N   0  0  0  0  0  0  0  0  0  0  0  0
   -0.7145   -0.8250    0.0000 N   0  0  0  0  0  0  0  0  0  0  0  0
    2.8579   -0.4125    0.0000 N   0  0  0  0  0  0  0  0  0  0  0  0
    1.4290    0.4125    0.0000 C   0  0  0  0  0  0  0  0  0  0  0  0
    2.0421    0.9645    0.0000 C   0  0  0  0  0  0  0  0  0  0  0  0
    0.7145    0.8250    0.0000 C   0  0  0  0  0  0  0  0  0  0  0  0
    1.7065    1.7182    0.0000 C   0  0  0  0  0  0  0  0  0  0  0  0
    1.4290   -0.4125    0.0000 C   0  0  0  0  0  0  0  0  0  0  0  0
    2.8490    0.7930    0.0000 C   0  0  0  0  0  0  0  0  0  0  0  0
    2.1190    2.4327    0.0000 C   0  0  0  0  0  0  0  0  0  0  0  0
    0.0000   -0.4125    0.0000 C   0  0  0  0  0  0  0  0  0  0  0  0
    0.7145   -0.8250    0.0000 C   0  0  0  0  0  0  0  0  0  0  0  0
    2.1434   -0.8250    0.0000 C   0  0  0  0  0  0  0  0  0  0  0  0
    1.7065    3.1471    0.0000 C   0  0  0  0  0  0  0  0  0  0  0  0
    2.9440    2.4327    0.0000 C   0  0  0  0  0  0  0  0  0  0  0  0
    4.2080    1.2346    0.0000 C   0  0  0  0  0  0  0  0  0  0  0  0
    2.1190    3.8617    0.0000 C   0  0  0  0  0  0  0  0  0  0  0  0
    3.3565    3.1471    0.0000 C   0  0  0  0  0  0  0  0  0  0  0  0
    3.2098    1.9946    0.0000 C   0  0  0  0  0  0  0  0  0  0  0  0
    2.9440    3.8617    0.0000 C   0  0  0  0  0  0  0  0  0  0  0  0
    4.7601    1.8476    0.0000 C   0  0  0  0  0  0  0  0  0  0  0  0
    4.4630    0.4500    0.0000 C   0  0  0  0  0  0  0  0  0  0  0  0
   -1.4290   -0.4125    0.0000 C   0  0  0  0  0  0  0  0  0  0  0  0
    3.5724   -0.8250    0.0000 C   0  0  0  0  0  0  0  0  0  0  0  0
   -2.1434   -0.8250    0.0000 C   0  0  0  0  0  0  0  0  0  0  0  0
    5.5670    1.6762    0.0000 C   0  0  0  0  0  0  0  0  0  0  0  0
    5.2699    0.2784    0.0000 C   0  0  0  0  0  0  0  0  0  0  0  0
    5.8220    0.8915    0.0000 C   0  0  0  0  0  0  0  0  0  0  0  0
    4.2868   -0.4125    0.0000 C   0  0  0  0  0  0  0  0  0  0  0  0
    5.0013   -0.8250    0.0000 C   0  0  0  0  0  0  0  0  0  0  0  0
    5.7158   -0.4125    0.0000 C   0  0  0  0  0  0  0  0  0  0  0  0
    6.4302   -0.8250    0.0000 C   0  0  0  0  0  0  0  0  0  0  0  0
  1 28  1  0  0  0  0
  2 33  1  0  0  0  0
  3 33  1  0  0  0  0
  4 33  1  0  0  0  0
  5 14  1  0  0  0  0
  5 15  1  0  0  0  0
  6 17  2  0  0  0  0
  7 21  2  0  0  0  0
  8 14  2  0  0  0  0
  8 19  1  0  0  0  0
  9 17  1  0  0  0  0
  9 24  1  0  0  0  0
  9 27  1  0  0  0  0
 10 19  1  0  0  0  0
 10 31  1  0  0  0  0
 11 21  1  0  0  0  0
 11 32  1  0  0  0  0
 12 13  1  0  0  0  0
 12 14  1  0  0  0  0
 12 16  2  0  0  0  0
 13 15  2  0  0  0  0
 13 17  1  0  0  0  0
 15 18  1  0  0  0  0
 16 20  1  0  0  0  0
 16 21  1  0  0  0  0
 18 22  2  0  0  0  0
 18 23  1  0  0  0  0
 19 20  2  0  0  0  0
 22 25  1  0  0  0  0
 23 26  2  0  0  0  0
 24 29  2  0  0  0  0
 24 30  1  0  0  0  0
 25 28  2  0  0  0  0
 26 28  1  0  0  0  0
 29 34  1  0  0  0  0
 30 35  2  0  0  0  0
 31 33  1  0  0  0  0
 32 37  1  0  0  0  0
 34 36  2  0  0  0  0
 35 36  1  0  0  0  0
 37 38  1  0  0  0  0
 38 39  1  0  0  0  0
 39 40  1  0  0  0  0
M  END
> <PUBCHEM_COMPOUND_ID_TYPE>
0

> <PUBCHEM_TOTAL_CHARGE>
0

> <PUBCHEM_SUBSTANCE_ID>
310936639

> <PUBCHEM_SUBSTANCE_VERSION>
1

> <PUBCHEM_EXT_DATASOURCE_NAME>
4488

> <PUBCHEM_EXT_DATASOURCE_REGID>
SCHEMBL16114302

> <PUBCHEM_SUBSTANCE_COMMENT>
InChI=1S/C29H28F4N4O3/c1-3-4-8-15-34-26(38)21-16-22(35-17-29(31,32)33)36-27-23(21)24(25(40-27)18-11-13-19(30)14-12-18)28(39)37(2)20-9-6-5-7-10-20/h5-7,9-14,16H,3-4,8,15,17H2,1-2H3,(H,34,38)(H,35,36)
InChIKey=YFVCEFBDJIFQID-UHFFFAOYSA-N

> <PUBCHEM_SUBSTANCE_SYNONYM>
SCHEMBL16114302

> <PUBCHEM_XREF_EXT_ID>
SCHEMBL16114302

> <PUBCHEM_EXT_DATASOURCE_URL>
https://www.surechembl.org/

> <PUBCHEM_EXT_SUBSTANCE_URL>
https://www.surechembl.org/chemical/SCHEMBL16114302

> <PUBCHEM_CID_ASSOCIATIONS>
117604553  1

> <PUBCHEM_COORDINATE_TYPE>
1
3

$$$$
