310948887
  -OEChem-07211613022D

 32 36  0     1  0  0  0  0  0999 V2000
   -2.1920    0.5433    0.0000 S   0  0  0  0  0  0  0  0  0  0  0  0
    5.6143   -1.2053    0.0000 O   0  0  0  0  0  0  0  0  0  0  0  0
    0.0062    1.7174    0.0000 O   0  0  0  0  0  0  0  0  0  0  0  0
    5.5393   -2.5916    0.0000 O   0  0  0  0  0  0  0  0  0  0  0  0
    2.1670    0.4683    0.0000 O   0  0  0  0  0  0  0  0  0  0  0  0
   -0.6932    0.4683    0.0000 N   0  0  0  0  0  0  0  0  0  0  0  0
   -1.5050    1.7049    0.0000 N   0  0  0  0  0  0  0  0  0  0  0  0
    0.7431   -0.3685    0.0000 N   0  0  3  0  0  0  0  0  0  0  0  0
   -5.6143    1.8798    0.0000 N   0  0  0  0  0  0  0  0  0  0  0  0
   -1.4301    0.8806    0.0000 C   0  0  0  0  0  0  0  0  0  0  0  0
    4.3403   -0.7806    0.0000 C   0  0  0  0  0  0  0  0  0  0  0  0
   -2.7415    1.1678    0.0000 C   0  0  0  0  0  0  0  0  0  0  0  0
   -2.3294    1.8798    0.0000 C   0  0  0  0  0  0  0  0  0  0  0  0
    4.3278   -1.6050    0.0000 C   0  0  0  0  0  0  0  0  0  0  0  0
    3.6159   -0.3685    0.0000 C   0  0  0  0  0  0  0  0  0  0  0  0
    2.9039   -0.7806    0.0000 C   0  0  0  0  0  0  0  0  0  0  0  0
    0.0062    0.8681    0.0000 C   0  0  0  0  0  0  0  0  0  0  0  0
    5.1271   -1.8547    0.0000 C   0  0  0  0  0  0  0  0  0  0  0  0
    2.1795   -0.3685    0.0000 C   0  0  3  0  0  0  0  0  0  0  0  0
    3.6283   -2.0296    0.0000 C   0  0  0  0  0  0  0  0  0  0  0  0
    5.1271   -0.5309    0.0000 C   0  0  0  0  0  0  0  0  0  0  0  0
    2.9164   -1.6175    0.0000 C   0  0  0  0  0  0  0  0  0  0  0  0
   -0.6932   -0.3685    0.0000 C   0  0  0  0  0  0  0  0  0  0  0  0
   -3.5659    1.1678    0.0000 C   0  0  0  0  0  0  0  0  0  0  0  0
    0.7431    0.4683    0.0000 C   0  0  0  0  0  0  0  0  0  0  0  0
    1.4675   -0.7806    0.0000 C   0  0  0  0  0  0  0  0  0  0  0  0
   -2.7415    2.5916    0.0000 C   0  0  0  0  0  0  0  0  0  0  0  0
    0.0313   -0.7806    0.0000 C   0  0  0  0  0  0  0  0  0  0  0  0
   -3.9905    1.8798    0.0000 C   0  0  0  0  0  0  0  0  0  0  0  0
   -3.5659    2.5916    0.0000 C   0  0  0  0  0  0  0  0  0  0  0  0
    3.6283    0.4559    0.0000 C   0  0  0  0  0  0  0  0  0  0  0  0
   -4.8149    1.8798    0.0000 C   0  0  0  0  0  0  0  0  0  0  0  0
  1 10  1  0  0  0  0
  1 12  1  0  0  0  0
  2 18  1  0  0  0  0
  2 21  1  0  0  0  0
  3 17  2  0  0  0  0
  4 18  2  0  0  0  0
 19  5  1  6  0  0  0
  6 10  1  0  0  0  0
  6 17  1  0  0  0  0
  6 23  1  0  0  0  0
  7 10  2  0  0  0  0
  7 13  1  0  0  0  0
  8 25  1  0  0  0  0
  8 26  1  0  0  0  0
  8 28  1  0  0  0  0
  9 32  3  0  0  0  0
 11 14  1  0  0  0  0
 11 15  2  0  0  0  0
 11 21  1  0  0  0  0
 12 13  2  0  0  0  0
 12 24  1  0  0  0  0
 13 27  1  0  0  0  0
 14 18  1  0  0  0  0
 14 20  2  0  0  0  0
 15 16  1  0  0  0  0
 15 31  1  0  0  0  0
 16 19  1  0  0  0  0
 16 22  2  0  0  0  0
 17 25  1  0  0  0  0
 19 26  1  0  0  0  0
 20 22  1  0  0  0  0
 23 28  1  0  0  0  0
 24 29  2  0  0  0  0
 27 30  2  0  0  0  0
 29 30  1  0  0  0  0
 29 32  1  0  0  0  0
M  END
> <PUBCHEM_COMPOUND_ID_TYPE>
0

> <PUBCHEM_TOTAL_CHARGE>
0

> <PUBCHEM_SUBSTANCE_ID>
310948887

> <PUBCHEM_SUBSTANCE_VERSION>
1

> <PUBCHEM_EXT_DATASOURCE_NAME>
4488

> <PUBCHEM_EXT_DATASOURCE_REGID>
SCHEMBL16127072

> <PUBCHEM_SUBSTANCE_COMMENT>
InChI=1S/C23H20N4O4S/c1-13-15(3-4-16-17(13)12-31-22(16)30)19(28)10-26-6-7-27(21(29)11-26)23-25-18-5-2-14(9-24)8-20(18)32-23/h2-5,8,19,28H,6-7,10-12H2,1H3/t19-/m0/s1
InChIKey=HBZNUKXBRGYSKC-IBGZPJMESA-N

> <PUBCHEM_SUBSTANCE_SYNONYM>
SCHEMBL16127072

> <PUBCHEM_XREF_EXT_ID>
SCHEMBL16127072

> <PUBCHEM_EXT_DATASOURCE_URL>
https://www.surechembl.org/

> <PUBCHEM_EXT_SUBSTANCE_URL>
https://www.surechembl.org/chemical/SCHEMBL16127072

> <PUBCHEM_CID_ASSOCIATIONS>
117614417  1

> <PUBCHEM_COORDINATE_TYPE>
1
3

> <PUBCHEM_BONDANNOTATIONS>
19  5  6

$$$$
