310948495
  -OEChem-07211613022D

 45 49  0     0  0  0  0  0  0999 V2000
   -4.4793    0.2327    0.0000 Cl  0  0  0  0  0  0  0  0  0  0  0  0
   -4.0139    1.4543    0.0000 F   0  0  0  0  0  0  0  0  0  0  0  0
   -3.6455    2.5014    0.0000 F   0  0  0  0  0  0  0  0  0  0  0  0
   -2.5790    2.1330    0.0000 F   0  0  0  0  0  0  0  0  0  0  0  0
    3.3546    1.4737    0.0000 F   0  0  0  0  0  0  0  0  0  0  0  0
    4.4793    1.4349    0.0000 F   0  0  0  0  0  0  0  0  0  0  0  0
    4.4017    0.2909    0.0000 F   0  0  0  0  0  0  0  0  0  0  0  0
   -1.2604    1.3573    0.0000 O   0  0  0  0  0  0  0  0  0  0  0  0
    3.2576    0.3296    0.0000 O   0  0  0  0  0  0  0  0  0  0  0  0
    3.7618   -2.4627    0.0000 O   0  0  0  0  0  0  0  0  0  0  0  0
   -2.0360    0.0582    0.0000 N   0  0  0  0  0  0  0  0  0  0  0  0
   -2.1330    0.8726    0.0000 N   0  0  0  0  0  0  0  0  0  0  0  0
   -0.1745    2.1718    0.0000 N   0  0  0  0  0  0  0  0  0  0  0  0
    4.4793   -1.2022    0.0000 N   0  0  0  0  0  0  0  0  0  0  0  0
   -0.6011    0.0582    0.0000 C   0  0  0  0  0  0  0  0  0  0  0  0
   -1.2992   -0.3490    0.0000 C   0  0  0  0  0  0  0  0  0  0  0  0
   -0.5817    0.9114    0.0000 C   0  0  0  0  0  0  0  0  0  0  0  0
    0.0776    1.3962    0.0000 C   0  0  0  0  0  0  0  0  0  0  0  0
   -2.9474    1.0859    0.0000 C   0  0  0  0  0  0  0  0  0  0  0  0
    0.1358   -0.3684    0.0000 C   0  0  0  0  0  0  0  0  0  0  0  0
    0.1163   -1.1828    0.0000 C   0  0  0  0  0  0  0  0  0  0  0  0
   -3.3546    0.3296    0.0000 C   0  0  0  0  0  0  0  0  0  0  0  0
   -1.2992   -1.2022    0.0000 C   0  0  0  0  0  0  0  0  0  0  0  0
   -2.7729   -0.2714    0.0000 C   0  0  0  0  0  0  0  0  0  0  0  0
    0.8920    1.1247    0.0000 C   0  0  0  0  0  0  0  0  0  0  0  0
   -3.2965    1.8034    0.0000 C   0  0  0  0  0  0  0  0  0  0  0  0
   -1.0083    2.1911    0.0000 C   0  0  0  0  0  0  0  0  0  0  0  0
    0.8726   -1.6094    0.0000 C   0  0  0  0  0  0  0  0  0  0  0  0
   -0.6011   -1.5900    0.0000 C   0  0  0  0  0  0  0  0  0  0  0  0
    2.3075   -1.6094    0.0000 C   0  0  0  0  0  0  0  0  0  0  0  0
    1.5900   -1.2022    0.0000 C   0  0  0  0  0  0  0  0  0  0  0  0
    1.4931    1.6676    0.0000 C   0  0  0  0  0  0  0  0  0  0  0  0
    1.0665    0.3103    0.0000 C   0  0  0  0  0  0  0  0  0  0  0  0
    3.0249   -1.1828    0.0000 C   0  0  0  0  0  0  0  0  0  0  0  0
    0.8920   -2.4432    0.0000 C   0  0  0  0  0  0  0  0  0  0  0  0
    2.4627    0.6205    0.0000 C   0  0  0  0  0  0  0  0  0  0  0  0
    2.2881   -2.4432    0.0000 C   0  0  0  0  0  0  0  0  0  0  0  0
    2.2881    1.4155    0.0000 C   0  0  0  0  0  0  0  0  0  0  0  0
    1.8615    0.0582    0.0000 C   0  0  0  0  0  0  0  0  0  0  0  0
   -1.5125    2.8504    0.0000 C   0  0  0  0  0  0  0  0  0  0  0  0
    1.5900   -2.8504    0.0000 C   0  0  0  0  0  0  0  0  0  0  0  0
    3.7618   -1.5900    0.0000 C   0  0  0  0  0  0  0  0  0  0  0  0
    2.6372   -0.4654    0.0000 C   0  0  0  0  0  0  0  0  0  0  0  0
    3.4322   -0.4654    0.0000 C   0  0  0  0  0  0  0  0  0  0  0  0
    3.8782    0.8920    0.0000 C   0  0  0  0  0  0  0  0  0  0  0  0
  1 22  1  0  0  0  0
  2 26  1  0  0  0  0
  3 26  1  0  0  0  0
  4 26  1  0  0  0  0
  5 45  1  0  0  0  0
  6 45  1  0  0  0  0
  7 45  1  0  0  0  0
  8 17  1  0  0  0  0
  8 27  1  0  0  0  0
  9 36  1  0  0  0  0
  9 45  1  0  0  0  0
 10 42  2  0  0  0  0
 11 12  1  0  0  0  0
 11 16  1  0  0  0  0
 11 24  1  0  0  0  0
 12 19  2  0  0  0  0
 13 18  1  0  0  0  0
 13 27  2  0  0  0  0
 14 42  1  0  0  0  0
 15 16  1  0  0  0  0
 15 17  1  0  0  0  0
 15 20  2  0  0  0  0
 16 23  2  0  0  0  0
 17 18  2  0  0  0  0
 18 25  1  0  0  0  0
 19 22  1  0  0  0  0
 19 26  1  0  0  0  0
 20 21  1  0  0  0  0
 21 28  1  0  0  0  0
 21 29  2  0  0  0  0
 22 24  2  0  0  0  0
 23 29  1  0  0  0  0
 25 32  2  0  0  0  0
 25 33  1  0  0  0  0
 27 40  1  0  0  0  0
 28 31  2  0  0  0  0
 28 35  1  0  0  0  0
 30 31  1  0  0  0  0
 30 34  1  0  0  0  0
 30 37  2  0  0  0  0
 32 38  1  0  0  0  0
 33 39  2  0  0  0  0
 34 42  1  0  0  0  0
 34 43  1  0  0  0  0
 34 44  1  0  0  0  0
 35 41  2  0  0  0  0
 36 38  2  0  0  0  0
 36 39  1  0  0  0  0
 37 41  1  0  0  0  0
M  END
> <PUBCHEM_COMPOUND_ID_TYPE>
0

> <PUBCHEM_TOTAL_CHARGE>
0

> <PUBCHEM_SUBSTANCE_ID>
310948495

> <PUBCHEM_SUBSTANCE_VERSION>
1

> <PUBCHEM_EXT_DATASOURCE_NAME>
4488

> <PUBCHEM_EXT_DATASOURCE_REGID>
SCHEMBL16126677

> <PUBCHEM_SUBSTANCE_COMMENT>
InChI=1S/C31H23ClF6N4O3/c1-16-40-25(17-7-10-21(11-8-17)45-31(36,37)38)26(44-16)22-14-19(18-5-4-6-20(13-18)29(2,3)28(39)43)9-12-24(22)42-15-23(32)27(41-42)30(33,34)35/h4-15H,1-3H3,(H2,39,43)
InChIKey=UUSKZIBHEFZDKN-UHFFFAOYSA-N

> <PUBCHEM_SUBSTANCE_SYNONYM>
SCHEMBL16126677

> <PUBCHEM_XREF_EXT_ID>
SCHEMBL16126677

> <PUBCHEM_EXT_DATASOURCE_URL>
https://www.surechembl.org/

> <PUBCHEM_EXT_SUBSTANCE_URL>
https://www.surechembl.org/chemical/SCHEMBL16126677

> <PUBCHEM_CID_ASSOCIATIONS>
117614052  1

> <PUBCHEM_COORDINATE_TYPE>
1
3

$$$$
