310938783
  -OEChem-07211613022D

 12 13  0     0  0  0  0  0  0999 V2000
    3.0975   -0.5064    0.0000 N   0  0  0  0  0  0  0  0  0  0  0  0
    2.3830   -0.0939    0.0000 N   0  0  0  0  0  0  0  0  0  0  0  0
    5.2409   -0.9189    0.0000 N   0  0  0  0  0  0  0  0  0  0  0  0
    3.8119   -1.7439    0.0000 C   0  0  0  0  0  0  0  0  0  0  0  0
    3.0975   -1.3314    0.0000 C   0  0  0  0  0  0  0  0  0  0  0  0
    3.3994   -2.4584    0.0000 C   0  0  0  0  0  0  0  0  0  0  0  0
    4.2244   -2.4584    0.0000 C   0  0  0  0  0  0  0  0  0  0  0  0
    4.5264   -1.3314    0.0000 C   0  0  0  0  0  0  0  0  0  0  0  0
    2.3830   -1.7439    0.0000 C   0  0  0  0  0  0  0  0  0  0  0  0
    1.6685   -0.5064    0.0000 C   0  0  0  0  0  0  0  0  0  0  0  0
    1.6685   -1.3314    0.0000 C   0  0  0  0  0  0  0  0  0  0  0  0
    0.9541   -0.0939    0.0000 C   0  0  0  0  0  0  0  0  0  0  0  0
  1  2  2  0  0  0  0
  1  5  1  0  0  0  0
  2 10  1  0  0  0  0
  3  8  3  0  0  0  0
  4  5  1  0  0  0  0
  4  6  1  0  0  0  0
  4  7  1  0  0  0  0
  4  8  1  0  0  0  0
  5  9  2  0  0  0  0
  6  7  1  0  0  0  0
  9 11  1  0  0  0  0
 10 11  2  0  0  0  0
 10 12  1  0  0  0  0
M  END
> <PUBCHEM_COMPOUND_ID_TYPE>
0

> <PUBCHEM_TOTAL_CHARGE>
0

> <PUBCHEM_SUBSTANCE_ID>
310938783

> <PUBCHEM_SUBSTANCE_VERSION>
1

> <PUBCHEM_EXT_DATASOURCE_NAME>
4488

> <PUBCHEM_EXT_DATASOURCE_REGID>
SCHEMBL16116699

> <PUBCHEM_SUBSTANCE_COMMENT>
InChI=1S/C9H9N3/c1-7-2-3-8(12-11-7)9(6-10)4-5-9/h2-3H,4-5H2,1H3
InChIKey=PKVHODQRFDECBW-UHFFFAOYSA-N

> <PUBCHEM_SUBSTANCE_SYNONYM>
SCHEMBL16116699

> <PUBCHEM_XREF_EXT_ID>
SCHEMBL16116699

> <PUBCHEM_EXT_DATASOURCE_URL>
https://www.surechembl.org/

> <PUBCHEM_EXT_SUBSTANCE_URL>
https://www.surechembl.org/chemical/SCHEMBL16116699

> <PUBCHEM_CID_ASSOCIATIONS>
117606194  1

> <PUBCHEM_COORDINATE_TYPE>
1
3

$$$$
