310934590
  -OEChem-07211613022D

 32 37  0     0  0  0  0  0  0999 V2000
    0.4125   -3.7445    0.0000 N   0  0  0  0  0  0  0  0  0  0  0  0
   -0.4125   -3.7445    0.0000 N   0  0  0  0  0  0  0  0  0  0  0  0
    1.4744   -2.7884    0.0000 N   0  0  0  0  0  0  0  0  0  0  0  0
    0.0000    0.0000    0.0000 N   0  0  0  0  0  0  0  0  0  0  0  0
    2.6206   -6.1969    0.0000 N   0  0  0  0  0  0  0  0  0  0  0  0
    3.9796   -6.6385    0.0000 N   0  0  0  0  0  0  0  0  0  0  0  0
    5.0837   -7.8647    0.0000 N   0  0  0  0  0  0  0  0  0  0  0  0
   -0.0000   -2.4750    0.0000 C   0  0  0  0  0  0  0  0  0  0  0  0
    0.6674   -2.9599    0.0000 C   0  0  0  0  0  0  0  0  0  0  0  0
    0.0000   -1.6500    0.0000 C   0  0  0  0  0  0  0  0  0  0  0  0
    0.7145   -1.2375    0.0000 C   0  0  0  0  0  0  0  0  0  0  0  0
   -0.6674   -2.9599    0.0000 C   0  0  0  0  0  0  0  0  0  0  0  0
    1.7715   -4.1861    0.0000 C   0  0  0  0  0  0  0  0  0  0  0  0
    0.7145   -0.4125    0.0000 C   0  0  0  0  0  0  0  0  0  0  0  0
    0.9645   -4.3576    0.0000 C   0  0  0  0  0  0  0  0  0  0  0  0
   -0.7145   -1.2375    0.0000 C   0  0  0  0  0  0  0  0  0  0  0  0
    2.3235   -4.7992    0.0000 C   0  0  0  0  0  0  0  0  0  0  0  0
    2.0264   -3.4015    0.0000 C   0  0  0  0  0  0  0  0  0  0  0  0
   -0.7145   -0.4125    0.0000 C   0  0  0  0  0  0  0  0  0  0  0  0
    1.4289   -1.6500    0.0000 C   0  0  0  0  0  0  0  0  0  0  0  0
    1.4289    0.0000    0.0000 C   0  0  0  0  0  0  0  0  0  0  0  0
    2.0686   -5.5838    0.0000 C   0  0  0  0  0  0  0  0  0  0  0  0
    3.1305   -4.6277    0.0000 C   0  0  0  0  0  0  0  0  0  0  0  0
    3.4276   -6.0254    0.0000 C   0  0  0  0  0  0  0  0  0  0  0  0
    2.1434   -1.2375    0.0000 C   0  0  0  0  0  0  0  0  0  0  0  0
    3.6825   -5.2408    0.0000 C   0  0  0  0  0  0  0  0  0  0  0  0
    2.1434   -0.4125    0.0000 C   0  0  0  0  0  0  0  0  0  0  0  0
   -1.4289   -0.0000    0.0000 C   0  0  0  0  0  0  0  0  0  0  0  0
    4.7866   -6.4670    0.0000 C   0  0  0  0  0  0  0  0  0  0  0  0
    3.7247   -7.4231    0.0000 C   0  0  0  0  0  0  0  0  0  0  0  0
    5.3386   -7.0801    0.0000 C   0  0  0  0  0  0  0  0  0  0  0  0
    4.2767   -8.0362    0.0000 C   0  0  0  0  0  0  0  0  0  0  0  0
  1  2  1  0  0  0  0
  1  9  1  0  0  0  0
  1 15  1  0  0  0  0
  2 12  2  0  0  0  0
  3  9  1  0  0  0  0
  3 18  2  0  0  0  0
  4 14  1  0  0  0  0
  4 19  2  0  0  0  0
  5 22  2  0  0  0  0
  5 24  1  0  0  0  0
  6 24  1  0  0  0  0
  6 29  1  0  0  0  0
  6 30  1  0  0  0  0
  7 31  1  0  0  0  0
  7 32  1  0  0  0  0
  8  9  2  0  0  0  0
  8 10  1  0  0  0  0
  8 12  1  0  0  0  0
 10 11  1  0  0  0  0
 10 16  2  0  0  0  0
 11 14  2  0  0  0  0
 11 20  1  0  0  0  0
 13 15  2  0  0  0  0
 13 17  1  0  0  0  0
 13 18  1  0  0  0  0
 14 21  1  0  0  0  0
 16 19  1  0  0  0  0
 17 22  1  0  0  0  0
 17 23  2  0  0  0  0
 19 28  1  0  0  0  0
 20 25  2  0  0  0  0
 21 27  2  0  0  0  0
 23 26  1  0  0  0  0
 24 26  2  0  0  0  0
 25 27  1  0  0  0  0
 29 31  1  0  0  0  0
 30 32  1  0  0  0  0
M  END
> <PUBCHEM_COMPOUND_ID_TYPE>
0

> <PUBCHEM_TOTAL_CHARGE>
0

> <PUBCHEM_SUBSTANCE_ID>
310934590

> <PUBCHEM_SUBSTANCE_VERSION>
1

> <PUBCHEM_EXT_DATASOURCE_NAME>
4488

> <PUBCHEM_EXT_DATASOURCE_REGID>
SCHEMBL16112082

> <PUBCHEM_SUBSTANCE_COMMENT>
InChI=1S/C25H23N7/c1-17-12-21(20-4-2-3-5-23(20)30-17)22-15-29-32-16-19(14-28-25(22)32)18-6-7-24(27-13-18)31-10-8-26-9-11-31/h2-7,12-16,26H,8-11H2,1H3
InChIKey=ROCFHKYAFOQDHC-UHFFFAOYSA-N

> <PUBCHEM_SUBSTANCE_SYNONYM>
SCHEMBL16112082

> <PUBCHEM_XREF_EXT_ID>
SCHEMBL16112082

> <PUBCHEM_EXT_DATASOURCE_URL>
https://www.surechembl.org/

> <PUBCHEM_EXT_SUBSTANCE_URL>
https://www.surechembl.org/chemical/SCHEMBL16112082

> <PUBCHEM_CID_ASSOCIATIONS>
86275486  1

> <PUBCHEM_COORDINATE_TYPE>
1
3

$$$$
