310941047
  -OEChem-07211613022D

 42 45  0     1  0  0  0  0  0999 V2000
    5.0725    0.6636    0.0000 O   0  0  0  0  0  0  0  0  0  0  0  0
    3.9370   -1.2828    0.0000 O   0  0  0  0  0  0  0  0  0  0  0  0
    1.7843    0.7815    0.0000 O   0  0  0  0  0  0  0  0  0  0  0  0
   -0.3540   -1.2828    0.0000 O   0  0  0  0  0  0  0  0  0  0  0  0
   -2.5067    0.7815    0.0000 O   0  0  0  0  0  0  0  0  0  0  0  0
    3.9370   -2.9491    0.0000 O   0  0  0  0  0  0  0  0  0  0  0  0
   -5.3673   -1.7105    0.0000 O   0  0  0  0  0  0  0  0  0  0  0  0
    2.5067   -0.4572    0.0000 N   0  0  0  0  0  0  0  0  0  0  0  0
    0.3540   -0.0443    0.0000 N   0  0  0  0  0  0  0  0  0  0  0  0
   -1.7990   -0.4572    0.0000 N   0  0  0  0  0  0  0  0  0  0  0  0
    4.6449    0.0000    0.0000 C   0  0  3  0  0  0  0  0  0  0  0  0
    3.9223   -0.4129    0.0000 C   0  0  0  0  0  0  0  0  0  0  0  0
    4.2614    0.6931    0.0000 C   0  0  0  0  0  0  0  0  0  0  0  0
    3.2293   -0.0147    0.0000 C   0  0  3  0  0  0  0  0  0  0  0  0
    5.3673   -0.4276    0.0000 C   0  0  0  0  0  0  0  0  0  0  0  0
    3.2293    1.2976    0.0000 C   0  0  0  0  0  0  0  0  0  0  0  0
    1.7990   -0.0295    0.0000 C   0  0  0  0  0  0  0  0  0  0  0  0
    1.0764   -0.4129    0.0000 C   0  0  3  0  0  0  0  0  0  0  0  0
    2.5067    1.7400    0.0000 C   0  0  0  0  0  0  0  0  0  0  0  0
    1.0617   -1.2681    0.0000 C   0  0  0  0  0  0  0  0  0  0  0  0
   -0.3391   -0.3982    0.0000 C   0  0  0  0  0  0  0  0  0  0  0  0
    1.7990   -1.6662    0.0000 C   0  0  0  0  0  0  0  0  0  0  0  0
    2.5067    2.5510    0.0000 C   0  0  0  0  0  0  0  0  0  0  0  0
    1.7990    1.3124    0.0000 C   0  0  0  0  0  0  0  0  0  0  0  0
   -1.0764   -0.0147    0.0000 C   0  0  3  0  0  0  0  0  0  0  0  0
   -2.4920   -0.0147    0.0000 C   0  0  0  0  0  0  0  0  0  0  0  0
   -3.2146   -0.4276    0.0000 C   0  0  0  0  0  0  0  0  0  0  0  0
    1.8137   -2.5067    0.0000 C   0  0  0  0  0  0  0  0  0  0  0  0
    2.5067   -1.2828    0.0000 C   0  0  0  0  0  0  0  0  0  0  0  0
    1.7843    2.9491    0.0000 C   0  0  0  0  0  0  0  0  0  0  0  0
    1.0912    1.7252    0.0000 C   0  0  0  0  0  0  0  0  0  0  0  0
    3.2293   -2.4920    0.0000 C   0  0  0  0  0  0  0  0  0  0  0  0
    2.5215   -2.9049    0.0000 C   0  0  0  0  0  0  0  0  0  0  0  0
    3.2293   -1.6810    0.0000 C   0  0  0  0  0  0  0  0  0  0  0  0
    1.0912    2.5510    0.0000 C   0  0  0  0  0  0  0  0  0  0  0  0
   -3.9518   -0.0295    0.0000 C   0  0  0  0  0  0  0  0  0  0  0  0
   -3.2146   -1.2534    0.0000 C   0  0  0  0  0  0  0  0  0  0  0  0
   -1.0617    0.7962    0.0000 C   0  0  0  0  0  0  0  0  0  0  0  0
   -4.6449   -1.2534    0.0000 C   0  0  0  0  0  0  0  0  0  0  0  0
   -4.6449   -0.4424    0.0000 C   0  0  0  0  0  0  0  0  0  0  0  0
   -3.9223   -1.6662    0.0000 C   0  0  0  0  0  0  0  0  0  0  0  0
    4.6744   -2.4920    0.0000 C   0  0  0  0  0  0  0  0  0  0  0  0
  1 11  1  0  0  0  0
  1 13  1  0  0  0  0
  2 12  2  0  0  0  0
  3 17  2  0  0  0  0
  4 21  2  0  0  0  0
  5 26  2  0  0  0  0
  6 32  1  0  0  0  0
  6 42  1  0  0  0  0
 39  7  1  6  0  0  0
 14  8  1  1  0  0  0
  8 17  1  0  0  0  0
 18  9  1  6  0  0  0
  9 21  1  0  0  0  0
 10 25  1  0  0  0  0
 10 26  1  0  0  0  0
 11 12  1  1  0  0  0
 11 13  1  0  0  0  0
 11 15  1  6  0  0  0
 12 14  1  0  0  0  0
 14 16  1  0  0  0  0
 16 19  1  0  0  0  0
 17 18  1  0  0  0  0
 18 20  1  0  0  0  0
 19 23  2  0  0  0  0
 19 24  1  0  0  0  0
 20 22  1  0  0  0  0
 21 25  1  0  0  0  0
 22 28  2  0  0  0  0
 22 29  1  0  0  0  0
 23 30  1  0  0  0  0
 24 31  1  0  0  0  0
 25 38  1  6  0  0  0
 27 26  1  1  0  0  0
 27 36  1  0  0  0  0
 27 37  1  0  0  0  0
 28 33  1  0  0  0  0
 29 34  2  0  0  0  0
 30 35  1  0  0  0  0
 31 35  1  0  0  0  0
 32 33  2  0  0  0  0
 32 34  1  0  0  0  0
 36 40  1  0  0  0  0
 37 41  1  0  0  0  0
 39 40  1  0  0  0  0
 39 41  1  0  0  0  0
M  END
> <PUBCHEM_COMPOUND_ID_TYPE>
0

> <PUBCHEM_TOTAL_CHARGE>
0

> <PUBCHEM_SUBSTANCE_ID>
310941047

> <PUBCHEM_SUBSTANCE_VERSION>
1

> <PUBCHEM_EXT_DATASOURCE_NAME>
4488

> <PUBCHEM_EXT_DATASOURCE_REGID>
SCHEMBL16119006

> <PUBCHEM_SUBSTANCE_COMMENT>
InChI=1S/C32H45N3O7/c1-20(33-30(39)23-11-13-24(36)14-12-23)29(38)35-27(18-22-9-15-25(41-3)16-10-22)31(40)34-26(28(37)32(2)19-42-32)17-21-7-5-4-6-8-21/h7,9-10,15-16,20,23-24,26-27,36H,4-6,8,11-14,17-19H2,1-3H3,(H,33,39)(H,34,40)(H,35,38)/t20-,23-,24-,26+,27+,32-/m1/s1
InChIKey=MGKHPOKUGKWFFY-JTRPPKJJSA-N

> <PUBCHEM_SUBSTANCE_SYNONYM>
SCHEMBL16119006

> <PUBCHEM_XREF_EXT_ID>
SCHEMBL16119006

> <PUBCHEM_EXT_DATASOURCE_URL>
https://www.surechembl.org/

> <PUBCHEM_EXT_SUBSTANCE_URL>
https://www.surechembl.org/chemical/SCHEMBL16119006

> <PUBCHEM_CID_ASSOCIATIONS>
117607939  1

> <PUBCHEM_COORDINATE_TYPE>
1
3

> <PUBCHEM_BONDANNOTATIONS>
11  12  5
11  15  6
25  38  6
27  26  5
39  7  6
14  8  5
18  9  6

$$$$
