310937352
  -OEChem-07211613022D

 44 48  0     1  0  0  0  0  0999 V2000
    4.4471   -8.3123    0.0000 F   0  0  0  0  0  0  0  0  0  0  0  0
    5.8602   -8.1461    0.0000 F   0  0  0  0  0  0  0  0  0  0  0  0
    4.3640   -7.4811    0.0000 F   0  0  0  0  0  0  0  0  0  0  0  0
    8.1461   -6.4836    0.0000 F   0  0  0  0  0  0  0  0  0  0  0  0
    7.3149   -5.3199    0.0000 F   0  0  0  0  0  0  0  0  0  0  0  0
    7.4811   -6.9824    0.0000 F   0  0  0  0  0  0  0  0  0  0  0  0
    0.8312   -6.3589    0.0000 F   0  0  0  0  0  0  0  0  0  0  0  0
    1.8703   -5.4030    0.0000 F   0  0  0  0  0  0  0  0  0  0  0  0
    0.2909   -5.7355    0.0000 F   0  0  0  0  0  0  0  0  0  0  0  0
    5.0705   -4.1977    0.0000 O   0  0  0  0  0  0  0  0  0  0  0  0
    5.0705   -0.7065    0.0000 O   0  0  0  0  0  0  0  0  0  0  0  0
    3.7406   -4.1977    0.0000 N   0  0  3  0  0  0  0  0  0  0  0  0
    1.3715   -3.4081    0.0000 N   0  0  0  0  0  0  0  0  0  0  0  0
    3.3665   -2.5768    0.0000 N   0  0  0  0  0  0  0  0  0  0  0  0
    1.8287   -2.0781    0.0000 N   0  0  0  0  0  0  0  0  0  0  0  0
    4.5302   -0.0831    0.0000 N   0  0  0  0  0  0  0  0  0  0  0  0
    4.7796   -4.9874    0.0000 C   0  0  3  0  0  0  0  0  0  0  0  0
    5.2784   -5.6524    0.0000 C   0  0  0  0  0  0  0  0  0  0  0  0
    2.7846   -3.1587    0.0000 C   0  0  0  0  0  0  0  0  0  0  0  0
    3.9899   -4.9874    0.0000 C   0  0  3  0  0  0  0  0  0  0  0  0
    1.9950   -2.8678    0.0000 C   0  0  0  0  0  0  0  0  0  0  0  0
    3.2002   -1.7871    0.0000 C   0  0  0  0  0  0  0  0  0  0  0  0
    5.4446   -7.0655    0.0000 C   0  0  0  0  0  0  0  0  0  0  0  0
    6.6083   -6.2343    0.0000 C   0  0  0  0  0  0  0  0  0  0  0  0
    2.9509   -3.9483    0.0000 C   0  0  0  0  0  0  0  0  0  0  0  0
    3.8237   -1.2468    0.0000 C   0  0  0  0  0  0  0  0  0  0  0  0
    6.1096   -5.5693    0.0000 C   0  0  0  0  0  0  0  0  0  0  0  0
    4.9458   -6.4005    0.0000 C   0  0  0  0  0  0  0  0  0  0  0  0
    4.4055   -3.7406    0.0000 C   0  0  0  0  0  0  0  0  0  0  0  0
    6.2343   -6.9824    0.0000 C   0  0  0  0  0  0  0  0  0  0  0  0
    5.1121   -7.8552    0.0000 C   0  0  0  0  0  0  0  0  0  0  0  0
    7.3980   -6.1512    0.0000 C   0  0  0  0  0  0  0  0  0  0  0  0
    2.4106   -1.4962    0.0000 C   0  0  0  0  0  0  0  0  0  0  0  0
    4.6549   -1.4131    0.0000 C   0  0  0  0  0  0  0  0  0  0  0  0
    3.7406   -0.4156    0.0000 C   0  0  0  0  0  0  0  0  0  0  0  0
    1.5378   -4.2393    0.0000 C   0  0  0  0  0  0  0  0  0  0  0  0
    0.9144   -4.7796    0.0000 C   0  0  3  0  0  0  0  0  0  0  0  0
    0.5819   -3.1587    0.0000 C   0  0  0  0  0  0  0  0  0  0  0  0
    3.4912   -5.6524    0.0000 C   0  0  0  0  0  0  0  0  0  0  0  0
    1.0806   -5.5693    0.0000 C   0  0  0  0  0  0  0  0  0  0  0  0
    0.1247   -4.4886    0.0000 C   0  0  0  0  0  0  0  0  0  0  0  0
    0.0000   -3.6990    0.0000 C   0  0  0  0  0  0  0  0  0  0  0  0
    4.9458   -2.1612    0.0000 C   0  0  0  0  0  0  0  0  0  0  0  0
    3.0340    0.0000    0.0000 C   0  0  0  0  0  0  0  0  0  0  0  0
  1 31  1  0  0  0  0
  2 31  1  0  0  0  0
  3 31  1  0  0  0  0
  4 32  1  0  0  0  0
  5 32  1  0  0  0  0
  6 32  1  0  0  0  0
  7 40  1  0  0  0  0
  8 40  1  0  0  0  0
  9 40  1  0  0  0  0
 17 10  1  1  0  0  0
 10 29  1  0  0  0  0
 11 16  1  0  0  0  0
 11 34  1  0  0  0  0
 12 20  1  0  0  0  0
 12 25  1  0  0  0  0
 12 29  1  0  0  0  0
 13 21  1  0  0  0  0
 13 36  1  0  0  0  0
 13 38  1  0  0  0  0
 14 19  2  0  0  0  0
 14 22  1  0  0  0  0
 15 21  2  0  0  0  0
 15 33  1  0  0  0  0
 16 35  2  0  0  0  0
 17 18  1  0  0  0  0
 17 20  1  0  0  0  0
 18 27  2  0  0  0  0
 18 28  1  0  0  0  0
 19 21  1  0  0  0  0
 19 25  1  0  0  0  0
 20 39  1  6  0  0  0
 22 26  1  0  0  0  0
 22 33  2  0  0  0  0
 23 28  2  0  0  0  0
 23 30  1  0  0  0  0
 23 31  1  0  0  0  0
 24 27  1  0  0  0  0
 24 30  2  0  0  0  0
 24 32  1  0  0  0  0
 26 34  2  0  0  0  0
 26 35  1  0  0  0  0
 34 43  1  0  0  0  0
 35 44  1  0  0  0  0
 36 37  1  0  0  0  0
 37 40  1  0  0  0  0
 37 41  1  0  0  0  0
 38 42  1  0  0  0  0
 41 42  1  0  0  0  0
M  END
> <PUBCHEM_COMPOUND_ID_TYPE>
0

> <PUBCHEM_TOTAL_CHARGE>
0

> <PUBCHEM_SUBSTANCE_ID>
310937352

> <PUBCHEM_SUBSTANCE_VERSION>
1

> <PUBCHEM_EXT_DATASOURCE_NAME>
4488

> <PUBCHEM_EXT_DATASOURCE_REGID>
SCHEMBL16115108

> <PUBCHEM_SUBSTANCE_COMMENT>
InChI=1S/C28H28F9N5O2/c1-14-23(16(3)44-40-14)21-10-38-25(41-6-4-5-18(11-41)26(29,30)31)22(39-21)12-42-13-43-24(15(42)2)17-7-19(27(32,33)34)9-20(8-17)28(35,36)37/h7-10,15,18,24H,4-6,11-13H2,1-3H3/t15-,18?,24+/m0/s1
InChIKey=MJESOHRRTLNGJT-BUHNIRGFSA-N

> <PUBCHEM_SUBSTANCE_SYNONYM>
SCHEMBL16115108

> <PUBCHEM_XREF_EXT_ID>
SCHEMBL16115108

> <PUBCHEM_EXT_DATASOURCE_URL>
https://www.surechembl.org/

> <PUBCHEM_EXT_SUBSTANCE_URL>
https://www.surechembl.org/chemical/SCHEMBL16115108

> <PUBCHEM_CID_ASSOCIATIONS>
117605125  1

> <PUBCHEM_COORDINATE_TYPE>
1
3

> <PUBCHEM_BONDANNOTATIONS>
17  10  5
20  39  6

$$$$
