310936997
  -OEChem-07211613022D

 11 11  0     0  0  0  0  0  0999 V2000
    1.3871   -0.9191    0.0000 O   0  0  0  0  0  0  0  0  0  0  0  0
    4.3117    0.0000    0.0000 O   0  0  0  0  0  0  0  0  0  0  0  0
    5.0135   -1.2367    0.0000 O   0  0  0  0  0  0  0  0  0  0  0  0
    2.0555   -2.0723    0.0000 N   0  0  0  0  0  0  0  0  0  0  0  0
    1.2534   -2.2394    0.0000 N   0  0  0  0  0  0  0  0  0  0  0  0
    2.1558   -1.2367    0.0000 C   0  0  0  0  0  0  0  0  0  0  0  0
    0.8189   -1.5208    0.0000 C   0  0  0  0  0  0  0  0  0  0  0  0
    2.8744   -0.8356    0.0000 C   0  0  0  0  0  0  0  0  0  0  0  0
    3.5763   -1.2367    0.0000 C   0  0  0  0  0  0  0  0  0  0  0  0
    4.3117   -0.8356    0.0000 C   0  0  0  0  0  0  0  0  0  0  0  0
    0.0000   -1.4205    0.0000 C   0  0  0  0  0  0  0  0  0  0  0  0
  1  6  1  0  0  0  0
  1  7  1  0  0  0  0
  2 10  2  0  0  0  0
  3 10  1  0  0  0  0
  4  5  1  0  0  0  0
  4  6  2  0  0  0  0
  5  7  2  0  0  0  0
  6  8  1  0  0  0  0
  7 11  1  0  0  0  0
  8  9  1  0  0  0  0
  9 10  1  0  0  0  0
M  END
> <PUBCHEM_COMPOUND_ID_TYPE>
0

> <PUBCHEM_TOTAL_CHARGE>
0

> <PUBCHEM_SUBSTANCE_ID>
310936997

> <PUBCHEM_SUBSTANCE_VERSION>
1

> <PUBCHEM_EXT_DATASOURCE_NAME>
4488

> <PUBCHEM_EXT_DATASOURCE_REGID>
SCHEMBL16114703

> <PUBCHEM_SUBSTANCE_COMMENT>
InChI=1S/C6H8N2O3/c1-4-7-8-5(11-4)2-3-6(9)10/h2-3H2,1H3,(H,9,10)
InChIKey=CXFLYPMEODYQPJ-UHFFFAOYSA-N

> <PUBCHEM_SUBSTANCE_SYNONYM>
SCHEMBL16114703

> <PUBCHEM_XREF_EXT_ID>
SCHEMBL16114703

> <PUBCHEM_EXT_DATASOURCE_URL>
https://www.surechembl.org/

> <PUBCHEM_EXT_SUBSTANCE_URL>
https://www.surechembl.org/chemical/SCHEMBL16114703

> <PUBCHEM_CID_ASSOCIATIONS>
28344847  1

> <PUBCHEM_COORDINATE_TYPE>
1
3

$$$$
