310941548
  -OEChem-07211613022D

 17 18  0     0  0  0  0  0  0999 V2000
    2.4758    0.8494    0.0000 Br  0  0  0  0  0  0  0  0  0  0  0  0
   -1.7891   -1.6084    0.0000 Cl  0  0  0  0  0  0  0  0  0  0  0  0
    1.0662   -0.7771    0.0000 O   0  0  0  0  0  0  0  0  0  0  0  0
    1.0662    1.6627    0.0000 O   0  0  0  0  0  0  0  0  0  0  0  0
   -0.3614   -0.7771    0.0000 N   0  0  0  0  0  0  0  0  0  0  0  0
   -1.0482   -0.3795    0.0000 C   0  0  0  0  0  0  0  0  0  0  0  0
   -1.0301    0.4337    0.0000 C   0  0  0  0  0  0  0  0  0  0  0  0
    0.3795    0.4518    0.0000 C   0  0  0  0  0  0  0  0  0  0  0  0
    0.3433   -0.3614    0.0000 C   0  0  0  0  0  0  0  0  0  0  0  0
   -0.3614    0.8494    0.0000 C   0  0  0  0  0  0  0  0  0  0  0  0
   -1.7530   -0.8133    0.0000 C   0  0  0  0  0  0  0  0  0  0  0  0
    1.0662    0.8494    0.0000 C   0  0  0  0  0  0  0  0  0  0  0  0
   -1.7530    0.8313    0.0000 C   0  0  0  0  0  0  0  0  0  0  0  0
   -2.4758   -0.3976    0.0000 C   0  0  0  0  0  0  0  0  0  0  0  0
   -2.4758    0.4337    0.0000 C   0  0  0  0  0  0  0  0  0  0  0  0
   -0.3433   -1.6627    0.0000 C   0  0  0  0  0  0  0  0  0  0  0  0
    1.7891    0.4518    0.0000 C   0  0  0  0  0  0  0  0  0  0  0  0
  1 17  1  0  0  0  0
  2 11  1  0  0  0  0
  3  9  2  0  0  0  0
  4 12  2  0  0  0  0
  5  6  1  0  0  0  0
  5  9  1  0  0  0  0
  5 16  1  0  0  0  0
  6  7  1  0  0  0  0
  6 11  2  0  0  0  0
  7 10  1  0  0  0  0
  7 13  2  0  0  0  0
  8  9  1  0  0  0  0
  8 10  2  0  0  0  0
  8 12  1  0  0  0  0
 11 14  1  0  0  0  0
 12 17  1  0  0  0  0
 13 15  1  0  0  0  0
 14 15  2  0  0  0  0
M  END
> <PUBCHEM_COMPOUND_ID_TYPE>
0

> <PUBCHEM_TOTAL_CHARGE>
0

> <PUBCHEM_SUBSTANCE_ID>
310941548

> <PUBCHEM_SUBSTANCE_VERSION>
1

> <PUBCHEM_EXT_DATASOURCE_NAME>
4488

> <PUBCHEM_EXT_DATASOURCE_REGID>
SCHEMBL16119579

> <PUBCHEM_SUBSTANCE_COMMENT>
InChI=1S/C12H9BrClNO2/c1-15-11-7(3-2-4-9(11)14)5-8(12(15)17)10(16)6-13/h2-5H,6H2,1H3
InChIKey=JNESENORKGNPTN-UHFFFAOYSA-N

> <PUBCHEM_SUBSTANCE_SYNONYM>
SCHEMBL16119579

> <PUBCHEM_XREF_EXT_ID>
SCHEMBL16119579

> <PUBCHEM_EXT_DATASOURCE_URL>
https://www.surechembl.org/

> <PUBCHEM_EXT_SUBSTANCE_URL>
https://www.surechembl.org/chemical/SCHEMBL16119579

> <PUBCHEM_CID_ASSOCIATIONS>
117608354  1

> <PUBCHEM_COORDINATE_TYPE>
1
3

$$$$
