310942846
  -OEChem-07211613022D

 83 89  0     1  0  0  0  0  0999 V2000
    6.5889    2.1899    0.0000 F   0  0  0  0  0  0  0  0  0  0  0  0
    5.1482   -2.9007    0.0000 F   0  0  0  0  0  0  0  0  0  0  0  0
    9.2015    4.2069    0.0000 F   0  0  0  0  0  0  0  0  0  0  0  0
    6.4929    1.1334    0.0000 O   0  0  0  0  0  0  0  0  0  0  0  0
    8.8172   -2.5357    0.0000 O   0  0  0  0  0  0  0  0  0  0  0  0
    4.8216    1.0950    0.0000 O   0  0  0  0  0  0  0  0  0  0  0  0
    2.5933   -0.9797    0.0000 O   0  0  0  0  0  0  0  0  0  0  0  0
    3.4001    0.1921    0.0000 O   0  0  0  0  0  0  0  0  0  0  0  0
   -1.7289   -0.6916    0.0000 O   0  0  0  0  0  0  0  0  0  0  0  0
   -4.0340   -2.5741    0.0000 O   0  0  0  0  0  0  0  0  0  0  0  0
  -11.4298   -1.9594    0.0000 O   0  0  0  0  0  0  0  0  0  0  0  0
   -9.7777    0.4225    0.0000 O   0  0  0  0  0  0  0  0  0  0  0  0
   -6.0319   -0.3841    0.0000 O   0  0  0  0  0  0  0  0  0  0  0  0
   -4.7831   -2.9391    0.0000 O   0  0  0  0  0  0  0  0  0  0  0  0
    8.7212    0.3841    0.0000 N   0  0  0  0  0  0  0  0  0  0  0  0
    6.6657   -0.4802    0.0000 N   0  0  0  0  0  0  0  0  0  0  0  0
    7.5302    0.9989    0.0000 N   0  0  0  0  0  0  0  0  0  0  0  0
    4.0340   -1.0757    0.0000 N   0  0  0  0  0  0  0  0  0  0  0  0
   -1.0950   -1.9594    0.0000 N   0  0  0  0  0  0  0  0  0  0  0  0
  -10.4116   -0.9029    0.0000 N   0  0  0  0  0  0  0  0  0  0  0  0
   -3.2080   -1.4023    0.0000 N   0  0  0  0  0  0  0  0  0  0  0  0
   -5.3979   -1.6521    0.0000 N   0  0  0  0  0  0  0  0  0  0  0  0
   -4.1493   -4.2069    0.0000 N   0  0  0  0  0  0  0  0  0  0  0  0
   -5.5708   -4.1109    0.0000 N   0  0  0  0  0  0  0  0  0  0  0  0
    7.8759    0.2881    0.0000 C   0  0  0  0  0  0  0  0  0  0  0  0
    7.4918   -0.4610    0.0000 C   0  0  3  0  0  0  0  0  0  0  0  0
    8.1065    1.5751    0.0000 C   0  0  0  0  0  0  0  0  0  0  0  0
    7.9336   -1.1334    0.0000 C   0  0  0  0  0  0  0  0  0  0  0  0
    8.8749    1.1718    0.0000 C   0  0  0  0  0  0  0  0  0  0  0  0
    8.0104    2.4011    0.0000 C   0  0  0  0  0  0  0  0  0  0  0  0
    6.0895    0.4034    0.0000 C   0  0  0  0  0  0  0  0  0  0  0  0
    6.1663   -1.4215    0.0000 C   0  0  0  0  0  0  0  0  0  0  0  0
    9.3359   -0.2113    0.0000 C   0  0  0  0  0  0  0  0  0  0  0  0
    5.3019   -1.4407    0.0000 C   0  0  3  0  0  0  0  0  0  0  0  0
    7.2421    2.7086    0.0000 C   0  0  0  0  0  0  0  0  0  0  0  0
    7.5494   -1.8826    0.0000 C   0  0  0  0  0  0  0  0  0  0  0  0
    8.7788   -1.1334    0.0000 C   0  0  0  0  0  0  0  0  0  0  0  0
    8.6636    2.9007    0.0000 C   0  0  0  0  0  0  0  0  0  0  0  0
    4.8601   -2.1130    0.0000 C   0  0  3  0  0  0  0  0  0  0  0  0
   10.1043   -0.0576    0.0000 C   0  0  0  0  0  0  0  0  0  0  0  0
    5.2635    0.4034    0.0000 C   0  0  3  0  0  0  0  0  0  0  0  0
    4.8216   -0.8069    0.0000 C   0  0  0  0  0  0  0  0  0  0  0  0
    8.5675    3.7074    0.0000 C   0  0  0  0  0  0  0  0  0  0  0  0
    4.0725   -1.9018    0.0000 C   0  0  0  0  0  0  0  0  0  0  0  0
    7.1268    3.4961    0.0000 C   0  0  0  0  0  0  0  0  0  0  0  0
    7.9911   -2.5548    0.0000 C   0  0  0  0  0  0  0  0  0  0  0  0
    9.2207   -1.8057    0.0000 C   0  0  0  0  0  0  0  0  0  0  0  0
    7.8183    3.9956    0.0000 C   0  0  0  0  0  0  0  0  0  0  0  0
    3.3233   -0.6339    0.0000 C   0  0  0  0  0  0  0  0  0  0  0  0
   10.6422   -0.6532    0.0000 C   0  0  0  0  0  0  0  0  0  0  0  0
   10.3541    0.6916    0.0000 C   0  0  0  0  0  0  0  0  0  0  0  0
    4.8793   -0.3073    0.0000 C   0  0  0  0  0  0  0  0  0  0  0  0
   11.4490   -0.4802    0.0000 C   0  0  0  0  0  0  0  0  0  0  0  0
   11.1607    0.8645    0.0000 C   0  0  0  0  0  0  0  0  0  0  0  0
   11.6987    0.2497    0.0000 C   0  0  0  0  0  0  0  0  0  0  0  0
    1.9018   -0.5187    0.0000 C   0  0  0  0  0  0  0  0  0  0  0  0
    1.1526   -0.8837    0.0000 C   0  0  0  0  0  0  0  0  0  0  0  0
    0.4802   -0.4225    0.0000 C   0  0  0  0  0  0  0  0  0  0  0  0
    1.0950   -1.6905    0.0000 C   0  0  0  0  0  0  0  0  0  0  0  0
   -0.3457   -1.5944    0.0000 C   0  0  0  0  0  0  0  0  0  0  0  0
   -0.2689   -0.7876    0.0000 C   0  0  0  0  0  0  0  0  0  0  0  0
    0.3650   -2.0362    0.0000 C   0  0  0  0  0  0  0  0  0  0  0  0
   -1.7865   -1.5175    0.0000 C   0  0  0  0  0  0  0  0  0  0  0  0
   -2.5164   -1.8442    0.0000 C   0  0  3  0  0  0  0  0  0  0  0  0
   -3.9572   -1.7289    0.0000 C   0  0  0  0  0  0  0  0  0  0  0  0
   -4.6679   -1.2870    0.0000 C   0  0  3  0  0  0  0  0  0  0  0  0
  -11.1607   -1.1334    0.0000 C   0  0  0  0  0  0  0  0  0  0  0  0
  -10.4501   -0.0960    0.0000 C   0  0  0  0  0  0  0  0  0  0  0  0
   -2.5741   -2.6509    0.0000 C   0  0  0  0  0  0  0  0  0  0  0  0
   -4.5911   -0.4610    0.0000 C   0  0  0  0  0  0  0  0  0  0  0  0
  -11.6987   -0.5379    0.0000 C   0  0  0  0  0  0  0  0  0  0  0  0
  -11.2376    0.1537    0.0000 C   0  0  0  0  0  0  0  0  0  0  0  0
   -9.7009   -1.3447    0.0000 C   0  0  0  0  0  0  0  0  0  0  0  0
   -6.1087   -1.2102    0.0000 C   0  0  0  0  0  0  0  0  0  0  0  0
   -3.3233   -3.0159    0.0000 C   0  0  0  0  0  0  0  0  0  0  0  0
   -8.9517   -0.9989    0.0000 C   0  0  0  0  0  0  0  0  0  0  0  0
   -6.8194   -1.5560    0.0000 C   0  0  0  0  0  0  0  0  0  0  0  0
   -5.3019   -0.0384    0.0000 C   0  0  0  0  0  0  0  0  0  0  0  0
   -3.8228   -0.1344    0.0000 C   0  0  0  0  0  0  0  0  0  0  0  0
   -8.2602   -1.4407    0.0000 C   0  0  0  0  0  0  0  0  0  0  0  0
   -7.5302   -1.0950    0.0000 C   0  0  0  0  0  0  0  0  0  0  0  0
   -3.4001   -3.8419    0.0000 C   0  0  0  0  0  0  0  0  0  0  0  0
   -4.8601   -3.7652    0.0000 C   0  0  0  0  0  0  0  0  0  0  0  0
  1 35  1  0  0  0  0
 39  2  1  1  0  0  0
  3 43  1  0  0  0  0
  4 31  2  0  0  0  0
  5 46  1  0  0  0  0
  5 47  1  0  0  0  0
 41  6  1  6  0  0  0
  7 49  1  0  0  0  0
  7 56  1  0  0  0  0
  8 49  2  0  0  0  0
  9 63  2  0  0  0  0
 10 65  2  0  0  0  0
 11 67  2  0  0  0  0
 12 68  2  0  0  0  0
 13 74  2  0  0  0  0
 14 83  2  0  0  0  0
 15 25  1  0  0  0  0
 15 29  1  0  0  0  0
 15 33  1  0  0  0  0
 26 16  1  1  0  0  0
 16 31  1  0  0  0  0
 16 32  1  0  0  0  0
 17 25  2  0  0  0  0
 17 27  1  0  0  0  0
 18 42  1  0  0  0  0
 18 44  1  0  0  0  0
 18 49  1  0  0  0  0
 19 60  1  0  0  0  0
 19 63  1  0  0  0  0
 20 67  1  0  0  0  0
 20 68  1  0  0  0  0
 20 73  1  0  0  0  0
 64 21  1  6  0  0  0
 21 65  1  0  0  0  0
 66 22  1  1  0  0  0
 22 74  1  0  0  0  0
 23 82  1  0  0  0  0
 23 83  1  0  0  0  0
 24 83  1  0  0  0  0
 25 26  1  0  0  0  0
 26 28  1  0  0  0  0
 27 29  2  0  0  0  0
 27 30  1  0  0  0  0
 28 36  1  0  0  0  0
 28 37  1  0  0  0  0
 30 35  2  0  0  0  0
 30 38  1  0  0  0  0
 31 41  1  0  0  0  0
 34 32  1  1  0  0  0
 33 40  1  0  0  0  0
 34 39  1  0  0  0  0
 34 42  1  0  0  0  0
 35 45  1  0  0  0  0
 36 46  1  0  0  0  0
 37 47  1  0  0  0  0
 38 43  2  0  0  0  0
 39 44  1  0  0  0  0
 40 50  2  0  0  0  0
 40 51  1  0  0  0  0
 41 52  1  0  0  0  0
 43 48  1  0  0  0  0
 45 48  2  0  0  0  0
 50 53  1  0  0  0  0
 51 54  2  0  0  0  0
 53 55  2  0  0  0  0
 54 55  1  0  0  0  0
 56 57  1  0  0  0  0
 57 58  2  0  0  0  0
 57 59  1  0  0  0  0
 58 61  1  0  0  0  0
 59 62  2  0  0  0  0
 60 61  2  0  0  0  0
 60 62  1  0  0  0  0
 63 64  1  0  0  0  0
 64 69  1  0  0  0  0
 65 66  1  0  0  0  0
 66 70  1  0  0  0  0
 67 71  1  0  0  0  0
 68 72  1  0  0  0  0
 69 75  1  0  0  0  0
 70 78  1  0  0  0  0
 70 79  1  0  0  0  0
 71 72  2  0  0  0  0
 73 76  1  0  0  0  0
 74 77  1  0  0  0  0
 75 82  1  0  0  0  0
 76 80  1  0  0  0  0
 77 81  1  0  0  0  0
 80 81  1  0  0  0  0
M  END
> <PUBCHEM_COMPOUND_ID_TYPE>
0

> <PUBCHEM_TOTAL_CHARGE>
0

> <PUBCHEM_SUBSTANCE_ID>
310942846

> <PUBCHEM_SUBSTANCE_VERSION>
1

> <PUBCHEM_EXT_DATASOURCE_NAME>
4488

> <PUBCHEM_EXT_DATASOURCE_REGID>
SCHEMBL16120901

> <PUBCHEM_SUBSTANCE_COMMENT>
InChI=1S/C59H73F3N10O11/c1-36(2)52(68-49(74)14-8-5-9-26-71-50(75)21-22-51(71)76)56(78)67-47(13-10-25-64-58(63)80)55(77)65-43-18-15-39(16-19-43)35-83-59(81)70-31-41(46(62)33-70)32-72(57(79)37(3)73)53(40-23-27-82-28-24-40)54-66-48(44-29-42(60)17-20-45(44)61)34-69(54)30-38-11-6-4-7-12-38/h4,6-7,11-12,15-22,29,34,36-37,40-41,46-47,52-53,73H,5,8-10,13-14,23-28,30-33,35H2,1-3H3,(H,65,77)(H,67,78)(H,68,74)(H3,63,64,80)/t37-,41-,46-,47-,52-,53+/m0/s1
InChIKey=SFAJFRODXHBLAH-ODGPVZJESA-N

> <PUBCHEM_SUBSTANCE_SYNONYM>
SCHEMBL16120901

> <PUBCHEM_XREF_EXT_ID>
SCHEMBL16120901

> <PUBCHEM_EXT_DATASOURCE_URL>
https://www.surechembl.org/

> <PUBCHEM_EXT_SUBSTANCE_URL>
https://www.surechembl.org/chemical/SCHEMBL16120901

> <PUBCHEM_CID_ASSOCIATIONS>
117609336  1

> <PUBCHEM_COORDINATE_TYPE>
1
3

> <PUBCHEM_BONDANNOTATIONS>
26  16  5
39  2  5
64  21  6
66  22  5
34  32  5
41  6  6

$$$$
