310933191
  -OEChem-07211613022D

 33 37  0     1  0  0  0  0  0999 V2000
    6.1340   -0.4907    0.0000 O   0  0  0  0  0  0  0  0  0  0  0  0
    2.7340   -2.9093    0.0000 N   0  0  0  0  0  0  0  0  0  0  0  0
    3.5052   -3.2247    0.0000 N   0  0  0  0  0  0  0  0  0  0  0  0
    4.9072   -2.6289    0.0000 N   0  0  0  0  0  0  0  0  0  0  0  0
    8.0619   -3.2247    0.0000 N   0  0  3  0  0  0  0  0  0  0  0  0
    6.1340   -1.9279    0.0000 N   0  0  0  0  0  0  0  0  0  0  0  0
    7.3608   -1.1918    0.0000 N   0  0  0  0  0  0  0  0  0  0  0  0
    0.9814   -0.4206    0.0000 N   0  0  0  0  0  0  0  0  0  0  0  0
    3.6103   -1.8928    0.0000 C   0  0  0  0  0  0  0  0  0  0  0  0
    2.8042   -2.0681    0.0000 C   0  0  0  0  0  0  0  0  0  0  0  0
    4.0660   -2.6289    0.0000 C   0  0  0  0  0  0  0  0  0  0  0  0
    2.2082   -1.5423    0.0000 C   0  0  0  0  0  0  0  0  0  0  0  0
    8.5877   -2.0330    0.0000 C   0  0  3  0  0  0  0  0  0  0  0  0
    5.2928   -1.9279    0.0000 C   0  0  0  0  0  0  0  0  0  0  0  0
    7.7815   -1.9279    0.0000 C   0  0  3  0  0  0  0  0  0  0  0  0
    4.0660   -1.1918    0.0000 C   0  0  0  0  0  0  0  0  0  0  0  0
    9.1835   -1.4021    0.0000 C   0  0  0  0  0  0  0  0  0  0  0  0
    4.8722   -1.1567    0.0000 C   0  0  0  0  0  0  0  0  0  0  0  0
    8.7629   -2.8392    0.0000 C   0  0  0  0  0  0  0  0  0  0  0  0
    7.4310   -2.6639    0.0000 C   0  0  0  0  0  0  0  0  0  0  0  0
    6.5196   -1.1918    0.0000 C   0  0  0  0  0  0  0  0  0  0  0  0
    1.4021   -1.8227    0.0000 C   0  0  0  0  0  0  0  0  0  0  0  0
    2.3835   -0.7361    0.0000 C   0  0  0  0  0  0  0  0  0  0  0  0
    9.9897   -1.5773    0.0000 C   0  0  0  0  0  0  0  0  0  0  0  0
    0.8062   -1.2268    0.0000 C   0  0  0  0  0  0  0  0  0  0  0  0
    8.9031   -0.6309    0.0000 C   0  0  0  0  0  0  0  0  0  0  0  0
    1.7877   -0.1402    0.0000 C   0  0  0  0  0  0  0  0  0  0  0  0
   10.5155   -0.9464    0.0000 C   0  0  0  0  0  0  0  0  0  0  0  0
    9.4640    0.0000    0.0000 C   0  0  0  0  0  0  0  0  0  0  0  0
    7.9567   -4.0660    0.0000 C   0  0  0  0  0  0  0  0  0  0  0  0
   10.2701   -0.1753    0.0000 C   0  0  0  0  0  0  0  0  0  0  0  0
   10.2351   -2.3484    0.0000 C   0  0  0  0  0  0  0  0  0  0  0  0
    0.0000   -1.4721    0.0000 C   0  0  0  0  0  0  0  0  0  0  0  0
  1 21  2  0  0  0  0
  2  3  1  0  0  0  0
  2 10  2  0  0  0  0
  3 11  1  0  0  0  0
  4 11  2  0  0  0  0
  4 14  1  0  0  0  0
  5 19  1  0  0  0  0
  5 20  1  0  0  0  0
  5 30  1  0  0  0  0
  6 14  1  0  0  0  0
  6 21  1  0  0  0  0
 15  7  1  6  0  0  0
  7 21  1  0  0  0  0
  8 25  1  0  0  0  0
  8 27  2  0  0  0  0
  9 10  1  0  0  0  0
  9 11  1  0  0  0  0
  9 16  2  0  0  0  0
 10 12  1  0  0  0  0
 12 22  1  0  0  0  0
 12 23  2  0  0  0  0
 13 15  1  0  0  0  0
 13 17  1  0  0  0  0
 13 19  1  1  0  0  0
 14 18  2  0  0  0  0
 15 20  1  0  0  0  0
 16 18  1  0  0  0  0
 17 24  2  0  0  0  0
 17 26  1  0  0  0  0
 22 25  2  0  0  0  0
 23 27  1  0  0  0  0
 24 28  1  0  0  0  0
 24 32  1  0  0  0  0
 25 33  1  0  0  0  0
 26 29  2  0  0  0  0
 28 31  2  0  0  0  0
 29 31  1  0  0  0  0
M  END
> <PUBCHEM_COMPOUND_ID_TYPE>
0

> <PUBCHEM_TOTAL_CHARGE>
0

> <PUBCHEM_SUBSTANCE_ID>
310933191

> <PUBCHEM_SUBSTANCE_VERSION>
1

> <PUBCHEM_EXT_DATASOURCE_NAME>
4488

> <PUBCHEM_EXT_DATASOURCE_REGID>
SCHEMBL16110600

> <PUBCHEM_SUBSTANCE_COMMENT>
InChI=1S/C25H27N7O/c1-15-6-4-5-7-18(15)20-13-32(3)14-21(20)27-25(33)29-22-9-8-19-23(30-31-24(19)28-22)17-10-11-26-16(2)12-17/h4-12,20-21H,13-14H2,1-3H3,(H3,27,28,29,30,31,33)/t20-,21+/m1/s1
InChIKey=DCSXDMQFGRYUCF-RTWAWAEBSA-N

> <PUBCHEM_SUBSTANCE_SYNONYM>
SCHEMBL16110600

> <PUBCHEM_XREF_EXT_ID>
SCHEMBL16110600

> <PUBCHEM_EXT_DATASOURCE_URL>
https://www.surechembl.org/

> <PUBCHEM_EXT_SUBSTANCE_URL>
https://www.surechembl.org/chemical/SCHEMBL16110600

> <PUBCHEM_CID_ASSOCIATIONS>
117601635  1

> <PUBCHEM_COORDINATE_TYPE>
1
3

> <PUBCHEM_BONDANNOTATIONS>
13  19  5
15  7  6

$$$$
