310942486
  -OEChem-07211613022D

 41 44  0     1  0  0  0  0  0999 V2000
   -3.1349    0.0825    0.0000 F   0  0  0  0  0  0  0  0  0  0  0  0
    3.7199   -1.1025    0.0000 F   0  0  0  0  0  0  0  0  0  0  0  0
   -2.8049   -3.2173    0.0000 F   0  0  0  0  0  0  0  0  0  0  0  0
   -0.4950   -1.8374    0.0000 O   0  0  0  0  0  0  0  0  0  0  0  0
    0.3300   -3.2775    0.0000 O   0  0  0  0  0  0  0  0  0  0  0  0
    1.6949    1.9575    0.0000 O   0  0  0  0  0  0  0  0  0  0  0  0
   -0.8550    0.4725    0.0000 N   0  0  0  0  0  0  0  0  0  0  0  0
    0.8700   -0.9075    0.0000 N   0  0  0  0  0  0  0  0  0  0  0  0
   -0.8550   -0.8625    0.0000 N   0  0  0  0  0  0  0  0  0  0  0  0
    2.6399   -2.9324    0.0000 N   0  0  0  0  0  0  0  0  0  0  0  0
    2.8349    1.2375    0.0000 N   0  0  0  0  0  0  0  0  0  0  0  0
    0.4499   -0.1875    0.0000 C   0  0  3  0  0  0  0  0  0  0  0  0
   -0.3749   -0.1725    0.0000 C   0  0  0  0  0  0  0  0  0  0  0  0
    0.8550    0.5475    0.0000 C   0  0  0  0  0  0  0  0  0  0  0  0
   -1.6499   -0.5924    0.0000 C   0  0  0  0  0  0  0  0  0  0  0  0
   -1.6349    0.2325    0.0000 C   0  0  0  0  0  0  0  0  0  0  0  0
   -2.3099   -1.0725    0.0000 C   0  0  0  0  0  0  0  0  0  0  0  0
    0.3599   -1.8374    0.0000 C   0  0  0  0  0  0  0  0  0  0  0  0
    1.9349   -0.9075    0.0000 C   0  0  0  0  0  0  0  0  0  0  0  0
    1.6949    0.5324    0.0000 C   0  0  0  0  0  0  0  0  0  0  0  0
   -0.6000    1.2525    0.0000 C   0  0  0  0  0  0  0  0  0  0  0  0
   -3.0599   -0.7425    0.0000 C   0  0  0  0  0  0  0  0  0  0  0  0
    2.3400   -1.6124    0.0000 C   0  0  3  0  0  0  0  0  0  0  0  0
    0.1500    0.9225    0.0000 C   0  0  0  0  0  0  0  0  0  0  0  0
    0.8700    1.3724    0.0000 C   0  0  0  0  0  0  0  0  0  0  0  0
   -2.2350   -1.9124    0.0000 C   0  0  0  0  0  0  0  0  0  0  0  0
    0.7350   -2.5424    0.0000 C   0  0  3  0  0  0  0  0  0  0  0  0
   -1.1400    1.8824    0.0000 C   0  0  0  0  0  0  0  0  0  0  0  0
    2.1150    1.2375    0.0000 C   0  0  0  0  0  0  0  0  0  0  0  0
    3.1648   -1.7174    0.0000 C   0  0  3  0  0  0  0  0  0  0  0  0
   -2.8799   -2.3925    0.0000 C   0  0  0  0  0  0  0  0  0  0  0  0
   -3.7199   -1.2225    0.0000 C   0  0  0  0  0  0  0  0  0  0  0  0
    2.0250   -2.3624    0.0000 C   0  0  0  0  0  0  0  0  0  0  0  0
   -3.6449   -2.0475    0.0000 C   0  0  0  0  0  0  0  0  0  0  0  0
    3.3450   -2.4975    0.0000 C   0  0  0  0  0  0  0  0  0  0  0  0
   -0.9150    2.6924    0.0000 C   0  0  0  0  0  0  0  0  0  0  0  0
   -1.9500    1.7174    0.0000 C   0  0  0  0  0  0  0  0  0  0  0  0
    1.5599   -2.5574    0.0000 C   0  0  0  0  0  0  0  0  0  0  0  0
   -1.4399    3.2775    0.0000 C   0  0  0  0  0  0  0  0  0  0  0  0
   -2.4899    2.3175    0.0000 C   0  0  0  0  0  0  0  0  0  0  0  0
   -2.2350    3.1124    0.0000 C   0  0  0  0  0  0  0  0  0  0  0  0
  1 22  1  0  0  0  0
 30  2  1  1  0  0  0
  3 31  1  0  0  0  0
  4 18  2  0  0  0  0
 27  5  1  6  0  0  0
  6 29  2  0  0  0  0
  7 13  1  0  0  0  0
  7 16  1  0  0  0  0
  7 21  1  0  0  0  0
 12  8  1  1  0  0  0
  8 18  1  0  0  0  0
  8 19  1  0  0  0  0
  9 13  2  0  0  0  0
  9 15  1  0  0  0  0
 10 33  1  0  0  0  0
 10 35  1  0  0  0  0
 11 29  1  0  0  0  0
 12 13  1  0  0  0  0
 12 14  1  0  0  0  0
 14 20  1  0  0  0  0
 14 24  1  0  0  0  0
 14 25  1  0  0  0  0
 15 16  2  0  0  0  0
 15 17  1  0  0  0  0
 17 22  2  0  0  0  0
 17 26  1  0  0  0  0
 18 27  1  0  0  0  0
 23 19  1  1  0  0  0
 20 29  1  0  0  0  0
 21 28  1  0  0  0  0
 22 32  1  0  0  0  0
 23 30  1  0  0  0  0
 23 33  1  0  0  0  0
 26 31  2  0  0  0  0
 27 38  1  0  0  0  0
 28 36  2  0  0  0  0
 28 37  1  0  0  0  0
 30 35  1  0  0  0  0
 31 34  1  0  0  0  0
 32 34  2  0  0  0  0
 36 39  1  0  0  0  0
 37 40  2  0  0  0  0
 39 41  2  0  0  0  0
 40 41  1  0  0  0  0
M  END
> <PUBCHEM_COMPOUND_ID_TYPE>
0

> <PUBCHEM_TOTAL_CHARGE>
0

> <PUBCHEM_SUBSTANCE_ID>
310942486

> <PUBCHEM_SUBSTANCE_VERSION>
1

> <PUBCHEM_EXT_DATASOURCE_NAME>
4488

> <PUBCHEM_EXT_DATASOURCE_REGID>
SCHEMBL16120522

> <PUBCHEM_SUBSTANCE_COMMENT>
InChI=1S/C30H36F3N5O3/c1-18(39)29(41)38(16-20-13-35-14-24(20)33)27(30(2,3)12-26(34)40)28-36-25(22-11-21(31)9-10-23(22)32)17-37(28)15-19-7-5-4-6-8-19/h4-11,17-18,20,24,27,35,39H,12-16H2,1-3H3,(H2,34,40)/t18-,20-,24-,27-/m0/s1
InChIKey=YNXYPSXDKBWRRZ-BAFBGPDZSA-N

> <PUBCHEM_SUBSTANCE_SYNONYM>
SCHEMBL16120522

> <PUBCHEM_XREF_EXT_ID>
SCHEMBL16120522

> <PUBCHEM_EXT_DATASOURCE_URL>
https://www.surechembl.org/

> <PUBCHEM_EXT_SUBSTANCE_URL>
https://www.surechembl.org/chemical/SCHEMBL16120522

> <PUBCHEM_CID_ASSOCIATIONS>
117609057  1

> <PUBCHEM_COORDINATE_TYPE>
1
3

> <PUBCHEM_BONDANNOTATIONS>
23  19  5
30  2  5
27  5  6
12  8  5

$$$$
