310941836
  -OEChem-07211613022D

 17 17  0     0  0  0  0  0  0999 V2000
    2.1050    0.7322    0.0000 O   0  0  0  0  0  0  0  0  0  0  0  0
    2.1050    2.1050    0.0000 O   0  0  0  0  0  0  0  0  0  0  0  0
    0.8237   -1.4644    0.0000 N   0  0  0  0  0  0  0  0  0  0  0  0
   -0.4119    0.7322    0.0000 C   0  0  0  0  0  0  0  0  0  0  0  0
    0.8695    0.0000    0.0000 C   0  0  0  0  0  0  0  0  0  0  0  0
    1.2356    0.7779    0.0000 C   0  0  0  0  0  0  0  0  0  0  0  0
    0.8237    1.4644    0.0000 C   0  0  0  0  0  0  0  0  0  0  0  0
   -1.3271    0.7779    0.0000 C   0  0  0  0  0  0  0  0  0  0  0  0
    0.0000    0.0458    0.0000 C   0  0  0  0  0  0  0  0  0  0  0  0
    0.0000    1.4186    0.0000 C   0  0  0  0  0  0  0  0  0  0  0  0
    1.2813   -0.7322    0.0000 C   0  0  0  0  0  0  0  0  0  0  0  0
    1.2813    2.1966    0.0000 C   0  0  0  0  0  0  0  0  0  0  0  0
   -1.6475    0.0000    0.0000 C   0  0  0  0  0  0  0  0  0  0  0  0
   -2.1050    0.7322    0.0000 C   0  0  0  0  0  0  0  0  0  0  0  0
   -1.6475    1.4186    0.0000 C   0  0  0  0  0  0  0  0  0  0  0  0
    0.0000   -1.4644    0.0000 C   0  0  0  0  0  0  0  0  0  0  0  0
   -0.3661   -2.1966    0.0000 C   0  0  0  0  0  0  0  0  0  0  0  0
  1  6  1  0  0  0  0
  2 12  2  0  0  0  0
  3 11  1  0  0  0  0
  3 16  1  0  0  0  0
  4  8  1  0  0  0  0
  4  9  2  0  0  0  0
  4 10  1  0  0  0  0
  5  6  2  0  0  0  0
  5  9  1  0  0  0  0
  5 11  1  0  0  0  0
  6  7  1  0  0  0  0
  7 10  2  0  0  0  0
  7 12  1  0  0  0  0
  8 13  1  0  0  0  0
  8 14  1  0  0  0  0
  8 15  1  0  0  0  0
 16 17  1  0  0  0  0
M  END
> <PUBCHEM_COMPOUND_ID_TYPE>
0

> <PUBCHEM_TOTAL_CHARGE>
0

> <PUBCHEM_SUBSTANCE_ID>
310941836

> <PUBCHEM_SUBSTANCE_VERSION>
1

> <PUBCHEM_EXT_DATASOURCE_NAME>
4488

> <PUBCHEM_EXT_DATASOURCE_REGID>
SCHEMBL16119868

> <PUBCHEM_SUBSTANCE_COMMENT>
InChI=1S/C14H21NO2/c1-5-15-8-10-6-12(14(2,3)4)7-11(9-16)13(10)17/h6-7,9,15,17H,5,8H2,1-4H3
InChIKey=SIROVEHSPOHXAS-UHFFFAOYSA-N

> <PUBCHEM_SUBSTANCE_SYNONYM>
SCHEMBL16119868

> <PUBCHEM_XREF_EXT_ID>
SCHEMBL16119868

> <PUBCHEM_EXT_DATASOURCE_URL>
https://www.surechembl.org/

> <PUBCHEM_EXT_SUBSTANCE_URL>
https://www.surechembl.org/chemical/SCHEMBL16119868

> <PUBCHEM_CID_ASSOCIATIONS>
117608578  1

> <PUBCHEM_COORDINATE_TYPE>
1
3

$$$$
