310940560
  -OEChem-07211613022D

 16 17  0     1  0  0  0  0  0999 V2000
    1.5129   -2.0085    0.0000 O   0  0  0  0  0  0  0  0  0  0  0  0
    1.5812   -0.5385    0.0000 O   0  0  0  0  0  0  0  0  0  0  0  0
    0.3504   -1.3247    0.0000 N   0  0  0  0  0  0  0  0  0  0  0  0
   -1.5812    2.5727    0.0000 N   0  0  0  0  0  0  0  0  0  0  0  0
   -0.2479   -0.7607    0.0000 C   0  0  3  0  0  0  0  0  0  0  0  0
   -0.0427    0.0598    0.0000 C   0  0  0  0  0  0  0  0  0  0  0  0
    1.1367   -1.2734    0.0000 C   0  0  0  0  0  0  0  0  0  0  0  0
    0.1453   -2.1623    0.0000 C   0  0  0  0  0  0  0  0  0  0  0  0
   -0.6069    0.6069    0.0000 C   0  0  0  0  0  0  0  0  0  0  0  0
    0.8803   -2.5727    0.0000 C   0  0  0  0  0  0  0  0  0  0  0  0
    0.7778    0.2649    0.0000 C   0  0  0  0  0  0  0  0  0  0  0  0
   -0.4016    1.4103    0.0000 C   0  0  0  0  0  0  0  0  0  0  0  0
   -0.9487   -0.9487    0.0000 C   0  0  0  0  0  0  0  0  0  0  0  0
    0.9829    1.0513    0.0000 C   0  0  0  0  0  0  0  0  0  0  0  0
    0.4016    1.5983    0.0000 C   0  0  0  0  0  0  0  0  0  0  0  0
   -1.0000    1.9573    0.0000 C   0  0  0  0  0  0  0  0  0  0  0  0
  1  7  1  0  0  0  0
  1 10  1  0  0  0  0
  2  7  2  0  0  0  0
  3  5  1  0  0  0  0
  3  7  1  0  0  0  0
  3  8  1  0  0  0  0
  4 16  3  0  0  0  0
  5  6  1  0  0  0  0
  5 13  1  6  0  0  0
  6  9  2  0  0  0  0
  6 11  1  0  0  0  0
  8 10  2  0  0  0  0
  9 12  1  0  0  0  0
 11 14  2  0  0  0  0
 12 15  2  0  0  0  0
 12 16  1  0  0  0  0
 14 15  1  0  0  0  0
M  END
> <PUBCHEM_COMPOUND_ID_TYPE>
0

> <PUBCHEM_TOTAL_CHARGE>
0

> <PUBCHEM_SUBSTANCE_ID>
310940560

> <PUBCHEM_SUBSTANCE_VERSION>
1

> <PUBCHEM_EXT_DATASOURCE_NAME>
4488

> <PUBCHEM_EXT_DATASOURCE_REGID>
SCHEMBL16118514

> <PUBCHEM_SUBSTANCE_COMMENT>
InChI=1S/C12H10N2O2/c1-9(14-5-6-16-12(14)15)11-4-2-3-10(7-11)8-13/h2-7,9H,1H3/t9-/m1/s1
InChIKey=ZPPFRMPWMFJEGF-SECBINFHSA-N

> <PUBCHEM_SUBSTANCE_SYNONYM>
SCHEMBL16118514

> <PUBCHEM_XREF_EXT_ID>
SCHEMBL16118514

> <PUBCHEM_EXT_DATASOURCE_URL>
https://www.surechembl.org/

> <PUBCHEM_EXT_SUBSTANCE_URL>
https://www.surechembl.org/chemical/SCHEMBL16118514

> <PUBCHEM_CID_ASSOCIATIONS>
117607558  1

> <PUBCHEM_COORDINATE_TYPE>
1
3

> <PUBCHEM_BONDANNOTATIONS>
5  13  6

$$$$
