310936485
  -OEChem-07211613022D

 20 21  0     0  0  0  0  0  0999 V2000
    5.9602   -2.1595    0.0000 Br  0  0  0  0  0  0  0  0  0  0  0  0
    5.1540   -0.7198    0.0000 O   0  0  0  0  0  0  0  0  0  0  0  0
    0.8350   -5.2692    0.0000 O   0  0  0  0  0  0  0  0  0  0  0  0
    0.0000   -4.1174    0.0000 O   0  0  0  0  0  0  0  0  0  0  0  0
    2.6778   -3.5703    0.0000 N   0  0  0  0  0  0  0  0  0  0  0  0
    2.1883   -4.2614    0.0000 N   0  0  0  0  0  0  0  0  0  0  0  0
    1.4109   -3.1673    0.0000 N   0  0  0  0  0  0  0  0  0  0  0  0
    3.9159   -1.4397    0.0000 N   0  0  0  0  0  0  0  0  0  0  0  0
    1.4109   -4.0022    0.0000 C   0  0  0  0  0  0  0  0  0  0  0  0
    3.9159   -2.8505    0.0000 C   0  0  0  0  0  0  0  0  0  0  0  0
    3.4840   -3.5703    0.0000 C   0  0  0  0  0  0  0  0  0  0  0  0
    5.1252   -2.1595    0.0000 C   0  0  0  0  0  0  0  0  0  0  0  0
    4.7509   -1.4109    0.0000 C   0  0  0  0  0  0  0  0  0  0  0  0
    2.1883   -2.9081    0.0000 C   0  0  0  0  0  0  0  0  0  0  0  0
    4.7221   -2.8505    0.0000 C   0  0  0  0  0  0  0  0  0  0  0  0
    0.7486   -4.4629    0.0000 C   0  0  0  0  0  0  0  0  0  0  0  0
    3.5127   -2.1307    0.0000 C   0  0  0  0  0  0  0  0  0  0  0  0
    4.7509    0.0000    0.0000 C   0  0  0  0  0  0  0  0  0  0  0  0
    0.1439   -5.7587    0.0000 C   0  0  0  0  0  0  0  0  0  0  0  0
    3.9159    0.0000    0.0000 C   0  0  0  0  0  0  0  0  0  0  0  0
  1 12  1  0  0  0  0
  2 13  1  0  0  0  0
  2 18  1  0  0  0  0
  3 16  1  0  0  0  0
  3 19  1  0  0  0  0
  4 16  2  0  0  0  0
  5  6  1  0  0  0  0
  5 11  1  0  0  0  0
  5 14  1  0  0  0  0
  6  9  2  0  0  0  0
  7  9  1  0  0  0  0
  7 14  2  0  0  0  0
  8 13  2  0  0  0  0
  8 17  1  0  0  0  0
  9 16  1  0  0  0  0
 10 11  1  0  0  0  0
 10 15  1  0  0  0  0
 10 17  2  0  0  0  0
 12 13  1  0  0  0  0
 12 15  2  0  0  0  0
 18 20  1  0  0  0  0
M  END
> <PUBCHEM_COMPOUND_ID_TYPE>
0

> <PUBCHEM_TOTAL_CHARGE>
0

> <PUBCHEM_SUBSTANCE_ID>
310936485

> <PUBCHEM_SUBSTANCE_VERSION>
1

> <PUBCHEM_EXT_DATASOURCE_NAME>
4488

> <PUBCHEM_EXT_DATASOURCE_REGID>
SCHEMBL16114134

> <PUBCHEM_SUBSTANCE_COMMENT>
InChI=1S/C12H13BrN4O3/c1-3-20-11-9(13)4-8(5-14-11)6-17-7-15-10(16-17)12(18)19-2/h4-5,7H,3,6H2,1-2H3
InChIKey=FOXQHHGKYSPEDT-UHFFFAOYSA-N

> <PUBCHEM_SUBSTANCE_SYNONYM>
SCHEMBL16114134

> <PUBCHEM_XREF_EXT_ID>
SCHEMBL16114134

> <PUBCHEM_EXT_DATASOURCE_URL>
https://www.surechembl.org/

> <PUBCHEM_EXT_SUBSTANCE_URL>
https://www.surechembl.org/chemical/SCHEMBL16114134

> <PUBCHEM_CID_ASSOCIATIONS>
117604413  1

> <PUBCHEM_COORDINATE_TYPE>
1
3

$$$$
