310949911
  -OEChem-07211613022D

 30 34  0     1  0  0  0  0  0999 V2000
    1.2271    2.4747    0.0000 Cl  0  0  0  0  0  0  0  0  0  0  0  0
    2.5433    2.6666    0.0000 F   0  0  0  0  0  0  0  0  0  0  0  0
    3.6675    2.7215    0.0000 F   0  0  0  0  0  0  0  0  0  0  0  0
    3.6949    1.5835    0.0000 F   0  0  0  0  0  0  0  0  0  0  0  0
   -0.1988    0.7061    0.0000 N   0  0  0  0  0  0  0  0  0  0  0  0
   -1.6109   -0.1165    0.0000 N   0  0  0  0  0  0  0  0  0  0  0  0
   -0.7335    1.9263    0.0000 N   0  0  0  0  0  0  0  0  0  0  0  0
    0.0754    2.0086    0.0000 N   0  0  0  0  0  0  0  0  0  0  0  0
   -2.3924    0.9666    0.0000 N   0  0  0  0  0  0  0  0  0  0  0  0
   -2.8723    0.2948    0.0000 N   0  0  0  0  0  0  0  0  0  0  0  0
   -3.4481   -1.3230    0.0000 N   0  0  0  0  0  0  0  0  0  0  0  0
   -2.1045   -1.7618    0.0000 N   0  0  0  0  0  0  0  0  0  0  0  0
   -0.9117    1.1174    0.0000 C   0  0  0  0  0  0  0  0  0  0  0  0
   -1.6109    0.7061    0.0000 C   0  0  0  0  0  0  0  0  0  0  0  0
    0.4045    1.2682    0.0000 C   0  0  0  0  0  0  0  0  0  0  0  0
   -0.1988   -0.1165    0.0000 C   0  0  3  0  0  0  0  0  0  0  0  0
   -2.3787   -0.3633    0.0000 C   0  0  0  0  0  0  0  0  0  0  0  0
    1.2134    1.0900    0.0000 C   0  0  0  0  0  0  0  0  0  0  0  0
   -0.8843   -0.5278    0.0000 C   0  0  0  0  0  0  0  0  0  0  0  0
    1.7618    1.7070    0.0000 C   0  0  0  0  0  0  0  0  0  0  0  0
   -2.6529   -1.1585    0.0000 C   0  0  0  0  0  0  0  0  0  0  0  0
    2.5570    1.5150    0.0000 C   0  0  0  0  0  0  0  0  0  0  0  0
    1.4876    0.3085    0.0000 C   0  0  0  0  0  0  0  0  0  0  0  0
    3.1191    2.1319    0.0000 C   0  0  0  0  0  0  0  0  0  0  0  0
    0.5141   -0.5415    0.0000 C   0  0  0  0  0  0  0  0  0  0  0  0
    2.8175    0.7472    0.0000 C   0  0  0  0  0  0  0  0  0  0  0  0
    2.2691    0.1302    0.0000 C   0  0  0  0  0  0  0  0  0  0  0  0
   -3.6949   -2.1319    0.0000 C   0  0  0  0  0  0  0  0  0  0  0  0
   -2.3513   -2.5570    0.0000 C   0  0  0  0  0  0  0  0  0  0  0  0
   -3.1602   -2.7215    0.0000 C   0  0  0  0  0  0  0  0  0  0  0  0
  1 20  1  0  0  0  0
  2 24  1  0  0  0  0
  3 24  1  0  0  0  0
  4 24  1  0  0  0  0
  5 13  1  0  0  0  0
  5 15  1  0  0  0  0
  5 16  1  0  0  0  0
  6 14  1  0  0  0  0
  6 17  1  0  0  0  0
  6 19  1  0  0  0  0
  7  8  1  0  0  0  0
  7 13  2  0  0  0  0
  8 15  2  0  0  0  0
  9 10  1  0  0  0  0
  9 14  2  0  0  0  0
 10 17  2  0  0  0  0
 11 21  2  0  0  0  0
 11 28  1  0  0  0  0
 12 21  1  0  0  0  0
 12 29  2  0  0  0  0
 13 14  1  0  0  0  0
 15 18  1  0  0  0  0
 16 19  1  0  0  0  0
 16 25  1  1  0  0  0
 17 21  1  0  0  0  0
 18 20  1  0  0  0  0
 18 23  2  0  0  0  0
 20 22  2  0  0  0  0
 22 24  1  0  0  0  0
 22 26  1  0  0  0  0
 23 27  1  0  0  0  0
 26 27  2  0  0  0  0
 28 30  2  0  0  0  0
 29 30  1  0  0  0  0
M  END
> <PUBCHEM_COMPOUND_ID_TYPE>
0

> <PUBCHEM_TOTAL_CHARGE>
0

> <PUBCHEM_SUBSTANCE_ID>
310949911

> <PUBCHEM_SUBSTANCE_VERSION>
1

> <PUBCHEM_EXT_DATASOURCE_NAME>
4488

> <PUBCHEM_EXT_DATASOURCE_REGID>
SCHEMBL16128132

> <PUBCHEM_SUBSTANCE_COMMENT>
InChI=1S/C18H12ClF3N8/c1-9-8-29-15(13-23-6-3-7-24-13)26-27-16(29)17-28-25-14(30(9)17)10-4-2-5-11(12(10)19)18(20,21)22/h2-7,9H,8H2,1H3/t9-/m0/s1
InChIKey=ASQFMFPWWORJLB-VIFPVBQESA-N

> <PUBCHEM_SUBSTANCE_SYNONYM>
SCHEMBL16128132

> <PUBCHEM_XREF_EXT_ID>
SCHEMBL16128132

> <PUBCHEM_EXT_DATASOURCE_URL>
https://www.surechembl.org/

> <PUBCHEM_EXT_SUBSTANCE_URL>
https://www.surechembl.org/chemical/SCHEMBL16128132

> <PUBCHEM_CID_ASSOCIATIONS>
117615192  1

> <PUBCHEM_COORDINATE_TYPE>
1
3

> <PUBCHEM_BONDANNOTATIONS>
16  25  5

$$$$
