310935624
  -OEChem-07211613022D

 34 37  0     0  0  0  0  0  0999 V2000
    3.4979    0.0000    0.0000 F   0  0  0  0  0  0  0  0  0  0  0  0
    0.8308   -8.7447    0.0000 F   0  0  0  0  0  0  0  0  0  0  0  0
    3.3230   -5.7715    0.0000 O   0  0  0  0  0  0  0  0  0  0  0  0
    1.0931   -4.1537    0.0000 O   0  0  0  0  0  0  0  0  0  0  0  0
    4.9408    0.0000    0.0000 O   0  0  0  0  0  0  0  0  0  0  0  0
    5.6403   -1.2680    0.0000 O   0  0  0  0  0  0  0  0  0  0  0  0
    0.7870   -5.5529    0.0000 N   0  0  0  0  0  0  0  0  0  0  0  0
    2.7546   -4.5472    0.0000 C   0  0  0  0  0  0  0  0  0  0  0  0
    2.1862   -5.1156    0.0000 C   0  0  0  0  0  0  0  0  0  0  0  0
    3.4979   -4.9845    0.0000 C   0  0  0  0  0  0  0  0  0  0  0  0
    2.4923   -5.9027    0.0000 C   0  0  0  0  0  0  0  0  0  0  0  0
    3.4979   -3.3230    0.0000 C   0  0  0  0  0  0  0  0  0  0  0  0
    2.7983   -3.7165    0.0000 C   0  0  0  0  0  0  0  0  0  0  0  0
    4.2412   -3.7602    0.0000 C   0  0  0  0  0  0  0  0  0  0  0  0
    3.4979   -2.4923    0.0000 C   0  0  0  0  0  0  0  0  0  0  0  0
    4.2412   -4.5472    0.0000 C   0  0  0  0  0  0  0  0  0  0  0  0
    2.0550   -6.6022    0.0000 C   0  0  0  0  0  0  0  0  0  0  0  0
    1.3554   -4.9408    0.0000 C   0  0  0  0  0  0  0  0  0  0  0  0
    2.7546   -2.0550    0.0000 C   0  0  0  0  0  0  0  0  0  0  0  0
    4.1975   -2.0550    0.0000 C   0  0  0  0  0  0  0  0  0  0  0  0
    4.1975   -1.2680    0.0000 C   0  0  0  0  0  0  0  0  0  0  0  0
    4.9408   -3.3230    0.0000 C   0  0  0  0  0  0  0  0  0  0  0  0
    3.4979   -0.8308    0.0000 C   0  0  0  0  0  0  0  0  0  0  0  0
    2.4923   -7.3018    0.0000 C   0  0  0  0  0  0  0  0  0  0  0  0
    1.2680   -6.6022    0.0000 C   0  0  0  0  0  0  0  0  0  0  0  0
    2.7546   -1.2680    0.0000 C   0  0  0  0  0  0  0  0  0  0  0  0
    4.9408   -0.8308    0.0000 C   0  0  0  0  0  0  0  0  0  0  0  0
    2.0550   -8.0451    0.0000 C   0  0  0  0  0  0  0  0  0  0  0  0
    0.8308   -7.3018    0.0000 C   0  0  0  0  0  0  0  0  0  0  0  0
    2.0550   -2.4923    0.0000 C   0  0  0  0  0  0  0  0  0  0  0  0
    1.2680   -8.0451    0.0000 C   0  0  0  0  0  0  0  0  0  0  0  0
    4.9408   -2.5360    0.0000 C   0  0  0  0  0  0  0  0  0  0  0  0
    0.0000   -5.3780    0.0000 C   0  0  0  0  0  0  0  0  0  0  0  0
    4.4161   -2.2736    0.0000 C   0  0  0  0  0  0  0  0  0  0  0  0
  1 23  1  0  0  0  0
  2 31  1  0  0  0  0
  3 10  1  0  0  0  0
  3 11  1  0  0  0  0
  4 18  2  0  0  0  0
  5 27  2  0  0  0  0
  6 27  1  0  0  0  0
  7 18  1  0  0  0  0
  7 33  1  0  0  0  0
  8  9  1  0  0  0  0
  8 10  2  0  0  0  0
  8 13  1  0  0  0  0
  9 11  2  0  0  0  0
  9 18  1  0  0  0  0
 10 16  1  0  0  0  0
 11 17  1  0  0  0  0
 12 13  2  0  0  0  0
 12 14  1  0  0  0  0
 12 15  1  0  0  0  0
 14 16  2  0  0  0  0
 14 22  1  0  0  0  0
 15 19  1  0  0  0  0
 15 20  2  0  0  0  0
 17 24  2  0  0  0  0
 17 25  1  0  0  0  0
 19 26  2  0  0  0  0
 19 30  1  0  0  0  0
 20 21  1  0  0  0  0
 21 23  2  0  0  0  0
 21 27  1  0  0  0  0
 22 32  1  0  0  0  0
 23 26  1  0  0  0  0
 24 28  1  0  0  0  0
 25 29  2  0  0  0  0
 28 31  2  0  0  0  0
 29 31  1  0  0  0  0
 32 34  1  0  0  0  0
M  END
> <PUBCHEM_COMPOUND_ID_TYPE>
0

> <PUBCHEM_TOTAL_CHARGE>
0

> <PUBCHEM_SUBSTANCE_ID>
310935624

> <PUBCHEM_SUBSTANCE_VERSION>
1

> <PUBCHEM_EXT_DATASOURCE_NAME>
4488

> <PUBCHEM_EXT_DATASOURCE_REGID>
SCHEMBL16113202

> <PUBCHEM_SUBSTANCE_COMMENT>
InChI=1S/C27H23F2NO4/c1-4-5-16-11-23-21(13-19(16)18-12-20(27(32)33)22(29)10-14(18)2)24(26(31)30-3)25(34-23)15-6-8-17(28)9-7-15/h6-13H,4-5H2,1-3H3,(H,30,31)(H,32,33)
InChIKey=QSPVSMSSGILINB-UHFFFAOYSA-N

> <PUBCHEM_SUBSTANCE_SYNONYM>
SCHEMBL16113202

> <PUBCHEM_XREF_EXT_ID>
SCHEMBL16113202

> <PUBCHEM_EXT_DATASOURCE_URL>
https://www.surechembl.org/

> <PUBCHEM_EXT_SUBSTANCE_URL>
https://www.surechembl.org/chemical/SCHEMBL16113202

> <PUBCHEM_CID_ASSOCIATIONS>
117603641  1

> <PUBCHEM_COORDINATE_TYPE>
1
3

$$$$
