310940497
  -OEChem-07211613022D

 24 26  0     0  0  0  0  0  0999 V2000
   -0.2635    0.9728    0.0000 F   0  0  0  0  0  0  0  0  0  0  0  0
   -1.3377    1.2768    0.0000 F   0  0  0  0  0  0  0  0  0  0  0  0
   -1.0336    2.3510    0.0000 F   0  0  0  0  0  0  0  0  0  0  0  0
    1.3782   -2.1078    0.0000 O   0  0  0  0  0  0  0  0  0  0  0  0
    0.7094   -0.8309    0.0000 N   0  0  0  0  0  0  0  0  0  0  0  0
   -0.0202   -2.9184    0.0000 N   0  0  0  0  0  0  0  0  0  0  0  0
   -1.4187   -2.0673    0.0000 N   0  0  0  0  0  0  0  0  0  0  0  0
    0.7094    1.6822    0.0000 C   0  0  0  0  0  0  0  0  0  0  0  0
    0.0202    2.0875    0.0000 C   0  0  0  0  0  0  0  0  0  0  0  0
    0.7094    0.8309    0.0000 C   0  0  0  0  0  0  0  0  0  0  0  0
   -0.6688    1.6822    0.0000 C   0  0  0  0  0  0  0  0  0  0  0  0
    0.6485   -1.6619    0.0000 C   0  0  0  0  0  0  0  0  0  0  0  0
    1.4187    0.3851    0.0000 C   0  0  0  0  0  0  0  0  0  0  0  0
    0.0406    0.4256    0.0000 C   0  0  0  0  0  0  0  0  0  0  0  0
    1.4390    2.0673    0.0000 C   0  0  0  0  0  0  0  0  0  0  0  0
    0.0811    2.9184    0.0000 C   0  0  0  0  0  0  0  0  0  0  0  0
    1.3984   -0.4459    0.0000 C   0  0  0  0  0  0  0  0  0  0  0  0
    0.0202   -0.4053    0.0000 C   0  0  0  0  0  0  0  0  0  0  0  0
    0.0000   -2.0875    0.0000 C   0  0  0  0  0  0  0  0  0  0  0  0
    1.4390    2.8982    0.0000 C   0  0  0  0  0  0  0  0  0  0  0  0
    0.7499    3.3238    0.0000 C   0  0  0  0  0  0  0  0  0  0  0  0
   -0.7094   -1.6619    0.0000 C   0  0  0  0  0  0  0  0  0  0  0  0
   -0.7094   -3.3238    0.0000 C   0  0  0  0  0  0  0  0  0  0  0  0
   -1.4390   -2.8779    0.0000 C   0  0  0  0  0  0  0  0  0  0  0  0
  1 11  1  0  0  0  0
  2 11  1  0  0  0  0
  3 11  1  0  0  0  0
  4 12  2  0  0  0  0
  5 12  1  0  0  0  0
  5 17  1  0  0  0  0
  5 18  1  0  0  0  0
  6 19  1  0  0  0  0
  6 23  2  0  0  0  0
  7 22  1  0  0  0  0
  7 24  2  0  0  0  0
  8  9  2  0  0  0  0
  8 10  1  0  0  0  0
  8 15  1  0  0  0  0
  9 11  1  0  0  0  0
  9 16  1  0  0  0  0
 10 13  1  0  0  0  0
 10 14  1  0  0  0  0
 12 19  1  0  0  0  0
 13 17  1  0  0  0  0
 14 18  1  0  0  0  0
 15 20  2  0  0  0  0
 16 21  2  0  0  0  0
 19 22  2  0  0  0  0
 20 21  1  0  0  0  0
 23 24  1  0  0  0  0
M  END
> <PUBCHEM_COMPOUND_ID_TYPE>
0

> <PUBCHEM_TOTAL_CHARGE>
0

> <PUBCHEM_SUBSTANCE_ID>
310940497

> <PUBCHEM_SUBSTANCE_VERSION>
1

> <PUBCHEM_EXT_DATASOURCE_NAME>
4488

> <PUBCHEM_EXT_DATASOURCE_REGID>
SCHEMBL16118451

> <PUBCHEM_SUBSTANCE_COMMENT>
InChI=1S/C17H16F3N3O/c18-17(19,20)14-4-2-1-3-13(14)12-5-9-23(10-6-12)16(24)15-11-21-7-8-22-15/h1-4,7-8,11-12H,5-6,9-10H2
InChIKey=YVYRRCBAOXONTP-UHFFFAOYSA-N

> <PUBCHEM_SUBSTANCE_SYNONYM>
SCHEMBL16118451

> <PUBCHEM_XREF_EXT_ID>
SCHEMBL16118451

> <PUBCHEM_EXT_DATASOURCE_URL>
https://www.surechembl.org/

> <PUBCHEM_EXT_SUBSTANCE_URL>
https://www.surechembl.org/chemical/SCHEMBL16118451

> <PUBCHEM_CID_ASSOCIATIONS>
117607512  1

> <PUBCHEM_COORDINATE_TYPE>
1
3

$$$$
