310943744
  -OEChem-07211613022D

 36 39  0     0  0  0  0  0  0999 V2000
    4.6102   -1.6504    0.0000 F   0  0  0  0  0  0  0  0  0  0  0  0
    3.6804   -2.0377    0.0000 F   0  0  0  0  0  0  0  0  0  0  0  0
   -3.2000   -0.4107    0.0000 O   0  0  0  0  0  0  0  0  0  0  0  0
    2.4871    2.0688    0.0000 O   0  0  0  0  0  0  0  0  0  0  0  0
   -4.6256    2.0688    0.0000 O   0  0  0  0  0  0  0  0  0  0  0  0
   -3.9128   -2.4871    0.0000 O   0  0  0  0  0  0  0  0  0  0  0  0
   -3.2000    1.2319    0.0000 N   0  0  0  0  0  0  0  0  0  0  0  0
   -1.7743   -0.4261    0.0000 N   0  0  0  0  0  0  0  0  0  0  0  0
    0.3487    2.4871    0.0000 N   0  0  0  0  0  0  0  0  0  0  0  0
    1.7743    0.8290    0.0000 N   0  0  0  0  0  0  0  0  0  0  0  0
    3.8974    1.2319    0.0000 N   0  0  0  0  0  0  0  0  0  0  0  0
   -1.0615    0.8445    0.0000 C   0  0  0  0  0  0  0  0  0  0  0  0
   -0.3642    1.2475    0.0000 C   0  0  0  0  0  0  0  0  0  0  0  0
   -2.4871    0.8445    0.0000 C   0  0  0  0  0  0  0  0  0  0  0  0
   -2.5027    0.0078    0.0000 C   0  0  0  0  0  0  0  0  0  0  0  0
   -1.7898    1.2475    0.0000 C   0  0  0  0  0  0  0  0  0  0  0  0
   -0.3487    2.0842    0.0000 C   0  0  0  0  0  0  0  0  0  0  0  0
    0.3796    0.8445    0.0000 C   0  0  0  0  0  0  0  0  0  0  0  0
    1.0615    1.2475    0.0000 C   0  0  0  0  0  0  0  0  0  0  0  0
   -1.0770   -0.0078    0.0000 C   0  0  0  0  0  0  0  0  0  0  0  0
    3.2000    0.8290    0.0000 C   0  0  0  0  0  0  0  0  0  0  0  0
    2.4717    1.2319    0.0000 C   0  0  0  0  0  0  0  0  0  0  0  0
    3.9128   -0.4107    0.0000 C   0  0  0  0  0  0  0  0  0  0  0  0
    1.0770    2.0688    0.0000 C   0  0  0  0  0  0  0  0  0  0  0  0
    3.8974   -1.2475    0.0000 C   0  0  0  0  0  0  0  0  0  0  0  0
    3.2000    0.0078    0.0000 C   0  0  0  0  0  0  0  0  0  0  0  0
   -3.1845    2.0688    0.0000 C   0  0  0  0  0  0  0  0  0  0  0  0
   -3.8818    0.8445    0.0000 C   0  0  0  0  0  0  0  0  0  0  0  0
    4.6102    0.0078    0.0000 C   0  0  0  0  0  0  0  0  0  0  0  0
   -1.0770    2.4717    0.0000 C   0  0  0  0  0  0  0  0  0  0  0  0
    4.6256    0.8290    0.0000 C   0  0  0  0  0  0  0  0  0  0  0  0
   -3.9128    2.4871    0.0000 C   0  0  0  0  0  0  0  0  0  0  0  0
   -4.6102    1.2475    0.0000 C   0  0  0  0  0  0  0  0  0  0  0  0
   -3.2000   -1.2319    0.0000 C   0  0  0  0  0  0  0  0  0  0  0  0
    3.1845   -1.6348    0.0000 C   0  0  0  0  0  0  0  0  0  0  0  0
   -3.8974   -1.6504    0.0000 C   0  0  0  0  0  0  0  0  0  0  0  0
  1 25  1  0  0  0  0
  2 25  1  0  0  0  0
  3 15  1  0  0  0  0
  3 34  1  0  0  0  0
  4 22  2  0  0  0  0
  5 32  1  0  0  0  0
  5 33  1  0  0  0  0
  6 36  1  0  0  0  0
  7 14  1  0  0  0  0
  7 27  1  0  0  0  0
  7 28  1  0  0  0  0
  8 15  1  0  0  0  0
  8 20  2  0  0  0  0
  9 17  2  0  0  0  0
  9 24  1  0  0  0  0
 10 19  1  0  0  0  0
 10 22  1  0  0  0  0
 11 21  1  0  0  0  0
 11 31  2  0  0  0  0
 12 13  1  0  0  0  0
 12 16  2  0  0  0  0
 12 20  1  0  0  0  0
 13 17  1  0  0  0  0
 13 18  2  0  0  0  0
 14 15  2  0  0  0  0
 14 16  1  0  0  0  0
 17 30  1  0  0  0  0
 18 19  1  0  0  0  0
 19 24  2  0  0  0  0
 21 22  1  0  0  0  0
 21 26  2  0  0  0  0
 23 25  1  0  0  0  0
 23 26  1  0  0  0  0
 23 29  2  0  0  0  0
 25 35  1  0  0  0  0
 27 32  1  0  0  0  0
 28 33  1  0  0  0  0
 29 31  1  0  0  0  0
 34 36  1  0  0  0  0
M  END
> <PUBCHEM_COMPOUND_ID_TYPE>
0

> <PUBCHEM_TOTAL_CHARGE>
0

> <PUBCHEM_SUBSTANCE_ID>
310943744

> <PUBCHEM_SUBSTANCE_VERSION>
1

> <PUBCHEM_EXT_DATASOURCE_NAME>
4488

> <PUBCHEM_EXT_DATASOURCE_REGID>
SCHEMBL16121812

> <PUBCHEM_SUBSTANCE_COMMENT>
InChI=1S/C25H27F2N5O4/c1-16-20(17-11-22(32-5-8-35-9-6-32)24(30-14-17)36-10-7-33)13-19(15-29-16)31-23(34)21-12-18(3-4-28-21)25(2,26)27/h3-4,11-15,33H,5-10H2,1-2H3,(H,31,34)
InChIKey=GDJZFWUNGJTSEK-UHFFFAOYSA-N

> <PUBCHEM_SUBSTANCE_SYNONYM>
SCHEMBL16121812

> <PUBCHEM_XREF_EXT_ID>
SCHEMBL16121812

> <PUBCHEM_EXT_DATASOURCE_URL>
https://www.surechembl.org/

> <PUBCHEM_EXT_SUBSTANCE_URL>
https://www.surechembl.org/chemical/SCHEMBL16121812

> <PUBCHEM_CID_ASSOCIATIONS>
117610107  1

> <PUBCHEM_COORDINATE_TYPE>
1
3

$$$$
