310944938
  -OEChem-07211613022D

 38 43  0     0  0  0  0  0  0999 V2000
    1.6376   -4.3441    0.0000 O   0  0  0  0  0  0  0  0  0  0  0  0
    2.3632   -3.0889    0.0000 O   0  0  0  0  0  0  0  0  0  0  0  0
    0.4217    4.4029    0.0000 O   0  0  0  0  0  0  0  0  0  0  0  0
   -0.5785   -0.1471    0.0000 N   0  0  0  0  0  0  0  0  0  0  0  0
   -0.0882    0.5393    0.0000 N   0  0  0  0  0  0  0  0  0  0  0  0
    0.9316   -3.0693    0.0000 N   0  0  0  0  0  0  0  0  0  0  0  0
   -2.0887   -0.3040    0.0000 N   0  0  0  0  0  0  0  0  0  0  0  0
   -2.7947    0.9512    0.0000 N   0  0  0  0  0  0  0  0  0  0  0  0
    0.4805    2.1868    0.0000 N   0  0  0  0  0  0  0  0  0  0  0  0
   -2.0887    2.2064    0.0000 N   0  0  0  0  0  0  0  0  0  0  0  0
    0.0294   -2.0103    0.0000 C   0  0  0  0  0  0  0  0  0  0  0  0
   -0.3236   -0.9120    0.0000 C   0  0  0  0  0  0  0  0  0  0  0  0
   -1.4022    0.1471    0.0000 C   0  0  0  0  0  0  0  0  0  0  0  0
   -1.3630    0.9904    0.0000 C   0  0  0  0  0  0  0  0  0  0  0  0
   -0.6177    1.2454    0.0000 C   0  0  0  0  0  0  0  0  0  0  0  0
   -0.6766   -1.6376    0.0000 C   0  0  0  0  0  0  0  0  0  0  0  0
    0.4021   -1.2846    0.0000 C   0  0  0  0  0  0  0  0  0  0  0  0
    0.8531   -2.1476    0.0000 C   0  0  0  0  0  0  0  0  0  0  0  0
   -0.3628   -2.7751    0.0000 C   0  0  0  0  0  0  0  0  0  0  0  0
   -2.0887    1.4022    0.0000 C   0  0  0  0  0  0  0  0  0  0  0  0
   -0.3236    2.0495    0.0000 C   0  0  0  0  0  0  0  0  0  0  0  0
    0.1864   -3.3830    0.0000 C   0  0  0  0  0  0  0  0  0  0  0  0
    1.6179   -3.4812    0.0000 C   0  0  0  0  0  0  0  0  0  0  0  0
   -2.8144    0.1275    0.0000 C   0  0  0  0  0  0  0  0  0  0  0  0
   -0.8924    2.6574    0.0000 C   0  0  0  0  0  0  0  0  0  0  0  0
    0.7158    3.0301    0.0000 C   0  0  0  0  0  0  0  0  0  0  0  0
   -0.6374    3.4420    0.0000 C   0  0  0  0  0  0  0  0  0  0  0  0
    0.1668    3.6380    0.0000 C   0  0  0  0  0  0  0  0  0  0  0  0
    0.8924   -4.7364    0.0000 C   0  0  0  0  0  0  0  0  0  0  0  0
    1.2062    4.5991    0.0000 C   0  0  0  0  0  0  0  0  0  0  0  0
    0.1864   -4.3049    0.0000 C   0  0  0  0  0  0  0  0  0  0  0  0
    0.3236   -5.2855    0.0000 C   0  0  0  0  0  0  0  0  0  0  0  0
    0.9316   -5.5797    0.0000 C   0  0  0  0  0  0  0  0  0  0  0  0
    1.7553    4.0107    0.0000 C   0  0  0  0  0  0  0  0  0  0  0  0
    1.4611    5.3835    0.0000 C   0  0  0  0  0  0  0  0  0  0  0  0
    2.5594    4.1675    0.0000 C   0  0  0  0  0  0  0  0  0  0  0  0
    2.2456    5.5797    0.0000 C   0  0  0  0  0  0  0  0  0  0  0  0
    2.8144    4.9521    0.0000 C   0  0  0  0  0  0  0  0  0  0  0  0
  1 23  1  0  0  0  0
  1 29  1  0  0  0  0
  2 23  2  0  0  0  0
  3 28  1  0  0  0  0
  3 30  1  0  0  0  0
  4  5  1  0  0  0  0
  4 12  1  0  0  0  0
  4 13  1  0  0  0  0
  5 15  2  0  0  0  0
  6 18  1  0  0  0  0
  6 22  1  0  0  0  0
  6 23  1  0  0  0  0
  7 13  2  0  0  0  0
  7 24  1  0  0  0  0
  8 20  1  0  0  0  0
  8 24  2  0  0  0  0
  9 21  2  0  0  0  0
  9 26  1  0  0  0  0
 10 20  1  0  0  0  0
 11 16  1  6  0  0  0
 11 17  1  0  0  0  0
 11 18  1  0  0  0  0
 11 19  1  0  0  0  0
 12 16  1  0  0  0  0
 12 17  1  0  0  0  0
 13 14  1  0  0  0  0
 14 15  1  0  0  0  0
 14 20  2  0  0  0  0
 15 21  1  0  0  0  0
 19 22  1  0  0  0  0
 21 25  1  0  0  0  0
 25 27  2  0  0  0  0
 26 28  2  0  0  0  0
 27 28  1  0  0  0  0
 29 31  1  0  0  0  0
 29 32  1  0  0  0  0
 29 33  1  0  0  0  0
 30 34  2  0  0  0  0
 30 35  1  0  0  0  0
 34 36  1  0  0  0  0
 35 37  2  0  0  0  0
 36 38  2  0  0  0  0
 37 38  1  0  0  0  0
M  END
> <PUBCHEM_COMPOUND_ID_TYPE>
0

> <PUBCHEM_TOTAL_CHARGE>
0

> <PUBCHEM_SUBSTANCE_ID>
310944938

> <PUBCHEM_SUBSTANCE_VERSION>
1

> <PUBCHEM_EXT_DATASOURCE_NAME>
4488

> <PUBCHEM_EXT_DATASOURCE_REGID>
SCHEMBL16123023

> <PUBCHEM_SUBSTANCE_COMMENT>
InChI=1S/C28H31N7O3/c1-27(2,3)38-26(36)34-12-11-28(16-34)13-18(14-28)35-25-22(24(29)31-17-32-25)23(33-35)21-10-9-20(15-30-21)37-19-7-5-4-6-8-19/h4-10,15,17-18H,11-14,16H2,1-3H3,(H2,29,31,32)/t18?,28-
InChIKey=CBLSWKBWAIAVRR-UUCNATGOSA-N

> <PUBCHEM_SUBSTANCE_SYNONYM>
SCHEMBL16123023

> <PUBCHEM_XREF_EXT_ID>
SCHEMBL16123023

> <PUBCHEM_EXT_DATASOURCE_URL>
https://www.surechembl.org/

> <PUBCHEM_EXT_SUBSTANCE_URL>
https://www.surechembl.org/chemical/SCHEMBL16123023

> <PUBCHEM_CID_ASSOCIATIONS>
90439936  1

> <PUBCHEM_COORDINATE_TYPE>
1
3

> <PUBCHEM_BONDANNOTATIONS>
11  16  6

$$$$
