310935193
  -OEChem-07211613022D

 37 42  0     0  0  0  0  0  0999 V2000
    7.8468   -5.0803    0.0000 O   0  0  0  0  0  0  0  0  0  0  0  0
    7.8468  -10.0600    0.0000 O   0  0  0  0  0  0  0  0  0  0  0  0
    9.2553  -10.0600    0.0000 O   0  0  0  0  0  0  0  0  0  0  0  0
    3.5210   -3.4707    0.0000 N   0  0  0  0  0  0  0  0  0  0  0  0
    2.7162   -3.6719    0.0000 N   0  0  0  0  0  0  0  0  0  0  0  0
    4.2252   -2.1629    0.0000 N   0  0  0  0  0  0  0  0  0  0  0  0
    0.5533   -0.4527    0.0000 N   0  0  0  0  0  0  0  0  0  0  0  0
    6.3881   -5.0803    0.0000 N   0  0  0  0  0  0  0  0  0  0  0  0
    8.5511   -7.1426    0.0000 N   0  0  0  0  0  0  0  0  0  0  0  0
    8.5511   -8.8025    0.0000 N   0  0  0  0  0  0  0  0  0  0  0  0
    2.7162   -2.3641    0.0000 C   0  0  0  0  0  0  0  0  0  0  0  0
    3.5210   -2.5653    0.0000 C   0  0  0  0  0  0  0  0  0  0  0  0
    2.4647   -1.5593    0.0000 C   0  0  0  0  0  0  0  0  0  0  0  0
    1.6599   -1.4084    0.0000 C   0  0  0  0  0  0  0  0  0  0  0  0
    2.2132   -3.0180    0.0000 C   0  0  0  0  0  0  0  0  0  0  0  0
    4.9295   -3.4204    0.0000 C   0  0  0  0  0  0  0  0  0  0  0  0
    4.2252   -3.8228    0.0000 C   0  0  0  0  0  0  0  0  0  0  0  0
    1.4084   -0.6036    0.0000 C   0  0  0  0  0  0  0  0  0  0  0  0
    3.0180   -0.9557    0.0000 C   0  0  0  0  0  0  0  0  0  0  0  0
    4.9295   -2.5653    0.0000 C   0  0  0  0  0  0  0  0  0  0  0  0
    5.6839   -3.8731    0.0000 C   0  0  0  0  0  0  0  0  0  0  0  0
    1.1066   -2.0623    0.0000 C   0  0  0  0  0  0  0  0  0  0  0  0
    1.9114    0.0000    0.0000 C   0  0  0  0  0  0  0  0  0  0  0  0
    2.7162   -0.1509    0.0000 C   0  0  0  0  0  0  0  0  0  0  0  0
    5.6336   -4.6779    0.0000 C   0  0  0  0  0  0  0  0  0  0  0  0
    6.3881   -3.4204    0.0000 C   0  0  0  0  0  0  0  0  0  0  0  0
    0.3018   -1.8611    0.0000 C   0  0  0  0  0  0  0  0  0  0  0  0
    0.0000   -1.1066    0.0000 C   0  0  0  0  0  0  0  0  0  0  0  0
    7.0923   -4.6779    0.0000 C   0  0  0  0  0  0  0  0  0  0  0  0
    7.0923   -3.8228    0.0000 C   0  0  0  0  0  0  0  0  0  0  0  0
    7.8468   -5.9355    0.0000 C   0  0  0  0  0  0  0  0  0  0  0  0
    8.5511   -6.3378    0.0000 C   0  0  0  0  0  0  0  0  0  0  0  0
    7.8468   -7.5954    0.0000 C   0  0  0  0  0  0  0  0  0  0  0  0
    9.2553   -7.5954    0.0000 C   0  0  0  0  0  0  0  0  0  0  0  0
    9.2553   -8.4001    0.0000 C   0  0  0  0  0  0  0  0  0  0  0  0
    7.8468   -8.4001    0.0000 C   0  0  0  0  0  0  0  0  0  0  0  0
    8.5511   -9.6577    0.0000 C   0  0  0  0  0  0  0  0  0  0  0  0
  1 29  1  0  0  0  0
  1 31  1  0  0  0  0
  2 37  2  0  0  0  0
  3 37  1  0  0  0  0
  4  5  1  0  0  0  0
  4 12  1  0  0  0  0
  4 17  1  0  0  0  0
  5 15  2  0  0  0  0
  6 12  1  0  0  0  0
  6 20  2  0  0  0  0
  7 18  2  0  0  0  0
  7 28  1  0  0  0  0
  8 25  2  0  0  0  0
  8 29  1  0  0  0  0
  9 32  1  0  0  0  0
  9 33  1  0  0  0  0
  9 34  1  0  0  0  0
 10 35  1  0  0  0  0
 10 36  1  0  0  0  0
 10 37  1  0  0  0  0
 11 12  2  0  0  0  0
 11 13  1  0  0  0  0
 11 15  1  0  0  0  0
 13 14  1  0  0  0  0
 13 19  2  0  0  0  0
 14 18  1  0  0  0  0
 14 22  2  0  0  0  0
 16 17  2  0  0  0  0
 16 20  1  0  0  0  0
 16 21  1  0  0  0  0
 18 23  1  0  0  0  0
 19 24  1  0  0  0  0
 21 25  1  0  0  0  0
 21 26  2  0  0  0  0
 22 27  1  0  0  0  0
 23 24  2  0  0  0  0
 26 30  1  0  0  0  0
 27 28  2  0  0  0  0
 29 30  2  0  0  0  0
 31 32  1  0  0  0  0
 33 36  1  0  0  0  0
 34 35  1  0  0  0  0
M  END
> <PUBCHEM_COMPOUND_ID_TYPE>
0

> <PUBCHEM_TOTAL_CHARGE>
0

> <PUBCHEM_SUBSTANCE_ID>
310935193

> <PUBCHEM_SUBSTANCE_VERSION>
1

> <PUBCHEM_EXT_DATASOURCE_NAME>
4488

> <PUBCHEM_EXT_DATASOURCE_REGID>
SCHEMBL16112721

> <PUBCHEM_SUBSTANCE_COMMENT>
InChI=1S/C27H25N7O3/c35-27(36)33-11-9-32(10-12-33)13-14-37-25-7-6-19(15-29-25)20-16-30-26-23(17-31-34(26)18-20)21-3-1-5-24-22(21)4-2-8-28-24/h1-8,15-18H,9-14H2,(H,35,36)
InChIKey=PJAVIWKEOGEJLH-UHFFFAOYSA-N

> <PUBCHEM_SUBSTANCE_SYNONYM>
SCHEMBL16112721

> <PUBCHEM_XREF_EXT_ID>
SCHEMBL16112721

> <PUBCHEM_EXT_DATASOURCE_URL>
https://www.surechembl.org/

> <PUBCHEM_EXT_SUBSTANCE_URL>
https://www.surechembl.org/chemical/SCHEMBL16112721

> <PUBCHEM_CID_ASSOCIATIONS>
117603273  1

> <PUBCHEM_COORDINATE_TYPE>
1
3

$$$$
