310936345
  -OEChem-07211613022D

 30 33  0     1  0  0  0  0  0999 V2000
    0.0865    1.4216    0.0000 O   0  0  0  0  0  0  0  0  0  0  0  0
   -1.8505    0.5241    0.0000 O   0  0  0  0  0  0  0  0  0  0  0  0
   -1.8505    2.3190    0.0000 O   0  0  0  0  0  0  0  0  0  0  0  0
    1.3556   -2.3479    0.0000 O   0  0  0  0  0  0  0  0  0  0  0  0
    1.0791    4.3909    0.0000 O   0  0  0  0  0  0  0  0  0  0  0  0
    0.1749    6.1656    0.0000 O   0  0  0  0  0  0  0  0  0  0  0  0
   -0.1435   -0.0305    0.0000 N   0  0  0  0  0  0  0  0  0  0  0  0
   -0.1435   -1.3654    0.0000 N   0  0  0  0  0  0  0  0  0  0  0  0
    1.3556    0.1271    0.0000 N   0  0  0  0  0  0  0  0  0  0  0  0
   -0.6955    3.4867    0.0000 N   0  0  0  0  0  0  0  0  0  0  0  0
    2.0701   -1.1104    0.0000 N   0  0  0  0  0  0  0  0  0  0  0  0
   -1.5998    5.2614    0.0000 N   0  0  0  0  0  0  0  0  0  0  0  0
    2.7845    0.1271    0.0000 N   0  0  0  0  0  0  0  0  0  0  0  0
   -2.7274    7.1302    0.0000 N   0  0  0  0  0  0  0  0  0  0  0  0
   -0.3984    0.7541    0.0000 C   0  0  3  0  0  0  0  0  0  0  0  0
    0.6411   -0.2854    0.0000 C   0  0  0  0  0  0  0  0  0  0  0  0
    0.6411   -1.1104    0.0000 C   0  0  0  0  0  0  0  0  0  0  0  0
   -1.1831    1.0091    0.0000 C   0  0  3  0  0  0  0  0  0  0  0  0
   -0.3984    2.0890    0.0000 C   0  0  3  0  0  0  0  0  0  0  0  0
   -1.1831    1.8341    0.0000 C   0  0  3  0  0  0  0  0  0  0  0  0
   -0.6284   -0.6979    0.0000 C   0  0  0  0  0  0  0  0  0  0  0  0
   -0.4406    4.2713    0.0000 C   0  0  0  0  0  0  0  0  0  0  0  0
    1.3556   -1.5229    0.0000 C   0  0  0  0  0  0  0  0  0  0  0  0
   -0.8151    5.0064    0.0000 C   0  0  0  0  0  0  0  0  0  0  0  0
    0.2945    4.6459    0.0000 C   0  0  0  0  0  0  0  0  0  0  0  0
   -0.0801    5.3810    0.0000 C   0  0  0  0  0  0  0  0  0  0  0  0
   -0.1435    2.8736    0.0000 C   0  0  0  0  0  0  0  0  0  0  0  0
    2.0701   -0.2854    0.0000 C   0  0  0  0  0  0  0  0  0  0  0  0
   -1.7713    6.0683    0.0000 C   0  0  0  0  0  0  0  0  0  0  0  0
   -2.5559    6.3233    0.0000 C   0  0  0  0  0  0  0  0  0  0  0  0
 15  1  1  1  0  0  0
  1 19  1  0  0  0  0
 18  2  1  6  0  0  0
 20  3  1  1  0  0  0
  4 23  2  0  0  0  0
  5 25  2  0  0  0  0
  6 26  2  0  0  0  0
  7 15  1  0  0  0  0
  7 16  1  0  0  0  0
  7 21  1  0  0  0  0
  8 17  1  0  0  0  0
  8 21  2  0  0  0  0
  9 16  1  0  0  0  0
  9 28  2  0  0  0  0
 10 22  1  0  0  0  0
 10 27  1  0  0  0  0
 11 23  1  0  0  0  0
 11 28  1  0  0  0  0
 12 24  1  0  0  0  0
 12 29  1  0  0  0  0
 13 28  1  0  0  0  0
 14 30  1  0  0  0  0
 15 18  1  0  0  0  0
 16 17  2  0  0  0  0
 17 23  1  0  0  0  0
 18 20  1  0  0  0  0
 19 20  1  0  0  0  0
 19 27  1  1  0  0  0
 22 24  2  0  0  0  0
 22 25  1  0  0  0  0
 24 26  1  0  0  0  0
 25 26  1  0  0  0  0
 29 30  1  0  0  0  0
M  END
> <PUBCHEM_COMPOUND_ID_TYPE>
0

> <PUBCHEM_TOTAL_CHARGE>
0

> <PUBCHEM_SUBSTANCE_ID>
310936345

> <PUBCHEM_SUBSTANCE_VERSION>
1

> <PUBCHEM_EXT_DATASOURCE_NAME>
4488

> <PUBCHEM_EXT_DATASOURCE_REGID>
SCHEMBL16113978

> <PUBCHEM_SUBSTANCE_COMMENT>
InChI=1S/C16H20N8O6/c17-1-2-19-6-7(11(27)10(6)26)20-3-5-9(25)12(28)15(30-5)24-4-21-8-13(24)22-16(18)23-14(8)29/h4-5,9,12,15,19-20,25,28H,1-3,17H2,(H3,18,22,23,29)/t5-,9+,12-,15-/m1/s1
InChIKey=LBEMVZZSMRZSBA-VOWATXBUSA-N

> <PUBCHEM_SUBSTANCE_SYNONYM>
SCHEMBL16113978

> <PUBCHEM_XREF_EXT_ID>
SCHEMBL16113978

> <PUBCHEM_EXT_DATASOURCE_URL>
https://www.surechembl.org/

> <PUBCHEM_EXT_SUBSTANCE_URL>
https://www.surechembl.org/chemical/SCHEMBL16113978

> <PUBCHEM_CID_ASSOCIATIONS>
117604287  1

> <PUBCHEM_COORDINATE_TYPE>
1
3

> <PUBCHEM_BONDANNOTATIONS>
15  1  5
19  27  5
18  2  6
20  3  5

$$$$
