310947597
  -OEChem-07211613022D

 46 48  0     1  0  0  0  0  0999 V2000
   -1.0370    6.7842    0.0000 P   0  0  0  0  0  0  0  0  0  0  0  0
    0.7690    4.3320    0.0000 F   0  0  0  0  0  0  0  0  0  0  0  0
    1.5940    6.3160    0.0000 O   0  0  0  0  0  0  0  0  0  0  0  0
    2.4190    4.3320    0.0000 O   0  0  0  0  0  0  0  0  0  0  0  0
   -0.4537    6.2009    0.0000 O   0  0  0  0  0  0  0  0  0  0  0  0
    3.7606    8.9735    0.0000 O   0  0  0  0  0  0  0  0  0  0  0  0
   -0.4537    7.3676    0.0000 O   0  0  0  0  0  0  0  0  0  0  0  0
   -2.3348    4.1384    0.0000 O   0  0  0  0  0  0  0  0  0  0  0  0
   -3.0493    8.1926    0.0000 O   0  0  0  0  0  0  0  0  0  0  0  0
   -3.0493    5.3759    0.0000 O   0  0  0  0  0  0  0  0  0  0  0  0
   -2.3348    9.4301    0.0000 O   0  0  0  0  0  0  0  0  0  0  0  0
    2.2615    6.6560    0.0000 N   0  0  0  0  0  0  0  0  0  0  0  0
    2.2615    7.9909    0.0000 N   0  0  0  0  0  0  0  0  0  0  0  0
    3.7606    6.4985    0.0000 N   0  0  0  0  0  0  0  0  0  0  0  0
    4.4750    7.7360    0.0000 N   0  0  0  0  0  0  0  0  0  0  0  0
   -1.6204    6.2009    0.0000 N   0  0  0  0  0  0  0  0  0  0  0  0
   -1.6204    7.3676    0.0000 N   0  0  0  0  0  0  0  0  0  0  0  0
    2.2615    5.8310    0.0000 C   0  0  3  0  0  0  0  0  0  0  0  0
    2.0065    5.0464    0.0000 C   0  0  3  0  0  0  0  0  0  0  0  0
    1.1815    5.0464    0.0000 C   0  0  3  0  0  0  0  0  0  0  0  0
    3.0461    6.9110    0.0000 C   0  0  0  0  0  0  0  0  0  0  0  0
    0.9266    5.8310    0.0000 C   0  0  3  0  0  0  0  0  0  0  0  0
    3.0461    7.7360    0.0000 C   0  0  0  0  0  0  0  0  0  0  0  0
    1.7766    7.3235    0.0000 C   0  0  0  0  0  0  0  0  0  0  0  0
    3.7606    8.1485    0.0000 C   0  0  0  0  0  0  0  0  0  0  0  0
    2.8034    5.2599    0.0000 C   0  0  0  0  0  0  0  0  0  0  0  0
    0.3432    6.4144    0.0000 C   0  0  0  0  0  0  0  0  0  0  0  0
    4.4750    6.9110    0.0000 C   0  0  0  0  0  0  0  0  0  0  0  0
    5.1895    6.4985    0.0000 C   0  0  0  0  0  0  0  0  0  0  0  0
   -1.6204    5.3759    0.0000 C   0  0  3  0  0  0  0  0  0  0  0  0
   -1.6204    8.1926    0.0000 C   0  0  3  0  0  0  0  0  0  0  0  0
    4.4750    9.3860    0.0000 C   0  0  0  0  0  0  0  0  0  0  0  0
   -2.3348    4.9634    0.0000 C   0  0  0  0  0  0  0  0  0  0  0  0
   -2.3348    8.6051    0.0000 C   0  0  0  0  0  0  0  0  0  0  0  0
   -0.9059    4.9634    0.0000 C   0  0  0  0  0  0  0  0  0  0  0  0
   -0.9059    8.6051    0.0000 C   0  0  0  0  0  0  0  0  0  0  0  0
   -3.0493    3.7259    0.0000 C   0  0  0  0  0  0  0  0  0  0  0  0
   -3.7638    8.6051    0.0000 C   0  0  0  0  0  0  0  0  0  0  0  0
   -3.7638    4.1384    0.0000 C   0  0  0  0  0  0  0  0  0  0  0  0
   -4.4783    8.1926    0.0000 C   0  0  0  0  0  0  0  0  0  0  0  0
   -3.7638    4.9634    0.0000 C   0  0  0  0  0  0  0  0  0  0  0  0
   -4.4783    3.7259    0.0000 C   0  0  0  0  0  0  0  0  0  0  0  0
   -3.0493    4.5509    0.0000 C   0  0  0  0  0  0  0  0  0  0  0  0
   -5.1927    8.6051    0.0000 C   0  0  0  0  0  0  0  0  0  0  0  0
   -4.4783    7.3676    0.0000 C   0  0  0  0  0  0  0  0  0  0  0  0
   -4.4783    9.0176    0.0000 C   0  0  0  0  0  0  0  0  0  0  0  0
  1  5  1  0  0  0  0
  1  7  2  0  0  0  0
  1 16  1  0  0  0  0
  1 17  1  0  0  0  0
 20  2  1  6  0  0  0
 18  3  1  6  0  0  0
  3 22  1  0  0  0  0
 19  4  1  6  0  0  0
  5 27  1  0  0  0  0
  6 25  1  0  0  0  0
  6 32  1  0  0  0  0
  8 33  1  0  0  0  0
  8 37  1  0  0  0  0
  9 34  1  0  0  0  0
  9 38  1  0  0  0  0
 10 33  2  0  0  0  0
 11 34  2  0  0  0  0
 12 18  1  0  0  0  0
 12 21  1  0  0  0  0
 12 24  1  0  0  0  0
 13 23  1  0  0  0  0
 13 24  2  0  0  0  0
 14 21  1  0  0  0  0
 14 28  2  0  0  0  0
 15 25  2  0  0  0  0
 15 28  1  0  0  0  0
 16 30  1  0  0  0  0
 17 31  1  0  0  0  0
 18 19  1  0  0  0  0
 19 20  1  0  0  0  0
 19 26  1  1  0  0  0
 20 22  1  0  0  0  0
 21 23  2  0  0  0  0
 22 27  1  1  0  0  0
 23 25  1  0  0  0  0
 28 29  1  0  0  0  0
 30 33  1  0  0  0  0
 30 35  1  1  0  0  0
 31 34  1  0  0  0  0
 31 36  1  6  0  0  0
 37 39  1  0  0  0  0
 38 40  1  0  0  0  0
 39 41  1  0  0  0  0
 39 42  1  0  0  0  0
 39 43  1  0  0  0  0
 40 44  1  0  0  0  0
 40 45  1  0  0  0  0
 40 46  1  0  0  0  0
M  END
> <PUBCHEM_COMPOUND_ID_TYPE>
0

> <PUBCHEM_TOTAL_CHARGE>
0

> <PUBCHEM_SUBSTANCE_ID>
310947597

> <PUBCHEM_SUBSTANCE_VERSION>
1

> <PUBCHEM_EXT_DATASOURCE_NAME>
4488

> <PUBCHEM_EXT_DATASOURCE_REGID>
SCHEMBL16125760

> <PUBCHEM_SUBSTANCE_COMMENT>
InChI=1S/C29H48FN6O9P/c1-16(24(37)42-13-27(4,5)6)34-46(40,35-17(2)25(38)43-14-28(7,8)9)44-12-19-21(30)29(10,39)26(45-19)36-15-31-20-22(36)32-18(3)33-23(20)41-11/h15-17,19,21,26,39H,12-14H2,1-11H3,(H2,34,35,40)/t16-,17-,19+,21+,26+,29+/m0/s1
InChIKey=FJOQCLZGMDEPGS-AJMZYRQISA-N

> <PUBCHEM_SUBSTANCE_SYNONYM>
SCHEMBL16125760

> <PUBCHEM_XREF_EXT_ID>
SCHEMBL16125760

> <PUBCHEM_EXT_DATASOURCE_URL>
https://www.surechembl.org/

> <PUBCHEM_EXT_SUBSTANCE_URL>
https://www.surechembl.org/chemical/SCHEMBL16125760

> <PUBCHEM_CID_ASSOCIATIONS>
117613319  1

> <PUBCHEM_COORDINATE_TYPE>
1
3

> <PUBCHEM_BONDANNOTATIONS>
19  26  5
20  2  6
22  27  5
18  3  6
30  35  5
31  36  6
19  4  6

$$$$
