310935414
  -OEChem-07211613022D

 18 18  0     0  0  0  0  0  0999 V2000
    2.1323   -3.2411    0.0000 S   0  0  0  0  0  0  0  0  0  0  0  0
    2.1323   -2.4166    0.0000 O   0  0  0  0  0  0  0  0  0  0  0  0
    2.9568   -3.2411    0.0000 O   0  0  0  0  0  0  0  0  0  0  0  0
    1.3078   -3.2127    0.0000 O   0  0  0  0  0  0  0  0  0  0  0  0
    3.5538   -3.2411    0.0000 O   0  0  0  0  0  0  0  0  0  0  0  0
    4.2646   -4.4636    0.0000 O   0  0  0  0  0  0  0  0  0  0  0  0
    2.1323   -4.0372    0.0000 C   0  0  0  0  0  0  0  0  0  0  0  0
    2.8430   -4.4636    0.0000 C   0  0  0  0  0  0  0  0  0  0  0  0
    1.4216   -4.4636    0.0000 C   0  0  0  0  0  0  0  0  0  0  0  0
    3.5538   -4.0372    0.0000 C   0  0  0  0  0  0  0  0  0  0  0  0
    2.8430   -5.2597    0.0000 C   0  0  0  0  0  0  0  0  0  0  0  0
    1.4216   -5.2597    0.0000 C   0  0  0  0  0  0  0  0  0  0  0  0
    2.1323   -5.6861    0.0000 C   0  0  0  0  0  0  0  0  0  0  0  0
    1.4216   -2.0186    0.0000 C   0  0  0  0  0  0  0  0  0  0  0  0
    1.3931   -1.1941    0.0000 C   0  0  0  0  0  0  0  0  0  0  0  0
    0.6823   -0.8245    0.0000 C   0  0  0  0  0  0  0  0  0  0  0  0
    0.6539    0.0000    0.0000 C   0  0  0  0  0  0  0  0  0  0  0  0
    0.0000   -1.2510    0.0000 C   0  0  0  0  0  0  0  0  0  0  0  0
  1  2  1  0  0  0  0
  1  3  2  0  0  0  0
  1  4  2  0  0  0  0
  1  7  1  0  0  0  0
  2 14  1  0  0  0  0
  5 10  2  0  0  0  0
  6 10  1  0  0  0  0
  7  8  2  0  0  0  0
  7  9  1  0  0  0  0
  8 10  1  0  0  0  0
  8 11  1  0  0  0  0
  9 12  2  0  0  0  0
 11 13  2  0  0  0  0
 12 13  1  0  0  0  0
 14 15  1  0  0  0  0
 15 16  1  0  0  0  0
 16 17  1  0  0  0  0
 16 18  1  0  0  0  0
M  END
> <PUBCHEM_COMPOUND_ID_TYPE>
0

> <PUBCHEM_TOTAL_CHARGE>
0

> <PUBCHEM_SUBSTANCE_ID>
310935414

> <PUBCHEM_SUBSTANCE_VERSION>
1

> <PUBCHEM_EXT_DATASOURCE_NAME>
4488

> <PUBCHEM_EXT_DATASOURCE_REGID>
SCHEMBL16112955

> <PUBCHEM_SUBSTANCE_COMMENT>
InChI=1S/C12H16O5S/c1-9(2)7-8-17-18(15,16)11-6-4-3-5-10(11)12(13)14/h3-6,9H,7-8H2,1-2H3,(H,13,14)
InChIKey=CSALNSPBKXBGJR-UHFFFAOYSA-N

> <PUBCHEM_SUBSTANCE_SYNONYM>
SCHEMBL16112955

> <PUBCHEM_XREF_EXT_ID>
SCHEMBL16112955

> <PUBCHEM_EXT_DATASOURCE_URL>
https://www.surechembl.org/

> <PUBCHEM_EXT_SUBSTANCE_URL>
https://www.surechembl.org/chemical/SCHEMBL16112955

> <PUBCHEM_CID_ASSOCIATIONS>
117603459  1

> <PUBCHEM_COORDINATE_TYPE>
1
3

$$$$
