310935184
  -OEChem-07211613022D

 23 25  0     0  0  0  0  0  0999 V2000
    2.9138   -3.9733    0.0000 S   0  0  0  0  0  0  0  0  0  0  0  0
    6.9401   -2.0926    0.0000 F   0  0  0  0  0  0  0  0  0  0  0  0
    0.7152   -5.1388    0.0000 O   0  0  0  0  0  0  0  0  0  0  0  0
    4.6091   -3.7614    0.0000 N   0  0  0  0  0  0  0  0  0  0  0  0
    2.2251   -5.1388    0.0000 N   0  0  0  0  0  0  0  0  0  0  0  0
    1.4304   -3.8939    0.0000 N   0  0  0  0  0  0  0  0  0  0  0  0
    3.4700   -4.5826    0.0000 C   0  0  0  0  0  0  0  0  0  0  0  0
    5.2978   -2.2516    0.0000 C   0  0  0  0  0  0  0  0  0  0  0  0
    5.6421   -1.5098    0.0000 C   0  0  0  0  0  0  0  0  0  0  0  0
    2.1456   -4.3177    0.0000 C   0  0  0  0  0  0  0  0  0  0  0  0
    4.2647   -4.5031    0.0000 C   0  0  0  0  0  0  0  0  0  0  0  0
    3.0462   -5.2978    0.0000 C   0  0  0  0  0  0  0  0  0  0  0  0
    6.4633   -1.4304    0.0000 C   0  0  0  0  0  0  0  0  0  0  0  0
    4.4501   -2.3310    0.0000 C   0  0  0  0  0  0  0  0  0  0  0  0
    5.7746   -2.9403    0.0000 C   0  0  0  0  0  0  0  0  0  0  0  0
    4.1323   -3.0727    0.0000 C   0  0  0  0  0  0  0  0  0  0  0  0
    5.4302   -3.6819    0.0000 C   0  0  0  0  0  0  0  0  0  0  0  0
    5.1654   -0.8211    0.0000 C   0  0  0  0  0  0  0  0  0  0  0  0
    6.8076   -0.6887    0.0000 C   0  0  0  0  0  0  0  0  0  0  0  0
    5.5097   -0.0795    0.0000 C   0  0  0  0  0  0  0  0  0  0  0  0
    0.7152   -4.3177    0.0000 C   0  0  0  0  0  0  0  0  0  0  0  0
    6.3308    0.0000    0.0000 C   0  0  0  0  0  0  0  0  0  0  0  0
    0.0000   -3.8939    0.0000 C   0  0  0  0  0  0  0  0  0  0  0  0
  1  7  1  0  0  0  0
  1 10  1  0  0  0  0
  2 13  1  0  0  0  0
  3 21  2  0  0  0  0
  4 11  1  0  0  0  0
  4 16  1  0  0  0  0
  4 17  1  0  0  0  0
  5 10  2  0  0  0  0
  5 12  1  0  0  0  0
  6 10  1  0  0  0  0
  6 21  1  0  0  0  0
  7 11  1  0  0  0  0
  7 12  2  0  0  0  0
  8  9  1  0  0  0  0
  8 14  1  0  0  0  0
  8 15  1  0  0  0  0
  9 13  1  0  0  0  0
  9 18  2  0  0  0  0
 13 19  2  0  0  0  0
 14 16  1  0  0  0  0
 15 17  1  0  0  0  0
 18 20  1  0  0  0  0
 19 22  1  0  0  0  0
 20 22  2  0  0  0  0
 21 23  1  0  0  0  0
M  END
> <PUBCHEM_COMPOUND_ID_TYPE>
0

> <PUBCHEM_TOTAL_CHARGE>
0

> <PUBCHEM_SUBSTANCE_ID>
310935184

> <PUBCHEM_SUBSTANCE_VERSION>
1

> <PUBCHEM_EXT_DATASOURCE_NAME>
4488

> <PUBCHEM_EXT_DATASOURCE_REGID>
SCHEMBL16112712

> <PUBCHEM_SUBSTANCE_COMMENT>
InChI=1S/C17H20FN3OS/c1-12(22)20-17-19-10-14(23-17)11-21-8-6-13(7-9-21)15-4-2-3-5-16(15)18/h2-5,10,13H,6-9,11H2,1H3,(H,19,20,22)
InChIKey=WZCDCPVVVCTMSQ-UHFFFAOYSA-N

> <PUBCHEM_SUBSTANCE_SYNONYM>
SCHEMBL16112712

> <PUBCHEM_XREF_EXT_ID>
SCHEMBL16112712

> <PUBCHEM_EXT_DATASOURCE_URL>
https://www.surechembl.org/

> <PUBCHEM_EXT_SUBSTANCE_URL>
https://www.surechembl.org/chemical/SCHEMBL16112712

> <PUBCHEM_CID_ASSOCIATIONS>
86275055  1

> <PUBCHEM_COORDINATE_TYPE>
1
3

$$$$
