310945676
  -OEChem-07211613022D

 30 34  0     0  0  0  0  0  0999 V2000
   -3.8834   -1.6145    0.0000 I   0  0  0  0  0  0  0  0  0  0  0  0
    2.2546    1.0527    0.0000 O   0  0  0  0  0  0  0  0  0  0  0  0
    1.6999   -0.3699    0.0000 N   0  0  0  0  0  0  0  0  0  0  0  0
   -1.7283   -0.3699    0.0000 N   0  0  0  0  0  0  0  0  0  0  0  0
    0.8535    0.6757    0.0000 N   0  0  0  0  0  0  0  0  0  0  0  0
   -0.8890    0.6757    0.0000 N   0  0  0  0  0  0  0  0  0  0  0  0
    0.7326   -1.4722    0.0000 N   0  0  0  0  0  0  0  0  0  0  0  0
   -0.7611   -1.4722    0.0000 N   0  0  0  0  0  0  0  0  0  0  0  0
    0.3912    0.0285    0.0000 C   0  0  0  0  0  0  0  0  0  0  0  0
   -0.4410    0.0427    0.0000 C   0  0  0  0  0  0  0  0  0  0  0  0
    0.9175   -0.6117    0.0000 C   0  0  0  0  0  0  0  0  0  0  0  0
   -0.9531   -0.6259    0.0000 C   0  0  0  0  0  0  0  0  0  0  0  0
    1.6572    0.4695    0.0000 C   0  0  0  0  0  0  0  0  0  0  0  0
   -1.6856    0.4907    0.0000 C   0  0  0  0  0  0  0  0  0  0  0  0
    2.4324   -0.7397    0.0000 C   0  0  0  0  0  0  0  0  0  0  0  0
   -0.0142   -1.7923    0.0000 C   0  0  0  0  0  0  0  0  0  0  0  0
   -2.4395   -0.7397    0.0000 C   0  0  0  0  0  0  0  0  0  0  0  0
    3.1436   -0.3272    0.0000 C   0  0  0  0  0  0  0  0  0  0  0  0
   -3.1721   -0.3201    0.0000 C   0  0  0  0  0  0  0  0  0  0  0  0
   -3.8762   -0.7326    0.0000 C   0  0  0  0  0  0  0  0  0  0  0  0
    3.1508    0.4907    0.0000 C   0  0  0  0  0  0  0  0  0  0  0  0
    3.8691   -0.7397    0.0000 C   0  0  0  0  0  0  0  0  0  0  0  0
   -3.1721    0.4978    0.0000 C   0  0  0  0  0  0  0  0  0  0  0  0
    3.8691    0.9104    0.0000 C   0  0  0  0  0  0  0  0  0  0  0  0
   -4.5946   -0.3272    0.0000 C   0  0  0  0  0  0  0  0  0  0  0  0
    4.5946   -0.3272    0.0000 C   0  0  0  0  0  0  0  0  0  0  0  0
   -3.8834    0.9033    0.0000 C   0  0  0  0  0  0  0  0  0  0  0  0
    4.5946    0.4978    0.0000 C   0  0  0  0  0  0  0  0  0  0  0  0
   -4.5946    0.4978    0.0000 C   0  0  0  0  0  0  0  0  0  0  0  0
    3.8762    1.7923    0.0000 C   0  0  0  0  0  0  0  0  0  0  0  0
  1 20  1  0  0  0  0
  2 13  2  0  0  0  0
  3 11  1  0  0  0  0
  3 13  1  0  0  0  0
  3 15  1  0  0  0  0
  4 12  1  0  0  0  0
  4 14  1  0  0  0  0
  4 17  1  0  0  0  0
  5  9  2  0  0  0  0
  5 13  1  0  0  0  0
  6 10  1  0  0  0  0
  6 14  2  0  0  0  0
  7 11  2  0  0  0  0
  7 16  1  0  0  0  0
  8 12  1  0  0  0  0
  8 16  2  0  0  0  0
  9 10  1  0  0  0  0
  9 11  1  0  0  0  0
 10 12  2  0  0  0  0
 15 18  1  0  0  0  0
 17 19  1  0  0  0  0
 18 21  1  0  0  0  0
 18 22  2  0  0  0  0
 19 20  1  0  0  0  0
 19 23  2  0  0  0  0
 20 25  2  0  0  0  0
 21 24  2  0  0  0  0
 22 26  1  0  0  0  0
 23 27  1  0  0  0  0
 24 28  1  0  0  0  0
 24 30  1  0  0  0  0
 25 29  1  0  0  0  0
 26 28  2  0  0  0  0
 27 29  2  0  0  0  0
M  END
> <PUBCHEM_COMPOUND_ID_TYPE>
0

> <PUBCHEM_TOTAL_CHARGE>
0

> <PUBCHEM_SUBSTANCE_ID>
310945676

> <PUBCHEM_SUBSTANCE_VERSION>
1

> <PUBCHEM_EXT_DATASOURCE_NAME>
4488

> <PUBCHEM_EXT_DATASOURCE_REGID>
SCHEMBL16123777

> <PUBCHEM_SUBSTANCE_COMMENT>
InChI=1S/C22H17IN6O/c1-14-5-4-6-15(9-14)10-29-21-19(27-22(29)30)18-20(24-12-25-21)28(13-26-18)11-16-7-2-3-8-17(16)23/h2-9,12-13H,10-11H2,1H3
InChIKey=IDPCRCKJZASPDN-UHFFFAOYSA-N

> <PUBCHEM_SUBSTANCE_SYNONYM>
SCHEMBL16123777

> <PUBCHEM_XREF_EXT_ID>
SCHEMBL16123777

> <PUBCHEM_EXT_DATASOURCE_URL>
https://www.surechembl.org/

> <PUBCHEM_EXT_SUBSTANCE_URL>
https://www.surechembl.org/chemical/SCHEMBL16123777

> <PUBCHEM_CID_ASSOCIATIONS>
117611676  1

> <PUBCHEM_COORDINATE_TYPE>
1
3

$$$$
