310942882
  -OEChem-07211613022D

 43 47  0     1  0  0  0  0  0999 V2000
   -2.8812    0.3201    0.0000 F   0  0  0  0  0  0  0  0  0  0  0  0
   -2.8812   -3.0235    0.0000 F   0  0  0  0  0  0  0  0  0  0  0  0
    3.6104   -1.6007    0.0000 F   0  0  0  0  0  0  0  0  0  0  0  0
   -0.3557   -1.4584    0.0000 O   0  0  0  0  0  0  0  0  0  0  0  0
    2.1520    1.7074    0.0000 O   0  0  0  0  0  0  0  0  0  0  0  0
   -1.3161   -3.4326    0.0000 O   0  0  0  0  0  0  0  0  0  0  0  0
   -0.5336    0.4802    0.0000 N   0  0  0  0  0  0  0  0  0  0  0  0
    1.0493   -1.0849    0.0000 N   0  0  0  0  0  0  0  0  0  0  0  0
   -0.6759   -0.8715    0.0000 N   0  0  0  0  0  0  0  0  0  0  0  0
    0.6759   -2.4721    0.0000 N   0  0  0  0  0  0  0  0  0  0  0  0
    2.2943   -3.2903    0.0000 N   0  0  0  0  0  0  0  0  0  0  0  0
   -0.1245   -0.2134    0.0000 C   0  0  0  0  0  0  0  0  0  0  0  0
    0.6936   -0.3201    0.0000 C   0  0  3  0  0  0  0  0  0  0  0  0
   -1.4584   -0.5158    0.0000 C   0  0  0  0  0  0  0  0  0  0  0  0
    1.1916    0.3735    0.0000 C   0  0  0  0  0  0  0  0  0  0  0  0
   -1.3339    0.3201    0.0000 C   0  0  0  0  0  0  0  0  0  0  0  0
   -2.1698   -0.9248    0.0000 C   0  0  0  0  0  0  0  0  0  0  0  0
    0.4624   -1.6896    0.0000 C   0  0  0  0  0  0  0  0  0  0  0  0
   -0.1956    1.2450    0.0000 C   0  0  0  0  0  0  0  0  0  0  0  0
    1.8675   -1.1738    0.0000 C   0  0  0  0  0  0  0  0  0  0  0  0
   -2.8812   -0.5158    0.0000 C   0  0  0  0  0  0  0  0  0  0  0  0
    2.1698   -1.9208    0.0000 C   0  0  3  0  0  0  0  0  0  0  0  0
   -2.1698   -1.7607    0.0000 C   0  0  0  0  0  0  0  0  0  0  0  0
    0.8537    1.1027    0.0000 C   0  0  0  0  0  0  0  0  0  0  0  0
    2.0275    0.2668    0.0000 C   0  0  0  0  0  0  0  0  0  0  0  0
   -0.6936    1.9030    0.0000 C   0  0  0  0  0  0  0  0  0  0  0  0
   -2.8812   -2.1698    0.0000 C   0  0  0  0  0  0  0  0  0  0  0  0
    2.9879   -2.1343    0.0000 C   0  0  3  0  0  0  0  0  0  0  0  0
   -3.5926   -0.9248    0.0000 C   0  0  0  0  0  0  0  0  0  0  0  0
    1.7607   -2.6677    0.0000 C   0  0  0  0  0  0  0  0  0  0  0  0
   -3.6104   -1.7607    0.0000 C   0  0  0  0  0  0  0  0  0  0  0  0
    1.3339    1.7785    0.0000 C   0  0  0  0  0  0  0  0  0  0  0  0
    2.5077    0.9426    0.0000 C   0  0  0  0  0  0  0  0  0  0  0  0
   -0.3557    2.6500    0.0000 C   0  0  0  0  0  0  0  0  0  0  0  0
   -1.5117    1.8319    0.0000 C   0  0  0  0  0  0  0  0  0  0  0  0
    3.0413   -2.9523    0.0000 C   0  0  0  0  0  0  0  0  0  0  0  0
    0.0711   -3.0590    0.0000 C   0  0  3  0  0  0  0  0  0  0  0  0
   -0.8537    3.3436    0.0000 C   0  0  0  0  0  0  0  0  0  0  0  0
   -1.9742    2.5255    0.0000 C   0  0  0  0  0  0  0  0  0  0  0  0
   -1.6362    3.2547    0.0000 C   0  0  0  0  0  0  0  0  0  0  0  0
   -0.7114   -2.8456    0.0000 C   0  0  0  0  0  0  0  0  0  0  0  0
    0.2846   -3.8416    0.0000 C   0  0  0  0  0  0  0  0  0  0  0  0
   -0.6047    3.8416    0.0000 C   0  0  0  0  0  0  0  0  0  0  0  0
  1 21  1  0  0  0  0
  2 27  1  0  0  0  0
 28  3  1  1  0  0  0
  4 18  2  0  0  0  0
  5 32  1  0  0  0  0
  5 33  1  0  0  0  0
  6 41  1  0  0  0  0
  7 12  1  0  0  0  0
  7 16  1  0  0  0  0
  7 19  1  0  0  0  0
 13  8  1  1  0  0  0
  8 18  1  0  0  0  0
  8 20  1  0  0  0  0
  9 12  2  0  0  0  0
  9 14  1  0  0  0  0
 10 18  1  0  0  0  0
 10 37  1  0  0  0  0
 11 30  1  0  0  0  0
 11 36  1  0  0  0  0
 12 13  1  0  0  0  0
 13 15  1  0  0  0  0
 14 16  2  0  0  0  0
 14 17  1  0  0  0  0
 15 24  1  0  0  0  0
 15 25  1  0  0  0  0
 17 21  2  0  0  0  0
 17 23  1  0  0  0  0
 19 26  1  0  0  0  0
 22 20  1  1  0  0  0
 21 29  1  0  0  0  0
 22 28  1  0  0  0  0
 22 30  1  0  0  0  0
 23 27  2  0  0  0  0
 24 32  1  0  0  0  0
 25 33  1  0  0  0  0
 26 34  1  0  0  0  0
 26 35  2  0  0  0  0
 27 31  1  0  0  0  0
 28 36  1  0  0  0  0
 29 31  2  0  0  0  0
 34 38  2  0  0  0  0
 35 39  1  0  0  0  0
 37 41  1  0  0  0  0
 37 42  1  1  0  0  0
 38 40  1  0  0  0  0
 38 43  1  0  0  0  0
 39 40  2  0  0  0  0
M  END
> <PUBCHEM_COMPOUND_ID_TYPE>
0

> <PUBCHEM_TOTAL_CHARGE>
0

> <PUBCHEM_SUBSTANCE_ID>
310942882

> <PUBCHEM_SUBSTANCE_VERSION>
1

> <PUBCHEM_EXT_DATASOURCE_NAME>
4488

> <PUBCHEM_EXT_DATASOURCE_REGID>
SCHEMBL16120940

> <PUBCHEM_SUBSTANCE_COMMENT>
InChI=1S/C32H40F3N5O3/c1-20-4-3-5-22(12-20)16-39-18-29(26-13-25(33)6-7-27(26)34)38-31(39)30(23-8-10-43-11-9-23)40(32(42)37-21(2)19-41)17-24-14-36-15-28(24)35/h3-7,12-13,18,21,23-24,28,30,36,41H,8-11,14-17,19H2,1-2H3,(H,37,42)/t21-,24-,28-,30+/m0/s1
InChIKey=WEHHUYNIIRSSEL-OKRKQUQJSA-N

> <PUBCHEM_SUBSTANCE_SYNONYM>
SCHEMBL16120940

> <PUBCHEM_XREF_EXT_ID>
SCHEMBL16120940

> <PUBCHEM_EXT_DATASOURCE_URL>
https://www.surechembl.org/

> <PUBCHEM_EXT_SUBSTANCE_URL>
https://www.surechembl.org/chemical/SCHEMBL16120940

> <PUBCHEM_CID_ASSOCIATIONS>
117609368  1

> <PUBCHEM_COORDINATE_TYPE>
1
3

> <PUBCHEM_BONDANNOTATIONS>
22  20  5
28  3  5
37  42  5
13  8  5

$$$$
