310934388
  -OEChem-07211613022D

 28 30  0     0  0  0  0  0  0999 V2000
    3.7719   -6.7595    0.0000 S   0  0  0  0  0  0  0  0  0  0  0  0
    2.9503   -2.6142    0.0000 F   0  0  0  0  0  0  0  0  0  0  0  0
    3.1370   -0.9710    0.0000 F   0  0  0  0  0  0  0  0  0  0  0  0
    1.7926    0.0000    0.0000 F   0  0  0  0  0  0  0  0  0  0  0  0
    0.7096   -3.6971    0.0000 O   0  0  0  0  0  0  0  0  0  0  0  0
    0.8589   -6.0125    0.0000 O   0  0  0  0  0  0  0  0  0  0  0  0
    4.5934   -6.7595    0.0000 O   0  0  0  0  0  0  0  0  0  0  0  0
    4.1827   -6.0125    0.0000 O   0  0  0  0  0  0  0  0  0  0  0  0
    0.0000   -7.4690    0.0000 O   0  0  0  0  0  0  0  0  0  0  0  0
    1.6805   -6.0125    0.0000 N   0  0  0  0  0  0  0  0  0  0  0  0
    0.8589   -4.5187    0.0000 N   0  0  0  0  0  0  0  0  0  0  0  0
    0.8589   -7.4690    0.0000 N   0  0  0  0  0  0  0  0  0  0  0  0
    2.0914   -6.7595    0.0000 C   0  0  0  0  0  0  0  0  0  0  0  0
    1.5312   -2.4648    0.0000 C   0  0  0  0  0  0  0  0  0  0  0  0
    1.4191   -3.2864    0.0000 C   0  0  0  0  0  0  0  0  0  0  0  0
    1.2698   -6.7595    0.0000 C   0  0  0  0  0  0  0  0  0  0  0  0
    2.5394   -7.4690    0.0000 C   0  0  0  0  0  0  0  0  0  0  0  0
    2.5394   -6.0499    0.0000 C   0  0  0  0  0  0  0  0  0  0  0  0
    2.2780   -2.1287    0.0000 C   0  0  0  0  0  0  0  0  0  0  0  0
    1.6805   -4.5934    0.0000 C   0  0  0  0  0  0  0  0  0  0  0  0
    3.3237   -7.4690    0.0000 C   0  0  0  0  0  0  0  0  0  0  0  0
    3.3237   -6.0499    0.0000 C   0  0  0  0  0  0  0  0  0  0  0  0
    2.0540   -3.8466    0.0000 C   0  0  0  0  0  0  0  0  0  0  0  0
    2.3528   -1.3071    0.0000 C   0  0  0  0  0  0  0  0  0  0  0  0
    2.0914   -5.3030    0.0000 C   0  0  0  0  0  0  0  0  0  0  0  0
    0.8589   -1.9793    0.0000 C   0  0  0  0  0  0  0  0  0  0  0  0
    1.7179   -0.8216    0.0000 C   0  0  0  0  0  0  0  0  0  0  0  0
    0.9337   -1.1577    0.0000 C   0  0  0  0  0  0  0  0  0  0  0  0
  1  7  2  0  0  0  0
  1  8  2  0  0  0  0
  1 21  1  0  0  0  0
  1 22  1  0  0  0  0
  2 19  1  0  0  0  0
  3 24  1  0  0  0  0
  4 27  1  0  0  0  0
  5 11  1  0  0  0  0
  5 15  1  0  0  0  0
  6 16  2  0  0  0  0
  9 12  1  0  0  0  0
 10 13  1  0  0  0  0
 10 25  1  0  0  0  0
 11 20  2  0  0  0  0
 12 16  1  0  0  0  0
 13 16  1  0  0  0  0
 13 17  1  0  0  0  0
 13 18  1  0  0  0  0
 14 15  1  0  0  0  0
 14 19  1  0  0  0  0
 14 26  2  0  0  0  0
 15 23  2  0  0  0  0
 17 21  1  0  0  0  0
 18 22  1  0  0  0  0
 19 24  2  0  0  0  0
 20 23  1  0  0  0  0
 20 25  1  0  0  0  0
 24 27  1  0  0  0  0
 26 28  1  0  0  0  0
 27 28  2  0  0  0  0
M  END
> <PUBCHEM_COMPOUND_ID_TYPE>
0

> <PUBCHEM_TOTAL_CHARGE>
0

> <PUBCHEM_SUBSTANCE_ID>
310934388

> <PUBCHEM_SUBSTANCE_VERSION>
1

> <PUBCHEM_EXT_DATASOURCE_NAME>
4488

> <PUBCHEM_EXT_DATASOURCE_REGID>
SCHEMBL16111859

> <PUBCHEM_SUBSTANCE_COMMENT>
InChI=1S/C16H16F3N3O5S/c17-11-2-1-10(13(18)14(11)19)12-7-9(22-27-12)8-20-16(15(23)21-24)3-5-28(25,26)6-4-16/h1-2,7,20,24H,3-6,8H2,(H,21,23)
InChIKey=ZOURMKNHPAULEF-UHFFFAOYSA-N

> <PUBCHEM_SUBSTANCE_SYNONYM>
SCHEMBL16111859

> <PUBCHEM_XREF_EXT_ID>
SCHEMBL16111859

> <PUBCHEM_EXT_DATASOURCE_URL>
https://www.surechembl.org/

> <PUBCHEM_EXT_SUBSTANCE_URL>
https://www.surechembl.org/chemical/SCHEMBL16111859

> <PUBCHEM_CID_ASSOCIATIONS>
117602612  1

> <PUBCHEM_COORDINATE_TYPE>
1
3

$$$$
