310929104
  -OEChem-07211613022D

 60 65  0     0  0  0  0  0  0999 V2000
    5.5275  -12.3750    0.0000 O   0  0  0  0  0  0  0  0  0  0  0  0
    2.6400   -9.9000    0.0000 O   0  0  0  0  0  0  0  0  0  0  0  0
    6.9300  -12.3750    0.0000 O   0  0  0  0  0  0  0  0  0  0  0  0
    3.3825  -14.4375    0.0000 O   0  0  0  0  0  0  0  0  0  0  0  0
    7.5900  -15.5925    0.0000 O   0  0  0  0  0  0  0  0  0  0  0  0
    2.8050   -4.9500    0.0000 O   0  0  0  0  0  0  0  0  0  0  0  0
    4.1250   -7.5075    0.0000 O   0  0  0  0  0  0  0  0  0  0  0  0
    0.6600   -4.5375    0.0000 O   0  0  0  0  0  0  0  0  0  0  0  0
    0.0000   -2.4750    0.0000 O   0  0  0  0  0  0  0  0  0  0  0  0
    1.4850   -0.8250    0.0000 O   0  0  0  0  0  0  0  0  0  0  0  0
    4.0425  -13.2000    0.0000 N   0  0  0  0  0  0  0  0  0  0  0  0
    2.6400  -13.2000    0.0000 N   0  0  0  0  0  0  0  0  0  0  0  0
    7.6725  -13.6125    0.0000 N   0  0  0  0  0  0  0  0  0  0  0  0
    1.9800   -8.6625    0.0000 N   0  0  0  0  0  0  0  0  0  0  0  0
    1.3200   -7.4250    0.0000 N   0  0  0  0  0  0  0  0  0  0  0  0
    0.5775   -8.6625    0.0000 N   0  0  0  0  0  0  0  0  0  0  0  0
    6.1875  -13.6125    0.0000 C   0  0  0  0  0  0  0  0  0  0  0  0
    5.5275  -13.2000    0.0000 C   0  0  0  0  0  0  0  0  0  0  0  0
    4.7850  -13.6125    0.0000 C   0  0  0  0  0  0  0  0  0  0  0  0
    5.5275  -14.8500    0.0000 C   0  0  0  0  0  0  0  0  0  0  0  0
    3.3000  -11.9625    0.0000 C   0  0  0  0  0  0  0  0  0  0  0  0
    3.3825  -11.1375    0.0000 C   0  0  0  0  0  0  0  0  0  0  0  0
    2.6400  -12.3750    0.0000 C   0  0  0  0  0  0  0  0  0  0  0  0
    6.1875  -14.4375    0.0000 C   0  0  0  0  0  0  0  0  0  0  0  0
    4.7850  -14.4375    0.0000 C   0  0  0  0  0  0  0  0  0  0  0  0
    5.5275  -15.6750    0.0000 C   0  0  0  0  0  0  0  0  0  0  0  0
    2.6400  -10.7250    0.0000 C   0  0  0  0  0  0  0  0  0  0  0  0
    6.9300  -13.2000    0.0000 C   0  0  0  0  0  0  0  0  0  0  0  0
    3.3825  -13.6125    0.0000 C   0  0  0  0  0  0  0  0  0  0  0  0
    1.8975  -11.9625    0.0000 C   0  0  0  0  0  0  0  0  0  0  0  0
    1.9800  -11.1375    0.0000 C   0  0  0  0  0  0  0  0  0  0  0  0
    4.0425  -12.3750    0.0000 C   0  0  0  0  0  0  0  0  0  0  0  0
    4.0425  -10.8075    0.0000 C   0  0  0  0  0  0  0  0  0  0  0  0
    1.9800   -9.4875    0.0000 C   0  0  0  0  0  0  0  0  0  0  0  0
    7.6725  -14.4375    0.0000 C   0  0  0  0  0  0  0  0  0  0  0  0
    4.9500  -12.2100    0.0000 C   0  0  0  0  0  0  0  0  0  0  0  0
    4.7850  -11.2200    0.0000 C   0  0  0  0  0  0  0  0  0  0  0  0
    4.6200  -15.6750    0.0000 C   0  0  0  0  0  0  0  0  0  0  0  0
    5.5275  -16.5000    0.0000 C   0  0  0  0  0  0  0  0  0  0  0  0
    6.3525  -15.6750    0.0000 C   0  0  0  0  0  0  0  0  0  0  0  0
    1.3200   -8.2500    0.0000 C   0  0  0  0  0  0  0  0  0  0  0  0
    1.2375   -9.9000    0.0000 C   0  0  0  0  0  0  0  0  0  0  0  0
    7.0125  -15.0150    0.0000 C   0  0  0  0  0  0  0  0  0  0  0  0
    8.2500  -15.0150    0.0000 C   0  0  0  0  0  0  0  0  0  0  0  0
    4.7850  -11.9625    0.0000 C   0  0  0  0  0  0  0  0  0  0  0  0
    2.0625   -7.0125    0.0000 C   0  0  0  0  0  0  0  0  0  0  0  0
    0.5775   -9.4875    0.0000 C   0  0  0  0  0  0  0  0  0  0  0  0
    2.0625   -6.1875    0.0000 C   0  0  0  0  0  0  0  0  0  0  0  0
    2.8050   -5.7750    0.0000 C   0  0  0  0  0  0  0  0  0  0  0  0
    2.7225   -7.4250    0.0000 C   0  0  0  0  0  0  0  0  0  0  0  0
    3.4650   -7.0950    0.0000 C   0  0  0  0  0  0  0  0  0  0  0  0
    3.4650   -6.2700    0.0000 C   0  0  0  0  0  0  0  0  0  0  0  0
    2.1450   -4.5375    0.0000 C   0  0  0  0  0  0  0  0  0  0  0  0
    4.8675   -7.0950    0.0000 C   0  0  0  0  0  0  0  0  0  0  0  0
    1.4025   -4.9500    0.0000 C   0  0  0  0  0  0  0  0  0  0  0  0
    0.7425   -3.7125    0.0000 C   0  0  0  0  0  0  0  0  0  0  0  0
    0.0000   -3.3000    0.0000 C   0  0  0  0  0  0  0  0  0  0  0  0
    0.7425   -2.0625    0.0000 C   0  0  0  0  0  0  0  0  0  0  0  0
    0.7425   -1.2375    0.0000 C   0  0  0  0  0  0  0  0  0  0  0  0
    1.4850    0.0000    0.0000 C   0  0  0  0  0  0  0  0  0  0  0  0
  1 18  1  0  0  0  0
  1 45  1  0  0  0  0
  2 27  1  0  0  0  0
  2 34  1  0  0  0  0
  3 28  2  0  0  0  0
  4 29  2  0  0  0  0
  5 43  1  0  0  0  0
  5 44  1  0  0  0  0
  6 49  1  0  0  0  0
  6 53  1  0  0  0  0
  7 51  1  0  0  0  0
  7 54  1  0  0  0  0
  8 55  1  0  0  0  0
  8 56  1  0  0  0  0
  9 57  1  0  0  0  0
  9 58  1  0  0  0  0
 10 59  1  0  0  0  0
 10 60  1  0  0  0  0
 11 19  1  0  0  0  0
 11 29  1  0  0  0  0
 12 23  1  0  0  0  0
 12 29  1  0  0  0  0
 13 28  1  0  0  0  0
 13 35  1  0  0  0  0
 14 34  2  0  0  0  0
 14 41  1  0  0  0  0
 15 41  1  0  0  0  0
 15 46  1  0  0  0  0
 16 41  2  0  0  0  0
 16 47  1  0  0  0  0
 17 18  2  0  0  0  0
 17 24  1  0  0  0  0
 17 28  1  0  0  0  0
 18 19  1  0  0  0  0
 19 25  2  0  0  0  0
 20 24  2  0  0  0  0
 20 25  1  0  0  0  0
 20 26  1  0  0  0  0
 21 22  2  0  0  0  0
 21 23  1  0  0  0  0
 21 32  1  0  0  0  0
 22 27  1  0  0  0  0
 22 33  1  0  0  0  0
 23 30  2  0  0  0  0
 26 38  1  0  0  0  0
 26 39  1  0  0  0  0
 26 40  1  0  0  0  0
 27 31  2  0  0  0  0
 30 31  1  0  0  0  0
 32 36  2  0  0  0  0
 33 37  2  0  0  0  0
 34 42  1  0  0  0  0
 35 43  1  0  0  0  0
 35 44  1  0  0  0  0
 36 37  1  0  0  0  0
 42 47  2  0  0  0  0
 46 48  2  0  0  0  0
 46 50  1  0  0  0  0
 48 49  1  0  0  0  0
 49 52  2  0  0  0  0
 50 51  2  0  0  0  0
 51 52  1  0  0  0  0
 53 55  1  0  0  0  0
 56 57  1  0  0  0  0
 58 59  1  0  0  0  0
M  END
> <PUBCHEM_COMPOUND_ID_TYPE>
0

> <PUBCHEM_TOTAL_CHARGE>
0

> <PUBCHEM_SUBSTANCE_ID>
310929104

> <PUBCHEM_SUBSTANCE_VERSION>
1

> <PUBCHEM_EXT_DATASOURCE_NAME>
4488

> <PUBCHEM_EXT_DATASOURCE_REGID>
SCHEMBL16106266

> <PUBCHEM_SUBSTANCE_COMMENT>
InChI=1S/C44H52N6O10/c1-44(2,3)28-21-35(41(51)46-30-26-58-27-30)40(55-6)37(22-28)49-43(52)48-36-11-12-38(34-10-8-7-9-33(34)36)60-39-13-14-45-42(50-39)47-29-23-31(54-5)25-32(24-29)59-20-19-57-18-17-56-16-15-53-4/h7-14,21-25,30H,15-20,26-27H2,1-6H3,(H,46,51)(H,45,47,50)(H2,48,49,52)
InChIKey=PAZVWIGCRYUCKP-UHFFFAOYSA-N

> <PUBCHEM_SUBSTANCE_SYNONYM>
SCHEMBL16106266

> <PUBCHEM_XREF_EXT_ID>
SCHEMBL16106266

> <PUBCHEM_EXT_DATASOURCE_URL>
https://www.surechembl.org/

> <PUBCHEM_EXT_SUBSTANCE_URL>
https://www.surechembl.org/chemical/SCHEMBL16106266

> <PUBCHEM_CID_ASSOCIATIONS>
86274027  1

> <PUBCHEM_COORDINATE_TYPE>
1
3

$$$$
