310928846
  -OEChem-07211613022D

 11 11  0     0  0  0  0  0  0999 V2000
   -1.7862   -0.8250    0.0000 F   0  0  0  0  0  0  0  0  0  0  0  0
   -1.0717   -1.2375    0.0000 F   0  0  0  0  0  0  0  0  0  0  0  0
   -1.7862   -0.0000    0.0000 F   0  0  0  0  0  0  0  0  0  0  0  0
    0.3572   -0.4125    0.0000 N   0  0  0  0  0  0  0  0  0  0  0  0
    0.3572    1.2375    0.0000 N   0  0  0  0  0  0  0  0  0  0  0  0
    1.7862    1.2375    0.0000 N   0  0  0  0  0  0  0  0  0  0  0  0
   -1.0717   -0.4125    0.0000 C   0  0  0  0  0  0  0  0  0  0  0  0
   -0.3572   -0.0000    0.0000 C   0  0  0  0  0  0  0  0  0  0  0  0
   -0.3572    0.8250    0.0000 C   0  0  0  0  0  0  0  0  0  0  0  0
    1.0717    0.8250    0.0000 C   0  0  0  0  0  0  0  0  0  0  0  0
    1.0717   -0.0000    0.0000 C   0  0  0  0  0  0  0  0  0  0  0  0
  1  7  1  0  0  0  0
  2  7  1  0  0  0  0
  3  7  1  0  0  0  0
  4  8  2  0  0  0  0
  4 11  1  0  0  0  0
  5  9  2  0  0  0  0
  5 10  1  0  0  0  0
  6 10  1  0  0  0  0
  7  8  1  0  0  0  0
  8  9  1  0  0  0  0
 10 11  2  0  0  0  0
M  END
> <PUBCHEM_COMPOUND_ID_TYPE>
0

> <PUBCHEM_TOTAL_CHARGE>
0

> <PUBCHEM_SUBSTANCE_ID>
310928846

> <PUBCHEM_SUBSTANCE_VERSION>
1

> <PUBCHEM_EXT_DATASOURCE_NAME>
11752

> <PUBCHEM_EXT_DATASOURCE_REGID>
BD159664

> <PUBCHEM_SUBSTANCE_SYNONYM>
5-(Trifluoromethyl)pyrazin-2-amine
69816-38-2

> <PUBCHEM_GENERIC_REGISTRY_NAME>
69816-38-2

> <PUBCHEM_XREF_EXT_ID>
BD159664

> <PUBCHEM_EXT_DATASOURCE_URL>
http://www.bidepharmatech.com/en/index.html

> <PUBCHEM_EXT_SUBSTANCE_URL>
http://www.bidepharmatech.com/en/goodsview_goodscode_BD159664.html

> <PUBCHEM_CID_ASSOCIATIONS>
13341115  1

> <PUBCHEM_COORDINATE_TYPE>
1
3

$$$$
