310949176
  -OEChem-07211613022D

 24 26  0     0  0  0  0  0  0999 V2000
    1.0860   -0.6217    0.0000 S   0  0  0  0  0  0  0  0  0  0  0  0
    2.0747   -0.6217    0.0000 O   0  0  0  0  0  0  0  0  0  0  0  0
    0.2472   -0.6217    0.0000 O   0  0  0  0  0  0  0  0  0  0  0  0
    2.5541    0.2022    0.0000 O   0  0  0  0  0  0  0  0  0  0  0  0
    1.1010    2.6889    0.0000 O   0  0  0  0  0  0  0  0  0  0  0  0
   -0.3520    2.6889    0.0000 O   0  0  0  0  0  0  0  0  0  0  0  0
    1.0860   -1.4306    0.0000 N   0  0  0  0  0  0  0  0  0  0  0  0
    1.1010    0.2322    0.0000 C   0  0  0  0  0  0  0  0  0  0  0  0
    1.8200    0.6366    0.0000 C   0  0  0  0  0  0  0  0  0  0  0  0
    0.3820    1.4605    0.0000 C   0  0  0  0  0  0  0  0  0  0  0  0
    0.3820    0.6217    0.0000 C   0  0  0  0  0  0  0  0  0  0  0  0
    1.8200   -1.8650    0.0000 C   0  0  0  0  0  0  0  0  0  0  0  0
    1.8200   -2.6889    0.0000 C   0  0  0  0  0  0  0  0  0  0  0  0
    1.1010    1.8650    0.0000 C   0  0  0  0  0  0  0  0  0  0  0  0
    1.8200    1.4455    0.0000 C   0  0  0  0  0  0  0  0  0  0  0  0
   -0.3670    1.8500    0.0000 C   0  0  0  0  0  0  0  0  0  0  0  0
   -1.0711    1.4605    0.0000 C   0  0  0  0  0  0  0  0  0  0  0  0
   -1.8051    1.8500    0.0000 C   0  0  0  0  0  0  0  0  0  0  0  0
   -1.0860    0.6366    0.0000 C   0  0  0  0  0  0  0  0  0  0  0  0
    3.2731    0.6217    0.0000 C   0  0  0  0  0  0  0  0  0  0  0  0
   -2.5241    1.4605    0.0000 C   0  0  0  0  0  0  0  0  0  0  0  0
   -1.8051    0.2172    0.0000 C   0  0  0  0  0  0  0  0  0  0  0  0
   -2.5391    0.6366    0.0000 C   0  0  0  0  0  0  0  0  0  0  0  0
   -3.2731    0.2022    0.0000 C   0  0  0  0  0  0  0  0  0  0  0  0
  1  2  2  0  0  0  0
  1  3  2  0  0  0  0
  1  7  1  0  0  0  0
  1  8  1  0  0  0  0
  4  9  1  0  0  0  0
  4 20  1  0  0  0  0
  5 14  1  0  0  0  0
  6 16  2  0  0  0  0
  7 12  1  0  0  0  0
  7 13  1  0  0  0  0
  8  9  2  0  0  0  0
  8 11  1  0  0  0  0
  9 15  1  0  0  0  0
 10 11  2  0  0  0  0
 10 14  1  0  0  0  0
 10 16  1  0  0  0  0
 12 13  1  0  0  0  0
 14 15  2  0  0  0  0
 16 17  1  0  0  0  0
 17 18  2  0  0  0  0
 17 19  1  0  0  0  0
 18 21  1  0  0  0  0
 19 22  2  0  0  0  0
 21 23  2  0  0  0  0
 22 23  1  0  0  0  0
 23 24  1  0  0  0  0
M  END
> <PUBCHEM_COMPOUND_ID_TYPE>
0

> <PUBCHEM_TOTAL_CHARGE>
0

> <PUBCHEM_SUBSTANCE_ID>
310949176

> <PUBCHEM_SUBSTANCE_VERSION>
1

> <PUBCHEM_EXT_DATASOURCE_NAME>
4488

> <PUBCHEM_EXT_DATASOURCE_REGID>
SCHEMBL16127366

> <PUBCHEM_SUBSTANCE_COMMENT>
InChI=1S/C17H17NO5S/c1-11-3-5-12(6-4-11)17(20)13-9-16(15(23-2)10-14(13)19)24(21,22)18-7-8-18/h3-6,9-10,19H,7-8H2,1-2H3
InChIKey=CAVZJOPLQJLDTF-UHFFFAOYSA-N

> <PUBCHEM_SUBSTANCE_SYNONYM>
SCHEMBL16127366

> <PUBCHEM_XREF_EXT_ID>
SCHEMBL16127366

> <PUBCHEM_EXT_DATASOURCE_URL>
https://www.surechembl.org/

> <PUBCHEM_EXT_SUBSTANCE_URL>
https://www.surechembl.org/chemical/SCHEMBL16127366

> <PUBCHEM_CID_ASSOCIATIONS>
117614668  1

> <PUBCHEM_COORDINATE_TYPE>
1
3

$$$$
