310947368
  -OEChem-07211613022D

 18 20  0     0  0  0  0  0  0999 V2000
    0.3625   -2.0014    0.0000 N   0  0  0  0  0  0  0  0  0  0  0  0
    0.1076   -1.2167    0.0000 N   0  0  0  0  0  0  0  0  0  0  0  0
   -0.7174   -1.2167    0.0000 N   0  0  0  0  0  0  0  0  0  0  0  0
   -0.3049   -3.3113    0.0000 C   0  0  0  0  0  0  0  0  0  0  0  0
   -1.0194   -3.7238    0.0000 C   0  0  0  0  0  0  0  0  0  0  0  0
   -0.3049   -2.4863    0.0000 C   0  0  0  0  0  0  0  0  0  0  0  0
   -1.7339   -3.3113    0.0000 C   0  0  0  0  0  0  0  0  0  0  0  0
    0.4095   -3.7238    0.0000 C   0  0  0  0  0  0  0  0  0  0  0  0
   -1.0194   -4.5488    0.0000 C   0  0  0  0  0  0  0  0  0  0  0  0
   -0.9724   -2.0014    0.0000 C   0  0  0  0  0  0  0  0  0  0  0  0
   -1.7339   -2.4863    0.0000 C   0  0  0  0  0  0  0  0  0  0  0  0
   -2.4484   -3.7238    0.0000 C   0  0  0  0  0  0  0  0  0  0  0  0
    0.4095   -4.5488    0.0000 C   0  0  0  0  0  0  0  0  0  0  0  0
   -0.3049   -4.9613    0.0000 C   0  0  0  0  0  0  0  0  0  0  0  0
   -3.1628   -2.4863    0.0000 C   0  0  0  0  0  0  0  0  0  0  0  0
   -2.4484   -2.0738    0.0000 C   0  0  0  0  0  0  0  0  0  0  0  0
   -3.1628   -3.3113    0.0000 C   0  0  0  0  0  0  0  0  0  0  0  0
   -3.8773   -2.0738    0.0000 C   0  0  0  0  0  0  0  0  0  0  0  0
  1  2  1  0  0  0  0
  1  6  2  0  0  0  0
  2  3  2  0  0  0  0
  3 10  1  0  0  0  0
  4  5  1  0  0  0  0
  4  6  1  0  0  0  0
  4  8  2  0  0  0  0
  5  7  1  0  0  0  0
  5  9  2  0  0  0  0
  6 10  1  0  0  0  0
  7 11  2  0  0  0  0
  7 12  1  0  0  0  0
  8 13  1  0  0  0  0
  9 14  1  0  0  0  0
 11 16  1  0  0  0  0
 12 17  2  0  0  0  0
 13 14  2  0  0  0  0
 15 16  2  0  0  0  0
 15 17  1  0  0  0  0
 15 18  1  0  0  0  0
M  END
> <PUBCHEM_COMPOUND_ID_TYPE>
0

> <PUBCHEM_TOTAL_CHARGE>
0

> <PUBCHEM_SUBSTANCE_ID>
310947368

> <PUBCHEM_SUBSTANCE_VERSION>
1

> <PUBCHEM_EXT_DATASOURCE_NAME>
4488

> <PUBCHEM_EXT_DATASOURCE_REGID>
SCHEMBL16125524

> <PUBCHEM_SUBSTANCE_COMMENT>
InChI=1S/C15H13N3/c1-11-6-8-12(9-7-11)13-4-2-3-5-14(13)15-10-16-18-17-15/h2-9H,10H2,1H3
InChIKey=KWDMNHPUUZMHAS-UHFFFAOYSA-N

> <PUBCHEM_SUBSTANCE_SYNONYM>
SCHEMBL16125524

> <PUBCHEM_XREF_EXT_ID>
SCHEMBL16125524

> <PUBCHEM_EXT_DATASOURCE_URL>
https://www.surechembl.org/

> <PUBCHEM_EXT_SUBSTANCE_URL>
https://www.surechembl.org/chemical/SCHEMBL16125524

> <PUBCHEM_CID_ASSOCIATIONS>
117613113  1

> <PUBCHEM_COORDINATE_TYPE>
1
3

$$$$
