310949069
  -OEChem-07211613022D

 35 39  0     0  0  0  0  0  0999 V2000
    0.2211   -0.3506    0.0000 F   0  0  0  0  0  0  0  0  0  0  0  0
   -2.6603   -0.3506    0.0000 F   0  0  0  0  0  0  0  0  0  0  0  0
   -2.6603   -1.9971    0.0000 F   0  0  0  0  0  0  0  0  0  0  0  0
    0.2211   -2.0124    0.0000 F   0  0  0  0  0  0  0  0  0  0  0  0
   -1.2272   -2.8204    0.0000 F   0  0  0  0  0  0  0  0  0  0  0  0
   -3.0415    1.3568    0.0000 F   0  0  0  0  0  0  0  0  0  0  0  0
   -3.4073    2.4545    0.0000 F   0  0  0  0  0  0  0  0  0  0  0  0
   -2.2944    2.8204    0.0000 F   0  0  0  0  0  0  0  0  0  0  0  0
    1.1053    0.4879    0.0000 N   0  0  0  0  0  0  0  0  0  0  0  0
   -0.5260    0.9147    0.0000 C   0  0  0  0  0  0  0  0  0  0  0  0
   -1.2120    0.5031    0.0000 C   0  0  0  0  0  0  0  0  0  0  0  0
    1.2882   -0.3049    0.0000 C   0  0  0  0  0  0  0  0  0  0  0  0
    1.8066    0.9147    0.0000 C   0  0  0  0  0  0  0  0  0  0  0  0
   -1.2425   -0.3354    0.0000 C   0  0  0  0  0  0  0  0  0  0  0  0
    2.0809   -0.4116    0.0000 C   0  0  0  0  0  0  0  0  0  0  0  0
    2.4469    0.3659    0.0000 C   0  0  0  0  0  0  0  0  0  0  0  0
   -0.5107    1.7380    0.0000 C   0  0  0  0  0  0  0  0  0  0  0  0
   -0.5107   -0.7318    0.0000 C   0  0  0  0  0  0  0  0  0  0  0  0
   -1.9285   -0.7318    0.0000 C   0  0  0  0  0  0  0  0  0  0  0  0
   -1.9590    0.8995    0.0000 C   0  0  0  0  0  0  0  0  0  0  0  0
   -1.9438    1.7227    0.0000 C   0  0  0  0  0  0  0  0  0  0  0  0
   -1.2577    2.1191    0.0000 C   0  0  0  0  0  0  0  0  0  0  0  0
   -1.9742   -1.5703    0.0000 C   0  0  0  0  0  0  0  0  0  0  0  0
   -0.5412   -1.5550    0.0000 C   0  0  0  0  0  0  0  0  0  0  0  0
   -1.2425   -1.9667    0.0000 C   0  0  0  0  0  0  0  0  0  0  0  0
    0.7851   -0.9604    0.0000 C   0  0  0  0  0  0  0  0  0  0  0  0
    2.0505    1.7074    0.0000 C   0  0  0  0  0  0  0  0  0  0  0  0
   -2.6755    2.1038    0.0000 C   0  0  0  0  0  0  0  0  0  0  0  0
    3.2243    0.5946    0.0000 C   0  0  0  0  0  0  0  0  0  0  0  0
    2.4164   -1.1586    0.0000 C   0  0  0  0  0  0  0  0  0  0  0  0
    0.2363    2.1038    0.0000 C   0  0  0  0  0  0  0  0  0  0  0  0
    1.1053   -1.7074    0.0000 C   0  0  0  0  0  0  0  0  0  0  0  0
    2.8127    1.9209    0.0000 C   0  0  0  0  0  0  0  0  0  0  0  0
    3.4073    1.4025    0.0000 C   0  0  0  0  0  0  0  0  0  0  0  0
    1.9438   -1.7989    0.0000 C   0  0  0  0  0  0  0  0  0  0  0  0
  1 18  1  0  0  0  0
  2 19  1  0  0  0  0
  3 23  1  0  0  0  0
  4 24  1  0  0  0  0
  5 25  1  0  0  0  0
  6 28  1  0  0  0  0
  7 28  1  0  0  0  0
  8 28  1  0  0  0  0
  9 10  1  0  0  0  0
  9 12  1  0  0  0  0
  9 13  1  0  0  0  0
 10 11  2  0  0  0  0
 10 17  1  0  0  0  0
 11 14  1  0  0  0  0
 11 20  1  0  0  0  0
 12 15  2  0  0  0  0
 12 26  1  0  0  0  0
 13 16  2  0  0  0  0
 13 27  1  0  0  0  0
 14 18  2  0  0  0  0
 14 19  1  0  0  0  0
 15 16  1  0  0  0  0
 15 30  1  0  0  0  0
 16 29  1  0  0  0  0
 17 22  2  0  0  0  0
 17 31  1  0  0  0  0
 18 24  1  0  0  0  0
 19 23  2  0  0  0  0
 20 21  2  0  0  0  0
 21 22  1  0  0  0  0
 21 28  1  0  0  0  0
 23 25  1  0  0  0  0
 24 25  2  0  0  0  0
 26 32  2  0  0  0  0
 27 33  2  0  0  0  0
 29 34  2  0  0  0  0
 30 35  2  0  0  0  0
 32 35  1  0  0  0  0
 33 34  1  0  0  0  0
M  END
> <PUBCHEM_COMPOUND_ID_TYPE>
0

> <PUBCHEM_TOTAL_CHARGE>
0

> <PUBCHEM_SUBSTANCE_ID>
310949069

> <PUBCHEM_SUBSTANCE_VERSION>
1

> <PUBCHEM_EXT_DATASOURCE_NAME>
4488

> <PUBCHEM_EXT_DATASOURCE_REGID>
SCHEMBL16127259

> <PUBCHEM_SUBSTANCE_COMMENT>
InChI=1S/C26H13F8N/c1-12-10-13(26(32,33)34)11-16(19-20(27)22(29)24(31)23(30)21(19)28)25(12)35-17-8-4-2-6-14(17)15-7-3-5-9-18(15)35/h2-11H,1H3
InChIKey=JBCGEQYXUUOJBF-UHFFFAOYSA-N

> <PUBCHEM_SUBSTANCE_SYNONYM>
SCHEMBL16127259

> <PUBCHEM_XREF_EXT_ID>
SCHEMBL16127259

> <PUBCHEM_EXT_DATASOURCE_URL>
https://www.surechembl.org/

> <PUBCHEM_EXT_SUBSTANCE_URL>
https://www.surechembl.org/chemical/SCHEMBL16127259

> <PUBCHEM_CID_ASSOCIATIONS>
117614574  1

> <PUBCHEM_COORDINATE_TYPE>
1
3

$$$$
