310946001
  -OEChem-07211613022D

 13 14  0     1  0  0  0  0  0999 V2000
    1.0896   -0.6286    0.0000 O   0  0  0  0  0  0  0  0  0  0  0  0
   -1.0896   -1.0197    0.0000 C   0  0  3  0  0  0  0  0  0  0  0  0
   -1.0616   -0.1816    0.0000 C   0  0  0  0  0  0  0  0  0  0  0  0
   -0.3352    0.2375    0.0000 C   0  0  0  0  0  0  0  0  0  0  0  0
   -0.3352   -1.4109    0.0000 C   0  0  0  0  0  0  0  0  0  0  0  0
    0.3632   -1.0197    0.0000 C   0  0  3  0  0  0  0  0  0  0  0  0
    1.0896   -1.4388    0.0000 C   0  0  0  0  0  0  0  0  0  0  0  0
   -0.3073    1.0477    0.0000 C   0  0  0  0  0  0  0  0  0  0  0  0
    0.3632   -0.1816    0.0000 C   0  0  0  0  0  0  0  0  0  0  0  0
    0.3632    1.4388    0.0000 C   0  0  0  0  0  0  0  0  0  0  0  0
    1.0896    0.2095    0.0000 C   0  0  0  0  0  0  0  0  0  0  0  0
   -0.0280   -0.3213    0.0000 C   0  0  0  0  0  0  0  0  0  0  0  0
    1.0896    1.0477    0.0000 C   0  0  0  0  0  0  0  0  0  0  0  0
  1  2  1  0  0  0  0
  1  7  1  0  0  0  0
  2  3  1  0  0  0  0
  2  5  1  0  0  0  0
  3  4  1  0  0  0  0
  4  8  2  0  0  0  0
  4  9  1  0  0  0  0
  5  6  1  0  0  0  0
  6  7  1  0  0  0  0
  6 12  1  1  0  0  0
  8 10  1  0  0  0  0
  9 11  2  0  0  0  0
 10 13  2  0  0  0  0
 11 13  1  0  0  0  0
M  END
> <PUBCHEM_COMPOUND_ID_TYPE>
0

> <PUBCHEM_TOTAL_CHARGE>
0

> <PUBCHEM_SUBSTANCE_ID>
310946001

> <PUBCHEM_SUBSTANCE_VERSION>
1

> <PUBCHEM_EXT_DATASOURCE_NAME>
4488

> <PUBCHEM_EXT_DATASOURCE_REGID>
SCHEMBL16124107

> <PUBCHEM_SUBSTANCE_COMMENT>
InChI=1S/C12H16O/c1-10-7-12(13-9-10)8-11-5-3-2-4-6-11/h2-6,10,12H,7-9H2,1H3/t10-,12?/m1/s1
InChIKey=LXNRPRHXFIXJHD-RWANSRKNSA-N

> <PUBCHEM_SUBSTANCE_SYNONYM>
SCHEMBL16124107

> <PUBCHEM_XREF_EXT_ID>
SCHEMBL16124107

> <PUBCHEM_EXT_DATASOURCE_URL>
https://www.surechembl.org/

> <PUBCHEM_EXT_SUBSTANCE_URL>
https://www.surechembl.org/chemical/SCHEMBL16124107

> <PUBCHEM_CID_ASSOCIATIONS>
117611972  1

> <PUBCHEM_COORDINATE_TYPE>
1
3

> <PUBCHEM_BONDANNOTATIONS>
2  1  3
6  12  5

$$$$
