310944376
  -OEChem-07211613022D

 36 40  0     0  0  0  0  0  0999 V2000
   -0.0258    3.1109    0.0000 F   0  0  0  0  0  0  0  0  0  0  0  0
   -0.0430   -0.2578    0.0000 N   0  0  0  0  0  0  0  0  0  0  0  0
    2.1398    2.6124    0.0000 N   0  0  0  0  0  0  0  0  0  0  0  0
   -2.1914    2.6124    0.0000 N   0  0  0  0  0  0  0  0  0  0  0  0
   -0.0258    0.6187    0.0000 C   0  0  0  0  0  0  0  0  0  0  0  0
   -0.7477   -0.6359    0.0000 C   0  0  0  0  0  0  0  0  0  0  0  0
    0.7133   -0.6531    0.0000 C   0  0  0  0  0  0  0  0  0  0  0  0
    0.6961    1.0312    0.0000 C   0  0  0  0  0  0  0  0  0  0  0  0
   -0.7305    1.0312    0.0000 C   0  0  0  0  0  0  0  0  0  0  0  0
    0.6961    1.8734    0.0000 C   0  0  0  0  0  0  0  0  0  0  0  0
   -0.7477    1.8734    0.0000 C   0  0  0  0  0  0  0  0  0  0  0  0
   -0.0430    2.2859    0.0000 C   0  0  0  0  0  0  0  0  0  0  0  0
   -1.4695   -0.2406    0.0000 C   0  0  0  0  0  0  0  0  0  0  0  0
   -2.1914   -0.6531    0.0000 C   0  0  0  0  0  0  0  0  0  0  0  0
    0.7133   -1.4781    0.0000 C   0  0  0  0  0  0  0  0  0  0  0  0
    1.4008   -0.2578    0.0000 C   0  0  0  0  0  0  0  0  0  0  0  0
   -0.7820   -1.4953    0.0000 C   0  0  0  0  0  0  0  0  0  0  0  0
    2.1226   -1.4781    0.0000 C   0  0  0  0  0  0  0  0  0  0  0  0
   -2.9304   -0.2234    0.0000 C   0  0  0  0  0  0  0  0  0  0  0  0
    1.4351   -1.8734    0.0000 C   0  0  0  0  0  0  0  0  0  0  0  0
    2.1398   -0.6531    0.0000 C   0  0  0  0  0  0  0  0  0  0  0  0
   -2.1742   -1.4781    0.0000 C   0  0  0  0  0  0  0  0  0  0  0  0
   -1.4695   -1.8734    0.0000 C   0  0  0  0  0  0  0  0  0  0  0  0
    1.4179    2.2687    0.0000 C   0  0  0  0  0  0  0  0  0  0  0  0
   -1.4867    2.2687    0.0000 C   0  0  0  0  0  0  0  0  0  0  0  0
    2.8961   -1.8906    0.0000 C   0  0  0  0  0  0  0  0  0  0  0  0
   -2.9304    0.6016    0.0000 C   0  0  0  0  0  0  0  0  0  0  0  0
   -3.6695   -0.6187    0.0000 C   0  0  0  0  0  0  0  0  0  0  0  0
    2.8961   -2.7156    0.0000 C   0  0  0  0  0  0  0  0  0  0  0  0
    3.6180   -1.4953    0.0000 C   0  0  0  0  0  0  0  0  0  0  0  0
   -3.6351    1.0141    0.0000 C   0  0  0  0  0  0  0  0  0  0  0  0
   -4.3398   -0.2406    0.0000 C   0  0  0  0  0  0  0  0  0  0  0  0
    3.6351   -3.1109    0.0000 C   0  0  0  0  0  0  0  0  0  0  0  0
    4.3398   -1.8906    0.0000 C   0  0  0  0  0  0  0  0  0  0  0  0
   -4.3398    0.6016    0.0000 C   0  0  0  0  0  0  0  0  0  0  0  0
    4.3398   -2.7156    0.0000 C   0  0  0  0  0  0  0  0  0  0  0  0
  1 12  1  0  0  0  0
  2  5  1  0  0  0  0
  2  6  1  0  0  0  0
  2  7  1  0  0  0  0
  3 24  3  0  0  0  0
  4 25  3  0  0  0  0
  5  8  2  0  0  0  0
  5  9  1  0  0  0  0
  6 13  2  0  0  0  0
  6 17  1  0  0  0  0
  7 15  2  0  0  0  0
  7 16  1  0  0  0  0
  8 10  1  0  0  0  0
  9 11  2  0  0  0  0
 10 12  2  0  0  0  0
 10 24  1  0  0  0  0
 11 12  1  0  0  0  0
 11 25  1  0  0  0  0
 13 14  1  0  0  0  0
 14 19  1  0  0  0  0
 14 22  2  0  0  0  0
 15 20  1  0  0  0  0
 16 21  2  0  0  0  0
 17 23  2  0  0  0  0
 18 20  2  0  0  0  0
 18 21  1  0  0  0  0
 18 26  1  0  0  0  0
 19 27  2  0  0  0  0
 19 28  1  0  0  0  0
 22 23  1  0  0  0  0
 26 29  2  0  0  0  0
 26 30  1  0  0  0  0
 27 31  1  0  0  0  0
 28 32  2  0  0  0  0
 29 33  1  0  0  0  0
 30 34  2  0  0  0  0
 31 35  2  0  0  0  0
 32 35  1  0  0  0  0
 33 36  2  0  0  0  0
 34 36  1  0  0  0  0
M  END
> <PUBCHEM_COMPOUND_ID_TYPE>
0

> <PUBCHEM_TOTAL_CHARGE>
0

> <PUBCHEM_SUBSTANCE_ID>
310944376

> <PUBCHEM_SUBSTANCE_VERSION>
1

> <PUBCHEM_EXT_DATASOURCE_NAME>
4488

> <PUBCHEM_EXT_DATASOURCE_REGID>
SCHEMBL16122451

> <PUBCHEM_SUBSTANCE_COMMENT>
InChI=1S/C32H20FN3/c33-32-27(21-34)19-31(20-28(32)22-35)36(29-16-14-25(15-17-29)23-8-3-1-4-9-23)30-13-7-12-26(18-30)24-10-5-2-6-11-24/h1-20H
InChIKey=SKACZYCEPAGDHI-UHFFFAOYSA-N

> <PUBCHEM_SUBSTANCE_SYNONYM>
SCHEMBL16122451

> <PUBCHEM_XREF_EXT_ID>
SCHEMBL16122451

> <PUBCHEM_EXT_DATASOURCE_URL>
https://www.surechembl.org/

> <PUBCHEM_EXT_SUBSTANCE_URL>
https://www.surechembl.org/chemical/SCHEMBL16122451

> <PUBCHEM_CID_ASSOCIATIONS>
117610633  1

> <PUBCHEM_COORDINATE_TYPE>
1
3

$$$$
