310946381
  -OEChem-07211613022D

 32 34  0     0  0  0  0  0  0999 V2000
    0.0000   -1.0313    0.0000 I   0  0  0  0  0  0  0  0  0  0  0  0
    1.4290    1.4438    0.0000 I   0  0  0  0  0  0  0  0  0  0  0  0
    0.0000    0.6187    0.0000 O   0  0  0  0  0  0  0  0  0  0  0  0
   -2.8579   -1.0313    0.0000 O   0  0  0  0  0  0  0  0  0  0  0  0
   -2.8579    1.4438    0.0000 O   0  0  0  0  0  0  0  0  0  0  0  0
    5.0013   -0.6187    0.0000 O   0  0  0  0  0  0  0  0  0  0  0  0
    4.2868   -1.8562    0.0000 O   0  0  0  0  0  0  0  0  0  0  0  0
   -3.5723    0.2062    0.0000 N   0  0  0  0  0  0  0  0  0  0  0  0
    0.7145    0.2062    0.0000 C   0  0  0  0  0  0  0  0  0  0  0  0
   -2.1435    0.2062    0.0000 C   0  0  0  0  0  0  0  0  0  0  0  0
   -0.7145    0.2062    0.0000 C   0  0  0  0  0  0  0  0  0  0  0  0
    0.7145   -0.6187    0.0000 C   0  0  0  0  0  0  0  0  0  0  0  0
    1.4290    0.6187    0.0000 C   0  0  0  0  0  0  0  0  0  0  0  0
   -2.1435   -0.6187    0.0000 C   0  0  0  0  0  0  0  0  0  0  0  0
   -1.4290    0.6187    0.0000 C   0  0  0  0  0  0  0  0  0  0  0  0
   -2.8579    0.6187    0.0000 C   0  0  0  0  0  0  0  0  0  0  0  0
    2.1435   -0.6187    0.0000 C   0  0  0  0  0  0  0  0  0  0  0  0
    1.4290   -1.0313    0.0000 C   0  0  0  0  0  0  0  0  0  0  0  0
    2.1435    0.2062    0.0000 C   0  0  0  0  0  0  0  0  0  0  0  0
   -0.7145   -0.6187    0.0000 C   0  0  0  0  0  0  0  0  0  0  0  0
   -1.4290   -1.0313    0.0000 C   0  0  0  0  0  0  0  0  0  0  0  0
    2.8579   -1.0313    0.0000 C   0  0  0  0  0  0  0  0  0  0  0  0
   -4.2868    0.6187    0.0000 C   0  0  0  0  0  0  0  0  0  0  0  0
    3.5723   -0.6187    0.0000 C   0  0  0  0  0  0  0  0  0  0  0  0
   -4.2868    1.4438    0.0000 C   0  0  0  0  0  0  0  0  0  0  0  0
   -5.0013    0.2062    0.0000 C   0  0  0  0  0  0  0  0  0  0  0  0
   -2.8579   -1.8562    0.0000 C   0  0  0  0  0  0  0  0  0  0  0  0
    4.2868   -1.0313    0.0000 C   0  0  0  0  0  0  0  0  0  0  0  0
   -5.0013    1.8562    0.0000 C   0  0  0  0  0  0  0  0  0  0  0  0
   -5.7158    0.6187    0.0000 C   0  0  0  0  0  0  0  0  0  0  0  0
   -5.7158    1.4438    0.0000 C   0  0  0  0  0  0  0  0  0  0  0  0
    5.7158   -1.0313    0.0000 C   0  0  0  0  0  0  0  0  0  0  0  0
  1 12  1  0  0  0  0
  2 13  1  0  0  0  0
  3  9  1  0  0  0  0
  3 11  1  0  0  0  0
  4 14  1  0  0  0  0
  4 27  1  0  0  0  0
  5 16  2  0  0  0  0
  6 28  1  0  0  0  0
  6 32  1  0  0  0  0
  7 28  2  0  0  0  0
  8 16  1  0  0  0  0
  8 23  1  0  0  0  0
  9 12  2  0  0  0  0
  9 13  1  0  0  0  0
 10 14  2  0  0  0  0
 10 15  1  0  0  0  0
 10 16  1  0  0  0  0
 11 15  2  0  0  0  0
 11 20  1  0  0  0  0
 12 18  1  0  0  0  0
 13 19  2  0  0  0  0
 14 21  1  0  0  0  0
 17 18  2  0  0  0  0
 17 19  1  0  0  0  0
 17 22  1  0  0  0  0
 20 21  2  0  0  0  0
 22 24  1  0  0  0  0
 23 25  2  0  0  0  0
 23 26  1  0  0  0  0
 24 28  1  0  0  0  0
 25 29  1  0  0  0  0
 26 30  2  0  0  0  0
 29 31  2  0  0  0  0
 30 31  1  0  0  0  0
M  END
> <PUBCHEM_COMPOUND_ID_TYPE>
0

> <PUBCHEM_TOTAL_CHARGE>
0

> <PUBCHEM_SUBSTANCE_ID>
310946381

> <PUBCHEM_SUBSTANCE_VERSION>
1

> <PUBCHEM_EXT_DATASOURCE_NAME>
4488

> <PUBCHEM_EXT_DATASOURCE_REGID>
SCHEMBL16124500

> <PUBCHEM_SUBSTANCE_COMMENT>
InChI=1S/C24H21I2NO5/c1-30-21-10-9-17(14-18(21)24(29)27-16-6-4-3-5-7-16)32-23-19(25)12-15(13-20(23)26)8-11-22(28)31-2/h3-7,9-10,12-14H,8,11H2,1-2H3,(H,27,29)
InChIKey=GUNBSBYFZGHNKF-UHFFFAOYSA-N

> <PUBCHEM_SUBSTANCE_SYNONYM>
SCHEMBL16124500

> <PUBCHEM_XREF_EXT_ID>
SCHEMBL16124500

> <PUBCHEM_EXT_DATASOURCE_URL>
https://www.surechembl.org/

> <PUBCHEM_EXT_SUBSTANCE_URL>
https://www.surechembl.org/chemical/SCHEMBL16124500

> <PUBCHEM_CID_ASSOCIATIONS>
117612303  1

> <PUBCHEM_COORDINATE_TYPE>
1
3

$$$$
