310940258
  -OEChem-07211613022D

 25 26  0     1  0  0  0  0  0999 V2000
   -1.5882   -0.4327    0.0000 P   0  0  3  0  0  0  0  0  0  0  0  0
    2.0477   -2.3443    0.0000 F   0  0  0  0  0  0  0  0  0  0  0  0
    1.2227   -0.3603    0.0000 O   0  0  0  0  0  0  0  0  0  0  0  0
    0.3977   -2.3443    0.0000 O   0  0  0  0  0  0  0  0  0  0  0  0
   -0.8737   -0.8452    0.0000 O   0  0  0  0  0  0  0  0  0  0  0  0
    3.7316   -0.1307    0.0000 O   0  0  0  0  0  0  0  0  0  0  0  0
   -2.0007    0.2818    0.0000 O   0  0  0  0  0  0  0  0  0  0  0  0
    2.3026   -0.1307    0.0000 N   0  0  0  0  0  0  0  0  0  0  0  0
    3.0171    1.1068    0.0000 N   0  0  0  0  0  0  0  0  0  0  0  0
   -2.3026   -0.8452    0.0000 N   0  0  0  0  0  0  0  0  0  0  0  0
    1.6352   -1.6298    0.0000 C   0  0  3  0  0  0  0  0  0  0  0  0
    1.8901   -0.8452    0.0000 C   0  0  3  0  0  0  0  0  0  0  0  0
    0.8102   -1.6298    0.0000 C   0  0  3  0  0  0  0  0  0  0  0  0
    0.5553   -0.8452    0.0000 C   0  0  3  0  0  0  0  0  0  0  0  0
    3.0171    0.2818    0.0000 C   0  0  0  0  0  0  0  0  0  0  0  0
   -0.1592   -0.4327    0.0000 C   0  0  0  0  0  0  0  0  0  0  0  0
    2.4321   -1.4163    0.0000 C   0  0  0  0  0  0  0  0  0  0  0  0
    1.5882    0.2818    0.0000 C   0  0  0  0  0  0  0  0  0  0  0  0
    2.3026    1.5193    0.0000 C   0  0  0  0  0  0  0  0  0  0  0  0
    1.5882    1.1068    0.0000 C   0  0  0  0  0  0  0  0  0  0  0  0
   -1.1757    0.2818    0.0000 C   0  0  0  0  0  0  0  0  0  0  0  0
    2.3026    2.3443    0.0000 C   0  0  0  0  0  0  0  0  0  0  0  0
   -3.0171   -0.4327    0.0000 C   0  0  0  0  0  0  0  0  0  0  0  0
   -3.7316   -0.8452    0.0000 C   0  0  0  0  0  0  0  0  0  0  0  0
   -3.0171    0.3923    0.0000 C   0  0  0  0  0  0  0  0  0  0  0  0
  1  5  1  0  0  0  0
  1  7  2  0  0  0  0
  1 10  1  0  0  0  0
  1 21  1  0  0  0  0
 11  2  1  6  0  0  0
 12  3  1  1  0  0  0
  3 14  1  0  0  0  0
 13  4  1  6  0  0  0
  5 16  1  0  0  0  0
  6 15  2  0  0  0  0
  8 12  1  0  0  0  0
  8 15  1  0  0  0  0
  8 18  1  0  0  0  0
  9 15  1  0  0  0  0
  9 19  2  0  0  0  0
 10 23  1  0  0  0  0
 11 12  1  0  0  0  0
 11 13  1  0  0  0  0
 11 17  1  1  0  0  0
 13 14  1  0  0  0  0
 14 16  1  1  0  0  0
 18 20  2  0  0  0  0
 19 20  1  0  0  0  0
 19 22  1  0  0  0  0
 23 24  1  0  0  0  0
 23 25  1  0  0  0  0
M  END
> <PUBCHEM_COMPOUND_ID_TYPE>
0

> <PUBCHEM_TOTAL_CHARGE>
0

> <PUBCHEM_SUBSTANCE_ID>
310940258

> <PUBCHEM_SUBSTANCE_VERSION>
1

> <PUBCHEM_EXT_DATASOURCE_NAME>
4488

> <PUBCHEM_EXT_DATASOURCE_REGID>
SCHEMBL16118200

> <PUBCHEM_SUBSTANCE_COMMENT>
InChI=1S/C15H25FN3O5P/c1-9(2)18-25(5,22)23-8-11-12(20)15(4,16)13(24-11)19-7-6-10(3)17-14(19)21/h6-7,9,11-13,20H,8H2,1-5H3,(H,18,22)/t11-,12-,13-,15-,25?/m1/s1
InChIKey=CXSQGHLQRCDMRB-VVNBZNBPSA-N

> <PUBCHEM_SUBSTANCE_SYNONYM>
SCHEMBL16118200

> <PUBCHEM_XREF_EXT_ID>
SCHEMBL16118200

> <PUBCHEM_EXT_DATASOURCE_URL>
https://www.surechembl.org/

> <PUBCHEM_EXT_SUBSTANCE_URL>
https://www.surechembl.org/chemical/SCHEMBL16118200

> <PUBCHEM_CID_ASSOCIATIONS>
117607347  1

> <PUBCHEM_COORDINATE_TYPE>
1
3

> <PUBCHEM_BONDANNOTATIONS>
11  17  5
14  16  5
11  2  6
12  3  5
13  4  6

$$$$
