310942664
  -OEChem-07211613022D

 80 85  0     1  0  0  0  0  0999 V2000
    9.8013    0.8062    0.0000 F   0  0  0  0  0  0  0  0  0  0  0  0
    3.8950   -1.7905    0.0000 F   0  0  0  0  0  0  0  0  0  0  0  0
    8.1210    3.6405    0.0000 F   0  0  0  0  0  0  0  0  0  0  0  0
    9.6655   -3.6405    0.0000 F   0  0  0  0  0  0  0  0  0  0  0  0
    6.5766    1.1795    0.0000 O   0  0  0  0  0  0  0  0  0  0  0  0
    5.2189    2.1469    0.0000 O   0  0  0  0  0  0  0  0  0  0  0  0
   -9.6994   -1.2135    0.0000 O   0  0  0  0  0  0  0  0  0  0  0  0
   -8.5963    1.4680    0.0000 O   0  0  0  0  0  0  0  0  0  0  0  0
   -7.1876    0.6365    0.0000 O   0  0  0  0  0  0  0  0  0  0  0  0
    1.4172    0.2461    0.0000 O   0  0  0  0  0  0  0  0  0  0  0  0
    2.1130    1.4851    0.0000 O   0  0  0  0  0  0  0  0  0  0  0  0
   -5.1000   -1.6038    0.0000 O   0  0  0  0  0  0  0  0  0  0  0  0
   -2.9616    0.4498    0.0000 O   0  0  0  0  0  0  0  0  0  0  0  0
   -5.8129   -2.0112    0.0000 O   0  0  0  0  0  0  0  0  0  0  0  0
    7.9005   -0.5347    0.0000 N   0  0  0  0  0  0  0  0  0  0  0  0
    5.7450    0.0085    0.0000 N   0  0  0  0  0  0  0  0  0  0  0  0
    7.3403    0.6873    0.0000 N   0  0  0  0  0  0  0  0  0  0  0  0
   -8.9187    0.0424    0.0000 N   0  0  0  0  0  0  0  0  0  0  0  0
    2.9446    0.1273    0.0000 N   0  0  0  0  0  0  0  0  0  0  0  0
   -6.5257   -0.7722    0.0000 N   0  0  0  0  0  0  0  0  0  0  0  0
   -4.3872   -0.3649    0.0000 N   0  0  0  0  0  0  0  0  0  0  0  0
   -2.2488   -0.7892    0.0000 N   0  0  0  0  0  0  0  0  0  0  0  0
   -5.1000   -3.2501    0.0000 N   0  0  0  0  0  0  0  0  0  0  0  0
   -6.5257   -3.2501    0.0000 N   0  0  0  0  0  0  0  0  0  0  0  0
    6.4239   -0.4498    0.0000 C   0  0  3  0  0  0  0  0  0  0  0  0
    7.1537   -0.1273    0.0000 C   0  0  0  0  0  0  0  0  0  0  0  0
    6.3390   -1.2983    0.0000 C   0  0  0  0  0  0  0  0  0  0  0  0
    8.1550    0.7722    0.0000 C   0  0  0  0  0  0  0  0  0  0  0  0
    8.4944    0.0424    0.0000 C   0  0  0  0  0  0  0  0  0  0  0  0
    8.5623    1.5190    0.0000 C   0  0  0  0  0  0  0  0  0  0  0  0
    5.8129    0.8401    0.0000 C   0  0  0  0  0  0  0  0  0  0  0  0
    5.0492   -0.3479    0.0000 C   0  0  0  0  0  0  0  0  0  0  0  0
    7.9853   -1.3493    0.0000 C   0  0  0  0  0  0  0  0  0  0  0  0
    4.1836   -0.3309    0.0000 C   0  0  3  0  0  0  0  0  0  0  0  0
    9.3940    1.5020    0.0000 C   0  0  0  0  0  0  0  0  0  0  0  0
   -8.0362   -0.4837    0.0000 C   0  0  0  0  0  0  0  0  0  0  0  0
    8.1720    2.2318    0.0000 C   0  0  0  0  0  0  0  0  0  0  0  0
    8.7490   -1.6718    0.0000 C   0  0  0  0  0  0  0  0  0  0  0  0
    3.6744   -0.9929    0.0000 C   0  0  3  0  0  0  0  0  0  0  0  0
    5.5923   -1.6548    0.0000 C   0  0  0  0  0  0  0  0  0  0  0  0
    7.0349   -1.7566    0.0000 C   0  0  0  0  0  0  0  0  0  0  0  0
    6.3390   -2.1300    0.0000 C   0  0  0  0  0  0  0  0  0  0  0  0
    5.1679    1.3154    0.0000 C   0  0  3  0  0  0  0  0  0  0  0  0
    3.7253    0.3309    0.0000 C   0  0  0  0  0  0  0  0  0  0  0  0
    8.5454    2.9446    0.0000 C   0  0  0  0  0  0  0  0  0  0  0  0
    2.9107   -0.6873    0.0000 C   0  0  0  0  0  0  0  0  0  0  0  0
   -9.6316   -0.3649    0.0000 C   0  0  0  0  0  0  0  0  0  0  0  0
   -9.1394    0.8062    0.0000 C   0  0  0  0  0  0  0  0  0  0  0  0
   -7.2895   -0.1952    0.0000 C   0  0  0  0  0  0  0  0  0  0  0  0
    9.7843    2.2488    0.0000 C   0  0  0  0  0  0  0  0  0  0  0  0
    9.3770    2.9446    0.0000 C   0  0  0  0  0  0  0  0  0  0  0  0
    8.8509   -2.4864    0.0000 C   0  0  0  0  0  0  0  0  0  0  0  0
    2.1130    0.6534    0.0000 C   0  0  0  0  0  0  0  0  0  0  0  0
    9.4279   -1.1965    0.0000 C   0  0  0  0  0  0  0  0  0  0  0  0
  -10.2426    0.1273    0.0000 C   0  0  0  0  0  0  0  0  0  0  0  0
   -9.9201    0.9080    0.0000 C   0  0  0  0  0  0  0  0  0  0  0  0
   -7.3573   -0.9759    0.0000 C   0  0  0  0  0  0  0  0  0  0  0  0
   -8.0871   -1.3154    0.0000 C   0  0  0  0  0  0  0  0  0  0  0  0
    9.5976   -2.8089    0.0000 C   0  0  0  0  0  0  0  0  0  0  0  0
    4.4551    0.9419    0.0000 C   0  0  0  0  0  0  0  0  0  0  0  0
   -5.8299   -0.3649    0.0000 C   0  0  3  0  0  0  0  0  0  0  0  0
   10.1407   -1.5190    0.0000 C   0  0  0  0  0  0  0  0  0  0  0  0
   10.2426   -2.3336    0.0000 C   0  0  0  0  0  0  0  0  0  0  0  0
   -5.1000   -0.7552    0.0000 C   0  0  0  0  0  0  0  0  0  0  0  0
   -5.8129    0.4837    0.0000 C   0  0  0  0  0  0  0  0  0  0  0  0
    0.6025    0.8741    0.0000 C   0  0  0  0  0  0  0  0  0  0  0  0
   -3.6575   -0.7722    0.0000 C   0  0  3  0  0  0  0  0  0  0  0  0
   -0.0934    0.4667    0.0000 C   0  0  0  0  0  0  0  0  0  0  0  0
   -2.9616   -0.3819    0.0000 C   0  0  0  0  0  0  0  0  0  0  0  0
   -6.5427    0.8570    0.0000 C   0  0  0  0  0  0  0  0  0  0  0  0
   -5.0661    0.8570    0.0000 C   0  0  0  0  0  0  0  0  0  0  0  0
   -1.5359   -0.3649    0.0000 C   0  0  0  0  0  0  0  0  0  0  0  0
   -0.8401    0.8570    0.0000 C   0  0  0  0  0  0  0  0  0  0  0  0
   -0.1103   -0.3649    0.0000 C   0  0  0  0  0  0  0  0  0  0  0  0
   -3.6575   -1.5869    0.0000 C   0  0  0  0  0  0  0  0  0  0  0  0
   -1.5020    0.4667    0.0000 C   0  0  0  0  0  0  0  0  0  0  0  0
   -0.8231   -0.7722    0.0000 C   0  0  0  0  0  0  0  0  0  0  0  0
   -4.3703   -2.0112    0.0000 C   0  0  0  0  0  0  0  0  0  0  0  0
   -4.4042   -2.8598    0.0000 C   0  0  0  0  0  0  0  0  0  0  0  0
   -5.8129   -2.8428    0.0000 C   0  0  0  0  0  0  0  0  0  0  0  0
  1 35  1  0  0  0  0
 39  2  1  1  0  0  0
  3 45  1  0  0  0  0
  4 59  1  0  0  0  0
  5 31  2  0  0  0  0
 43  6  1  6  0  0  0
  7 47  2  0  0  0  0
  8 48  2  0  0  0  0
  9 49  2  0  0  0  0
 10 53  1  0  0  0  0
 10 66  1  0  0  0  0
 11 53  2  0  0  0  0
 12 64  2  0  0  0  0
 13 69  2  0  0  0  0
 14 80  2  0  0  0  0
 15 26  1  0  0  0  0
 15 29  1  0  0  0  0
 15 33  1  0  0  0  0
 25 16  1  1  0  0  0
 16 31  1  0  0  0  0
 16 32  1  0  0  0  0
 17 26  2  0  0  0  0
 17 28  1  0  0  0  0
 18 36  1  0  0  0  0
 18 47  1  0  0  0  0
 18 48  1  0  0  0  0
 19 44  1  0  0  0  0
 19 46  1  0  0  0  0
 19 53  1  0  0  0  0
 20 49  1  0  0  0  0
 61 20  1  1  0  0  0
 21 64  1  0  0  0  0
 67 21  1  6  0  0  0
 22 69  1  0  0  0  0
 22 72  1  0  0  0  0
 23 79  1  0  0  0  0
 23 80  1  0  0  0  0
 24 80  1  0  0  0  0
 25 26  1  0  0  0  0
 25 27  1  0  0  0  0
 27 40  1  0  0  0  0
 27 41  1  0  0  0  0
 27 42  1  0  0  0  0
 28 29  2  0  0  0  0
 28 30  1  0  0  0  0
 30 35  2  0  0  0  0
 30 37  1  0  0  0  0
 31 43  1  0  0  0  0
 34 32  1  1  0  0  0
 33 38  1  0  0  0  0
 34 39  1  0  0  0  0
 34 44  1  0  0  0  0
 35 50  1  0  0  0  0
 36 49  1  0  0  0  0
 36 57  1  0  0  0  0
 36 58  1  0  0  0  0
 37 45  2  0  0  0  0
 38 52  2  0  0  0  0
 38 54  1  0  0  0  0
 39 46  1  0  0  0  0
 43 60  1  0  0  0  0
 45 51  1  0  0  0  0
 47 55  1  0  0  0  0
 48 56  1  0  0  0  0
 50 51  2  0  0  0  0
 52 59  1  0  0  0  0
 54 62  2  0  0  0  0
 55 56  2  0  0  0  0
 59 63  2  0  0  0  0
 61 64  1  0  0  0  0
 61 65  1  0  0  0  0
 62 63  1  0  0  0  0
 65 70  1  0  0  0  0
 65 71  1  0  0  0  0
 66 68  1  0  0  0  0
 67 69  1  0  0  0  0
 67 75  1  0  0  0  0
 68 73  2  0  0  0  0
 68 74  1  0  0  0  0
 72 76  2  0  0  0  0
 72 77  1  0  0  0  0
 73 76  1  0  0  0  0
 74 77  2  0  0  0  0
 75 78  1  0  0  0  0
 78 79  1  0  0  0  0
M  END
> <PUBCHEM_COMPOUND_ID_TYPE>
0

> <PUBCHEM_TOTAL_CHARGE>
0

> <PUBCHEM_SUBSTANCE_ID>
310942664

> <PUBCHEM_SUBSTANCE_VERSION>
1

> <PUBCHEM_EXT_DATASOURCE_NAME>
4488

> <PUBCHEM_EXT_DATASOURCE_REGID>
SCHEMBL16120710

> <PUBCHEM_SUBSTANCE_COMMENT>
InChI=1S/C56H68F4N10O10/c1-31(2)46(66-52(77)56(7,8)70-44(72)20-21-45(70)73)50(75)65-42(13-10-22-62-53(61)78)49(74)63-38-17-14-33(15-18-38)30-80-54(79)68-26-35(41(60)28-68)27-69(51(76)32(3)71)47(55(4,5)6)48-64-43(39-24-37(58)16-19-40(39)59)29-67(48)25-34-11-9-12-36(57)23-34/h9,11-12,14-21,23-24,29,31-32,35,41-42,46-47,71H,10,13,22,25-28,30H2,1-8H3,(H,63,74)(H,65,75)(H,66,77)(H3,61,62,78)/t32-,35-,41-,42-,46-,47-/m0/s1
InChIKey=HDSAYEJLVZWWNO-CEVJIEKKSA-N

> <PUBCHEM_SUBSTANCE_SYNONYM>
SCHEMBL16120710

> <PUBCHEM_XREF_EXT_ID>
SCHEMBL16120710

> <PUBCHEM_EXT_DATASOURCE_URL>
https://www.surechembl.org/

> <PUBCHEM_EXT_SUBSTANCE_URL>
https://www.surechembl.org/chemical/SCHEMBL16120710

> <PUBCHEM_CID_ASSOCIATIONS>
117609193  1

> <PUBCHEM_COORDINATE_TYPE>
1
3

> <PUBCHEM_BONDANNOTATIONS>
25  16  5
39  2  5
61  20  5
67  21  6
34  32  5
43  6  6

$$$$
