310942847
  -OEChem-07211613022D

 38 42  0     1  0  0  0  0  0999 V2000
    0.7488    0.9658    0.0000 F   0  0  0  0  0  0  0  0  0  0  0  0
    1.8556   -3.9609    0.0000 F   0  0  0  0  0  0  0  0  0  0  0  0
    2.0727    3.9609    0.0000 F   0  0  0  0  0  0  0  0  0  0  0  0
   -1.9642   -2.5719    0.0000 O   0  0  0  0  0  0  0  0  0  0  0  0
    4.8508   -2.2029    0.0000 O   0  0  0  0  0  0  0  0  0  0  0  0
   -1.5084   -3.7873    0.0000 O   0  0  0  0  0  0  0  0  0  0  0  0
    2.1162    0.3364    0.0000 N   0  0  0  0  0  0  0  0  0  0  0  0
    3.4183    0.3364    0.0000 N   0  0  0  0  0  0  0  0  0  0  0  0
    0.0543   -2.8758    0.0000 N   0  0  0  0  0  0  0  0  0  0  0  0
    2.0510   -1.3782    0.0000 N   0  0  0  0  0  0  0  0  0  0  0  0
    2.7672   -0.1194    0.0000 C   0  0  0  0  0  0  0  0  0  0  0  0
    2.3548    1.1394    0.0000 C   0  0  0  0  0  0  0  0  0  0  0  0
    2.7455   -0.9441    0.0000 C   0  0  3  0  0  0  0  0  0  0  0  0
    1.8774    1.7906    0.0000 C   0  0  0  0  0  0  0  0  0  0  0  0
    3.4617   -1.3565    0.0000 C   0  0  0  0  0  0  0  0  0  0  0  0
    1.3348   -2.5936    0.0000 C   0  0  3  0  0  0  0  0  0  0  0  0
    3.1796    1.1178    0.0000 C   0  0  0  0  0  0  0  0  0  0  0  0
    1.0744    1.7255    0.0000 C   0  0  0  0  0  0  0  0  0  0  0  0
    1.2263   -3.3967    0.0000 C   0  0  3  0  0  0  0  0  0  0  0  0
    0.6186   -2.2681    0.0000 C   0  0  0  0  0  0  0  0  0  0  0  0
    2.0510   -2.1812    0.0000 C   0  0  0  0  0  0  0  0  0  0  0  0
    2.2029    2.5502    0.0000 C   0  0  0  0  0  0  0  0  0  0  0  0
    0.4667   -3.5920    0.0000 C   0  0  0  0  0  0  0  0  0  0  0  0
   -1.3999   -3.0928    0.0000 C   0  0  0  0  0  0  0  0  0  0  0  0
    1.7255    3.2013    0.0000 C   0  0  0  0  0  0  0  0  0  0  0  0
    0.6186    2.3766    0.0000 C   0  0  0  0  0  0  0  0  0  0  0  0
    3.4617   -2.2029    0.0000 C   0  0  0  0  0  0  0  0  0  0  0  0
    4.1780   -0.9658    0.0000 C   0  0  0  0  0  0  0  0  0  0  0  0
    0.9441    3.1145    0.0000 C   0  0  0  0  0  0  0  0  0  0  0  0
    4.8725   -1.3782    0.0000 C   0  0  0  0  0  0  0  0  0  0  0  0
    4.1563   -2.6153    0.0000 C   0  0  0  0  0  0  0  0  0  0  0  0
   -2.8106   -2.8540    0.0000 C   0  0  0  0  0  0  0  0  0  0  0  0
   -3.4401   -2.2681    0.0000 C   0  0  0  0  0  0  0  0  0  0  0  0
   -3.2881   -1.4433    0.0000 C   0  0  0  0  0  0  0  0  0  0  0  0
   -4.2214   -2.5719    0.0000 C   0  0  0  0  0  0  0  0  0  0  0  0
   -3.9175   -0.9007    0.0000 C   0  0  0  0  0  0  0  0  0  0  0  0
   -4.8725   -2.0293    0.0000 C   0  0  0  0  0  0  0  0  0  0  0  0
   -4.7206   -1.2045    0.0000 C   0  0  0  0  0  0  0  0  0  0  0  0
  1 18  1  0  0  0  0
 19  2  1  1  0  0  0
  3 25  1  0  0  0  0
  4 24  1  0  0  0  0
  4 32  1  0  0  0  0
  5 30  1  0  0  0  0
  5 31  1  0  0  0  0
  6 24  2  0  0  0  0
  7 11  2  0  0  0  0
  7 12  1  0  0  0  0
  8 11  1  0  0  0  0
  8 17  1  0  0  0  0
  9 20  1  0  0  0  0
  9 23  1  0  0  0  0
  9 24  1  0  0  0  0
 13 10  1  1  0  0  0
 10 21  1  0  0  0  0
 11 13  1  0  0  0  0
 12 14  1  0  0  0  0
 12 17  2  0  0  0  0
 13 15  1  0  0  0  0
 14 18  2  0  0  0  0
 14 22  1  0  0  0  0
 15 27  1  0  0  0  0
 15 28  1  0  0  0  0
 16 19  1  0  0  0  0
 16 20  1  0  0  0  0
 16 21  1  1  0  0  0
 18 26  1  0  0  0  0
 19 23  1  0  0  0  0
 22 25  2  0  0  0  0
 25 29  1  0  0  0  0
 26 29  2  0  0  0  0
 27 31  1  0  0  0  0
 28 30  1  0  0  0  0
 32 33  1  0  0  0  0
 33 34  2  0  0  0  0
 33 35  1  0  0  0  0
 34 36  1  0  0  0  0
 35 37  2  0  0  0  0
 36 38  2  0  0  0  0
 37 38  1  0  0  0  0
M  END
> <PUBCHEM_COMPOUND_ID_TYPE>
0

> <PUBCHEM_TOTAL_CHARGE>
0

> <PUBCHEM_SUBSTANCE_ID>
310942847

> <PUBCHEM_SUBSTANCE_VERSION>
1

> <PUBCHEM_EXT_DATASOURCE_NAME>
4488

> <PUBCHEM_EXT_DATASOURCE_REGID>
SCHEMBL16120902

> <PUBCHEM_SUBSTANCE_COMMENT>
InChI=1S/C28H31F3N4O3/c29-21-6-7-23(30)22(12-21)25-14-33-27(34-25)26(19-8-10-37-11-9-19)32-13-20-15-35(16-24(20)31)28(36)38-17-18-4-2-1-3-5-18/h1-7,12,14,19-20,24,26,32H,8-11,13,15-17H2,(H,33,34)/t20-,24+,26-/m1/s1
InChIKey=LIYPEZXASKGXIJ-UGIARPQZSA-N

> <PUBCHEM_SUBSTANCE_SYNONYM>
SCHEMBL16120902

> <PUBCHEM_XREF_EXT_ID>
SCHEMBL16120902

> <PUBCHEM_EXT_DATASOURCE_URL>
https://www.surechembl.org/

> <PUBCHEM_EXT_SUBSTANCE_URL>
https://www.surechembl.org/chemical/SCHEMBL16120902

> <PUBCHEM_CID_ASSOCIATIONS>
117609337  1

> <PUBCHEM_COORDINATE_TYPE>
1
3

> <PUBCHEM_BONDANNOTATIONS>
13  10  5
16  21  5
19  2  5

$$$$
