310943962
  -OEChem-07211613022D

 17 18  0     0  0  0  0  0  0999 V2000
   -1.0565    2.0771    0.0000 F   0  0  0  0  0  0  0  0  0  0  0  0
    1.7727   -1.2654    0.0000 O   0  0  0  0  0  0  0  0  0  0  0  0
    0.3521   -0.4297    0.0000 N   0  0  0  0  0  0  0  0  0  0  0  0
    1.0684    1.6115    0.0000 N   0  0  0  0  0  0  0  0  0  0  0  0
   -1.0923   -2.0771    0.0000 N   0  0  0  0  0  0  0  0  0  0  0  0
   -0.3761    0.0239    0.0000 C   0  0  0  0  0  0  0  0  0  0  0  0
   -0.3641    0.8476    0.0000 C   0  0  0  0  0  0  0  0  0  0  0  0
   -1.0803   -0.4059    0.0000 C   0  0  0  0  0  0  0  0  0  0  0  0
   -1.0803    1.2773    0.0000 C   0  0  0  0  0  0  0  0  0  0  0  0
   -1.7727    0.0119    0.0000 C   0  0  0  0  0  0  0  0  0  0  0  0
   -1.7727    0.8476    0.0000 C   0  0  0  0  0  0  0  0  0  0  0  0
    0.3521   -1.2176    0.0000 C   0  0  0  0  0  0  0  0  0  0  0  0
    1.0445    0.0000    0.0000 C   0  0  0  0  0  0  0  0  0  0  0  0
    0.3521    1.2415    0.0000 C   0  0  0  0  0  0  0  0  0  0  0  0
   -1.0923   -1.2654    0.0000 C   0  0  0  0  0  0  0  0  0  0  0  0
    1.0684   -1.6474    0.0000 C   0  0  0  0  0  0  0  0  0  0  0  0
    1.7727   -0.4059    0.0000 C   0  0  0  0  0  0  0  0  0  0  0  0
  1  9  1  0  0  0  0
  2 16  1  0  0  0  0
  2 17  1  0  0  0  0
  3  6  1  0  0  0  0
  3 12  1  0  0  0  0
  3 13  1  0  0  0  0
  4 14  3  0  0  0  0
  5 15  3  0  0  0  0
  6  7  1  0  0  0  0
  6  8  2  0  0  0  0
  7  9  2  0  0  0  0
  7 14  1  0  0  0  0
  8 10  1  0  0  0  0
  8 15  1  0  0  0  0
  9 11  1  0  0  0  0
 10 11  2  0  0  0  0
 12 16  1  0  0  0  0
 13 17  1  0  0  0  0
M  END
> <PUBCHEM_COMPOUND_ID_TYPE>
0

> <PUBCHEM_TOTAL_CHARGE>
0

> <PUBCHEM_SUBSTANCE_ID>
310943962

> <PUBCHEM_SUBSTANCE_VERSION>
1

> <PUBCHEM_EXT_DATASOURCE_NAME>
4488

> <PUBCHEM_EXT_DATASOURCE_REGID>
SCHEMBL16122033

> <PUBCHEM_SUBSTANCE_COMMENT>
InChI=1S/C12H10FN3O/c13-11-2-1-9(7-14)12(10(11)8-15)16-3-5-17-6-4-16/h1-2H,3-6H2
InChIKey=QLBWJBIIFGTDKR-UHFFFAOYSA-N

> <PUBCHEM_SUBSTANCE_SYNONYM>
SCHEMBL16122033

> <PUBCHEM_XREF_EXT_ID>
SCHEMBL16122033

> <PUBCHEM_EXT_DATASOURCE_URL>
https://www.surechembl.org/

> <PUBCHEM_EXT_SUBSTANCE_URL>
https://www.surechembl.org/chemical/SCHEMBL16122033

> <PUBCHEM_CID_ASSOCIATIONS>
117610269  1

> <PUBCHEM_COORDINATE_TYPE>
1
3

$$$$
