310929072
  -OEChem-07211613022D

 59 63  0     0  0  0  0  0  0999 V2000
    2.6400   -9.9000    0.0000 O   0  0  0  0  0  0  0  0  0  0  0  0
    5.5275  -12.3749    0.0000 O   0  0  0  0  0  0  0  0  0  0  0  0
    6.9300  -12.3749    0.0000 O   0  0  0  0  0  0  0  0  0  0  0  0
    3.3825  -14.4375    0.0000 O   0  0  0  0  0  0  0  0  0  0  0  0
    2.8050   -4.9500    0.0000 O   0  0  0  0  0  0  0  0  0  0  0  0
    4.1250   -7.5075    0.0000 O   0  0  0  0  0  0  0  0  0  0  0  0
    0.6600   -4.5375    0.0000 O   0  0  0  0  0  0  0  0  0  0  0  0
    0.0000   -2.4750    0.0000 O   0  0  0  0  0  0  0  0  0  0  0  0
    1.4850   -0.8250    0.0000 O   0  0  0  0  0  0  0  0  0  0  0  0
    4.0425  -13.1999    0.0000 N   0  0  0  0  0  0  0  0  0  0  0  0
    2.6400  -13.1999    0.0000 N   0  0  0  0  0  0  0  0  0  0  0  0
    7.6725  -13.6125    0.0000 N   0  0  0  0  0  0  0  0  0  0  0  0
    1.9800   -8.6625    0.0000 N   0  0  0  0  0  0  0  0  0  0  0  0
    1.3200   -7.4250    0.0000 N   0  0  0  0  0  0  0  0  0  0  0  0
    0.5775   -8.6625    0.0000 N   0  0  0  0  0  0  0  0  0  0  0  0
    5.5275  -13.1999    0.0000 C   0  0  0  0  0  0  0  0  0  0  0  0
    6.1875  -13.6125    0.0000 C   0  0  0  0  0  0  0  0  0  0  0  0
    4.7850  -13.6125    0.0000 C   0  0  0  0  0  0  0  0  0  0  0  0
    3.3000  -11.9625    0.0000 C   0  0  0  0  0  0  0  0  0  0  0  0
    5.5275  -14.8499    0.0000 C   0  0  0  0  0  0  0  0  0  0  0  0
    3.3825  -11.1375    0.0000 C   0  0  0  0  0  0  0  0  0  0  0  0
    2.6400  -12.3749    0.0000 C   0  0  0  0  0  0  0  0  0  0  0  0
    2.6400  -10.7249    0.0000 C   0  0  0  0  0  0  0  0  0  0  0  0
    6.1875  -14.4375    0.0000 C   0  0  0  0  0  0  0  0  0  0  0  0
    4.7850  -14.4375    0.0000 C   0  0  0  0  0  0  0  0  0  0  0  0
    5.5275  -15.6749    0.0000 C   0  0  0  0  0  0  0  0  0  0  0  0
    6.9300  -13.1999    0.0000 C   0  0  0  0  0  0  0  0  0  0  0  0
    3.3825  -13.6125    0.0000 C   0  0  0  0  0  0  0  0  0  0  0  0
    1.8975  -11.9625    0.0000 C   0  0  0  0  0  0  0  0  0  0  0  0
    1.9800  -11.1375    0.0000 C   0  0  0  0  0  0  0  0  0  0  0  0
    4.0425  -12.3749    0.0000 C   0  0  0  0  0  0  0  0  0  0  0  0
    4.0425  -10.8075    0.0000 C   0  0  0  0  0  0  0  0  0  0  0  0
    1.9800   -9.4875    0.0000 C   0  0  0  0  0  0  0  0  0  0  0  0
    4.9500  -12.2100    0.0000 C   0  0  0  0  0  0  0  0  0  0  0  0
    4.7850  -11.2200    0.0000 C   0  0  0  0  0  0  0  0  0  0  0  0
    4.6200  -15.6749    0.0000 C   0  0  0  0  0  0  0  0  0  0  0  0
    5.5275  -16.4999    0.0000 C   0  0  0  0  0  0  0  0  0  0  0  0
    6.3525  -15.6749    0.0000 C   0  0  0  0  0  0  0  0  0  0  0  0
    1.3200   -8.2500    0.0000 C   0  0  0  0  0  0  0  0  0  0  0  0
    1.2375   -9.9000    0.0000 C   0  0  0  0  0  0  0  0  0  0  0  0
    2.0625   -7.0125    0.0000 C   0  0  0  0  0  0  0  0  0  0  0  0
    8.3325  -13.1999    0.0000 C   0  0  0  0  0  0  0  0  0  0  0  0
    4.7850  -11.9625    0.0000 C   0  0  0  0  0  0  0  0  0  0  0  0
    0.5775   -9.4875    0.0000 C   0  0  0  0  0  0  0  0  0  0  0  0
    2.0625   -6.1875    0.0000 C   0  0  0  0  0  0  0  0  0  0  0  0
    2.8050   -5.7750    0.0000 C   0  0  0  0  0  0  0  0  0  0  0  0
    2.7225   -7.4250    0.0000 C   0  0  0  0  0  0  0  0  0  0  0  0
    3.4650   -7.0950    0.0000 C   0  0  0  0  0  0  0  0  0  0  0  0
    3.4650   -6.2700    0.0000 C   0  0  0  0  0  0  0  0  0  0  0  0
    8.3325  -12.3749    0.0000 C   0  0  0  0  0  0  0  0  0  0  0  0
    9.0750  -13.6125    0.0000 C   0  0  0  0  0  0  0  0  0  0  0  0
    2.1450   -4.5375    0.0000 C   0  0  0  0  0  0  0  0  0  0  0  0
    4.8675   -7.0950    0.0000 C   0  0  0  0  0  0  0  0  0  0  0  0
    1.4025   -4.9500    0.0000 C   0  0  0  0  0  0  0  0  0  0  0  0
    0.7425   -3.7125    0.0000 C   0  0  0  0  0  0  0  0  0  0  0  0
    0.0000   -3.3000    0.0000 C   0  0  0  0  0  0  0  0  0  0  0  0
    0.7425   -2.0625    0.0000 C   0  0  0  0  0  0  0  0  0  0  0  0
    0.7425   -1.2375    0.0000 C   0  0  0  0  0  0  0  0  0  0  0  0
    1.4850    0.0000    0.0000 C   0  0  0  0  0  0  0  0  0  0  0  0
  1 23  1  0  0  0  0
  1 33  1  0  0  0  0
  2 16  1  0  0  0  0
  2 43  1  0  0  0  0
  3 27  2  0  0  0  0
  4 28  2  0  0  0  0
  5 46  1  0  0  0  0
  5 52  1  0  0  0  0
  6 48  1  0  0  0  0
  6 53  1  0  0  0  0
  7 54  1  0  0  0  0
  7 55  1  0  0  0  0
  8 56  1  0  0  0  0
  8 57  1  0  0  0  0
  9 58  1  0  0  0  0
  9 59  1  0  0  0  0
 10 18  1  0  0  0  0
 10 28  1  0  0  0  0
 11 22  1  0  0  0  0
 11 28  1  0  0  0  0
 12 27  1  0  0  0  0
 12 42  1  0  0  0  0
 13 33  2  0  0  0  0
 13 39  1  0  0  0  0
 14 39  1  0  0  0  0
 14 41  1  0  0  0  0
 15 39  2  0  0  0  0
 15 44  1  0  0  0  0
 16 17  2  0  0  0  0
 16 18  1  0  0  0  0
 17 24  1  0  0  0  0
 17 27  1  0  0  0  0
 18 25  2  0  0  0  0
 19 21  2  0  0  0  0
 19 22  1  0  0  0  0
 19 31  1  0  0  0  0
 20 24  2  0  0  0  0
 20 25  1  0  0  0  0
 20 26  1  0  0  0  0
 21 23  1  0  0  0  0
 21 32  1  0  0  0  0
 22 29  2  0  0  0  0
 23 30  2  0  0  0  0
 26 36  1  0  0  0  0
 26 37  1  0  0  0  0
 26 38  1  0  0  0  0
 29 30  1  0  0  0  0
 31 34  2  0  0  0  0
 32 35  2  0  0  0  0
 33 40  1  0  0  0  0
 34 35  1  0  0  0  0
 40 44  2  0  0  0  0
 41 45  2  0  0  0  0
 41 47  1  0  0  0  0
 42 50  1  0  0  0  0
 42 51  1  0  0  0  0
 45 46  1  0  0  0  0
 46 49  2  0  0  0  0
 47 48  2  0  0  0  0
 48 49  1  0  0  0  0
 52 54  1  0  0  0  0
 55 56  1  0  0  0  0
 57 58  1  0  0  0  0
M  END
> <PUBCHEM_COMPOUND_ID_TYPE>
0

> <PUBCHEM_TOTAL_CHARGE>
0

> <PUBCHEM_SUBSTANCE_ID>
310929072

> <PUBCHEM_SUBSTANCE_VERSION>
1

> <PUBCHEM_EXT_DATASOURCE_NAME>
4488

> <PUBCHEM_EXT_DATASOURCE_REGID>
SCHEMBL16106234

> <PUBCHEM_SUBSTANCE_COMMENT>
InChI=1S/C44H54N6O9/c1-28(2)46-41(51)35-23-29(44(3,4)5)24-37(40(35)55-8)49-43(52)48-36-13-14-38(34-12-10-9-11-33(34)36)59-39-15-16-45-42(50-39)47-30-25-31(54-7)27-32(26-30)58-22-21-57-20-19-56-18-17-53-6/h9-16,23-28H,17-22H2,1-8H3,(H,46,51)(H,45,47,50)(H2,48,49,52)
InChIKey=HWZCSBMMDQCHFJ-UHFFFAOYSA-N

> <PUBCHEM_SUBSTANCE_SYNONYM>
SCHEMBL16106234

> <PUBCHEM_XREF_EXT_ID>
SCHEMBL16106234

> <PUBCHEM_EXT_DATASOURCE_URL>
https://www.surechembl.org/

> <PUBCHEM_EXT_SUBSTANCE_URL>
https://www.surechembl.org/chemical/SCHEMBL16106234

> <PUBCHEM_CID_ASSOCIATIONS>
86273785  1

> <PUBCHEM_COORDINATE_TYPE>
1
3

$$$$
