310941845
  -OEChem-07211613022D

 15 15  0     0  0  0  0  0  0999 V2000
    0.5647   -1.7778    0.0000 Cl  0  0  0  0  0  0  0  0  0  0  0  0
    2.0288    0.3556    0.0000 O   0  0  0  0  0  0  0  0  0  0  0  0
    2.0706    1.7360    0.0000 O   0  0  0  0  0  0  0  0  0  0  0  0
   -0.3974    0.3974    0.0000 C   0  0  0  0  0  0  0  0  0  0  0  0
    1.1922    0.3974    0.0000 C   0  0  0  0  0  0  0  0  0  0  0  0
    0.8157   -0.3137    0.0000 C   0  0  0  0  0  0  0  0  0  0  0  0
    0.8157    1.0667    0.0000 C   0  0  0  0  0  0  0  0  0  0  0  0
   -1.2340    0.3974    0.0000 C   0  0  0  0  0  0  0  0  0  0  0  0
    0.0209   -0.3137    0.0000 C   0  0  0  0  0  0  0  0  0  0  0  0
    0.0209    1.0667    0.0000 C   0  0  0  0  0  0  0  0  0  0  0  0
    1.2340   -1.0248    0.0000 C   0  0  0  0  0  0  0  0  0  0  0  0
    1.2340    1.7778    0.0000 C   0  0  0  0  0  0  0  0  0  0  0  0
   -1.6105   -0.3556    0.0000 C   0  0  0  0  0  0  0  0  0  0  0  0
   -2.0706    0.3556    0.0000 C   0  0  0  0  0  0  0  0  0  0  0  0
   -1.6105    1.0667    0.0000 C   0  0  0  0  0  0  0  0  0  0  0  0
  1 11  1  0  0  0  0
  2  5  1  0  0  0  0
  3 12  2  0  0  0  0
  4  8  1  0  0  0  0
  4  9  2  0  0  0  0
  4 10  1  0  0  0  0
  5  6  2  0  0  0  0
  5  7  1  0  0  0  0
  6  9  1  0  0  0  0
  6 11  1  0  0  0  0
  7 10  2  0  0  0  0
  7 12  1  0  0  0  0
  8 13  1  0  0  0  0
  8 14  1  0  0  0  0
  8 15  1  0  0  0  0
M  END
> <PUBCHEM_COMPOUND_ID_TYPE>
0

> <PUBCHEM_TOTAL_CHARGE>
0

> <PUBCHEM_SUBSTANCE_ID>
310941845

> <PUBCHEM_SUBSTANCE_VERSION>
1

> <PUBCHEM_EXT_DATASOURCE_NAME>
4488

> <PUBCHEM_EXT_DATASOURCE_REGID>
SCHEMBL16119877

> <PUBCHEM_SUBSTANCE_COMMENT>
InChI=1S/C12H15ClO2/c1-12(2,3)10-4-8(6-13)11(15)9(5-10)7-14/h4-5,7,15H,6H2,1-3H3
InChIKey=OYRBMBWBIUDUKO-UHFFFAOYSA-N

> <PUBCHEM_SUBSTANCE_SYNONYM>
SCHEMBL16119877

> <PUBCHEM_XREF_EXT_ID>
SCHEMBL16119877

> <PUBCHEM_EXT_DATASOURCE_URL>
https://www.surechembl.org/

> <PUBCHEM_EXT_SUBSTANCE_URL>
https://www.surechembl.org/chemical/SCHEMBL16119877

> <PUBCHEM_CID_ASSOCIATIONS>
71425595  1

> <PUBCHEM_COORDINATE_TYPE>
1
3

$$$$
