310929495
  -OEChem-07211613022D

 26 27  0     0  0  0  0  0  0999 V2000
   11.8380   -0.4183    0.0000 O   0  0  0  0  0  0  0  0  0  0  0  0
    0.0000   -1.6314    0.0000 O   0  0  0  0  0  0  0  0  0  0  0  0
   10.4994   -1.2131    0.0000 N   0  0  0  0  0  0  0  0  0  0  0  0
   11.2106   -1.6314    0.0000 C   0  0  0  0  0  0  0  0  0  0  0  0
   11.2106   -2.4262    0.0000 C   0  0  0  0  0  0  0  0  0  0  0  0
   11.8799   -1.2131    0.0000 C   0  0  0  0  0  0  0  0  0  0  0  0
    9.7884   -1.6314    0.0000 C   0  0  0  0  0  0  0  0  0  0  0  0
   10.4994   -2.8444    0.0000 C   0  0  0  0  0  0  0  0  0  0  0  0
   11.8799   -2.8027    0.0000 C   0  0  0  0  0  0  0  0  0  0  0  0
   12.5492   -1.5896    0.0000 C   0  0  0  0  0  0  0  0  0  0  0  0
    9.7884   -2.4262    0.0000 C   0  0  0  0  0  0  0  0  0  0  0  0
   12.5492   -2.4262    0.0000 C   0  0  0  0  0  0  0  0  0  0  0  0
    9.0772   -1.2131    0.0000 C   0  0  0  0  0  0  0  0  0  0  0  0
    8.4079   -1.6314    0.0000 C   0  0  0  0  0  0  0  0  0  0  0  0
   11.1687    0.0000    0.0000 C   0  0  0  0  0  0  0  0  0  0  0  0
    7.6968   -1.2131    0.0000 C   0  0  0  0  0  0  0  0  0  0  0  0
    6.9857   -1.6314    0.0000 C   0  0  0  0  0  0  0  0  0  0  0  0
    6.3164   -1.2131    0.0000 C   0  0  0  0  0  0  0  0  0  0  0  0
    5.6053   -1.6314    0.0000 C   0  0  0  0  0  0  0  0  0  0  0  0
    4.8942   -1.2131    0.0000 C   0  0  0  0  0  0  0  0  0  0  0  0
    4.2249   -1.6314    0.0000 C   0  0  0  0  0  0  0  0  0  0  0  0
    3.5137   -1.2131    0.0000 C   0  0  0  0  0  0  0  0  0  0  0  0
    2.8027   -1.6314    0.0000 C   0  0  0  0  0  0  0  0  0  0  0  0
    2.0915   -1.2131    0.0000 C   0  0  0  0  0  0  0  0  0  0  0  0
    1.4222   -1.6314    0.0000 C   0  0  0  0  0  0  0  0  0  0  0  0
    0.7111   -1.2131    0.0000 C   0  0  0  0  0  0  0  0  0  0  0  0
  1  6  1  0  0  0  0
  1 15  1  0  0  0  0
  2 26  1  0  0  0  0
  3  4  2  0  0  0  0
  3  7  1  0  0  0  0
  4  5  1  0  0  0  0
  4  6  1  0  0  0  0
  5  8  2  0  0  0  0
  5  9  1  0  0  0  0
  6 10  2  0  0  0  0
  7 11  2  0  0  0  0
  7 13  1  0  0  0  0
  8 11  1  0  0  0  0
  9 12  2  0  0  0  0
 10 12  1  0  0  0  0
 13 14  1  0  0  0  0
 14 16  1  0  0  0  0
 16 17  1  0  0  0  0
 17 18  1  0  0  0  0
 18 19  1  0  0  0  0
 19 20  1  0  0  0  0
 20 21  1  0  0  0  0
 21 22  1  0  0  0  0
 22 23  1  0  0  0  0
 23 24  1  0  0  0  0
 24 25  1  0  0  0  0
 25 26  1  0  0  0  0
M  END
> <PUBCHEM_COMPOUND_ID_TYPE>
0

> <PUBCHEM_TOTAL_CHARGE>
0

> <PUBCHEM_SUBSTANCE_ID>
310929495

> <PUBCHEM_SUBSTANCE_VERSION>
1

> <PUBCHEM_EXT_DATASOURCE_NAME>
4488

> <PUBCHEM_EXT_DATASOURCE_REGID>
SCHEMBL16106671

> <PUBCHEM_SUBSTANCE_COMMENT>
InChI=1S/C23H35NO2/c1-26-22-16-13-14-20-17-18-21(24-23(20)22)15-11-9-7-5-3-2-4-6-8-10-12-19-25/h13-14,16-18,25H,2-12,15,19H2,1H3
InChIKey=YTJXLKZSEQIRGW-UHFFFAOYSA-N

> <PUBCHEM_SUBSTANCE_SYNONYM>
SCHEMBL16106671

> <PUBCHEM_XREF_EXT_ID>
SCHEMBL16106671

> <PUBCHEM_EXT_DATASOURCE_URL>
https://www.surechembl.org/

> <PUBCHEM_EXT_SUBSTANCE_URL>
https://www.surechembl.org/chemical/SCHEMBL16106671

> <PUBCHEM_CID_ASSOCIATIONS>
85471659  1

> <PUBCHEM_COORDINATE_TYPE>
1
3

$$$$
