310935484
  -OEChem-07211613022D

 18 19  0     0  0  0  0  0  0999 V2000
    2.4399   -3.5619    0.0000 O   0  0  0  0  0  0  0  0  0  0  0  0
    0.0000   -0.6945    0.0000 O   0  0  0  0  0  0  0  0  0  0  0  0
    1.2110   -2.8317    0.0000 N   0  0  0  0  0  0  0  0  0  0  0  0
    4.9332   -2.1371    0.0000 N   0  0  0  0  0  0  0  0  0  0  0  0
    4.5771    0.0000    0.0000 N   0  0  0  0  0  0  0  0  0  0  0  0
    2.4755   -2.1193    0.0000 C   0  0  0  0  0  0  0  0  0  0  0  0
    3.2947   -2.1193    0.0000 C   0  0  0  0  0  0  0  0  0  0  0  0
    2.0303   -2.8317    0.0000 C   0  0  0  0  0  0  0  0  0  0  0  0
    2.0303   -1.4248    0.0000 C   0  0  0  0  0  0  0  0  0  0  0  0
    1.2110   -1.4248    0.0000 C   0  0  0  0  0  0  0  0  0  0  0  0
    3.7044   -1.4069    0.0000 C   0  0  0  0  0  0  0  0  0  0  0  0
    3.7044   -2.8317    0.0000 C   0  0  0  0  0  0  0  0  0  0  0  0
    4.5414   -1.4426    0.0000 C   0  0  0  0  0  0  0  0  0  0  0  0
    0.7836   -2.1193    0.0000 C   0  0  0  0  0  0  0  0  0  0  0  0
    4.5414   -2.8673    0.0000 C   0  0  0  0  0  0  0  0  0  0  0  0
    0.8192   -0.6945    0.0000 C   0  0  0  0  0  0  0  0  0  0  0  0
    4.9689   -0.7302    0.0000 C   0  0  0  0  0  0  0  0  0  0  0  0
    3.2770   -3.5619    0.0000 C   0  0  0  0  0  0  0  0  0  0  0  0
  1  8  1  0  0  0  0
  1 18  1  0  0  0  0
  2 16  2  0  0  0  0
  3  8  1  0  0  0  0
  3 14  2  0  0  0  0
  4 13  1  0  0  0  0
  4 15  2  0  0  0  0
  5 17  3  0  0  0  0
  6  7  1  0  0  0  0
  6  8  2  0  0  0  0
  6  9  1  0  0  0  0
  7 11  1  0  0  0  0
  7 12  2  0  0  0  0
  9 10  2  0  0  0  0
 10 14  1  0  0  0  0
 10 16  1  0  0  0  0
 11 13  2  0  0  0  0
 12 15  1  0  0  0  0
 13 17  1  0  0  0  0
M  END
> <PUBCHEM_COMPOUND_ID_TYPE>
0

> <PUBCHEM_TOTAL_CHARGE>
0

> <PUBCHEM_SUBSTANCE_ID>
310935484

> <PUBCHEM_SUBSTANCE_VERSION>
1

> <PUBCHEM_EXT_DATASOURCE_NAME>
4488

> <PUBCHEM_EXT_DATASOURCE_REGID>
SCHEMBL16113046

> <PUBCHEM_SUBSTANCE_COMMENT>
InChI=1S/C13H9N3O2/c1-18-13-12(4-9(8-17)7-16-13)10-2-3-15-11(5-10)6-14/h2-5,7-8H,1H3
InChIKey=AJNOESLPADZRHU-UHFFFAOYSA-N

> <PUBCHEM_SUBSTANCE_SYNONYM>
SCHEMBL16113046

> <PUBCHEM_XREF_EXT_ID>
SCHEMBL16113046

> <PUBCHEM_EXT_DATASOURCE_URL>
https://www.surechembl.org/

> <PUBCHEM_EXT_SUBSTANCE_URL>
https://www.surechembl.org/chemical/SCHEMBL16113046

> <PUBCHEM_CID_ASSOCIATIONS>
117603518  1

> <PUBCHEM_COORDINATE_TYPE>
1
3

$$$$
