310929778
  -OEChem-07211613022D

108117  0     1  0  0  0  0  0999 V2000
   -9.8119   -4.4842    0.0000 O   0  0  0  0  0  0  0  0  0  0  0  0
    0.8250   -1.7616    0.0000 O   0  0  0  0  0  0  0  0  0  0  0  0
   -6.5279   -5.6013    0.0000 O   0  0  0  0  0  0  0  0  0  0  0  0
    0.0000    1.5851    0.0000 O   0  0  0  0  0  0  0  0  0  0  0  0
   -8.5532   -2.4491    0.0000 O   0  0  0  0  0  0  0  0  0  0  0  0
   -1.6500   -1.7616    0.0000 O   0  0  0  0  0  0  0  0  0  0  0  0
   -6.5094   -1.9784    0.0000 O   0  0  0  0  0  0  0  0  0  0  0  0
   -3.1084   -0.3273    0.0000 O   0  0  0  0  0  0  0  0  0  0  0  0
   -9.7907   -3.1636    0.0000 O   0  0  0  0  0  0  0  0  0  0  0  0
   -0.4125   -2.4761    0.0000 O   0  0  0  0  0  0  0  0  0  0  0  0
   -5.3427   -3.1451    0.0000 O   0  0  0  0  0  0  0  0  0  0  0  0
   -2.7412    1.2813    0.0000 O   0  0  0  0  0  0  0  0  0  0  0  0
   -9.9719   -5.9042    0.0000 O   0  0  0  0  0  0  0  0  0  0  0  0
    2.0625   -2.4761    0.0000 O   0  0  0  0  0  0  0  0  0  0  0  0
   -8.7857    3.3291    0.0000 O   0  0  0  0  0  0  0  0  0  0  0  0
  -11.1763    2.6886    0.0000 O   0  0  0  0  0  0  0  0  0  0  0  0
  -22.1015    4.1626    0.0000 O   0  0  0  0  0  0  0  0  0  0  0  0
  -22.8595    6.9915    0.0000 O   0  0  0  0  0  0  0  0  0  0  0  0
  -19.8277    6.2879    0.0000 O   0  0  0  0  0  0  0  0  0  0  0  0
  -13.1400    3.6417    0.0000 O   0  0  0  0  0  0  0  0  0  0  0  0
  -17.2807    4.7513    0.0000 O   0  0  0  0  0  0  0  0  0  0  0  0
  -15.3171    3.7981    0.0000 O   0  0  0  0  0  0  0  0  0  0  0  0
   -7.9409   -5.6277    0.0000 N   0  0  0  0  0  0  0  0  0  0  0  0
    0.7433    0.4021    0.0000 N   0  0  0  0  0  0  0  0  0  0  0  0
   -8.5532   -3.8780    0.0000 N   0  0  0  0  0  0  0  0  0  0  0  0
   -0.4125   -1.0472    0.0000 N   0  0  0  0  0  0  0  0  0  0  0  0
   -8.4158    1.9489    0.0000 N   0  0  0  0  0  0  0  0  0  0  0  0
  -22.2184    5.6472    0.0000 N   0  0  0  0  0  0  0  0  0  0  0  0
  -19.4579    4.9076    0.0000 N   0  0  0  0  0  0  0  0  0  0  0  0
   -8.7196   -5.3553    0.0000 C   0  0  3  0  0  0  0  0  0  0  0  0
    0.9269   -0.4021    0.0000 C   0  0  3  0  0  0  0  0  0  0  0  0
   -8.9921   -4.5766    0.0000 C   0  0  3  0  0  0  0  0  0  0  0  0
    0.4125   -1.0472    0.0000 C   0  0  3  0  0  0  0  0  0  0  0  0
   -7.7334   -3.7856    0.0000 C   0  0  0  0  0  0  0  0  0  0  0  0
   -0.9269   -0.4021    0.0000 C   0  0  0  0  0  0  0  0  0  0  0  0
   -7.2424   -5.1888    0.0000 C   0  0  0  0  0  0  0  0  0  0  0  0
    0.0000    0.7601    0.0000 C   0  0  0  0  0  0  0  0  0  0  0  0
   -7.1500   -4.3690    0.0000 C   0  0  0  0  0  0  0  0  0  0  0  0
   -0.7433    0.4021    0.0000 C   0  0  0  0  0  0  0  0  0  0  0  0
   -9.2194   -6.0117    0.0000 C   0  0  0  0  0  0  0  0  0  0  0  0
    1.7485   -0.4761    0.0000 C   0  0  0  0  0  0  0  0  0  0  0  0
   -7.9594   -6.4526    0.0000 C   0  0  0  0  0  0  0  0  0  0  0  0
    1.4515    0.8253    0.0000 C   0  0  0  0  0  0  0  0  0  0  0  0
   -8.7496   -6.6898    0.0000 C   0  0  0  0  0  0  0  0  0  0  0  0
    2.0728    0.2825    0.0000 C   0  0  0  0  0  0  0  0  0  0  0  0
   -8.9657   -3.1636    0.0000 C   0  0  0  0  0  0  0  0  0  0  0  0
   -0.8250   -1.7616    0.0000 C   0  0  0  0  0  0  0  0  0  0  0  0
   -7.5198   -2.9887    0.0000 C   0  0  0  0  0  0  0  0  0  0  0  0
   -1.7152   -0.6453    0.0000 C   0  0  0  0  0  0  0  0  0  0  0  0
   -6.3531   -4.1555    0.0000 C   0  0  0  0  0  0  0  0  0  0  0  0
   -1.3480    0.9633    0.0000 C   0  0  0  0  0  0  0  0  0  0  0  0
   -6.7229   -2.7752    0.0000 C   0  0  0  0  0  0  0  0  0  0  0  0
   -2.3200   -0.0842    0.0000 C   0  0  0  0  0  0  0  0  0  0  0  0
   -6.1396   -3.3586    0.0000 C   0  0  0  0  0  0  0  0  0  0  0  0
   -2.1364    0.7201    0.0000 C   0  0  0  0  0  0  0  0  0  0  0  0
  -10.3018   -5.1480    0.0000 C   0  0  3  0  0  0  0  0  0  0  0  0
    1.6500   -1.7616    0.0000 C   0  0  3  0  0  0  0  0  0  0  0  0
   -9.0221   -7.4685    0.0000 C   0  0  0  0  0  0  0  0  0  0  0  0
    2.8771    0.4661    0.0000 C   0  0  0  0  0  0  0  0  0  0  0  0
   -8.9657   -1.7346    0.0000 C   0  0  0  0  0  0  0  0  0  0  0  0
   -2.0625   -2.4761    0.0000 C   0  0  0  0  0  0  0  0  0  0  0  0
  -11.1216   -5.0556    0.0000 C   0  0  0  0  0  0  0  0  0  0  0  0
    2.0625   -1.0472    0.0000 C   0  0  0  0  0  0  0  0  0  0  0  0
   -5.7125   -1.7649    0.0000 C   0  0  0  0  0  0  0  0  0  0  0  0
   -3.6917    0.2560    0.0000 C   0  0  0  0  0  0  0  0  0  0  0  0
   -5.4990   -0.9680    0.0000 C   0  0  0  0  0  0  0  0  0  0  0  0
   -4.4886    0.0425    0.0000 C   0  0  0  0  0  0  0  0  0  0  0  0
  -10.4618   -6.5679    0.0000 C   0  0  0  0  0  0  0  0  0  0  0  0
    2.8875   -2.4761    0.0000 C   0  0  0  0  0  0  0  0  0  0  0  0
  -11.6115   -5.7194    0.0000 C   0  0  0  0  0  0  0  0  0  0  0  0
    2.8875   -1.0472    0.0000 C   0  0  0  0  0  0  0  0  0  0  0  0
   -9.3782   -1.0202    0.0000 C   0  0  0  0  0  0  0  0  0  0  0  0
   -9.7907   -1.7346    0.0000 C   0  0  0  0  0  0  0  0  0  0  0  0
   -8.5532   -1.0202    0.0000 C   0  0  0  0  0  0  0  0  0  0  0  0
   -1.6500   -3.1906    0.0000 C   0  0  0  0  0  0  0  0  0  0  0  0
   -2.4750   -3.1906    0.0000 C   0  0  0  0  0  0  0  0  0  0  0  0
   -2.8875   -2.4761    0.0000 C   0  0  0  0  0  0  0  0  0  0  0  0
   -4.7593   -3.7285    0.0000 C   0  0  0  0  0  0  0  0  0  0  0  0
   -3.5295    1.0381    0.0000 C   0  0  0  0  0  0  0  0  0  0  0  0
   -4.7021   -0.7544    0.0000 C   0  0  0  0  0  0  0  0  0  0  0  0
  -11.2816   -6.4756    0.0000 C   0  0  0  0  0  0  0  0  0  0  0  0
    3.3000   -1.7616    0.0000 C   0  0  0  0  0  0  0  0  0  0  0  0
   -6.0824   -0.3846    0.0000 C   0  0  0  0  0  0  0  0  0  0  0  0
   -5.0720    0.6258    0.0000 C   0  0  0  0  0  0  0  0  0  0  0  0
   -5.8689    0.4123    0.0000 C   0  0  0  0  0  0  0  0  0  0  0  0
   -6.4522    0.9957    0.0000 C   0  0  0  0  0  0  0  0  0  0  0  0
   -7.0356    1.5791    0.0000 C   0  0  0  0  0  0  0  0  0  0  0  0
   -7.6189    2.1624    0.0000 C   0  0  0  0  0  0  0  0  0  0  0  0
   -8.9992    2.5322    0.0000 C   0  0  0  0  0  0  0  0  0  0  0  0
   -9.7961    2.3187    0.0000 C   0  0  0  0  0  0  0  0  0  0  0  0
  -10.3794    2.9021    0.0000 C   0  0  0  0  0  0  0  0  0  0  0  0
  -22.8595    6.1665    0.0000 C   0  0  0  0  0  0  0  0  0  0  0  0
  -22.5140    4.8770    0.0000 C   0  0  0  0  0  0  0  0  0  0  0  0
  -23.5514    5.7171    0.0000 C   0  0  0  0  0  0  0  0  0  0  0  0
  -23.3379    4.9202    0.0000 C   0  0  0  0  0  0  0  0  0  0  0  0
  -21.4215    5.8608    0.0000 C   0  0  0  0  0  0  0  0  0  0  0  0
  -11.7597    3.2719    0.0000 C   0  0  0  0  0  0  0  0  0  0  0  0
  -20.8381    5.2774    0.0000 C   0  0  0  0  0  0  0  0  0  0  0  0
  -20.0412    5.4910    0.0000 C   0  0  0  0  0  0  0  0  0  0  0  0
  -12.5566    3.0584    0.0000 C   0  0  0  0  0  0  0  0  0  0  0  0
  -18.6610    5.1211    0.0000 C   0  0  0  0  0  0  0  0  0  0  0  0
  -18.0776    4.5377    0.0000 C   0  0  0  0  0  0  0  0  0  0  0  0
  -13.9368    3.4282    0.0000 C   0  0  0  0  0  0  0  0  0  0  0  0
  -14.5202    4.0116    0.0000 C   0  0  0  0  0  0  0  0  0  0  0  0
  -16.6974    4.1679    0.0000 C   0  0  0  0  0  0  0  0  0  0  0  0
  -15.9005    4.3814    0.0000 C   0  0  0  0  0  0  0  0  0  0  0  0
   -9.5345   -5.2262    0.0000 H   0  0  0  0  0  0  0  0  0  0  0  0
    1.2511   -1.1608    0.0000 H   0  0  0  0  0  0  0  0  0  0  0  0
 32  1  1  6  0  0  0
  1 56  1  0  0  0  0
 33  2  1  6  0  0  0
  2 57  1  0  0  0  0
  3 36  2  0  0  0  0
  4 37  2  0  0  0  0
  5 46  1  0  0  0  0
  5 60  1  0  0  0  0
  6 47  1  0  0  0  0
  6 61  1  0  0  0  0
  7 52  1  0  0  0  0
  7 64  1  0  0  0  0
  8 53  1  0  0  0  0
  8 65  1  0  0  0  0
  9 46  2  0  0  0  0
 10 47  2  0  0  0  0
 11 54  1  0  0  0  0
 11 78  1  0  0  0  0
 12 55  1  0  0  0  0
 12 79  1  0  0  0  0
 13 56  1  0  0  0  0
 13 68  1  0  0  0  0
 14 57  1  0  0  0  0
 14 69  1  0  0  0  0
 15 89  2  0  0  0  0
 16 91  1  0  0  0  0
 16 97  1  0  0  0  0
 17 93  2  0  0  0  0
 18 92  2  0  0  0  0
 19 99  2  0  0  0  0
 20100  1  0  0  0  0
 20103  1  0  0  0  0
 21102  1  0  0  0  0
 21105  1  0  0  0  0
 22104  1  0  0  0  0
 22106  1  0  0  0  0
 23 30  1  0  0  0  0
 23 36  1  0  0  0  0
 23 42  1  0  0  0  0
 24 31  1  0  0  0  0
 24 37  1  0  0  0  0
 24 43  1  0  0  0  0
 25 32  1  0  0  0  0
 25 34  1  0  0  0  0
 25 46  1  0  0  0  0
 26 33  1  0  0  0  0
 26 35  1  0  0  0  0
 26 47  1  0  0  0  0
 27 88  1  0  0  0  0
 27 89  1  0  0  0  0
 28 92  1  0  0  0  0
 28 93  1  0  0  0  0
 28 96  1  0  0  0  0
 29 99  1  0  0  0  0
 29101  1  0  0  0  0
 30 32  1  0  0  0  0
 30 40  1  0  0  0  0
 30107  1  6  0  0  0
 31 33  1  0  0  0  0
 31 41  1  0  0  0  0
 31108  1  6  0  0  0
 34 38  1  0  0  0  0
 34 48  2  0  0  0  0
 35 39  1  0  0  0  0
 35 49  2  0  0  0  0
 36 38  1  0  0  0  0
 37 39  1  0  0  0  0
 38 50  2  0  0  0  0
 39 51  2  0  0  0  0
 40 44  1  0  0  0  0
 41 45  1  0  0  0  0
 42 44  1  0  0  0  0
 43 45  1  0  0  0  0
 44 58  2  0  0  0  0
 45 59  2  0  0  0  0
 48 52  1  0  0  0  0
 49 53  1  0  0  0  0
 50 54  1  0  0  0  0
 51 55  1  0  0  0  0
 52 54  2  0  0  0  0
 53 55  2  0  0  0  0
 56 62  1  0  0  0  0
 57 63  1  0  0  0  0
 60 72  1  0  0  0  0
 60 73  1  0  0  0  0
 60 74  1  0  0  0  0
 61 75  1  0  0  0  0
 61 76  1  0  0  0  0
 61 77  1  0  0  0  0
 62 70  1  0  0  0  0
 63 71  1  0  0  0  0
 64 66  1  0  0  0  0
 65 67  1  0  0  0  0
 66 80  2  0  0  0  0
 66 83  1  0  0  0  0
 67 80  1  0  0  0  0
 67 84  2  0  0  0  0
 68 81  1  0  0  0  0
 69 82  1  0  0  0  0
 70 81  1  0  0  0  0
 71 82  1  0  0  0  0
 83 85  2  0  0  0  0
 84 85  1  0  0  0  0
 85 86  1  0  0  0  0
 86 87  3  0  0  0  0
 87 88  1  0  0  0  0
 89 90  1  0  0  0  0
 90 91  1  0  0  0  0
 92 94  1  0  0  0  0
 93 95  1  0  0  0  0
 94 95  2  0  0  0  0
 96 98  1  0  0  0  0
 97100  1  0  0  0  0
 98 99  1  0  0  0  0
101102  1  0  0  0  0
103104  1  0  0  0  0
105106  1  0  0  0  0
M  END
> <PUBCHEM_COMPOUND_ID_TYPE>
0

> <PUBCHEM_TOTAL_CHARGE>
0

> <PUBCHEM_SUBSTANCE_ID>
310929778

> <PUBCHEM_SUBSTANCE_VERSION>
1

> <PUBCHEM_EXT_DATASOURCE_NAME>
4488

> <PUBCHEM_EXT_DATASOURCE_REGID>
SCHEMBL16106979

> <PUBCHEM_SUBSTANCE_COMMENT>
InChI=1S/C77H99N7O22/c1-49-36-58-72(103-68-17-11-13-26-99-68)83(74(91)105-76(3,4)5)56-43-62(60(93-9)41-54(56)70(89)81(58)45-49)101-47-52-38-51(16-15-23-78-65(86)22-28-95-30-32-97-34-35-98-33-31-96-29-24-79-64(85)21-25-80-66(87)19-20-67(80)88)39-53(40-52)48-102-63-44-57-55(42-61(63)94-10)71(90)82-46-50(2)37-59(82)73(104-69-18-12-14-27-100-69)84(57)75(92)106-77(6,7)8/h19-20,38-44,58-59,68-69,72-73H,1-2,11-14,17-18,21-37,45-48H2,3-10H3,(H,78,86)(H,79,85)/t58-,59-,68?,69?,72-,73-/m0/s1
InChIKey=DFCKKEMVFQNFPE-XJWYLYCVSA-N

> <PUBCHEM_SUBSTANCE_SYNONYM>
SCHEMBL16106979

> <PUBCHEM_XREF_EXT_ID>
SCHEMBL16106979

> <PUBCHEM_EXT_DATASOURCE_URL>
https://www.surechembl.org/

> <PUBCHEM_EXT_SUBSTANCE_URL>
https://www.surechembl.org/chemical/SCHEMBL16106979

> <PUBCHEM_CID_ASSOCIATIONS>
117599062  1

> <PUBCHEM_COORDINATE_TYPE>
1
3

> <PUBCHEM_BONDANNOTATIONS>
32  1  6
33  2  6
30  107  6
31  108  6

$$$$
