310937701
  -OEChem-07211613022D

 16 18  0     0  0  0  0  0  0999 V2000
    2.2520   -1.9845    0.0000 O   0  0  0  0  0  0  0  0  0  0  0  0
    2.2520   -4.4595    0.0000 N   0  0  0  0  0  0  0  0  0  0  0  0
    4.3926   -4.0358    0.0000 N   0  0  0  0  0  0  0  0  0  0  0  0
    1.5385   -3.2108    0.0000 C   0  0  0  0  0  0  0  0  0  0  0  0
    0.8250   -2.8095    0.0000 C   0  0  0  0  0  0  0  0  0  0  0  0
    2.2520   -2.8095    0.0000 C   0  0  0  0  0  0  0  0  0  0  0  0
    2.9655   -3.2108    0.0000 C   0  0  0  0  0  0  0  0  0  0  0  0
    1.5385   -4.0358    0.0000 C   0  0  0  0  0  0  0  0  0  0  0  0
    0.0000   -2.8095    0.0000 C   0  0  0  0  0  0  0  0  0  0  0  0
    0.3790   -2.0737    0.0000 C   0  0  0  0  0  0  0  0  0  0  0  0
    2.9655   -4.0358    0.0000 C   0  0  0  0  0  0  0  0  0  0  0  0
    1.5385   -0.7358    0.0000 C   0  0  0  0  0  0  0  0  0  0  0  0
    1.5385   -1.5608    0.0000 C   0  0  0  0  0  0  0  0  0  0  0  0
    1.1372   -0.0223    0.0000 C   0  0  0  0  0  0  0  0  0  0  0  0
    1.9399    0.0000    0.0000 C   0  0  0  0  0  0  0  0  0  0  0  0
    3.6791   -4.4595    0.0000 C   0  0  0  0  0  0  0  0  0  0  0  0
  1  6  1  0  0  0  0
  1 13  1  0  0  0  0
  2  8  2  0  0  0  0
  2 11  1  0  0  0  0
  3 16  3  0  0  0  0
  4  5  1  0  0  0  0
  4  6  2  0  0  0  0
  4  8  1  0  0  0  0
  5  9  1  0  0  0  0
  5 10  1  0  0  0  0
  6  7  1  0  0  0  0
  7 11  2  0  0  0  0
  9 10  1  0  0  0  0
 11 16  1  0  0  0  0
 12 13  1  0  0  0  0
 12 14  1  0  0  0  0
 12 15  1  0  0  0  0
 14 15  1  0  0  0  0
M  END
> <PUBCHEM_COMPOUND_ID_TYPE>
0

> <PUBCHEM_TOTAL_CHARGE>
0

> <PUBCHEM_SUBSTANCE_ID>
310937701

> <PUBCHEM_SUBSTANCE_VERSION>
1

> <PUBCHEM_EXT_DATASOURCE_NAME>
4488

> <PUBCHEM_EXT_DATASOURCE_REGID>
SCHEMBL16115495

> <PUBCHEM_SUBSTANCE_COMMENT>
InChI=1S/C13H14N2O/c14-6-11-5-13(16-8-9-1-2-9)12(7-15-11)10-3-4-10/h5,7,9-10H,1-4,8H2
InChIKey=MYPBHRWZKGSHHW-UHFFFAOYSA-N

> <PUBCHEM_SUBSTANCE_SYNONYM>
SCHEMBL16115495

> <PUBCHEM_XREF_EXT_ID>
SCHEMBL16115495

> <PUBCHEM_EXT_DATASOURCE_URL>
https://www.surechembl.org/

> <PUBCHEM_EXT_SUBSTANCE_URL>
https://www.surechembl.org/chemical/SCHEMBL16115495

> <PUBCHEM_CID_ASSOCIATIONS>
117605381  1

> <PUBCHEM_COORDINATE_TYPE>
1
3

$$$$
