310940899
  -OEChem-07211613022D

 18 18  0     1  0  0  0  0  0999 V2000
   -1.4854    0.4887    0.0000 O   0  0  0  0  0  0  0  0  0  0  0  0
   -1.5237   -1.9454    0.0000 O   0  0  0  0  0  0  0  0  0  0  0  0
   -2.1945   -0.7379    0.0000 O   0  0  0  0  0  0  0  0  0  0  0  0
    2.1370    1.6003    0.0000 O   0  0  0  0  0  0  0  0  0  0  0  0
   -0.7570   -2.3670    0.0000 O   0  0  0  0  0  0  0  0  0  0  0  0
   -0.0671   -1.1404    0.0000 N   0  0  0  0  0  0  0  0  0  0  0  0
   -0.7570    0.1246    0.0000 C   0  0  3  0  0  0  0  0  0  0  0  0
   -0.7762   -0.7187    0.0000 C   0  0  3  0  0  0  0  0  0  0  0  0
   -0.0479    0.4887    0.0000 C   0  0  0  0  0  0  0  0  0  0  0  0
   -1.5046   -1.1404    0.0000 C   0  0  0  0  0  0  0  0  0  0  0  0
    0.6804    0.0671    0.0000 C   0  0  0  0  0  0  0  0  0  0  0  0
    0.0287    1.3129    0.0000 C   0  0  0  0  0  0  0  0  0  0  0  0
    1.4278    1.2554    0.0000 C   0  0  0  0  0  0  0  0  0  0  0  0
    1.3704    0.4312    0.0000 C   0  0  0  0  0  0  0  0  0  0  0  0
    0.7187    1.6771    0.0000 C   0  0  0  0  0  0  0  0  0  0  0  0
   -0.0671   -1.9454    0.0000 C   0  0  0  0  0  0  0  0  0  0  0  0
    0.6037   -2.3479    0.0000 C   0  0  0  0  0  0  0  0  0  0  0  0
    2.1945    2.3670    0.0000 C   0  0  0  0  0  0  0  0  0  0  0  0
  7  1  1  1  0  0  0
  2 10  2  0  0  0  0
  3 10  1  0  0  0  0
  4 13  1  0  0  0  0
  4 18  1  0  0  0  0
  5 16  2  0  0  0  0
  8  6  1  6  0  0  0
  6 16  1  0  0  0  0
  7  8  1  0  0  0  0
  7  9  1  0  0  0  0
  8 10  1  0  0  0  0
  9 11  2  0  0  0  0
  9 12  1  0  0  0  0
 11 14  1  0  0  0  0
 12 15  2  0  0  0  0
 13 14  2  0  0  0  0
 13 15  1  0  0  0  0
 16 17  1  0  0  0  0
M  END
> <PUBCHEM_COMPOUND_ID_TYPE>
0

> <PUBCHEM_TOTAL_CHARGE>
0

> <PUBCHEM_SUBSTANCE_ID>
310940899

> <PUBCHEM_SUBSTANCE_VERSION>
1

> <PUBCHEM_EXT_DATASOURCE_NAME>
4488

> <PUBCHEM_EXT_DATASOURCE_REGID>
SCHEMBL16118858

> <PUBCHEM_SUBSTANCE_COMMENT>
InChI=1S/C12H15NO5/c1-7(14)13-10(12(16)17)11(15)8-3-5-9(18-2)6-4-8/h3-6,10-11,15H,1-2H3,(H,13,14)(H,16,17)/t10-,11-/m0/s1
InChIKey=AGFWAAYXBADAAF-QWRGUYRKSA-N

> <PUBCHEM_SUBSTANCE_SYNONYM>
SCHEMBL16118858

> <PUBCHEM_XREF_EXT_ID>
SCHEMBL16118858

> <PUBCHEM_EXT_DATASOURCE_URL>
https://www.surechembl.org/

> <PUBCHEM_EXT_SUBSTANCE_URL>
https://www.surechembl.org/chemical/SCHEMBL16118858

> <PUBCHEM_CID_ASSOCIATIONS>
11747143  1

> <PUBCHEM_COORDINATE_TYPE>
1
3

> <PUBCHEM_BONDANNOTATIONS>
7  1  5
8  6  6

$$$$
