310937244
  -OEChem-07211613022D

 26 29  0     1  0  0  0  0  0999 V2000
    1.6571   -1.7420    0.0000 S   0  0  0  0  0  0  0  0  0  0  0  0
    0.8073   -8.4977    0.0000 F   0  0  0  0  0  0  0  0  0  0  0  0
    3.3141   -7.0531    0.0000 F   0  0  0  0  0  0  0  0  0  0  0  0
    0.0000   -5.6510    0.0000 O   0  0  0  0  0  0  0  0  0  0  0  0
    2.0394   -3.4841    0.0000 N   0  0  0  0  0  0  0  0  0  0  0  0
    1.2322   -4.9287    0.0000 N   0  0  0  0  0  0  0  0  0  0  0  0
    3.2291   -4.0364    0.0000 N   0  0  0  0  0  0  0  0  0  0  0  0
    3.3566   -3.1866    0.0000 N   0  0  0  0  0  0  0  0  0  0  0  0
    2.9742   -1.4446    0.0000 N   0  0  0  0  0  0  0  0  0  0  0  0
    1.7420   -0.8922    0.0000 N   0  0  0  0  0  0  0  0  0  0  0  0
    2.4643   -4.2064    0.0000 C   0  0  0  0  0  0  0  0  0  0  0  0
    2.5918   -2.8892    0.0000 C   0  0  0  0  0  0  0  0  0  0  0  0
    2.0394   -4.9287    0.0000 C   0  0  3  0  0  0  0  0  0  0  0  0
    2.4219   -2.0819    0.0000 C   0  0  0  0  0  0  0  0  0  0  0  0
    1.1897   -3.4841    0.0000 C   0  0  0  0  0  0  0  0  0  0  0  0
    0.8073   -5.6510    0.0000 C   0  0  0  0  0  0  0  0  0  0  0  0
    0.8073   -4.1639    0.0000 C   0  0  0  0  0  0  0  0  0  0  0  0
    1.2322   -6.3308    0.0000 C   0  0  0  0  0  0  0  0  0  0  0  0
    2.5493   -0.7648    0.0000 C   0  0  0  0  0  0  0  0  0  0  0  0
    2.4219   -5.6510    0.0000 C   0  0  0  0  0  0  0  0  0  0  0  0
    2.0394   -6.3733    0.0000 C   0  0  0  0  0  0  0  0  0  0  0  0
    0.8073   -7.0531    0.0000 C   0  0  0  0  0  0  0  0  0  0  0  0
    1.2322   -7.7754    0.0000 C   0  0  0  0  0  0  0  0  0  0  0  0
    2.4643   -7.0531    0.0000 C   0  0  0  0  0  0  0  0  0  0  0  0
    2.0394   -7.7754    0.0000 C   0  0  0  0  0  0  0  0  0  0  0  0
    2.8892    0.0000    0.0000 C   0  0  0  0  0  0  0  0  0  0  0  0
  1 10  1  0  0  0  0
  1 14  1  0  0  0  0
  2 23  1  0  0  0  0
  3 24  1  0  0  0  0
  4 16  2  0  0  0  0
  5 11  1  0  0  0  0
  5 12  1  0  0  0  0
  5 15  1  0  0  0  0
  6 13  1  0  0  0  0
  6 16  1  0  0  0  0
  6 17  1  0  0  0  0
  7  8  1  0  0  0  0
  7 11  2  0  0  0  0
  8 12  2  0  0  0  0
  9 14  2  0  0  0  0
  9 19  1  0  0  0  0
 10 19  2  0  0  0  0
 11 13  1  0  0  0  0
 12 14  1  0  0  0  0
 13 20  1  1  0  0  0
 15 17  1  0  0  0  0
 16 18  1  0  0  0  0
 18 21  2  0  0  0  0
 18 22  1  0  0  0  0
 19 26  1  0  0  0  0
 21 24  1  0  0  0  0
 22 23  2  0  0  0  0
 23 25  1  0  0  0  0
 24 25  2  0  0  0  0
M  END
> <PUBCHEM_COMPOUND_ID_TYPE>
0

> <PUBCHEM_TOTAL_CHARGE>
0

> <PUBCHEM_SUBSTANCE_ID>
310937244

> <PUBCHEM_SUBSTANCE_VERSION>
1

> <PUBCHEM_EXT_DATASOURCE_NAME>
4488

> <PUBCHEM_EXT_DATASOURCE_REGID>
SCHEMBL16114982

> <PUBCHEM_SUBSTANCE_COMMENT>
InChI=1S/C16H14F2N6OS/c1-8-13-20-21-14(15-19-9(2)22-26-15)24(13)4-3-23(8)16(25)10-5-11(17)7-12(18)6-10/h5-8H,3-4H2,1-2H3/t8-/m1/s1
InChIKey=IQKKFYUURGEICP-MRVPVSSYSA-N

> <PUBCHEM_SUBSTANCE_SYNONYM>
SCHEMBL16114982

> <PUBCHEM_XREF_EXT_ID>
SCHEMBL16114982

> <PUBCHEM_EXT_DATASOURCE_URL>
https://www.surechembl.org/

> <PUBCHEM_EXT_SUBSTANCE_URL>
https://www.surechembl.org/chemical/SCHEMBL16114982

> <PUBCHEM_CID_ASSOCIATIONS>
86274965  1

> <PUBCHEM_COORDINATE_TYPE>
1
3

> <PUBCHEM_BONDANNOTATIONS>
13  20  5

$$$$
