310941309
  -OEChem-07211613022D

 21 21  0     1  0  0  0  0  0999 V2000
    2.9596   -1.7271    0.0000 O   0  0  0  0  0  0  0  0  0  0  0  0
   -2.1585    2.5324    0.0000 O   0  0  0  0  0  0  0  0  0  0  0  0
    0.9458    2.5474    0.0000 O   0  0  0  0  0  0  0  0  0  0  0  0
    2.4606   -2.5474    0.0000 O   0  0  0  0  0  0  0  0  0  0  0  0
   -2.5955    1.1007    0.0000 N   0  0  0  0  0  0  0  0  0  0  0  0
    0.9307    0.0911    0.0000 N   0  0  0  0  0  0  0  0  0  0  0  0
   -1.2393    1.3871    0.0000 C   0  0  3  0  0  0  0  0  0  0  0  0
   -2.0078    1.7337    0.0000 C   0  0  0  0  0  0  0  0  0  0  0  0
    0.2074    1.3569    0.0000 C   0  0  3  0  0  0  0  0  0  0  0  0
   -0.5310    1.7789    0.0000 C   0  0  0  0  0  0  0  0  0  0  0  0
   -1.3598    0.5582    0.0000 C   0  0  0  0  0  0  0  0  0  0  0  0
    0.9156    1.7337    0.0000 C   0  0  0  0  0  0  0  0  0  0  0  0
   -2.1736    0.4227    0.0000 C   0  0  0  0  0  0  0  0  0  0  0  0
    2.4606   -2.0153    0.0000 C   0  0  0  0  0  0  0  0  0  0  0  0
    2.9707   -1.1727    0.0000 C   0  0  0  0  0  0  0  0  0  0  0  0
   -3.4695    1.0706    0.0000 C   0  0  0  0  0  0  0  0  0  0  0  0
    1.6390    1.3118    0.0000 C   0  0  0  0  0  0  0  0  0  0  0  0
    3.4695   -1.1505    0.0000 C   0  0  0  0  0  0  0  0  0  0  0  0
    2.4606   -1.1727    0.0000 C   0  0  0  0  0  0  0  0  0  0  0  0
    2.9596   -0.6295    0.0000 C   0  0  0  0  0  0  0  0  0  0  0  0
    2.3623    1.7337    0.0000 C   0  0  0  0  0  0  0  0  0  0  0  0
  1 14  1  0  0  0  0
  1 15  1  0  0  0  0
  2  8  2  0  0  0  0
  3 12  2  0  0  0  0
  4 14  2  0  0  0  0
  5  8  1  0  0  0  0
  5 13  1  0  0  0  0
  5 16  1  0  0  0  0
  9  6  1  1  0  0  0
  6 14  1  0  0  0  0
  7  8  1  0  0  0  0
  7 10  1  0  0  0  0
  7 11  1  0  0  0  0
  9 10  1  0  0  0  0
  9 12  1  0  0  0  0
 11 13  1  0  0  0  0
 12 17  1  0  0  0  0
 15 18  1  0  0  0  0
 15 19  1  0  0  0  0
 15 20  1  0  0  0  0
 17 21  2  0  0  0  0
M  END
> <PUBCHEM_COMPOUND_ID_TYPE>
0

> <PUBCHEM_TOTAL_CHARGE>
0

> <PUBCHEM_SUBSTANCE_ID>
310941309

> <PUBCHEM_SUBSTANCE_VERSION>
1

> <PUBCHEM_EXT_DATASOURCE_NAME>
4488

> <PUBCHEM_EXT_DATASOURCE_REGID>
SCHEMBL16119269

> <PUBCHEM_SUBSTANCE_COMMENT>
InChI=1S/C15H24N2O4/c1-6-12(18)11(16-14(20)21-15(2,3)4)9-10-7-8-17(5)13(10)19/h6,10-11H,1,7-9H2,2-5H3,(H,16,20)/t10?,11-/m0/s1
InChIKey=HIOYOSXTYHPMDE-DTIOYNMSSA-N

> <PUBCHEM_SUBSTANCE_SYNONYM>
SCHEMBL16119269

> <PUBCHEM_XREF_EXT_ID>
SCHEMBL16119269

> <PUBCHEM_EXT_DATASOURCE_URL>
https://www.surechembl.org/

> <PUBCHEM_EXT_SUBSTANCE_URL>
https://www.surechembl.org/chemical/SCHEMBL16119269

> <PUBCHEM_CID_ASSOCIATIONS>
117608157  1

> <PUBCHEM_COORDINATE_TYPE>
1
3

> <PUBCHEM_BONDANNOTATIONS>
9  6  5

$$$$
