310938067
  -OEChem-07211613022D

 43 48  0     0  0  0  0  0  0999 V2000
    3.8999   -8.3956    0.0000 F   0  0  0  0  0  0  0  0  0  0  0  0
    1.4625   -5.0915    0.0000 O   0  0  0  0  0  0  0  0  0  0  0  0
    4.2791   -0.5958    0.0000 O   0  0  0  0  0  0  0  0  0  0  0  0
    0.7583   -3.8457    0.0000 O   0  0  0  0  0  0  0  0  0  0  0  0
    3.2499   -1.5708    0.0000 O   0  0  0  0  0  0  0  0  0  0  0  0
    4.3874   -2.7624    0.0000 N   0  0  0  0  0  0  0  0  0  0  0  0
    2.1666   -3.8457    0.0000 N   0  0  0  0  0  0  0  0  0  0  0  0
    5.1457   -9.2623    0.0000 N   0  0  0  0  0  0  0  0  0  0  0  0
    5.9040   -5.6874    0.0000 N   0  0  0  0  0  0  0  0  0  0  0  0
    5.6874   -7.1498    0.0000 N   0  0  0  0  0  0  0  0  0  0  0  0
    6.4457   -9.5331    0.0000 N   0  0  0  0  0  0  0  0  0  0  0  0
    4.5499   -6.2832    0.0000 N   0  0  0  0  0  0  0  0  0  0  0  0
    4.3332   -9.4248    0.0000 N   0  0  0  0  0  0  0  0  0  0  0  0
    4.3874   -4.1165    0.0000 C   0  0  0  0  0  0  0  0  0  0  0  0
    3.6291   -3.8457    0.0000 C   0  0  0  0  0  0  0  0  0  0  0  0
    4.8749   -3.4666    0.0000 C   0  0  0  0  0  0  0  0  0  0  0  0
    3.6291   -3.0333    0.0000 C   0  0  0  0  0  0  0  0  0  0  0  0
    4.7665   -4.8207    0.0000 C   0  0  0  0  0  0  0  0  0  0  0  0
    2.8708   -4.2791    0.0000 C   0  0  0  0  0  0  0  0  0  0  0  0
    5.6874   -3.5208    0.0000 C   0  0  0  0  0  0  0  0  0  0  0  0
    2.8708   -2.5999    0.0000 C   0  0  0  0  0  0  0  0  0  0  0  0
    5.5248   -4.9291    0.0000 C   0  0  0  0  0  0  0  0  0  0  0  0
    4.6040   -2.0041    0.0000 C   0  0  0  0  0  0  0  0  0  0  0  0
    6.0123   -4.2791    0.0000 C   0  0  0  0  0  0  0  0  0  0  0  0
    5.5790   -8.5581    0.0000 C   0  0  0  0  0  0  0  0  0  0  0  0
    2.1666   -3.0333    0.0000 C   0  0  0  0  0  0  0  0  0  0  0  0
    5.1999   -7.7998    0.0000 C   0  0  0  0  0  0  0  0  0  0  0  0
    5.4165   -6.3915    0.0000 C   0  0  0  0  0  0  0  0  0  0  0  0
    1.4625   -4.2791    0.0000 C   0  0  0  0  0  0  0  0  0  0  0  0
    5.7415   -9.8581    0.0000 C   0  0  0  0  0  0  0  0  0  0  0  0
    4.3874   -7.7457    0.0000 C   0  0  0  0  0  0  0  0  0  0  0  0
    4.0624   -1.4083    0.0000 C   0  0  0  0  0  0  0  0  0  0  0  0
    6.3915   -8.7206    0.0000 C   0  0  0  0  0  0  0  0  0  0  0  0
    4.0624   -6.9331    0.0000 C   0  0  0  0  0  0  0  0  0  0  0  0
    5.4165  -10.6706    0.0000 C   0  0  0  0  0  0  0  0  0  0  0  0
    4.0624  -10.1831    0.0000 C   0  0  0  0  0  0  0  0  0  0  0  0
    0.7583   -5.5248    0.0000 C   0  0  0  0  0  0  0  0  0  0  0  0
    4.6582  -10.8331    0.0000 C   0  0  0  0  0  0  0  0  0  0  0  0
    3.7374    0.0000    0.0000 C   0  0  0  0  0  0  0  0  0  0  0  0
    0.3250   -4.7665    0.0000 C   0  0  0  0  0  0  0  0  0  0  0  0
    0.0000   -5.9040    0.0000 C   0  0  0  0  0  0  0  0  0  0  0  0
    1.1375   -6.2290    0.0000 C   0  0  0  0  0  0  0  0  0  0  0  0
    2.9249   -0.1625    0.0000 C   0  0  0  0  0  0  0  0  0  0  0  0
  1 31  1  0  0  0  0
  2 29  1  0  0  0  0
  2 37  1  0  0  0  0
  3 32  1  0  0  0  0
  3 39  1  0  0  0  0
  4 29  2  0  0  0  0
  5 32  2  0  0  0  0
  6 16  1  0  0  0  0
  6 17  1  0  0  0  0
  6 23  1  0  0  0  0
  7 19  1  0  0  0  0
  7 26  1  0  0  0  0
  7 29  1  0  0  0  0
  8 13  1  0  0  0  0
  8 25  1  0  0  0  0
  8 30  1  0  0  0  0
  9 22  1  0  0  0  0
  9 28  1  0  0  0  0
 10 27  2  0  0  0  0
 10 28  1  0  0  0  0
 11 30  2  0  0  0  0
 11 33  1  0  0  0  0
 12 28  2  0  0  0  0
 12 34  1  0  0  0  0
 13 36  2  0  0  0  0
 14 15  1  0  0  0  0
 14 16  2  0  0  0  0
 14 18  1  0  0  0  0
 15 17  2  0  0  0  0
 15 19  1  0  0  0  0
 16 20  1  0  0  0  0
 17 21  1  0  0  0  0
 18 22  2  0  0  0  0
 20 24  2  0  0  0  0
 21 26  1  0  0  0  0
 22 24  1  0  0  0  0
 23 32  1  0  0  0  0
 25 27  1  0  0  0  0
 25 33  2  0  0  0  0
 27 31  1  0  0  0  0
 30 35  1  0  0  0  0
 31 34  2  0  0  0  0
 35 38  2  0  0  0  0
 36 38  1  0  0  0  0
 37 40  1  0  0  0  0
 37 41  1  0  0  0  0
 37 42  1  0  0  0  0
 39 43  1  0  0  0  0
M  END
> <PUBCHEM_COMPOUND_ID_TYPE>
0

> <PUBCHEM_TOTAL_CHARGE>
0

> <PUBCHEM_SUBSTANCE_ID>
310938067

> <PUBCHEM_SUBSTANCE_VERSION>
1

> <PUBCHEM_EXT_DATASOURCE_NAME>
4488

> <PUBCHEM_EXT_DATASOURCE_REGID>
SCHEMBL16115908

> <PUBCHEM_SUBSTANCE_COMMENT>
InChI=1S/C30H31FN8O4/c1-5-42-26(40)17-38-22-9-8-18(13-19(22)20-16-37(12-10-23(20)38)29(41)43-30(2,3)4)35-28-33-14-21(31)27(36-28)24-15-32-25-7-6-11-34-39(24)25/h6-9,11,13-15H,5,10,12,16-17H2,1-4H3,(H,33,35,36)
InChIKey=AUSQWFQZARILEQ-UHFFFAOYSA-N

> <PUBCHEM_SUBSTANCE_SYNONYM>
SCHEMBL16115908

> <PUBCHEM_XREF_EXT_ID>
SCHEMBL16115908

> <PUBCHEM_EXT_DATASOURCE_URL>
https://www.surechembl.org/

> <PUBCHEM_EXT_SUBSTANCE_URL>
https://www.surechembl.org/chemical/SCHEMBL16115908

> <PUBCHEM_CID_ASSOCIATIONS>
117605638  1

> <PUBCHEM_COORDINATE_TYPE>
1
3

$$$$
