310931099
  -OEChem-07211613022D

 26 28  0     1  0  0  0  0  0999 V2000
    3.9567   -3.1382    0.0000 F   0  0  0  0  0  0  0  0  0  0  0  0
    4.7754   -1.7192    0.0000 O   0  0  0  0  0  0  0  0  0  0  0  0
    4.5571   -3.8476    0.0000 O   0  0  0  0  0  0  0  0  0  0  0  0
    6.2762   -3.2473    0.0000 O   0  0  0  0  0  0  0  0  0  0  0  0
    2.8652   -2.4013    0.0000 O   0  0  0  0  0  0  0  0  0  0  0  0
    5.3485   -0.3275    0.0000 O   0  0  0  0  0  0  0  0  0  0  0  0
    8.1864    0.0000    0.0000 O   0  0  0  0  0  0  0  0  0  0  0  0
    2.1557   -1.1734    0.0000 O   0  0  0  0  0  0  0  0  0  0  0  0
    6.2217   -1.4736    0.0000 N   0  0  0  0  0  0  0  0  0  0  0  0
    6.7947   -0.1910    0.0000 N   0  0  0  0  0  0  0  0  0  0  0  0
    4.3115   -2.4287    0.0000 C   0  0  3  0  0  0  0  0  0  0  0  0
    5.5667   -1.9647    0.0000 C   0  0  3  0  0  0  0  0  0  0  0  0
    4.8027   -3.0562    0.0000 C   0  0  3  0  0  0  0  0  0  0  0  0
    5.5941   -2.7834    0.0000 C   0  0  3  0  0  0  0  0  0  0  0  0
    3.6020   -1.9920    0.0000 C   0  0  0  0  0  0  0  0  0  0  0  0
    6.1125   -0.6549    0.0000 C   0  0  0  0  0  0  0  0  0  0  0  0
    6.9857   -1.8010    0.0000 C   0  0  0  0  0  0  0  0  0  0  0  0
    7.5588   -0.5185    0.0000 C   0  0  0  0  0  0  0  0  0  0  0  0
    7.6680   -1.3371    0.0000 C   0  0  0  0  0  0  0  0  0  0  0  0
    2.1557   -1.9920    0.0000 C   0  0  0  0  0  0  0  0  0  0  0  0
    1.4462   -2.4013    0.0000 C   0  0  0  0  0  0  0  0  0  0  0  0
    0.7368   -1.9920    0.0000 C   0  0  0  0  0  0  0  0  0  0  0  0
    1.4462   -3.2200    0.0000 C   0  0  0  0  0  0  0  0  0  0  0  0
    0.0000   -2.4013    0.0000 C   0  0  0  0  0  0  0  0  0  0  0  0
    0.7368   -3.6566    0.0000 C   0  0  0  0  0  0  0  0  0  0  0  0
    0.0000   -3.2200    0.0000 C   0  0  0  0  0  0  0  0  0  0  0  0
 11  1  1  6  0  0  0
  2 11  1  0  0  0  0
 12  2  1  1  0  0  0
 13  3  1  6  0  0  0
 14  4  1  6  0  0  0
  5 15  1  0  0  0  0
  5 20  1  0  0  0  0
  6 16  2  0  0  0  0
  7 18  2  0  0  0  0
  8 20  2  0  0  0  0
  9 12  1  0  0  0  0
  9 16  1  0  0  0  0
  9 17  1  0  0  0  0
 10 16  1  0  0  0  0
 10 18  1  0  0  0  0
 11 13  1  0  0  0  0
 11 15  1  1  0  0  0
 12 14  1  0  0  0  0
 13 14  1  0  0  0  0
 17 19  2  0  0  0  0
 18 19  1  0  0  0  0
 20 21  1  0  0  0  0
 21 22  2  0  0  0  0
 21 23  1  0  0  0  0
 22 24  1  0  0  0  0
 23 25  2  0  0  0  0
 24 26  2  0  0  0  0
 25 26  1  0  0  0  0
M  END
> <PUBCHEM_COMPOUND_ID_TYPE>
0

> <PUBCHEM_TOTAL_CHARGE>
0

> <PUBCHEM_SUBSTANCE_ID>
310931099

> <PUBCHEM_SUBSTANCE_VERSION>
1

> <PUBCHEM_EXT_DATASOURCE_NAME>
4488

> <PUBCHEM_EXT_DATASOURCE_REGID>
SCHEMBL16108403

> <PUBCHEM_SUBSTANCE_COMMENT>
InChI=1S/C16H15FN2O7/c17-16(8-25-14(23)9-4-2-1-3-5-9)12(22)11(21)13(26-16)19-7-6-10(20)18-15(19)24/h1-7,11-13,21-22H,8H2,(H,18,20,24)/t11-,12+,13-,16-/m1/s1
InChIKey=WTNZXFZDEHESHC-OQMKEHIESA-N

> <PUBCHEM_SUBSTANCE_SYNONYM>
SCHEMBL16108403

> <PUBCHEM_XREF_EXT_ID>
SCHEMBL16108403

> <PUBCHEM_EXT_DATASOURCE_URL>
https://www.surechembl.org/

> <PUBCHEM_EXT_SUBSTANCE_URL>
https://www.surechembl.org/chemical/SCHEMBL16108403

> <PUBCHEM_CID_ASSOCIATIONS>
117599995  1

> <PUBCHEM_COORDINATE_TYPE>
1
3

> <PUBCHEM_BONDANNOTATIONS>
11  1  6
11  15  5
12  2  5
13  3  6
14  4  6

$$$$
