310948035
  -OEChem-07211613022D

 62 63  0     1  0  0  0  0  0999 V2000
    2.6233    0.0753    0.0000 I   0  0  0  0  0  0  0  0  0  0  0  0
    6.2257   -0.3012    0.0000 I   0  0  0  0  0  0  0  0  0  0  0  0
    0.0376    0.1381    0.0000 O   0  0  0  0  0  0  0  0  0  0  0  0
   -1.1924   -0.3766    0.0000 O   0  0  0  0  0  0  0  0  0  0  0  0
   -3.8408   -0.1632    0.0000 O   0  0  0  0  0  0  0  0  0  0  0  0
    2.2844   -0.9664    0.0000 O   0  0  0  0  0  0  0  0  0  0  0  0
   -5.1963    0.3515    0.0000 O   0  0  0  0  0  0  0  0  0  0  0  0
    3.8157   -0.1632    0.0000 O   0  0  0  0  0  0  0  0  0  0  0  0
    0.4518   -0.1632    0.0000 O   0  0  0  0  0  0  0  0  0  0  0  0
   -3.2007    0.1381    0.0000 O   0  0  0  0  0  0  0  0  0  0  0  0
   -1.3681    0.9289    0.0000 O   0  0  0  0  0  0  0  0  0  0  0  0
   -7.6189    0.1381    0.0000 O   0  0  0  0  0  0  0  0  0  0  0  0
   -5.3722   -0.9664    0.0000 O   0  0  0  0  0  0  0  0  0  0  0  0
    2.4601    0.3515    0.0000 O   0  0  0  0  0  0  0  0  0  0  0  0
   -7.2047   -0.1632    0.0000 O   0  0  0  0  0  0  0  0  0  0  0  0
   -2.2217   -1.7949    0.0000 O   0  0  0  0  0  0  0  0  0  0  0  0
   -6.2257    1.7824    0.0000 O   0  0  0  0  0  0  0  0  0  0  0  0
    4.4558    0.1381    0.0000 O   0  0  0  0  0  0  0  0  0  0  0  0
    1.4309    1.7824    0.0000 O   0  0  0  0  0  0  0  0  0  0  0  0
    6.2884    0.9289    0.0000 O   0  0  0  0  0  0  0  0  0  0  0  0
    5.4349   -1.7949    0.0000 O   0  0  0  0  0  0  0  0  0  0  0  0
    4.3555    2.8366    0.0000 O   0  0  0  0  0  0  0  0  0  0  0  0
    5.0834    1.5816    0.0000 O   0  0  0  0  0  0  0  0  0  0  0  0
    7.6063   -0.0627    0.0000 O   0  0  0  0  0  0  0  0  0  0  0  0
    6.4642   -0.3766    0.0000 O   0  0  0  0  0  0  0  0  0  0  0  0
   -4.5562    3.2383    0.0000 O   0  0  0  0  0  0  0  0  0  0  0  0
   -4.5562    1.7824    0.0000 O   0  0  0  0  0  0  0  0  0  0  0  0
    7.1043   -3.2383    0.0000 O   0  0  0  0  0  0  0  0  0  0  0  0
    7.1043   -1.7949    0.0000 O   0  0  0  0  0  0  0  0  0  0  0  0
    2.0961   -0.1632    0.0000 C   0  0  3  0  0  0  0  0  0  0  0  0
    1.2677   -0.3640    0.0000 C   0  0  3  0  0  0  0  0  0  0  0  0
   -2.7866   -0.3640    0.0000 C   0  0  3  0  0  0  0  0  0  0  0  0
    0.8535    0.3515    0.0000 C   0  0  3  0  0  0  0  0  0  0  0  0
   -0.7782    0.3515    0.0000 C   0  0  3  0  0  0  0  0  0  0  0  0
   -2.3848    0.3515    0.0000 C   0  0  3  0  0  0  0  0  0  0  0  0
   -1.5690    0.1381    0.0000 C   0  0  3  0  0  0  0  0  0  0  0  0
   -2.0083   -0.1381    0.0000 C   0  0  3  0  0  0  0  0  0  0  0  0
    2.8869   -0.3640    0.0000 C   0  0  3  0  0  0  0  0  0  0  0  0
   -4.7822   -0.3640    0.0000 C   0  0  3  0  0  0  0  0  0  0  0  0
   -5.5604   -0.1632    0.0000 C   0  0  3  0  0  0  0  0  0  0  0  0
    1.6568    0.1506    0.0000 C   0  0  3  0  0  0  0  0  0  0  0  0
   -6.3889   -0.3515    0.0000 C   0  0  3  0  0  0  0  0  0  0  0  0
   -6.7904    0.3515    0.0000 C   0  0  3  0  0  0  0  0  0  0  0  0
   -5.9997    0.1506    0.0000 C   0  0  3  0  0  0  0  0  0  0  0  0
    4.8700   -0.3640    0.0000 C   0  0  3  0  0  0  0  0  0  0  0  0
    2.0836    0.6652    0.0000 C   0  0  0  0  0  0  0  0  0  0  0  0
   -2.1966   -0.9289    0.0000 C   0  0  0  0  0  0  0  0  0  0  0  0
    5.2717    0.3515    0.0000 C   0  0  3  0  0  0  0  0  0  0  0  0
    3.3513    1.5816    0.0000 C   0  0  0  0  0  0  0  0  0  0  0  0
    5.6483   -0.1381    0.0000 C   0  0  3  0  0  0  0  0  0  0  0  0
    1.4560    0.9038    0.0000 C   0  0  0  0  0  0  0  0  0  0  0  0
   -6.2005    0.9163    0.0000 C   0  0  0  0  0  0  0  0  0  0  0  0
    6.0876    0.1381    0.0000 C   0  0  3  0  0  0  0  0  0  0  0  0
    4.3680    1.9958    0.0000 C   0  0  0  0  0  0  0  0  0  0  0  0
    5.4600   -0.9289    0.0000 C   0  0  0  0  0  0  0  0  0  0  0  0
    6.8784    0.3515    0.0000 C   0  0  3  0  0  0  0  0  0  0  0  0
   -8.3093    0.5398    0.0000 C   0  0  0  0  0  0  0  0  0  0  0  0
   -5.7863    2.5103    0.0000 C   0  0  0  0  0  0  0  0  0  0  0  0
   -4.9705    2.4978    0.0000 C   0  0  0  0  0  0  0  0  0  0  0  0
    5.8617   -2.5103    0.0000 C   0  0  0  0  0  0  0  0  0  0  0  0
    8.3093    0.3264    0.0000 C   0  0  0  0  0  0  0  0  0  0  0  0
    6.6901   -2.5103    0.0000 C   0  0  0  0  0  0  0  0  0  0  0  0
 38  1  1  6  0  0  0
 50  2  1  1  0  0  0
 33  3  1  6  0  0  0
 34  3  1  6  0  0  0
  4 34  1  0  0  0  0
  4 37  1  0  0  0  0
 32  5  1  1  0  0  0
 39  5  1  1  0  0  0
 30  6  1  6  0  0  0
  6 49  1  0  0  0  0
  7 39  1  0  0  0  0
  7 44  1  0  0  0  0
  8 38  1  0  0  0  0
 45  8  1  1  0  0  0
  9 31  1  0  0  0  0
 10 35  1  0  0  0  0
 11 36  1  0  0  0  0
 43 12  1  6  0  0  0
 12 57  1  0  0  0  0
 40 13  1  6  0  0  0
 14 41  1  0  0  0  0
 15 42  1  0  0  0  0
 16 47  1  0  0  0  0
 17 52  1  0  0  0  0
 17 58  1  0  0  0  0
 18 48  1  0  0  0  0
 19 51  1  0  0  0  0
 20 53  1  0  0  0  0
 21 55  1  0  0  0  0
 21 60  1  0  0  0  0
 22 54  2  0  0  0  0
 23 54  1  0  0  0  0
 24 56  1  0  0  0  0
 24 61  1  0  0  0  0
 56 25  1  1  0  0  0
 26 59  2  0  0  0  0
 27 59  1  0  0  0  0
 28 62  2  0  0  0  0
 29 62  1  0  0  0  0
 30 31  1  0  0  0  0
 30 38  1  0  0  0  0
 30 46  1  6  0  0  0
 31 33  1  0  0  0  0
 32 35  1  0  0  0  0
 32 37  1  0  0  0  0
 33 41  1  0  0  0  0
 34 36  1  0  0  0  0
 35 36  1  0  0  0  0
 37 47  1  6  0  0  0
 39 40  1  0  0  0  0
 40 42  1  0  0  0  0
 41 51  1  0  0  0  0
 42 43  1  0  0  0  0
 43 44  1  0  0  0  0
 44 52  1  0  0  0  0
 45 48  1  0  0  0  0
 45 50  1  0  0  0  0
 48 53  1  0  0  0  0
 49 54  1  0  0  0  0
 50 55  1  0  0  0  0
 53 56  1  0  0  0  0
 58 59  1  0  0  0  0
 60 62  1  0  0  0  0
M  END
> <PUBCHEM_COMPOUND_ID_TYPE>
0

> <PUBCHEM_TOTAL_CHARGE>
0

> <PUBCHEM_SUBSTANCE_ID>
310948035

> <PUBCHEM_SUBSTANCE_VERSION>
1

> <PUBCHEM_EXT_DATASOURCE_NAME>
4488

> <PUBCHEM_EXT_DATASOURCE_REGID>
SCHEMBL16126210

> <PUBCHEM_SUBSTANCE_COMMENT>
InChI=1S/C33H56I2O27/c1-33(57-10-17(43)44,32(35)62-24(11(34)6-55-8-15(39)40)18(45)21(48)29(52)54-3)28(51)25(12(38)4-36)60-30-23(50)20(47)27(13(5-37)58-30)61-31-22(49)19(46)26(53-2)14(59-31)7-56-9-16(41)42/h11-14,18-32,36-38,45-52H,4-10H2,1-3H3,(H,39,40)(H,41,42)(H,43,44)/t11-,12?,13-,14?,18?,19?,20?,21?,22-,23?,24+,25+,26+,27+,28?,29-,30-,31-,32-,33-/m0/s1
InChIKey=ISTGFXXVRDTXKA-WAHJPENISA-N

> <PUBCHEM_SUBSTANCE_SYNONYM>
SCHEMBL16126210

> <PUBCHEM_XREF_EXT_ID>
SCHEMBL16126210

> <PUBCHEM_EXT_DATASOURCE_URL>
https://www.surechembl.org/

> <PUBCHEM_EXT_SUBSTANCE_URL>
https://www.surechembl.org/chemical/SCHEMBL16126210

> <PUBCHEM_CID_ASSOCIATIONS>
117613670  1

> <PUBCHEM_COORDINATE_TYPE>
1
3

> <PUBCHEM_BONDANNOTATIONS>
38  1  6
43  12  6
12  57  3
40  13  6
50  2  5
24  61  3
56  25  5
33  3  6
34  3  6
30  46  6
37  47  6
32  5  5
39  5  5
30  6  6
45  8  5

$$$$
