310936302
  -OEChem-07211613022D

 39 42  0     0  0  0  0  0  0999 V2000
    5.5356    1.3741    0.0000 S   0  0  0  0  0  0  0  0  0  0  0  0
    3.3565    4.5761    0.0000 F   0  0  0  0  0  0  0  0  0  0  0  0
   -2.1434   -1.6500    0.0000 F   0  0  0  0  0  0  0  0  0  0  0  0
   -2.8579   -1.2375    0.0000 F   0  0  0  0  0  0  0  0  0  0  0  0
   -2.8579   -0.4125    0.0000 F   0  0  0  0  0  0  0  0  0  0  0  0
    0.8860    1.6320    0.0000 O   0  0  0  0  0  0  0  0  0  0  0  0
    3.1039    0.0084    0.0000 O   0  0  0  0  0  0  0  0  0  0  0  0
    2.1434   -1.6500    0.0000 O   0  0  0  0  0  0  0  0  0  0  0  0
    0.0000    0.4125    0.0000 N   0  0  0  0  0  0  0  0  0  0  0  0
    3.4011    1.4061    0.0000 N   0  0  0  0  0  0  0  0  0  0  0  0
    2.8579   -0.4125    0.0000 N   0  0  0  0  0  0  0  0  0  0  0  0
    1.4290    0.4125    0.0000 C   0  0  0  0  0  0  0  0  0  0  0  0
    2.0421    0.9645    0.0000 C   0  0  0  0  0  0  0  0  0  0  0  0
    1.7065    1.7182    0.0000 C   0  0  0  0  0  0  0  0  0  0  0  0
    0.7145    0.8250    0.0000 C   0  0  0  0  0  0  0  0  0  0  0  0
    1.4290   -0.4125    0.0000 C   0  0  0  0  0  0  0  0  0  0  0  0
    2.8490    0.7930    0.0000 C   0  0  0  0  0  0  0  0  0  0  0  0
    2.1190    2.4327    0.0000 C   0  0  0  0  0  0  0  0  0  0  0  0
    0.0000   -0.4125    0.0000 C   0  0  0  0  0  0  0  0  0  0  0  0
    0.7145   -0.8250    0.0000 C   0  0  0  0  0  0  0  0  0  0  0  0
    2.1434   -0.8250    0.0000 C   0  0  0  0  0  0  0  0  0  0  0  0
    4.2080    1.2346    0.0000 C   0  0  0  0  0  0  0  0  0  0  0  0
    1.7065    3.1471    0.0000 C   0  0  0  0  0  0  0  0  0  0  0  0
    2.9440    2.4327    0.0000 C   0  0  0  0  0  0  0  0  0  0  0  0
   -0.7145   -0.8250    0.0000 C   0  0  0  0  0  0  0  0  0  0  0  0
    2.1190    3.8617    0.0000 C   0  0  0  0  0  0  0  0  0  0  0  0
    3.3565    3.1471    0.0000 C   0  0  0  0  0  0  0  0  0  0  0  0
    3.2098    1.9946    0.0000 C   0  0  0  0  0  0  0  0  0  0  0  0
    2.9440    3.8617    0.0000 C   0  0  0  0  0  0  0  0  0  0  0  0
    4.8211    1.7866    0.0000 C   0  0  0  0  0  0  0  0  0  0  0  0
    4.5436    0.4809    0.0000 C   0  0  0  0  0  0  0  0  0  0  0  0
   -1.4290   -0.4125    0.0000 C   0  0  0  0  0  0  0  0  0  0  0  0
    3.5724   -0.8250    0.0000 C   0  0  0  0  0  0  0  0  0  0  0  0
   -2.1434   -0.8250    0.0000 C   0  0  0  0  0  0  0  0  0  0  0  0
    5.3640    0.5671    0.0000 C   0  0  0  0  0  0  0  0  0  0  0  0
    4.2868   -0.4125    0.0000 C   0  0  0  0  0  0  0  0  0  0  0  0
    5.0013   -0.8250    0.0000 C   0  0  0  0  0  0  0  0  0  0  0  0
    5.7158   -0.4125    0.0000 C   0  0  0  0  0  0  0  0  0  0  0  0
    6.4302   -0.8250    0.0000 C   0  0  0  0  0  0  0  0  0  0  0  0
  1 30  1  0  0  0  0
  1 35  1  0  0  0  0
  2 29  1  0  0  0  0
  3 34  1  0  0  0  0
  4 34  1  0  0  0  0
  5 34  1  0  0  0  0
  6 14  1  0  0  0  0
  6 15  1  0  0  0  0
  7 17  2  0  0  0  0
  8 21  2  0  0  0  0
  9 15  2  0  0  0  0
  9 19  1  0  0  0  0
 10 17  1  0  0  0  0
 10 22  1  0  0  0  0
 10 28  1  0  0  0  0
 11 21  1  0  0  0  0
 11 33  1  0  0  0  0
 12 13  1  0  0  0  0
 12 15  1  0  0  0  0
 12 16  2  0  0  0  0
 13 14  2  0  0  0  0
 13 17  1  0  0  0  0
 14 18  1  0  0  0  0
 16 20  1  0  0  0  0
 16 21  1  0  0  0  0
 18 23  2  0  0  0  0
 18 24  1  0  0  0  0
 19 20  2  0  0  0  0
 19 25  1  0  0  0  0
 22 30  2  0  0  0  0
 22 31  1  0  0  0  0
 23 26  1  0  0  0  0
 24 27  2  0  0  0  0
 25 32  1  0  0  0  0
 26 29  2  0  0  0  0
 27 29  1  0  0  0  0
 31 35  2  0  0  0  0
 32 34  1  0  0  0  0
 33 36  1  0  0  0  0
 36 37  1  0  0  0  0
 37 38  1  0  0  0  0
 38 39  1  0  0  0  0
M  END
> <PUBCHEM_COMPOUND_ID_TYPE>
0

> <PUBCHEM_TOTAL_CHARGE>
0

> <PUBCHEM_SUBSTANCE_ID>
310936302

> <PUBCHEM_SUBSTANCE_VERSION>
1

> <PUBCHEM_EXT_DATASOURCE_NAME>
4488

> <PUBCHEM_EXT_DATASOURCE_REGID>
SCHEMBL16113928

> <PUBCHEM_SUBSTANCE_COMMENT>
InChI=1S/C28H27F4N3O3S/c1-3-4-5-13-33-25(36)21-15-19(10-12-28(30,31)32)34-26-22(21)23(27(37)35(2)20-11-14-39-16-20)24(38-26)17-6-8-18(29)9-7-17/h6-9,11,14-16H,3-5,10,12-13H2,1-2H3,(H,33,36)
InChIKey=ZNWBOYWWRFXEQK-UHFFFAOYSA-N

> <PUBCHEM_SUBSTANCE_SYNONYM>
SCHEMBL16113928

> <PUBCHEM_XREF_EXT_ID>
SCHEMBL16113928

> <PUBCHEM_EXT_DATASOURCE_URL>
https://www.surechembl.org/

> <PUBCHEM_EXT_SUBSTANCE_URL>
https://www.surechembl.org/chemical/SCHEMBL16113928

> <PUBCHEM_CID_ASSOCIATIONS>
117604245  1

> <PUBCHEM_COORDINATE_TYPE>
1
3

$$$$
