310949940
  -OEChem-07211613022D

 30 35  0     1  0  0  0  0  0999 V2000
   -0.6278    1.3950    0.0000 N   0  0  0  0  0  0  0  0  0  0  0  0
    0.1534   -0.9765    0.0000 N   0  0  0  0  0  0  0  0  0  0  0  0
   -0.6278    2.7344    0.0000 N   0  0  0  0  0  0  0  0  0  0  0  0
    1.9949    1.6461    0.0000 N   0  0  0  0  0  0  0  0  0  0  0  0
   -0.3767    0.6138    0.0000 C   0  0  0  0  0  0  0  0  0  0  0  0
   -0.1395    2.0647    0.0000 C   0  0  0  0  0  0  0  0  0  0  0  0
   -1.4230    1.6601    0.0000 C   0  0  0  0  0  0  0  0  0  0  0  0
   -0.6557   -0.7533    0.0000 C   0  0  3  0  0  0  0  0  0  0  0  0
    0.6836   -0.3348    0.0000 C   0  0  3  0  0  0  0  0  0  0  0  0
   -1.4090    2.4832    0.0000 C   0  0  0  0  0  0  0  0  0  0  0  0
   -0.9068    0.0140    0.0000 C   0  0  0  0  0  0  0  0  0  0  0  0
    0.4464    0.4325    0.0000 C   0  0  0  0  0  0  0  0  0  0  0  0
    0.6976    2.0508    0.0000 C   0  0  3  0  0  0  0  0  0  0  0  0
    0.4046   -1.7578    0.0000 C   0  0  3  0  0  0  0  0  0  0  0  0
    0.1116   -0.0697    0.0000 C   0  0  0  0  0  0  0  0  0  0  0  0
   -0.4464   -0.2930    0.0000 C   0  0  0  0  0  0  0  0  0  0  0  0
   -2.1345    1.2416    0.0000 C   0  0  0  0  0  0  0  0  0  0  0  0
   -2.1484    2.8738    0.0000 C   0  0  0  0  0  0  0  0  0  0  0  0
    1.2276   -1.9252    0.0000 C   0  0  0  0  0  0  0  0  0  0  0  0
    1.2137    1.3950    0.0000 C   0  0  0  0  0  0  0  0  0  0  0  0
    1.1998    2.7204    0.0000 C   0  0  0  0  0  0  0  0  0  0  0  0
   -2.8599    1.6461    0.0000 C   0  0  0  0  0  0  0  0  0  0  0  0
   -2.8599    2.4693    0.0000 C   0  0  0  0  0  0  0  0  0  0  0  0
   -0.1674   -2.3856    0.0000 C   0  0  0  0  0  0  0  0  0  0  0  0
    1.9949    2.4693    0.0000 C   0  0  0  0  0  0  0  0  0  0  0  0
    1.4927   -2.7064    0.0000 C   0  0  0  0  0  0  0  0  0  0  0  0
    1.7857   -1.3253    0.0000 C   0  0  0  0  0  0  0  0  0  0  0  0
    2.5948   -1.4927    0.0000 C   0  0  0  0  0  0  0  0  0  0  0  0
    2.3158   -2.8738    0.0000 C   0  0  0  0  0  0  0  0  0  0  0  0
    2.8599   -2.2600    0.0000 C   0  0  0  0  0  0  0  0  0  0  0  0
  1  5  1  0  0  0  0
  1  6  1  0  0  0  0
  1  7  1  0  0  0  0
  2  8  1  0  0  0  0
  2  9  1  0  0  0  0
  2 14  1  0  0  0  0
  3  6  2  0  0  0  0
  3 10  1  0  0  0  0
  4 20  1  0  0  0  0
  4 25  1  0  0  0  0
  5 11  1  0  0  0  0
  5 12  1  0  0  0  0
 13  6  1  1  0  0  0
  7 10  1  0  0  0  0
  7 17  2  0  0  0  0
  8 11  1  0  0  0  0
  8 16  1  0  0  0  0
  9 12  1  0  0  0  0
  9 15  1  0  0  0  0
 10 18  2  0  0  0  0
 13 20  1  0  0  0  0
 13 21  1  0  0  0  0
 14 19  1  0  0  0  0
 14 24  1  1  0  0  0
 15 16  1  0  0  0  0
 17 22  1  0  0  0  0
 18 23  1  0  0  0  0
 19 26  1  0  0  0  0
 19 27  1  0  0  0  0
 21 25  1  0  0  0  0
 22 23  2  0  0  0  0
 26 29  1  0  0  0  0
 27 28  1  0  0  0  0
 28 30  1  0  0  0  0
 29 30  1  0  0  0  0
M  END
> <PUBCHEM_COMPOUND_ID_TYPE>
0

> <PUBCHEM_TOTAL_CHARGE>
0

> <PUBCHEM_SUBSTANCE_ID>
310949940

> <PUBCHEM_SUBSTANCE_VERSION>
1

> <PUBCHEM_EXT_DATASOURCE_NAME>
4488

> <PUBCHEM_EXT_DATASOURCE_REGID>
SCHEMBL16128167

> <PUBCHEM_SUBSTANCE_COMMENT>
InChI=1S/C26H38N4/c1-18(19-7-3-2-4-8-19)29-21-11-12-22(29)16-23(15-21)30-25-10-6-5-9-24(25)28-26(30)20-13-14-27-17-20/h5-6,9-10,18-23,27H,2-4,7-8,11-17H2,1H3/t18-,20+,21?,22?,23?/m1/s1
InChIKey=XQUURFOWYVTXQO-HOYNSAQOSA-N

> <PUBCHEM_SUBSTANCE_SYNONYM>
SCHEMBL16128167

> <PUBCHEM_XREF_EXT_ID>
SCHEMBL16128167

> <PUBCHEM_EXT_DATASOURCE_URL>
https://www.surechembl.org/

> <PUBCHEM_EXT_SUBSTANCE_URL>
https://www.surechembl.org/chemical/SCHEMBL16128167

> <PUBCHEM_CID_ASSOCIATIONS>
117615203  1

> <PUBCHEM_COORDINATE_TYPE>
1
3

> <PUBCHEM_BONDANNOTATIONS>
14  24  5
13  6  5

$$$$
