310945605
  -OEChem-07211613022D

 26 28  0     0  0  0  0  0  0999 V2000
    0.1225   -2.2406    0.0000 Cl  0  0  0  0  0  0  0  0  0  0  0  0
   -3.6816    0.9726    0.0000 O   0  0  0  0  0  0  0  0  0  0  0  0
    3.1484    1.5058    0.0000 O   0  0  0  0  0  0  0  0  0  0  0  0
    3.1484    0.0072    0.0000 O   0  0  0  0  0  0  0  0  0  0  0  0
   -0.8718   -0.0504    0.0000 N   0  0  0  0  0  0  0  0  0  0  0  0
   -0.8718   -1.4337    0.0000 N   0  0  0  0  0  0  0  0  0  0  0  0
   -2.3127   -1.5922    0.0000 N   0  0  0  0  0  0  0  0  0  0  0  0
    1.9669    0.7565    0.0000 N   0  0  0  0  0  0  0  0  0  0  0  0
   -4.3588   -0.3098    0.0000 N   0  0  0  0  0  0  0  0  0  0  0  0
   -0.4107   -0.7421    0.0000 C   0  0  0  0  0  0  0  0  0  0  0  0
   -1.6210   -0.3098    0.0000 C   0  0  0  0  0  0  0  0  0  0  0  0
   -1.6210   -1.1744    0.0000 C   0  0  0  0  0  0  0  0  0  0  0  0
    0.3819   -0.7565    0.0000 C   0  0  0  0  0  0  0  0  0  0  0  0
    0.7709   -1.4769    0.0000 C   0  0  0  0  0  0  0  0  0  0  0  0
   -2.2983    0.1081    0.0000 C   0  0  0  0  0  0  0  0  0  0  0  0
   -2.9900   -0.3098    0.0000 C   0  0  0  0  0  0  0  0  0  0  0  0
    0.7853   -0.0072    0.0000 C   0  0  0  0  0  0  0  0  0  0  0  0
    1.5634   -0.0072    0.0000 C   0  0  0  0  0  0  0  0  0  0  0  0
   -2.9900   -1.1599    0.0000 C   0  0  0  0  0  0  0  0  0  0  0  0
    1.5634   -1.4914    0.0000 C   0  0  0  0  0  0  0  0  0  0  0  0
    1.9525   -0.7565    0.0000 C   0  0  0  0  0  0  0  0  0  0  0  0
   -3.6816    0.1081    0.0000 C   0  0  0  0  0  0  0  0  0  0  0  0
    2.7449    0.7709    0.0000 C   0  0  0  0  0  0  0  0  0  0  0  0
    3.9410    1.4914    0.0000 C   0  0  0  0  0  0  0  0  0  0  0  0
    4.3588    2.2406    0.0000 C   0  0  0  0  0  0  0  0  0  0  0  0
    4.3444    0.7133    0.0000 C   0  0  0  0  0  0  0  0  0  0  0  0
  1 14  1  0  0  0  0
  2 22  2  0  0  0  0
  3 23  1  0  0  0  0
  3 24  1  0  0  0  0
  4 23  2  0  0  0  0
  5 10  1  0  0  0  0
  5 11  1  0  0  0  0
  6 10  2  0  0  0  0
  6 12  1  0  0  0  0
  7 12  2  0  0  0  0
  7 19  1  0  0  0  0
  8 18  1  0  0  0  0
  8 23  1  0  0  0  0
  9 22  1  0  0  0  0
 10 13  1  0  0  0  0
 11 12  1  0  0  0  0
 11 15  2  0  0  0  0
 13 14  1  0  0  0  0
 13 17  2  0  0  0  0
 14 20  2  0  0  0  0
 15 16  1  0  0  0  0
 16 19  2  0  0  0  0
 16 22  1  0  0  0  0
 17 18  1  0  0  0  0
 18 21  2  0  0  0  0
 20 21  1  0  0  0  0
 24 25  1  0  0  0  0
 24 26  1  0  0  0  0
M  END
> <PUBCHEM_COMPOUND_ID_TYPE>
0

> <PUBCHEM_TOTAL_CHARGE>
0

> <PUBCHEM_SUBSTANCE_ID>
310945605

> <PUBCHEM_SUBSTANCE_VERSION>
1

> <PUBCHEM_EXT_DATASOURCE_NAME>
4488

> <PUBCHEM_EXT_DATASOURCE_REGID>
SCHEMBL16123704

> <PUBCHEM_SUBSTANCE_COMMENT>
InChI=1S/C17H16ClN5O3/c1-8(2)26-17(25)21-10-3-4-12(18)11(6-10)15-22-13-5-9(14(19)24)7-20-16(13)23-15/h3-8H,1-2H3,(H2,19,24)(H,21,25)(H,20,22,23)
InChIKey=AFTLCWCNLJJECT-UHFFFAOYSA-N

> <PUBCHEM_SUBSTANCE_SYNONYM>
SCHEMBL16123704

> <PUBCHEM_XREF_EXT_ID>
SCHEMBL16123704

> <PUBCHEM_EXT_DATASOURCE_URL>
https://www.surechembl.org/

> <PUBCHEM_EXT_SUBSTANCE_URL>
https://www.surechembl.org/chemical/SCHEMBL16123704

> <PUBCHEM_CID_ASSOCIATIONS>
117611627  1

> <PUBCHEM_COORDINATE_TYPE>
1
3

$$$$
