310941746
  -OEChem-07211613022D

 40 44  0     1  0  0  0  0  0999 V2000
    3.8885   -2.8897    0.0000 F   0  0  0  0  0  0  0  0  0  0  0  0
    4.5543   -2.9031    0.0000 F   0  0  0  0  0  0  0  0  0  0  0  0
    4.9006   -2.3304    0.0000 F   0  0  0  0  0  0  0  0  0  0  0  0
   -4.7807   -0.8390    0.0000 F   0  0  0  0  0  0  0  0  0  0  0  0
   -4.8340   -3.4224    0.0000 F   0  0  0  0  0  0  0  0  0  0  0  0
    1.8776    3.4224    0.0000 O   0  0  0  0  0  0  0  0  0  0  0  0
    3.8219   -1.5980    0.0000 O   0  0  0  0  0  0  0  0  0  0  0  0
    1.9576    0.5992    0.0000 O   0  0  0  0  0  0  0  0  0  0  0  0
    0.1864   -0.9455    0.0000 O   0  0  0  0  0  0  0  0  0  0  0  0
    2.6500    2.0375    0.0000 N   0  0  3  0  0  0  0  0  0  0  0  0
    3.0229   -0.1465    0.0000 N   0  0  0  0  0  0  0  0  0  0  0  0
    0.0666   -2.2106    0.0000 N   0  0  0  0  0  0  0  0  0  0  0  0
   -2.0241   -2.9164    0.0000 N   0  0  0  0  0  0  0  0  0  0  0  0
    1.8910    2.0774    0.0000 C   0  0  3  0  0  0  0  0  0  0  0  0
    2.6767    3.3958    0.0000 C   0  0  3  0  0  0  0  0  0  0  0  0
    3.0362    1.3184    0.0000 C   0  0  3  0  0  0  0  0  0  0  0  0
    3.0761    2.7432    0.0000 C   0  0  0  0  0  0  0  0  0  0  0  0
    2.6500    2.4769    0.0000 C   0  0  0  0  0  0  0  0  0  0  0  0
    2.5968   -0.8390    0.0000 C   0  0  0  0  0  0  0  0  0  0  0  0
    2.6367    0.6126    0.0000 C   0  0  0  0  0  0  0  0  0  0  0  0
    1.4648    2.7166    0.0000 C   0  0  0  0  0  0  0  0  0  0  0  0
    2.9830   -1.5713    0.0000 C   0  0  0  0  0  0  0  0  0  0  0  0
    1.3317   -1.5048    0.0000 C   0  0  0  0  0  0  0  0  0  0  0  0
    1.7578   -0.8390    0.0000 C   0  0  0  0  0  0  0  0  0  0  0  0
    0.5193   -1.5048    0.0000 C   0  0  0  0  0  0  0  0  0  0  0  0
    2.5568   -2.2639    0.0000 C   0  0  0  0  0  0  0  0  0  0  0  0
    1.7312   -2.2639    0.0000 C   0  0  0  0  0  0  0  0  0  0  0  0
    3.7287    1.2784    0.0000 C   0  0  0  0  0  0  0  0  0  0  0  0
    4.2214   -2.3038    0.0000 C   0  0  0  0  0  0  0  0  0  0  0  0
   -2.4237   -2.1573    0.0000 C   0  0  0  0  0  0  0  0  0  0  0  0
   -0.7724   -2.1839    0.0000 C   0  0  0  0  0  0  0  0  0  0  0  0
   -3.2626   -2.1440    0.0000 C   0  0  0  0  0  0  0  0  0  0  0  0
   -1.9842   -1.4515    0.0000 C   0  0  0  0  0  0  0  0  0  0  0  0
   -1.1852   -2.9031    0.0000 C   0  0  0  0  0  0  0  0  0  0  0  0
   -1.1453   -1.4648    0.0000 C   0  0  0  0  0  0  0  0  0  0  0  0
   -3.6754   -2.8365    0.0000 C   0  0  0  0  0  0  0  0  0  0  0  0
   -3.6488   -1.4249    0.0000 C   0  0  0  0  0  0  0  0  0  0  0  0
   -4.4744   -1.3983    0.0000 C   0  0  0  0  0  0  0  0  0  0  0  0
   -4.5144   -2.8231    0.0000 C   0  0  0  0  0  0  0  0  0  0  0  0
   -4.9006   -2.1174    0.0000 C   0  0  0  0  0  0  0  0  0  0  0  0
  1 29  1  0  0  0  0
  2 29  1  0  0  0  0
  3 29  1  0  0  0  0
  4 38  1  0  0  0  0
  5 39  1  0  0  0  0
  6 15  1  0  0  0  0
  6 21  1  0  0  0  0
  7 22  1  0  0  0  0
  7 29  1  0  0  0  0
  8 20  2  0  0  0  0
  9 25  2  0  0  0  0
 14 10  1  6  0  0  0
 10 16  1  0  0  0  0
 10 17  1  0  0  0  0
 11 19  1  0  0  0  0
 11 20  1  0  0  0  0
 12 25  1  0  0  0  0
 12 31  1  0  0  0  0
 13 30  2  0  0  0  0
 13 34  1  0  0  0  0
 14 18  1  0  0  0  0
 14 21  1  0  0  0  0
 15 17  1  0  0  0  0
 15 18  1  1  0  0  0
 16 20  1  0  0  0  0
 16 28  1  0  0  0  0
 19 22  1  0  0  0  0
 19 24  2  0  0  0  0
 22 26  2  0  0  0  0
 23 24  1  0  0  0  0
 23 25  1  0  0  0  0
 23 27  2  0  0  0  0
 26 27  1  0  0  0  0
 30 32  1  0  0  0  0
 30 33  1  0  0  0  0
 31 34  2  0  0  0  0
 31 35  1  0  0  0  0
 32 36  2  0  0  0  0
 32 37  1  0  0  0  0
 33 35  2  0  0  0  0
 36 39  1  0  0  0  0
 37 38  2  0  0  0  0
 38 40  1  0  0  0  0
 39 40  2  0  0  0  0
M  END
> <PUBCHEM_COMPOUND_ID_TYPE>
0

> <PUBCHEM_TOTAL_CHARGE>
0

> <PUBCHEM_SUBSTANCE_ID>
310941746

> <PUBCHEM_SUBSTANCE_VERSION>
1

> <PUBCHEM_EXT_DATASOURCE_NAME>
4488

> <PUBCHEM_EXT_DATASOURCE_REGID>
SCHEMBL16119777

> <PUBCHEM_SUBSTANCE_COMMENT>
InChI=1S/C27H23F5N4O4/c1-14(36-12-21-10-20(36)13-39-21)25(37)35-23-8-15(2-5-24(23)40-27(30,31)32)26(38)34-19-3-4-22(33-11-19)16-6-17(28)9-18(29)7-16/h2-9,11,14,20-21H,10,12-13H2,1H3,(H,34,38)(H,35,37)/t14?,20-,21-/m0/s1
InChIKey=JSAIVQYMVQPPGL-CWKJCNCHSA-N

> <PUBCHEM_SUBSTANCE_SYNONYM>
SCHEMBL16119777

> <PUBCHEM_XREF_EXT_ID>
SCHEMBL16119777

> <PUBCHEM_EXT_DATASOURCE_URL>
https://www.surechembl.org/

> <PUBCHEM_EXT_SUBSTANCE_URL>
https://www.surechembl.org/chemical/SCHEMBL16119777

> <PUBCHEM_CID_ASSOCIATIONS>
117608510  1

> <PUBCHEM_COORDINATE_TYPE>
1
3

> <PUBCHEM_BONDANNOTATIONS>
14  10  6
15  18  5

$$$$
