310931336
  -OEChem-07211613022D

 37 42  0     1  0  0  0  0  0999 V2000
    6.6531   -7.4071    0.0000 S   0  0  0  0  0  0  0  0  0  0  0  0
    0.0000   -3.9919    0.0000 F   0  0  0  0  0  0  0  0  0  0  0  0
    0.3992    0.0000    0.0000 F   0  0  0  0  0  0  0  0  0  0  0  0
    1.3306   -5.0120    0.0000 O   0  0  0  0  0  0  0  0  0  0  0  0
    4.3910   -3.5927    0.0000 O   0  0  0  0  0  0  0  0  0  0  0  0
    4.8346   -5.7216    0.0000 O   0  0  0  0  0  0  0  0  0  0  0  0
    3.5484   -4.7459    0.0000 N   0  0  0  0  0  0  0  0  0  0  0  0
    0.8427   -2.8830    0.0000 N   0  0  0  0  0  0  0  0  0  0  0  0
    3.9919   -6.8749    0.0000 N   0  0  0  0  0  0  0  0  0  0  0  0
    4.9233   -4.9233    0.0000 N   0  0  0  0  0  0  0  0  0  0  0  0
    1.7741   -0.1331    0.0000 N   0  0  0  0  0  0  0  0  0  0  0  0
    5.4112   -7.8507    0.0000 N   0  0  0  0  0  0  0  0  0  0  0  0
    2.8386   -4.3023    0.0000 C   0  0  3  0  0  0  0  0  0  0  0  0
    2.1734   -3.8145    0.0000 C   0  0  0  0  0  0  0  0  0  0  0  0
    2.7499   -5.1451    0.0000 C   0  0  0  0  0  0  0  0  0  0  0  0
    1.4193   -4.1693    0.0000 C   0  0  0  0  0  0  0  0  0  0  0  0
    2.0403   -5.4555    0.0000 C   0  0  0  0  0  0  0  0  0  0  0  0
    2.9717   -3.5040    0.0000 C   0  0  0  0  0  0  0  0  0  0  0  0
    2.2621   -2.9717    0.0000 C   0  0  0  0  0  0  0  0  0  0  0  0
    0.7540   -3.6814    0.0000 C   0  0  0  0  0  0  0  0  0  0  0  0
    3.4596   -5.6329    0.0000 C   0  0  0  0  0  0  0  0  0  0  0  0
    1.5967   -2.5725    0.0000 C   0  0  0  0  0  0  0  0  0  0  0  0
    1.9516   -6.2983    0.0000 C   0  0  0  0  0  0  0  0  0  0  0  0
    4.2580   -4.4354    0.0000 C   0  0  0  0  0  0  0  0  0  0  0  0
    3.3709   -6.3870    0.0000 C   0  0  0  0  0  0  0  0  0  0  0  0
    3.6814   -3.1491    0.0000 C   0  0  0  0  0  0  0  0  0  0  0  0
    1.6411   -1.7298    0.0000 C   0  0  0  0  0  0  0  0  0  0  0  0
    2.6169   -6.7418    0.0000 C   0  0  0  0  0  0  0  0  0  0  0  0
    0.9758   -1.2863    0.0000 C   0  0  0  0  0  0  0  0  0  0  0  0
    2.3951   -1.4193    0.0000 C   0  0  0  0  0  0  0  0  0  0  0  0
    4.7459   -6.5644    0.0000 C   0  0  0  0  0  0  0  0  0  0  0  0
    5.4112   -7.0079    0.0000 C   0  0  0  0  0  0  0  0  0  0  0  0
    1.0645   -0.4879    0.0000 C   0  0  0  0  0  0  0  0  0  0  0  0
    2.4838   -0.5766    0.0000 C   0  0  0  0  0  0  0  0  0  0  0  0
    6.2096   -6.7418    0.0000 C   0  0  0  0  0  0  0  0  0  0  0  0
    6.2096   -8.0724    0.0000 C   0  0  0  0  0  0  0  0  0  0  0  0
    6.4313   -8.8708    0.0000 C   0  0  0  0  0  0  0  0  0  0  0  0
  1 35  1  0  0  0  0
  1 36  1  0  0  0  0
  2 20  1  0  0  0  0
  3 33  1  0  0  0  0
  4 16  1  0  0  0  0
  4 17  1  0  0  0  0
  5 24  1  0  0  0  0
  5 26  1  0  0  0  0
  6 31  2  0  0  0  0
 13  7  1  1  0  0  0
  7 24  2  0  0  0  0
  8 20  1  0  0  0  0
  8 22  2  0  0  0  0
  9 25  1  0  0  0  0
  9 31  1  0  0  0  0
 10 24  1  0  0  0  0
 11 33  1  0  0  0  0
 11 34  2  0  0  0  0
 12 32  1  0  0  0  0
 12 36  2  0  0  0  0
 13 14  1  0  0  0  0
 13 15  1  0  0  0  0
 13 18  1  0  0  0  0
 14 16  1  0  0  0  0
 14 19  2  0  0  0  0
 15 17  2  0  0  0  0
 15 21  1  0  0  0  0
 16 20  2  0  0  0  0
 17 23  1  0  0  0  0
 18 26  1  0  0  0  0
 19 22  1  0  0  0  0
 21 25  2  0  0  0  0
 22 27  1  0  0  0  0
 23 28  2  0  0  0  0
 25 28  1  0  0  0  0
 27 29  1  0  0  0  0
 27 30  2  0  0  0  0
 29 33  2  0  0  0  0
 30 34  1  0  0  0  0
 31 32  1  0  0  0  0
 32 35  2  0  0  0  0
 36 37  1  0  0  0  0
M  END
> <PUBCHEM_COMPOUND_ID_TYPE>
0

> <PUBCHEM_TOTAL_CHARGE>
0

> <PUBCHEM_SUBSTANCE_ID>
310931336

> <PUBCHEM_SUBSTANCE_VERSION>
1

> <PUBCHEM_EXT_DATASOURCE_NAME>
4488

> <PUBCHEM_EXT_DATASOURCE_REGID>
SCHEMBL16108656

> <PUBCHEM_SUBSTANCE_COMMENT>
InChI=1S/C25H18F2N6O3S/c1-12-30-18(11-37-12)23(34)31-14-2-3-19-15(9-14)25(5-7-35-24(28)33-25)16-10-17(32-22(27)21(16)36-19)13-4-6-29-20(26)8-13/h2-4,6,8-11H,5,7H2,1H3,(H2,28,33)(H,31,34)/t25-/m0/s1
InChIKey=CODFYNFILGSWPT-VWLOTQADSA-N

> <PUBCHEM_SUBSTANCE_SYNONYM>
SCHEMBL16108656

> <PUBCHEM_XREF_EXT_ID>
SCHEMBL16108656

> <PUBCHEM_EXT_DATASOURCE_URL>
https://www.surechembl.org/

> <PUBCHEM_EXT_SUBSTANCE_URL>
https://www.surechembl.org/chemical/SCHEMBL16108656

> <PUBCHEM_CID_ASSOCIATIONS>
71542321  1

> <PUBCHEM_COORDINATE_TYPE>
1
3

> <PUBCHEM_BONDANNOTATIONS>
13  7  5

$$$$
