310941119
  -OEChem-07211613022D

 43 46  0     1  0  0  0  0  0999 V2000
    5.0900    0.6819    0.0000 O   0  0  0  0  0  0  0  0  0  0  0  0
    3.9511   -1.2866    0.0000 O   0  0  0  0  0  0  0  0  0  0  0  0
    1.7998    0.7803    0.0000 O   0  0  0  0  0  0  0  0  0  0  0  0
    0.3655   -1.6944    0.0000 O   0  0  0  0  0  0  0  0  0  0  0  0
   -0.3515   -1.2866    0.0000 O   0  0  0  0  0  0  0  0  0  0  0  0
    3.9511   -2.9458    0.0000 O   0  0  0  0  0  0  0  0  0  0  0  0
   -2.5028    0.7803    0.0000 O   0  0  0  0  0  0  0  0  0  0  0  0
   -5.3712    0.7803    0.0000 O   0  0  0  0  0  0  0  0  0  0  0  0
    2.5310   -0.4429    0.0000 N   0  0  0  0  0  0  0  0  0  0  0  0
    0.3655   -0.0211    0.0000 N   0  0  0  0  0  0  0  0  0  0  0  0
   -1.7857   -0.4429    0.0000 N   0  0  0  0  0  0  0  0  0  0  0  0
   -3.9371   -0.0211    0.0000 N   0  0  0  0  0  0  0  0  0  0  0  0
    4.6541   -0.0070    0.0000 C   0  0  3  0  0  0  0  0  0  0  0  0
    3.9511   -0.4289    0.0000 C   0  0  0  0  0  0  0  0  0  0  0  0
    4.2885    0.6819    0.0000 C   0  0  0  0  0  0  0  0  0  0  0  0
    3.2199   -0.0352    0.0000 C   0  0  3  0  0  0  0  0  0  0  0  0
    5.3712   -0.4148    0.0000 C   0  0  0  0  0  0  0  0  0  0  0  0
    1.7857   -0.0492    0.0000 C   0  0  0  0  0  0  0  0  0  0  0  0
    1.0967   -0.4429    0.0000 C   0  0  3  0  0  0  0  0  0  0  0  0
    3.2340    1.3007    0.0000 C   0  0  0  0  0  0  0  0  0  0  0  0
    1.0967   -1.2585    0.0000 C   0  0  3  0  0  0  0  0  0  0  0  0
    2.5028    1.7225    0.0000 C   0  0  0  0  0  0  0  0  0  0  0  0
    1.8139   -1.6803    0.0000 C   0  0  0  0  0  0  0  0  0  0  0  0
   -0.3375   -0.4148    0.0000 C   0  0  0  0  0  0  0  0  0  0  0  0
    2.5028   -1.2866    0.0000 C   0  0  0  0  0  0  0  0  0  0  0  0
    1.8139   -2.5099    0.0000 C   0  0  0  0  0  0  0  0  0  0  0  0
   -1.0827   -0.0352    0.0000 C   0  0  3  0  0  0  0  0  0  0  0  0
    1.8139    1.3147    0.0000 C   0  0  0  0  0  0  0  0  0  0  0  0
    2.5169    2.5380    0.0000 C   0  0  0  0  0  0  0  0  0  0  0  0
    3.2199   -2.5099    0.0000 C   0  0  0  0  0  0  0  0  0  0  0  0
    3.2340   -1.6803    0.0000 C   0  0  0  0  0  0  0  0  0  0  0  0
    2.5450   -2.9176    0.0000 C   0  0  0  0  0  0  0  0  0  0  0  0
    1.0967    1.7225    0.0000 C   0  0  0  0  0  0  0  0  0  0  0  0
    1.7998    2.9458    0.0000 C   0  0  0  0  0  0  0  0  0  0  0  0
   -2.5169   -0.0492    0.0000 C   0  0  0  0  0  0  0  0  0  0  0  0
    1.0967    2.5521    0.0000 C   0  0  0  0  0  0  0  0  0  0  0  0
   -1.0686    0.7944    0.0000 C   0  0  0  0  0  0  0  0  0  0  0  0
   -3.1918   -0.4289    0.0000 C   0  0  0  0  0  0  0  0  0  0  0  0
   -3.9371    0.8085    0.0000 C   0  0  0  0  0  0  0  0  0  0  0  0
   -4.6260   -0.4289    0.0000 C   0  0  0  0  0  0  0  0  0  0  0  0
    4.6822   -2.4958    0.0000 C   0  0  0  0  0  0  0  0  0  0  0  0
   -4.6541    1.2162    0.0000 C   0  0  0  0  0  0  0  0  0  0  0  0
   -5.3712   -0.0352    0.0000 C   0  0  0  0  0  0  0  0  0  0  0  0
  1 13  1  0  0  0  0
  1 15  1  0  0  0  0
  2 14  2  0  0  0  0
  3 18  2  0  0  0  0
 21  4  1  6  0  0  0
  5 24  2  0  0  0  0
  6 30  1  0  0  0  0
  6 41  1  0  0  0  0
  7 35  2  0  0  0  0
  8 42  1  0  0  0  0
  8 43  1  0  0  0  0
 16  9  1  1  0  0  0
  9 18  1  0  0  0  0
 19 10  1  6  0  0  0
 10 24  1  0  0  0  0
 11 27  1  0  0  0  0
 11 35  1  0  0  0  0
 12 38  1  0  0  0  0
 12 39  1  0  0  0  0
 12 40  1  0  0  0  0
 13 14  1  1  0  0  0
 13 15  1  0  0  0  0
 13 17  1  6  0  0  0
 14 16  1  0  0  0  0
 16 20  1  0  0  0  0
 18 19  1  0  0  0  0
 19 21  1  0  0  0  0
 20 22  1  0  0  0  0
 21 23  1  0  0  0  0
 22 28  2  0  0  0  0
 22 29  1  0  0  0  0
 23 25  2  0  0  0  0
 23 26  1  0  0  0  0
 24 27  1  0  0  0  0
 25 31  1  0  0  0  0
 26 32  2  0  0  0  0
 27 37  1  1  0  0  0
 28 33  1  0  0  0  0
 29 34  2  0  0  0  0
 30 31  2  0  0  0  0
 30 32  1  0  0  0  0
 33 36  2  0  0  0  0
 34 36  1  0  0  0  0
 35 38  1  0  0  0  0
 39 42  1  0  0  0  0
 40 43  1  0  0  0  0
M  END
> <PUBCHEM_COMPOUND_ID_TYPE>
0

> <PUBCHEM_TOTAL_CHARGE>
0

> <PUBCHEM_SUBSTANCE_ID>
310941119

> <PUBCHEM_SUBSTANCE_VERSION>
1

> <PUBCHEM_EXT_DATASOURCE_NAME>
4488

> <PUBCHEM_EXT_DATASOURCE_REGID>
SCHEMBL16119079

> <PUBCHEM_SUBSTANCE_COMMENT>
InChI=1S/C31H40N4O8/c1-20(32-25(36)18-35-13-15-42-16-14-35)29(39)34-26(27(37)22-9-11-23(41-3)12-10-22)30(40)33-24(28(38)31(2)19-43-31)17-21-7-5-4-6-8-21/h4-12,20,24,26-27,37H,13-19H2,1-3H3,(H,32,36)(H,33,40)(H,34,39)/t20-,24-,26-,27-,31+/m0/s1
InChIKey=IOZNARGQTJYNED-WUIGQWSMSA-N

> <PUBCHEM_SUBSTANCE_SYNONYM>
SCHEMBL16119079

> <PUBCHEM_XREF_EXT_ID>
SCHEMBL16119079

> <PUBCHEM_EXT_DATASOURCE_URL>
https://www.surechembl.org/

> <PUBCHEM_EXT_SUBSTANCE_URL>
https://www.surechembl.org/chemical/SCHEMBL16119079

> <PUBCHEM_CID_ASSOCIATIONS>
117608002  1

> <PUBCHEM_COORDINATE_TYPE>
1
3

> <PUBCHEM_BONDANNOTATIONS>
19  10  6
13  14  5
13  17  6
27  37  5
21  4  6
16  9  5

$$$$
