310932735
  -OEChem-07211613022D

 31 34  0     0  0  0  0  0  0999 V2000
    2.6529    0.0000    0.0000 F   0  0  0  0  0  0  0  0  0  0  0  0
    4.0325   -2.7237    0.0000 O   0  0  0  0  0  0  0  0  0  0  0  0
    8.4894   -2.7944    0.0000 O   0  0  0  0  0  0  0  0  0  0  0  0
    4.9168   -1.5917    0.0000 N   0  0  0  0  0  0  0  0  0  0  0  0
    4.8460   -0.7428    0.0000 N   0  0  0  0  0  0  0  0  0  0  0  0
    6.3316   -1.5917    0.0000 N   0  0  0  0  0  0  0  0  0  0  0  0
    7.7819   -4.0325    0.0000 N   0  0  0  0  0  0  0  0  0  0  0  0
    0.0000   -2.4407    0.0000 N   0  0  0  0  0  0  0  0  0  0  0  0
    3.6080   -1.3088    0.0000 C   0  0  0  0  0  0  0  0  0  0  0  0
    4.1740   -1.9101    0.0000 C   0  0  0  0  0  0  0  0  0  0  0  0
    2.7944   -1.4149    0.0000 C   0  0  0  0  0  0  0  0  0  0  0  0
    5.6242   -1.9808    0.0000 C   0  0  0  0  0  0  0  0  0  0  0  0
    4.0325   -0.6013    0.0000 C   0  0  0  0  0  0  0  0  0  0  0  0
    2.2992   -0.7428    0.0000 C   0  0  0  0  0  0  0  0  0  0  0  0
    2.4761   -2.1577    0.0000 C   0  0  0  0  0  0  0  0  0  0  0  0
    5.6242   -2.7944    0.0000 C   0  0  0  0  0  0  0  0  0  0  0  0
    7.0391   -2.7944    0.0000 C   0  0  0  0  0  0  0  0  0  0  0  0
    1.4856   -0.8490    0.0000 C   0  0  0  0  0  0  0  0  0  0  0  0
    1.1673   -1.5917    0.0000 C   0  0  0  0  0  0  0  0  0  0  0  0
    1.6625   -2.2638    0.0000 C   0  0  0  0  0  0  0  0  0  0  0  0
    7.0391   -1.9808    0.0000 C   0  0  0  0  0  0  0  0  0  0  0  0
    6.3316   -3.2189    0.0000 C   0  0  0  0  0  0  0  0  0  0  0  0
    7.7819   -3.2189    0.0000 C   0  0  0  0  0  0  0  0  0  0  0  0
    0.3537   -1.6979    0.0000 C   0  0  0  0  0  0  0  0  0  0  0  0
    8.4894   -4.4569    0.0000 C   0  0  0  0  0  0  0  0  0  0  0  0
    9.1969   -4.0325    0.0000 C   0  0  0  0  0  0  0  0  0  0  0  0
    9.9043   -4.4569    0.0000 C   0  0  0  0  0  0  0  0  0  0  0  0
    9.1969   -3.2189    0.0000 C   0  0  0  0  0  0  0  0  0  0  0  0
   10.6117   -4.0325    0.0000 C   0  0  0  0  0  0  0  0  0  0  0  0
    9.9043   -2.7944    0.0000 C   0  0  0  0  0  0  0  0  0  0  0  0
   10.6117   -3.2189    0.0000 C   0  0  0  0  0  0  0  0  0  0  0  0
  1 14  1  0  0  0  0
  2 10  1  0  0  0  0
  3 23  2  0  0  0  0
  4  5  1  0  0  0  0
  4 10  1  0  0  0  0
  4 12  1  0  0  0  0
  5 13  2  0  0  0  0
  6 12  2  0  0  0  0
  6 21  1  0  0  0  0
  7 23  1  0  0  0  0
  7 25  1  0  0  0  0
  8 24  3  0  0  0  0
  9 10  2  0  0  0  0
  9 11  1  0  0  0  0
  9 13  1  0  0  0  0
 11 14  1  0  0  0  0
 11 15  2  0  0  0  0
 12 16  1  0  0  0  0
 14 18  2  0  0  0  0
 15 20  1  0  0  0  0
 16 22  2  0  0  0  0
 17 21  2  0  0  0  0
 17 22  1  0  0  0  0
 17 23  1  0  0  0  0
 18 19  1  0  0  0  0
 19 20  2  0  0  0  0
 19 24  1  0  0  0  0
 25 26  1  0  0  0  0
 26 27  2  0  0  0  0
 26 28  1  0  0  0  0
 27 29  1  0  0  0  0
 28 30  2  0  0  0  0
 29 31  2  0  0  0  0
 30 31  1  0  0  0  0
M  END
> <PUBCHEM_COMPOUND_ID_TYPE>
0

> <PUBCHEM_TOTAL_CHARGE>
0

> <PUBCHEM_SUBSTANCE_ID>
310932735

> <PUBCHEM_SUBSTANCE_VERSION>
1

> <PUBCHEM_EXT_DATASOURCE_NAME>
4488

> <PUBCHEM_EXT_DATASOURCE_REGID>
SCHEMBL16110119

> <PUBCHEM_SUBSTANCE_COMMENT>
InChI=1S/C23H16FN5O2/c24-20-10-16(11-25)6-8-18(20)19-14-28-29(23(19)31)21-9-7-17(13-26-21)22(30)27-12-15-4-2-1-3-5-15/h1-10,13-14,31H,12H2,(H,27,30)
InChIKey=KPLMIUDDWBAETK-UHFFFAOYSA-N

> <PUBCHEM_SUBSTANCE_SYNONYM>
SCHEMBL16110119

> <PUBCHEM_XREF_EXT_ID>
SCHEMBL16110119

> <PUBCHEM_EXT_DATASOURCE_URL>
https://www.surechembl.org/

> <PUBCHEM_EXT_SUBSTANCE_URL>
https://www.surechembl.org/chemical/SCHEMBL16110119

> <PUBCHEM_CID_ASSOCIATIONS>
117601241  1

> <PUBCHEM_COORDINATE_TYPE>
1
3

$$$$
