310944755
  -OEChem-07211613022D

 15 15  0     0  0  0  0  0  0999 V2000
   -1.2623   -0.9873    0.0000 Cl  0  0  0  0  0  0  0  0  0  0  0  0
   -1.3623   -0.4624    0.0000 F   0  0  0  0  0  0  0  0  0  0  0  0
   -2.5121   -0.1625    0.0000 F   0  0  0  0  0  0  0  0  0  0  0  0
   -2.2122    0.9873    0.0000 F   0  0  0  0  0  0  0  0  0  0  0  0
    1.7872   -0.9749    0.0000 O   0  0  0  0  0  0  0  0  0  0  0  0
    1.9372    0.6874    0.0000 N   0  0  0  0  0  0  0  0  0  0  0  0
   -0.3499    0.2750    0.0000 C   0  0  0  0  0  0  0  0  0  0  0  0
   -0.3624   -0.5499    0.0000 C   0  0  0  0  0  0  0  0  0  0  0  0
    1.0624   -0.5499    0.0000 C   0  0  0  0  0  0  0  0  0  0  0  0
    1.0749    0.2750    0.0000 C   0  0  0  0  0  0  0  0  0  0  0  0
   -1.7998    0.2750    0.0000 C   0  0  0  0  0  0  0  0  0  0  0  0
   -1.0999    0.6874    0.0000 C   0  0  0  0  0  0  0  0  0  0  0  0
    0.3499    0.6749    0.0000 C   0  0  0  0  0  0  0  0  0  0  0  0
    0.3624   -0.9749    0.0000 C   0  0  0  0  0  0  0  0  0  0  0  0
    2.5121   -0.5750    0.0000 C   0  0  0  0  0  0  0  0  0  0  0  0
  1  8  1  0  0  0  0
  2 11  1  0  0  0  0
  3 11  1  0  0  0  0
  4 11  1  0  0  0  0
  5  9  1  0  0  0  0
  5 15  1  0  0  0  0
  6 10  1  0  0  0  0
  7  8  2  0  0  0  0
  7 12  1  0  0  0  0
  7 13  1  0  0  0  0
  8 14  1  0  0  0  0
  9 10  1  0  0  0  0
  9 14  2  0  0  0  0
 10 13  2  0  0  0  0
 11 12  1  0  0  0  0
M  END
> <PUBCHEM_COMPOUND_ID_TYPE>
0

> <PUBCHEM_TOTAL_CHARGE>
0

> <PUBCHEM_SUBSTANCE_ID>
310944755

> <PUBCHEM_SUBSTANCE_VERSION>
1

> <PUBCHEM_EXT_DATASOURCE_NAME>
4488

> <PUBCHEM_EXT_DATASOURCE_REGID>
SCHEMBL16122834

> <PUBCHEM_SUBSTANCE_COMMENT>
InChI=1S/C9H9ClF3NO/c1-15-8-3-6(10)5(2-7(8)14)4-9(11,12)13/h2-3H,4,14H2,1H3
InChIKey=YUSQQPSMDWIOPO-UHFFFAOYSA-N

> <PUBCHEM_SUBSTANCE_SYNONYM>
SCHEMBL16122834

> <PUBCHEM_XREF_EXT_ID>
SCHEMBL16122834

> <PUBCHEM_EXT_DATASOURCE_URL>
https://www.surechembl.org/

> <PUBCHEM_EXT_SUBSTANCE_URL>
https://www.surechembl.org/chemical/SCHEMBL16122834

> <PUBCHEM_CID_ASSOCIATIONS>
117610971  1

> <PUBCHEM_COORDINATE_TYPE>
1
3

$$$$
