310938624
  -OEChem-07211613022D

 27 30  0     0  0  0  0  0  0999 V2000
   -1.0710   -4.6974    0.0000 Cl  0  0  0  0  0  0  0  0  0  0  0  0
    2.5014   -5.1099    0.0000 O   0  0  0  0  0  0  0  0  0  0  0  0
    3.2158   -6.3474    0.0000 O   0  0  0  0  0  0  0  0  0  0  0  0
    4.6448   -6.3474    0.0000 O   0  0  0  0  0  0  0  0  0  0  0  0
   -1.0710   -7.1724    0.0000 O   0  0  0  0  0  0  0  0  0  0  0  0
    3.9303   -2.6349    0.0000 N   0  0  0  0  0  0  0  0  0  0  0  0
    3.2158   -3.8724    0.0000 N   0  0  0  0  0  0  0  0  0  0  0  0
    4.6448   -3.8724    0.0000 N   0  0  0  0  0  0  0  0  0  0  0  0
    4.3428   -1.3653    0.0000 C   0  0  0  0  0  0  0  0  0  0  0  0
    4.5977   -2.1500    0.0000 C   0  0  0  0  0  0  0  0  0  0  0  0
    5.1397   -1.1518    0.0000 C   0  0  0  0  0  0  0  0  0  0  0  0
    4.5563   -0.5684    0.0000 C   0  0  0  0  0  0  0  0  0  0  0  0
    3.9303   -3.4599    0.0000 C   0  0  0  0  0  0  0  0  0  0  0  0
    3.5178   -1.3653    0.0000 C   0  0  0  0  0  0  0  0  0  0  0  0
    3.2629   -2.1500    0.0000 C   0  0  0  0  0  0  0  0  0  0  0  0
    3.2158   -4.6974    0.0000 C   0  0  0  0  0  0  0  0  0  0  0  0
    3.9303   -5.1099    0.0000 C   0  0  0  0  0  0  0  0  0  0  0  0
    4.6448   -4.6974    0.0000 C   0  0  0  0  0  0  0  0  0  0  0  0
    3.9303   -5.9349    0.0000 C   0  0  0  0  0  0  0  0  0  0  0  0
    1.0724   -5.1099    0.0000 C   0  0  0  0  0  0  0  0  0  0  0  0
    1.7869   -4.6974    0.0000 C   0  0  0  0  0  0  0  0  0  0  0  0
   -0.3565   -5.1099    0.0000 C   0  0  0  0  0  0  0  0  0  0  0  0
    0.3579   -4.6974    0.0000 C   0  0  0  0  0  0  0  0  0  0  0  0
   -0.3565   -5.9349    0.0000 C   0  0  0  0  0  0  0  0  0  0  0  0
    1.0724   -5.9349    0.0000 C   0  0  0  0  0  0  0  0  0  0  0  0
    0.3579   -6.3474    0.0000 C   0  0  0  0  0  0  0  0  0  0  0  0
   -1.0710   -6.3474    0.0000 C   0  0  0  0  0  0  0  0  0  0  0  0
  1 22  1  0  0  0  0
  2 16  1  0  0  0  0
  2 21  1  0  0  0  0
  3 19  2  0  0  0  0
  4 19  1  0  0  0  0
  5 27  1  0  0  0  0
  6 10  1  0  0  0  0
  6 13  1  0  0  0  0
  6 15  1  0  0  0  0
  7 13  1  0  0  0  0
  7 16  2  0  0  0  0
  8 13  2  0  0  0  0
  8 18  1  0  0  0  0
  9 10  1  0  0  0  0
  9 11  1  0  0  0  0
  9 12  1  0  0  0  0
  9 14  1  0  0  0  0
 11 12  1  0  0  0  0
 14 15  1  0  0  0  0
 16 17  1  0  0  0  0
 17 18  2  0  0  0  0
 17 19  1  0  0  0  0
 20 21  1  0  0  0  0
 20 23  2  0  0  0  0
 20 25  1  0  0  0  0
 22 23  1  0  0  0  0
 22 24  2  0  0  0  0
 24 26  1  0  0  0  0
 24 27  1  0  0  0  0
 25 26  2  0  0  0  0
M  END
> <PUBCHEM_COMPOUND_ID_TYPE>
0

> <PUBCHEM_TOTAL_CHARGE>
0

> <PUBCHEM_SUBSTANCE_ID>
310938624

> <PUBCHEM_SUBSTANCE_VERSION>
1

> <PUBCHEM_EXT_DATASOURCE_NAME>
4488

> <PUBCHEM_EXT_DATASOURCE_REGID>
SCHEMBL16116538

> <PUBCHEM_SUBSTANCE_COMMENT>
InChI=1S/C19H20ClN3O4/c20-15-7-12(1-2-13(15)9-24)10-27-16-14(17(25)26)8-21-18(22-16)23-6-5-19(11-23)3-4-19/h1-2,7-8,24H,3-6,9-11H2,(H,25,26)
InChIKey=MAOMFVOHJZAFHR-UHFFFAOYSA-N

> <PUBCHEM_SUBSTANCE_SYNONYM>
SCHEMBL16116538

> <PUBCHEM_XREF_EXT_ID>
SCHEMBL16116538

> <PUBCHEM_EXT_DATASOURCE_URL>
https://www.surechembl.org/

> <PUBCHEM_EXT_SUBSTANCE_URL>
https://www.surechembl.org/chemical/SCHEMBL16116538

> <PUBCHEM_CID_ASSOCIATIONS>
117606057  1

> <PUBCHEM_COORDINATE_TYPE>
1
3

$$$$
