310944584
  -OEChem-07211613022D

 28 30  0     0  0  0  0  0  0999 V2000
   -0.3675   -0.8472    0.0000 O   0  0  0  0  0  0  0  0  0  0  0  0
    1.0653    1.6446    0.0000 O   0  0  0  0  0  0  0  0  0  0  0  0
    4.6659   -0.4361    0.0000 O   0  0  0  0  0  0  0  0  0  0  0  0
    1.8128    0.3987    0.0000 N   0  0  0  0  0  0  0  0  0  0  0  0
   -0.3551    0.8099    0.0000 N   0  0  0  0  0  0  0  0  0  0  0  0
    3.2456   -0.4361    0.0000 N   0  0  0  0  0  0  0  0  0  0  0  0
   -1.0777    0.4111    0.0000 C   0  0  0  0  0  0  0  0  0  0  0  0
   -2.5105    0.3987    0.0000 C   0  0  0  0  0  0  0  0  0  0  0  0
   -1.0902   -0.4236    0.0000 C   0  0  0  0  0  0  0  0  0  0  0  0
   -1.7879    0.8099    0.0000 C   0  0  0  0  0  0  0  0  0  0  0  0
   -3.2456    0.8223    0.0000 C   0  0  0  0  0  0  0  0  0  0  0  0
    1.0777    0.7974    0.0000 C   0  0  0  0  0  0  0  0  0  0  0  0
   -2.5105   -0.4236    0.0000 C   0  0  0  0  0  0  0  0  0  0  0  0
   -1.7879   -0.8348    0.0000 C   0  0  0  0  0  0  0  0  0  0  0  0
    0.3675    0.3987    0.0000 C   0  0  0  0  0  0  0  0  0  0  0  0
    1.8128   -0.4361    0.0000 C   0  0  0  0  0  0  0  0  0  0  0  0
    2.5105    0.8099    0.0000 C   0  0  0  0  0  0  0  0  0  0  0  0
    2.5230   -0.8472    0.0000 C   0  0  0  0  0  0  0  0  0  0  0  0
    3.2331    0.3987    0.0000 C   0  0  0  0  0  0  0  0  0  0  0  0
    3.9433   -0.8472    0.0000 C   0  0  0  0  0  0  0  0  0  0  0  0
   -3.9682    0.4111    0.0000 C   0  0  0  0  0  0  0  0  0  0  0  0
   -3.2331    1.6446    0.0000 C   0  0  0  0  0  0  0  0  0  0  0  0
   -4.6659    0.8223    0.0000 C   0  0  0  0  0  0  0  0  0  0  0  0
   -3.9557    2.0557    0.0000 C   0  0  0  0  0  0  0  0  0  0  0  0
    3.9557   -1.6819    0.0000 C   0  0  0  0  0  0  0  0  0  0  0  0
   -4.6659    1.6446    0.0000 C   0  0  0  0  0  0  0  0  0  0  0  0
    0.3551   -0.4361    0.0000 C   0  0  0  0  0  0  0  0  0  0  0  0
    3.2207   -2.0557    0.0000 C   0  0  0  0  0  0  0  0  0  0  0  0
  1  9  1  0  0  0  0
  1 27  1  0  0  0  0
  2 12  2  0  0  0  0
  3 20  2  0  0  0  0
  4 12  1  0  0  0  0
  4 16  1  0  0  0  0
  4 17  1  0  0  0  0
  5  7  1  0  0  0  0
  5 15  1  0  0  0  0
  6 18  1  0  0  0  0
  6 19  1  0  0  0  0
  6 20  1  0  0  0  0
  7  9  1  0  0  0  0
  7 10  2  0  0  0  0
  8 10  1  0  0  0  0
  8 11  1  0  0  0  0
  8 13  2  0  0  0  0
  9 14  2  0  0  0  0
 11 21  2  0  0  0  0
 11 22  1  0  0  0  0
 12 15  1  0  0  0  0
 13 14  1  0  0  0  0
 16 18  1  0  0  0  0
 17 19  1  0  0  0  0
 20 25  1  0  0  0  0
 21 23  1  0  0  0  0
 22 24  2  0  0  0  0
 23 26  2  0  0  0  0
 24 26  1  0  0  0  0
 25 28  2  0  0  0  0
M  END
> <PUBCHEM_COMPOUND_ID_TYPE>
0

> <PUBCHEM_TOTAL_CHARGE>
0

> <PUBCHEM_SUBSTANCE_ID>
310944584

> <PUBCHEM_SUBSTANCE_VERSION>
1

> <PUBCHEM_EXT_DATASOURCE_NAME>
4488

> <PUBCHEM_EXT_DATASOURCE_REGID>
SCHEMBL16122662

> <PUBCHEM_SUBSTANCE_COMMENT>
InChI=1S/C22H25N3O3/c1-3-21(26)24-11-13-25(14-12-24)22(27)16-23-19-15-18(9-10-20(19)28-2)17-7-5-4-6-8-17/h3-10,15,23H,1,11-14,16H2,2H3
InChIKey=KFGBIXOCKCXWKG-UHFFFAOYSA-N

> <PUBCHEM_SUBSTANCE_SYNONYM>
SCHEMBL16122662

> <PUBCHEM_XREF_EXT_ID>
SCHEMBL16122662

> <PUBCHEM_EXT_DATASOURCE_URL>
https://www.surechembl.org/

> <PUBCHEM_EXT_SUBSTANCE_URL>
https://www.surechembl.org/chemical/SCHEMBL16122662

> <PUBCHEM_CID_ASSOCIATIONS>
117610815  1

> <PUBCHEM_COORDINATE_TYPE>
1
3

$$$$
