310947936
  -OEChem-07211613022D

 15 14  0     1  0  0  0  0  0999 V2000
   -1.7834    0.9700    0.0000 O   0  0  0  0  0  0  0  0  0  0  0  0
   -2.4979    3.0325    0.0000 O   0  0  0  0  0  0  0  0  0  0  0  0
   -1.0690    3.0325    0.0000 O   0  0  0  0  0  0  0  0  0  0  0  0
    1.0745    0.9700    0.0000 O   0  0  0  0  0  0  0  0  0  0  0  0
   -0.3545    1.7950    0.0000 N   0  0  0  0  0  0  0  0  0  0  0  0
   -1.7834    1.7950    0.0000 C   0  0  3  0  0  0  0  0  0  0  0  0
   -2.4979    2.2075    0.0000 C   0  0  3  0  0  0  0  0  0  0  0  0
   -1.0690    2.2075    0.0000 C   0  0  0  0  0  0  0  0  0  0  0  0
   -3.2124    1.7950    0.0000 C   0  0  0  0  0  0  0  0  0  0  0  0
    0.3600    2.2075    0.0000 C   0  0  0  0  0  0  0  0  0  0  0  0
    1.0744    1.7950    0.0000 C   0  0  3  0  0  0  0  0  0  0  0  0
   -3.6249    2.5095    0.0000 C   0  0  0  0  0  0  0  0  0  0  0  0
   -2.7999    1.0805    0.0000 C   0  0  0  0  0  0  0  0  0  0  0  0
    1.7889    2.2075    0.0000 C   0  0  0  0  0  0  0  0  0  0  0  0
    2.5034    1.7950    0.0000 C   0  0  0  0  0  0  0  0  0  0  0  0
  6  1  1  1  0  0  0
  7  2  1  1  0  0  0
  3  8  2  0  0  0  0
 11  4  1  1  0  0  0
  5  8  1  0  0  0  0
  5 10  1  0  0  0  0
  6  7  1  0  0  0  0
  6  8  1  0  0  0  0
  7  9  1  0  0  0  0
  9 12  1  0  0  0  0
  9 13  1  0  0  0  0
 10 11  1  0  0  0  0
 11 14  1  0  0  0  0
 14 15  1  0  0  0  0
M  END
> <PUBCHEM_COMPOUND_ID_TYPE>
0

> <PUBCHEM_TOTAL_CHARGE>
0

> <PUBCHEM_SUBSTANCE_ID>
310947936

> <PUBCHEM_SUBSTANCE_VERSION>
1

> <PUBCHEM_EXT_DATASOURCE_NAME>
4488

> <PUBCHEM_EXT_DATASOURCE_REGID>
SCHEMBL16126110

> <PUBCHEM_SUBSTANCE_COMMENT>
InChI=1S/C10H21NO4/c1-4-7(12)5-11-10(15)9(14)8(13)6(2)3/h6-9,12-14H,4-5H2,1-3H3,(H,11,15)/t7-,8-,9+/m1/s1
InChIKey=GUYZOEPJPZQEOE-HLTSFMKQSA-N

> <PUBCHEM_SUBSTANCE_SYNONYM>
SCHEMBL16126110

> <PUBCHEM_XREF_EXT_ID>
SCHEMBL16126110

> <PUBCHEM_EXT_DATASOURCE_URL>
https://www.surechembl.org/

> <PUBCHEM_EXT_SUBSTANCE_URL>
https://www.surechembl.org/chemical/SCHEMBL16126110

> <PUBCHEM_CID_ASSOCIATIONS>
117613592  1

> <PUBCHEM_COORDINATE_TYPE>
1
3

> <PUBCHEM_BONDANNOTATIONS>
6  1  5
7  2  5
11  4  5
9  12  3
9  13  3

$$$$
