310943345
  -OEChem-07211613022D

 25 27  0     0  0  0  0  0  0999 V2000
   -1.5901    1.3104    0.0000 Cl  0  0  0  0  0  0  0  0  0  0  0  0
   -1.6221   -1.7099    0.0000 Cl  0  0  0  0  0  0  0  0  0  0  0  0
    0.4555    1.9497    0.0000 F   0  0  0  0  0  0  0  0  0  0  0  0
    1.8458    1.9497    0.0000 F   0  0  0  0  0  0  0  0  0  0  0  0
    1.9257    1.2945    0.0000 F   0  0  0  0  0  0  0  0  0  0  0  0
    1.9577   -1.6940    0.0000 F   0  0  0  0  0  0  0  0  0  0  0  0
    3.2202   -0.6553    0.0000 F   0  0  0  0  0  0  0  0  0  0  0  0
    2.5170   -1.9497    0.0000 F   0  0  0  0  0  0  0  0  0  0  0  0
   -0.3276    0.4954    0.0000 N   0  0  0  0  0  0  0  0  0  0  0  0
   -0.3436   -0.9109    0.0000 N   0  0  0  0  0  0  0  0  0  0  0  0
   -3.2202   -0.1918    0.0000 N   0  0  0  0  0  0  0  0  0  0  0  0
    0.4235    0.1918    0.0000 C   0  0  0  0  0  0  0  0  0  0  0  0
    0.4075   -0.6712    0.0000 C   0  0  0  0  0  0  0  0  0  0  0  0
    1.1267    0.6232    0.0000 C   0  0  0  0  0  0  0  0  0  0  0  0
   -0.8071   -0.2237    0.0000 C   0  0  0  0  0  0  0  0  0  0  0  0
    1.7979   -0.6712    0.0000 C   0  0  0  0  0  0  0  0  0  0  0  0
    1.1586    1.5022    0.0000 C   0  0  0  0  0  0  0  0  0  0  0  0
   -1.6061   -0.2237    0.0000 C   0  0  0  0  0  0  0  0  0  0  0  0
    1.8139    0.1758    0.0000 C   0  0  0  0  0  0  0  0  0  0  0  0
    1.0947   -1.1027    0.0000 C   0  0  0  0  0  0  0  0  0  0  0  0
    2.5170   -1.1187    0.0000 C   0  0  0  0  0  0  0  0  0  0  0  0
   -2.0057    0.5274    0.0000 C   0  0  0  0  0  0  0  0  0  0  0  0
   -2.0216   -0.9909    0.0000 C   0  0  0  0  0  0  0  0  0  0  0  0
   -2.8207    0.5274    0.0000 C   0  0  0  0  0  0  0  0  0  0  0  0
   -2.8366   -0.9588    0.0000 C   0  0  0  0  0  0  0  0  0  0  0  0
  1 22  1  0  0  0  0
  2 23  1  0  0  0  0
  3 17  1  0  0  0  0
  4 17  1  0  0  0  0
  5 17  1  0  0  0  0
  6 21  1  0  0  0  0
  7 21  1  0  0  0  0
  8 21  1  0  0  0  0
  9 12  1  0  0  0  0
  9 15  2  0  0  0  0
 10 13  1  0  0  0  0
 10 15  1  0  0  0  0
 11 24  2  0  0  0  0
 11 25  1  0  0  0  0
 12 13  2  0  0  0  0
 12 14  1  0  0  0  0
 13 20  1  0  0  0  0
 14 17  1  0  0  0  0
 14 19  2  0  0  0  0
 15 18  1  0  0  0  0
 16 19  1  0  0  0  0
 16 20  2  0  0  0  0
 16 21  1  0  0  0  0
 18 22  2  0  0  0  0
 18 23  1  0  0  0  0
 22 24  1  0  0  0  0
 23 25  2  0  0  0  0
M  END
> <PUBCHEM_COMPOUND_ID_TYPE>
0

> <PUBCHEM_TOTAL_CHARGE>
0

> <PUBCHEM_SUBSTANCE_ID>
310943345

> <PUBCHEM_SUBSTANCE_VERSION>
1

> <PUBCHEM_EXT_DATASOURCE_NAME>
4488

> <PUBCHEM_EXT_DATASOURCE_REGID>
SCHEMBL16121408

> <PUBCHEM_SUBSTANCE_COMMENT>
InChI=1S/C14H5Cl2F6N3/c15-7-3-23-4-8(16)10(7)12-24-9-2-5(13(17,18)19)1-6(11(9)25-12)14(20,21)22/h1-4H,(H,24,25)
InChIKey=FWXRPRFTNMBWGS-UHFFFAOYSA-N

> <PUBCHEM_SUBSTANCE_SYNONYM>
SCHEMBL16121408

> <PUBCHEM_XREF_EXT_ID>
SCHEMBL16121408

> <PUBCHEM_EXT_DATASOURCE_URL>
https://www.surechembl.org/

> <PUBCHEM_EXT_SUBSTANCE_URL>
https://www.surechembl.org/chemical/SCHEMBL16121408

> <PUBCHEM_CID_ASSOCIATIONS>
117609769  1

> <PUBCHEM_COORDINATE_TYPE>
1
3

$$$$
