310931611
  -OEChem-07211613022D

 27 30  0     0  0  0  0  0  0999 V2000
    1.5840   -2.7060    0.0000 O   0  0  0  0  0  0  0  0  0  0  0  0
    3.0030   -2.5080    0.0000 N   0  0  0  0  0  0  0  0  0  0  0  0
    3.3990   -3.7620    0.0000 N   0  0  0  0  0  0  0  0  0  0  0  0
    4.4551   -2.7060    0.0000 N   0  0  0  0  0  0  0  0  0  0  0  0
    2.6070   -3.7620    0.0000 C   0  0  0  0  0  0  0  0  0  0  0  0
    2.3430   -2.9701    0.0000 C   0  0  0  0  0  0  0  0  0  0  0  0
    2.1120   -4.4220    0.0000 C   0  0  0  0  0  0  0  0  0  0  0  0
    2.9701   -4.4880    0.0000 C   0  0  0  0  0  0  0  0  0  0  0  0
    3.6630   -2.9701    0.0000 C   0  0  0  0  0  0  0  0  0  0  0  0
    3.0030   -1.6830    0.0000 C   0  0  0  0  0  0  0  0  0  0  0  0
    1.2870   -4.3561    0.0000 C   0  0  0  0  0  0  0  0  0  0  0  0
    2.6730   -5.3461    0.0000 C   0  0  0  0  0  0  0  0  0  0  0  0
    2.4420   -5.1811    0.0000 C   0  0  0  0  0  0  0  0  0  0  0  0
    3.7951   -4.5540    0.0000 C   0  0  0  0  0  0  0  0  0  0  0  0
    0.8250   -5.0161    0.0000 C   0  0  0  0  0  0  0  0  0  0  0  0
    2.9040   -5.9071    0.0000 C   0  0  0  0  0  0  0  0  0  0  0  0
    2.3100   -1.2540    0.0000 C   0  0  0  0  0  0  0  0  0  0  0  0
    3.6960   -1.2540    0.0000 C   0  0  0  0  0  0  0  0  0  0  0  0
    1.9470   -5.8411    0.0000 C   0  0  0  0  0  0  0  0  0  0  0  0
    4.1580   -5.2801    0.0000 C   0  0  0  0  0  0  0  0  0  0  0  0
    1.1550   -5.7421    0.0000 C   0  0  0  0  0  0  0  0  0  0  0  0
    3.6960   -5.9730    0.0000 C   0  0  0  0  0  0  0  0  0  0  0  0
    2.3100   -0.4290    0.0000 C   0  0  0  0  0  0  0  0  0  0  0  0
    3.6960   -0.4290    0.0000 C   0  0  0  0  0  0  0  0  0  0  0  0
    3.0030    0.0000    0.0000 C   0  0  0  0  0  0  0  0  0  0  0  0
    0.0000   -4.9170    0.0000 C   0  0  0  0  0  0  0  0  0  0  0  0
    2.4420   -6.6001    0.0000 C   0  0  0  0  0  0  0  0  0  0  0  0
  1  6  2  0  0  0  0
  2  6  1  0  0  0  0
  2  9  1  0  0  0  0
  2 10  1  0  0  0  0
  3  5  1  0  0  0  0
  3  9  1  0  0  0  0
  4  9  2  3  0  0  0
  5  6  1  0  0  0  0
  5  7  1  0  0  0  0
  5  8  1  0  0  0  0
  7 11  1  0  0  0  0
  7 13  2  0  0  0  0
  8 12  1  0  0  0  0
  8 14  2  0  0  0  0
 10 17  1  0  0  0  0
 10 18  1  0  0  0  0
 11 15  2  0  0  0  0
 12 16  2  0  0  0  0
 13 19  1  0  0  0  0
 14 20  1  0  0  0  0
 15 21  1  0  0  0  0
 15 26  1  0  0  0  0
 16 22  1  0  0  0  0
 16 27  1  0  0  0  0
 17 23  1  0  0  0  0
 18 24  1  0  0  0  0
 19 21  2  0  0  0  0
 20 22  2  0  0  0  0
 23 25  1  0  0  0  0
 24 25  1  0  0  0  0
M  END
> <PUBCHEM_COMPOUND_ID_TYPE>
0

> <PUBCHEM_TOTAL_CHARGE>
0

> <PUBCHEM_SUBSTANCE_ID>
310931611

> <PUBCHEM_SUBSTANCE_VERSION>
1

> <PUBCHEM_EXT_DATASOURCE_NAME>
4488

> <PUBCHEM_EXT_DATASOURCE_REGID>
SCHEMBL16108937

> <PUBCHEM_SUBSTANCE_COMMENT>
InChI=1S/C23H27N3O/c1-16-8-6-10-18(14-16)23(19-11-7-9-17(2)15-19)21(27)26(22(24)25-23)20-12-4-3-5-13-20/h6-11,14-15,20H,3-5,12-13H2,1-2H3,(H2,24,25)
InChIKey=MULJVLXKVWZOJN-UHFFFAOYSA-N

> <PUBCHEM_SUBSTANCE_SYNONYM>
SCHEMBL16108937

> <PUBCHEM_XREF_EXT_ID>
SCHEMBL16108937

> <PUBCHEM_EXT_DATASOURCE_URL>
https://www.surechembl.org/

> <PUBCHEM_EXT_SUBSTANCE_URL>
https://www.surechembl.org/chemical/SCHEMBL16108937

> <PUBCHEM_CID_ASSOCIATIONS>
76317509  1

> <PUBCHEM_COORDINATE_TYPE>
1
3

$$$$
