310947901
  -OEChem-07211613022D

 11 12  0     0  0  0  0  0  0999 V2000
    1.2667   -6.5782    0.0000 F   0  0  0  0  0  0  0  0  0  0  0  0
    0.8542   -8.6275    0.0000 O   0  0  0  0  0  0  0  0  0  0  0  0
    0.0696   -7.5476    0.0000 C   0  0  0  0  0  0  0  0  0  0  0  0
    0.0696   -8.3726    0.0000 C   0  0  0  0  0  0  0  0  0  0  0  0
    0.8542   -7.2926    0.0000 C   0  0  0  0  0  0  0  0  0  0  0  0
   -0.6448   -8.7851    0.0000 C   0  0  0  0  0  0  0  0  0  0  0  0
    1.3392   -7.9601    0.0000 C   0  0  0  0  0  0  0  0  0  0  0  0
   -0.6448   -7.1351    0.0000 C   0  0  0  0  0  0  0  0  0  0  0  0
   -1.3593   -8.3726    0.0000 C   0  0  0  0  0  0  0  0  0  0  0  0
   -1.3593   -7.5476    0.0000 C   0  0  0  0  0  0  0  0  0  0  0  0
   -0.6448   -9.6101    0.0000 C   0  0  0  0  0  0  0  0  0  0  0  0
  1  5  1  0  0  0  0
  2  4  1  0  0  0  0
  2  7  1  0  0  0  0
  3  4  1  0  0  0  0
  3  5  1  0  0  0  0
  3  8  2  0  0  0  0
  4  6  2  0  0  0  0
  5  7  2  0  0  0  0
  6  9  1  0  0  0  0
  6 11  1  0  0  0  0
  8 10  1  0  0  0  0
  9 10  2  0  0  0  0
M  END
> <PUBCHEM_COMPOUND_ID_TYPE>
0

> <PUBCHEM_TOTAL_CHARGE>
0

> <PUBCHEM_SUBSTANCE_ID>
310947901

> <PUBCHEM_SUBSTANCE_VERSION>
1

> <PUBCHEM_EXT_DATASOURCE_NAME>
4488

> <PUBCHEM_EXT_DATASOURCE_REGID>
SCHEMBL16126075

> <PUBCHEM_SUBSTANCE_COMMENT>
InChI=1S/C9H7FO/c1-6-3-2-4-7-8(10)5-11-9(6)7/h2-5H,1H3
InChIKey=NBFYIEZVIWPACN-UHFFFAOYSA-N

> <PUBCHEM_SUBSTANCE_SYNONYM>
SCHEMBL16126075

> <PUBCHEM_XREF_EXT_ID>
SCHEMBL16126075

> <PUBCHEM_EXT_DATASOURCE_URL>
https://www.surechembl.org/

> <PUBCHEM_EXT_SUBSTANCE_URL>
https://www.surechembl.org/chemical/SCHEMBL16126075

> <PUBCHEM_CID_ASSOCIATIONS>
117613565  1

> <PUBCHEM_COORDINATE_TYPE>
1
3

$$$$
