310949691
  -OEChem-07211613022D

 21 22  0     0  0  0  0  0  0999 V2000
   -1.4534   -1.6307    0.0000 O   0  0  0  0  0  0  0  0  0  0  0  0
   -1.4251    1.6307    0.0000 O   0  0  0  0  0  0  0  0  0  0  0  0
   -0.7728    0.4254    0.0000 O   0  0  0  0  0  0  0  0  0  0  0  0
    2.8998    0.9075    0.0000 O   0  0  0  0  0  0  0  0  0  0  0  0
   -0.7302   -0.3686    0.0000 N   0  0  0  0  0  0  0  0  0  0  0  0
   -2.1767   -0.2836    0.0000 C   0  0  0  0  0  0  0  0  0  0  0  0
   -2.1625    0.5388    0.0000 C   0  0  0  0  0  0  0  0  0  0  0  0
   -1.4534   -0.6949    0.0000 C   0  0  0  0  0  0  0  0  0  0  0  0
   -1.4676    0.8650    0.0000 C   0  0  0  0  0  0  0  0  0  0  0  0
   -2.8856   -0.7232    0.0000 C   0  0  0  0  0  0  0  0  0  0  0  0
   -2.8856    0.9359    0.0000 C   0  0  0  0  0  0  0  0  0  0  0  0
    0.7161   -0.2978    0.0000 C   0  0  0  0  0  0  0  0  0  0  0  0
    0.0213   -0.7090    0.0000 C   0  0  0  0  0  0  0  0  0  0  0  0
   -3.5946   -0.3119    0.0000 C   0  0  0  0  0  0  0  0  0  0  0  0
   -3.6088    0.5247    0.0000 C   0  0  0  0  0  0  0  0  0  0  0  0
    2.1625    0.5672    0.0000 C   0  0  0  0  0  0  0  0  0  0  0  0
    0.7302    0.5530    0.0000 C   0  0  0  0  0  0  0  0  0  0  0  0
    1.4393   -0.6949    0.0000 C   0  0  0  0  0  0  0  0  0  0  0  0
    1.4393    0.9643    0.0000 C   0  0  0  0  0  0  0  0  0  0  0  0
    2.1483   -0.2836    0.0000 C   0  0  0  0  0  0  0  0  0  0  0  0
    3.6088    0.5388    0.0000 C   0  0  0  0  0  0  0  0  0  0  0  0
  1  8  2  0  0  0  0
  2  9  2  0  0  0  0
  3  9  1  0  0  0  0
  4 16  1  0  0  0  0
  4 21  1  0  0  0  0
  5  8  1  0  0  0  0
  5 13  1  0  0  0  0
  6  7  1  0  0  0  0
  6  8  1  0  0  0  0
  6 10  2  0  0  0  0
  7  9  1  0  0  0  0
  7 11  2  0  0  0  0
 10 14  1  0  0  0  0
 11 15  1  0  0  0  0
 12 13  1  0  0  0  0
 12 17  2  0  0  0  0
 12 18  1  0  0  0  0
 14 15  2  0  0  0  0
 16 19  2  0  0  0  0
 16 20  1  0  0  0  0
 17 19  1  0  0  0  0
 18 20  2  0  0  0  0
M  END
> <PUBCHEM_COMPOUND_ID_TYPE>
0

> <PUBCHEM_TOTAL_CHARGE>
0

> <PUBCHEM_SUBSTANCE_ID>
310949691

> <PUBCHEM_SUBSTANCE_VERSION>
1

> <PUBCHEM_EXT_DATASOURCE_NAME>
4488

> <PUBCHEM_EXT_DATASOURCE_REGID>
SCHEMBL16127889

> <PUBCHEM_SUBSTANCE_COMMENT>
InChI=1S/C16H15NO4/c1-21-12-8-6-11(7-9-12)10-17-15(18)13-4-2-3-5-14(13)16(19)20/h2-9H,10H2,1H3,(H,17,18)(H,19,20)
InChIKey=CKEQUSSZIJLMCT-UHFFFAOYSA-N

> <PUBCHEM_SUBSTANCE_SYNONYM>
SCHEMBL16127889

> <PUBCHEM_XREF_EXT_ID>
SCHEMBL16127889

> <PUBCHEM_EXT_DATASOURCE_URL>
https://www.surechembl.org/

> <PUBCHEM_EXT_SUBSTANCE_URL>
https://www.surechembl.org/chemical/SCHEMBL16127889

> <PUBCHEM_CID_ASSOCIATIONS>
7315339  1

> <PUBCHEM_COORDINATE_TYPE>
1
3

$$$$
