310944207
  -OEChem-07211613022D

 32 36  0     1  0  0  0  0  0999 V2000
   -1.3182   -1.2355    0.0000 F   0  0  0  0  0  0  0  0  0  0  0  0
    2.4764   -0.0992    0.0000 O   0  0  0  0  0  0  0  0  0  0  0  0
    5.0025   -1.6546    0.0000 O   0  0  0  0  0  0  0  0  0  0  0  0
    5.4768   -0.2647    0.0000 O   0  0  0  0  0  0  0  0  0  0  0  0
    2.8625   -1.5113    0.0000 N   0  0  0  0  0  0  0  0  0  0  0  0
    0.1158   -0.4192    0.0000 N   0  0  0  0  0  0  0  0  0  0  0  0
   -4.1751    1.2244    0.0000 N   0  0  0  0  0  0  0  0  0  0  0  0
   -2.0242    0.8163    0.0000 N   0  0  0  0  0  0  0  0  0  0  0  0
   -2.7412    1.2244    0.0000 N   0  0  0  0  0  0  0  0  0  0  0  0
   -4.2524    2.0517    0.0000 N   0  0  0  0  0  0  0  0  0  0  0  0
   -5.0687    2.2172    0.0000 N   0  0  0  0  0  0  0  0  0  0  0  0
   -5.4768    1.5002    0.0000 N   0  0  0  0  0  0  0  0  0  0  0  0
    1.5498   -1.2244    0.0000 C   0  0  0  0  0  0  0  0  0  0  0  0
    2.2889   -0.9156    0.0000 C   0  0  0  0  0  0  0  0  0  0  0  0
    3.6898   -1.4230    0.0000 C   0  0  0  0  0  0  0  0  0  0  0  0
    1.6381   -2.0407    0.0000 C   0  0  0  0  0  0  0  0  0  0  0  0
    2.4434   -2.2172    0.0000 C   0  0  0  0  0  0  0  0  0  0  0  0
    0.8328   -1.6436    0.0000 C   0  0  0  0  0  0  0  0  0  0  0  0
    1.5498   -0.4081    0.0000 C   0  0  0  0  0  0  0  0  0  0  0  0
    4.0648   -0.6950    0.0000 C   0  0  0  0  0  0  0  0  0  0  0  0
    4.2855   -2.0077    0.0000 C   0  0  0  0  0  0  0  0  0  0  0  0
    4.8701   -0.8494    0.0000 C   0  0  0  0  0  0  0  0  0  0  0  0
    0.1158   -1.2244    0.0000 C   0  0  0  0  0  0  0  0  0  0  0  0
    0.8328    0.0000    0.0000 C   0  0  0  0  0  0  0  0  0  0  0  0
   -0.6012    0.0000    0.0000 C   0  0  0  0  0  0  0  0  0  0  0  0
   -1.2962   -0.4081    0.0000 C   0  0  3  0  0  0  0  0  0  0  0  0
   -2.0242    0.0000    0.0000 C   0  0  0  0  0  0  0  0  0  0  0  0
    3.6898    0.0441    0.0000 C   0  0  0  0  0  0  0  0  0  0  0  0
   -3.4471    0.8273    0.0000 C   0  0  0  0  0  0  0  0  0  0  0  0
   -2.7191   -0.4081    0.0000 C   0  0  0  0  0  0  0  0  0  0  0  0
   -3.4582    0.0000    0.0000 C   0  0  0  0  0  0  0  0  0  0  0  0
   -4.9142    0.9045    0.0000 C   0  0  0  0  0  0  0  0  0  0  0  0
 26  1  1  6  0  0  0
  2 14  2  0  0  0  0
  3 21  1  0  0  0  0
  3 22  1  0  0  0  0
  4 22  2  0  0  0  0
  5 14  1  0  0  0  0
  5 15  1  0  0  0  0
  5 17  1  0  0  0  0
  6 23  1  0  0  0  0
  6 24  1  0  0  0  0
  6 25  1  0  0  0  0
  7 10  1  0  0  0  0
  7 29  1  0  0  0  0
  7 32  1  0  0  0  0
  8  9  1  0  0  0  0
  8 27  2  0  0  0  0
  9 29  2  0  0  0  0
 10 11  2  0  0  0  0
 11 12  1  0  0  0  0
 12 32  2  0  0  0  0
 13 14  1  0  0  0  0
 13 16  1  0  0  0  0
 13 18  1  0  0  0  0
 13 19  1  0  0  0  0
 15 20  2  0  0  0  0
 15 21  1  0  0  0  0
 16 17  1  0  0  0  0
 18 23  1  0  0  0  0
 19 24  1  0  0  0  0
 20 22  1  0  0  0  0
 20 28  1  0  0  0  0
 25 26  1  0  0  0  0
 26 27  1  0  0  0  0
 27 30  1  0  0  0  0
 29 31  1  0  0  0  0
 30 31  2  0  0  0  0
M  END
> <PUBCHEM_COMPOUND_ID_TYPE>
0

> <PUBCHEM_TOTAL_CHARGE>
0

> <PUBCHEM_SUBSTANCE_ID>
310944207

> <PUBCHEM_SUBSTANCE_VERSION>
1

> <PUBCHEM_EXT_DATASOURCE_NAME>
4488

> <PUBCHEM_EXT_DATASOURCE_REGID>
SCHEMBL16122282

> <PUBCHEM_SUBSTANCE_COMMENT>
InChI=1S/C20H23FN8O3/c1-13-16(11-32-18(13)30)28-9-6-20(19(28)31)4-7-27(8-5-20)10-14(21)15-2-3-17(24-23-15)29-12-22-25-26-29/h2-3,12,14H,4-11H2,1H3/t14-/m0/s1
InChIKey=LLTWAAIVIFOEKR-AWEZNQCLSA-N

> <PUBCHEM_SUBSTANCE_SYNONYM>
SCHEMBL16122282

> <PUBCHEM_XREF_EXT_ID>
SCHEMBL16122282

> <PUBCHEM_EXT_DATASOURCE_URL>
https://www.surechembl.org/

> <PUBCHEM_EXT_SUBSTANCE_URL>
https://www.surechembl.org/chemical/SCHEMBL16122282

> <PUBCHEM_CID_ASSOCIATIONS>
117610478  1

> <PUBCHEM_COORDINATE_TYPE>
1
3

> <PUBCHEM_BONDANNOTATIONS>
26  1  6

$$$$
