310945139
  -OEChem-07211613022D

 28 32  0     0  0  0  0  0  0999 V2000
   -4.1753   -1.3018    0.0000 F   0  0  0  0  0  0  0  0  0  0  0  0
    4.1753    1.3494    0.0000 O   0  0  0  0  0  0  0  0  0  0  0  0
   -0.5715   -0.9049    0.0000 O   0  0  0  0  0  0  0  0  0  0  0  0
    2.3814    0.1111    0.0000 N   0  0  0  0  0  0  0  0  0  0  0  0
    4.0324   -0.0635    0.0000 N   0  0  0  0  0  0  0  0  0  0  0  0
   -1.2859    0.3651    0.0000 N   0  0  0  0  0  0  0  0  0  0  0  0
   -4.1594    0.3651    0.0000 N   0  0  0  0  0  0  0  0  0  0  0  0
    2.7147   -0.6668    0.0000 C   0  0  0  0  0  0  0  0  0  0  0  0
    1.5717    0.3810    0.0000 C   0  0  0  0  0  0  0  0  0  0  0  0
    2.8576    0.7779    0.0000 C   0  0  0  0  0  0  0  0  0  0  0  0
    1.5876    1.1907    0.0000 C   0  0  0  0  0  0  0  0  0  0  0  0
    2.3655    1.4447    0.0000 C   0  0  0  0  0  0  0  0  0  0  0  0
    3.6673    0.6668    0.0000 C   0  0  0  0  0  0  0  0  0  0  0  0
    3.5403   -0.7461    0.0000 C   0  0  0  0  0  0  0  0  0  0  0  0
    1.9051   -0.7938    0.0000 C   0  0  0  0  0  0  0  0  0  0  0  0
    2.8259   -1.4764    0.0000 C   0  0  0  0  0  0  0  0  0  0  0  0
    0.8731   -0.0476    0.0000 C   0  0  0  0  0  0  0  0  0  0  0  0
    2.0321   -1.6034    0.0000 C   0  0  0  0  0  0  0  0  0  0  0  0
    0.1429    0.3651    0.0000 C   0  0  0  0  0  0  0  0  0  0  0  0
    0.8573    1.6034    0.0000 C   0  0  0  0  0  0  0  0  0  0  0  0
    0.1588    1.1907    0.0000 C   0  0  0  0  0  0  0  0  0  0  0  0
   -0.5715   -0.0318    0.0000 C   0  0  0  0  0  0  0  0  0  0  0  0
   -2.0162   -0.0635    0.0000 C   0  0  0  0  0  0  0  0  0  0  0  0
   -2.7465    0.3493    0.0000 C   0  0  0  0  0  0  0  0  0  0  0  0
   -3.4450   -0.0635    0.0000 C   0  0  0  0  0  0  0  0  0  0  0  0
   -2.0162   -0.8891    0.0000 C   0  0  0  0  0  0  0  0  0  0  0  0
   -3.4450   -0.8891    0.0000 C   0  0  0  0  0  0  0  0  0  0  0  0
   -2.7306   -1.3018    0.0000 C   0  0  0  0  0  0  0  0  0  0  0  0
  1 27  1  0  0  0  0
  2 13  2  0  0  0  0
  3 22  2  0  0  0  0
  4  8  1  0  0  0  0
  4  9  1  0  0  0  0
  4 10  1  0  0  0  0
  5 13  1  0  0  0  0
  5 14  1  0  0  0  0
  6 22  1  0  0  0  0
  6 23  1  0  0  0  0
  7 25  1  0  0  0  0
  8 14  1  0  0  0  0
  8 15  1  0  0  0  0
  8 16  1  0  0  0  0
  9 11  1  0  0  0  0
  9 17  2  0  0  0  0
 10 12  2  0  0  0  0
 10 13  1  0  0  0  0
 11 12  1  0  0  0  0
 11 20  2  0  0  0  0
 15 18  1  0  0  0  0
 16 18  1  0  0  0  0
 17 19  1  0  0  0  0
 19 21  2  0  0  0  0
 19 22  1  0  0  0  0
 20 21  1  0  0  0  0
 23 24  2  0  0  0  0
 23 26  1  0  0  0  0
 24 25  1  0  0  0  0
 25 27  2  0  0  0  0
 26 28  2  0  0  0  0
 27 28  1  0  0  0  0
M  END
> <PUBCHEM_COMPOUND_ID_TYPE>
0

> <PUBCHEM_TOTAL_CHARGE>
0

> <PUBCHEM_SUBSTANCE_ID>
310945139

> <PUBCHEM_SUBSTANCE_VERSION>
1

> <PUBCHEM_EXT_DATASOURCE_NAME>
4488

> <PUBCHEM_EXT_DATASOURCE_REGID>
SCHEMBL16123229

> <PUBCHEM_SUBSTANCE_COMMENT>
InChI=1S/C21H19FN4O2/c22-15-5-4-14(10-16(15)23)25-19(27)13-3-2-12-8-18-20(28)24-11-21(6-1-7-21)26(18)17(12)9-13/h2-5,8-10H,1,6-7,11,23H2,(H,24,28)(H,25,27)
InChIKey=NFYODXSPMIPMRQ-UHFFFAOYSA-N

> <PUBCHEM_SUBSTANCE_SYNONYM>
SCHEMBL16123229

> <PUBCHEM_XREF_EXT_ID>
SCHEMBL16123229

> <PUBCHEM_EXT_DATASOURCE_URL>
https://www.surechembl.org/

> <PUBCHEM_EXT_SUBSTANCE_URL>
https://www.surechembl.org/chemical/SCHEMBL16123229

> <PUBCHEM_CID_ASSOCIATIONS>
117611233  1

> <PUBCHEM_COORDINATE_TYPE>
1
3

$$$$
