310942332
  -OEChem-07211613022D

 35 38  0     0  0  0  0  0  0999 V2000
    4.3850    1.2864    0.0000 S   0  0  0  0  0  0  0  0  0  0  0  0
    0.6381    1.6233    0.0000 O   0  0  0  0  0  0  0  0  0  0  0  0
   -0.8320   -2.0113    0.0000 O   0  0  0  0  0  0  0  0  0  0  0  0
    5.0997    1.6846    0.0000 O   0  0  0  0  0  0  0  0  0  0  0  0
    4.1706    2.0828    0.0000 O   0  0  0  0  0  0  0  0  0  0  0  0
   -3.6806   -2.0011    0.0000 O   0  0  0  0  0  0  0  0  0  0  0  0
    1.1894   -0.5105    0.0000 N   0  0  0  0  0  0  0  0  0  0  0  0
    1.9347    1.0413    0.0000 N   0  0  0  0  0  0  0  0  0  0  0  0
    1.9960   -0.6840    0.0000 N   0  0  0  0  0  0  0  0  0  0  0  0
   -1.5365   -0.7657    0.0000 N   0  0  0  0  0  0  0  0  0  0  0  0
    3.5682    1.2047    0.0000 N   0  0  0  0  0  0  0  0  0  0  0  0
   -4.3748   -0.7453    0.0000 N   0  0  0  0  0  0  0  0  0  0  0  0
    0.7811    0.2144    0.0000 C   0  0  0  0  0  0  0  0  0  0  0  0
   -0.1174   -0.7760    0.0000 C   0  0  0  0  0  0  0  0  0  0  0  0
    0.6381   -1.1231    0.0000 C   0  0  0  0  0  0  0  0  0  0  0  0
   -0.0153    0.0409    0.0000 C   0  0  0  0  0  0  0  0  0  0  0  0
    1.1282    0.9393    0.0000 C   0  0  0  0  0  0  0  0  0  0  0  0
   -0.8219   -1.1639    0.0000 C   0  0  0  0  0  0  0  0  0  0  0  0
    0.8831   -1.8990    0.0000 C   0  0  0  0  0  0  0  0  0  0  0  0
   -0.6381    0.5922    0.0000 C   0  0  0  0  0  0  0  0  0  0  0  0
    2.2410   -1.4600    0.0000 C   0  0  0  0  0  0  0  0  0  0  0  0
    1.6999   -2.0828    0.0000 C   0  0  0  0  0  0  0  0  0  0  0  0
    2.4044    0.3880    0.0000 C   0  0  0  0  0  0  0  0  0  0  0  0
    2.2716    1.7969    0.0000 C   0  0  0  0  0  0  0  0  0  0  0  0
    3.2211    0.4492    0.0000 C   0  0  0  0  0  0  0  0  0  0  0  0
    3.0986    1.8582    0.0000 C   0  0  0  0  0  0  0  0  0  0  0  0
   -2.2410   -1.1843    0.0000 C   0  0  0  0  0  0  0  0  0  0  0  0
   -2.9557   -0.7555    0.0000 C   0  0  0  0  0  0  0  0  0  0  0  0
   -3.6704   -1.1537    0.0000 C   0  0  0  0  0  0  0  0  0  0  0  0
   -2.9455    0.0715    0.0000 C   0  0  0  0  0  0  0  0  0  0  0  0
   -3.6806    0.4696    0.0000 C   0  0  0  0  0  0  0  0  0  0  0  0
   -4.3646    0.0715    0.0000 C   0  0  0  0  0  0  0  0  0  0  0  0
    4.9159    0.6330    0.0000 C   0  0  0  0  0  0  0  0  0  0  0  0
   -2.2206    0.4696    0.0000 C   0  0  0  0  0  0  0  0  0  0  0  0
   -5.0997    0.4900    0.0000 C   0  0  0  0  0  0  0  0  0  0  0  0
  1  4  2  0  0  0  0
  1  5  2  0  0  0  0
  1 11  1  0  0  0  0
  1 33  1  0  0  0  0
  2 17  2  0  0  0  0
  3 18  2  0  0  0  0
  6 29  2  0  0  0  0
  7  9  1  0  0  0  0
  7 13  1  0  0  0  0
  7 15  1  0  0  0  0
  8 17  1  0  0  0  0
  8 23  1  0  0  0  0
  8 24  1  0  0  0  0
  9 21  2  0  0  0  0
 10 18  1  0  0  0  0
 10 27  1  0  0  0  0
 11 25  1  0  0  0  0
 11 26  1  0  0  0  0
 12 29  1  0  0  0  0
 12 32  1  0  0  0  0
 13 16  2  0  0  0  0
 13 17  1  0  0  0  0
 14 15  2  0  0  0  0
 14 16  1  0  0  0  0
 14 18  1  0  0  0  0
 15 19  1  0  0  0  0
 16 20  1  0  0  0  0
 19 22  2  0  0  0  0
 21 22  1  0  0  0  0
 23 25  1  0  0  0  0
 24 26  1  0  0  0  0
 27 28  1  0  0  0  0
 28 29  1  0  0  0  0
 28 30  2  0  0  0  0
 30 31  1  0  0  0  0
 30 34  1  0  0  0  0
 31 32  2  0  0  0  0
 32 35  1  0  0  0  0
M  END
> <PUBCHEM_COMPOUND_ID_TYPE>
0

> <PUBCHEM_TOTAL_CHARGE>
0

> <PUBCHEM_SUBSTANCE_ID>
310942332

> <PUBCHEM_SUBSTANCE_VERSION>
1

> <PUBCHEM_EXT_DATASOURCE_NAME>
4488

> <PUBCHEM_EXT_DATASOURCE_REGID>
SCHEMBL16120368

> <PUBCHEM_SUBSTANCE_COMMENT>
InChI=1S/C23H28N6O5S/c1-14-12-15(2)26-21(30)17(14)13-24-22(31)19-16(3)20(29-18(19)6-5-7-25-29)23(32)27-8-10-28(11-9-27)35(4,33)34/h5-7,12H,8-11,13H2,1-4H3,(H,24,31)(H,26,30)
InChIKey=LWMDRAHRJPIBLA-UHFFFAOYSA-N

> <PUBCHEM_SUBSTANCE_SYNONYM>
SCHEMBL16120368

> <PUBCHEM_XREF_EXT_ID>
SCHEMBL16120368

> <PUBCHEM_EXT_DATASOURCE_URL>
https://www.surechembl.org/

> <PUBCHEM_EXT_SUBSTANCE_URL>
https://www.surechembl.org/chemical/SCHEMBL16120368

> <PUBCHEM_CID_ASSOCIATIONS>
86299700  1

> <PUBCHEM_COORDINATE_TYPE>
1
3

$$$$
