310935234
  -OEChem-07211613022D

 36 40  0     1  0  0  0  0  0999 V2000
   -2.1434   -0.8250    0.0000 O   0  0  0  0  0  0  0  0  0  0  0  0
   -0.7156    1.6500    0.0000 O   0  0  0  0  0  0  0  0  0  0  0  0
   -3.5724   -1.6500    0.0000 O   0  0  0  0  0  0  0  0  0  0  0  0
   -2.8579   -2.8875    0.0000 O   0  0  0  0  0  0  0  0  0  0  0  0
    2.5071   -3.1894    0.0000 O   0  0  0  0  0  0  0  0  0  0  0  0
    2.5071   -1.7606    0.0000 O   0  0  0  0  0  0  0  0  0  0  0  0
    0.0000   -2.8875    0.0000 N   0  0  0  0  0  0  0  0  0  0  0  0
    0.7846   -3.1424    0.0000 N   0  0  0  0  0  0  0  0  0  0  0  0
    0.7144   -0.8250    0.0000 N   0  0  0  0  0  0  0  0  0  0  0  0
   -0.7144   -1.6500    0.0000 C   0  0  0  0  0  0  0  0  0  0  0  0
    0.0000   -2.0625    0.0000 C   0  0  0  0  0  0  0  0  0  0  0  0
   -1.4290   -2.0625    0.0000 C   0  0  0  0  0  0  0  0  0  0  0  0
   -0.7144   -0.8250    0.0000 C   0  0  0  0  0  0  0  0  0  0  0  0
    0.0000   -0.4125    0.0000 C   0  0  0  0  0  0  0  0  0  0  0  0
    0.0000    0.4125    0.0000 C   0  0  0  0  0  0  0  0  0  0  0  0
   -1.4290   -2.8875    0.0000 C   0  0  0  0  0  0  0  0  0  0  0  0
   -2.1434   -1.6500    0.0000 C   0  0  3  0  0  0  0  0  0  0  0  0
    0.7846   -1.8076    0.0000 C   0  0  0  0  0  0  0  0  0  0  0  0
   -0.7144   -3.3000    0.0000 C   0  0  0  0  0  0  0  0  0  0  0  0
   -0.7144    0.8250    0.0000 C   0  0  0  0  0  0  0  0  0  0  0  0
    1.2696   -2.4750    0.0000 C   0  0  0  0  0  0  0  0  0  0  0  0
   -1.4290   -0.4125    0.0000 C   0  0  0  0  0  0  0  0  0  0  0  0
    0.7144    0.8250    0.0000 C   0  0  0  0  0  0  0  0  0  0  0  0
   -1.4290    0.4125    0.0000 C   0  0  0  0  0  0  0  0  0  0  0  0
   -2.8579   -2.0625    0.0000 C   0  0  0  0  0  0  0  0  0  0  0  0
    1.4290    0.4125    0.0000 C   0  0  0  0  0  0  0  0  0  0  0  0
    2.0946   -2.4750    0.0000 C   0  0  0  0  0  0  0  0  0  0  0  0
    0.7137    1.6500    0.0000 C   0  0  0  0  0  0  0  0  0  0  0  0
    1.4290   -0.4125    0.0000 C   0  0  0  0  0  0  0  0  0  0  0  0
   -2.1434   -3.3000    0.0000 C   0  0  0  0  0  0  0  0  0  0  0  0
   -2.8579   -0.4125    0.0000 C   0  0  0  0  0  0  0  0  0  0  0  0
   -0.0009    2.0623    0.0000 C   0  0  0  0  0  0  0  0  0  0  0  0
   -3.5724   -0.8250    0.0000 C   0  0  0  0  0  0  0  0  0  0  0  0
   -3.5724    0.0000    0.0000 C   0  0  0  0  0  0  0  0  0  0  0  0
   -2.8579    0.4125    0.0000 C   0  0  0  0  0  0  0  0  0  0  0  0
   -4.2868   -2.0625    0.0000 C   0  0  0  0  0  0  0  0  0  0  0  0
 17  1  1  1  0  0  0
  1 31  1  0  0  0  0
  2 20  1  0  0  0  0
  2 32  1  0  0  0  0
  3 25  1  0  0  0  0
  3 36  1  0  0  0  0
  4 25  2  0  0  0  0
  5 27  2  0  0  0  0
  6 27  1  0  0  0  0
  7  8  1  0  0  0  0
  7 11  1  0  0  0  0
  7 19  1  0  0  0  0
  8 21  2  0  0  0  0
  9 14  1  0  0  0  0
  9 29  2  0  0  0  0
 10 11  1  0  0  0  0
 10 12  2  0  0  0  0
 10 13  1  0  0  0  0
 11 18  2  0  0  0  0
 12 16  1  0  0  0  0
 12 17  1  0  0  0  0
 13 14  2  0  0  0  0
 13 22  1  0  0  0  0
 14 15  1  0  0  0  0
 15 20  2  0  0  0  0
 15 23  1  0  0  0  0
 16 19  2  0  0  0  0
 16 30  1  0  0  0  0
 17 25  1  0  0  0  0
 18 21  1  0  0  0  0
 20 24  1  0  0  0  0
 21 27  1  0  0  0  0
 22 24  2  0  0  0  0
 23 26  2  0  0  0  0
 23 28  1  0  0  0  0
 26 29  1  0  0  0  0
 28 32  1  0  0  0  0
 31 33  1  0  0  0  0
 31 34  1  0  0  0  0
 31 35  1  0  0  0  0
M  END
> <PUBCHEM_COMPOUND_ID_TYPE>
0

> <PUBCHEM_TOTAL_CHARGE>
0

> <PUBCHEM_SUBSTANCE_ID>
310935234

> <PUBCHEM_SUBSTANCE_VERSION>
1

> <PUBCHEM_EXT_DATASOURCE_NAME>
4488

> <PUBCHEM_EXT_DATASOURCE_REGID>
SCHEMBL16112762

> <PUBCHEM_SUBSTANCE_COMMENT>
InChI=1S/C27H27N3O6/c1-14-13-30-18(12-17(29-30)25(31)32)22(20(14)24(26(33)34-5)36-27(2,3)4)16-6-7-19-21-15(9-11-35-19)8-10-28-23(16)21/h6-8,10,12-13,24H,9,11H2,1-5H3,(H,31,32)/t24-/m0/s1
InChIKey=QIHGOQNOGFHXQJ-DEOSSOPVSA-N

> <PUBCHEM_SUBSTANCE_SYNONYM>
SCHEMBL16112762

> <PUBCHEM_XREF_EXT_ID>
SCHEMBL16112762

> <PUBCHEM_EXT_DATASOURCE_URL>
https://www.surechembl.org/

> <PUBCHEM_EXT_SUBSTANCE_URL>
https://www.surechembl.org/chemical/SCHEMBL16112762

> <PUBCHEM_CID_ASSOCIATIONS>
117603311  1

> <PUBCHEM_COORDINATE_TYPE>
1
3

> <PUBCHEM_BONDANNOTATIONS>
17  1  5

$$$$
