310937258
  -OEChem-07211613022D

 40 43  0     1  0  0  0  0  0999 V2000
   -0.7144   -2.0625    0.0000 F   0  0  0  0  0  0  0  0  0  0  0  0
    0.0000   -1.6500    0.0000 F   0  0  0  0  0  0  0  0  0  0  0  0
   -1.4290   -1.6500    0.0000 F   0  0  0  0  0  0  0  0  0  0  0  0
   -2.1434    2.0625    0.0000 F   0  0  0  0  0  0  0  0  0  0  0  0
   -2.8579    1.6500    0.0000 F   0  0  0  0  0  0  0  0  0  0  0  0
   -2.8579    0.8250    0.0000 F   0  0  0  0  0  0  0  0  0  0  0  0
    2.0570   -2.0809    0.0000 F   0  0  0  0  0  0  0  0  0  0  0  0
    2.8775   -2.1671    0.0000 F   0  0  0  0  0  0  0  0  0  0  0  0
    1.7214   -1.3272    0.0000 F   0  0  0  0  0  0  0  0  0  0  0  0
    0.8007    2.0580    0.0000 O   0  0  0  0  0  0  0  0  0  0  0  0
    1.9432    2.9832    0.0000 O   0  0  0  0  0  0  0  0  0  0  0  0
    3.7878    3.8288    0.0000 O   0  0  0  0  0  0  0  0  0  0  0  0
    2.0202    1.5151    0.0000 N   0  0  0  0  0  0  0  0  0  0  0  0
    4.3323   -0.1648    0.0000 N   0  0  0  0  0  0  0  0  0  0  0  0
    4.4816    1.2564    0.0000 N   0  0  0  0  0  0  0  0  0  0  0  0
    0.7144    1.2375    0.0000 C   0  0  3  0  0  0  0  0  0  0  0  0
    0.0000    0.8250    0.0000 C   0  0  0  0  0  0  0  0  0  0  0  0
    1.4681    0.9020    0.0000 C   0  0  3  0  0  0  0  0  0  0  0  0
    1.6077    2.2295    0.0000 C   0  0  0  0  0  0  0  0  0  0  0  0
   -0.7144   -0.4125    0.0000 C   0  0  0  0  0  0  0  0  0  0  0  0
   -1.4290    0.8250    0.0000 C   0  0  0  0  0  0  0  0  0  0  0  0
   -0.7144    1.2375    0.0000 C   0  0  0  0  0  0  0  0  0  0  0  0
    0.0000    0.0000    0.0000 C   0  0  0  0  0  0  0  0  0  0  0  0
    2.8407    1.4288    0.0000 C   0  0  0  0  0  0  0  0  0  0  0  0
    3.1762    0.6751    0.0000 C   0  0  0  0  0  0  0  0  0  0  0  0
   -1.4290    0.0000    0.0000 C   0  0  0  0  0  0  0  0  0  0  0  0
   -0.7144   -1.2375    0.0000 C   0  0  0  0  0  0  0  0  0  0  0  0
   -2.1434    1.2375    0.0000 C   0  0  0  0  0  0  0  0  0  0  0  0
    3.9967    0.5889    0.0000 C   0  0  0  0  0  0  0  0  0  0  0  0
    3.0269   -0.7460    0.0000 C   0  0  0  0  0  0  0  0  0  0  0  0
    2.6913    0.0077    0.0000 C   0  0  0  0  0  0  0  0  0  0  0  0
    1.6397    0.0950    0.0000 C   0  0  0  0  0  0  0  0  0  0  0  0
    2.5419   -1.4134    0.0000 C   0  0  0  0  0  0  0  0  0  0  0  0
    3.8473   -0.8322    0.0000 C   0  0  0  0  0  0  0  0  0  0  0  0
    4.1460    2.0100    0.0000 C   0  0  3  0  0  0  0  0  0  0  0  0
    4.6795    2.6394    0.0000 C   0  0  0  0  0  0  0  0  0  0  0  0
    3.3215    2.0347    0.0000 C   0  0  0  0  0  0  0  0  0  0  0  0
    4.5201    3.4488    0.0000 C   0  0  0  0  0  0  0  0  0  0  0  0
    2.8266    2.6948    0.0000 C   0  0  0  0  0  0  0  0  0  0  0  0
    3.0341    3.4933    0.0000 C   0  0  0  0  0  0  0  0  0  0  0  0
  1 27  1  0  0  0  0
  2 27  1  0  0  0  0
  3 27  1  0  0  0  0
  4 28  1  0  0  0  0
  5 28  1  0  0  0  0
  6 28  1  0  0  0  0
  7 33  1  0  0  0  0
  8 33  1  0  0  0  0
  9 33  1  0  0  0  0
 16 10  1  1  0  0  0
 10 19  1  0  0  0  0
 11 19  2  0  0  0  0
 12 38  1  0  0  0  0
 12 40  1  0  0  0  0
 13 18  1  0  0  0  0
 13 19  1  0  0  0  0
 13 24  1  0  0  0  0
 14 29  2  0  0  0  0
 14 34  1  0  0  0  0
 15 29  1  0  0  0  0
 15 35  1  0  0  0  0
 16 17  1  0  0  0  0
 16 18  1  0  0  0  0
 17 22  2  0  0  0  0
 17 23  1  0  0  0  0
 18 32  1  1  0  0  0
 20 23  2  0  0  0  0
 20 26  1  0  0  0  0
 20 27  1  0  0  0  0
 21 22  1  0  0  0  0
 21 26  2  0  0  0  0
 21 28  1  0  0  0  0
 24 25  1  0  0  0  0
 25 29  1  0  0  0  0
 25 31  2  0  0  0  0
 30 31  1  0  0  0  0
 30 33  1  0  0  0  0
 30 34  2  0  0  0  0
 35 36  1  0  0  0  0
 35 37  1  0  0  0  0
 36 38  1  0  0  0  0
 37 39  1  0  0  0  0
 39 40  1  0  0  0  0
M  END
> <PUBCHEM_COMPOUND_ID_TYPE>
0

> <PUBCHEM_TOTAL_CHARGE>
0

> <PUBCHEM_SUBSTANCE_ID>
310937258

> <PUBCHEM_SUBSTANCE_VERSION>
1

> <PUBCHEM_EXT_DATASOURCE_NAME>
4488

> <PUBCHEM_EXT_DATASOURCE_REGID>
SCHEMBL16114998

> <PUBCHEM_SUBSTANCE_COMMENT>
InChI=1S/C25H24F9N3O3/c1-13-20(14-7-16(23(26,27)28)10-17(8-14)24(29,30)31)40-22(38)37(13)12-15-9-18(25(32,33)34)11-35-21(15)36-19-3-2-5-39-6-4-19/h7-11,13,19-20H,2-6,12H2,1H3,(H,35,36)/t13-,19?,20-/m0/s1
InChIKey=GVOALGPNUREBMD-RIHNOLBDSA-N

> <PUBCHEM_SUBSTANCE_SYNONYM>
SCHEMBL16114998

> <PUBCHEM_XREF_EXT_ID>
SCHEMBL16114998

> <PUBCHEM_EXT_DATASOURCE_URL>
https://www.surechembl.org/

> <PUBCHEM_EXT_SUBSTANCE_URL>
https://www.surechembl.org/chemical/SCHEMBL16114998

> <PUBCHEM_CID_ASSOCIATIONS>
117605055  1

> <PUBCHEM_COORDINATE_TYPE>
1
3

> <PUBCHEM_BONDANNOTATIONS>
16  10  5
18  32  5

$$$$
