310936112
  -OEChem-07211613022D

 29 31  0     0  0  0  0  0  0999 V2000
    2.4739   -2.9237    0.0000 O   0  0  0  0  0  0  0  0  0  0  0  0
    2.4739   -1.4243    0.0000 O   0  0  0  0  0  0  0  0  0  0  0  0
    1.2494   -0.6997    0.0000 O   0  0  0  0  0  0  0  0  0  0  0  0
    0.0000   -2.8487    0.0000 O   0  0  0  0  0  0  0  0  0  0  0  0
    1.2494   -2.1241    0.0000 N   0  0  0  0  0  0  0  0  0  0  0  0
    1.3244   -3.5984    0.0000 N   0  0  0  0  0  0  0  0  0  0  0  0
    4.0732   -3.5984    0.0000 N   0  0  0  0  0  0  0  0  0  0  0  0
    1.6493   -2.8487    0.0000 C   0  0  0  0  0  0  0  0  0  0  0  0
    2.6488   -3.7483    0.0000 C   0  0  0  0  0  0  0  0  0  0  0  0
    1.6493   -1.4243    0.0000 C   0  0  0  0  0  0  0  0  0  0  0  0
    0.4248   -2.1241    0.0000 C   0  0  0  0  0  0  0  0  0  0  0  0
    1.9491   -4.1481    0.0000 C   0  0  0  0  0  0  0  0  0  0  0  0
    3.3985   -4.0732    0.0000 C   0  0  0  0  0  0  0  0  0  0  0  0
    2.8987   -0.6997    0.0000 C   0  0  0  0  0  0  0  0  0  0  0  0
    5.4225   -2.6488    0.0000 C   0  0  0  0  0  0  0  0  0  0  0  0
    3.9732   -2.7738    0.0000 C   0  0  0  0  0  0  0  0  0  0  0  0
    4.7978   -3.9482    0.0000 C   0  0  0  0  0  0  0  0  0  0  0  0
    6.0722   -2.1740    0.0000 C   0  0  0  0  0  0  0  0  0  0  0  0
    4.6479   -2.2990    0.0000 C   0  0  0  0  0  0  0  0  0  0  0  0
    5.4725   -3.4734    0.0000 C   0  0  0  0  0  0  0  0  0  0  0  0
    0.0000   -1.4243    0.0000 C   0  0  0  0  0  0  0  0  0  0  0  0
    5.9973   -1.3494    0.0000 C   0  0  0  0  0  0  0  0  0  0  0  0
    6.8219   -2.4988    0.0000 C   0  0  0  0  0  0  0  0  0  0  0  0
    3.6233   -1.1245    0.0000 C   0  0  0  0  0  0  0  0  0  0  0  0
    3.2985    0.0000    0.0000 C   0  0  0  0  0  0  0  0  0  0  0  0
    2.1740   -0.2998    0.0000 C   0  0  0  0  0  0  0  0  0  0  0  0
    6.6720   -0.8746    0.0000 C   0  0  0  0  0  0  0  0  0  0  0  0
    7.4966   -2.0491    0.0000 C   0  0  0  0  0  0  0  0  0  0  0  0
    7.4216   -1.2245    0.0000 C   0  0  0  0  0  0  0  0  0  0  0  0
  1  8  1  0  0  0  0
  1  9  1  0  0  0  0
  2 10  1  0  0  0  0
  2 14  1  0  0  0  0
  3 10  2  0  0  0  0
  4 11  2  0  0  0  0
  5  8  1  0  0  0  0
  5 10  1  0  0  0  0
  5 11  1  0  0  0  0
  6  8  2  0  0  0  0
  6 12  1  0  0  0  0
  7 13  1  0  0  0  0
  7 16  1  0  0  0  0
  7 17  1  0  0  0  0
  9 12  2  0  0  0  0
  9 13  1  0  0  0  0
 11 21  1  0  0  0  0
 14 24  1  0  0  0  0
 14 25  1  0  0  0  0
 14 26  1  0  0  0  0
 15 18  1  0  0  0  0
 15 19  1  0  0  0  0
 15 20  1  0  0  0  0
 16 19  1  0  0  0  0
 17 20  1  0  0  0  0
 18 22  2  0  0  0  0
 18 23  1  0  0  0  0
 22 27  1  0  0  0  0
 23 28  2  0  0  0  0
 27 29  2  0  0  0  0
 28 29  1  0  0  0  0
M  END
> <PUBCHEM_COMPOUND_ID_TYPE>
0

> <PUBCHEM_TOTAL_CHARGE>
0

> <PUBCHEM_SUBSTANCE_ID>
310936112

> <PUBCHEM_SUBSTANCE_VERSION>
1

> <PUBCHEM_EXT_DATASOURCE_NAME>
4488

> <PUBCHEM_EXT_DATASOURCE_REGID>
SCHEMBL16113719

> <PUBCHEM_SUBSTANCE_COMMENT>
InChI=1S/C22H29N3O4/c1-16(26)25(21(27)29-22(2,3)4)20-23-14-19(28-20)15-24-12-10-18(11-13-24)17-8-6-5-7-9-17/h5-9,14,18H,10-13,15H2,1-4H3
InChIKey=UWZNCMAZJXKIKO-UHFFFAOYSA-N

> <PUBCHEM_SUBSTANCE_SYNONYM>
SCHEMBL16113719

> <PUBCHEM_XREF_EXT_ID>
SCHEMBL16113719

> <PUBCHEM_EXT_DATASOURCE_URL>
https://www.surechembl.org/

> <PUBCHEM_EXT_SUBSTANCE_URL>
https://www.surechembl.org/chemical/SCHEMBL16113719

> <PUBCHEM_CID_ASSOCIATIONS>
117604077  1

> <PUBCHEM_COORDINATE_TYPE>
1
3

$$$$
