310929038
  -OEChem-07211613022D

 59 64  0     0  0  0  0  0  0999 V2000
    2.7109  -10.0566    0.0000 O   0  0  0  0  0  0  0  0  0  0  0  0
    5.5093  -12.5052    0.0000 O   0  0  0  0  0  0  0  0  0  0  0  0
    3.4105  -14.6040    0.0000 O   0  0  0  0  0  0  0  0  0  0  0  0
    6.9960  -12.5052    0.0000 O   0  0  0  0  0  0  0  0  0  0  0  0
    5.5093  -17.4898    0.0000 O   0  0  0  0  0  0  0  0  0  0  0  0
    2.7984   -4.9846    0.0000 O   0  0  0  0  0  0  0  0  0  0  0  0
    4.1976   -7.5206    0.0000 O   0  0  0  0  0  0  0  0  0  0  0  0
    0.6996   -4.5473    0.0000 O   0  0  0  0  0  0  0  0  0  0  0  0
    0.0000   -2.4486    0.0000 O   0  0  0  0  0  0  0  0  0  0  0  0
    1.4866   -0.7870    0.0000 O   0  0  0  0  0  0  0  0  0  0  0  0
    4.1101  -13.2923    0.0000 N   0  0  0  0  0  0  0  0  0  0  0  0
    5.5093  -15.8283    0.0000 N   0  0  0  0  0  0  0  0  0  0  0  0
    2.7109  -13.2923    0.0000 N   0  0  0  0  0  0  0  0  0  0  0  0
    2.0113   -8.7449    0.0000 N   0  0  0  0  0  0  0  0  0  0  0  0
    7.6955  -13.7295    0.0000 N   0  0  0  0  0  0  0  0  0  0  0  0
    1.3117   -7.5206    0.0000 N   0  0  0  0  0  0  0  0  0  0  0  0
    0.6122   -8.7449    0.0000 N   0  0  0  0  0  0  0  0  0  0  0  0
    3.4105  -12.0680    0.0000 C   0  0  0  0  0  0  0  0  0  0  0  0
    3.4105  -11.2809    0.0000 C   0  0  0  0  0  0  0  0  0  0  0  0
    5.5093  -13.2923    0.0000 C   0  0  0  0  0  0  0  0  0  0  0  0
    4.8097  -13.7295    0.0000 C   0  0  0  0  0  0  0  0  0  0  0  0
    6.2963  -13.7295    0.0000 C   0  0  0  0  0  0  0  0  0  0  0  0
    2.7109  -12.5052    0.0000 C   0  0  0  0  0  0  0  0  0  0  0  0
    2.7109  -10.8437    0.0000 C   0  0  0  0  0  0  0  0  0  0  0  0
    5.5093  -14.9538    0.0000 C   0  0  0  0  0  0  0  0  0  0  0  0
    4.8097  -14.6040    0.0000 C   0  0  0  0  0  0  0  0  0  0  0  0
    6.2963  -14.6040    0.0000 C   0  0  0  0  0  0  0  0  0  0  0  0
    3.4105  -13.7295    0.0000 C   0  0  0  0  0  0  0  0  0  0  0  0
    1.9238  -12.0680    0.0000 C   0  0  0  0  0  0  0  0  0  0  0  0
    6.9960  -13.2923    0.0000 C   0  0  0  0  0  0  0  0  0  0  0  0
    1.9238  -11.2809    0.0000 C   0  0  0  0  0  0  0  0  0  0  0  0
    4.1101  -12.5052    0.0000 C   0  0  0  0  0  0  0  0  0  0  0  0
    4.1101  -10.8437    0.0000 C   0  0  0  0  0  0  0  0  0  0  0  0
    2.0113   -9.6194    0.0000 C   0  0  0  0  0  0  0  0  0  0  0  0
    4.9846  -12.2428    0.0000 C   0  0  0  0  0  0  0  0  0  0  0  0
    4.8097  -11.2809    0.0000 C   0  0  0  0  0  0  0  0  0  0  0  0
    6.2963  -16.2655    0.0000 C   0  0  0  0  0  0  0  0  0  0  0  0
    4.8097  -16.2655    0.0000 C   0  0  0  0  0  0  0  0  0  0  0  0
    1.3117   -8.3076    0.0000 C   0  0  0  0  0  0  0  0  0  0  0  0
    1.3117   -9.9692    0.0000 C   0  0  0  0  0  0  0  0  0  0  0  0
    2.0988   -7.0833    0.0000 C   0  0  0  0  0  0  0  0  0  0  0  0
    6.2963  -17.0526    0.0000 C   0  0  0  0  0  0  0  0  0  0  0  0
    4.8097  -17.0526    0.0000 C   0  0  0  0  0  0  0  0  0  0  0  0
    0.5247   -9.5320    0.0000 C   0  0  0  0  0  0  0  0  0  0  0  0
    4.8097  -12.0680    0.0000 C   0  0  0  0  0  0  0  0  0  0  0  0
    2.0988   -6.2089    0.0000 C   0  0  0  0  0  0  0  0  0  0  0  0
    2.7984   -5.8591    0.0000 C   0  0  0  0  0  0  0  0  0  0  0  0
    2.7984   -7.5206    0.0000 C   0  0  0  0  0  0  0  0  0  0  0  0
    3.4979   -7.1708    0.0000 C   0  0  0  0  0  0  0  0  0  0  0  0
    3.4979   -6.2963    0.0000 C   0  0  0  0  0  0  0  0  0  0  0  0
    7.6955  -14.6040    0.0000 C   0  0  0  0  0  0  0  0  0  0  0  0
    2.0988   -4.5473    0.0000 C   0  0  0  0  0  0  0  0  0  0  0  0
    4.8971   -7.1708    0.0000 C   0  0  0  0  0  0  0  0  0  0  0  0
    1.3992   -4.9846    0.0000 C   0  0  0  0  0  0  0  0  0  0  0  0
    0.6996   -3.7603    0.0000 C   0  0  0  0  0  0  0  0  0  0  0  0
    0.0000   -3.3230    0.0000 C   0  0  0  0  0  0  0  0  0  0  0  0
    0.7870   -2.0988    0.0000 C   0  0  0  0  0  0  0  0  0  0  0  0
    0.7870   -1.2243    0.0000 C   0  0  0  0  0  0  0  0  0  0  0  0
    1.4866    0.0000    0.0000 C   0  0  0  0  0  0  0  0  0  0  0  0
  1 24  1  0  0  0  0
  1 34  1  0  0  0  0
  2 20  1  0  0  0  0
  2 45  1  0  0  0  0
  3 28  2  0  0  0  0
  4 30  2  0  0  0  0
  5 42  1  0  0  0  0
  5 43  1  0  0  0  0
  6 47  1  0  0  0  0
  6 52  1  0  0  0  0
  7 49  1  0  0  0  0
  7 53  1  0  0  0  0
  8 54  1  0  0  0  0
  8 55  1  0  0  0  0
  9 56  1  0  0  0  0
  9 57  1  0  0  0  0
 10 58  1  0  0  0  0
 10 59  1  0  0  0  0
 11 21  1  0  0  0  0
 11 28  1  0  0  0  0
 12 25  1  0  0  0  0
 12 37  1  0  0  0  0
 12 38  1  0  0  0  0
 13 23  1  0  0  0  0
 13 28  1  0  0  0  0
 14 34  2  0  0  0  0
 14 39  1  0  0  0  0
 15 30  1  0  0  0  0
 15 51  1  0  0  0  0
 16 39  1  0  0  0  0
 16 41  1  0  0  0  0
 17 39  2  0  0  0  0
 17 44  1  0  0  0  0
 18 19  2  0  0  0  0
 18 23  1  0  0  0  0
 18 32  1  0  0  0  0
 19 24  1  0  0  0  0
 19 33  1  0  0  0  0
 20 21  1  0  0  0  0
 20 22  2  0  0  0  0
 21 26  2  0  0  0  0
 22 27  1  0  0  0  0
 22 30  1  0  0  0  0
 23 29  2  0  0  0  0
 24 31  2  0  0  0  0
 25 26  1  0  0  0  0
 25 27  2  0  0  0  0
 29 31  1  0  0  0  0
 32 35  2  0  0  0  0
 33 36  2  0  0  0  0
 34 40  1  0  0  0  0
 35 36  1  0  0  0  0
 37 42  1  0  0  0  0
 38 43  1  0  0  0  0
 40 44  2  0  0  0  0
 41 46  2  0  0  0  0
 41 48  1  0  0  0  0
 46 47  1  0  0  0  0
 47 50  2  0  0  0  0
 48 49  2  0  0  0  0
 49 50  1  0  0  0  0
 52 54  1  0  0  0  0
 55 56  1  0  0  0  0
 57 58  1  0  0  0  0
M  END
> <PUBCHEM_COMPOUND_ID_TYPE>
0

> <PUBCHEM_TOTAL_CHARGE>
0

> <PUBCHEM_SUBSTANCE_ID>
310929038

> <PUBCHEM_SUBSTANCE_VERSION>
1

> <PUBCHEM_EXT_DATASOURCE_NAME>
4488

> <PUBCHEM_EXT_DATASOURCE_REGID>
SCHEMBL16106200

> <PUBCHEM_SUBSTANCE_COMMENT>
InChI=1S/C42H49N7O10/c1-43-40(50)34-25-29(49-13-15-55-16-14-49)26-36(39(34)54-4)47-42(51)46-35-9-10-37(33-8-6-5-7-32(33)35)59-38-11-12-44-41(48-38)45-28-23-30(53-3)27-31(24-28)58-22-21-57-20-19-56-18-17-52-2/h5-12,23-27H,13-22H2,1-4H3,(H,43,50)(H,44,45,48)(H2,46,47,51)
InChIKey=IMIBHFMPIQXDLN-UHFFFAOYSA-N

> <PUBCHEM_SUBSTANCE_SYNONYM>
SCHEMBL16106200

> <PUBCHEM_XREF_EXT_ID>
SCHEMBL16106200

> <PUBCHEM_EXT_DATASOURCE_URL>
https://www.surechembl.org/

> <PUBCHEM_EXT_SUBSTANCE_URL>
https://www.surechembl.org/chemical/SCHEMBL16106200

> <PUBCHEM_CID_ASSOCIATIONS>
86273058  1

> <PUBCHEM_COORDINATE_TYPE>
1
3

$$$$
