310936403
  -OEChem-07211613022D

 23 25  0     0  0  0  0  0  0999 V2000
    2.9517   -0.0584    0.0000 S   0  0  0  0  0  0  0  0  0  0  0  0
    6.2540   -3.3023    0.0000 O   0  0  0  0  0  0  0  0  0  0  0  0
    0.7306   -1.2566    0.0000 O   0  0  0  0  0  0  0  0  0  0  0  0
    4.8220   -1.2858    0.0000 N   0  0  0  0  0  0  0  0  0  0  0  0
    2.2503   -1.2274    0.0000 N   0  0  0  0  0  0  0  0  0  0  0  0
    1.4612    0.0000    0.0000 N   0  0  0  0  0  0  0  0  0  0  0  0
    3.5070   -0.7014    0.0000 C   0  0  0  0  0  0  0  0  0  0  0  0
    2.1918   -0.4092    0.0000 C   0  0  0  0  0  0  0  0  0  0  0  0
    4.3252   -0.6137    0.0000 C   0  0  0  0  0  0  0  0  0  0  0  0
    3.0686   -1.4028    0.0000 C   0  0  0  0  0  0  0  0  0  0  0  0
    5.7864   -2.6302    0.0000 C   0  0  0  0  0  0  0  0  0  0  0  0
    5.6696   -1.1982    0.0000 C   0  0  0  0  0  0  0  0  0  0  0  0
    4.4714   -2.0457    0.0000 C   0  0  0  0  0  0  0  0  0  0  0  0
    6.1372   -1.8704    0.0000 C   0  0  0  0  0  0  0  0  0  0  0  0
    4.9681   -2.7179    0.0000 C   0  0  0  0  0  0  0  0  0  0  0  0
    7.1308   -3.2439    0.0000 C   0  0  0  0  0  0  0  0  0  0  0  0
    0.7306   -0.4092    0.0000 C   0  0  0  0  0  0  0  0  0  0  0  0
    7.5983   -3.9160    0.0000 C   0  0  0  0  0  0  0  0  0  0  0  0
    7.4522   -2.4841    0.0000 C   0  0  0  0  0  0  0  0  0  0  0  0
    8.4166   -3.8284    0.0000 C   0  0  0  0  0  0  0  0  0  0  0  0
    8.2705   -2.3964    0.0000 C   0  0  0  0  0  0  0  0  0  0  0  0
    8.7674   -3.0978    0.0000 C   0  0  0  0  0  0  0  0  0  0  0  0
    0.0000    0.0000    0.0000 C   0  0  0  0  0  0  0  0  0  0  0  0
  1  7  1  0  0  0  0
  1  8  1  0  0  0  0
  2 11  1  0  0  0  0
  2 16  1  0  0  0  0
  3 17  2  0  0  0  0
  4  9  1  0  0  0  0
  4 12  1  0  0  0  0
  4 13  1  0  0  0  0
  5  8  2  0  0  0  0
  5 10  1  0  0  0  0
  6  8  1  0  0  0  0
  6 17  1  0  0  0  0
  7  9  1  0  0  0  0
  7 10  2  0  0  0  0
 11 14  1  0  0  0  0
 11 15  1  0  0  0  0
 12 14  1  0  0  0  0
 13 15  1  0  0  0  0
 16 18  2  0  0  0  0
 16 19  1  0  0  0  0
 17 23  1  0  0  0  0
 18 20  1  0  0  0  0
 19 21  2  0  0  0  0
 20 22  2  0  0  0  0
 21 22  1  0  0  0  0
M  END
> <PUBCHEM_COMPOUND_ID_TYPE>
0

> <PUBCHEM_TOTAL_CHARGE>
0

> <PUBCHEM_SUBSTANCE_ID>
310936403

> <PUBCHEM_SUBSTANCE_VERSION>
1

> <PUBCHEM_EXT_DATASOURCE_NAME>
4488

> <PUBCHEM_EXT_DATASOURCE_REGID>
SCHEMBL16114041

> <PUBCHEM_SUBSTANCE_COMMENT>
InChI=1S/C17H21N3O2S/c1-13(21)19-17-18-11-16(23-17)12-20-9-7-15(8-10-20)22-14-5-3-2-4-6-14/h2-6,11,15H,7-10,12H2,1H3,(H,18,19,21)
InChIKey=YKDNJMVQECZXCX-UHFFFAOYSA-N

> <PUBCHEM_SUBSTANCE_SYNONYM>
SCHEMBL16114041

> <PUBCHEM_XREF_EXT_ID>
SCHEMBL16114041

> <PUBCHEM_EXT_DATASOURCE_URL>
https://www.surechembl.org/

> <PUBCHEM_EXT_SUBSTANCE_URL>
https://www.surechembl.org/chemical/SCHEMBL16114041

> <PUBCHEM_CID_ASSOCIATIONS>
117604340  1

> <PUBCHEM_COORDINATE_TYPE>
1
3

$$$$
