310940707
  -OEChem-07211613022D

 46 51  0     1  0  0  0  0  0999 V2000
    2.5644    0.8400    0.0000 F   0  0  0  0  0  0  0  0  0  0  0  0
   -2.6528    3.4044    0.0000 F   0  0  0  0  0  0  0  0  0  0  0  0
   -2.4022    4.1854    0.0000 F   0  0  0  0  0  0  0  0  0  0  0  0
   -1.5769    4.3623    0.0000 F   0  0  0  0  0  0  0  0  0  0  0  0
   -1.8716   -0.1326    0.0000 F   0  0  0  0  0  0  0  0  0  0  0  0
   -1.1643   -1.3854    0.0000 O   0  0  0  0  0  0  0  0  0  0  0  0
    3.5223   -4.3623    0.0000 O   0  0  0  0  0  0  0  0  0  0  0  0
    2.2843   -3.6402    0.0000 O   0  0  0  0  0  0  0  0  0  0  0  0
    1.7832   -1.5327    0.0000 N   0  0  0  0  0  0  0  0  0  0  0  0
    1.7832   -2.8737    0.0000 N   0  0  0  0  0  0  0  0  0  0  0  0
   -0.1769    1.7243    0.0000 N   0  0  0  0  0  0  0  0  0  0  0  0
   -3.3159   -1.7832    0.0000 N   0  0  0  0  0  0  0  0  0  0  0  0
    2.2549   -2.1959    0.0000 C   0  0  0  0  0  0  0  0  0  0  0  0
    1.0021   -1.7832    0.0000 C   0  0  0  0  0  0  0  0  0  0  0  0
    0.9874   -2.5939    0.0000 C   0  0  0  0  0  0  0  0  0  0  0  0
    3.1244   -2.2106    0.0000 C   0  0  3  0  0  0  0  0  0  0  0  0
    2.0485   -0.7369    0.0000 C   0  0  0  0  0  0  0  0  0  0  0  0
    0.2801   -1.3854    0.0000 C   0  0  0  0  0  0  0  0  0  0  0  0
    3.5371   -2.8886    0.0000 C   0  0  3  0  0  0  0  0  0  0  0  0
    0.2948   -3.0212    0.0000 C   0  0  0  0  0  0  0  0  0  0  0  0
    1.4738   -0.1179    0.0000 C   0  0  0  0  0  0  0  0  0  0  0  0
   -0.4274   -1.7832    0.0000 C   0  0  0  0  0  0  0  0  0  0  0  0
    3.5223   -1.4886    0.0000 C   0  0  0  0  0  0  0  0  0  0  0  0
   -0.4274   -2.6086    0.0000 C   0  0  0  0  0  0  0  0  0  0  0  0
    1.7390    0.6631    0.0000 C   0  0  0  0  0  0  0  0  0  0  0  0
    3.0948   -3.6254    0.0000 C   0  0  0  0  0  0  0  0  0  0  0  0
    4.3476   -2.9033    0.0000 C   0  0  0  0  0  0  0  0  0  0  0  0
    0.3832    1.1053    0.0000 C   0  0  0  0  0  0  0  0  0  0  0  0
    0.6779   -0.2948    0.0000 C   0  0  0  0  0  0  0  0  0  0  0  0
    1.1938    1.2675    0.0000 C   0  0  0  0  0  0  0  0  0  0  0  0
    4.3476   -1.4886    0.0000 C   0  0  0  0  0  0  0  0  0  0  0  0
    0.1326    0.3243    0.0000 C   0  0  0  0  0  0  0  0  0  0  0  0
    4.7603   -2.1959    0.0000 C   0  0  0  0  0  0  0  0  0  0  0  0
   -1.2969    2.9622    0.0000 C   0  0  0  0  0  0  0  0  0  0  0  0
   -1.8569   -1.7832    0.0000 C   0  0  0  0  0  0  0  0  0  0  0  0
   -1.0021    1.5622    0.0000 C   0  0  0  0  0  0  0  0  0  0  0  0
    0.0737    2.5201    0.0000 C   0  0  0  0  0  0  0  0  0  0  0  0
   -1.8569    3.5813    0.0000 C   0  0  0  0  0  0  0  0  0  0  0  0
   -2.6086   -1.3706    0.0000 C   0  0  0  0  0  0  0  0  0  0  0  0
   -1.5475    2.1664    0.0000 C   0  0  0  0  0  0  0  0  0  0  0  0
   -0.4569    3.1096    0.0000 C   0  0  0  0  0  0  0  0  0  0  0  0
   -2.5939   -0.5306    0.0000 C   0  0  0  0  0  0  0  0  0  0  0  0
   -3.3454   -0.1326    0.0000 C   0  0  0  0  0  0  0  0  0  0  0  0
   -4.0233   -0.5453    0.0000 C   0  0  0  0  0  0  0  0  0  0  0  0
   -4.0380   -1.3706    0.0000 C   0  0  0  0  0  0  0  0  0  0  0  0
   -4.7603   -0.1474    0.0000 C   0  0  0  0  0  0  0  0  0  0  0  0
  1 25  1  0  0  0  0
  2 38  1  0  0  0  0
  3 38  1  0  0  0  0
  4 38  1  0  0  0  0
  5 42  1  0  0  0  0
  6 22  1  0  0  0  0
  6 35  1  0  0  0  0
  7 26  2  0  0  0  0
  8 26  1  0  0  0  0
  9 13  1  0  0  0  0
  9 14  1  0  0  0  0
  9 17  1  0  0  0  0
 10 13  2  0  0  0  0
 10 15  1  0  0  0  0
 11 28  1  0  0  0  0
 11 36  1  0  0  0  0
 11 37  1  0  0  0  0
 12 39  2  0  0  0  0
 12 45  1  0  0  0  0
 16 13  1  1  0  0  0
 14 15  1  0  0  0  0
 14 18  2  0  0  0  0
 15 20  2  0  0  0  0
 16 19  1  0  0  0  0
 16 23  1  0  0  0  0
 17 21  1  0  0  0  0
 18 22  1  0  0  0  0
 19 26  1  1  0  0  0
 19 27  1  0  0  0  0
 20 24  1  0  0  0  0
 21 25  1  0  0  0  0
 21 29  2  0  0  0  0
 22 24  2  0  0  0  0
 23 31  1  0  0  0  0
 25 30  2  0  0  0  0
 27 33  1  0  0  0  0
 28 30  1  0  0  0  0
 28 32  2  0  0  0  0
 29 32  1  0  0  0  0
 31 33  1  0  0  0  0
 34 38  1  0  0  0  0
 34 40  1  0  0  0  0
 34 41  1  0  0  0  0
 35 39  1  0  0  0  0
 36 40  1  0  0  0  0
 37 41  1  0  0  0  0
 39 42  1  0  0  0  0
 42 43  2  0  0  0  0
 43 44  1  0  0  0  0
 44 45  2  0  0  0  0
 44 46  1  0  0  0  0
M  END
> <PUBCHEM_COMPOUND_ID_TYPE>
0

> <PUBCHEM_TOTAL_CHARGE>
0

> <PUBCHEM_SUBSTANCE_ID>
310940707

> <PUBCHEM_SUBSTANCE_VERSION>
1

> <PUBCHEM_EXT_DATASOURCE_NAME>
4488

> <PUBCHEM_EXT_DATASOURCE_REGID>
SCHEMBL16118663

> <PUBCHEM_SUBSTANCE_COMMENT>
InChI=1S/C34H35F5N4O3/c1-20-14-28(36)30(40-17-20)19-46-24-8-9-29-31(16-24)43(32(41-29)25-4-2-3-5-26(25)33(44)45)18-21-6-7-23(15-27(21)35)42-12-10-22(11-13-42)34(37,38)39/h6-9,14-17,22,25-26H,2-5,10-13,18-19H2,1H3,(H,44,45)/t25-,26+/m0/s1
InChIKey=VBVUCUSTSTZGQU-IZZNHLLZSA-N

> <PUBCHEM_SUBSTANCE_SYNONYM>
SCHEMBL16118663

> <PUBCHEM_XREF_EXT_ID>
SCHEMBL16118663

> <PUBCHEM_EXT_DATASOURCE_URL>
https://www.surechembl.org/

> <PUBCHEM_EXT_SUBSTANCE_URL>
https://www.surechembl.org/chemical/SCHEMBL16118663

> <PUBCHEM_CID_ASSOCIATIONS>
117607664  1

> <PUBCHEM_COORDINATE_TYPE>
1
3

> <PUBCHEM_BONDANNOTATIONS>
16  13  5
19  26  5

$$$$
