310945934
  -OEChem-07211613022D

 38 40  0     1  0  0  0  0  0999 V2000
    4.7070    0.6607    0.0000 O   0  0  0  0  0  0  0  0  0  0  0  0
    3.5784   -1.2799    0.0000 O   0  0  0  0  0  0  0  0  0  0  0  0
    1.4313    0.7708    0.0000 O   0  0  0  0  0  0  0  0  0  0  0  0
   -0.7157   -1.2799    0.0000 O   0  0  0  0  0  0  0  0  0  0  0  0
    3.5784   -2.9315    0.0000 O   0  0  0  0  0  0  0  0  0  0  0  0
   -2.8627    0.7708    0.0000 O   0  0  0  0  0  0  0  0  0  0  0  0
   -5.0097   -0.4542    0.0000 O   0  0  0  0  0  0  0  0  0  0  0  0
    2.1608   -0.4542    0.0000 N   0  0  0  0  0  0  0  0  0  0  0  0
    0.0000   -0.0413    0.0000 N   0  0  0  0  0  0  0  0  0  0  0  0
   -2.1470   -0.4542    0.0000 N   0  0  0  0  0  0  0  0  0  0  0  0
    4.2941    0.0000    0.0000 C   0  0  3  0  0  0  0  0  0  0  0  0
    3.5784   -0.4129    0.0000 C   0  0  0  0  0  0  0  0  0  0  0  0
    3.9087    0.6744    0.0000 C   0  0  0  0  0  0  0  0  0  0  0  0
    2.8765   -0.0137    0.0000 C   0  0  3  0  0  0  0  0  0  0  0  0
    5.0097   -0.4266    0.0000 C   0  0  0  0  0  0  0  0  0  0  0  0
    2.8627    1.2938    0.0000 C   0  0  0  0  0  0  0  0  0  0  0  0
    1.4313   -0.0413    0.0000 C   0  0  0  0  0  0  0  0  0  0  0  0
    0.7295   -0.4266    0.0000 C   0  0  3  0  0  0  0  0  0  0  0  0
    2.1608    1.7204    0.0000 C   0  0  0  0  0  0  0  0  0  0  0  0
    0.7157   -1.2799    0.0000 C   0  0  0  0  0  0  0  0  0  0  0  0
    1.4589   -1.6654    0.0000 C   0  0  0  0  0  0  0  0  0  0  0  0
   -0.7019   -0.4129    0.0000 C   0  0  0  0  0  0  0  0  0  0  0  0
    2.1608    2.5186    0.0000 C   0  0  0  0  0  0  0  0  0  0  0  0
    1.4451    1.3075    0.0000 C   0  0  0  0  0  0  0  0  0  0  0  0
   -1.4313   -0.0137    0.0000 C   0  0  3  0  0  0  0  0  0  0  0  0
    1.4589   -2.4911    0.0000 C   0  0  0  0  0  0  0  0  0  0  0  0
    2.1470   -1.2662    0.0000 C   0  0  0  0  0  0  0  0  0  0  0  0
    2.8765   -2.4773    0.0000 C   0  0  0  0  0  0  0  0  0  0  0  0
    1.4313    2.9315    0.0000 C   0  0  0  0  0  0  0  0  0  0  0  0
    0.7432    1.7066    0.0000 C   0  0  0  0  0  0  0  0  0  0  0  0
    2.1608   -2.8902    0.0000 C   0  0  0  0  0  0  0  0  0  0  0  0
    2.8765   -1.6791    0.0000 C   0  0  0  0  0  0  0  0  0  0  0  0
    0.7432    2.5186    0.0000 C   0  0  0  0  0  0  0  0  0  0  0  0
   -2.8627   -0.0413    0.0000 C   0  0  0  0  0  0  0  0  0  0  0  0
   -1.4176    0.7982    0.0000 C   0  0  0  0  0  0  0  0  0  0  0  0
   -3.5646   -0.4266    0.0000 C   0  0  0  0  0  0  0  0  0  0  0  0
    4.3216   -2.5049    0.0000 C   0  0  0  0  0  0  0  0  0  0  0  0
   -4.2941   -0.0275    0.0000 C   0  0  0  0  0  0  0  0  0  0  0  0
  1 11  1  0  0  0  0
  1 13  1  0  0  0  0
  2 12  2  0  0  0  0
  3 17  2  0  0  0  0
  4 22  2  0  0  0  0
  5 28  1  0  0  0  0
  5 37  1  0  0  0  0
  6 34  2  0  0  0  0
  7 38  1  0  0  0  0
 14  8  1  1  0  0  0
  8 17  1  0  0  0  0
 18  9  1  6  0  0  0
  9 22  1  0  0  0  0
 10 25  1  0  0  0  0
 10 34  1  0  0  0  0
 11 12  1  1  0  0  0
 11 13  1  0  0  0  0
 11 15  1  6  0  0  0
 12 14  1  0  0  0  0
 14 16  1  0  0  0  0
 16 19  1  0  0  0  0
 17 18  1  0  0  0  0
 18 20  1  0  0  0  0
 19 23  2  0  0  0  0
 19 24  1  0  0  0  0
 20 21  1  0  0  0  0
 21 26  2  0  0  0  0
 21 27  1  0  0  0  0
 22 25  1  0  0  0  0
 23 29  1  0  0  0  0
 24 30  2  0  0  0  0
 25 35  1  1  0  0  0
 26 31  1  0  0  0  0
 27 32  2  0  0  0  0
 28 31  2  0  0  0  0
 28 32  1  0  0  0  0
 29 33  2  0  0  0  0
 30 33  1  0  0  0  0
 34 36  1  0  0  0  0
 36 38  1  0  0  0  0
M  END
> <PUBCHEM_COMPOUND_ID_TYPE>
0

> <PUBCHEM_TOTAL_CHARGE>
0

> <PUBCHEM_SUBSTANCE_ID>
310945934

> <PUBCHEM_SUBSTANCE_VERSION>
1

> <PUBCHEM_EXT_DATASOURCE_NAME>
4488

> <PUBCHEM_EXT_DATASOURCE_REGID>
SCHEMBL16124039

> <PUBCHEM_SUBSTANCE_COMMENT>
InChI=1S/C28H35N3O7/c1-18(29-24(33)13-14-32)26(35)31-23(16-20-9-11-21(37-3)12-10-20)27(36)30-22(25(34)28(2)17-38-28)15-19-7-5-4-6-8-19/h4-12,18,22-23,32H,13-17H2,1-3H3,(H,29,33)(H,30,36)(H,31,35)/t18-,22-,23-,28+/m0/s1
InChIKey=HKQOXJOZQNROOE-IFSSTPPCSA-N

> <PUBCHEM_SUBSTANCE_SYNONYM>
SCHEMBL16124039

> <PUBCHEM_XREF_EXT_ID>
SCHEMBL16124039

> <PUBCHEM_EXT_DATASOURCE_URL>
https://www.surechembl.org/

> <PUBCHEM_EXT_SUBSTANCE_URL>
https://www.surechembl.org/chemical/SCHEMBL16124039

> <PUBCHEM_CID_ASSOCIATIONS>
117611917  1

> <PUBCHEM_COORDINATE_TYPE>
1
3

> <PUBCHEM_BONDANNOTATIONS>
11  12  5
11  15  6
25  35  5
14  8  5
18  9  6

$$$$
