310940010
  -OEChem-07211613022D

 14 14  0     0  0  0  0  0  0999 V2000
   -4.5448    5.2833    0.0000 I   0  0  0  0  0  0  0  0  0  0  0  0
   -4.5448    3.6332    0.0000 Cl  0  0  0  0  0  0  0  0  0  0  0  0
   -1.6867    3.6332    0.0000 O   0  0  0  0  0  0  0  0  0  0  0  0
   -0.9723    4.8708    0.0000 O   0  0  0  0  0  0  0  0  0  0  0  0
   -1.6867    6.1084    0.0000 O   0  0  0  0  0  0  0  0  0  0  0  0
   -2.4013    4.8708    0.0000 C   0  0  0  0  0  0  0  0  0  0  0  0
   -2.4013    4.0457    0.0000 C   0  0  0  0  0  0  0  0  0  0  0  0
   -3.8303    4.8708    0.0000 C   0  0  0  0  0  0  0  0  0  0  0  0
   -3.8303    4.0457    0.0000 C   0  0  0  0  0  0  0  0  0  0  0  0
   -3.1158    5.2833    0.0000 C   0  0  0  0  0  0  0  0  0  0  0  0
   -3.1158    3.6332    0.0000 C   0  0  0  0  0  0  0  0  0  0  0  0
   -1.6867    5.2833    0.0000 C   0  0  0  0  0  0  0  0  0  0  0  0
   -1.6867    2.8081    0.0000 C   0  0  0  0  0  0  0  0  0  0  0  0
   -0.2577    5.2833    0.0000 C   0  0  0  0  0  0  0  0  0  0  0  0
  1  8  1  0  0  0  0
  2  9  1  0  0  0  0
  3  7  1  0  0  0  0
  3 13  1  0  0  0  0
  4 12  1  0  0  0  0
  4 14  1  0  0  0  0
  5 12  2  0  0  0  0
  6  7  1  0  0  0  0
  6 10  2  0  0  0  0
  6 12  1  0  0  0  0
  7 11  2  0  0  0  0
  8  9  2  0  0  0  0
  8 10  1  0  0  0  0
  9 11  1  0  0  0  0
M  END
> <PUBCHEM_COMPOUND_ID_TYPE>
0

> <PUBCHEM_TOTAL_CHARGE>
0

> <PUBCHEM_SUBSTANCE_ID>
310940010

> <PUBCHEM_SUBSTANCE_VERSION>
1

> <PUBCHEM_EXT_DATASOURCE_NAME>
4488

> <PUBCHEM_EXT_DATASOURCE_REGID>
SCHEMBL16117940

> <PUBCHEM_SUBSTANCE_COMMENT>
InChI=1S/C9H8ClIO3/c1-13-8-4-6(10)7(11)3-5(8)9(12)14-2/h3-4H,1-2H3
InChIKey=BELJKPCYQONTIG-UHFFFAOYSA-N

> <PUBCHEM_SUBSTANCE_SYNONYM>
SCHEMBL16117940

> <PUBCHEM_XREF_EXT_ID>
SCHEMBL16117940

> <PUBCHEM_EXT_DATASOURCE_URL>
https://www.surechembl.org/

> <PUBCHEM_EXT_SUBSTANCE_URL>
https://www.surechembl.org/chemical/SCHEMBL16117940

> <PUBCHEM_CID_ASSOCIATIONS>
86767743  1

> <PUBCHEM_COORDINATE_TYPE>
1
3

$$$$
