310943491
  -OEChem-07211613022D

 35 38  0     1  0  0  0  0  0999 V2000
    4.6546    1.4362    0.0000 F   0  0  0  0  0  0  0  0  0  0  0  0
    5.3616    1.0237    0.0000 F   0  0  0  0  0  0  0  0  0  0  0  0
   -2.5188   -1.8633    0.0000 O   0  0  0  0  0  0  0  0  0  0  0  0
   -5.3763    1.4509    0.0000 O   0  0  0  0  0  0  0  0  0  0  0  0
    1.7823    1.4362    0.0000 O   0  0  0  0  0  0  0  0  0  0  0  0
   -3.2405   -0.6113    0.0000 N   0  0  0  0  0  0  0  0  0  0  0  0
   -3.9475    0.6260    0.0000 N   0  0  3  0  0  0  0  0  0  0  0  0
   -0.3682    1.8486    0.0000 N   0  0  0  0  0  0  0  0  0  0  0  0
    1.0606    0.1989    0.0000 N   0  0  0  0  0  0  0  0  0  0  0  0
    3.9328   -0.6260    0.0000 N   0  0  0  0  0  0  0  0  0  0  0  0
   -3.2258    0.2136    0.0000 C   0  0  0  0  0  0  0  0  0  0  0  0
   -1.7970    0.2136    0.0000 C   0  0  0  0  0  0  0  0  0  0  0  0
   -1.0900    0.6260    0.0000 C   0  0  0  0  0  0  0  0  0  0  0  0
   -2.5335    0.6113    0.0000 C   0  0  0  0  0  0  0  0  0  0  0  0
   -2.5188   -1.0090    0.0000 C   0  0  0  0  0  0  0  0  0  0  0  0
   -1.8118   -0.6113    0.0000 C   0  0  0  0  0  0  0  0  0  0  0  0
   -1.0752    1.4362    0.0000 C   0  0  0  0  0  0  0  0  0  0  0  0
   -0.3535    0.2136    0.0000 C   0  0  0  0  0  0  0  0  0  0  0  0
    0.3388    0.6113    0.0000 C   0  0  0  0  0  0  0  0  0  0  0  0
   -4.6399    0.2283    0.0000 C   0  0  3  0  0  0  0  0  0  0  0  0
   -3.9623    1.4509    0.0000 C   0  0  0  0  0  0  0  0  0  0  0  0
    2.5040    0.2136    0.0000 C   0  0  0  0  0  0  0  0  0  0  0  0
    1.7676    0.5965    0.0000 C   0  0  0  0  0  0  0  0  0  0  0  0
    3.9328    0.2136    0.0000 C   0  0  0  0  0  0  0  0  0  0  0  0
    0.3535    1.4362    0.0000 C   0  0  0  0  0  0  0  0  0  0  0  0
    4.6546    0.6260    0.0000 C   0  0  0  0  0  0  0  0  0  0  0  0
    3.1964    0.6113    0.0000 C   0  0  0  0  0  0  0  0  0  0  0  0
   -3.9770   -1.0384    0.0000 C   0  0  0  0  0  0  0  0  0  0  0  0
   -5.3763    0.6260    0.0000 C   0  0  0  0  0  0  0  0  0  0  0  0
   -4.6693    1.8633    0.0000 C   0  0  0  0  0  0  0  0  0  0  0  0
    2.5040   -0.6113    0.0000 C   0  0  0  0  0  0  0  0  0  0  0  0
   -1.8118    1.8339    0.0000 C   0  0  0  0  0  0  0  0  0  0  0  0
    3.2258   -1.0237    0.0000 C   0  0  0  0  0  0  0  0  0  0  0  0
   -4.6693   -0.5965    0.0000 C   0  0  0  0  0  0  0  0  0  0  0  0
    5.3763    0.2136    0.0000 C   0  0  0  0  0  0  0  0  0  0  0  0
  1 26  1  0  0  0  0
  2 26  1  0  0  0  0
  3 15  2  0  0  0  0
  4 29  1  0  0  0  0
  4 30  1  0  0  0  0
  5 23  2  0  0  0  0
  6 11  1  0  0  0  0
  6 15  1  0  0  0  0
  6 28  1  0  0  0  0
  7 11  1  0  0  0  0
  7 20  1  0  0  0  0
  7 21  1  0  0  0  0
  8 17  1  0  0  0  0
  8 25  2  0  0  0  0
  9 19  1  0  0  0  0
  9 23  1  0  0  0  0
 10 24  1  0  0  0  0
 10 33  2  0  0  0  0
 11 14  2  0  0  0  0
 12 13  1  0  0  0  0
 12 14  1  0  0  0  0
 12 16  2  0  0  0  0
 13 17  2  0  0  0  0
 13 18  1  0  0  0  0
 15 16  1  0  0  0  0
 17 32  1  0  0  0  0
 18 19  2  0  0  0  0
 19 25  1  0  0  0  0
 20 29  1  0  0  0  0
 20 34  1  6  0  0  0
 21 30  1  0  0  0  0
 22 23  1  0  0  0  0
 22 27  1  0  0  0  0
 22 31  2  0  0  0  0
 24 26  1  0  0  0  0
 24 27  2  0  0  0  0
 26 35  1  0  0  0  0
 31 33  1  0  0  0  0
M  END
> <PUBCHEM_COMPOUND_ID_TYPE>
0

> <PUBCHEM_TOTAL_CHARGE>
0

> <PUBCHEM_SUBSTANCE_ID>
310943491

> <PUBCHEM_SUBSTANCE_VERSION>
1

> <PUBCHEM_EXT_DATASOURCE_NAME>
4488

> <PUBCHEM_EXT_DATASOURCE_REGID>
SCHEMBL16121556

> <PUBCHEM_SUBSTANCE_COMMENT>
InChI=1S/C25H27F2N5O3/c1-15-14-35-8-7-32(15)22-10-18(11-23(33)31(22)4)20-12-19(13-29-16(20)2)30-24(34)17-5-6-28-21(9-17)25(3,26)27/h5-6,9-13,15H,7-8,14H2,1-4H3,(H,30,34)/t15-/m1/s1
InChIKey=AEJVTXXPLUEZEB-OAHLLOKOSA-N

> <PUBCHEM_SUBSTANCE_SYNONYM>
SCHEMBL16121556

> <PUBCHEM_XREF_EXT_ID>
SCHEMBL16121556

> <PUBCHEM_EXT_DATASOURCE_URL>
https://www.surechembl.org/

> <PUBCHEM_EXT_SUBSTANCE_URL>
https://www.surechembl.org/chemical/SCHEMBL16121556

> <PUBCHEM_CID_ASSOCIATIONS>
117609912  1

> <PUBCHEM_COORDINATE_TYPE>
1
3

> <PUBCHEM_BONDANNOTATIONS>
20  34  6

$$$$
