310941809
  -OEChem-07211613022D

 25 26  0     0  0  0  0  0  0999 V2000
    1.4419    0.8266    0.0000 N   0  0  0  0  0  0  0  0  0  0  0  0
    0.6961   -0.4164    0.0000 C   0  0  0  0  0  0  0  0  0  0  0  0
   -0.0124   -1.6471    0.0000 C   0  0  0  0  0  0  0  0  0  0  0  0
    1.4295   -0.8142    0.0000 C   0  0  0  0  0  0  0  0  0  0  0  0
    0.0000   -0.8266    0.0000 C   0  0  0  0  0  0  0  0  0  0  0  0
    0.7210    0.4289    0.0000 C   0  0  0  0  0  0  0  0  0  0  0  0
   -0.7210   -2.0573    0.0000 C   0  0  0  0  0  0  0  0  0  0  0  0
    0.6961   -2.0573    0.0000 C   0  0  0  0  0  0  0  0  0  0  0  0
    1.4295   -1.6471    0.0000 C   0  0  0  0  0  0  0  0  0  0  0  0
   -0.0124    0.8391    0.0000 C   0  0  0  0  0  0  0  0  0  0  0  0
   -1.4295   -1.6595    0.0000 C   0  0  0  0  0  0  0  0  0  0  0  0
   -0.7210   -2.8901    0.0000 C   0  0  0  0  0  0  0  0  0  0  0  0
    0.0000    1.6719    0.0000 C   0  0  0  0  0  0  0  0  0  0  0  0
    2.1504   -0.4289    0.0000 C   0  0  0  0  0  0  0  0  0  0  0  0
    1.1934    0.7521    0.0000 C   0  0  0  0  0  0  0  0  0  0  0  0
   -2.1504   -2.0697    0.0000 C   0  0  0  0  0  0  0  0  0  0  0  0
   -1.4295   -3.3003    0.0000 C   0  0  0  0  0  0  0  0  0  0  0  0
   -0.7210    2.0821    0.0000 C   0  0  0  0  0  0  0  0  0  0  0  0
    0.7085    2.0697    0.0000 C   0  0  0  0  0  0  0  0  0  0  0  0
   -2.1504   -2.8901    0.0000 C   0  0  0  0  0  0  0  0  0  0  0  0
   -0.7210    2.9149    0.0000 C   0  0  0  0  0  0  0  0  0  0  0  0
    1.4295    1.6595    0.0000 C   0  0  0  0  0  0  0  0  0  0  0  0
   -1.4295    3.3003    0.0000 C   0  0  0  0  0  0  0  0  0  0  0  0
   -0.0248    3.3003    0.0000 C   0  0  0  0  0  0  0  0  0  0  0  0
    2.1504    0.4164    0.0000 C   0  0  0  0  0  0  0  0  0  0  0  0
  1 22  1  0  0  0  0
  1 25  1  0  0  0  0
  2  4  1  0  0  0  0
  2  5  2  0  0  0  0
  2  6  1  0  0  0  0
  3  5  1  0  0  0  0
  3  7  1  0  0  0  0
  3  8  2  0  0  0  0
  4  9  2  0  0  0  0
  4 14  1  0  0  0  0
  6 10  1  0  0  0  0
  6 15  2  0  0  0  0
  7 11  2  0  0  0  0
  7 12  1  0  0  0  0
  8  9  1  0  0  0  0
 10 13  2  0  0  0  0
 11 16  1  0  0  0  0
 12 17  2  0  0  0  0
 13 18  1  0  0  0  0
 13 19  1  0  0  0  0
 16 20  2  0  0  0  0
 17 20  1  0  0  0  0
 18 21  1  0  0  0  0
 19 22  2  0  0  0  0
 21 23  1  0  0  0  0
 21 24  1  0  0  0  0
M  END
> <PUBCHEM_COMPOUND_ID_TYPE>
0

> <PUBCHEM_TOTAL_CHARGE>
0

> <PUBCHEM_SUBSTANCE_ID>
310941809

> <PUBCHEM_SUBSTANCE_VERSION>
1

> <PUBCHEM_EXT_DATASOURCE_NAME>
4488

> <PUBCHEM_EXT_DATASOURCE_REGID>
SCHEMBL16119841

> <PUBCHEM_SUBSTANCE_COMMENT>
InChI=1S/C24H29N/c1-18(2)15-21(13-14-25-5)16-20(4)24-17-23(12-11-19(24)3)22-9-7-6-8-10-22/h6-14,16-18,25H,4,15H2,1-3,5H3/b14-13-,21-16+
InChIKey=SYEGDBXHZWHTIC-PZBQJNPTSA-N

> <PUBCHEM_SUBSTANCE_SYNONYM>
SCHEMBL16119841

> <PUBCHEM_XREF_EXT_ID>
SCHEMBL16119841

> <PUBCHEM_EXT_DATASOURCE_URL>
https://www.surechembl.org/

> <PUBCHEM_EXT_SUBSTANCE_URL>
https://www.surechembl.org/chemical/SCHEMBL16119841

> <PUBCHEM_CID_ASSOCIATIONS>
117608556  1

> <PUBCHEM_COORDINATE_TYPE>
1
3

$$$$
