310941368
  -OEChem-07211613022D

 20 20  0     1  0  0  0  0  0999 V2000
    0.6347   -2.0149    0.0000 O   0  0  0  0  0  0  0  0  0  0  0  0
    0.0834   -1.0393    0.0000 O   0  0  0  0  0  0  0  0  0  0  0  0
    0.7341    0.2121    0.0000 O   0  0  0  0  0  0  0  0  0  0  0  0
    0.1381   -2.8316    0.0000 O   0  0  0  0  0  0  0  0  0  0  0  0
   -1.3849   -0.2050    0.0000 N   0  0  0  0  0  0  0  0  0  0  0  0
   -0.6674    0.2288    0.0000 C   0  0  3  0  0  0  0  0  0  0  0  0
    0.0834    1.4801    0.0000 C   0  0  0  0  0  0  0  0  0  0  0  0
   -0.6507    1.0630    0.0000 C   0  0  0  0  0  0  0  0  0  0  0  0
    0.0667   -0.2050    0.0000 C   0  0  0  0  0  0  0  0  0  0  0  0
    0.1835    2.3144    0.0000 C   0  0  0  0  0  0  0  0  0  0  0  0
    0.1381   -2.3018    0.0000 C   0  0  0  0  0  0  0  0  0  0  0  0
    0.6458   -1.4632    0.0000 C   0  0  0  0  0  0  0  0  0  0  0  0
    0.8509    1.1465    0.0000 C   0  0  0  0  0  0  0  0  0  0  0  0
    0.9844    2.4645    0.0000 C   0  0  0  0  0  0  0  0  0  0  0  0
    1.3849    1.7471    0.0000 C   0  0  0  0  0  0  0  0  0  0  0  0
   -0.4672    2.8316    0.0000 C   0  0  0  0  0  0  0  0  0  0  0  0
    1.1424   -1.4411    0.0000 C   0  0  0  0  0  0  0  0  0  0  0  0
    0.1381   -1.4632    0.0000 C   0  0  0  0  0  0  0  0  0  0  0  0
    0.6347   -0.9223    0.0000 C   0  0  0  0  0  0  0  0  0  0  0  0
    0.8175   -1.4230    0.0000 C   0  0  0  0  0  0  0  0  0  0  0  0
  1 11  1  0  0  0  0
  1 12  1  0  0  0  0
  2  9  1  0  0  0  0
  2 20  1  0  0  0  0
  3  9  2  0  0  0  0
  4 11  2  0  0  0  0
  6  5  1  1  0  0  0
  5 11  1  0  0  0  0
  6  8  1  0  0  0  0
  6  9  1  0  0  0  0
  7  8  1  0  0  0  0
  7 10  2  0  0  0  0
  7 13  1  0  0  0  0
 10 14  1  0  0  0  0
 10 16  1  0  0  0  0
 12 17  1  0  0  0  0
 12 18  1  0  0  0  0
 12 19  1  0  0  0  0
 13 15  1  0  0  0  0
 14 15  1  0  0  0  0
M  END
> <PUBCHEM_COMPOUND_ID_TYPE>
0

> <PUBCHEM_TOTAL_CHARGE>
0

> <PUBCHEM_SUBSTANCE_ID>
310941368

> <PUBCHEM_SUBSTANCE_VERSION>
1

> <PUBCHEM_EXT_DATASOURCE_NAME>
4488

> <PUBCHEM_EXT_DATASOURCE_REGID>
SCHEMBL16119328

> <PUBCHEM_SUBSTANCE_COMMENT>
InChI=1S/C15H25NO4/c1-10-7-6-8-11(10)9-12(13(17)19-5)16-14(18)20-15(2,3)4/h12H,6-9H2,1-5H3,(H,16,18)/t12-/m0/s1
InChIKey=AATWWHOAZSAQKW-LBPRGKRZSA-N

> <PUBCHEM_SUBSTANCE_SYNONYM>
SCHEMBL16119328

> <PUBCHEM_XREF_EXT_ID>
SCHEMBL16119328

> <PUBCHEM_EXT_DATASOURCE_URL>
https://www.surechembl.org/

> <PUBCHEM_EXT_SUBSTANCE_URL>
https://www.surechembl.org/chemical/SCHEMBL16119328

> <PUBCHEM_CID_ASSOCIATIONS>
117608211  1

> <PUBCHEM_COORDINATE_TYPE>
1
3

> <PUBCHEM_BONDANNOTATIONS>
6  5  5

$$$$
