310938626
  -OEChem-07211613022D

 35 39  0     0  0  0  0  0  0999 V2000
   -4.6441   -0.6348    0.0000 Cl  0  0  0  0  0  0  0  0  0  0  0  0
    4.6441   -3.5223    0.0000 F   0  0  0  0  0  0  0  0  0  0  0  0
   -1.0717   -1.0473    0.0000 O   0  0  0  0  0  0  0  0  0  0  0  0
   -0.3572   -2.2848    0.0000 O   0  0  0  0  0  0  0  0  0  0  0  0
   -4.6441   -3.1098    0.0000 O   0  0  0  0  0  0  0  0  0  0  0  0
    0.3572    1.4277    0.0000 N   0  0  0  0  0  0  0  0  0  0  0  0
   -0.3572    0.1902    0.0000 N   0  0  0  0  0  0  0  0  0  0  0  0
    1.0717    0.1902    0.0000 N   0  0  0  0  0  0  0  0  0  0  0  0
    1.0717   -2.2848    0.0000 N   0  0  0  0  0  0  0  0  0  0  0  0
    0.7697    2.6973    0.0000 C   0  0  0  0  0  0  0  0  0  0  0  0
    1.0247    1.9127    0.0000 C   0  0  0  0  0  0  0  0  0  0  0  0
    1.4842    3.1098    0.0000 C   0  0  0  0  0  0  0  0  0  0  0  0
    0.7697    3.5223    0.0000 C   0  0  0  0  0  0  0  0  0  0  0  0
   -0.0553    2.6973    0.0000 C   0  0  0  0  0  0  0  0  0  0  0  0
    0.3572    0.6027    0.0000 C   0  0  0  0  0  0  0  0  0  0  0  0
   -0.3102    1.9127    0.0000 C   0  0  0  0  0  0  0  0  0  0  0  0
   -0.3572   -0.6348    0.0000 C   0  0  0  0  0  0  0  0  0  0  0  0
    0.3572   -1.0473    0.0000 C   0  0  0  0  0  0  0  0  0  0  0  0
    1.0717   -0.6348    0.0000 C   0  0  0  0  0  0  0  0  0  0  0  0
    0.3572   -1.8723    0.0000 C   0  0  0  0  0  0  0  0  0  0  0  0
   -1.7862   -0.6348    0.0000 C   0  0  0  0  0  0  0  0  0  0  0  0
   -2.5006   -1.0473    0.0000 C   0  0  0  0  0  0  0  0  0  0  0  0
   -3.2151   -0.6348    0.0000 C   0  0  0  0  0  0  0  0  0  0  0  0
   -3.9296   -1.0473    0.0000 C   0  0  0  0  0  0  0  0  0  0  0  0
   -3.9296   -1.8723    0.0000 C   0  0  0  0  0  0  0  0  0  0  0  0
   -2.5006   -1.8723    0.0000 C   0  0  0  0  0  0  0  0  0  0  0  0
    1.7862   -1.8723    0.0000 C   0  0  0  0  0  0  0  0  0  0  0  0
   -3.2151   -2.2848    0.0000 C   0  0  0  0  0  0  0  0  0  0  0  0
    2.5006   -2.2848    0.0000 C   0  0  0  0  0  0  0  0  0  0  0  0
   -4.6441   -2.2848    0.0000 C   0  0  0  0  0  0  0  0  0  0  0  0
    2.5006   -3.1098    0.0000 C   0  0  0  0  0  0  0  0  0  0  0  0
    3.2151   -1.8723    0.0000 C   0  0  0  0  0  0  0  0  0  0  0  0
    3.9296   -3.1098    0.0000 C   0  0  0  0  0  0  0  0  0  0  0  0
    3.2151   -3.5223    0.0000 C   0  0  0  0  0  0  0  0  0  0  0  0
    3.9296   -2.2848    0.0000 C   0  0  0  0  0  0  0  0  0  0  0  0
  1 24  1  0  0  0  0
  2 33  1  0  0  0  0
  3 17  1  0  0  0  0
  3 21  1  0  0  0  0
  4 20  2  0  0  0  0
  5 30  1  0  0  0  0
  6 11  1  0  0  0  0
  6 15  1  0  0  0  0
  6 16  1  0  0  0  0
  7 15  1  0  0  0  0
  7 17  2  0  0  0  0
  8 15  2  0  0  0  0
  8 19  1  0  0  0  0
  9 20  1  0  0  0  0
  9 27  1  0  0  0  0
 10 11  1  0  0  0  0
 10 12  1  0  0  0  0
 10 13  1  0  0  0  0
 10 14  1  0  0  0  0
 12 13  1  0  0  0  0
 14 16  1  0  0  0  0
 17 18  1  0  0  0  0
 18 19  2  0  0  0  0
 18 20  1  0  0  0  0
 21 22  1  0  0  0  0
 22 23  2  0  0  0  0
 22 26  1  0  0  0  0
 23 24  1  0  0  0  0
 24 25  2  0  0  0  0
 25 28  1  0  0  0  0
 25 30  1  0  0  0  0
 26 28  2  0  0  0  0
 27 29  1  0  0  0  0
 29 31  2  0  0  0  0
 29 32  1  0  0  0  0
 31 34  1  0  0  0  0
 32 35  2  0  0  0  0
 33 34  2  0  0  0  0
 33 35  1  0  0  0  0
M  END
> <PUBCHEM_COMPOUND_ID_TYPE>
0

> <PUBCHEM_TOTAL_CHARGE>
0

> <PUBCHEM_SUBSTANCE_ID>
310938626

> <PUBCHEM_SUBSTANCE_VERSION>
1

> <PUBCHEM_EXT_DATASOURCE_NAME>
4488

> <PUBCHEM_EXT_DATASOURCE_REGID>
SCHEMBL16116540

> <PUBCHEM_SUBSTANCE_COMMENT>
InChI=1S/C26H26ClFN4O3/c27-22-11-18(1-4-19(22)14-33)15-35-24-21(23(34)29-12-17-2-5-20(28)6-3-17)13-30-25(31-24)32-10-9-26(16-32)7-8-26/h1-6,11,13,33H,7-10,12,14-16H2,(H,29,34)
InChIKey=CUOOCVUVROFLKV-UHFFFAOYSA-N

> <PUBCHEM_SUBSTANCE_SYNONYM>
SCHEMBL16116540

> <PUBCHEM_XREF_EXT_ID>
SCHEMBL16116540

> <PUBCHEM_EXT_DATASOURCE_URL>
https://www.surechembl.org/

> <PUBCHEM_EXT_SUBSTANCE_URL>
https://www.surechembl.org/chemical/SCHEMBL16116540

> <PUBCHEM_CID_ASSOCIATIONS>
117606059  1

> <PUBCHEM_COORDINATE_TYPE>
1
3

$$$$
