310949413
  -OEChem-07211613022D

 31 35  0     0  0  0  0  0  0999 V2000
    2.0285    2.6297    0.0000 S   0  0  0  0  0  0  0  0  0  0  0  0
    1.3336    3.0804    0.0000 O   0  0  0  0  0  0  0  0  0  0  0  0
    2.2352    3.4373    0.0000 O   0  0  0  0  0  0  0  0  0  0  0  0
   -0.1690   -3.4373    0.0000 O   0  0  0  0  0  0  0  0  0  0  0  0
   -1.8032   -3.0804    0.0000 O   0  0  0  0  0  0  0  0  0  0  0  0
    1.5402    0.6199    0.0000 N   0  0  0  0  0  0  0  0  0  0  0  0
   -1.2397   -2.4606    0.0000 N   0  0  0  0  0  0  0  0  0  0  0  0
    1.5402    1.9722    0.0000 C   0  0  0  0  0  0  0  0  0  0  0  0
    2.0474    1.3148    0.0000 C   0  0  0  0  0  0  0  0  0  0  0  0
    0.7701    1.7280    0.0000 C   0  0  0  0  0  0  0  0  0  0  0  0
    0.7513    0.9016    0.0000 C   0  0  0  0  0  0  0  0  0  0  0  0
    2.8174    1.5590    0.0000 C   0  0  0  0  0  0  0  0  0  0  0  0
    2.8362    2.3855    0.0000 C   0  0  0  0  0  0  0  0  0  0  0  0
    0.0188    2.1225    0.0000 C   0  0  0  0  0  0  0  0  0  0  0  0
    0.0376    0.4884    0.0000 C   0  0  0  0  0  0  0  0  0  0  0  0
    1.8032   -0.1315    0.0000 C   0  0  0  0  0  0  0  0  0  0  0  0
   -0.6762    1.7280    0.0000 C   0  0  0  0  0  0  0  0  0  0  0  0
   -0.6762    0.8828    0.0000 C   0  0  0  0  0  0  0  0  0  0  0  0
    1.2397   -0.7701    0.0000 C   0  0  0  0  0  0  0  0  0  0  0  0
   -1.4087    2.1413    0.0000 C   0  0  0  0  0  0  0  0  0  0  0  0
    0.4320   -0.6199    0.0000 C   0  0  0  0  0  0  0  0  0  0  0  0
    1.5027   -1.5778    0.0000 C   0  0  0  0  0  0  0  0  0  0  0  0
   -1.4275    2.9678    0.0000 C   0  0  0  0  0  0  0  0  0  0  0  0
   -2.1225    1.7280    0.0000 C   0  0  0  0  0  0  0  0  0  0  0  0
    0.1503   -1.9910    0.0000 C   0  0  0  0  0  0  0  0  0  0  0  0
   -0.1127   -1.2209    0.0000 C   0  0  0  0  0  0  0  0  0  0  0  0
    0.9580   -2.1600    0.0000 C   0  0  0  0  0  0  0  0  0  0  0  0
   -2.1413    3.3622    0.0000 C   0  0  0  0  0  0  0  0  0  0  0  0
   -2.8362    2.1413    0.0000 C   0  0  0  0  0  0  0  0  0  0  0  0
   -0.4320   -2.6108    0.0000 C   0  0  0  0  0  0  0  0  0  0  0  0
   -2.8362    2.9678    0.0000 C   0  0  0  0  0  0  0  0  0  0  0  0
  1  2  2  0  0  0  0
  1  3  2  0  0  0  0
  1  8  1  0  0  0  0
  1 13  1  0  0  0  0
  4 30  2  0  0  0  0
  5  7  1  0  0  0  0
  6  9  1  0  0  0  0
  6 11  1  0  0  0  0
  6 16  1  0  0  0  0
  7 30  1  0  0  0  0
  8  9  2  0  0  0  0
  8 10  1  0  0  0  0
  9 12  1  0  0  0  0
 10 11  1  0  0  0  0
 10 14  2  0  0  0  0
 11 15  2  0  0  0  0
 12 13  1  0  0  0  0
 14 17  1  0  0  0  0
 15 18  1  0  0  0  0
 16 19  1  0  0  0  0
 17 18  2  0  0  0  0
 17 20  1  0  0  0  0
 19 21  2  0  0  0  0
 19 22  1  0  0  0  0
 20 23  2  0  0  0  0
 20 24  1  0  0  0  0
 21 26  1  0  0  0  0
 22 27  2  0  0  0  0
 23 28  1  0  0  0  0
 24 29  2  0  0  0  0
 25 26  2  0  0  0  0
 25 27  1  0  0  0  0
 25 30  1  0  0  0  0
 28 31  2  0  0  0  0
 29 31  1  0  0  0  0
M  END
> <PUBCHEM_COMPOUND_ID_TYPE>
0

> <PUBCHEM_TOTAL_CHARGE>
0

> <PUBCHEM_SUBSTANCE_ID>
310949413

> <PUBCHEM_SUBSTANCE_VERSION>
1

> <PUBCHEM_EXT_DATASOURCE_NAME>
4488

> <PUBCHEM_EXT_DATASOURCE_REGID>
SCHEMBL16127606

> <PUBCHEM_SUBSTANCE_COMMENT>
InChI=1S/C24H20N2O4S/c27-24(25-28)18-8-6-16(7-9-18)15-26-21-11-10-19(17-4-2-1-3-5-17)14-20(21)23-22(26)12-13-31(23,29)30/h1-11,14,28H,12-13,15H2,(H,25,27)
InChIKey=BYFANFPTNLEOOV-UHFFFAOYSA-N

> <PUBCHEM_SUBSTANCE_SYNONYM>
SCHEMBL16127606

> <PUBCHEM_XREF_EXT_ID>
SCHEMBL16127606

> <PUBCHEM_EXT_DATASOURCE_URL>
https://www.surechembl.org/

> <PUBCHEM_EXT_SUBSTANCE_URL>
https://www.surechembl.org/chemical/SCHEMBL16127606

> <PUBCHEM_CID_ASSOCIATIONS>
117614864  1

> <PUBCHEM_COORDINATE_TYPE>
1
3

$$$$
