310946874
  -OEChem-07211613022D

 32 35  0     1  0  0  0  0  0999 V2000
    2.3945   -2.0790    0.0000 S   0  0  0  0  0  0  0  0  0  0  0  0
   -0.7281    2.8879    0.0000 O   0  0  0  0  0  0  0  0  0  0  0  0
   -2.6533   -1.5936    0.0000 O   0  0  0  0  0  0  0  0  0  0  0  0
    2.2165   -2.8879    0.0000 O   0  0  0  0  0  0  0  0  0  0  0  0
    3.2034   -2.2570    0.0000 O   0  0  0  0  0  0  0  0  0  0  0  0
   -1.1325    0.7523    0.0000 N   0  0  0  0  0  0  0  0  0  0  0  0
   -0.6472    0.0728    0.0000 N   0  0  0  0  0  0  0  0  0  0  0  0
   -0.8737   -1.3833    0.0000 N   0  0  0  0  0  0  0  0  0  0  0  0
   -3.3814   -0.3479    0.0000 N   0  0  0  0  0  0  0  0  0  0  0  0
    1.3105    1.0920    0.0000 N   0  0  0  0  0  0  0  0  0  0  0  0
   -0.8737    1.5613    0.0000 C   0  0  3  0  0  0  0  0  0  0  0  0
   -1.9091    0.5097    0.0000 C   0  0  0  0  0  0  0  0  0  0  0  0
   -1.9415   -0.3316    0.0000 C   0  0  0  0  0  0  0  0  0  0  0  0
   -1.1325   -0.5905    0.0000 C   0  0  0  0  0  0  0  0  0  0  0  0
   -2.6533   -0.7199    0.0000 C   0  0  0  0  0  0  0  0  0  0  0  0
   -0.3236    2.1761    0.0000 C   0  0  0  0  0  0  0  0  0  0  0  0
   -1.6341    1.8849    0.0000 C   0  0  0  0  0  0  0  0  0  0  0  0
   -2.6695    0.9141    0.0000 C   0  0  0  0  0  0  0  0  0  0  0  0
   -0.3074    0.9303    0.0000 C   0  0  0  0  0  0  0  0  0  0  0  0
   -0.0486   -1.5451    0.0000 C   0  0  0  0  0  0  0  0  0  0  0  0
    1.5694   -1.8849    0.0000 C   0  0  0  0  0  0  0  0  0  0  0  0
   -3.3490    0.5097    0.0000 C   0  0  0  0  0  0  0  0  0  0  0  0
    2.5725   -1.2377    0.0000 C   0  0  0  0  0  0  0  0  0  0  0  0
   -1.5370    2.7262    0.0000 C   0  0  0  0  0  0  0  0  0  0  0  0
    0.2103   -2.3379    0.0000 C   0  0  0  0  0  0  0  0  0  0  0  0
    0.5016   -0.9464    0.0000 C   0  0  0  0  0  0  0  0  0  0  0  0
    1.0192   -2.4996    0.0000 C   0  0  0  0  0  0  0  0  0  0  0  0
    1.3105   -1.1083    0.0000 C   0  0  0  0  0  0  0  0  0  0  0  0
    0.5016    1.0920    0.0000 C   0  0  0  0  0  0  0  0  0  0  0  0
    2.7342   -0.4288    0.0000 C   0  0  0  0  0  0  0  0  0  0  0  0
    1.9900   -0.6553    0.0000 C   0  0  0  0  0  0  0  0  0  0  0  0
    3.3814   -1.0112    0.0000 C   0  0  0  0  0  0  0  0  0  0  0  0
  1  4  2  0  0  0  0
  1  5  2  0  0  0  0
  1 21  1  0  0  0  0
  1 23  1  0  0  0  0
  2 16  1  0  0  0  0
  2 24  1  0  0  0  0
  3 15  2  0  0  0  0
  6  7  1  0  0  0  0
  6 11  1  0  0  0  0
  6 12  1  0  0  0  0
  7 14  2  0  0  0  0
  8 14  1  0  0  0  0
  8 20  1  0  0  0  0
  9 15  1  0  0  0  0
  9 22  1  0  0  0  0
 10 29  3  0  0  0  0
 11 16  1  0  0  0  0
 11 17  1  0  0  0  0
 11 19  1  1  0  0  0
 12 13  2  0  0  0  0
 12 18  1  0  0  0  0
 13 14  1  0  0  0  0
 13 15  1  0  0  0  0
 17 24  1  0  0  0  0
 18 22  2  0  0  0  0
 19 29  1  0  0  0  0
 20 25  2  0  0  0  0
 20 26  1  0  0  0  0
 21 27  2  0  0  0  0
 21 28  1  0  0  0  0
 23 30  1  0  0  0  0
 23 31  1  0  0  0  0
 23 32  1  0  0  0  0
 25 27  1  0  0  0  0
 26 28  2  0  0  0  0
M  END
> <PUBCHEM_COMPOUND_ID_TYPE>
0

> <PUBCHEM_TOTAL_CHARGE>
0

> <PUBCHEM_SUBSTANCE_ID>
310946874

> <PUBCHEM_SUBSTANCE_VERSION>
1

> <PUBCHEM_EXT_DATASOURCE_NAME>
4488

> <PUBCHEM_EXT_DATASOURCE_REGID>
SCHEMBL16124998

> <PUBCHEM_SUBSTANCE_COMMENT>
InChI=1S/C22H25N5O4S/c1-21(2,3)32(29,30)16-6-4-15(5-7-16)25-19-18-17(8-12-24-20(18)28)27(26-19)22(9-11-23)10-13-31-14-22/h4-8,12H,9-10,13-14H2,1-3H3,(H,24,28)(H,25,26)/t22-/m1/s1
InChIKey=LHALWUWCDPBXHR-JOCHJYFZSA-N

> <PUBCHEM_SUBSTANCE_SYNONYM>
SCHEMBL16124998

> <PUBCHEM_XREF_EXT_ID>
SCHEMBL16124998

> <PUBCHEM_EXT_DATASOURCE_URL>
https://www.surechembl.org/

> <PUBCHEM_EXT_SUBSTANCE_URL>
https://www.surechembl.org/chemical/SCHEMBL16124998

> <PUBCHEM_CID_ASSOCIATIONS>
117612732  1

> <PUBCHEM_COORDINATE_TYPE>
1
3

> <PUBCHEM_BONDANNOTATIONS>
11  19  5

$$$$
