310940665
  -OEChem-07211613022D

 40 45  0     1  0  0  0  0  0999 V2000
   -1.1711   -1.0238    0.0000 O   0  0  0  0  0  0  0  0  0  0  0  0
    3.5133   -3.9994    0.0000 O   0  0  0  0  0  0  0  0  0  0  0  0
    2.2760   -3.2923    0.0000 O   0  0  0  0  0  0  0  0  0  0  0  0
    1.7751   -1.1711    0.0000 N   0  0  0  0  0  0  0  0  0  0  0  0
    1.7751   -2.5116    0.0000 N   0  0  0  0  0  0  0  0  0  0  0  0
    1.4363    2.4233    0.0000 N   0  0  0  0  0  0  0  0  0  0  0  0
   -2.6147   -0.1841    0.0000 N   0  0  0  0  0  0  0  0  0  0  0  0
    2.2612   -1.8340    0.0000 C   0  0  0  0  0  0  0  0  0  0  0  0
    0.9944   -1.4216    0.0000 C   0  0  0  0  0  0  0  0  0  0  0  0
    0.9796   -2.2465    0.0000 C   0  0  0  0  0  0  0  0  0  0  0  0
    3.1156   -1.8635    0.0000 C   0  0  3  0  0  0  0  0  0  0  0  0
    0.2578   -1.0238    0.0000 C   0  0  0  0  0  0  0  0  0  0  0  0
    2.0255   -0.3756    0.0000 C   0  0  0  0  0  0  0  0  0  0  0  0
    3.5280   -2.5411    0.0000 C   0  0  3  0  0  0  0  0  0  0  0  0
    0.2725   -2.6589    0.0000 C   0  0  0  0  0  0  0  0  0  0  0  0
   -0.4493   -1.4216    0.0000 C   0  0  0  0  0  0  0  0  0  0  0  0
    1.4805    0.2431    0.0000 C   0  0  0  0  0  0  0  0  0  0  0  0
    3.5133   -1.1269    0.0000 C   0  0  0  0  0  0  0  0  0  0  0  0
   -0.4346   -2.2612    0.0000 C   0  0  0  0  0  0  0  0  0  0  0  0
    3.0714   -3.2776    0.0000 C   0  0  0  0  0  0  0  0  0  0  0  0
    4.3382   -2.5558    0.0000 C   0  0  0  0  0  0  0  0  0  0  0  0
    1.7309    1.0238    0.0000 C   0  0  0  0  0  0  0  0  0  0  0  0
    4.3382   -1.1269    0.0000 C   0  0  0  0  0  0  0  0  0  0  0  0
    1.1711    1.6425    0.0000 C   0  0  0  0  0  0  0  0  0  0  0  0
    0.6703    0.0663    0.0000 C   0  0  0  0  0  0  0  0  0  0  0  0
    4.7507   -1.8340    0.0000 C   0  0  0  0  0  0  0  0  0  0  0  0
    0.3756    1.4510    0.0000 C   0  0  0  0  0  0  0  0  0  0  0  0
    0.1252    0.6703    0.0000 C   0  0  0  0  0  0  0  0  0  0  0  0
   -1.8782   -1.4216    0.0000 C   0  0  0  0  0  0  0  0  0  0  0  0
   -2.6147   -1.0091    0.0000 C   0  0  0  0  0  0  0  0  0  0  0  0
    2.2318    2.6000    0.0000 C   0  0  0  0  0  0  0  0  0  0  0  0
    0.8912    3.0419    0.0000 C   0  0  0  0  0  0  0  0  0  0  0  0
   -3.3218   -1.4216    0.0000 C   0  0  0  0  0  0  0  0  0  0  0  0
    2.4969    3.3954    0.0000 C   0  0  0  0  0  0  0  0  0  0  0  0
    1.1417    3.8374    0.0000 C   0  0  0  0  0  0  0  0  0  0  0  0
    1.9666    3.9994    0.0000 C   0  0  0  0  0  0  0  0  0  0  0  0
   -3.3365    0.2283    0.0000 C   0  0  0  0  0  0  0  0  0  0  0  0
   -4.0436   -1.0091    0.0000 C   0  0  0  0  0  0  0  0  0  0  0  0
   -4.0289   -0.1841    0.0000 C   0  0  0  0  0  0  0  0  0  0  0  0
   -4.7507    0.2283    0.0000 C   0  0  0  0  0  0  0  0  0  0  0  0
  1 16  1  0  0  0  0
  1 29  1  0  0  0  0
  2 20  2  0  0  0  0
  3 20  1  0  0  0  0
  4  8  1  0  0  0  0
  4  9  1  0  0  0  0
  4 13  1  0  0  0  0
  5  8  2  0  0  0  0
  5 10  1  0  0  0  0
  6 24  1  0  0  0  0
  6 31  1  0  0  0  0
  6 32  1  0  0  0  0
  7 30  1  0  0  0  0
  7 37  2  0  0  0  0
 11  8  1  6  0  0  0
  9 10  1  0  0  0  0
  9 12  2  0  0  0  0
 10 15  2  0  0  0  0
 11 14  1  0  0  0  0
 11 18  1  0  0  0  0
 12 16  1  0  0  0  0
 13 17  1  0  0  0  0
 14 20  1  1  0  0  0
 14 21  1  0  0  0  0
 15 19  1  0  0  0  0
 16 19  2  0  0  0  0
 17 22  1  0  0  0  0
 17 25  2  0  0  0  0
 18 23  1  0  0  0  0
 21 26  1  0  0  0  0
 22 24  2  0  0  0  0
 23 26  1  0  0  0  0
 24 27  1  0  0  0  0
 25 28  1  0  0  0  0
 27 28  2  0  0  0  0
 29 30  1  0  0  0  0
 30 33  2  0  0  0  0
 31 34  1  0  0  0  0
 32 35  1  0  0  0  0
 33 38  1  0  0  0  0
 34 36  1  0  0  0  0
 35 36  1  0  0  0  0
 37 39  1  0  0  0  0
 38 39  2  0  0  0  0
 39 40  1  0  0  0  0
M  END
> <PUBCHEM_COMPOUND_ID_TYPE>
0

> <PUBCHEM_TOTAL_CHARGE>
0

> <PUBCHEM_SUBSTANCE_ID>
310940665

> <PUBCHEM_SUBSTANCE_VERSION>
1

> <PUBCHEM_EXT_DATASOURCE_NAME>
4488

> <PUBCHEM_EXT_DATASOURCE_REGID>
SCHEMBL16118620

> <PUBCHEM_SUBSTANCE_COMMENT>
InChI=1S/C33H38N4O3/c1-23-12-13-25(34-20-23)22-40-27-14-15-30-31(19-27)37(32(35-30)28-10-3-4-11-29(28)33(38)39)21-24-8-7-9-26(18-24)36-16-5-2-6-17-36/h7-9,12-15,18-20,28-29H,2-6,10-11,16-17,21-22H2,1H3,(H,38,39)/t28-,29-/m1/s1
InChIKey=HWUCUHUHIXBLPJ-FQLXRVMXSA-N

> <PUBCHEM_SUBSTANCE_SYNONYM>
SCHEMBL16118620

> <PUBCHEM_XREF_EXT_ID>
SCHEMBL16118620

> <PUBCHEM_EXT_DATASOURCE_URL>
https://www.surechembl.org/

> <PUBCHEM_EXT_SUBSTANCE_URL>
https://www.surechembl.org/chemical/SCHEMBL16118620

> <PUBCHEM_CID_ASSOCIATIONS>
117607642  1

> <PUBCHEM_COORDINATE_TYPE>
1
3

> <PUBCHEM_BONDANNOTATIONS>
14  20  5
11  8  6

$$$$
