310949525
  -OEChem-07211613022D

 24 25  0     0  0  0  0  0  0999 V2000
   -2.1685   -0.4124    0.0000 F   0  0  0  0  0  0  0  0  0  0  0  0
   -2.8869    0.0000    0.0000 F   0  0  0  0  0  0  0  0  0  0  0  0
   -2.8869    0.8381    0.0000 F   0  0  0  0  0  0  0  0  0  0  0  0
    0.0000   -1.6630    0.0000 O   0  0  0  0  0  0  0  0  0  0  0  0
    1.4501    0.8381    0.0000 O   0  0  0  0  0  0  0  0  0  0  0  0
    2.8869    0.8381    0.0000 O   0  0  0  0  0  0  0  0  0  0  0  0
   -0.7317   -0.4124    0.0000 N   0  0  0  0  0  0  0  0  0  0  0  0
    0.7184   -0.4124    0.0000 N   0  0  0  0  0  0  0  0  0  0  0  0
   -1.4634    0.8381    0.0000 C   0  0  0  0  0  0  0  0  0  0  0  0
   -0.7184    0.4124    0.0000 C   0  0  0  0  0  0  0  0  0  0  0  0
   -2.1951    0.3991    0.0000 C   0  0  0  0  0  0  0  0  0  0  0  0
    1.4501   -0.8515    0.0000 C   0  0  0  0  0  0  0  0  0  0  0  0
    2.1552   -0.4124    0.0000 C   0  0  0  0  0  0  0  0  0  0  0  0
    0.0000   -0.8115    0.0000 C   0  0  0  0  0  0  0  0  0  0  0  0
   -1.4501    1.6630    0.0000 C   0  0  0  0  0  0  0  0  0  0  0  0
   -0.0133    0.8248    0.0000 C   0  0  0  0  0  0  0  0  0  0  0  0
    2.1552    0.3991    0.0000 C   0  0  0  0  0  0  0  0  0  0  0  0
    1.4501   -1.6630    0.0000 C   0  0  0  0  0  0  0  0  0  0  0  0
   -0.7450    2.0621    0.0000 C   0  0  0  0  0  0  0  0  0  0  0  0
    2.8869   -0.8515    0.0000 C   0  0  0  0  0  0  0  0  0  0  0  0
   -0.0133    1.6496    0.0000 C   0  0  0  0  0  0  0  0  0  0  0  0
    2.1818   -2.0621    0.0000 C   0  0  0  0  0  0  0  0  0  0  0  0
    2.8869   -1.6496    0.0000 C   0  0  0  0  0  0  0  0  0  0  0  0
    0.6918    0.3991    0.0000 C   0  0  0  0  0  0  0  0  0  0  0  0
  1 11  1  0  0  0  0
  2 11  1  0  0  0  0
  3 11  1  0  0  0  0
  4 14  2  0  0  0  0
  5 17  1  0  0  0  0
  5 24  1  0  0  0  0
  6 17  2  0  0  0  0
  7 10  1  0  0  0  0
  7 14  1  0  0  0  0
  8 12  1  0  0  0  0
  8 14  1  0  0  0  0
  9 10  2  0  0  0  0
  9 11  1  0  0  0  0
  9 15  1  0  0  0  0
 10 16  1  0  0  0  0
 12 13  1  0  0  0  0
 12 18  2  0  0  0  0
 13 17  1  0  0  0  0
 13 20  2  0  0  0  0
 15 19  2  0  0  0  0
 16 21  2  0  0  0  0
 18 22  1  0  0  0  0
 19 21  1  0  0  0  0
 20 23  1  0  0  0  0
 22 23  2  0  0  0  0
M  END
> <PUBCHEM_COMPOUND_ID_TYPE>
0

> <PUBCHEM_TOTAL_CHARGE>
0

> <PUBCHEM_SUBSTANCE_ID>
310949525

> <PUBCHEM_SUBSTANCE_VERSION>
1

> <PUBCHEM_EXT_DATASOURCE_NAME>
4488

> <PUBCHEM_EXT_DATASOURCE_REGID>
SCHEMBL16127720

> <PUBCHEM_SUBSTANCE_COMMENT>
InChI=1S/C16H13F3N2O3/c1-24-14(22)10-6-2-4-8-12(10)20-15(23)21-13-9-5-3-7-11(13)16(17,18)19/h2-9H,1H3,(H2,20,21,23)
InChIKey=BQPBYDVGFDLHRF-UHFFFAOYSA-N

> <PUBCHEM_SUBSTANCE_SYNONYM>
SCHEMBL16127720

> <PUBCHEM_XREF_EXT_ID>
SCHEMBL16127720

> <PUBCHEM_EXT_DATASOURCE_URL>
https://www.surechembl.org/

> <PUBCHEM_EXT_SUBSTANCE_URL>
https://www.surechembl.org/chemical/SCHEMBL16127720

> <PUBCHEM_CID_ASSOCIATIONS>
310578  1

> <PUBCHEM_COORDINATE_TYPE>
1
3

$$$$
