310943091
  -OEChem-07211613022D

 14 15  0     0  0  0  0  0  0999 V2000
   -1.5231   -1.4243    0.0000 O   0  0  0  0  0  0  0  0  0  0  0  0
   -0.0802    0.2159    0.0000 N   0  0  0  0  0  0  0  0  0  0  0  0
    0.7091    1.3010    0.0000 N   0  0  0  0  0  0  0  0  0  0  0  0
   -1.4983    1.0422    0.0000 N   0  0  0  0  0  0  0  0  0  0  0  0
    0.0432   -1.4243    0.0000 N   0  0  0  0  0  0  0  0  0  0  0  0
   -0.0802    1.0422    0.0000 C   0  0  0  0  0  0  0  0  0  0  0  0
   -0.7831   -0.1788    0.0000 C   0  0  0  0  0  0  0  0  0  0  0  0
    0.6968   -0.0308    0.0000 C   0  0  0  0  0  0  0  0  0  0  0  0
    1.1777    0.6228    0.0000 C   0  0  0  0  0  0  0  0  0  0  0  0
   -0.7954   -1.0051    0.0000 C   0  0  0  0  0  0  0  0  0  0  0  0
   -1.4983    0.2159    0.0000 C   0  0  0  0  0  0  0  0  0  0  0  0
   -0.8077    1.4491    0.0000 C   0  0  0  0  0  0  0  0  0  0  0  0
    1.0914   -0.7461    0.0000 C   0  0  0  0  0  0  0  0  0  0  0  0
    1.5231   -1.4491    0.0000 C   0  0  0  0  0  0  0  0  0  0  0  0
  1 10  2  0  0  0  0
  2  6  1  0  0  0  0
  2  7  1  0  0  0  0
  2  8  1  0  0  0  0
  3  6  2  0  0  0  0
  3  9  1  0  0  0  0
  4 11  1  0  0  0  0
  4 12  2  0  0  0  0
  5 10  1  0  0  0  0
  6 12  1  0  0  0  0
  7 10  1  0  0  0  0
  7 11  2  0  0  0  0
  8  9  2  0  0  0  0
  8 13  1  0  0  0  0
 13 14  1  0  0  0  0
M  END
> <PUBCHEM_COMPOUND_ID_TYPE>
0

> <PUBCHEM_TOTAL_CHARGE>
0

> <PUBCHEM_SUBSTANCE_ID>
310943091

> <PUBCHEM_SUBSTANCE_VERSION>
1

> <PUBCHEM_EXT_DATASOURCE_NAME>
4488

> <PUBCHEM_EXT_DATASOURCE_REGID>
SCHEMBL16121150

> <PUBCHEM_SUBSTANCE_COMMENT>
InChI=1S/C9H10N4O/c1-2-6-3-12-8-5-11-4-7(9(10)14)13(6)8/h3-5H,2H2,1H3,(H2,10,14)
InChIKey=WIQVKJRPJPWJAB-UHFFFAOYSA-N

> <PUBCHEM_SUBSTANCE_SYNONYM>
SCHEMBL16121150

> <PUBCHEM_XREF_EXT_ID>
SCHEMBL16121150

> <PUBCHEM_EXT_DATASOURCE_URL>
https://www.surechembl.org/

> <PUBCHEM_EXT_SUBSTANCE_URL>
https://www.surechembl.org/chemical/SCHEMBL16121150

> <PUBCHEM_CID_ASSOCIATIONS>
117609522  1

> <PUBCHEM_COORDINATE_TYPE>
1
3

$$$$
