310934091
  -OEChem-07211613022D

 59 65  0     0  0  0  0  0  0999 V2000
    1.3819    2.5474    0.0000 S   0  0  0  0  0  0  0  0  0  0  0  0
   -1.2695    0.4125    0.0000 S   0  0  0  0  0  0  0  0  0  0  0  0
    0.0000   -4.9500    0.0000 P   0  0  0  0  0  0  0  0  0  0  0  0
    0.0000   -5.7750    0.0000 O   0  0  0  0  0  0  0  0  0  0  0  0
    0.8250   -4.9500    0.0000 O   0  0  0  0  0  0  0  0  0  0  0  0
   -0.8250   -4.9500    0.0000 O   0  0  0  0  0  0  0  0  0  0  0  0
   -0.7846    1.0799    0.0000 N   0  0  0  0  0  0  0  0  0  0  0  0
   -0.7846   -0.2549    0.0000 N   0  0  0  0  0  0  0  0  0  0  0  0
    3.0667    6.0018    0.0000 N   0  0  0  0  0  0  0  0  0  0  0  0
   -1.4289   -3.3000    0.0000 N   0  0  0  0  0  0  0  0  0  0  0  0
   -0.0000    0.8250    0.0000 C   0  0  0  0  0  0  0  0  0  0  0  0
    0.7145    1.2375    0.0000 C   0  0  0  0  0  0  0  0  0  0  0  0
   -0.0000    0.0000    0.0000 C   0  0  0  0  0  0  0  0  0  0  0  0
    0.7145   -0.4125    0.0000 C   0  0  0  0  0  0  0  0  0  0  0  0
    0.7145    2.0625    0.0000 C   0  0  0  0  0  0  0  0  0  0  0  0
    1.1270    3.3320    0.0000 C   0  0  0  0  0  0  0  0  0  0  0  0
    0.7145   -1.2375    0.0000 C   0  0  0  0  0  0  0  0  0  0  0  0
    0.3020    3.3320    0.0000 C   0  0  0  0  0  0  0  0  0  0  0  0
    1.4289    0.8250    0.0000 C   0  0  0  0  0  0  0  0  0  0  0  0
    1.4289    0.0000    0.0000 C   0  0  0  0  0  0  0  0  0  0  0  0
    0.0470    2.5474    0.0000 C   0  0  0  0  0  0  0  0  0  0  0  0
    1.6119    3.9995    0.0000 C   0  0  0  0  0  0  0  0  0  0  0  0
    0.7145   -2.8875    0.0000 C   0  0  0  0  0  0  0  0  0  0  0  0
    0.0000   -1.6500    0.0000 C   0  0  0  0  0  0  0  0  0  0  0  0
    0.0000   -2.4750    0.0000 C   0  0  0  0  0  0  0  0  0  0  0  0
    1.4289   -1.6500    0.0000 C   0  0  0  0  0  0  0  0  0  0  0  0
    0.7145   -3.7125    0.0000 C   0  0  0  0  0  0  0  0  0  0  0  0
    1.4289   -2.4750    0.0000 C   0  0  0  0  0  0  0  0  0  0  0  0
   -0.1830    3.9995    0.0000 C   0  0  0  0  0  0  0  0  0  0  0  0
    2.5817    5.3344    0.0000 C   0  0  0  0  0  0  0  0  0  0  0  0
    2.4324    3.9132    0.0000 C   0  0  0  0  0  0  0  0  0  0  0  0
    1.2763    4.7532    0.0000 C   0  0  0  0  0  0  0  0  0  0  0  0
    0.0000   -4.1250    0.0000 C   0  0  0  0  0  0  0  0  0  0  0  0
    2.9173    4.5807    0.0000 C   0  0  0  0  0  0  0  0  0  0  0  0
    1.7613    5.4206    0.0000 C   0  0  0  0  0  0  0  0  0  0  0  0
   -0.7145   -2.8875    0.0000 C   0  0  0  0  0  0  0  0  0  0  0  0
    2.7311    6.7555    0.0000 C   0  0  0  0  0  0  0  0  0  0  0  0
    3.8871    5.9156    0.0000 C   0  0  0  0  0  0  0  0  0  0  0  0
    1.4289   -4.1250    0.0000 C   0  0  0  0  0  0  0  0  0  0  0  0
    0.1526    4.7532    0.0000 C   0  0  0  0  0  0  0  0  0  0  0  0
   -0.7145   -3.7125    0.0000 C   0  0  0  0  0  0  0  0  0  0  0  0
    3.2160    7.4229    0.0000 C   0  0  0  0  0  0  0  0  0  0  0  0
    4.2227    5.1619    0.0000 C   0  0  0  0  0  0  0  0  0  0  0  0
    1.9106    6.8417    0.0000 C   0  0  0  0  0  0  0  0  0  0  0  0
    4.3721    6.5830    0.0000 C   0  0  0  0  0  0  0  0  0  0  0  0
   -1.4289   -2.4750    0.0000 C   0  0  0  0  0  0  0  0  0  0  0  0
   -0.3323    5.4206    0.0000 C   0  0  0  0  0  0  0  0  0  0  0  0
    2.1434   -3.7125    0.0000 C   0  0  0  0  0  0  0  0  0  0  0  0
    2.8805    8.1766    0.0000 C   0  0  0  0  0  0  0  0  0  0  0  0
    5.0432    5.0757    0.0000 C   0  0  0  0  0  0  0  0  0  0  0  0
    1.5751    7.5954    0.0000 C   0  0  0  0  0  0  0  0  0  0  0  0
    5.1925    6.4968    0.0000 C   0  0  0  0  0  0  0  0  0  0  0  0
    2.0600    8.2628    0.0000 C   0  0  0  0  0  0  0  0  0  0  0  0
    5.5281    5.7431    0.0000 C   0  0  0  0  0  0  0  0  0  0  0  0
    0.0032    6.1743    0.0000 C   0  0  0  0  0  0  0  0  0  0  0  0
   -0.4817    6.8417    0.0000 C   0  0  0  0  0  0  0  0  0  0  0  0
   -0.1461    7.5954    0.0000 C   0  0  0  0  0  0  0  0  0  0  0  0
   -0.6310    8.2628    0.0000 C   0  0  0  0  0  0  0  0  0  0  0  0
   -0.2955    9.0165    0.0000 C   0  0  0  0  0  0  0  0  0  0  0  0
  1 15  1  0  0  0  0
  1 16  1  0  0  0  0
  2  7  1  0  0  0  0
  2  8  1  0  0  0  0
  3  4  2  0  0  0  0
  3  5  1  0  0  0  0
  3  6  1  0  0  0  0
  3 33  1  0  0  0  0
  7 11  2  0  0  0  0
  8 13  2  0  0  0  0
  9 30  1  0  0  0  0
  9 37  1  0  0  0  0
  9 38  1  0  0  0  0
 10 41  3  0  0  0  0
 11 12  1  0  0  0  0
 11 13  1  0  0  0  0
 12 15  1  0  0  0  0
 12 19  2  0  0  0  0
 13 14  1  0  0  0  0
 14 17  1  0  0  0  0
 14 20  2  0  0  0  0
 15 21  2  0  0  0  0
 16 18  2  0  0  0  0
 16 22  1  0  0  0  0
 17 24  2  0  0  0  0
 17 26  1  0  0  0  0
 18 21  1  0  0  0  0
 18 29  1  0  0  0  0
 19 20  1  0  0  0  0
 22 31  2  0  0  0  0
 22 32  1  0  0  0  0
 23 25  2  0  0  0  0
 23 27  1  0  0  0  0
 23 28  1  0  0  0  0
 24 25  1  0  0  0  0
 25 36  1  0  0  0  0
 26 28  2  0  0  0  0
 27 33  2  0  0  0  0
 27 39  1  0  0  0  0
 29 40  1  0  0  0  0
 30 34  2  0  0  0  0
 30 35  1  0  0  0  0
 31 34  1  0  0  0  0
 32 35  2  0  0  0  0
 33 41  1  0  0  0  0
 36 46  1  0  0  0  0
 37 42  2  0  0  0  0
 37 44  1  0  0  0  0
 38 43  2  0  0  0  0
 38 45  1  0  0  0  0
 39 48  1  0  0  0  0
 40 47  1  0  0  0  0
 42 49  1  0  0  0  0
 43 50  1  0  0  0  0
 44 51  2  0  0  0  0
 45 52  2  0  0  0  0
 47 55  1  0  0  0  0
 49 53  2  0  0  0  0
 50 54  2  0  0  0  0
 51 53  1  0  0  0  0
 52 54  1  0  0  0  0
 55 56  1  0  0  0  0
 56 57  1  0  0  0  0
 57 58  1  0  0  0  0
 58 59  1  0  0  0  0
M  END
> <PUBCHEM_COMPOUND_ID_TYPE>
0

> <PUBCHEM_TOTAL_CHARGE>
0

> <PUBCHEM_SUBSTANCE_ID>
310934091

> <PUBCHEM_SUBSTANCE_VERSION>
1

> <PUBCHEM_EXT_DATASOURCE_NAME>
4488

> <PUBCHEM_EXT_DATASOURCE_REGID>
SCHEMBL16111537

> <PUBCHEM_SUBSTANCE_COMMENT>
InChI=1S/C49H49N4O3PS2/c1-4-7-8-9-10-13-18-37-32-46(58-49(37)35-23-26-40(27-24-35)53(38-19-14-11-15-20-38)39-21-16-12-17-22-39)44-30-29-43(47-48(44)52-59-51-47)36-25-28-42(34(5-2)31-36)41(6-3)45(33-50)57(54,55)56/h11-12,14-17,19-32H,4-10,13,18H2,1-3H3,(H2,54,55,56)
InChIKey=NANYJGBMWBHSJB-UHFFFAOYSA-N

> <PUBCHEM_SUBSTANCE_SYNONYM>
SCHEMBL16111537

> <PUBCHEM_XREF_EXT_ID>
SCHEMBL16111537

> <PUBCHEM_EXT_DATASOURCE_URL>
https://www.surechembl.org/

> <PUBCHEM_EXT_SUBSTANCE_URL>
https://www.surechembl.org/chemical/SCHEMBL16111537

> <PUBCHEM_CID_ASSOCIATIONS>
117602376  1

> <PUBCHEM_COORDINATE_TYPE>
1
3

> <PUBCHEM_BONDANNOTATIONS>
27  23  3

$$$$
