310941300
  -OEChem-07211613022D

 65 67  0     1  0  0  0  0  0999 V2000
    2.1396   -2.0650    0.0000 P   0  0  3  0  0  0  0  0  0  0  0  0
   -5.0754    1.2522    0.0000 O   0  0  0  0  0  0  0  0  0  0  0  0
    2.1396   -1.2356    0.0000 O   0  0  0  0  0  0  0  0  0  0  0  0
   -5.7886    1.6669    0.0000 O   0  0  0  0  0  0  0  0  0  0  0  0
   -2.9191   -0.8210    0.0000 O   0  0  0  0  0  0  0  0  0  0  0  0
   -0.7630    1.2522    0.0000 O   0  0  0  0  0  0  0  0  0  0  0  0
    2.8528   -1.6503    0.0000 O   0  0  0  0  0  0  0  0  0  0  0  0
    1.4264   -0.8210    0.0000 O   0  0  0  0  0  0  0  0  0  0  0  0
    1.3103   -2.0650    0.0000 O   0  0  0  0  0  0  0  0  0  0  0  0
    2.7202   -2.6455    0.0000 O   0  0  0  0  0  0  0  0  0  0  0  0
    3.5826    1.2522    0.0000 O   0  0  0  0  0  0  0  0  0  0  0  0
   -7.9448    2.9109    0.0000 O   0  0  0  0  0  0  0  0  0  0  0  0
  -10.1010    2.4962    0.0000 O   0  0  0  0  0  0  0  0  0  0  0  0
   -6.5184    0.4229    0.0000 N   0  0  0  0  0  0  0  0  0  0  0  0
   -4.3456    0.0082    0.0000 N   0  0  0  0  0  0  0  0  0  0  0  0
   -2.1893    0.4229    0.0000 N   0  0  0  0  0  0  0  0  0  0  0  0
   -0.0332    0.0082    0.0000 N   0  0  0  0  0  0  0  0  0  0  0  0
    2.1396    0.4229    0.0000 N   0  0  0  0  0  0  0  0  0  0  0  0
   -0.6800   -2.0650    0.0000 N   0  0  0  0  0  0  0  0  0  0  0  0
    0.5474   -1.5176    0.0000 N   0  0  0  0  0  0  0  0  0  0  0  0
    4.2958    0.0082    0.0000 N   0  0  0  0  0  0  0  0  0  0  0  0
   -5.7720    0.0414    0.0000 C   0  0  3  0  0  0  0  0  0  0  0  0
   -5.0754    0.4561    0.0000 C   0  0  0  0  0  0  0  0  0  0  0  0
   -6.5184    1.2854    0.0000 C   0  0  0  0  0  0  0  0  0  0  0  0
   -3.6323    0.4561    0.0000 C   0  0  3  0  0  0  0  0  0  0  0  0
   -5.9544   -0.7878    0.0000 C   0  0  0  0  0  0  0  0  0  0  0  0
   -7.1155   -0.1409    0.0000 C   0  0  0  0  0  0  0  0  0  0  0  0
   -2.9025    0.0580    0.0000 C   0  0  0  0  0  0  0  0  0  0  0  0
   -1.4596    0.0414    0.0000 C   0  0  3  0  0  0  0  0  0  0  0  0
   -6.7838   -0.8542    0.0000 C   0  0  0  0  0  0  0  0  0  0  0  0
   -0.7630    0.4561    0.0000 C   0  0  0  0  0  0  0  0  0  0  0  0
    2.8694    0.0248    0.0000 C   0  0  3  0  0  0  0  0  0  0  0  0
   -3.6158    1.2854    0.0000 C   0  0  0  0  0  0  0  0  0  0  0  0
    2.8694   -0.7878    0.0000 C   0  0  3  0  0  0  0  0  0  0  0  0
    0.6966    0.4561    0.0000 C   0  0  3  0  0  0  0  0  0  0  0  0
    1.4430    0.0580    0.0000 C   0  0  0  0  0  0  0  0  0  0  0  0
   -1.4762   -0.8210    0.0000 C   0  0  0  0  0  0  0  0  0  0  0  0
   -7.2150    1.7001    0.0000 C   0  0  0  0  0  0  0  0  0  0  0  0
   -0.7464   -1.2191    0.0000 C   0  0  0  0  0  0  0  0  0  0  0  0
    3.5826    0.4561    0.0000 C   0  0  0  0  0  0  0  0  0  0  0  0
   -2.9191    1.7001    0.0000 C   0  0  0  0  0  0  0  0  0  0  0  0
   -7.2150    2.5128    0.0000 C   0  0  0  0  0  0  0  0  0  0  0  0
    0.0000   -0.8707    0.0000 C   0  0  0  0  0  0  0  0  0  0  0  0
    3.5826   -1.2025    0.0000 C   0  0  0  0  0  0  0  0  0  0  0  0
    0.7132    1.2688    0.0000 C   0  0  0  0  0  0  0  0  0  0  0  0
    0.1493   -2.2142    0.0000 C   0  0  0  0  0  0  0  0  0  0  0  0
   -2.9191    2.5294    0.0000 C   0  0  0  0  0  0  0  0  0  0  0  0
   -2.0898    1.4845    0.0000 C   0  0  0  0  0  0  0  0  0  0  0  0
    3.6821   -1.8991    0.0000 C   0  0  0  0  0  0  0  0  0  0  0  0
    4.3787   -1.4845    0.0000 C   0  0  0  0  0  0  0  0  0  0  0  0
   -8.6414    2.5294    0.0000 C   0  0  0  0  0  0  0  0  0  0  0  0
    5.1251   -1.8991    0.0000 C   0  0  0  0  0  0  0  0  0  0  0  0
   -9.3712    2.9440    0.0000 C   0  0  0  0  0  0  0  0  0  0  0  0
    5.8218   -1.4845    0.0000 C   0  0  0  0  0  0  0  0  0  0  0  0
    6.5350   -1.9986    0.0000 C   0  0  0  0  0  0  0  0  0  0  0  0
    7.2150   -1.6005    0.0000 C   0  0  0  0  0  0  0  0  0  0  0  0
    9.3546   -1.9820    0.0000 C   0  0  0  0  0  0  0  0  0  0  0  0
  -10.8142    2.9440    0.0000 C   0  0  0  0  0  0  0  0  0  0  0  0
    7.9780   -1.9986    0.0000 C   0  0  0  0  0  0  0  0  0  0  0  0
    8.6745   -1.5840    0.0000 C   0  0  0  0  0  0  0  0  0  0  0  0
    9.3546   -2.7948    0.0000 C   0  0  0  0  0  0  0  0  0  0  0  0
   10.1175   -1.6171    0.0000 C   0  0  0  0  0  0  0  0  0  0  0  0
   10.0346   -3.2592    0.0000 C   0  0  0  0  0  0  0  0  0  0  0  0
   10.8142   -2.0484    0.0000 C   0  0  0  0  0  0  0  0  0  0  0  0
   10.7810   -2.9109    0.0000 C   0  0  0  0  0  0  0  0  0  0  0  0
  1  3  1  0  0  0  0
  1  7  1  0  0  0  0
  1  9  2  0  0  0  0
  1 10  1  0  0  0  0
  2 23  2  0  0  0  0
  3 34  1  0  0  0  0
  4 24  2  0  0  0  0
  5 28  2  0  0  0  0
  6 31  2  0  0  0  0
  7 49  1  0  0  0  0
  8 36  2  0  0  0  0
 11 40  2  0  0  0  0
 12 42  1  0  0  0  0
 12 51  1  0  0  0  0
 13 53  1  0  0  0  0
 13 58  1  0  0  0  0
 14 22  1  0  0  0  0
 14 24  1  0  0  0  0
 14 27  1  0  0  0  0
 15 23  1  0  0  0  0
 25 15  1  1  0  0  0
 16 28  1  0  0  0  0
 29 16  1  6  0  0  0
 17 31  1  0  0  0  0
 17 35  1  0  0  0  0
 32 18  1  6  0  0  0
 18 36  1  0  0  0  0
 19 39  1  0  0  0  0
 19 46  1  0  0  0  0
 20 43  1  0  0  0  0
 20 46  2  0  0  0  0
 21 40  1  0  0  0  0
 22 23  1  6  0  0  0
 22 26  1  0  0  0  0
 24 38  1  0  0  0  0
 25 28  1  0  0  0  0
 25 33  1  0  0  0  0
 26 30  1  0  0  0  0
 27 30  1  0  0  0  0
 29 31  1  0  0  0  0
 29 37  1  0  0  0  0
 32 34  1  0  0  0  0
 32 40  1  0  0  0  0
 33 41  1  0  0  0  0
 34 44  1  1  0  0  0
 35 36  1  0  0  0  0
 35 45  1  1  0  0  0
 37 39  1  0  0  0  0
 38 42  1  0  0  0  0
 39 43  2  0  0  0  0
 41 47  1  0  0  0  0
 41 48  1  0  0  0  0
 49 50  1  0  0  0  0
 50 52  1  0  0  0  0
 51 53  1  0  0  0  0
 52 54  1  0  0  0  0
 54 55  1  0  0  0  0
 55 56  1  0  0  0  0
 56 59  1  0  0  0  0
 57 60  1  0  0  0  0
 57 61  2  0  0  0  0
 57 62  1  0  0  0  0
 59 60  1  0  0  0  0
 61 63  1  0  0  0  0
 62 64  2  0  0  0  0
 63 65  2  0  0  0  0
 64 65  1  0  0  0  0
M  END
> <PUBCHEM_COMPOUND_ID_TYPE>
0

> <PUBCHEM_TOTAL_CHARGE>
0

> <PUBCHEM_SUBSTANCE_ID>
310941300

> <PUBCHEM_SUBSTANCE_VERSION>
1

> <PUBCHEM_EXT_DATASOURCE_NAME>
4488

> <PUBCHEM_EXT_DATASOURCE_REGID>
SCHEMBL16119260

> <PUBCHEM_SUBSTANCE_COMMENT>
InChI=1S/C44H71N8O12P/c1-30(2)26-35(50-44(58)37-19-15-21-52(37)38(53)20-23-62-25-24-61-5)43(57)49-36(27-34-28-46-29-47-34)42(56)48-31(3)41(55)51-39(40(45)54)32(4)64-65(59,60)63-22-14-9-7-6-8-11-16-33-17-12-10-13-18-33/h10,12-13,17-18,28-32,35-37,39H,6-9,11,14-16,19-27H2,1-5H3,(H2,45,54)(H,46,47)(H,48,56)(H,49,57)(H,50,58)(H,51,55)(H,59,60)/t31-,32+,35-,36-,37-,39-/m0/s1
InChIKey=ULSHJDAVDVVIHA-HFYKWTHUSA-N

> <PUBCHEM_SUBSTANCE_SYNONYM>
SCHEMBL16119260

> <PUBCHEM_XREF_EXT_ID>
SCHEMBL16119260

> <PUBCHEM_EXT_DATASOURCE_URL>
https://www.surechembl.org/

> <PUBCHEM_EXT_SUBSTANCE_URL>
https://www.surechembl.org/chemical/SCHEMBL16119260

> <PUBCHEM_CID_ASSOCIATIONS>
117608149  1

> <PUBCHEM_COORDINATE_TYPE>
1
3

> <PUBCHEM_BONDANNOTATIONS>
25  15  5
29  16  6
32  18  6
22  23  6
34  44  5
35  45  5

$$$$
