310943618
  -OEChem-07211613022D

 36 39  0     0  0  0  0  0  0999 V2000
    4.3383    2.1361    0.0000 F   0  0  0  0  0  0  0  0  0  0  0  0
    5.4105    1.8228    0.0000 F   0  0  0  0  0  0  0  0  0  0  0  0
    5.0805    0.7505    0.0000 F   0  0  0  0  0  0  0  0  0  0  0  0
    1.8145    2.2681    0.0000 O   0  0  0  0  0  0  0  0  0  0  0  0
   -5.4105    2.2681    0.0000 O   0  0  0  0  0  0  0  0  0  0  0  0
   -1.0721   -2.6805    0.0000 O   0  0  0  0  0  0  0  0  0  0  0  0
   -3.9589    1.4269    0.0000 N   0  0  0  0  0  0  0  0  0  0  0  0
   -3.2331    0.1897    0.0000 N   0  0  0  0  0  0  0  0  0  0  0  0
    1.1052    1.0145    0.0000 N   0  0  0  0  0  0  0  0  0  0  0  0
    3.9918    0.1897    0.0000 N   0  0  0  0  0  0  0  0  0  0  0  0
   -2.5073   -1.0309    0.0000 N   0  0  0  0  0  0  0  0  0  0  0  0
    3.2661   -0.2227    0.0000 N   0  0  0  0  0  0  0  0  0  0  0  0
   -1.0721    1.4433    0.0000 C   0  0  0  0  0  0  0  0  0  0  0  0
   -1.7815    1.0309    0.0000 C   0  0  0  0  0  0  0  0  0  0  0  0
   -3.2331    1.0309    0.0000 C   0  0  0  0  0  0  0  0  0  0  0  0
   -2.5073    1.4433    0.0000 C   0  0  0  0  0  0  0  0  0  0  0  0
   -1.0557    2.2681    0.0000 C   0  0  0  0  0  0  0  0  0  0  0  0
    0.3629    1.4598    0.0000 C   0  0  0  0  0  0  0  0  0  0  0  0
   -0.3300    1.0474    0.0000 C   0  0  0  0  0  0  0  0  0  0  0  0
   -1.7981    0.1897    0.0000 C   0  0  0  0  0  0  0  0  0  0  0  0
   -2.5073   -0.2062    0.0000 C   0  0  0  0  0  0  0  0  0  0  0  0
    2.5403    1.0309    0.0000 C   0  0  0  0  0  0  0  0  0  0  0  0
    3.9918    1.0309    0.0000 C   0  0  0  0  0  0  0  0  0  0  0  0
    1.7981    1.4269    0.0000 C   0  0  0  0  0  0  0  0  0  0  0  0
    4.7011    1.4433    0.0000 C   0  0  0  0  0  0  0  0  0  0  0  0
    3.2496    1.4269    0.0000 C   0  0  0  0  0  0  0  0  0  0  0  0
   -0.3464    2.6640    0.0000 C   0  0  0  0  0  0  0  0  0  0  0  0
    0.3629    2.2681    0.0000 C   0  0  0  0  0  0  0  0  0  0  0  0
    2.5403    0.2062    0.0000 C   0  0  0  0  0  0  0  0  0  0  0  0
   -3.9589    2.2681    0.0000 C   0  0  0  0  0  0  0  0  0  0  0  0
   -4.6516    1.0309    0.0000 C   0  0  0  0  0  0  0  0  0  0  0  0
   -1.7981    2.6640    0.0000 C   0  0  0  0  0  0  0  0  0  0  0  0
   -4.6846    2.6805    0.0000 C   0  0  0  0  0  0  0  0  0  0  0  0
   -5.3940    1.4433    0.0000 C   0  0  0  0  0  0  0  0  0  0  0  0
   -1.7815   -1.4433    0.0000 C   0  0  0  0  0  0  0  0  0  0  0  0
   -1.7815   -2.2681    0.0000 C   0  0  0  0  0  0  0  0  0  0  0  0
  1 25  1  0  0  0  0
  2 25  1  0  0  0  0
  3 25  1  0  0  0  0
  4 24  2  0  0  0  0
  5 33  1  0  0  0  0
  5 34  1  0  0  0  0
  6 36  1  0  0  0  0
  7 15  1  0  0  0  0
  7 30  1  0  0  0  0
  7 31  1  0  0  0  0
  8 15  2  0  0  0  0
  8 21  1  0  0  0  0
  9 18  1  0  0  0  0
  9 24  1  0  0  0  0
 10 12  2  0  0  0  0
 10 23  1  0  0  0  0
 11 21  1  0  0  0  0
 11 35  1  0  0  0  0
 12 29  1  0  0  0  0
 13 14  1  0  0  0  0
 13 17  1  0  0  0  0
 13 19  2  0  0  0  0
 14 16  2  0  0  0  0
 14 20  1  0  0  0  0
 15 16  1  0  0  0  0
 17 27  2  0  0  0  0
 17 32  1  0  0  0  0
 18 19  1  0  0  0  0
 18 28  2  0  0  0  0
 20 21  2  0  0  0  0
 22 24  1  0  0  0  0
 22 26  1  0  0  0  0
 22 29  2  0  0  0  0
 23 25  1  0  0  0  0
 23 26  2  0  0  0  0
 27 28  1  0  0  0  0
 30 33  1  0  0  0  0
 31 34  1  0  0  0  0
 35 36  1  0  0  0  0
M  END
> <PUBCHEM_COMPOUND_ID_TYPE>
0

> <PUBCHEM_TOTAL_CHARGE>
0

> <PUBCHEM_SUBSTANCE_ID>
310943618

> <PUBCHEM_SUBSTANCE_VERSION>
1

> <PUBCHEM_EXT_DATASOURCE_NAME>
4488

> <PUBCHEM_EXT_DATASOURCE_REGID>
SCHEMBL16121686

> <PUBCHEM_SUBSTANCE_COMMENT>
InChI=1S/C24H25F3N6O3/c1-15-2-3-18(30-23(35)17-10-20(24(25,26)27)32-29-14-17)13-19(15)16-11-21(28-4-7-34)31-22(12-16)33-5-8-36-9-6-33/h2-3,10-14,34H,4-9H2,1H3,(H,28,31)(H,30,35)
InChIKey=XNRCMJSJCGGCPC-UHFFFAOYSA-N

> <PUBCHEM_SUBSTANCE_SYNONYM>
SCHEMBL16121686

> <PUBCHEM_XREF_EXT_ID>
SCHEMBL16121686

> <PUBCHEM_EXT_DATASOURCE_URL>
https://www.surechembl.org/

> <PUBCHEM_EXT_SUBSTANCE_URL>
https://www.surechembl.org/chemical/SCHEMBL16121686

> <PUBCHEM_CID_ASSOCIATIONS>
117610009  1

> <PUBCHEM_COORDINATE_TYPE>
1
3

$$$$
