310943501
  -OEChem-07211613022D

 35 38  0     0  0  0  0  0  0999 V2000
   -4.3071   -1.0655    0.0000 O   0  0  0  0  0  0  0  0  0  0  0  0
   -5.7580    1.4886    0.0000 O   0  0  0  0  0  0  0  0  0  0  0  0
    1.6321    1.5490    0.0000 O   0  0  0  0  0  0  0  0  0  0  0  0
   -2.8714   -1.0805    0.0000 N   0  0  0  0  0  0  0  0  0  0  0  0
   -4.3222    0.6574    0.0000 N   0  0  0  0  0  0  0  0  0  0  0  0
    0.8312    0.2343    0.0000 N   0  0  0  0  0  0  0  0  0  0  0  0
    2.3576   -0.5063    0.0000 N   0  0  0  0  0  0  0  0  0  0  0  0
    5.7580   -0.3401    0.0000 N   0  0  0  0  0  0  0  0  0  0  0  0
   -2.1460    0.1738    0.0000 C   0  0  0  0  0  0  0  0  0  0  0  0
   -3.5817    0.1738    0.0000 C   0  0  0  0  0  0  0  0  0  0  0  0
   -1.3148    0.6574    0.0000 C   0  0  0  0  0  0  0  0  0  0  0  0
   -3.5817   -0.6423    0.0000 C   0  0  0  0  0  0  0  0  0  0  0  0
   -2.9017    0.5819    0.0000 C   0  0  0  0  0  0  0  0  0  0  0  0
   -2.1611   -0.6574    0.0000 C   0  0  0  0  0  0  0  0  0  0  0  0
   -1.3148    1.4886    0.0000 C   0  0  0  0  0  0  0  0  0  0  0  0
   -0.6045    0.2494    0.0000 C   0  0  0  0  0  0  0  0  0  0  0  0
    0.1058    0.6725    0.0000 C   0  0  0  0  0  0  0  0  0  0  0  0
    2.3576    0.3401    0.0000 C   0  0  0  0  0  0  0  0  0  0  0  0
    3.7933    0.3250    0.0000 C   0  0  0  0  0  0  0  0  0  0  0  0
    1.6321    0.7179    0.0000 C   0  0  0  0  0  0  0  0  0  0  0  0
   -0.6045    1.8815    0.0000 C   0  0  0  0  0  0  0  0  0  0  0  0
    4.4583    0.6877    0.0000 C   0  0  0  0  0  0  0  0  0  0  0  0
    0.1058    1.4735    0.0000 C   0  0  0  0  0  0  0  0  0  0  0  0
    3.0527    0.7329    0.0000 C   0  0  0  0  0  0  0  0  0  0  0  0
   -4.3222    1.4886    0.0000 C   0  0  0  0  0  0  0  0  0  0  0  0
   -5.0174    0.2645    0.0000 C   0  0  0  0  0  0  0  0  0  0  0  0
   -2.8563   -1.9117    0.0000 C   0  0  0  0  0  0  0  0  0  0  0  0
    3.7781   -0.5063    0.0000 C   0  0  0  0  0  0  0  0  0  0  0  0
   -2.0251    1.9117    0.0000 C   0  0  0  0  0  0  0  0  0  0  0  0
    3.0981   -0.9143    0.0000 C   0  0  0  0  0  0  0  0  0  0  0  0
   -5.0628    1.8966    0.0000 C   0  0  0  0  0  0  0  0  0  0  0  0
   -5.7428    0.6574    0.0000 C   0  0  0  0  0  0  0  0  0  0  0  0
    5.1232    0.1587    0.0000 C   0  0  0  0  0  0  0  0  0  0  0  0
    3.9898    1.3375    0.0000 C   0  0  0  0  0  0  0  0  0  0  0  0
    4.8059    1.4282    0.0000 C   0  0  0  0  0  0  0  0  0  0  0  0
  1 12  2  0  0  0  0
  2 31  1  0  0  0  0
  2 32  1  0  0  0  0
  3 20  2  0  0  0  0
  4 12  1  0  0  0  0
  4 14  1  0  0  0  0
  4 27  1  0  0  0  0
  5 10  1  0  0  0  0
  5 25  1  0  0  0  0
  5 26  1  0  0  0  0
  6 17  1  0  0  0  0
  6 20  1  0  0  0  0
  7 18  2  0  0  0  0
  7 30  1  0  0  0  0
  8 33  3  0  0  0  0
  9 11  1  0  0  0  0
  9 13  1  0  0  0  0
  9 14  2  0  0  0  0
 10 12  1  0  0  0  0
 10 13  2  0  0  0  0
 11 15  1  0  0  0  0
 11 16  2  0  0  0  0
 15 21  2  0  0  0  0
 15 29  1  0  0  0  0
 16 17  1  0  0  0  0
 17 23  2  0  0  0  0
 18 20  1  0  0  0  0
 18 24  1  0  0  0  0
 19 22  1  0  0  0  0
 19 24  2  0  0  0  0
 19 28  1  0  0  0  0
 21 23  1  0  0  0  0
 22 33  1  0  0  0  0
 22 34  1  0  0  0  0
 22 35  1  0  0  0  0
 25 31  1  0  0  0  0
 26 32  1  0  0  0  0
 28 30  2  0  0  0  0
M  END
> <PUBCHEM_COMPOUND_ID_TYPE>
0

> <PUBCHEM_TOTAL_CHARGE>
0

> <PUBCHEM_SUBSTANCE_ID>
310943501

> <PUBCHEM_SUBSTANCE_VERSION>
1

> <PUBCHEM_EXT_DATASOURCE_NAME>
4488

> <PUBCHEM_EXT_DATASOURCE_REGID>
SCHEMBL16121567

> <PUBCHEM_SUBSTANCE_COMMENT>
InChI=1S/C27H29N5O3/c1-18-5-6-21(30-25(33)23-14-20(7-8-29-23)27(2,3)17-28)15-22(18)19-13-24(26(34)31(4)16-19)32-9-11-35-12-10-32/h5-8,13-16H,9-12H2,1-4H3,(H,30,33)
InChIKey=ZTTNUMIPEUTZCZ-UHFFFAOYSA-N

> <PUBCHEM_SUBSTANCE_SYNONYM>
SCHEMBL16121567

> <PUBCHEM_XREF_EXT_ID>
SCHEMBL16121567

> <PUBCHEM_EXT_DATASOURCE_URL>
https://www.surechembl.org/

> <PUBCHEM_EXT_SUBSTANCE_URL>
https://www.surechembl.org/chemical/SCHEMBL16121567

> <PUBCHEM_CID_ASSOCIATIONS>
117609920  1

> <PUBCHEM_COORDINATE_TYPE>
1
3

$$$$
