310933973
  -OEChem-07211613022D

 16 17  0     0  0  0  0  0  0999 V2000
    3.7414   -2.8434    0.0000 Br  0  0  0  0  0  0  0  0  0  0  0  0
    1.6675   -2.1379    0.0000 O   0  0  0  0  0  0  0  0  0  0  0  0
    1.2613   -2.8648    0.0000 C   0  0  0  0  0  0  0  0  0  0  0  0
    1.6889   -3.5703    0.0000 C   0  0  0  0  0  0  0  0  0  0  0  0
    1.2400   -1.4110    0.0000 C   0  0  0  0  0  0  0  0  0  0  0  0
    0.4489   -2.8648    0.0000 C   0  0  0  0  0  0  0  0  0  0  0  0
    1.2613   -4.2758    0.0000 C   0  0  0  0  0  0  0  0  0  0  0  0
    2.5228   -3.5703    0.0000 C   0  0  0  0  0  0  0  0  0  0  0  0
    0.0000   -3.5703    0.0000 C   0  0  0  0  0  0  0  0  0  0  0  0
    0.4489   -4.2758    0.0000 C   0  0  0  0  0  0  0  0  0  0  0  0
    1.6462   -0.7055    0.0000 C   0  0  0  0  0  0  0  0  0  0  0  0
    0.4276   -1.4324    0.0000 C   0  0  0  0  0  0  0  0  0  0  0  0
    1.2186    0.0000    0.0000 C   0  0  0  0  0  0  0  0  0  0  0  0
    0.0000   -0.7269    0.0000 C   0  0  0  0  0  0  0  0  0  0  0  0
    0.4062    0.0000    0.0000 C   0  0  0  0  0  0  0  0  0  0  0  0
    2.9290   -2.8434    0.0000 C   0  0  0  0  0  0  0  0  0  0  0  0
  1 16  1  0  0  0  0
  2  3  1  0  0  0  0
  2  5  1  0  0  0  0
  3  4  1  0  0  0  0
  3  6  2  0  0  0  0
  4  7  2  0  0  0  0
  4  8  1  0  0  0  0
  5 11  2  0  0  0  0
  5 12  1  0  0  0  0
  6  9  1  0  0  0  0
  7 10  1  0  0  0  0
  8 16  1  0  0  0  0
  9 10  2  0  0  0  0
 11 13  1  0  0  0  0
 12 14  2  0  0  0  0
 13 15  2  0  0  0  0
 14 15  1  0  0  0  0
M  END
> <PUBCHEM_COMPOUND_ID_TYPE>
0

> <PUBCHEM_TOTAL_CHARGE>
0

> <PUBCHEM_SUBSTANCE_ID>
310933973

> <PUBCHEM_SUBSTANCE_VERSION>
1

> <PUBCHEM_EXT_DATASOURCE_NAME>
4488

> <PUBCHEM_EXT_DATASOURCE_REGID>
SCHEMBL16111413

> <PUBCHEM_SUBSTANCE_COMMENT>
InChI=1S/C14H13BrO/c15-11-10-12-6-4-5-9-14(12)16-13-7-2-1-3-8-13/h1-9H,10-11H2
InChIKey=IAQWJDPEFDAYHK-UHFFFAOYSA-N

> <PUBCHEM_SUBSTANCE_SYNONYM>
SCHEMBL16111413

> <PUBCHEM_XREF_EXT_ID>
SCHEMBL16111413

> <PUBCHEM_EXT_DATASOURCE_URL>
https://www.surechembl.org/

> <PUBCHEM_EXT_SUBSTANCE_URL>
https://www.surechembl.org/chemical/SCHEMBL16111413

> <PUBCHEM_CID_ASSOCIATIONS>
117602287  1

> <PUBCHEM_COORDINATE_TYPE>
1
3

$$$$
