310942264
  -OEChem-07211613022D

 30 31  0     1  0  0  0  0  0999 V2000
    2.1585    0.8297    0.0000 Cl  0  0  0  0  0  0  0  0  0  0  0  0
    0.7237   -1.6657    0.0000 F   0  0  0  0  0  0  0  0  0  0  0  0
    2.1461   -0.8297    0.0000 O   0  0  0  0  0  0  0  0  0  0  0  0
   -0.0125    2.0774    0.0000 O   0  0  0  0  0  0  0  0  0  0  0  0
   -1.4349   -0.4179    0.0000 N   0  0  0  0  0  0  0  0  0  0  0  0
   -1.4473    2.0774    0.0000 N   0  0  0  0  0  0  0  0  0  0  0  0
   -3.5934    1.6657    0.0000 N   0  0  0  0  0  0  0  0  0  0  0  0
   -0.0125   -0.4055    0.0000 C   0  0  0  0  0  0  0  0  0  0  0  0
    0.7237   -0.8172    0.0000 C   0  0  0  0  0  0  0  0  0  0  0  0
    1.4224   -0.4055    0.0000 C   0  0  0  0  0  0  0  0  0  0  0  0
    1.4349    0.4305    0.0000 C   0  0  0  0  0  0  0  0  0  0  0  0
   -0.7112   -0.8172    0.0000 C   0  0  3  0  0  0  0  0  0  0  0  0
    0.0250    0.4305    0.0000 C   0  0  0  0  0  0  0  0  0  0  0  0
    0.7237    0.8297    0.0000 C   0  0  0  0  0  0  0  0  0  0  0  0
    2.8697   -0.4055    0.0000 C   0  0  0  0  0  0  0  0  0  0  0  0
   -0.7237   -1.6657    0.0000 C   0  0  0  0  0  0  0  0  0  0  0  0
   -1.4349    0.4179    0.0000 C   0  0  3  0  0  0  0  0  0  0  0  0
    2.9071    0.4305    0.0000 C   0  0  0  0  0  0  0  0  0  0  0  0
    3.6058   -0.8297    0.0000 C   0  0  0  0  0  0  0  0  0  0  0  0
   -0.7237    0.8297    0.0000 C   0  0  0  0  0  0  0  0  0  0  0  0
    3.6058    0.8297    0.0000 C   0  0  0  0  0  0  0  0  0  0  0  0
    4.3170   -0.4179    0.0000 C   0  0  0  0  0  0  0  0  0  0  0  0
   -1.4099   -2.0774    0.0000 C   0  0  0  0  0  0  0  0  0  0  0  0
   -0.7237    1.6657    0.0000 C   0  0  0  0  0  0  0  0  0  0  0  0
    4.3170    0.4179    0.0000 C   0  0  0  0  0  0  0  0  0  0  0  0
   -2.1461    0.8172    0.0000 C   0  0  0  0  0  0  0  0  0  0  0  0
   -2.1461    1.6657    0.0000 C   0  0  0  0  0  0  0  0  0  0  0  0
   -2.8947    2.0774    0.0000 C   0  0  0  0  0  0  0  0  0  0  0  0
   -3.5934    0.8422    0.0000 C   0  0  0  0  0  0  0  0  0  0  0  0
   -4.3170    2.0774    0.0000 C   0  0  0  0  0  0  0  0  0  0  0  0
  1 11  1  0  0  0  0
  2  9  1  0  0  0  0
  3 10  1  0  0  0  0
  3 15  1  0  0  0  0
  4 24  2  0  0  0  0
 12  5  1  1  0  0  0
  5 17  1  0  0  0  0
  6 24  1  0  0  0  0
  6 27  1  0  0  0  0
  7 28  1  0  0  0  0
  7 29  1  0  0  0  0
  7 30  1  0  0  0  0
  8  9  2  0  0  0  0
  8 12  1  0  0  0  0
  8 13  1  0  0  0  0
  9 10  1  0  0  0  0
 10 11  2  0  0  0  0
 11 14  1  0  0  0  0
 12 16  1  0  0  0  0
 13 14  2  0  0  0  0
 15 18  2  0  0  0  0
 15 19  1  0  0  0  0
 16 23  1  0  0  0  0
 17 20  1  0  0  0  0
 17 26  1  6  0  0  0
 18 21  1  0  0  0  0
 19 22  2  0  0  0  0
 20 24  1  0  0  0  0
 21 25  2  0  0  0  0
 22 25  1  0  0  0  0
 27 28  1  0  0  0  0
M  END
> <PUBCHEM_COMPOUND_ID_TYPE>
0

> <PUBCHEM_TOTAL_CHARGE>
0

> <PUBCHEM_SUBSTANCE_ID>
310942264

> <PUBCHEM_SUBSTANCE_VERSION>
1

> <PUBCHEM_EXT_DATASOURCE_NAME>
4488

> <PUBCHEM_EXT_DATASOURCE_REGID>
SCHEMBL16120299

> <PUBCHEM_SUBSTANCE_COMMENT>
InChI=1S/C23H31ClFN3O2/c1-5-20(27-16(2)15-21(29)26-13-14-28(3)4)18-11-12-19(24)23(22(18)25)30-17-9-7-6-8-10-17/h6-12,16,20,27H,5,13-15H2,1-4H3,(H,26,29)/t16-,20-/m1/s1
InChIKey=MBAAHLOZWIXATF-OXQOHEQNSA-N

> <PUBCHEM_SUBSTANCE_SYNONYM>
SCHEMBL16120299

> <PUBCHEM_XREF_EXT_ID>
SCHEMBL16120299

> <PUBCHEM_EXT_DATASOURCE_URL>
https://www.surechembl.org/

> <PUBCHEM_EXT_SUBSTANCE_URL>
https://www.surechembl.org/chemical/SCHEMBL16120299

> <PUBCHEM_CID_ASSOCIATIONS>
117608914  1

> <PUBCHEM_COORDINATE_TYPE>
1
3

> <PUBCHEM_BONDANNOTATIONS>
17  26  6
12  5  5

$$$$
