310942498
  -OEChem-07211613022D

 48 52  0     1  0  0  0  0  0999 V2000
   -1.0694    0.4791    0.0000 F   0  0  0  0  0  0  0  0  0  0  0  0
    2.7082   -3.8262    0.0000 F   0  0  0  0  0  0  0  0  0  0  0  0
   -1.8055   -0.2847    0.0000 O   0  0  0  0  0  0  0  0  0  0  0  0
   -1.7916    0.1875    0.0000 O   0  0  0  0  0  0  0  0  0  0  0  0
   -3.9026   -1.8124    0.0000 O   0  0  0  0  0  0  0  0  0  0  0  0
    0.3750   -0.0069    0.0000 O   0  0  0  0  0  0  0  0  0  0  0  0
   -2.5415   -1.0903    0.0000 N   0  0  0  0  0  0  0  0  0  0  0  0
   -0.6388   -1.1319    0.0000 N   0  0  0  0  0  0  0  0  0  0  0  0
    1.4999   -0.7569    0.0000 N   0  0  0  0  0  0  0  0  0  0  0  0
    1.5972    1.4374    0.0000 N   0  0  0  0  0  0  0  0  0  0  0  0
    0.5277    0.6597    0.0000 N   0  0  0  0  0  0  0  0  0  0  0  0
    3.7498   -2.5346    0.0000 N   0  0  0  0  0  0  0  0  0  0  0  0
   -1.9721   -1.7013    0.0000 C   0  0  0  0  0  0  0  0  0  0  0  0
   -2.3193   -2.4096    0.0000 C   0  0  0  0  0  0  0  0  0  0  0  0
   -1.5416   -2.3540    0.0000 C   0  0  0  0  0  0  0  0  0  0  0  0
   -1.4722   -1.0347    0.0000 C   0  0  0  0  0  0  0  0  0  0  0  0
   -3.4860   -1.0625    0.0000 C   0  0  0  0  0  0  0  0  0  0  0  0
   -2.5276   -0.2291    0.0000 C   0  0  0  0  0  0  0  0  0  0  0  0
    1.8332    0.0069    0.0000 C   0  0  3  0  0  0  0  0  0  0  0  0
    1.3472    0.6597    0.0000 C   0  0  0  0  0  0  0  0  0  0  0  0
   -3.8054   -0.3541    0.0000 C   0  0  0  0  0  0  0  0  0  0  0  0
   -3.2082    0.1875    0.0000 C   0  0  0  0  0  0  0  0  0  0  0  0
    2.6526   -0.1319    0.0000 C   0  0  0  0  0  0  0  0  0  0  0  0
    0.2639    1.4374    0.0000 C   0  0  0  0  0  0  0  0  0  0  0  0
    0.6944   -0.6319    0.0000 C   0  0  0  0  0  0  0  0  0  0  0  0
    0.1667   -1.2708    0.0000 C   0  0  0  0  0  0  0  0  0  0  0  0
    0.9166    1.9235    0.0000 C   0  0  0  0  0  0  0  0  0  0  0  0
   -0.5000    1.7985    0.0000 C   0  0  0  0  0  0  0  0  0  0  0  0
    2.4165    1.5485    0.0000 C   0  0  0  0  0  0  0  0  0  0  0  0
    1.8055   -1.5208    0.0000 C   0  0  0  0  0  0  0  0  0  0  0  0
   -1.1666    1.2986    0.0000 C   0  0  0  0  0  0  0  0  0  0  0  0
   -0.5833    2.6179    0.0000 C   0  0  0  0  0  0  0  0  0  0  0  0
    2.3471   -0.8958    0.0000 C   0  0  0  0  0  0  0  0  0  0  0  0
    2.9721   -0.8958    0.0000 C   0  0  0  0  0  0  0  0  0  0  0  0
    3.1665    0.5347    0.0000 C   0  0  0  0  0  0  0  0  0  0  0  0
    2.7498    2.3124    0.0000 C   0  0  0  0  0  0  0  0  0  0  0  0
   -1.3472    2.9652    0.0000 C   0  0  0  0  0  0  0  0  0  0  0  0
   -1.9166    1.6458    0.0000 C   0  0  0  0  0  0  0  0  0  0  0  0
    2.6387   -1.6458    0.0000 C   0  0  0  0  0  0  0  0  0  0  0  0
   -1.9999    2.4651    0.0000 C   0  0  0  0  0  0  0  0  0  0  0  0
    3.5832    2.4096    0.0000 C   0  0  0  0  0  0  0  0  0  0  0  0
    2.2776    2.9652    0.0000 C   0  0  0  0  0  0  0  0  0  0  0  0
    2.9304   -2.3957    0.0000 C   0  0  3  0  0  0  0  0  0  0  0  0
   -1.4305    3.5346    0.0000 C   0  0  0  0  0  0  0  0  0  0  0  0
    3.9026    3.1596    0.0000 C   0  0  0  0  0  0  0  0  0  0  0  0
    2.5971    3.7290    0.0000 C   0  0  0  0  0  0  0  0  0  0  0  0
    3.4165    3.8262    0.0000 C   0  0  0  0  0  0  0  0  0  0  0  0
    2.4026   -3.0485    0.0000 C   0  0  0  0  0  0  0  0  0  0  0  0
  1 31  1  0  0  0  0
  2 48  1  0  0  0  0
  3 16  2  0  0  0  0
  4 18  2  0  0  0  0
  5 17  2  0  0  0  0
  6 25  2  0  0  0  0
  7 13  1  0  0  0  0
  7 17  1  0  0  0  0
  7 18  1  0  0  0  0
  8 16  1  0  0  0  0
  8 26  1  0  0  0  0
 19  9  1  1  0  0  0
  9 25  1  0  0  0  0
  9 30  1  0  0  0  0
 10 20  1  0  0  0  0
 10 27  1  0  0  0  0
 10 29  1  0  0  0  0
 11 20  2  0  0  0  0
 11 24  1  0  0  0  0
 43 12  1  6  0  0  0
 13 14  1  0  0  0  0
 13 15  1  0  0  0  0
 13 16  1  0  0  0  0
 14 15  1  0  0  0  0
 17 21  1  0  0  0  0
 18 22  1  0  0  0  0
 19 20  1  0  0  0  0
 19 23  1  0  0  0  0
 21 22  2  0  0  0  0
 23 33  1  0  0  0  0
 23 34  1  0  0  0  0
 23 35  1  0  0  0  0
 24 27  2  0  0  0  0
 24 28  1  0  0  0  0
 25 26  1  0  0  0  0
 28 31  1  0  0  0  0
 28 32  2  0  0  0  0
 29 36  1  0  0  0  0
 30 39  1  0  0  0  0
 31 38  2  0  0  0  0
 32 37  1  0  0  0  0
 36 41  2  0  0  0  0
 36 42  1  0  0  0  0
 37 40  2  0  0  0  0
 37 44  1  0  0  0  0
 38 40  1  0  0  0  0
 39 43  1  0  0  0  0
 41 45  1  0  0  0  0
 42 46  2  0  0  0  0
 43 48  1  0  0  0  0
 45 47  2  0  0  0  0
 46 47  1  0  0  0  0
M  END
> <PUBCHEM_COMPOUND_ID_TYPE>
0

> <PUBCHEM_TOTAL_CHARGE>
0

> <PUBCHEM_SUBSTANCE_ID>
310942498

> <PUBCHEM_SUBSTANCE_VERSION>
1

> <PUBCHEM_EXT_DATASOURCE_NAME>
4488

> <PUBCHEM_EXT_DATASOURCE_REGID>
SCHEMBL16120534

> <PUBCHEM_SUBSTANCE_COMMENT>
InChI=1S/C36H42F2N6O4/c1-23-10-11-27(38)26(18-23)28-22-42(21-24-8-6-5-7-9-24)33(41-28)32(35(2,3)4)43(17-14-25(39)19-37)31(47)20-40-34(48)36(15-16-36)44-29(45)12-13-30(44)46/h5-13,18,22,25,32H,14-17,19-21,39H2,1-4H3,(H,40,48)/t25-,32-/m0/s1
InChIKey=WTSAXQZAOFUBTG-UKJJDJLKSA-N

> <PUBCHEM_SUBSTANCE_SYNONYM>
SCHEMBL16120534

> <PUBCHEM_XREF_EXT_ID>
SCHEMBL16120534

> <PUBCHEM_EXT_DATASOURCE_URL>
https://www.surechembl.org/

> <PUBCHEM_EXT_SUBSTANCE_URL>
https://www.surechembl.org/chemical/SCHEMBL16120534

> <PUBCHEM_CID_ASSOCIATIONS>
117609068  1

> <PUBCHEM_COORDINATE_TYPE>
1
3

> <PUBCHEM_BONDANNOTATIONS>
43  12  6
19  9  5

$$$$
