310943337
  -OEChem-07211613022D

 27 29  0     0  0  0  0  0  0999 V2000
    1.2434    1.9455    0.0000 F   0  0  0  0  0  0  0  0  0  0  0  0
    2.6137    1.9455    0.0000 F   0  0  0  0  0  0  0  0  0  0  0  0
    2.6814    1.2857    0.0000 F   0  0  0  0  0  0  0  0  0  0  0  0
    2.6983   -1.6917    0.0000 F   0  0  0  0  0  0  0  0  0  0  0  0
    3.9333   -0.6597    0.0000 F   0  0  0  0  0  0  0  0  0  0  0  0
    3.2566   -1.9455    0.0000 F   0  0  0  0  0  0  0  0  0  0  0  0
   -3.1551   -1.0658    0.0000 F   0  0  0  0  0  0  0  0  0  0  0  0
   -3.9333   -0.2030    0.0000 F   0  0  0  0  0  0  0  0  0  0  0  0
   -3.1382    0.6597    0.0000 F   0  0  0  0  0  0  0  0  0  0  0  0
    0.4483    0.4906    0.0000 N   0  0  0  0  0  0  0  0  0  0  0  0
    0.4144   -0.9136    0.0000 N   0  0  0  0  0  0  0  0  0  0  0  0
   -1.1927   -0.9474    0.0000 N   0  0  0  0  0  0  0  0  0  0  0  0
    1.2096    0.1692    0.0000 C   0  0  0  0  0  0  0  0  0  0  0  0
    1.8863    0.6090    0.0000 C   0  0  0  0  0  0  0  0  0  0  0  0
    1.1927   -0.6767    0.0000 C   0  0  0  0  0  0  0  0  0  0  0  0
   -0.0423   -0.2369    0.0000 C   0  0  0  0  0  0  0  0  0  0  0  0
    2.5460   -0.6767    0.0000 C   0  0  0  0  0  0  0  0  0  0  0  0
    1.9202    1.4718    0.0000 C   0  0  0  0  0  0  0  0  0  0  0  0
    2.5799    0.1692    0.0000 C   0  0  0  0  0  0  0  0  0  0  0  0
    1.9032   -1.0996    0.0000 C   0  0  0  0  0  0  0  0  0  0  0  0
   -0.7867   -0.2199    0.0000 C   0  0  0  0  0  0  0  0  0  0  0  0
    3.2397   -1.1166    0.0000 C   0  0  0  0  0  0  0  0  0  0  0  0
   -1.1757    0.5076    0.0000 C   0  0  0  0  0  0  0  0  0  0  0  0
   -2.3769   -0.2369    0.0000 C   0  0  0  0  0  0  0  0  0  0  0  0
   -3.1551   -0.2199    0.0000 C   0  0  0  0  0  0  0  0  0  0  0  0
   -1.9709   -0.9643    0.0000 C   0  0  0  0  0  0  0  0  0  0  0  0
   -1.9540    0.5076    0.0000 C   0  0  0  0  0  0  0  0  0  0  0  0
  1 18  1  0  0  0  0
  2 18  1  0  0  0  0
  3 18  1  0  0  0  0
  4 22  1  0  0  0  0
  5 22  1  0  0  0  0
  6 22  1  0  0  0  0
  7 25  1  0  0  0  0
  8 25  1  0  0  0  0
  9 25  1  0  0  0  0
 10 13  1  0  0  0  0
 10 16  2  0  0  0  0
 11 15  1  0  0  0  0
 11 16  1  0  0  0  0
 12 21  1  0  0  0  0
 12 26  2  0  0  0  0
 13 14  1  0  0  0  0
 13 15  2  0  0  0  0
 14 18  1  0  0  0  0
 14 19  2  0  0  0  0
 15 20  1  0  0  0  0
 16 21  1  0  0  0  0
 17 19  1  0  0  0  0
 17 20  2  0  0  0  0
 17 22  1  0  0  0  0
 21 23  2  0  0  0  0
 23 27  1  0  0  0  0
 24 25  1  0  0  0  0
 24 26  1  0  0  0  0
 24 27  2  0  0  0  0
M  END
> <PUBCHEM_COMPOUND_ID_TYPE>
0

> <PUBCHEM_TOTAL_CHARGE>
0

> <PUBCHEM_SUBSTANCE_ID>
310943337

> <PUBCHEM_SUBSTANCE_VERSION>
1

> <PUBCHEM_EXT_DATASOURCE_NAME>
4488

> <PUBCHEM_EXT_DATASOURCE_REGID>
SCHEMBL16121400

> <PUBCHEM_SUBSTANCE_COMMENT>
InChI=1S/C15H6F9N3/c16-13(17,18)6-1-2-9(25-5-6)12-26-10-4-7(14(19,20)21)3-8(11(10)27-12)15(22,23)24/h1-5H,(H,26,27)
InChIKey=KUWLDVVMOWTZNC-UHFFFAOYSA-N

> <PUBCHEM_SUBSTANCE_SYNONYM>
SCHEMBL16121400

> <PUBCHEM_XREF_EXT_ID>
SCHEMBL16121400

> <PUBCHEM_EXT_DATASOURCE_URL>
https://www.surechembl.org/

> <PUBCHEM_EXT_SUBSTANCE_URL>
https://www.surechembl.org/chemical/SCHEMBL16121400

> <PUBCHEM_CID_ASSOCIATIONS>
117609762  1

> <PUBCHEM_COORDINATE_TYPE>
1
3

$$$$
