310939677
  -OEChem-07211613022D

 53 63  0     0  0  0  0  0  0999 V2000
    3.4184  -10.7595    0.0000 N   0  0  0  0  0  0  0  0  0  0  0  0
    3.4184  -12.0943    0.0000 N   0  0  0  0  0  0  0  0  0  0  0  0
   -3.4885   -9.3117    0.0000 N   0  0  0  0  0  0  0  0  0  0  0  0
   -3.4885  -15.9117    0.0000 N   0  0  0  0  0  0  0  0  0  0  0  0
   -2.7741  -12.1992    0.0000 C   0  0  0  0  0  0  0  0  0  0  0  0
   -2.7741  -13.0243    0.0000 C   0  0  0  0  0  0  0  0  0  0  0  0
   -1.5046  -12.6117    0.0000 C   0  0  0  0  0  0  0  0  0  0  0  0
   -1.9894  -11.9442    0.0000 C   0  0  0  0  0  0  0  0  0  0  0  0
   -1.9894  -13.2791    0.0000 C   0  0  0  0  0  0  0  0  0  0  0  0
   -3.4885  -11.7867    0.0000 C   0  0  0  0  0  0  0  0  0  0  0  0
   -3.4885  -13.4367    0.0000 C   0  0  0  0  0  0  0  0  0  0  0  0
   -4.2030  -12.1992    0.0000 C   0  0  0  0  0  0  0  0  0  0  0  0
   -4.2030  -13.0243    0.0000 C   0  0  0  0  0  0  0  0  0  0  0  0
   -0.6840  -12.5255    0.0000 C   0  0  0  0  0  0  0  0  0  0  0  0
   -0.3485  -11.7718    0.0000 C   0  0  0  0  0  0  0  0  0  0  0  0
   -1.6539  -11.1906    0.0000 C   0  0  0  0  0  0  0  0  0  0  0  0
   -3.4885  -10.9617    0.0000 C   0  0  0  0  0  0  0  0  0  0  0  0
   -3.4885  -14.2617    0.0000 C   0  0  0  0  0  0  0  0  0  0  0  0
   -1.3552  -14.0328    0.0000 C   0  0  0  0  0  0  0  0  0  0  0  0
   -0.8334  -11.1044    0.0000 C   0  0  0  0  0  0  0  0  0  0  0  0
   -0.1992  -13.1930    0.0000 C   0  0  0  0  0  0  0  0  0  0  0  0
   -4.9175  -11.7867    0.0000 C   0  0  0  0  0  0  0  0  0  0  0  0
   -4.9175  -13.4367    0.0000 C   0  0  0  0  0  0  0  0  0  0  0  0
    0.4720  -11.6856    0.0000 C   0  0  0  0  0  0  0  0  0  0  0  0
   -0.5347  -13.9466    0.0000 C   0  0  0  0  0  0  0  0  0  0  0  0
   -2.7741  -10.5492    0.0000 C   0  0  0  0  0  0  0  0  0  0  0  0
   -4.2030  -10.5492    0.0000 C   0  0  0  0  0  0  0  0  0  0  0  0
   -4.2030  -14.6743    0.0000 C   0  0  0  0  0  0  0  0  0  0  0  0
   -2.7741  -14.6743    0.0000 C   0  0  0  0  0  0  0  0  0  0  0  0
   -5.6319  -12.1992    0.0000 C   0  0  0  0  0  0  0  0  0  0  0  0
   -5.6319  -13.0243    0.0000 C   0  0  0  0  0  0  0  0  0  0  0  0
    0.9570  -12.3530    0.0000 C   0  0  0  0  0  0  0  0  0  0  0  0
    0.8076  -10.9319    0.0000 C   0  0  0  0  0  0  0  0  0  0  0  0
    2.9334  -11.4269    0.0000 C   0  0  0  0  0  0  0  0  0  0  0  0
    2.1130  -11.5131    0.0000 C   0  0  0  0  0  0  0  0  0  0  0  0
    4.2030  -11.0143    0.0000 C   0  0  0  0  0  0  0  0  0  0  0  0
    1.7774  -12.2668    0.0000 C   0  0  0  0  0  0  0  0  0  0  0  0
    1.6280  -10.8456    0.0000 C   0  0  0  0  0  0  0  0  0  0  0  0
    4.2030  -11.8394    0.0000 C   0  0  0  0  0  0  0  0  0  0  0  0
   -2.7741   -9.7242    0.0000 C   0  0  0  0  0  0  0  0  0  0  0  0
   -4.2030   -9.7242    0.0000 C   0  0  0  0  0  0  0  0  0  0  0  0
   -4.2030  -15.4992    0.0000 C   0  0  0  0  0  0  0  0  0  0  0  0
   -2.7741  -15.4992    0.0000 C   0  0  0  0  0  0  0  0  0  0  0  0
    3.0059  -10.0450    0.0000 C   0  0  0  0  0  0  0  0  0  0  0  0
    4.9175  -10.6018    0.0000 C   0  0  0  0  0  0  0  0  0  0  0  0
    4.9175  -12.2519    0.0000 C   0  0  0  0  0  0  0  0  0  0  0  0
    3.4184   -9.3305    0.0000 C   0  0  0  0  0  0  0  0  0  0  0  0
    2.1809  -10.0450    0.0000 C   0  0  0  0  0  0  0  0  0  0  0  0
    5.6319  -11.0143    0.0000 C   0  0  0  0  0  0  0  0  0  0  0  0
    5.6319  -11.8394    0.0000 C   0  0  0  0  0  0  0  0  0  0  0  0
    3.0059   -8.6160    0.0000 C   0  0  0  0  0  0  0  0  0  0  0  0
    1.7684   -9.3305    0.0000 C   0  0  0  0  0  0  0  0  0  0  0  0
    2.1809   -8.6160    0.0000 C   0  0  0  0  0  0  0  0  0  0  0  0
  1 34  1  0  0  0  0
  1 36  1  0  0  0  0
  1 44  1  0  0  0  0
  2 34  2  0  0  0  0
  2 39  1  0  0  0  0
  3 40  2  0  0  0  0
  3 41  1  0  0  0  0
  4 42  2  0  0  0  0
  4 43  1  0  0  0  0
  5  6  1  0  0  0  0
  5  8  1  0  0  0  0
  5 10  2  0  0  0  0
  6  9  1  0  0  0  0
  6 11  2  0  0  0  0
  7  8  1  0  0  0  0
  7  9  2  0  0  0  0
  7 14  1  0  0  0  0
  8 16  2  0  0  0  0
  9 19  1  0  0  0  0
 10 12  1  0  0  0  0
 10 17  1  0  0  0  0
 11 13  1  0  0  0  0
 11 18  1  0  0  0  0
 12 13  2  0  0  0  0
 12 22  1  0  0  0  0
 13 23  1  0  0  0  0
 14 15  1  0  0  0  0
 14 21  2  0  0  0  0
 15 20  2  0  0  0  0
 15 24  1  0  0  0  0
 16 20  1  0  0  0  0
 17 26  2  0  0  0  0
 17 27  1  0  0  0  0
 18 28  2  0  0  0  0
 18 29  1  0  0  0  0
 19 25  2  0  0  0  0
 21 25  1  0  0  0  0
 22 30  2  0  0  0  0
 23 31  2  0  0  0  0
 24 32  2  0  0  0  0
 24 33  1  0  0  0  0
 26 40  1  0  0  0  0
 27 41  2  0  0  0  0
 28 42  1  0  0  0  0
 29 43  2  0  0  0  0
 30 31  1  0  0  0  0
 32 37  1  0  0  0  0
 33 38  2  0  0  0  0
 34 35  1  0  0  0  0
 35 37  2  0  0  0  0
 35 38  1  0  0  0  0
 36 39  2  0  0  0  0
 36 45  1  0  0  0  0
 39 46  1  0  0  0  0
 44 47  2  0  0  0  0
 44 48  1  0  0  0  0
 45 49  2  0  0  0  0
 46 50  2  0  0  0  0
 47 51  1  0  0  0  0
 48 52  2  0  0  0  0
 49 50  1  0  0  0  0
 51 53  2  0  0  0  0
 52 53  1  0  0  0  0
M  END
> <PUBCHEM_COMPOUND_ID_TYPE>
0

> <PUBCHEM_TOTAL_CHARGE>
0

> <PUBCHEM_SUBSTANCE_ID>
310939677

> <PUBCHEM_SUBSTANCE_VERSION>
1

> <PUBCHEM_EXT_DATASOURCE_NAME>
4488

> <PUBCHEM_EXT_DATASOURCE_REGID>
SCHEMBL16117607

> <PUBCHEM_SUBSTANCE_COMMENT>
InChI=1S/C49H30N4/c1-2-9-35(10-3-1)53-43-16-7-6-15-42(43)52-49(53)34-19-17-31(18-20-34)36-21-22-41-46-37(36)13-8-14-40(46)47-44(32-23-27-50-28-24-32)38-11-4-5-12-39(38)45(48(41)47)33-25-29-51-30-26-33/h1-30H
InChIKey=GEQPOYDQLNLZKL-UHFFFAOYSA-N

> <PUBCHEM_SUBSTANCE_SYNONYM>
SCHEMBL16117607

> <PUBCHEM_XREF_EXT_ID>
SCHEMBL16117607

> <PUBCHEM_EXT_DATASOURCE_URL>
https://www.surechembl.org/

> <PUBCHEM_EXT_SUBSTANCE_URL>
https://www.surechembl.org/chemical/SCHEMBL16117607

> <PUBCHEM_CID_ASSOCIATIONS>
117606910  1

> <PUBCHEM_COORDINATE_TYPE>
1
3

$$$$
