310945304
  -OEChem-07211613022D

 36 41  0     0  0  0  0  0  0999 V2000
    4.5755    1.8454    0.0000 O   0  0  0  0  0  0  0  0  0  0  0  0
   -3.0411   -2.0666    0.0000 O   0  0  0  0  0  0  0  0  0  0  0  0
   -0.8847    0.8363    0.0000 O   0  0  0  0  0  0  0  0  0  0  0  0
   -3.7599    0.8363    0.0000 O   0  0  0  0  0  0  0  0  0  0  0  0
    2.7785    0.5875    0.0000 N   0  0  0  0  0  0  0  0  0  0  0  0
    4.4234    0.4216    0.0000 N   0  0  0  0  0  0  0  0  0  0  0  0
   -3.0411   -0.3940    0.0000 N   0  0  0  0  0  0  0  0  0  0  0  0
   -0.1658   -0.3940    0.0000 N   0  0  0  0  0  0  0  0  0  0  0  0
    3.1102   -0.1590    0.0000 C   0  0  0  0  0  0  0  0  0  0  0  0
    1.9767    0.8640    0.0000 C   0  0  0  0  0  0  0  0  0  0  0  0
    3.2485    1.2787    0.0000 C   0  0  0  0  0  0  0  0  0  0  0  0
    1.9905    1.6795    0.0000 C   0  0  0  0  0  0  0  0  0  0  0  0
    2.7785    1.9421    0.0000 C   0  0  0  0  0  0  0  0  0  0  0  0
    4.0779    1.1542    0.0000 C   0  0  0  0  0  0  0  0  0  0  0  0
    3.9396   -0.2557    0.0000 C   0  0  0  0  0  0  0  0  0  0  0  0
    2.3085   -0.3110    0.0000 C   0  0  0  0  0  0  0  0  0  0  0  0
    3.2346   -0.9884    0.0000 C   0  0  0  0  0  0  0  0  0  0  0  0
    1.2579    0.4354    0.0000 C   0  0  0  0  0  0  0  0  0  0  0  0
    2.4329   -1.1128    0.0000 C   0  0  0  0  0  0  0  0  0  0  0  0
    0.5529    0.8501    0.0000 C   0  0  0  0  0  0  0  0  0  0  0  0
    1.2579    2.0804    0.0000 C   0  0  0  0  0  0  0  0  0  0  0  0
    0.5529    1.6795    0.0000 C   0  0  0  0  0  0  0  0  0  0  0  0
   -2.3223   -0.8087    0.0000 C   0  0  0  0  0  0  0  0  0  0  0  0
   -0.1521    0.4216    0.0000 C   0  0  0  0  0  0  0  0  0  0  0  0
   -2.3361   -1.6380    0.0000 C   0  0  0  0  0  0  0  0  0  0  0  0
   -3.7876   -1.6380    0.0000 C   0  0  0  0  0  0  0  0  0  0  0  0
   -0.8847   -0.8087    0.0000 C   0  0  0  0  0  0  0  0  0  0  0  0
   -1.6035   -0.4078    0.0000 C   0  0  0  0  0  0  0  0  0  0  0  0
   -3.7461   -0.8087    0.0000 C   0  0  0  0  0  0  0  0  0  0  0  0
   -1.5896   -2.0527    0.0000 C   0  0  0  0  0  0  0  0  0  0  0  0
   -3.0273    0.4216    0.0000 C   0  0  0  0  0  0  0  0  0  0  0  0
   -0.8847   -1.6380    0.0000 C   0  0  0  0  0  0  0  0  0  0  0  0
   -4.5755   -1.4445    0.0000 C   0  0  0  0  0  0  0  0  0  0  0  0
   -4.4649   -2.0804    0.0000 C   0  0  0  0  0  0  0  0  0  0  0  0
   -2.3361    0.8363    0.0000 C   0  0  0  0  0  0  0  0  0  0  0  0
   -2.4191    1.6934    0.0000 C   0  0  0  0  0  0  0  0  0  0  0  0
  1 14  2  0  0  0  0
  2 25  1  0  0  0  0
  2 26  1  0  0  0  0
  3 24  2  0  0  0  0
  4 31  2  0  0  0  0
  5  9  1  0  0  0  0
  5 10  1  0  0  0  0
  5 11  1  0  0  0  0
  6 14  1  0  0  0  0
  6 15  1  0  0  0  0
  7 23  1  0  0  0  0
  7 29  1  0  0  0  0
  7 31  1  0  0  0  0
  8 24  1  0  0  0  0
  8 27  1  0  0  0  0
  9 15  1  0  0  0  0
  9 16  1  0  0  0  0
  9 17  1  0  0  0  0
 10 12  2  0  0  0  0
 10 18  1  0  0  0  0
 11 13  2  0  0  0  0
 11 14  1  0  0  0  0
 12 13  1  0  0  0  0
 12 21  1  0  0  0  0
 16 19  1  0  0  0  0
 17 19  1  0  0  0  0
 18 20  2  0  0  0  0
 20 22  1  0  0  0  0
 20 24  1  0  0  0  0
 21 22  2  0  0  0  0
 23 25  2  0  0  0  0
 23 28  1  0  0  0  0
 25 30  1  0  0  0  0
 26 29  1  0  0  0  0
 26 33  1  0  0  0  0
 26 34  1  0  0  0  0
 27 28  2  0  0  0  0
 27 32  1  0  0  0  0
 30 32  2  0  0  0  0
 31 35  1  0  0  0  0
 35 36  2  0  0  0  0
M  END
> <PUBCHEM_COMPOUND_ID_TYPE>
0

> <PUBCHEM_TOTAL_CHARGE>
0

> <PUBCHEM_SUBSTANCE_ID>
310945304

> <PUBCHEM_SUBSTANCE_VERSION>
1

> <PUBCHEM_EXT_DATASOURCE_NAME>
4488

> <PUBCHEM_EXT_DATASOURCE_REGID>
SCHEMBL16123402

> <PUBCHEM_SUBSTANCE_COMMENT>
InChI=1S/C28H28N4O4/c1-4-24(33)31-16-27(2,3)36-23-9-8-19(14-21(23)31)30-25(34)18-7-6-17-12-22-26(35)29-15-28(10-5-11-28)32(22)20(17)13-18/h4,6-9,12-14H,1,5,10-11,15-16H2,2-3H3,(H,29,35)(H,30,34)
InChIKey=XITQTZHPIQKPEO-UHFFFAOYSA-N

> <PUBCHEM_SUBSTANCE_SYNONYM>
SCHEMBL16123402

> <PUBCHEM_XREF_EXT_ID>
SCHEMBL16123402

> <PUBCHEM_EXT_DATASOURCE_URL>
https://www.surechembl.org/

> <PUBCHEM_EXT_SUBSTANCE_URL>
https://www.surechembl.org/chemical/SCHEMBL16123402

> <PUBCHEM_CID_ASSOCIATIONS>
117611363  1

> <PUBCHEM_COORDINATE_TYPE>
1
3

$$$$
