310931003
  -OEChem-07211613022D

 14 14  0     0  0  0  0  0  0999 V2000
    1.4415    0.0000    0.0000 I   0  0  0  0  0  0  0  0  0  0  0  0
    0.0000   -2.4834    0.0000 Br  0  0  0  0  0  0  0  0  0  0  0  0
    3.5681   -1.2417    0.0000 O   0  0  0  0  0  0  0  0  0  0  0  0
    2.8545    0.0000    0.0000 O   0  0  0  0  0  0  0  0  0  0  0  0
    2.1409   -1.2417    0.0000 C   0  0  0  0  0  0  0  0  0  0  0  0
    1.4415   -0.8278    0.0000 C   0  0  0  0  0  0  0  0  0  0  0  0
    0.7279   -1.2417    0.0000 C   0  0  0  0  0  0  0  0  0  0  0  0
    0.7279   -2.0695    0.0000 C   0  0  0  0  0  0  0  0  0  0  0  0
    2.8545   -0.8278    0.0000 C   0  0  0  0  0  0  0  0  0  0  0  0
    2.1409   -2.0695    0.0000 C   0  0  0  0  0  0  0  0  0  0  0  0
    1.4415   -2.4834    0.0000 C   0  0  0  0  0  0  0  0  0  0  0  0
    0.0000   -0.8278    0.0000 C   0  0  0  0  0  0  0  0  0  0  0  0
    4.2817   -0.8278    0.0000 C   0  0  0  0  0  0  0  0  0  0  0  0
    4.2817    0.0000    0.0000 C   0  0  0  0  0  0  0  0  0  0  0  0
  1  6  1  0  0  0  0
  2  8  1  0  0  0  0
  3  9  1  0  0  0  0
  3 13  1  0  0  0  0
  4  9  2  0  0  0  0
  5  6  2  0  0  0  0
  5  9  1  0  0  0  0
  5 10  1  0  0  0  0
  6  7  1  0  0  0  0
  7  8  2  0  0  0  0
  7 12  1  0  0  0  0
  8 11  1  0  0  0  0
 10 11  2  0  0  0  0
 13 14  1  0  0  0  0
M  END
> <PUBCHEM_COMPOUND_ID_TYPE>
0

> <PUBCHEM_TOTAL_CHARGE>
0

> <PUBCHEM_SUBSTANCE_ID>
310931003

> <PUBCHEM_SUBSTANCE_VERSION>
1

> <PUBCHEM_EXT_DATASOURCE_NAME>
4488

> <PUBCHEM_EXT_DATASOURCE_REGID>
SCHEMBL16108303

> <PUBCHEM_SUBSTANCE_COMMENT>
InChI=1S/C10H10BrIO2/c1-3-14-10(13)7-4-5-8(11)6(2)9(7)12/h4-5H,3H2,1-2H3
InChIKey=MXHFQHMXNVSCKI-UHFFFAOYSA-N

> <PUBCHEM_SUBSTANCE_SYNONYM>
SCHEMBL16108303

> <PUBCHEM_XREF_EXT_ID>
SCHEMBL16108303

> <PUBCHEM_EXT_DATASOURCE_URL>
https://www.surechembl.org/

> <PUBCHEM_EXT_SUBSTANCE_URL>
https://www.surechembl.org/chemical/SCHEMBL16108303

> <PUBCHEM_CID_ASSOCIATIONS>
117599933  1

> <PUBCHEM_COORDINATE_TYPE>
1
3

$$$$
