310938634
  -OEChem-07211613022D

 15 15  0     0  0  0  0  0  0999 V2000
   -1.8960    5.9108    0.0000 Cl  0  0  0  0  0  0  0  0  0  0  0  0
   -1.8960    4.2608    0.0000 N   0  0  0  0  0  0  0  0  0  0  0  0
   -1.1815    4.6733    0.0000 C   0  0  0  0  0  0  0  0  0  0  0  0
   -1.1815    5.4983    0.0000 C   0  0  0  0  0  0  0  0  0  0  0  0
    0.2474    5.4983    0.0000 C   0  0  0  0  0  0  0  0  0  0  0  0
   -0.4670    5.9108    0.0000 C   0  0  0  0  0  0  0  0  0  0  0  0
   -0.4670    4.2608    0.0000 C   0  0  0  0  0  0  0  0  0  0  0  0
    0.2474    4.6733    0.0000 C   0  0  0  0  0  0  0  0  0  0  0  0
    0.9619    5.9108    0.0000 C   0  0  0  0  0  0  0  0  0  0  0  0
    1.6764    5.4983    0.0000 C   0  0  0  0  0  0  0  0  0  0  0  0
   -1.8960    3.4358    0.0000 C   0  0  0  0  0  0  0  0  0  0  0  0
   -2.6105    4.6733    0.0000 C   0  0  0  0  0  0  0  0  0  0  0  0
    2.0889    6.2128    0.0000 C   0  0  0  0  0  0  0  0  0  0  0  0
    1.2639    4.7839    0.0000 C   0  0  0  0  0  0  0  0  0  0  0  0
    2.3908    5.0858    0.0000 C   0  0  0  0  0  0  0  0  0  0  0  0
  1  4  1  0  0  0  0
  2  3  1  0  0  0  0
  2 11  1  0  0  0  0
  2 12  1  0  0  0  0
  3  4  2  0  0  0  0
  3  7  1  0  0  0  0
  4  6  1  0  0  0  0
  5  6  2  0  0  0  0
  5  8  1  0  0  0  0
  5  9  1  0  0  0  0
  7  8  2  0  0  0  0
  9 10  1  0  0  0  0
 10 13  1  0  0  0  0
 10 14  1  0  0  0  0
 10 15  1  0  0  0  0
M  END
> <PUBCHEM_COMPOUND_ID_TYPE>
0

> <PUBCHEM_TOTAL_CHARGE>
0

> <PUBCHEM_SUBSTANCE_ID>
310938634

> <PUBCHEM_SUBSTANCE_VERSION>
1

> <PUBCHEM_EXT_DATASOURCE_NAME>
4488

> <PUBCHEM_EXT_DATASOURCE_REGID>
SCHEMBL16116548

> <PUBCHEM_SUBSTANCE_COMMENT>
InChI=1S/C13H20ClN/c1-13(2,3)9-10-6-7-12(15(4)5)11(14)8-10/h6-8H,9H2,1-5H3
InChIKey=HSLKUUWRFGNLFO-UHFFFAOYSA-N

> <PUBCHEM_SUBSTANCE_SYNONYM>
SCHEMBL16116548

> <PUBCHEM_XREF_EXT_ID>
SCHEMBL16116548

> <PUBCHEM_EXT_DATASOURCE_URL>
https://www.surechembl.org/

> <PUBCHEM_EXT_SUBSTANCE_URL>
https://www.surechembl.org/chemical/SCHEMBL16116548

> <PUBCHEM_CID_ASSOCIATIONS>
117606067  1

> <PUBCHEM_COORDINATE_TYPE>
1
3

> <PUBCHEM_BONDANNOTATIONS>
10  13  3
10  14  3

$$$$
