310941071
  -OEChem-07211613022D

 45 49  0     1  0  0  0  0  0999 V2000
    5.0549    0.6642    0.0000 O   0  0  0  0  0  0  0  0  0  0  0  0
    3.9222   -1.2794    0.0000 O   0  0  0  0  0  0  0  0  0  0  0  0
    1.7828    0.7761    0.0000 O   0  0  0  0  0  0  0  0  0  0  0  0
   -1.0697    1.9367    0.0000 O   0  0  0  0  0  0  0  0  0  0  0  0
   -0.3566   -1.2794    0.0000 O   0  0  0  0  0  0  0  0  0  0  0  0
   -2.4960    0.7761    0.0000 O   0  0  0  0  0  0  0  0  0  0  0  0
    3.9222   -2.9294    0.0000 O   0  0  0  0  0  0  0  0  0  0  0  0
   -5.3485    0.7761    0.0000 O   0  0  0  0  0  0  0  0  0  0  0  0
    2.4960   -0.4684    0.0000 N   0  0  0  0  0  0  0  0  0  0  0  0
    0.3566   -0.0489    0.0000 N   0  0  0  0  0  0  0  0  0  0  0  0
   -1.7828   -0.4684    0.0000 N   0  0  0  0  0  0  0  0  0  0  0  0
   -3.9222   -0.0489    0.0000 N   0  0  0  0  0  0  0  0  0  0  0  0
    4.6354   -0.0070    0.0000 C   0  0  3  0  0  0  0  0  0  0  0  0
    3.9222   -0.4265    0.0000 C   0  0  0  0  0  0  0  0  0  0  0  0
    4.2578    0.6781    0.0000 C   0  0  0  0  0  0  0  0  0  0  0  0
    3.2231   -0.0210    0.0000 C   0  0  3  0  0  0  0  0  0  0  0  0
    5.3485   -0.4265    0.0000 C   0  0  0  0  0  0  0  0  0  0  0  0
    3.2091    1.2934    0.0000 C   0  0  0  0  0  0  0  0  0  0  0  0
    1.7828   -0.0489    0.0000 C   0  0  0  0  0  0  0  0  0  0  0  0
    1.0976   -0.4265    0.0000 C   0  0  3  0  0  0  0  0  0  0  0  0
   -1.0697   -0.0210    0.0000 C   0  0  3  0  0  0  0  0  0  0  0  0
   -0.3425   -0.4125    0.0000 C   0  0  0  0  0  0  0  0  0  0  0  0
   -1.0697    0.8600    0.0000 C   0  0  0  0  0  0  0  0  0  0  0  0
    2.5100    1.7129    0.0000 C   0  0  0  0  0  0  0  0  0  0  0  0
    1.0697   -1.2794    0.0000 C   0  0  0  0  0  0  0  0  0  0  0  0
   -1.6290    1.3633    0.0000 C   0  0  0  0  0  0  0  0  0  0  0  0
   -0.4824    1.3773    0.0000 C   0  0  0  0  0  0  0  0  0  0  0  0
    1.8108   -1.6710    0.0000 C   0  0  0  0  0  0  0  0  0  0  0  0
    1.7969    1.3074    0.0000 C   0  0  0  0  0  0  0  0  0  0  0  0
    2.5100    2.5100    0.0000 C   0  0  0  0  0  0  0  0  0  0  0  0
   -2.4960   -0.0489    0.0000 C   0  0  0  0  0  0  0  0  0  0  0  0
    2.4960   -1.2794    0.0000 C   0  0  0  0  0  0  0  0  0  0  0  0
    1.8108   -2.4960    0.0000 C   0  0  0  0  0  0  0  0  0  0  0  0
   -3.1812   -0.4265    0.0000 C   0  0  0  0  0  0  0  0  0  0  0  0
    1.0976    1.6989    0.0000 C   0  0  0  0  0  0  0  0  0  0  0  0
    1.7828    2.9294    0.0000 C   0  0  0  0  0  0  0  0  0  0  0  0
    3.2231   -2.4819    0.0000 C   0  0  0  0  0  0  0  0  0  0  0  0
    3.2231   -1.6850    0.0000 C   0  0  0  0  0  0  0  0  0  0  0  0
    2.5100   -2.9015    0.0000 C   0  0  0  0  0  0  0  0  0  0  0  0
    1.0976    2.5239    0.0000 C   0  0  0  0  0  0  0  0  0  0  0  0
   -3.9222    0.7900    0.0000 C   0  0  0  0  0  0  0  0  0  0  0  0
   -4.6074   -0.4265    0.0000 C   0  0  0  0  0  0  0  0  0  0  0  0
   -4.6494    1.2095    0.0000 C   0  0  0  0  0  0  0  0  0  0  0  0
   -5.3345   -0.0210    0.0000 C   0  0  0  0  0  0  0  0  0  0  0  0
    4.6633   -2.5100    0.0000 C   0  0  0  0  0  0  0  0  0  0  0  0
  1 13  1  0  0  0  0
  1 15  1  0  0  0  0
  2 14  2  0  0  0  0
  3 19  2  0  0  0  0
  4 26  1  0  0  0  0
  4 27  1  0  0  0  0
  5 22  2  0  0  0  0
  6 31  2  0  0  0  0
  7 37  1  0  0  0  0
  7 45  1  0  0  0  0
  8 43  1  0  0  0  0
  8 44  1  0  0  0  0
 16  9  1  1  0  0  0
  9 19  1  0  0  0  0
 20 10  1  6  0  0  0
 10 22  1  0  0  0  0
 21 11  1  1  0  0  0
 11 31  1  0  0  0  0
 12 34  1  0  0  0  0
 12 41  1  0  0  0  0
 12 42  1  0  0  0  0
 13 14  1  1  0  0  0
 13 15  1  0  0  0  0
 13 17  1  6  0  0  0
 14 16  1  0  0  0  0
 16 18  1  0  0  0  0
 18 24  1  0  0  0  0
 19 20  1  0  0  0  0
 20 25  1  0  0  0  0
 21 22  1  0  0  0  0
 21 23  1  0  0  0  0
 23 26  1  0  0  0  0
 23 27  1  0  0  0  0
 24 29  2  0  0  0  0
 24 30  1  0  0  0  0
 25 28  1  0  0  0  0
 28 32  2  0  0  0  0
 28 33  1  0  0  0  0
 29 35  1  0  0  0  0
 30 36  2  0  0  0  0
 31 34  1  0  0  0  0
 32 38  1  0  0  0  0
 33 39  2  0  0  0  0
 35 40  2  0  0  0  0
 36 40  1  0  0  0  0
 37 38  2  0  0  0  0
 37 39  1  0  0  0  0
 41 43  1  0  0  0  0
 42 44  1  0  0  0  0
M  END
> <PUBCHEM_COMPOUND_ID_TYPE>
0

> <PUBCHEM_TOTAL_CHARGE>
0

> <PUBCHEM_SUBSTANCE_ID>
310941071

> <PUBCHEM_SUBSTANCE_VERSION>
1

> <PUBCHEM_EXT_DATASOURCE_NAME>
4488

> <PUBCHEM_EXT_DATASOURCE_REGID>
SCHEMBL16119031

> <PUBCHEM_SUBSTANCE_COMMENT>
InChI=1S/C33H42N4O8/c1-33(21-45-33)30(39)26(16-22-6-4-3-5-7-22)34-31(40)27(17-23-8-10-25(42-2)11-9-23)35-32(41)29(24-19-44-20-24)36-28(38)18-37-12-14-43-15-13-37/h3-11,24,26-27,29H,12-21H2,1-2H3,(H,34,40)(H,35,41)(H,36,38)/t26-,27-,29-,33+/m0/s1
InChIKey=HRSROUCJYJNGSE-POCMPZBTSA-N

> <PUBCHEM_SUBSTANCE_SYNONYM>
SCHEMBL16119031

> <PUBCHEM_XREF_EXT_ID>
SCHEMBL16119031

> <PUBCHEM_EXT_DATASOURCE_URL>
https://www.surechembl.org/

> <PUBCHEM_EXT_SUBSTANCE_URL>
https://www.surechembl.org/chemical/SCHEMBL16119031

> <PUBCHEM_CID_ASSOCIATIONS>
117607962  1

> <PUBCHEM_COORDINATE_TYPE>
1
3

> <PUBCHEM_BONDANNOTATIONS>
20  10  6
21  11  5
13  14  5
13  17  6
16  9  5

$$$$
