310940597
  -OEChem-07211613022D

 30 34  0     0  0  0  0  0  0999 V2000
    2.7305   -0.1717    0.0000 O   0  0  0  0  0  0  0  0  0  0  0  0
   -1.4597   -0.3435    0.0000 O   0  0  0  0  0  0  0  0  0  0  0  0
   -2.7819   -2.2840    0.0000 O   0  0  0  0  0  0  0  0  0  0  0  0
    2.7819    1.3051    0.0000 O   0  0  0  0  0  0  0  0  0  0  0  0
    1.5284    0.4808    0.0000 N   0  0  0  0  0  0  0  0  0  0  0  0
    1.3910   -1.9920    0.0000 N   0  0  0  0  0  0  0  0  0  0  0  0
   -2.3870   -2.9880    0.0000 N   0  0  0  0  0  0  0  0  0  0  0  0
    1.6657    2.1294    0.0000 N   0  0  0  0  0  0  0  0  0  0  0  0
    1.3567   -0.3435    0.0000 C   0  0  0  0  0  0  0  0  0  0  0  0
    0.6697   -0.7727    0.0000 C   0  0  0  0  0  0  0  0  0  0  0  0
    2.1122   -0.7556    0.0000 C   0  0  0  0  0  0  0  0  0  0  0  0
    0.6525   -1.5799    0.0000 C   0  0  0  0  0  0  0  0  0  0  0  0
   -0.7727   -1.5970    0.0000 C   0  0  0  0  0  0  0  0  0  0  0  0
    2.3354    0.5495    0.0000 C   0  0  0  0  0  0  0  0  0  0  0  0
   -0.7727   -0.7727    0.0000 C   0  0  0  0  0  0  0  0  0  0  0  0
   -0.0687   -0.3778    0.0000 C   0  0  0  0  0  0  0  0  0  0  0  0
   -0.0687   -2.0092    0.0000 C   0  0  0  0  0  0  0  0  0  0  0  0
   -1.4940   -2.0264    0.0000 C   0  0  0  0  0  0  0  0  0  0  0  0
    2.0951   -1.5970    0.0000 C   0  0  0  0  0  0  0  0  0  0  0  0
    0.8586    0.9273    0.0000 C   0  0  0  0  0  0  0  0  0  0  0  0
   -2.2496   -1.6657    0.0000 C   0  0  0  0  0  0  0  0  0  0  0  0
   -1.5799   -2.8506    0.0000 C   0  0  0  0  0  0  0  0  0  0  0  0
    0.9102    1.7688    0.0000 C   0  0  0  0  0  0  0  0  0  0  0  0
   -2.4041   -0.8586    0.0000 C   0  0  0  0  0  0  0  0  0  0  0  0
   -0.9616   -3.4002    0.0000 C   0  0  0  0  0  0  0  0  0  0  0  0
    0.2404    2.2324    0.0000 C   0  0  0  0  0  0  0  0  0  0  0  0
   -1.4940    0.4808    0.0000 C   0  0  0  0  0  0  0  0  0  0  0  0
    1.7173    2.9365    0.0000 C   0  0  0  0  0  0  0  0  0  0  0  0
    0.2919    3.0395    0.0000 C   0  0  0  0  0  0  0  0  0  0  0  0
    1.0303    3.4002    0.0000 C   0  0  0  0  0  0  0  0  0  0  0  0
  1 11  1  0  0  0  0
  1 14  1  0  0  0  0
  2 15  1  0  0  0  0
  2 27  1  0  0  0  0
  3  7  1  0  0  0  0
  3 21  1  0  0  0  0
  4 14  2  0  0  0  0
  5  9  1  0  0  0  0
  5 14  1  0  0  0  0
  5 20  1  0  0  0  0
  6 12  1  0  0  0  0
  6 19  2  0  0  0  0
  7 22  2  0  0  0  0
  8 23  1  0  0  0  0
  8 28  2  0  0  0  0
  9 10  1  0  0  0  0
  9 11  2  0  0  0  0
 10 12  1  0  0  0  0
 10 16  2  0  0  0  0
 11 19  1  0  0  0  0
 12 17  2  0  0  0  0
 13 15  2  0  0  0  0
 13 17  1  0  0  0  0
 13 18  1  0  0  0  0
 15 16  1  0  0  0  0
 18 21  2  0  0  0  0
 18 22  1  0  0  0  0
 20 23  1  0  0  0  0
 21 24  1  0  0  0  0
 22 25  1  0  0  0  0
 23 26  2  0  0  0  0
 26 29  1  0  0  0  0
 28 30  1  0  0  0  0
 29 30  2  0  0  0  0
M  END
> <PUBCHEM_COMPOUND_ID_TYPE>
0

> <PUBCHEM_TOTAL_CHARGE>
0

> <PUBCHEM_SUBSTANCE_ID>
310940597

> <PUBCHEM_SUBSTANCE_VERSION>
1

> <PUBCHEM_EXT_DATASOURCE_NAME>
4488

> <PUBCHEM_EXT_DATASOURCE_REGID>
SCHEMBL16118551

> <PUBCHEM_SUBSTANCE_COMMENT>
InChI=1S/C22H18N4O4/c1-12-20(13(2)30-25-12)16-8-17-15(9-18(16)28-3)21-19(10-24-17)29-22(27)26(21)11-14-6-4-5-7-23-14/h4-10H,11H2,1-3H3
InChIKey=RRLFWTCARXIFTA-UHFFFAOYSA-N

> <PUBCHEM_SUBSTANCE_SYNONYM>
SCHEMBL16118551

> <PUBCHEM_XREF_EXT_ID>
SCHEMBL16118551

> <PUBCHEM_EXT_DATASOURCE_URL>
https://www.surechembl.org/

> <PUBCHEM_EXT_SUBSTANCE_URL>
https://www.surechembl.org/chemical/SCHEMBL16118551

> <PUBCHEM_CID_ASSOCIATIONS>
86302947  1

> <PUBCHEM_COORDINATE_TYPE>
1
3

$$$$
