310935275
  -OEChem-07211613022D

 40 45  0     0  0  0  0  0  0999 V2000
    0.0000   -6.1381    0.0000 F   0  0  0  0  0  0  0  0  0  0  0  0
    3.5971   -4.8181    0.0000 O   0  0  0  0  0  0  0  0  0  0  0  0
    8.0192   -2.2111    0.0000 O   0  0  0  0  0  0  0  0  0  0  0  0
    2.5081   -2.3101    0.0000 O   0  0  0  0  0  0  0  0  0  0  0  0
    7.4582   -1.3531    0.0000 O   0  0  0  0  0  0  0  0  0  0  0  0
    8.6792   -2.0791    0.0000 O   0  0  0  0  0  0  0  0  0  0  0  0
    7.8542   -0.6270    0.0000 N   0  0  0  0  0  0  0  0  0  0  0  0
    1.5511   -3.3661    0.0000 N   0  0  0  0  0  0  0  0  0  0  0  0
    7.4582   -2.8051    0.0000 N   0  0  0  0  0  0  0  0  0  0  0  0
    8.6462   -0.5940    0.0000 C   0  0  0  0  0  0  0  0  0  0  0  0
    9.9002   -0.6270    0.0000 C   0  0  0  0  0  0  0  0  0  0  0  0
    9.2732    0.0000    0.0000 C   0  0  0  0  0  0  0  0  0  0  0  0
    9.2732   -0.9570    0.0000 C   0  0  0  0  0  0  0  0  0  0  0  0
    9.2732   -1.2210    0.0000 C   0  0  0  0  0  0  0  0  0  0  0  0
    3.7291   -3.4651    0.0000 C   0  0  0  0  0  0  0  0  0  0  0  0
    2.9371   -3.6631    0.0000 C   0  0  0  0  0  0  0  0  0  0  0  0
    4.1581   -4.2241    0.0000 C   0  0  0  0  0  0  0  0  0  0  0  0
    2.8381   -4.4881    0.0000 C   0  0  0  0  0  0  0  0  0  0  0  0
    4.9831   -2.7721    0.0000 C   0  0  0  0  0  0  0  0  0  0  0  0
    4.1581   -2.7721    0.0000 C   0  0  0  0  0  0  0  0  0  0  0  0
    5.4121   -3.4981    0.0000 C   0  0  0  0  0  0  0  0  0  0  0  0
    7.5902   -1.4851    0.0000 C   0  0  0  0  0  0  0  0  0  0  0  0
    5.0161   -4.1911    0.0000 C   0  0  0  0  0  0  0  0  0  0  0  0
    5.3791   -2.0461    0.0000 C   0  0  0  0  0  0  0  0  0  0  0  0
    2.1451   -4.9171    0.0000 C   0  0  0  0  0  0  0  0  0  0  0  0
    2.3431   -3.1351    0.0000 C   0  0  0  0  0  0  0  0  0  0  0  0
    6.6002   -1.3201    0.0000 C   0  0  0  0  0  0  0  0  0  0  0  0
    6.2041   -2.0461    0.0000 C   0  0  0  0  0  0  0  0  0  0  0  0
    4.9501   -1.3201    0.0000 C   0  0  0  0  0  0  0  0  0  0  0  0
    6.2371   -3.4981    0.0000 C   0  0  0  0  0  0  0  0  0  0  0  0
    6.2041   -0.6270    0.0000 C   0  0  0  0  0  0  0  0  0  0  0  0
    2.1451   -5.7421    0.0000 C   0  0  0  0  0  0  0  0  0  0  0  0
    1.4191   -4.4881    0.0000 C   0  0  0  0  0  0  0  0  0  0  0  0
    5.3461   -0.6270    0.0000 C   0  0  0  0  0  0  0  0  0  0  0  0
    1.4191   -6.1381    0.0000 C   0  0  0  0  0  0  0  0  0  0  0  0
    0.7260   -4.9171    0.0000 C   0  0  0  0  0  0  0  0  0  0  0  0
    0.7260   -5.7421    0.0000 C   0  0  0  0  0  0  0  0  0  0  0  0
    6.6332   -2.8051    0.0000 C   0  0  0  0  0  0  0  0  0  0  0  0
    0.9240   -2.8381    0.0000 C   0  0  0  0  0  0  0  0  0  0  0  0
    7.8872   -2.0791    0.0000 C   0  0  0  0  0  0  0  0  0  0  0  0
  1 37  1  0  0  0  0
  2 17  1  0  0  0  0
  2 18  1  0  0  0  0
  3 22  2  0  0  0  0
  4 26  2  0  0  0  0
  5 40  2  0  0  0  0
  6 40  1  0  0  0  0
  7 10  1  0  0  0  0
  7 22  1  0  0  0  0
  8 26  1  0  0  0  0
  8 39  1  0  0  0  0
  9 38  1  0  0  0  0
  9 40  1  0  0  0  0
 10 12  1  0  0  0  0
 10 13  1  0  0  0  0
 10 14  1  0  0  0  0
 11 12  1  0  0  0  0
 11 13  1  0  0  0  0
 11 14  1  0  0  0  0
 15 16  1  0  0  0  0
 15 17  2  0  0  0  0
 15 20  1  0  0  0  0
 16 18  2  0  0  0  0
 16 26  1  0  0  0  0
 17 23  1  0  0  0  0
 18 25  1  0  0  0  0
 19 20  2  0  0  0  0
 19 21  1  0  0  0  0
 19 24  1  0  0  0  0
 21 23  2  0  0  0  0
 21 30  1  0  0  0  0
 22 27  1  0  0  0  0
 24 28  1  0  0  0  0
 24 29  2  0  0  0  0
 25 32  2  0  0  0  0
 25 33  1  0  0  0  0
 27 28  2  0  0  0  0
 27 31  1  0  0  0  0
 29 34  1  0  0  0  0
 30 38  1  0  0  0  0
 31 34  2  0  0  0  0
 32 35  1  0  0  0  0
 33 36  2  0  0  0  0
 35 37  2  0  0  0  0
 36 37  1  0  0  0  0
M  END
> <PUBCHEM_COMPOUND_ID_TYPE>
0

> <PUBCHEM_TOTAL_CHARGE>
0

> <PUBCHEM_SUBSTANCE_ID>
310935275

> <PUBCHEM_SUBSTANCE_VERSION>
1

> <PUBCHEM_EXT_DATASOURCE_NAME>
4488

> <PUBCHEM_EXT_DATASOURCE_REGID>
SCHEMBL16112807

> <PUBCHEM_SUBSTANCE_COMMENT>
InChI=1S/C31H28FN3O5/c1-33-29(37)26-24-13-23(19-3-2-4-21(11-19)28(36)35-31-14-17(15-31)16-31)20(9-10-34-30(38)39)12-25(24)40-27(26)18-5-7-22(32)8-6-18/h2-8,11-13,17,34H,9-10,14-16H2,1H3,(H,33,37)(H,35,36)(H,38,39)
InChIKey=AAGPLINVJDOPEQ-UHFFFAOYSA-N

> <PUBCHEM_SUBSTANCE_SYNONYM>
SCHEMBL16112807

> <PUBCHEM_XREF_EXT_ID>
SCHEMBL16112807

> <PUBCHEM_EXT_DATASOURCE_URL>
https://www.surechembl.org/

> <PUBCHEM_EXT_SUBSTANCE_URL>
https://www.surechembl.org/chemical/SCHEMBL16112807

> <PUBCHEM_CID_ASSOCIATIONS>
117603345  1

> <PUBCHEM_COORDINATE_TYPE>
1
3

$$$$
