310939995
  -OEChem-07211613022D

 19 20  0     0  0  0  0  0  0999 V2000
   -3.0508    3.6995    0.0000 I   0  0  0  0  0  0  0  0  0  0  0  0
   -5.9085    2.0495    0.0000 Cl  0  0  0  0  0  0  0  0  0  0  0  0
   -5.9085    3.6995    0.0000 Cl  0  0  0  0  0  0  0  0  0  0  0  0
   -0.9074    2.4621    0.0000 O   0  0  0  0  0  0  0  0  0  0  0  0
    1.2360    2.0495    0.0000 O   0  0  0  0  0  0  0  0  0  0  0  0
   -3.7651    2.4621    0.0000 C   0  0  0  0  0  0  0  0  0  0  0  0
   -3.0508    2.0495    0.0000 C   0  0  0  0  0  0  0  0  0  0  0  0
   -3.7651    3.2870    0.0000 C   0  0  0  0  0  0  0  0  0  0  0  0
   -4.4796    2.0495    0.0000 C   0  0  0  0  0  0  0  0  0  0  0  0
   -5.1940    2.4621    0.0000 C   0  0  0  0  0  0  0  0  0  0  0  0
   -5.1940    3.2870    0.0000 C   0  0  0  0  0  0  0  0  0  0  0  0
   -4.4796    3.6995    0.0000 C   0  0  0  0  0  0  0  0  0  0  0  0
   -2.3363    2.4621    0.0000 C   0  0  0  0  0  0  0  0  0  0  0  0
   -3.0508    1.2245    0.0000 C   0  0  0  0  0  0  0  0  0  0  0  0
   -1.6218    2.0495    0.0000 C   0  0  0  0  0  0  0  0  0  0  0  0
   -2.3363    0.8121    0.0000 C   0  0  0  0  0  0  0  0  0  0  0  0
   -1.6218    1.2245    0.0000 C   0  0  0  0  0  0  0  0  0  0  0  0
   -0.1929    2.0495    0.0000 C   0  0  0  0  0  0  0  0  0  0  0  0
    0.5216    2.4621    0.0000 C   0  0  0  0  0  0  0  0  0  0  0  0
  1  8  1  0  0  0  0
  2 10  1  0  0  0  0
  3 11  1  0  0  0  0
  4 15  1  0  0  0  0
  4 18  1  0  0  0  0
  5 19  1  0  0  0  0
  6  7  1  0  0  0  0
  6  8  1  0  0  0  0
  6  9  2  0  0  0  0
  7 13  2  0  0  0  0
  7 14  1  0  0  0  0
  8 12  2  0  0  0  0
  9 10  1  0  0  0  0
 10 11  2  0  0  0  0
 11 12  1  0  0  0  0
 13 15  1  0  0  0  0
 14 16  2  0  0  0  0
 15 17  2  0  0  0  0
 16 17  1  0  0  0  0
 18 19  1  0  0  0  0
M  END
> <PUBCHEM_COMPOUND_ID_TYPE>
0

> <PUBCHEM_TOTAL_CHARGE>
0

> <PUBCHEM_SUBSTANCE_ID>
310939995

> <PUBCHEM_SUBSTANCE_VERSION>
1

> <PUBCHEM_EXT_DATASOURCE_NAME>
4488

> <PUBCHEM_EXT_DATASOURCE_REGID>
SCHEMBL16117925

> <PUBCHEM_SUBSTANCE_COMMENT>
InChI=1S/C14H11Cl2IO2/c15-12-7-11(14(17)8-13(12)16)9-2-1-3-10(6-9)19-5-4-18/h1-3,6-8,18H,4-5H2
InChIKey=BXFHNNWGBMNJAK-UHFFFAOYSA-N

> <PUBCHEM_SUBSTANCE_SYNONYM>
SCHEMBL16117925

> <PUBCHEM_XREF_EXT_ID>
SCHEMBL16117925

> <PUBCHEM_EXT_DATASOURCE_URL>
https://www.surechembl.org/

> <PUBCHEM_EXT_SUBSTANCE_URL>
https://www.surechembl.org/chemical/SCHEMBL16117925

> <PUBCHEM_CID_ASSOCIATIONS>
117607158  1

> <PUBCHEM_COORDINATE_TYPE>
1
3

$$$$
