310935419
  -OEChem-07211613022D

 27 30  0     1  0  0  0  0  0999 V2000
    6.9685   -1.3834    0.0000 F   0  0  0  0  0  0  0  0  0  0  0  0
    6.0718    0.0000    0.0000 F   0  0  0  0  0  0  0  0  0  0  0  0
    5.7900   -3.6380    0.0000 O   0  0  0  0  0  0  0  0  0  0  0  0
    5.7900   -2.2289    0.0000 O   0  0  0  0  0  0  0  0  0  0  0  0
    0.4355   -3.7917    0.0000 N   0  0  0  0  0  0  0  0  0  0  0  0
    0.0000   -4.5090    0.0000 N   0  0  0  0  0  0  0  0  0  0  0  0
    4.5603   -2.9206    0.0000 C   0  0  3  0  0  0  0  0  0  0  0  0
    4.9446   -2.2032    0.0000 C   0  0  0  0  0  0  0  0  0  0  0  0
    4.0991   -3.6124    0.0000 C   0  0  0  0  0  0  0  0  0  0  0  0
    3.3049   -3.3306    0.0000 C   0  0  0  0  0  0  0  0  0  0  0  0
    4.0991   -2.2545    0.0000 C   0  0  0  0  0  0  0  0  0  0  0  0
    5.3801   -2.9206    0.0000 C   0  0  0  0  0  0  0  0  0  0  0  0
    5.9437   -2.3314    0.0000 C   0  0  0  0  0  0  0  0  0  0  0  0
    2.6388   -3.8173    0.0000 C   0  0  0  0  0  0  0  0  0  0  0  0
    3.3049   -2.5364    0.0000 C   0  0  0  0  0  0  0  0  0  0  0  0
    4.5090   -1.5115    0.0000 C   0  0  0  0  0  0  0  0  0  0  0  0
    6.1487   -1.4347    0.0000 C   0  0  0  0  0  0  0  0  0  0  0  0
    1.2297   -3.9454    0.0000 C   0  0  0  0  0  0  0  0  0  0  0  0
    1.9214   -3.4843    0.0000 C   0  0  0  0  0  0  0  0  0  0  0  0
    1.3322   -4.8165    0.0000 C   0  0  0  0  0  0  0  0  0  0  0  0
    5.7131   -0.7430    0.0000 C   0  0  0  0  0  0  0  0  0  0  0  0
    2.7157   -4.6884    0.0000 C   0  0  0  0  0  0  0  0  0  0  0  0
    4.8677   -0.7686    0.0000 C   0  0  0  0  0  0  0  0  0  0  0  0
    2.0752   -5.1239    0.0000 C   0  0  0  0  0  0  0  0  0  0  0  0
    6.2255   -2.8438    0.0000 C   0  0  0  0  0  0  0  0  0  0  0  0
    0.5636   -5.1239    0.0000 C   0  0  0  0  0  0  0  0  0  0  0  0
    0.1025   -3.0487    0.0000 C   0  0  0  0  0  0  0  0  0  0  0  0
  1 17  1  0  0  0  0
  2 21  1  0  0  0  0
  3 12  2  0  0  0  0
  4 12  1  0  0  0  0
  5  6  1  0  0  0  0
  5 18  1  0  0  0  0
  5 27  1  0  0  0  0
  6 26  2  0  0  0  0
  7  8  1  0  0  0  0
  7  9  1  0  0  0  0
  7 11  1  0  0  0  0
  7 12  1  6  0  0  0
  8 13  1  0  0  0  0
  8 16  2  0  0  0  0
  9 10  2  0  0  0  0
 10 14  1  0  0  0  0
 10 15  1  0  0  0  0
 11 15  1  0  0  0  0
 13 17  2  0  0  0  0
 13 25  1  0  0  0  0
 14 19  2  0  0  0  0
 14 22  1  0  0  0  0
 16 23  1  0  0  0  0
 17 21  1  0  0  0  0
 18 19  1  0  0  0  0
 18 20  2  0  0  0  0
 20 24  1  0  0  0  0
 20 26  1  0  0  0  0
 21 23  2  0  0  0  0
 22 24  2  0  0  0  0
M  END
> <PUBCHEM_COMPOUND_ID_TYPE>
0

> <PUBCHEM_TOTAL_CHARGE>
0

> <PUBCHEM_SUBSTANCE_ID>
310935419

> <PUBCHEM_SUBSTANCE_VERSION>
1

> <PUBCHEM_EXT_DATASOURCE_NAME>
4488

> <PUBCHEM_EXT_DATASOURCE_REGID>
SCHEMBL16112960

> <PUBCHEM_SUBSTANCE_COMMENT>
InChI=1S/C21H18F2N2O2/c1-12-16(5-6-17(22)19(12)23)21(20(26)27)8-7-14(10-21)13-3-4-15-11-24-25(2)18(15)9-13/h3-6,9-11H,7-8H2,1-2H3,(H,26,27)/t21-/m0/s1
InChIKey=PIYJJOXOLNVNIF-NRFANRHFSA-N

> <PUBCHEM_SUBSTANCE_SYNONYM>
SCHEMBL16112960

> <PUBCHEM_XREF_EXT_ID>
SCHEMBL16112960

> <PUBCHEM_EXT_DATASOURCE_URL>
https://www.surechembl.org/

> <PUBCHEM_EXT_SUBSTANCE_URL>
https://www.surechembl.org/chemical/SCHEMBL16112960

> <PUBCHEM_CID_ASSOCIATIONS>
117603463  1

> <PUBCHEM_COORDINATE_TYPE>
1
3

> <PUBCHEM_BONDANNOTATIONS>
7  12  6

$$$$
