310942871
  -OEChem-07211613022D

 50 54  0     1  0  0  0  0  0999 V2000
   -4.5714    1.7460    0.0000 F   0  0  0  0  0  0  0  0  0  0  0  0
   -4.5714   -1.5706    0.0000 F   0  0  0  0  0  0  0  0  0  0  0  0
   -1.7987   -0.3773    0.0000 O   0  0  0  0  0  0  0  0  0  0  0  0
    2.4831   -0.4650    0.0000 O   0  0  0  0  0  0  0  0  0  0  0  0
   -0.9564   -1.8162    0.0000 O   0  0  0  0  0  0  0  0  0  0  0  0
    3.9221   -0.4650    0.0000 O   0  0  0  0  0  0  0  0  0  0  0  0
    3.2026   -4.6767    0.0000 O   0  0  0  0  0  0  0  0  0  0  0  0
    5.2733   -2.6059    0.0000 O   0  0  0  0  0  0  0  0  0  0  0  0
   -2.1321    1.8162    0.0000 N   0  0  0  0  0  0  0  0  0  0  0  0
   -0.5528    0.3422    0.0000 N   0  0  0  0  0  0  0  0  0  0  0  0
   -2.4129    0.5001    0.0000 N   0  0  0  0  0  0  0  0  0  0  0  0
    2.5007    1.6584    0.0000 N   0  0  0  0  0  0  0  0  0  0  0  0
    4.0625   -3.4834    0.0000 N   0  0  0  0  0  0  0  0  0  0  0  0
    2.9745   -1.6758    0.0000 N   0  0  0  0  0  0  0  0  0  0  0  0
   -0.9564    1.0441    0.0000 C   0  0  3  0  0  0  0  0  0  0  0  0
   -1.7987    1.0792    0.0000 C   0  0  0  0  0  0  0  0  0  0  0  0
   -0.3597    1.6584    0.0000 C   0  0  0  0  0  0  0  0  0  0  0  0
   -3.1324    0.9213    0.0000 C   0  0  0  0  0  0  0  0  0  0  0  0
   -2.9569    1.7286    0.0000 C   0  0  0  0  0  0  0  0  0  0  0  0
   -3.8519    0.5001    0.0000 C   0  0  0  0  0  0  0  0  0  0  0  0
   -0.9389   -0.3773    0.0000 C   0  0  0  0  0  0  0  0  0  0  0  0
    0.7107    0.3422    0.0000 C   0  0  0  0  0  0  0  0  0  0  0  0
   -1.7110    2.7463    0.0000 C   0  0  0  0  0  0  0  0  0  0  0  0
    1.5355    0.7283    0.0000 C   0  0  3  0  0  0  0  0  0  0  0  0
   -4.5714    0.9213    0.0000 C   0  0  0  0  0  0  0  0  0  0  0  0
   -3.8519   -0.3246    0.0000 C   0  0  0  0  0  0  0  0  0  0  0  0
   -0.6054    2.4480    0.0000 C   0  0  0  0  0  0  0  0  0  0  0  0
    0.2369    2.2023    0.0000 C   0  0  0  0  0  0  0  0  0  0  0  0
    0.4475    1.4302    0.0000 C   0  0  0  0  0  0  0  0  0  0  0  0
   -0.5528   -1.0968    0.0000 C   0  0  3  0  0  0  0  0  0  0  0  0
    2.2550    0.3422    0.0000 C   0  0  3  0  0  0  0  0  0  0  0  0
   -2.3076    3.3254    0.0000 C   0  0  0  0  0  0  0  0  0  0  0  0
   -4.5714   -0.7283    0.0000 C   0  0  0  0  0  0  0  0  0  0  0  0
    1.6934    1.5355    0.0000 C   0  0  0  0  0  0  0  0  0  0  0  0
   -5.2733    0.5001    0.0000 C   0  0  0  0  0  0  0  0  0  0  0  0
    2.8516    0.9213    0.0000 C   0  0  0  0  0  0  0  0  0  0  0  0
   -5.2733   -0.3246    0.0000 C   0  0  0  0  0  0  0  0  0  0  0  0
   -2.0795    4.1327    0.0000 C   0  0  0  0  0  0  0  0  0  0  0  0
   -3.0973    3.1324    0.0000 C   0  0  0  0  0  0  0  0  0  0  0  0
    0.2720   -1.0968    0.0000 C   0  0  0  0  0  0  0  0  0  0  0  0
    3.1675   -0.8862    0.0000 C   0  0  0  0  0  0  0  0  0  0  0  0
   -2.6411    4.6767    0.0000 C   0  0  0  0  0  0  0  0  0  0  0  0
   -3.6588    3.6940    0.0000 C   0  0  0  0  0  0  0  0  0  0  0  0
   -3.4482    4.4836    0.0000 C   0  0  0  0  0  0  0  0  0  0  0  0
    3.9572   -4.2731    0.0000 C   0  0  0  0  0  0  0  0  0  0  0  0
    4.8872   -3.3780    0.0000 C   0  0  0  0  0  0  0  0  0  0  0  0
    3.5009   -2.9043    0.0000 C   0  0  0  0  0  0  0  0  0  0  0  0
    3.6940   -2.0970    0.0000 C   0  0  0  0  0  0  0  0  0  0  0  0
    4.6942   -4.6591    0.0000 C   0  0  0  0  0  0  0  0  0  0  0  0
    5.2558   -4.0800    0.0000 C   0  0  0  0  0  0  0  0  0  0  0  0
  1 25  1  0  0  0  0
  2 33  1  0  0  0  0
  3 21  2  0  0  0  0
 31  4  1  1  0  0  0
  4 41  1  0  0  0  0
 30  5  1  6  0  0  0
  6 41  2  0  0  0  0
  7 45  2  0  0  0  0
  8 46  2  0  0  0  0
  9 16  1  0  0  0  0
  9 19  1  0  0  0  0
  9 23  1  0  0  0  0
 15 10  1  1  0  0  0
 10 21  1  0  0  0  0
 10 22  1  0  0  0  0
 11 16  2  0  0  0  0
 11 18  1  0  0  0  0
 12 34  1  0  0  0  0
 12 36  1  0  0  0  0
 13 45  1  0  0  0  0
 13 46  1  0  0  0  0
 13 47  1  0  0  0  0
 14 41  1  0  0  0  0
 14 48  1  0  0  0  0
 15 16  1  0  0  0  0
 15 17  1  0  0  0  0
 17 27  1  0  0  0  0
 17 28  1  0  0  0  0
 17 29  1  0  0  0  0
 18 19  2  0  0  0  0
 18 20  1  0  0  0  0
 20 25  2  0  0  0  0
 20 26  1  0  0  0  0
 21 30  1  0  0  0  0
 24 22  1  6  0  0  0
 23 32  1  0  0  0  0
 24 31  1  0  0  0  0
 24 34  1  0  0  0  0
 25 35  1  0  0  0  0
 26 33  2  0  0  0  0
 30 40  1  0  0  0  0
 31 36  1  0  0  0  0
 32 38  2  0  0  0  0
 32 39  1  0  0  0  0
 33 37  1  0  0  0  0
 35 37  2  0  0  0  0
 38 42  1  0  0  0  0
 39 43  2  0  0  0  0
 42 44  2  0  0  0  0
 43 44  1  0  0  0  0
 45 49  1  0  0  0  0
 46 50  1  0  0  0  0
 47 48  1  0  0  0  0
 49 50  2  0  0  0  0
M  END
> <PUBCHEM_COMPOUND_ID_TYPE>
0

> <PUBCHEM_TOTAL_CHARGE>
0

> <PUBCHEM_SUBSTANCE_ID>
310942871

> <PUBCHEM_SUBSTANCE_VERSION>
1

> <PUBCHEM_EXT_DATASOURCE_NAME>
4488

> <PUBCHEM_EXT_DATASOURCE_REGID>
SCHEMBL16120929

> <PUBCHEM_SUBSTANCE_COMMENT>
InChI=1S/C36H42F2N6O6/c1-22(45)34(48)44(20-24-17-39-18-29(24)50-35(49)40-14-15-43-30(46)12-13-31(43)47)32(36(2,3)4)33-41-28(26-16-25(37)10-11-27(26)38)21-42(33)19-23-8-6-5-7-9-23/h5-13,16,21-22,24,29,32,39,45H,14-15,17-20H2,1-4H3,(H,40,49)/t22-,24-,29+,32-/m0/s1
InChIKey=SEPVKEPPTVWNOJ-ZVIOPGEWSA-N

> <PUBCHEM_SUBSTANCE_SYNONYM>
SCHEMBL16120929

> <PUBCHEM_XREF_EXT_ID>
SCHEMBL16120929

> <PUBCHEM_EXT_DATASOURCE_URL>
https://www.surechembl.org/

> <PUBCHEM_EXT_SUBSTANCE_URL>
https://www.surechembl.org/chemical/SCHEMBL16120929

> <PUBCHEM_CID_ASSOCIATIONS>
117609359  1

> <PUBCHEM_COORDINATE_TYPE>
1
3

> <PUBCHEM_BONDANNOTATIONS>
15  10  5
24  22  6
31  4  5
30  5  6

$$$$
