310930733
  -OEChem-07211613022D

 13 13  0     0  0  0  0  0  0999 V2000
    0.7279   -2.4834    0.0000 Br  0  0  0  0  0  0  0  0  0  0  0  0
    0.7279   -0.8278    0.0000 O   0  0  0  0  0  0  0  0  0  0  0  0
    3.5681    0.0000    0.0000 O   0  0  0  0  0  0  0  0  0  0  0  0
    4.2817   -1.2417    0.0000 O   0  0  0  0  0  0  0  0  0  0  0  0
    2.1409    0.0000    0.0000 N   0  0  0  0  0  0  0  0  0  0  0  0
    2.1409   -0.8278    0.0000 C   0  0  0  0  0  0  0  0  0  0  0  0
    1.4272   -1.2417    0.0000 C   0  0  0  0  0  0  0  0  0  0  0  0
    2.8545   -1.2417    0.0000 C   0  0  0  0  0  0  0  0  0  0  0  0
    1.4272   -2.0695    0.0000 C   0  0  0  0  0  0  0  0  0  0  0  0
    2.8545   -2.0695    0.0000 C   0  0  0  0  0  0  0  0  0  0  0  0
    3.5681   -0.8278    0.0000 C   0  0  0  0  0  0  0  0  0  0  0  0
    2.1409   -2.4834    0.0000 C   0  0  0  0  0  0  0  0  0  0  0  0
    0.0000   -1.2560    0.0000 C   0  0  0  0  0  0  0  0  0  0  0  0
  1  9  1  0  0  0  0
  2  7  1  0  0  0  0
  2 13  1  0  0  0  0
  3 11  2  0  0  0  0
  4 11  1  0  0  0  0
  5  6  1  0  0  0  0
  6  7  1  0  0  0  0
  6  8  2  0  0  0  0
  7  9  2  0  0  0  0
  8 10  1  0  0  0  0
  8 11  1  0  0  0  0
  9 12  1  0  0  0  0
 10 12  2  0  0  0  0
M  END
> <PUBCHEM_COMPOUND_ID_TYPE>
0

> <PUBCHEM_TOTAL_CHARGE>
0

> <PUBCHEM_SUBSTANCE_ID>
310930733

> <PUBCHEM_SUBSTANCE_VERSION>
1

> <PUBCHEM_EXT_DATASOURCE_NAME>
4488

> <PUBCHEM_EXT_DATASOURCE_REGID>
SCHEMBL16108030

> <PUBCHEM_SUBSTANCE_COMMENT>
InChI=1S/C8H8BrNO3/c1-13-7-5(9)3-2-4(6(7)10)8(11)12/h2-3H,10H2,1H3,(H,11,12)
InChIKey=PNQXBEIQJQLGQQ-UHFFFAOYSA-N

> <PUBCHEM_SUBSTANCE_SYNONYM>
SCHEMBL16108030

> <PUBCHEM_XREF_EXT_ID>
SCHEMBL16108030

> <PUBCHEM_EXT_DATASOURCE_URL>
https://www.surechembl.org/

> <PUBCHEM_EXT_SUBSTANCE_URL>
https://www.surechembl.org/chemical/SCHEMBL16108030

> <PUBCHEM_CID_ASSOCIATIONS>
117599761  1

> <PUBCHEM_COORDINATE_TYPE>
1
3

$$$$
