310941645
  -OEChem-07211613022D

 27 30  0     0  0  0  0  0  0999 V2000
    0.7688    1.7700    0.0000 S   0  0  0  0  0  0  0  0  0  0  0  0
   -1.5912   -0.9118    0.0000 O   0  0  0  0  0  0  0  0  0  0  0  0
   -0.1609   -0.9118    0.0000 O   0  0  0  0  0  0  0  0  0  0  0  0
    3.6830    0.7867    0.0000 O   0  0  0  0  0  0  0  0  0  0  0  0
    0.6257    0.4112    0.0000 N   0  0  0  0  0  0  0  0  0  0  0  0
    2.0203    0.9476    0.0000 N   0  0  0  0  0  0  0  0  0  0  0  0
   -3.0394   -1.7700    0.0000 N   0  0  0  0  0  0  0  0  0  0  0  0
   -4.5055   -0.9118    0.0000 N   0  0  0  0  0  0  0  0  0  0  0  0
   -0.8582    0.3397    0.0000 C   0  0  0  0  0  0  0  0  0  0  0  0
   -2.3421   -0.5006    0.0000 C   0  0  0  0  0  0  0  0  0  0  0  0
   -2.3242    0.3397    0.0000 C   0  0  0  0  0  0  0  0  0  0  0  0
   -0.1609    0.7509    0.0000 C   0  0  0  0  0  0  0  0  0  0  0  0
   -0.9118   -0.4827    0.0000 C   0  0  0  0  0  0  0  0  0  0  0  0
   -1.6091    0.7509    0.0000 C   0  0  0  0  0  0  0  0  0  0  0  0
   -3.0572   -0.9118    0.0000 C   0  0  0  0  0  0  0  0  0  0  0  0
    1.1621    1.0548    0.0000 C   0  0  0  0  0  0  0  0  0  0  0  0
   -3.7724   -0.5006    0.0000 C   0  0  0  0  0  0  0  0  0  0  0  0
   -3.0572    0.7330    0.0000 C   0  0  0  0  0  0  0  0  0  0  0  0
   -0.0358    1.5912    0.0000 C   0  0  0  0  0  0  0  0  0  0  0  0
   -3.7546    0.3218    0.0000 C   0  0  0  0  0  0  0  0  0  0  0  0
    2.3600    0.1967    0.0000 C   0  0  0  0  0  0  0  0  0  0  0  0
    3.1645    0.0894    0.0000 C   0  0  0  0  0  0  0  0  0  0  0  0
    1.8772   -0.5006    0.0000 C   0  0  0  0  0  0  0  0  0  0  0  0
    3.5042   -0.6794    0.0000 C   0  0  0  0  0  0  0  0  0  0  0  0
    2.1991   -1.2515    0.0000 C   0  0  0  0  0  0  0  0  0  0  0  0
    3.0394   -1.3409    0.0000 C   0  0  0  0  0  0  0  0  0  0  0  0
    4.5055    0.6794    0.0000 C   0  0  0  0  0  0  0  0  0  0  0  0
  1 16  1  0  0  0  0
  1 19  1  0  0  0  0
  2 10  1  0  0  0  0
  2 13  1  0  0  0  0
  3 13  2  0  0  0  0
  4 22  1  0  0  0  0
  4 27  1  0  0  0  0
  5 12  1  0  0  0  0
  5 16  2  0  0  0  0
  6 16  1  0  0  0  0
  6 21  1  0  0  0  0
  7 15  1  0  0  0  0
  8 17  1  0  0  0  0
  9 12  1  0  0  0  0
  9 13  1  0  0  0  0
  9 14  2  0  0  0  0
 10 11  1  0  0  0  0
 10 15  2  0  0  0  0
 11 14  1  0  0  0  0
 11 18  2  0  0  0  0
 12 19  2  0  0  0  0
 15 17  1  0  0  0  0
 17 20  2  0  0  0  0
 18 20  1  0  0  0  0
 21 22  1  0  0  0  0
 21 23  2  0  0  0  0
 22 24  2  0  0  0  0
 23 25  1  0  0  0  0
 24 26  1  0  0  0  0
 25 26  2  0  0  0  0
M  END
> <PUBCHEM_COMPOUND_ID_TYPE>
0

> <PUBCHEM_TOTAL_CHARGE>
0

> <PUBCHEM_SUBSTANCE_ID>
310941645

> <PUBCHEM_SUBSTANCE_VERSION>
1

> <PUBCHEM_EXT_DATASOURCE_NAME>
4488

> <PUBCHEM_EXT_DATASOURCE_REGID>
SCHEMBL16119676

> <PUBCHEM_SUBSTANCE_COMMENT>
InChI=1S/C19H16N4O3S/c1-25-15-5-3-2-4-13(15)22-19-23-14(9-27-19)11-8-10-6-7-12(20)16(21)17(10)26-18(11)24/h2-9H,20-21H2,1H3,(H,22,23)
InChIKey=WAPAOOQXKOFMCG-UHFFFAOYSA-N

> <PUBCHEM_SUBSTANCE_SYNONYM>
SCHEMBL16119676

> <PUBCHEM_XREF_EXT_ID>
SCHEMBL16119676

> <PUBCHEM_EXT_DATASOURCE_URL>
https://www.surechembl.org/

> <PUBCHEM_EXT_SUBSTANCE_URL>
https://www.surechembl.org/chemical/SCHEMBL16119676

> <PUBCHEM_CID_ASSOCIATIONS>
117608430  1

> <PUBCHEM_COORDINATE_TYPE>
1
3

$$$$
