310939937
  -OEChem-07211613022D

 28 31  0     0  0  0  0  0  0999 V2000
    1.0164    4.6730    0.0000 Cl  0  0  0  0  0  0  0  0  0  0  0  0
   -0.4125    2.1980    0.0000 O   0  0  0  0  0  0  0  0  0  0  0  0
   -1.8414    4.6730    0.0000 O   0  0  0  0  0  0  0  0  0  0  0  0
    0.3020   -3.0230    0.0000 O   0  0  0  0  0  0  0  0  0  0  0  0
   -1.1270   -1.0313    0.0000 N   0  0  0  0  0  0  0  0  0  0  0  0
   -1.1270    0.9605    0.0000 N   0  0  0  0  0  0  0  0  0  0  0  0
   -1.8414    3.0230    0.0000 N   0  0  0  0  0  0  0  0  0  0  0  0
   -1.1270   -3.0230    0.0000 N   0  0  0  0  0  0  0  0  0  0  0  0
   -1.1270   -0.2063    0.0000 C   0  0  0  0  0  0  0  0  0  0  0  0
   -1.7103    0.3771    0.0000 C   0  0  0  0  0  0  0  0  0  0  0  0
   -0.5436    0.3771    0.0000 C   0  0  0  0  0  0  0  0  0  0  0  0
   -1.1270   -2.1980    0.0000 C   0  0  0  0  0  0  0  0  0  0  0  0
    0.3020    3.4355    0.0000 C   0  0  0  0  0  0  0  0  0  0  0  0
   -1.7103   -1.6146    0.0000 C   0  0  0  0  0  0  0  0  0  0  0  0
   -0.5436   -1.6146    0.0000 C   0  0  0  0  0  0  0  0  0  0  0  0
    1.0164    3.0230    0.0000 C   0  0  0  0  0  0  0  0  0  0  0  0
   -1.1270    1.7855    0.0000 C   0  0  0  0  0  0  0  0  0  0  0  0
   -1.1270    3.4355    0.0000 C   0  0  0  0  0  0  0  0  0  0  0  0
    0.3020    4.2605    0.0000 C   0  0  0  0  0  0  0  0  0  0  0  0
   -0.4125    3.0230    0.0000 C   0  0  0  0  0  0  0  0  0  0  0  0
   -1.1270    4.2605    0.0000 C   0  0  0  0  0  0  0  0  0  0  0  0
    1.4289    2.3085    0.0000 C   0  0  0  0  0  0  0  0  0  0  0  0
    1.8414    3.0230    0.0000 C   0  0  0  0  0  0  0  0  0  0  0  0
   -0.4125    4.6730    0.0000 C   0  0  0  0  0  0  0  0  0  0  0  0
   -1.8414    2.1980    0.0000 C   0  0  0  0  0  0  0  0  0  0  0  0
   -0.4125   -3.4355    0.0000 C   0  0  0  0  0  0  0  0  0  0  0  0
   -0.4125   -4.2605    0.0000 C   0  0  0  0  0  0  0  0  0  0  0  0
    0.3020   -4.6730    0.0000 C   0  0  0  0  0  0  0  0  0  0  0  0
  1 19  1  0  0  0  0
  2 17  2  0  0  0  0
  3 21  1  0  0  0  0
  4 26  2  0  0  0  0
  5  9  1  0  0  0  0
  5 14  1  0  0  0  0
  5 15  1  0  0  0  0
  6 10  1  0  0  0  0
  6 11  1  0  0  0  0
  6 17  1  0  0  0  0
  7 18  1  0  0  0  0
  7 25  1  0  0  0  0
  8 12  1  0  0  0  0
  8 26  1  0  0  0  0
  9 10  1  0  0  0  0
  9 11  1  0  0  0  0
 12 14  1  0  0  0  0
 12 15  1  0  0  0  0
 13 16  1  0  0  0  0
 13 19  2  0  0  0  0
 13 20  1  0  0  0  0
 16 22  1  0  0  0  0
 16 23  1  0  0  0  0
 17 25  1  0  0  0  0
 18 20  2  0  0  0  0
 18 21  1  0  0  0  0
 19 24  1  0  0  0  0
 21 24  2  0  0  0  0
 22 23  1  0  0  0  0
 26 27  1  0  0  0  0
 27 28  2  0  0  0  0
M  END
> <PUBCHEM_COMPOUND_ID_TYPE>
0

> <PUBCHEM_TOTAL_CHARGE>
0

> <PUBCHEM_SUBSTANCE_ID>
310939937

> <PUBCHEM_SUBSTANCE_VERSION>
1

> <PUBCHEM_EXT_DATASOURCE_NAME>
4488

> <PUBCHEM_EXT_DATASOURCE_REGID>
SCHEMBL16117867

> <PUBCHEM_SUBSTANCE_COMMENT>
InChI=1S/C20H25ClN4O3/c1-2-19(27)23-13-8-24(9-13)14-10-25(11-14)20(28)7-22-17-5-15(12-3-4-12)16(21)6-18(17)26/h2,5-6,12-14,22,26H,1,3-4,7-11H2,(H,23,27)
InChIKey=IWZMQEUEJNQQLG-UHFFFAOYSA-N

> <PUBCHEM_SUBSTANCE_SYNONYM>
SCHEMBL16117867

> <PUBCHEM_XREF_EXT_ID>
SCHEMBL16117867

> <PUBCHEM_EXT_DATASOURCE_URL>
https://www.surechembl.org/

> <PUBCHEM_EXT_SUBSTANCE_URL>
https://www.surechembl.org/chemical/SCHEMBL16117867

> <PUBCHEM_CID_ASSOCIATIONS>
86278958  1

> <PUBCHEM_COORDINATE_TYPE>
1
3

$$$$
