310940924
  -OEChem-07211613022D

 14 15  0     0  0  0  0  0  0999 V2000
   -1.0109   -0.8436    0.0000 O   0  0  0  0  0  0  0  0  0  0  0  0
   -2.4611   -0.8436    0.0000 O   0  0  0  0  0  0  0  0  0  0  0  0
   -1.7360    0.4113    0.0000 N   0  0  0  0  0  0  0  0  0  0  0  0
   -0.2998   -0.3974    0.0000 C   0  0  0  0  0  0  0  0  0  0  0  0
   -0.2719    0.4392    0.0000 C   0  0  0  0  0  0  0  0  0  0  0  0
    0.4392    0.8297    0.0000 C   0  0  0  0  0  0  0  0  0  0  0  0
   -1.7081   -0.3835    0.0000 C   0  0  0  0  0  0  0  0  0  0  0  0
   -1.0388    0.8436    0.0000 C   0  0  0  0  0  0  0  0  0  0  0  0
    1.1643    0.4392    0.0000 C   0  0  0  0  0  0  0  0  0  0  0  0
    0.4532   -0.8157    0.0000 C   0  0  0  0  0  0  0  0  0  0  0  0
    1.1643   -0.3974    0.0000 C   0  0  0  0  0  0  0  0  0  0  0  0
    1.8754    0.8436    0.0000 C   0  0  0  0  0  0  0  0  0  0  0  0
    2.4611    0.5368    0.0000 C   0  0  0  0  0  0  0  0  0  0  0  0
    2.3495    0.0488    0.0000 C   0  0  0  0  0  0  0  0  0  0  0  0
  1  4  1  0  0  0  0
  1  7  1  0  0  0  0
  2  7  2  0  0  0  0
  3  7  1  0  0  0  0
  3  8  1  0  0  0  0
  4  5  2  0  0  0  0
  4 10  1  0  0  0  0
  5  6  1  0  0  0  0
  5  8  1  0  0  0  0
  6  9  2  0  0  0  0
  9 11  1  0  0  0  0
  9 12  1  0  0  0  0
 10 11  2  0  0  0  0
 12 13  1  0  0  0  0
 13 14  1  0  0  0  0
M  END
> <PUBCHEM_COMPOUND_ID_TYPE>
0

> <PUBCHEM_TOTAL_CHARGE>
0

> <PUBCHEM_SUBSTANCE_ID>
310940924

> <PUBCHEM_SUBSTANCE_VERSION>
1

> <PUBCHEM_EXT_DATASOURCE_NAME>
4488

> <PUBCHEM_EXT_DATASOURCE_REGID>
SCHEMBL16118883

> <PUBCHEM_SUBSTANCE_COMMENT>
InChI=1S/C11H13NO2/c1-2-3-8-4-5-10-9(6-8)7-12-11(13)14-10/h4-6H,2-3,7H2,1H3,(H,12,13)
InChIKey=BNMADBAVTNOOJN-UHFFFAOYSA-N

> <PUBCHEM_SUBSTANCE_SYNONYM>
SCHEMBL16118883

> <PUBCHEM_XREF_EXT_ID>
SCHEMBL16118883

> <PUBCHEM_EXT_DATASOURCE_URL>
https://www.surechembl.org/

> <PUBCHEM_EXT_SUBSTANCE_URL>
https://www.surechembl.org/chemical/SCHEMBL16118883

> <PUBCHEM_CID_ASSOCIATIONS>
117607833  1

> <PUBCHEM_COORDINATE_TYPE>
1
3

> <PUBCHEM_BONDANNOTATIONS>
13  14  3

$$$$
