310938808
  -OEChem-07211613022D

 26 29  0     0  0  0  0  0  0999 V2000
    1.7422   -9.8725    0.0000 F   0  0  0  0  0  0  0  0  0  0  0  0
   -0.1946   -5.3176    0.0000 O   0  0  0  0  0  0  0  0  0  0  0  0
    1.0025   -7.1120    0.0000 N   0  0  0  0  0  0  0  0  0  0  0  0
   -1.5770   -6.0321    0.0000 N   0  0  0  0  0  0  0  0  0  0  0  0
   -1.5770   -7.3670    0.0000 N   0  0  0  0  0  0  0  0  0  0  0  0
    0.0044   -8.1638    0.0000 N   0  0  0  0  0  0  0  0  0  0  0  0
    1.0025   -6.2870    0.0000 C   0  0  0  0  0  0  0  0  0  0  0  0
   -0.2670   -6.6995    0.0000 C   0  0  0  0  0  0  0  0  0  0  0  0
    0.2179   -6.0321    0.0000 C   0  0  0  0  0  0  0  0  0  0  0  0
    0.2179   -7.3670    0.0000 C   0  0  0  0  0  0  0  0  0  0  0  0
   -1.0920   -6.6995    0.0000 C   0  0  0  0  0  0  0  0  0  0  0  0
    1.5859   -7.6954    0.0000 C   0  0  0  0  0  0  0  0  0  0  0  0
   -2.3616   -6.2870    0.0000 C   0  0  0  0  0  0  0  0  0  0  0  0
   -2.3616   -7.1120    0.0000 C   0  0  0  0  0  0  0  0  0  0  0  0
    1.8275   -6.2870    0.0000 C   0  0  0  0  0  0  0  0  0  0  0  0
    1.4150   -5.5725    0.0000 C   0  0  0  0  0  0  0  0  0  0  0  0
    1.3723   -8.4923    0.0000 C   0  0  0  0  0  0  0  0  0  0  0  0
    2.3828   -7.4818    0.0000 C   0  0  0  0  0  0  0  0  0  0  0  0
    1.9557   -9.0756    0.0000 C   0  0  0  0  0  0  0  0  0  0  0  0
    2.9661   -8.0652    0.0000 C   0  0  0  0  0  0  0  0  0  0  0  0
   -3.0760   -5.8745    0.0000 C   0  0  0  0  0  0  0  0  0  0  0  0
   -3.0760   -7.5245    0.0000 C   0  0  0  0  0  0  0  0  0  0  0  0
    2.7526   -8.8621    0.0000 C   0  0  0  0  0  0  0  0  0  0  0  0
   -3.7905   -6.2870    0.0000 C   0  0  0  0  0  0  0  0  0  0  0  0
   -3.7905   -7.1120    0.0000 C   0  0  0  0  0  0  0  0  0  0  0  0
    3.7630   -7.8517    0.0000 C   0  0  0  0  0  0  0  0  0  0  0  0
  1 19  1  0  0  0  0
  2  9  2  0  0  0  0
  3  7  1  0  0  0  0
  3 10  1  0  0  0  0
  3 12  1  0  0  0  0
  4 11  2  0  0  0  0
  4 13  1  0  0  0  0
  5 11  1  0  0  0  0
  5 14  1  0  0  0  0
  6 10  1  0  0  0  0
  7  9  1  0  0  0  0
  7 15  1  0  0  0  0
  7 16  1  0  0  0  0
  8  9  1  0  0  0  0
  8 10  2  0  0  0  0
  8 11  1  0  0  0  0
 12 17  2  0  0  0  0
 12 18  1  0  0  0  0
 13 14  2  0  0  0  0
 13 21  1  0  0  0  0
 14 22  1  0  0  0  0
 17 19  1  0  0  0  0
 18 20  2  0  0  0  0
 19 23  2  0  0  0  0
 20 23  1  0  0  0  0
 20 26  1  0  0  0  0
 21 24  2  0  0  0  0
 22 25  2  0  0  0  0
 24 25  1  0  0  0  0
M  END
> <PUBCHEM_COMPOUND_ID_TYPE>
0

> <PUBCHEM_TOTAL_CHARGE>
0

> <PUBCHEM_SUBSTANCE_ID>
310938808

> <PUBCHEM_SUBSTANCE_VERSION>
1

> <PUBCHEM_EXT_DATASOURCE_NAME>
4488

> <PUBCHEM_EXT_DATASOURCE_REGID>
SCHEMBL16116725

> <PUBCHEM_SUBSTANCE_COMMENT>
InChI=1S/C20H19FN4O/c1-11-8-12(21)10-13(9-11)25-18(22)16(17(26)20(25,2)3)19-23-14-6-4-5-7-15(14)24-19/h4-10H,22H2,1-3H3,(H,23,24)
InChIKey=ZWTUFHGOTGXDDR-UHFFFAOYSA-N

> <PUBCHEM_SUBSTANCE_SYNONYM>
SCHEMBL16116725

> <PUBCHEM_XREF_EXT_ID>
SCHEMBL16116725

> <PUBCHEM_EXT_DATASOURCE_URL>
https://www.surechembl.org/

> <PUBCHEM_EXT_SUBSTANCE_URL>
https://www.surechembl.org/chemical/SCHEMBL16116725

> <PUBCHEM_CID_ASSOCIATIONS>
117606216  1

> <PUBCHEM_COORDINATE_TYPE>
1
3

$$$$
