310945816
  -OEChem-07211613022D

 36 39  0     1  0  0  0  0  0999 V2000
    3.6811    1.3037    0.0000 O   0  0  0  0  0  0  0  0  0  0  0  0
   -2.2170    2.5586    0.0000 O   0  0  0  0  0  0  0  0  0  0  0  0
    1.3944    1.3037    0.0000 O   0  0  0  0  0  0  0  0  0  0  0  0
   -0.0558    1.3037    0.0000 O   0  0  0  0  0  0  0  0  0  0  0  0
    0.6693    0.8854    0.0000 O   0  0  0  0  0  0  0  0  0  0  0  0
   -2.9560   -2.8654    0.0000 O   0  0  0  0  0  0  0  0  0  0  0  0
    1.3944   -0.3555    0.0000 N   0  0  0  0  0  0  0  0  0  0  0  0
   -0.7808    0.0627    0.0000 N   0  0  0  0  0  0  0  0  0  0  0  0
   -2.2170    0.8993    0.0000 N   0  0  0  0  0  0  0  0  0  0  0  0
    2.8584    1.3177    0.0000 C   0  0  3  0  0  0  0  0  0  0  0  0
   -1.4919    2.1682    0.0000 C   0  0  0  0  0  0  0  0  0  0  0  0
    2.1055    0.8436    0.0000 C   0  0  0  0  0  0  0  0  0  0  0  0
    3.2628    0.6205    0.0000 C   0  0  0  0  0  0  0  0  0  0  0  0
   -1.5059    1.3316    0.0000 C   0  0  3  0  0  0  0  0  0  0  0  0
    2.1194    0.0627    0.0000 C   0  0  3  0  0  0  0  0  0  0  0  0
   -1.0876    2.8654    0.0000 C   0  0  0  0  0  0  0  0  0  0  0  0
   -0.6833    2.1821    0.0000 C   0  0  0  0  0  0  0  0  0  0  0  0
   -0.7948    0.8993    0.0000 C   0  0  0  0  0  0  0  0  0  0  0  0
   -0.0279   -0.3416    0.0000 C   0  0  3  0  0  0  0  0  0  0  0  0
    2.8584    2.1543    0.0000 C   0  0  0  0  0  0  0  0  0  0  0  0
    0.6693    0.0488    0.0000 C   0  0  0  0  0  0  0  0  0  0  0  0
    2.8445   -0.3416    0.0000 C   0  0  0  0  0  0  0  0  0  0  0  0
   -0.0558   -1.1782    0.0000 C   0  0  0  0  0  0  0  0  0  0  0  0
    2.8445   -1.1922    0.0000 C   0  0  0  0  0  0  0  0  0  0  0  0
   -0.7669   -1.6104    0.0000 C   0  0  0  0  0  0  0  0  0  0  0  0
    3.5695   -1.6104    0.0000 C   0  0  0  0  0  0  0  0  0  0  0  0
    2.1333   -1.6104    0.0000 C   0  0  0  0  0  0  0  0  0  0  0  0
   -1.5199   -1.2061    0.0000 C   0  0  0  0  0  0  0  0  0  0  0  0
   -0.7808   -2.4332    0.0000 C   0  0  0  0  0  0  0  0  0  0  0  0
   -2.2170   -2.4332    0.0000 C   0  0  0  0  0  0  0  0  0  0  0  0
   -2.2030   -1.6104    0.0000 C   0  0  0  0  0  0  0  0  0  0  0  0
   -1.4780   -2.8514    0.0000 C   0  0  0  0  0  0  0  0  0  0  0  0
    3.5695   -2.4332    0.0000 C   0  0  0  0  0  0  0  0  0  0  0  0
    2.1333   -2.4332    0.0000 C   0  0  0  0  0  0  0  0  0  0  0  0
    2.8584   -2.8514    0.0000 C   0  0  0  0  0  0  0  0  0  0  0  0
   -3.6811   -2.4610    0.0000 C   0  0  0  0  0  0  0  0  0  0  0  0
  1 10  1  0  0  0  0
  1 13  1  0  0  0  0
  2 11  1  0  0  0  0
  3 12  2  0  0  0  0
  4 18  2  0  0  0  0
  5 21  2  0  0  0  0
  6 30  1  0  0  0  0
  6 36  1  0  0  0  0
 15  7  1  6  0  0  0
  7 21  1  0  0  0  0
  8 18  1  0  0  0  0
 19  8  1  6  0  0  0
 14  9  1  1  0  0  0
 10 12  1  6  0  0  0
 10 13  1  0  0  0  0
 10 20  1  1  0  0  0
 11 14  1  0  0  0  0
 11 16  1  0  0  0  0
 11 17  1  0  0  0  0
 12 15  1  0  0  0  0
 14 18  1  0  0  0  0
 15 22  1  0  0  0  0
 16 17  1  0  0  0  0
 19 21  1  0  0  0  0
 19 23  1  0  0  0  0
 22 24  1  0  0  0  0
 23 25  1  0  0  0  0
 24 26  2  0  0  0  0
 24 27  1  0  0  0  0
 25 28  2  0  0  0  0
 25 29  1  0  0  0  0
 26 33  1  0  0  0  0
 27 34  2  0  0  0  0
 28 31  1  0  0  0  0
 29 32  2  0  0  0  0
 30 31  2  0  0  0  0
 30 32  1  0  0  0  0
 33 35  2  0  0  0  0
 34 35  1  0  0  0  0
M  END
> <PUBCHEM_COMPOUND_ID_TYPE>
0

> <PUBCHEM_TOTAL_CHARGE>
0

> <PUBCHEM_SUBSTANCE_ID>
310945816

> <PUBCHEM_SUBSTANCE_VERSION>
1

> <PUBCHEM_EXT_DATASOURCE_NAME>
4488

> <PUBCHEM_EXT_DATASOURCE_REGID>
SCHEMBL16123920

> <PUBCHEM_SUBSTANCE_COMMENT>
InChI=1S/C27H33N3O6/c1-26(16-36-26)23(31)20(14-17-6-4-3-5-7-17)29-24(32)21(15-18-8-10-19(35-2)11-9-18)30-25(33)22(28)27(34)12-13-27/h3-11,20-22,34H,12-16,28H2,1-2H3,(H,29,32)(H,30,33)/t20-,21-,22+,26+/m0/s1
InChIKey=JYKNHCCVYPGPNL-BTKWVRSESA-N

> <PUBCHEM_SUBSTANCE_SYNONYM>
SCHEMBL16123920

> <PUBCHEM_XREF_EXT_ID>
SCHEMBL16123920

> <PUBCHEM_EXT_DATASOURCE_URL>
https://www.surechembl.org/

> <PUBCHEM_EXT_SUBSTANCE_URL>
https://www.surechembl.org/chemical/SCHEMBL16123920

> <PUBCHEM_CID_ASSOCIATIONS>
117611802  1

> <PUBCHEM_COORDINATE_TYPE>
1
3

> <PUBCHEM_BONDANNOTATIONS>
10  12  6
10  20  5
15  7  6
19  8  6
14  9  5

$$$$
