310947156
  -OEChem-07211613022D

 14 15  0     0  0  0  0  0  0999 V2000
   -0.9399   -1.2330    0.0000 O   0  0  0  0  0  0  0  0  0  0  0  0
   -2.1122   -0.5659    0.0000 O   0  0  0  0  0  0  0  0  0  0  0  0
    1.3846    0.8288    0.0000 O   0  0  0  0  0  0  0  0  0  0  0  0
    1.3442   -0.8489    0.0000 N   0  0  0  0  0  0  0  0  0  0  0  0
   -0.7782   -0.3840    0.0000 C   0  0  0  0  0  0  0  0  0  0  0  0
   -0.0707    0.0404    0.0000 C   0  0  0  0  0  0  0  0  0  0  0  0
   -1.4856    0.0202    0.0000 C   0  0  0  0  0  0  0  0  0  0  0  0
   -0.0505    0.8489    0.0000 C   0  0  0  0  0  0  0  0  0  0  0  0
   -1.4654    0.8489    0.0000 C   0  0  0  0  0  0  0  0  0  0  0  0
   -0.7782    1.2532    0.0000 C   0  0  0  0  0  0  0  0  0  0  0  0
   -1.7686   -1.2936    0.0000 C   0  0  0  0  0  0  0  0  0  0  0  0
    0.6569   -0.4245    0.0000 C   0  0  0  0  0  0  0  0  0  0  0  0
    0.6569    1.2532    0.0000 C   0  0  0  0  0  0  0  0  0  0  0  0
    2.1122    1.2936    0.0000 C   0  0  0  0  0  0  0  0  0  0  0  0
  1  5  1  0  0  0  0
  1 11  1  0  0  0  0
  2  7  1  0  0  0  0
  2 11  1  0  0  0  0
  3 13  1  0  0  0  0
  3 14  1  0  0  0  0
  4 12  3  0  0  0  0
  5  6  2  0  0  0  0
  5  7  1  0  0  0  0
  6  8  1  0  0  0  0
  6 12  1  0  0  0  0
  7  9  2  0  0  0  0
  8 10  2  0  0  0  0
  8 13  1  0  0  0  0
  9 10  1  0  0  0  0
M  END
> <PUBCHEM_COMPOUND_ID_TYPE>
0

> <PUBCHEM_TOTAL_CHARGE>
0

> <PUBCHEM_SUBSTANCE_ID>
310947156

> <PUBCHEM_SUBSTANCE_VERSION>
1

> <PUBCHEM_EXT_DATASOURCE_NAME>
4488

> <PUBCHEM_EXT_DATASOURCE_REGID>
SCHEMBL16125310

> <PUBCHEM_SUBSTANCE_COMMENT>
InChI=1S/C10H9NO3/c1-12-5-7-2-3-9-10(8(7)4-11)14-6-13-9/h2-3H,5-6H2,1H3
InChIKey=AUELNVGXYIIKCZ-UHFFFAOYSA-N

> <PUBCHEM_SUBSTANCE_SYNONYM>
SCHEMBL16125310

> <PUBCHEM_XREF_EXT_ID>
SCHEMBL16125310

> <PUBCHEM_EXT_DATASOURCE_URL>
https://www.surechembl.org/

> <PUBCHEM_EXT_SUBSTANCE_URL>
https://www.surechembl.org/chemical/SCHEMBL16125310

> <PUBCHEM_CID_ASSOCIATIONS>
117282156  1

> <PUBCHEM_COORDINATE_TYPE>
1
3

$$$$
