310930504
  -OEChem-07211613022D

 28 30  0     1  0  0  0  0  0999 V2000
    6.4596   -3.3255    0.0000 F   0  0  0  0  0  0  0  0  0  0  0  0
    0.7177    0.0000    0.0000 F   0  0  0  0  0  0  0  0  0  0  0  0
    0.0239   -1.2680    0.0000 F   0  0  0  0  0  0  0  0  0  0  0  0
    0.0000   -0.4307    0.0000 F   0  0  0  0  0  0  0  0  0  0  0  0
    5.0481   -3.3255    0.0000 O   0  0  0  0  0  0  0  0  0  0  0  0
    1.4594   -2.0814    0.0000 O   0  0  0  0  0  0  0  0  0  0  0  0
    4.3064   -2.0814    0.0000 N   0  0  0  0  0  0  0  0  0  0  0  0
    5.0481   -0.8373    0.0000 N   0  0  0  0  0  0  0  0  0  0  0  0
    3.6126    0.0000    0.0000 N   0  0  0  0  0  0  0  0  0  0  0  0
    5.7658   -2.0814    0.0000 C   0  0  0  0  0  0  0  0  0  0  0  0
    5.0481   -2.4881    0.0000 C   0  0  0  0  0  0  0  0  0  0  0  0
    4.3064   -1.2441    0.0000 C   0  0  0  0  0  0  0  0  0  0  0  0
    5.7658   -1.2441    0.0000 C   0  0  0  0  0  0  0  0  0  0  0  0
    3.6126   -2.4881    0.0000 C   0  0  0  0  0  0  0  0  0  0  0  0
    6.4596   -2.4881    0.0000 C   0  0  0  0  0  0  0  0  0  0  0  0
    3.6126   -0.8373    0.0000 C   0  0  3  0  0  0  0  0  0  0  0  0
    6.4596   -0.8373    0.0000 C   0  0  0  0  0  0  0  0  0  0  0  0
    3.0384   -2.2489    0.0000 C   0  0  0  0  0  0  0  0  0  0  0  0
    3.6126   -3.3255    0.0000 C   0  0  0  0  0  0  0  0  0  0  0  0
    7.1774   -2.0814    0.0000 C   0  0  0  0  0  0  0  0  0  0  0  0
    2.1771   -2.4881    0.0000 C   0  0  0  0  0  0  0  0  0  0  0  0
    7.1774   -1.2441    0.0000 C   0  0  0  0  0  0  0  0  0  0  0  0
    2.8949   -3.7322    0.0000 C   0  0  0  0  0  0  0  0  0  0  0  0
    2.8709   -1.2441    0.0000 C   0  0  0  0  0  0  0  0  0  0  0  0
    2.1771   -3.3255    0.0000 C   0  0  0  0  0  0  0  0  0  0  0  0
    1.4594   -1.2680    0.0000 C   0  0  0  0  0  0  0  0  0  0  0  0
    0.7177   -0.8373    0.0000 C   0  0  0  0  0  0  0  0  0  0  0  0
    2.8709   -2.0814    0.0000 C   0  0  0  0  0  0  0  0  0  0  0  0
  1 15  1  0  0  0  0
  2 27  1  0  0  0  0
  3 27  1  0  0  0  0
  4 27  1  0  0  0  0
  5 11  2  0  0  0  0
  6 21  1  0  0  0  0
  6 26  1  0  0  0  0
  7 11  1  0  0  0  0
  7 12  1  0  0  0  0
  7 14  1  0  0  0  0
  8 12  2  0  0  0  0
  8 13  1  0  0  0  0
 16  9  1  6  0  0  0
 10 11  1  0  0  0  0
 10 13  2  0  0  0  0
 10 15  1  0  0  0  0
 12 16  1  0  0  0  0
 13 17  1  0  0  0  0
 14 18  1  0  0  0  0
 14 19  2  0  0  0  0
 15 20  2  0  0  0  0
 16 24  1  0  0  0  0
 17 22  2  0  0  0  0
 18 21  2  0  0  0  0
 19 23  1  0  0  0  0
 20 22  1  0  0  0  0
 21 25  1  0  0  0  0
 23 25  2  0  0  0  0
 24 28  1  0  0  0  0
 26 27  1  0  0  0  0
M  END
> <PUBCHEM_COMPOUND_ID_TYPE>
0

> <PUBCHEM_TOTAL_CHARGE>
0

> <PUBCHEM_SUBSTANCE_ID>
310930504

> <PUBCHEM_SUBSTANCE_VERSION>
1

> <PUBCHEM_EXT_DATASOURCE_NAME>
4488

> <PUBCHEM_EXT_DATASOURCE_REGID>
SCHEMBL16107796

> <PUBCHEM_SUBSTANCE_COMMENT>
InChI=1S/C19H17F4N3O2/c1-2-14(24)17-25-15-8-4-7-13(20)16(15)18(27)26(17)11-5-3-6-12(9-11)28-10-19(21,22)23/h3-9,14H,2,10,24H2,1H3/t14-/m0/s1
InChIKey=KFLXEARSNCRCBX-AWEZNQCLSA-N

> <PUBCHEM_SUBSTANCE_SYNONYM>
SCHEMBL16107796

> <PUBCHEM_XREF_EXT_ID>
SCHEMBL16107796

> <PUBCHEM_EXT_DATASOURCE_URL>
https://www.surechembl.org/

> <PUBCHEM_EXT_SUBSTANCE_URL>
https://www.surechembl.org/chemical/SCHEMBL16107796

> <PUBCHEM_CID_ASSOCIATIONS>
117599614  1

> <PUBCHEM_COORDINATE_TYPE>
1
3

> <PUBCHEM_BONDANNOTATIONS>
16  9  6

$$$$
