310934228
  -OEChem-07211613022D

 12 12  0     0  0  0  0  0  0999 V2000
    4.1359   -0.7169    0.0000 S   0  0  0  0  0  0  0  0  0  0  0  0
    1.2408   -1.4338    0.0000 O   0  0  0  0  0  0  0  0  0  0  0  0
    1.2408    0.0000    0.0000 O   0  0  0  0  0  0  0  0  0  0  0  0
    2.0542   -1.4338    0.0000 N   0  0  0  0  0  0  0  0  0  0  0  0
    2.4678   -0.7169    0.0000 C   0  0  0  0  0  0  0  0  0  0  0  0
    1.6406   -0.7169    0.0000 C   0  0  0  0  0  0  0  0  0  0  0  0
    2.8951   -1.4338    0.0000 C   0  0  0  0  0  0  0  0  0  0  0  0
    2.8951   -0.0138    0.0000 C   0  0  0  0  0  0  0  0  0  0  0  0
    3.7086   -1.4338    0.0000 C   0  0  0  0  0  0  0  0  0  0  0  0
    3.7086   -0.0138    0.0000 C   0  0  0  0  0  0  0  0  0  0  0  0
    0.4136   -1.4338    0.0000 C   0  0  0  0  0  0  0  0  0  0  0  0
    0.0000   -2.1507    0.0000 C   0  0  0  0  0  0  0  0  0  0  0  0
  1  9  1  0  0  0  0
  1 10  1  0  0  0  0
  2  6  1  0  0  0  0
  2 11  1  0  0  0  0
  3  6  2  0  0  0  0
  4  5  1  0  0  0  0
  5  6  1  0  0  0  0
  5  7  1  0  0  0  0
  5  8  1  0  0  0  0
  7  9  1  0  0  0  0
  8 10  1  0  0  0  0
 11 12  1  0  0  0  0
M  END
> <PUBCHEM_COMPOUND_ID_TYPE>
0

> <PUBCHEM_TOTAL_CHARGE>
0

> <PUBCHEM_SUBSTANCE_ID>
310934228

> <PUBCHEM_SUBSTANCE_VERSION>
1

> <PUBCHEM_EXT_DATASOURCE_NAME>
4488

> <PUBCHEM_EXT_DATASOURCE_REGID>
SCHEMBL16111684

> <PUBCHEM_SUBSTANCE_COMMENT>
InChI=1S/C8H15NO2S/c1-2-11-7(10)8(9)3-5-12-6-4-8/h2-6,9H2,1H3
InChIKey=VJPXHHVSQUQQGL-UHFFFAOYSA-N

> <PUBCHEM_SUBSTANCE_SYNONYM>
SCHEMBL16111684

> <PUBCHEM_XREF_EXT_ID>
SCHEMBL16111684

> <PUBCHEM_EXT_DATASOURCE_URL>
https://www.surechembl.org/

> <PUBCHEM_EXT_SUBSTANCE_URL>
https://www.surechembl.org/chemical/SCHEMBL16111684

> <PUBCHEM_CID_ASSOCIATIONS>
61317990  1

> <PUBCHEM_COORDINATE_TYPE>
1
3

$$$$
