310942064
  -OEChem-07211613022D

 22 24  0     0  0  0  0  0  0999 V2000
   -1.8083   -2.9105    0.0000 F   0  0  0  0  0  0  0  0  0  0  0  0
   -0.3337    2.4913    0.0000 O   0  0  0  0  0  0  0  0  0  0  0  0
   -1.7308    2.9105    0.0000 O   0  0  0  0  0  0  0  0  0  0  0  0
   -0.3958   -0.3958    0.0000 N   0  0  0  0  0  0  0  0  0  0  0  0
    2.4448    2.6311    0.0000 N   0  0  0  0  0  0  0  0  0  0  0  0
   -0.8615    0.9391    0.0000 C   0  0  0  0  0  0  0  0  0  0  0  0
    0.0077    0.9236    0.0000 C   0  0  0  0  0  0  0  0  0  0  0  0
   -1.1099    0.1165    0.0000 C   0  0  0  0  0  0  0  0  0  0  0  0
    0.2561    0.1475    0.0000 C   0  0  0  0  0  0  0  0  0  0  0  0
   -1.4203    1.5290    0.0000 C   0  0  0  0  0  0  0  0  0  0  0  0
    0.5355    1.5445    0.0000 C   0  0  0  0  0  0  0  0  0  0  0  0
   -1.8860   -0.0698    0.0000 C   0  0  0  0  0  0  0  0  0  0  0  0
    1.0633   -0.0233    0.0000 C   0  0  0  0  0  0  0  0  0  0  0  0
    1.3427    1.3737    0.0000 C   0  0  0  0  0  0  0  0  0  0  0  0
   -2.1964    1.3427    0.0000 C   0  0  0  0  0  0  0  0  0  0  0  0
   -0.4114   -1.2185    0.0000 C   0  0  0  0  0  0  0  0  0  0  0  0
   -1.1564    2.3362    0.0000 C   0  0  0  0  0  0  0  0  0  0  0  0
   -2.4448    0.5355    0.0000 C   0  0  0  0  0  0  0  0  0  0  0  0
    1.6066    0.5976    0.0000 C   0  0  0  0  0  0  0  0  0  0  0  0
   -1.0944   -1.6221    0.0000 C   0  0  0  0  0  0  0  0  0  0  0  0
    1.8860    2.0257    0.0000 C   0  0  0  0  0  0  0  0  0  0  0  0
   -1.1253   -2.4759    0.0000 C   0  0  0  0  0  0  0  0  0  0  0  0
  1 22  1  0  0  0  0
  2 17  2  0  0  0  0
  3 17  1  0  0  0  0
  4  8  1  0  0  0  0
  4  9  1  0  0  0  0
  4 16  1  0  0  0  0
  5 21  3  0  0  0  0
  6  7  1  0  0  0  0
  6  8  1  0  0  0  0
  6 10  2  0  0  0  0
  7  9  2  0  0  0  0
  7 11  1  0  0  0  0
  8 12  2  0  0  0  0
  9 13  1  0  0  0  0
 10 15  1  0  0  0  0
 10 17  1  0  0  0  0
 11 14  2  0  0  0  0
 12 18  1  0  0  0  0
 13 19  2  0  0  0  0
 14 19  1  0  0  0  0
 14 21  1  0  0  0  0
 15 18  2  0  0  0  0
 16 20  1  0  0  0  0
 20 22  1  0  0  0  0
M  END
> <PUBCHEM_COMPOUND_ID_TYPE>
0

> <PUBCHEM_TOTAL_CHARGE>
0

> <PUBCHEM_SUBSTANCE_ID>
310942064

> <PUBCHEM_SUBSTANCE_VERSION>
1

> <PUBCHEM_EXT_DATASOURCE_NAME>
4488

> <PUBCHEM_EXT_DATASOURCE_REGID>
SCHEMBL16120099

> <PUBCHEM_SUBSTANCE_COMMENT>
InChI=1S/C17H13FN2O2/c18-7-2-8-20-14-6-5-11(10-19)9-13(14)16-12(17(21)22)3-1-4-15(16)20/h1,3-6,9H,2,7-8H2,(H,21,22)
InChIKey=JFPQYSIPGIRSQB-UHFFFAOYSA-N

> <PUBCHEM_SUBSTANCE_SYNONYM>
SCHEMBL16120099

> <PUBCHEM_XREF_EXT_ID>
SCHEMBL16120099

> <PUBCHEM_EXT_DATASOURCE_URL>
https://www.surechembl.org/

> <PUBCHEM_EXT_SUBSTANCE_URL>
https://www.surechembl.org/chemical/SCHEMBL16120099

> <PUBCHEM_CID_ASSOCIATIONS>
117608738  1

> <PUBCHEM_COORDINATE_TYPE>
1
3

$$$$
