310931651
  -OEChem-07211613022D

 32 35  0     0  0  0  0  0  0999 V2000
    3.9833   -2.7432    0.0000 O   0  0  0  0  0  0  0  0  0  0  0  0
    8.4175   -2.8184    0.0000 O   0  0  0  0  0  0  0  0  0  0  0  0
    4.8851   -1.5783    0.0000 N   0  0  0  0  0  0  0  0  0  0  0  0
    4.7724   -0.7891    0.0000 N   0  0  0  0  0  0  0  0  0  0  0  0
    6.2755   -1.5783    0.0000 N   0  0  0  0  0  0  0  0  0  0  0  0
    7.7035   -4.0584    0.0000 N   0  0  0  0  0  0  0  0  0  0  0  0
    9.8455   -5.2609    0.0000 N   0  0  0  0  0  0  0  0  0  0  0  0
    0.0000   -2.4426    0.0000 N   0  0  0  0  0  0  0  0  0  0  0  0
    3.5699   -1.3528    0.0000 C   0  0  0  0  0  0  0  0  0  0  0  0
    4.1336   -1.9165    0.0000 C   0  0  0  0  0  0  0  0  0  0  0  0
    2.7432   -1.4280    0.0000 C   0  0  0  0  0  0  0  0  0  0  0  0
    5.5616   -1.9916    0.0000 C   0  0  0  0  0  0  0  0  0  0  0  0
    3.9833   -0.6389    0.0000 C   0  0  0  0  0  0  0  0  0  0  0  0
    2.2547   -0.7516    0.0000 C   0  0  0  0  0  0  0  0  0  0  0  0
    2.4426   -2.1795    0.0000 C   0  0  0  0  0  0  0  0  0  0  0  0
    5.5616   -2.8184    0.0000 C   0  0  0  0  0  0  0  0  0  0  0  0
    6.9895   -2.8184    0.0000 C   0  0  0  0  0  0  0  0  0  0  0  0
    1.4655   -0.8643    0.0000 C   0  0  0  0  0  0  0  0  0  0  0  0
    6.9895   -1.9916    0.0000 C   0  0  0  0  0  0  0  0  0  0  0  0
    6.2755   -3.2317    0.0000 C   0  0  0  0  0  0  0  0  0  0  0  0
    1.1273   -1.6159    0.0000 C   0  0  0  0  0  0  0  0  0  0  0  0
    7.7035   -3.2317    0.0000 C   0  0  0  0  0  0  0  0  0  0  0  0
    1.6159   -2.2547    0.0000 C   0  0  0  0  0  0  0  0  0  0  0  0
    2.5929    0.0000    0.0000 C   0  0  0  0  0  0  0  0  0  0  0  0
    8.4175   -4.4718    0.0000 C   0  0  0  0  0  0  0  0  0  0  0  0
    0.3006   -1.6910    0.0000 C   0  0  0  0  0  0  0  0  0  0  0  0
    8.4175   -5.2985    0.0000 C   0  0  0  0  0  0  0  0  0  0  0  0
    9.1315   -4.0584    0.0000 C   0  0  0  0  0  0  0  0  0  0  0  0
    9.1315   -5.7119    0.0000 C   0  0  0  0  0  0  0  0  0  0  0  0
    9.8455   -4.4718    0.0000 C   0  0  0  0  0  0  0  0  0  0  0  0
   10.5594   -5.6743    0.0000 C   0  0  0  0  0  0  0  0  0  0  0  0
   11.2734   -5.2609    0.0000 C   0  0  0  0  0  0  0  0  0  0  0  0
  1 10  1  0  0  0  0
  2 22  2  0  0  0  0
  3  4  1  0  0  0  0
  3 10  1  0  0  0  0
  3 12  1  0  0  0  0
  4 13  2  0  0  0  0
  5 12  2  0  0  0  0
  5 19  1  0  0  0  0
  6 22  1  0  0  0  0
  6 25  1  0  0  0  0
  7 29  1  0  0  0  0
  7 30  1  0  0  0  0
  7 31  1  0  0  0  0
  8 26  3  0  0  0  0
  9 10  2  0  0  0  0
  9 11  1  0  0  0  0
  9 13  1  0  0  0  0
 11 14  1  0  0  0  0
 11 15  2  0  0  0  0
 12 16  1  0  0  0  0
 14 18  2  0  0  0  0
 14 24  1  0  0  0  0
 15 23  1  0  0  0  0
 16 20  2  0  0  0  0
 17 19  2  0  0  0  0
 17 20  1  0  0  0  0
 17 22  1  0  0  0  0
 18 21  1  0  0  0  0
 21 23  2  0  0  0  0
 21 26  1  0  0  0  0
 25 27  1  0  0  0  0
 25 28  1  0  0  0  0
 27 29  1  0  0  0  0
 28 30  1  0  0  0  0
 31 32  1  0  0  0  0
M  END
> <PUBCHEM_COMPOUND_ID_TYPE>
0

> <PUBCHEM_TOTAL_CHARGE>
0

> <PUBCHEM_SUBSTANCE_ID>
310931651

> <PUBCHEM_SUBSTANCE_VERSION>
1

> <PUBCHEM_EXT_DATASOURCE_NAME>
4488

> <PUBCHEM_EXT_DATASOURCE_REGID>
SCHEMBL16108977

> <PUBCHEM_SUBSTANCE_COMMENT>
InChI=1S/C24H26N6O2/c1-3-29-10-8-19(9-11-29)28-23(31)18-5-7-22(26-14-18)30-24(32)21(15-27-30)20-6-4-17(13-25)12-16(20)2/h4-7,12,14-15,19,32H,3,8-11H2,1-2H3,(H,28,31)
InChIKey=MBUGHNLKQSAWIO-UHFFFAOYSA-N

> <PUBCHEM_SUBSTANCE_SYNONYM>
SCHEMBL16108977

> <PUBCHEM_XREF_EXT_ID>
SCHEMBL16108977

> <PUBCHEM_EXT_DATASOURCE_URL>
https://www.surechembl.org/

> <PUBCHEM_EXT_SUBSTANCE_URL>
https://www.surechembl.org/chemical/SCHEMBL16108977

> <PUBCHEM_CID_ASSOCIATIONS>
117600361  1

> <PUBCHEM_COORDINATE_TYPE>
1
3

$$$$
