310942224
  -OEChem-07211613022D

 20 22  0     1  0  0  0  0  0999 V2000
    0.7224    1.6003    0.0000 Cl  0  0  0  0  0  0  0  0  0  0  0  0
   -0.7224   -0.8780    0.0000 F   0  0  0  0  0  0  0  0  0  0  0  0
    0.7099   -0.0561    0.0000 O   0  0  0  0  0  0  0  0  0  0  0  0
   -2.8768    0.3923    0.0000 N   0  0  0  0  0  0  0  0  0  0  0  0
   -1.4322    0.3674    0.0000 C   0  0  0  0  0  0  0  0  0  0  0  0
   -0.7099   -0.0436    0.0000 C   0  0  0  0  0  0  0  0  0  0  0  0
    0.0000    0.3674    0.0000 C   0  0  0  0  0  0  0  0  0  0  0  0
   -2.1545   -0.0436    0.0000 C   0  0  3  0  0  0  0  0  0  0  0  0
   -2.1545   -0.9777    0.0000 C   0  0  0  0  0  0  0  0  0  0  0  0
    0.0000    1.2018    0.0000 C   0  0  0  0  0  0  0  0  0  0  0  0
   -1.4198    1.2018    0.0000 C   0  0  0  0  0  0  0  0  0  0  0  0
   -0.7099    1.6003    0.0000 C   0  0  0  0  0  0  0  0  0  0  0  0
   -2.5531   -1.5879    0.0000 C   0  0  0  0  0  0  0  0  0  0  0  0
   -1.7436   -1.6003    0.0000 C   0  0  0  0  0  0  0  0  0  0  0  0
    1.4446    0.3674    0.0000 C   0  0  0  0  0  0  0  0  0  0  0  0
    2.1670   -0.0436    0.0000 C   0  0  0  0  0  0  0  0  0  0  0  0
    1.4571    1.2018    0.0000 C   0  0  0  0  0  0  0  0  0  0  0  0
    2.8768    0.3674    0.0000 C   0  0  0  0  0  0  0  0  0  0  0  0
    2.1545    1.6003    0.0000 C   0  0  0  0  0  0  0  0  0  0  0  0
    2.8768    1.1894    0.0000 C   0  0  0  0  0  0  0  0  0  0  0  0
  1 10  1  0  0  0  0
  2  6  1  0  0  0  0
  3  7  1  0  0  0  0
  3 15  1  0  0  0  0
  8  4  1  1  0  0  0
  5  6  1  0  0  0  0
  5  8  1  0  0  0  0
  5 11  2  0  0  0  0
  6  7  2  0  0  0  0
  7 10  1  0  0  0  0
  8  9  1  0  0  0  0
  9 13  1  0  0  0  0
  9 14  1  0  0  0  0
 10 12  2  0  0  0  0
 11 12  1  0  0  0  0
 13 14  1  0  0  0  0
 15 16  2  0  0  0  0
 15 17  1  0  0  0  0
 16 18  1  0  0  0  0
 17 19  2  0  0  0  0
 18 20  2  0  0  0  0
 19 20  1  0  0  0  0
M  END
> <PUBCHEM_COMPOUND_ID_TYPE>
0

> <PUBCHEM_TOTAL_CHARGE>
0

> <PUBCHEM_SUBSTANCE_ID>
310942224

> <PUBCHEM_SUBSTANCE_VERSION>
1

> <PUBCHEM_EXT_DATASOURCE_NAME>
4488

> <PUBCHEM_EXT_DATASOURCE_REGID>
SCHEMBL16120259

> <PUBCHEM_SUBSTANCE_COMMENT>
InChI=1S/C16H15ClFNO/c17-13-9-8-12(15(19)10-6-7-10)14(18)16(13)20-11-4-2-1-3-5-11/h1-5,8-10,15H,6-7,19H2/t15-/m1/s1
InChIKey=GFXRXRXFWYGEHO-OAHLLOKOSA-N

> <PUBCHEM_SUBSTANCE_SYNONYM>
SCHEMBL16120259

> <PUBCHEM_XREF_EXT_ID>
SCHEMBL16120259

> <PUBCHEM_EXT_DATASOURCE_URL>
https://www.surechembl.org/

> <PUBCHEM_EXT_SUBSTANCE_URL>
https://www.surechembl.org/chemical/SCHEMBL16120259

> <PUBCHEM_CID_ASSOCIATIONS>
117608875  1

> <PUBCHEM_COORDINATE_TYPE>
1
3

> <PUBCHEM_BONDANNOTATIONS>
8  4  5

$$$$
