310937404
  -OEChem-07211613022D

 22 25  0     0  0  0  0  0  0999 V2000
    2.2288   -2.7924    0.0000 O   0  0  0  0  0  0  0  0  0  0  0  0
    6.3022   -2.0751    0.0000 O   0  0  0  0  0  0  0  0  0  0  0  0
    4.4833   -3.7660    0.0000 N   0  0  0  0  0  0  0  0  0  0  0  0
    5.0469   -1.6652    0.0000 N   0  0  0  0  0  0  0  0  0  0  0  0
    5.8411   -2.7412    0.0000 N   0  0  0  0  0  0  0  0  0  0  0  0
    3.0742   -3.9196    0.0000 C   0  0  0  0  0  0  0  0  0  0  0  0
    4.3808   -2.9462    0.0000 C   0  0  0  0  0  0  0  0  0  0  0  0
    2.9718   -3.1255    0.0000 C   0  0  0  0  0  0  0  0  0  0  0  0
    5.0469   -2.4850    0.0000 C   0  0  0  0  0  0  0  0  0  0  0  0
    2.4082   -4.3808    0.0000 C   0  0  0  0  0  0  0  0  0  0  0  0
    3.6378   -2.6131    0.0000 C   0  0  0  0  0  0  0  0  0  0  0  0
    3.8172   -4.2527    0.0000 C   0  0  0  0  0  0  0  0  0  0  0  0
    5.8411   -1.4090    0.0000 C   0  0  0  0  0  0  0  0  0  0  0  0
    2.0495   -5.1237    0.0000 C   0  0  0  0  0  0  0  0  0  0  0  0
    1.5627   -4.4833    0.0000 C   0  0  0  0  0  0  0  0  0  0  0  0
    6.0972   -0.6149    0.0000 C   0  0  0  0  0  0  0  0  0  0  0  0
    1.5627   -3.2792    0.0000 C   0  0  0  0  0  0  0  0  0  0  0  0
    0.8198   -2.9462    0.0000 C   0  0  0  0  0  0  0  0  0  0  0  0
    0.0000   -3.0486    0.0000 C   0  0  0  0  0  0  0  0  0  0  0  0
    0.3074   -2.2800    0.0000 C   0  0  0  0  0  0  0  0  0  0  0  0
    5.5336    0.0000    0.0000 C   0  0  0  0  0  0  0  0  0  0  0  0
    6.8914   -0.4355    0.0000 C   0  0  0  0  0  0  0  0  0  0  0  0
  1  8  1  0  0  0  0
  1 17  1  0  0  0  0
  2  5  1  0  0  0  0
  2 13  1  0  0  0  0
  3  7  1  0  0  0  0
  3 12  2  0  0  0  0
  4  9  1  0  0  0  0
  4 13  2  0  0  0  0
  5  9  2  0  0  0  0
  6  8  2  0  0  0  0
  6 10  1  0  0  0  0
  6 12  1  0  0  0  0
  7  9  1  0  0  0  0
  7 11  2  0  0  0  0
  8 11  1  0  0  0  0
 10 14  1  0  0  0  0
 10 15  1  0  0  0  0
 13 16  1  0  0  0  0
 14 15  1  0  0  0  0
 16 21  1  0  0  0  0
 16 22  1  0  0  0  0
 17 18  1  0  0  0  0
 18 19  1  0  0  0  0
 18 20  1  0  0  0  0
 19 20  1  0  0  0  0
M  END
> <PUBCHEM_COMPOUND_ID_TYPE>
0

> <PUBCHEM_TOTAL_CHARGE>
0

> <PUBCHEM_SUBSTANCE_ID>
310937404

> <PUBCHEM_SUBSTANCE_VERSION>
1

> <PUBCHEM_EXT_DATASOURCE_NAME>
4488

> <PUBCHEM_EXT_DATASOURCE_REGID>
SCHEMBL16115162

> <PUBCHEM_SUBSTANCE_COMMENT>
InChI=1S/C17H21N3O2/c1-10(2)17-19-16(20-22-17)14-7-15(21-9-11-3-4-11)13(8-18-14)12-5-6-12/h7-8,10-12H,3-6,9H2,1-2H3
InChIKey=SPSXDNHXWIHNHC-UHFFFAOYSA-N

> <PUBCHEM_SUBSTANCE_SYNONYM>
SCHEMBL16115162

> <PUBCHEM_XREF_EXT_ID>
SCHEMBL16115162

> <PUBCHEM_EXT_DATASOURCE_URL>
https://www.surechembl.org/

> <PUBCHEM_EXT_SUBSTANCE_URL>
https://www.surechembl.org/chemical/SCHEMBL16115162

> <PUBCHEM_CID_ASSOCIATIONS>
86275871  1

> <PUBCHEM_COORDINATE_TYPE>
1
3

$$$$
