310938242
  -OEChem-07211613022D

 46 49  0     1  0  0  0  0  0999 V2000
    2.8579   -0.8250    0.0000 O   0  0  0  0  0  0  0  0  0  0  0  0
    3.2170    2.5920    0.0000 O   0  0  0  0  0  0  0  0  0  0  0  0
   -6.4302   -1.2375    0.0000 O   0  0  0  0  0  0  0  0  0  0  0  0
   -1.4290   -0.8250    0.0000 O   0  0  0  0  0  0  0  0  0  0  0  0
   -5.7158    0.0000    0.0000 O   0  0  0  0  0  0  0  0  0  0  0  0
    3.5724    0.4125    0.0000 N   0  0  0  0  0  0  0  0  0  0  0  0
    2.2609    1.5301    0.0000 N   0  0  0  0  0  0  0  0  0  0  0  0
    1.4290    0.0000    0.0000 N   0  0  0  0  0  0  0  0  0  0  0  0
    0.1957    2.3121    0.0000 N   0  0  0  0  0  0  0  0  0  0  0  0
    0.6082    1.0426    0.0000 N   0  0  0  0  0  0  0  0  0  0  0  0
   -0.7145    0.4125    0.0000 N   0  0  0  0  0  0  0  0  0  0  0  0
   -0.4717    1.8271    0.0000 N   0  0  0  0  0  0  0  0  0  0  0  0
   -0.2168    1.0426    0.0000 N   0  0  0  0  0  0  0  0  0  0  0  0
   -5.0013   -1.2375    0.0000 N   0  0  0  0  0  0  0  0  0  0  0  0
    4.3260    0.0770    0.0000 C   0  0  0  0  0  0  0  0  0  0  0  0
    3.6586    1.2330    0.0000 C   0  0  3  0  0  0  0  0  0  0  0  0
    4.8781    0.6901    0.0000 C   0  0  0  0  0  0  0  0  0  0  0  0
    4.4656    1.4045    0.0000 C   0  0  0  0  0  0  0  0  0  0  0  0
    2.8579    0.0000    0.0000 C   0  0  0  0  0  0  0  0  0  0  0  0
    3.0455    1.7850    0.0000 C   0  0  0  0  0  0  0  0  0  0  0  0
    4.5810   -0.7077    0.0000 C   0  0  0  0  0  0  0  0  0  0  0  0
    5.6850    0.5185    0.0000 C   0  0  0  0  0  0  0  0  0  0  0  0
    5.3880   -0.8792    0.0000 C   0  0  0  0  0  0  0  0  0  0  0  0
    2.1434    0.4125    0.0000 C   0  0  0  0  0  0  0  0  0  0  0  0
    5.9400   -0.2661    0.0000 C   0  0  0  0  0  0  0  0  0  0  0  0
    1.6478    2.0821    0.0000 C   0  0  0  0  0  0  0  0  0  0  0  0
    0.8632    1.8271    0.0000 C   0  0  0  0  0  0  0  0  0  0  0  0
    0.7145    0.4125    0.0000 C   0  0  0  0  0  0  0  0  0  0  0  0
    0.0000    0.0000    0.0000 C   0  0  3  0  0  0  0  0  0  0  0  0
    0.0000   -0.8250    0.0000 C   0  0  3  0  0  0  0  0  0  0  0  0
   -1.4290    0.0000    0.0000 C   0  0  0  0  0  0  0  0  0  0  0  0
   -2.8579    0.0000    0.0000 C   0  0  0  0  0  0  0  0  0  0  0  0
   -4.2868   -0.8250    0.0000 C   0  0  0  0  0  0  0  0  0  0  0  0
   -2.1434    0.4125    0.0000 C   0  0  0  0  0  0  0  0  0  0  0  0
   -3.5724    0.4125    0.0000 C   0  0  0  0  0  0  0  0  0  0  0  0
   -2.8579   -0.8250    0.0000 C   0  0  0  0  0  0  0  0  0  0  0  0
   -4.2868    0.0000    0.0000 C   0  0  0  0  0  0  0  0  0  0  0  0
   -3.5724   -1.2375    0.0000 C   0  0  0  0  0  0  0  0  0  0  0  0
   -5.7158   -0.8250    0.0000 C   0  0  0  0  0  0  0  0  0  0  0  0
   -0.7145   -1.2375    0.0000 C   0  0  0  0  0  0  0  0  0  0  0  0
   -7.1447   -0.8250    0.0000 C   0  0  0  0  0  0  0  0  0  0  0  0
    0.7145   -1.2375    0.0000 C   0  0  0  0  0  0  0  0  0  0  0  0
   -0.7145   -2.0625    0.0000 C   0  0  0  0  0  0  0  0  0  0  0  0
   -7.8592   -1.2375    0.0000 C   0  0  0  0  0  0  0  0  0  0  0  0
   -7.8592   -0.4125    0.0000 C   0  0  0  0  0  0  0  0  0  0  0  0
   -7.1447    0.0000    0.0000 C   0  0  0  0  0  0  0  0  0  0  0  0
  1 19  2  0  0  0  0
  2 20  2  0  0  0  0
  3 39  1  0  0  0  0
  3 41  1  0  0  0  0
  4 31  2  0  0  0  0
  5 39  2  0  0  0  0
  6 15  1  0  0  0  0
  6 16  1  0  0  0  0
  6 19  1  0  0  0  0
  7 20  1  0  0  0  0
  7 26  1  0  0  0  0
  8 24  1  0  0  0  0
  8 28  1  0  0  0  0
  9 12  2  0  0  0  0
  9 27  1  0  0  0  0
 10 13  1  0  0  0  0
 10 27  2  0  0  0  0
 29 11  1  6  0  0  0
 11 31  1  0  0  0  0
 12 13  1  0  0  0  0
 14 33  1  0  0  0  0
 14 39  1  0  0  0  0
 15 17  2  0  0  0  0
 15 21  1  0  0  0  0
 16 18  1  0  0  0  0
 16 20  1  6  0  0  0
 17 18  1  0  0  0  0
 17 22  1  0  0  0  0
 19 24  1  0  0  0  0
 21 23  2  0  0  0  0
 22 25  2  0  0  0  0
 23 25  1  0  0  0  0
 26 27  1  0  0  0  0
 28 29  1  0  0  0  0
 29 30  1  0  0  0  0
 30 40  1  0  0  0  0
 30 42  1  1  0  0  0
 31 34  1  0  0  0  0
 32 34  1  0  0  0  0
 32 35  2  0  0  0  0
 32 36  1  0  0  0  0
 33 37  2  0  0  0  0
 33 38  1  0  0  0  0
 35 37  1  0  0  0  0
 36 38  2  0  0  0  0
 40 43  1  0  0  0  0
 41 44  1  0  0  0  0
 41 45  1  0  0  0  0
 41 46  1  0  0  0  0
M  END
> <PUBCHEM_COMPOUND_ID_TYPE>
0

> <PUBCHEM_TOTAL_CHARGE>
0

> <PUBCHEM_SUBSTANCE_ID>
310938242

> <PUBCHEM_SUBSTANCE_VERSION>
1

> <PUBCHEM_EXT_DATASOURCE_NAME>
4488

> <PUBCHEM_EXT_DATASOURCE_REGID>
SCHEMBL16116107

> <PUBCHEM_SUBSTANCE_COMMENT>
InChI=1S/C32H43N9O5/c1-6-20(2)24(36-28(42)15-21-11-13-23(14-12-21)35-31(45)46-32(3,4)5)17-33-19-29(43)41-25-10-8-7-9-22(25)16-26(41)30(44)34-18-27-37-39-40-38-27/h7-14,20,24,26,33H,6,15-19H2,1-5H3,(H,34,44)(H,35,45)(H,36,42)(H,37,38,39,40)/t20-,24+,26-/m0/s1
InChIKey=XXBGGRQYTOKWGB-KHMOSXFSSA-N

> <PUBCHEM_SUBSTANCE_SYNONYM>
SCHEMBL16116107

> <PUBCHEM_XREF_EXT_ID>
SCHEMBL16116107

> <PUBCHEM_EXT_DATASOURCE_URL>
https://www.surechembl.org/

> <PUBCHEM_EXT_SUBSTANCE_URL>
https://www.surechembl.org/chemical/SCHEMBL16116107

> <PUBCHEM_CID_ASSOCIATIONS>
117605761  1

> <PUBCHEM_COORDINATE_TYPE>
1
3

> <PUBCHEM_BONDANNOTATIONS>
29  11  6
16  20  6
30  42  5

$$$$
