310942488
  -OEChem-07211613022D

 38 42  0     1  0  0  0  0  0999 V2000
   -2.8721    0.1956    0.0000 F   0  0  0  0  0  0  0  0  0  0  0  0
   -2.8721   -3.1300    0.0000 F   0  0  0  0  0  0  0  0  0  0  0  0
    1.5384    1.0849    0.0000 O   0  0  0  0  0  0  0  0  0  0  0  0
   -0.1156   -1.7962    0.0000 O   0  0  0  0  0  0  0  0  0  0  0  0
    0.7203   -3.2367    0.0000 O   0  0  0  0  0  0  0  0  0  0  0  0
    3.5657   -0.9248    0.0000 O   0  0  0  0  0  0  0  0  0  0  0  0
    1.1293   -1.0849    0.0000 N   0  0  0  0  0  0  0  0  0  0  0  0
   -0.5247    0.3557    0.0000 N   0  0  0  0  0  0  0  0  0  0  0  0
   -0.6669   -0.9781    0.0000 N   0  0  0  0  0  0  0  0  0  0  0  0
    2.9966   -2.9877    0.0000 N   0  0  0  0  0  0  0  0  0  0  0  0
    0.7025   -0.3557    0.0000 C   0  0  3  0  0  0  0  0  0  0  0  0
   -0.1156   -0.3379    0.0000 C   0  0  0  0  0  0  0  0  0  0  0  0
    1.1470    0.4090    0.0000 C   0  0  0  0  0  0  0  0  0  0  0  0
    0.7203   -1.7962    0.0000 C   0  0  0  0  0  0  0  0  0  0  0  0
    2.3920   -1.7784    0.0000 C   0  0  3  0  0  0  0  0  0  0  0  0
    2.2675   -2.5787    0.0000 C   0  0  3  0  0  0  0  0  0  0  0  0
    1.1293   -2.5076    0.0000 C   0  0  3  0  0  0  0  0  0  0  0  0
    1.9651   -1.0849    0.0000 C   0  0  0  0  0  0  0  0  0  0  0  0
   -1.4494   -0.6225    0.0000 C   0  0  0  0  0  0  0  0  0  0  0  0
   -1.3427    0.1956    0.0000 C   0  0  0  0  0  0  0  0  0  0  0  0
    3.2278   -1.6895    0.0000 C   0  0  3  0  0  0  0  0  0  0  0  0
   -2.1607   -1.0492    0.0000 C   0  0  0  0  0  0  0  0  0  0  0  0
   -0.1156    1.0849    0.0000 C   0  0  0  0  0  0  0  0  0  0  0  0
    3.5835   -2.4009    0.0000 C   0  0  0  0  0  0  0  0  0  0  0  0
    0.7025    1.0849    0.0000 C   0  0  0  0  0  0  0  0  0  0  0  0
    1.9829    0.3557    0.0000 C   0  0  0  0  0  0  0  0  0  0  0  0
   -2.8721   -0.6402    0.0000 C   0  0  0  0  0  0  0  0  0  0  0  0
   -2.1786   -1.8851    0.0000 C   0  0  0  0  0  0  0  0  0  0  0  0
   -0.5424    1.8140    0.0000 C   0  0  0  0  0  0  0  0  0  0  0  0
   -2.8544   -2.2764    0.0000 C   0  0  0  0  0  0  0  0  0  0  0  0
   -3.5835   -1.0492    0.0000 C   0  0  0  0  0  0  0  0  0  0  0  0
    1.1293    1.7962    0.0000 C   0  0  0  0  0  0  0  0  0  0  0  0
   -3.5835   -1.8851    0.0000 C   0  0  0  0  0  0  0  0  0  0  0  0
   -1.3783    1.8318    0.0000 C   0  0  0  0  0  0  0  0  0  0  0  0
   -0.1156    2.5431    0.0000 C   0  0  0  0  0  0  0  0  0  0  0  0
   -1.7695    2.5253    0.0000 C   0  0  0  0  0  0  0  0  0  0  0  0
   -0.5424    3.2367    0.0000 C   0  0  0  0  0  0  0  0  0  0  0  0
   -1.3605    3.2367    0.0000 C   0  0  0  0  0  0  0  0  0  0  0  0
  1 27  1  0  0  0  0
  2 30  1  0  0  0  0
  3 13  1  0  0  0  0
  3 32  1  0  0  0  0
  4 14  2  0  0  0  0
 17  5  1  6  0  0  0
 21  6  1  6  0  0  0
  7 11  1  0  0  0  0
  7 14  1  0  0  0  0
  7 18  1  0  0  0  0
  8 12  1  0  0  0  0
  8 20  1  0  0  0  0
  8 23  1  0  0  0  0
  9 12  2  0  0  0  0
  9 19  1  0  0  0  0
 10 16  1  0  0  0  0
 10 24  1  0  0  0  0
 11 12  1  0  0  0  0
 11 13  1  1  0  0  0
 13 25  1  0  0  0  0
 13 26  1  0  0  0  0
 14 17  1  0  0  0  0
 15 16  1  0  0  0  0
 15 18  1  1  0  0  0
 15 21  1  0  0  0  0
 16 17  1  0  0  0  0
 19 20  2  0  0  0  0
 19 22  1  0  0  0  0
 21 24  1  0  0  0  0
 22 27  1  0  0  0  0
 22 28  2  0  0  0  0
 23 29  1  0  0  0  0
 27 31  2  0  0  0  0
 28 30  1  0  0  0  0
 29 34  2  0  0  0  0
 29 35  1  0  0  0  0
 30 33  2  0  0  0  0
 31 33  1  0  0  0  0
 34 36  1  0  0  0  0
 35 37  2  0  0  0  0
 36 38  2  0  0  0  0
 37 38  1  0  0  0  0
M  END
> <PUBCHEM_COMPOUND_ID_TYPE>
0

> <PUBCHEM_TOTAL_CHARGE>
0

> <PUBCHEM_SUBSTANCE_ID>
310942488

> <PUBCHEM_SUBSTANCE_VERSION>
1

> <PUBCHEM_EXT_DATASOURCE_NAME>
4488

> <PUBCHEM_EXT_DATASOURCE_REGID>
SCHEMBL16120524

> <PUBCHEM_SUBSTANCE_COMMENT>
InChI=1S/C28H32F2N4O4/c1-28(2,38-3)25(34-14-19-22(35)12-31-23(19)24(36)27(34)37)26-32-21(18-11-17(29)9-10-20(18)30)15-33(26)13-16-7-5-4-6-8-16/h4-11,15,19,22-25,31,35-36H,12-14H2,1-3H3/t19-,22+,23?,24-,25-/m0/s1
InChIKey=QLZDAZYBGKSFOV-PIWDQYLRSA-N

> <PUBCHEM_SUBSTANCE_SYNONYM>
SCHEMBL16120524

> <PUBCHEM_XREF_EXT_ID>
SCHEMBL16120524

> <PUBCHEM_EXT_DATASOURCE_URL>
https://www.surechembl.org/

> <PUBCHEM_EXT_SUBSTANCE_URL>
https://www.surechembl.org/chemical/SCHEMBL16120524

> <PUBCHEM_CID_ASSOCIATIONS>
117609059  1

> <PUBCHEM_COORDINATE_TYPE>
1
3

> <PUBCHEM_BONDANNOTATIONS>
11  13  5
15  18  5
17  5  6
21  6  6

$$$$
