310938224
  -OEChem-07211613022D

 25 27  0     1  0  0  0  0  0999 V2000
    0.4796    1.3115    0.0000 O   0  0  0  0  0  0  0  0  0  0  0  0
   -0.7476    0.5795    0.0000 O   0  0  0  0  0  0  0  0  0  0  0  0
    0.4999   -0.1173    0.0000 N   0  0  0  0  0  0  0  0  0  0  0  0
    3.7519   -2.8171    0.0000 N   0  0  0  0  0  0  0  0  0  0  0  0
    1.9176   -2.9957    0.0000 N   0  0  0  0  0  0  0  0  0  0  0  0
    2.1275   -1.3591    0.0000 C   0  0  0  0  0  0  0  0  0  0  0  0
    0.6396   -0.9304    0.0000 C   0  0  3  0  0  0  0  0  0  0  0  0
    1.0605   -0.5572    0.0000 C   0  0  3  0  0  0  0  0  0  0  0  0
    1.6113   -0.9304    0.0000 C   0  0  0  0  0  0  0  0  0  0  0  0
    1.9893   -0.5417    0.0000 C   0  0  0  0  0  0  0  0  0  0  0  0
    2.8880   -1.6789    0.0000 C   0  0  0  0  0  0  0  0  0  0  0  0
    0.0773    0.5912    0.0000 C   0  0  0  0  0  0  0  0  0  0  0  0
    0.1197   -1.6427    0.0000 C   0  0  0  0  0  0  0  0  0  0  0  0
    0.7400   -1.2658    0.0000 C   0  0  0  0  0  0  0  0  0  0  0  0
    2.0225   -2.1774    0.0000 C   0  0  0  0  0  0  0  0  0  0  0  0
    3.5452   -1.1801    0.0000 C   0  0  0  0  0  0  0  0  0  0  0  0
    2.9914   -2.4974    0.0000 C   0  0  0  0  0  0  0  0  0  0  0  0
    4.3057   -1.4999    0.0000 C   0  0  0  0  0  0  0  0  0  0  0  0
    0.0570    2.0200    0.0000 C   0  0  0  0  0  0  0  0  0  0  0  0
    4.4090   -2.3184    0.0000 C   0  0  0  0  0  0  0  0  0  0  0  0
    4.9629   -1.0011    0.0000 C   0  0  0  0  0  0  0  0  0  0  0  0
   -0.3656    2.7286    0.0000 C   0  0  0  0  0  0  0  0  0  0  0  0
   -0.6515    1.5974    0.0000 C   0  0  0  0  0  0  0  0  0  0  0  0
    0.7655    2.4426    0.0000 C   0  0  0  0  0  0  0  0  0  0  0  0
    5.6200   -0.5024    0.0000 C   0  0  0  0  0  0  0  0  0  0  0  0
  1 12  1  0  0  0  0
  1 19  1  0  0  0  0
  2 12  2  0  0  0  0
  7  3  1  1  0  0  0
  8  3  1  6  0  0  0
  3 12  1  0  0  0  0
  4 17  2  0  0  0  0
  4 20  1  0  0  0  0
  5 15  3  0  0  0  0
  6  9  1  0  0  0  0
  6 10  1  0  0  0  0
  6 11  1  0  0  0  0
  6 15  1  1  0  0  0
  7  9  1  0  0  0  0
  7 13  1  0  0  0  0
  8 10  1  0  0  0  0
  8 14  1  0  0  0  0
 11 16  2  0  0  0  0
 11 17  1  0  0  0  0
 13 14  1  0  0  0  0
 16 18  1  0  0  0  0
 18 20  2  0  0  0  0
 18 21  1  0  0  0  0
 19 22  1  0  0  0  0
 19 23  1  0  0  0  0
 19 24  1  0  0  0  0
 21 25  3  0  0  0  0
M  END
> <PUBCHEM_COMPOUND_ID_TYPE>
0

> <PUBCHEM_TOTAL_CHARGE>
0

> <PUBCHEM_SUBSTANCE_ID>
310938224

> <PUBCHEM_SUBSTANCE_VERSION>
1

> <PUBCHEM_EXT_DATASOURCE_NAME>
4488

> <PUBCHEM_EXT_DATASOURCE_REGID>
SCHEMBL16116085

> <PUBCHEM_SUBSTANCE_COMMENT>
InChI=1S/C20H23N3O2/c1-5-14-8-15(12-22-11-14)20(13-21)9-16-6-7-17(10-20)23(16)18(24)25-19(2,3)4/h1,8,11-12,16-17H,6-7,9-10H2,2-4H3/t16-,17+,20-
InChIKey=HMJHADAAJQUSIC-XEMDLRDOSA-N

> <PUBCHEM_SUBSTANCE_SYNONYM>
SCHEMBL16116085

> <PUBCHEM_XREF_EXT_ID>
SCHEMBL16116085

> <PUBCHEM_EXT_DATASOURCE_URL>
https://www.surechembl.org/

> <PUBCHEM_EXT_SUBSTANCE_URL>
https://www.surechembl.org/chemical/SCHEMBL16116085

> <PUBCHEM_CID_ASSOCIATIONS>
117605750  1

> <PUBCHEM_COORDINATE_TYPE>
1
3

> <PUBCHEM_BONDANNOTATIONS>
7  3  5
8  3  6
6  15  5

$$$$
