310931260
  -OEChem-07211613022D

 36 40  0     0  0  0  0  0  0999 V2000
    4.9821   -3.5724    0.0000 S   0  0  0  0  0  0  0  0  0  0  0  0
    0.7846    0.6674    0.0000 S   0  0  0  0  0  0  0  0  0  0  0  0
    4.2675   -3.9849    0.0000 O   0  0  0  0  0  0  0  0  0  0  0  0
    5.6965   -3.1599    0.0000 O   0  0  0  0  0  0  0  0  0  0  0  0
    2.5071    0.7145    0.0000 O   0  0  0  0  0  0  0  0  0  0  0  0
    7.8696   -5.7158    0.0000 O   0  0  0  0  0  0  0  0  0  0  0  0
    2.5071   -0.7145    0.0000 N   0  0  0  0  0  0  0  0  0  0  0  0
    7.8696   -4.2868    0.0000 N   0  0  0  0  0  0  0  0  0  0  0  0
   -1.4290    0.4125    0.0000 N   0  0  0  0  0  0  0  0  0  0  0  0
    5.3946   -4.2868    0.0000 C   0  0  0  0  0  0  0  0  0  0  0  0
    4.5696   -2.8579    0.0000 C   0  0  0  0  0  0  0  0  0  0  0  0
    6.2196   -4.2868    0.0000 C   0  0  0  0  0  0  0  0  0  0  0  0
    1.2696    0.0000    0.0000 C   0  0  0  0  0  0  0  0  0  0  0  0
    0.0000    0.4125    0.0000 C   0  0  0  0  0  0  0  0  0  0  0  0
    0.0000   -0.4125    0.0000 C   0  0  0  0  0  0  0  0  0  0  0  0
    6.6321   -5.0013    0.0000 C   0  0  0  0  0  0  0  0  0  0  0  0
    4.9821   -5.0013    0.0000 C   0  0  0  0  0  0  0  0  0  0  0  0
    3.7446   -2.8579    0.0000 C   0  0  0  0  0  0  0  0  0  0  0  0
    4.9821   -2.1434    0.0000 C   0  0  0  0  0  0  0  0  0  0  0  0
    0.7846   -0.6674    0.0000 C   0  0  0  0  0  0  0  0  0  0  0  0
    3.7446   -1.4290    0.0000 C   0  0  0  0  0  0  0  0  0  0  0  0
    2.0946    0.0000    0.0000 C   0  0  0  0  0  0  0  0  0  0  0  0
    7.4571   -5.0013    0.0000 C   0  0  0  0  0  0  0  0  0  0  0  0
    3.3321   -2.1434    0.0000 C   0  0  0  0  0  0  0  0  0  0  0  0
    4.5696   -1.4290    0.0000 C   0  0  0  0  0  0  0  0  0  0  0  0
    6.2196   -5.7158    0.0000 C   0  0  0  0  0  0  0  0  0  0  0  0
    5.3946   -5.7158    0.0000 C   0  0  0  0  0  0  0  0  0  0  0  0
   -0.7145    0.8250    0.0000 C   0  0  0  0  0  0  0  0  0  0  0  0
   -0.7145   -0.8250    0.0000 C   0  0  0  0  0  0  0  0  0  0  0  0
    3.3321   -0.7145    0.0000 C   0  0  0  0  0  0  0  0  0  0  0  0
   -1.4290   -0.4125    0.0000 C   0  0  0  0  0  0  0  0  0  0  0  0
    8.6946   -4.2868    0.0000 C   0  0  0  0  0  0  0  0  0  0  0  0
    9.1795   -3.6194    0.0000 C   0  0  0  0  0  0  0  0  0  0  0  0
    9.1795   -4.9542    0.0000 C   0  0  0  0  0  0  0  0  0  0  0  0
    9.9641   -3.8743    0.0000 C   0  0  0  0  0  0  0  0  0  0  0  0
    9.9641   -4.6993    0.0000 C   0  0  0  0  0  0  0  0  0  0  0  0
  1  3  2  0  0  0  0
  1  4  2  0  0  0  0
  1 10  1  0  0  0  0
  1 11  1  0  0  0  0
  2 13  1  0  0  0  0
  2 14  1  0  0  0  0
  5 22  2  0  0  0  0
  6 23  2  0  0  0  0
  7 22  1  0  0  0  0
  7 30  1  0  0  0  0
  8 23  1  0  0  0  0
  8 32  1  0  0  0  0
  9 28  2  0  0  0  0
  9 31  1  0  0  0  0
 10 12  1  0  0  0  0
 10 17  2  0  0  0  0
 11 18  2  0  0  0  0
 11 19  1  0  0  0  0
 12 16  2  0  0  0  0
 13 20  2  0  0  0  0
 13 22  1  0  0  0  0
 14 15  2  0  0  0  0
 14 28  1  0  0  0  0
 15 20  1  0  0  0  0
 15 29  1  0  0  0  0
 16 23  1  0  0  0  0
 16 26  1  0  0  0  0
 17 27  1  0  0  0  0
 18 24  1  0  0  0  0
 19 25  2  0  0  0  0
 21 24  2  0  0  0  0
 21 25  1  0  0  0  0
 21 30  1  0  0  0  0
 26 27  2  0  0  0  0
 29 31  2  0  0  0  0
 32 33  1  0  0  0  0
 32 34  1  0  0  0  0
 33 35  1  0  0  0  0
 34 36  1  0  0  0  0
 35 36  1  0  0  0  0
M  END
> <PUBCHEM_COMPOUND_ID_TYPE>
0

> <PUBCHEM_TOTAL_CHARGE>
0

> <PUBCHEM_SUBSTANCE_ID>
310931260

> <PUBCHEM_SUBSTANCE_VERSION>
1

> <PUBCHEM_EXT_DATASOURCE_NAME>
4488

> <PUBCHEM_EXT_DATASOURCE_REGID>
SCHEMBL16108574

> <PUBCHEM_SUBSTANCE_COMMENT>
InChI=1S/C27H25N3O4S2/c31-26(30-21-5-1-2-6-21)20-4-3-7-23(14-20)36(33,34)22-10-8-18(9-11-22)16-29-27(32)24-15-19-12-13-28-17-25(19)35-24/h3-4,7-15,17,21H,1-2,5-6,16H2,(H,29,32)(H,30,31)
InChIKey=CXKSZCBVMOMIPI-UHFFFAOYSA-N

> <PUBCHEM_SUBSTANCE_SYNONYM>
SCHEMBL16108574

> <PUBCHEM_XREF_EXT_ID>
SCHEMBL16108574

> <PUBCHEM_EXT_DATASOURCE_URL>
https://www.surechembl.org/

> <PUBCHEM_EXT_SUBSTANCE_URL>
https://www.surechembl.org/chemical/SCHEMBL16108574

> <PUBCHEM_CID_ASSOCIATIONS>
117600092  1

> <PUBCHEM_COORDINATE_TYPE>
1
3

$$$$
