310929105
  -OEChem-07211613022D

 58 63  0     0  0  0  0  0  0999 V2000
   13.6584   -2.9692    0.0000 O   0  0  0  0  0  0  0  0  0  0  0  0
   13.6584   -4.5132    0.0000 O   0  0  0  0  0  0  0  0  0  0  0  0
    9.9766   -2.1972    0.0000 O   0  0  0  0  0  0  0  0  0  0  0  0
   13.2427   -0.8314    0.0000 O   0  0  0  0  0  0  0  0  0  0  0  0
    4.9883   -2.0784    0.0000 O   0  0  0  0  0  0  0  0  0  0  0  0
    7.5418   -0.7126    0.0000 O   0  0  0  0  0  0  0  0  0  0  0  0
    4.5132   -4.2163    0.0000 O   0  0  0  0  0  0  0  0  0  0  0  0
    2.4348   -4.8696    0.0000 O   0  0  0  0  0  0  0  0  0  0  0  0
    0.8314   -3.4443    0.0000 O   0  0  0  0  0  0  0  0  0  0  0  0
   14.4898   -1.5440    0.0000 N   0  0  0  0  0  0  0  0  0  0  0  0
   13.2427   -2.2566    0.0000 N   0  0  0  0  0  0  0  0  0  0  0  0
   14.8461   -5.1665    0.0000 N   0  0  0  0  0  0  0  0  0  0  0  0
   14.1929   -5.7009    0.0000 N   0  0  0  0  0  0  0  0  0  0  0  0
    8.7295   -2.9098    0.0000 N   0  0  0  0  0  0  0  0  0  0  0  0
    7.4231   -3.5631    0.0000 N   0  0  0  0  0  0  0  0  0  0  0  0
    8.6701   -4.3350    0.0000 N   0  0  0  0  0  0  0  0  0  0  0  0
   14.9055   -3.6819    0.0000 C   0  0  0  0  0  0  0  0  0  0  0  0
   14.4898   -2.9692    0.0000 C   0  0  0  0  0  0  0  0  0  0  0  0
   14.9055   -2.2566    0.0000 C   0  0  0  0  0  0  0  0  0  0  0  0
   16.1526   -2.9692    0.0000 C   0  0  0  0  0  0  0  0  0  0  0  0
   15.7369   -3.6819    0.0000 C   0  0  0  0  0  0  0  0  0  0  0  0
   12.0551   -1.5440    0.0000 C   0  0  0  0  0  0  0  0  0  0  0  0
   14.4898   -4.3944    0.0000 C   0  0  0  0  0  0  0  0  0  0  0  0
   15.7369   -2.2566    0.0000 C   0  0  0  0  0  0  0  0  0  0  0  0
   11.2236   -1.5440    0.0000 C   0  0  0  0  0  0  0  0  0  0  0  0
   16.9839   -2.9692    0.0000 C   0  0  0  0  0  0  0  0  0  0  0  0
   12.4113   -2.2566    0.0000 C   0  0  0  0  0  0  0  0  0  0  0  0
   10.8080   -2.2566    0.0000 C   0  0  0  0  0  0  0  0  0  0  0  0
   13.6584   -1.5440    0.0000 C   0  0  0  0  0  0  0  0  0  0  0  0
   11.9957   -2.9692    0.0000 C   0  0  0  0  0  0  0  0  0  0  0  0
   11.1643   -2.9692    0.0000 C   0  0  0  0  0  0  0  0  0  0  0  0
   12.4707   -0.8314    0.0000 C   0  0  0  0  0  0  0  0  0  0  0  0
   10.8080   -0.8314    0.0000 C   0  0  0  0  0  0  0  0  0  0  0  0
    9.5015   -2.9098    0.0000 C   0  0  0  0  0  0  0  0  0  0  0  0
   16.9839   -3.8006    0.0000 C   0  0  0  0  0  0  0  0  0  0  0  0
   17.8153   -2.9692    0.0000 C   0  0  0  0  0  0  0  0  0  0  0  0
   16.9839   -2.1378    0.0000 C   0  0  0  0  0  0  0  0  0  0  0  0
   12.0551   -0.1188    0.0000 C   0  0  0  0  0  0  0  0  0  0  0  0
   11.2236   -0.1188    0.0000 C   0  0  0  0  0  0  0  0  0  0  0  0
   13.4803   -5.2852    0.0000 C   0  0  0  0  0  0  0  0  0  0  0  0
    8.2545   -3.6225    0.0000 C   0  0  0  0  0  0  0  0  0  0  0  0
    9.9766   -3.6225    0.0000 C   0  0  0  0  0  0  0  0  0  0  0  0
   13.2427   -3.6819    0.0000 C   0  0  0  0  0  0  0  0  0  0  0  0
    7.0668   -2.8505    0.0000 C   0  0  0  0  0  0  0  0  0  0  0  0
    9.5015   -4.3350    0.0000 C   0  0  0  0  0  0  0  0  0  0  0  0
    6.2354   -2.8505    0.0000 C   0  0  0  0  0  0  0  0  0  0  0  0
    5.8197   -2.1378    0.0000 C   0  0  0  0  0  0  0  0  0  0  0  0
    7.4824   -2.1378    0.0000 C   0  0  0  0  0  0  0  0  0  0  0  0
    7.0668   -1.4253    0.0000 C   0  0  0  0  0  0  0  0  0  0  0  0
    6.2948   -1.4253    0.0000 C   0  0  0  0  0  0  0  0  0  0  0  0
    4.5726   -2.7911    0.0000 C   0  0  0  0  0  0  0  0  0  0  0  0
    7.1262    0.0000    0.0000 C   0  0  0  0  0  0  0  0  0  0  0  0
    4.9289   -3.5037    0.0000 C   0  0  0  0  0  0  0  0  0  0  0  0
    3.6819   -4.2163    0.0000 C   0  0  0  0  0  0  0  0  0  0  0  0
    3.2661   -4.9289    0.0000 C   0  0  0  0  0  0  0  0  0  0  0  0
    2.0190   -4.1569    0.0000 C   0  0  0  0  0  0  0  0  0  0  0  0
    1.2471   -4.1569    0.0000 C   0  0  0  0  0  0  0  0  0  0  0  0
    0.0000   -3.4443    0.0000 C   0  0  0  0  0  0  0  0  0  0  0  0
  1 18  1  0  0  0  0
  1 43  1  0  0  0  0
  2 23  1  0  0  0  0
  2 40  1  0  0  0  0
  3 28  1  0  0  0  0
  3 34  1  0  0  0  0
  4 29  2  0  0  0  0
  5 47  1  0  0  0  0
  5 51  1  0  0  0  0
  6 49  1  0  0  0  0
  6 52  1  0  0  0  0
  7 53  1  0  0  0  0
  7 54  1  0  0  0  0
  8 55  1  0  0  0  0
  8 56  1  0  0  0  0
  9 57  1  0  0  0  0
  9 58  1  0  0  0  0
 10 19  1  0  0  0  0
 10 29  1  0  0  0  0
 11 27  1  0  0  0  0
 11 29  1  0  0  0  0
 12 13  1  0  0  0  0
 12 23  2  0  0  0  0
 13 40  2  0  0  0  0
 14 34  2  0  0  0  0
 14 41  1  0  0  0  0
 15 41  1  0  0  0  0
 15 44  1  0  0  0  0
 16 41  2  0  0  0  0
 16 45  1  0  0  0  0
 17 18  2  0  0  0  0
 17 21  1  0  0  0  0
 17 23  1  0  0  0  0
 18 19  1  0  0  0  0
 19 24  2  0  0  0  0
 20 21  2  0  0  0  0
 20 24  1  0  0  0  0
 20 26  1  0  0  0  0
 22 25  2  0  0  0  0
 22 27  1  0  0  0  0
 22 32  1  0  0  0  0
 25 28  1  0  0  0  0
 25 33  1  0  0  0  0
 26 35  1  0  0  0  0
 26 36  1  0  0  0  0
 26 37  1  0  0  0  0
 27 30  2  0  0  0  0
 28 31  2  0  0  0  0
 30 31  1  0  0  0  0
 32 38  2  0  0  0  0
 33 39  2  0  0  0  0
 34 42  1  0  0  0  0
 38 39  1  0  0  0  0
 42 45  2  0  0  0  0
 44 46  2  0  0  0  0
 44 48  1  0  0  0  0
 46 47  1  0  0  0  0
 47 50  2  0  0  0  0
 48 49  2  0  0  0  0
 49 50  1  0  0  0  0
 51 53  1  0  0  0  0
 54 55  1  0  0  0  0
 56 57  1  0  0  0  0
M  END
> <PUBCHEM_COMPOUND_ID_TYPE>
0

> <PUBCHEM_TOTAL_CHARGE>
0

> <PUBCHEM_SUBSTANCE_ID>
310929105

> <PUBCHEM_SUBSTANCE_VERSION>
1

> <PUBCHEM_EXT_DATASOURCE_NAME>
4488

> <PUBCHEM_EXT_DATASOURCE_REGID>
SCHEMBL16106267

> <PUBCHEM_SUBSTANCE_COMMENT>
InChI=1S/C42H47N7O9/c1-42(2,3)27-21-33(39-49-44-26-57-39)38(53-6)35(22-27)47-41(50)46-34-11-12-36(32-10-8-7-9-31(32)34)58-37-13-14-43-40(48-37)45-28-23-29(52-5)25-30(24-28)56-20-19-55-18-17-54-16-15-51-4/h7-14,21-26H,15-20H2,1-6H3,(H,43,45,48)(H2,46,47,50)
InChIKey=OUROWULXWNIHIF-UHFFFAOYSA-N

> <PUBCHEM_SUBSTANCE_SYNONYM>
SCHEMBL16106267

> <PUBCHEM_XREF_EXT_ID>
SCHEMBL16106267

> <PUBCHEM_EXT_DATASOURCE_URL>
https://www.surechembl.org/

> <PUBCHEM_EXT_SUBSTANCE_URL>
https://www.surechembl.org/chemical/SCHEMBL16106267

> <PUBCHEM_CID_ASSOCIATIONS>
86272355  1

> <PUBCHEM_COORDINATE_TYPE>
1
3

$$$$
