310943438
  -OEChem-07211613022D

 33 36  0     0  0  0  0  0  0999 V2000
   -3.1578    0.0000    0.0000 Cl  0  0  0  0  0  0  0  0  0  0  0  0
    4.3193   -2.0471    0.0000 F   0  0  0  0  0  0  0  0  0  0  0  0
    3.5207   -2.8601    0.0000 F   0  0  0  0  0  0  0  0  0  0  0  0
    2.7222   -2.0471    0.0000 F   0  0  0  0  0  0  0  0  0  0  0  0
    1.3720    0.0000    0.0000 O   0  0  0  0  0  0  0  0  0  0  0  0
   -4.3193    2.4537    0.0000 O   0  0  0  0  0  0  0  0  0  0  0  0
   -2.8965    1.6406    0.0000 N   0  0  0  0  0  0  0  0  0  0  0  0
   -1.4736    0.0000    0.0000 N   0  0  0  0  0  0  0  0  0  0  0  0
    2.0835    1.2341    0.0000 N   0  0  0  0  0  0  0  0  0  0  0  0
    0.6606    2.8601    0.0000 N   0  0  0  0  0  0  0  0  0  0  0  0
    4.2177   -0.8130    0.0000 N   0  0  0  0  0  0  0  0  0  0  0  0
    4.2177    0.0000    0.0000 N   0  0  0  0  0  0  0  0  0  0  0  0
   -0.0653    1.6406    0.0000 C   0  0  0  0  0  0  0  0  0  0  0  0
   -0.7477    1.2486    0.0000 C   0  0  0  0  0  0  0  0  0  0  0  0
   -2.1706    1.2486    0.0000 C   0  0  0  0  0  0  0  0  0  0  0  0
   -1.4736    1.6406    0.0000 C   0  0  0  0  0  0  0  0  0  0  0  0
   -0.0508    2.4682    0.0000 C   0  0  0  0  0  0  0  0  0  0  0  0
    1.3575    1.6406    0.0000 C   0  0  0  0  0  0  0  0  0  0  0  0
   -2.1996    0.4066    0.0000 C   0  0  0  0  0  0  0  0  0  0  0  0
    0.6606    1.2341    0.0000 C   0  0  0  0  0  0  0  0  0  0  0  0
    3.5062   -1.2051    0.0000 C   0  0  0  0  0  0  0  0  0  0  0  0
    2.7948    0.0145    0.0000 C   0  0  0  0  0  0  0  0  0  0  0  0
   -0.7622    0.4066    0.0000 C   0  0  0  0  0  0  0  0  0  0  0  0
    2.0980    0.4211    0.0000 C   0  0  0  0  0  0  0  0  0  0  0  0
    3.5062   -2.0471    0.0000 C   0  0  0  0  0  0  0  0  0  0  0  0
    2.7948   -0.8130    0.0000 C   0  0  0  0  0  0  0  0  0  0  0  0
    1.3720    2.4537    0.0000 C   0  0  0  0  0  0  0  0  0  0  0  0
    3.4772    0.4066    0.0000 C   0  0  0  0  0  0  0  0  0  0  0  0
   -2.8965    2.4537    0.0000 C   0  0  0  0  0  0  0  0  0  0  0  0
   -3.5788    1.2486    0.0000 C   0  0  0  0  0  0  0  0  0  0  0  0
   -0.7768    2.8601    0.0000 C   0  0  0  0  0  0  0  0  0  0  0  0
   -3.6224    2.8601    0.0000 C   0  0  0  0  0  0  0  0  0  0  0  0
   -4.3048    1.6406    0.0000 C   0  0  0  0  0  0  0  0  0  0  0  0
  1 19  1  0  0  0  0
  2 25  1  0  0  0  0
  3 25  1  0  0  0  0
  4 25  1  0  0  0  0
  5 24  2  0  0  0  0
  6 32  1  0  0  0  0
  6 33  1  0  0  0  0
  7 15  1  0  0  0  0
  7 29  1  0  0  0  0
  7 30  1  0  0  0  0
  8 19  2  0  0  0  0
  8 23  1  0  0  0  0
  9 18  1  0  0  0  0
  9 24  1  0  0  0  0
 10 17  1  0  0  0  0
 10 27  2  0  0  0  0
 11 12  1  0  0  0  0
 11 21  2  0  0  0  0
 12 28  2  0  0  0  0
 13 14  1  0  0  0  0
 13 17  2  0  0  0  0
 13 20  1  0  0  0  0
 14 16  1  0  0  0  0
 14 23  2  0  0  0  0
 15 16  2  0  0  0  0
 15 19  1  0  0  0  0
 17 31  1  0  0  0  0
 18 20  2  0  0  0  0
 18 27  1  0  0  0  0
 21 25  1  0  0  0  0
 21 26  1  0  0  0  0
 22 24  1  0  0  0  0
 22 26  2  0  0  0  0
 22 28  1  0  0  0  0
 29 32  1  0  0  0  0
 30 33  1  0  0  0  0
M  END
> <PUBCHEM_COMPOUND_ID_TYPE>
0

> <PUBCHEM_TOTAL_CHARGE>
0

> <PUBCHEM_SUBSTANCE_ID>
310943438

> <PUBCHEM_SUBSTANCE_VERSION>
1

> <PUBCHEM_EXT_DATASOURCE_NAME>
4488

> <PUBCHEM_EXT_DATASOURCE_REGID>
SCHEMBL16121502

> <PUBCHEM_SUBSTANCE_COMMENT>
InChI=1S/C21H18ClF3N6O2/c1-12-16(13-6-17(19(22)27-9-13)31-2-4-33-5-3-31)8-15(11-26-12)29-20(32)14-7-18(21(23,24)25)30-28-10-14/h6-11H,2-5H2,1H3,(H,29,32)
InChIKey=KPRVGPIJAMNICB-UHFFFAOYSA-N

> <PUBCHEM_SUBSTANCE_SYNONYM>
SCHEMBL16121502

> <PUBCHEM_XREF_EXT_ID>
SCHEMBL16121502

> <PUBCHEM_EXT_DATASOURCE_URL>
https://www.surechembl.org/

> <PUBCHEM_EXT_SUBSTANCE_URL>
https://www.surechembl.org/chemical/SCHEMBL16121502

> <PUBCHEM_CID_ASSOCIATIONS>
117609862  1

> <PUBCHEM_COORDINATE_TYPE>
1
3

$$$$
