310938342
  -OEChem-07211613022D

 11 11  0     0  0  0  0  0  0999 V2000
    0.0000   -0.5722    0.0000 Br  0  0  0  0  0  0  0  0  0  0  0  0
    1.7166    0.0000    0.0000 Cl  0  0  0  0  0  0  0  0  0  0  0  0
    3.1669   -0.7452    0.0000 O   0  0  0  0  0  0  0  0  0  0  0  0
    3.1669   -2.1690    0.0000 O   0  0  0  0  0  0  0  0  0  0  0  0
    1.4637   -2.1290    0.0000 N   0  0  0  0  0  0  0  0  0  0  0  0
    1.9427   -1.4504    0.0000 C   0  0  0  0  0  0  0  0  0  0  0  0
    1.4637   -0.7851    0.0000 C   0  0  0  0  0  0  0  0  0  0  0  0
    0.6786   -1.0512    0.0000 C   0  0  0  0  0  0  0  0  0  0  0  0
    2.7677   -1.4504    0.0000 C   0  0  0  0  0  0  0  0  0  0  0  0
    0.6786   -1.8629    0.0000 C   0  0  0  0  0  0  0  0  0  0  0  0
    3.9919   -0.7452    0.0000 C   0  0  0  0  0  0  0  0  0  0  0  0
  1  8  1  0  0  0  0
  2  7  1  0  0  0  0
  3  9  1  0  0  0  0
  3 11  1  0  0  0  0
  4  9  2  0  0  0  0
  5  6  1  0  0  0  0
  5 10  1  0  0  0  0
  6  7  2  0  0  0  0
  6  9  1  0  0  0  0
  7  8  1  0  0  0  0
  8 10  2  0  0  0  0
M  END
> <PUBCHEM_COMPOUND_ID_TYPE>
0

> <PUBCHEM_TOTAL_CHARGE>
0

> <PUBCHEM_SUBSTANCE_ID>
310938342

> <PUBCHEM_SUBSTANCE_VERSION>
1

> <PUBCHEM_EXT_DATASOURCE_NAME>
4488

> <PUBCHEM_EXT_DATASOURCE_REGID>
SCHEMBL16116224

> <PUBCHEM_SUBSTANCE_COMMENT>
InChI=1S/C6H5BrClNO2/c1-11-6(10)5-4(8)3(7)2-9-5/h2,9H,1H3
InChIKey=LJDZNDKWKFGVKH-UHFFFAOYSA-N

> <PUBCHEM_SUBSTANCE_SYNONYM>
SCHEMBL16116224

> <PUBCHEM_XREF_EXT_ID>
SCHEMBL16116224

> <PUBCHEM_EXT_DATASOURCE_URL>
https://www.surechembl.org/

> <PUBCHEM_EXT_SUBSTANCE_URL>
https://www.surechembl.org/chemical/SCHEMBL16116224

> <PUBCHEM_CID_ASSOCIATIONS>
117605829  1

> <PUBCHEM_COORDINATE_TYPE>
1
3

$$$$
