310928738
  -OEChem-07211613022D

 29 30  0     0  0  0  0  0  0999 V2000
   -0.3572   -2.2687    0.0000 I   0  0  0  0  0  0  0  0  0  0  0  0
    1.0717    0.2062    0.0000 I   0  0  0  0  0  0  0  0  0  0  0  0
    1.0717   -1.4438    0.0000 O   0  0  0  0  0  0  0  0  0  0  0  0
   -3.2151    1.0313    0.0000 O   0  0  0  0  0  0  0  0  0  0  0  0
   -0.3572    1.0313    0.0000 O   0  0  0  0  0  0  0  0  0  0  0  0
   -2.5006    2.2687    0.0000 O   0  0  0  0  0  0  0  0  0  0  0  0
   -1.0717    2.2687    0.0000 O   0  0  0  0  0  0  0  0  0  0  0  0
    3.9296    0.2062    0.0000 O   0  0  0  0  0  0  0  0  0  0  0  0
    0.3572   -1.0313    0.0000 C   0  0  0  0  0  0  0  0  0  0  0  0
   -1.0717   -0.2062    0.0000 C   0  0  0  0  0  0  0  0  0  0  0  0
   -0.3572   -1.4438    0.0000 C   0  0  0  0  0  0  0  0  0  0  0  0
    0.3572   -0.2062    0.0000 C   0  0  0  0  0  0  0  0  0  0  0  0
   -1.0717   -1.0313    0.0000 C   0  0  0  0  0  0  0  0  0  0  0  0
   -0.3572    0.2062    0.0000 C   0  0  0  0  0  0  0  0  0  0  0  0
   -1.7862    1.0313    0.0000 C   0  0  0  0  0  0  0  0  0  0  0  0
   -1.7862    0.2062    0.0000 C   0  0  0  0  0  0  0  0  0  0  0  0
    1.7862   -1.0313    0.0000 C   0  0  0  0  0  0  0  0  0  0  0  0
   -2.5006    1.4437    0.0000 C   0  0  0  0  0  0  0  0  0  0  0  0
   -1.0717    1.4438    0.0000 C   0  0  0  0  0  0  0  0  0  0  0  0
    1.7862   -0.2062    0.0000 C   0  0  0  0  0  0  0  0  0  0  0  0
    2.5006   -1.4438    0.0000 C   0  0  0  0  0  0  0  0  0  0  0  0
    3.2151   -0.2062    0.0000 C   0  0  0  0  0  0  0  0  0  0  0  0
    2.5006    0.2062    0.0000 C   0  0  0  0  0  0  0  0  0  0  0  0
    3.2151   -1.0313    0.0000 C   0  0  0  0  0  0  0  0  0  0  0  0
   -3.9296    1.4437    0.0000 C   0  0  0  0  0  0  0  0  0  0  0  0
    0.3572    1.4437    0.0000 C   0  0  0  0  0  0  0  0  0  0  0  0
    4.6441   -0.2062    0.0000 C   0  0  0  0  0  0  0  0  0  0  0  0
   -4.6441    1.0313    0.0000 C   0  0  0  0  0  0  0  0  0  0  0  0
    1.0717    1.0313    0.0000 C   0  0  0  0  0  0  0  0  0  0  0  0
  1 11  1  0  0  0  0
  2 12  1  0  0  0  0
  3  9  1  0  0  0  0
  3 17  1  0  0  0  0
  4 18  1  0  0  0  0
  4 25  1  0  0  0  0
  5 19  1  0  0  0  0
  5 26  1  0  0  0  0
  6 18  2  0  0  0  0
  7 19  2  0  0  0  0
  8 22  1  0  0  0  0
  8 27  1  0  0  0  0
  9 11  2  0  0  0  0
  9 12  1  0  0  0  0
 10 13  2  0  0  0  0
 10 14  1  0  0  0  0
 10 16  1  0  0  0  0
 11 13  1  0  0  0  0
 12 14  2  0  0  0  0
 15 16  1  0  0  0  0
 15 18  1  0  0  0  0
 15 19  1  0  0  0  0
 17 20  2  0  0  0  0
 17 21  1  0  0  0  0
 20 23  1  0  0  0  0
 21 24  2  0  0  0  0
 22 23  2  0  0  0  0
 22 24  1  0  0  0  0
 25 28  1  0  0  0  0
 26 29  1  0  0  0  0
M  END
> <PUBCHEM_COMPOUND_ID_TYPE>
0

> <PUBCHEM_TOTAL_CHARGE>
0

> <PUBCHEM_SUBSTANCE_ID>
310928738

> <PUBCHEM_SUBSTANCE_VERSION>
1

> <PUBCHEM_EXT_DATASOURCE_NAME>
11752

> <PUBCHEM_EXT_DATASOURCE_REGID>
BD254730

> <PUBCHEM_SUBSTANCE_SYNONYM>
94861-76-4
Diethyl 2-(3,5-diiodo-4-(4-methoxyphenoxy)benzyl)malonate

> <PUBCHEM_GENERIC_REGISTRY_NAME>
94861-76-4

> <PUBCHEM_XREF_EXT_ID>
BD254730

> <PUBCHEM_EXT_DATASOURCE_URL>
http://www.bidepharmatech.com/en/index.html

> <PUBCHEM_EXT_SUBSTANCE_URL>
http://www.bidepharmatech.com/en/goodsview_goodscode_BD254730.html

> <PUBCHEM_CID_ASSOCIATIONS>
44228960  1

> <PUBCHEM_COORDINATE_TYPE>
1
3

$$$$
