310944184
  -OEChem-07211613022D

 32 36  0     1  0  0  0  0  0999 V2000
    2.4963   -0.0996    0.0000 O   0  0  0  0  0  0  0  0  0  0  0  0
    5.0314   -1.6605    0.0000 O   0  0  0  0  0  0  0  0  0  0  0  0
    5.4964   -0.2767    0.0000 O   0  0  0  0  0  0  0  0  0  0  0  0
   -1.3118   -1.2399    0.0000 O   0  0  0  0  0  0  0  0  0  0  0  0
    2.8838   -1.5277    0.0000 N   0  0  0  0  0  0  0  0  0  0  0  0
    0.1273   -0.4207    0.0000 N   0  0  0  0  0  0  0  0  0  0  0  0
   -4.1790    1.2288    0.0000 N   0  0  0  0  0  0  0  0  0  0  0  0
   -2.0203    0.8192    0.0000 N   0  0  0  0  0  0  0  0  0  0  0  0
   -2.7399    1.2288    0.0000 N   0  0  0  0  0  0  0  0  0  0  0  0
   -4.2675    2.0480    0.0000 N   0  0  0  0  0  0  0  0  0  0  0  0
   -5.0757    2.2252    0.0000 N   0  0  0  0  0  0  0  0  0  0  0  0
   -5.4964    1.5056    0.0000 N   0  0  0  0  0  0  0  0  0  0  0  0
    1.5554   -1.2399    0.0000 C   0  0  0  0  0  0  0  0  0  0  0  0
    2.3192   -0.9299    0.0000 C   0  0  0  0  0  0  0  0  0  0  0  0
    3.6919   -1.4280    0.0000 C   0  0  0  0  0  0  0  0  0  0  0  0
    1.6550   -2.0591    0.0000 C   0  0  0  0  0  0  0  0  0  0  0  0
    2.4631   -2.2252    0.0000 C   0  0  0  0  0  0  0  0  0  0  0  0
    0.8690   -1.6495    0.0000 C   0  0  0  0  0  0  0  0  0  0  0  0
    1.5665   -0.4207    0.0000 C   0  0  0  0  0  0  0  0  0  0  0  0
    4.0904   -0.6864    0.0000 C   0  0  0  0  0  0  0  0  0  0  0  0
    4.3008   -2.0148    0.0000 C   0  0  0  0  0  0  0  0  0  0  0  0
    4.8986   -0.8524    0.0000 C   0  0  0  0  0  0  0  0  0  0  0  0
    0.1273   -1.2399    0.0000 C   0  0  0  0  0  0  0  0  0  0  0  0
    0.8358   -0.0111    0.0000 C   0  0  0  0  0  0  0  0  0  0  0  0
   -0.6033   -0.0111    0.0000 C   0  0  0  0  0  0  0  0  0  0  0  0
   -1.3007   -0.4096    0.0000 C   0  0  3  0  0  0  0  0  0  0  0  0
   -2.0314    0.0000    0.0000 C   0  0  0  0  0  0  0  0  0  0  0  0
    3.7362    0.0554    0.0000 C   0  0  0  0  0  0  0  0  0  0  0  0
   -3.4594    0.8192    0.0000 C   0  0  0  0  0  0  0  0  0  0  0  0
   -2.7399   -0.4096    0.0000 C   0  0  0  0  0  0  0  0  0  0  0  0
   -3.4594    0.0000    0.0000 C   0  0  0  0  0  0  0  0  0  0  0  0
   -4.9317    0.8967    0.0000 C   0  0  0  0  0  0  0  0  0  0  0  0
  1 14  2  0  0  0  0
  2 21  1  0  0  0  0
  2 22  1  0  0  0  0
  3 22  2  0  0  0  0
 26  4  1  6  0  0  0
  5 14  1  0  0  0  0
  5 15  1  0  0  0  0
  5 17  1  0  0  0  0
  6 23  1  0  0  0  0
  6 24  1  0  0  0  0
  6 25  1  0  0  0  0
  7 10  1  0  0  0  0
  7 29  1  0  0  0  0
  7 32  1  0  0  0  0
  8  9  1  0  0  0  0
  8 27  2  0  0  0  0
  9 29  2  0  0  0  0
 10 11  2  0  0  0  0
 11 12  1  0  0  0  0
 12 32  2  0  0  0  0
 13 14  1  0  0  0  0
 13 16  1  0  0  0  0
 13 18  1  0  0  0  0
 13 19  1  0  0  0  0
 15 20  2  0  0  0  0
 15 21  1  0  0  0  0
 16 17  2  0  0  0  0
 18 23  1  0  0  0  0
 19 24  1  0  0  0  0
 20 22  1  0  0  0  0
 20 28  1  0  0  0  0
 25 26  1  0  0  0  0
 26 27  1  0  0  0  0
 27 30  1  0  0  0  0
 29 31  1  0  0  0  0
 30 31  2  0  0  0  0
M  END
> <PUBCHEM_COMPOUND_ID_TYPE>
0

> <PUBCHEM_TOTAL_CHARGE>
0

> <PUBCHEM_SUBSTANCE_ID>
310944184

> <PUBCHEM_SUBSTANCE_VERSION>
1

> <PUBCHEM_EXT_DATASOURCE_NAME>
4488

> <PUBCHEM_EXT_DATASOURCE_REGID>
SCHEMBL16122259

> <PUBCHEM_SUBSTANCE_COMMENT>
InChI=1S/C20H22N8O4/c1-13-15(11-32-18(13)30)27-9-6-20(19(27)31)4-7-26(8-5-20)10-16(29)14-2-3-17(23-22-14)28-12-21-24-25-28/h2-3,6,9,12,16,29H,4-5,7-8,10-11H2,1H3/t16-/m0/s1
InChIKey=YTZBQTOPPXPOOR-INIZCTEOSA-N

> <PUBCHEM_SUBSTANCE_SYNONYM>
SCHEMBL16122259

> <PUBCHEM_XREF_EXT_ID>
SCHEMBL16122259

> <PUBCHEM_EXT_DATASOURCE_URL>
https://www.surechembl.org/

> <PUBCHEM_EXT_SUBSTANCE_URL>
https://www.surechembl.org/chemical/SCHEMBL16122259

> <PUBCHEM_CID_ASSOCIATIONS>
117610458  1

> <PUBCHEM_COORDINATE_TYPE>
1
3

> <PUBCHEM_BONDANNOTATIONS>
26  4  6

$$$$
