310944528
  -OEChem-07211613022D

 36 41  0     0  0  0  0  0  0999 V2000
    0.0729    3.4826    0.0000 F   0  0  0  0  0  0  0  0  0  0  0  0
    0.0081    0.2429    0.0000 N   0  0  0  0  0  0  0  0  0  0  0  0
    2.2434    2.9966    0.0000 N   0  0  0  0  0  0  0  0  0  0  0  0
   -2.1462    3.0290    0.0000 N   0  0  0  0  0  0  0  0  0  0  0  0
   -0.6884   -0.2268    0.0000 C   0  0  0  0  0  0  0  0  0  0  0  0
    0.7046   -0.2268    0.0000 C   0  0  0  0  0  0  0  0  0  0  0  0
   -0.4454   -0.9881    0.0000 C   0  0  0  0  0  0  0  0  0  0  0  0
    0.4131   -0.9881    0.0000 C   0  0  0  0  0  0  0  0  0  0  0  0
    0.0243    1.0853    0.0000 C   0  0  0  0  0  0  0  0  0  0  0  0
   -1.0124   -1.5874    0.0000 C   0  0  0  0  0  0  0  0  0  0  0  0
    0.9962   -1.6198    0.0000 C   0  0  0  0  0  0  0  0  0  0  0  0
    1.4984   -0.0810    0.0000 C   0  0  0  0  0  0  0  0  0  0  0  0
   -1.4984   -0.0486    0.0000 C   0  0  0  0  0  0  0  0  0  0  0  0
    1.8061   -1.4741    0.0000 C   0  0  0  0  0  0  0  0  0  0  0  0
   -1.8223   -1.4092    0.0000 C   0  0  0  0  0  0  0  0  0  0  0  0
    0.7694    1.4578    0.0000 C   0  0  0  0  0  0  0  0  0  0  0  0
   -0.6884    1.4902    0.0000 C   0  0  0  0  0  0  0  0  0  0  0  0
    2.0652   -0.6641    0.0000 C   0  0  0  0  0  0  0  0  0  0  0  0
   -2.0815   -0.6317    0.0000 C   0  0  0  0  0  0  0  0  0  0  0  0
    0.7856    2.2840    0.0000 C   0  0  0  0  0  0  0  0  0  0  0  0
   -0.6884    2.3001    0.0000 C   0  0  0  0  0  0  0  0  0  0  0  0
    0.0405    2.6889    0.0000 C   0  0  0  0  0  0  0  0  0  0  0  0
   -2.4216   -2.0572    0.0000 C   0  0  0  0  0  0  0  0  0  0  0  0
    2.3730   -2.0895    0.0000 C   0  0  0  0  0  0  0  0  0  0  0  0
    1.5145    2.6565    0.0000 C   0  0  0  0  0  0  0  0  0  0  0  0
   -1.4335    2.6889    0.0000 C   0  0  0  0  0  0  0  0  0  0  0  0
   -3.1991   -1.8628    0.0000 C   0  0  0  0  0  0  0  0  0  0  0  0
    2.1301   -2.8670    0.0000 C   0  0  0  0  0  0  0  0  0  0  0  0
   -2.1624   -2.8347    0.0000 C   0  0  0  0  0  0  0  0  0  0  0  0
    3.2477   -1.9599    0.0000 C   0  0  0  0  0  0  0  0  0  0  0  0
    2.6808   -3.4826    0.0000 C   0  0  0  0  0  0  0  0  0  0  0  0
   -3.7985   -2.4783    0.0000 C   0  0  0  0  0  0  0  0  0  0  0  0
   -2.7132   -3.4178    0.0000 C   0  0  0  0  0  0  0  0  0  0  0  0
    3.7985   -2.5593    0.0000 C   0  0  0  0  0  0  0  0  0  0  0  0
    3.5231   -3.3368    0.0000 C   0  0  0  0  0  0  0  0  0  0  0  0
   -3.5393   -3.2396    0.0000 C   0  0  0  0  0  0  0  0  0  0  0  0
  1 22  1  0  0  0  0
  2  5  1  0  0  0  0
  2  6  1  0  0  0  0
  2  9  1  0  0  0  0
  3 25  3  0  0  0  0
  4 26  3  0  0  0  0
  5  7  2  0  0  0  0
  5 13  1  0  0  0  0
  6  8  2  0  0  0  0
  6 12  1  0  0  0  0
  7  8  1  0  0  0  0
  7 10  1  0  0  0  0
  8 11  1  0  0  0  0
  9 16  2  0  0  0  0
  9 17  1  0  0  0  0
 10 15  2  0  0  0  0
 11 14  2  0  0  0  0
 12 18  2  0  0  0  0
 13 19  2  0  0  0  0
 14 18  1  0  0  0  0
 14 24  1  0  0  0  0
 15 19  1  0  0  0  0
 15 23  1  0  0  0  0
 16 20  1  0  0  0  0
 17 21  2  0  0  0  0
 20 22  2  0  0  0  0
 20 25  1  0  0  0  0
 21 22  1  0  0  0  0
 21 26  1  0  0  0  0
 23 27  2  0  0  0  0
 23 29  1  0  0  0  0
 24 28  2  0  0  0  0
 24 30  1  0  0  0  0
 27 32  1  0  0  0  0
 28 31  1  0  0  0  0
 29 33  2  0  0  0  0
 30 34  2  0  0  0  0
 31 35  2  0  0  0  0
 32 36  2  0  0  0  0
 33 36  1  0  0  0  0
 34 35  1  0  0  0  0
M  END
> <PUBCHEM_COMPOUND_ID_TYPE>
0

> <PUBCHEM_TOTAL_CHARGE>
0

> <PUBCHEM_SUBSTANCE_ID>
310944528

> <PUBCHEM_SUBSTANCE_VERSION>
1

> <PUBCHEM_EXT_DATASOURCE_NAME>
4488

> <PUBCHEM_EXT_DATASOURCE_REGID>
SCHEMBL16122603

> <PUBCHEM_SUBSTANCE_COMMENT>
InChI=1S/C32H18FN3/c33-32-25(19-34)15-27(16-26(32)20-35)36-30-13-11-23(21-7-3-1-4-8-21)17-28(30)29-18-24(12-14-31(29)36)22-9-5-2-6-10-22/h1-18H
InChIKey=ZMEPCFFTFQJKJL-UHFFFAOYSA-N

> <PUBCHEM_SUBSTANCE_SYNONYM>
SCHEMBL16122603

> <PUBCHEM_XREF_EXT_ID>
SCHEMBL16122603

> <PUBCHEM_EXT_DATASOURCE_URL>
https://www.surechembl.org/

> <PUBCHEM_EXT_SUBSTANCE_URL>
https://www.surechembl.org/chemical/SCHEMBL16122603

> <PUBCHEM_CID_ASSOCIATIONS>
117610763  1

> <PUBCHEM_COORDINATE_TYPE>
1
3

$$$$
