310938995
  -OEChem-07211613022D

 28 32  0     0  0  0  0  0  0999 V2000
   -1.1451    7.8651    0.0000 F   0  0  0  0  0  0  0  0  0  0  0  0
   -1.2175   10.6759    0.0000 O   0  0  0  0  0  0  0  0  0  0  0  0
   -1.1451    9.2940    0.0000 N   0  0  0  0  0  0  0  0  0  0  0  0
   -3.1291    8.4690    0.0000 N   0  0  0  0  0  0  0  0  0  0  0  0
   -2.4146    9.7065    0.0000 C   0  0  0  0  0  0  0  0  0  0  0  0
   -1.6300    9.9615    0.0000 C   0  0  0  0  0  0  0  0  0  0  0  0
   -2.4146    8.8815    0.0000 C   0  0  0  0  0  0  0  0  0  0  0  0
   -1.6300    8.6266    0.0000 C   0  0  0  0  0  0  0  0  0  0  0  0
    0.0924    8.5796    0.0000 C   0  0  0  0  0  0  0  0  0  0  0  0
   -0.3201    9.2940    0.0000 C   0  0  0  0  0  0  0  0  0  0  0  0
    0.9174    7.1506    0.0000 C   0  0  0  0  0  0  0  0  0  0  0  0
   -0.3201    7.8651    0.0000 C   0  0  0  0  0  0  0  0  0  0  0  0
    1.3299    6.4361    0.0000 C   0  0  0  0  0  0  0  0  0  0  0  0
   -3.1291   10.1190    0.0000 C   0  0  0  0  0  0  0  0  0  0  0  0
    0.0924    7.1506    0.0000 C   0  0  0  0  0  0  0  0  0  0  0  0
    0.9174    8.5796    0.0000 C   0  0  0  0  0  0  0  0  0  0  0  0
    1.3299    7.8651    0.0000 C   0  0  0  0  0  0  0  0  0  0  0  0
    2.5674    5.7217    0.0000 C   0  0  0  0  0  0  0  0  0  0  0  0
    2.1549    6.4361    0.0000 C   0  0  0  0  0  0  0  0  0  0  0  0
    2.1549    5.0072    0.0000 C   0  0  0  0  0  0  0  0  0  0  0  0
    0.9174    5.7217    0.0000 C   0  0  0  0  0  0  0  0  0  0  0  0
   -3.8436    9.7065    0.0000 C   0  0  0  0  0  0  0  0  0  0  0  0
   -3.8436    8.8815    0.0000 C   0  0  0  0  0  0  0  0  0  0  0  0
    1.3299    5.0072    0.0000 C   0  0  0  0  0  0  0  0  0  0  0  0
    3.3924    5.7217    0.0000 C   0  0  0  0  0  0  0  0  0  0  0  0
    2.5674    4.2927    0.0000 C   0  0  0  0  0  0  0  0  0  0  0  0
    3.8049    5.0072    0.0000 C   0  0  0  0  0  0  0  0  0  0  0  0
    3.3924    4.2927    0.0000 C   0  0  0  0  0  0  0  0  0  0  0  0
  1 12  1  0  0  0  0
  2  6  2  0  0  0  0
  3  6  1  0  0  0  0
  3  8  1  0  0  0  0
  3 10  1  0  0  0  0
  4  7  2  0  0  0  0
  4 23  1  0  0  0  0
  5  6  1  0  0  0  0
  5  7  1  0  0  0  0
  5 14  2  0  0  0  0
  7  8  1  0  0  0  0
  9 10  1  0  0  0  0
  9 12  1  0  0  0  0
  9 16  2  0  0  0  0
 11 13  1  0  0  0  0
 11 15  1  0  0  0  0
 11 17  2  0  0  0  0
 12 15  2  0  0  0  0
 13 19  2  0  0  0  0
 13 21  1  0  0  0  0
 14 22  1  0  0  0  0
 16 17  1  0  0  0  0
 18 19  1  0  0  0  0
 18 20  2  0  0  0  0
 18 25  1  0  0  0  0
 20 24  1  0  0  0  0
 20 26  1  0  0  0  0
 21 24  2  0  0  0  0
 22 23  2  0  0  0  0
 25 27  2  0  0  0  0
 26 28  2  0  0  0  0
 27 28  1  0  0  0  0
M  END
> <PUBCHEM_COMPOUND_ID_TYPE>
0

> <PUBCHEM_TOTAL_CHARGE>
0

> <PUBCHEM_SUBSTANCE_ID>
310938995

> <PUBCHEM_SUBSTANCE_VERSION>
1

> <PUBCHEM_EXT_DATASOURCE_NAME>
4488

> <PUBCHEM_EXT_DATASOURCE_REGID>
SCHEMBL16116914

> <PUBCHEM_SUBSTANCE_COMMENT>
InChI=1S/C24H17FN2O/c25-22-13-19(18-8-7-16-4-1-2-5-17(16)12-18)9-10-20(22)14-27-15-23-21(24(27)28)6-3-11-26-23/h1-13H,14-15H2
InChIKey=JPCWEDXQWKXBGM-UHFFFAOYSA-N

> <PUBCHEM_SUBSTANCE_SYNONYM>
SCHEMBL16116914

> <PUBCHEM_XREF_EXT_ID>
SCHEMBL16116914

> <PUBCHEM_EXT_DATASOURCE_URL>
https://www.surechembl.org/

> <PUBCHEM_EXT_SUBSTANCE_URL>
https://www.surechembl.org/chemical/SCHEMBL16116914

> <PUBCHEM_CID_ASSOCIATIONS>
117606379  1

> <PUBCHEM_COORDINATE_TYPE>
1
3

$$$$
