310934054
  -OEChem-07211613022D

 20 21  0     1  0  0  0  0  0999 V2000
    3.6215   -2.3029    0.0000 S   0  0  0  0  0  0  0  0  0  0  0  0
    2.0986    0.0000    0.0000 F   0  0  0  0  0  0  0  0  0  0  0  0
    0.0186   -3.7144    0.0000 F   0  0  0  0  0  0  0  0  0  0  0  0
    1.4301   -3.7144    0.0000 F   0  0  0  0  0  0  0  0  0  0  0  0
    0.0186   -2.8972    0.0000 F   0  0  0  0  0  0  0  0  0  0  0  0
    2.1172   -2.4701    0.0000 O   0  0  0  0  0  0  0  0  0  0  0  0
    0.7243   -0.7986    0.0000 O   0  0  0  0  0  0  0  0  0  0  0  0
    0.0000   -2.0615    0.0000 O   0  0  0  0  0  0  0  0  0  0  0  0
    3.6215   -0.9843    0.0000 N   0  0  0  0  0  0  0  0  0  0  0  0
    4.9216   -1.6529    0.0000 N   0  0  0  0  0  0  0  0  0  0  0  0
    2.8415   -1.2257    0.0000 C   0  0  3  0  0  0  0  0  0  0  0  0
    1.4301   -2.0615    0.0000 C   0  0  3  0  0  0  0  0  0  0  0  0
    2.8415   -2.0615    0.0000 C   0  0  3  0  0  0  0  0  0  0  0  0
    2.1172   -0.8172    0.0000 C   0  0  3  0  0  0  0  0  0  0  0  0
    1.4301   -1.2257    0.0000 C   0  0  3  0  0  0  0  0  0  0  0  0
    0.7243   -2.4887    0.0000 C   0  0  3  0  0  0  0  0  0  0  0  0
    4.1044   -1.6529    0.0000 C   0  0  0  0  0  0  0  0  0  0  0  0
    0.7243   -3.3058    0.0000 C   0  0  0  0  0  0  0  0  0  0  0  0
    5.3302   -0.9472    0.0000 C   0  0  0  0  0  0  0  0  0  0  0  0
    4.9216   -0.2229    0.0000 C   0  0  0  0  0  0  0  0  0  0  0  0
  1 13  1  0  0  0  0
  1 17  1  0  0  0  0
 14  2  1  6  0  0  0
  3 18  1  0  0  0  0
  4 18  1  0  0  0  0
  5 18  1  0  0  0  0
  6 12  1  0  0  0  0
 13  6  1  1  0  0  0
 15  7  1  1  0  0  0
 16  8  1  1  0  0  0
 11  9  1  1  0  0  0
  9 17  2  0  0  0  0
 10 17  1  0  0  0  0
 10 19  1  0  0  0  0
 11 13  1  0  0  0  0
 11 14  1  0  0  0  0
 12 15  1  0  0  0  0
 12 16  1  1  0  0  0
 14 15  1  0  0  0  0
 16 18  1  0  0  0  0
 19 20  1  0  0  0  0
M  END
> <PUBCHEM_COMPOUND_ID_TYPE>
0

> <PUBCHEM_TOTAL_CHARGE>
0

> <PUBCHEM_SUBSTANCE_ID>
310934054

> <PUBCHEM_SUBSTANCE_VERSION>
1

> <PUBCHEM_EXT_DATASOURCE_NAME>
4488

> <PUBCHEM_EXT_DATASOURCE_REGID>
SCHEMBL16111498

> <PUBCHEM_SUBSTANCE_COMMENT>
InChI=1S/C10H14F4N2O3S/c1-2-15-9-16-4-3(11)5(17)6(19-8(4)20-9)7(18)10(12,13)14/h3-8,17-18H,2H2,1H3,(H,15,16)/t3-,4-,5+,6-,7+,8-/m1/s1
InChIKey=AWWNSRQTKQHWLX-SNZVZIACSA-N

> <PUBCHEM_SUBSTANCE_SYNONYM>
SCHEMBL16111498

> <PUBCHEM_XREF_EXT_ID>
SCHEMBL16111498

> <PUBCHEM_EXT_DATASOURCE_URL>
https://www.surechembl.org/

> <PUBCHEM_EXT_SUBSTANCE_URL>
https://www.surechembl.org/chemical/SCHEMBL16111498

> <PUBCHEM_CID_ASSOCIATIONS>
117602347  1

> <PUBCHEM_COORDINATE_TYPE>
1
3

> <PUBCHEM_BONDANNOTATIONS>
12  16  5
14  2  6
13  6  5
15  7  5
16  8  5
11  9  5

$$$$
