310930903
  -OEChem-07211613022D

 32 35  0     0  0  0  0  0  0999 V2000
    2.3541   -1.1425    0.0000 O   0  0  0  0  0  0  0  0  0  0  0  0
    5.8069    2.0513    0.0000 O   0  0  0  0  0  0  0  0  0  0  0  0
    5.1990   -2.2743    0.0000 O   0  0  0  0  0  0  0  0  0  0  0  0
    1.4290    0.0000    0.0000 N   0  0  0  0  0  0  0  0  0  0  0  0
    2.3221    0.9920    0.0000 N   0  0  0  0  0  0  0  0  0  0  0  0
    0.9021    1.3725    0.0000 N   0  0  0  0  0  0  0  0  0  0  0  0
    2.7346    0.2776    0.0000 C   0  0  0  0  0  0  0  0  0  0  0  0
    2.1826   -0.3355    0.0000 C   0  0  0  0  0  0  0  0  0  0  0  0
    3.6635    0.8138    0.0000 C   0  0  0  0  0  0  0  0  0  0  0  0
    3.4797   -0.4939    0.0000 C   0  0  0  0  0  0  0  0  0  0  0  0
    1.5152    0.8205    0.0000 C   0  0  0  0  0  0  0  0  0  0  0  0
    0.7144   -0.4125    0.0000 C   0  0  0  0  0  0  0  0  0  0  0  0
    4.3779    0.4013    0.0000 C   0  0  0  0  0  0  0  0  0  0  0  0
    3.2523   -1.2870    0.0000 C   0  0  0  0  0  0  0  0  0  0  0  0
    3.6635    1.6388    0.0000 C   0  0  0  0  0  0  0  0  0  0  0  0
    4.2802   -0.2943    0.0000 C   0  0  0  0  0  0  0  0  0  0  0  0
    0.0000    0.0000    0.0000 C   0  0  0  0  0  0  0  0  0  0  0  0
    5.0924    0.8138    0.0000 C   0  0  0  0  0  0  0  0  0  0  0  0
    3.8253   -1.8805    0.0000 C   0  0  0  0  0  0  0  0  0  0  0  0
    4.3779    2.0513    0.0000 C   0  0  0  0  0  0  0  0  0  0  0  0
    4.8532   -0.8878    0.0000 C   0  0  0  0  0  0  0  0  0  0  0  0
    5.0924    1.6388    0.0000 C   0  0  0  0  0  0  0  0  0  0  0  0
    4.6258   -1.6809    0.0000 C   0  0  0  0  0  0  0  0  0  0  0  0
   -0.7144   -0.4125    0.0000 C   0  0  0  0  0  0  0  0  0  0  0  0
    0.0000    0.8250    0.0000 C   0  0  0  0  0  0  0  0  0  0  0  0
   -0.7144    1.2375    0.0000 C   0  0  0  0  0  0  0  0  0  0  0  0
   -1.4290    0.0000    0.0000 C   0  0  0  0  0  0  0  0  0  0  0  0
   -1.4290    0.8250    0.0000 C   0  0  0  0  0  0  0  0  0  0  0  0
   -0.7144   -1.2375    0.0000 C   0  0  0  0  0  0  0  0  0  0  0  0
   -0.7144    2.0625    0.0000 C   0  0  0  0  0  0  0  0  0  0  0  0
    6.5213    1.6388    0.0000 C   0  0  0  0  0  0  0  0  0  0  0  0
    5.9995   -2.0748    0.0000 C   0  0  0  0  0  0  0  0  0  0  0  0
  1  8  2  0  0  0  0
  2 22  1  0  0  0  0
  2 31  1  0  0  0  0
  3 23  1  0  0  0  0
  3 32  1  0  0  0  0
  4  8  1  0  0  0  0
  4 11  1  0  0  0  0
  4 12  1  0  0  0  0
  5  7  1  0  0  0  0
  5 11  1  0  0  0  0
  6 11  2  3  0  0  0
  7  8  1  0  0  0  0
  7  9  1  0  0  0  0
  7 10  1  0  0  0  0
  9 13  2  0  0  0  0
  9 15  1  0  0  0  0
 10 14  2  0  0  0  0
 10 16  1  0  0  0  0
 12 17  1  0  0  0  0
 13 18  1  0  0  0  0
 14 19  1  0  0  0  0
 15 20  2  0  0  0  0
 16 21  2  0  0  0  0
 17 24  1  0  0  0  0
 17 25  2  0  0  0  0
 18 22  2  0  0  0  0
 19 23  2  0  0  0  0
 20 22  1  0  0  0  0
 21 23  1  0  0  0  0
 24 27  2  0  0  0  0
 24 29  1  0  0  0  0
 25 26  1  0  0  0  0
 26 28  2  0  0  0  0
 26 30  1  0  0  0  0
 27 28  1  0  0  0  0
M  END
> <PUBCHEM_COMPOUND_ID_TYPE>
0

> <PUBCHEM_TOTAL_CHARGE>
0

> <PUBCHEM_SUBSTANCE_ID>
310930903

> <PUBCHEM_SUBSTANCE_VERSION>
1

> <PUBCHEM_EXT_DATASOURCE_NAME>
4488

> <PUBCHEM_EXT_DATASOURCE_REGID>
SCHEMBL16108201

> <PUBCHEM_SUBSTANCE_COMMENT>
InChI=1S/C26H27N3O3/c1-17-5-6-18(2)19(15-17)16-29-24(30)26(28-25(29)27,20-7-11-22(31-3)12-8-20)21-9-13-23(32-4)14-10-21/h5-15H,16H2,1-4H3,(H2,27,28)
InChIKey=PTQWMCNGCJDEDG-UHFFFAOYSA-N

> <PUBCHEM_SUBSTANCE_SYNONYM>
SCHEMBL16108201

> <PUBCHEM_XREF_EXT_ID>
SCHEMBL16108201

> <PUBCHEM_EXT_DATASOURCE_URL>
https://www.surechembl.org/

> <PUBCHEM_EXT_SUBSTANCE_URL>
https://www.surechembl.org/chemical/SCHEMBL16108201

> <PUBCHEM_CID_ASSOCIATIONS>
86275046  1

> <PUBCHEM_COORDINATE_TYPE>
1
3

$$$$
