310941205
  -OEChem-07211613022D

 44 47  0     1  0  0  0  0  0999 V2000
    5.0547    0.6712    0.0000 O   0  0  0  0  0  0  0  0  0  0  0  0
    3.9221   -1.2724    0.0000 O   0  0  0  0  0  0  0  0  0  0  0  0
    1.7828    0.7830    0.0000 O   0  0  0  0  0  0  0  0  0  0  0  0
   -0.3705   -1.2724    0.0000 O   0  0  0  0  0  0  0  0  0  0  0  0
   -0.3705    1.1885    0.0000 O   0  0  0  0  0  0  0  0  0  0  0  0
    3.9221   -2.9224    0.0000 O   0  0  0  0  0  0  0  0  0  0  0  0
   -2.5238    0.7830    0.0000 O   0  0  0  0  0  0  0  0  0  0  0  0
   -5.3762    0.7830    0.0000 O   0  0  0  0  0  0  0  0  0  0  0  0
    2.4959   -0.4474    0.0000 N   0  0  0  0  0  0  0  0  0  0  0  0
    0.3565   -0.0280    0.0000 N   0  0  0  0  0  0  0  0  0  0  0  0
   -1.7968   -0.4474    0.0000 N   0  0  0  0  0  0  0  0  0  0  0  0
   -3.9501   -0.0280    0.0000 N   0  0  0  0  0  0  0  0  0  0  0  0
    4.6352   -0.0140    0.0000 C   0  0  3  0  0  0  0  0  0  0  0  0
    3.9221   -0.4194    0.0000 C   0  0  0  0  0  0  0  0  0  0  0  0
    4.2437    0.6572    0.0000 C   0  0  0  0  0  0  0  0  0  0  0  0
    3.1950   -0.0280    0.0000 C   0  0  3  0  0  0  0  0  0  0  0  0
    5.3762   -0.4335    0.0000 C   0  0  0  0  0  0  0  0  0  0  0  0
    3.2090    1.2863    0.0000 C   0  0  0  0  0  0  0  0  0  0  0  0
    1.7688   -0.0419    0.0000 C   0  0  0  0  0  0  0  0  0  0  0  0
    1.0557   -0.4335    0.0000 C   0  0  3  0  0  0  0  0  0  0  0  0
    2.4818    1.7059    0.0000 C   0  0  0  0  0  0  0  0  0  0  0  0
    1.0557   -1.2863    0.0000 C   0  0  0  0  0  0  0  0  0  0  0  0
   -0.3705   -0.4194    0.0000 C   0  0  0  0  0  0  0  0  0  0  0  0
    1.7828   -1.6780    0.0000 C   0  0  0  0  0  0  0  0  0  0  0  0
    1.7549    1.3004    0.0000 C   0  0  0  0  0  0  0  0  0  0  0  0
    2.4959    2.5168    0.0000 C   0  0  0  0  0  0  0  0  0  0  0  0
   -1.0976   -0.0280    0.0000 C   0  0  3  0  0  0  0  0  0  0  0  0
    2.4818   -1.2863    0.0000 C   0  0  0  0  0  0  0  0  0  0  0  0
    1.7828   -2.5028    0.0000 C   0  0  0  0  0  0  0  0  0  0  0  0
    1.0697    1.7059    0.0000 C   0  0  0  0  0  0  0  0  0  0  0  0
    1.7688    2.9224    0.0000 C   0  0  0  0  0  0  0  0  0  0  0  0
   -2.5238   -0.0419    0.0000 C   0  0  0  0  0  0  0  0  0  0  0  0
   -1.0697    0.7970    0.0000 C   0  0  0  0  0  0  0  0  0  0  0  0
    3.1950   -2.5028    0.0000 C   0  0  0  0  0  0  0  0  0  0  0  0
    3.2090   -1.6780    0.0000 C   0  0  0  0  0  0  0  0  0  0  0  0
    2.5098   -2.9084    0.0000 C   0  0  0  0  0  0  0  0  0  0  0  0
    1.0697    2.5168    0.0000 C   0  0  0  0  0  0  0  0  0  0  0  0
   -3.2090   -0.4335    0.0000 C   0  0  0  0  0  0  0  0  0  0  0  0
   -3.9361    0.7830    0.0000 C   0  0  0  0  0  0  0  0  0  0  0  0
   -4.6772   -0.4335    0.0000 C   0  0  0  0  0  0  0  0  0  0  0  0
   -4.6772    1.2025    0.0000 C   0  0  0  0  0  0  0  0  0  0  0  0
   -5.3762   -0.0280    0.0000 C   0  0  0  0  0  0  0  0  0  0  0  0
   -0.3565    1.9995    0.0000 C   0  0  0  0  0  0  0  0  0  0  0  0
    4.6492   -2.4888    0.0000 C   0  0  0  0  0  0  0  0  0  0  0  0
  1 13  1  0  0  0  0
  1 15  1  0  0  0  0
  2 14  2  0  0  0  0
  3 19  2  0  0  0  0
  4 23  2  0  0  0  0
  5 33  1  0  0  0  0
  5 43  1  0  0  0  0
  6 34  1  0  0  0  0
  6 44  1  0  0  0  0
  7 32  2  0  0  0  0
  8 41  1  0  0  0  0
  8 42  1  0  0  0  0
 16  9  1  1  0  0  0
  9 19  1  0  0  0  0
 20 10  1  6  0  0  0
 10 23  1  0  0  0  0
 27 11  1  1  0  0  0
 11 32  1  0  0  0  0
 12 38  1  0  0  0  0
 12 39  1  0  0  0  0
 12 40  1  0  0  0  0
 13 14  1  1  0  0  0
 13 15  1  0  0  0  0
 13 17  1  6  0  0  0
 14 16  1  0  0  0  0
 16 18  1  0  0  0  0
 18 21  1  0  0  0  0
 19 20  1  0  0  0  0
 20 22  1  0  0  0  0
 21 25  2  0  0  0  0
 21 26  1  0  0  0  0
 22 24  1  0  0  0  0
 23 27  1  0  0  0  0
 24 28  2  0  0  0  0
 24 29  1  0  0  0  0
 25 30  1  0  0  0  0
 26 31  2  0  0  0  0
 27 33  1  0  0  0  0
 28 35  1  0  0  0  0
 29 36  2  0  0  0  0
 30 37  2  0  0  0  0
 31 37  1  0  0  0  0
 32 38  1  0  0  0  0
 34 35  2  0  0  0  0
 34 36  1  0  0  0  0
 39 41  1  0  0  0  0
 40 42  1  0  0  0  0
M  END
> <PUBCHEM_COMPOUND_ID_TYPE>
0

> <PUBCHEM_TOTAL_CHARGE>
0

> <PUBCHEM_SUBSTANCE_ID>
310941205

> <PUBCHEM_SUBSTANCE_VERSION>
1

> <PUBCHEM_EXT_DATASOURCE_NAME>
4488

> <PUBCHEM_EXT_DATASOURCE_REGID>
SCHEMBL16119165

> <PUBCHEM_SUBSTANCE_COMMENT>
InChI=1S/C32H42N4O8/c1-32(21-44-32)29(38)25(17-22-7-5-4-6-8-22)34-30(39)26(18-23-9-11-24(42-3)12-10-23)35-31(40)27(20-41-2)33-28(37)19-36-13-15-43-16-14-36/h4-12,25-27H,13-21H2,1-3H3,(H,33,37)(H,34,39)(H,35,40)/t25-,26-,27-,32+/m0/s1
InChIKey=ASVOKNFZEDDMNC-GZNUUUAQSA-N

> <PUBCHEM_SUBSTANCE_SYNONYM>
SCHEMBL16119165

> <PUBCHEM_XREF_EXT_ID>
SCHEMBL16119165

> <PUBCHEM_EXT_DATASOURCE_URL>
https://www.surechembl.org/

> <PUBCHEM_EXT_SUBSTANCE_URL>
https://www.surechembl.org/chemical/SCHEMBL16119165

> <PUBCHEM_CID_ASSOCIATIONS>
117608076  1

> <PUBCHEM_COORDINATE_TYPE>
1
3

> <PUBCHEM_BONDANNOTATIONS>
20  10  6
27  11  5
13  14  5
13  17  6
16  9  5

$$$$
