310935817
  -OEChem-07211613022D

 25 27  0     0  0  0  0  0  0999 V2000
    0.3532   -4.9838    0.0000 S   0  0  0  0  0  0  0  0  0  0  0  0
    6.0041    0.0000    0.0000 O   0  0  0  0  0  0  0  0  0  0  0  0
    6.7497   -1.2165    0.0000 O   0  0  0  0  0  0  0  0  0  0  0  0
    0.0000   -7.8485    0.0000 O   0  0  0  0  0  0  0  0  0  0  0  0
    1.7659   -3.2571    0.0000 N   0  0  0  0  0  0  0  0  0  0  0  0
    1.4520   -5.7686    0.0000 N   0  0  0  0  0  0  0  0  0  0  0  0
    0.1570   -6.4358    0.0000 N   0  0  0  0  0  0  0  0  0  0  0  0
    1.0203   -4.5129    0.0000 C   0  0  0  0  0  0  0  0  0  0  0  0
    3.1786   -2.4722    0.0000 C   0  0  0  0  0  0  0  0  0  0  0  0
    3.8850   -2.0406    0.0000 C   0  0  0  0  0  0  0  0  0  0  0  0
    0.6279   -5.7686    0.0000 C   0  0  0  0  0  0  0  0  0  0  0  0
    1.0595   -3.6888    0.0000 C   0  0  0  0  0  0  0  0  0  0  0  0
    1.6874   -4.9838    0.0000 C   0  0  0  0  0  0  0  0  0  0  0  0
    2.4722   -2.0406    0.0000 C   0  0  0  0  0  0  0  0  0  0  0  0
    3.1786   -3.2571    0.0000 C   0  0  0  0  0  0  0  0  0  0  0  0
    1.7267   -2.4331    0.0000 C   0  0  0  0  0  0  0  0  0  0  0  0
    2.4722   -3.6888    0.0000 C   0  0  0  0  0  0  0  0  0  0  0  0
    5.2977   -1.2165    0.0000 C   0  0  0  0  0  0  0  0  0  0  0  0
    3.8850   -1.2165    0.0000 C   0  0  0  0  0  0  0  0  0  0  0  0
    4.5913   -2.4722    0.0000 C   0  0  0  0  0  0  0  0  0  0  0  0
    4.5913   -0.8241    0.0000 C   0  0  0  0  0  0  0  0  0  0  0  0
    5.2977   -2.0406    0.0000 C   0  0  0  0  0  0  0  0  0  0  0  0
    6.0041   -0.8241    0.0000 C   0  0  0  0  0  0  0  0  0  0  0  0
    0.4709   -7.1814    0.0000 C   0  0  0  0  0  0  0  0  0  0  0  0
    1.2950   -7.2991    0.0000 C   0  0  0  0  0  0  0  0  0  0  0  0
  1  8  1  0  0  0  0
  1 11  1  0  0  0  0
  2 23  2  0  0  0  0
  3 23  1  0  0  0  0
  4 24  2  0  0  0  0
  5 12  1  0  0  0  0
  5 16  1  0  0  0  0
  5 17  1  0  0  0  0
  6 11  2  0  0  0  0
  6 13  1  0  0  0  0
  7 11  1  0  0  0  0
  7 24  1  0  0  0  0
  8 12  1  0  0  0  0
  8 13  2  0  0  0  0
  9 10  1  0  0  0  0
  9 14  1  0  0  0  0
  9 15  1  0  0  0  0
 10 19  2  0  0  0  0
 10 20  1  0  0  0  0
 14 16  1  0  0  0  0
 15 17  1  0  0  0  0
 18 21  2  0  0  0  0
 18 22  1  0  0  0  0
 18 23  1  0  0  0  0
 19 21  1  0  0  0  0
 20 22  2  0  0  0  0
 24 25  1  0  0  0  0
M  END
> <PUBCHEM_COMPOUND_ID_TYPE>
0

> <PUBCHEM_TOTAL_CHARGE>
0

> <PUBCHEM_SUBSTANCE_ID>
310935817

> <PUBCHEM_SUBSTANCE_VERSION>
1

> <PUBCHEM_EXT_DATASOURCE_NAME>
4488

> <PUBCHEM_EXT_DATASOURCE_REGID>
SCHEMBL16113405

> <PUBCHEM_SUBSTANCE_COMMENT>
InChI=1S/C18H21N3O3S/c1-12(22)20-18-19-10-16(25-18)11-21-8-6-14(7-9-21)13-2-4-15(5-3-13)17(23)24/h2-5,10,14H,6-9,11H2,1H3,(H,23,24)(H,19,20,22)
InChIKey=QGYUUVHNJRAIEA-UHFFFAOYSA-N

> <PUBCHEM_SUBSTANCE_SYNONYM>
SCHEMBL16113405

> <PUBCHEM_XREF_EXT_ID>
SCHEMBL16113405

> <PUBCHEM_EXT_DATASOURCE_URL>
https://www.surechembl.org/

> <PUBCHEM_EXT_SUBSTANCE_URL>
https://www.surechembl.org/chemical/SCHEMBL16113405

> <PUBCHEM_CID_ASSOCIATIONS>
86275536  1

> <PUBCHEM_COORDINATE_TYPE>
1
3

$$$$
