310933075
  -OEChem-07211613022D

 27 30  0     0  0  0  0  0  0999 V2000
    2.8732   -2.1343    0.0000 O   0  0  0  0  0  0  0  0  0  0  0  0
    7.3608   -2.2164    0.0000 O   0  0  0  0  0  0  0  0  0  0  0  0
    0.1368   -2.3806    0.0000 O   0  0  0  0  0  0  0  0  0  0  0  0
    3.7761   -0.9577    0.0000 N   0  0  0  0  0  0  0  0  0  0  0  0
    3.6941   -0.1368    0.0000 N   0  0  0  0  0  0  0  0  0  0  0  0
    5.1991   -0.9577    0.0000 N   0  0  0  0  0  0  0  0  0  0  0  0
    6.6493   -3.4478    0.0000 N   0  0  0  0  0  0  0  0  0  0  0  0
    0.0000   -0.9851    0.0000 N   0  0  0  0  0  0  0  0  0  0  0  0
    2.4353   -0.7114    0.0000 C   0  0  0  0  0  0  0  0  0  0  0  0
    3.0100   -1.3134    0.0000 C   0  0  0  0  0  0  0  0  0  0  0  0
    4.4876   -1.3955    0.0000 C   0  0  0  0  0  0  0  0  0  0  0  0
    1.6144   -0.7935    0.0000 C   0  0  0  0  0  0  0  0  0  0  0  0
    2.8732    0.0000    0.0000 C   0  0  0  0  0  0  0  0  0  0  0  0
    5.9379   -2.2164    0.0000 C   0  0  0  0  0  0  0  0  0  0  0  0
    6.6493   -2.6269    0.0000 C   0  0  0  0  0  0  0  0  0  0  0  0
    4.4876   -2.2164    0.0000 C   0  0  0  0  0  0  0  0  0  0  0  0
    7.3881   -3.8856    0.0000 C   0  0  0  0  0  0  0  0  0  0  0  0
    1.3134   -1.5871    0.0000 C   0  0  0  0  0  0  0  0  0  0  0  0
    5.9379   -1.3955    0.0000 C   0  0  0  0  0  0  0  0  0  0  0  0
    5.1991   -2.6269    0.0000 C   0  0  0  0  0  0  0  0  0  0  0  0
    1.1493   -0.1368    0.0000 C   0  0  0  0  0  0  0  0  0  0  0  0
    0.4652   -1.6418    0.0000 C   0  0  0  0  0  0  0  0  0  0  0  0
    8.2091   -3.8856    0.0000 C   0  0  0  0  0  0  0  0  0  0  0  0
    7.7986   -4.5970    0.0000 C   0  0  0  0  0  0  0  0  0  0  0  0
    0.3010   -0.1916    0.0000 C   0  0  0  0  0  0  0  0  0  0  0  0
    5.9379   -3.8856    0.0000 C   0  0  0  0  0  0  0  0  0  0  0  0
    0.6020   -3.0647    0.0000 C   0  0  0  0  0  0  0  0  0  0  0  0
  1 10  1  0  0  0  0
  2 15  2  0  0  0  0
  3 22  1  0  0  0  0
  3 27  1  0  0  0  0
  4  5  1  0  0  0  0
  4 10  1  0  0  0  0
  4 11  1  0  0  0  0
  5 13  2  0  0  0  0
  6 11  2  0  0  0  0
  6 19  1  0  0  0  0
  7 15  1  0  0  0  0
  7 17  1  0  0  0  0
  7 26  1  0  0  0  0
  8 22  1  0  0  0  0
  8 25  2  0  0  0  0
  9 10  2  0  0  0  0
  9 12  1  0  0  0  0
  9 13  1  0  0  0  0
 11 16  1  0  0  0  0
 12 18  1  0  0  0  0
 12 21  2  0  0  0  0
 14 15  1  0  0  0  0
 14 19  2  0  0  0  0
 14 20  1  0  0  0  0
 16 20  2  0  0  0  0
 17 23  1  0  0  0  0
 17 24  1  0  0  0  0
 18 22  2  0  0  0  0
 21 25  1  0  0  0  0
 23 24  1  0  0  0  0
M  END
> <PUBCHEM_COMPOUND_ID_TYPE>
0

> <PUBCHEM_TOTAL_CHARGE>
0

> <PUBCHEM_SUBSTANCE_ID>
310933075

> <PUBCHEM_SUBSTANCE_VERSION>
1

> <PUBCHEM_EXT_DATASOURCE_NAME>
4488

> <PUBCHEM_EXT_DATASOURCE_REGID>
SCHEMBL16110477

> <PUBCHEM_SUBSTANCE_COMMENT>
InChI=1S/C19H19N5O3/c1-23(14-4-5-14)18(25)13-3-6-16(21-10-13)24-19(26)15(11-22-24)12-7-8-20-17(9-12)27-2/h3,6-11,14,26H,4-5H2,1-2H3
InChIKey=BIDXKACGEOPKGN-UHFFFAOYSA-N

> <PUBCHEM_SUBSTANCE_SYNONYM>
SCHEMBL16110477

> <PUBCHEM_XREF_EXT_ID>
SCHEMBL16110477

> <PUBCHEM_EXT_DATASOURCE_URL>
https://www.surechembl.org/

> <PUBCHEM_EXT_SUBSTANCE_URL>
https://www.surechembl.org/chemical/SCHEMBL16110477

> <PUBCHEM_CID_ASSOCIATIONS>
117601535  1

> <PUBCHEM_COORDINATE_TYPE>
1
3

$$$$
