310947363
  -OEChem-07211613022D

 37 41  0     0  0  0  0  0  0999 V2000
   -3.9618    2.2906    0.0000 O   0  0  0  0  0  0  0  0  0  0  0  0
   -1.0338   -0.0269    0.0000 N   0  0  0  0  0  0  0  0  0  0  0  0
   -0.5488    0.6406    0.0000 N   0  0  0  0  0  0  0  0  0  0  0  0
   -4.6763    1.0531    0.0000 N   0  0  0  0  0  0  0  0  0  0  0  0
   -1.8184    1.0531    0.0000 C   0  0  0  0  0  0  0  0  0  0  0  0
   -1.8184    0.2281    0.0000 C   0  0  0  0  0  0  0  0  0  0  0  0
   -1.0338    1.3080    0.0000 C   0  0  0  0  0  0  0  0  0  0  0  0
   -2.5329    1.4656    0.0000 C   0  0  0  0  0  0  0  0  0  0  0  0
   -3.2473    1.0531    0.0000 C   0  0  0  0  0  0  0  0  0  0  0  0
   -2.5329   -0.1844    0.0000 C   0  0  0  0  0  0  0  0  0  0  0  0
   -0.8202   -0.8238    0.0000 C   0  0  0  0  0  0  0  0  0  0  0  0
   -0.8202    2.1049    0.0000 C   0  0  0  0  0  0  0  0  0  0  0  0
   -3.2473    0.2281    0.0000 C   0  0  0  0  0  0  0  0  0  0  0  0
   -0.0234   -1.0373    0.0000 C   0  0  0  0  0  0  0  0  0  0  0  0
   -3.9618    1.4656    0.0000 C   0  0  0  0  0  0  0  0  0  0  0  0
    2.3673   -1.6779    0.0000 C   0  0  0  0  0  0  0  0  0  0  0  0
    1.5704   -1.4643    0.0000 C   0  0  0  0  0  0  0  0  0  0  0  0
    2.9507   -1.0945    0.0000 C   0  0  0  0  0  0  0  0  0  0  0  0
    2.7371   -0.2976    0.0000 C   0  0  0  0  0  0  0  0  0  0  0  0
    0.1902   -1.8342    0.0000 C   0  0  0  0  0  0  0  0  0  0  0  0
    0.5600   -0.4539    0.0000 C   0  0  0  0  0  0  0  0  0  0  0  0
    0.9871   -2.0477    0.0000 C   0  0  0  0  0  0  0  0  0  0  0  0
    1.3569   -0.6674    0.0000 C   0  0  0  0  0  0  0  0  0  0  0  0
    2.5808   -2.4747    0.0000 C   0  0  0  0  0  0  0  0  0  0  0  0
    3.7476   -1.3080    0.0000 C   0  0  0  0  0  0  0  0  0  0  0  0
   -1.4036    2.6883    0.0000 C   0  0  0  0  0  0  0  0  0  0  0  0
   -0.0234    2.3184    0.0000 C   0  0  0  0  0  0  0  0  0  0  0  0
   -5.3907    1.4656    0.0000 C   0  0  0  0  0  0  0  0  0  0  0  0
    3.3777   -2.6883    0.0000 C   0  0  0  0  0  0  0  0  0  0  0  0
    3.9611   -2.1049    0.0000 C   0  0  0  0  0  0  0  0  0  0  0  0
    1.7564   -0.5604    0.0000 C   0  0  0  0  0  0  0  0  0  0  0  0
    2.4743    0.6832    0.0000 C   0  0  0  0  0  0  0  0  0  0  0  0
    3.7179   -0.0348    0.0000 C   0  0  0  0  0  0  0  0  0  0  0  0
   -5.3907    2.2906    0.0000 C   0  0  0  0  0  0  0  0  0  0  0  0
   -6.1754    1.2106    0.0000 C   0  0  0  0  0  0  0  0  0  0  0  0
   -6.1754    2.5455    0.0000 C   0  0  0  0  0  0  0  0  0  0  0  0
   -6.6603    1.8781    0.0000 C   0  0  0  0  0  0  0  0  0  0  0  0
  1 15  2  0  0  0  0
  2  3  1  0  0  0  0
  2  6  1  0  0  0  0
  2 11  1  0  0  0  0
  3  7  2  0  0  0  0
  4 15  1  0  0  0  0
  4 28  1  0  0  0  0
  5  6  1  0  0  0  0
  5  7  1  0  0  0  0
  5  8  2  0  0  0  0
  6 10  2  0  0  0  0
  7 12  1  0  0  0  0
  8  9  1  0  0  0  0
  9 13  2  0  0  0  0
  9 15  1  0  0  0  0
 10 13  1  0  0  0  0
 11 14  1  0  0  0  0
 12 26  1  0  0  0  0
 12 27  1  0  0  0  0
 14 20  2  0  0  0  0
 14 21  1  0  0  0  0
 16 17  1  0  0  0  0
 16 18  1  0  0  0  0
 16 24  2  0  0  0  0
 17 22  2  0  0  0  0
 17 23  1  0  0  0  0
 18 19  1  0  0  0  0
 18 25  2  0  0  0  0
 19 31  1  0  0  0  0
 19 32  1  0  0  0  0
 19 33  1  0  0  0  0
 20 22  1  0  0  0  0
 21 23  2  0  0  0  0
 24 29  1  0  0  0  0
 25 30  1  0  0  0  0
 28 34  1  0  0  0  0
 28 35  1  0  0  0  0
 29 30  2  0  0  0  0
 34 36  1  0  0  0  0
 35 37  1  0  0  0  0
 36 37  1  0  0  0  0
M  END
> <PUBCHEM_COMPOUND_ID_TYPE>
0

> <PUBCHEM_TOTAL_CHARGE>
0

> <PUBCHEM_SUBSTANCE_ID>
310947363

> <PUBCHEM_SUBSTANCE_VERSION>
1

> <PUBCHEM_EXT_DATASOURCE_NAME>
4488

> <PUBCHEM_EXT_DATASOURCE_REGID>
SCHEMBL16125519

> <PUBCHEM_SUBSTANCE_COMMENT>
InChI=1S/C33H39N3O/c1-22(2)31-28-20-25(32(37)34-26-10-6-7-11-26)18-19-30(28)36(35-31)21-23-14-16-24(17-15-23)27-12-8-9-13-29(27)33(3,4)5/h8-9,12-20,22,26H,6-7,10-11,21H2,1-5H3,(H,34,37)
InChIKey=YLGFJPVLEIOMGK-UHFFFAOYSA-N

> <PUBCHEM_SUBSTANCE_SYNONYM>
SCHEMBL16125519

> <PUBCHEM_XREF_EXT_ID>
SCHEMBL16125519

> <PUBCHEM_EXT_DATASOURCE_URL>
https://www.surechembl.org/

> <PUBCHEM_EXT_SUBSTANCE_URL>
https://www.surechembl.org/chemical/SCHEMBL16125519

> <PUBCHEM_CID_ASSOCIATIONS>
117613108  1

> <PUBCHEM_COORDINATE_TYPE>
1
3

$$$$
