310941570
  -OEChem-07211613022D

 33 36  0     0  0  0  0  0  0999 V2000
   -3.6278   -1.5745    0.0000 Cl  0  0  0  0  0  0  0  0  0  0  0  0
    0.0552    0.7458    0.0000 S   0  0  0  0  0  0  0  0  0  0  0  0
   -2.2282   -0.6353    0.0000 O   0  0  0  0  0  0  0  0  0  0  0  0
    3.6716   -0.6611    0.0000 O   0  0  0  0  0  0  0  0  0  0  0  0
   -0.6814   -0.6722    0.0000 O   0  0  0  0  0  0  0  0  0  0  0  0
    3.1491   -1.5203    0.0000 O   0  0  0  0  0  0  0  0  0  0  0  0
    1.5469    1.2430    0.0000 N   0  0  0  0  0  0  0  0  0  0  0  0
    0.2210    2.0901    0.0000 N   0  0  0  0  0  0  0  0  0  0  0  0
   -1.4732    0.5801    0.0000 C   0  0  0  0  0  0  0  0  0  0  0  0
   -0.6630    1.0773    0.0000 C   0  0  0  0  0  0  0  0  0  0  0  0
    0.6077    1.3536    0.0000 C   0  0  0  0  0  0  0  0  0  0  0  0
   -2.9280   -0.2118    0.0000 C   0  0  0  0  0  0  0  0  0  0  0  0
   -2.9096    0.5801    0.0000 C   0  0  0  0  0  0  0  0  0  0  0  0
   -1.5285   -0.2118    0.0000 C   0  0  0  0  0  0  0  0  0  0  0  0
    1.9705    0.3959    0.0000 C   0  0  0  0  0  0  0  0  0  0  0  0
   -2.2098    1.0036    0.0000 C   0  0  0  0  0  0  0  0  0  0  0  0
   -0.5893    1.8692    0.0000 C   0  0  0  0  0  0  0  0  0  0  0  0
    3.1491   -0.9629    0.0000 C   0  0  0  0  0  0  0  0  0  0  0  0
   -3.6094   -0.5985    0.0000 C   0  0  0  0  0  0  0  0  0  0  0  0
    1.3811   -0.3591    0.0000 C   0  0  0  0  0  0  0  0  0  0  0  0
    2.8912    0.2670    0.0000 C   0  0  0  0  0  0  0  0  0  0  0  0
   -3.5909    1.0036    0.0000 C   0  0  0  0  0  0  0  0  0  0  0  0
    1.7679   -1.2430    0.0000 C   0  0  0  0  0  0  0  0  0  0  0  0
    3.2964   -0.5617    0.0000 C   0  0  0  0  0  0  0  0  0  0  0  0
   -4.2723   -0.2302    0.0000 C   0  0  0  0  0  0  0  0  0  0  0  0
    3.6832   -0.0806    0.0000 C   0  0  0  0  0  0  0  0  0  0  0  0
   -4.2723    0.5985    0.0000 C   0  0  0  0  0  0  0  0  0  0  0  0
    2.7070   -1.3536    0.0000 C   0  0  0  0  0  0  0  0  0  0  0  0
    1.2522   -2.0901    0.0000 C   0  0  0  0  0  0  0  0  0  0  0  0
    4.2723   -0.6537    0.0000 C   0  0  0  0  0  0  0  0  0  0  0  0
    4.2057   -0.0573    0.0000 C   0  0  0  0  0  0  0  0  0  0  0  0
    3.1491   -0.0806    0.0000 C   0  0  0  0  0  0  0  0  0  0  0  0
    3.6716    0.4884    0.0000 C   0  0  0  0  0  0  0  0  0  0  0  0
  1 19  1  0  0  0  0
  2 10  1  0  0  0  0
  2 11  1  0  0  0  0
  3 12  1  0  0  0  0
  3 14  1  0  0  0  0
  4 18  1  0  0  0  0
  4 26  1  0  0  0  0
  5 14  2  0  0  0  0
  6 18  2  0  0  0  0
  7 11  1  0  0  0  0
  7 15  1  0  0  0  0
  7 18  1  0  0  0  0
  8 11  2  0  0  0  0
  8 17  1  0  0  0  0
  9 10  1  0  0  0  0
  9 14  1  0  0  0  0
  9 16  2  0  0  0  0
 10 17  2  0  0  0  0
 12 13  1  0  0  0  0
 12 19  2  0  0  0  0
 13 16  1  0  0  0  0
 13 22  2  0  0  0  0
 15 20  2  0  0  0  0
 15 21  1  0  0  0  0
 19 25  1  0  0  0  0
 20 23  1  0  0  0  0
 21 24  2  0  0  0  0
 22 27  1  0  0  0  0
 23 28  2  0  0  0  0
 23 29  1  0  0  0  0
 24 28  1  0  0  0  0
 24 30  1  0  0  0  0
 25 27  2  0  0  0  0
 26 31  1  0  0  0  0
 26 32  1  0  0  0  0
 26 33  1  0  0  0  0
M  END
> <PUBCHEM_COMPOUND_ID_TYPE>
0

> <PUBCHEM_TOTAL_CHARGE>
0

> <PUBCHEM_SUBSTANCE_ID>
310941570

> <PUBCHEM_SUBSTANCE_VERSION>
1

> <PUBCHEM_EXT_DATASOURCE_NAME>
4488

> <PUBCHEM_EXT_DATASOURCE_REGID>
SCHEMBL16119601

> <PUBCHEM_SUBSTANCE_COMMENT>
InChI=1S/C25H23ClN2O4S/c1-14-9-15(2)11-17(10-14)28(24(30)32-25(3,4)5)23-27-13-20(33-23)18-12-16-7-6-8-19(26)21(16)31-22(18)29/h6-13H,1-5H3
InChIKey=IGPUIJDYSVGMAR-UHFFFAOYSA-N

> <PUBCHEM_SUBSTANCE_SYNONYM>
SCHEMBL16119601

> <PUBCHEM_XREF_EXT_ID>
SCHEMBL16119601

> <PUBCHEM_EXT_DATASOURCE_URL>
https://www.surechembl.org/

> <PUBCHEM_EXT_SUBSTANCE_URL>
https://www.surechembl.org/chemical/SCHEMBL16119601

> <PUBCHEM_CID_ASSOCIATIONS>
117608372  1

> <PUBCHEM_COORDINATE_TYPE>
1
3

$$$$
