310946423
  -OEChem-07211613022D

 16 15  0     0  0  0  0  0  0999 V2000
    2.1030   -3.9381    0.0000 O   0  0  0  0  0  0  0  0  0  0  0  0
   -0.0405   -4.3506    0.0000 O   0  0  0  0  0  0  0  0  0  0  0  0
    2.8174   -2.7006    0.0000 O   0  5  0  0  0  0  0  0  0  0  0  0
    1.3885   -2.7006    0.0000 O   0  0  0  0  0  0  0  0  0  0  0  0
    2.1030   -3.1131    0.0000 N   0  3  0  0  0  0  0  0  0  0  0  0
   -2.1839   -3.9381    0.0000 C   0  0  0  0  0  0  0  0  0  0  0  0
   -1.4694   -4.3506    0.0000 C   0  0  0  0  0  0  0  0  0  0  0  0
   -0.7549   -3.9381    0.0000 C   0  0  0  0  0  0  0  0  0  0  0  0
   -3.0089   -3.9381    0.0000 C   0  0  0  0  0  0  0  0  0  0  0  0
   -1.7714   -3.2236    0.0000 C   0  0  0  0  0  0  0  0  0  0  0  0
    1.3885   -4.3506    0.0000 C   0  0  0  0  0  0  0  0  0  0  0  0
    0.6740   -3.9381    0.0000 C   0  0  0  0  0  0  0  0  0  0  0  0
   -3.4214   -4.6526    0.0000 C   0  0  0  0  0  0  0  0  0  0  0  0
   -0.9464   -3.2236    0.0000 C   0  0  0  0  0  0  0  0  0  0  0  0
   -4.2464   -4.6526    0.0000 C   0  0  0  0  0  0  0  0  0  0  0  0
   -0.5339   -2.5091    0.0000 C   0  0  0  0  0  0  0  0  0  0  0  0
  1  5  1  0  0  0  0
  1 11  1  0  0  0  0
  2  8  1  0  0  0  0
  2 12  1  0  0  0  0
  3  5  1  0  0  0  0
  4  5  2  0  0  0  0
  6  7  1  0  0  0  0
  6  9  1  0  0  0  0
  6 10  1  0  0  0  0
  7  8  1  0  0  0  0
  9 13  1  0  0  0  0
 10 14  1  0  0  0  0
 11 12  1  0  0  0  0
 13 15  1  0  0  0  0
 14 16  1  0  0  0  0
M  CHG  2   3  -1   5   1
M  END
> <PUBCHEM_COMPOUND_ID_TYPE>
0

> <PUBCHEM_TOTAL_CHARGE>
0

> <PUBCHEM_SUBSTANCE_ID>
310946423

> <PUBCHEM_SUBSTANCE_VERSION>
1

> <PUBCHEM_EXT_DATASOURCE_NAME>
4488

> <PUBCHEM_EXT_DATASOURCE_REGID>
SCHEMBL16124544

> <PUBCHEM_SUBSTANCE_COMMENT>
InChI=1S/C11H23NO4/c1-3-5-11(6-4-2)7-8-15-9-10-16-12(13)14/h11H,3-10H2,1-2H3
InChIKey=ATUWDNLWJKSUBM-UHFFFAOYSA-N

> <PUBCHEM_SUBSTANCE_SYNONYM>
SCHEMBL16124544

> <PUBCHEM_XREF_EXT_ID>
SCHEMBL16124544

> <PUBCHEM_EXT_DATASOURCE_URL>
https://www.surechembl.org/

> <PUBCHEM_EXT_SUBSTANCE_URL>
https://www.surechembl.org/chemical/SCHEMBL16124544

> <PUBCHEM_CID_ASSOCIATIONS>
117612336  1

> <PUBCHEM_COORDINATE_TYPE>
1
3

$$$$
