310931379
  -OEChem-07211613022D

 16 16  0     0  0  0  0  0  0999 V2000
    2.4955   -1.4283    0.0000 S   0  0  0  0  0  0  0  0  0  0  0  0
    1.6418    0.0000    0.0000 F   0  0  0  0  0  0  0  0  0  0  0  0
    0.0328   -2.8566    0.0000 F   0  0  0  0  0  0  0  0  0  0  0  0
    2.4955   -2.3313    0.0000 O   0  0  0  0  0  0  0  0  0  0  0  0
    2.4955   -0.6239    0.0000 O   0  0  0  0  0  0  0  0  0  0  0  0
    3.2999   -1.4283    0.0000 N   0  0  0  0  0  0  0  0  0  0  0  0
    1.6746   -1.4283    0.0000 C   0  0  0  0  0  0  0  0  0  0  0  0
    1.2313   -0.7224    0.0000 C   0  0  0  0  0  0  0  0  0  0  0  0
    1.2313   -2.1343    0.0000 C   0  0  0  0  0  0  0  0  0  0  0  0
    0.4269   -2.1343    0.0000 C   0  0  0  0  0  0  0  0  0  0  0  0
    0.4269   -0.7224    0.0000 C   0  0  0  0  0  0  0  0  0  0  0  0
    0.0000   -1.4283    0.0000 C   0  0  0  0  0  0  0  0  0  0  0  0
    3.6940   -2.1507    0.0000 C   0  0  0  0  0  0  0  0  0  0  0  0
    4.5148   -2.1507    0.0000 C   0  0  0  0  0  0  0  0  0  0  0  0
    4.9252   -2.8566    0.0000 C   0  0  0  0  0  0  0  0  0  0  0  0
    4.9252   -1.4283    0.0000 C   0  0  0  0  0  0  0  0  0  0  0  0
  1  4  2  0  0  0  0
  1  5  2  0  0  0  0
  1  6  1  0  0  0  0
  1  7  1  0  0  0  0
  2  8  1  0  0  0  0
  3 10  1  0  0  0  0
  6 13  1  0  0  0  0
  7  8  1  0  0  0  0
  7  9  2  0  0  0  0
  8 11  2  0  0  0  0
  9 10  1  0  0  0  0
 10 12  2  0  0  0  0
 11 12  1  0  0  0  0
 13 14  1  0  0  0  0
 14 15  1  0  0  0  0
 14 16  1  0  0  0  0
M  END
> <PUBCHEM_COMPOUND_ID_TYPE>
0

> <PUBCHEM_TOTAL_CHARGE>
0

> <PUBCHEM_SUBSTANCE_ID>
310931379

> <PUBCHEM_SUBSTANCE_VERSION>
1

> <PUBCHEM_EXT_DATASOURCE_NAME>
4488

> <PUBCHEM_EXT_DATASOURCE_REGID>
SCHEMBL16108702

> <PUBCHEM_SUBSTANCE_COMMENT>
InChI=1S/C10H13F2NO2S/c1-7(2)6-13-16(14,15)10-5-8(11)3-4-9(10)12/h3-5,7,13H,6H2,1-2H3
InChIKey=DMRMJVZLSKHVAY-UHFFFAOYSA-N

> <PUBCHEM_SUBSTANCE_SYNONYM>
SCHEMBL16108702

> <PUBCHEM_XREF_EXT_ID>
SCHEMBL16108702

> <PUBCHEM_EXT_DATASOURCE_URL>
https://www.surechembl.org/

> <PUBCHEM_EXT_SUBSTANCE_URL>
https://www.surechembl.org/chemical/SCHEMBL16108702

> <PUBCHEM_CID_ASSOCIATIONS>
6465239  1

> <PUBCHEM_COORDINATE_TYPE>
1
3

$$$$
