310943518
  -OEChem-07211613022D

 37 41  0     0  0  0  0  0  0999 V2000
   -5.7016    1.6535    0.0000 O   0  0  0  0  0  0  0  0  0  0  0  0
    1.4254    1.6535    0.0000 O   0  0  0  0  0  0  0  0  0  0  0  0
   -2.8508    0.8363    0.0000 N   0  0  0  0  0  0  0  0  0  0  0  0
   -2.1286   -0.3991    0.0000 N   0  0  0  0  0  0  0  0  0  0  0  0
   -4.2761    0.8363    0.0000 N   0  0  0  0  0  0  0  0  0  0  0  0
   -4.2761   -1.6345    0.0000 N   0  0  0  0  0  0  0  0  0  0  0  0
    0.7222    0.4181    0.0000 N   0  0  0  0  0  0  0  0  0  0  0  0
    3.5730   -0.3991    0.0000 N   0  0  0  0  0  0  0  0  0  0  0  0
    5.7016    0.0000    0.0000 N   0  0  0  0  0  0  0  0  0  0  0  0
   -3.5540    0.4371    0.0000 C   0  0  0  0  0  0  0  0  0  0  0  0
   -3.5730   -0.3991    0.0000 C   0  0  0  0  0  0  0  0  0  0  0  0
   -2.1286    0.4371    0.0000 C   0  0  0  0  0  0  0  0  0  0  0  0
   -2.8508   -0.8172    0.0000 C   0  0  0  0  0  0  0  0  0  0  0  0
   -1.4254    0.8363    0.0000 C   0  0  0  0  0  0  0  0  0  0  0  0
   -1.4254    1.6535    0.0000 C   0  0  0  0  0  0  0  0  0  0  0  0
   -0.6842    0.4371    0.0000 C   0  0  0  0  0  0  0  0  0  0  0  0
   -4.2761   -0.8172    0.0000 C   0  0  0  0  0  0  0  0  0  0  0  0
    0.0000    0.8363    0.0000 C   0  0  0  0  0  0  0  0  0  0  0  0
   -2.8508   -1.6535    0.0000 C   0  0  0  0  0  0  0  0  0  0  0  0
   -0.7222    2.0525    0.0000 C   0  0  0  0  0  0  0  0  0  0  0  0
   -4.2761    1.6535    0.0000 C   0  0  0  0  0  0  0  0  0  0  0  0
   -4.9603    0.4181    0.0000 C   0  0  0  0  0  0  0  0  0  0  0  0
    0.0000    1.6535    0.0000 C   0  0  0  0  0  0  0  0  0  0  0  0
    2.1475    0.4181    0.0000 C   0  0  0  0  0  0  0  0  0  0  0  0
   -3.5350   -2.0525    0.0000 C   0  0  0  0  0  0  0  0  0  0  0  0
    1.4063    0.8172    0.0000 C   0  0  0  0  0  0  0  0  0  0  0  0
    3.5730    0.4371    0.0000 C   0  0  0  0  0  0  0  0  0  0  0  0
    4.2761    0.8363    0.0000 C   0  0  0  0  0  0  0  0  0  0  0  0
    2.8318    0.8172    0.0000 C   0  0  0  0  0  0  0  0  0  0  0  0
   -2.1475    2.0525    0.0000 C   0  0  0  0  0  0  0  0  0  0  0  0
   -4.9793    2.0525    0.0000 C   0  0  0  0  0  0  0  0  0  0  0  0
   -5.6826    0.8172    0.0000 C   0  0  0  0  0  0  0  0  0  0  0  0
    2.1475   -0.3991    0.0000 C   0  0  0  0  0  0  0  0  0  0  0  0
    2.8698   -0.8172    0.0000 C   0  0  0  0  0  0  0  0  0  0  0  0
    4.9793    0.3991    0.0000 C   0  0  0  0  0  0  0  0  0  0  0  0
    4.2761    1.6535    0.0000 C   0  0  0  0  0  0  0  0  0  0  0  0
    4.9984    1.2543    0.0000 C   0  0  0  0  0  0  0  0  0  0  0  0
  1 31  1  0  0  0  0
  1 32  1  0  0  0  0
  2 26  2  0  0  0  0
  3 10  2  0  0  0  0
  3 12  1  0  0  0  0
  4 12  2  0  0  0  0
  4 13  1  0  0  0  0
  5 10  1  0  0  0  0
  5 21  1  0  0  0  0
  5 22  1  0  0  0  0
  6 17  1  0  0  0  0
  6 25  1  0  0  0  0
  7 18  1  0  0  0  0
  7 26  1  0  0  0  0
  8 27  1  0  0  0  0
  8 34  2  0  0  0  0
  9 35  3  0  0  0  0
 10 11  1  0  0  0  0
 11 13  2  0  0  0  0
 11 17  1  0  0  0  0
 12 14  1  0  0  0  0
 13 19  1  0  0  0  0
 14 15  2  0  0  0  0
 14 16  1  0  0  0  0
 15 20  1  0  0  0  0
 15 30  1  0  0  0  0
 16 18  2  0  0  0  0
 18 23  1  0  0  0  0
 19 25  1  0  0  0  0
 20 23  2  0  0  0  0
 21 31  1  0  0  0  0
 22 32  1  0  0  0  0
 24 26  1  0  0  0  0
 24 29  1  0  0  0  0
 24 33  2  0  0  0  0
 27 28  1  0  0  0  0
 27 29  2  0  0  0  0
 28 35  1  0  0  0  0
 28 36  1  0  0  0  0
 28 37  1  0  0  0  0
 33 34  1  0  0  0  0
M  END
> <PUBCHEM_COMPOUND_ID_TYPE>
0

> <PUBCHEM_TOTAL_CHARGE>
0

> <PUBCHEM_SUBSTANCE_ID>
310943518

> <PUBCHEM_SUBSTANCE_VERSION>
1

> <PUBCHEM_EXT_DATASOURCE_NAME>
4488

> <PUBCHEM_EXT_DATASOURCE_REGID>
SCHEMBL16121584

> <PUBCHEM_SUBSTANCE_COMMENT>
InChI=1S/C28H31N7O2/c1-18-4-5-20(32-27(36)19-6-9-31-24(14-19)28(2,3)17-29)15-21(18)25-33-23-7-8-30-16-22(23)26(34-25)35-10-12-37-13-11-35/h4-6,9,14-15,30H,7-8,10-13,16H2,1-3H3,(H,32,36)
InChIKey=BUGINBJZQKGEFP-UHFFFAOYSA-N

> <PUBCHEM_SUBSTANCE_SYNONYM>
SCHEMBL16121584

> <PUBCHEM_XREF_EXT_ID>
SCHEMBL16121584

> <PUBCHEM_EXT_DATASOURCE_URL>
https://www.surechembl.org/

> <PUBCHEM_EXT_SUBSTANCE_URL>
https://www.surechembl.org/chemical/SCHEMBL16121584

> <PUBCHEM_CID_ASSOCIATIONS>
117609933  1

> <PUBCHEM_COORDINATE_TYPE>
1
3

$$$$
