310934763
  -OEChem-07211613022D

 16 17  0     0  0  0  0  0  0999 V2000
    0.7417   -4.9447    0.0000 Cl  0  0  0  0  0  0  0  0  0  0  0  0
    1.4339   -1.2362    0.0000 O   0  0  0  0  0  0  0  0  0  0  0  0
    2.8679   -1.2114    0.0000 O   0  0  0  0  0  0  0  0  0  0  0  0
    0.7417   -2.4477    0.0000 N   0  0  0  0  0  0  0  0  0  0  0  0
    1.4587   -2.8679    0.0000 C   0  0  0  0  0  0  0  0  0  0  0  0
    1.4587   -3.7085    0.0000 C   0  0  0  0  0  0  0  0  0  0  0  0
    2.1509   -2.4477    0.0000 C   0  0  0  0  0  0  0  0  0  0  0  0
    0.7417   -4.1041    0.0000 C   0  0  0  0  0  0  0  0  0  0  0  0
    2.1509   -1.6318    0.0000 C   0  0  0  0  0  0  0  0  0  0  0  0
    2.1509   -4.1041    0.0000 C   0  0  0  0  0  0  0  0  0  0  0  0
    2.8679   -2.8679    0.0000 C   0  0  0  0  0  0  0  0  0  0  0  0
    2.8679   -3.7085    0.0000 C   0  0  0  0  0  0  0  0  0  0  0  0
    0.0000   -3.7085    0.0000 C   0  0  0  0  0  0  0  0  0  0  0  0
    0.0000   -2.8679    0.0000 C   0  0  0  0  0  0  0  0  0  0  0  0
    1.4093   -0.3956    0.0000 C   0  0  0  0  0  0  0  0  0  0  0  0
    0.6923    0.0000    0.0000 C   0  0  0  0  0  0  0  0  0  0  0  0
  1  8  1  0  0  0  0
  2  9  1  0  0  0  0
  2 15  1  0  0  0  0
  3  9  2  0  0  0  0
  4  5  2  0  0  0  0
  4 14  1  0  0  0  0
  5  6  1  0  0  0  0
  5  7  1  0  0  0  0
  6  8  2  0  0  0  0
  6 10  1  0  0  0  0
  7  9  1  0  0  0  0
  7 11  2  0  0  0  0
  8 13  1  0  0  0  0
 10 12  2  0  0  0  0
 11 12  1  0  0  0  0
 13 14  2  0  0  0  0
 15 16  1  0  0  0  0
M  END
> <PUBCHEM_COMPOUND_ID_TYPE>
0

> <PUBCHEM_TOTAL_CHARGE>
0

> <PUBCHEM_SUBSTANCE_ID>
310934763

> <PUBCHEM_SUBSTANCE_VERSION>
1

> <PUBCHEM_EXT_DATASOURCE_NAME>
4488

> <PUBCHEM_EXT_DATASOURCE_REGID>
SCHEMBL16112265

> <PUBCHEM_SUBSTANCE_COMMENT>
InChI=1S/C12H10ClNO2/c1-2-16-12(15)9-5-3-4-8-10(13)6-7-14-11(8)9/h3-7H,2H2,1H3
InChIKey=TWOWDBXUIZNIGJ-UHFFFAOYSA-N

> <PUBCHEM_SUBSTANCE_SYNONYM>
SCHEMBL16112265

> <PUBCHEM_XREF_EXT_ID>
SCHEMBL16112265

> <PUBCHEM_EXT_DATASOURCE_URL>
https://www.surechembl.org/

> <PUBCHEM_EXT_SUBSTANCE_URL>
https://www.surechembl.org/chemical/SCHEMBL16112265

> <PUBCHEM_CID_ASSOCIATIONS>
117602913  1

> <PUBCHEM_COORDINATE_TYPE>
1
3

$$$$
