310945535
  -OEChem-07211613022D

 35 38  0     0  0  0  0  0  0999 V2000
   -1.9275    1.5463    0.0000 Cl  0  0  0  0  0  0  0  0  0  0  0  0
   -1.9275   -1.2497    0.0000 Cl  0  0  0  0  0  0  0  0  0  0  0  0
    0.0635    1.7793    0.0000 F   0  0  0  0  0  0  0  0  0  0  0  0
    0.8896    2.5842    0.0000 F   0  0  0  0  0  0  0  0  0  0  0  0
    1.6945    1.7793    0.0000 F   0  0  0  0  0  0  0  0  0  0  0  0
   -4.3635   -0.6566    0.0000 F   0  0  0  0  0  0  0  0  0  0  0  0
   -5.1896    0.1483    0.0000 F   0  0  0  0  0  0  0  0  0  0  0  0
   -4.3635    0.9532    0.0000 F   0  0  0  0  0  0  0  0  0  0  0  0
    4.0457   -2.5842    0.0000 F   0  0  0  0  0  0  0  0  0  0  0  0
    4.8931   -1.1650    0.0000 F   0  0  0  0  0  0  0  0  0  0  0  0
    5.1896   -2.2664    0.0000 F   0  0  0  0  0  0  0  0  0  0  0  0
   -0.6143    0.8049    0.0000 N   0  0  0  0  0  0  0  0  0  0  0  0
   -0.6143   -0.5084    0.0000 N   0  0  0  0  0  0  0  0  0  0  0  0
    0.8685   -0.6566    0.0000 N   0  0  0  0  0  0  0  0  0  0  0  0
    1.5886    0.5719    0.0000 N   0  0  0  0  0  0  0  0  0  0  0  0
    3.0078   -1.8640    0.0000 N   0  0  0  0  0  0  0  0  0  0  0  0
    0.1695    0.5295    0.0000 C   0  0  0  0  0  0  0  0  0  0  0  0
    0.1483   -0.2754    0.0000 C   0  0  0  0  0  0  0  0  0  0  0  0
    0.8473    0.9320    0.0000 C   0  0  0  0  0  0  0  0  0  0  0  0
   -1.1014    0.1059    0.0000 C   0  0  0  0  0  0  0  0  0  0  0  0
   -1.9275    0.1271    0.0000 C   0  0  0  0  0  0  0  0  0  0  0  0
    1.5674   -0.2542    0.0000 C   0  0  0  0  0  0  0  0  0  0  0  0
    0.8685    1.7581    0.0000 C   0  0  0  0  0  0  0  0  0  0  0  0
   -2.3088    0.8049    0.0000 C   0  0  0  0  0  0  0  0  0  0  0  0
   -2.3088   -0.5931    0.0000 C   0  0  0  0  0  0  0  0  0  0  0  0
    2.3088   -0.6778    0.0000 C   0  0  0  0  0  0  0  0  0  0  0  0
   -3.5373    0.1271    0.0000 C   0  0  0  0  0  0  0  0  0  0  0  0
   -3.1349    0.7837    0.0000 C   0  0  0  0  0  0  0  0  0  0  0  0
   -3.1349   -0.5719    0.0000 C   0  0  0  0  0  0  0  0  0  0  0  0
   -4.3847    0.1059    0.0000 C   0  0  0  0  0  0  0  0  0  0  0  0
    2.3088   -1.5039    0.0000 C   0  0  0  0  0  0  0  0  0  0  0  0
    3.0290   -0.2754    0.0000 C   0  0  0  0  0  0  0  0  0  0  0  0
    3.7280   -1.5039    0.0000 C   0  0  0  0  0  0  0  0  0  0  0  0
    3.7492   -0.6990    0.0000 C   0  0  0  0  0  0  0  0  0  0  0  0
    4.4694   -1.8852    0.0000 C   0  0  0  0  0  0  0  0  0  0  0  0
  1 24  1  0  0  0  0
  2 25  1  0  0  0  0
  3 23  1  0  0  0  0
  4 23  1  0  0  0  0
  5 23  1  0  0  0  0
  6 30  1  0  0  0  0
  7 30  1  0  0  0  0
  8 30  1  0  0  0  0
  9 35  1  0  0  0  0
 10 35  1  0  0  0  0
 11 35  1  0  0  0  0
 12 17  1  0  0  0  0
 12 20  2  0  0  0  0
 13 18  1  0  0  0  0
 13 20  1  0  0  0  0
 14 18  1  0  0  0  0
 14 22  2  0  0  0  0
 15 19  2  0  0  0  0
 15 22  1  0  0  0  0
 16 31  1  0  0  0  0
 16 33  2  0  0  0  0
 17 18  2  0  0  0  0
 17 19  1  0  0  0  0
 19 23  1  0  0  0  0
 20 21  1  0  0  0  0
 21 24  2  0  0  0  0
 21 25  1  0  0  0  0
 22 26  1  0  0  0  0
 24 28  1  0  0  0  0
 25 29  2  0  0  0  0
 26 31  2  0  0  0  0
 26 32  1  0  0  0  0
 27 28  2  0  0  0  0
 27 29  1  0  0  0  0
 27 30  1  0  0  0  0
 32 34  2  0  0  0  0
 33 34  1  0  0  0  0
 33 35  1  0  0  0  0
M  END
> <PUBCHEM_COMPOUND_ID_TYPE>
0

> <PUBCHEM_TOTAL_CHARGE>
0

> <PUBCHEM_SUBSTANCE_ID>
310945535

> <PUBCHEM_SUBSTANCE_VERSION>
1

> <PUBCHEM_EXT_DATASOURCE_NAME>
4488

> <PUBCHEM_EXT_DATASOURCE_REGID>
SCHEMBL16123633

> <PUBCHEM_SUBSTANCE_COMMENT>
InChI=1S/C19H6Cl2F9N5/c20-8-3-7(17(22,23)24)4-9(21)11(8)15-32-12-13(19(28,29)30)33-14(34-16(12)35-15)6-1-2-10(31-5-6)18(25,26)27/h1-5H,(H,32,33,34,35)
InChIKey=BVQHGRHEOMCCGA-UHFFFAOYSA-N

> <PUBCHEM_SUBSTANCE_SYNONYM>
SCHEMBL16123633

> <PUBCHEM_XREF_EXT_ID>
SCHEMBL16123633

> <PUBCHEM_EXT_DATASOURCE_URL>
https://www.surechembl.org/

> <PUBCHEM_EXT_SUBSTANCE_URL>
https://www.surechembl.org/chemical/SCHEMBL16123633

> <PUBCHEM_CID_ASSOCIATIONS>
117611576  1

> <PUBCHEM_COORDINATE_TYPE>
1
3

$$$$
