310930771
  -OEChem-07211613022D

 18 19  0     0  0  0  0  0  0999 V2000
    2.8608   -0.4224    0.0000 O   0  0  0  0  0  0  0  0  0  0  0  0
    3.5712   -2.4768    0.0000 O   0  0  0  0  0  0  0  0  0  0  0  0
    0.0000   -2.8992    0.0000 O   0  0  0  0  0  0  0  0  0  0  0  0
    5.7407   -1.2288    0.0000 N   0  0  0  0  0  0  0  0  0  0  0  0
    5.0304    0.0000    0.0000 N   0  0  0  0  0  0  0  0  0  0  0  0
    2.8608   -1.2480    0.0000 C   0  0  0  0  0  0  0  0  0  0  0  0
    3.5712   -1.6512    0.0000 C   0  0  0  0  0  0  0  0  0  0  0  0
    2.1504   -1.6512    0.0000 C   0  0  0  0  0  0  0  0  0  0  0  0
    4.3008   -1.2480    0.0000 C   0  0  0  0  0  0  0  0  0  0  0  0
    2.1312   -2.4960    0.0000 C   0  0  0  0  0  0  0  0  0  0  0  0
    1.4400   -1.2480    0.0000 C   0  0  0  0  0  0  0  0  0  0  0  0
    5.0304   -1.6320    0.0000 C   0  0  0  0  0  0  0  0  0  0  0  0
    4.3200   -0.4032    0.0000 C   0  0  0  0  0  0  0  0  0  0  0  0
    0.7104   -2.4768    0.0000 C   0  0  0  0  0  0  0  0  0  0  0  0
    1.4400   -2.8992    0.0000 C   0  0  0  0  0  0  0  0  0  0  0  0
    0.7296   -1.6512    0.0000 C   0  0  0  0  0  0  0  0  0  0  0  0
    5.7600   -0.4032    0.0000 C   0  0  0  0  0  0  0  0  0  0  0  0
    0.0000   -3.7248    0.0000 C   0  0  0  0  0  0  0  0  0  0  0  0
  1  6  2  0  0  0  0
  2  7  2  0  0  0  0
  3 14  1  0  0  0  0
  3 18  1  0  0  0  0
  4 12  2  0  0  0  0
  4 17  1  0  0  0  0
  5 13  1  0  0  0  0
  5 17  2  0  0  0  0
  6  7  1  0  0  0  0
  6  8  1  0  0  0  0
  7  9  1  0  0  0  0
  8 10  2  0  0  0  0
  8 11  1  0  0  0  0
  9 12  1  0  0  0  0
  9 13  2  0  0  0  0
 10 15  1  0  0  0  0
 11 16  2  0  0  0  0
 14 15  2  0  0  0  0
 14 16  1  0  0  0  0
M  END
> <PUBCHEM_COMPOUND_ID_TYPE>
0

> <PUBCHEM_TOTAL_CHARGE>
0

> <PUBCHEM_SUBSTANCE_ID>
310930771

> <PUBCHEM_SUBSTANCE_VERSION>
1

> <PUBCHEM_EXT_DATASOURCE_NAME>
4488

> <PUBCHEM_EXT_DATASOURCE_REGID>
SCHEMBL16108068

> <PUBCHEM_SUBSTANCE_COMMENT>
InChI=1S/C13H10N2O3/c1-18-11-4-2-9(3-5-11)12(16)13(17)10-6-14-8-15-7-10/h2-8H,1H3
InChIKey=JBWRDSYLXMWWNV-UHFFFAOYSA-N

> <PUBCHEM_SUBSTANCE_SYNONYM>
SCHEMBL16108068

> <PUBCHEM_XREF_EXT_ID>
SCHEMBL16108068

> <PUBCHEM_EXT_DATASOURCE_URL>
https://www.surechembl.org/

> <PUBCHEM_EXT_SUBSTANCE_URL>
https://www.surechembl.org/chemical/SCHEMBL16108068

> <PUBCHEM_CID_ASSOCIATIONS>
117599787  1

> <PUBCHEM_COORDINATE_TYPE>
1
3

$$$$
