310945656
  -OEChem-07211613022D

 35 37  0     1  0  0  0  0  0999 V2000
    1.0014    2.1884    0.0000 Br  0  0  0  0  0  0  0  0  0  0  0  0
   -1.8545   -0.2844    0.0000 P   0  0  3  0  0  0  0  0  0  0  0  0
    0.9644   -2.1884    0.0000 F   0  0  0  0  0  0  0  0  0  0  0  0
    0.9520   -0.2102    0.0000 O   0  0  0  0  0  0  0  0  0  0  0  0
    0.1236   -2.1884    0.0000 O   0  0  0  0  0  0  0  0  0  0  0  0
   -1.1498   -0.6923    0.0000 O   0  0  0  0  0  0  0  0  0  0  0  0
   -1.8545    0.5440    0.0000 O   0  0  0  0  0  0  0  0  0  0  0  0
    2.0399    0.8902    0.0000 O   0  0  0  0  0  0  0  0  0  0  0  0
   -1.8545   -1.1127    0.0000 O   0  0  0  0  0  0  0  0  0  0  0  0
   -4.1664   -1.1251    0.0000 O   0  0  0  0  0  0  0  0  0  0  0  0
   -4.5374    0.2596    0.0000 O   0  0  0  0  0  0  0  0  0  0  0  0
    2.4356   -0.4821    0.0000 N   0  0  0  0  0  0  0  0  0  0  0  0
    3.4370    0.5316    0.0000 N   0  0  0  0  0  0  0  0  0  0  0  0
   -2.5469   -0.6923    0.0000 N   0  0  0  0  0  0  0  0  0  0  0  0
    4.9453    0.1607    0.0000 N   0  0  0  0  0  0  0  0  0  0  0  0
    1.3723   -1.4712    0.0000 C   0  0  3  0  0  0  0  0  0  0  0  0
    1.6320   -0.6923    0.0000 C   0  0  3  0  0  0  0  0  0  0  0  0
    0.5440   -1.4712    0.0000 C   0  0  3  0  0  0  0  0  0  0  0  0
    0.2967   -0.6923    0.0000 C   0  0  3  0  0  0  0  0  0  0  0  0
    2.6581    0.3091    0.0000 C   0  0  0  0  0  0  0  0  0  0  0  0
   -0.4327   -0.2844    0.0000 C   0  0  0  0  0  0  0  0  0  0  0  0
    1.7927   -2.1884    0.0000 C   0  0  0  0  0  0  0  0  0  0  0  0
    3.0167   -1.0633    0.0000 C   0  0  0  0  0  0  0  0  0  0  0  0
    3.7956   -0.8531    0.0000 C   0  0  0  0  0  0  0  0  0  0  0  0
    4.0305   -0.0494    0.0000 C   0  0  0  0  0  0  0  0  0  0  0  0
   -1.1374    0.9520    0.0000 C   0  0  0  0  0  0  0  0  0  0  0  0
   -3.1527   -0.1113    0.0000 C   0  0  3  0  0  0  0  0  0  0  0  0
   -3.9315   -0.3338    0.0000 C   0  0  0  0  0  0  0  0  0  0  0  0
   -0.4080    0.5564    0.0000 C   0  0  0  0  0  0  0  0  0  0  0  0
   -1.1251    1.7803    0.0000 C   0  0  0  0  0  0  0  0  0  0  0  0
    0.2967    1.7927    0.0000 C   0  0  0  0  0  0  0  0  0  0  0  0
    0.2967    0.9644    0.0000 C   0  0  0  0  0  0  0  0  0  0  0  0
   -0.4327    2.1760    0.0000 C   0  0  0  0  0  0  0  0  0  0  0  0
   -2.9301    0.6676    0.0000 C   0  0  0  0  0  0  0  0  0  0  0  0
   -4.9453   -1.3105    0.0000 C   0  0  0  0  0  0  0  0  0  0  0  0
  1 31  1  0  0  0  0
  2  6  1  0  0  0  0
  2  7  1  0  0  0  0
  2  9  2  0  0  0  0
  2 14  1  0  0  0  0
 16  3  1  6  0  0  0
 17  4  1  1  0  0  0
  4 19  1  0  0  0  0
 18  5  1  6  0  0  0
  6 21  1  0  0  0  0
  7 26  1  0  0  0  0
  8 20  2  0  0  0  0
 10 28  1  0  0  0  0
 10 35  1  0  0  0  0
 11 28  2  0  0  0  0
 12 17  1  0  0  0  0
 12 20  1  0  0  0  0
 12 23  1  0  0  0  0
 13 20  1  0  0  0  0
 13 25  2  0  0  0  0
 14 27  1  0  0  0  0
 15 25  1  0  0  0  0
 16 17  1  0  0  0  0
 16 18  1  0  0  0  0
 16 22  1  1  0  0  0
 18 19  1  0  0  0  0
 19 21  1  1  0  0  0
 23 24  2  0  0  0  0
 24 25  1  0  0  0  0
 26 29  2  0  0  0  0
 26 30  1  0  0  0  0
 27 28  1  0  0  0  0
 27 34  1  6  0  0  0
 29 32  1  0  0  0  0
 30 33  2  0  0  0  0
 31 32  2  0  0  0  0
 31 33  1  0  0  0  0
M  END
> <PUBCHEM_COMPOUND_ID_TYPE>
0

> <PUBCHEM_TOTAL_CHARGE>
0

> <PUBCHEM_SUBSTANCE_ID>
310945656

> <PUBCHEM_SUBSTANCE_VERSION>
1

> <PUBCHEM_EXT_DATASOURCE_NAME>
4488

> <PUBCHEM_EXT_DATASOURCE_REGID>
SCHEMBL16123755

> <PUBCHEM_SUBSTANCE_COMMENT>
InChI=1S/C20H25BrFN4O8P/c1-11(17(28)31-3)25-35(30,34-13-6-4-12(21)5-7-13)32-10-14-16(27)20(2,22)18(33-14)26-9-8-15(23)24-19(26)29/h4-9,11,14,16,18,27H,10H2,1-3H3,(H,25,30)(H2,23,24,29)/t11-,14+,16+,18+,20+,35?/m0/s1
InChIKey=GKOWJTKIDIENBH-SOZZXGSXSA-N

> <PUBCHEM_SUBSTANCE_SYNONYM>
SCHEMBL16123755

> <PUBCHEM_XREF_EXT_ID>
SCHEMBL16123755

> <PUBCHEM_EXT_DATASOURCE_URL>
https://www.surechembl.org/

> <PUBCHEM_EXT_SUBSTANCE_URL>
https://www.surechembl.org/chemical/SCHEMBL16123755

> <PUBCHEM_CID_ASSOCIATIONS>
117611657  1

> <PUBCHEM_COORDINATE_TYPE>
1
3

> <PUBCHEM_BONDANNOTATIONS>
16  22  5
19  21  5
27  34  6
16  3  6
17  4  5
18  5  6

$$$$
