310930276
  -OEChem-07211613022D

 17 17  0     0  0  0  0  0  0999 V2000
    1.6250    0.0000    0.0000 O   0  0  0  0  0  0  0  0  0  0  0  0
    2.8750   -0.7250    0.0000 O   0  0  0  0  0  0  0  0  0  0  0  0
    1.6250   -1.4250    0.0000 N   0  0  0  0  0  0  0  0  0  0  0  0
    2.8500   -5.0001    0.0000 N   0  0  0  0  0  0  0  0  0  0  0  0
    2.0500   -2.1500    0.0000 C   0  0  0  0  0  0  0  0  0  0  0  0
    0.8000   -1.4250    0.0000 C   0  0  0  0  0  0  0  0  0  0  0  0
    2.0500   -0.7250    0.0000 C   0  0  0  0  0  0  0  0  0  0  0  0
    1.6500   -2.8500    0.0000 C   0  0  0  0  0  0  0  0  0  0  0  0
    2.8750   -2.1500    0.0000 C   0  0  0  0  0  0  0  0  0  0  0  0
    2.0500   -3.5500    0.0000 C   0  0  0  0  0  0  0  0  0  0  0  0
    3.2750   -2.8500    0.0000 C   0  0  0  0  0  0  0  0  0  0  0  0
    2.8750   -3.5750    0.0000 C   0  0  0  0  0  0  0  0  0  0  0  0
    0.8000   -0.5750    0.0000 C   0  0  0  0  0  0  0  0  0  0  0  0
    0.0000   -1.4250    0.0000 C   0  0  0  0  0  0  0  0  0  0  0  0
    0.8000   -2.2250    0.0000 C   0  0  0  0  0  0  0  0  0  0  0  0
    1.6250   -4.2751    0.0000 C   0  0  0  0  0  0  0  0  0  0  0  0
    2.0250   -5.0001    0.0000 C   0  0  0  0  0  0  0  0  0  0  0  0
  1  7  2  0  0  0  0
  2  7  1  0  0  0  0
  3  5  1  0  0  0  0
  3  6  1  0  0  0  0
  3  7  1  0  0  0  0
  4 17  3  0  0  0  0
  5  8  1  0  0  0  0
  5  9  2  0  0  0  0
  6 13  1  0  0  0  0
  6 14  1  0  0  0  0
  6 15  1  0  0  0  0
  8 10  2  0  0  0  0
  9 11  1  0  0  0  0
 10 12  1  0  0  0  0
 10 16  1  0  0  0  0
 11 12  2  0  0  0  0
 16 17  1  0  0  0  0
M  END
> <PUBCHEM_COMPOUND_ID_TYPE>
0

> <PUBCHEM_TOTAL_CHARGE>
0

> <PUBCHEM_SUBSTANCE_ID>
310930276

> <PUBCHEM_SUBSTANCE_VERSION>
1

> <PUBCHEM_EXT_DATASOURCE_NAME>
4488

> <PUBCHEM_EXT_DATASOURCE_REGID>
SCHEMBL16107553

> <PUBCHEM_SUBSTANCE_COMMENT>
InChI=1S/C13H16N2O2/c1-13(2,3)15(12(16)17)11-6-4-5-10(9-11)7-8-14/h4-6,9H,7H2,1-3H3,(H,16,17)
InChIKey=AHDDMHZEILCGIY-UHFFFAOYSA-N

> <PUBCHEM_SUBSTANCE_SYNONYM>
SCHEMBL16107553

> <PUBCHEM_XREF_EXT_ID>
SCHEMBL16107553

> <PUBCHEM_EXT_DATASOURCE_URL>
https://www.surechembl.org/

> <PUBCHEM_EXT_SUBSTANCE_URL>
https://www.surechembl.org/chemical/SCHEMBL16107553

> <PUBCHEM_CID_ASSOCIATIONS>
117599461  1

> <PUBCHEM_COORDINATE_TYPE>
1
3

$$$$
