310939733
  -OEChem-07211613022D

 11 10  0     0  0  0  0  0  0999 V2000
    1.8486  -11.3921    0.0000 O   0  0  0  0  0  0  0  0  0  0  0  0
    3.9920  -10.1546    0.0000 O   0  0  0  0  0  0  0  0  0  0  0  0
    1.1341  -10.1546    0.0000 C   0  0  0  0  0  0  0  0  0  0  0  0
    1.8486  -10.5671    0.0000 C   0  0  0  0  0  0  0  0  0  0  0  0
    2.5630  -10.1546    0.0000 C   0  0  0  0  0  0  0  0  0  0  0  0
    1.5466   -9.4401    0.0000 C   0  0  0  0  0  0  0  0  0  0  0  0
    0.7216  -10.8691    0.0000 C   0  0  0  0  0  0  0  0  0  0  0  0
    0.4196   -9.7421    0.0000 C   0  0  0  0  0  0  0  0  0  0  0  0
    2.5630   -9.3296    0.0000 C   0  0  0  0  0  0  0  0  0  0  0  0
    3.2775   -8.9171    0.0000 C   0  0  0  0  0  0  0  0  0  0  0  0
    3.9920   -9.3296    0.0000 C   0  0  0  0  0  0  0  0  0  0  0  0
  1  4  2  0  0  0  0
  2 11  1  0  0  0  0
  3  4  1  0  0  0  0
  3  6  1  0  0  0  0
  3  7  1  0  0  0  0
  3  8  1  0  0  0  0
  4  5  1  0  0  0  0
  5  9  2  0  0  0  0
  9 10  1  0  0  0  0
 10 11  1  0  0  0  0
M  END
> <PUBCHEM_COMPOUND_ID_TYPE>
0

> <PUBCHEM_TOTAL_CHARGE>
0

> <PUBCHEM_SUBSTANCE_ID>
310939733

> <PUBCHEM_SUBSTANCE_VERSION>
1

> <PUBCHEM_EXT_DATASOURCE_NAME>
4488

> <PUBCHEM_EXT_DATASOURCE_REGID>
SCHEMBL16117663

> <PUBCHEM_SUBSTANCE_COMMENT>
InChI=1S/C9H16O2/c1-9(2,3)8(11)6-4-5-7-10/h4,6,10H,5,7H2,1-3H3/b6-4+
InChIKey=INZYGGTUGWFRGL-GQCTYLIASA-N

> <PUBCHEM_SUBSTANCE_SYNONYM>
SCHEMBL16117663

> <PUBCHEM_XREF_EXT_ID>
SCHEMBL16117663

> <PUBCHEM_EXT_DATASOURCE_URL>
https://www.surechembl.org/

> <PUBCHEM_EXT_SUBSTANCE_URL>
https://www.surechembl.org/chemical/SCHEMBL16117663

> <PUBCHEM_CID_ASSOCIATIONS>
117606958  1

> <PUBCHEM_COORDINATE_TYPE>
1
3

> <PUBCHEM_BONDANNOTATIONS>
3  6  3
3  7  3

$$$$
