310929235
  -OEChem-07211613022D

 25 27  0     0  0  0  0  0  0999 V2000
    9.2859   -1.9708    0.0000 O   0  0  0  0  0  0  0  0  0  0  0  0
    0.0000   -3.2401    0.0000 O   0  0  0  0  0  0  0  0  0  0  0  0
    7.9164   -2.8058    0.0000 N   0  0  0  0  0  0  0  0  0  0  0  0
    8.6178   -3.2066    0.0000 C   0  0  0  0  0  0  0  0  0  0  0  0
    8.6178   -4.0417    0.0000 C   0  0  0  0  0  0  0  0  0  0  0  0
    9.3193   -2.8058    0.0000 C   0  0  0  0  0  0  0  0  0  0  0  0
    7.1815   -3.2401    0.0000 C   0  0  0  0  0  0  0  0  0  0  0  0
    7.9164   -4.4759    0.0000 C   0  0  0  0  0  0  0  0  0  0  0  0
    9.3193   -4.4759    0.0000 C   0  0  0  0  0  0  0  0  0  0  0  0
   10.0208   -3.2066    0.0000 C   0  0  0  0  0  0  0  0  0  0  0  0
    7.1815   -4.0417    0.0000 C   0  0  0  0  0  0  0  0  0  0  0  0
   10.0208   -4.0417    0.0000 C   0  0  0  0  0  0  0  0  0  0  0  0
    8.5844   -0.7348    0.0000 C   0  0  0  0  0  0  0  0  0  0  0  0
    8.5844   -1.5699    0.0000 C   0  0  0  0  0  0  0  0  0  0  0  0
    6.4801   -2.8058    0.0000 C   0  0  0  0  0  0  0  0  0  0  0  0
    8.1502   -0.0334    0.0000 C   0  0  0  0  0  0  0  0  0  0  0  0
    8.9852    0.0000    0.0000 C   0  0  0  0  0  0  0  0  0  0  0  0
    5.7452   -3.2401    0.0000 C   0  0  0  0  0  0  0  0  0  0  0  0
    5.0438   -2.8058    0.0000 C   0  0  0  0  0  0  0  0  0  0  0  0
    4.3089   -3.2401    0.0000 C   0  0  0  0  0  0  0  0  0  0  0  0
    3.6075   -2.8058    0.0000 C   0  0  0  0  0  0  0  0  0  0  0  0
    2.8726   -3.2401    0.0000 C   0  0  0  0  0  0  0  0  0  0  0  0
    2.1712   -2.8058    0.0000 C   0  0  0  0  0  0  0  0  0  0  0  0
    1.4363   -3.2401    0.0000 C   0  0  0  0  0  0  0  0  0  0  0  0
    0.7348   -2.8058    0.0000 C   0  0  0  0  0  0  0  0  0  0  0  0
  1  6  1  0  0  0  0
  1 14  1  0  0  0  0
  2 25  1  0  0  0  0
  3  4  2  0  0  0  0
  3  7  1  0  0  0  0
  4  5  1  0  0  0  0
  4  6  1  0  0  0  0
  5  8  2  0  0  0  0
  5  9  1  0  0  0  0
  6 10  2  0  0  0  0
  7 11  2  0  0  0  0
  7 15  1  0  0  0  0
  8 11  1  0  0  0  0
  9 12  2  0  0  0  0
 10 12  1  0  0  0  0
 13 14  1  0  0  0  0
 13 16  1  0  0  0  0
 13 17  1  0  0  0  0
 15 18  1  0  0  0  0
 16 17  1  0  0  0  0
 18 19  1  0  0  0  0
 19 20  1  0  0  0  0
 20 21  1  0  0  0  0
 21 22  1  0  0  0  0
 22 23  1  0  0  0  0
 23 24  1  0  0  0  0
 24 25  1  0  0  0  0
M  END
> <PUBCHEM_COMPOUND_ID_TYPE>
0

> <PUBCHEM_TOTAL_CHARGE>
0

> <PUBCHEM_SUBSTANCE_ID>
310929235

> <PUBCHEM_SUBSTANCE_VERSION>
1

> <PUBCHEM_EXT_DATASOURCE_NAME>
4488

> <PUBCHEM_EXT_DATASOURCE_REGID>
SCHEMBL16106398

> <PUBCHEM_SUBSTANCE_COMMENT>
InChI=1S/C22H31NO2/c24-16-7-5-3-1-2-4-6-10-20-15-14-19-9-8-11-21(22(19)23-20)25-17-18-12-13-18/h8-9,11,14-15,18,24H,1-7,10,12-13,16-17H2
InChIKey=BDDPQDMXOKPTHO-UHFFFAOYSA-N

> <PUBCHEM_SUBSTANCE_SYNONYM>
SCHEMBL16106398

> <PUBCHEM_XREF_EXT_ID>
SCHEMBL16106398

> <PUBCHEM_EXT_DATASOURCE_URL>
https://www.surechembl.org/

> <PUBCHEM_EXT_SUBSTANCE_URL>
https://www.surechembl.org/chemical/SCHEMBL16106398

> <PUBCHEM_CID_ASSOCIATIONS>
85472454  1

> <PUBCHEM_COORDINATE_TYPE>
1
3

$$$$
