310944987
  -OEChem-07211613022D

 31 34  0     0  0  0  0  0  0999 V2000
    3.7671    2.4362    0.0000 O   0  0  0  0  0  0  0  0  0  0  0  0
   -4.3110   -0.4109    0.0000 O   0  0  0  0  0  0  0  0  0  0  0  0
    2.0195    0.2025    0.0000 N   0  0  0  0  0  0  0  0  0  0  0  0
    0.3067    0.2835    0.0000 N   0  0  0  0  0  0  0  0  0  0  0  0
   -3.0958   -0.9316    0.0000 N   0  0  0  0  0  0  0  0  0  0  0  0
   -0.8853    1.0937    0.0000 N   0  0  0  0  0  0  0  0  0  0  0  0
    4.3110    1.1399    0.0000 N   0  0  0  0  0  0  0  0  0  0  0  0
    1.5797    0.9085    0.0000 C   0  0  0  0  0  0  0  0  0  0  0  0
    2.8875    1.2325    0.0000 C   0  0  0  0  0  0  0  0  0  0  0  0
    2.8065    0.3993    0.0000 C   0  0  0  0  0  0  0  0  0  0  0  0
    0.7580    0.9779    0.0000 C   0  0  0  0  0  0  0  0  0  0  0  0
    2.1122    1.5450    0.0000 C   0  0  0  0  0  0  0  0  0  0  0  0
   -0.5266    0.3415    0.0000 C   0  0  0  0  0  0  0  0  0  0  0  0
   -1.0010   -0.3646    0.0000 C   0  0  0  0  0  0  0  0  0  0  0  0
   -2.2741   -0.9895    0.0000 C   0  0  0  0  0  0  0  0  0  0  0  0
    3.6166    1.5913    0.0000 C   0  0  0  0  0  0  0  0  0  0  0  0
   -1.8112   -0.3067    0.0000 C   0  0  0  0  0  0  0  0  0  0  0  0
   -1.9154   -1.7534    0.0000 C   0  0  0  0  0  0  0  0  0  0  0  0
    3.5009   -0.0752    0.0000 C   0  0  0  0  0  0  0  0  0  0  0  0
    0.3993    1.7186    0.0000 C   0  0  0  0  0  0  0  0  0  0  0  0
   -0.6423   -1.1052    0.0000 C   0  0  0  0  0  0  0  0  0  0  0  0
   -1.0937   -1.7996    0.0000 C   0  0  0  0  0  0  0  0  0  0  0  0
   -0.4224    1.7765    0.0000 C   0  0  0  0  0  0  0  0  0  0  0  0
    4.2416    0.2952    0.0000 C   0  0  0  0  0  0  0  0  0  0  0  0
   -3.5009   -0.2141    0.0000 C   0  0  0  0  0  0  0  0  0  0  0  0
   -3.5587   -1.6608    0.0000 C   0  0  0  0  0  0  0  0  0  0  0  0
   -2.2394   -2.2741    0.0000 C   0  0  0  0  0  0  0  0  0  0  0  0
   -3.3042    0.6076    0.0000 C   0  0  0  0  0  0  0  0  0  0  0  0
   -3.2000   -2.3898    0.0000 C   0  0  0  0  0  0  0  0  0  0  0  0
   -3.9290    1.1399    0.0000 C   0  0  0  0  0  0  0  0  0  0  0  0
   -2.4940   -2.4362    0.0000 C   0  0  0  0  0  0  0  0  0  0  0  0
  1 16  2  0  0  0  0
  2 25  2  0  0  0  0
  3  8  1  0  0  0  0
  3 10  1  0  0  0  0
  4 11  2  0  0  0  0
  4 13  1  0  0  0  0
  5 15  1  0  0  0  0
  5 25  1  0  0  0  0
  5 26  1  0  0  0  0
  6 13  2  0  0  0  0
  6 23  1  0  0  0  0
  7 16  1  0  0  0  0
  7 24  1  0  0  0  0
  8 11  1  0  0  0  0
  8 12  2  0  0  0  0
  9 10  2  0  0  0  0
  9 12  1  0  0  0  0
  9 16  1  0  0  0  0
 10 19  1  0  0  0  0
 11 20  1  0  0  0  0
 13 14  1  0  0  0  0
 14 17  2  0  0  0  0
 14 21  1  0  0  0  0
 15 17  1  0  0  0  0
 15 18  2  0  0  0  0
 18 22  1  0  0  0  0
 18 27  1  0  0  0  0
 19 24  1  0  0  0  0
 20 23  2  0  0  0  0
 21 22  2  0  0  0  0
 25 28  1  0  0  0  0
 26 29  1  0  0  0  0
 28 30  2  0  0  0  0
 29 31  1  0  0  0  0
M  END
> <PUBCHEM_COMPOUND_ID_TYPE>
0

> <PUBCHEM_TOTAL_CHARGE>
0

> <PUBCHEM_SUBSTANCE_ID>
310944987

> <PUBCHEM_SUBSTANCE_VERSION>
1

> <PUBCHEM_EXT_DATASOURCE_NAME>
4488

> <PUBCHEM_EXT_DATASOURCE_REGID>
SCHEMBL16123075

> <PUBCHEM_SUBSTANCE_COMMENT>
InChI=1S/C24H25N5O2/c1-4-12-29(22(30)5-2)21-13-16(7-6-15(21)3)23-25-10-9-19(28-23)20-14-17-18(27-20)8-11-26-24(17)31/h5-7,9-10,13-14,27H,2,4,8,11-12H2,1,3H3,(H,26,31)
InChIKey=SITXDJRDEYUYJS-UHFFFAOYSA-N

> <PUBCHEM_SUBSTANCE_SYNONYM>
SCHEMBL16123075

> <PUBCHEM_XREF_EXT_ID>
SCHEMBL16123075

> <PUBCHEM_EXT_DATASOURCE_URL>
https://www.surechembl.org/

> <PUBCHEM_EXT_SUBSTANCE_URL>
https://www.surechembl.org/chemical/SCHEMBL16123075

> <PUBCHEM_CID_ASSOCIATIONS>
117611130  1

> <PUBCHEM_COORDINATE_TYPE>
1
3

$$$$
