310939422
  -OEChem-07211613022D

 12 12  0     0  0  0  0  0  0999 V2000
    2.9110    1.8563    0.0000 O   0  0  0  0  0  0  0  0  0  0  0  0
    4.3400    1.0313    0.0000 O   0  0  0  0  0  0  0  0  0  0  0  0
    1.4821    1.0313    0.0000 O   0  0  0  0  0  0  0  0  0  0  0  0
    3.6255   -1.8563    0.0000 O   0  0  0  0  0  0  0  0  0  0  0  0
    2.1966   -1.8563    0.0000 O   0  0  0  0  0  0  0  0  0  0  0  0
    2.9110   -0.6187    0.0000 C   0  0  0  0  0  0  0  0  0  0  0  0
    2.9110    1.0313    0.0000 C   0  0  0  0  0  0  0  0  0  0  0  0
    3.6255    0.6187    0.0000 C   0  0  0  0  0  0  0  0  0  0  0  0
    2.1966    0.6187    0.0000 C   0  0  0  0  0  0  0  0  0  0  0  0
    3.6255   -0.2062    0.0000 C   0  0  0  0  0  0  0  0  0  0  0  0
    2.1966   -0.2062    0.0000 C   0  0  0  0  0  0  0  0  0  0  0  0
    2.9110   -1.4437    0.0000 C   0  0  0  0  0  0  0  0  0  0  0  0
  1  7  2  0  0  0  0
  2  8  2  0  0  0  0
  3  9  1  0  0  0  0
  4 12  2  0  0  0  0
  5 12  1  0  0  0  0
  6 10  2  0  0  0  0
  6 11  1  0  0  0  0
  6 12  1  0  0  0  0
  7  8  1  0  0  0  0
  7  9  1  0  0  0  0
  8 10  1  0  0  0  0
  9 11  2  0  0  0  0
M  END
> <PUBCHEM_COMPOUND_ID_TYPE>
0

> <PUBCHEM_TOTAL_CHARGE>
0

> <PUBCHEM_SUBSTANCE_ID>
310939422

> <PUBCHEM_SUBSTANCE_VERSION>
1

> <PUBCHEM_EXT_DATASOURCE_NAME>
4488

> <PUBCHEM_EXT_DATASOURCE_REGID>
SCHEMBL16117344

> <PUBCHEM_SUBSTANCE_COMMENT>
InChI=1S/C7H4O5/c8-4-1-3(7(11)12)2-5(9)6(4)10/h1-2,8H,(H,11,12)
InChIKey=IMQOXXXEFPRTQU-UHFFFAOYSA-N

> <PUBCHEM_SUBSTANCE_SYNONYM>
SCHEMBL16117344

> <PUBCHEM_XREF_EXT_ID>
SCHEMBL16117344

> <PUBCHEM_EXT_DATASOURCE_URL>
https://www.surechembl.org/

> <PUBCHEM_EXT_SUBSTANCE_URL>
https://www.surechembl.org/chemical/SCHEMBL16117344

> <PUBCHEM_CID_ASSOCIATIONS>
5478648  1

> <PUBCHEM_COORDINATE_TYPE>
1
3

$$$$
