310943425
  -OEChem-07211613022D

 34 37  0     0  0  0  0  0  0999 V2000
    4.2103    1.3376    0.0000 F   0  0  0  0  0  0  0  0  0  0  0  0
    5.3360    1.0306    0.0000 F   0  0  0  0  0  0  0  0  0  0  0  0
    5.0290   -0.0950    0.0000 F   0  0  0  0  0  0  0  0  0  0  0  0
   -3.9326   -1.0306    0.0000 O   0  0  0  0  0  0  0  0  0  0  0  0
    1.7689    1.4400    0.0000 O   0  0  0  0  0  0  0  0  0  0  0  0
   -5.3360    1.4546    0.0000 O   0  0  0  0  0  0  0  0  0  0  0  0
   -2.5145   -1.0306    0.0000 N   0  0  0  0  0  0  0  0  0  0  0  0
   -1.7981   -0.6067    0.0000 N   0  0  0  0  0  0  0  0  0  0  0  0
   -3.9179    0.6213    0.0000 N   0  0  0  0  0  0  0  0  0  0  0  0
    1.0526    0.2120    0.0000 N   0  0  0  0  0  0  0  0  0  0  0  0
    3.9033   -0.6213    0.0000 N   0  0  0  0  0  0  0  0  0  0  0  0
    3.1870   -1.0306    0.0000 N   0  0  0  0  0  0  0  0  0  0  0  0
   -1.7836    0.2120    0.0000 C   0  0  0  0  0  0  0  0  0  0  0  0
   -3.2016    0.2266    0.0000 C   0  0  0  0  0  0  0  0  0  0  0  0
   -1.0819    0.6213    0.0000 C   0  0  0  0  0  0  0  0  0  0  0  0
   -3.2162   -0.6067    0.0000 C   0  0  0  0  0  0  0  0  0  0  0  0
   -2.4999    0.6213    0.0000 C   0  0  0  0  0  0  0  0  0  0  0  0
   -1.0672    1.4546    0.0000 C   0  0  0  0  0  0  0  0  0  0  0  0
   -0.3509    0.2120    0.0000 C   0  0  0  0  0  0  0  0  0  0  0  0
    0.3362    0.6359    0.0000 C   0  0  0  0  0  0  0  0  0  0  0  0
    2.4853    0.2120    0.0000 C   0  0  0  0  0  0  0  0  0  0  0  0
    3.8887    0.2120    0.0000 C   0  0  0  0  0  0  0  0  0  0  0  0
    1.7543    0.6067    0.0000 C   0  0  0  0  0  0  0  0  0  0  0  0
    4.6197    0.6213    0.0000 C   0  0  0  0  0  0  0  0  0  0  0  0
   -0.3801    1.8493    0.0000 C   0  0  0  0  0  0  0  0  0  0  0  0
    0.3362    1.4400    0.0000 C   0  0  0  0  0  0  0  0  0  0  0  0
    3.1870    0.6213    0.0000 C   0  0  0  0  0  0  0  0  0  0  0  0
   -3.9179    1.4546    0.0000 C   0  0  0  0  0  0  0  0  0  0  0  0
   -4.6197    0.2266    0.0000 C   0  0  0  0  0  0  0  0  0  0  0  0
    2.4853   -0.6213    0.0000 C   0  0  0  0  0  0  0  0  0  0  0  0
   -2.4853   -1.8639    0.0000 C   0  0  0  0  0  0  0  0  0  0  0  0
   -1.7981    1.8347    0.0000 C   0  0  0  0  0  0  0  0  0  0  0  0
   -4.6489    1.8639    0.0000 C   0  0  0  0  0  0  0  0  0  0  0  0
   -5.3360    0.6213    0.0000 C   0  0  0  0  0  0  0  0  0  0  0  0
  1 24  1  0  0  0  0
  2 24  1  0  0  0  0
  3 24  1  0  0  0  0
  4 16  2  0  0  0  0
  5 23  2  0  0  0  0
  6 33  1  0  0  0  0
  6 34  1  0  0  0  0
  7  8  1  0  0  0  0
  7 16  1  0  0  0  0
  7 31  1  0  0  0  0
  8 13  2  0  0  0  0
  9 14  1  0  0  0  0
  9 28  1  0  0  0  0
  9 29  1  0  0  0  0
 10 20  1  0  0  0  0
 10 23  1  0  0  0  0
 11 12  2  0  0  0  0
 11 22  1  0  0  0  0
 12 30  1  0  0  0  0
 13 15  1  0  0  0  0
 13 17  1  0  0  0  0
 14 16  1  0  0  0  0
 14 17  2  0  0  0  0
 15 18  1  0  0  0  0
 15 19  2  0  0  0  0
 18 25  2  0  0  0  0
 18 32  1  0  0  0  0
 19 20  1  0  0  0  0
 20 26  2  0  0  0  0
 21 23  1  0  0  0  0
 21 27  1  0  0  0  0
 21 30  2  0  0  0  0
 22 24  1  0  0  0  0
 22 27  2  0  0  0  0
 25 26  1  0  0  0  0
 28 33  1  0  0  0  0
 29 34  1  0  0  0  0
M  END
> <PUBCHEM_COMPOUND_ID_TYPE>
0

> <PUBCHEM_TOTAL_CHARGE>
0

> <PUBCHEM_SUBSTANCE_ID>
310943425

> <PUBCHEM_SUBSTANCE_VERSION>
1

> <PUBCHEM_EXT_DATASOURCE_NAME>
4488

> <PUBCHEM_EXT_DATASOURCE_REGID>
SCHEMBL16121489

> <PUBCHEM_SUBSTANCE_COMMENT>
InChI=1S/C22H21F3N6O3/c1-13-3-4-15(27-20(32)14-9-19(22(23,24)25)28-26-12-14)10-16(13)17-11-18(21(33)30(2)29-17)31-5-7-34-8-6-31/h3-4,9-12H,5-8H2,1-2H3,(H,27,32)
InChIKey=QWFAGVZYNFCCRF-UHFFFAOYSA-N

> <PUBCHEM_SUBSTANCE_SYNONYM>
SCHEMBL16121489

> <PUBCHEM_XREF_EXT_ID>
SCHEMBL16121489

> <PUBCHEM_EXT_DATASOURCE_URL>
https://www.surechembl.org/

> <PUBCHEM_EXT_SUBSTANCE_URL>
https://www.surechembl.org/chemical/SCHEMBL16121489

> <PUBCHEM_CID_ASSOCIATIONS>
117609849  1

> <PUBCHEM_COORDINATE_TYPE>
1
3

$$$$
