310929354
  -OEChem-07211613022D

 28 29  0     0  0  0  0  0  0999 V2000
   10.4574   -0.0418    0.0000 O   0  0  0  0  0  0  0  0  0  0  0  0
    0.0000   -2.8444    0.0000 O   0  0  0  0  0  0  0  0  0  0  0  0
   10.4992   -1.6314    0.0000 N   0  0  0  0  0  0  0  0  0  0  0  0
   11.1685   -1.2130    0.0000 C   0  0  0  0  0  0  0  0  0  0  0  0
   11.8796   -1.5895    0.0000 C   0  0  0  0  0  0  0  0  0  0  0  0
   11.1685   -0.4183    0.0000 C   0  0  0  0  0  0  0  0  0  0  0  0
   10.4992   -2.4261    0.0000 C   0  0  0  0  0  0  0  0  0  0  0  0
   11.8796   -2.4261    0.0000 C   0  0  0  0  0  0  0  0  0  0  0  0
   12.5489   -1.2130    0.0000 C   0  0  0  0  0  0  0  0  0  0  0  0
   11.8796    0.0000    0.0000 C   0  0  0  0  0  0  0  0  0  0  0  0
   11.1685   -2.8444    0.0000 C   0  0  0  0  0  0  0  0  0  0  0  0
   12.5489   -0.4183    0.0000 C   0  0  0  0  0  0  0  0  0  0  0  0
    9.7881   -2.8444    0.0000 C   0  0  0  0  0  0  0  0  0  0  0  0
    9.7881   -0.4183    0.0000 C   0  0  0  0  0  0  0  0  0  0  0  0
    9.0770   -2.4261    0.0000 C   0  0  0  0  0  0  0  0  0  0  0  0
    8.4077   -2.8444    0.0000 C   0  0  0  0  0  0  0  0  0  0  0  0
    9.7881   -1.2549    0.0000 C   0  0  0  0  0  0  0  0  0  0  0  0
    7.6966   -2.4261    0.0000 C   0  0  0  0  0  0  0  0  0  0  0  0
    6.9856   -2.8444    0.0000 C   0  0  0  0  0  0  0  0  0  0  0  0
    6.3163   -2.4261    0.0000 C   0  0  0  0  0  0  0  0  0  0  0  0
    5.6052   -2.8444    0.0000 C   0  0  0  0  0  0  0  0  0  0  0  0
    4.8941   -2.4261    0.0000 C   0  0  0  0  0  0  0  0  0  0  0  0
    4.2248   -2.8444    0.0000 C   0  0  0  0  0  0  0  0  0  0  0  0
    3.5137   -2.4261    0.0000 C   0  0  0  0  0  0  0  0  0  0  0  0
    2.8026   -2.8444    0.0000 C   0  0  0  0  0  0  0  0  0  0  0  0
    2.0915   -2.4261    0.0000 C   0  0  0  0  0  0  0  0  0  0  0  0
    1.4222   -2.8444    0.0000 C   0  0  0  0  0  0  0  0  0  0  0  0
    0.7111   -2.4261    0.0000 C   0  0  0  0  0  0  0  0  0  0  0  0
  1  6  1  0  0  0  0
  1 14  1  0  0  0  0
  2 28  1  0  0  0  0
  3  4  2  0  0  0  0
  3  7  1  0  0  0  0
  4  5  1  0  0  0  0
  4  6  1  0  0  0  0
  5  8  2  0  0  0  0
  5  9  1  0  0  0  0
  6 10  2  0  0  0  0
  7 11  2  0  0  0  0
  7 13  1  0  0  0  0
  8 11  1  0  0  0  0
  9 12  2  0  0  0  0
 10 12  1  0  0  0  0
 13 15  1  0  0  0  0
 14 17  1  0  0  0  0
 15 16  1  0  0  0  0
 16 18  1  0  0  0  0
 18 19  1  0  0  0  0
 19 20  1  0  0  0  0
 20 21  1  0  0  0  0
 21 22  1  0  0  0  0
 22 23  1  0  0  0  0
 23 24  1  0  0  0  0
 24 25  1  0  0  0  0
 25 26  1  0  0  0  0
 26 27  1  0  0  0  0
 27 28  1  0  0  0  0
M  END
> <PUBCHEM_COMPOUND_ID_TYPE>
0

> <PUBCHEM_TOTAL_CHARGE>
0

> <PUBCHEM_SUBSTANCE_ID>
310929354

> <PUBCHEM_SUBSTANCE_VERSION>
1

> <PUBCHEM_EXT_DATASOURCE_NAME>
4488

> <PUBCHEM_EXT_DATASOURCE_REGID>
SCHEMBL16106522

> <PUBCHEM_SUBSTANCE_COMMENT>
InChI=1S/C25H39NO2/c1-2-28-24-18-15-16-22-19-20-23(26-25(22)24)17-13-11-9-7-5-3-4-6-8-10-12-14-21-27/h15-16,18-20,27H,2-14,17,21H2,1H3
InChIKey=WWWYYWWTZOTHDZ-UHFFFAOYSA-N

> <PUBCHEM_SUBSTANCE_SYNONYM>
SCHEMBL16106522

> <PUBCHEM_XREF_EXT_ID>
SCHEMBL16106522

> <PUBCHEM_EXT_DATASOURCE_URL>
https://www.surechembl.org/

> <PUBCHEM_EXT_SUBSTANCE_URL>
https://www.surechembl.org/chemical/SCHEMBL16106522

> <PUBCHEM_CID_ASSOCIATIONS>
85472046  1

> <PUBCHEM_COORDINATE_TYPE>
1
3

$$$$
