310941142
  -OEChem-07211613022D

 45 49  0     1  0  0  0  0  0999 V2000
    4.4768    2.2532    0.0000 S   0  0  0  0  0  0  0  0  0  0  0  0
    5.3245   -1.2270    0.0000 O   0  0  0  0  0  0  0  0  0  0  0  0
    4.1942    0.7511    0.0000 O   0  0  0  0  0  0  0  0  0  0  0  0
    1.5914   -1.0932    0.0000 O   0  0  0  0  0  0  0  0  0  0  0  0
    4.8932    2.9671    0.0000 O   0  0  0  0  0  0  0  0  0  0  0  0
    5.3096    2.2532    0.0000 O   0  0  0  0  0  0  0  0  0  0  0  0
   -0.5801    0.9890    0.0000 O   0  0  0  0  0  0  0  0  0  0  0  0
   -2.7366   -1.0932    0.0000 O   0  0  0  0  0  0  0  0  0  0  0  0
   -5.6219   -1.0932    0.0000 O   0  0  0  0  0  0  0  0  0  0  0  0
    2.3053    0.1710    0.0000 N   0  0  0  0  0  0  0  0  0  0  0  0
    3.7480    2.6697    0.0000 N   0  0  0  0  0  0  0  0  0  0  0  0
    0.1487   -0.2454    0.0000 N   0  0  0  0  0  0  0  0  0  0  0  0
   -2.0227    0.1710    0.0000 N   0  0  0  0  0  0  0  0  0  0  0  0
   -4.1942   -0.2454    0.0000 N   0  0  0  0  0  0  0  0  0  0  0  0
    4.9229   -0.4834    0.0000 C   0  0  3  0  0  0  0  0  0  0  0  0
    4.1347   -0.0670    0.0000 C   0  0  0  0  0  0  0  0  0  0  0  0
    4.5214   -1.1973    0.0000 C   0  0  0  0  0  0  0  0  0  0  0  0
    3.4803   -0.4685    0.0000 C   0  0  3  0  0  0  0  0  0  0  0  0
    5.6219   -0.0670    0.0000 C   0  0  0  0  0  0  0  0  0  0  0  0
    3.0192    1.4501    0.0000 C   0  0  0  0  0  0  0  0  0  0  0  0
    3.0341    2.2979    0.0000 C   0  0  0  0  0  0  0  0  0  0  0  0
    3.4654   -1.5542    0.0000 C   0  0  0  0  0  0  0  0  0  0  0  0
    1.5914   -0.2008    0.0000 C   0  0  0  0  0  0  0  0  0  0  0  0
    0.8775    0.2008    0.0000 C   0  0  3  0  0  0  0  0  0  0  0  0
    1.5765    1.4501    0.0000 C   0  0  0  0  0  0  0  0  0  0  0  0
    2.3202    1.0336    0.0000 C   0  0  0  0  0  0  0  0  0  0  0  0
    0.8924    1.0336    0.0000 C   0  0  0  0  0  0  0  0  0  0  0  0
    2.7515   -1.9706    0.0000 C   0  0  0  0  0  0  0  0  0  0  0  0
    2.3053    2.6845    0.0000 C   0  0  0  0  0  0  0  0  0  0  0  0
    3.7629    1.0336    0.0000 C   0  0  0  0  0  0  0  0  0  0  0  0
    1.6063    2.2830    0.0000 C   0  0  0  0  0  0  0  0  0  0  0  0
    4.4768    1.4501    0.0000 C   0  0  0  0  0  0  0  0  0  0  0  0
   -0.5652    0.1710    0.0000 C   0  0  0  0  0  0  0  0  0  0  0  0
    1.9930   -1.6434    0.0000 C   0  0  0  0  0  0  0  0  0  0  0  0
    2.6474   -2.8035    0.0000 C   0  0  0  0  0  0  0  0  0  0  0  0
   -1.2791   -0.2156    0.0000 C   0  0  3  0  0  0  0  0  0  0  0  0
    1.4427   -2.2532    0.0000 C   0  0  0  0  0  0  0  0  0  0  0  0
    1.8442   -2.9671    0.0000 C   0  0  0  0  0  0  0  0  0  0  0  0
   -2.7366   -0.2008    0.0000 C   0  0  0  0  0  0  0  0  0  0  0  0
   -1.2940   -1.0336    0.0000 C   0  0  0  0  0  0  0  0  0  0  0  0
   -3.4654    0.1859    0.0000 C   0  0  0  0  0  0  0  0  0  0  0  0
   -4.1793   -1.0486    0.0000 C   0  0  0  0  0  0  0  0  0  0  0  0
   -4.9081    0.1859    0.0000 C   0  0  0  0  0  0  0  0  0  0  0  0
   -4.8932   -1.4650    0.0000 C   0  0  0  0  0  0  0  0  0  0  0  0
   -5.6071   -0.2156    0.0000 C   0  0  0  0  0  0  0  0  0  0  0  0
  1  5  2  0  0  0  0
  1  6  2  0  0  0  0
  1 11  1  0  0  0  0
  1 32  1  0  0  0  0
  2 15  1  0  0  0  0
  2 17  1  0  0  0  0
  3 16  2  0  0  0  0
  4 23  2  0  0  0  0
  7 33  2  0  0  0  0
  8 39  2  0  0  0  0
  9 44  1  0  0  0  0
  9 45  1  0  0  0  0
 18 10  1  6  0  0  0
 10 23  1  0  0  0  0
 11 21  1  0  0  0  0
 24 12  1  1  0  0  0
 12 33  1  0  0  0  0
 13 36  1  0  0  0  0
 13 39  1  0  0  0  0
 14 41  1  0  0  0  0
 14 42  1  0  0  0  0
 14 43  1  0  0  0  0
 15 16  1  6  0  0  0
 15 17  1  0  0  0  0
 15 19  1  1  0  0  0
 16 18  1  0  0  0  0
 18 22  1  0  0  0  0
 20 21  1  0  0  0  0
 20 26  2  0  0  0  0
 20 30  1  0  0  0  0
 21 29  2  0  0  0  0
 22 28  1  0  0  0  0
 23 24  1  0  0  0  0
 24 27  1  0  0  0  0
 25 26  1  0  0  0  0
 25 27  1  0  0  0  0
 25 31  2  0  0  0  0
 28 34  1  0  0  0  0
 28 35  1  0  0  0  0
 29 31  1  0  0  0  0
 30 32  1  0  0  0  0
 33 36  1  0  0  0  0
 34 37  1  0  0  0  0
 35 38  1  0  0  0  0
 36 40  1  6  0  0  0
 37 38  1  0  0  0  0
 39 41  1  0  0  0  0
 42 44  1  0  0  0  0
 43 45  1  0  0  0  0
M  END
> <PUBCHEM_COMPOUND_ID_TYPE>
0

> <PUBCHEM_TOTAL_CHARGE>
0

> <PUBCHEM_SUBSTANCE_ID>
310941142

> <PUBCHEM_SUBSTANCE_VERSION>
1

> <PUBCHEM_EXT_DATASOURCE_NAME>
4488

> <PUBCHEM_EXT_DATASOURCE_REGID>
SCHEMBL16119102

> <PUBCHEM_SUBSTANCE_COMMENT>
InChI=1S/C31H45N5O8S/c1-20(32-27(37)18-36-10-12-43-13-11-36)29(39)34-26(17-22-7-8-24-23(15-22)9-14-45(41,42)35-24)30(40)33-25(16-21-5-3-4-6-21)28(38)31(2)19-44-31/h7-8,15,20-21,25-26,35H,3-6,9-14,16-19H2,1-2H3,(H,32,37)(H,33,40)(H,34,39)/t20-,25-,26-,31+/m0/s1
InChIKey=HKLNHWCMVDZOJH-SGOONUSTSA-N

> <PUBCHEM_SUBSTANCE_SYNONYM>
SCHEMBL16119102

> <PUBCHEM_XREF_EXT_ID>
SCHEMBL16119102

> <PUBCHEM_EXT_DATASOURCE_URL>
https://www.surechembl.org/

> <PUBCHEM_EXT_SUBSTANCE_URL>
https://www.surechembl.org/chemical/SCHEMBL16119102

> <PUBCHEM_CID_ASSOCIATIONS>
117608024  1

> <PUBCHEM_COORDINATE_TYPE>
1
3

> <PUBCHEM_BONDANNOTATIONS>
18  10  6
24  12  5
15  16  6
15  19  5
36  40  6

$$$$
