310947617
  -OEChem-07211613022D

 44 48  0     1  0  0  0  0  0999 V2000
    0.8575   -3.5763    0.0000 Cl  0  0  0  0  0  0  0  0  0  0  0  0
   -4.4407   -2.3215    0.0000 Cl  0  0  0  0  0  0  0  0  0  0  0  0
   -2.7397    1.8753    0.0000 S   0  0  0  0  0  0  0  0  0  0  0  0
    0.1325   -0.6483    0.0000 O   0  0  0  0  0  0  0  0  0  0  0  0
   -0.5786    1.4570    0.0000 O   0  0  0  0  0  0  0  0  0  0  0  0
   -3.4648    2.2936    0.0000 O   0  0  0  0  0  0  0  0  0  0  0  0
   -3.4648    1.4570    0.0000 O   0  0  0  0  0  0  0  0  0  0  0  0
    4.4407   -0.6483    0.0000 O   0  0  0  0  0  0  0  0  0  0  0  0
    3.7297   -1.9032    0.0000 O   0  0  0  0  0  0  0  0  0  0  0  0
   -1.3036    0.2022    0.0000 N   0  0  0  0  0  0  0  0  0  0  0  0
    2.2936    0.6205    0.0000 N   0  0  0  0  0  0  0  0  0  0  0  0
   -1.2897   -0.6344    0.0000 C   0  0  3  0  0  0  0  0  0  0  0  0
    0.1464    0.2022    0.0000 C   0  0  3  0  0  0  0  0  0  0  0  0
   -0.5925    0.6065    0.0000 C   0  0  0  0  0  0  0  0  0  0  0  0
   -0.5786   -1.0527    0.0000 C   0  0  3  0  0  0  0  0  0  0  0  0
   -2.0147    0.6483    0.0000 C   0  0  3  0  0  0  0  0  0  0  0  0
   -2.7816    0.1743    0.0000 C   0  0  0  0  0  0  0  0  0  0  0  0
   -2.0286   -1.0527    0.0000 C   0  0  0  0  0  0  0  0  0  0  0  0
   -0.5786   -1.9032    0.0000 C   0  0  0  0  0  0  0  0  0  0  0  0
   -2.0147    1.4570    0.0000 C   0  0  0  0  0  0  0  0  0  0  0  0
    0.8435    0.6205    0.0000 C   0  0  0  0  0  0  0  0  0  0  0  0
   -3.5484    0.1882    0.0000 C   0  0  0  0  0  0  0  0  0  0  0  0
   -3.1441   -0.4950    0.0000 C   0  0  0  0  0  0  0  0  0  0  0  0
    0.3555    0.9969    0.0000 C   0  0  0  0  0  0  0  0  0  0  0  0
   -2.7397    2.7397    0.0000 C   0  0  0  0  0  0  0  0  0  0  0  0
    1.5825    0.2161    0.0000 C   0  0  0  0  0  0  0  0  0  0  0  0
   -2.7397   -0.6483    0.0000 C   0  0  0  0  0  0  0  0  0  0  0  0
   -2.0286   -1.8892    0.0000 C   0  0  0  0  0  0  0  0  0  0  0  0
    0.1325   -2.3215    0.0000 C   0  0  0  0  0  0  0  0  0  0  0  0
   -1.2897   -2.3215    0.0000 C   0  0  0  0  0  0  0  0  0  0  0  0
    0.1325   -3.1441    0.0000 C   0  0  0  0  0  0  0  0  0  0  0  0
   -3.4508   -1.0527    0.0000 C   0  0  0  0  0  0  0  0  0  0  0  0
   -2.7258   -2.3076    0.0000 C   0  0  0  0  0  0  0  0  0  0  0  0
   -3.4508   -1.8892    0.0000 C   0  0  0  0  0  0  0  0  0  0  0  0
    1.5686   -0.6344    0.0000 C   0  0  0  0  0  0  0  0  0  0  0  0
   -1.2897   -3.1580    0.0000 C   0  0  0  0  0  0  0  0  0  0  0  0
   -0.5647   -3.5623    0.0000 C   0  0  0  0  0  0  0  0  0  0  0  0
   -2.7537    3.5763    0.0000 C   0  0  0  0  0  0  0  0  0  0  0  0
   -3.4648    3.1302    0.0000 C   0  0  0  0  0  0  0  0  0  0  0  0
   -2.0286    3.1580    0.0000 C   0  0  0  0  0  0  0  0  0  0  0  0
    3.0186    0.2022    0.0000 C   0  0  0  0  0  0  0  0  0  0  0  0
    2.2796   -1.0527    0.0000 C   0  0  0  0  0  0  0  0  0  0  0  0
    3.0046   -0.6344    0.0000 C   0  0  0  0  0  0  0  0  0  0  0  0
    3.7018   -1.0666    0.0000 C   0  0  0  0  0  0  0  0  0  0  0  0
  1 31  1  0  0  0  0
  2 34  1  0  0  0  0
  3  6  2  0  0  0  0
  3  7  2  0  0  0  0
  3 20  1  0  0  0  0
  3 25  1  0  0  0  0
  4 13  1  0  0  0  0
 15  4  1  6  0  0  0
  5 14  2  0  0  0  0
  8 44  2  0  0  0  0
  9 44  1  0  0  0  0
 12 10  1  1  0  0  0
 10 14  1  0  0  0  0
 10 16  1  0  0  0  0
 11 26  1  0  0  0  0
 11 41  2  0  0  0  0
 12 15  1  0  0  0  0
 12 18  1  0  0  0  0
 13 14  1  0  0  0  0
 13 21  1  1  0  0  0
 13 24  1  6  0  0  0
 15 19  1  0  0  0  0
 16 17  1  0  0  0  0
 16 20  1  1  0  0  0
 17 22  1  0  0  0  0
 17 23  1  0  0  0  0
 18 27  2  0  0  0  0
 18 28  1  0  0  0  0
 19 29  1  0  0  0  0
 19 30  2  0  0  0  0
 21 26  1  0  0  0  0
 22 23  1  0  0  0  0
 25 38  1  0  0  0  0
 25 39  1  0  0  0  0
 25 40  1  0  0  0  0
 26 35  2  0  0  0  0
 27 32  1  0  0  0  0
 28 33  2  0  0  0  0
 29 31  2  0  0  0  0
 30 36  1  0  0  0  0
 31 37  1  0  0  0  0
 32 34  2  0  0  0  0
 33 34  1  0  0  0  0
 35 42  1  0  0  0  0
 36 37  2  0  0  0  0
 41 43  1  0  0  0  0
 42 43  2  0  0  0  0
 43 44  1  0  0  0  0
M  END
> <PUBCHEM_COMPOUND_ID_TYPE>
0

> <PUBCHEM_TOTAL_CHARGE>
0

> <PUBCHEM_SUBSTANCE_ID>
310947617

> <PUBCHEM_SUBSTANCE_VERSION>
1

> <PUBCHEM_EXT_DATASOURCE_NAME>
4488

> <PUBCHEM_EXT_DATASOURCE_REGID>
SCHEMBL16125782

> <PUBCHEM_SUBSTANCE_COMMENT>
InChI=1S/C33H36Cl2N2O6S/c1-32(2,3)44(41,42)19-27(20-8-9-20)37-28(21-10-13-24(34)14-11-21)29(22-6-5-7-25(35)16-22)43-33(4,31(37)40)17-26-15-12-23(18-36-26)30(38)39/h5-7,10-16,18,20,27-29H,8-9,17,19H2,1-4H3,(H,38,39)/t27-,28-,29-,33-/m1/s1
InChIKey=OTQRFDJHHZHHNT-OZLMZZSTSA-N

> <PUBCHEM_SUBSTANCE_SYNONYM>
SCHEMBL16125782

> <PUBCHEM_XREF_EXT_ID>
SCHEMBL16125782

> <PUBCHEM_EXT_DATASOURCE_URL>
https://www.surechembl.org/

> <PUBCHEM_EXT_SUBSTANCE_URL>
https://www.surechembl.org/chemical/SCHEMBL16125782

> <PUBCHEM_CID_ASSOCIATIONS>
73386678  1

> <PUBCHEM_COORDINATE_TYPE>
1
3

> <PUBCHEM_BONDANNOTATIONS>
12  10  5
13  21  5
13  24  6
16  20  5
15  4  6

$$$$
