310946333
  -OEChem-07211613022D

 26 28  0     0  0  0  0  0  0999 V2000
   -1.4740    2.4686    0.0000 I   0  0  0  0  0  0  0  0  0  0  0  0
   -0.0451    4.9436    0.0000 I   0  0  0  0  0  0  0  0  0  0  0  0
   -4.3319    4.1186    0.0000 I   0  0  0  0  0  0  0  0  0  0  0  0
   -1.4740    4.1186    0.0000 O   0  0  0  0  0  0  0  0  0  0  0  0
    2.0983    3.7061    0.0000 O   0  0  0  0  0  0  0  0  0  0  0  0
   -4.3319    2.4686    0.0000 O   0  0  0  0  0  0  0  0  0  0  0  0
    4.2417    1.6436    0.0000 O   0  0  0  0  0  0  0  0  0  0  0  0
    2.8128    2.4686    0.0000 N   0  0  0  0  0  0  0  0  0  0  0  0
   -0.7596    3.7061    0.0000 C   0  0  0  0  0  0  0  0  0  0  0  0
   -0.7596    2.8811    0.0000 C   0  0  0  0  0  0  0  0  0  0  0  0
   -0.0451    4.1186    0.0000 C   0  0  0  0  0  0  0  0  0  0  0  0
    0.6694    2.8811    0.0000 C   0  0  0  0  0  0  0  0  0  0  0  0
   -0.0451    2.4686    0.0000 C   0  0  0  0  0  0  0  0  0  0  0  0
    0.6694    3.7061    0.0000 C   0  0  0  0  0  0  0  0  0  0  0  0
   -2.1885    3.7061    0.0000 C   0  0  0  0  0  0  0  0  0  0  0  0
    1.3838    2.4686    0.0000 C   0  0  0  0  0  0  0  0  0  0  0  0
    2.0983    2.8811    0.0000 C   0  0  0  0  0  0  0  0  0  0  0  0
   -2.9030    4.1186    0.0000 C   0  0  0  0  0  0  0  0  0  0  0  0
   -3.6175    3.7061    0.0000 C   0  0  0  0  0  0  0  0  0  0  0  0
   -2.1885    2.8811    0.0000 C   0  0  0  0  0  0  0  0  0  0  0  0
   -3.6175    2.8811    0.0000 C   0  0  0  0  0  0  0  0  0  0  0  0
   -2.9030    2.4686    0.0000 C   0  0  0  0  0  0  0  0  0  0  0  0
    3.5272    2.8811    0.0000 C   0  0  0  0  0  0  0  0  0  0  0  0
    2.8128    1.6436    0.0000 C   0  0  0  0  0  0  0  0  0  0  0  0
    3.5272    1.2311    0.0000 C   0  0  0  0  0  0  0  0  0  0  0  0
    4.2417    2.4686    0.0000 C   0  0  0  0  0  0  0  0  0  0  0  0
  1 10  1  0  0  0  0
  2 11  1  0  0  0  0
  3 19  1  0  0  0  0
  4  9  1  0  0  0  0
  4 15  1  0  0  0  0
  5 17  2  0  0  0  0
  6 21  1  0  0  0  0
  7 25  1  0  0  0  0
  7 26  1  0  0  0  0
  8 17  1  0  0  0  0
  8 23  1  0  0  0  0
  8 24  1  0  0  0  0
  9 10  2  0  0  0  0
  9 11  1  0  0  0  0
 10 13  1  0  0  0  0
 11 14  2  0  0  0  0
 12 13  2  0  0  0  0
 12 14  1  0  0  0  0
 12 16  1  0  0  0  0
 15 18  2  0  0  0  0
 15 20  1  0  0  0  0
 16 17  1  0  0  0  0
 18 19  1  0  0  0  0
 19 21  2  0  0  0  0
 20 22  2  0  0  0  0
 21 22  1  0  0  0  0
 23 26  1  0  0  0  0
 24 25  1  0  0  0  0
M  END
> <PUBCHEM_COMPOUND_ID_TYPE>
0

> <PUBCHEM_TOTAL_CHARGE>
0

> <PUBCHEM_SUBSTANCE_ID>
310946333

> <PUBCHEM_SUBSTANCE_VERSION>
1

> <PUBCHEM_EXT_DATASOURCE_NAME>
4488

> <PUBCHEM_EXT_DATASOURCE_REGID>
SCHEMBL16124452

> <PUBCHEM_SUBSTANCE_COMMENT>
InChI=1S/C18H16I3NO4/c19-13-10-12(1-2-16(13)23)26-18-14(20)7-11(8-15(18)21)9-17(24)22-3-5-25-6-4-22/h1-2,7-8,10,23H,3-6,9H2
InChIKey=QXGMEQPKRMAPAQ-UHFFFAOYSA-N

> <PUBCHEM_SUBSTANCE_SYNONYM>
SCHEMBL16124452

> <PUBCHEM_XREF_EXT_ID>
SCHEMBL16124452

> <PUBCHEM_EXT_DATASOURCE_URL>
https://www.surechembl.org/

> <PUBCHEM_EXT_SUBSTANCE_URL>
https://www.surechembl.org/chemical/SCHEMBL16124452

> <PUBCHEM_CID_ASSOCIATIONS>
71487297  1

> <PUBCHEM_COORDINATE_TYPE>
1
3

$$$$
