310940970
  -OEChem-07211613022D

 43 46  0     1  0  0  0  0  0999 V2000
   -5.9408   -0.9993    0.0000 F   0  0  0  0  0  0  0  0  0  0  0  0
   -5.5192   -1.7174    0.0000 F   0  0  0  0  0  0  0  0  0  0  0  0
    5.6441   -1.0149    0.0000 O   0  0  0  0  0  0  0  0  0  0  0  0
    4.5043    0.9524    0.0000 O   0  0  0  0  0  0  0  0  0  0  0  0
    2.1156   -0.9993    0.0000 O   0  0  0  0  0  0  0  0  0  0  0  0
   -0.0390    1.0929    0.0000 O   0  0  0  0  0  0  0  0  0  0  0  0
   -2.2092   -0.9993    0.0000 O   0  0  0  0  0  0  0  0  0  0  0  0
    4.2858    2.7479    0.0000 O   0  0  0  0  0  0  0  0  0  0  0  0
    2.8337    0.2498    0.0000 N   0  0  0  0  0  0  0  0  0  0  0  0
    0.6636   -0.1718    0.0000 N   0  0  0  0  0  0  0  0  0  0  0  0
   -3.6768   -0.1718    0.0000 N   0  0  0  0  0  0  0  0  0  0  0  0
   -1.5066    0.2498    0.0000 N   0  0  0  0  0  0  0  0  0  0  0  0
    5.2226   -0.2654    0.0000 C   0  0  3  0  0  0  0  0  0  0  0  0
    4.4419    0.1405    0.0000 C   0  0  0  0  0  0  0  0  0  0  0  0
    4.8166   -0.9836    0.0000 C   0  0  0  0  0  0  0  0  0  0  0  0
    3.7861   -0.2654    0.0000 C   0  0  3  0  0  0  0  0  0  0  0  0
    5.9408    0.1405    0.0000 C   0  0  0  0  0  0  0  0  0  0  0  0
    3.7705   -1.3427    0.0000 C   0  0  0  0  0  0  0  0  0  0  0  0
    2.1156   -0.1093    0.0000 C   0  0  0  0  0  0  0  0  0  0  0  0
    1.3974    0.2811    0.0000 C   0  0  3  0  0  0  0  0  0  0  0  0
    3.0523   -1.7643    0.0000 C   0  0  0  0  0  0  0  0  0  0  0  0
    1.4130    1.1085    0.0000 C   0  0  0  0  0  0  0  0  0  0  0  0
   -0.0546    0.2498    0.0000 C   0  0  0  0  0  0  0  0  0  0  0  0
    2.3185   -1.4520    0.0000 C   0  0  0  0  0  0  0  0  0  0  0  0
    2.9587   -2.5918    0.0000 C   0  0  0  0  0  0  0  0  0  0  0  0
    2.1156    1.5300    0.0000 C   0  0  0  0  0  0  0  0  0  0  0  0
   -0.7572   -0.1405    0.0000 C   0  0  3  0  0  0  0  0  0  0  0  0
   -5.1289   -0.9836    0.0000 C   0  0  0  0  0  0  0  0  0  0  0  0
    1.7565   -2.0453    0.0000 C   0  0  0  0  0  0  0  0  0  0  0  0
    2.1780   -2.7635    0.0000 C   0  0  0  0  0  0  0  0  0  0  0  0
   -2.2248   -0.1093    0.0000 C   0  0  0  0  0  0  0  0  0  0  0  0
    2.8337    1.1242    0.0000 C   0  0  0  0  0  0  0  0  0  0  0  0
    2.1468    2.3732    0.0000 C   0  0  0  0  0  0  0  0  0  0  0  0
   -5.0821   -0.1249    0.0000 C   0  0  0  0  0  0  0  0  0  0  0  0
   -4.3639   -1.3896    0.0000 C   0  0  0  0  0  0  0  0  0  0  0  0
   -2.9587    0.2654    0.0000 C   0  0  0  0  0  0  0  0  0  0  0  0
   -4.3950    0.2654    0.0000 C   0  0  0  0  0  0  0  0  0  0  0  0
   -3.6612   -0.9680    0.0000 C   0  0  0  0  0  0  0  0  0  0  0  0
    3.5676    2.3732    0.0000 C   0  0  0  0  0  0  0  0  0  0  0  0
    3.5519    1.5300    0.0000 C   0  0  0  0  0  0  0  0  0  0  0  0
    2.8337    2.7635    0.0000 C   0  0  0  0  0  0  0  0  0  0  0  0
   -0.7728   -0.9680    0.0000 C   0  0  0  0  0  0  0  0  0  0  0  0
    5.0196    2.3576    0.0000 C   0  0  0  0  0  0  0  0  0  0  0  0
  1 28  1  0  0  0  0
  2 28  1  0  0  0  0
  3 13  1  0  0  0  0
  3 15  1  0  0  0  0
  4 14  2  0  0  0  0
  5 19  2  0  0  0  0
  6 23  2  0  0  0  0
  7 31  2  0  0  0  0
  8 39  1  0  0  0  0
  8 43  1  0  0  0  0
 16  9  1  6  0  0  0
  9 19  1  0  0  0  0
 20 10  1  1  0  0  0
 10 23  1  0  0  0  0
 11 36  1  0  0  0  0
 11 37  1  0  0  0  0
 11 38  1  0  0  0  0
 12 27  1  0  0  0  0
 12 31  1  0  0  0  0
 13 14  1  6  0  0  0
 13 15  1  0  0  0  0
 13 17  1  1  0  0  0
 14 16  1  0  0  0  0
 16 18  1  0  0  0  0
 18 21  1  0  0  0  0
 19 20  1  0  0  0  0
 20 22  1  0  0  0  0
 21 24  1  0  0  0  0
 21 25  1  0  0  0  0
 22 26  1  0  0  0  0
 23 27  1  0  0  0  0
 24 29  1  0  0  0  0
 25 30  1  0  0  0  0
 26 32  2  0  0  0  0
 26 33  1  0  0  0  0
 27 42  1  6  0  0  0
 28 34  1  0  0  0  0
 28 35  1  0  0  0  0
 29 30  1  0  0  0  0
 31 36  1  0  0  0  0
 32 40  1  0  0  0  0
 33 41  2  0  0  0  0
 34 37  1  0  0  0  0
 35 38  1  0  0  0  0
 39 40  2  0  0  0  0
 39 41  1  0  0  0  0
M  END
> <PUBCHEM_COMPOUND_ID_TYPE>
0

> <PUBCHEM_TOTAL_CHARGE>
0

> <PUBCHEM_SUBSTANCE_ID>
310940970

> <PUBCHEM_SUBSTANCE_VERSION>
1

> <PUBCHEM_EXT_DATASOURCE_NAME>
4488

> <PUBCHEM_EXT_DATASOURCE_REGID>
SCHEMBL16118929

> <PUBCHEM_SUBSTANCE_COMMENT>
InChI=1S/C31H44F2N4O6/c1-20(34-26(38)18-37-14-12-31(32,33)13-15-37)28(40)36-25(17-22-8-10-23(42-3)11-9-22)29(41)35-24(16-21-6-4-5-7-21)27(39)30(2)19-43-30/h8-11,20-21,24-25H,4-7,12-19H2,1-3H3,(H,34,38)(H,35,41)(H,36,40)/t20-,24-,25-,30+/m0/s1
InChIKey=HJDUINVBWAGTOH-NHPFZIKMSA-N

> <PUBCHEM_SUBSTANCE_SYNONYM>
SCHEMBL16118929

> <PUBCHEM_XREF_EXT_ID>
SCHEMBL16118929

> <PUBCHEM_EXT_DATASOURCE_URL>
https://www.surechembl.org/

> <PUBCHEM_EXT_SUBSTANCE_URL>
https://www.surechembl.org/chemical/SCHEMBL16118929

> <PUBCHEM_CID_ASSOCIATIONS>
117607878  1

> <PUBCHEM_COORDINATE_TYPE>
1
3

> <PUBCHEM_BONDANNOTATIONS>
20  10  5
13  14  6
13  17  5
27  42  6
16  9  6

$$$$
