310944903
  -OEChem-07211613022D

 34 37  0     0  0  0  0  0  0999 V2000
   -0.7107    2.5360    0.0000 Cl  0  0  0  0  0  0  0  0  0  0  0  0
   -4.0628   -1.2197    0.0000 S   0  0  0  0  0  0  0  0  0  0  0  0
    2.4658    2.5360    0.0000 F   0  0  0  0  0  0  0  0  0  0  0  0
    3.8874   -2.3781    0.0000 O   0  0  0  0  0  0  0  0  0  0  0  0
    4.6069   -1.1495    0.0000 O   0  0  0  0  0  0  0  0  0  0  0  0
   -4.2033   -2.5360    0.0000 N   0  0  0  0  0  0  0  0  0  0  0  0
   -0.4300    0.0614    0.0000 C   0  0  0  0  0  0  0  0  0  0  0  0
   -0.4124    0.8863    0.0000 C   0  0  0  0  0  0  0  0  0  0  0  0
   -1.1320   -0.3422    0.0000 C   0  0  0  0  0  0  0  0  0  0  0  0
    0.2896    1.2900    0.0000 C   0  0  0  0  0  0  0  0  0  0  0  0
    0.3071   -0.3422    0.0000 C   0  0  0  0  0  0  0  0  0  0  0  0
    0.3071    2.1148    0.0000 C   0  0  0  0  0  0  0  0  0  0  0  0
   -1.8516    0.0439    0.0000 C   0  0  0  0  0  0  0  0  0  0  0  0
   -1.1495   -1.1671    0.0000 C   0  0  0  0  0  0  0  0  0  0  0  0
   -2.5887   -1.1671    0.0000 C   0  0  0  0  0  0  0  0  0  0  0  0
    1.0092    0.8863    0.0000 C   0  0  0  0  0  0  0  0  0  0  0  0
   -1.1495    1.2900    0.0000 C   0  0  0  0  0  0  0  0  0  0  0  0
    0.3247   -1.1671    0.0000 C   0  0  0  0  0  0  0  0  0  0  0  0
    1.0267    0.0439    0.0000 C   0  0  0  0  0  0  0  0  0  0  0  0
   -2.5536   -0.3422    0.0000 C   0  0  0  0  0  0  0  0  0  0  0  0
   -1.8691   -1.5708    0.0000 C   0  0  0  0  0  0  0  0  0  0  0  0
   -3.2907   -1.5708    0.0000 C   0  0  0  0  0  0  0  0  0  0  0  0
    1.0267    2.5009    0.0000 C   0  0  0  0  0  0  0  0  0  0  0  0
    1.7463    2.1148    0.0000 C   0  0  0  0  0  0  0  0  0  0  0  0
    1.7287    1.2900    0.0000 C   0  0  0  0  0  0  0  0  0  0  0  0
    1.7287   -1.1671    0.0000 C   0  0  0  0  0  0  0  0  0  0  0  0
    1.0092   -1.5708    0.0000 C   0  0  0  0  0  0  0  0  0  0  0  0
    1.7287   -0.3598    0.0000 C   0  0  0  0  0  0  0  0  0  0  0  0
   -3.3960   -2.3956    0.0000 C   0  0  0  0  0  0  0  0  0  0  0  0
   -1.8516    0.8512    0.0000 C   0  0  0  0  0  0  0  0  0  0  0  0
    2.4834   -1.5708    0.0000 C   0  0  0  0  0  0  0  0  0  0  0  0
   -4.6069   -1.8866    0.0000 C   0  0  0  0  0  0  0  0  0  0  0  0
    3.1678   -1.1671    0.0000 C   0  0  0  0  0  0  0  0  0  0  0  0
    3.8874   -1.5532    0.0000 C   0  0  0  0  0  0  0  0  0  0  0  0
  1 12  1  0  0  0  0
  2 22  1  0  0  0  0
  2 32  1  0  0  0  0
  3 24  1  0  0  0  0
  4 34  2  0  0  0  0
  5 34  1  0  0  0  0
  6 29  1  0  0  0  0
  6 32  2  0  0  0  0
  7  8  2  0  0  0  0
  7  9  1  0  0  0  0
  7 11  1  0  0  0  0
  8 10  1  0  0  0  0
  8 17  1  0  0  0  0
  9 13  2  0  0  0  0
  9 14  1  0  0  0  0
 10 12  1  0  0  0  0
 10 16  2  0  0  0  0
 11 18  2  0  0  0  0
 11 19  1  0  0  0  0
 12 23  2  0  0  0  0
 13 20  1  0  0  0  0
 14 21  2  0  0  0  0
 15 20  2  0  0  0  0
 15 21  1  0  0  0  0
 15 22  1  0  0  0  0
 16 25  1  0  0  0  0
 17 30  1  0  0  0  0
 18 27  1  0  0  0  0
 19 28  2  0  0  0  0
 22 29  2  0  0  0  0
 23 24  1  0  0  0  0
 24 25  2  0  0  0  0
 26 27  2  0  0  0  0
 26 28  1  0  0  0  0
 26 31  1  0  0  0  0
 31 33  2  0  0  0  0
 33 34  1  0  0  0  0
M  END
> <PUBCHEM_COMPOUND_ID_TYPE>
0

> <PUBCHEM_TOTAL_CHARGE>
0

> <PUBCHEM_SUBSTANCE_ID>
310944903

> <PUBCHEM_SUBSTANCE_VERSION>
1

> <PUBCHEM_EXT_DATASOURCE_NAME>
4488

> <PUBCHEM_EXT_DATASOURCE_REGID>
SCHEMBL16122988

> <PUBCHEM_SUBSTANCE_COMMENT>
InChI=1S/C28H21ClFNO2S/c1-2-23(24-13-12-22(30)15-25(24)29)28(20-6-3-18(4-7-20)5-14-27(32)33)21-10-8-19(9-11-21)26-16-31-17-34-26/h3-17H,2H2,1H3,(H,32,33)/b14-5+,28-23+
InChIKey=CNOPYNRZWRUDIN-NLODCUAQSA-N

> <PUBCHEM_SUBSTANCE_SYNONYM>
SCHEMBL16122988

> <PUBCHEM_XREF_EXT_ID>
SCHEMBL16122988

> <PUBCHEM_EXT_DATASOURCE_URL>
https://www.surechembl.org/

> <PUBCHEM_EXT_SUBSTANCE_URL>
https://www.surechembl.org/chemical/SCHEMBL16122988

> <PUBCHEM_CID_ASSOCIATIONS>
86270986  1

> <PUBCHEM_COORDINATE_TYPE>
1
3

$$$$
