310939097
  -OEChem-07211613022D

 20 21  0     1  0  0  0  0  0999 V2000
    2.3964   -3.9723    0.0000 Cl  0  0  0  0  0  0  0  0  0  0  0  0
   -1.8904   -5.6223    0.0000 S   0  0  3  0  0  0  0  0  0  0  0  0
    0.9675   -6.4473    0.0000 F   0  0  0  0  0  0  0  0  0  0  0  0
    2.3964   -5.6223    0.0000 O   0  0  0  0  0  0  0  0  0  0  0  0
   -1.8904   -6.4473    0.0000 O   0  0  0  0  0  0  0  0  0  0  0  0
   -1.1759   -5.2098    0.0000 N   0  0  0  0  0  0  0  0  0  0  0  0
   -0.4614   -5.6223    0.0000 C   0  0  3  0  0  0  0  0  0  0  0  0
    0.2530   -5.2098    0.0000 C   0  0  0  0  0  0  0  0  0  0  0  0
   -0.4614   -6.4473    0.0000 C   0  0  0  0  0  0  0  0  0  0  0  0
    0.9675   -5.6223    0.0000 C   0  0  0  0  0  0  0  0  0  0  0  0
    1.6820   -5.2098    0.0000 C   0  0  0  0  0  0  0  0  0  0  0  0
    0.2530   -4.3848    0.0000 C   0  0  0  0  0  0  0  0  0  0  0  0
   -0.8739   -7.1617    0.0000 C   0  0  0  0  0  0  0  0  0  0  0  0
   -0.0489   -7.1617    0.0000 C   0  0  0  0  0  0  0  0  0  0  0  0
    1.6820   -4.3848    0.0000 C   0  0  0  0  0  0  0  0  0  0  0  0
   -2.6048   -5.2098    0.0000 C   0  0  0  0  0  0  0  0  0  0  0  0
    0.9675   -3.9723    0.0000 C   0  0  0  0  0  0  0  0  0  0  0  0
   -3.3193   -5.6223    0.0000 C   0  0  0  0  0  0  0  0  0  0  0  0
   -2.6048   -4.3848    0.0000 C   0  0  0  0  0  0  0  0  0  0  0  0
   -3.4017   -4.9962    0.0000 C   0  0  0  0  0  0  0  0  0  0  0  0
  1 15  1  0  0  0  0
  2  5  2  0  0  0  0
  2  6  1  6  0  0  0
  2 16  1  0  0  0  0
  3 10  1  0  0  0  0
  4 11  1  0  0  0  0
  7  6  1  1  0  0  0
  7  8  1  0  0  0  0
  7  9  1  0  0  0  0
  8 10  2  0  0  0  0
  8 12  1  0  0  0  0
  9 13  1  0  0  0  0
  9 14  1  0  0  0  0
 10 11  1  0  0  0  0
 11 15  2  0  0  0  0
 12 17  2  0  0  0  0
 13 14  1  0  0  0  0
 15 17  1  0  0  0  0
 16 18  1  0  0  0  0
 16 19  1  0  0  0  0
 16 20  1  0  0  0  0
M  END
> <PUBCHEM_COMPOUND_ID_TYPE>
0

> <PUBCHEM_TOTAL_CHARGE>
0

> <PUBCHEM_SUBSTANCE_ID>
310939097

> <PUBCHEM_SUBSTANCE_VERSION>
1

> <PUBCHEM_EXT_DATASOURCE_NAME>
4488

> <PUBCHEM_EXT_DATASOURCE_REGID>
SCHEMBL16117016

> <PUBCHEM_SUBSTANCE_COMMENT>
InChI=1S/C14H19ClFNO2S/c1-14(2,3)20(19)17-12(8-4-5-8)9-6-7-10(15)13(18)11(9)16/h6-8,12,17-18H,4-5H2,1-3H3/t12-,20-/m1/s1
InChIKey=XOWNEAOEZIKPSM-MPBGBICISA-N

> <PUBCHEM_SUBSTANCE_SYNONYM>
SCHEMBL16117016

> <PUBCHEM_XREF_EXT_ID>
SCHEMBL16117016

> <PUBCHEM_EXT_DATASOURCE_URL>
https://www.surechembl.org/

> <PUBCHEM_EXT_SUBSTANCE_URL>
https://www.surechembl.org/chemical/SCHEMBL16117016

> <PUBCHEM_CID_ASSOCIATIONS>
117606457  1

> <PUBCHEM_COORDINATE_TYPE>
1
3

> <PUBCHEM_BONDANNOTATIONS>
2  6  6
7  6  5

$$$$
