310941196
  -OEChem-07211613022D

 42 45  0     1  0  0  0  0  0999 V2000
    5.0766   -0.9141    0.0000 O   0  0  0  0  0  0  0  0  0  0  0  0
    3.9375    1.0406    0.0000 O   0  0  0  0  0  0  0  0  0  0  0  0
    1.7860   -1.0266    0.0000 O   0  0  0  0  0  0  0  0  0  0  0  0
   -0.3657    1.0406    0.0000 O   0  0  0  0  0  0  0  0  0  0  0  0
    3.9375    2.7141    0.0000 O   0  0  0  0  0  0  0  0  0  0  0  0
   -2.5172   -1.0266    0.0000 O   0  0  0  0  0  0  0  0  0  0  0  0
   -5.3860   -1.0266    0.0000 O   0  0  0  0  0  0  0  0  0  0  0  0
    2.5172    0.2250    0.0000 N   0  0  0  0  0  0  0  0  0  0  0  0
    0.3657   -0.1828    0.0000 N   0  0  0  0  0  0  0  0  0  0  0  0
   -1.8000    0.2250    0.0000 N   0  0  0  0  0  0  0  0  0  0  0  0
   -3.9516   -0.1828    0.0000 N   0  0  0  0  0  0  0  0  0  0  0  0
    4.6688   -0.1969    0.0000 C   0  0  3  0  0  0  0  0  0  0  0  0
    3.8813    0.2109    0.0000 C   0  0  0  0  0  0  0  0  0  0  0  0
    4.2610   -0.9000    0.0000 C   0  0  0  0  0  0  0  0  0  0  0  0
    3.2344   -0.1828    0.0000 C   0  0  3  0  0  0  0  0  0  0  0  0
    3.2204   -1.0406    0.0000 C   0  0  0  0  0  0  0  0  0  0  0  0
    5.3860    0.2250    0.0000 C   0  0  0  0  0  0  0  0  0  0  0  0
    1.7860   -0.1688    0.0000 C   0  0  0  0  0  0  0  0  0  0  0  0
    2.5172   -1.4344    0.0000 C   0  0  0  0  0  0  0  0  0  0  0  0
    3.9375   -1.4344    0.0000 C   0  0  0  0  0  0  0  0  0  0  0  0
    1.0687    0.2250    0.0000 C   0  0  3  0  0  0  0  0  0  0  0  0
    2.5031   -2.2641    0.0000 C   0  0  0  0  0  0  0  0  0  0  0  0
    3.9375   -2.2641    0.0000 C   0  0  0  0  0  0  0  0  0  0  0  0
    1.0828    1.0547    0.0000 C   0  0  0  0  0  0  0  0  0  0  0  0
    3.2344   -2.6860    0.0000 C   0  0  0  0  0  0  0  0  0  0  0  0
    1.7860    1.4766    0.0000 C   0  0  0  0  0  0  0  0  0  0  0  0
   -0.3797    0.2109    0.0000 C   0  0  0  0  0  0  0  0  0  0  0  0
   -1.0687   -0.1828    0.0000 C   0  0  3  0  0  0  0  0  0  0  0  0
    1.7860   -2.7141    0.0000 C   0  0  0  0  0  0  0  0  0  0  0  0
    2.5172    1.0687    0.0000 C   0  0  0  0  0  0  0  0  0  0  0  0
    1.8141    2.3063    0.0000 C   0  0  0  0  0  0  0  0  0  0  0  0
    3.2344    2.3063    0.0000 C   0  0  0  0  0  0  0  0  0  0  0  0
    3.2204    1.4766    0.0000 C   0  0  0  0  0  0  0  0  0  0  0  0
    2.5031    2.7000    0.0000 C   0  0  0  0  0  0  0  0  0  0  0  0
   -2.5172   -0.1547    0.0000 C   0  0  0  0  0  0  0  0  0  0  0  0
   -1.0828   -0.9844    0.0000 C   0  0  0  0  0  0  0  0  0  0  0  0
   -3.2344    0.2250    0.0000 C   0  0  0  0  0  0  0  0  0  0  0  0
   -3.9516   -1.0266    0.0000 C   0  0  0  0  0  0  0  0  0  0  0  0
   -4.6688    0.2250    0.0000 C   0  0  0  0  0  0  0  0  0  0  0  0
   -4.6548   -1.4344    0.0000 C   0  0  0  0  0  0  0  0  0  0  0  0
   -5.3719   -0.1828    0.0000 C   0  0  0  0  0  0  0  0  0  0  0  0
    4.6829    2.2922    0.0000 C   0  0  0  0  0  0  0  0  0  0  0  0
  1 12  1  0  0  0  0
  1 14  1  0  0  0  0
  2 13  2  0  0  0  0
  3 18  2  0  0  0  0
  4 27  2  0  0  0  0
  5 32  1  0  0  0  0
  5 42  1  0  0  0  0
  6 35  2  0  0  0  0
  7 40  1  0  0  0  0
  7 41  1  0  0  0  0
 15  8  1  1  0  0  0
  8 18  1  0  0  0  0
 21  9  1  1  0  0  0
  9 27  1  0  0  0  0
 10 28  1  0  0  0  0
 10 35  1  0  0  0  0
 11 37  1  0  0  0  0
 11 38  1  0  0  0  0
 11 39  1  0  0  0  0
 12 13  1  6  0  0  0
 12 14  1  0  0  0  0
 12 17  1  1  0  0  0
 13 15  1  0  0  0  0
 15 16  1  0  0  0  0
 16 19  1  0  0  0  0
 16 20  2  0  0  0  0
 18 21  1  0  0  0  0
 19 22  2  0  0  0  0
 20 23  1  0  0  0  0
 21 24  1  0  0  0  0
 22 25  1  0  0  0  0
 22 29  1  0  0  0  0
 23 25  2  0  0  0  0
 24 26  1  0  0  0  0
 26 30  2  0  0  0  0
 26 31  1  0  0  0  0
 27 28  1  0  0  0  0
 28 36  1  6  0  0  0
 30 33  1  0  0  0  0
 31 34  2  0  0  0  0
 32 33  2  0  0  0  0
 32 34  1  0  0  0  0
 35 37  1  0  0  0  0
 38 40  1  0  0  0  0
 39 41  1  0  0  0  0
M  END
> <PUBCHEM_COMPOUND_ID_TYPE>
0

> <PUBCHEM_TOTAL_CHARGE>
0

> <PUBCHEM_SUBSTANCE_ID>
310941196

> <PUBCHEM_SUBSTANCE_VERSION>
1

> <PUBCHEM_EXT_DATASOURCE_NAME>
4488

> <PUBCHEM_EXT_DATASOURCE_REGID>
SCHEMBL16119156

> <PUBCHEM_SUBSTANCE_COMMENT>
InChI=1S/C31H40N4O7/c1-20-6-5-7-23(16-20)27(28(37)31(3)19-42-31)34-30(39)25(17-22-8-10-24(40-4)11-9-22)33-29(38)21(2)32-26(36)18-35-12-14-41-15-13-35/h5-11,16,21,25,27H,12-15,17-19H2,1-4H3,(H,32,36)(H,33,38)(H,34,39)/t21-,25-,27+,31+/m0/s1
InChIKey=PXDZAEYGAUWVEO-FKZKFMLXSA-N

> <PUBCHEM_SUBSTANCE_SYNONYM>
SCHEMBL16119156

> <PUBCHEM_XREF_EXT_ID>
SCHEMBL16119156

> <PUBCHEM_EXT_DATASOURCE_URL>
https://www.surechembl.org/

> <PUBCHEM_EXT_SUBSTANCE_URL>
https://www.surechembl.org/chemical/SCHEMBL16119156

> <PUBCHEM_CID_ASSOCIATIONS>
117608069  1

> <PUBCHEM_COORDINATE_TYPE>
1
3

> <PUBCHEM_BONDANNOTATIONS>
12  13  6
12  17  5
28  36  6
15  8  5
21  9  5

$$$$
