310949344
  -OEChem-07211613022D

 30 34  0     1  0  0  0  0  0999 V2000
    0.8431    2.6816    0.0000 F   0  0  0  0  0  0  0  0  0  0  0  0
    1.1885    1.6252    0.0000 F   0  0  0  0  0  0  0  0  0  0  0  0
    0.1118    1.3001    0.0000 F   0  0  0  0  0  0  0  0  0  0  0  0
    2.0823   -0.7110    0.0000 F   0  0  0  0  0  0  0  0  0  0  0  0
   -1.6760   -2.5394    0.0000 O   0  0  0  0  0  0  0  0  0  0  0  0
   -0.9650   -1.3205    0.0000 N   0  0  0  0  0  0  0  0  0  0  0  0
    0.5587   -2.2753    0.0000 N   0  0  0  0  0  0  0  0  0  0  0  0
   -0.2336   -3.3317    0.0000 N   0  0  0  0  0  0  0  0  0  0  0  0
    0.5790   -3.5958    0.0000 N   0  0  0  0  0  0  0  0  0  0  0  0
   -1.3916   -0.0203    0.0000 C   0  0  3  0  0  0  0  0  0  0  0  0
   -0.5587    0.0000    0.0000 C   0  0  3  0  0  0  0  0  0  0  0  0
   -0.1930   -2.4987    0.0000 C   0  0  0  0  0  0  0  0  0  0  0  0
   -0.9446   -2.1128    0.0000 C   0  0  0  0  0  0  0  0  0  0  0  0
   -0.9853    1.1986    0.0000 C   0  0  0  0  0  0  0  0  0  0  0  0
   -0.9650    2.0315    0.0000 C   0  0  0  0  0  0  0  0  0  0  0  0
   -1.6354   -0.8532    0.0000 C   0  0  0  0  0  0  0  0  0  0  0  0
   -0.2946   -0.8329    0.0000 C   0  0  0  0  0  0  0  0  0  0  0  0
    1.0665   -2.8848    0.0000 C   0  0  0  0  0  0  0  0  0  0  0  0
   -1.6354    0.6907    0.0000 C   0  0  0  0  0  0  0  0  0  0  0  0
   -0.3149    0.6907    0.0000 C   0  0  0  0  0  0  0  0  0  0  0  0
   -0.2946    2.4175    0.0000 C   0  0  0  0  0  0  0  0  0  0  0  0
    0.9040   -1.5237    0.0000 C   0  0  0  0  0  0  0  0  0  0  0  0
    0.4571    1.9909    0.0000 C   0  0  0  0  0  0  0  0  0  0  0  0
    1.9198   -2.8238    0.0000 C   0  0  0  0  0  0  0  0  0  0  0  0
   -1.6963    2.3972    0.0000 C   0  0  0  0  0  0  0  0  0  0  0  0
    1.7370   -1.4424    0.0000 C   0  0  0  0  0  0  0  0  0  0  0  0
   -0.2540    3.1895    0.0000 C   0  0  0  0  0  0  0  0  0  0  0  0
    2.2449   -2.0925    0.0000 C   0  0  0  0  0  0  0  0  0  0  0  0
   -1.6963    3.1895    0.0000 C   0  0  0  0  0  0  0  0  0  0  0  0
   -0.9853    3.5958    0.0000 C   0  0  0  0  0  0  0  0  0  0  0  0
  1 23  1  0  0  0  0
  2 23  1  0  0  0  0
  3 23  1  0  0  0  0
  4 26  1  0  0  0  0
  5 13  2  0  0  0  0
  6 13  1  0  0  0  0
  6 16  1  0  0  0  0
  6 17  1  0  0  0  0
  7 12  1  0  0  0  0
  7 18  1  0  0  0  0
  7 22  1  0  0  0  0
  8  9  1  0  0  0  0
  8 12  2  0  0  0  0
  9 18  2  0  0  0  0
 10 11  1  0  0  0  0
 10 16  1  1  0  0  0
 10 19  1  0  0  0  0
 11 17  1  0  0  0  0
 11 20  1  0  0  0  0
 12 13  1  0  0  0  0
 14 15  1  0  0  0  0
 14 19  1  0  0  0  0
 14 20  1  0  0  0  0
 15 21  2  0  0  0  0
 15 25  1  0  0  0  0
 18 24  1  0  0  0  0
 21 23  1  0  0  0  0
 21 27  1  0  0  0  0
 22 26  2  0  0  0  0
 24 28  2  0  0  0  0
 25 29  2  0  0  0  0
 26 28  1  0  0  0  0
 27 30  2  0  0  0  0
 29 30  1  0  0  0  0
M  END
> <PUBCHEM_COMPOUND_ID_TYPE>
0

> <PUBCHEM_TOTAL_CHARGE>
0

> <PUBCHEM_SUBSTANCE_ID>
310949344

> <PUBCHEM_SUBSTANCE_VERSION>
1

> <PUBCHEM_EXT_DATASOURCE_NAME>
4488

> <PUBCHEM_EXT_DATASOURCE_REGID>
SCHEMBL16127534

> <PUBCHEM_SUBSTANCE_COMMENT>
InChI=1S/C21H18F4N4O/c22-15-5-6-18-26-27-19(29(18)11-15)20(30)28-9-13-7-12(8-14(13)10-28)16-3-1-2-4-17(16)21(23,24)25/h1-6,11-14H,7-10H2/t12?,13-,14?/m1/s1
InChIKey=ZCEIWUQKRKASFK-ROKHWSDSSA-N

> <PUBCHEM_SUBSTANCE_SYNONYM>
SCHEMBL16127534

> <PUBCHEM_XREF_EXT_ID>
SCHEMBL16127534

> <PUBCHEM_EXT_DATASOURCE_URL>
https://www.surechembl.org/

> <PUBCHEM_EXT_SUBSTANCE_URL>
https://www.surechembl.org/chemical/SCHEMBL16127534

> <PUBCHEM_CID_ASSOCIATIONS>
117614819  1

> <PUBCHEM_COORDINATE_TYPE>
1
3

> <PUBCHEM_BONDANNOTATIONS>
10  16  5

$$$$
