310943980
  -OEChem-07211613022D

 16 17  0     0  0  0  0  0  0999 V2000
   -1.0672    1.8761    0.0000 F   0  0  0  0  0  0  0  0  0  0  0  0
    0.3708   -0.6404    0.0000 N   0  0  0  0  0  0  0  0  0  0  0  0
    1.0784    1.4267    0.0000 N   0  0  0  0  0  0  0  0  0  0  0  0
   -0.3708   -0.1798    0.0000 C   0  0  0  0  0  0  0  0  0  0  0  0
   -0.3483    0.6404    0.0000 C   0  0  0  0  0  0  0  0  0  0  0  0
   -1.0784   -0.5954    0.0000 C   0  0  0  0  0  0  0  0  0  0  0  0
   -1.0672    1.0672    0.0000 C   0  0  0  0  0  0  0  0  0  0  0  0
   -1.7975   -0.1910    0.0000 C   0  0  0  0  0  0  0  0  0  0  0  0
   -1.7862    0.6516    0.0000 C   0  0  0  0  0  0  0  0  0  0  0  0
    0.3708    1.0448    0.0000 C   0  0  0  0  0  0  0  0  0  0  0  0
    0.3708   -1.4492    0.0000 C   0  0  0  0  0  0  0  0  0  0  0  0
    1.0672   -0.2134    0.0000 C   0  0  0  0  0  0  0  0  0  0  0  0
   -1.0672   -1.2020    0.0000 C   0  0  0  0  0  0  0  0  0  0  0  0
    1.0897   -1.8761    0.0000 C   0  0  0  0  0  0  0  0  0  0  0  0
    1.7975   -0.6404    0.0000 C   0  0  0  0  0  0  0  0  0  0  0  0
    1.7975   -1.4717    0.0000 C   0  0  0  0  0  0  0  0  0  0  0  0
  1  7  1  0  0  0  0
  2  4  1  0  0  0  0
  2 11  1  0  0  0  0
  2 12  1  0  0  0  0
  3 10  3  0  0  0  0
  4  5  1  0  0  0  0
  4  6  2  0  0  0  0
  5  7  2  0  0  0  0
  5 10  1  0  0  0  0
  6  8  1  0  0  0  0
  6 13  1  0  0  0  0
  7  9  1  0  0  0  0
  8  9  2  0  0  0  0
 11 14  1  0  0  0  0
 12 15  1  0  0  0  0
 14 16  1  0  0  0  0
 15 16  1  0  0  0  0
M  END
> <PUBCHEM_COMPOUND_ID_TYPE>
0

> <PUBCHEM_TOTAL_CHARGE>
0

> <PUBCHEM_SUBSTANCE_ID>
310943980

> <PUBCHEM_SUBSTANCE_VERSION>
1

> <PUBCHEM_EXT_DATASOURCE_NAME>
4488

> <PUBCHEM_EXT_DATASOURCE_REGID>
SCHEMBL16122051

> <PUBCHEM_SUBSTANCE_COMMENT>
InChI=1S/C13H15FN2/c1-10-5-6-12(14)11(9-15)13(10)16-7-3-2-4-8-16/h5-6H,2-4,7-8H2,1H3
InChIKey=KPKLDIRGEZACEA-UHFFFAOYSA-N

> <PUBCHEM_SUBSTANCE_SYNONYM>
SCHEMBL16122051

> <PUBCHEM_XREF_EXT_ID>
SCHEMBL16122051

> <PUBCHEM_EXT_DATASOURCE_URL>
https://www.surechembl.org/

> <PUBCHEM_EXT_SUBSTANCE_URL>
https://www.surechembl.org/chemical/SCHEMBL16122051

> <PUBCHEM_CID_ASSOCIATIONS>
117610286  1

> <PUBCHEM_COORDINATE_TYPE>
1
3

$$$$
