310944064
  -OEChem-07211613022D

 14 15  0     0  0  0  0  0  0999 V2000
    1.7790   -1.0641    0.0000 O   0  0  0  0  0  0  0  0  0  0  0  0
   -1.2359   -0.2993    0.0000 N   0  0  0  0  0  0  0  0  0  0  0  0
   -2.0450   -0.0997    0.0000 N   0  0  0  0  0  0  0  0  0  0  0  0
   -2.4773   -0.7981    0.0000 N   0  0  0  0  0  0  0  0  0  0  0  0
   -1.9453   -1.4298    0.0000 N   0  0  0  0  0  0  0  0  0  0  0  0
    0.3824    1.4298    0.0000 N   0  0  0  0  0  0  0  0  0  0  0  0
   -0.3491    0.2106    0.0000 C   0  0  0  0  0  0  0  0  0  0  0  0
    0.3713   -0.2106    0.0000 C   0  0  0  0  0  0  0  0  0  0  0  0
   -1.1804   -1.1195    0.0000 C   0  0  0  0  0  0  0  0  0  0  0  0
    1.0696    0.1884    0.0000 C   0  0  0  0  0  0  0  0  0  0  0  0
   -0.3269    1.0419    0.0000 C   0  0  0  0  0  0  0  0  0  0  0  0
    1.0918    1.0087    0.0000 C   0  0  0  0  0  0  0  0  0  0  0  0
    1.9342   -0.3325    0.0000 C   0  0  0  0  0  0  0  0  0  0  0  0
    2.4773   -0.6540    0.0000 C   0  0  0  0  0  0  0  0  0  0  0  0
  1 14  1  0  0  0  0
  2  3  1  0  0  0  0
  2  7  1  0  0  0  0
  2  9  1  0  0  0  0
  3  4  2  0  0  0  0
  4  5  1  0  0  0  0
  5  9  2  0  0  0  0
  6 11  2  0  0  0  0
  6 12  1  0  0  0  0
  7  8  2  0  0  0  0
  7 11  1  0  0  0  0
  8 10  1  0  0  0  0
 10 12  2  0  0  0  0
 10 13  1  0  0  0  0
 13 14  1  0  0  0  0
M  END
> <PUBCHEM_COMPOUND_ID_TYPE>
0

> <PUBCHEM_TOTAL_CHARGE>
0

> <PUBCHEM_SUBSTANCE_ID>
310944064

> <PUBCHEM_SUBSTANCE_VERSION>
1

> <PUBCHEM_EXT_DATASOURCE_NAME>
4488

> <PUBCHEM_EXT_DATASOURCE_REGID>
SCHEMBL16122139

> <PUBCHEM_SUBSTANCE_COMMENT>
InChI=1S/C8H9N5O/c14-2-1-7-3-8(5-9-4-7)13-6-10-11-12-13/h3-6,14H,1-2H2
InChIKey=AJJGGIWYURILMB-UHFFFAOYSA-N

> <PUBCHEM_SUBSTANCE_SYNONYM>
SCHEMBL16122139

> <PUBCHEM_XREF_EXT_ID>
SCHEMBL16122139

> <PUBCHEM_EXT_DATASOURCE_URL>
https://www.surechembl.org/

> <PUBCHEM_EXT_SUBSTANCE_URL>
https://www.surechembl.org/chemical/SCHEMBL16122139

> <PUBCHEM_CID_ASSOCIATIONS>
117610360  1

> <PUBCHEM_COORDINATE_TYPE>
1
3

$$$$
