310949681
  -OEChem-07211613022D

 23 24  0     0  0  0  0  0  0999 V2000
    1.4458    1.4192    0.0000 Cl  0  0  0  0  0  0  0  0  0  0  0  0
   -1.0461   -1.4192    0.0000 O   0  0  0  0  0  0  0  0  0  0  0  0
   -2.7252    1.4059    0.0000 O   0  0  0  0  0  0  0  0  0  0  0  0
   -1.4592    0.6996    0.0000 O   0  0  0  0  0  0  0  0  0  0  0  0
    3.9645    1.4192    0.0000 O   0  0  0  0  0  0  0  0  0  0  0  0
   -1.0461   -0.0067    0.0000 N   0  0  0  0  0  0  0  0  0  0  0  0
   -2.3121   -0.7129    0.0000 C   0  0  0  0  0  0  0  0  0  0  0  0
   -2.7252   -0.0067    0.0000 C   0  0  0  0  0  0  0  0  0  0  0  0
   -1.4859   -0.6996    0.0000 C   0  0  0  0  0  0  0  0  0  0  0  0
   -0.2065   -0.0067    0.0000 C   0  0  0  0  0  0  0  0  0  0  0  0
    1.0461    0.7129    0.0000 C   0  0  0  0  0  0  0  0  0  0  0  0
    1.4592    0.0200    0.0000 C   0  0  0  0  0  0  0  0  0  0  0  0
   -2.7252   -1.4192    0.0000 C   0  0  0  0  0  0  0  0  0  0  0  0
    0.2199    0.7129    0.0000 C   0  0  0  0  0  0  0  0  0  0  0  0
   -2.2987    0.6996    0.0000 C   0  0  0  0  0  0  0  0  0  0  0  0
   -3.5647   -0.0200    0.0000 C   0  0  0  0  0  0  0  0  0  0  0  0
    0.2065   -0.6863    0.0000 C   0  0  0  0  0  0  0  0  0  0  0  0
    1.0461   -0.6863    0.0000 C   0  0  0  0  0  0  0  0  0  0  0  0
   -3.5647   -1.4192    0.0000 C   0  0  0  0  0  0  0  0  0  0  0  0
   -3.9645   -0.7129    0.0000 C   0  0  0  0  0  0  0  0  0  0  0  0
    2.2987    0.0067    0.0000 C   0  0  0  0  0  0  0  0  0  0  0  0
    2.7252    0.7129    0.0000 C   0  0  0  0  0  0  0  0  0  0  0  0
    3.5381    0.7129    0.0000 C   0  0  0  0  0  0  0  0  0  0  0  0
  1 11  1  0  0  0  0
  2  9  2  0  0  0  0
  3 15  2  0  0  0  0
  4 15  1  0  0  0  0
  5 23  1  0  0  0  0
  6  9  1  0  0  0  0
  6 10  1  0  0  0  0
  7  8  1  0  0  0  0
  7  9  1  0  0  0  0
  7 13  2  0  0  0  0
  8 15  1  0  0  0  0
  8 16  2  0  0  0  0
 10 14  1  0  0  0  0
 10 17  2  0  0  0  0
 11 12  1  0  0  0  0
 11 14  2  0  0  0  0
 12 18  2  0  0  0  0
 12 21  1  0  0  0  0
 13 19  1  0  0  0  0
 16 20  1  0  0  0  0
 17 18  1  0  0  0  0
 19 20  2  0  0  0  0
 21 22  1  0  0  0  0
 22 23  1  0  0  0  0
M  END
> <PUBCHEM_COMPOUND_ID_TYPE>
0

> <PUBCHEM_TOTAL_CHARGE>
0

> <PUBCHEM_SUBSTANCE_ID>
310949681

> <PUBCHEM_SUBSTANCE_VERSION>
1

> <PUBCHEM_EXT_DATASOURCE_NAME>
4488

> <PUBCHEM_EXT_DATASOURCE_REGID>
SCHEMBL16127879

> <PUBCHEM_SUBSTANCE_COMMENT>
InChI=1S/C17H16ClNO4/c18-15-10-12(8-7-11(15)4-3-9-20)19-16(21)13-5-1-2-6-14(13)17(22)23/h1-2,5-8,10,20H,3-4,9H2,(H,19,21)(H,22,23)
InChIKey=LDYWRHWCGMMHJK-UHFFFAOYSA-N

> <PUBCHEM_SUBSTANCE_SYNONYM>
SCHEMBL16127879

> <PUBCHEM_XREF_EXT_ID>
SCHEMBL16127879

> <PUBCHEM_EXT_DATASOURCE_URL>
https://www.surechembl.org/

> <PUBCHEM_EXT_SUBSTANCE_URL>
https://www.surechembl.org/chemical/SCHEMBL16127879

> <PUBCHEM_CID_ASSOCIATIONS>
85473335  1

> <PUBCHEM_COORDINATE_TYPE>
1
3

$$$$
