310932509
  -OEChem-07211613022D

 31 34  0     1  0  0  0  0  0999 V2000
    3.9981   -2.0943    0.0000 O   0  0  0  0  0  0  0  0  0  0  0  0
    8.4405   -2.1894    0.0000 O   0  0  0  0  0  0  0  0  0  0  0  0
    8.4723   -6.3463    0.0000 O   0  0  0  0  0  0  0  0  0  0  0  0
    4.8866   -0.9519    0.0000 N   0  0  0  0  0  0  0  0  0  0  0  0
    4.8232   -0.1587    0.0000 N   0  0  0  0  0  0  0  0  0  0  0  0
    6.3145   -0.9519    0.0000 N   0  0  0  0  0  0  0  0  0  0  0  0
    7.7424   -3.4270    0.0000 N   0  0  0  0  0  0  0  0  0  0  0  0
    0.0000   -1.8087    0.0000 N   0  0  0  0  0  0  0  0  0  0  0  0
    4.1568   -1.3010    0.0000 C   0  0  0  0  0  0  0  0  0  0  0  0
    3.5856   -0.6981    0.0000 C   0  0  0  0  0  0  0  0  0  0  0  0
    5.6164   -1.3645    0.0000 C   0  0  0  0  0  0  0  0  0  0  0  0
    2.7606   -0.7933    0.0000 C   0  0  0  0  0  0  0  0  0  0  0  0
    3.9981    0.0000    0.0000 C   0  0  0  0  0  0  0  0  0  0  0  0
    5.6164   -2.1894    0.0000 C   0  0  0  0  0  0  0  0  0  0  0  0
    7.0126   -2.1894    0.0000 C   0  0  0  0  0  0  0  0  0  0  0  0
    7.0126   -1.3645    0.0000 C   0  0  0  0  0  0  0  0  0  0  0  0
    6.3145   -2.6020    0.0000 C   0  0  0  0  0  0  0  0  0  0  0  0
    2.4433   -1.5548    0.0000 C   0  0  0  0  0  0  0  0  0  0  0  0
    2.2846   -0.1269    0.0000 C   0  0  0  0  0  0  0  0  0  0  0  0
    7.7424   -2.6020    0.0000 C   0  0  0  0  0  0  0  0  0  0  0  0
    1.1423   -0.9837    0.0000 C   0  0  0  0  0  0  0  0  0  0  0  0
    1.6183   -1.6500    0.0000 C   0  0  0  0  0  0  0  0  0  0  0  0
    1.4596   -0.2221    0.0000 C   0  0  0  0  0  0  0  0  0  0  0  0
    8.4723   -3.8395    0.0000 C   0  0  3  0  0  0  0  0  0  0  0  0
    8.4723   -4.6645    0.0000 C   0  0  0  0  0  0  0  0  0  0  0  0
    0.3173   -1.0788    0.0000 C   0  0  0  0  0  0  0  0  0  0  0  0
    7.7741   -5.1087    0.0000 C   0  0  0  0  0  0  0  0  0  0  0  0
    9.1703   -5.1087    0.0000 C   0  0  0  0  0  0  0  0  0  0  0  0
    9.1703   -3.4270    0.0000 C   0  0  0  0  0  0  0  0  0  0  0  0
    7.7741   -5.9020    0.0000 C   0  0  0  0  0  0  0  0  0  0  0  0
    9.1703   -5.9020    0.0000 C   0  0  0  0  0  0  0  0  0  0  0  0
  1  9  1  0  0  0  0
  2 20  2  0  0  0  0
  3 30  1  0  0  0  0
  3 31  1  0  0  0  0
  4  5  1  0  0  0  0
  4  9  1  0  0  0  0
  4 11  1  0  0  0  0
  5 13  2  0  0  0  0
  6 11  2  0  0  0  0
  6 16  1  0  0  0  0
  7 20  1  0  0  0  0
  7 24  1  0  0  0  0
  8 26  3  0  0  0  0
  9 10  2  0  0  0  0
 10 12  1  0  0  0  0
 10 13  1  0  0  0  0
 11 14  1  0  0  0  0
 12 18  2  0  0  0  0
 12 19  1  0  0  0  0
 14 17  2  0  0  0  0
 15 16  2  0  0  0  0
 15 17  1  0  0  0  0
 15 20  1  0  0  0  0
 18 22  1  0  0  0  0
 19 23  2  0  0  0  0
 21 22  2  0  0  0  0
 21 23  1  0  0  0  0
 21 26  1  0  0  0  0
 24 25  1  0  0  0  0
 24 29  1  1  0  0  0
 25 27  1  0  0  0  0
 25 28  1  0  0  0  0
 27 30  1  0  0  0  0
 28 31  1  0  0  0  0
M  END
> <PUBCHEM_COMPOUND_ID_TYPE>
0

> <PUBCHEM_TOTAL_CHARGE>
0

> <PUBCHEM_SUBSTANCE_ID>
310932509

> <PUBCHEM_SUBSTANCE_VERSION>
1

> <PUBCHEM_EXT_DATASOURCE_NAME>
4488

> <PUBCHEM_EXT_DATASOURCE_REGID>
SCHEMBL16109882

> <PUBCHEM_SUBSTANCE_COMMENT>
InChI=1S/C23H23N5O3/c1-15(17-8-10-31-11-9-17)27-22(29)19-6-7-21(25-13-19)28-23(30)20(14-26-28)18-4-2-16(12-24)3-5-18/h2-7,13-15,17,30H,8-11H2,1H3,(H,27,29)/t15-/m0/s1
InChIKey=QFFWUGKQKHGPLF-HNNXBMFYSA-N

> <PUBCHEM_SUBSTANCE_SYNONYM>
SCHEMBL16109882

> <PUBCHEM_XREF_EXT_ID>
SCHEMBL16109882

> <PUBCHEM_EXT_DATASOURCE_URL>
https://www.surechembl.org/

> <PUBCHEM_EXT_SUBSTANCE_URL>
https://www.surechembl.org/chemical/SCHEMBL16109882

> <PUBCHEM_CID_ASSOCIATIONS>
117601044  1

> <PUBCHEM_COORDINATE_TYPE>
1
3

> <PUBCHEM_BONDANNOTATIONS>
24  29  5

$$$$
