310935413
  -OEChem-07211613022D

 25 26  0     1  0  0  0  0  0999 V2000
    0.9318   -3.8378    0.0000 S   0  0  0  0  0  0  0  0  0  0  0  0
    0.2607   -5.3451    0.0000 F   0  0  0  0  0  0  0  0  0  0  0  0
   -0.1574   -4.2559    0.0000 F   0  0  0  0  0  0  0  0  0  0  0  0
    1.3499   -4.9270    0.0000 F   0  0  0  0  0  0  0  0  0  0  0  0
   -2.0899    0.3077    0.0000 F   0  0  0  0  0  0  0  0  0  0  0  0
    1.2674   -3.0841    0.0000 O   0  0  0  0  0  0  0  0  0  0  0  0
    0.1782   -3.5022    0.0000 O   0  0  0  0  0  0  0  0  0  0  0  0
    1.6855   -4.1733    0.0000 O   0  0  0  0  0  0  0  0  0  0  0  0
    1.5999   -0.4197    0.0000 O   0  0  0  0  0  0  0  0  0  0  0  0
    0.8526    0.3930    0.0000 O   0  0  0  0  0  0  0  0  0  0  0  0
    0.3700   -1.1471    0.0000 C   0  0  3  0  0  0  0  0  0  0  0  0
    1.0374   -1.6320    0.0000 C   0  0  0  0  0  0  0  0  0  0  0  0
   -0.0350   -0.4284    0.0000 C   0  0  0  0  0  0  0  0  0  0  0  0
    0.7825   -2.4167    0.0000 C   0  0  0  0  0  0  0  0  0  0  0  0
   -0.2975   -1.6320    0.0000 C   0  0  0  0  0  0  0  0  0  0  0  0
    0.7750   -0.4284    0.0000 C   0  0  0  0  0  0  0  0  0  0  0  0
   -0.0425   -2.4167    0.0000 C   0  0  0  0  0  0  0  0  0  0  0  0
   -0.8600   -0.4197    0.0000 C   0  0  0  0  0  0  0  0  0  0  0  0
    0.5963   -4.5915    0.0000 C   0  0  0  0  0  0  0  0  0  0  0  0
    0.3849    0.2817    0.0000 C   0  0  0  0  0  0  0  0  0  0  0  0
    1.8220   -1.3771    0.0000 C   0  0  0  0  0  0  0  0  0  0  0  0
   -1.2650    0.2990    0.0000 C   0  0  0  0  0  0  0  0  0  0  0  0
   -0.0201    1.0005    0.0000 C   0  0  0  0  0  0  0  0  0  0  0  0
   -0.8450    1.0091    0.0000 C   0  0  0  0  0  0  0  0  0  0  0  0
   -1.2799   -1.1298    0.0000 C   0  0  0  0  0  0  0  0  0  0  0  0
  1  6  1  0  0  0  0
  1  7  2  0  0  0  0
  1  8  2  0  0  0  0
  1 19  1  0  0  0  0
  2 19  1  0  0  0  0
  3 19  1  0  0  0  0
  4 19  1  0  0  0  0
  5 22  1  0  0  0  0
  6 14  1  0  0  0  0
  9 16  2  0  0  0  0
 10 16  1  0  0  0  0
 11 12  1  0  0  0  0
 11 13  1  6  0  0  0
 11 15  1  0  0  0  0
 11 16  1  1  0  0  0
 12 14  2  0  0  0  0
 12 21  1  0  0  0  0
 13 18  2  0  0  0  0
 13 20  1  0  0  0  0
 14 17  1  0  0  0  0
 15 17  1  0  0  0  0
 18 22  1  0  0  0  0
 18 25  1  0  0  0  0
 20 23  2  0  0  0  0
 22 24  2  0  0  0  0
 23 24  1  0  0  0  0
M  END
> <PUBCHEM_COMPOUND_ID_TYPE>
0

> <PUBCHEM_TOTAL_CHARGE>
0

> <PUBCHEM_SUBSTANCE_ID>
310935413

> <PUBCHEM_SUBSTANCE_VERSION>
1

> <PUBCHEM_EXT_DATASOURCE_NAME>
4488

> <PUBCHEM_EXT_DATASOURCE_REGID>
SCHEMBL16112954

> <PUBCHEM_SUBSTANCE_COMMENT>
InChI=1S/C15H14F4O5S/c1-8-10(4-3-5-11(8)16)14(13(20)21)7-6-12(9(14)2)24-25(22,23)15(17,18)19/h3-5H,6-7H2,1-2H3,(H,20,21)/t14-/m1/s1
InChIKey=ZMGGSSTZHOKLRX-CQSZACIVSA-N

> <PUBCHEM_SUBSTANCE_SYNONYM>
SCHEMBL16112954

> <PUBCHEM_XREF_EXT_ID>
SCHEMBL16112954

> <PUBCHEM_EXT_DATASOURCE_URL>
https://www.surechembl.org/

> <PUBCHEM_EXT_SUBSTANCE_URL>
https://www.surechembl.org/chemical/SCHEMBL16112954

> <PUBCHEM_CID_ASSOCIATIONS>
117603458  1

> <PUBCHEM_COORDINATE_TYPE>
1
3

> <PUBCHEM_BONDANNOTATIONS>
11  13  6
11  16  5

$$$$
