310935815
  -OEChem-07211613022D

 20 21  0     0  0  0  0  0  0999 V2000
    0.0000    0.0000    0.0000 Cl  0  0  0  0  0  0  0  0  0  0  0  0
    4.9500   -2.8500    0.0000 F   0  0  0  0  0  0  0  0  0  0  0  0
    5.7750   -1.4250    0.0000 F   0  0  0  0  0  0  0  0  0  0  0  0
    2.4250   -2.8500    0.0000 O   0  0  0  0  0  0  0  0  0  0  0  0
    1.2250   -2.1500    0.0000 N   0  0  0  0  0  0  0  0  0  0  0  0
    2.4750   -1.4250    0.0000 C   0  0  0  0  0  0  0  0  0  0  0  0
    3.3000   -1.4250    0.0000 C   0  0  0  0  0  0  0  0  0  0  0  0
    2.0250   -2.1500    0.0000 C   0  0  0  0  0  0  0  0  0  0  0  0
    2.0250   -0.7250    0.0000 C   0  0  0  0  0  0  0  0  0  0  0  0
    3.7000   -2.1500    0.0000 C   0  0  0  0  0  0  0  0  0  0  0  0
    1.2250   -0.7250    0.0000 C   0  0  0  0  0  0  0  0  0  0  0  0
    4.5250   -2.1500    0.0000 C   0  0  0  0  0  0  0  0  0  0  0  0
    3.7000   -0.7250    0.0000 C   0  0  0  0  0  0  0  0  0  0  0  0
    4.9500   -1.4250    0.0000 C   0  0  0  0  0  0  0  0  0  0  0  0
    0.8000   -1.4250    0.0000 C   0  0  0  0  0  0  0  0  0  0  0  0
    4.5250   -0.7250    0.0000 C   0  0  0  0  0  0  0  0  0  0  0  0
    0.8250    0.0000    0.0000 C   0  0  0  0  0  0  0  0  0  0  0  0
    2.0250   -3.5750    0.0000 C   0  0  0  0  0  0  0  0  0  0  0  0
    2.4250   -4.2750    0.0000 C   0  0  0  0  0  0  0  0  0  0  0  0
    2.0000   -5.0000    0.0000 C   0  0  0  0  0  0  0  0  0  0  0  0
  1 17  1  0  0  0  0
  2 12  1  0  0  0  0
  3 14  1  0  0  0  0
  4  8  1  0  0  0  0
  4 18  1  0  0  0  0
  5  8  1  0  0  0  0
  5 15  2  0  0  0  0
  6  7  1  0  0  0  0
  6  8  2  0  0  0  0
  6  9  1  0  0  0  0
  7 10  1  0  0  0  0
  7 13  2  0  0  0  0
  9 11  2  0  0  0  0
 10 12  2  0  0  0  0
 11 15  1  0  0  0  0
 11 17  1  0  0  0  0
 12 14  1  0  0  0  0
 13 16  1  0  0  0  0
 14 16  2  0  0  0  0
 18 19  1  0  0  0  0
 19 20  1  0  0  0  0
M  END
> <PUBCHEM_COMPOUND_ID_TYPE>
0

> <PUBCHEM_TOTAL_CHARGE>
0

> <PUBCHEM_SUBSTANCE_ID>
310935815

> <PUBCHEM_SUBSTANCE_VERSION>
1

> <PUBCHEM_EXT_DATASOURCE_NAME>
4488

> <PUBCHEM_EXT_DATASOURCE_REGID>
SCHEMBL16113403

> <PUBCHEM_SUBSTANCE_COMMENT>
InChI=1S/C15H14ClF2NO/c1-2-5-20-15-12(6-10(8-16)9-19-15)11-3-4-13(17)14(18)7-11/h3-4,6-7,9H,2,5,8H2,1H3
InChIKey=OKJNHFUSHMJUSY-UHFFFAOYSA-N

> <PUBCHEM_SUBSTANCE_SYNONYM>
SCHEMBL16113403

> <PUBCHEM_XREF_EXT_ID>
SCHEMBL16113403

> <PUBCHEM_EXT_DATASOURCE_URL>
https://www.surechembl.org/

> <PUBCHEM_EXT_SUBSTANCE_URL>
https://www.surechembl.org/chemical/SCHEMBL16113403

> <PUBCHEM_CID_ASSOCIATIONS>
117603807  1

> <PUBCHEM_COORDINATE_TYPE>
1
3

$$$$
