310938829
  -OEChem-07211613022D

 16 15  0     0  0  0  0  0  0999 V2000
   -0.8560    2.6434    0.0000 S   0  0  0  0  0  0  0  0  0  0  0  0
   -2.9994    3.8809    0.0000 O   0  0  0  0  0  0  0  0  0  0  0  0
   -0.1415    3.8809    0.0000 O   0  0  0  0  0  0  0  0  0  0  0  0
   -2.2849    5.1184    0.0000 O   0  0  0  0  0  0  0  0  0  0  0  0
   -0.8560    5.1184    0.0000 O   0  0  0  0  0  0  0  0  0  0  0  0
   -2.2849    2.6434    0.0000 N   0  0  0  0  0  0  0  0  0  0  0  0
   -1.5704    3.8809    0.0000 C   0  0  0  0  0  0  0  0  0  0  0  0
   -1.5704    3.0559    0.0000 C   0  0  0  0  0  0  0  0  0  0  0  0
   -2.2849    4.2934    0.0000 C   0  0  0  0  0  0  0  0  0  0  0  0
   -0.8560    4.2934    0.0000 C   0  0  0  0  0  0  0  0  0  0  0  0
   -3.7139    4.2934    0.0000 C   0  0  0  0  0  0  0  0  0  0  0  0
    0.5730    4.2934    0.0000 C   0  0  0  0  0  0  0  0  0  0  0  0
   -0.1415    3.0559    0.0000 C   0  0  0  0  0  0  0  0  0  0  0  0
   -2.9994    3.0559    0.0000 C   0  0  0  0  0  0  0  0  0  0  0  0
   -4.4283    3.8809    0.0000 C   0  0  0  0  0  0  0  0  0  0  0  0
    1.2874    3.8809    0.0000 C   0  0  0  0  0  0  0  0  0  0  0  0
  1  8  1  0  0  0  0
  1 13  1  0  0  0  0
  2  9  1  0  0  0  0
  2 11  1  0  0  0  0
  3 10  1  0  0  0  0
  3 12  1  0  0  0  0
  4  9  2  0  0  0  0
  5 10  2  0  0  0  0
  6  8  1  0  0  0  0
  6 14  1  0  0  0  0
  7  8  2  0  0  0  0
  7  9  1  0  0  0  0
  7 10  1  0  0  0  0
 11 15  1  0  0  0  0
 12 16  1  0  0  0  0
M  END
> <PUBCHEM_COMPOUND_ID_TYPE>
0

> <PUBCHEM_TOTAL_CHARGE>
0

> <PUBCHEM_SUBSTANCE_ID>
310938829

> <PUBCHEM_SUBSTANCE_VERSION>
1

> <PUBCHEM_EXT_DATASOURCE_NAME>
4488

> <PUBCHEM_EXT_DATASOURCE_REGID>
SCHEMBL16116748

> <PUBCHEM_SUBSTANCE_COMMENT>
InChI=1S/C10H17NO4S/c1-5-14-9(12)7(8(11-3)16-4)10(13)15-6-2/h11H,5-6H2,1-4H3
InChIKey=ILJCWPFKSXZUBV-UHFFFAOYSA-N

> <PUBCHEM_SUBSTANCE_SYNONYM>
SCHEMBL16116748

> <PUBCHEM_XREF_EXT_ID>
SCHEMBL16116748

> <PUBCHEM_EXT_DATASOURCE_URL>
https://www.surechembl.org/

> <PUBCHEM_EXT_SUBSTANCE_URL>
https://www.surechembl.org/chemical/SCHEMBL16116748

> <PUBCHEM_CID_ASSOCIATIONS>
117606231  1

> <PUBCHEM_COORDINATE_TYPE>
1
3

$$$$
