310929810
  -OEChem-07211613022D

 52 52  0     0  0  0  0  0  0999 V2000
   16.4794  -23.6123    0.0000 O   0  0  0  0  0  0  0  0  0  0  0  0
   19.3080  -23.6123    0.0000 O   0  0  0  0  0  0  0  0  0  0  0  0
   14.3887  -21.2756    0.0000 O   0  0  0  0  0  0  0  0  0  0  0  0
   12.1751  -20.9067    0.0000 O   0  0  0  0  0  0  0  0  0  0  0  0
   11.4372  -18.8160    0.0000 O   0  0  0  0  0  0  0  0  0  0  0  0
   10.0844  -17.2173    0.0000 O   0  0  0  0  0  0  0  0  0  0  0  0
    7.1329  -11.4372    0.0000 O   0  0  0  0  0  0  0  0  0  0  0  0
    7.8708  -13.5278    0.0000 O   0  0  0  0  0  0  0  0  0  0  0  0
    9.3465  -15.1266    0.0000 O   0  0  0  0  0  0  0  0  0  0  0  0
    5.7800   -9.8385    0.0000 O   0  0  0  0  0  0  0  0  0  0  0  0
    5.0422   -7.7478    0.0000 O   0  0  0  0  0  0  0  0  0  0  0  0
    3.5664   -6.1490    0.0000 O   0  0  0  0  0  0  0  0  0  0  0  0
    2.9515   -4.0583    0.0000 O   0  0  0  0  0  0  0  0  0  0  0  0
    1.4757   -2.4596    0.0000 O   0  0  0  0  0  0  0  0  0  0  0  0
    0.7379   -0.3690    0.0000 O   0  0  0  0  0  0  0  0  0  0  0  0
   17.9551  -23.3663    0.0000 N   0  0  0  0  0  0  0  0  0  0  0  0
   13.6508  -22.5054    0.0000 N   0  0  0  0  0  0  0  0  0  0  0  0
    0.0000    0.0000    0.0000 N   0  0  0  0  0  0  0  0  0  0  0  0
   18.5700  -23.8582    0.0000 C   0  0  0  0  0  0  0  0  0  0  0  0
   17.2173  -23.8582    0.0000 C   0  0  0  0  0  0  0  0  0  0  0  0
   18.3241  -24.5961    0.0000 C   0  0  0  0  0  0  0  0  0  0  0  0
   17.4632  -24.5961    0.0000 C   0  0  0  0  0  0  0  0  0  0  0  0
   17.9551  -22.5054    0.0000 C   0  0  0  0  0  0  0  0  0  0  0  0
   17.2173  -22.1365    0.0000 C   0  0  0  0  0  0  0  0  0  0  0  0
   16.4794  -22.5054    0.0000 C   0  0  0  0  0  0  0  0  0  0  0  0
   15.7415  -22.1365    0.0000 C   0  0  0  0  0  0  0  0  0  0  0  0
   15.0036  -22.5054    0.0000 C   0  0  0  0  0  0  0  0  0  0  0  0
   14.3887  -22.1365    0.0000 C   0  0  0  0  0  0  0  0  0  0  0  0
   12.9129  -22.1365    0.0000 C   0  0  0  0  0  0  0  0  0  0  0  0
   12.9129  -21.2756    0.0000 C   0  0  0  0  0  0  0  0  0  0  0  0
   12.1751  -20.0458    0.0000 C   0  0  0  0  0  0  0  0  0  0  0  0
   11.4372  -19.6768    0.0000 C   0  0  0  0  0  0  0  0  0  0  0  0
   10.8223  -18.4471    0.0000 C   0  0  0  0  0  0  0  0  0  0  0  0
   10.8223  -17.5862    0.0000 C   0  0  0  0  0  0  0  0  0  0  0  0
   10.0844  -16.3564    0.0000 C   0  0  0  0  0  0  0  0  0  0  0  0
    9.3465  -15.9875    0.0000 C   0  0  0  0  0  0  0  0  0  0  0  0
    7.2559  -12.2981    0.0000 C   0  0  0  0  0  0  0  0  0  0  0  0
    6.5180  -11.0682    0.0000 C   0  0  0  0  0  0  0  0  0  0  0  0
    7.8708  -12.6670    0.0000 C   0  0  0  0  0  0  0  0  0  0  0  0
    6.5180  -10.2074    0.0000 C   0  0  0  0  0  0  0  0  0  0  0  0
    8.6086  -13.8968    0.0000 C   0  0  0  0  0  0  0  0  0  0  0  0
    8.6086  -14.7577    0.0000 C   0  0  0  0  0  0  0  0  0  0  0  0
    5.7800   -8.9776    0.0000 C   0  0  0  0  0  0  0  0  0  0  0  0
    5.0422   -8.6086    0.0000 C   0  0  0  0  0  0  0  0  0  0  0  0
    4.3043   -7.3788    0.0000 C   0  0  0  0  0  0  0  0  0  0  0  0
    4.3043   -6.5180    0.0000 C   0  0  0  0  0  0  0  0  0  0  0  0
    3.5664   -5.2882    0.0000 C   0  0  0  0  0  0  0  0  0  0  0  0
    2.9515   -4.9192    0.0000 C   0  0  0  0  0  0  0  0  0  0  0  0
    2.2136   -3.6894    0.0000 C   0  0  0  0  0  0  0  0  0  0  0  0
    2.2136   -2.8286    0.0000 C   0  0  0  0  0  0  0  0  0  0  0  0
    1.4757   -1.5987    0.0000 C   0  0  0  0  0  0  0  0  0  0  0  0
    0.7379   -1.2298    0.0000 C   0  0  0  0  0  0  0  0  0  0  0  0
  1 20  2  0  0  0  0
  2 19  2  0  0  0  0
  3 28  2  0  0  0  0
  4 30  1  0  0  0  0
  4 31  1  0  0  0  0
  5 32  1  0  0  0  0
  5 33  1  0  0  0  0
  6 34  1  0  0  0  0
  6 35  1  0  0  0  0
  7 37  1  0  0  0  0
  7 38  1  0  0  0  0
  8 39  1  0  0  0  0
  8 41  1  0  0  0  0
  9 36  1  0  0  0  0
  9 42  1  0  0  0  0
 10 40  1  0  0  0  0
 10 43  1  0  0  0  0
 11 44  1  0  0  0  0
 11 45  1  0  0  0  0
 12 46  1  0  0  0  0
 12 47  1  0  0  0  0
 13 48  1  0  0  0  0
 13 49  1  0  0  0  0
 14 50  1  0  0  0  0
 14 51  1  0  0  0  0
 15 18  1  0  0  0  0
 15 52  1  0  0  0  0
 16 19  1  0  0  0  0
 16 20  1  0  0  0  0
 16 23  1  0  0  0  0
 17 28  1  0  0  0  0
 17 29  1  0  0  0  0
 19 21  1  0  0  0  0
 20 22  1  0  0  0  0
 21 22  2  0  0  0  0
 23 24  1  0  0  0  0
 24 25  1  0  0  0  0
 25 26  1  0  0  0  0
 26 27  1  0  0  0  0
 27 28  1  0  0  0  0
 29 30  1  0  0  0  0
 31 32  1  0  0  0  0
 33 34  1  0  0  0  0
 35 36  1  0  0  0  0
 37 39  1  0  0  0  0
 38 40  1  0  0  0  0
 41 42  1  0  0  0  0
 43 44  1  0  0  0  0
 45 46  1  0  0  0  0
 47 48  1  0  0  0  0
 49 50  1  0  0  0  0
 51 52  1  0  0  0  0
M  END
> <PUBCHEM_COMPOUND_ID_TYPE>
0

> <PUBCHEM_TOTAL_CHARGE>
0

> <PUBCHEM_SUBSTANCE_ID>
310929810

> <PUBCHEM_SUBSTANCE_VERSION>
1

> <PUBCHEM_EXT_DATASOURCE_NAME>
4488

> <PUBCHEM_EXT_DATASOURCE_REGID>
SCHEMBL16107013

> <PUBCHEM_SUBSTANCE_COMMENT>
InChI=1S/C34H63N3O15/c35-52-31-30-51-29-28-50-27-26-49-25-24-48-23-22-47-21-20-46-19-18-45-17-16-44-15-14-43-13-12-42-11-10-41-9-7-36-32(38)4-2-1-3-8-37-33(39)5-6-34(37)40/h5-6H,1-4,7-31,35H2,(H,36,38)
InChIKey=ZPYNUCPOAVWXLU-UHFFFAOYSA-N

> <PUBCHEM_SUBSTANCE_SYNONYM>
SCHEMBL16107013

> <PUBCHEM_XREF_EXT_ID>
SCHEMBL16107013

> <PUBCHEM_EXT_DATASOURCE_URL>
https://www.surechembl.org/

> <PUBCHEM_EXT_SUBSTANCE_URL>
https://www.surechembl.org/chemical/SCHEMBL16107013

> <PUBCHEM_CID_ASSOCIATIONS>
117599087  1

> <PUBCHEM_COORDINATE_TYPE>
1
3

$$$$
