310929794
  -OEChem-07211613022D

 55 61  0     1  0  0  0  0  0999 V2000
    1.5680   -1.3835    0.0000 S   0  0  0  0  0  0  0  0  0  0  0  0
    2.9515   -0.5534    0.0000 O   0  0  0  0  0  0  0  0  0  0  0  0
    4.9806   -2.7670    0.0000 O   0  0  0  0  0  0  0  0  0  0  0  0
    6.0875   -5.1651    0.0000 O   0  0  0  0  0  0  0  0  0  0  0  0
    1.9369   -0.6456    0.0000 O   0  0  0  0  0  0  0  0  0  0  0  0
    1.1529   -2.0752    0.0000 O   0  0  0  0  0  0  0  0  0  0  0  0
    2.0291   -3.6433    0.0000 O   0  0  0  0  0  0  0  0  0  0  0  0
    7.0559   -8.0244    0.0000 O   0  0  0  0  0  0  0  0  0  0  0  0
    1.5219   -7.1943    0.0000 O   0  0  0  0  0  0  0  0  0  0  0  0
    0.5995   -6.3180    0.0000 O   0  0  0  0  0  0  0  0  0  0  0  0
    3.5971   -2.5825    0.0000 N   0  0  0  0  0  0  0  0  0  0  0  0
    2.2598   -1.7986    0.0000 N   0  0  0  0  0  0  0  0  0  0  0  0
    3.2743   -3.9199    0.0000 N   0  0  0  0  0  0  0  0  0  0  0  0
    7.0559   -5.5340    0.0000 N   0  0  0  0  0  0  0  0  0  0  0  0
    1.5219   -5.5340    0.0000 N   0  0  0  0  0  0  0  0  0  0  0  0
    3.6894   -1.7986    0.0000 C   0  0  3  0  0  0  0  0  0  0  0  0
    3.9199   -0.9685    0.0000 C   0  0  3  0  0  0  0  0  0  0  0  0
    4.4733   -1.5680    0.0000 C   0  0  0  0  0  0  0  0  0  0  0  0
    2.9515   -1.3835    0.0000 C   0  0  0  0  0  0  0  0  0  0  0  0
    4.2428   -3.0898    0.0000 C   0  0  0  0  0  0  0  0  0  0  0  0
    4.1506   -3.9199    0.0000 C   0  0  3  0  0  0  0  0  0  0  0  0
    3.6894   -0.1844    0.0000 C   0  0  0  0  0  0  0  0  0  0  0  0
    0.8301   -0.9685    0.0000 C   0  0  0  0  0  0  0  0  0  0  0  0
    4.9345   -4.1044    0.0000 C   0  0  0  0  0  0  0  0  0  0  0  0
    5.5802   -4.4733    0.0000 C   0  0  3  0  0  0  0  0  0  0  0  0
    2.4903   -4.2889    0.0000 C   0  0  0  0  0  0  0  0  0  0  0  0
    4.6117   -3.5049    0.0000 C   0  0  0  0  0  0  0  0  0  0  0  0
    1.8908   -4.8884    0.0000 C   0  0  3  0  0  0  0  0  0  0  0  0
    0.0000   -0.9685    0.0000 C   0  0  0  0  0  0  0  0  0  0  0  0
    0.4151   -0.2306    0.0000 C   0  0  0  0  0  0  0  0  0  0  0  0
    6.3641   -5.9491    0.0000 C   0  0  0  0  0  0  0  0  0  0  0  0
    2.8593    0.0000    0.0000 C   0  0  0  0  0  0  0  0  0  0  0  0
    6.3641   -6.8253    0.0000 C   0  0  0  0  0  0  0  0  0  0  0  0
    1.2452   -4.3811    0.0000 C   0  0  0  0  0  0  0  0  0  0  0  0
    7.0559   -7.1943    0.0000 C   0  0  0  0  0  0  0  0  0  0  0  0
    7.7477   -6.8253    0.0000 C   0  0  0  0  0  0  0  0  0  0  0  0
    7.7477   -5.9491    0.0000 C   0  0  0  0  0  0  0  0  0  0  0  0
    6.0875   -7.5632    0.0000 C   0  0  0  0  0  0  0  0  0  0  0  0
    1.4296   -6.3180    0.0000 C   0  0  0  0  0  0  0  0  0  0  0  0
    8.4856   -7.1943    0.0000 C   0  0  0  0  0  0  0  0  0  0  0  0
    8.4856   -5.5340    0.0000 C   0  0  0  0  0  0  0  0  0  0  0  0
    1.7525   -3.6894    0.0000 C   0  0  0  0  0  0  0  0  0  0  0  0
    0.5995   -3.8738    0.0000 C   0  0  0  0  0  0  0  0  0  0  0  0
    0.7840   -5.0267    0.0000 C   0  0  0  0  0  0  0  0  0  0  0  0
    9.1773   -6.8253    0.0000 C   0  0  0  0  0  0  0  0  0  0  0  0
    9.1773   -5.9491    0.0000 C   0  0  0  0  0  0  0  0  0  0  0  0
    5.5802   -8.1627    0.0000 C   0  0  0  0  0  0  0  0  0  0  0  0
    1.8908   -7.8860    0.0000 C   0  0  3  0  0  0  0  0  0  0  0  0
    2.4903   -8.4394    0.0000 C   0  0  3  0  0  0  0  0  0  0  0  0
    4.7962   -8.3933    0.0000 C   0  0  0  0  0  0  0  0  0  0  0  0
    1.2452   -8.2549    0.0000 C   0  0  0  0  0  0  0  0  0  0  0  0
    2.2136   -9.2234    0.0000 C   0  0  0  0  0  0  0  0  0  0  0  0
    3.2743   -8.7622    0.0000 C   0  0  0  0  0  0  0  0  0  0  0  0
    1.3374   -9.1312    0.0000 C   0  0  0  0  0  0  0  0  0  0  0  0
    4.1506   -8.8544    0.0000 C   0  0  0  0  0  0  0  0  0  0  0  0
  1  5  2  0  0  0  0
  1  6  2  0  0  0  0
  1 12  1  0  0  0  0
  1 23  1  0  0  0  0
  2 19  2  0  0  0  0
  3 20  2  0  0  0  0
  4 25  1  0  0  0  0
  4 31  1  0  0  0  0
  7 26  2  0  0  0  0
  8 35  1  0  0  0  0
  9 39  1  0  0  0  0
  9 48  1  0  0  0  0
 10 39  2  0  0  0  0
 16 11  1  1  0  0  0
 11 20  1  0  0  0  0
 12 19  1  0  0  0  0
 13 21  1  0  0  0  0
 13 26  1  0  0  0  0
 13 27  1  0  0  0  0
 14 31  1  0  0  0  0
 14 37  2  0  0  0  0
 15 28  1  0  0  0  0
 15 39  1  0  0  0  0
 16 17  1  0  0  0  0
 16 18  1  0  0  0  0
 16 19  1  6  0  0  0
 17 18  1  0  0  0  0
 17 22  1  6  0  0  0
 21 20  1  6  0  0  0
 21 24  1  0  0  0  0
 22 32  2  0  0  0  0
 23 29  1  0  0  0  0
 23 30  1  0  0  0  0
 25 24  1  1  0  0  0
 25 27  1  0  0  0  0
 26 28  1  0  0  0  0
 28 34  1  1  0  0  0
 29 30  1  0  0  0  0
 31 33  2  0  0  0  0
 33 35  1  0  0  0  0
 33 38  1  0  0  0  0
 34 42  1  0  0  0  0
 34 43  1  0  0  0  0
 34 44  1  0  0  0  0
 35 36  2  0  0  0  0
 36 37  1  0  0  0  0
 36 40  1  0  0  0  0
 37 41  1  0  0  0  0
 38 47  1  0  0  0  0
 40 45  2  0  0  0  0
 41 46  2  0  0  0  0
 45 46  1  0  0  0  0
 47 50  2  0  0  0  0
 48 49  1  0  0  0  0
 48 51  1  1  0  0  0
 49 52  1  6  0  0  0
 49 53  1  0  0  0  0
 50 55  1  0  0  0  0
 51 54  1  0  0  0  0
 52 54  1  0  0  0  0
 53 55  1  0  0  0  0
M  END
> <PUBCHEM_COMPOUND_ID_TYPE>
0

> <PUBCHEM_TOTAL_CHARGE>
0

> <PUBCHEM_SUBSTANCE_ID>
310929794

> <PUBCHEM_SUBSTANCE_VERSION>
1

> <PUBCHEM_EXT_DATASOURCE_NAME>
4488

> <PUBCHEM_EXT_DATASOURCE_REGID>
SCHEMBL16106996

> <PUBCHEM_SUBSTANCE_COMMENT>
InChI=1S/C40H51N5O9S/c1-5-24-21-40(24,37(49)44-55(51,52)26-18-19-26)43-34(47)30-20-25-22-45(30)36(48)33(39(2,3)4)42-38(50)54-31-17-11-13-23(31)12-7-6-8-15-28-32(46)27-14-9-10-16-29(27)41-35(28)53-25/h5-6,8-10,14,16,23-26,30-31,33H,1,7,11-13,15,17-22H2,2-4H3,(H,41,46)(H,42,50)(H,43,47)(H,44,49)/b8-6+/t23-,24-,25-,30+,31-,33-,40-/m1/s1
InChIKey=RIKZAOVSOLQTRV-FGGGDVCLSA-N

> <PUBCHEM_SUBSTANCE_SYNONYM>
SCHEMBL16106996

> <PUBCHEM_XREF_EXT_ID>
SCHEMBL16106996

> <PUBCHEM_EXT_DATASOURCE_URL>
https://www.surechembl.org/

> <PUBCHEM_EXT_SUBSTANCE_URL>
https://www.surechembl.org/chemical/SCHEMBL16106996

> <PUBCHEM_CID_ASSOCIATIONS>
117599077  1

> <PUBCHEM_COORDINATE_TYPE>
1
3

> <PUBCHEM_BONDANNOTATIONS>
16  11  5
16  19  6
17  22  6
21  20  6
25  24  5
28  34  5
48  51  5
49  52  6

$$$$
