310945520
  -OEChem-07211613022D

 24 27  0     0  0  0  0  0  0999 V2000
    2.8227    2.7858    0.0000 I   0  0  0  0  0  0  0  0  0  0  0  0
   -2.2330    1.3560    0.0000 O   0  0  0  0  0  0  0  0  0  0  0  0
    0.5969    0.6043    0.0000 N   0  0  0  0  0  0  0  0  0  0  0  0
    2.6310    1.5329    0.0000 N   0  0  0  0  0  0  0  0  0  0  0  0
   -0.1695   -1.5034    0.0000 N   0  0  0  0  0  0  0  0  0  0  0  0
    0.5085   -1.9898    0.0000 N   0  0  0  0  0  0  0  0  0  0  0  0
   -0.5822   -2.7858    0.0000 N   0  0  0  0  0  0  0  0  0  0  0  0
    1.2602    1.1055    0.0000 C   0  0  0  0  0  0  0  0  0  0  0  0
    1.0097    1.8572    0.0000 C   0  0  0  0  0  0  0  0  0  0  0  0
    0.1842    1.8867    0.0000 C   0  0  0  0  0  0  0  0  0  0  0  0
   -0.0811    1.1055    0.0000 C   0  0  0  0  0  0  0  0  0  0  0  0
    2.0857    0.9139    0.0000 C   0  0  0  0  0  0  0  0  0  0  0  0
    1.5698    2.4910    0.0000 C   0  0  0  0  0  0  0  0  0  0  0  0
   -0.8770    0.9286    0.0000 C   0  0  0  0  0  0  0  0  0  0  0  0
   -0.3611    2.4762    0.0000 C   0  0  0  0  0  0  0  0  0  0  0  0
    0.5822   -0.2653    0.0000 C   0  0  0  0  0  0  0  0  0  0  0  0
    2.3805    2.3289    0.0000 C   0  0  0  0  0  0  0  0  0  0  0  0
   -1.4224    1.5476    0.0000 C   0  0  0  0  0  0  0  0  0  0  0  0
   -1.1571    2.3141    0.0000 C   0  0  0  0  0  0  0  0  0  0  0  0
   -0.1400   -0.6633    0.0000 C   0  0  0  0  0  0  0  0  0  0  0  0
    2.3952    0.0295    0.0000 C   0  0  0  0  0  0  0  0  0  0  0  0
   -0.8328   -1.9898    0.0000 C   0  0  0  0  0  0  0  0  0  0  0  0
    0.2580   -2.7711    0.0000 C   0  0  0  0  0  0  0  0  0  0  0  0
   -2.8227    1.9456    0.0000 C   0  0  0  0  0  0  0  0  0  0  0  0
  1 17  1  0  0  0  0
  2 18  1  0  0  0  0
  2 24  1  0  0  0  0
  3  8  1  0  0  0  0
  3 11  1  0  0  0  0
  3 16  1  0  0  0  0
  4 12  2  0  0  0  0
  4 17  1  0  0  0  0
  5  6  1  0  0  0  0
  5 20  1  0  0  0  0
  5 22  1  0  0  0  0
  6 23  2  0  0  0  0
  7 22  2  0  0  0  0
  7 23  1  0  0  0  0
  8  9  2  0  0  0  0
  8 12  1  0  0  0  0
  9 10  1  0  0  0  0
  9 13  1  0  0  0  0
 10 11  2  0  0  0  0
 10 15  1  0  0  0  0
 11 14  1  0  0  0  0
 12 21  1  0  0  0  0
 13 17  2  0  0  0  0
 14 18  2  0  0  0  0
 15 19  2  0  0  0  0
 16 20  1  0  0  0  0
 18 19  1  0  0  0  0
M  END
> <PUBCHEM_COMPOUND_ID_TYPE>
0

> <PUBCHEM_TOTAL_CHARGE>
0

> <PUBCHEM_SUBSTANCE_ID>
310945520

> <PUBCHEM_SUBSTANCE_VERSION>
1

> <PUBCHEM_EXT_DATASOURCE_NAME>
4488

> <PUBCHEM_EXT_DATASOURCE_REGID>
SCHEMBL16123618

> <PUBCHEM_SUBSTANCE_COMMENT>
InChI=1S/C17H16IN5O/c1-11-17-14(8-16(18)21-11)13-4-3-12(24-2)7-15(13)23(17)6-5-22-10-19-9-20-22/h3-4,7-10H,5-6H2,1-2H3
InChIKey=IARPVPHABOOWKB-UHFFFAOYSA-N

> <PUBCHEM_SUBSTANCE_SYNONYM>
SCHEMBL16123618

> <PUBCHEM_XREF_EXT_ID>
SCHEMBL16123618

> <PUBCHEM_EXT_DATASOURCE_URL>
https://www.surechembl.org/

> <PUBCHEM_EXT_SUBSTANCE_URL>
https://www.surechembl.org/chemical/SCHEMBL16123618

> <PUBCHEM_CID_ASSOCIATIONS>
117611561  1

> <PUBCHEM_COORDINATE_TYPE>
1
3

$$$$
