310947032
  -OEChem-07211613022D

 38 43  0     1  0  0  0  0  0999 V2000
    1.6356   -2.1577    0.0000 S   0  0  0  0  0  0  0  0  0  0  0  0
   -3.1135    1.0345    0.0000 F   0  0  0  0  0  0  0  0  0  0  0  0
    2.4040   -2.4927    0.0000 O   0  0  0  0  0  0  0  0  0  0  0  0
    1.7143   -2.9853    0.0000 O   0  0  0  0  0  0  0  0  0  0  0  0
   -2.0297    2.9853    0.0000 O   0  0  0  0  0  0  0  0  0  0  0  0
   -3.4681   -1.8228    0.0000 O   0  0  0  0  0  0  0  0  0  0  0  0
   -1.9311    0.5222    0.0000 N   0  0  0  0  0  0  0  0  0  0  0  0
   -1.4385   -0.1478    0.0000 N   0  0  0  0  0  0  0  0  0  0  0  0
    1.8917   -1.3498    0.0000 N   0  0  3  0  0  0  0  0  0  0  0  0
   -1.6750   -1.6257    0.0000 N   0  0  0  0  0  0  0  0  0  0  0  0
   -4.1972   -0.5616    0.0000 N   0  0  0  0  0  0  0  0  0  0  0  0
    4.1972   -0.6010    0.0000 N   0  0  0  0  0  0  0  0  0  0  0  0
    0.5321    1.0542    0.0000 N   0  0  0  0  0  0  0  0  0  0  0  0
   -1.6750    1.3301    0.0000 C   0  0  3  0  0  0  0  0  0  0  0  0
   -2.7390    0.2660    0.0000 C   0  0  0  0  0  0  0  0  0  0  0  0
   -2.7587   -0.5616    0.0000 C   0  0  0  0  0  0  0  0  0  0  0  0
   -1.9508   -0.8375    0.0000 C   0  0  0  0  0  0  0  0  0  0  0  0
    0.7685   -2.1577    0.0000 C   0  0  0  0  0  0  0  0  0  0  0  0
    0.5321   -1.3695    0.0000 C   0  0  0  0  0  0  0  0  0  0  0  0
   -2.4829    1.5863    0.0000 C   0  0  3  0  0  0  0  0  0  0  0  0
   -3.4484   -0.9557    0.0000 C   0  0  0  0  0  0  0  0  0  0  0  0
    1.2021   -0.8572    0.0000 C   0  0  0  0  0  0  0  0  0  0  0  0
   -0.8670   -1.8228    0.0000 C   0  0  0  0  0  0  0  0  0  0  0  0
   -1.0641    1.8819    0.0000 C   0  0  0  0  0  0  0  0  0  0  0  0
   -3.4879    0.6798    0.0000 C   0  0  0  0  0  0  0  0  0  0  0  0
   -0.2955   -1.1922    0.0000 C   0  0  0  0  0  0  0  0  0  0  0  0
   -1.0838    0.6995    0.0000 C   0  0  0  0  0  0  0  0  0  0  0  0
    2.6800   -1.0936    0.0000 C   0  0  0  0  0  0  0  0  0  0  0  0
    0.2168   -2.7686    0.0000 C   0  0  0  0  0  0  0  0  0  0  0  0
   -0.5715   -2.5912    0.0000 C   0  0  0  0  0  0  0  0  0  0  0  0
   -2.6405    2.3745    0.0000 C   0  0  0  0  0  0  0  0  0  0  0  0
   -4.1972    0.2857    0.0000 C   0  0  0  0  0  0  0  0  0  0  0  0
   -1.2217    2.6898    0.0000 C   0  0  0  0  0  0  0  0  0  0  0  0
    3.3105   -1.6257    0.0000 C   0  0  0  0  0  0  0  0  0  0  0  0
    2.8770   -0.3252    0.0000 C   0  0  0  0  0  0  0  0  0  0  0  0
   -0.3153    0.8769    0.0000 C   0  0  0  0  0  0  0  0  0  0  0  0
    3.6061   -0.0886    0.0000 C   0  0  0  0  0  0  0  0  0  0  0  0
    4.0199   -1.3893    0.0000 C   0  0  0  0  0  0  0  0  0  0  0  0
  1  3  2  0  0  0  0
  1  4  2  0  0  0  0
  1  9  1  0  0  0  0
  1 18  1  0  0  0  0
 20  2  1  6  0  0  0
  5 31  1  0  0  0  0
  5 33  1  0  0  0  0
  6 21  2  0  0  0  0
  7  8  1  0  0  0  0
  7 14  1  0  0  0  0
  7 15  1  0  0  0  0
  8 17  2  0  0  0  0
  9 22  1  0  0  0  0
  9 28  1  0  0  0  0
 10 17  1  0  0  0  0
 10 23  1  0  0  0  0
 11 21  1  0  0  0  0
 11 32  1  0  0  0  0
 12 37  1  0  0  0  0
 12 38  1  0  0  0  0
 13 36  3  0  0  0  0
 14 20  1  0  0  0  0
 14 24  1  0  0  0  0
 14 27  1  1  0  0  0
 15 16  2  0  0  0  0
 15 25  1  0  0  0  0
 16 17  1  0  0  0  0
 16 21  1  0  0  0  0
 18 19  1  0  0  0  0
 18 29  2  0  0  0  0
 19 22  1  0  0  0  0
 19 26  2  0  0  0  0
 20 31  1  0  0  0  0
 23 26  1  0  0  0  0
 23 30  2  0  0  0  0
 24 33  1  0  0  0  0
 25 32  2  0  0  0  0
 27 36  1  0  0  0  0
 28 34  1  0  0  0  0
 28 35  1  0  0  0  0
 29 30  1  0  0  0  0
 34 38  1  0  0  0  0
 35 37  1  0  0  0  0
M  END
> <PUBCHEM_COMPOUND_ID_TYPE>
0

> <PUBCHEM_TOTAL_CHARGE>
0

> <PUBCHEM_SUBSTANCE_ID>
310947032

> <PUBCHEM_SUBSTANCE_VERSION>
1

> <PUBCHEM_EXT_DATASOURCE_NAME>
4488

> <PUBCHEM_EXT_DATASOURCE_REGID>
SCHEMBL16125185

> <PUBCHEM_SUBSTANCE_COMMENT>
InChI=1S/C25H28FN7O4S/c26-21-15-37-12-7-25(21,6-8-27)33-19-5-11-29-24(34)22(19)23(31-33)30-17-1-2-20-16(13-17)14-32(38(20,35)36)18-3-9-28-10-4-18/h1-2,5,11,13,18,21,28H,3-4,6-7,9-10,12,14-15H2,(H,29,34)(H,30,31)/t21-,25+/m1/s1
InChIKey=MONOVCADVPANKP-BWKNWUBXSA-N

> <PUBCHEM_SUBSTANCE_SYNONYM>
SCHEMBL16125185

> <PUBCHEM_XREF_EXT_ID>
SCHEMBL16125185

> <PUBCHEM_EXT_DATASOURCE_URL>
https://www.surechembl.org/

> <PUBCHEM_EXT_SUBSTANCE_URL>
https://www.surechembl.org/chemical/SCHEMBL16125185

> <PUBCHEM_CID_ASSOCIATIONS>
117612883  1

> <PUBCHEM_COORDINATE_TYPE>
1
3

> <PUBCHEM_BONDANNOTATIONS>
14  27  5
20  2  6

$$$$
