310944506
  -OEChem-07211613022D

 16 16  0     0  0  0  0  0  0999 V2000
   -2.6172    0.8307    0.0000 Br  0  0  0  0  0  0  0  0  0  0  0  0
   -2.5924   -0.8307    0.0000 Cl  0  0  0  0  0  0  0  0  0  0  0  0
    0.4560   -1.6678    0.0000 O   0  0  0  0  0  0  0  0  0  0  0  0
    1.8927    1.6678    0.0000 O   0  0  0  0  0  0  0  0  0  0  0  0
    2.6172    0.4186    0.0000 O   0  0  0  0  0  0  0  0  0  0  0  0
    0.4686    0.8307    0.0000 N   0  0  0  0  0  0  0  0  0  0  0  0
    1.3180   -0.4186    0.0000 N   0  0  0  0  0  0  0  0  0  0  0  0
   -0.2686   -0.4061    0.0000 C   0  0  0  0  0  0  0  0  0  0  0  0
   -0.2562    0.4311    0.0000 C   0  0  0  0  0  0  0  0  0  0  0  0
   -1.7053   -0.4061    0.0000 C   0  0  0  0  0  0  0  0  0  0  0  0
   -1.6803    0.4186    0.0000 C   0  0  0  0  0  0  0  0  0  0  0  0
   -0.9807   -0.8183    0.0000 C   0  0  0  0  0  0  0  0  0  0  0  0
   -0.9682    0.8307    0.0000 C   0  0  0  0  0  0  0  0  0  0  0  0
    0.4686   -0.8058    0.0000 C   0  0  0  0  0  0  0  0  0  0  0  0
    1.2056    0.4186    0.0000 C   0  0  0  0  0  0  0  0  0  0  0  0
    1.9052    0.8183    0.0000 C   0  0  0  0  0  0  0  0  0  0  0  0
  1 11  1  0  0  0  0
  2 10  1  0  0  0  0
  3 14  2  0  0  0  0
  4 16  2  0  0  0  0
  5 16  1  0  0  0  0
  6  9  1  0  0  0  0
  6 15  1  0  0  0  0
  7 14  1  0  0  0  0
  8  9  1  0  0  0  0
  8 12  2  0  0  0  0
  8 14  1  0  0  0  0
  9 13  2  0  0  0  0
 10 11  2  0  0  0  0
 10 12  1  0  0  0  0
 11 13  1  0  0  0  0
 15 16  1  0  0  0  0
M  END
> <PUBCHEM_COMPOUND_ID_TYPE>
0

> <PUBCHEM_TOTAL_CHARGE>
0

> <PUBCHEM_SUBSTANCE_ID>
310944506

> <PUBCHEM_SUBSTANCE_VERSION>
1

> <PUBCHEM_EXT_DATASOURCE_NAME>
4488

> <PUBCHEM_EXT_DATASOURCE_REGID>
SCHEMBL16122581

> <PUBCHEM_SUBSTANCE_COMMENT>
InChI=1S/C9H8BrClN2O3/c10-5-2-7(13-3-8(14)15)4(9(12)16)1-6(5)11/h1-2,13H,3H2,(H2,12,16)(H,14,15)
InChIKey=QHGOBYLZKYKKBE-UHFFFAOYSA-N

> <PUBCHEM_SUBSTANCE_SYNONYM>
SCHEMBL16122581

> <PUBCHEM_XREF_EXT_ID>
SCHEMBL16122581

> <PUBCHEM_EXT_DATASOURCE_URL>
https://www.surechembl.org/

> <PUBCHEM_EXT_SUBSTANCE_URL>
https://www.surechembl.org/chemical/SCHEMBL16122581

> <PUBCHEM_CID_ASSOCIATIONS>
117610743  1

> <PUBCHEM_COORDINATE_TYPE>
1
3

$$$$
