310941201
  -OEChem-07211613022D

 26 28  0     1  0  0  0  0  0999 V2000
   -0.8330   -1.9232    0.0000 O   0  0  0  0  0  0  0  0  0  0  0  0
    0.1547   -0.2218    0.0000 O   0  0  0  0  0  0  0  0  0  0  0  0
   -0.5659   -1.4706    0.0000 O   0  0  0  0  0  0  0  0  0  0  0  0
   -1.5112   -0.8047    0.0000 O   0  0  0  0  0  0  0  0  0  0  0  0
    1.4995    2.4201    0.0000 N   0  0  0  0  0  0  0  0  0  0  0  0
   -2.0229   -0.6381    0.0000 N   0  0  0  0  0  0  0  0  0  0  0  0
    0.1707    2.2760    0.0000 C   0  0  0  0  0  0  0  0  0  0  0  0
    0.8912    1.8758    0.0000 C   0  0  0  0  0  0  0  0  0  0  0  0
   -0.5659    1.0431    0.0000 C   0  0  0  0  0  0  0  0  0  0  0  0
   -0.5499    1.8758    0.0000 C   0  0  0  0  0  0  0  0  0  0  0  0
   -1.3023   -0.2218    0.0000 C   0  0  3  0  0  0  0  0  0  0  0  0
   -1.2703    0.6109    0.0000 C   0  0  0  0  0  0  0  0  0  0  0  0
    0.8752    1.0431    0.0000 C   0  0  0  0  0  0  0  0  0  0  0  0
    0.1707    0.6268    0.0000 C   0  0  0  0  0  0  0  0  0  0  0  0
    0.3467    3.0926    0.0000 C   0  0  0  0  0  0  0  0  0  0  0  0
   -0.5659   -0.6061    0.0000 C   0  0  0  0  0  0  0  0  0  0  0  0
    1.1794    3.1726    0.0000 C   0  0  0  0  0  0  0  0  0  0  0  0
   -1.4993   -1.5186    0.0000 C   0  0  0  0  0  0  0  0  0  0  0  0
    0.6069   -1.9470    0.0000 C   0  0  0  0  0  0  0  0  0  0  0  0
   -0.0832   -1.4948    0.0000 C   0  0  0  0  0  0  0  0  0  0  0  0
    0.6069   -2.7681    0.0000 C   0  0  0  0  0  0  0  0  0  0  0  0
    1.3089   -1.5305    0.0000 C   0  0  0  0  0  0  0  0  0  0  0  0
    0.8432   -0.6541    0.0000 C   0  0  0  0  0  0  0  0  0  0  0  0
    1.3089   -3.1726    0.0000 C   0  0  0  0  0  0  0  0  0  0  0  0
    2.0229   -1.9351    0.0000 C   0  0  0  0  0  0  0  0  0  0  0  0
    2.0229   -2.7562    0.0000 C   0  0  0  0  0  0  0  0  0  0  0  0
  1 18  1  0  0  0  0
  1 20  1  0  0  0  0
  2 16  1  0  0  0  0
  2 23  1  0  0  0  0
  3 16  2  0  0  0  0
  4 18  2  0  0  0  0
  5  8  1  0  0  0  0
  5 17  1  0  0  0  0
 11  6  1  1  0  0  0
  6 18  1  0  0  0  0
  7  8  2  0  0  0  0
  7 10  1  0  0  0  0
  7 15  1  0  0  0  0
  8 13  1  0  0  0  0
  9 10  2  0  0  0  0
  9 12  1  0  0  0  0
  9 14  1  0  0  0  0
 11 12  1  0  0  0  0
 11 16  1  0  0  0  0
 13 14  2  0  0  0  0
 15 17  2  0  0  0  0
 19 20  1  0  0  0  0
 19 21  2  0  0  0  0
 19 22  1  0  0  0  0
 21 24  1  0  0  0  0
 22 25  2  0  0  0  0
 24 26  2  0  0  0  0
 25 26  1  0  0  0  0
M  END
> <PUBCHEM_COMPOUND_ID_TYPE>
0

> <PUBCHEM_TOTAL_CHARGE>
0

> <PUBCHEM_SUBSTANCE_ID>
310941201

> <PUBCHEM_SUBSTANCE_VERSION>
1

> <PUBCHEM_EXT_DATASOURCE_NAME>
4488

> <PUBCHEM_EXT_DATASOURCE_REGID>
SCHEMBL16119161

> <PUBCHEM_SUBSTANCE_COMMENT>
InChI=1S/C20H20N2O4/c1-25-19(23)18(12-15-7-8-17-16(11-15)9-10-21-17)22-20(24)26-13-14-5-3-2-4-6-14/h2-11,18,21H,12-13H2,1H3,(H,22,24)/t18-/m0/s1
InChIKey=UCWWEWJPXRQRFO-SFHVURJKSA-N

> <PUBCHEM_SUBSTANCE_SYNONYM>
SCHEMBL16119161

> <PUBCHEM_XREF_EXT_ID>
SCHEMBL16119161

> <PUBCHEM_EXT_DATASOURCE_URL>
https://www.surechembl.org/

> <PUBCHEM_EXT_SUBSTANCE_URL>
https://www.surechembl.org/chemical/SCHEMBL16119161

> <PUBCHEM_CID_ASSOCIATIONS>
117608073  1

> <PUBCHEM_COORDINATE_TYPE>
1
3

> <PUBCHEM_BONDANNOTATIONS>
11  6  5

$$$$
