310938694
  -OEChem-07211613022D

 45 48  0     1  0  0  0  0  0999 V2000
    6.9115  -15.4920    0.0000 Br  0  0  0  0  0  0  0  0  0  0  0  0
    4.0073  -15.4920    0.0000 Cl  0  0  0  0  0  0  0  0  0  0  0  0
    6.2844  -17.2460    0.0000 Cl  0  0  0  0  0  0  0  0  0  0  0  0
    5.0469  -16.5315    0.0000 S   0  0  0  0  0  0  0  0  0  0  0  0
    2.6015  -11.9619    0.0000 O   0  0  0  0  0  0  0  0  0  0  0  0
    2.1890  -15.1514    0.0000 O   0  0  0  0  0  0  0  0  0  0  0  0
   -2.0490  -12.8975    0.0000 O   0  0  0  0  0  0  0  0  0  0  0  0
   -5.5395  -17.1843    0.0000 O   0  0  0  0  0  0  0  0  0  0  0  0
   -4.0164  -18.0637    0.0000 O   0  0  0  0  0  0  0  0  0  0  0  0
   -0.8116  -13.6119    0.0000 N   0  0  0  0  0  0  0  0  0  0  0  0
    3.3160  -13.1994    0.0000 N   0  0  0  0  0  0  0  0  0  0  0  0
    4.7450  -14.0245    0.0000 N   0  0  0  0  0  0  0  0  0  0  0  0
   -4.1116  -16.4698    0.0000 N   0  0  0  0  0  0  0  0  0  0  0  0
    0.4580  -13.1994    0.0000 C   0  0  0  0  0  0  0  0  0  0  0  0
    0.4580  -14.0245    0.0000 C   0  0  0  0  0  0  0  0  0  0  0  0
    1.8871  -13.1994    0.0000 C   0  0  0  0  0  0  0  0  0  0  0  0
    1.8871  -14.0245    0.0000 C   0  0  0  0  0  0  0  0  0  0  0  0
    1.1726  -12.7869    0.0000 C   0  0  0  0  0  0  0  0  0  0  0  0
    1.1726  -14.4369    0.0000 C   0  0  0  0  0  0  0  0  0  0  0  0
   -0.3267  -12.9445    0.0000 C   0  0  0  0  0  0  0  0  0  0  0  0
   -0.3267  -14.2794    0.0000 C   0  0  0  0  0  0  0  0  0  0  0  0
    2.6015  -12.7869    0.0000 C   0  0  0  0  0  0  0  0  0  0  0  0
    2.6015  -14.4369    0.0000 C   0  0  0  0  0  0  0  0  0  0  0  0
   -1.6366  -13.6119    0.0000 C   0  0  0  0  0  0  0  0  0  0  0  0
    5.4594  -15.2619    0.0000 C   0  0  0  0  0  0  0  0  0  0  0  0
    6.1269  -15.7469    0.0000 C   0  0  0  0  0  0  0  0  0  0  0  0
    4.7920  -15.7469    0.0000 C   0  0  0  0  0  0  0  0  0  0  0  0
    5.8720  -16.5315    0.0000 C   0  0  0  0  0  0  0  0  0  0  0  0
   -2.0490  -14.3264    0.0000 C   0  0  0  0  0  0  0  0  0  0  0  0
    5.4594  -14.4369    0.0000 C   0  0  0  0  0  0  0  0  0  0  0  0
    4.0305  -12.7869    0.0000 C   0  0  0  0  0  0  0  0  0  0  0  0
    3.3983  -14.6505    0.0000 C   0  0  0  0  0  0  0  0  0  0  0  0
    4.7450  -13.1994    0.0000 C   0  0  3  0  0  0  0  0  0  0  0  0
   -2.8740  -14.3264    0.0000 C   0  0  0  0  0  0  0  0  0  0  0  0
   -3.2866  -15.0409    0.0000 C   0  0  0  0  0  0  0  0  0  0  0  0
   -2.8740  -15.7554    0.0000 C   0  0  0  0  0  0  0  0  0  0  0  0
   -4.1116  -15.0409    0.0000 C   0  0  0  0  0  0  0  0  0  0  0  0
   -4.5241  -17.1843    0.0000 C   0  0  0  0  0  0  0  0  0  0  0  0
   -3.2866  -16.4698    0.0000 C   0  0  0  0  0  0  0  0  0  0  0  0
   -4.5241  -15.7554    0.0000 C   0  0  0  0  0  0  0  0  0  0  0  0
   -6.0473  -18.0637    0.0000 C   0  0  0  0  0  0  0  0  0  0  0  0
    5.4594  -12.7869    0.0000 C   0  0  0  0  0  0  0  0  0  0  0  0
   -6.5550  -18.9431    0.0000 C   0  0  0  0  0  0  0  0  0  0  0  0
   -5.5395  -18.9431    0.0000 C   0  0  0  0  0  0  0  0  0  0  0  0
   -7.0627  -18.0637    0.0000 C   0  0  0  0  0  0  0  0  0  0  0  0
  1 26  1  0  0  0  0
  2 27  1  0  0  0  0
  3 28  1  0  0  0  0
  4 27  1  0  0  0  0
  4 28  1  0  0  0  0
  5 22  2  0  0  0  0
  6 23  2  0  0  0  0
  7 24  2  0  0  0  0
  8 38  1  0  0  0  0
  8 41  1  0  0  0  0
  9 38  2  0  0  0  0
 10 20  1  0  0  0  0
 10 21  1  0  0  0  0
 10 24  1  0  0  0  0
 11 22  1  0  0  0  0
 11 31  1  0  0  0  0
 12 30  1  0  0  0  0
 12 33  1  0  0  0  0
 13 38  1  0  0  0  0
 13 39  1  0  0  0  0
 13 40  1  0  0  0  0
 14 15  1  0  0  0  0
 14 18  2  0  0  0  0
 14 20  1  0  0  0  0
 15 19  2  0  0  0  0
 15 21  1  0  0  0  0
 16 17  2  0  0  0  0
 16 18  1  0  0  0  0
 16 22  1  0  0  0  0
 17 19  1  0  0  0  0
 17 23  1  0  0  0  0
 23 32  1  0  0  0  0
 24 29  1  0  0  0  0
 25 26  1  0  0  0  0
 25 27  2  0  0  0  0
 25 30  1  0  0  0  0
 26 28  2  0  0  0  0
 29 34  1  0  0  0  0
 31 33  1  0  0  0  0
 33 42  1  1  0  0  0
 34 35  1  0  0  0  0
 35 36  1  0  0  0  0
 35 37  1  0  0  0  0
 36 39  1  0  0  0  0
 37 40  1  0  0  0  0
 41 43  1  0  0  0  0
 41 44  1  0  0  0  0
 41 45  1  0  0  0  0
M  END
> <PUBCHEM_COMPOUND_ID_TYPE>
0

> <PUBCHEM_TOTAL_CHARGE>
0

> <PUBCHEM_SUBSTANCE_ID>
310938694

> <PUBCHEM_SUBSTANCE_VERSION>
1

> <PUBCHEM_EXT_DATASOURCE_NAME>
4488

> <PUBCHEM_EXT_DATASOURCE_REGID>
SCHEMBL16116608

> <PUBCHEM_SUBSTANCE_COMMENT>
InChI=1S/C32H41BrCl2N4O5S/c1-18(36-15-25-27(33)29(35)45-28(25)34)14-37-30(42)24-13-22-17-39(16-21(22)12-23(24)19(2)40)26(41)7-6-20-8-10-38(11-9-20)31(43)44-32(3,4)5/h12-13,18,20,36H,6-11,14-17H2,1-5H3,(H,37,42)/t18-/m1/s1
InChIKey=UUPJNIQUKLJSHV-GOSISDBHSA-N

> <PUBCHEM_SUBSTANCE_SYNONYM>
SCHEMBL16116608

> <PUBCHEM_XREF_EXT_ID>
SCHEMBL16116608

> <PUBCHEM_EXT_DATASOURCE_URL>
https://www.surechembl.org/

> <PUBCHEM_EXT_SUBSTANCE_URL>
https://www.surechembl.org/chemical/SCHEMBL16116608

> <PUBCHEM_CID_ASSOCIATIONS>
117606125  1

> <PUBCHEM_COORDINATE_TYPE>
1
3

> <PUBCHEM_BONDANNOTATIONS>
33  42  5

$$$$
