310948154
  -OEChem-07211613022D

 43 47  0     0  0  0  0  0  0999 V2000
    3.9720   -2.5086    0.0000 S   0  0  0  0  0  0  0  0  0  0  0  0
   -3.5204    0.5686    0.0000 F   0  0  0  0  0  0  0  0  0  0  0  0
   -2.6842    0.4850    0.0000 F   0  0  0  0  0  0  0  0  0  0  0  0
    4.2395    3.2110    0.0000 F   0  0  0  0  0  0  0  0  0  0  0  0
    3.1024    2.8765    0.0000 F   0  0  0  0  0  0  0  0  0  0  0  0
    4.5072    2.0571    0.0000 F   0  0  0  0  0  0  0  0  0  0  0  0
    3.4034    1.7727    0.0000 O   0  0  0  0  0  0  0  0  0  0  0  0
    3.2528   -2.9268    0.0000 O   0  0  0  0  0  0  0  0  0  0  0  0
    4.6911   -2.0905    0.0000 O   0  0  0  0  0  0  0  0  0  0  0  0
   -0.1589    0.3512    0.0000 N   0  0  0  0  0  0  0  0  0  0  0  0
   -1.7309   -1.7394    0.0000 N   0  0  0  0  0  0  0  0  0  0  0  0
   -2.5169   -1.4885    0.0000 N   0  0  0  0  0  0  0  0  0  0  0  0
   -0.9951    0.4348    0.0000 N   0  0  0  0  0  0  0  0  0  0  0  0
   -1.1623    1.2376    0.0000 N   0  0  0  0  0  0  0  0  0  0  0  0
   -4.6911   -0.8530    0.0000 N   0  0  0  0  0  0  0  0  0  0  0  0
    0.2593   -0.3512    0.0000 C   0  0  0  0  0  0  0  0  0  0  0  0
   -0.1589   -1.0703    0.0000 C   0  0  0  0  0  0  0  0  0  0  0  0
   -1.2460   -1.0536    0.0000 C   0  0  0  0  0  0  0  0  0  0  0  0
    0.1923    1.1205    0.0000 C   0  0  0  0  0  0  0  0  0  0  0  0
   -2.4836   -0.6523    0.0000 C   0  0  0  0  0  0  0  0  0  0  0  0
    1.0954   -0.3847    0.0000 C   0  0  0  0  0  0  0  0  0  0  0  0
    1.4968   -1.0536    0.0000 C   0  0  0  0  0  0  0  0  0  0  0  0
   -1.7309   -0.4014    0.0000 C   0  0  0  0  0  0  0  0  0  0  0  0
    0.2760   -1.7727    0.0000 C   0  0  0  0  0  0  0  0  0  0  0  0
   -3.1692   -0.1505    0.0000 C   0  0  0  0  0  0  0  0  0  0  0  0
    0.9951    1.2711    0.0000 C   0  0  0  0  0  0  0  0  0  0  0  0
    1.0787   -1.7727    0.0000 C   0  0  0  0  0  0  0  0  0  0  0  0
    2.3331   -1.0536    0.0000 C   0  0  0  0  0  0  0  0  0  0  0  0
   -0.4432    1.6556    0.0000 C   0  0  0  0  0  0  0  0  0  0  0  0
    2.7511   -1.7727    0.0000 C   0  0  0  0  0  0  0  0  0  0  0  0
    3.5706   -1.7894    0.0000 C   0  0  0  0  0  0  0  0  0  0  0  0
    1.5470    0.6856    0.0000 C   0  0  0  0  0  0  0  0  0  0  0  0
    1.2627    2.0571    0.0000 C   0  0  0  0  0  0  0  0  0  0  0  0
   -1.4634   -2.5253    0.0000 C   0  0  0  0  0  0  0  0  0  0  0  0
    2.7344   -0.3847    0.0000 C   0  0  0  0  0  0  0  0  0  0  0  0
   -3.9218   -0.5018    0.0000 C   0  0  0  0  0  0  0  0  0  0  0  0
    2.6006    1.6390    0.0000 C   0  0  0  0  0  0  0  0  0  0  0  0
    2.3498    0.8530    0.0000 C   0  0  0  0  0  0  0  0  0  0  0  0
    2.0654    2.2243    0.0000 C   0  0  0  0  0  0  0  0  0  0  0  0
    3.9720   -1.0871    0.0000 C   0  0  0  0  0  0  0  0  0  0  0  0
    3.5706   -0.3679    0.0000 C   0  0  0  0  0  0  0  0  0  0  0  0
    3.8215    2.4752    0.0000 C   0  0  0  0  0  0  0  0  0  0  0  0
    4.3901   -3.2110    0.0000 C   0  0  0  0  0  0  0  0  0  0  0  0
  1  8  2  0  0  0  0
  1  9  2  0  0  0  0
  1 31  1  0  0  0  0
  1 43  1  0  0  0  0
  2 25  1  0  0  0  0
  3 25  1  0  0  0  0
  4 42  1  0  0  0  0
  5 42  1  0  0  0  0
  6 42  1  0  0  0  0
  7 37  1  0  0  0  0
  7 42  1  0  0  0  0
 10 13  1  0  0  0  0
 10 16  1  0  0  0  0
 10 19  1  0  0  0  0
 11 12  1  0  0  0  0
 11 18  1  0  0  0  0
 11 34  1  0  0  0  0
 12 20  2  0  0  0  0
 13 14  2  0  0  0  0
 14 29  1  0  0  0  0
 15 36  3  0  0  0  0
 16 17  2  0  0  0  0
 16 21  1  0  0  0  0
 17 18  1  0  0  0  0
 17 24  1  0  0  0  0
 18 23  2  0  0  0  0
 19 26  1  0  0  0  0
 19 29  2  0  0  0  0
 20 23  1  0  0  0  0
 20 25  1  0  0  0  0
 21 22  2  0  0  0  0
 22 27  1  0  0  0  0
 22 28  1  0  0  0  0
 24 27  2  0  0  0  0
 25 36  1  0  0  0  0
 26 32  2  0  0  0  0
 26 33  1  0  0  0  0
 28 30  1  0  0  0  0
 28 35  2  0  0  0  0
 30 31  2  0  0  0  0
 31 40  1  0  0  0  0
 32 38  1  0  0  0  0
 33 39  2  0  0  0  0
 35 41  1  0  0  0  0
 37 38  2  0  0  0  0
 37 39  1  0  0  0  0
 40 41  2  0  0  0  0
M  END
> <PUBCHEM_COMPOUND_ID_TYPE>
0

> <PUBCHEM_TOTAL_CHARGE>
0

> <PUBCHEM_SUBSTANCE_ID>
310948154

> <PUBCHEM_SUBSTANCE_VERSION>
1

> <PUBCHEM_EXT_DATASOURCE_NAME>
4488

> <PUBCHEM_EXT_DATASOURCE_REGID>
SCHEMBL16126331

> <PUBCHEM_SUBSTANCE_COMMENT>
InChI=1S/C28H19F5N6O3S/c1-38-23(14-26(36-38)27(29,30)16-34)22-11-8-19(18-4-3-5-21(12-18)43(2,40)41)13-24(22)39-25(15-35-37-39)17-6-9-20(10-7-17)42-28(31,32)33/h3-15H,1-2H3
InChIKey=ASLJBDUTOZCDOU-UHFFFAOYSA-N

> <PUBCHEM_SUBSTANCE_SYNONYM>
SCHEMBL16126331

> <PUBCHEM_XREF_EXT_ID>
SCHEMBL16126331

> <PUBCHEM_EXT_DATASOURCE_URL>
https://www.surechembl.org/

> <PUBCHEM_EXT_SUBSTANCE_URL>
https://www.surechembl.org/chemical/SCHEMBL16126331

> <PUBCHEM_CID_ASSOCIATIONS>
86276081  1

> <PUBCHEM_COORDINATE_TYPE>
1
3

$$$$
