310939705
  -OEChem-07211613022D

 31 34  0     1  0  0  0  0  0999 V2000
   -1.4289   -7.0802    0.0000 O   0  0  0  0  0  0  0  0  0  0  0  0
    4.1274   -9.9677    0.0000 O   0  0  0  0  0  0  0  0  0  0  0  0
   -2.8579   -7.9052    0.0000 O   0  0  0  0  0  0  0  0  0  0  0  0
    1.4289   -7.9052    0.0000 N   0  0  0  0  0  0  0  0  0  0  0  0
    2.8579   -7.9052    0.0000 N   0  0  0  0  0  0  0  0  0  0  0  0
    2.1434   -9.1427    0.0000 N   0  0  0  0  0  0  0  0  0  0  0  0
   -4.2868   -7.0802    0.0000 N   0  0  0  0  0  0  0  0  0  0  0  0
    1.4289   -7.0802    0.0000 C   0  0  0  0  0  0  0  0  0  0  0  0
    2.8579   -7.0802    0.0000 C   0  0  0  0  0  0  0  0  0  0  0  0
    0.7145   -6.6677    0.0000 C   0  0  0  0  0  0  0  0  0  0  0  0
    2.1434   -8.3177    0.0000 C   0  0  0  0  0  0  0  0  0  0  0  0
    2.1434   -6.6677    0.0000 C   0  0  0  0  0  0  0  0  0  0  0  0
    3.5724   -6.6677    0.0000 C   0  0  0  0  0  0  0  0  0  0  0  0
    0.0000   -7.0802    0.0000 C   0  0  0  0  0  0  0  0  0  0  0  0
    0.7145   -5.8427    0.0000 C   0  0  0  0  0  0  0  0  0  0  0  0
   -0.7145   -6.6677    0.0000 C   0  0  0  0  0  0  0  0  0  0  0  0
    2.8579   -9.5552    0.0000 C   0  0  3  0  0  0  0  0  0  0  0  0
    3.5724   -5.8427    0.0000 C   0  0  0  0  0  0  0  0  0  0  0  0
    4.2868   -7.0802    0.0000 C   0  0  0  0  0  0  0  0  0  0  0  0
    0.0000   -5.4302    0.0000 C   0  0  0  0  0  0  0  0  0  0  0  0
   -0.7145   -5.8427    0.0000 C   0  0  0  0  0  0  0  0  0  0  0  0
    3.6425   -9.3002    0.0000 C   0  0  0  0  0  0  0  0  0  0  0  0
    2.8579  -10.3802    0.0000 C   0  0  0  0  0  0  0  0  0  0  0  0
    5.0013   -6.6677    0.0000 C   0  0  0  0  0  0  0  0  0  0  0  0
    4.2868   -5.4302    0.0000 C   0  0  0  0  0  0  0  0  0  0  0  0
    3.6425  -10.6351    0.0000 C   0  0  0  0  0  0  0  0  0  0  0  0
    5.0013   -5.8427    0.0000 C   0  0  0  0  0  0  0  0  0  0  0  0
   -2.1434   -6.6677    0.0000 C   0  0  0  0  0  0  0  0  0  0  0  0
   -2.8579   -7.0802    0.0000 C   0  0  3  0  0  0  0  0  0  0  0  0
   -3.5724   -6.6677    0.0000 C   0  0  0  0  0  0  0  0  0  0  0  0
   -5.0013   -6.6677    0.0000 C   0  0  0  0  0  0  0  0  0  0  0  0
  1 16  1  0  0  0  0
  1 28  1  0  0  0  0
  2 22  1  0  0  0  0
  2 26  1  0  0  0  0
  3 29  1  0  0  0  0
  4  8  2  0  0  0  0
  4 11  1  0  0  0  0
  5  9  1  0  0  0  0
  5 11  2  0  0  0  0
  6 11  1  0  0  0  0
 17  6  1  6  0  0  0
  7 30  1  0  0  0  0
  7 31  1  0  0  0  0
  8 10  1  0  0  0  0
  8 12  1  0  0  0  0
  9 12  2  0  0  0  0
  9 13  1  0  0  0  0
 10 14  2  0  0  0  0
 10 15  1  0  0  0  0
 13 18  1  0  0  0  0
 13 19  1  0  0  0  0
 14 16  1  0  0  0  0
 15 20  2  0  0  0  0
 16 21  2  0  0  0  0
 17 22  1  0  0  0  0
 17 23  1  0  0  0  0
 18 25  1  0  0  0  0
 19 24  1  0  0  0  0
 20 21  1  0  0  0  0
 23 26  1  0  0  0  0
 24 27  1  0  0  0  0
 25 27  1  0  0  0  0
 28 29  1  0  0  0  0
 29 30  1  0  0  0  0
M  END
> <PUBCHEM_COMPOUND_ID_TYPE>
0

> <PUBCHEM_TOTAL_CHARGE>
0

> <PUBCHEM_SUBSTANCE_ID>
310939705

> <PUBCHEM_SUBSTANCE_VERSION>
1

> <PUBCHEM_EXT_DATASOURCE_NAME>
4488

> <PUBCHEM_EXT_DATASOURCE_REGID>
SCHEMBL16117635

> <PUBCHEM_SUBSTANCE_COMMENT>
InChI=1S/C24H34N4O3/c1-25-14-20(29)16-31-21-9-5-8-18(12-21)23-13-22(17-6-3-2-4-7-17)27-24(28-23)26-19-10-11-30-15-19/h5,8-9,12-13,17,19-20,25,29H,2-4,6-7,10-11,14-16H2,1H3,(H,26,27,28)/t19-,20?/m0/s1
InChIKey=LVJRUPRJUNACMU-XJDOXCRVSA-N

> <PUBCHEM_SUBSTANCE_SYNONYM>
SCHEMBL16117635

> <PUBCHEM_XREF_EXT_ID>
SCHEMBL16117635

> <PUBCHEM_EXT_DATASOURCE_URL>
https://www.surechembl.org/

> <PUBCHEM_EXT_SUBSTANCE_URL>
https://www.surechembl.org/chemical/SCHEMBL16117635

> <PUBCHEM_CID_ASSOCIATIONS>
117606935  1

> <PUBCHEM_COORDINATE_TYPE>
1
3

> <PUBCHEM_BONDANNOTATIONS>
17  6  6

$$$$
