310940195
  -OEChem-07211613022D

 39 42  0     1  0  0  0  0  0999 V2000
   -1.2575   -4.3039    0.0000 F   0  0  0  0  0  0  0  0  0  0  0  0
   -1.6478   -5.3229    0.0000 F   0  0  0  0  0  0  0  0  0  0  0  0
   -2.6886   -4.9327    0.0000 F   0  0  0  0  0  0  0  0  0  0  0  0
    2.1682    1.8755    0.0000 O   0  0  0  0  0  0  0  0  0  0  0  0
   -1.3226   -1.7020    0.0000 O   0  0  0  0  0  0  0  0  0  0  0  0
    0.9106    3.6534    0.0000 O   0  0  0  0  0  0  0  0  0  0  0  0
    2.3417    3.5016    0.0000 O   0  0  0  0  0  0  0  0  0  0  0  0
    0.8456    0.0325    0.0000 N   0  0  0  0  0  0  0  0  0  0  0  0
    1.1058   -0.7481    0.0000 N   0  0  0  0  0  0  0  0  0  0  0  0
    0.4337   -2.0706    0.0000 N   0  0  0  0  0  0  0  0  0  0  0  0
   -1.6045   -0.3144    0.0000 N   0  0  0  0  0  0  0  0  0  0  0  0
    3.2957   -0.2276    0.0000 N   0  0  0  0  0  0  0  0  0  0  0  0
   -3.2957   -3.5450    0.0000 N   0  0  0  0  0  0  0  0  0  0  0  0
    1.3226    0.7046    0.0000 C   0  0  3  0  0  0  0  0  0  0  0  0
    0.0000    0.0542    0.0000 C   0  0  0  0  0  0  0  0  0  0  0  0
   -0.2385   -0.7481    0.0000 C   0  0  0  0  0  0  0  0  0  0  0  0
    0.4337   -1.2250    0.0000 C   0  0  0  0  0  0  0  0  0  0  0  0
   -1.0407   -0.9215    0.0000 C   0  0  0  0  0  0  0  0  0  0  0  0
    2.0815    1.0299    0.0000 C   0  0  0  0  0  0  0  0  0  0  0  0
    0.6504    1.1817    0.0000 C   0  0  0  0  0  0  0  0  0  0  0  0
   -0.5203    0.6180    0.0000 C   0  0  0  0  0  0  0  0  0  0  0  0
    1.6695   -0.0325    0.0000 C   0  0  0  0  0  0  0  0  0  0  0  0
    1.4960    2.3308    0.0000 C   0  0  3  0  0  0  0  0  0  0  0  0
    0.7589    2.0273    0.0000 C   0  0  0  0  0  0  0  0  0  0  0  0
   -1.3443    0.4878    0.0000 C   0  0  0  0  0  0  0  0  0  0  0  0
   -0.2818   -2.4609    0.0000 C   0  0  0  0  0  0  0  0  0  0  0  0
    1.5828    3.1981    0.0000 C   0  0  0  0  0  0  0  0  0  0  0  0
    2.4717   -0.1410    0.0000 C   0  0  0  0  0  0  0  0  0  0  0  0
   -0.3035   -3.3065    0.0000 C   0  0  0  0  0  0  0  0  0  0  0  0
   -1.0190   -2.0706    0.0000 C   0  0  0  0  0  0  0  0  0  0  0  0
   -1.7346   -3.3065    0.0000 C   0  0  0  0  0  0  0  0  0  0  0  0
   -0.9974   -3.6968    0.0000 C   0  0  0  0  0  0  0  0  0  0  0  0
   -1.6912   -2.4826    0.0000 C   0  0  0  0  0  0  0  0  0  0  0  0
   -2.3200   -3.8919    0.0000 C   0  0  3  0  0  0  0  0  0  0  0  0
   -1.9947   -4.6074    0.0000 C   0  0  0  0  0  0  0  0  0  0  0  0
    0.9974    4.4990    0.0000 C   0  0  0  0  0  0  0  0  0  0  0  0
    1.1058    5.3229    0.0000 C   0  0  0  0  0  0  0  0  0  0  0  0
    0.3253    4.9544    0.0000 C   0  0  0  0  0  0  0  0  0  0  0  0
    1.7779    4.8243    0.0000 C   0  0  0  0  0  0  0  0  0  0  0  0
  1 35  1  0  0  0  0
  2 35  1  0  0  0  0
  3 35  1  0  0  0  0
  4 19  1  0  0  0  0
  4 23  1  0  0  0  0
  5 18  2  0  0  0  0
  6 27  1  0  0  0  0
  6 36  1  0  0  0  0
  7 27  2  0  0  0  0
  8  9  1  0  0  0  0
  8 14  1  0  0  0  0
  8 15  1  0  0  0  0
  9 17  2  0  0  0  0
 10 17  1  0  0  0  0
 10 26  1  0  0  0  0
 11 18  1  0  0  0  0
 11 25  1  0  0  0  0
 12 28  3  0  0  0  0
 34 13  1  6  0  0  0
 14 19  1  0  0  0  0
 14 20  1  0  0  0  0
 14 22  1  1  0  0  0
 15 16  2  0  0  0  0
 15 21  1  0  0  0  0
 16 17  1  0  0  0  0
 16 18  1  0  0  0  0
 20 24  1  0  0  0  0
 21 25  2  0  0  0  0
 22 28  1  0  0  0  0
 23 24  1  0  0  0  0
 23 27  1  1  0  0  0
 26 29  2  0  0  0  0
 26 30  1  0  0  0  0
 29 32  1  0  0  0  0
 30 33  2  0  0  0  0
 31 32  2  0  0  0  0
 31 33  1  0  0  0  0
 31 34  1  0  0  0  0
 34 35  1  0  0  0  0
 36 37  1  0  0  0  0
 36 38  1  0  0  0  0
 36 39  1  0  0  0  0
M  END
> <PUBCHEM_COMPOUND_ID_TYPE>
0

> <PUBCHEM_TOTAL_CHARGE>
0

> <PUBCHEM_SUBSTANCE_ID>
310940195

> <PUBCHEM_SUBSTANCE_VERSION>
1

> <PUBCHEM_EXT_DATASOURCE_NAME>
4488

> <PUBCHEM_EXT_DATASOURCE_REGID>
SCHEMBL16118129

> <PUBCHEM_SUBSTANCE_COMMENT>
InChI=1S/C26H29F3N6O4/c1-24(2,3)39-23(37)18-8-10-25(11-12-30,14-38-18)35-17-9-13-32-22(36)19(17)21(34-35)33-16-6-4-15(5-7-16)20(31)26(27,28)29/h4-7,9,13,18,20H,8,10-11,14,31H2,1-3H3,(H,32,36)(H,33,34)/t18-,20+,25-/m0/s1
InChIKey=FNWGQOPCFGTWRX-NNPDTBDGSA-N

> <PUBCHEM_SUBSTANCE_SYNONYM>
SCHEMBL16118129

> <PUBCHEM_XREF_EXT_ID>
SCHEMBL16118129

> <PUBCHEM_EXT_DATASOURCE_URL>
https://www.surechembl.org/

> <PUBCHEM_EXT_SUBSTANCE_URL>
https://www.surechembl.org/chemical/SCHEMBL16118129

> <PUBCHEM_CID_ASSOCIATIONS>
117607299  1

> <PUBCHEM_COORDINATE_TYPE>
1
3

> <PUBCHEM_BONDANNOTATIONS>
34  13  6
14  22  5
23  27  5

$$$$
