310940759
  -OEChem-07211613022D

  9  9  0     0  0  0  0  0  0999 V2000
   -0.3264    0.3341    0.0000 S   0  0  0  0  0  0  0  0  0  0  0  0
    1.1615    0.2581    0.0000 N   0  0  0  0  0  0  0  0  0  0  0  0
    0.4934   -0.8958    0.0000 N   0  0  0  0  0  0  0  0  0  0  0  0
    1.7233   -0.3644    0.0000 N   0  0  0  0  0  0  0  0  0  0  0  0
    1.2981   -1.0780    0.0000 N   0  0  0  0  0  0  0  0  0  0  0  0
    0.4024   -0.0759    0.0000 C   0  0  0  0  0  0  0  0  0  0  0  0
    1.3285    1.0780    0.0000 C   0  0  0  0  0  0  0  0  0  0  0  0
   -1.0249   -0.0759    0.0000 C   0  0  0  0  0  0  0  0  0  0  0  0
   -1.7233    0.2884    0.0000 C   0  0  0  0  0  0  0  0  0  0  0  0
  1  6  1  0  0  0  0
  1  8  1  0  0  0  0
  2  4  1  0  0  0  0
  2  6  1  0  0  0  0
  2  7  1  0  0  0  0
  3  5  1  0  0  0  0
  3  6  2  0  0  0  0
  4  5  1  0  0  0  0
  8  9  1  0  0  0  0
M  END
> <PUBCHEM_COMPOUND_ID_TYPE>
0

> <PUBCHEM_TOTAL_CHARGE>
0

> <PUBCHEM_SUBSTANCE_ID>
310940759

> <PUBCHEM_SUBSTANCE_VERSION>
1

> <PUBCHEM_EXT_DATASOURCE_NAME>
4488

> <PUBCHEM_EXT_DATASOURCE_REGID>
SCHEMBL16118718

> <PUBCHEM_SUBSTANCE_COMMENT>
InChI=1S/C4H10N4S/c1-3-9-4-5-6-7-8(4)2/h6-7H,3H2,1-2H3
InChIKey=ZRHVOIAZATYRKJ-UHFFFAOYSA-N

> <PUBCHEM_SUBSTANCE_SYNONYM>
SCHEMBL16118718

> <PUBCHEM_XREF_EXT_ID>
SCHEMBL16118718

> <PUBCHEM_EXT_DATASOURCE_URL>
https://www.surechembl.org/

> <PUBCHEM_EXT_SUBSTANCE_URL>
https://www.surechembl.org/chemical/SCHEMBL16118718

> <PUBCHEM_CID_ASSOCIATIONS>
117607713  1

> <PUBCHEM_COORDINATE_TYPE>
1
3

$$$$
