310944835
  -OEChem-07211613022D

 33 36  0     0  0  0  0  0  0999 V2000
   -0.1160    2.9636    0.0000 Br  0  0  0  0  0  0  0  0  0  0  0  0
   -0.2191   -1.0050    0.0000 O   0  0  0  0  0  0  0  0  0  0  0  0
   -4.5227   -1.8297    0.0000 O   0  0  0  0  0  0  0  0  0  0  0  0
    3.1826   -2.3451    0.0000 O   0  0  0  0  0  0  0  0  0  0  0  0
    2.7961   -0.9535    0.0000 O   0  0  0  0  0  0  0  0  0  0  0  0
   -1.5591   -0.3350    0.0000 N   0  0  0  0  0  0  0  0  0  0  0  0
   -3.0796   -1.8297    0.0000 N   0  0  0  0  0  0  0  0  0  0  0  0
   -1.5591   -1.6751    0.0000 N   0  0  0  0  0  0  0  0  0  0  0  0
   -3.8012   -0.5927    0.0000 N   0  0  0  0  0  0  0  0  0  0  0  0
   -2.3322   -0.5927    0.0000 C   0  0  0  0  0  0  0  0  0  0  0  0
   -2.3580   -1.3916    0.0000 C   0  0  0  0  0  0  0  0  0  0  0  0
   -1.0695   -1.0050    0.0000 C   0  0  0  0  0  0  0  0  0  0  0  0
   -3.0796   -0.2062    0.0000 C   0  0  0  0  0  0  0  0  0  0  0  0
   -3.8012   -1.3916    0.0000 C   0  0  0  0  0  0  0  0  0  0  0  0
   -1.5333    0.4896    0.0000 C   0  0  0  0  0  0  0  0  0  0  0  0
   -0.8118    0.9019    0.0000 C   0  0  0  0  0  0  0  0  0  0  0  0
    0.3995   -1.5978    0.0000 C   0  0  0  0  0  0  0  0  0  0  0  0
   -3.2084    0.6958    0.0000 C   0  0  0  0  0  0  0  0  0  0  0  0
   -3.0538   -2.6802    0.0000 C   0  0  0  0  0  0  0  0  0  0  0  0
   -4.5227   -0.2062    0.0000 C   0  0  0  0  0  0  0  0  0  0  0  0
    1.1983   -1.3916    0.0000 C   0  0  0  0  0  0  0  0  0  0  0  0
   -0.7860    1.7266    0.0000 C   0  0  0  0  0  0  0  0  0  0  0  0
    0.1933   -2.3967    0.0000 C   0  0  0  0  0  0  0  0  0  0  0  0
   -0.0902    0.5154    0.0000 C   0  0  0  0  0  0  0  0  0  0  0  0
    1.7911   -1.9585    0.0000 C   0  0  0  0  0  0  0  0  0  0  0  0
   -0.1160    2.1647    0.0000 C   0  0  0  0  0  0  0  0  0  0  0  0
    0.7602   -2.9636    0.0000 C   0  0  0  0  0  0  0  0  0  0  0  0
    1.5591   -2.7574    0.0000 C   0  0  0  0  0  0  0  0  0  0  0  0
    2.5899   -1.7524    0.0000 C   0  0  0  0  0  0  0  0  0  0  0  0
    0.6314    0.9019    0.0000 C   0  0  0  0  0  0  0  0  0  0  0  0
    0.6314    1.7266    0.0000 C   0  0  0  0  0  0  0  0  0  0  0  0
    3.9557   -2.1647    0.0000 C   0  0  0  0  0  0  0  0  0  0  0  0
    4.5227   -2.7574    0.0000 C   0  0  0  0  0  0  0  0  0  0  0  0
  1 26  1  0  0  0  0
  2 12  1  0  0  0  0
  2 17  1  0  0  0  0
  3 14  2  0  0  0  0
  4 29  1  0  0  0  0
  4 32  1  0  0  0  0
  5 29  2  0  0  0  0
  6 10  1  0  0  0  0
  6 12  1  0  0  0  0
  6 15  1  0  0  0  0
  7 11  1  0  0  0  0
  7 14  1  0  0  0  0
  7 19  1  0  0  0  0
  8 11  1  0  0  0  0
  8 12  2  0  0  0  0
  9 13  1  0  0  0  0
  9 14  1  0  0  0  0
  9 20  1  0  0  0  0
 10 11  2  0  0  0  0
 10 13  1  0  0  0  0
 13 18  2  0  0  0  0
 15 16  1  0  0  0  0
 16 22  1  0  0  0  0
 16 24  2  0  0  0  0
 17 21  1  0  0  0  0
 17 23  2  0  0  0  0
 21 25  2  0  0  0  0
 22 26  2  0  0  0  0
 23 27  1  0  0  0  0
 24 30  1  0  0  0  0
 25 28  1  0  0  0  0
 25 29  1  0  0  0  0
 26 31  1  0  0  0  0
 27 28  2  0  0  0  0
 30 31  2  0  0  0  0
 32 33  1  0  0  0  0
M  END
> <PUBCHEM_COMPOUND_ID_TYPE>
0

> <PUBCHEM_TOTAL_CHARGE>
0

> <PUBCHEM_SUBSTANCE_ID>
310944835

> <PUBCHEM_SUBSTANCE_VERSION>
1

> <PUBCHEM_EXT_DATASOURCE_NAME>
4488

> <PUBCHEM_EXT_DATASOURCE_REGID>
SCHEMBL16122914

> <PUBCHEM_SUBSTANCE_COMMENT>
InChI=1S/C24H23BrN4O4/c1-5-32-22(30)17-9-7-11-19(13-17)33-23-26-21-20(15(2)27(3)24(31)28(21)4)29(23)14-16-8-6-10-18(25)12-16/h6-13H,2,5,14H2,1,3-4H3
InChIKey=PTBJRWPEQZGXCQ-UHFFFAOYSA-N

> <PUBCHEM_SUBSTANCE_SYNONYM>
SCHEMBL16122914

> <PUBCHEM_XREF_EXT_ID>
SCHEMBL16122914

> <PUBCHEM_EXT_DATASOURCE_URL>
https://www.surechembl.org/

> <PUBCHEM_EXT_SUBSTANCE_URL>
https://www.surechembl.org/chemical/SCHEMBL16122914

> <PUBCHEM_CID_ASSOCIATIONS>
117611039  1

> <PUBCHEM_COORDINATE_TYPE>
1
3

$$$$
