310937889
  -OEChem-07211613022D

 21 23  0     1  0  0  0  0  0999 V2000
    3.2300   -3.9958    0.0000 Br  0  0  0  0  0  0  0  0  0  0  0  0
    0.4999   -0.1173    0.0000 N   0  0  0  0  0  0  0  0  0  0  0  0
    1.1564   -3.3139    0.0000 N   0  0  0  0  0  0  0  0  0  0  0  0
    3.6485   -1.9986    0.0000 N   0  0  0  0  0  0  0  0  0  0  0  0
    2.1275   -1.3591    0.0000 C   0  0  0  0  0  0  0  0  0  0  0  0
    1.0605   -0.5572    0.0000 C   0  0  3  0  0  0  0  0  0  0  0  0
    0.6396   -0.9304    0.0000 C   0  0  3  0  0  0  0  0  0  0  0  0
    2.0225   -2.1774    0.0000 C   0  0  0  0  0  0  0  0  0  0  0  0
    1.9893   -0.5417    0.0000 C   0  0  0  0  0  0  0  0  0  0  0  0
    1.6113   -0.9304    0.0000 C   0  0  0  0  0  0  0  0  0  0  0  0
    0.7400   -1.2658    0.0000 C   0  0  0  0  0  0  0  0  0  0  0  0
    0.1197   -1.6427    0.0000 C   0  0  0  0  0  0  0  0  0  0  0  0
    2.8880   -1.6789    0.0000 C   0  0  0  0  0  0  0  0  0  0  0  0
    2.6787   -2.6774    0.0000 C   0  0  0  0  0  0  0  0  0  0  0  0
    0.0773    0.5912    0.0000 C   0  0  0  0  0  0  0  0  0  0  0  0
    1.2614   -2.4957    0.0000 C   0  0  0  0  0  0  0  0  0  0  0  0
    2.5738   -3.4957    0.0000 C   0  0  0  0  0  0  0  0  0  0  0  0
   -0.7476    0.5795    0.0000 C   0  0  0  0  0  0  0  0  0  0  0  0
    1.8126   -3.8140    0.0000 C   0  0  0  0  0  0  0  0  0  0  0  0
   -1.1499   -0.1407    0.0000 C   0  0  0  0  0  0  0  0  0  0  0  0
   -1.1702    1.2881    0.0000 C   0  0  0  0  0  0  0  0  0  0  0  0
  1 17  1  0  0  0  0
  6  2  1  1  0  0  0
  2  7  1  0  0  0  0
  2 15  1  0  0  0  0
  3 16  2  0  0  0  0
  3 19  1  0  0  0  0
  4 13  3  0  0  0  0
  5  8  1  0  0  0  0
  5  9  1  0  0  0  0
  5 10  1  0  0  0  0
  5 13  1  0  0  0  0
  6  9  1  0  0  0  0
  6 11  1  0  0  0  0
  7 10  1  6  0  0  0
  7 12  1  0  0  0  0
  8 14  2  0  0  0  0
  8 16  1  0  0  0  0
 11 12  2  0  0  0  0
 14 17  1  0  0  0  0
 15 18  1  0  0  0  0
 17 19  2  0  0  0  0
 18 20  2  0  0  0  0
 18 21  1  0  0  0  0
M  END
> <PUBCHEM_COMPOUND_ID_TYPE>
0

> <PUBCHEM_TOTAL_CHARGE>
0

> <PUBCHEM_SUBSTANCE_ID>
310937889

> <PUBCHEM_SUBSTANCE_VERSION>
1

> <PUBCHEM_EXT_DATASOURCE_NAME>
4488

> <PUBCHEM_EXT_DATASOURCE_REGID>
SCHEMBL16115716

> <PUBCHEM_SUBSTANCE_COMMENT>
InChI=1S/C17H18BrN3/c1-12(2)10-21-15-3-4-16(21)7-17(6-15,11-19)13-5-14(18)9-20-8-13/h3-5,8-9,15-16H,1,6-7,10H2,2H3/t15-,16+,17?
InChIKey=CIGFSHJJIONKOC-SJPCQFCGSA-N

> <PUBCHEM_SUBSTANCE_SYNONYM>
SCHEMBL16115716

> <PUBCHEM_XREF_EXT_ID>
SCHEMBL16115716

> <PUBCHEM_EXT_DATASOURCE_URL>
https://www.surechembl.org/

> <PUBCHEM_EXT_SUBSTANCE_URL>
https://www.surechembl.org/chemical/SCHEMBL16115716

> <PUBCHEM_CID_ASSOCIATIONS>
117605511  1

> <PUBCHEM_COORDINATE_TYPE>
1
3

> <PUBCHEM_BONDANNOTATIONS>
6  2  5
7  10  6

$$$$
