310933434
  -OEChem-07211613022D

 22 25  0     0  0  0  0  0  0999 V2000
   -0.3025   -0.4039    0.0000 O   0  0  0  0  0  0  0  0  0  0  0  0
   -0.5996   -1.8016    0.0000 N   0  0  0  0  0  0  0  0  0  0  0  0
    1.4269   -0.8751    0.0000 N   0  0  0  0  0  0  0  0  0  0  0  0
   -0.3446   -2.5862    0.0000 N   0  0  0  0  0  0  0  0  0  0  0  0
    1.0144   -2.1447    0.0000 C   0  0  0  0  0  0  0  0  0  0  0  0
    0.7594   -1.3601    0.0000 C   0  0  0  0  0  0  0  0  0  0  0  0
    1.8394   -2.1447    0.0000 C   0  0  0  0  0  0  0  0  0  0  0  0
   -0.0476   -1.1885    0.0000 C   0  0  0  0  0  0  0  0  0  0  0  0
    2.0943   -1.3601    0.0000 C   0  0  0  0  0  0  0  0  0  0  0  0
    0.4623   -2.7578    0.0000 C   0  0  0  0  0  0  0  0  0  0  0  0
   -1.4066   -1.6301    0.0000 C   0  0  0  0  0  0  0  0  0  0  0  0
    2.3914   -2.7578    0.0000 C   0  0  0  0  0  0  0  0  0  0  0  0
    2.9013   -1.1885    0.0000 C   0  0  0  0  0  0  0  0  0  0  0  0
    0.7173   -3.5424    0.0000 C   0  0  0  0  0  0  0  0  0  0  0  0
   -1.9586   -2.2432    0.0000 C   0  0  0  0  0  0  0  0  0  0  0  0
   -1.6615   -0.8455    0.0000 C   0  0  0  0  0  0  0  0  0  0  0  0
    3.1984   -2.5862    0.0000 C   0  0  0  0  0  0  0  0  0  0  0  0
    3.4533   -1.8016    0.0000 C   0  0  0  0  0  0  0  0  0  0  0  0
   -2.7656   -2.0717    0.0000 C   0  0  0  0  0  0  0  0  0  0  0  0
   -2.4685   -0.6739    0.0000 C   0  0  0  0  0  0  0  0  0  0  0  0
   -3.0205   -1.2870    0.0000 C   0  0  0  0  0  0  0  0  0  0  0  0
   -3.8275   -1.1155    0.0000 C   0  0  0  0  0  0  0  0  0  0  0  0
  1  8  2  0  0  0  0
  2  4  1  0  0  0  0
  2  8  1  0  0  0  0
  2 11  1  0  0  0  0
  3  6  1  0  0  0  0
  3  9  1  0  0  0  0
  4 10  2  0  0  0  0
  5  6  2  0  0  0  0
  5  7  1  0  0  0  0
  5 10  1  0  0  0  0
  6  8  1  0  0  0  0
  7  9  2  0  0  0  0
  7 12  1  0  0  0  0
  9 13  1  0  0  0  0
 10 14  1  0  0  0  0
 11 15  2  0  0  0  0
 11 16  1  0  0  0  0
 12 17  2  0  0  0  0
 13 18  2  0  0  0  0
 15 19  1  0  0  0  0
 16 20  2  0  0  0  0
 17 18  1  0  0  0  0
 19 21  2  0  0  0  0
 20 21  1  0  0  0  0
 21 22  1  0  0  0  0
M  END
> <PUBCHEM_COMPOUND_ID_TYPE>
0

> <PUBCHEM_TOTAL_CHARGE>
0

> <PUBCHEM_SUBSTANCE_ID>
310933434

> <PUBCHEM_SUBSTANCE_VERSION>
1

> <PUBCHEM_EXT_DATASOURCE_NAME>
4488

> <PUBCHEM_EXT_DATASOURCE_REGID>
SCHEMBL16110852

> <PUBCHEM_SUBSTANCE_COMMENT>
InChI=1S/C18H15N3O/c1-11-7-9-13(10-8-11)21-18(22)17-16(12(2)20-21)14-5-3-4-6-15(14)19-17/h3-10,19H,1-2H3
InChIKey=BCFJTLMFNCXIGR-UHFFFAOYSA-N

> <PUBCHEM_SUBSTANCE_SYNONYM>
SCHEMBL16110852

> <PUBCHEM_XREF_EXT_ID>
SCHEMBL16110852

> <PUBCHEM_EXT_DATASOURCE_URL>
https://www.surechembl.org/

> <PUBCHEM_EXT_SUBSTANCE_URL>
https://www.surechembl.org/chemical/SCHEMBL16110852

> <PUBCHEM_CID_ASSOCIATIONS>
117601836  1

> <PUBCHEM_COORDINATE_TYPE>
1
3

$$$$
