310933287
  -OEChem-07211613022D

 31 35  0     0  0  0  0  0  0999 V2000
    3.1069   -0.0460    0.0000 O   0  0  0  0  0  0  0  0  0  0  0  0
    0.0000   -3.5212    0.0000 O   0  0  0  0  0  0  0  0  0  0  0  0
    5.5234   -2.3935    0.0000 O   0  0  0  0  0  0  0  0  0  0  0  0
    4.2116   -1.7491    0.0000 N   0  0  0  0  0  0  0  0  0  0  0  0
    4.2116   -3.0609    0.0000 N   0  0  0  0  0  0  0  0  0  0  0  0
    1.4959   -1.4729    0.0000 N   0  0  0  0  0  0  0  0  0  0  0  0
    3.8894   -0.0460    0.0000 N   0  0  0  0  0  0  0  0  0  0  0  0
    0.4143   -4.2346    0.0000 N   0  0  0  0  0  0  0  0  0  0  0  0
    2.6927   -0.7595    0.0000 C   0  0  0  0  0  0  0  0  0  0  0  0
    2.7157   -1.5880    0.0000 C   0  0  0  0  0  0  0  0  0  0  0  0
    3.4291   -1.9792    0.0000 C   0  0  0  0  0  0  0  0  0  0  0  0
    3.4291   -2.8308    0.0000 C   0  0  0  0  0  0  0  0  0  0  0  0
    1.8872   -0.7595    0.0000 C   0  0  0  0  0  0  0  0  0  0  0  0
    3.5212   -0.7364    0.0000 C   0  0  0  0  0  0  0  0  0  0  0  0
    2.0253   -2.8308    0.0000 C   0  0  0  0  0  0  0  0  0  0  0  0
    2.0253   -1.9792    0.0000 C   0  0  0  0  0  0  0  0  0  0  0  0
    2.7157   -3.2220    0.0000 C   0  0  0  0  0  0  0  0  0  0  0  0
    1.3118   -3.2450    0.0000 C   0  0  0  0  0  0  0  0  0  0  0  0
    4.6949   -2.3935    0.0000 C   0  0  0  0  0  0  0  0  0  0  0  0
    0.5523   -2.9228    0.0000 C   0  0  0  0  0  0  0  0  0  0  0  0
    1.2197   -4.0505    0.0000 C   0  0  0  0  0  0  0  0  0  0  0  0
    1.4729   -0.0460    0.0000 C   0  0  0  0  0  0  0  0  0  0  0  0
    3.9125   -1.4729    0.0000 C   0  0  0  0  0  0  0  0  0  0  0  0
    0.6444   -1.5190    0.0000 C   0  0  0  0  0  0  0  0  0  0  0  0
    4.7410    0.0000    0.0000 C   0  0  0  0  0  0  0  0  0  0  0  0
    0.6444   -0.0921    0.0000 C   0  0  0  0  0  0  0  0  0  0  0  0
    4.7640   -1.4269    0.0000 C   0  0  0  0  0  0  0  0  0  0  0  0
    0.2532   -0.7825    0.0000 C   0  0  0  0  0  0  0  0  0  0  0  0
    5.1322   -0.7134    0.0000 C   0  0  0  0  0  0  0  0  0  0  0  0
    0.3682   -2.1173    0.0000 C   0  0  0  0  0  0  0  0  0  0  0  0
    1.8412   -4.6028    0.0000 C   0  0  0  0  0  0  0  0  0  0  0  0
  1  9  1  0  0  0  0
  2  8  1  0  0  0  0
  2 20  1  0  0  0  0
  3 19  2  0  0  0  0
  4 11  1  0  0  0  0
  4 19  1  0  0  0  0
  5 12  1  0  0  0  0
  5 19  1  0  0  0  0
  6 13  1  0  0  0  0
  6 24  2  0  0  0  0
  7 14  1  0  0  0  0
  7 25  2  0  0  0  0
  8 21  2  0  0  0  0
  9 10  1  0  0  0  0
  9 13  1  0  0  0  0
  9 14  1  0  0  0  0
 10 11  1  0  0  0  0
 10 16  2  0  0  0  0
 11 12  2  0  0  0  0
 12 17  1  0  0  0  0
 13 22  2  0  0  0  0
 14 23  2  0  0  0  0
 15 16  1  0  0  0  0
 15 17  2  0  0  0  0
 15 18  1  0  0  0  0
 18 20  2  0  0  0  0
 18 21  1  0  0  0  0
 20 30  1  0  0  0  0
 21 31  1  0  0  0  0
 22 26  1  0  0  0  0
 23 27  1  0  0  0  0
 24 28  1  0  0  0  0
 25 29  1  0  0  0  0
 26 28  2  0  0  0  0
 27 29  2  0  0  0  0
M  END
> <PUBCHEM_COMPOUND_ID_TYPE>
0

> <PUBCHEM_TOTAL_CHARGE>
0

> <PUBCHEM_SUBSTANCE_ID>
310933287

> <PUBCHEM_SUBSTANCE_VERSION>
1

> <PUBCHEM_EXT_DATASOURCE_NAME>
4488

> <PUBCHEM_EXT_DATASOURCE_REGID>
SCHEMBL16110698

> <PUBCHEM_SUBSTANCE_COMMENT>
InChI=1S/C23H19N5O3/c1-13-20(14(2)31-28-13)15-11-16(21-17(12-15)26-22(29)27-21)23(30,18-7-3-5-9-24-18)19-8-4-6-10-25-19/h3-12,30H,1-2H3,(H2,26,27,29)
InChIKey=ZCEXVMXLJMGVMO-UHFFFAOYSA-N

> <PUBCHEM_SUBSTANCE_SYNONYM>
SCHEMBL16110698

> <PUBCHEM_XREF_EXT_ID>
SCHEMBL16110698

> <PUBCHEM_EXT_DATASOURCE_URL>
https://www.surechembl.org/

> <PUBCHEM_EXT_SUBSTANCE_URL>
https://www.surechembl.org/chemical/SCHEMBL16110698

> <PUBCHEM_CID_ASSOCIATIONS>
86296966  1

> <PUBCHEM_COORDINATE_TYPE>
1
3

$$$$
