310944417
  -OEChem-07211613022D

 20 21  0     0  0  0  0  0  0999 V2000
   -3.3691    0.4141    0.0000 Cl  0  0  0  0  0  0  0  0  0  0  0  0
   -3.3691   -1.2425    0.0000 Cl  0  0  0  0  0  0  0  0  0  0  0  0
    1.0818    1.2425    0.0000 O   0  0  0  0  0  0  0  0  0  0  0  0
   -0.3400    0.4141    0.0000 N   0  0  0  0  0  0  0  0  0  0  0  0
    1.8112    0.0062    0.0000 N   0  0  0  0  0  0  0  0  0  0  0  0
    3.3691   -0.8222    0.0000 N   0  0  0  0  0  0  0  0  0  0  0  0
   -1.0447    0.0062    0.0000 C   0  0  0  0  0  0  0  0  0  0  0  0
   -1.0571   -0.8098    0.0000 C   0  0  0  0  0  0  0  0  0  0  0  0
   -2.4789    0.0062    0.0000 C   0  0  0  0  0  0  0  0  0  0  0  0
   -2.4789   -0.8098    0.0000 C   0  0  0  0  0  0  0  0  0  0  0  0
   -1.7742    0.4018    0.0000 C   0  0  0  0  0  0  0  0  0  0  0  0
   -1.7618   -1.2301    0.0000 C   0  0  0  0  0  0  0  0  0  0  0  0
    1.0818    0.4018    0.0000 C   0  0  0  0  0  0  0  0  0  0  0  0
    0.3895    0.0062    0.0000 C   0  0  0  0  0  0  0  0  0  0  0  0
   -0.3276   -1.2301    0.0000 C   0  0  0  0  0  0  0  0  0  0  0  0
    2.5036    0.4141    0.0000 C   0  0  0  0  0  0  0  0  0  0  0  0
    1.8112   -0.8222    0.0000 C   0  0  0  0  0  0  0  0  0  0  0  0
    3.2331    0.0062    0.0000 C   0  0  0  0  0  0  0  0  0  0  0  0
    2.5283   -1.2301    0.0000 C   0  0  0  0  0  0  0  0  0  0  0  0
    0.3771   -0.8222    0.0000 C   0  0  0  0  0  0  0  0  0  0  0  0
  1  9  1  0  0  0  0
  2 10  1  0  0  0  0
  3 13  2  0  0  0  0
  4  7  1  0  0  0  0
  4 14  1  0  0  0  0
  5 13  1  0  0  0  0
  5 16  1  0  0  0  0
  5 17  1  0  0  0  0
  6 18  1  0  0  0  0
  6 19  1  0  0  0  0
  7  8  1  0  0  0  0
  7 11  2  0  0  0  0
  8 12  2  0  0  0  0
  8 15  1  0  0  0  0
  9 10  2  0  0  0  0
  9 11  1  0  0  0  0
 10 12  1  0  0  0  0
 13 14  1  0  0  0  0
 15 20  1  0  0  0  0
 16 18  1  0  0  0  0
 17 19  1  0  0  0  0
M  END
> <PUBCHEM_COMPOUND_ID_TYPE>
0

> <PUBCHEM_TOTAL_CHARGE>
0

> <PUBCHEM_SUBSTANCE_ID>
310944417

> <PUBCHEM_SUBSTANCE_VERSION>
1

> <PUBCHEM_EXT_DATASOURCE_NAME>
4488

> <PUBCHEM_EXT_DATASOURCE_REGID>
SCHEMBL16122492

> <PUBCHEM_SUBSTANCE_COMMENT>
InChI=1S/C14H19Cl2N3O/c1-2-10-7-11(15)12(16)8-13(10)18-9-14(20)19-5-3-17-4-6-19/h7-8,17-18H,2-6,9H2,1H3
InChIKey=QSGJBWGKWYXWOF-UHFFFAOYSA-N

> <PUBCHEM_SUBSTANCE_SYNONYM>
SCHEMBL16122492

> <PUBCHEM_XREF_EXT_ID>
SCHEMBL16122492

> <PUBCHEM_EXT_DATASOURCE_URL>
https://www.surechembl.org/

> <PUBCHEM_EXT_SUBSTANCE_URL>
https://www.surechembl.org/chemical/SCHEMBL16122492

> <PUBCHEM_CID_ASSOCIATIONS>
117610673  1

> <PUBCHEM_COORDINATE_TYPE>
1
3

$$$$
