310929391
  -OEChem-07211613022D

 25 26  0     0  0  0  0  0  0999 V2000
   -7.8594    1.2375    0.0000 O   0  0  0  0  0  0  0  0  0  0  0  0
    3.5724    0.4125    0.0000 O   0  0  0  0  0  0  0  0  0  0  0  0
   -6.4304    0.4125    0.0000 N   0  0  0  0  0  0  0  0  0  0  0  0
   -7.1449    0.0000    0.0000 C   0  0  0  0  0  0  0  0  0  0  0  0
   -7.1449   -0.8250    0.0000 C   0  0  0  0  0  0  0  0  0  0  0  0
   -7.8594    0.4125    0.0000 C   0  0  0  0  0  0  0  0  0  0  0  0
   -5.7159    0.0000    0.0000 C   0  0  0  0  0  0  0  0  0  0  0  0
   -6.4304   -1.2375    0.0000 C   0  0  0  0  0  0  0  0  0  0  0  0
   -7.8594   -1.2375    0.0000 C   0  0  0  0  0  0  0  0  0  0  0  0
   -8.5738    0.0000    0.0000 C   0  0  0  0  0  0  0  0  0  0  0  0
   -5.7159   -0.8250    0.0000 C   0  0  0  0  0  0  0  0  0  0  0  0
   -8.5738   -0.8250    0.0000 C   0  0  0  0  0  0  0  0  0  0  0  0
   -5.0014    0.4125    0.0000 C   0  0  0  0  0  0  0  0  0  0  0  0
   -4.2869    0.0000    0.0000 C   0  0  0  0  0  0  0  0  0  0  0  0
   -8.5738    1.6500    0.0000 C   0  0  0  0  0  0  0  0  0  0  0  0
   -3.5724    0.4125    0.0000 C   0  0  0  0  0  0  0  0  0  0  0  0
   -2.8579    0.0000    0.0000 C   0  0  0  0  0  0  0  0  0  0  0  0
   -2.1435    0.4125    0.0000 C   0  0  0  0  0  0  0  0  0  0  0  0
   -1.4290    0.0000    0.0000 C   0  0  0  0  0  0  0  0  0  0  0  0
   -0.7145    0.4125    0.0000 C   0  0  0  0  0  0  0  0  0  0  0  0
    0.0000    0.0000    0.0000 C   0  0  0  0  0  0  0  0  0  0  0  0
    0.7145    0.4125    0.0000 C   0  0  0  0  0  0  0  0  0  0  0  0
    1.4290    0.0000    0.0000 C   0  0  0  0  0  0  0  0  0  0  0  0
    2.1435    0.4125    0.0000 C   0  0  0  0  0  0  0  0  0  0  0  0
    2.8579    0.0000    0.0000 C   0  0  0  0  0  0  0  0  0  0  0  0
  1  6  1  0  0  0  0
  1 15  1  0  0  0  0
  2 25  1  0  0  0  0
  3  4  1  0  0  0  0
  3  7  2  0  0  0  0
  4  5  1  0  0  0  0
  4  6  2  0  0  0  0
  5  8  1  0  0  0  0
  5  9  2  0  0  0  0
  6 10  1  0  0  0  0
  7 11  1  0  0  0  0
  7 13  1  0  0  0  0
  8 11  2  0  0  0  0
  9 12  1  0  0  0  0
 10 12  2  0  0  0  0
 13 14  1  0  0  0  0
 14 16  1  0  0  0  0
 16 17  1  0  0  0  0
 17 18  1  0  0  0  0
 18 19  1  0  0  0  0
 19 20  1  0  0  0  0
 20 21  1  0  0  0  0
 21 22  1  0  0  0  0
 22 23  1  0  0  0  0
 23 24  1  0  0  0  0
 24 25  1  0  0  0  0
M  END
> <PUBCHEM_COMPOUND_ID_TYPE>
0

> <PUBCHEM_TOTAL_CHARGE>
0

> <PUBCHEM_SUBSTANCE_ID>
310929391

> <PUBCHEM_SUBSTANCE_VERSION>
1

> <PUBCHEM_EXT_DATASOURCE_NAME>
4488

> <PUBCHEM_EXT_DATASOURCE_REGID>
SCHEMBL16106564

> <PUBCHEM_SUBSTANCE_COMMENT>
InChI=1S/C22H33NO2/c1-25-21-15-12-13-19-16-17-20(23-22(19)21)14-10-8-6-4-2-3-5-7-9-11-18-24/h12-13,15-17,24H,2-11,14,18H2,1H3
InChIKey=FLWNUPKBCGISMZ-UHFFFAOYSA-N

> <PUBCHEM_SUBSTANCE_SYNONYM>
SCHEMBL16106564

> <PUBCHEM_XREF_EXT_ID>
SCHEMBL16106564

> <PUBCHEM_EXT_DATASOURCE_URL>
https://www.surechembl.org/

> <PUBCHEM_EXT_SUBSTANCE_URL>
https://www.surechembl.org/chemical/SCHEMBL16106564

> <PUBCHEM_CID_ASSOCIATIONS>
85471658  1

> <PUBCHEM_COORDINATE_TYPE>
1
3

$$$$
