310936297
  -OEChem-07211613022D

 25 28  0     1  0  0  0  0  0999 V2000
    5.9133   -3.3480    0.0000 O   0  0  0  0  0  0  0  0  0  0  0  0
    3.1958   -3.6306    0.0000 O   0  0  0  0  0  0  0  0  0  0  0  0
    3.0219   -4.3480    0.0000 O   0  0  0  0  0  0  0  0  0  0  0  0
    6.3916   -2.6958    0.0000 N   0  0  0  0  0  0  0  0  0  0  0  0
    3.7176   -2.2827    0.0000 C   0  0  3  0  0  0  0  0  0  0  0  0
    3.0001   -1.8696    0.0000 C   0  0  3  0  0  0  0  0  0  0  0  0
    2.3262   -2.2609    0.0000 C   0  0  3  0  0  0  0  0  0  0  0  0
    1.5870   -1.8696    0.0000 C   0  0  0  0  0  0  0  0  0  0  0  0
    3.7176   -3.1306    0.0000 C   0  0  3  0  0  0  0  0  0  0  0  0
    1.5870   -1.0218    0.0000 C   0  0  0  0  0  0  0  0  0  0  0  0
    4.4133   -1.8696    0.0000 C   0  0  0  0  0  0  0  0  0  0  0  0
    0.8261   -0.7827    0.0000 C   0  0  0  0  0  0  0  0  0  0  0  0
    5.1307   -2.2827    0.0000 C   0  0  0  0  0  0  0  0  0  0  0  0
    3.0001   -1.0218    0.0000 C   0  0  0  0  0  0  0  0  0  0  0  0
    5.1307   -3.1306    0.0000 C   0  0  0  0  0  0  0  0  0  0  0  0
    4.4133   -3.5219    0.0000 C   0  0  0  0  0  0  0  0  0  0  0  0
    2.3262   -0.6087    0.0000 C   0  0  0  0  0  0  0  0  0  0  0  0
    0.8261   -2.0871    0.0000 C   0  0  0  0  0  0  0  0  0  0  0  0
    0.3261   -1.4349    0.0000 C   0  0  0  0  0  0  0  0  0  0  0  0
    3.7176   -1.4566    0.0000 C   0  0  0  0  0  0  0  0  0  0  0  0
    2.3262   -3.0654    0.0000 C   0  0  0  0  0  0  0  0  0  0  0  0
    3.0001   -3.5436    0.0000 C   0  0  0  0  0  0  0  0  0  0  0  0
    5.9133   -2.0436    0.0000 C   0  0  0  0  0  0  0  0  0  0  0  0
    0.5652    0.0000    0.0000 C   0  0  0  0  0  0  0  0  0  0  0  0
    0.0000   -0.6522    0.0000 C   0  0  0  0  0  0  0  0  0  0  0  0
  1  4  1  0  0  0  0
  1 15  1  0  0  0  0
  2 21  2  0  0  0  0
  3 22  2  0  0  0  0
  4 23  2  0  0  0  0
  5  6  1  0  0  0  0
  5  9  1  0  0  0  0
  5 11  1  0  0  0  0
  5 20  1  6  0  0  0
  6  7  1  0  0  0  0
  6 14  1  6  0  0  0
  7  8  1  0  0  0  0
  7 21  1  1  0  0  0
  8 10  2  0  0  0  0
  8 18  1  0  0  0  0
  9 16  1  0  0  0  0
  9 22  1  6  0  0  0
 10 12  1  0  0  0  0
 10 17  1  0  0  0  0
 11 13  1  0  0  0  0
 12 19  1  0  0  0  0
 12 24  1  0  0  0  0
 12 25  1  0  0  0  0
 13 15  2  0  0  0  0
 13 23  1  0  0  0  0
 14 17  1  0  0  0  0
 15 16  1  0  0  0  0
 18 19  1  0  0  0  0
M  END
> <PUBCHEM_COMPOUND_ID_TYPE>
0

> <PUBCHEM_TOTAL_CHARGE>
0

> <PUBCHEM_SUBSTANCE_ID>
310936297

> <PUBCHEM_SUBSTANCE_VERSION>
1

> <PUBCHEM_EXT_DATASOURCE_NAME>
4488

> <PUBCHEM_EXT_DATASOURCE_REGID>
SCHEMBL16113920

> <PUBCHEM_SUBSTANCE_COMMENT>
InChI=1S/C21H27NO3/c1-20(2)7-6-15-16(12-24)18(5-4-17(15)20)21(3)9-13-10-22-25-19(13)8-14(21)11-23/h10-12,14,16,18H,4-9H2,1-3H3/t14-,16+,18+,21+/m1/s1
InChIKey=WWPLXTBXSRTGCX-JXNBOPDTSA-N

> <PUBCHEM_SUBSTANCE_SYNONYM>
SCHEMBL16113920

> <PUBCHEM_XREF_EXT_ID>
SCHEMBL16113920

> <PUBCHEM_EXT_DATASOURCE_URL>
https://www.surechembl.org/

> <PUBCHEM_EXT_SUBSTANCE_URL>
https://www.surechembl.org/chemical/SCHEMBL16113920

> <PUBCHEM_CID_ASSOCIATIONS>
117604240  1

> <PUBCHEM_COORDINATE_TYPE>
1
3

> <PUBCHEM_BONDANNOTATIONS>
5  20  6
6  14  6
7  21  5
9  22  6

$$$$
