310945013
  -OEChem-07211613022D

 65 73  0     1  0  0  0  0  0999 V2000
    8.8058    2.4736    0.0000 S   0  0  0  0  0  0  0  0  0  0  0  0
   -1.2948    1.0951    0.0000 S   0  0  0  0  0  0  0  0  0  0  0  0
   10.3776    2.6539    0.0000 O   0  0  0  0  0  0  0  0  0  0  0  0
    0.1997    1.2626    0.0000 O   0  0  0  0  0  0  0  0  0  0  0  0
   -4.8635    0.0515    0.0000 O   0  0  0  0  0  0  0  0  0  0  0  0
    2.8150   -2.1515    0.0000 O   0  0  0  0  0  0  0  0  0  0  0  0
   -7.7880   -2.1515    0.0000 O   0  0  0  0  0  0  0  0  0  0  0  0
    9.0377    0.3092    0.0000 N   0  0  0  0  0  0  0  0  0  0  0  0
    5.7782    0.9662    0.0000 N   0  0  0  0  0  0  0  0  0  0  0  0
   10.7254    1.2111    0.0000 N   0  0  0  0  0  0  0  0  0  0  0  0
   -1.0629   -0.9662    0.0000 N   0  0  0  0  0  0  0  0  0  0  0  0
    5.0438   -0.2963    0.0000 N   0  0  0  0  0  0  0  0  0  0  0  0
    0.5218   -0.1160    0.0000 N   0  0  0  0  0  0  0  0  0  0  0  0
   -4.1549   -1.1466    0.0000 N   0  0  0  0  0  0  0  0  0  0  0  0
    3.5365   -0.8760    0.0000 N   0  0  0  0  0  0  0  0  0  0  0  0
   -7.0794   -0.9662    0.0000 N   0  0  0  0  0  0  0  0  0  0  0  0
  -10.5837   -1.3528    0.0000 N   0  0  0  0  0  0  0  0  0  0  0  0
    7.9812    1.3914    0.0000 C   0  0  0  0  0  0  0  0  0  0  0  0
    8.7929    1.1209    0.0000 C   0  0  0  0  0  0  0  0  0  0  0  0
    8.0071    2.2288    0.0000 C   0  0  0  0  0  0  0  0  0  0  0  0
    7.2598    0.9662    0.0000 C   0  0  0  0  0  0  0  0  0  0  0  0
    9.2954    1.8166    0.0000 C   0  0  0  0  0  0  0  0  0  0  0  0
    6.4997    1.3914    0.0000 C   0  0  0  0  0  0  0  0  0  0  0  0
   10.1457    1.8423    0.0000 C   0  0  0  0  0  0  0  0  0  0  0  0
    7.2469    2.6282    0.0000 C   0  0  0  0  0  0  0  0  0  0  0  0
   -2.0549    0.0644    0.0000 C   0  0  0  0  0  0  0  0  0  0  0  0
   -1.2948   -0.1932    0.0000 C   0  0  0  0  0  0  0  0  0  0  0  0
    6.5254    2.2160    0.0000 C   0  0  0  0  0  0  0  0  0  0  0  0
    7.2469    0.1160    0.0000 C   0  0  0  0  0  0  0  0  0  0  0  0
   -0.8181    0.4638    0.0000 C   0  0  0  0  0  0  0  0  0  0  0  0
   -2.0420    0.8503    0.0000 C   0  0  0  0  0  0  0  0  0  0  0  0
    5.7782    0.1289    0.0000 C   0  0  0  0  0  0  0  0  0  0  0  0
    6.5254   -0.2963    0.0000 C   0  0  0  0  0  0  0  0  0  0  0  0
   -0.0065    0.4896    0.0000 C   0  0  0  0  0  0  0  0  0  0  0  0
   -2.7506   -0.3349    0.0000 C   0  0  0  0  0  0  0  0  0  0  0  0
    9.8365   -0.0129    0.0000 C   0  0  0  0  0  0  0  0  0  0  0  0
   10.5708    0.3736    0.0000 C   0  0  3  0  0  0  0  0  0  0  0  0
   -3.4721    0.0515    0.0000 C   0  0  0  0  0  0  0  0  0  0  0  0
   -2.7635    1.2368    0.0000 C   0  0  0  0  0  0  0  0  0  0  0  0
   -3.4463    0.8503    0.0000 C   0  0  0  0  0  0  0  0  0  0  0  0
    0.3801   -0.8890    0.0000 C   0  0  3  0  0  0  0  0  0  0  0  0
   -0.3156   -1.2754    0.0000 C   0  0  0  0  0  0  0  0  0  0  0  0
   -4.1420   -0.3479    0.0000 C   0  0  0  0  0  0  0  0  0  0  0  0
    5.0438   -0.9792    0.0000 C   0  0  0  0  0  0  0  0  0  0  0  0
    4.2966   -1.3785    0.0000 C   0  0  0  0  0  0  0  0  0  0  0  0
   11.2923   -0.0258    0.0000 C   0  0  0  0  0  0  0  0  0  0  0  0
    1.3334   -1.3914    0.0000 C   0  0  0  0  0  0  0  0  0  0  0  0
    5.7653   -1.4172    0.0000 C   0  0  0  0  0  0  0  0  0  0  0  0
   -4.9537   -1.4945    0.0000 C   0  0  0  0  0  0  0  0  0  0  0  0
    2.0549   -0.9019    0.0000 C   0  0  0  0  0  0  0  0  0  0  0  0
    2.8021   -1.2883    0.0000 C   0  0  0  0  0  0  0  0  0  0  0  0
    4.2837   -2.2160    0.0000 C   0  0  0  0  0  0  0  0  0  0  0  0
    5.7524   -2.2546    0.0000 C   0  0  0  0  0  0  0  0  0  0  0  0
    5.0052   -2.6411    0.0000 C   0  0  0  0  0  0  0  0  0  0  0  0
   -5.6494   -1.0822    0.0000 C   0  0  0  0  0  0  0  0  0  0  0  0
   -5.0052   -2.2932    0.0000 C   0  0  0  0  0  0  0  0  0  0  0  0
   -6.3579   -1.4430    0.0000 C   0  0  0  0  0  0  0  0  0  0  0  0
   -5.7009   -2.6539    0.0000 C   0  0  0  0  0  0  0  0  0  0  0  0
   -6.3837   -2.2417    0.0000 C   0  0  0  0  0  0  0  0  0  0  0  0
   -7.7880   -1.3399    0.0000 C   0  0  0  0  0  0  0  0  0  0  0  0
   -8.5095   -0.9662    0.0000 C   0  0  0  0  0  0  0  0  0  0  0  0
   -9.1665   -1.3528    0.0000 C   0  0  0  0  0  0  0  0  0  0  0  0
   -9.8880   -0.9534    0.0000 C   0  0  0  0  0  0  0  0  0  0  0  0
  -10.5837   -2.1644    0.0000 C   0  0  0  0  0  0  0  0  0  0  0  0
  -11.2923   -0.9405    0.0000 C   0  0  0  0  0  0  0  0  0  0  0  0
  1 20  1  0  0  0  0
  1 22  1  0  0  0  0
  2 30  1  0  0  0  0
  2 31  1  0  0  0  0
  3 24  2  0  0  0  0
  4 34  2  0  0  0  0
  5 43  2  0  0  0  0
  6 51  2  0  0  0  0
  7 60  2  0  0  0  0
  8 19  1  0  0  0  0
  8 36  1  0  0  0  0
  9 23  1  0  0  0  0
  9 32  2  0  0  0  0
 10 24  1  0  0  0  0
 10 37  1  0  0  0  0
 11 27  1  0  0  0  0
 11 42  1  0  0  0  0
 12 32  1  0  0  0  0
 12 44  1  0  0  0  0
 13 34  1  0  0  0  0
 13 41  1  0  0  0  0
 14 43  1  0  0  0  0
 14 49  1  0  0  0  0
 15 45  1  0  0  0  0
 15 51  1  0  0  0  0
 16 57  1  0  0  0  0
 16 60  1  0  0  0  0
 17 63  1  0  0  0  0
 17 64  1  0  0  0  0
 17 65  1  0  0  0  0
 18 19  1  0  0  0  0
 18 20  2  0  0  0  0
 18 21  1  0  0  0  0
 19 22  2  0  0  0  0
 20 25  1  0  0  0  0
 21 23  2  0  0  0  0
 21 29  1  0  0  0  0
 22 24  1  0  0  0  0
 23 28  1  0  0  0  0
 25 28  2  0  0  0  0
 26 27  1  0  0  0  0
 26 31  2  0  0  0  0
 26 35  1  0  0  0  0
 27 30  2  0  0  0  0
 29 33  2  0  0  0  0
 30 34  1  0  0  0  0
 31 39  1  0  0  0  0
 32 33  1  0  0  0  0
 35 38  2  0  0  0  0
 36 37  1  0  0  0  0
 37 46  1  6  0  0  0
 38 40  1  0  0  0  0
 38 43  1  0  0  0  0
 39 40  2  0  0  0  0
 41 42  1  0  0  0  0
 41 47  1  6  0  0  0
 44 45  1  0  0  0  0
 44 48  2  0  0  0  0
 45 52  2  0  0  0  0
 47 50  2  0  0  0  0
 48 53  1  0  0  0  0
 49 55  2  0  0  0  0
 49 56  1  0  0  0  0
 50 51  1  0  0  0  0
 52 54  1  0  0  0  0
 53 54  2  0  0  0  0
 55 57  1  0  0  0  0
 56 58  2  0  0  0  0
 57 59  2  0  0  0  0
 58 59  1  0  0  0  0
 60 61  1  0  0  0  0
 61 62  2  0  0  0  0
 62 63  1  0  0  0  0
M  END
> <PUBCHEM_COMPOUND_ID_TYPE>
0

> <PUBCHEM_TOTAL_CHARGE>
0

> <PUBCHEM_SUBSTANCE_ID>
310945013

> <PUBCHEM_SUBSTANCE_VERSION>
1

> <PUBCHEM_EXT_DATASOURCE_NAME>
4488

> <PUBCHEM_EXT_DATASOURCE_REGID>
SCHEMBL16123101

> <PUBCHEM_SUBSTANCE_COMMENT>
InChI=1S/C48H44N10O5S2/c1-26-24-49-43-41-31-15-19-38(55-33(31)16-18-37(41)65-45(43)47(62)51-26)56-34-10-4-5-11-35(34)57-40(60)20-14-30-25-50-42-32-22-27(13-17-36(32)64-44(42)48(63)54-30)46(61)53-29-9-6-8-28(23-29)52-39(59)12-7-21-58(2)3/h4-20,22-23,26,30,49-50H,21,24-25H2,1-3H3,(H,51,62)(H,52,59)(H,53,61)(H,54,63)(H,55,56)(H,57,60)/b12-7+,20-14+/t26-,30-/m1/s1
InChIKey=PIZTVRVFBGGCKY-RABRCNIVSA-N

> <PUBCHEM_SUBSTANCE_SYNONYM>
SCHEMBL16123101

> <PUBCHEM_XREF_EXT_ID>
SCHEMBL16123101

> <PUBCHEM_EXT_DATASOURCE_URL>
https://www.surechembl.org/

> <PUBCHEM_EXT_SUBSTANCE_URL>
https://www.surechembl.org/chemical/SCHEMBL16123101

> <PUBCHEM_CID_ASSOCIATIONS>
117611151  1

> <PUBCHEM_COORDINATE_TYPE>
1
3

> <PUBCHEM_BONDANNOTATIONS>
37  46  6
41  47  6

$$$$
