310933706
  -OEChem-07211613022D

 20 22  0     0  0  0  0  0  0999 V2000
    1.4056   -2.8417    0.0000 O   0  0  0  0  0  0  0  0  0  0  0  0
    2.8112   -2.8723    0.0000 N   0  0  0  0  0  0  0  0  0  0  0  0
    0.0000   -0.3972    0.0000 N   0  0  0  0  0  0  0  0  0  0  0  0
    2.7500   -5.2862    0.0000 N   0  0  0  0  0  0  0  0  0  0  0  0
    1.4362   -1.2223    0.0000 C   0  0  0  0  0  0  0  0  0  0  0  0
    2.1083   -1.6195    0.0000 C   0  0  0  0  0  0  0  0  0  0  0  0
    1.4362   -0.3972    0.0000 C   0  0  0  0  0  0  0  0  0  0  0  0
    2.1083   -2.4445    0.0000 C   0  0  0  0  0  0  0  0  0  0  0  0
    2.8417   -1.2223    0.0000 C   0  0  0  0  0  0  0  0  0  0  0  0
    0.7333   -1.6195    0.0000 C   0  0  0  0  0  0  0  0  0  0  0  0
    2.1083    0.0000    0.0000 C   0  0  0  0  0  0  0  0  0  0  0  0
    2.7806   -3.6667    0.0000 C   0  0  0  0  0  0  0  0  0  0  0  0
    0.7333    0.0000    0.0000 C   0  0  0  0  0  0  0  0  0  0  0  0
    2.8417   -0.3972    0.0000 C   0  0  0  0  0  0  0  0  0  0  0  0
    0.0000   -1.2223    0.0000 C   0  0  0  0  0  0  0  0  0  0  0  0
    2.0778   -4.0640    0.0000 C   0  0  0  0  0  0  0  0  0  0  0  0
    3.4834   -4.0945    0.0000 C   0  0  0  0  0  0  0  0  0  0  0  0
    2.0473   -4.8890    0.0000 C   0  0  0  0  0  0  0  0  0  0  0  0
    3.4528   -4.9195    0.0000 C   0  0  0  0  0  0  0  0  0  0  0  0
    2.7500   -6.1112    0.0000 C   0  0  0  0  0  0  0  0  0  0  0  0
  1  8  2  0  0  0  0
  2  8  1  0  0  0  0
  2 12  1  0  0  0  0
  3 13  2  0  0  0  0
  3 15  1  0  0  0  0
  4 18  1  0  0  0  0
  4 19  1  0  0  0  0
  4 20  1  0  0  0  0
  5  6  1  0  0  0  0
  5  7  2  0  0  0  0
  5 10  1  0  0  0  0
  6  8  1  0  0  0  0
  6  9  2  0  0  0  0
  7 11  1  0  0  0  0
  7 13  1  0  0  0  0
  9 14  1  0  0  0  0
 10 15  2  0  0  0  0
 11 14  2  0  0  0  0
 12 16  1  0  0  0  0
 12 17  1  0  0  0  0
 16 18  1  0  0  0  0
 17 19  1  0  0  0  0
M  END
> <PUBCHEM_COMPOUND_ID_TYPE>
0

> <PUBCHEM_TOTAL_CHARGE>
0

> <PUBCHEM_SUBSTANCE_ID>
310933706

> <PUBCHEM_SUBSTANCE_VERSION>
1

> <PUBCHEM_EXT_DATASOURCE_NAME>
4488

> <PUBCHEM_EXT_DATASOURCE_REGID>
SCHEMBL16111141

> <PUBCHEM_SUBSTANCE_COMMENT>
InChI=1S/C16H19N3O/c1-19-9-6-13(7-10-19)18-16(20)15-4-2-3-12-11-17-8-5-14(12)15/h2-5,8,11,13H,6-7,9-10H2,1H3,(H,18,20)
InChIKey=MZPDILKOCLNAPB-UHFFFAOYSA-N

> <PUBCHEM_SUBSTANCE_SYNONYM>
SCHEMBL16111141

> <PUBCHEM_XREF_EXT_ID>
SCHEMBL16111141

> <PUBCHEM_EXT_DATASOURCE_URL>
https://www.surechembl.org/

> <PUBCHEM_EXT_SUBSTANCE_URL>
https://www.surechembl.org/chemical/SCHEMBL16111141

> <PUBCHEM_CID_ASSOCIATIONS>
117602072  1

> <PUBCHEM_COORDINATE_TYPE>
1
3

$$$$
