310944631
  -OEChem-07211613022D

 31 35  0     0  0  0  0  0  0999 V2000
    1.4645    1.2319    0.0000 F   0  0  0  0  0  0  0  0  0  0  0  0
    3.6182    0.8012    0.0000 N   0  0  0  0  0  0  0  0  0  0  0  0
    1.4645   -2.8859    0.0000 N   0  0  0  0  0  0  0  0  0  0  0  0
   -0.0172    0.4221    0.0000 C   0  0  0  0  0  0  0  0  0  0  0  0
   -0.0172    1.2491    0.0000 C   0  0  0  0  0  0  0  0  0  0  0  0
   -0.7064    0.0258    0.0000 C   0  0  0  0  0  0  0  0  0  0  0  0
   -1.4472    1.2491    0.0000 C   0  0  0  0  0  0  0  0  0  0  0  0
   -0.7064    1.6626    0.0000 C   0  0  0  0  0  0  0  0  0  0  0  0
   -1.4472    0.4221    0.0000 C   0  0  0  0  0  0  0  0  0  0  0  0
    0.7409    0.0086    0.0000 C   0  0  0  0  0  0  0  0  0  0  0  0
   -2.1881    1.6626    0.0000 C   0  0  0  0  0  0  0  0  0  0  0  0
    1.4645    0.4049    0.0000 C   0  0  0  0  0  0  0  0  0  0  0  0
    0.7064    1.6454    0.0000 C   0  0  0  0  0  0  0  0  0  0  0  0
   -0.7409   -0.8012    0.0000 C   0  0  0  0  0  0  0  0  0  0  0  0
   -0.6892    2.4724    0.0000 C   0  0  0  0  0  0  0  0  0  0  0  0
   -2.1537   -0.0086    0.0000 C   0  0  0  0  0  0  0  0  0  0  0  0
    0.7581   -0.8184    0.0000 C   0  0  0  0  0  0  0  0  0  0  0  0
    2.1881    0.0086    0.0000 C   0  0  0  0  0  0  0  0  0  0  0  0
    1.4645   -1.2147    0.0000 C   0  0  0  0  0  0  0  0  0  0  0  0
    2.1709   -0.8012    0.0000 C   0  0  0  0  0  0  0  0  0  0  0  0
   -1.4128   -1.1974    0.0000 C   0  0  0  0  0  0  0  0  0  0  0  0
    0.7237    2.4552    0.0000 C   0  0  0  0  0  0  0  0  0  0  0  0
   -2.1365   -0.8012    0.0000 C   0  0  0  0  0  0  0  0  0  0  0  0
    0.0172    2.8686    0.0000 C   0  0  0  0  0  0  0  0  0  0  0  0
   -2.1709    2.4724    0.0000 C   0  0  0  0  0  0  0  0  0  0  0  0
   -2.8945    1.2664    0.0000 C   0  0  0  0  0  0  0  0  0  0  0  0
    2.9117    0.4221    0.0000 C   0  0  0  0  0  0  0  0  0  0  0  0
    1.4645   -2.0762    0.0000 C   0  0  0  0  0  0  0  0  0  0  0  0
   -2.8945    2.8859    0.0000 C   0  0  0  0  0  0  0  0  0  0  0  0
   -3.6182    1.6626    0.0000 C   0  0  0  0  0  0  0  0  0  0  0  0
   -3.6009    2.4896    0.0000 C   0  0  0  0  0  0  0  0  0  0  0  0
  1 12  1  0  0  0  0
  2 27  3  0  0  0  0
  3 28  3  0  0  0  0
  4  5  2  0  0  0  0
  4  6  1  0  0  0  0
  4 10  1  0  0  0  0
  5  8  1  0  0  0  0
  5 13  1  0  0  0  0
  6  9  1  0  0  0  0
  6 14  2  0  0  0  0
  7  8  2  0  0  0  0
  7  9  1  0  0  0  0
  7 11  1  0  0  0  0
  8 15  1  0  0  0  0
  9 16  2  0  0  0  0
 10 12  1  0  0  0  0
 10 17  2  0  0  0  0
 11 25  2  0  0  0  0
 11 26  1  0  0  0  0
 12 18  2  0  0  0  0
 13 22  2  0  0  0  0
 14 21  1  0  0  0  0
 15 24  2  0  0  0  0
 16 23  1  0  0  0  0
 17 19  1  0  0  0  0
 18 20  1  0  0  0  0
 18 27  1  0  0  0  0
 19 20  2  0  0  0  0
 19 28  1  0  0  0  0
 21 23  2  0  0  0  0
 22 24  1  0  0  0  0
 25 29  1  0  0  0  0
 26 30  2  0  0  0  0
 29 31  2  0  0  0  0
 30 31  1  0  0  0  0
M  END
> <PUBCHEM_COMPOUND_ID_TYPE>
0

> <PUBCHEM_TOTAL_CHARGE>
0

> <PUBCHEM_SUBSTANCE_ID>
310944631

> <PUBCHEM_SUBSTANCE_VERSION>
1

> <PUBCHEM_EXT_DATASOURCE_NAME>
4488

> <PUBCHEM_EXT_DATASOURCE_REGID>
SCHEMBL16122709

> <PUBCHEM_SUBSTANCE_COMMENT>
InChI=1S/C28H15FN2/c29-28-20(17-31)14-18(16-30)15-25(28)27-23-12-6-4-10-21(23)26(19-8-2-1-3-9-19)22-11-5-7-13-24(22)27/h1-15H
InChIKey=CBIOPVHSLFFRFK-UHFFFAOYSA-N

> <PUBCHEM_SUBSTANCE_SYNONYM>
SCHEMBL16122709

> <PUBCHEM_XREF_EXT_ID>
SCHEMBL16122709

> <PUBCHEM_EXT_DATASOURCE_URL>
https://www.surechembl.org/

> <PUBCHEM_EXT_SUBSTANCE_URL>
https://www.surechembl.org/chemical/SCHEMBL16122709

> <PUBCHEM_CID_ASSOCIATIONS>
117610861  1

> <PUBCHEM_COORDINATE_TYPE>
1
3

$$$$
