310942482
  -OEChem-07211613022D

 40 44  0     1  0  0  0  0  0999 V2000
   -2.9223    0.5557    0.0000 F   0  0  0  0  0  0  0  0  0  0  0  0
    3.6214   -0.5915    0.0000 F   0  0  0  0  0  0  0  0  0  0  0  0
   -2.9223   -2.7967    0.0000 F   0  0  0  0  0  0  0  0  0  0  0  0
    0.6991    1.4521    0.0000 O   0  0  0  0  0  0  0  0  0  0  0  0
   -0.1434   -1.4521    0.0000 O   0  0  0  0  0  0  0  0  0  0  0  0
   -0.5557   -3.6214    0.0000 O   0  0  0  0  0  0  0  0  0  0  0  0
    1.1116   -0.7171    0.0000 N   0  0  0  0  0  0  0  0  0  0  0  0
   -0.5557    0.7350    0.0000 N   0  0  0  0  0  0  0  0  0  0  0  0
   -0.6991   -0.6095    0.0000 N   0  0  0  0  0  0  0  0  0  0  0  0
    1.1116   -2.1692    0.0000 N   0  0  0  0  0  0  0  0  0  0  0  0
    2.9940   -2.6533    0.0000 N   0  0  0  0  0  0  0  0  0  0  0  0
    1.1474    0.7350    0.0000 C   0  0  0  0  0  0  0  0  0  0  0  0
    0.6991    0.0000    0.0000 C   0  0  3  0  0  0  0  0  0  0  0  0
   -0.1434    0.0359    0.0000 C   0  0  0  0  0  0  0  0  0  0  0  0
    1.8465    1.1295    0.0000 C   0  0  0  0  0  0  0  0  0  0  0  0
    1.8465    0.3586    0.0000 C   0  0  0  0  0  0  0  0  0  0  0  0
   -1.4700   -0.2690    0.0000 C   0  0  0  0  0  0  0  0  0  0  0  0
   -1.3625    0.5557    0.0000 C   0  0  0  0  0  0  0  0  0  0  0  0
    0.7171   -1.4521    0.0000 C   0  0  0  0  0  0  0  0  0  0  0  0
    1.9541   -0.7350    0.0000 C   0  0  0  0  0  0  0  0  0  0  0  0
   -2.1871   -0.6991    0.0000 C   0  0  0  0  0  0  0  0  0  0  0  0
   -0.1434    1.4700    0.0000 C   0  0  0  0  0  0  0  0  0  0  0  0
    2.3844   -1.4342    0.0000 C   0  0  3  0  0  0  0  0  0  0  0  0
   -2.9223   -0.2868    0.0000 C   0  0  0  0  0  0  0  0  0  0  0  0
   -0.5557    2.1871    0.0000 C   0  0  0  0  0  0  0  0  0  0  0  0
   -2.2051   -1.5239    0.0000 C   0  0  0  0  0  0  0  0  0  0  0  0
    3.2090   -1.3266    0.0000 C   0  0  3  0  0  0  0  0  0  0  0  0
    2.2768   -2.2409    0.0000 C   0  0  0  0  0  0  0  0  0  0  0  0
   -2.9043   -1.9362    0.0000 C   0  0  0  0  0  0  0  0  0  0  0  0
   -3.6214   -0.6991    0.0000 C   0  0  0  0  0  0  0  0  0  0  0  0
    0.6991   -2.9043    0.0000 C   0  0  3  0  0  0  0  0  0  0  0  0
   -3.6214   -1.5417    0.0000 C   0  0  0  0  0  0  0  0  0  0  0  0
    3.5855   -2.0438    0.0000 C   0  0  0  0  0  0  0  0  0  0  0  0
   -1.3983    2.2051    0.0000 C   0  0  0  0  0  0  0  0  0  0  0  0
   -0.1434    2.9223    0.0000 C   0  0  0  0  0  0  0  0  0  0  0  0
   -1.7928    2.9043    0.0000 C   0  0  0  0  0  0  0  0  0  0  0  0
   -0.5557    3.6214    0.0000 C   0  0  0  0  0  0  0  0  0  0  0  0
   -0.1255   -2.8864    0.0000 C   0  0  0  0  0  0  0  0  0  0  0  0
    1.1295   -3.6035    0.0000 C   0  0  0  0  0  0  0  0  0  0  0  0
   -1.3983    3.6214    0.0000 C   0  0  0  0  0  0  0  0  0  0  0  0
  1 24  1  0  0  0  0
 27  2  1  1  0  0  0
  3 29  1  0  0  0  0
  4 12  1  0  0  0  0
  5 19  2  0  0  0  0
  6 38  1  0  0  0  0
 13  7  1  1  0  0  0
  7 19  1  0  0  0  0
  7 20  1  0  0  0  0
  8 14  1  0  0  0  0
  8 18  1  0  0  0  0
  8 22  1  0  0  0  0
  9 14  2  0  0  0  0
  9 17  1  0  0  0  0
 10 19  1  0  0  0  0
 10 31  1  0  0  0  0
 11 28  1  0  0  0  0
 11 33  1  0  0  0  0
 12 13  1  0  0  0  0
 12 15  1  0  0  0  0
 12 16  1  0  0  0  0
 13 14  1  0  0  0  0
 15 16  1  0  0  0  0
 17 18  2  0  0  0  0
 17 21  1  0  0  0  0
 23 20  1  1  0  0  0
 21 24  1  0  0  0  0
 21 26  2  0  0  0  0
 22 25  1  0  0  0  0
 23 27  1  0  0  0  0
 23 28  1  0  0  0  0
 24 30  2  0  0  0  0
 25 34  2  0  0  0  0
 25 35  1  0  0  0  0
 26 29  1  0  0  0  0
 27 33  1  0  0  0  0
 29 32  2  0  0  0  0
 30 32  1  0  0  0  0
 31 38  1  0  0  0  0
 31 39  1  1  0  0  0
 34 36  1  0  0  0  0
 35 37  2  0  0  0  0
 36 40  2  0  0  0  0
 37 40  1  0  0  0  0
M  END
> <PUBCHEM_COMPOUND_ID_TYPE>
0

> <PUBCHEM_TOTAL_CHARGE>
0

> <PUBCHEM_SUBSTANCE_ID>
310942482

> <PUBCHEM_SUBSTANCE_VERSION>
1

> <PUBCHEM_EXT_DATASOURCE_NAME>
4488

> <PUBCHEM_EXT_DATASOURCE_REGID>
SCHEMBL16120518

> <PUBCHEM_SUBSTANCE_COMMENT>
InChI=1S/C29H34F3N5O3/c1-18(17-38)34-28(39)37(15-20-12-33-13-24(20)32)26(29(40)9-10-29)27-35-25(22-11-21(30)7-8-23(22)31)16-36(27)14-19-5-3-2-4-6-19/h2-8,11,16,18,20,24,26,33,38,40H,9-10,12-15,17H2,1H3,(H,34,39)/t18-,20-,24-,26-/m0/s1
InChIKey=ZBPOVLLMNCNTCN-ZFXPPDBESA-N

> <PUBCHEM_SUBSTANCE_SYNONYM>
SCHEMBL16120518

> <PUBCHEM_XREF_EXT_ID>
SCHEMBL16120518

> <PUBCHEM_EXT_DATASOURCE_URL>
https://www.surechembl.org/

> <PUBCHEM_EXT_SUBSTANCE_URL>
https://www.surechembl.org/chemical/SCHEMBL16120518

> <PUBCHEM_CID_ASSOCIATIONS>
117609053  1

> <PUBCHEM_COORDINATE_TYPE>
1
3

> <PUBCHEM_BONDANNOTATIONS>
27  2  5
23  20  5
31  39  5
13  7  5

$$$$
