310939285
  -OEChem-07211613022D

 24 26  0     0  0  0  0  0  0999 V2000
    0.8250    0.3572    0.0000 Cl  0  0  0  0  0  0  0  0  0  0  0  0
    0.8250   -2.5006    0.0000 F   0  0  0  0  0  0  0  0  0  0  0  0
    1.6500   -1.0717    0.0000 O   0  0  0  0  0  0  0  0  0  0  0  0
   -1.6500    0.3572    0.0000 N   0  0  0  0  0  0  0  0  0  0  0  0
   -3.3000    3.2151    0.0000 N   0  0  0  0  0  0  0  0  0  0  0  0
    0.8250   -1.0717    0.0000 C   0  0  0  0  0  0  0  0  0  0  0  0
    0.4125   -0.3572    0.0000 C   0  0  0  0  0  0  0  0  0  0  0  0
   -0.4125   -0.3572    0.0000 C   0  0  0  0  0  0  0  0  0  0  0  0
    0.4125   -1.7862    0.0000 C   0  0  0  0  0  0  0  0  0  0  0  0
   -0.8250   -1.0717    0.0000 C   0  0  0  0  0  0  0  0  0  0  0  0
   -0.4125   -1.7862    0.0000 C   0  0  0  0  0  0  0  0  0  0  0  0
   -0.8250    0.3572    0.0000 C   0  0  0  0  0  0  0  0  0  0  0  0
    2.0625   -1.7862    0.0000 C   0  0  0  0  0  0  0  0  0  0  0  0
   -2.0625    1.0717    0.0000 C   0  0  0  0  0  0  0  0  0  0  0  0
    1.6500   -2.5006    0.0000 C   0  0  0  0  0  0  0  0  0  0  0  0
    2.8875   -1.7862    0.0000 C   0  0  0  0  0  0  0  0  0  0  0  0
   -2.8875    1.0717    0.0000 C   0  0  0  0  0  0  0  0  0  0  0  0
   -1.6500    1.7862    0.0000 C   0  0  0  0  0  0  0  0  0  0  0  0
   -2.8875    2.5006    0.0000 C   0  0  0  0  0  0  0  0  0  0  0  0
    2.0625   -3.2151    0.0000 C   0  0  0  0  0  0  0  0  0  0  0  0
    3.3000   -2.5006    0.0000 C   0  0  0  0  0  0  0  0  0  0  0  0
   -2.0625    2.5006    0.0000 C   0  0  0  0  0  0  0  0  0  0  0  0
   -3.3000    1.7862    0.0000 C   0  0  0  0  0  0  0  0  0  0  0  0
    2.8875   -3.2151    0.0000 C   0  0  0  0  0  0  0  0  0  0  0  0
  1  7  1  0  0  0  0
  2  9  1  0  0  0  0
  3  6  1  0  0  0  0
  3 13  1  0  0  0  0
  4 12  1  0  0  0  0
 14  4  1  1  0  0  0
 19  5  1  6  0  0  0
  6  7  2  0  0  0  0
  6  9  1  0  0  0  0
  7  8  1  0  0  0  0
  8 10  2  0  0  0  0
  8 12  1  0  0  0  0
  9 11  2  0  0  0  0
 10 11  1  0  0  0  0
 13 15  2  0  0  0  0
 13 16  1  0  0  0  0
 14 17  1  0  0  0  0
 14 18  1  0  0  0  0
 15 20  1  0  0  0  0
 16 21  2  0  0  0  0
 17 23  1  0  0  0  0
 18 22  1  0  0  0  0
 19 22  1  0  0  0  0
 19 23  1  0  0  0  0
 20 24  2  0  0  0  0
 21 24  1  0  0  0  0
M  END
> <PUBCHEM_COMPOUND_ID_TYPE>
0

> <PUBCHEM_TOTAL_CHARGE>
0

> <PUBCHEM_SUBSTANCE_ID>
310939285

> <PUBCHEM_SUBSTANCE_VERSION>
1

> <PUBCHEM_EXT_DATASOURCE_NAME>
4488

> <PUBCHEM_EXT_DATASOURCE_REGID>
SCHEMBL16117206

> <PUBCHEM_SUBSTANCE_COMMENT>
InChI=1S/C19H22ClFN2O/c20-18-13(12-23-15-9-7-14(22)8-10-15)6-11-17(21)19(18)24-16-4-2-1-3-5-16/h1-6,11,14-15,23H,7-10,12,22H2/t14-,15-
InChIKey=LXZZKMKDVFYKER-SHTZXODSSA-N

> <PUBCHEM_SUBSTANCE_SYNONYM>
SCHEMBL16117206

> <PUBCHEM_XREF_EXT_ID>
SCHEMBL16117206

> <PUBCHEM_EXT_DATASOURCE_URL>
https://www.surechembl.org/

> <PUBCHEM_EXT_SUBSTANCE_URL>
https://www.surechembl.org/chemical/SCHEMBL16117206

> <PUBCHEM_CID_ASSOCIATIONS>
117606626  1

> <PUBCHEM_COORDINATE_TYPE>
1
3

> <PUBCHEM_BONDANNOTATIONS>
14  4  5
19  5  6

$$$$
