310942240
  -OEChem-07211613022D

 28 30  0     1  0  0  0  0  0999 V2000
   -2.2839    0.0503    0.0000 F   0  0  0  0  0  0  0  0  0  0  0  0
   -1.9620   -3.2095    0.0000 F   0  0  0  0  0  0  0  0  0  0  0  0
   -0.0101    0.4528    0.0000 N   0  0  0  0  0  0  0  0  0  0  0  0
   -0.0101   -0.8753    0.0000 N   0  0  0  0  0  0  0  0  0  0  0  0
    1.7004   -0.9156    0.0000 N   0  0  0  0  0  0  0  0  0  0  0  0
    0.4729   -0.1912    0.0000 C   0  0  0  0  0  0  0  0  0  0  0  0
   -0.7949   -0.6138    0.0000 C   0  0  0  0  0  0  0  0  0  0  0  0
    1.2979   -0.2113    0.0000 C   0  0  3  0  0  0  0  0  0  0  0  0
   -1.4588   -1.0967    0.0000 C   0  0  0  0  0  0  0  0  0  0  0  0
   -0.7747    0.2113    0.0000 C   0  0  0  0  0  0  0  0  0  0  0  0
    1.7004    0.5131    0.0000 C   0  0  0  0  0  0  0  0  0  0  0  0
   -2.2236   -0.7546    0.0000 C   0  0  0  0  0  0  0  0  0  0  0  0
    0.2515    1.2174    0.0000 C   0  0  0  0  0  0  0  0  0  0  0  0
   -1.3784   -1.9217    0.0000 C   0  0  0  0  0  0  0  0  0  0  0  0
   -0.3119    1.8412    0.0000 C   0  0  0  0  0  0  0  0  0  0  0  0
   -2.0424   -2.4046    0.0000 C   0  0  0  0  0  0  0  0  0  0  0  0
    2.5254    0.4930    0.0000 C   0  0  0  0  0  0  0  0  0  0  0  0
   -2.8675   -1.2375    0.0000 C   0  0  0  0  0  0  0  0  0  0  0  0
    0.9961    0.9156    0.0000 C   0  0  0  0  0  0  0  0  0  0  0  0
    1.7004    1.3381    0.0000 C   0  0  0  0  0  0  0  0  0  0  0  0
   -2.7870   -2.0424    0.0000 C   0  0  0  0  0  0  0  0  0  0  0  0
   -0.0503    2.6259    0.0000 C   0  0  0  0  0  0  0  0  0  0  0  0
   -1.0967    1.6802    0.0000 C   0  0  0  0  0  0  0  0  0  0  0  0
    2.7668   -0.9357    0.0000 C   0  0  0  0  0  0  0  0  0  0  0  0
    2.8675    1.2577    0.0000 C   0  0  0  0  0  0  0  0  0  0  0  0
   -0.5936    3.2095    0.0000 C   0  0  0  0  0  0  0  0  0  0  0  0
   -1.6400    2.2839    0.0000 C   0  0  0  0  0  0  0  0  0  0  0  0
   -1.3784    3.0486    0.0000 C   0  0  0  0  0  0  0  0  0  0  0  0
  1 12  1  0  0  0  0
  2 16  1  0  0  0  0
  3  6  1  0  0  0  0
  3 10  1  0  0  0  0
  3 13  1  0  0  0  0
  4  6  2  0  0  0  0
  4  7  1  0  0  0  0
  8  5  1  1  0  0  0
  5 24  1  0  0  0  0
  6  8  1  0  0  0  0
  7  9  1  0  0  0  0
  7 10  2  0  0  0  0
  8 11  1  0  0  0  0
  9 12  2  0  0  0  0
  9 14  1  0  0  0  0
 11 17  1  0  0  0  0
 11 19  1  0  0  0  0
 11 20  1  0  0  0  0
 12 18  1  0  0  0  0
 13 15  1  0  0  0  0
 14 16  2  0  0  0  0
 15 22  2  0  0  0  0
 15 23  1  0  0  0  0
 16 21  1  0  0  0  0
 17 25  2  0  0  0  0
 18 21  2  0  0  0  0
 22 26  1  0  0  0  0
 23 27  2  0  0  0  0
 26 28  2  0  0  0  0
 27 28  1  0  0  0  0
M  END
> <PUBCHEM_COMPOUND_ID_TYPE>
0

> <PUBCHEM_TOTAL_CHARGE>
0

> <PUBCHEM_SUBSTANCE_ID>
310942240

> <PUBCHEM_SUBSTANCE_VERSION>
1

> <PUBCHEM_EXT_DATASOURCE_NAME>
4488

> <PUBCHEM_EXT_DATASOURCE_REGID>
SCHEMBL16120275

> <PUBCHEM_SUBSTANCE_COMMENT>
InChI=1S/C23H25F2N3/c1-5-23(2,3)21(26-4)22-27-20(18-13-17(24)11-12-19(18)25)15-28(22)14-16-9-7-6-8-10-16/h5-13,15,21,26H,1,14H2,2-4H3/t21-/m0/s1
InChIKey=MLSJEXGKORLXIM-NRFANRHFSA-N

> <PUBCHEM_SUBSTANCE_SYNONYM>
SCHEMBL16120275

> <PUBCHEM_XREF_EXT_ID>
SCHEMBL16120275

> <PUBCHEM_EXT_DATASOURCE_URL>
https://www.surechembl.org/

> <PUBCHEM_EXT_SUBSTANCE_URL>
https://www.surechembl.org/chemical/SCHEMBL16120275

> <PUBCHEM_CID_ASSOCIATIONS>
117608891  1

> <PUBCHEM_COORDINATE_TYPE>
1
3

> <PUBCHEM_BONDANNOTATIONS>
8  5  5

$$$$
