310935629
  -OEChem-07211613022D

 11 10  0     0  0  0  0  0  0999 V2000
    0.7155   -1.2322    0.0000 S   0  0  0  0  0  0  0  0  0  0  0  0
    0.3047   -0.5300    0.0000 O   0  0  0  0  0  0  0  0  0  0  0  0
    0.0000   -1.6430    0.0000 O   0  0  0  0  0  0  0  0  0  0  0  0
    2.8487    0.0000    0.0000 O   0  0  0  0  0  0  0  0  0  0  0  0
    1.1262   -1.9610    0.0000 N   0  0  0  0  0  0  0  0  0  0  0  0
    1.4310   -0.8215    0.0000 N   0  0  0  0  0  0  0  0  0  0  0  0
    3.5642   -1.2322    0.0000 N   0  0  0  0  0  0  0  0  0  0  0  0
    2.1332   -1.2322    0.0000 C   0  0  0  0  0  0  0  0  0  0  0  0
    2.8487   -0.8215    0.0000 C   0  0  0  0  0  0  0  0  0  0  0  0
    0.7022   -2.6499    0.0000 C   0  0  0  0  0  0  0  0  0  0  0  0
    1.9477   -1.9610    0.0000 C   0  0  0  0  0  0  0  0  0  0  0  0
  1  2  2  0  0  0  0
  1  3  2  0  0  0  0
  1  5  1  0  0  0  0
  1  6  1  0  0  0  0
  4  9  2  0  0  0  0
  5 10  1  0  0  0  0
  5 11  1  0  0  0  0
  6  8  1  0  0  0  0
  7  9  1  0  0  0  0
  8  9  1  0  0  0  0
M  END
> <PUBCHEM_COMPOUND_ID_TYPE>
0

> <PUBCHEM_TOTAL_CHARGE>
0

> <PUBCHEM_SUBSTANCE_ID>
310935629

> <PUBCHEM_SUBSTANCE_VERSION>
1

> <PUBCHEM_EXT_DATASOURCE_NAME>
4488

> <PUBCHEM_EXT_DATASOURCE_REGID>
SCHEMBL16113207

> <PUBCHEM_SUBSTANCE_COMMENT>
InChI=1S/C4H11N3O3S/c1-7(2)11(9,10)6-3-4(5)8/h6H,3H2,1-2H3,(H2,5,8)
InChIKey=SETAOVWIYVHVMT-UHFFFAOYSA-N

> <PUBCHEM_SUBSTANCE_SYNONYM>
SCHEMBL16113207

> <PUBCHEM_XREF_EXT_ID>
SCHEMBL16113207

> <PUBCHEM_EXT_DATASOURCE_URL>
https://www.surechembl.org/

> <PUBCHEM_EXT_SUBSTANCE_URL>
https://www.surechembl.org/chemical/SCHEMBL16113207

> <PUBCHEM_CID_ASSOCIATIONS>
64590831  1

> <PUBCHEM_COORDINATE_TYPE>
1
3

$$$$
