310935032
  -OEChem-07211613022D

 15 15  0     0  0  0  0  0  0999 V2000
    0.7186   -5.3229    0.0000 F   0  0  0  0  0  0  0  0  0  0  0  0
    2.1558   -2.8478    0.0000 O   0  0  0  0  0  0  0  0  0  0  0  0
    3.5663   -2.8478    0.0000 N   0  0  0  0  0  0  0  0  0  0  0  0
    2.1558   -3.6728    0.0000 C   0  0  0  0  0  0  0  0  0  0  0  0
    2.8478   -4.0986    0.0000 C   0  0  0  0  0  0  0  0  0  0  0  0
    1.4372   -4.0986    0.0000 C   0  0  0  0  0  0  0  0  0  0  0  0
    1.4372   -4.9237    0.0000 C   0  0  0  0  0  0  0  0  0  0  0  0
    2.8478   -4.9237    0.0000 C   0  0  0  0  0  0  0  0  0  0  0  0
    2.1558   -5.3229    0.0000 C   0  0  0  0  0  0  0  0  0  0  0  0
    3.5663   -3.6728    0.0000 C   0  0  0  0  0  0  0  0  0  0  0  0
    1.4372   -2.4485    0.0000 C   0  0  0  0  0  0  0  0  0  0  0  0
    1.4372   -1.6235    0.0000 C   0  0  0  0  0  0  0  0  0  0  0  0
    0.7186   -1.2243    0.0000 C   0  0  0  0  0  0  0  0  0  0  0  0
    0.7186   -0.3992    0.0000 C   0  0  0  0  0  0  0  0  0  0  0  0
    0.0000    0.0000    0.0000 C   0  0  0  0  0  0  0  0  0  0  0  0
  1  7  1  0  0  0  0
  2  4  1  0  0  0  0
  2 11  1  0  0  0  0
  3 10  3  0  0  0  0
  4  5  2  0  0  0  0
  4  6  1  0  0  0  0
  5  8  1  0  0  0  0
  5 10  1  0  0  0  0
  6  7  2  0  0  0  0
  7  9  1  0  0  0  0
  8  9  2  0  0  0  0
 11 12  1  0  0  0  0
 12 13  1  0  0  0  0
 13 14  1  0  0  0  0
 14 15  1  0  0  0  0
M  END
> <PUBCHEM_COMPOUND_ID_TYPE>
0

> <PUBCHEM_TOTAL_CHARGE>
0

> <PUBCHEM_SUBSTANCE_ID>
310935032

> <PUBCHEM_SUBSTANCE_VERSION>
1

> <PUBCHEM_EXT_DATASOURCE_NAME>
4488

> <PUBCHEM_EXT_DATASOURCE_REGID>
SCHEMBL16112551

> <PUBCHEM_SUBSTANCE_COMMENT>
InChI=1S/C12H14FNO/c1-2-3-4-7-15-12-8-11(13)6-5-10(12)9-14/h5-6,8H,2-4,7H2,1H3
InChIKey=DLZJRAJLGDDYER-UHFFFAOYSA-N

> <PUBCHEM_SUBSTANCE_SYNONYM>
SCHEMBL16112551

> <PUBCHEM_XREF_EXT_ID>
SCHEMBL16112551

> <PUBCHEM_EXT_DATASOURCE_URL>
https://www.surechembl.org/

> <PUBCHEM_EXT_SUBSTANCE_URL>
https://www.surechembl.org/chemical/SCHEMBL16112551

> <PUBCHEM_CID_ASSOCIATIONS>
117603138  1

> <PUBCHEM_COORDINATE_TYPE>
1
3

$$$$
