310946102
  -OEChem-07211613022D

 51 60  0     0  0  0  0  0  0999 V2000
    1.6216   -1.9069    0.0000 O   0  0  0  0  0  0  0  0  0  0  0  0
    0.6390   -3.4060    0.0000 N   0  0  0  0  0  0  0  0  0  0  0  0
   -1.8179   -5.0065    0.0000 C   0  0  0  0  0  0  0  0  0  0  0  0
   -1.0110   -4.8350    0.0000 C   0  0  0  0  0  0  0  0  0  0  0  0
   -1.9042   -5.8270    0.0000 C   0  0  0  0  0  0  0  0  0  0  0  0
   -0.5985   -5.5494    0.0000 C   0  0  0  0  0  0  0  0  0  0  0  0
   -1.1505   -6.1625    0.0000 C   0  0  0  0  0  0  0  0  0  0  0  0
   -1.8179   -4.1815    0.0000 C   0  0  0  0  0  0  0  0  0  0  0  0
   -2.6429   -5.0065    0.0000 C   0  0  0  0  0  0  0  0  0  0  0  0
   -0.5985   -4.1205    0.0000 C   0  0  0  0  0  0  0  0  0  0  0  0
    0.2265   -4.1205    0.0000 C   0  0  0  0  0  0  0  0  0  0  0  0
   -2.5716   -6.3119    0.0000 C   0  0  0  0  0  0  0  0  0  0  0  0
    0.2265   -5.5494    0.0000 C   0  0  0  0  0  0  0  0  0  0  0  0
   -1.0643   -6.9830    0.0000 C   0  0  0  0  0  0  0  0  0  0  0  0
    0.6390   -4.8350    0.0000 C   0  0  0  0  0  0  0  0  0  0  0  0
   -1.1035   -3.7690    0.0000 C   0  0  0  0  0  0  0  0  0  0  0  0
   -3.0554   -4.2920    0.0000 C   0  0  0  0  0  0  0  0  0  0  0  0
   -2.5324   -3.7690    0.0000 C   0  0  0  0  0  0  0  0  0  0  0  0
   -3.0554   -5.7210    0.0000 C   0  0  0  0  0  0  0  0  0  0  0  0
    1.4640   -3.4060    0.0000 C   0  0  0  0  0  0  0  0  0  0  0  0
    1.8765   -2.6915    0.0000 C   0  0  0  0  0  0  0  0  0  0  0  0
   -2.4854   -7.1324    0.0000 C   0  0  0  0  0  0  0  0  0  0  0  0
   -1.7317   -7.4679    0.0000 C   0  0  0  0  0  0  0  0  0  0  0  0
    0.2265   -2.6915    0.0000 C   0  0  0  0  0  0  0  0  0  0  0  0
    2.7015   -2.6915    0.0000 C   0  0  0  0  0  0  0  0  0  0  0  0
    2.9565   -1.9069    0.0000 C   0  0  0  0  0  0  0  0  0  0  0  0
   -1.1035   -2.9440    0.0000 C   0  0  0  0  0  0  0  0  0  0  0  0
   -3.8804   -4.2920    0.0000 C   0  0  0  0  0  0  0  0  0  0  0  0
   -2.5324   -2.9440    0.0000 C   0  0  0  0  0  0  0  0  0  0  0  0
   -3.8804   -5.7210    0.0000 C   0  0  0  0  0  0  0  0  0  0  0  0
    2.2890   -1.4220    0.0000 C   0  0  0  0  0  0  0  0  0  0  0  0
    1.8765   -4.1205    0.0000 C   0  0  0  0  0  0  0  0  0  0  0  0
   -1.8179   -2.5315    0.0000 C   0  0  0  0  0  0  0  0  0  0  0  0
   -4.2929   -5.0065    0.0000 C   0  0  0  0  0  0  0  0  0  0  0  0
    3.1140   -3.4060    0.0000 C   0  0  0  0  0  0  0  0  0  0  0  0
    0.6390   -1.9771    0.0000 C   0  0  0  0  0  0  0  0  0  0  0  0
   -0.5985   -2.6915    0.0000 C   0  0  0  0  0  0  0  0  0  0  0  0
    2.7015   -4.1205    0.0000 C   0  0  0  0  0  0  0  0  0  0  0  0
    3.7101   -1.5714    0.0000 C   0  0  0  0  0  0  0  0  0  0  0  0
    2.3753   -0.6015    0.0000 C   0  0  0  0  0  0  0  0  0  0  0  0
    0.2265   -1.2626    0.0000 C   0  0  0  0  0  0  0  0  0  0  0  0
   -1.0110   -1.9771    0.0000 C   0  0  0  0  0  0  0  0  0  0  0  0
   -0.5985   -1.2626    0.0000 C   0  0  0  0  0  0  0  0  0  0  0  0
    3.7964   -0.7509    0.0000 C   0  0  0  0  0  0  0  0  0  0  0  0
    3.1289   -0.2660    0.0000 C   0  0  0  0  0  0  0  0  0  0  0  0
   -1.0110   -0.5481    0.0000 C   0  0  0  0  0  0  0  0  0  0  0  0
   -0.5985    0.1663    0.0000 C   0  0  0  0  0  0  0  0  0  0  0  0
   -1.8360   -0.5481    0.0000 C   0  0  0  0  0  0  0  0  0  0  0  0
   -1.0110    0.8808    0.0000 C   0  0  0  0  0  0  0  0  0  0  0  0
   -2.2485    0.1663    0.0000 C   0  0  0  0  0  0  0  0  0  0  0  0
   -1.8360    0.8808    0.0000 C   0  0  0  0  0  0  0  0  0  0  0  0
  1 21  1  0  0  0  0
  1 31  1  0  0  0  0
  2 11  1  0  0  0  0
  2 20  1  0  0  0  0
  2 24  1  0  0  0  0
  3  4  1  0  0  0  0
  3  5  1  0  0  0  0
  3  8  1  0  0  0  0
  3  9  1  0  0  0  0
  4  6  2  0  0  0  0
  4 10  1  0  0  0  0
  5  7  2  0  0  0  0
  5 12  1  0  0  0  0
  6  7  1  0  0  0  0
  6 13  1  0  0  0  0
  7 14  1  0  0  0  0
  8 16  2  0  0  0  0
  8 18  1  0  0  0  0
  9 17  2  0  0  0  0
  9 19  1  0  0  0  0
 10 11  2  0  0  0  0
 11 15  1  0  0  0  0
 12 22  2  0  0  0  0
 13 15  2  0  0  0  0
 14 23  2  0  0  0  0
 16 27  1  0  0  0  0
 17 28  1  0  0  0  0
 18 29  2  0  0  0  0
 19 30  2  0  0  0  0
 20 21  1  0  0  0  0
 20 32  2  0  0  0  0
 21 25  2  0  0  0  0
 22 23  1  0  0  0  0
 24 36  2  0  0  0  0
 24 37  1  0  0  0  0
 25 26  1  0  0  0  0
 25 35  1  0  0  0  0
 26 31  2  0  0  0  0
 26 39  1  0  0  0  0
 27 33  2  0  0  0  0
 28 34  2  0  0  0  0
 29 33  1  0  0  0  0
 30 34  1  0  0  0  0
 31 40  1  0  0  0  0
 32 38  1  0  0  0  0
 35 38  2  0  0  0  0
 36 41  1  0  0  0  0
 37 42  2  0  0  0  0
 39 44  2  0  0  0  0
 40 45  2  0  0  0  0
 41 43  2  0  0  0  0
 42 43  1  0  0  0  0
 43 46  1  0  0  0  0
 44 45  1  0  0  0  0
 46 47  2  0  0  0  0
 46 48  1  0  0  0  0
 47 49  1  0  0  0  0
 48 50  2  0  0  0  0
 49 51  2  0  0  0  0
 50 51  1  0  0  0  0
M  END
> <PUBCHEM_COMPOUND_ID_TYPE>
0

> <PUBCHEM_TOTAL_CHARGE>
0

> <PUBCHEM_SUBSTANCE_ID>
310946102

> <PUBCHEM_SUBSTANCE_VERSION>
1

> <PUBCHEM_EXT_DATASOURCE_NAME>
4488

> <PUBCHEM_EXT_DATASOURCE_REGID>
SCHEMBL16124210

> <PUBCHEM_SUBSTANCE_COMMENT>
InChI=1S/C49H33NO/c1-4-15-34(16-5-1)35-27-29-38(30-28-35)50(46-25-14-23-43-42-22-11-13-26-47(42)51-48(43)46)39-31-32-41-40-21-10-12-24-44(40)49(45(41)33-39,36-17-6-2-7-18-36)37-19-8-3-9-20-37/h1-33H
InChIKey=RDIPGSISJCVWDO-UHFFFAOYSA-N

> <PUBCHEM_SUBSTANCE_SYNONYM>
SCHEMBL16124210

> <PUBCHEM_XREF_EXT_ID>
SCHEMBL16124210

> <PUBCHEM_EXT_DATASOURCE_URL>
https://www.surechembl.org/

> <PUBCHEM_EXT_SUBSTANCE_URL>
https://www.surechembl.org/chemical/SCHEMBL16124210

> <PUBCHEM_CID_ASSOCIATIONS>
117612065  1

> <PUBCHEM_COORDINATE_TYPE>
1
3

$$$$
