310942970
  -OEChem-07211613022D

 28 32  0     1  0  0  0  0  0999 V2000
   -2.2551   -1.8869    0.0000 O   0  0  0  0  0  0  0  0  0  0  0  0
   -0.8376    2.6233    0.0000 O   0  0  0  0  0  0  0  0  0  0  0  0
   -0.7824    0.4326    0.0000 N   0  0  0  0  0  0  0  0  0  0  0  0
   -0.2854   -0.2301    0.0000 N   0  0  0  0  0  0  0  0  0  0  0  0
   -0.5063   -1.6660    0.0000 N   0  0  0  0  0  0  0  0  0  0  0  0
   -2.9915   -0.6719    0.0000 N   0  0  0  0  0  0  0  0  0  0  0  0
    2.9915   -1.3715    0.0000 N   0  0  0  0  0  0  0  0  0  0  0  0
    1.3899    0.1933    0.0000 N   0  0  0  0  0  0  0  0  0  0  0  0
   -1.5556   -0.6351    0.0000 C   0  0  0  0  0  0  0  0  0  0  0  0
   -1.5372    0.1933    0.0000 C   0  0  0  0  0  0  0  0  0  0  0  0
   -0.7640   -0.8929    0.0000 C   0  0  0  0  0  0  0  0  0  0  0  0
   -0.5247    1.2426    0.0000 C   0  0  3  0  0  0  0  0  0  0  0  0
   -2.2551   -1.0401    0.0000 C   0  0  0  0  0  0  0  0  0  0  0  0
   -2.2919    0.5799    0.0000 C   0  0  0  0  0  0  0  0  0  0  0  0
    0.2854    1.4083    0.0000 C   0  0  3  0  0  0  0  0  0  0  0  0
    0.3038   -1.8318    0.0000 C   0  0  0  0  0  0  0  0  0  0  0  0
   -1.0769    1.8318    0.0000 C   0  0  0  0  0  0  0  0  0  0  0  0
   -2.9547    0.1749    0.0000 C   0  0  0  0  0  0  0  0  0  0  0  0
    1.6660   -1.3899    0.0000 C   0  0  0  0  0  0  0  0  0  0  0  0
    0.8561   -1.2242    0.0000 C   0  0  0  0  0  0  0  0  0  0  0  0
    1.9053   -2.1631    0.0000 C   0  0  0  0  0  0  0  0  0  0  0  0
    0.5247    2.1999    0.0000 C   0  0  0  0  0  0  0  0  0  0  0  0
    0.5799   -2.6049    0.0000 C   0  0  0  0  0  0  0  0  0  0  0  0
    0.8376    0.8008    0.0000 C   0  0  0  0  0  0  0  0  0  0  0  0
    1.3899   -2.7706    0.0000 C   0  0  0  0  0  0  0  0  0  0  0  0
    0.0092    2.7706    0.0000 C   0  0  0  0  0  0  0  0  0  0  0  0
    2.3288   -0.8929    0.0000 C   0  0  0  0  0  0  0  0  0  0  0  0
    2.7522   -2.1447    0.0000 C   0  0  0  0  0  0  0  0  0  0  0  0
  1 13  2  0  0  0  0
  2 17  1  0  0  0  0
  2 26  1  0  0  0  0
  3  4  1  0  0  0  0
  3 10  1  0  0  0  0
 12  3  1  1  0  0  0
  4 11  2  0  0  0  0
  5 11  1  0  0  0  0
  5 16  1  0  0  0  0
  6 13  1  0  0  0  0
  6 18  1  0  0  0  0
  7 27  1  0  0  0  0
  7 28  1  0  0  0  0
  8 24  3  0  0  0  0
  9 10  2  0  0  0  0
  9 11  1  0  0  0  0
  9 13  1  0  0  0  0
 10 14  1  0  0  0  0
 12 15  1  0  0  0  0
 12 17  1  0  0  0  0
 14 18  2  0  0  0  0
 15 22  1  0  0  0  0
 15 24  1  6  0  0  0
 16 20  1  0  0  0  0
 16 23  2  0  0  0  0
 19 20  2  0  0  0  0
 19 21  1  0  0  0  0
 19 27  1  0  0  0  0
 21 25  2  0  0  0  0
 21 28  1  0  0  0  0
 22 26  1  0  0  0  0
 23 25  1  0  0  0  0
M  END
> <PUBCHEM_COMPOUND_ID_TYPE>
0

> <PUBCHEM_TOTAL_CHARGE>
0

> <PUBCHEM_SUBSTANCE_ID>
310942970

> <PUBCHEM_SUBSTANCE_VERSION>
1

> <PUBCHEM_EXT_DATASOURCE_NAME>
4488

> <PUBCHEM_EXT_DATASOURCE_REGID>
SCHEMBL16121029

> <PUBCHEM_SUBSTANCE_COMMENT>
InChI=1S/C20H20N6O2/c21-8-12-4-6-28-11-17(12)26-16-3-5-23-20(27)18(16)19(25-26)24-15-2-1-13-9-22-10-14(13)7-15/h1-3,5,7,12,17,22H,4,6,9-11H2,(H,23,27)(H,24,25)/t12-,17+/m1/s1
InChIKey=OVKIVHLJSWQIKL-PXAZEXFGSA-N

> <PUBCHEM_SUBSTANCE_SYNONYM>
SCHEMBL16121029

> <PUBCHEM_XREF_EXT_ID>
SCHEMBL16121029

> <PUBCHEM_EXT_DATASOURCE_URL>
https://www.surechembl.org/

> <PUBCHEM_EXT_SUBSTANCE_URL>
https://www.surechembl.org/chemical/SCHEMBL16121029

> <PUBCHEM_CID_ASSOCIATIONS>
117609432  1

> <PUBCHEM_COORDINATE_TYPE>
1
3

> <PUBCHEM_BONDANNOTATIONS>
15  24  6
12  3  5

$$$$
