310935911
  -OEChem-07211613022D

 31 33  0     0  0  0  0  0  0999 V2000
    8.1906   -2.9134    0.0000 F   0  0  0  0  0  0  0  0  0  0  0  0
    0.7421    0.0000    0.0000 F   0  0  0  0  0  0  0  0  0  0  0  0
    0.0000   -1.2368    0.0000 F   0  0  0  0  0  0  0  0  0  0  0  0
    1.4567   -0.4123    0.0000 F   0  0  0  0  0  0  0  0  0  0  0  0
    4.3702   -2.2538    0.0000 O   0  0  0  0  0  0  0  0  0  0  0  0
    1.4567   -3.7655    0.0000 O   0  0  0  0  0  0  0  0  0  0  0  0
    5.4421   -4.5351    0.0000 O   0  0  0  0  0  0  0  0  0  0  0  0
    4.0678   -4.9748    0.0000 O   0  0  0  0  0  0  0  0  0  0  0  0
    3.5731   -3.3532    0.0000 C   0  0  0  0  0  0  0  0  0  0  0  0
    4.3702   -3.5731    0.0000 C   0  0  0  0  0  0  0  0  0  0  0  0
    4.8649   -2.9134    0.0000 C   0  0  0  0  0  0  0  0  0  0  0  0
    3.5731   -2.5012    0.0000 C   0  0  0  0  0  0  0  0  0  0  0  0
    2.8584   -3.7655    0.0000 C   0  0  0  0  0  0  0  0  0  0  0  0
    5.6894   -2.9134    0.0000 C   0  0  0  0  0  0  0  0  0  0  0  0
    2.1438   -3.3532    0.0000 C   0  0  0  0  0  0  0  0  0  0  0  0
    2.1438   -2.5012    0.0000 C   0  0  0  0  0  0  0  0  0  0  0  0
    2.8584   -2.0889    0.0000 C   0  0  0  0  0  0  0  0  0  0  0  0
    4.6176   -4.3702    0.0000 C   0  0  0  0  0  0  0  0  0  0  0  0
    6.1292   -2.1988    0.0000 C   0  0  0  0  0  0  0  0  0  0  0  0
    6.1292   -3.6280    0.0000 C   0  0  0  0  0  0  0  0  0  0  0  0
    1.4567   -2.0889    0.0000 C   0  0  0  0  0  0  0  0  0  0  0  0
    6.9538   -2.1988    0.0000 C   0  0  0  0  0  0  0  0  0  0  0  0
    6.9538   -3.6280    0.0000 C   0  0  0  0  0  0  0  0  0  0  0  0
    7.3660   -2.9134    0.0000 C   0  0  0  0  0  0  0  0  0  0  0  0
    1.4567   -1.2368    0.0000 C   0  0  0  0  0  0  0  0  0  0  0  0
    1.4292   -4.6176    0.0000 C   0  0  0  0  0  0  0  0  0  0  0  0
    0.7421   -0.8246    0.0000 C   0  0  0  0  0  0  0  0  0  0  0  0
    5.6894   -5.3322    0.0000 C   0  0  0  0  0  0  0  0  0  0  0  0
    0.7146   -5.0298    0.0000 C   0  0  0  0  0  0  0  0  0  0  0  0
    2.1438   -5.0298    0.0000 C   0  0  0  0  0  0  0  0  0  0  0  0
    6.5140   -5.4970    0.0000 C   0  0  0  0  0  0  0  0  0  0  0  0
  1 24  1  0  0  0  0
  2 27  1  0  0  0  0
  3 27  1  0  0  0  0
  4 27  1  0  0  0  0
  5 11  1  0  0  0  0
  5 12  1  0  0  0  0
  6 15  1  0  0  0  0
  6 26  1  0  0  0  0
  7 18  1  0  0  0  0
  7 28  1  0  0  0  0
  8 18  2  0  0  0  0
  9 10  1  0  0  0  0
  9 12  2  0  0  0  0
  9 13  1  0  0  0  0
 10 11  2  0  0  0  0
 10 18  1  0  0  0  0
 11 14  1  0  0  0  0
 12 17  1  0  0  0  0
 13 15  2  0  0  0  0
 14 19  2  0  0  0  0
 14 20  1  0  0  0  0
 15 16  1  0  0  0  0
 16 17  2  0  0  0  0
 16 21  1  0  0  0  0
 19 22  1  0  0  0  0
 20 23  2  0  0  0  0
 21 25  1  0  0  0  0
 22 24  2  0  0  0  0
 23 24  1  0  0  0  0
 25 27  1  0  0  0  0
 26 29  1  0  0  0  0
 26 30  1  0  0  0  0
 28 31  1  0  0  0  0
M  END
> <PUBCHEM_COMPOUND_ID_TYPE>
0

> <PUBCHEM_TOTAL_CHARGE>
0

> <PUBCHEM_SUBSTANCE_ID>
310935911

> <PUBCHEM_SUBSTANCE_VERSION>
1

> <PUBCHEM_EXT_DATASOURCE_NAME>
4488

> <PUBCHEM_EXT_DATASOURCE_REGID>
SCHEMBL16113506

> <PUBCHEM_SUBSTANCE_COMMENT>
InChI=1S/C23H22F4O4/c1-4-29-22(28)20-17-12-18(30-13(2)3)15(9-10-23(25,26)27)11-19(17)31-21(20)14-5-7-16(24)8-6-14/h5-8,11-13H,4,9-10H2,1-3H3
InChIKey=MHBKOPDRCNWQPY-UHFFFAOYSA-N

> <PUBCHEM_SUBSTANCE_SYNONYM>
SCHEMBL16113506

> <PUBCHEM_XREF_EXT_ID>
SCHEMBL16113506

> <PUBCHEM_EXT_DATASOURCE_URL>
https://www.surechembl.org/

> <PUBCHEM_EXT_SUBSTANCE_URL>
https://www.surechembl.org/chemical/SCHEMBL16113506

> <PUBCHEM_CID_ASSOCIATIONS>
117603895  1

> <PUBCHEM_COORDINATE_TYPE>
1
3

$$$$
