310944009
  -OEChem-07211613022D

 29 33  0     0  0  0  0  0  0999 V2000
   -0.3462    3.7053    0.0000 F   0  0  0  0  0  0  0  0  0  0  0  0
    1.8048    3.2632    0.0000 N   0  0  0  0  0  0  0  0  0  0  0  0
   -2.5561    3.2338    0.0000 N   0  0  0  0  0  0  0  0  0  0  0  0
    0.3905   -0.8324    0.0000 C   0  0  0  0  0  0  0  0  0  0  0  0
   -0.3462   -1.2449    0.0000 C   0  0  0  0  0  0  0  0  0  0  0  0
    1.1123   -1.2302    0.0000 C   0  0  0  0  0  0  0  0  0  0  0  0
   -0.3315   -2.0552    0.0000 C   0  0  0  0  0  0  0  0  0  0  0  0
    1.0976   -2.0552    0.0000 C   0  0  0  0  0  0  0  0  0  0  0  0
    0.4051   -2.4824    0.0000 C   0  0  0  0  0  0  0  0  0  0  0  0
   -0.3757    0.4051    0.0000 C   0  0  0  0  0  0  0  0  0  0  0  0
    0.3757   -0.0073    0.0000 C   0  0  0  0  0  0  0  0  0  0  0  0
   -1.0829   -0.8324    0.0000 C   0  0  0  0  0  0  0  0  0  0  0  0
   -0.3462    1.2596    0.0000 C   0  0  0  0  0  0  0  0  0  0  0  0
   -1.0829   -0.0073    0.0000 C   0  0  0  0  0  0  0  0  0  0  0  0
    1.7900   -0.8324    0.0000 C   0  0  0  0  0  0  0  0  0  0  0  0
   -1.0681   -2.5119    0.0000 C   0  0  0  0  0  0  0  0  0  0  0  0
    1.8489   -2.4382    0.0000 C   0  0  0  0  0  0  0  0  0  0  0  0
    0.4051   -3.2927    0.0000 C   0  0  0  0  0  0  0  0  0  0  0  0
    0.3757    1.6574    0.0000 C   0  0  0  0  0  0  0  0  0  0  0  0
   -1.0829    1.6574    0.0000 C   0  0  0  0  0  0  0  0  0  0  0  0
    0.3905    2.4677    0.0000 C   0  0  0  0  0  0  0  0  0  0  0  0
   -1.0829    2.4824    0.0000 C   0  0  0  0  0  0  0  0  0  0  0  0
   -0.3757    2.8802    0.0000 C   0  0  0  0  0  0  0  0  0  0  0  0
    2.5561   -1.2155    0.0000 C   0  0  0  0  0  0  0  0  0  0  0  0
   -1.0534   -3.3075    0.0000 C   0  0  0  0  0  0  0  0  0  0  0  0
    2.5561   -2.0257    0.0000 C   0  0  0  0  0  0  0  0  0  0  0  0
   -0.3020   -3.7053    0.0000 C   0  0  0  0  0  0  0  0  0  0  0  0
    1.0976    2.8802    0.0000 C   0  0  0  0  0  0  0  0  0  0  0  0
   -1.8342    2.8802    0.0000 C   0  0  0  0  0  0  0  0  0  0  0  0
  1 23  1  0  0  0  0
  2 28  3  0  0  0  0
  3 29  3  0  0  0  0
  4  5  1  0  0  0  0
  4  6  1  0  0  0  0
  4 11  2  0  0  0  0
  5  7  1  0  0  0  0
  5 12  2  0  0  0  0
  6  8  1  0  0  0  0
  6 15  2  0  0  0  0
  7  9  1  0  0  0  0
  7 16  2  0  0  0  0
  8  9  1  0  0  0  0
  8 17  2  0  0  0  0
  9 18  2  0  0  0  0
 10 11  1  0  0  0  0
 10 13  1  0  0  0  0
 10 14  2  0  0  0  0
 12 14  1  0  0  0  0
 13 19  2  0  0  0  0
 13 20  1  0  0  0  0
 15 24  1  0  0  0  0
 16 25  1  0  0  0  0
 17 26  1  0  0  0  0
 18 27  1  0  0  0  0
 19 21  1  0  0  0  0
 20 22  2  0  0  0  0
 21 23  2  0  0  0  0
 21 28  1  0  0  0  0
 22 23  1  0  0  0  0
 22 29  1  0  0  0  0
 24 26  2  0  0  0  0
 25 27  2  0  0  0  0
M  END
> <PUBCHEM_COMPOUND_ID_TYPE>
0

> <PUBCHEM_TOTAL_CHARGE>
0

> <PUBCHEM_SUBSTANCE_ID>
310944009

> <PUBCHEM_SUBSTANCE_VERSION>
1

> <PUBCHEM_EXT_DATASOURCE_NAME>
4488

> <PUBCHEM_EXT_DATASOURCE_REGID>
SCHEMBL16122080

> <PUBCHEM_SUBSTANCE_COMMENT>
InChI=1S/C26H13FN2/c27-26-18(14-28)11-17(12-19(26)15-29)16-9-10-24-22-7-2-1-5-20(22)21-6-3-4-8-23(21)25(24)13-16/h1-13H
InChIKey=FHFBXOLRWXBPBP-UHFFFAOYSA-N

> <PUBCHEM_SUBSTANCE_SYNONYM>
SCHEMBL16122080

> <PUBCHEM_XREF_EXT_ID>
SCHEMBL16122080

> <PUBCHEM_EXT_DATASOURCE_URL>
https://www.surechembl.org/

> <PUBCHEM_EXT_SUBSTANCE_URL>
https://www.surechembl.org/chemical/SCHEMBL16122080

> <PUBCHEM_CID_ASSOCIATIONS>
117610313  1

> <PUBCHEM_COORDINATE_TYPE>
1
3

$$$$
