310947358
  -OEChem-07211613022D

 37 41  0     0  0  0  0  0  0999 V2000
   -1.8180    2.4893    0.0000 O   0  0  0  0  0  0  0  0  0  0  0  0
    4.8808   -0.0987    0.0000 O   0  0  0  0  0  0  0  0  0  0  0  0
    3.6373    1.1448    0.0000 O   0  0  0  0  0  0  0  0  0  0  0  0
    1.1100    0.1720    0.0000 N   0  0  0  0  0  0  0  0  0  0  0  0
    1.5949    0.8394    0.0000 N   0  0  0  0  0  0  0  0  0  0  0  0
   -2.5324    1.2519    0.0000 N   0  0  0  0  0  0  0  0  0  0  0  0
    0.3254    0.4270    0.0000 C   0  0  0  0  0  0  0  0  0  0  0  0
    0.3254    1.2519    0.0000 C   0  0  0  0  0  0  0  0  0  0  0  0
    1.1100    1.5068    0.0000 C   0  0  0  0  0  0  0  0  0  0  0  0
   -0.3891    1.6644    0.0000 C   0  0  0  0  0  0  0  0  0  0  0  0
   -1.1035    1.2519    0.0000 C   0  0  0  0  0  0  0  0  0  0  0  0
   -0.3891    0.0144    0.0000 C   0  0  0  0  0  0  0  0  0  0  0  0
    1.3235   -0.6249    0.0000 C   0  0  0  0  0  0  0  0  0  0  0  0
   -1.1035    0.4270    0.0000 C   0  0  0  0  0  0  0  0  0  0  0  0
    2.1204   -0.8384    0.0000 C   0  0  0  0  0  0  0  0  0  0  0  0
   -1.8180    1.6644    0.0000 C   0  0  0  0  0  0  0  0  0  0  0  0
    3.7141   -1.2655    0.0000 C   0  0  0  0  0  0  0  0  0  0  0  0
    4.5110   -1.4789    0.0000 C   0  0  0  0  0  0  0  0  0  0  0  0
    1.5225    2.2213    0.0000 C   0  0  0  0  0  0  0  0  0  0  0  0
    2.3339   -1.6353    0.0000 C   0  0  0  0  0  0  0  0  0  0  0  0
    2.7037   -0.2551    0.0000 C   0  0  0  0  0  0  0  0  0  0  0  0
    3.1308   -1.8488    0.0000 C   0  0  0  0  0  0  0  0  0  0  0  0
    3.5006   -0.4686    0.0000 C   0  0  0  0  0  0  0  0  0  0  0  0
    5.0943   -0.8956    0.0000 C   0  0  0  0  0  0  0  0  0  0  0  0
    4.7245   -2.2758    0.0000 C   0  0  0  0  0  0  0  0  0  0  0  0
    5.8912   -1.1091    0.0000 C   0  0  0  0  0  0  0  0  0  0  0  0
   -3.2469    1.6644    0.0000 C   0  0  0  0  0  0  0  0  0  0  0  0
    5.5214   -2.4893    0.0000 C   0  0  0  0  0  0  0  0  0  0  0  0
    6.1048   -1.9060    0.0000 C   0  0  0  0  0  0  0  0  0  0  0  0
   -3.9614    1.2519    0.0000 C   0  0  0  0  0  0  0  0  0  0  0  0
    3.9000    0.1640    0.0000 C   0  0  0  0  0  0  0  0  0  0  0  0
   -4.6758    1.6644    0.0000 C   0  0  0  0  0  0  0  0  0  0  0  0
   -3.9614    0.4264    0.0000 C   0  0  0  0  0  0  0  0  0  0  0  0
   -5.3903    0.4264    0.0000 C   0  0  0  0  0  0  0  0  0  0  0  0
   -5.3903    1.2519    0.0000 C   0  0  0  0  0  0  0  0  0  0  0  0
   -4.6752    0.0134    0.0000 C   0  0  0  0  0  0  0  0  0  0  0  0
   -6.1048    0.0139    0.0000 C   0  0  0  0  0  0  0  0  0  0  0  0
  1 16  2  0  0  0  0
  2 24  1  0  0  0  0
  2 31  1  0  0  0  0
  3 31  2  0  0  0  0
  4  5  1  0  0  0  0
  4  7  1  0  0  0  0
  4 13  1  0  0  0  0
  5  9  2  0  0  0  0
  6 16  1  0  0  0  0
  6 27  1  0  0  0  0
  7  8  1  0  0  0  0
  7 12  2  0  0  0  0
  8  9  1  0  0  0  0
  8 10  2  0  0  0  0
  9 19  1  0  0  0  0
 10 11  1  0  0  0  0
 11 14  2  0  0  0  0
 11 16  1  0  0  0  0
 12 14  1  0  0  0  0
 13 15  1  0  0  0  0
 15 20  2  0  0  0  0
 15 21  1  0  0  0  0
 17 18  1  0  0  0  0
 17 22  2  0  0  0  0
 17 23  1  0  0  0  0
 18 24  1  0  0  0  0
 18 25  2  0  0  0  0
 20 22  1  0  0  0  0
 21 23  2  0  0  0  0
 24 26  2  0  0  0  0
 25 28  1  0  0  0  0
 26 29  1  0  0  0  0
 27 30  1  0  0  0  0
 28 29  2  0  0  0  0
 30 32  1  0  0  0  0
 30 33  1  0  0  0  0
 32 35  1  0  0  0  0
 33 36  1  0  0  0  0
 34 35  1  0  0  0  0
 34 36  1  0  0  0  0
 34 37  1  0  0  0  0
M  END
> <PUBCHEM_COMPOUND_ID_TYPE>
0

> <PUBCHEM_TOTAL_CHARGE>
0

> <PUBCHEM_SUBSTANCE_ID>
310947358

> <PUBCHEM_SUBSTANCE_VERSION>
1

> <PUBCHEM_EXT_DATASOURCE_NAME>
4488

> <PUBCHEM_EXT_DATASOURCE_REGID>
SCHEMBL16125514

> <PUBCHEM_SUBSTANCE_COMMENT>
InChI=1S/C31H33N3O3/c1-21-7-9-23(10-8-21)18-32-31(36)26-15-16-29-28(17-26)22(2)33-34(29)19-24-11-13-25(14-12-24)27-5-3-4-6-30(27)37-20-35/h3-6,11-17,20-21,23H,7-10,18-19H2,1-2H3,(H,32,36)
InChIKey=FBPDBLSUAKJGHC-UHFFFAOYSA-N

> <PUBCHEM_SUBSTANCE_SYNONYM>
SCHEMBL16125514

> <PUBCHEM_XREF_EXT_ID>
SCHEMBL16125514

> <PUBCHEM_EXT_DATASOURCE_URL>
https://www.surechembl.org/

> <PUBCHEM_EXT_SUBSTANCE_URL>
https://www.surechembl.org/chemical/SCHEMBL16125514

> <PUBCHEM_CID_ASSOCIATIONS>
117613103  1

> <PUBCHEM_COORDINATE_TYPE>
1
3

$$$$
