310930988
  -OEChem-07211613022D

 51 55  0     1  0  0  0  0  0999 V2000
   17.8618    1.1734    0.0000 S   0  0  0  0  0  0  0  0  0  0  0  0
   19.2437    2.8958    0.0000 S   0  0  0  0  0  0  0  0  0  0  0  0
   17.8618   -0.4766    0.0000 F   0  0  0  0  0  0  0  0  0  0  0  0
   15.0039    1.1734    0.0000 F   0  0  0  0  0  0  0  0  0  0  0  0
   16.4328   -1.3016    0.0000 F   0  0  0  0  0  0  0  0  0  0  0  0
   16.4328   -2.9516    0.0000 F   0  0  0  0  0  0  0  0  0  0  0  0
   17.4493    1.8879    0.0000 O   0  0  0  0  0  0  0  0  0  0  0  0
   18.2743    0.4589    0.0000 O   0  0  0  0  0  0  0  0  0  0  0  0
   15.0039   -0.4766    0.0000 O   0  0  0  0  0  0  0  0  0  0  0  0
   20.7196    0.3484    0.0000 O   0  0  0  0  0  0  0  0  0  0  0  0
   10.7170   -0.4766    0.0000 O   0  0  0  0  0  0  0  0  0  0  0  0
   22.1486    2.8234    0.0000 O   0  0  0  0  0  0  0  0  0  0  0  0
   11.4316    0.7609    0.0000 O   0  0  0  0  0  0  0  0  0  0  0  0
   18.5762    1.5859    0.0000 N   0  0  0  0  0  0  0  0  0  0  0  0
   17.9088    2.8958    0.0000 N   0  0  0  0  0  0  0  0  0  0  0  0
   18.9887    3.6804    0.0000 N   0  0  0  0  0  0  0  0  0  0  0  0
   12.1460   -0.4766    0.0000 N   0  0  0  0  0  0  0  0  0  0  0  0
   17.1473    0.7609    0.0000 C   0  0  0  0  0  0  0  0  0  0  0  0
   17.1473   -0.0641    0.0000 C   0  0  0  0  0  0  0  0  0  0  0  0
   18.5762    2.4109    0.0000 C   0  0  0  0  0  0  0  0  0  0  0  0
   16.4328    1.1734    0.0000 C   0  0  0  0  0  0  0  0  0  0  0  0
   19.2907    1.1734    0.0000 C   0  0  0  0  0  0  0  0  0  0  0  0
   15.7184    0.7609    0.0000 C   0  0  0  0  0  0  0  0  0  0  0  0
   15.7184   -0.0641    0.0000 C   0  0  0  0  0  0  0  0  0  0  0  0
   16.4328   -0.4766    0.0000 C   0  0  0  0  0  0  0  0  0  0  0  0
   20.0052    1.5859    0.0000 C   0  0  0  0  0  0  0  0  0  0  0  0
   20.7196    1.1734    0.0000 C   0  0  0  0  0  0  0  0  0  0  0  0
   13.5750   -0.4766    0.0000 C   0  0  3  0  0  0  0  0  0  0  0  0
   13.5750   -1.3016    0.0000 C   0  0  3  0  0  0  0  0  0  0  0  0
   14.2894   -0.0641    0.0000 C   0  0  0  0  0  0  0  0  0  0  0  0
   20.0052    2.4109    0.0000 C   0  0  0  0  0  0  0  0  0  0  0  0
   14.2894   -1.7141    0.0000 C   0  0  0  0  0  0  0  0  0  0  0  0
   18.1637    3.6804    0.0000 C   0  0  0  0  0  0  0  0  0  0  0  0
   12.8605   -0.0641    0.0000 C   0  0  0  0  0  0  0  0  0  0  0  0
   21.4341    1.5859    0.0000 C   0  0  0  0  0  0  0  0  0  0  0  0
   12.8605   -1.7141    0.0000 C   0  0  0  0  0  0  0  0  0  0  0  0
   21.4341    2.4109    0.0000 C   0  0  0  0  0  0  0  0  0  0  0  0
   20.7196    2.8234    0.0000 C   0  0  0  0  0  0  0  0  0  0  0  0
   12.1460   -1.3016    0.0000 C   0  0  0  0  0  0  0  0  0  0  0  0
   15.0039   -1.3016    0.0000 C   0  0  0  0  0  0  0  0  0  0  0  0
   11.4316   -0.0641    0.0000 C   0  0  0  0  0  0  0  0  0  0  0  0
   14.2894   -2.5391    0.0000 C   0  0  0  0  0  0  0  0  0  0  0  0
   15.7184   -1.7141    0.0000 C   0  0  0  0  0  0  0  0  0  0  0  0
   15.7184   -2.5391    0.0000 C   0  0  0  0  0  0  0  0  0  0  0  0
   15.0039   -2.9516    0.0000 C   0  0  0  0  0  0  0  0  0  0  0  0
   10.0026   -0.0641    0.0000 C   0  0  0  0  0  0  0  0  0  0  0  0
   21.4341   -0.0641    0.0000 C   0  0  0  0  0  0  0  0  0  0  0  0
   22.8630    2.4109    0.0000 C   0  0  0  0  0  0  0  0  0  0  0  0
   10.0026    0.7609    0.0000 C   0  0  0  0  0  0  0  0  0  0  0  0
    9.2881    0.3484    0.0000 C   0  0  0  0  0  0  0  0  0  0  0  0
    9.2881   -0.4766    0.0000 C   0  0  0  0  0  0  0  0  0  0  0  0
  1  7  2  0  0  0  0
  1  8  2  0  0  0  0
  1 14  1  0  0  0  0
  1 18  1  0  0  0  0
  2 16  1  0  0  0  0
  2 20  1  0  0  0  0
  3 19  1  0  0  0  0
  4 23  1  0  0  0  0
  5 43  1  0  0  0  0
  6 44  1  0  0  0  0
  9 24  1  0  0  0  0
  9 30  1  0  0  0  0
 10 27  1  0  0  0  0
 10 47  1  0  0  0  0
 11 41  1  0  0  0  0
 11 46  1  0  0  0  0
 12 37  1  0  0  0  0
 12 48  1  0  0  0  0
 13 41  2  0  0  0  0
 14 20  1  0  0  0  0
 14 22  1  0  0  0  0
 15 20  2  0  0  0  0
 15 33  1  0  0  0  0
 16 33  2  0  0  0  0
 17 34  1  0  0  0  0
 17 39  1  0  0  0  0
 17 41  1  0  0  0  0
 18 19  2  0  0  0  0
 18 21  1  0  0  0  0
 19 25  1  0  0  0  0
 21 23  2  0  0  0  0
 22 26  1  0  0  0  0
 23 24  1  0  0  0  0
 24 25  2  0  0  0  0
 26 27  1  0  0  0  0
 26 31  2  0  0  0  0
 27 35  2  0  0  0  0
 28 29  1  0  0  0  0
 28 30  1  6  0  0  0
 28 34  1  0  0  0  0
 29 32  1  0  0  0  0
 29 36  1  1  0  0  0
 31 38  1  0  0  0  0
 32 40  1  0  0  0  0
 32 42  2  0  0  0  0
 35 37  1  0  0  0  0
 36 39  1  0  0  0  0
 37 38  2  0  0  0  0
 40 43  2  0  0  0  0
 42 45  1  0  0  0  0
 43 44  1  0  0  0  0
 44 45  2  0  0  0  0
 46 49  1  0  0  0  0
 46 50  1  0  0  0  0
 46 51  1  0  0  0  0
M  END
> <PUBCHEM_COMPOUND_ID_TYPE>
0

> <PUBCHEM_TOTAL_CHARGE>
0

> <PUBCHEM_SUBSTANCE_ID>
310930988

> <PUBCHEM_SUBSTANCE_VERSION>
1

> <PUBCHEM_EXT_DATASOURCE_NAME>
4488

> <PUBCHEM_EXT_DATASOURCE_REGID>
SCHEMBL16108288

> <PUBCHEM_SUBSTANCE_COMMENT>
InChI=1S/C34H36F4N4O7S2/c1-34(2,3)49-33(43)41-11-10-24(20-7-9-25(35)26(36)12-20)22(16-41)18-48-30-14-28(38)31(15-27(30)37)51(44,45)42(32-39-19-40-50-32)17-21-6-8-23(46-4)13-29(21)47-5/h6-9,12-15,19,22,24H,10-11,16-18H2,1-5H3/t22-,24-/m1/s1
InChIKey=MOBBXMTWTNHOGY-ISKFKSNPSA-N

> <PUBCHEM_SUBSTANCE_SYNONYM>
SCHEMBL16108288

> <PUBCHEM_XREF_EXT_ID>
SCHEMBL16108288

> <PUBCHEM_EXT_DATASOURCE_URL>
https://www.surechembl.org/

> <PUBCHEM_EXT_SUBSTANCE_URL>
https://www.surechembl.org/chemical/SCHEMBL16108288

> <PUBCHEM_CID_ASSOCIATIONS>
117599924  1

> <PUBCHEM_COORDINATE_TYPE>
1
3

> <PUBCHEM_BONDANNOTATIONS>
28  30  6
29  36  5

$$$$
