310949953
  -OEChem-07211613022D

 45 48  0     1  0  0  0  0  0999 V2000
   -2.9344   -0.6005    0.0000 P   0  0  3  0  0  0  0  0  0  0  0  0
    1.1083   -1.5477    0.0000 F   0  0  0  0  0  0  0  0  0  0  0  0
    0.3076   -2.1532    0.0000 F   0  0  0  0  0  0  0  0  0  0  0  0
   -0.1026   -0.0733    0.0000 O   0  0  0  0  0  0  0  0  0  0  0  0
   -1.0107   -1.9969    0.0000 O   0  0  0  0  0  0  0  0  0  0  0  0
   -2.1630   -0.8544    0.0000 O   0  0  0  0  0  0  0  0  0  0  0  0
    0.9131    1.0692    0.0000 O   0  0  0  0  0  0  0  0  0  0  0  0
   -3.1687   -1.3818    0.0000 O   0  0  0  0  0  0  0  0  0  0  0  0
   -2.7000    0.1904    0.0000 O   0  0  0  0  0  0  0  0  0  0  0  0
    4.1453   -0.8935    0.0000 O   0  0  0  0  0  0  0  0  0  0  0  0
   -5.0240    1.5477    0.0000 O   0  0  0  0  0  0  0  0  0  0  0  0
   -5.4244    0.1319    0.0000 O   0  0  0  0  0  0  0  0  0  0  0  0
    1.3525   -0.2978    0.0000 N   0  0  0  0  0  0  0  0  0  0  0  0
    2.3192    0.7665    0.0000 N   0  0  0  0  0  0  0  0  0  0  0  0
    3.7254    0.4639    0.0000 N   0  0  0  0  0  0  0  0  0  0  0  0
   -3.7839   -0.2978    0.0000 N   0  0  0  0  0  0  0  0  0  0  0  0
    5.7662   -0.3076    0.0000 N   0  0  3  0  0  0  0  0  0  0  0  0
    0.2978   -1.3232    0.0000 C   0  0  0  0  0  0  0  0  0  0  0  0
    0.5615   -0.5322    0.0000 C   0  0  3  0  0  0  0  0  0  0  0  0
   -0.5127   -1.3134    0.0000 C   0  0  3  0  0  0  0  0  0  0  0  0
   -0.7568   -0.5322    0.0000 C   0  0  3  0  0  0  0  0  0  0  0  0
    1.5477    0.5127    0.0000 C   0  0  0  0  0  0  0  0  0  0  0  0
   -1.5575   -0.2978    0.0000 C   0  0  0  0  0  0  0  0  0  0  0  0
    1.9774   -0.8251    0.0000 C   0  0  0  0  0  0  0  0  0  0  0  0
    2.9344    0.2294    0.0000 C   0  0  0  0  0  0  0  0  0  0  0  0
    2.7391   -0.5810    0.0000 C   0  0  0  0  0  0  0  0  0  0  0  0
    4.3307   -0.0440    0.0000 C   0  0  0  0  0  0  0  0  0  0  0  0
   -3.9694   -1.5770    0.0000 C   0  0  0  0  0  0  0  0  0  0  0  0
   -3.9987    0.5127    0.0000 C   0  0  3  0  0  0  0  0  0  0  0  0
    5.0826    0.1709    0.0000 C   0  0  3  0  0  0  0  0  0  0  0  0
   -4.8092    0.7568    0.0000 C   0  0  0  0  0  0  0  0  0  0  0  0
   -4.5261   -1.0009    0.0000 C   0  0  0  0  0  0  0  0  0  0  0  0
   -4.2038   -2.3680    0.0000 C   0  0  0  0  0  0  0  0  0  0  0  0
    5.3268    0.9521    0.0000 C   0  0  0  0  0  0  0  0  0  0  0  0
    6.4498    0.1904    0.0000 C   0  0  0  0  0  0  0  0  0  0  0  0
   -3.4031    1.1181    0.0000 C   0  0  0  0  0  0  0  0  0  0  0  0
   -5.3463   -1.1962    0.0000 C   0  0  0  0  0  0  0  0  0  0  0  0
   -4.9753   -2.5731    0.0000 C   0  0  0  0  0  0  0  0  0  0  0  0
   -5.5611   -1.9969    0.0000 C   0  0  0  0  0  0  0  0  0  0  0  0
    6.1959    0.9716    0.0000 C   0  0  0  0  0  0  0  0  0  0  0  0
    5.7662   -1.1278    0.0000 C   0  0  0  0  0  0  0  0  0  0  0  0
   -5.8541    1.7821    0.0000 C   0  0  0  0  0  0  0  0  0  0  0  0
   -6.3716   -2.2020    0.0000 C   0  0  0  0  0  0  0  0  0  0  0  0
   -6.0592    2.5731    0.0000 C   0  0  0  0  0  0  0  0  0  0  0  0
   -6.4498    1.1767    0.0000 C   0  0  0  0  0  0  0  0  0  0  0  0
  1  6  1  0  0  0  0
  1  8  1  0  0  0  0
  1  9  2  0  0  0  0
  1 16  1  0  0  0  0
  2 18  1  0  0  0  0
  3 18  1  0  0  0  0
  4 19  1  0  0  0  0
  4 21  1  0  0  0  0
 20  5  1  6  0  0  0
  6 23  1  0  0  0  0
  7 22  2  0  0  0  0
  8 28  1  0  0  0  0
 10 27  2  0  0  0  0
 11 31  1  0  0  0  0
 11 42  1  0  0  0  0
 12 31  2  0  0  0  0
 13 19  1  0  0  0  0
 13 22  1  0  0  0  0
 13 24  1  0  0  0  0
 14 22  1  0  0  0  0
 14 25  2  0  0  0  0
 15 25  1  0  0  0  0
 15 27  1  0  0  0  0
 16 29  1  0  0  0  0
 17 30  1  0  0  0  0
 17 35  1  0  0  0  0
 17 41  1  0  0  0  0
 18 19  1  0  0  0  0
 18 20  1  0  0  0  0
 20 21  1  0  0  0  0
 21 23  1  1  0  0  0
 24 26  2  0  0  0  0
 25 26  1  0  0  0  0
 30 27  1  6  0  0  0
 28 32  2  0  0  0  0
 28 33  1  0  0  0  0
 29 31  1  0  0  0  0
 29 36  1  6  0  0  0
 30 34  1  0  0  0  0
 32 37  1  0  0  0  0
 33 38  2  0  0  0  0
 34 40  1  0  0  0  0
 35 40  1  0  0  0  0
 37 39  2  0  0  0  0
 38 39  1  0  0  0  0
 39 43  1  0  0  0  0
 42 44  1  0  0  0  0
 42 45  1  0  0  0  0
M  END
> <PUBCHEM_COMPOUND_ID_TYPE>
0

> <PUBCHEM_TOTAL_CHARGE>
0

> <PUBCHEM_SUBSTANCE_ID>
310949953

> <PUBCHEM_SUBSTANCE_VERSION>
1

> <PUBCHEM_EXT_DATASOURCE_NAME>
4488

> <PUBCHEM_EXT_DATASOURCE_REGID>
SCHEMBL16128182

> <PUBCHEM_SUBSTANCE_COMMENT>
InChI=1S/C28H38F2N5O9P/c1-16(2)42-25(38)18(4)33-45(40,44-19-10-8-17(3)9-11-19)41-15-21-23(36)28(29,30)26(43-21)35-14-12-22(32-27(35)39)31-24(37)20-7-6-13-34(20)5/h8-12,14,16,18,20-21,23,26,36H,6-7,13,15H2,1-5H3,(H,33,40)(H,31,32,37,39)/t18-,20-,21+,23+,26?,45?/m0/s1
InChIKey=NAQMAGCNJHUSIO-LACZKBHUSA-N

> <PUBCHEM_SUBSTANCE_SYNONYM>
SCHEMBL16128182

> <PUBCHEM_XREF_EXT_ID>
SCHEMBL16128182

> <PUBCHEM_EXT_DATASOURCE_URL>
https://www.surechembl.org/

> <PUBCHEM_EXT_SUBSTANCE_URL>
https://www.surechembl.org/chemical/SCHEMBL16128182

> <PUBCHEM_CID_ASSOCIATIONS>
117615209  1

> <PUBCHEM_COORDINATE_TYPE>
1
3

> <PUBCHEM_BONDANNOTATIONS>
21  23  5
30  27  6
29  36  6
20  5  6

$$$$
