310945058
  -OEChem-07211613022D

 34 38  0     0  0  0  0  0  0999 V2000
   -4.1302   -1.2248    0.0000 S   0  0  0  0  0  0  0  0  0  0  0  0
    3.9693   -2.3870    0.0000 O   0  0  0  0  0  0  0  0  0  0  0  0
    4.7024   -1.1533    0.0000 O   0  0  0  0  0  0  0  0  0  0  0  0
   -4.2732   -2.5479    0.0000 N   0  0  0  0  0  0  0  0  0  0  0  0
   -0.4470    0.0804    0.0000 C   0  0  0  0  0  0  0  0  0  0  0  0
   -0.4291    0.9029    0.0000 C   0  0  0  0  0  0  0  0  0  0  0  0
   -1.1622   -0.3308    0.0000 C   0  0  0  0  0  0  0  0  0  0  0  0
   -1.1801    1.3320    0.0000 C   0  0  0  0  0  0  0  0  0  0  0  0
    0.3039   -0.3308    0.0000 C   0  0  0  0  0  0  0  0  0  0  0  0
    0.2860    1.3142    0.0000 C   0  0  0  0  0  0  0  0  0  0  0  0
   -1.8953    0.0626    0.0000 C   0  0  0  0  0  0  0  0  0  0  0  0
   -1.1801   -1.1711    0.0000 C   0  0  0  0  0  0  0  0  0  0  0  0
   -2.6462   -1.1711    0.0000 C   0  0  0  0  0  0  0  0  0  0  0  0
   -1.9847    1.1175    0.0000 C   0  0  0  0  0  0  0  0  0  0  0  0
   -1.3767    2.1009    0.0000 C   0  0  0  0  0  0  0  0  0  0  0  0
    0.3039   -1.1533    0.0000 C   0  0  0  0  0  0  0  0  0  0  0  0
    1.0371    0.0626    0.0000 C   0  0  0  0  0  0  0  0  0  0  0  0
   -2.6104   -0.3308    0.0000 C   0  0  0  0  0  0  0  0  0  0  0  0
   -1.8774   -1.5644    0.0000 C   0  0  0  0  0  0  0  0  0  0  0  0
    1.0549    0.9208    0.0000 C   0  0  0  0  0  0  0  0  0  0  0  0
    0.3218    2.1545    0.0000 C   0  0  0  0  0  0  0  0  0  0  0  0
   -2.1813    1.8863    0.0000 C   0  0  0  0  0  0  0  0  0  0  0  0
   -3.3614   -1.5823    0.0000 C   0  0  0  0  0  0  0  0  0  0  0  0
    1.7522   -1.1533    0.0000 C   0  0  0  0  0  0  0  0  0  0  0  0
    1.0549   -1.5644    0.0000 C   0  0  0  0  0  0  0  0  0  0  0  0
    1.7522   -0.3487    0.0000 C   0  0  0  0  0  0  0  0  0  0  0  0
    1.7522    1.3142    0.0000 C   0  0  0  0  0  0  0  0  0  0  0  0
    1.0371    2.5479    0.0000 C   0  0  0  0  0  0  0  0  0  0  0  0
   -3.4508   -2.4049    0.0000 C   0  0  0  0  0  0  0  0  0  0  0  0
    1.7522    2.1366    0.0000 C   0  0  0  0  0  0  0  0  0  0  0  0
    2.5211   -1.5823    0.0000 C   0  0  0  0  0  0  0  0  0  0  0  0
   -4.7024   -1.8506    0.0000 C   0  0  0  0  0  0  0  0  0  0  0  0
    3.2184   -1.1711    0.0000 C   0  0  0  0  0  0  0  0  0  0  0  0
    3.9693   -1.5466    0.0000 C   0  0  0  0  0  0  0  0  0  0  0  0
  1 23  1  0  0  0  0
  1 32  1  0  0  0  0
  2 34  2  0  0  0  0
  3 34  1  0  0  0  0
  4 29  1  0  0  0  0
  4 32  2  0  0  0  0
  5  6  2  0  0  0  0
  5  7  1  0  0  0  0
  5  9  1  0  0  0  0
  6  8  1  0  0  0  0
  6 10  1  0  0  0  0
  7 11  2  0  0  0  0
  7 12  1  0  0  0  0
  8 14  1  0  0  0  0
  8 15  1  0  0  0  0
  9 16  2  0  0  0  0
  9 17  1  0  0  0  0
 10 20  2  0  0  0  0
 10 21  1  0  0  0  0
 11 18  1  0  0  0  0
 12 19  2  0  0  0  0
 13 18  2  0  0  0  0
 13 19  1  0  0  0  0
 13 23  1  0  0  0  0
 14 22  1  0  0  0  0
 15 22  1  0  0  0  0
 16 25  1  0  0  0  0
 17 26  2  0  0  0  0
 20 27  1  0  0  0  0
 21 28  2  0  0  0  0
 23 29  2  0  0  0  0
 24 25  2  0  0  0  0
 24 26  1  0  0  0  0
 24 31  1  0  0  0  0
 27 30  2  0  0  0  0
 28 30  1  0  0  0  0
 31 33  2  0  0  0  0
 33 34  1  0  0  0  0
M  END
> <PUBCHEM_COMPOUND_ID_TYPE>
0

> <PUBCHEM_TOTAL_CHARGE>
0

> <PUBCHEM_SUBSTANCE_ID>
310945058

> <PUBCHEM_SUBSTANCE_VERSION>
1

> <PUBCHEM_EXT_DATASOURCE_NAME>
4488

> <PUBCHEM_EXT_DATASOURCE_REGID>
SCHEMBL16123147

> <PUBCHEM_SUBSTANCE_COMMENT>
InChI=1S/C30H25NO2S/c32-28(33)18-11-21-9-12-25(13-10-21)30(26-16-14-22(15-17-26)27-19-31-20-34-27)29(24-7-4-8-24)23-5-2-1-3-6-23/h1-3,5-6,9-20,24H,4,7-8H2,(H,32,33)/b18-11+,30-29-
InChIKey=AQXUYAJUSGOWMZ-GLDINAPMSA-N

> <PUBCHEM_SUBSTANCE_SYNONYM>
SCHEMBL16123147

> <PUBCHEM_XREF_EXT_ID>
SCHEMBL16123147

> <PUBCHEM_EXT_DATASOURCE_URL>
https://www.surechembl.org/

> <PUBCHEM_EXT_SUBSTANCE_URL>
https://www.surechembl.org/chemical/SCHEMBL16123147

> <PUBCHEM_CID_ASSOCIATIONS>
86271089  1

> <PUBCHEM_COORDINATE_TYPE>
1
3

$$$$
