310929688
  -OEChem-07211613022D

 57 63  0     1  0  0  0  0  0999 V2000
    7.4874   -2.7607    0.0000 O   0  0  0  0  0  0  0  0  0  0  0  0
    8.7422   -2.0496    0.0000 O   0  0  0  0  0  0  0  0  0  0  0  0
    6.2325   -4.4757    0.0000 O   0  0  0  0  0  0  0  0  0  0  0  0
    5.9397   -0.8784    0.0000 O   0  0  0  0  0  0  0  0  0  0  0  0
    4.0574   -0.7111    0.0000 O   0  0  0  0  0  0  0  0  0  0  0  0
    5.1868   -7.3200    0.0000 O   0  0  0  0  0  0  0  0  0  0  0  0
    1.3803   -3.1790    0.0000 O   0  0  0  0  0  0  0  0  0  0  0  0
    1.2549   -1.9241    0.0000 O   0  0  0  0  0  0  0  0  0  0  0  0
    1.3803   -7.4874    0.0000 O   0  0  0  0  0  0  0  0  0  0  0  0
    6.9017   -1.9241    0.0000 N   0  0  0  0  0  0  0  0  0  0  0  0
    4.8521   -1.7150    0.0000 N   0  0  0  0  0  0  0  0  0  0  0  0
    6.7763   -5.3959    0.0000 N   0  0  0  0  0  0  0  0  0  0  0  0
    2.4261   -1.8823    0.0000 N   0  0  0  0  0  0  0  0  0  0  0  0
    3.0535   -7.6965    0.0000 N   0  0  0  0  0  0  0  0  0  0  0  0
    7.5292   -1.3385    0.0000 C   0  0  3  0  0  0  0  0  0  0  0  0
    6.8181   -0.9202    0.0000 C   0  0  3  0  0  0  0  0  0  0  0  0
    7.5292   -0.5019    0.0000 C   0  0  0  0  0  0  0  0  0  0  0  0
    7.9056   -2.0496    0.0000 C   0  0  0  0  0  0  0  0  0  0  0  0
    6.1070   -1.6732    0.0000 C   0  0  0  0  0  0  0  0  0  0  0  0
    5.5214   -2.2588    0.0000 C   0  0  3  0  0  0  0  0  0  0  0  0
    6.1489   -1.0875    0.0000 C   0  0  0  0  0  0  0  0  0  0  0  0
    6.3161   -3.6391    0.0000 C   0  0  3  0  0  0  0  0  0  0  0  0
    6.0234   -2.8862    0.0000 C   0  0  0  0  0  0  0  0  0  0  0  0
    4.0156   -1.5058    0.0000 C   0  0  0  0  0  0  0  0  0  0  0  0
    6.1070   -2.2588    0.0000 C   0  0  0  0  0  0  0  0  0  0  0  0
    5.9815   -5.2704    0.0000 C   0  0  0  0  0  0  0  0  0  0  0  0
    3.1790   -1.5895    0.0000 C   0  0  3  0  0  0  0  0  0  0  0  0
    5.4378   -5.9397    0.0000 C   0  0  0  0  0  0  0  0  0  0  0  0
    5.7306   -6.6926    0.0000 C   0  0  0  0  0  0  0  0  0  0  0  0
    6.4834   -6.8181    0.0000 C   0  0  0  0  0  0  0  0  0  0  0  0
    7.0691   -6.1070    0.0000 C   0  0  0  0  0  0  0  0  0  0  0  0
    2.9699   -0.7947    0.0000 C   0  0  0  0  0  0  0  0  0  0  0  0
    5.5632   -1.6313    0.0000 C   0  0  0  0  0  0  0  0  0  0  0  0
    4.7267   -6.3580    0.0000 C   0  0  0  0  0  0  0  0  0  0  0  0
    6.8599   -7.6128    0.0000 C   0  0  0  0  0  0  0  0  0  0  0  0
    7.9056   -6.3161    0.0000 C   0  0  0  0  0  0  0  0  0  0  0  0
    1.8823   -2.4261    0.0000 C   0  0  0  0  0  0  0  0  0  0  0  0
    3.8064   -0.5856    0.0000 C   0  0  0  0  0  0  0  0  0  0  0  0
    2.8025    0.0000    0.0000 C   0  0  0  0  0  0  0  0  0  0  0  0
    2.1751   -0.9621    0.0000 C   0  0  0  0  0  0  0  0  0  0  0  0
    7.6128   -7.7383    0.0000 C   0  0  0  0  0  0  0  0  0  0  0  0
    8.1984   -7.0272    0.0000 C   0  0  0  0  0  0  0  0  0  0  0  0
    3.9737   -6.5253    0.0000 C   0  0  0  0  0  0  0  0  0  0  0  0
    4.3920   -7.1945    0.0000 C   0  0  0  0  0  0  0  0  0  0  0  0
    1.2549   -3.9737    0.0000 C   0  0  3  0  0  0  0  0  0  0  0  0
    1.3385   -4.7685    0.0000 C   0  0  3  0  0  0  0  0  0  0  0  0
    3.0954   -6.4417    0.0000 C   0  0  0  0  0  0  0  0  0  0  0  0
    3.8482   -7.8638    0.0000 C   0  0  0  0  0  0  0  0  0  0  0  0
    0.5019   -3.8064    0.0000 C   0  0  0  0  0  0  0  0  0  0  0  0
    1.7568   -5.4796    0.0000 C   0  0  0  0  0  0  0  0  0  0  0  0
    0.6274   -5.1868    0.0000 C   0  0  0  0  0  0  0  0  0  0  0  0
    2.3843   -6.1070    0.0000 C   0  0  0  0  0  0  0  0  0  0  0  0
    0.0000   -4.6012    0.0000 C   0  0  0  0  0  0  0  0  0  0  0  0
    2.5097   -8.3658    0.0000 C   0  0  0  0  0  0  0  0  0  0  0  0
    2.7188   -6.9436    0.0000 C   0  0  0  0  0  0  0  0  0  0  0  0
    1.8823   -6.8181    0.0000 C   0  0  0  0  0  0  0  0  0  0  0  0
    1.6732   -8.2403    0.0000 C   0  0  0  0  0  0  0  0  0  0  0  0
  1 18  2  0  0  0  0
  2 18  1  0  0  0  0
  3 22  1  0  0  0  0
  3 26  1  0  0  0  0
  4 19  2  0  0  0  0
  5 24  2  0  0  0  0
  6 29  1  0  0  0  0
  6 44  1  0  0  0  0
  7 37  1  0  0  0  0
  7 45  1  0  0  0  0
  8 37  2  0  0  0  0
  9 56  1  0  0  0  0
  9 57  1  0  0  0  0
 15 10  1  1  0  0  0
 10 19  1  0  0  0  0
 11 20  1  0  0  0  0
 11 24  1  0  0  0  0
 11 25  1  0  0  0  0
 12 26  1  0  0  0  0
 12 31  2  0  0  0  0
 13 27  1  0  0  0  0
 13 37  1  0  0  0  0
 14 48  1  0  0  0  0
 14 54  1  0  0  0  0
 14 55  1  0  0  0  0
 15 16  1  0  0  0  0
 15 17  1  0  0  0  0
 15 18  1  6  0  0  0
 16 17  1  0  0  0  0
 16 21  1  6  0  0  0
 20 19  1  6  0  0  0
 20 23  1  0  0  0  0
 21 33  2  0  0  0  0
 22 23  1  1  0  0  0
 22 25  1  0  0  0  0
 24 27  1  0  0  0  0
 26 28  2  0  0  0  0
 27 32  1  1  0  0  0
 28 29  1  0  0  0  0
 28 34  1  0  0  0  0
 29 30  2  0  0  0  0
 30 31  1  0  0  0  0
 30 35  1  0  0  0  0
 31 36  1  0  0  0  0
 32 38  1  0  0  0  0
 32 39  1  0  0  0  0
 32 40  1  0  0  0  0
 34 43  1  0  0  0  0
 35 41  2  0  0  0  0
 36 42  2  0  0  0  0
 41 42  1  0  0  0  0
 43 47  1  0  0  0  0
 44 48  1  0  0  0  0
 45 46  1  0  0  0  0
 45 49  1  1  0  0  0
 46 50  1  0  0  0  0
 46 51  1  6  0  0  0
 47 52  1  0  0  0  0
 49 53  1  0  0  0  0
 50 52  1  0  0  0  0
 51 53  1  0  0  0  0
 54 57  1  0  0  0  0
 55 56  1  0  0  0  0
M  END
> <PUBCHEM_COMPOUND_ID_TYPE>
0

> <PUBCHEM_TOTAL_CHARGE>
0

> <PUBCHEM_SUBSTANCE_ID>
310929688

> <PUBCHEM_SUBSTANCE_VERSION>
1

> <PUBCHEM_EXT_DATASOURCE_NAME>
4488

> <PUBCHEM_EXT_DATASOURCE_REGID>
SCHEMBL16106879

> <PUBCHEM_SUBSTANCE_COMMENT>
InChI=1S/C43H59N5O9/c1-5-28-25-43(28,40(51)52)46-37(49)33-24-29-26-48(33)39(50)36(42(2,3)4)45-41(53)57-34-17-11-13-27(34)12-7-6-8-15-31-35(55-23-20-47-18-21-54-22-19-47)30-14-9-10-16-32(30)44-38(31)56-29/h5,9-10,14,16,27-29,33-34,36H,1,6-8,11-13,15,17-26H2,2-4H3,(H,45,53)(H,46,49)(H,51,52)/t27-,28-,29-,33+,34-,36-,43-/m1/s1
InChIKey=QDOPLANDNQEQII-TVURZCIXSA-N

> <PUBCHEM_SUBSTANCE_SYNONYM>
SCHEMBL16106879

> <PUBCHEM_XREF_EXT_ID>
SCHEMBL16106879

> <PUBCHEM_EXT_DATASOURCE_URL>
https://www.surechembl.org/

> <PUBCHEM_EXT_SUBSTANCE_URL>
https://www.surechembl.org/chemical/SCHEMBL16106879

> <PUBCHEM_CID_ASSOCIATIONS>
117598986  1

> <PUBCHEM_COORDINATE_TYPE>
1
3

> <PUBCHEM_BONDANNOTATIONS>
15  10  5
15  18  6
16  21  6
20  19  6
22  23  5
27  32  5
45  49  5
46  51  6

$$$$
