310948880
  -OEChem-07211613022D

 51 51  0     1  0  0  0  0  0999 V2000
   -7.1643   -1.0323    0.0000 O   0  0  0  0  0  0  0  0  0  0  0  0
   -5.7426    2.2686    0.0000 O   0  0  0  0  0  0  0  0  0  0  0  0
   -9.9707   -0.1669    0.0000 O   0  0  0  0  0  0  0  0  0  0  0  0
   -6.5709   -0.2040    0.0000 O   0  0  0  0  0  0  0  0  0  0  0  0
   -5.7426   -1.0323    0.0000 O   0  0  0  0  0  0  0  0  0  0  0  0
   -0.7480    1.0323    0.0000 O   0  0  0  0  0  0  0  0  0  0  0  0
   -8.5737   -0.2040    0.0000 N   0  0  0  0  0  0  0  0  0  0  0  0
   -4.8772    1.0323    0.0000 N   0  0  0  0  0  0  0  0  0  0  0  0
   -8.5737    1.4403    0.0000 N   0  0  0  0  0  0  0  0  0  0  0  0
   -1.4402   -0.2040    0.0000 N   0  0  0  0  0  0  0  0  0  0  0  0
   -7.8567    0.2040    0.0000 C   0  0  3  0  0  0  0  0  0  0  0  0
   -7.1519   -0.1916    0.0000 C   0  0  3  0  0  0  0  0  0  0  0  0
   -6.4473    1.0323    0.0000 C   0  0  0  0  0  0  0  0  0  0  0  0
   -7.8567    1.0323    0.0000 C   0  0  3  0  0  0  0  0  0  0  0  0
   -6.4473    0.2040    0.0000 C   0  0  0  0  0  0  0  0  0  0  0  0
   -7.1643    1.4279    0.0000 C   0  0  0  0  0  0  0  0  0  0  0  0
   -5.7426    1.4279    0.0000 C   0  0  0  0  0  0  0  0  0  0  0  0
   -7.8690   -1.4403    0.0000 C   0  0  3  0  0  0  0  0  0  0  0  0
   -9.2042    0.2411    0.0000 C   0  0  0  0  0  0  0  0  0  0  0  0
   -5.0132    0.2164    0.0000 C   0  0  3  0  0  0  0  0  0  0  0  0
   -5.7055   -0.2040    0.0000 C   0  0  0  0  0  0  0  0  0  0  0  0
   -4.2961   -0.2040    0.0000 C   0  0  0  0  0  0  0  0  0  0  0  0
   -8.5985   -1.0323    0.0000 C   0  0  0  0  0  0  0  0  0  0  0  0
   -7.8567   -2.2686    0.0000 C   0  0  0  0  0  0  0  0  0  0  0  0
   -9.1918    1.0199    0.0000 C   0  0  0  0  0  0  0  0  0  0  0  0
   -3.5914    0.2040    0.0000 C   0  0  0  0  0  0  0  0  0  0  0  0
   -9.2784   -1.4526    0.0000 C   0  0  0  0  0  0  0  0  0  0  0  0
   -2.8744   -0.2040    0.0000 C   0  0  0  0  0  0  0  0  0  0  0  0
   -2.1697    0.2040    0.0000 C   0  0  0  0  0  0  0  0  0  0  0  0
   -0.7480    0.1916    0.0000 C   0  0  0  0  0  0  0  0  0  0  0  0
   -0.0185   -0.2040    0.0000 C   0  0  0  0  0  0  0  0  0  0  0  0
    0.6861    0.2040    0.0000 C   0  0  0  0  0  0  0  0  0  0  0  0
    1.4032   -0.2040    0.0000 C   0  0  0  0  0  0  0  0  0  0  0  0
    2.1203    0.2040    0.0000 C   0  0  0  0  0  0  0  0  0  0  0  0
    2.1326    1.0323    0.0000 C   0  0  0  0  0  0  0  0  0  0  0  0
    2.8249    1.4403    0.0000 C   0  0  0  0  0  0  0  0  0  0  0  0
    3.5544    1.0199    0.0000 C   0  0  0  0  0  0  0  0  0  0  0  0
    3.5544    0.2040    0.0000 C   0  0  0  0  0  0  0  0  0  0  0  0
    4.2590   -0.2040    0.0000 C   0  0  0  0  0  0  0  0  0  0  0  0
    4.9761    0.2040    0.0000 C   0  0  0  0  0  0  0  0  0  0  0  0
    4.9884    1.0323    0.0000 C   0  0  0  0  0  0  0  0  0  0  0  0
    5.6808    1.4403    0.0000 C   0  0  0  0  0  0  0  0  0  0  0  0
    6.4102    1.0199    0.0000 C   0  0  0  0  0  0  0  0  0  0  0  0
    6.4102    0.2040    0.0000 C   0  0  0  0  0  0  0  0  0  0  0  0
    7.1149   -0.2040    0.0000 C   0  0  0  0  0  0  0  0  0  0  0  0
    7.8320    0.2040    0.0000 C   0  0  0  0  0  0  0  0  0  0  0  0
    7.8443    1.0323    0.0000 C   0  0  0  0  0  0  0  0  0  0  0  0
    8.5366    1.4403    0.0000 C   0  0  0  0  0  0  0  0  0  0  0  0
    9.2661    1.0323    0.0000 C   0  0  0  0  0  0  0  0  0  0  0  0
    9.2661    0.2040    0.0000 C   0  0  0  0  0  0  0  0  0  0  0  0
    9.9707   -0.2040    0.0000 C   0  0  0  0  0  0  0  0  0  0  0  0
 12  1  1  1  0  0  0
  1 18  1  0  0  0  0
  2 17  2  0  0  0  0
  3 19  2  0  0  0  0
  4 21  2  0  0  0  0
  5 21  1  0  0  0  0
  6 30  2  0  0  0  0
 11  7  1  6  0  0  0
  7 19  1  0  0  0  0
  8 17  1  0  0  0  0
 20  8  1  1  0  0  0
 14  9  1  1  0  0  0
 10 29  1  0  0  0  0
 10 30  1  0  0  0  0
 11 12  1  0  0  0  0
 11 14  1  0  0  0  0
 12 15  1  0  0  0  0
 13 15  2  0  0  0  0
 13 16  1  0  0  0  0
 13 17  1  0  0  0  0
 14 16  1  0  0  0  0
 18 23  1  0  0  0  0
 18 24  1  0  0  0  0
 19 25  1  0  0  0  0
 20 21  1  0  0  0  0
 20 22  1  0  0  0  0
 22 26  1  0  0  0  0
 23 27  1  0  0  0  0
 26 28  1  0  0  0  0
 28 29  1  0  0  0  0
 30 31  1  0  0  0  0
 31 32  1  0  0  0  0
 32 33  1  0  0  0  0
 33 34  2  0  0  0  0
 34 35  1  0  0  0  0
 35 36  1  0  0  0  0
 36 37  2  0  0  0  0
 37 38  1  0  0  0  0
 38 39  1  0  0  0  0
 39 40  2  0  0  0  0
 40 41  1  0  0  0  0
 41 42  1  0  0  0  0
 42 43  2  0  0  0  0
 43 44  1  0  0  0  0
 44 45  1  0  0  0  0
 45 46  2  0  0  0  0
 46 47  1  0  0  0  0
 47 48  1  0  0  0  0
 48 49  2  0  0  0  0
 49 50  1  0  0  0  0
 50 51  1  0  0  0  0
M  END
> <PUBCHEM_COMPOUND_ID_TYPE>
0

> <PUBCHEM_TOTAL_CHARGE>
0

> <PUBCHEM_SUBSTANCE_ID>
310948880

> <PUBCHEM_SUBSTANCE_VERSION>
1

> <PUBCHEM_EXT_DATASOURCE_NAME>
4488

> <PUBCHEM_EXT_DATASOURCE_REGID>
SCHEMBL16127065

> <PUBCHEM_SUBSTANCE_COMMENT>
InChI=1S/C41H64N4O6/c1-5-7-8-9-10-11-12-13-14-15-16-17-18-19-20-21-22-23-24-28-38(47)43-29-26-25-27-36(41(49)50)45-40(48)34-30-35(42)39(44-33(4)46)37(31-34)51-32(3)6-2/h7-8,10-11,13-14,16-17,19-20,22-23,31-32,35-37,39H,5-6,9,12,15,18,21,24-30,42H2,1-4H3,(H,43,47)(H,44,46)(H,45,48)(H,49,50)/b8-7-,11-10-,14-13-,17-16-,20-19-,23-22-/t32?,35-,36-,37+,39+/m0/s1
InChIKey=BMXSSEYCQBCHHU-DBIAGOMASA-N

> <PUBCHEM_SUBSTANCE_SYNONYM>
SCHEMBL16127065

> <PUBCHEM_XREF_EXT_ID>
SCHEMBL16127065

> <PUBCHEM_EXT_DATASOURCE_URL>
https://www.surechembl.org/

> <PUBCHEM_EXT_SUBSTANCE_URL>
https://www.surechembl.org/chemical/SCHEMBL16127065

> <PUBCHEM_CID_ASSOCIATIONS>
117614410  1

> <PUBCHEM_COORDINATE_TYPE>
1
3

> <PUBCHEM_BONDANNOTATIONS>
12  1  5
11  7  6
20  8  5
14  9  5

$$$$
