310934971
  -OEChem-07211613022D

 24 26  0     0  0  0  0  0  0999 V2000
    2.9067   -4.8037    0.0000 S   0  0  0  0  0  0  0  0  0  0  0  0
    0.7038   -5.9664    0.0000 O   0  0  0  0  0  0  0  0  0  0  0  0
    4.6202   -4.5896    0.0000 N   0  0  0  0  0  0  0  0  0  0  0  0
    2.2336   -5.9664    0.0000 N   0  0  0  0  0  0  0  0  0  0  0  0
    1.4381   -4.7119    0.0000 N   0  0  0  0  0  0  0  0  0  0  0  0
    3.4574   -5.4157    0.0000 C   0  0  0  0  0  0  0  0  0  0  0  0
    2.1418   -5.1403    0.0000 C   0  0  0  0  0  0  0  0  0  0  0  0
    4.2530   -5.3239    0.0000 C   0  0  0  0  0  0  0  0  0  0  0  0
    3.0291   -6.1194    0.0000 C   0  0  0  0  0  0  0  0  0  0  0  0
    5.2933   -3.0903    0.0000 C   0  0  0  0  0  0  0  0  0  0  0  0
    4.1000   -3.8858    0.0000 C   0  0  0  0  0  0  0  0  0  0  0  0
    5.4157   -4.4978    0.0000 C   0  0  0  0  0  0  0  0  0  0  0  0
    4.4366   -3.1515    0.0000 C   0  0  0  0  0  0  0  0  0  0  0  0
    5.7523   -3.7635    0.0000 C   0  0  0  0  0  0  0  0  0  0  0  0
    0.7038   -5.1403    0.0000 C   0  0  0  0  0  0  0  0  0  0  0  0
    5.6299   -2.3254    0.0000 C   0  0  0  0  0  0  0  0  0  0  0  0
    6.7925   -1.4993    0.0000 C   0  0  0  0  0  0  0  0  0  0  0  0
    6.4560   -2.2642    0.0000 C   0  0  0  0  0  0  0  0  0  0  0  0
    6.3030   -0.8261    0.0000 C   0  0  0  0  0  0  0  0  0  0  0  0
    7.6187   -1.4075    0.0000 C   0  0  0  0  0  0  0  0  0  0  0  0
    0.0000   -4.7119    0.0000 C   0  0  0  0  0  0  0  0  0  0  0  0
    6.6396   -0.0918    0.0000 C   0  0  0  0  0  0  0  0  0  0  0  0
    7.9552   -0.6731    0.0000 C   0  0  0  0  0  0  0  0  0  0  0  0
    7.4657    0.0000    0.0000 C   0  0  0  0  0  0  0  0  0  0  0  0
  1  6  1  0  0  0  0
  1  7  1  0  0  0  0
  2 15  2  0  0  0  0
  3  8  1  0  0  0  0
  3 11  1  0  0  0  0
  3 12  1  0  0  0  0
  4  7  2  0  0  0  0
  4  9  1  0  0  0  0
  5  7  1  0  0  0  0
  5 15  1  0  0  0  0
  6  8  1  0  0  0  0
  6  9  2  0  0  0  0
 10 13  1  0  0  0  0
 10 14  1  0  0  0  0
 10 16  1  0  0  0  0
 11 13  1  0  0  0  0
 12 14  1  0  0  0  0
 15 21  1  0  0  0  0
 16 18  1  0  0  0  0
 17 18  1  0  0  0  0
 17 19  2  0  0  0  0
 17 20  1  0  0  0  0
 19 22  1  0  0  0  0
 20 23  2  0  0  0  0
 22 24  2  0  0  0  0
 23 24  1  0  0  0  0
M  END
> <PUBCHEM_COMPOUND_ID_TYPE>
0

> <PUBCHEM_TOTAL_CHARGE>
0

> <PUBCHEM_SUBSTANCE_ID>
310934971

> <PUBCHEM_SUBSTANCE_VERSION>
1

> <PUBCHEM_EXT_DATASOURCE_NAME>
4488

> <PUBCHEM_EXT_DATASOURCE_REGID>
SCHEMBL16112487

> <PUBCHEM_SUBSTANCE_COMMENT>
InChI=1S/C19H25N3OS/c1-15(23)21-19-20-13-18(24-19)14-22-11-9-17(10-12-22)8-7-16-5-3-2-4-6-16/h2-6,13,17H,7-12,14H2,1H3,(H,20,21,23)
InChIKey=UQBBCAQSLPTILK-UHFFFAOYSA-N

> <PUBCHEM_SUBSTANCE_SYNONYM>
SCHEMBL16112487

> <PUBCHEM_XREF_EXT_ID>
SCHEMBL16112487

> <PUBCHEM_EXT_DATASOURCE_URL>
https://www.surechembl.org/

> <PUBCHEM_EXT_SUBSTANCE_URL>
https://www.surechembl.org/chemical/SCHEMBL16112487

> <PUBCHEM_CID_ASSOCIATIONS>
117603089  1

> <PUBCHEM_COORDINATE_TYPE>
1
3

$$$$
