310930893
  -OEChem-07211613022D

 32 36  0     0  0  0  0  0  0999 V2000
    6.4337   -2.8192    0.0000 S   0  0  0  0  0  0  0  0  0  0  0  0
    2.2048   -7.0481    0.0000 O   0  0  0  0  0  0  0  0  0  0  0  0
    5.6385   -2.3855    0.0000 O   0  0  0  0  0  0  0  0  0  0  0  0
    7.1204   -3.2530    0.0000 O   0  0  0  0  0  0  0  0  0  0  0  0
    3.9397   -7.1204    0.0000 O   0  0  0  0  0  0  0  0  0  0  0  0
    6.8674   -0.6867    0.0000 N   0  0  0  0  0  0  0  0  0  0  0  0
    3.9397   -5.7108    0.0000 N   0  0  0  0  0  0  0  0  0  0  0  0
    0.0000   -6.8312    0.0000 N   0  0  0  0  0  0  0  0  0  0  0  0
    6.8312   -2.1325    0.0000 C   0  0  0  0  0  0  0  0  0  0  0  0
    5.9999   -3.5421    0.0000 C   0  0  0  0  0  0  0  0  0  0  0  0
    8.0962   -1.4096    0.0000 C   0  0  0  0  0  0  0  0  0  0  0  0
    7.6625   -2.1325    0.0000 C   0  0  0  0  0  0  0  0  0  0  0  0
    7.6987   -0.6867    0.0000 C   0  0  0  0  0  0  0  0  0  0  0  0
    6.4337   -1.4096    0.0000 C   0  0  0  0  0  0  0  0  0  0  0  0
    2.6747   -6.3975    0.0000 C   0  0  0  0  0  0  0  0  0  0  0  0
    1.4096   -6.8312    0.0000 C   0  0  0  0  0  0  0  0  0  0  0  0
    1.4096   -5.9637    0.0000 C   0  0  0  0  0  0  0  0  0  0  0  0
    5.1686   -3.5421    0.0000 C   0  0  0  0  0  0  0  0  0  0  0  0
    6.3975   -4.2650    0.0000 C   0  0  0  0  0  0  0  0  0  0  0  0
    2.2048   -5.7469    0.0000 C   0  0  0  0  0  0  0  0  0  0  0  0
    5.1686   -4.9878    0.0000 C   0  0  0  0  0  0  0  0  0  0  0  0
    3.5060   -6.3975    0.0000 C   0  0  0  0  0  0  0  0  0  0  0  0
    4.7710   -4.2650    0.0000 C   0  0  0  0  0  0  0  0  0  0  0  0
    5.9999   -4.9878    0.0000 C   0  0  0  0  0  0  0  0  0  0  0  0
    8.8914   -1.4457    0.0000 C   0  0  0  0  0  0  0  0  0  0  0  0
    8.0962    0.0000    0.0000 C   0  0  0  0  0  0  0  0  0  0  0  0
    0.6867   -7.2288    0.0000 C   0  0  0  0  0  0  0  0  0  0  0  0
    0.6867   -5.5662    0.0000 C   0  0  0  0  0  0  0  0  0  0  0  0
    4.7710   -5.7108    0.0000 C   0  0  0  0  0  0  0  0  0  0  0  0
    9.3251   -0.7229    0.0000 C   0  0  0  0  0  0  0  0  0  0  0  0
    0.0000   -5.9637    0.0000 C   0  0  0  0  0  0  0  0  0  0  0  0
    8.9275    0.0000    0.0000 C   0  0  0  0  0  0  0  0  0  0  0  0
  1  3  2  0  0  0  0
  1  4  2  0  0  0  0
  1  9  1  0  0  0  0
  1 10  1  0  0  0  0
  2 15  1  0  0  0  0
  2 16  1  0  0  0  0
  5 22  2  0  0  0  0
  6 13  2  0  0  0  0
  6 14  1  0  0  0  0
  7 22  1  0  0  0  0
  7 29  1  0  0  0  0
  8 27  1  0  0  0  0
  8 31  2  0  0  0  0
  9 12  1  0  0  0  0
  9 14  2  0  0  0  0
 10 18  2  0  0  0  0
 10 19  1  0  0  0  0
 11 12  2  0  0  0  0
 11 13  1  0  0  0  0
 11 25  1  0  0  0  0
 13 26  1  0  0  0  0
 15 20  2  0  0  0  0
 15 22  1  0  0  0  0
 16 17  1  0  0  0  0
 16 27  2  0  0  0  0
 17 20  1  0  0  0  0
 17 28  2  0  0  0  0
 18 23  1  0  0  0  0
 19 24  2  0  0  0  0
 21 23  2  0  0  0  0
 21 24  1  0  0  0  0
 21 29  1  0  0  0  0
 25 30  2  0  0  0  0
 26 32  2  0  0  0  0
 28 31  1  0  0  0  0
 30 32  1  0  0  0  0
M  END
> <PUBCHEM_COMPOUND_ID_TYPE>
0

> <PUBCHEM_TOTAL_CHARGE>
0

> <PUBCHEM_SUBSTANCE_ID>
310930893

> <PUBCHEM_SUBSTANCE_VERSION>
1

> <PUBCHEM_EXT_DATASOURCE_NAME>
4488

> <PUBCHEM_EXT_DATASOURCE_REGID>
SCHEMBL16108191

> <PUBCHEM_SUBSTANCE_COMMENT>
InChI=1S/C24H17N3O4S/c28-24(22-12-18-9-10-25-15-23(18)31-22)27-13-16-5-7-19(8-6-16)32(29,30)20-11-17-3-1-2-4-21(17)26-14-20/h1-12,14-15H,13H2,(H,27,28)
InChIKey=NJNZAAVYLFASJL-UHFFFAOYSA-N

> <PUBCHEM_SUBSTANCE_SYNONYM>
SCHEMBL16108191

> <PUBCHEM_XREF_EXT_ID>
SCHEMBL16108191

> <PUBCHEM_EXT_DATASOURCE_URL>
https://www.surechembl.org/

> <PUBCHEM_EXT_SUBSTANCE_URL>
https://www.surechembl.org/chemical/SCHEMBL16108191

> <PUBCHEM_CID_ASSOCIATIONS>
56943469  1

> <PUBCHEM_COORDINATE_TYPE>
1
3

$$$$
