310944345
  -OEChem-07211613022D

 35 39  0     0  0  0  0  0  0999 V2000
   -0.0196    3.1166    0.0000 F   0  0  0  0  0  0  0  0  0  0  0  0
   -2.1757    2.6200    0.0000 N   0  0  0  0  0  0  0  0  0  0  0  0
    2.1365    2.6461    0.0000 N   0  0  0  0  0  0  0  0  0  0  0  0
   -0.7383    1.0388    0.0000 C   0  0  0  0  0  0  0  0  0  0  0  0
    0.6860    1.0519    0.0000 C   0  0  0  0  0  0  0  0  0  0  0  0
   -0.7383    1.8752    0.0000 C   0  0  0  0  0  0  0  0  0  0  0  0
    0.6860    1.9013    0.0000 C   0  0  0  0  0  0  0  0  0  0  0  0
   -0.0457    2.2934    0.0000 C   0  0  0  0  0  0  0  0  0  0  0  0
   -0.0065    0.6469    0.0000 C   0  0  0  0  0  0  0  0  0  0  0  0
   -1.4570    0.6337    0.0000 C   0  0  0  0  0  0  0  0  0  0  0  0
    1.4178    0.6469    0.0000 C   0  0  0  0  0  0  0  0  0  0  0  0
   -1.4701   -0.1895    0.0000 C   0  0  0  0  0  0  0  0  0  0  0  0
    1.4178   -0.1633    0.0000 C   0  0  0  0  0  0  0  0  0  0  0  0
   -1.4701    2.2672    0.0000 C   0  0  0  0  0  0  0  0  0  0  0  0
    1.4178    2.2934    0.0000 C   0  0  0  0  0  0  0  0  0  0  0  0
    2.1496   -0.5815    0.0000 C   0  0  0  0  0  0  0  0  0  0  0  0
   -2.1627   -0.6077    0.0000 C   0  0  0  0  0  0  0  0  0  0  0  0
   -2.1757    1.0258    0.0000 C   0  0  0  0  0  0  0  0  0  0  0  0
    2.1365    1.0519    0.0000 C   0  0  0  0  0  0  0  0  0  0  0  0
    2.1365   -1.4178    0.0000 C   0  0  0  0  0  0  0  0  0  0  0  0
   -2.1888   -1.4570    0.0000 C   0  0  0  0  0  0  0  0  0  0  0  0
    2.8683   -0.1764    0.0000 C   0  0  0  0  0  0  0  0  0  0  0  0
   -2.8683   -0.2156    0.0000 C   0  0  0  0  0  0  0  0  0  0  0  0
   -2.8814    0.5946    0.0000 C   0  0  0  0  0  0  0  0  0  0  0  0
    2.8814    0.6469    0.0000 C   0  0  0  0  0  0  0  0  0  0  0  0
    1.4178   -1.8491    0.0000 C   0  0  0  0  0  0  0  0  0  0  0  0
    2.8683   -1.8360    0.0000 C   0  0  0  0  0  0  0  0  0  0  0  0
   -2.8683   -1.8883    0.0000 C   0  0  0  0  0  0  0  0  0  0  0  0
   -1.4570   -1.8752    0.0000 C   0  0  0  0  0  0  0  0  0  0  0  0
    1.4178   -2.6593    0.0000 C   0  0  0  0  0  0  0  0  0  0  0  0
    2.8683   -2.6461    0.0000 C   0  0  0  0  0  0  0  0  0  0  0  0
   -2.8552   -2.7246    0.0000 C   0  0  0  0  0  0  0  0  0  0  0  0
   -1.4570   -2.6984    0.0000 C   0  0  0  0  0  0  0  0  0  0  0  0
    2.1496   -3.0774    0.0000 C   0  0  0  0  0  0  0  0  0  0  0  0
   -2.1496   -3.1166    0.0000 C   0  0  0  0  0  0  0  0  0  0  0  0
  1  8  1  0  0  0  0
  2 14  3  0  0  0  0
  3 15  3  0  0  0  0
  4  6  2  0  0  0  0
  4  9  1  0  0  0  0
  4 10  1  0  0  0  0
  5  7  1  0  0  0  0
  5  9  2  0  0  0  0
  5 11  1  0  0  0  0
  6  8  1  0  0  0  0
  6 14  1  0  0  0  0
  7  8  2  0  0  0  0
  7 15  1  0  0  0  0
 10 12  1  0  0  0  0
 10 18  2  0  0  0  0
 11 13  2  0  0  0  0
 11 19  1  0  0  0  0
 12 17  2  0  0  0  0
 13 16  1  0  0  0  0
 16 20  1  0  0  0  0
 16 22  2  0  0  0  0
 17 21  1  0  0  0  0
 17 23  1  0  0  0  0
 18 24  1  0  0  0  0
 19 25  2  0  0  0  0
 20 26  2  0  0  0  0
 20 27  1  0  0  0  0
 21 28  2  0  0  0  0
 21 29  1  0  0  0  0
 22 25  1  0  0  0  0
 23 24  2  0  0  0  0
 26 30  1  0  0  0  0
 27 31  2  0  0  0  0
 28 32  1  0  0  0  0
 29 33  2  0  0  0  0
 30 34  2  0  0  0  0
 31 34  1  0  0  0  0
 32 35  2  0  0  0  0
 33 35  1  0  0  0  0
M  END
> <PUBCHEM_COMPOUND_ID_TYPE>
0

> <PUBCHEM_TOTAL_CHARGE>
0

> <PUBCHEM_SUBSTANCE_ID>
310944345

> <PUBCHEM_SUBSTANCE_VERSION>
1

> <PUBCHEM_EXT_DATASOURCE_NAME>
4488

> <PUBCHEM_EXT_DATASOURCE_REGID>
SCHEMBL16122420

> <PUBCHEM_SUBSTANCE_COMMENT>
InChI=1S/C32H19FN2/c33-32-30(20-34)28(26-15-7-13-24(17-26)22-9-3-1-4-10-22)19-29(31(32)21-35)27-16-8-14-25(18-27)23-11-5-2-6-12-23/h1-19H
InChIKey=WARKOZZVOLZZCA-UHFFFAOYSA-N

> <PUBCHEM_SUBSTANCE_SYNONYM>
SCHEMBL16122420

> <PUBCHEM_XREF_EXT_ID>
SCHEMBL16122420

> <PUBCHEM_EXT_DATASOURCE_URL>
https://www.surechembl.org/

> <PUBCHEM_EXT_SUBSTANCE_URL>
https://www.surechembl.org/chemical/SCHEMBL16122420

> <PUBCHEM_CID_ASSOCIATIONS>
117610602  1

> <PUBCHEM_COORDINATE_TYPE>
1
3

$$$$
