310938776
  -OEChem-07211613022D

 28 31  0     0  0  0  0  0  0999 V2000
   -3.5724    1.7692    0.0000 Cl  0  0  0  0  0  0  0  0  0  0  0  0
   -2.1434    4.2442    0.0000 O   0  0  0  0  0  0  0  0  0  0  0  0
    0.7846    4.4018    0.0000 O   0  0  0  0  0  0  0  0  0  0  0  0
   -0.7145    3.4192    0.0000 O   0  0  0  0  0  0  0  0  0  0  0  0
    0.7145    1.7692    0.0000 O   0  0  0  0  0  0  0  0  0  0  0  0
    1.4289    3.0067    0.0000 N   0  0  0  0  0  0  0  0  0  0  0  0
    2.1434    1.7692    0.0000 N   0  0  0  0  0  0  0  0  0  0  0  0
   -2.1434    3.4192    0.0000 C   0  0  0  0  0  0  0  0  0  0  0  0
    0.0000    4.6567    0.0000 C   0  0  0  0  0  0  0  0  0  0  0  0
   -1.4289    4.6567    0.0000 C   0  0  0  0  0  0  0  0  0  0  0  0
    0.0000    5.4817    0.0000 C   0  0  0  0  0  0  0  0  0  0  0  0
   -1.4289    3.0067    0.0000 C   0  0  0  0  0  0  0  0  0  0  0  0
   -0.7145    4.2442    0.0000 C   0  0  0  0  0  0  0  0  0  0  0  0
   -1.4289    5.4817    0.0000 C   0  0  0  0  0  0  0  0  0  0  0  0
   -2.8579    3.0067    0.0000 C   0  0  0  0  0  0  0  0  0  0  0  0
   -0.7145    5.8942    0.0000 C   0  0  0  0  0  0  0  0  0  0  0  0
   -2.8579    2.1817    0.0000 C   0  0  0  0  0  0  0  0  0  0  0  0
    0.7846    5.7367    0.0000 C   0  0  0  0  0  0  0  0  0  0  0  0
   -1.4289    2.1817    0.0000 C   0  0  0  0  0  0  0  0  0  0  0  0
    1.2695    5.0692    0.0000 C   0  0  0  0  0  0  0  0  0  0  0  0
   -2.1434    1.7692    0.0000 C   0  0  0  0  0  0  0  0  0  0  0  0
    1.4289    2.1817    0.0000 C   0  0  0  0  0  0  0  0  0  0  0  0
    0.0000    3.0067    0.0000 C   0  0  0  0  0  0  0  0  0  0  0  0
    0.7145    3.4192    0.0000 C   0  0  0  0  0  0  0  0  0  0  0  0
    2.1434    3.4192    0.0000 C   0  0  0  0  0  0  0  0  0  0  0  0
    2.8579    2.1817    0.0000 C   0  0  0  0  0  0  0  0  0  0  0  0
    2.8579    3.0067    0.0000 C   0  0  0  0  0  0  0  0  0  0  0  0
    3.5724    1.7692    0.0000 C   0  0  0  0  0  0  0  0  0  0  0  0
  1 17  1  0  0  0  0
  2  8  1  0  0  0  0
  2 10  1  0  0  0  0
  3  9  1  0  0  0  0
  3 20  1  0  0  0  0
  4 12  1  0  0  0  0
  4 23  1  0  0  0  0
  5 22  2  0  0  0  0
  6 22  1  0  0  0  0
  6 24  1  0  0  0  0
  6 25  1  0  0  0  0
  7 22  1  0  0  0  0
  7 26  1  0  0  0  0
  8 12  1  0  0  0  0
  8 15  2  0  0  0  0
  9 11  1  0  0  0  0
  9 13  2  0  0  0  0
 10 13  1  0  0  0  0
 10 14  2  0  0  0  0
 11 16  2  0  0  0  0
 11 18  1  0  0  0  0
 12 19  2  0  0  0  0
 14 16  1  0  0  0  0
 15 17  1  0  0  0  0
 17 21  2  0  0  0  0
 18 20  2  0  0  0  0
 19 21  1  0  0  0  0
 23 24  1  0  0  0  0
 25 27  2  0  0  0  0
 26 27  1  0  0  0  0
 26 28  2  0  0  0  0
M  END
> <PUBCHEM_COMPOUND_ID_TYPE>
0

> <PUBCHEM_TOTAL_CHARGE>
0

> <PUBCHEM_SUBSTANCE_ID>
310938776

> <PUBCHEM_SUBSTANCE_VERSION>
1

> <PUBCHEM_EXT_DATASOURCE_NAME>
4488

> <PUBCHEM_EXT_DATASOURCE_REGID>
SCHEMBL16116692

> <PUBCHEM_SUBSTANCE_COMMENT>
InChI=1S/C21H17ClN2O4/c1-14-6-8-24(21(25)23-14)9-11-27-18-5-3-16(22)12-20(18)28-17-4-2-15-7-10-26-19(15)13-17/h2-8,10,12-13H,1,9,11H2,(H,23,25)
InChIKey=IWSITIYAHIHQQM-UHFFFAOYSA-N

> <PUBCHEM_SUBSTANCE_SYNONYM>
SCHEMBL16116692

> <PUBCHEM_XREF_EXT_ID>
SCHEMBL16116692

> <PUBCHEM_EXT_DATASOURCE_URL>
https://www.surechembl.org/

> <PUBCHEM_EXT_SUBSTANCE_URL>
https://www.surechembl.org/chemical/SCHEMBL16116692

> <PUBCHEM_CID_ASSOCIATIONS>
117606188  1

> <PUBCHEM_COORDINATE_TYPE>
1
3

$$$$
