310947967
  -OEChem-07211613022D

 11 10  0     1  0  0  0  0  0999 V2000
   -1.0815   -0.2062    0.0000 O   0  0  0  0  0  0  0  0  0  0  0  0
   -2.5104   -1.0313    0.0000 O   0  0  0  0  0  0  0  0  0  0  0  0
   -3.2249    1.0313    0.0000 O   0  0  0  0  0  0  0  0  0  0  0  0
   -1.7960    1.0313    0.0000 O   0  0  0  0  0  0  0  0  0  0  0  0
   -2.5104   -0.2062    0.0000 C   0  0  3  0  0  0  0  0  0  0  0  0
   -3.2249    0.2062    0.0000 C   0  0  3  0  0  0  0  0  0  0  0  0
   -1.7960    0.2062    0.0000 C   0  0  0  0  0  0  0  0  0  0  0  0
   -3.9394   -0.2062    0.0000 C   0  0  0  0  0  0  0  0  0  0  0  0
   -4.3519    0.5082    0.0000 C   0  0  0  0  0  0  0  0  0  0  0  0
   -3.5269   -0.9207    0.0000 C   0  0  0  0  0  0  0  0  0  0  0  0
   -0.3670    0.2062    0.0000 C   0  0  0  0  0  0  0  0  0  0  0  0
  1  7  1  0  0  0  0
  1 11  1  0  0  0  0
  5  2  1  1  0  0  0
  6  3  1  1  0  0  0
  4  7  2  0  0  0  0
  5  6  1  0  0  0  0
  5  7  1  0  0  0  0
  6  8  1  0  0  0  0
  8  9  1  0  0  0  0
  8 10  1  0  0  0  0
M  END
> <PUBCHEM_COMPOUND_ID_TYPE>
0

> <PUBCHEM_TOTAL_CHARGE>
0

> <PUBCHEM_SUBSTANCE_ID>
310947967

> <PUBCHEM_SUBSTANCE_VERSION>
1

> <PUBCHEM_EXT_DATASOURCE_NAME>
4488

> <PUBCHEM_EXT_DATASOURCE_REGID>
SCHEMBL16126141

> <PUBCHEM_SUBSTANCE_COMMENT>
InChI=1S/C7H14O4/c1-4(2)5(8)6(9)7(10)11-3/h4-6,8-9H,1-3H3/t5-,6+/m1/s1
InChIKey=PXGIKWRXGVWCBY-RITPCOANSA-N

> <PUBCHEM_SUBSTANCE_SYNONYM>
SCHEMBL16126141

> <PUBCHEM_XREF_EXT_ID>
SCHEMBL16126141

> <PUBCHEM_EXT_DATASOURCE_URL>
https://www.surechembl.org/

> <PUBCHEM_EXT_SUBSTANCE_URL>
https://www.surechembl.org/chemical/SCHEMBL16126141

> <PUBCHEM_CID_ASSOCIATIONS>
57305308  1

> <PUBCHEM_COORDINATE_TYPE>
1
3

> <PUBCHEM_BONDANNOTATIONS>
5  2  5
6  3  5
8  10  3
8  9  3

$$$$
