310929349
  -OEChem-07211613022D

 30 31  0     0  0  0  0  0  0999 V2000
   13.4412   -3.6786    0.0000 Cl  0  0  0  0  0  0  0  0  0  0  0  0
   13.3940   -0.4245    0.0000 O   0  0  0  0  0  0  0  0  0  0  0  0
    0.0000   -1.6507    0.0000 O   0  0  0  0  0  0  0  0  0  0  0  0
   12.0263   -1.2262    0.0000 N   0  0  0  0  0  0  0  0  0  0  0  0
   12.7338   -1.6507    0.0000 C   0  0  0  0  0  0  0  0  0  0  0  0
   12.7338   -2.4524    0.0000 C   0  0  0  0  0  0  0  0  0  0  0  0
   13.4412   -1.2262    0.0000 C   0  0  0  0  0  0  0  0  0  0  0  0
   13.4412   -2.8769    0.0000 C   0  0  0  0  0  0  0  0  0  0  0  0
   11.3189   -1.6507    0.0000 C   0  0  0  0  0  0  0  0  0  0  0  0
   12.0263   -2.8769    0.0000 C   0  0  0  0  0  0  0  0  0  0  0  0
   14.1486   -1.6035    0.0000 C   0  0  0  0  0  0  0  0  0  0  0  0
   14.1486   -2.4524    0.0000 C   0  0  0  0  0  0  0  0  0  0  0  0
   11.3189   -2.4524    0.0000 C   0  0  0  0  0  0  0  0  0  0  0  0
   10.6115   -1.2262    0.0000 C   0  0  0  0  0  0  0  0  0  0  0  0
   12.7338    0.0000    0.0000 C   0  0  0  0  0  0  0  0  0  0  0  0
    9.9040   -1.6507    0.0000 C   0  0  0  0  0  0  0  0  0  0  0  0
    9.1966   -1.2262    0.0000 C   0  0  0  0  0  0  0  0  0  0  0  0
   11.9792   -0.4245    0.0000 C   0  0  0  0  0  0  0  0  0  0  0  0
    8.4892   -1.6507    0.0000 C   0  0  0  0  0  0  0  0  0  0  0  0
    7.7817   -1.2262    0.0000 C   0  0  0  0  0  0  0  0  0  0  0  0
    7.0743   -1.6507    0.0000 C   0  0  0  0  0  0  0  0  0  0  0  0
    6.3669   -1.2262    0.0000 C   0  0  0  0  0  0  0  0  0  0  0  0
    5.6595   -1.6507    0.0000 C   0  0  0  0  0  0  0  0  0  0  0  0
    4.9520   -1.2262    0.0000 C   0  0  0  0  0  0  0  0  0  0  0  0
    4.2446   -1.6507    0.0000 C   0  0  0  0  0  0  0  0  0  0  0  0
    3.5372   -1.2262    0.0000 C   0  0  0  0  0  0  0  0  0  0  0  0
    2.8297   -1.6507    0.0000 C   0  0  0  0  0  0  0  0  0  0  0  0
    2.1223   -1.2262    0.0000 C   0  0  0  0  0  0  0  0  0  0  0  0
    1.4149   -1.6507    0.0000 C   0  0  0  0  0  0  0  0  0  0  0  0
    0.7074   -1.2262    0.0000 C   0  0  0  0  0  0  0  0  0  0  0  0
  1  8  1  0  0  0  0
  2  7  1  0  0  0  0
  2 15  1  0  0  0  0
  3 30  1  0  0  0  0
  4  5  2  0  0  0  0
  4  9  1  0  0  0  0
  5  6  1  0  0  0  0
  5  7  1  0  0  0  0
  6  8  1  0  0  0  0
  6 10  2  0  0  0  0
  7 11  2  0  0  0  0
  8 12  2  0  0  0  0
  9 13  2  0  0  0  0
  9 14  1  0  0  0  0
 10 13  1  0  0  0  0
 11 12  1  0  0  0  0
 14 16  1  0  0  0  0
 15 18  1  0  0  0  0
 16 17  1  0  0  0  0
 17 19  1  0  0  0  0
 19 20  1  0  0  0  0
 20 21  1  0  0  0  0
 21 22  1  0  0  0  0
 22 23  1  0  0  0  0
 23 24  1  0  0  0  0
 24 25  1  0  0  0  0
 25 26  1  0  0  0  0
 26 27  1  0  0  0  0
 27 28  1  0  0  0  0
 28 29  1  0  0  0  0
 29 30  1  0  0  0  0
M  END
> <PUBCHEM_COMPOUND_ID_TYPE>
0

> <PUBCHEM_TOTAL_CHARGE>
0

> <PUBCHEM_SUBSTANCE_ID>
310929349

> <PUBCHEM_SUBSTANCE_VERSION>
1

> <PUBCHEM_EXT_DATASOURCE_NAME>
4488

> <PUBCHEM_EXT_DATASOURCE_REGID>
SCHEMBL16106516

> <PUBCHEM_SUBSTANCE_COMMENT>
InChI=1S/C26H40ClNO2/c1-2-30-25-20-19-24(27)23-18-17-22(28-26(23)25)16-14-12-10-8-6-4-3-5-7-9-11-13-15-21-29/h17-20,29H,2-16,21H2,1H3
InChIKey=LLJSVNZKSLXPLF-UHFFFAOYSA-N

> <PUBCHEM_SUBSTANCE_SYNONYM>
SCHEMBL16106516

> <PUBCHEM_XREF_EXT_ID>
SCHEMBL16106516

> <PUBCHEM_EXT_DATASOURCE_URL>
https://www.surechembl.org/

> <PUBCHEM_EXT_SUBSTANCE_URL>
https://www.surechembl.org/chemical/SCHEMBL16106516

> <PUBCHEM_CID_ASSOCIATIONS>
85472180  1

> <PUBCHEM_COORDINATE_TYPE>
1
3

$$$$
