310936352
  -OEChem-07211613022D

 32 34  0     0  0  0  0  0  0999 V2000
    3.3070   -6.7267    0.0000 S   0  0  0  0  0  0  0  0  0  0  0  0
    3.3070   -5.3363    0.0000 F   0  0  0  0  0  0  0  0  0  0  0  0
    4.5471   -7.4407    0.0000 F   0  0  0  0  0  0  0  0  0  0  0  0
    4.5471   -6.0127    0.0000 F   0  0  0  0  0  0  0  0  0  0  0  0
    4.9605   -6.7267    0.0000 F   0  0  0  0  0  0  0  0  0  0  0  0
    1.6911    0.0000    0.0000 F   0  0  0  0  0  0  0  0  0  0  0  0
    1.0147   -3.7955    0.0000 O   0  0  0  0  0  0  0  0  0  0  0  0
    2.5178   -6.7267    0.0000 O   0  0  0  0  0  0  0  0  0  0  0  0
    3.3070   -5.8248    0.0000 O   0  0  0  0  0  0  0  0  0  0  0  0
    3.3070   -7.5159    0.0000 O   0  0  0  0  0  0  0  0  0  0  0  0
    3.7204   -4.0961    0.0000 O   0  0  0  0  0  0  0  0  0  0  0  0
    1.2025   -7.4032    0.0000 O   0  5  0  0  0  0  0  0  0  0  0  0
    0.0000   -6.6891    0.0000 O   0  0  0  0  0  0  0  0  0  0  0  0
    0.8268   -6.6891    0.0000 N   0  3  0  0  0  0  0  0  0  0  0  0
    3.3070   -2.7433    0.0000 N   0  0  0  0  0  0  0  0  0  0  0  0
    2.1044   -4.5847    0.0000 C   0  0  0  0  0  0  0  0  0  0  0  0
    2.3299   -3.7955    0.0000 C   0  0  0  0  0  0  0  0  0  0  0  0
    1.2401   -4.5847    0.0000 C   0  0  0  0  0  0  0  0  0  0  0  0
    2.4803   -5.2987    0.0000 C   0  0  0  0  0  0  0  0  0  0  0  0
    2.1044   -6.0127    0.0000 C   0  0  0  0  0  0  0  0  0  0  0  0
    1.6911   -3.3070    0.0000 C   0  0  0  0  0  0  0  0  0  0  0  0
    1.2401   -5.9751    0.0000 C   0  0  0  0  0  0  0  0  0  0  0  0
    0.8268   -5.2987    0.0000 C   0  0  0  0  0  0  0  0  0  0  0  0
    3.1191   -3.5700    0.0000 C   0  0  0  0  0  0  0  0  0  0  0  0
    1.6911   -2.4803    0.0000 C   0  0  0  0  0  0  0  0  0  0  0  0
    4.1338   -6.7267    0.0000 C   0  0  0  0  0  0  0  0  0  0  0  0
    0.9770   -2.0669    0.0000 C   0  0  0  0  0  0  0  0  0  0  0  0
    2.3675   -2.0669    0.0000 C   0  0  0  0  0  0  0  0  0  0  0  0
    0.9770   -1.2401    0.0000 C   0  0  0  0  0  0  0  0  0  0  0  0
    2.4051   -1.2401    0.0000 C   0  0  0  0  0  0  0  0  0  0  0  0
    1.6911   -0.8268    0.0000 C   0  0  0  0  0  0  0  0  0  0  0  0
    4.0586   -2.4803    0.0000 C   0  0  0  0  0  0  0  0  0  0  0  0
  1  8  1  0  0  0  0
  1  9  2  0  0  0  0
  1 10  2  0  0  0  0
  1 26  1  0  0  0  0
  2 19  1  0  0  0  0
  3 26  1  0  0  0  0
  4 26  1  0  0  0  0
  5 26  1  0  0  0  0
  6 31  1  0  0  0  0
  7 18  1  0  0  0  0
  7 21  1  0  0  0  0
  8 20  1  0  0  0  0
 11 24  2  0  0  0  0
 12 14  1  0  0  0  0
 13 14  2  0  0  0  0
 14 22  1  0  0  0  0
 15 24  1  0  0  0  0
 15 32  1  0  0  0  0
 16 17  1  0  0  0  0
 16 18  2  0  0  0  0
 16 19  1  0  0  0  0
 17 21  2  0  0  0  0
 17 24  1  0  0  0  0
 18 23  1  0  0  0  0
 19 20  2  0  0  0  0
 20 22  1  0  0  0  0
 21 25  1  0  0  0  0
 22 23  2  0  0  0  0
 25 27  2  0  0  0  0
 25 28  1  0  0  0  0
 27 29  1  0  0  0  0
 28 30  2  0  0  0  0
 29 31  2  0  0  0  0
 30 31  1  0  0  0  0
M  CHG  2  12  -1  14   1
M  END
> <PUBCHEM_COMPOUND_ID_TYPE>
0

> <PUBCHEM_TOTAL_CHARGE>
0

> <PUBCHEM_SUBSTANCE_ID>
310936352

> <PUBCHEM_SUBSTANCE_VERSION>
1

> <PUBCHEM_EXT_DATASOURCE_NAME>
4488

> <PUBCHEM_EXT_DATASOURCE_REGID>
SCHEMBL16113986

> <PUBCHEM_SUBSTANCE_COMMENT>
InChI=1S/C17H9F5N2O7S/c1-23-16(25)12-11-10(30-14(12)7-2-4-8(18)5-3-7)6-9(24(26)27)15(13(11)19)31-32(28,29)17(20,21)22/h2-6H,1H3,(H,23,25)
InChIKey=PWTKXQWCWKJHFX-UHFFFAOYSA-N

> <PUBCHEM_SUBSTANCE_SYNONYM>
SCHEMBL16113986

> <PUBCHEM_XREF_EXT_ID>
SCHEMBL16113986

> <PUBCHEM_EXT_DATASOURCE_URL>
https://www.surechembl.org/

> <PUBCHEM_EXT_SUBSTANCE_URL>
https://www.surechembl.org/chemical/SCHEMBL16113986

> <PUBCHEM_CID_ASSOCIATIONS>
117604293  1

> <PUBCHEM_COORDINATE_TYPE>
1
3

$$$$
