310939996
  -OEChem-07211613022D

 17 18  0     0  0  0  0  0  0999 V2000
   -2.0773    6.4956    0.0000 I   0  0  0  0  0  0  0  0  0  0  0  0
   -4.9351    4.8456    0.0000 Cl  0  0  0  0  0  0  0  0  0  0  0  0
   -4.9351    6.4956    0.0000 Cl  0  0  0  0  0  0  0  0  0  0  0  0
   -0.6485    7.3205    0.0000 Cl  0  0  0  0  0  0  0  0  0  0  0  0
   -2.0773    4.8456    0.0000 O   0  0  0  0  0  0  0  0  0  0  0  0
   -0.6485    4.8456    0.0000 N   0  0  0  0  0  0  0  0  0  0  0  0
   -2.7918    5.2581    0.0000 C   0  0  0  0  0  0  0  0  0  0  0  0
   -2.7918    6.0831    0.0000 C   0  0  0  0  0  0  0  0  0  0  0  0
   -4.2206    5.2581    0.0000 C   0  0  0  0  0  0  0  0  0  0  0  0
   -4.2206    6.0831    0.0000 C   0  0  0  0  0  0  0  0  0  0  0  0
   -3.5063    4.8456    0.0000 C   0  0  0  0  0  0  0  0  0  0  0  0
   -1.3630    5.2581    0.0000 C   0  0  0  0  0  0  0  0  0  0  0  0
   -3.5063    6.4956    0.0000 C   0  0  0  0  0  0  0  0  0  0  0  0
   -1.3630    6.0831    0.0000 C   0  0  0  0  0  0  0  0  0  0  0  0
   -0.6485    6.4956    0.0000 C   0  0  0  0  0  0  0  0  0  0  0  0
    0.0660    5.2581    0.0000 C   0  0  0  0  0  0  0  0  0  0  0  0
    0.0660    6.0831    0.0000 C   0  0  0  0  0  0  0  0  0  0  0  0
  1  8  1  0  0  0  0
  2  9  1  0  0  0  0
  3 10  1  0  0  0  0
  4 15  1  0  0  0  0
  5  7  1  0  0  0  0
  5 12  1  0  0  0  0
  6 12  1  0  0  0  0
  6 16  2  0  0  0  0
  7  8  1  0  0  0  0
  7 11  2  0  0  0  0
  8 13  2  0  0  0  0
  9 10  2  0  0  0  0
  9 11  1  0  0  0  0
 10 13  1  0  0  0  0
 12 14  2  0  0  0  0
 14 15  1  0  0  0  0
 15 17  2  0  0  0  0
 16 17  1  0  0  0  0
M  END
> <PUBCHEM_COMPOUND_ID_TYPE>
0

> <PUBCHEM_TOTAL_CHARGE>
0

> <PUBCHEM_SUBSTANCE_ID>
310939996

> <PUBCHEM_SUBSTANCE_VERSION>
1

> <PUBCHEM_EXT_DATASOURCE_NAME>
4488

> <PUBCHEM_EXT_DATASOURCE_REGID>
SCHEMBL16117926

> <PUBCHEM_SUBSTANCE_COMMENT>
InChI=1S/C11H5Cl3INO/c12-6-1-2-16-11(3-6)17-10-5-8(14)7(13)4-9(10)15/h1-5H
InChIKey=SCAARDRGPFSREK-UHFFFAOYSA-N

> <PUBCHEM_SUBSTANCE_SYNONYM>
SCHEMBL16117926

> <PUBCHEM_XREF_EXT_ID>
SCHEMBL16117926

> <PUBCHEM_EXT_DATASOURCE_URL>
https://www.surechembl.org/

> <PUBCHEM_EXT_SUBSTANCE_URL>
https://www.surechembl.org/chemical/SCHEMBL16117926

> <PUBCHEM_CID_ASSOCIATIONS>
117607159  1

> <PUBCHEM_COORDINATE_TYPE>
1
3

$$$$
