310938805
  -OEChem-07211613022D

 10 10  0     0  0  0  0  0  0999 V2000
    0.8162    3.4028    0.0000 O   0  0  0  0  0  0  0  0  0  0  0  0
    2.0537    2.6883    0.0000 N   0  0  0  0  0  0  0  0  0  0  0  0
    3.2204    2.6883    0.0000 C   0  0  0  0  0  0  0  0  0  0  0  0
    2.6370    3.2717    0.0000 C   0  0  0  0  0  0  0  0  0  0  0  0
    2.6370    2.1049    0.0000 C   0  0  0  0  0  0  0  0  0  0  0  0
    1.2287    2.6883    0.0000 C   0  0  0  0  0  0  0  0  0  0  0  0
    3.9349    3.1008    0.0000 C   0  0  0  0  0  0  0  0  0  0  0  0
    3.9349    2.2758    0.0000 C   0  0  0  0  0  0  0  0  0  0  0  0
    0.8162    1.9738    0.0000 C   0  0  0  0  0  0  0  0  0  0  0  0
   -0.0088    1.9738    0.0000 C   0  0  0  0  0  0  0  0  0  0  0  0
  1  6  2  0  0  0  0
  2  4  1  0  0  0  0
  2  5  1  0  0  0  0
  2  6  1  0  0  0  0
  3  4  1  0  0  0  0
  3  5  1  0  0  0  0
  3  7  1  0  0  0  0
  3  8  1  0  0  0  0
  6  9  1  0  0  0  0
  9 10  1  0  0  0  0
M  END
> <PUBCHEM_COMPOUND_ID_TYPE>
0

> <PUBCHEM_TOTAL_CHARGE>
0

> <PUBCHEM_SUBSTANCE_ID>
310938805

> <PUBCHEM_SUBSTANCE_VERSION>
1

> <PUBCHEM_EXT_DATASOURCE_NAME>
4488

> <PUBCHEM_EXT_DATASOURCE_REGID>
SCHEMBL16116722

> <PUBCHEM_SUBSTANCE_COMMENT>
InChI=1S/C8H15NO/c1-4-7(10)9-5-8(2,3)6-9/h4-6H2,1-3H3
InChIKey=WBXPHTDXDTZMKU-UHFFFAOYSA-N

> <PUBCHEM_SUBSTANCE_SYNONYM>
SCHEMBL16116722

> <PUBCHEM_XREF_EXT_ID>
SCHEMBL16116722

> <PUBCHEM_EXT_DATASOURCE_URL>
https://www.surechembl.org/

> <PUBCHEM_EXT_SUBSTANCE_URL>
https://www.surechembl.org/chemical/SCHEMBL16116722

> <PUBCHEM_CID_ASSOCIATIONS>
117606213  1

> <PUBCHEM_COORDINATE_TYPE>
1
3

$$$$
