310929967
  -OEChem-07211613022D

 24 23  0     0  0  0  0  0  0999 V2000
    4.4726   -2.1277    0.0000 O   0  0  0  0  0  0  0  0  0  0  0  0
    6.0792   -3.5173    0.0000 O   0  0  0  0  0  0  0  0  0  0  0  0
    9.7702   -5.6450    0.0000 O   0  0  0  0  0  0  0  0  0  0  0  0
    8.1201   -4.2121    0.0000 O   0  0  0  0  0  0  0  0  0  0  0  0
    1.9974   -2.1277    0.0000 O   0  0  0  0  0  0  0  0  0  0  0  0
   11.7677   -4.9502    0.0000 O   0  0  0  0  0  0  0  0  0  0  0  0
   13.0269   -5.6450    0.0000 O   0  0  0  0  0  0  0  0  0  0  0  0
    1.9974   -0.6948    0.0000 N   0  0  0  0  0  0  0  0  0  0  0  0
   11.7677   -6.3398    0.0000 N   0  0  0  0  0  0  0  0  0  0  0  0
    2.4317   -1.3896    0.0000 C   0  0  0  0  0  0  0  0  0  0  0  0
    3.2567   -1.3896    0.0000 C   0  0  0  0  0  0  0  0  0  0  0  0
    3.6475   -2.1277    0.0000 C   0  0  0  0  0  0  0  0  0  0  0  0
    4.8634   -2.8225    0.0000 C   0  0  0  0  0  0  0  0  0  0  0  0
    5.6884   -2.8225    0.0000 C   0  0  0  0  0  0  0  0  0  0  0  0
   12.2019   -5.6450    0.0000 C   0  0  0  0  0  0  0  0  0  0  0  0
   10.9861   -6.3398    0.0000 C   0  0  0  0  0  0  0  0  0  0  0  0
    6.9043   -3.5173    0.0000 C   0  0  0  0  0  0  0  0  0  0  0  0
   10.5518   -5.6016    0.0000 C   0  0  0  0  0  0  0  0  0  0  0  0
    7.2951   -4.2121    0.0000 C   0  0  0  0  0  0  0  0  0  0  0  0
    9.3359   -4.9502    0.0000 C   0  0  0  0  0  0  0  0  0  0  0  0
    8.5109   -4.9502    0.0000 C   0  0  0  0  0  0  0  0  0  0  0  0
    1.1724   -0.7382    0.0000 C   0  0  0  0  0  0  0  0  0  0  0  0
    0.7816    0.0000    0.0000 C   0  0  0  0  0  0  0  0  0  0  0  0
    0.0000    0.0000    0.0000 C   0  0  0  0  0  0  0  0  0  0  0  0
  1 12  1  0  0  0  0
  1 13  1  0  0  0  0
  2 14  1  0  0  0  0
  2 17  1  0  0  0  0
  3 18  1  0  0  0  0
  3 20  1  0  0  0  0
  4 19  1  0  0  0  0
  4 21  1  0  0  0  0
  5 10  2  0  0  0  0
  6 15  2  0  0  0  0
  7 15  1  0  0  0  0
  8 10  1  0  0  0  0
  8 22  1  0  0  0  0
  9 15  1  0  0  0  0
  9 16  1  0  0  0  0
 10 11  1  0  0  0  0
 11 12  1  0  0  0  0
 13 14  1  0  0  0  0
 16 18  1  0  0  0  0
 17 19  1  0  0  0  0
 20 21  1  0  0  0  0
 22 23  1  0  0  0  0
 23 24  3  0  0  0  0
M  END
> <PUBCHEM_COMPOUND_ID_TYPE>
0

> <PUBCHEM_TOTAL_CHARGE>
0

> <PUBCHEM_SUBSTANCE_ID>
310929967

> <PUBCHEM_SUBSTANCE_VERSION>
1

> <PUBCHEM_EXT_DATASOURCE_NAME>
4488

> <PUBCHEM_EXT_DATASOURCE_REGID>
SCHEMBL16107199

> <PUBCHEM_SUBSTANCE_COMMENT>
InChI=1S/C15H26N2O7/c1-2-4-16-14(18)3-6-21-8-10-23-12-13-24-11-9-22-7-5-17-15(19)20/h1,17H,3-13H2,(H,16,18)(H,19,20)
InChIKey=QHLJRYKOZBMSRY-UHFFFAOYSA-N

> <PUBCHEM_SUBSTANCE_SYNONYM>
SCHEMBL16107199

> <PUBCHEM_XREF_EXT_ID>
SCHEMBL16107199

> <PUBCHEM_EXT_DATASOURCE_URL>
https://www.surechembl.org/

> <PUBCHEM_EXT_SUBSTANCE_URL>
https://www.surechembl.org/chemical/SCHEMBL16107199

> <PUBCHEM_CID_ASSOCIATIONS>
117599225  1

> <PUBCHEM_COORDINATE_TYPE>
1
3

$$$$
