310944498
  -OEChem-07211613022D

 25 27  0     0  0  0  0  0  0999 V2000
   -4.0504    0.8002    0.0000 Cl  0  0  0  0  0  0  0  0  0  0  0  0
   -0.9817   -0.8497    0.0000 O   0  0  0  0  0  0  0  0  0  0  0  0
    0.4537    1.6251    0.0000 O   0  0  0  0  0  0  0  0  0  0  0  0
    2.6315   -0.4207    0.0000 N   0  0  0  0  0  0  0  0  0  0  0  0
    1.1962    0.4042    0.0000 N   0  0  0  0  0  0  0  0  0  0  0  0
   -0.9652    0.8167    0.0000 N   0  0  0  0  0  0  0  0  0  0  0  0
    4.5124   -1.4271    0.0000 N   0  0  0  0  0  0  0  0  0  0  0  0
   -1.6746    0.4042    0.0000 C   0  0  0  0  0  0  0  0  0  0  0  0
    3.3409   -0.8332    0.0000 C   0  0  0  0  0  0  0  0  0  0  0  0
   -1.6911   -0.4207    0.0000 C   0  0  0  0  0  0  0  0  0  0  0  0
   -3.0935   -0.4372    0.0000 C   0  0  0  0  0  0  0  0  0  0  0  0
   -3.0935    0.4042    0.0000 C   0  0  0  0  0  0  0  0  0  0  0  0
    0.4537    0.8002    0.0000 C   0  0  0  0  0  0  0  0  0  0  0  0
   -2.3675    0.8002    0.0000 C   0  0  0  0  0  0  0  0  0  0  0  0
   -2.3675   -0.8332    0.0000 C   0  0  0  0  0  0  0  0  0  0  0  0
    2.6150    0.4042    0.0000 C   0  0  0  0  0  0  0  0  0  0  0  0
    1.9221   -0.8332    0.0000 C   0  0  0  0  0  0  0  0  0  0  0  0
    1.8891    0.8002    0.0000 C   0  0  0  0  0  0  0  0  0  0  0  0
    1.1797   -0.4207    0.0000 C   0  0  0  0  0  0  0  0  0  0  0  0
   -0.2228    0.4042    0.0000 C   0  0  0  0  0  0  0  0  0  0  0  0
    3.5555   -1.6251    0.0000 C   0  0  0  0  0  0  0  0  0  0  0  0
    4.1329   -0.6352    0.0000 C   0  0  0  0  0  0  0  0  0  0  0  0
   -3.8029   -0.8332    0.0000 C   0  0  0  0  0  0  0  0  0  0  0  0
   -0.2392   -0.4372    0.0000 C   0  0  0  0  0  0  0  0  0  0  0  0
   -4.5124   -0.4537    0.0000 C   0  0  0  0  0  0  0  0  0  0  0  0
  1 12  1  0  0  0  0
  2 10  1  0  0  0  0
  2 24  1  0  0  0  0
  3 13  2  0  0  0  0
  4  9  1  0  0  0  0
  4 16  1  0  0  0  0
  4 17  1  0  0  0  0
  5 13  1  0  0  0  0
  5 18  1  0  0  0  0
  5 19  1  0  0  0  0
  6  8  1  0  0  0  0
  6 20  1  0  0  0  0
  7 21  1  0  0  0  0
  7 22  1  0  0  0  0
  8 10  1  0  0  0  0
  8 14  2  0  0  0  0
  9 21  1  0  0  0  0
  9 22  1  0  0  0  0
 10 15  2  0  0  0  0
 11 12  2  0  0  0  0
 11 15  1  0  0  0  0
 11 23  1  0  0  0  0
 12 14  1  0  0  0  0
 13 20  1  0  0  0  0
 16 18  1  0  0  0  0
 17 19  1  0  0  0  0
 23 25  1  0  0  0  0
M  END
> <PUBCHEM_COMPOUND_ID_TYPE>
0

> <PUBCHEM_TOTAL_CHARGE>
0

> <PUBCHEM_SUBSTANCE_ID>
310944498

> <PUBCHEM_SUBSTANCE_VERSION>
1

> <PUBCHEM_EXT_DATASOURCE_NAME>
4488

> <PUBCHEM_EXT_DATASOURCE_REGID>
SCHEMBL16122573

> <PUBCHEM_SUBSTANCE_COMMENT>
InChI=1S/C18H27ClN4O2/c1-3-13-8-17(25-2)16(9-15(13)19)21-12-18(24)23-6-4-22(5-7-23)14-10-20-11-14/h8-9,14,20-21H,3-7,10-12H2,1-2H3
InChIKey=WCMGWBVQZMKRNL-UHFFFAOYSA-N

> <PUBCHEM_SUBSTANCE_SYNONYM>
SCHEMBL16122573

> <PUBCHEM_XREF_EXT_ID>
SCHEMBL16122573

> <PUBCHEM_EXT_DATASOURCE_URL>
https://www.surechembl.org/

> <PUBCHEM_EXT_SUBSTANCE_URL>
https://www.surechembl.org/chemical/SCHEMBL16122573

> <PUBCHEM_CID_ASSOCIATIONS>
117610736  1

> <PUBCHEM_COORDINATE_TYPE>
1
3

$$$$
