310942961
  -OEChem-07211613022D

 31 35  0     1  0  0  0  0  0999 V2000
   -2.6494   -1.5455    0.0000 O   0  0  0  0  0  0  0  0  0  0  0  0
    2.9928   -3.4426    0.0000 O   0  0  0  0  0  0  0  0  0  0  0  0
   -0.9813    3.2300    0.0000 O   0  0  0  0  0  0  0  0  0  0  0  0
   -1.1121    0.8259    0.0000 N   0  0  0  0  0  0  0  0  0  0  0  0
   -0.6542    0.1554    0.0000 N   0  0  0  0  0  0  0  0  0  0  0  0
   -0.6706   -1.1366    0.0000 N   0  0  0  0  0  0  0  0  0  0  0  0
    1.5700   -3.0337    0.0000 N   0  0  0  0  0  0  0  0  0  0  0  0
   -3.3363   -0.2045    0.0000 N   0  0  0  0  0  0  0  0  0  0  0  0
    1.3574    0.5152    0.0000 N   0  0  0  0  0  0  0  0  0  0  0  0
   -1.9134   -0.2208    0.0000 C   0  0  0  0  0  0  0  0  0  0  0  0
   -1.8971    0.5969    0.0000 C   0  0  0  0  0  0  0  0  0  0  0  0
   -1.1448   -0.4988    0.0000 C   0  0  0  0  0  0  0  0  0  0  0  0
    2.5022   -2.0361    0.0000 C   0  0  0  0  0  0  0  0  0  0  0  0
    1.7336   -1.6927    0.0000 C   0  0  0  0  0  0  0  0  0  0  0  0
    1.1775   -2.2978    0.0000 C   0  0  0  0  0  0  0  0  0  0  0  0
   -0.5561    1.6763    0.0000 C   0  0  3  0  0  0  0  0  0  0  0  0
   -2.6167   -0.6133    0.0000 C   0  0  0  0  0  0  0  0  0  0  0  0
    2.3714   -2.8538    0.0000 C   0  0  0  0  0  0  0  0  0  0  0  0
    0.1309   -1.3165    0.0000 C   0  0  0  0  0  0  0  0  0  0  0  0
   -2.6167    1.0058    0.0000 C   0  0  0  0  0  0  0  0  0  0  0  0
    0.3761   -2.1015    0.0000 C   0  0  0  0  0  0  0  0  0  0  0  0
    1.4882   -0.9077    0.0000 C   0  0  0  0  0  0  0  0  0  0  0  0
    0.2780    1.7744    0.0000 C   0  0  3  0  0  0  0  0  0  0  0  0
    0.6869   -0.7278    0.0000 C   0  0  0  0  0  0  0  0  0  0  0  0
   -3.2872    0.6297    0.0000 C   0  0  0  0  0  0  0  0  0  0  0  0
   -1.2430    2.3141    0.0000 C   0  0  0  0  0  0  0  0  0  0  0  0
    2.9438   -1.3492    0.0000 C   0  0  0  0  0  0  0  0  0  0  0  0
    3.3363   -2.0525    0.0000 C   0  0  0  0  0  0  0  0  0  0  0  0
    0.5724    2.7557    0.0000 C   0  0  0  0  0  0  0  0  0  0  0  0
    0.8013    1.1366    0.0000 C   0  0  0  0  0  0  0  0  0  0  0  0
   -0.0654    3.4426    0.0000 C   0  0  0  0  0  0  0  0  0  0  0  0
  1 17  2  0  0  0  0
  2 18  2  0  0  0  0
  3 26  1  0  0  0  0
  3 31  1  0  0  0  0
  4  5  1  0  0  0  0
  4 11  1  0  0  0  0
  4 16  1  0  0  0  0
  5 12  2  0  0  0  0
  6 12  1  0  0  0  0
  6 19  1  0  0  0  0
  7 15  1  0  0  0  0
  7 18  1  0  0  0  0
  8 17  1  0  0  0  0
  8 25  1  0  0  0  0
  9 30  3  0  0  0  0
 10 11  2  0  0  0  0
 10 12  1  0  0  0  0
 10 17  1  0  0  0  0
 11 20  1  0  0  0  0
 13 14  1  0  0  0  0
 13 18  1  0  0  0  0
 13 27  1  0  0  0  0
 13 28  1  0  0  0  0
 14 15  2  0  0  0  0
 14 22  1  0  0  0  0
 15 21  1  0  0  0  0
 16 23  1  0  0  0  0
 16 26  1  0  0  0  0
 19 21  2  0  0  0  0
 19 24  1  0  0  0  0
 20 25  2  0  0  0  0
 22 24  2  0  0  0  0
 23 29  1  0  0  0  0
 23 30  1  6  0  0  0
 29 31  1  0  0  0  0
M  END
> <PUBCHEM_COMPOUND_ID_TYPE>
0

> <PUBCHEM_TOTAL_CHARGE>
0

> <PUBCHEM_SUBSTANCE_ID>
310942961

> <PUBCHEM_SUBSTANCE_VERSION>
1

> <PUBCHEM_EXT_DATASOURCE_NAME>
4488

> <PUBCHEM_EXT_DATASOURCE_REGID>
SCHEMBL16121020

> <PUBCHEM_SUBSTANCE_COMMENT>
InChI=1S/C22H22N6O3/c1-22(2)14-4-3-13(9-15(14)26-21(22)30)25-19-18-16(5-7-24-20(18)29)28(27-19)17-11-31-8-6-12(17)10-23/h3-5,7,9,12,17H,6,8,11H2,1-2H3,(H,24,29)(H,25,27)(H,26,30)/t12-,17?/m1/s1
InChIKey=WUDCIQSKQYUFFF-MTATWXBHSA-N

> <PUBCHEM_SUBSTANCE_SYNONYM>
SCHEMBL16121020

> <PUBCHEM_XREF_EXT_ID>
SCHEMBL16121020

> <PUBCHEM_EXT_DATASOURCE_URL>
https://www.surechembl.org/

> <PUBCHEM_EXT_SUBSTANCE_URL>
https://www.surechembl.org/chemical/SCHEMBL16121020

> <PUBCHEM_CID_ASSOCIATIONS>
117609423  1

> <PUBCHEM_COORDINATE_TYPE>
1
3

> <PUBCHEM_BONDANNOTATIONS>
23  30  6

$$$$
