310940731
  -OEChem-07211613022D

 15 16  0     1  0  0  0  0  0999 V2000
    0.1590    1.8682    0.0000 S   0  0  0  0  0  0  0  0  0  0  0  0
   -1.9742    0.0133    0.0000 O   0  0  0  0  0  0  0  0  0  0  0  0
    0.8215   -1.8682    0.0000 O   0  0  0  0  0  0  0  0  0  0  0  0
    0.1590   -0.6492    0.0000 O   0  0  0  0  0  0  0  0  0  0  0  0
   -0.5565    0.6095    0.0000 N   0  0  0  0  0  0  0  0  0  0  0  0
   -2.1067    1.8682    0.0000 N   0  0  0  0  0  0  0  0  0  0  0  0
   -0.5697    1.4442    0.0000 C   0  0  3  0  0  0  0  0  0  0  0  0
   -1.3647    0.6492    0.0000 C   0  0  0  0  0  0  0  0  0  0  0  0
    0.1723    0.1988    0.0000 C   0  0  0  0  0  0  0  0  0  0  0  0
   -1.3912    1.4575    0.0000 C   0  0  3  0  0  0  0  0  0  0  0  0
    0.8745    0.6227    0.0000 C   0  0  0  0  0  0  0  0  0  0  0  0
    0.8745   -1.0732    0.0000 C   0  0  0  0  0  0  0  0  0  0  0  0
    0.8878    1.4575    0.0000 C   0  0  0  0  0  0  0  0  0  0  0  0
    1.6033    0.1988    0.0000 C   0  0  0  0  0  0  0  0  0  0  0  0
    2.1067    0.4902    0.0000 C   0  0  0  0  0  0  0  0  0  0  0  0
  1  7  1  0  0  0  0
  1 13  1  0  0  0  0
  2  8  2  0  0  0  0
  3 12  2  0  0  0  0
  4 12  1  0  0  0  0
  7  5  1  1  0  0  0
  5  8  1  0  0  0  0
  5  9  1  0  0  0  0
 10  6  1  1  0  0  0
  7 10  1  0  0  0  0
  8 10  1  0  0  0  0
  9 11  2  0  0  0  0
  9 12  1  0  0  0  0
 11 13  1  0  0  0  0
 11 14  1  0  0  0  0
 14 15  1  0  0  0  0
M  END
> <PUBCHEM_COMPOUND_ID_TYPE>
0

> <PUBCHEM_TOTAL_CHARGE>
0

> <PUBCHEM_SUBSTANCE_ID>
310940731

> <PUBCHEM_SUBSTANCE_VERSION>
1

> <PUBCHEM_EXT_DATASOURCE_NAME>
4488

> <PUBCHEM_EXT_DATASOURCE_REGID>
SCHEMBL16118689

> <PUBCHEM_SUBSTANCE_COMMENT>
InChI=1S/C9H12N2O3S/c1-2-4-3-15-8-5(10)7(12)11(8)6(4)9(13)14/h5,8H,2-3,10H2,1H3,(H,13,14)/t5-,8-/m1/s1
InChIKey=KPFMABKZFCSDJM-SVGQVSJJSA-N

> <PUBCHEM_SUBSTANCE_SYNONYM>
SCHEMBL16118689

> <PUBCHEM_XREF_EXT_ID>
SCHEMBL16118689

> <PUBCHEM_EXT_DATASOURCE_URL>
https://www.surechembl.org/

> <PUBCHEM_EXT_SUBSTANCE_URL>
https://www.surechembl.org/chemical/SCHEMBL16118689

> <PUBCHEM_CID_ASSOCIATIONS>
117607688  1

> <PUBCHEM_COORDINATE_TYPE>
1
3

> <PUBCHEM_BONDANNOTATIONS>
7  5  5
10  6  5

$$$$
