310930625
  -OEChem-07211613022D

 18 19  0     0  0  0  0  0  0999 V2000
    0.7202   -1.6523    0.0000 O   0  0  0  0  0  0  0  0  0  0  0  0
    1.4193   -0.4237    0.0000 O   0  0  0  0  0  0  0  0  0  0  0  0
    4.2366   -2.8809    0.0000 N   0  0  0  0  0  0  0  0  0  0  0  0
    3.5375   -1.6523    0.0000 C   0  0  0  0  0  0  0  0  0  0  0  0
    4.2366   -1.2286    0.0000 C   0  0  0  0  0  0  0  0  0  0  0  0
    2.1183   -1.6523    0.0000 C   0  0  0  0  0  0  0  0  0  0  0  0
    3.5375   -2.4784    0.0000 C   0  0  0  0  0  0  0  0  0  0  0  0
    2.8174   -1.2498    0.0000 C   0  0  0  0  0  0  0  0  0  0  0  0
    2.1183   -2.4784    0.0000 C   0  0  0  0  0  0  0  0  0  0  0  0
    2.8385   -2.8809    0.0000 C   0  0  0  0  0  0  0  0  0  0  0  0
    1.3981   -1.2498    0.0000 C   0  0  0  0  0  0  0  0  0  0  0  0
    4.2366   -0.4025    0.0000 C   0  0  0  0  0  0  0  0  0  0  0  0
    4.9356   -1.6311    0.0000 C   0  0  0  0  0  0  0  0  0  0  0  0
    5.6559   -0.4025    0.0000 C   0  0  0  0  0  0  0  0  0  0  0  0
    4.9356    0.0000    0.0000 C   0  0  0  0  0  0  0  0  0  0  0  0
    5.6559   -1.2286    0.0000 C   0  0  0  0  0  0  0  0  0  0  0  0
    6.3549    0.0000    0.0000 C   0  0  0  0  0  0  0  0  0  0  0  0
    0.0000   -1.2498    0.0000 C   0  0  0  0  0  0  0  0  0  0  0  0
  1 11  1  0  0  0  0
  1 18  1  0  0  0  0
  2 11  2  0  0  0  0
  3  7  1  0  0  0  0
  4  5  1  0  0  0  0
  4  7  2  0  0  0  0
  4  8  1  0  0  0  0
  5 12  2  0  0  0  0
  5 13  1  0  0  0  0
  6  8  2  0  0  0  0
  6  9  1  0  0  0  0
  6 11  1  0  0  0  0
  7 10  1  0  0  0  0
  9 10  2  0  0  0  0
 12 15  1  0  0  0  0
 13 16  2  0  0  0  0
 14 15  2  0  0  0  0
 14 16  1  0  0  0  0
 14 17  1  0  0  0  0
M  END
> <PUBCHEM_COMPOUND_ID_TYPE>
0

> <PUBCHEM_TOTAL_CHARGE>
0

> <PUBCHEM_SUBSTANCE_ID>
310930625

> <PUBCHEM_SUBSTANCE_VERSION>
1

> <PUBCHEM_EXT_DATASOURCE_NAME>
4488

> <PUBCHEM_EXT_DATASOURCE_REGID>
SCHEMBL16107922

> <PUBCHEM_SUBSTANCE_COMMENT>
InChI=1S/C15H15NO2/c1-10-3-5-11(6-4-10)13-9-12(15(17)18-2)7-8-14(13)16/h3-9H,16H2,1-2H3
InChIKey=AAQDARHQXFXNRF-UHFFFAOYSA-N

> <PUBCHEM_SUBSTANCE_SYNONYM>
SCHEMBL16107922

> <PUBCHEM_XREF_EXT_ID>
SCHEMBL16107922

> <PUBCHEM_EXT_DATASOURCE_URL>
https://www.surechembl.org/

> <PUBCHEM_EXT_SUBSTANCE_URL>
https://www.surechembl.org/chemical/SCHEMBL16107922

> <PUBCHEM_CID_ASSOCIATIONS>
117599692  1

> <PUBCHEM_COORDINATE_TYPE>
1
3

$$$$
