310937760
  -OEChem-07211613022D

 30 33  0     0  0  0  0  0  0999 V2000
    1.4518   -0.8613    0.0000 F   0  0  0  0  0  0  0  0  0  0  0  0
    2.1654   -2.0916    0.0000 F   0  0  0  0  0  0  0  0  0  0  0  0
    2.1409   -0.4429    0.0000 F   0  0  0  0  0  0  0  0  0  0  0  0
    0.6890   -1.2304    0.0000 F   0  0  0  0  0  0  0  0  0  0  0  0
    0.0000   -2.4607    0.0000 F   0  0  0  0  0  0  0  0  0  0  0  0
    0.7136   -2.8791    0.0000 F   0  0  0  0  0  0  0  0  0  0  0  0
    4.2324    0.0000    0.0000 O   0  0  0  0  0  0  0  0  0  0  0  0
    1.4272   -2.4607    0.0000 O   0  0  0  0  0  0  0  0  0  0  0  0
    3.5681   -1.2304    0.0000 N   0  0  0  0  0  0  0  0  0  0  0  0
    5.7581   -2.3377    0.0000 N   0  0  0  0  0  0  0  0  0  0  0  0
    3.5681   -3.6911    0.0000 N   0  0  0  0  0  0  0  0  0  0  0  0
    6.2257   -1.6487    0.0000 N   0  0  0  0  0  0  0  0  0  0  0  0
    3.5681   -2.0670    0.0000 C   0  0  0  0  0  0  0  0  0  0  0  0
    4.2571   -2.4854    0.0000 C   0  0  0  0  0  0  0  0  0  0  0  0
    4.9707   -2.0670    0.0000 C   0  0  0  0  0  0  0  0  0  0  0  0
    4.9707   -1.2304    0.0000 C   0  0  0  0  0  0  0  0  0  0  0  0
    4.2571   -0.8120    0.0000 C   0  0  0  0  0  0  0  0  0  0  0  0
    2.8545   -2.4854    0.0000 C   0  0  0  0  0  0  0  0  0  0  0  0
    2.8545   -3.2728    0.0000 C   0  0  0  0  0  0  0  0  0  0  0  0
    4.2571   -3.2728    0.0000 C   0  0  0  0  0  0  0  0  0  0  0  0
    2.1409   -3.6911    0.0000 C   0  0  0  0  0  0  0  0  0  0  0  0
    2.8545   -0.8366    0.0000 C   0  0  0  0  0  0  0  0  0  0  0  0
    5.7581   -0.9843    0.0000 C   0  0  0  0  0  0  0  0  0  0  0  0
    1.4272   -3.2728    0.0000 C   0  0  0  0  0  0  0  0  0  0  0  0
    2.1654   -1.2550    0.0000 C   0  0  0  0  0  0  0  0  0  0  0  0
    2.1162   -4.5032    0.0000 C   0  0  0  0  0  0  0  0  0  0  0  0
    0.7136   -3.6911    0.0000 C   0  0  0  0  0  0  0  0  0  0  0  0
    0.7136   -2.0424    0.0000 C   0  0  0  0  0  0  0  0  0  0  0  0
    1.4272   -4.9215    0.0000 C   0  0  0  0  0  0  0  0  0  0  0  0
    0.7136   -4.5032    0.0000 C   0  0  0  0  0  0  0  0  0  0  0  0
  1 25  1  0  0  0  0
  2 25  1  0  0  0  0
  3 25  1  0  0  0  0
  4 28  1  0  0  0  0
  5 28  1  0  0  0  0
  6 28  1  0  0  0  0
  7 17  2  0  0  0  0
  8 24  1  0  0  0  0
  8 28  1  0  0  0  0
  9 13  1  0  0  0  0
  9 17  1  0  0  0  0
  9 22  1  0  0  0  0
 10 12  1  0  0  0  0
 10 15  1  0  0  0  0
 11 19  2  0  0  0  0
 11 20  1  0  0  0  0
 12 23  2  0  0  0  0
 13 14  1  0  0  0  0
 13 18  2  0  0  0  0
 14 15  1  0  0  0  0
 14 20  2  0  0  0  0
 15 16  2  0  0  0  0
 16 17  1  0  0  0  0
 16 23  1  0  0  0  0
 18 19  1  0  0  0  0
 19 21  1  0  0  0  0
 21 24  1  0  0  0  0
 21 26  2  0  0  0  0
 22 25  1  0  0  0  0
 24 27  2  0  0  0  0
 26 29  1  0  0  0  0
 27 30  1  0  0  0  0
 29 30  2  0  0  0  0
M  END
> <PUBCHEM_COMPOUND_ID_TYPE>
0

> <PUBCHEM_TOTAL_CHARGE>
0

> <PUBCHEM_SUBSTANCE_ID>
310937760

> <PUBCHEM_SUBSTANCE_VERSION>
1

> <PUBCHEM_EXT_DATASOURCE_NAME>
4488

> <PUBCHEM_EXT_DATASOURCE_REGID>
SCHEMBL16115568

> <PUBCHEM_SUBSTANCE_COMMENT>
InChI=1S/C18H10F6N4O2/c19-17(20,21)8-28-13-5-12(9-3-1-2-4-14(9)30-18(22,23)24)25-6-10(13)15-11(16(28)29)7-26-27-15/h1-7H,8H2,(H,26,27)
InChIKey=VTYKUXKQLQABQI-UHFFFAOYSA-N

> <PUBCHEM_SUBSTANCE_SYNONYM>
SCHEMBL16115568

> <PUBCHEM_XREF_EXT_ID>
SCHEMBL16115568

> <PUBCHEM_EXT_DATASOURCE_URL>
https://www.surechembl.org/

> <PUBCHEM_EXT_SUBSTANCE_URL>
https://www.surechembl.org/chemical/SCHEMBL16115568

> <PUBCHEM_CID_ASSOCIATIONS>
86298823  1

> <PUBCHEM_COORDINATE_TYPE>
1
3

$$$$
