310940013
  -OEChem-07211613022D

 25 27  0     0  0  0  0  0  0999 V2000
   -3.8428   -6.4116    0.0000 Cl  0  0  0  0  0  0  0  0  0  0  0  0
   -3.1283   -3.5241    0.0000 Cl  0  0  0  0  0  0  0  0  0  0  0  0
   -5.9862   -5.1741    0.0000 Cl  0  0  0  0  0  0  0  0  0  0  0  0
   -0.9850   -6.4116    0.0000 O   0  0  0  0  0  0  0  0  0  0  0  0
    0.4440   -4.7616    0.0000 N   0  0  0  0  0  0  0  0  0  0  0  0
    1.8729   -3.9366    0.0000 N   0  0  0  0  0  0  0  0  0  0  0  0
   -3.1283   -5.1741    0.0000 C   0  0  0  0  0  0  0  0  0  0  0  0
   -3.8428   -4.7616    0.0000 C   0  0  0  0  0  0  0  0  0  0  0  0
   -3.1283   -5.9991    0.0000 C   0  0  0  0  0  0  0  0  0  0  0  0
   -1.6994   -5.1741    0.0000 C   0  0  0  0  0  0  0  0  0  0  0  0
   -2.4139   -4.7616    0.0000 C   0  0  0  0  0  0  0  0  0  0  0  0
   -1.6994   -5.9991    0.0000 C   0  0  0  0  0  0  0  0  0  0  0  0
   -3.8428   -3.9366    0.0000 C   0  0  0  0  0  0  0  0  0  0  0  0
   -2.4139   -6.4116    0.0000 C   0  0  0  0  0  0  0  0  0  0  0  0
   -4.5573   -5.1741    0.0000 C   0  0  0  0  0  0  0  0  0  0  0  0
   -5.2718   -4.7616    0.0000 C   0  0  0  0  0  0  0  0  0  0  0  0
   -0.9850   -4.7616    0.0000 C   0  0  0  0  0  0  0  0  0  0  0  0
   -4.5573   -3.5241    0.0000 C   0  0  0  0  0  0  0  0  0  0  0  0
   -5.2718   -3.9366    0.0000 C   0  0  0  0  0  0  0  0  0  0  0  0
   -0.2705   -5.1741    0.0000 C   0  0  0  0  0  0  0  0  0  0  0  0
    1.1585   -5.1741    0.0000 C   0  0  0  0  0  0  0  0  0  0  0  0
    0.4440   -3.9366    0.0000 C   0  0  0  0  0  0  0  0  0  0  0  0
   -0.9850   -7.2365    0.0000 C   0  0  0  0  0  0  0  0  0  0  0  0
    1.8729   -4.7616    0.0000 C   0  0  0  0  0  0  0  0  0  0  0  0
    1.1585   -3.5241    0.0000 C   0  0  0  0  0  0  0  0  0  0  0  0
  1  9  1  0  0  0  0
  2 13  1  0  0  0  0
  3 16  1  0  0  0  0
  4 12  1  0  0  0  0
  4 23  1  0  0  0  0
  5 20  1  0  0  0  0
  5 21  1  0  0  0  0
  5 22  1  0  0  0  0
  6 24  1  0  0  0  0
  6 25  1  0  0  0  0
  7  8  1  0  0  0  0
  7  9  2  0  0  0  0
  7 11  1  0  0  0  0
  8 13  2  0  0  0  0
  8 15  1  0  0  0  0
  9 14  1  0  0  0  0
 10 11  2  0  0  0  0
 10 12  1  0  0  0  0
 10 17  1  0  0  0  0
 12 14  2  0  0  0  0
 13 18  1  0  0  0  0
 15 16  2  0  0  0  0
 16 19  1  0  0  0  0
 17 20  1  0  0  0  0
 18 19  2  0  0  0  0
 21 24  1  0  0  0  0
 22 25  1  0  0  0  0
M  END
> <PUBCHEM_COMPOUND_ID_TYPE>
0

> <PUBCHEM_TOTAL_CHARGE>
0

> <PUBCHEM_SUBSTANCE_ID>
310940013

> <PUBCHEM_SUBSTANCE_VERSION>
1

> <PUBCHEM_EXT_DATASOURCE_NAME>
4488

> <PUBCHEM_EXT_DATASOURCE_REGID>
SCHEMBL16117943

> <PUBCHEM_SUBSTANCE_COMMENT>
InChI=1S/C19H21Cl3N2O/c1-25-19-12-18(22)15(16-11-14(20)2-3-17(16)21)10-13(19)4-7-24-8-5-23-6-9-24/h2-3,10-12,23H,4-9H2,1H3
InChIKey=GBOBMBLBUBNRDS-UHFFFAOYSA-N

> <PUBCHEM_SUBSTANCE_SYNONYM>
SCHEMBL16117943

> <PUBCHEM_XREF_EXT_ID>
SCHEMBL16117943

> <PUBCHEM_EXT_DATASOURCE_URL>
https://www.surechembl.org/

> <PUBCHEM_EXT_SUBSTANCE_URL>
https://www.surechembl.org/chemical/SCHEMBL16117943

> <PUBCHEM_CID_ASSOCIATIONS>
117607171  1

> <PUBCHEM_COORDINATE_TYPE>
1
3

$$$$
