310931913
  -OEChem-07211613022D

 19 21  0     0  0  0  0  0  0999 V2000
    4.9230    0.0000    0.0000 O   0  0  0  0  0  0  0  0  0  0  0  0
    3.5325   -0.8080    0.0000 N   0  0  0  0  0  0  0  0  0  0  0  0
    2.1045   -0.8080    0.0000 N   0  0  0  0  0  0  0  0  0  0  0  0
    1.4093   -2.0105    0.0000 N   0  0  0  0  0  0  0  0  0  0  0  0
    4.2465   -1.2214    0.0000 C   0  0  0  0  0  0  0  0  0  0  0  0
    4.2465   -2.0293    0.0000 C   0  0  0  0  0  0  0  0  0  0  0  0
    2.8185   -1.2214    0.0000 C   0  0  0  0  0  0  0  0  0  0  0  0
    2.8185   -2.0293    0.0000 C   0  0  0  0  0  0  0  0  0  0  0  0
    4.9230   -0.8080    0.0000 C   0  0  0  0  0  0  0  0  0  0  0  0
    3.5325   -2.4427    0.0000 C   0  0  0  0  0  0  0  0  0  0  0  0
    4.9230   -2.4427    0.0000 C   0  0  0  0  0  0  0  0  0  0  0  0
    1.4093   -1.2214    0.0000 C   0  0  0  0  0  0  0  0  0  0  0  0
    5.6370   -1.2214    0.0000 C   0  0  0  0  0  0  0  0  0  0  0  0
    5.6370   -2.0293    0.0000 C   0  0  0  0  0  0  0  0  0  0  0  0
    2.1045   -2.4427    0.0000 C   0  0  0  0  0  0  0  0  0  0  0  0
    0.6952   -0.7892    0.0000 C   0  0  0  0  0  0  0  0  0  0  0  0
    0.7140   -2.4615    0.0000 C   0  0  0  0  0  0  0  0  0  0  0  0
    0.0000   -1.2214    0.0000 C   0  0  0  0  0  0  0  0  0  0  0  0
    0.0000   -2.0293    0.0000 C   0  0  0  0  0  0  0  0  0  0  0  0
  1  9  1  0  0  0  0
  2  5  2  0  0  0  0
  2  7  1  0  0  0  0
  3  7  1  0  0  0  0
  3 12  1  0  0  0  0
  4 12  1  0  0  0  0
  4 17  2  0  0  0  0
  5  6  1  0  0  0  0
  5  9  1  0  0  0  0
  6 10  2  0  0  0  0
  6 11  1  0  0  0  0
  7  8  2  0  0  0  0
  8 10  1  0  0  0  0
  8 15  1  0  0  0  0
  9 13  2  0  0  0  0
 11 14  2  0  0  0  0
 12 16  2  0  0  0  0
 13 14  1  0  0  0  0
 16 18  1  0  0  0  0
 17 19  1  0  0  0  0
 18 19  2  0  0  0  0
M  END
> <PUBCHEM_COMPOUND_ID_TYPE>
0

> <PUBCHEM_TOTAL_CHARGE>
0

> <PUBCHEM_SUBSTANCE_ID>
310931913

> <PUBCHEM_SUBSTANCE_VERSION>
1

> <PUBCHEM_EXT_DATASOURCE_NAME>
4488

> <PUBCHEM_EXT_DATASOURCE_REGID>
SCHEMBL16109248

> <PUBCHEM_SUBSTANCE_COMMENT>
InChI=1S/C15H13N3O/c1-10-9-11-5-4-6-12(19)14(11)18-15(10)17-13-7-2-3-8-16-13/h2-9,19H,1H3,(H,16,17,18)
InChIKey=BACFQWJYELBETI-UHFFFAOYSA-N

> <PUBCHEM_SUBSTANCE_SYNONYM>
SCHEMBL16109248

> <PUBCHEM_XREF_EXT_ID>
SCHEMBL16109248

> <PUBCHEM_EXT_DATASOURCE_URL>
https://www.surechembl.org/

> <PUBCHEM_EXT_SUBSTANCE_URL>
https://www.surechembl.org/chemical/SCHEMBL16109248

> <PUBCHEM_CID_ASSOCIATIONS>
117600566  1

> <PUBCHEM_COORDINATE_TYPE>
1
3

$$$$
