310932532
  -OEChem-07211613022D

 19 20  0     0  0  0  0  0  0999 V2000
    0.0000   -2.4856    0.0000 F   0  0  0  0  0  0  0  0  0  0  0  0
    1.0356   -4.5799    0.0000 O   0  0  0  0  0  0  0  0  0  0  0  0
    3.6133   -1.2428    0.0000 O   0  0  0  0  0  0  0  0  0  0  0  0
    2.8768    0.0000    0.0000 O   0  0  0  0  0  0  0  0  0  0  0  0
    1.8872   -4.6029    0.0000 N   0  0  0  0  0  0  0  0  0  0  0  0
    1.4499    0.0000    0.0000 N   0  0  0  0  0  0  0  0  0  0  0  0
    1.4499   -2.4856    0.0000 C   0  0  0  0  0  0  0  0  0  0  0  0
    1.4499   -3.3140    0.0000 C   0  0  0  0  0  0  0  0  0  0  0  0
    0.7365   -2.0713    0.0000 C   0  0  0  0  0  0  0  0  0  0  0  0
    2.1633   -1.2428    0.0000 C   0  0  0  0  0  0  0  0  0  0  0  0
    0.7825   -3.8204    0.0000 C   0  0  0  0  0  0  0  0  0  0  0  0
    2.1173   -3.7974    0.0000 C   0  0  0  0  0  0  0  0  0  0  0  0
    2.1633   -2.0713    0.0000 C   0  0  0  0  0  0  0  0  0  0  0  0
    1.4499   -0.8285    0.0000 C   0  0  0  0  0  0  0  0  0  0  0  0
    0.7365   -1.2428    0.0000 C   0  0  0  0  0  0  0  0  0  0  0  0
    2.8768   -0.8285    0.0000 C   0  0  0  0  0  0  0  0  0  0  0  0
    0.0000   -3.5672    0.0000 C   0  0  0  0  0  0  0  0  0  0  0  0
    2.8998   -3.5442    0.0000 C   0  0  0  0  0  0  0  0  0  0  0  0
    4.3267   -0.8285    0.0000 C   0  0  0  0  0  0  0  0  0  0  0  0
  1  9  1  0  0  0  0
  2  5  1  0  0  0  0
  2 11  1  0  0  0  0
  3 16  1  0  0  0  0
  3 19  1  0  0  0  0
  4 16  2  0  0  0  0
  5 12  2  0  0  0  0
  6 14  1  0  0  0  0
  7  8  1  0  0  0  0
  7  9  1  0  0  0  0
  7 13  2  0  0  0  0
  8 11  2  0  0  0  0
  8 12  1  0  0  0  0
  9 15  2  0  0  0  0
 10 13  1  0  0  0  0
 10 14  2  0  0  0  0
 10 16  1  0  0  0  0
 11 17  1  0  0  0  0
 12 18  1  0  0  0  0
 14 15  1  0  0  0  0
M  END
> <PUBCHEM_COMPOUND_ID_TYPE>
0

> <PUBCHEM_TOTAL_CHARGE>
0

> <PUBCHEM_SUBSTANCE_ID>
310932532

> <PUBCHEM_SUBSTANCE_VERSION>
1

> <PUBCHEM_EXT_DATASOURCE_NAME>
4488

> <PUBCHEM_EXT_DATASOURCE_REGID>
SCHEMBL16109907

> <PUBCHEM_SUBSTANCE_COMMENT>
InChI=1S/C13H13FN2O3/c1-6-12(7(2)19-16-6)8-4-9(13(17)18-3)11(15)5-10(8)14/h4-5H,15H2,1-3H3
InChIKey=VQIGXSFVOHRHGQ-UHFFFAOYSA-N

> <PUBCHEM_SUBSTANCE_SYNONYM>
SCHEMBL16109907

> <PUBCHEM_XREF_EXT_ID>
SCHEMBL16109907

> <PUBCHEM_EXT_DATASOURCE_URL>
https://www.surechembl.org/

> <PUBCHEM_EXT_SUBSTANCE_URL>
https://www.surechembl.org/chemical/SCHEMBL16109907

> <PUBCHEM_CID_ASSOCIATIONS>
117601064  1

> <PUBCHEM_COORDINATE_TYPE>
1
3

$$$$
