310947599
  -OEChem-07211613022D

 48 54  0     1  0  0  0  0  0999 V2000
   -1.4692   -2.6817    0.0000 P   0  0  3  0  0  0  0  0  0  0  0  0
    0.3368   -5.1340    0.0000 F   0  0  0  0  0  0  0  0  0  0  0  0
    1.1618   -3.1500    0.0000 O   0  0  0  0  0  0  0  0  0  0  0  0
    1.9868   -5.1340    0.0000 O   0  0  0  0  0  0  0  0  0  0  0  0
   -0.8858   -3.2651    0.0000 O   0  0  0  0  0  0  0  0  0  0  0  0
   -2.0526   -2.0983    0.0000 O   0  0  0  0  0  0  0  0  0  0  0  0
   -0.8858   -2.0983    0.0000 O   0  0  0  0  0  0  0  0  0  0  0  0
   -2.7670   -5.3276    0.0000 O   0  0  0  0  0  0  0  0  0  0  0  0
   -3.4815   -4.0901    0.0000 O   0  0  0  0  0  0  0  0  0  0  0  0
    1.8293   -2.8099    0.0000 N   0  0  0  0  0  0  0  0  0  0  0  0
    1.8293   -1.4750    0.0000 N   0  0  0  0  0  0  0  0  0  0  0  0
    3.3284   -2.9675    0.0000 N   0  0  0  0  0  0  0  0  0  0  0  0
    3.3284   -0.4925    0.0000 N   0  0  0  0  0  0  0  0  0  0  0  0
    4.0429   -1.7300    0.0000 N   0  0  0  0  0  0  0  0  0  0  0  0
   -2.0526   -3.2651    0.0000 N   0  0  0  0  0  0  0  0  0  0  0  0
    1.8293   -3.6349    0.0000 C   0  0  3  0  0  0  0  0  0  0  0  0
    1.5743   -4.4195    0.0000 C   0  0  3  0  0  0  0  0  0  0  0  0
    2.6139   -2.5550    0.0000 C   0  0  0  0  0  0  0  0  0  0  0  0
    0.7493   -4.4195    0.0000 C   0  0  3  0  0  0  0  0  0  0  0  0
    2.6139   -1.7300    0.0000 C   0  0  0  0  0  0  0  0  0  0  0  0
    0.4944   -3.6349    0.0000 C   0  0  3  0  0  0  0  0  0  0  0  0
    3.3284   -1.3175    0.0000 C   0  0  0  0  0  0  0  0  0  0  0  0
    1.3444   -2.1425    0.0000 C   0  0  0  0  0  0  0  0  0  0  0  0
    4.0429   -2.5550    0.0000 C   0  0  0  0  0  0  0  0  0  0  0  0
    2.3712   -4.2060    0.0000 C   0  0  0  0  0  0  0  0  0  0  0  0
   -0.0890   -3.0515    0.0000 C   0  0  0  0  0  0  0  0  0  0  0  0
    3.9117    0.0909    0.0000 C   0  0  0  0  0  0  0  0  0  0  0  0
    2.7450    0.0909    0.0000 C   0  0  0  0  0  0  0  0  0  0  0  0
    3.3284    0.6743    0.0000 C   0  0  0  0  0  0  0  0  0  0  0  0
   -2.0526   -1.2733    0.0000 C   0  0  0  0  0  0  0  0  0  0  0  0
    4.7573   -2.9675    0.0000 C   0  0  0  0  0  0  0  0  0  0  0  0
   -2.7670   -0.8608    0.0000 C   0  0  0  0  0  0  0  0  0  0  0  0
   -2.7670   -0.0358    0.0000 C   0  0  0  0  0  0  0  0  0  0  0  0
   -2.0526   -4.0901    0.0000 C   0  0  3  0  0  0  0  0  0  0  0  0
   -1.3381   -0.8608    0.0000 C   0  0  0  0  0  0  0  0  0  0  0  0
   -3.4815   -1.2733    0.0000 C   0  0  0  0  0  0  0  0  0  0  0  0
   -2.0526    0.3767    0.0000 C   0  0  0  0  0  0  0  0  0  0  0  0
   -2.7670   -4.5026    0.0000 C   0  0  0  0  0  0  0  0  0  0  0  0
   -1.3381   -0.0358    0.0000 C   0  0  0  0  0  0  0  0  0  0  0  0
   -3.4815    0.3767    0.0000 C   0  0  0  0  0  0  0  0  0  0  0  0
   -4.1960   -0.8608    0.0000 C   0  0  0  0  0  0  0  0  0  0  0  0
   -4.1960   -0.0358    0.0000 C   0  0  0  0  0  0  0  0  0  0  0  0
   -1.3381   -4.5026    0.0000 C   0  0  0  0  0  0  0  0  0  0  0  0
   -3.4815   -5.7401    0.0000 C   0  0  0  0  0  0  0  0  0  0  0  0
   -3.4815   -6.5651    0.0000 C   0  0  0  0  0  0  0  0  0  0  0  0
   -4.2661   -5.4851    0.0000 C   0  0  0  0  0  0  0  0  0  0  0  0
   -4.7511   -6.1526    0.0000 C   0  0  0  0  0  0  0  0  0  0  0  0
   -4.2661   -6.8200    0.0000 C   0  0  0  0  0  0  0  0  0  0  0  0
  1  5  1  0  0  0  0
  1  6  1  0  0  0  0
  1  7  2  0  0  0  0
  1 15  1  0  0  0  0
 19  2  1  6  0  0  0
 16  3  1  6  0  0  0
  3 21  1  0  0  0  0
 17  4  1  6  0  0  0
  5 26  1  0  0  0  0
  6 30  1  0  0  0  0
  8 38  1  0  0  0  0
  8 44  1  0  0  0  0
  9 38  2  0  0  0  0
 10 16  1  0  0  0  0
 10 18  1  0  0  0  0
 10 23  1  0  0  0  0
 11 20  1  0  0  0  0
 11 23  2  0  0  0  0
 12 18  1  0  0  0  0
 12 24  2  0  0  0  0
 13 22  1  0  0  0  0
 13 27  1  0  0  0  0
 13 28  1  0  0  0  0
 14 22  2  0  0  0  0
 14 24  1  0  0  0  0
 15 34  1  0  0  0  0
 16 17  1  0  0  0  0
 17 19  1  0  0  0  0
 17 25  1  1  0  0  0
 18 20  2  0  0  0  0
 19 21  1  0  0  0  0
 20 22  1  0  0  0  0
 21 26  1  1  0  0  0
 24 31  1  0  0  0  0
 27 29  1  0  0  0  0
 28 29  1  0  0  0  0
 30 32  1  0  0  0  0
 30 35  2  0  0  0  0
 32 33  2  0  0  0  0
 32 36  1  0  0  0  0
 33 37  1  0  0  0  0
 33 40  1  0  0  0  0
 34 38  1  0  0  0  0
 34 43  1  1  0  0  0
 35 39  1  0  0  0  0
 36 41  2  0  0  0  0
 37 39  2  0  0  0  0
 40 42  2  0  0  0  0
 41 42  1  0  0  0  0
 44 45  1  0  0  0  0
 44 46  1  0  0  0  0
 45 48  1  0  0  0  0
 46 47  1  0  0  0  0
 47 48  1  0  0  0  0
M  END
> <PUBCHEM_COMPOUND_ID_TYPE>
0

> <PUBCHEM_TOTAL_CHARGE>
0

> <PUBCHEM_SUBSTANCE_ID>
310947599

> <PUBCHEM_SUBSTANCE_VERSION>
1

> <PUBCHEM_EXT_DATASOURCE_NAME>
4488

> <PUBCHEM_EXT_DATASOURCE_REGID>
SCHEMBL16125762

> <PUBCHEM_SUBSTANCE_COMMENT>
InChI=1S/C33H40FN6O7P/c1-20(31(41)45-23-12-5-6-13-23)38-48(43,47-25-15-8-11-22-10-4-7-14-24(22)25)44-18-26-28(34)33(3,42)32(46-26)40-19-35-27-29(39-16-9-17-39)36-21(2)37-30(27)40/h4,7-8,10-11,14-15,19-20,23,26,28,32,42H,5-6,9,12-13,16-18H2,1-3H3,(H,38,43)/t20-,26+,28+,32+,33+,48?/m0/s1
InChIKey=ACVXBIRVBDLALS-VSAWWYJISA-N

> <PUBCHEM_SUBSTANCE_SYNONYM>
SCHEMBL16125762

> <PUBCHEM_XREF_EXT_ID>
SCHEMBL16125762

> <PUBCHEM_EXT_DATASOURCE_URL>
https://www.surechembl.org/

> <PUBCHEM_EXT_SUBSTANCE_URL>
https://www.surechembl.org/chemical/SCHEMBL16125762

> <PUBCHEM_CID_ASSOCIATIONS>
117613321  1

> <PUBCHEM_COORDINATE_TYPE>
1
3

> <PUBCHEM_BONDANNOTATIONS>
17  25  5
19  2  6
21  26  5
16  3  6
34  43  5
17  4  6

$$$$
