310938379
  -OEChem-07211613022D

 21 23  0     0  0  0  0  0  0999 V2000
    0.0000   -1.7596    0.0000 Br  0  0  0  0  0  0  0  0  0  0  0  0
    5.7994   -0.9170    0.0000 O   0  0  0  0  0  0  0  0  0  0  0  0
    5.9234   -2.3545    0.0000 O   0  0  0  0  0  0  0  0  0  0  0  0
    2.2058   -2.1810    0.0000 N   0  0  0  0  0  0  0  0  0  0  0  0
    2.9741   -3.2715    0.0000 N   0  0  0  0  0  0  0  0  0  0  0  0
    4.6346   -1.7349    0.0000 N   0  0  0  0  0  0  0  0  0  0  0  0
    2.9741   -1.9331    0.0000 C   0  0  0  0  0  0  0  0  0  0  0  0
    3.4945   -2.6023    0.0000 C   0  0  0  0  0  0  0  0  0  0  0  0
    2.2058   -3.0485    0.0000 C   0  0  0  0  0  0  0  0  0  0  0  0
    4.2876   -2.5032    0.0000 C   0  0  0  0  0  0  0  0  0  0  0  0
    3.3458   -1.1649    0.0000 C   0  0  0  0  0  0  0  0  0  0  0  0
    1.4375   -1.7349    0.0000 C   0  0  0  0  0  0  0  0  0  0  0  0
    4.1637   -1.0657    0.0000 C   0  0  0  0  0  0  0  0  0  0  0  0
    1.4375   -3.4698    0.0000 C   0  0  0  0  0  0  0  0  0  0  0  0
    5.4525   -1.6605    0.0000 C   0  0  0  0  0  0  0  0  0  0  0  0
    0.7435   -2.1810    0.0000 C   0  0  0  0  0  0  0  0  0  0  0  0
    0.7435   -3.0485    0.0000 C   0  0  0  0  0  0  0  0  0  0  0  0
    6.6173   -0.8179    0.0000 C   0  0  0  0  0  0  0  0  0  0  0  0
    6.7165   -1.6605    0.0000 C   0  0  0  0  0  0  0  0  0  0  0  0
    7.4352   -0.7435    0.0000 C   0  0  0  0  0  0  0  0  0  0  0  0
    6.5430    0.0000    0.0000 C   0  0  0  0  0  0  0  0  0  0  0  0
  1 16  1  0  0  0  0
  2 15  1  0  0  0  0
  2 18  1  0  0  0  0
  3 15  2  0  0  0  0
  4  7  1  0  0  0  0
  4  9  1  0  0  0  0
  4 12  1  0  0  0  0
  5  8  1  0  0  0  0
  5  9  2  0  0  0  0
  6 10  1  0  0  0  0
  6 13  1  0  0  0  0
  6 15  1  0  0  0  0
  7  8  2  0  0  0  0
  7 11  1  0  0  0  0
  8 10  1  0  0  0  0
  9 14  1  0  0  0  0
 11 13  1  0  0  0  0
 12 16  2  0  0  0  0
 14 17  2  0  0  0  0
 16 17  1  0  0  0  0
 18 19  1  0  0  0  0
 18 20  1  0  0  0  0
 18 21  1  0  0  0  0
M  END
> <PUBCHEM_COMPOUND_ID_TYPE>
0

> <PUBCHEM_TOTAL_CHARGE>
0

> <PUBCHEM_SUBSTANCE_ID>
310938379

> <PUBCHEM_SUBSTANCE_VERSION>
1

> <PUBCHEM_EXT_DATASOURCE_NAME>
4488

> <PUBCHEM_EXT_DATASOURCE_REGID>
SCHEMBL16116266

> <PUBCHEM_SUBSTANCE_COMMENT>
InChI=1S/C15H18BrN3O2/c1-15(2,3)21-14(20)18-7-6-12-11(9-18)17-13-5-4-10(16)8-19(12)13/h4-5,8H,6-7,9H2,1-3H3
InChIKey=CMCSKKMHTZNBOV-UHFFFAOYSA-N

> <PUBCHEM_SUBSTANCE_SYNONYM>
SCHEMBL16116266

> <PUBCHEM_XREF_EXT_ID>
SCHEMBL16116266

> <PUBCHEM_EXT_DATASOURCE_URL>
https://www.surechembl.org/

> <PUBCHEM_EXT_SUBSTANCE_URL>
https://www.surechembl.org/chemical/SCHEMBL16116266

> <PUBCHEM_CID_ASSOCIATIONS>
117605859  1

> <PUBCHEM_COORDINATE_TYPE>
1
3

$$$$
