310935099
  -OEChem-07211613022D

 34 36  0     1  0  0  0  0  0999 V2000
    2.0618   -3.5640    0.0000 O   0  0  0  0  0  0  0  0  0  0  0  0
    2.4742   -5.7436    0.0000 O   0  0  0  0  0  0  0  0  0  0  0  0
    2.0913   -0.7069    0.0000 O   0  0  0  0  0  0  0  0  0  0  0  0
    1.2371   -5.0072    0.0000 O   0  0  0  0  0  0  0  0  0  0  0  0
    7.2752   -3.2989    0.0000 O   0  0  0  0  0  0  0  0  0  0  0  0
    6.5683   -2.0618    0.0000 O   0  0  0  0  0  0  0  0  0  0  0  0
    4.9483   -4.3003    0.0000 N   0  0  0  0  0  0  0  0  0  0  0  0
    3.3283   -2.8570    0.0000 N   0  0  0  0  0  0  0  0  0  0  0  0
    5.8025   -4.0942    0.0000 N   0  0  0  0  0  0  0  0  0  0  0  0
    3.7407   -3.5934    0.0000 C   0  0  0  0  0  0  0  0  0  0  0  0
    4.5359   -3.5934    0.0000 C   0  0  0  0  0  0  0  0  0  0  0  0
    3.3283   -4.3003    0.0000 C   0  0  0  0  0  0  0  0  0  0  0  0
    3.7407   -5.0072    0.0000 C   0  0  0  0  0  0  0  0  0  0  0  0
    2.4742   -4.3003    0.0000 C   0  0  3  0  0  0  0  0  0  0  0  0
    4.5359   -5.0072    0.0000 C   0  0  0  0  0  0  0  0  0  0  0  0
    5.0956   -2.9454    0.0000 C   0  0  0  0  0  0  0  0  0  0  0  0
    5.8614   -3.2989    0.0000 C   0  0  0  0  0  0  0  0  0  0  0  0
    2.0618   -5.0072    0.0000 C   0  0  0  0  0  0  0  0  0  0  0  0
    2.4742   -2.8570    0.0000 C   0  0  0  0  0  0  0  0  0  0  0  0
    3.7407   -2.1501    0.0000 C   0  0  0  0  0  0  0  0  0  0  0  0
    2.5036   -1.4432    0.0000 C   0  0  0  0  0  0  0  0  0  0  0  0
    6.5683   -2.8570    0.0000 C   0  0  0  0  0  0  0  0  0  0  0  0
    2.0618   -2.1501    0.0000 C   0  0  0  0  0  0  0  0  0  0  0  0
    3.3283   -1.4432    0.0000 C   0  0  0  0  0  0  0  0  0  0  0  0
    3.4756   -5.8908    0.0000 C   0  0  0  0  0  0  0  0  0  0  0  0
    1.2371   -3.5640    0.0000 C   0  0  0  0  0  0  0  0  0  0  0  0
    2.9160   -0.7069    0.0000 C   0  0  0  0  0  0  0  0  0  0  0  0
    0.4124   -3.5345    0.0000 C   0  0  0  0  0  0  0  0  0  0  0  0
    1.2665   -2.7392    0.0000 C   0  0  0  0  0  0  0  0  0  0  0  0
    1.2371   -4.3887    0.0000 C   0  0  0  0  0  0  0  0  0  0  0  0
    1.2665   -0.7069    0.0000 C   0  0  0  0  0  0  0  0  0  0  0  0
    3.3283   -5.7436    0.0000 C   0  0  0  0  0  0  0  0  0  0  0  0
    0.8541    0.0000    0.0000 C   0  0  0  0  0  0  0  0  0  0  0  0
    0.0000    0.0000    0.0000 C   0  0  0  0  0  0  0  0  0  0  0  0
 14  1  1  1  0  0  0
  1 26  1  0  0  0  0
  2 18  1  0  0  0  0
  2 32  1  0  0  0  0
  3 21  1  0  0  0  0
  3 31  1  0  0  0  0
  4 18  2  0  0  0  0
  5 22  2  0  0  0  0
  6 22  1  0  0  0  0
  7  9  1  0  0  0  0
  7 11  1  0  0  0  0
  7 15  1  0  0  0  0
  8 10  1  0  0  0  0
  8 19  1  0  0  0  0
  8 20  1  0  0  0  0
  9 17  2  0  0  0  0
 10 11  1  0  0  0  0
 10 12  2  0  0  0  0
 11 16  2  0  0  0  0
 12 13  1  0  0  0  0
 12 14  1  0  0  0  0
 13 15  2  0  0  0  0
 13 25  1  0  0  0  0
 14 18  1  0  0  0  0
 16 17  1  0  0  0  0
 17 22  1  0  0  0  0
 19 23  1  0  0  0  0
 20 24  1  0  0  0  0
 21 23  1  0  0  0  0
 21 24  1  0  0  0  0
 21 27  1  0  0  0  0
 26 28  1  0  0  0  0
 26 29  1  0  0  0  0
 26 30  1  0  0  0  0
 31 33  1  0  0  0  0
 33 34  2  0  0  0  0
M  END
> <PUBCHEM_COMPOUND_ID_TYPE>
0

> <PUBCHEM_TOTAL_CHARGE>
0

> <PUBCHEM_SUBSTANCE_ID>
310935099

> <PUBCHEM_SUBSTANCE_VERSION>
1

> <PUBCHEM_EXT_DATASOURCE_NAME>
4488

> <PUBCHEM_EXT_DATASOURCE_REGID>
SCHEMBL16112626

> <PUBCHEM_SUBSTANCE_COMMENT>
InChI=1S/C25H35N3O6/c1-8-13-33-25(6)9-11-27(12-10-25)20-18-14-17(22(29)30)26-28(18)15-16(2)19(20)21(23(31)32-7)34-24(3,4)5/h8,14-15,21H,1,9-13H2,2-7H3,(H,29,30)/t21-/m0/s1
InChIKey=GDNSCUFSKKRNBF-NRFANRHFSA-N

> <PUBCHEM_SUBSTANCE_SYNONYM>
SCHEMBL16112626

> <PUBCHEM_XREF_EXT_ID>
SCHEMBL16112626

> <PUBCHEM_EXT_DATASOURCE_URL>
https://www.surechembl.org/

> <PUBCHEM_EXT_SUBSTANCE_URL>
https://www.surechembl.org/chemical/SCHEMBL16112626

> <PUBCHEM_CID_ASSOCIATIONS>
117603192  1

> <PUBCHEM_COORDINATE_TYPE>
1
3

> <PUBCHEM_BONDANNOTATIONS>
14  1  5

$$$$
