310934497
  -OEChem-07211613022D

 19 20  0     0  0  0  0  0  0999 V2000
    0.0000    0.0000    0.0000 Cl  0  0  0  0  0  0  0  0  0  0  0  0
    3.7191   -0.8763    0.0000 F   0  0  0  0  0  0  0  0  0  0  0  0
    2.8428   -0.2778    0.0000 F   0  0  0  0  0  0  0  0  0  0  0  0
    2.6718   -2.7359    0.0000 O   0  0  0  0  0  0  0  0  0  0  0  0
    5.1725   -1.6030    0.0000 O   0  0  0  0  0  0  0  0  0  0  0  0
    5.1725   -3.0351    0.0000 O   0  0  0  0  0  0  0  0  0  0  0  0
    3.4626   -2.9924    0.0000 N   0  0  0  0  0  0  0  0  0  0  0  0
    2.6718   -1.9236    0.0000 C   0  0  0  0  0  0  0  0  0  0  0  0
    3.4626   -1.6458    0.0000 C   0  0  0  0  0  0  0  0  0  0  0  0
    2.0092   -1.4321    0.0000 C   0  0  0  0  0  0  0  0  0  0  0  0
    3.9328   -2.3084    0.0000 C   0  0  0  0  0  0  0  0  0  0  0  0
    2.0947   -0.6199    0.0000 C   0  0  0  0  0  0  0  0  0  0  0  0
    4.7664   -2.3084    0.0000 C   0  0  0  0  0  0  0  0  0  0  0  0
    1.2611   -1.7740    0.0000 C   0  0  0  0  0  0  0  0  0  0  0  0
    1.4107   -0.1496    0.0000 C   0  0  0  0  0  0  0  0  0  0  0  0
    0.6626   -0.4702    0.0000 C   0  0  0  0  0  0  0  0  0  0  0  0
    0.5771   -1.3038    0.0000 C   0  0  0  0  0  0  0  0  0  0  0  0
    5.9847   -1.6030    0.0000 C   0  0  0  0  0  0  0  0  0  0  0  0
    6.4122   -0.8977    0.0000 C   0  0  0  0  0  0  0  0  0  0  0  0
  1 16  1  0  0  0  0
  2  9  1  0  0  0  0
  3 12  1  0  0  0  0
  4  7  1  0  0  0  0
  4  8  1  0  0  0  0
  5 13  1  0  0  0  0
  5 18  1  0  0  0  0
  6 13  2  0  0  0  0
  7 11  2  0  0  0  0
  8  9  2  0  0  0  0
  8 10  1  0  0  0  0
  9 11  1  0  0  0  0
 10 12  1  0  0  0  0
 10 14  2  0  0  0  0
 11 13  1  0  0  0  0
 12 15  2  0  0  0  0
 14 17  1  0  0  0  0
 15 16  1  0  0  0  0
 16 17  2  0  0  0  0
 18 19  1  0  0  0  0
M  END
> <PUBCHEM_COMPOUND_ID_TYPE>
0

> <PUBCHEM_TOTAL_CHARGE>
0

> <PUBCHEM_SUBSTANCE_ID>
310934497

> <PUBCHEM_SUBSTANCE_VERSION>
1

> <PUBCHEM_EXT_DATASOURCE_NAME>
4488

> <PUBCHEM_EXT_DATASOURCE_REGID>
SCHEMBL16111982

> <PUBCHEM_SUBSTANCE_COMMENT>
InChI=1S/C12H8ClF2NO3/c1-2-18-12(17)10-9(15)11(19-16-10)7-4-3-6(13)5-8(7)14/h3-5H,2H2,1H3
InChIKey=PNFSCLZYMKNOBW-UHFFFAOYSA-N

> <PUBCHEM_SUBSTANCE_SYNONYM>
SCHEMBL16111982

> <PUBCHEM_XREF_EXT_ID>
SCHEMBL16111982

> <PUBCHEM_EXT_DATASOURCE_URL>
https://www.surechembl.org/

> <PUBCHEM_EXT_SUBSTANCE_URL>
https://www.surechembl.org/chemical/SCHEMBL16111982

> <PUBCHEM_CID_ASSOCIATIONS>
117602696  1

> <PUBCHEM_COORDINATE_TYPE>
1
3

$$$$
