310933196
  -OEChem-07211613022D

 31 34  0     0  0  0  0  0  0999 V2000
    6.0800   -2.1574    0.0000 O   0  0  0  0  0  0  0  0  0  0  0  0
    8.9565   -4.3148    0.0000 O   0  0  0  0  0  0  0  0  0  0  0  0
    2.6804   -4.5763    0.0000 N   0  0  0  0  0  0  0  0  0  0  0  0
    3.4322   -4.9032    0.0000 N   0  0  0  0  0  0  0  0  0  0  0  0
    4.8052   -2.8438    0.0000 N   0  0  0  0  0  0  0  0  0  0  0  0
    6.0800   -3.5957    0.0000 N   0  0  0  0  0  0  0  0  0  0  0  0
    7.2894   -2.8766    0.0000 N   0  0  0  0  0  0  0  0  0  0  0  0
    0.9479   -2.1247    0.0000 N   0  0  0  0  0  0  0  0  0  0  0  0
    6.0800   -0.7191    0.0000 N   0  0  0  0  0  0  0  0  0  0  0  0
    3.5630   -3.5630    0.0000 C   0  0  0  0  0  0  0  0  0  0  0  0
    2.7785   -3.7591    0.0000 C   0  0  0  0  0  0  0  0  0  0  0  0
    4.0206   -4.3148    0.0000 C   0  0  0  0  0  0  0  0  0  0  0  0
    2.1574   -3.2361    0.0000 C   0  0  0  0  0  0  0  0  0  0  0  0
    4.8378   -4.2822    0.0000 C   0  0  0  0  0  0  0  0  0  0  0  0
    5.2301   -3.5957    0.0000 C   0  0  0  0  0  0  0  0  0  0  0  0
    4.0206   -2.8766    0.0000 C   0  0  0  0  0  0  0  0  0  0  0  0
    1.3729   -3.4977    0.0000 C   0  0  0  0  0  0  0  0  0  0  0  0
    2.3208   -2.4189    0.0000 C   0  0  0  0  0  0  0  0  0  0  0  0
    6.4722   -2.8766    0.0000 C   0  0  0  0  0  0  0  0  0  0  0  0
    0.7845   -2.9092    0.0000 C   0  0  0  0  0  0  0  0  0  0  0  0
    1.7324   -1.8632    0.0000 C   0  0  0  0  0  0  0  0  0  0  0  0
    7.7144   -2.1574    0.0000 C   0  0  0  0  0  0  0  0  0  0  0  0
    7.2894   -1.4382    0.0000 C   0  0  0  0  0  0  0  0  0  0  0  0
    7.7144   -3.5957    0.0000 C   0  0  0  0  0  0  0  0  0  0  0  0
    0.0000   -3.1707    0.0000 C   0  0  0  0  0  0  0  0  0  0  0  0
    6.4722   -1.4382    0.0000 C   0  0  0  0  0  0  0  0  0  0  0  0
    7.7144   -0.7191    0.0000 C   0  0  0  0  0  0  0  0  0  0  0  0
    8.5316   -3.5957    0.0000 C   0  0  0  0  0  0  0  0  0  0  0  0
    7.2894    0.0000    0.0000 C   0  0  0  0  0  0  0  0  0  0  0  0
    6.4722    0.0000    0.0000 C   0  0  0  0  0  0  0  0  0  0  0  0
    9.8064   -4.3148    0.0000 C   0  0  0  0  0  0  0  0  0  0  0  0
  1 19  2  0  0  0  0
  2 28  1  0  0  0  0
  2 31  1  0  0  0  0
  3  4  1  0  0  0  0
  3 11  2  0  0  0  0
  4 12  1  0  0  0  0
  5 15  2  0  0  0  0
  5 16  1  0  0  0  0
  6 15  1  0  0  0  0
  6 19  1  0  0  0  0
  7 19  1  0  0  0  0
  7 22  1  0  0  0  0
  7 24  1  0  0  0  0
  8 20  1  0  0  0  0
  8 21  2  0  0  0  0
  9 26  1  0  0  0  0
  9 30  2  0  0  0  0
 10 11  1  0  0  0  0
 10 12  1  0  0  0  0
 10 16  2  0  0  0  0
 11 13  1  0  0  0  0
 12 14  2  0  0  0  0
 13 17  1  0  0  0  0
 13 18  2  0  0  0  0
 14 15  1  0  0  0  0
 17 20  2  0  0  0  0
 18 21  1  0  0  0  0
 20 25  1  0  0  0  0
 22 23  1  0  0  0  0
 23 26  2  0  0  0  0
 23 27  1  0  0  0  0
 24 28  1  0  0  0  0
 27 29  2  0  0  0  0
 29 30  1  0  0  0  0
M  END
> <PUBCHEM_COMPOUND_ID_TYPE>
0

> <PUBCHEM_TOTAL_CHARGE>
0

> <PUBCHEM_SUBSTANCE_ID>
310933196

> <PUBCHEM_SUBSTANCE_VERSION>
1

> <PUBCHEM_EXT_DATASOURCE_NAME>
4488

> <PUBCHEM_EXT_DATASOURCE_REGID>
SCHEMBL16110605

> <PUBCHEM_SUBSTANCE_COMMENT>
InChI=1S/C22H23N7O2/c1-15-10-17(5-7-24-15)21-18-13-25-20(11-19(18)27-28-21)26-22(30)29(8-9-31-2)14-16-4-3-6-23-12-16/h3-7,10-13H,8-9,14H2,1-2H3,(H,27,28)(H,25,26,30)
InChIKey=KNYPDUFGJNHABV-UHFFFAOYSA-N

> <PUBCHEM_SUBSTANCE_SYNONYM>
SCHEMBL16110605

> <PUBCHEM_XREF_EXT_ID>
SCHEMBL16110605

> <PUBCHEM_EXT_DATASOURCE_URL>
https://www.surechembl.org/

> <PUBCHEM_EXT_SUBSTANCE_URL>
https://www.surechembl.org/chemical/SCHEMBL16110605

> <PUBCHEM_CID_ASSOCIATIONS>
71555692  1

> <PUBCHEM_COORDINATE_TYPE>
1
3

$$$$
