310948935
  -OEChem-07211613022D

 28 30  0     0  0  0  0  0  0999 V2000
   -3.0059   -1.9765    0.0000 Cl  0  0  0  0  0  0  0  0  0  0  0  0
    0.7330    1.5153    0.0000 S   0  0  0  0  0  0  0  0  0  0  0  0
   -1.5729   -1.1530    0.0000 O   0  0  0  0  0  0  0  0  0  0  0  0
   -0.1565   -1.1530    0.0000 O   0  0  0  0  0  0  0  0  0  0  0  0
    3.6153    0.5436    0.0000 O   0  0  0  0  0  0  0  0  0  0  0  0
    0.5847    0.1977    0.0000 N   0  0  0  0  0  0  0  0  0  0  0  0
    1.9518    0.7247    0.0000 N   0  0  0  0  0  0  0  0  0  0  0  0
   -0.1894    0.5270    0.0000 C   0  0  0  0  0  0  0  0  0  0  0  0
   -0.8482    0.0988    0.0000 C   0  0  0  0  0  0  0  0  0  0  0  0
    1.1447    0.8071    0.0000 C   0  0  0  0  0  0  0  0  0  0  0  0
   -0.8976   -0.7247    0.0000 C   0  0  0  0  0  0  0  0  0  0  0  0
   -0.0741    1.3506    0.0000 C   0  0  0  0  0  0  0  0  0  0  0  0
   -1.5894    0.5106    0.0000 C   0  0  0  0  0  0  0  0  0  0  0  0
    2.3141   -0.0164    0.0000 C   0  0  0  0  0  0  0  0  0  0  0  0
   -2.2812    0.0988    0.0000 C   0  0  0  0  0  0  0  0  0  0  0  0
    3.1212   -0.1482    0.0000 C   0  0  0  0  0  0  0  0  0  0  0  0
   -2.2812   -0.7412    0.0000 C   0  0  0  0  0  0  0  0  0  0  0  0
    1.8200   -0.7577    0.0000 C   0  0  0  0  0  0  0  0  0  0  0  0
   -2.9894    0.5106    0.0000 C   0  0  0  0  0  0  0  0  0  0  0  0
    3.4671   -0.9059    0.0000 C   0  0  0  0  0  0  0  0  0  0  0  0
    2.1494   -1.4659    0.0000 C   0  0  0  0  0  0  0  0  0  0  0  0
    2.9730   -1.5647    0.0000 C   0  0  0  0  0  0  0  0  0  0  0  0
   -3.7306    0.0824    0.0000 C   0  0  0  0  0  0  0  0  0  0  0  0
    3.2694    1.2847    0.0000 C   0  0  0  0  0  0  0  0  0  0  0  0
   -3.7306   -0.7412    0.0000 C   0  0  0  0  0  0  0  0  0  0  0  0
   -3.0059   -1.1694    0.0000 C   0  0  0  0  0  0  0  0  0  0  0  0
    3.7306    1.9765    0.0000 C   0  0  0  0  0  0  0  0  0  0  0  0
   -2.3141   -0.7577    0.0000 C   0  0  0  0  0  0  0  0  0  0  0  0
  1 26  1  0  0  0  0
  2 10  1  0  0  0  0
  2 12  1  0  0  0  0
  3 11  1  0  0  0  0
  3 17  1  0  0  0  0
  4 11  2  0  0  0  0
  5 16  1  0  0  0  0
  5 24  1  0  0  0  0
  6  8  1  0  0  0  0
  6 10  2  0  0  0  0
  7 10  1  0  0  0  0
  7 14  1  0  0  0  0
  8  9  1  0  0  0  0
  8 12  2  0  0  0  0
  9 11  1  0  0  0  0
  9 13  2  0  0  0  0
 13 15  1  0  0  0  0
 14 16  1  0  0  0  0
 14 18  2  0  0  0  0
 15 17  1  0  0  0  0
 15 19  2  0  0  0  0
 16 20  2  0  0  0  0
 18 21  1  0  0  0  0
 19 23  1  0  0  0  0
 20 22  1  0  0  0  0
 21 22  2  0  0  0  0
 23 25  2  0  0  0  0
 24 27  1  0  0  0  0
 25 26  1  0  0  0  0
 26 28  2  0  0  0  0
M  END
> <PUBCHEM_COMPOUND_ID_TYPE>
0

> <PUBCHEM_TOTAL_CHARGE>
0

> <PUBCHEM_SUBSTANCE_ID>
310948935

> <PUBCHEM_SUBSTANCE_VERSION>
1

> <PUBCHEM_EXT_DATASOURCE_NAME>
4488

> <PUBCHEM_EXT_DATASOURCE_REGID>
SCHEMBL16127121

> <PUBCHEM_SUBSTANCE_COMMENT>
InChI=1S/C21H19ClN2O3S/c1-3-26-19-10-5-4-9-17(19)23-21-24-18(13-28-21)16-11-15(12-27-20(16)25)8-6-7-14(2)22/h4-11,13H,2-3,12H2,1H3,(H,23,24)/b7-6-,15-8-
InChIKey=SCERGCYDQNBKAE-WEWPEUQNSA-N

> <PUBCHEM_SUBSTANCE_SYNONYM>
SCHEMBL16127121

> <PUBCHEM_XREF_EXT_ID>
SCHEMBL16127121

> <PUBCHEM_EXT_DATASOURCE_URL>
https://www.surechembl.org/

> <PUBCHEM_EXT_SUBSTANCE_URL>
https://www.surechembl.org/chemical/SCHEMBL16127121

> <PUBCHEM_CID_ASSOCIATIONS>
117614447  1

> <PUBCHEM_COORDINATE_TYPE>
1
3

$$$$
