310937538
  -OEChem-07211613022D

 31 35  0     0  0  0  0  0  0999 V2000
    2.8800   -0.8579    0.0000 F   0  0  0  0  0  0  0  0  0  0  0  0
    3.6153   -2.0834    0.0000 F   0  0  0  0  0  0  0  0  0  0  0  0
    3.5847   -0.4289    0.0000 F   0  0  0  0  0  0  0  0  0  0  0  0
    5.6681    0.0000    0.0000 O   0  0  0  0  0  0  0  0  0  0  0  0
    0.0000   -5.7294    0.0000 O   0  0  0  0  0  0  0  0  0  0  0  0
    4.9941   -1.2255    0.0000 N   0  0  0  0  0  0  0  0  0  0  0  0
    7.2001   -2.3285    0.0000 N   0  0  0  0  0  0  0  0  0  0  0  0
    4.9941   -3.6766    0.0000 N   0  0  0  0  0  0  0  0  0  0  0  0
    7.6596   -1.6545    0.0000 N   0  0  0  0  0  0  0  0  0  0  0  0
    1.4400   -4.9022    0.0000 N   0  0  0  0  0  0  0  0  0  0  0  0
    4.9941   -2.0834    0.0000 C   0  0  0  0  0  0  0  0  0  0  0  0
    5.6681   -2.4817    0.0000 C   0  0  0  0  0  0  0  0  0  0  0  0
    6.4034   -2.0834    0.0000 C   0  0  0  0  0  0  0  0  0  0  0  0
    6.4034   -1.2255    0.0000 C   0  0  0  0  0  0  0  0  0  0  0  0
    5.6681   -0.8272    0.0000 C   0  0  0  0  0  0  0  0  0  0  0  0
    4.2894   -2.4817    0.0000 C   0  0  0  0  0  0  0  0  0  0  0  0
    4.2894   -3.2783    0.0000 C   0  0  0  0  0  0  0  0  0  0  0  0
    5.6681   -3.2783    0.0000 C   0  0  0  0  0  0  0  0  0  0  0  0
    7.2001   -0.9804    0.0000 C   0  0  0  0  0  0  0  0  0  0  0  0
    4.2894   -0.8272    0.0000 C   0  0  0  0  0  0  0  0  0  0  0  0
    3.5847   -3.6766    0.0000 C   0  0  0  0  0  0  0  0  0  0  0  0
    3.5847   -1.2562    0.0000 C   0  0  0  0  0  0  0  0  0  0  0  0
    3.5541   -4.5038    0.0000 C   0  0  0  0  0  0  0  0  0  0  0  0
    2.8494   -3.2783    0.0000 C   0  0  0  0  0  0  0  0  0  0  0  0
    2.1447   -4.5038    0.0000 C   0  0  0  0  0  0  0  0  0  0  0  0
    2.8494   -4.9022    0.0000 C   0  0  0  0  0  0  0  0  0  0  0  0
    2.1447   -3.6766    0.0000 C   0  0  0  0  0  0  0  0  0  0  0  0
    1.4400   -5.7294    0.0000 C   0  0  0  0  0  0  0  0  0  0  0  0
    0.7353   -4.5038    0.0000 C   0  0  0  0  0  0  0  0  0  0  0  0
    0.0000   -4.9022    0.0000 C   0  0  0  0  0  0  0  0  0  0  0  0
    0.7047   -6.1277    0.0000 C   0  0  0  0  0  0  0  0  0  0  0  0
  1 22  1  0  0  0  0
  2 22  1  0  0  0  0
  3 22  1  0  0  0  0
  4 15  2  0  0  0  0
  5 30  1  0  0  0  0
  5 31  1  0  0  0  0
  6 11  1  0  0  0  0
  6 15  1  0  0  0  0
  6 20  1  0  0  0  0
  7  9  1  0  0  0  0
  7 13  1  0  0  0  0
  8 17  2  0  0  0  0
  8 18  1  0  0  0  0
  9 19  2  0  0  0  0
 10 25  1  0  0  0  0
 10 28  1  0  0  0  0
 10 29  1  0  0  0  0
 11 12  1  0  0  0  0
 11 16  2  0  0  0  0
 12 13  1  0  0  0  0
 12 18  2  0  0  0  0
 13 14  2  0  0  0  0
 14 15  1  0  0  0  0
 14 19  1  0  0  0  0
 16 17  1  0  0  0  0
 17 21  1  0  0  0  0
 20 22  1  0  0  0  0
 21 23  2  0  0  0  0
 21 24  1  0  0  0  0
 23 26  1  0  0  0  0
 24 27  2  0  0  0  0
 25 26  2  0  0  0  0
 25 27  1  0  0  0  0
 28 31  1  0  0  0  0
 29 30  1  0  0  0  0
M  END
> <PUBCHEM_COMPOUND_ID_TYPE>
0

> <PUBCHEM_TOTAL_CHARGE>
0

> <PUBCHEM_SUBSTANCE_ID>
310937538

> <PUBCHEM_SUBSTANCE_VERSION>
1

> <PUBCHEM_EXT_DATASOURCE_NAME>
4488

> <PUBCHEM_EXT_DATASOURCE_REGID>
SCHEMBL16115315

> <PUBCHEM_SUBSTANCE_COMMENT>
InChI=1S/C21H18F3N5O2/c22-21(23,24)12-29-18-9-17(25-10-15(18)19-16(20(29)30)11-26-27-19)13-1-3-14(4-2-13)28-5-7-31-8-6-28/h1-4,9-11H,5-8,12H2,(H,26,27)
InChIKey=NLEGOZNWBIHTRG-UHFFFAOYSA-N

> <PUBCHEM_SUBSTANCE_SYNONYM>
SCHEMBL16115315

> <PUBCHEM_XREF_EXT_ID>
SCHEMBL16115315

> <PUBCHEM_EXT_DATASOURCE_URL>
https://www.surechembl.org/

> <PUBCHEM_EXT_SUBSTANCE_URL>
https://www.surechembl.org/chemical/SCHEMBL16115315

> <PUBCHEM_CID_ASSOCIATIONS>
86298883  1

> <PUBCHEM_COORDINATE_TYPE>
1
3

$$$$
