310947488
  -OEChem-07211613022D

 13 14  0     1  0  0  0  0  0999 V2000
    3.3295    0.4421    0.0000 O   0  0  0  0  0  0  0  0  0  0  0  0
    3.4971   -0.0394    0.0000 O   0  0  0  0  0  0  0  0  0  0  0  0
    1.4365   -0.7766    0.0000 O   0  0  0  0  0  0  0  0  0  0  0  0
    2.3887    0.1756    0.0000 C   0  0  3  0  0  0  0  0  0  0  0  0
    2.8603   -0.3825    0.0000 C   0  0  3  0  0  0  0  0  0  0  0  0
    3.7965   -0.3825    0.0000 C   0  0  3  0  0  0  0  0  0  0  0  0
    4.2692    0.1756    0.0000 C   0  0  3  0  0  0  0  0  0  0  0  0
    2.3887    1.3995    0.0000 C   0  0  0  0  0  0  0  0  0  0  0  0
    3.7965    0.8505    0.0000 C   0  0  0  0  0  0  0  0  0  0  0  0
    2.1875   -0.5754    0.0000 C   0  0  0  0  0  0  0  0  0  0  0  0
    4.6579    0.8488    0.0000 C   0  0  0  0  0  0  0  0  0  0  0  0
    3.2685   -0.8814    0.0000 C   0  0  0  0  0  0  0  0  0  0  0  0
    1.2353   -1.5276    0.0000 C   0  0  0  0  0  0  0  0  0  0  0  0
  1  4  1  0  0  0  0
  1  7  1  0  0  0  0
  2  5  1  0  0  0  0
  2 12  1  0  0  0  0
  3 10  1  0  0  0  0
  3 13  1  0  0  0  0
  4  5  1  0  0  0  0
  4  8  1  0  0  0  0
  4 10  1  6  0  0  0
  5  6  1  0  0  0  0
  6  7  1  0  0  0  0
  6  9  1  6  0  0  0
  7 11  1  1  0  0  0
  8  9  1  0  0  0  0
M  END
> <PUBCHEM_COMPOUND_ID_TYPE>
0

> <PUBCHEM_TOTAL_CHARGE>
0

> <PUBCHEM_SUBSTANCE_ID>
310947488

> <PUBCHEM_SUBSTANCE_VERSION>
1

> <PUBCHEM_EXT_DATASOURCE_NAME>
4488

> <PUBCHEM_EXT_DATASOURCE_REGID>
SCHEMBL16125650

> <PUBCHEM_SUBSTANCE_COMMENT>
InChI=1S/C10H18O3/c1-7-8-4-5-10(13-7,6-11-2)9(8)12-3/h7-9H,4-6H2,1-3H3/t7-,8-,9?,10-/m0/s1
InChIKey=WFZUFSYKCDMKNA-HQRIKABESA-N

> <PUBCHEM_SUBSTANCE_SYNONYM>
SCHEMBL16125650

> <PUBCHEM_XREF_EXT_ID>
SCHEMBL16125650

> <PUBCHEM_EXT_DATASOURCE_URL>
https://www.surechembl.org/

> <PUBCHEM_EXT_SUBSTANCE_URL>
https://www.surechembl.org/chemical/SCHEMBL16125650

> <PUBCHEM_CID_ASSOCIATIONS>
90968708  1

> <PUBCHEM_COORDINATE_TYPE>
1
3

> <PUBCHEM_BONDANNOTATIONS>
4  10  6
6  9  6
7  11  5

$$$$
