310949868
  -OEChem-07211613022D

 24 27  0     1  0  0  0  0  0999 V2000
   -2.6571    0.5728    0.0000 Cl  0  0  0  0  0  0  0  0  0  0  0  0
   -2.3947    2.2292    0.0000 O   0  0  0  0  0  0  0  0  0  0  0  0
    0.5314    0.7247    0.0000 N   0  0  0  0  0  0  0  0  0  0  0  0
    0.5314    2.0773    0.0000 N   0  0  0  0  0  0  0  0  0  0  0  0
    3.1125    0.9869    0.0000 N   0  0  0  0  0  0  0  0  0  0  0  0
    1.3043   -1.6219    0.0000 N   0  0  0  0  0  0  0  0  0  0  0  0
   -0.2553    1.0007    0.0000 C   0  0  0  0  0  0  0  0  0  0  0  0
    1.0283    1.4148    0.0000 C   0  0  0  0  0  0  0  0  0  0  0  0
   -0.2553    1.8151    0.0000 C   0  0  0  0  0  0  0  0  0  0  0  0
    0.7799   -0.0345    0.0000 C   0  0  0  0  0  0  0  0  0  0  0  0
    1.8565    1.3871    0.0000 C   0  0  3  0  0  0  0  0  0  0  0  0
   -0.9593    0.5866    0.0000 C   0  0  0  0  0  0  0  0  0  0  0  0
   -0.9731    2.2154    0.0000 C   0  0  0  0  0  0  0  0  0  0  0  0
   -1.6771    0.9869    0.0000 C   0  0  0  0  0  0  0  0  0  0  0  0
   -1.6771    1.8151    0.0000 C   0  0  0  0  0  0  0  0  0  0  0  0
    0.2415   -0.6833    0.0000 C   0  0  0  0  0  0  0  0  0  0  0  0
    1.6080   -0.2278    0.0000 C   0  0  0  0  0  0  0  0  0  0  0  0
    2.3395    0.7385    0.0000 C   0  0  0  0  0  0  0  0  0  0  0  0
    2.3395    2.0773    0.0000 C   0  0  0  0  0  0  0  0  0  0  0  0
    0.4900   -1.4424    0.0000 C   0  0  0  0  0  0  0  0  0  0  0  0
    1.8565   -1.0145    0.0000 C   0  0  0  0  0  0  0  0  0  0  0  0
    3.1263    1.8151    0.0000 C   0  0  0  0  0  0  0  0  0  0  0  0
   -3.1263    1.8013    0.0000 C   0  0  0  0  0  0  0  0  0  0  0  0
    1.4976   -2.2292    0.0000 C   0  0  0  0  0  0  0  0  0  0  0  0
  1 14  1  0  0  0  0
  2 15  1  0  0  0  0
  2 23  1  0  0  0  0
  3  7  1  0  0  0  0
  3  8  1  0  0  0  0
  3 10  1  0  0  0  0
  4  8  2  0  0  0  0
  4  9  1  0  0  0  0
  5 18  1  0  0  0  0
  5 22  1  0  0  0  0
  6 20  1  0  0  0  0
  6 21  1  0  0  0  0
  6 24  1  0  0  0  0
  7  9  1  0  0  0  0
  7 12  2  0  0  0  0
 11  8  1  6  0  0  0
  9 13  2  0  0  0  0
 10 16  1  0  0  0  0
 10 17  1  0  0  0  0
 11 18  1  0  0  0  0
 11 19  1  0  0  0  0
 12 14  1  0  0  0  0
 13 15  1  0  0  0  0
 14 15  2  0  0  0  0
 16 20  1  0  0  0  0
 17 21  1  0  0  0  0
 19 22  1  0  0  0  0
M  END
> <PUBCHEM_COMPOUND_ID_TYPE>
0

> <PUBCHEM_TOTAL_CHARGE>
0

> <PUBCHEM_SUBSTANCE_ID>
310949868

> <PUBCHEM_SUBSTANCE_VERSION>
1

> <PUBCHEM_EXT_DATASOURCE_NAME>
4488

> <PUBCHEM_EXT_DATASOURCE_REGID>
SCHEMBL16128074

> <PUBCHEM_SUBSTANCE_COMMENT>
InChI=1S/C18H25ClN4O/c1-22-7-4-13(5-8-22)23-16-9-14(19)17(24-2)10-15(16)21-18(23)12-3-6-20-11-12/h9-10,12-13,20H,3-8,11H2,1-2H3/t12-/m1/s1
InChIKey=OKUIGCLHMXQBIH-GFCCVEGCSA-N

> <PUBCHEM_SUBSTANCE_SYNONYM>
SCHEMBL16128074

> <PUBCHEM_XREF_EXT_ID>
SCHEMBL16128074

> <PUBCHEM_EXT_DATASOURCE_URL>
https://www.surechembl.org/

> <PUBCHEM_EXT_SUBSTANCE_URL>
https://www.surechembl.org/chemical/SCHEMBL16128074

> <PUBCHEM_CID_ASSOCIATIONS>
117615166  1

> <PUBCHEM_COORDINATE_TYPE>
1
3

> <PUBCHEM_BONDANNOTATIONS>
11  8  6

$$$$
