310949905
  -OEChem-07211613022D

 28 32  0     1  0  0  0  0  0999 V2000
   -2.1226    3.3157    0.0000 F   0  0  0  0  0  0  0  0  0  0  0  0
   -0.6243    0.9712    0.0000 N   0  0  0  0  0  0  0  0  0  0  0  0
   -0.6243    2.3169    0.0000 N   0  0  0  0  0  0  0  0  0  0  0  0
    0.1526   -1.4012    0.0000 N   0  0  0  0  0  0  0  0  0  0  0  0
    1.9700    1.2347    0.0000 N   0  0  0  0  0  0  0  0  0  0  0  0
   -1.4151    1.2486    0.0000 C   0  0  0  0  0  0  0  0  0  0  0  0
   -0.1387    1.6510    0.0000 C   0  0  0  0  0  0  0  0  0  0  0  0
   -1.4151    2.0671    0.0000 C   0  0  0  0  0  0  0  0  0  0  0  0
   -0.3469    0.1942    0.0000 C   0  0  0  0  0  0  0  0  0  0  0  0
    0.7214    1.6371    0.0000 C   0  0  3  0  0  0  0  0  0  0  0  0
   -2.1365    2.4834    0.0000 C   0  0  0  0  0  0  0  0  0  0  0  0
   -2.1226    0.8324    0.0000 C   0  0  0  0  0  0  0  0  0  0  0  0
   -0.9017   -0.4163    0.0000 C   0  0  0  0  0  0  0  0  0  0  0  0
    0.4579    0.0139    0.0000 C   0  0  0  0  0  0  0  0  0  0  0  0
   -2.8441    2.0671    0.0000 C   0  0  0  0  0  0  0  0  0  0  0  0
   -2.8441    1.2347    0.0000 C   0  0  0  0  0  0  0  0  0  0  0  0
    1.1931    0.9850    0.0000 C   0  0  0  0  0  0  0  0  0  0  0  0
    1.1793    2.3030    0.0000 C   0  0  0  0  0  0  0  0  0  0  0  0
   -0.6659   -1.2209    0.0000 C   0  0  0  0  0  0  0  0  0  0  0  0
    0.7075   -0.7769    0.0000 C   0  0  0  0  0  0  0  0  0  0  0  0
    1.9839    2.0671    0.0000 C   0  0  0  0  0  0  0  0  0  0  0  0
    0.4163   -2.1781    0.0000 C   0  0  0  0  0  0  0  0  0  0  0  0
    1.2209   -2.3585    0.0000 C   0  0  0  0  0  0  0  0  0  0  0  0
    1.7759   -1.7481    0.0000 C   0  0  0  0  0  0  0  0  0  0  0  0
    1.4845   -3.1354    0.0000 C   0  0  0  0  0  0  0  0  0  0  0  0
    2.5805   -1.9145    0.0000 C   0  0  0  0  0  0  0  0  0  0  0  0
    2.2891   -3.3157    0.0000 C   0  0  0  0  0  0  0  0  0  0  0  0
    2.8441   -2.7053    0.0000 C   0  0  0  0  0  0  0  0  0  0  0  0
  1 11  1  0  0  0  0
  2  6  1  0  0  0  0
  2  7  1  0  0  0  0
  2  9  1  0  0  0  0
  3  7  2  0  0  0  0
  3  8  1  0  0  0  0
  4 19  1  0  0  0  0
  4 20  1  0  0  0  0
  4 22  1  0  0  0  0
  5 17  1  0  0  0  0
  5 21  1  0  0  0  0
  6  8  1  0  0  0  0
  6 12  2  0  0  0  0
 10  7  1  6  0  0  0
  8 11  2  0  0  0  0
  9 13  1  0  0  0  0
  9 14  1  0  0  0  0
 10 17  1  0  0  0  0
 10 18  1  0  0  0  0
 11 15  1  0  0  0  0
 12 16  1  0  0  0  0
 13 19  1  0  0  0  0
 14 20  1  0  0  0  0
 15 16  2  0  0  0  0
 18 21  1  0  0  0  0
 22 23  1  0  0  0  0
 23 24  2  0  0  0  0
 23 25  1  0  0  0  0
 24 26  1  0  0  0  0
 25 27  2  0  0  0  0
 26 28  2  0  0  0  0
 27 28  1  0  0  0  0
M  END
> <PUBCHEM_COMPOUND_ID_TYPE>
0

> <PUBCHEM_TOTAL_CHARGE>
0

> <PUBCHEM_SUBSTANCE_ID>
310949905

> <PUBCHEM_SUBSTANCE_VERSION>
1

> <PUBCHEM_EXT_DATASOURCE_NAME>
4488

> <PUBCHEM_EXT_DATASOURCE_REGID>
SCHEMBL16128126

> <PUBCHEM_SUBSTANCE_COMMENT>
InChI=1S/C23H27FN4/c24-20-7-4-8-21-22(20)26-23(18-9-12-25-15-18)28(21)19-10-13-27(14-11-19)16-17-5-2-1-3-6-17/h1-8,18-19,25H,9-16H2/t18-/m1/s1
InChIKey=YQKMOWBTYJRIKK-GOSISDBHSA-N

> <PUBCHEM_SUBSTANCE_SYNONYM>
SCHEMBL16128126

> <PUBCHEM_XREF_EXT_ID>
SCHEMBL16128126

> <PUBCHEM_EXT_DATASOURCE_URL>
https://www.surechembl.org/

> <PUBCHEM_EXT_SUBSTANCE_URL>
https://www.surechembl.org/chemical/SCHEMBL16128126

> <PUBCHEM_CID_ASSOCIATIONS>
117615187  1

> <PUBCHEM_COORDINATE_TYPE>
1
3

> <PUBCHEM_BONDANNOTATIONS>
10  7  6

$$$$
