310944517
  -OEChem-07211613022D

 19 20  0     0  0  0  0  0  0999 V2000
   -1.8054   -1.0360    0.0000 O   0  0  0  0  0  0  0  0  0  0  0  0
    0.3537    0.2171    0.0000 C   0  0  0  0  0  0  0  0  0  0  0  0
    1.0609    0.6266    0.0000 C   0  0  0  0  0  0  0  0  0  0  0  0
   -0.3661    0.6142    0.0000 C   0  0  0  0  0  0  0  0  0  0  0  0
   -0.3537   -1.0236    0.0000 C   0  0  0  0  0  0  0  0  0  0  0  0
    0.3537   -0.6142    0.0000 C   0  0  0  0  0  0  0  0  0  0  0  0
   -1.0857   -0.6142    0.0000 C   0  0  0  0  0  0  0  0  0  0  0  0
    1.7806    0.2171    0.0000 C   0  0  0  0  0  0  0  0  0  0  0  0
   -1.0609    0.2047    0.0000 C   0  0  0  0  0  0  0  0  0  0  0  0
    1.0857    1.4456    0.0000 C   0  0  0  0  0  0  0  0  0  0  0  0
    1.7930    1.8551    0.0000 C   0  0  0  0  0  0  0  0  0  0  0  0
    2.5002    0.6266    0.0000 C   0  0  0  0  0  0  0  0  0  0  0  0
   -0.3661   -1.8551    0.0000 C   0  0  0  0  0  0  0  0  0  0  0  0
    2.5002    1.4456    0.0000 C   0  0  0  0  0  0  0  0  0  0  0  0
   -0.3661    1.4456    0.0000 C   0  0  0  0  0  0  0  0  0  0  0  0
    1.7806   -0.6266    0.0000 C   0  0  0  0  0  0  0  0  0  0  0  0
    1.7806    2.6863    0.0000 C   0  0  0  0  0  0  0  0  0  0  0  0
   -0.3537   -2.6863    0.0000 C   0  0  0  0  0  0  0  0  0  0  0  0
   -2.5002   -0.6390    0.0000 C   0  0  0  0  0  0  0  0  0  0  0  0
  1  7  1  0  0  0  0
  1 19  1  0  0  0  0
  2  3  1  0  0  0  0
  2  4  2  0  0  0  0
  2  6  1  0  0  0  0
  3  8  2  0  0  0  0
  3 10  1  0  0  0  0
  4  9  1  0  0  0  0
  4 15  1  0  0  0  0
  5  6  2  0  0  0  0
  5  7  1  0  0  0  0
  5 13  1  0  0  0  0
  7  9  2  0  0  0  0
  8 12  1  0  0  0  0
  8 16  1  0  0  0  0
 10 11  2  0  0  0  0
 11 14  1  0  0  0  0
 11 17  1  0  0  0  0
 12 14  2  0  0  0  0
 13 18  1  0  0  0  0
M  END
> <PUBCHEM_COMPOUND_ID_TYPE>
0

> <PUBCHEM_TOTAL_CHARGE>
0

> <PUBCHEM_SUBSTANCE_ID>
310944517

> <PUBCHEM_SUBSTANCE_VERSION>
1

> <PUBCHEM_EXT_DATASOURCE_NAME>
4488

> <PUBCHEM_EXT_DATASOURCE_REGID>
SCHEMBL16122592

> <PUBCHEM_SUBSTANCE_COMMENT>
InChI=1S/C18H22O/c1-6-15-11-17(14(4)10-18(15)19-5)16-9-12(2)7-8-13(16)3/h7-11H,6H2,1-5H3
InChIKey=ZRYDLRNPHHEWMU-UHFFFAOYSA-N

> <PUBCHEM_SUBSTANCE_SYNONYM>
SCHEMBL16122592

> <PUBCHEM_XREF_EXT_ID>
SCHEMBL16122592

> <PUBCHEM_EXT_DATASOURCE_URL>
https://www.surechembl.org/

> <PUBCHEM_EXT_SUBSTANCE_URL>
https://www.surechembl.org/chemical/SCHEMBL16122592

> <PUBCHEM_CID_ASSOCIATIONS>
117610752  1

> <PUBCHEM_COORDINATE_TYPE>
1
3

$$$$
