310948539
  -OEChem-07211613022D

 32 34  0     1  0  0  0  0  0999 V2000
   -4.4060    1.2269    0.0000 O   0  0  0  0  0  0  0  0  0  0  0  0
   -3.6949    0.0000    0.0000 O   0  0  0  0  0  0  0  0  0  0  0  0
    0.0418    2.4679    0.0000 O   0  0  0  0  0  0  0  0  0  0  0  0
    0.7668   -0.4043    0.0000 N   0  0  0  0  0  0  0  0  0  0  0  0
    0.7668    1.2409    0.0000 N   0  0  0  0  0  0  0  0  0  0  0  0
    1.4919    2.4818    0.0000 N   0  0  0  0  0  0  0  0  0  0  0  0
    3.6670    2.0635    0.0000 N   0  0  0  0  0  0  0  0  0  0  0  0
    2.9419    0.8226    0.0000 N   0  0  0  0  0  0  0  0  0  0  0  0
   -2.1472    1.2548    0.0000 C   0  0  3  0  0  0  0  0  0  0  0  0
   -2.9559    1.2548    0.0000 C   0  0  3  0  0  0  0  0  0  0  0  0
   -1.3804    0.8087    0.0000 C   0  0  0  0  0  0  0  0  0  0  0  0
   -2.5515    1.9381    0.0000 C   0  0  0  0  0  0  0  0  0  0  0  0
    0.0418    0.8366    0.0000 C   0  0  0  0  0  0  0  0  0  0  0  0
    0.0279    0.0139    0.0000 C   0  0  0  0  0  0  0  0  0  0  0  0
   -0.6832    1.2269    0.0000 C   0  0  0  0  0  0  0  0  0  0  0  0
   -3.6949    0.8087    0.0000 C   0  0  0  0  0  0  0  0  0  0  0  0
   -1.4082    0.0139    0.0000 C   0  0  0  0  0  0  0  0  0  0  0  0
   -0.6832   -0.4043    0.0000 C   0  0  0  0  0  0  0  0  0  0  0  0
    0.7808    2.0635    0.0000 C   0  0  0  0  0  0  0  0  0  0  0  0
    0.7529   -1.2409    0.0000 C   0  0  0  0  0  0  0  0  0  0  0  0
    1.4640    0.0000    0.0000 C   0  0  0  0  0  0  0  0  0  0  0  0
    2.2169    2.0635    0.0000 C   0  0  0  0  0  0  0  0  0  0  0  0
    0.0418   -1.6313    0.0000 C   0  0  0  0  0  0  0  0  0  0  0  0
    2.2169   -0.4043    0.0000 C   0  0  0  0  0  0  0  0  0  0  0  0
    2.9280    2.4818    0.0000 C   0  0  0  0  0  0  0  0  0  0  0  0
    2.2169    1.2409    0.0000 C   0  0  0  0  0  0  0  0  0  0  0  0
    3.6530    1.2409    0.0000 C   0  0  0  0  0  0  0  0  0  0  0  0
   -0.6972   -1.2409    0.0000 C   0  0  0  0  0  0  0  0  0  0  0  0
    0.0558   -2.4818    0.0000 C   0  0  0  0  0  0  0  0  0  0  0  0
    2.9280    0.0139    0.0000 C   0  0  0  0  0  0  0  0  0  0  0  0
    2.2309   -1.2409    0.0000 C   0  0  0  0  0  0  0  0  0  0  0  0
    4.4060    0.8226    0.0000 C   0  0  0  0  0  0  0  0  0  0  0  0
  1 16  2  0  0  0  0
  2 16  1  0  0  0  0
  3 19  2  0  0  0  0
  4 14  1  0  0  0  0
  4 20  1  0  0  0  0
  4 21  1  0  0  0  0
  5 13  1  0  0  0  0
  5 19  1  0  0  0  0
  6 19  1  0  0  0  0
  6 22  1  0  0  0  0
  7 25  2  0  0  0  0
  7 27  1  0  0  0  0
  8 26  1  0  0  0  0
  8 27  2  0  0  0  0
  9 10  1  0  0  0  0
  9 11  1  0  0  0  0
  9 12  1  1  0  0  0
 10 12  1  0  0  0  0
 10 16  1  1  0  0  0
 11 15  1  0  0  0  0
 11 17  2  0  0  0  0
 13 14  1  0  0  0  0
 13 15  2  0  0  0  0
 14 18  2  0  0  0  0
 17 18  1  0  0  0  0
 20 23  1  0  0  0  0
 21 24  1  0  0  0  0
 22 25  1  0  0  0  0
 22 26  2  0  0  0  0
 23 28  1  0  0  0  0
 23 29  1  0  0  0  0
 24 30  1  0  0  0  0
 24 31  1  0  0  0  0
 27 32  1  0  0  0  0
M  END
> <PUBCHEM_COMPOUND_ID_TYPE>
0

> <PUBCHEM_TOTAL_CHARGE>
0

> <PUBCHEM_SUBSTANCE_ID>
310948539

> <PUBCHEM_SUBSTANCE_VERSION>
1

> <PUBCHEM_EXT_DATASOURCE_NAME>
4488

> <PUBCHEM_EXT_DATASOURCE_REGID>
SCHEMBL16126721

> <PUBCHEM_SUBSTANCE_COMMENT>
InChI=1S/C24H33N5O3/c1-14(2)12-29(13-15(3)4)22-7-6-17(19-9-20(19)23(30)31)8-21(22)28-24(32)27-18-10-25-16(5)26-11-18/h6-8,10-11,14-15,19-20H,9,12-13H2,1-5H3,(H,30,31)(H2,27,28,32)/t19-,20-/m0/s1
InChIKey=QZXOXLHQEHWCEP-PMACEKPBSA-N

> <PUBCHEM_SUBSTANCE_SYNONYM>
SCHEMBL16126721

> <PUBCHEM_XREF_EXT_ID>
SCHEMBL16126721

> <PUBCHEM_EXT_DATASOURCE_URL>
https://www.surechembl.org/

> <PUBCHEM_EXT_SUBSTANCE_URL>
https://www.surechembl.org/chemical/SCHEMBL16126721

> <PUBCHEM_CID_ASSOCIATIONS>
117614096  1

> <PUBCHEM_COORDINATE_TYPE>
1
3

> <PUBCHEM_BONDANNOTATIONS>
10  16  5
9  12  5

$$$$
