310946391
  -OEChem-07211613022D

 25 26  0     1  0  0  0  0  0999 V2000
    9.5731    3.7033    0.0000 I   0  0  0  0  0  0  0  0  0  0  0  0
   11.0021    6.1783    0.0000 I   0  0  0  0  0  0  0  0  0  0  0  0
    9.5731    5.3534    0.0000 O   0  0  0  0  0  0  0  0  0  0  0  0
    6.7150    3.7033    0.0000 O   0  0  0  0  0  0  0  0  0  0  0  0
   14.5747    4.1158    0.0000 O   0  0  0  0  0  0  0  0  0  0  0  0
   13.8601    2.8782    0.0000 O   0  0  0  0  0  0  0  0  0  0  0  0
   13.1455    4.9408    0.0000 N   0  0  0  0  0  0  0  0  0  0  0  0
   10.2875    4.9408    0.0000 C   0  0  0  0  0  0  0  0  0  0  0  0
   10.2875    4.1158    0.0000 C   0  0  0  0  0  0  0  0  0  0  0  0
   11.0021    5.3534    0.0000 C   0  0  0  0  0  0  0  0  0  0  0  0
   11.7165    4.1158    0.0000 C   0  0  0  0  0  0  0  0  0  0  0  0
    8.8585    4.9408    0.0000 C   0  0  0  0  0  0  0  0  0  0  0  0
   11.0021    3.7033    0.0000 C   0  0  0  0  0  0  0  0  0  0  0  0
   11.7165    4.9408    0.0000 C   0  0  0  0  0  0  0  0  0  0  0  0
   12.4311    3.7033    0.0000 C   0  0  0  0  0  0  0  0  0  0  0  0
    8.1440    5.3534    0.0000 C   0  0  0  0  0  0  0  0  0  0  0  0
    7.4295    4.9408    0.0000 C   0  0  0  0  0  0  0  0  0  0  0  0
    7.4295    4.1158    0.0000 C   0  0  0  0  0  0  0  0  0  0  0  0
    8.8585    4.1158    0.0000 C   0  0  0  0  0  0  0  0  0  0  0  0
   13.1455    4.1158    0.0000 C   0  0  3  0  0  0  0  0  0  0  0  0
    8.1440    3.7033    0.0000 C   0  0  0  0  0  0  0  0  0  0  0  0
   13.8601    3.7033    0.0000 C   0  0  0  0  0  0  0  0  0  0  0  0
    6.7150    5.3534    0.0000 C   0  0  0  0  0  0  0  0  0  0  0  0
    6.1810    4.0116    0.0000 C   0  0  0  0  0  0  0  0  0  0  0  0
   15.1150    3.8038    0.0000 C   0  0  0  0  0  0  0  0  0  0  0  0
  1  9  1  0  0  0  0
  2 10  1  0  0  0  0
  3  8  1  0  0  0  0
  3 12  1  0  0  0  0
  4 18  1  0  0  0  0
  4 24  1  0  0  0  0
  5 22  1  0  0  0  0
  5 25  1  0  0  0  0
  6 22  2  0  0  0  0
 20  7  1  6  0  0  0
  8  9  2  0  0  0  0
  8 10  1  0  0  0  0
  9 13  1  0  0  0  0
 10 14  2  0  0  0  0
 11 13  2  0  0  0  0
 11 14  1  0  0  0  0
 11 15  1  0  0  0  0
 12 16  2  0  0  0  0
 12 19  1  0  0  0  0
 15 20  1  0  0  0  0
 16 17  1  0  0  0  0
 17 18  2  0  0  0  0
 17 23  1  0  0  0  0
 18 21  1  0  0  0  0
 19 21  2  0  0  0  0
 20 22  1  0  0  0  0
M  END
> <PUBCHEM_COMPOUND_ID_TYPE>
0

> <PUBCHEM_TOTAL_CHARGE>
0

> <PUBCHEM_SUBSTANCE_ID>
310946391

> <PUBCHEM_SUBSTANCE_VERSION>
1

> <PUBCHEM_EXT_DATASOURCE_NAME>
4488

> <PUBCHEM_EXT_DATASOURCE_REGID>
SCHEMBL16124512

> <PUBCHEM_SUBSTANCE_COMMENT>
InChI=1S/C18H19I2NO4/c1-10-6-12(4-5-16(10)23-2)25-17-13(19)7-11(8-14(17)20)9-15(21)18(22)24-3/h4-8,15H,9,21H2,1-3H3/t15-/m0/s1
InChIKey=GRNXOZUJVPKEHI-HNNXBMFYSA-N

> <PUBCHEM_SUBSTANCE_SYNONYM>
SCHEMBL16124512

> <PUBCHEM_XREF_EXT_ID>
SCHEMBL16124512

> <PUBCHEM_EXT_DATASOURCE_URL>
https://www.surechembl.org/

> <PUBCHEM_EXT_SUBSTANCE_URL>
https://www.surechembl.org/chemical/SCHEMBL16124512

> <PUBCHEM_CID_ASSOCIATIONS>
117612312  1

> <PUBCHEM_COORDINATE_TYPE>
1
3

> <PUBCHEM_BONDANNOTATIONS>
20  7  6

$$$$
