310944980
  -OEChem-07211613022D

 34 40  0     0  0  0  0  0  0999 V2000
    3.1789    2.4201    0.0000 O   0  0  0  0  0  0  0  0  0  0  0  0
   -2.8712   -2.4201    0.0000 O   0  0  0  0  0  0  0  0  0  0  0  0
   -4.6965   -0.0410    0.0000 O   0  0  0  0  0  0  0  0  0  0  0  0
    1.6817    0.1230    0.0000 N   0  0  0  0  0  0  0  0  0  0  0  0
    3.8967    1.2100    0.0000 N   0  0  0  0  0  0  0  0  0  0  0  0
   -1.2715    1.0459    0.0000 N   0  0  0  0  0  0  0  0  0  0  0  0
   -3.5480   -0.8819    0.0000 N   0  0  0  0  0  0  0  0  0  0  0  0
    3.8967    0.3692    0.0000 C   0  0  0  0  0  0  0  0  0  0  0  0
    2.4610    1.2100    0.0000 C   0  0  0  0  0  0  0  0  0  0  0  0
    2.4405    0.3897    0.0000 C   0  0  0  0  0  0  0  0  0  0  0  0
    1.6612    1.4766    0.0000 C   0  0  0  0  0  0  0  0  0  0  0  0
    1.1895    0.7793    0.0000 C   0  0  0  0  0  0  0  0  0  0  0  0
    3.1994   -0.0410    0.0000 C   0  0  0  0  0  0  0  0  0  0  0  0
    3.1583    1.5997    0.0000 C   0  0  0  0  0  0  0  0  0  0  0  0
    0.3692    0.9024    0.0000 C   0  0  0  0  0  0  0  0  0  0  0  0
    4.6965    0.3692    0.0000 C   0  0  0  0  0  0  0  0  0  0  0  0
    4.3068   -0.3077    0.0000 C   0  0  0  0  0  0  0  0  0  0  0  0
    0.0410    1.6202    0.0000 C   0  0  0  0  0  0  0  0  0  0  0  0
    1.3536    2.1944    0.0000 C   0  0  0  0  0  0  0  0  0  0  0  0
   -0.1026    0.2051    0.0000 C   0  0  0  0  0  0  0  0  0  0  0  0
   -0.9434    0.3077    0.0000 C   0  0  0  0  0  0  0  0  0  0  0  0
    0.5332    2.2970    0.0000 C   0  0  0  0  0  0  0  0  0  0  0  0
   -1.4151   -0.3897    0.0000 C   0  0  0  0  0  0  0  0  0  0  0  0
   -0.7793    1.7022    0.0000 C   0  0  0  0  0  0  0  0  0  0  0  0
   -2.7276   -0.9639    0.0000 C   0  0  0  0  0  0  0  0  0  0  0  0
   -2.2354   -0.3077    0.0000 C   0  0  0  0  0  0  0  0  0  0  0  0
   -2.3790   -1.7022    0.0000 C   0  0  0  0  0  0  0  0  0  0  0  0
   -1.0870   -1.1690    0.0000 C   0  0  0  0  0  0  0  0  0  0  0  0
   -1.5587   -1.8048    0.0000 C   0  0  0  0  0  0  0  0  0  0  0  0
   -3.8556   -0.1436    0.0000 C   0  0  0  0  0  0  0  0  0  0  0  0
   -4.0197   -1.5381    0.0000 C   0  0  0  0  0  0  0  0  0  0  0  0
   -3.6916   -2.2970    0.0000 C   0  0  0  0  0  0  0  0  0  0  0  0
   -3.3839    0.5332    0.0000 C   0  0  0  0  0  0  0  0  0  0  0  0
   -3.8146    1.2921    0.0000 C   0  0  0  0  0  0  0  0  0  0  0  0
  1 14  2  0  0  0  0
  2 27  1  0  0  0  0
  2 32  1  0  0  0  0
  3 30  2  0  0  0  0
  4 10  1  0  0  0  0
  4 12  1  0  0  0  0
  5  8  1  0  0  0  0
  5 14  1  0  0  0  0
  6 21  2  0  0  0  0
  6 24  1  0  0  0  0
  7 25  1  0  0  0  0
  7 30  1  0  0  0  0
  7 31  1  0  0  0  0
  8 13  1  0  0  0  0
  8 16  1  0  0  0  0
  8 17  1  0  0  0  0
  9 10  2  0  0  0  0
  9 11  1  0  0  0  0
  9 14  1  0  0  0  0
 10 13  1  0  0  0  0
 11 12  2  0  0  0  0
 11 19  1  0  0  0  0
 12 15  1  0  0  0  0
 15 18  1  0  0  0  0
 15 20  2  0  0  0  0
 16 17  1  0  0  0  0
 18 22  1  0  0  0  0
 18 24  2  0  0  0  0
 19 22  1  0  0  0  0
 20 21  1  0  0  0  0
 21 23  1  0  0  0  0
 23 26  2  0  0  0  0
 23 28  1  0  0  0  0
 25 26  1  0  0  0  0
 25 27  2  0  0  0  0
 27 29  1  0  0  0  0
 28 29  2  0  0  0  0
 30 33  1  0  0  0  0
 31 32  1  0  0  0  0
 33 34  2  0  0  0  0
M  END
> <PUBCHEM_COMPOUND_ID_TYPE>
0

> <PUBCHEM_TOTAL_CHARGE>
0

> <PUBCHEM_SUBSTANCE_ID>
310944980

> <PUBCHEM_SUBSTANCE_VERSION>
1

> <PUBCHEM_EXT_DATASOURCE_NAME>
4488

> <PUBCHEM_EXT_DATASOURCE_REGID>
SCHEMBL16123068

> <PUBCHEM_SUBSTANCE_COMMENT>
InChI=1S/C27H24N4O3/c1-2-23(32)31-9-10-34-22-6-4-15(11-21(22)31)19-12-18-16(14-28-19)3-5-17-24-20(29-25(17)18)13-27(7-8-27)30-26(24)33/h2,4,6,11-12,14,29H,1,3,5,7-10,13H2,(H,30,33)
InChIKey=QYFDQMDNVNVYIZ-UHFFFAOYSA-N

> <PUBCHEM_SUBSTANCE_SYNONYM>
SCHEMBL16123068

> <PUBCHEM_XREF_EXT_ID>
SCHEMBL16123068

> <PUBCHEM_EXT_DATASOURCE_URL>
https://www.surechembl.org/

> <PUBCHEM_EXT_SUBSTANCE_URL>
https://www.surechembl.org/chemical/SCHEMBL16123068

> <PUBCHEM_CID_ASSOCIATIONS>
117611126  1

> <PUBCHEM_COORDINATE_TYPE>
1
3

$$$$
