310941077
  -OEChem-07211613022D

 41 45  0     1  0  0  0  0  0999 V2000
    5.1431    0.9724    0.0000 O   0  0  0  0  0  0  0  0  0  0  0  0
   -5.4312   -1.4622    0.0000 O   0  0  0  0  0  0  0  0  0  0  0  0
    4.0050   -0.9868    0.0000 O   0  0  0  0  0  0  0  0  0  0  0  0
   -2.6796    0.9724    0.0000 O   0  0  0  0  0  0  0  0  0  0  0  0
    1.6279    0.9724    0.0000 O   0  0  0  0  0  0  0  0  0  0  0  0
   -0.5186   -1.1165    0.0000 O   0  0  0  0  0  0  0  0  0  0  0  0
    3.7889   -2.7732    0.0000 O   0  0  0  0  0  0  0  0  0  0  0  0
    2.3483   -0.2954    0.0000 N   0  0  0  0  0  0  0  0  0  0  0  0
   -1.9593   -0.2954    0.0000 N   0  0  0  0  0  0  0  0  0  0  0  0
    0.2017    0.1225    0.0000 N   0  0  0  0  0  0  0  0  0  0  0  0
   -4.4084   -0.8428    0.0000 C   0  0  0  0  0  0  0  0  0  0  0  0
    4.7109    0.2954    0.0000 C   0  0  3  0  0  0  0  0  0  0  0  0
   -3.3999   -0.2521    0.0000 C   0  0  0  0  0  0  0  0  0  0  0  0
   -4.1922   -0.0648    0.0000 C   0  0  0  0  0  0  0  0  0  0  0  0
   -3.6160   -1.0588    0.0000 C   0  0  0  0  0  0  0  0  0  0  0  0
    3.9906   -0.1225    0.0000 C   0  0  0  0  0  0  0  0  0  0  0  0
   -4.6389   -1.6351    0.0000 C   0  0  0  0  0  0  0  0  0  0  0  0
   -5.2152   -0.6411    0.0000 C   0  0  0  0  0  0  0  0  0  0  0  0
    4.3364    0.9868    0.0000 C   0  0  0  0  0  0  0  0  0  0  0  0
   -2.6940    0.1369    0.0000 C   0  0  0  0  0  0  0  0  0  0  0  0
    3.2846    0.2809    0.0000 C   0  0  3  0  0  0  0  0  0  0  0  0
    5.4312   -0.1225    0.0000 C   0  0  0  0  0  0  0  0  0  0  0  0
    3.2846    1.3614    0.0000 C   0  0  0  0  0  0  0  0  0  0  0  0
    1.6279    0.1369    0.0000 C   0  0  0  0  0  0  0  0  0  0  0  0
    0.9220   -0.2521    0.0000 C   0  0  3  0  0  0  0  0  0  0  0  0
   -1.2533    0.1512    0.0000 C   0  0  3  0  0  0  0  0  0  0  0  0
    2.5500    1.7936    0.0000 C   0  0  0  0  0  0  0  0  0  0  0  0
   -0.5186   -0.2377    0.0000 C   0  0  0  0  0  0  0  0  0  0  0  0
    0.9076   -1.1021    0.0000 C   0  0  0  0  0  0  0  0  0  0  0  0
    1.6567   -1.5055    0.0000 C   0  0  0  0  0  0  0  0  0  0  0  0
    2.4779    2.6004    0.0000 C   0  0  0  0  0  0  0  0  0  0  0  0
    1.8296    1.4479    0.0000 C   0  0  0  0  0  0  0  0  0  0  0  0
   -1.2390    0.9724    0.0000 C   0  0  0  0  0  0  0  0  0  0  0  0
    1.6712    2.7732    0.0000 C   0  0  0  0  0  0  0  0  0  0  0  0
    1.2678    2.0673    0.0000 C   0  0  0  0  0  0  0  0  0  0  0  0
    1.6567   -2.3410    0.0000 C   0  0  0  0  0  0  0  0  0  0  0  0
    2.3338   -1.1021    0.0000 C   0  0  0  0  0  0  0  0  0  0  0  0
    3.0686   -2.3266    0.0000 C   0  0  0  0  0  0  0  0  0  0  0  0
    2.3626   -2.7444    0.0000 C   0  0  0  0  0  0  0  0  0  0  0  0
    3.0686   -1.5055    0.0000 C   0  0  0  0  0  0  0  0  0  0  0  0
    4.5236   -2.3410    0.0000 C   0  0  0  0  0  0  0  0  0  0  0  0
  1 12  1  0  0  0  0
  1 19  1  0  0  0  0
  2 17  1  0  0  0  0
  2 18  1  0  0  0  0
  3 16  2  0  0  0  0
  4 20  2  0  0  0  0
  5 24  2  0  0  0  0
  6 28  2  0  0  0  0
  7 38  1  0  0  0  0
  7 41  1  0  0  0  0
 21  8  1  1  0  0  0
  8 24  1  0  0  0  0
  9 20  1  0  0  0  0
  9 26  1  0  0  0  0
 25 10  1  6  0  0  0
 10 28  1  0  0  0  0
 11 14  1  0  0  0  0
 11 15  1  0  0  0  0
 11 17  1  0  0  0  0
 11 18  1  0  0  0  0
 12 16  1  1  0  0  0
 12 19  1  0  0  0  0
 12 22  1  6  0  0  0
 13 14  1  0  0  0  0
 13 15  1  0  0  0  0
 13 20  1  0  0  0  0
 16 21  1  0  0  0  0
 21 23  1  0  0  0  0
 23 27  1  0  0  0  0
 24 25  1  0  0  0  0
 25 29  1  0  0  0  0
 26 28  1  0  0  0  0
 26 33  1  6  0  0  0
 27 31  2  0  0  0  0
 27 32  1  0  0  0  0
 29 30  1  0  0  0  0
 30 36  2  0  0  0  0
 30 37  1  0  0  0  0
 31 34  1  0  0  0  0
 32 35  1  0  0  0  0
 34 35  1  0  0  0  0
 36 39  1  0  0  0  0
 37 40  2  0  0  0  0
 38 39  2  0  0  0  0
 38 40  1  0  0  0  0
M  END
> <PUBCHEM_COMPOUND_ID_TYPE>
0

> <PUBCHEM_TOTAL_CHARGE>
0

> <PUBCHEM_SUBSTANCE_ID>
310941077

> <PUBCHEM_SUBSTANCE_VERSION>
1

> <PUBCHEM_EXT_DATASOURCE_NAME>
4488

> <PUBCHEM_EXT_DATASOURCE_REGID>
SCHEMBL16119037

> <PUBCHEM_SUBSTANCE_COMMENT>
InChI=1S/C31H41N3O7/c1-19(32-28(37)22-14-31(15-22)17-40-18-31)27(36)34-25(13-21-8-10-23(39-3)11-9-21)29(38)33-24(12-20-6-4-5-7-20)26(35)30(2)16-41-30/h6,8-11,19,22,24-25H,4-5,7,12-18H2,1-3H3,(H,32,37)(H,33,38)(H,34,36)/t19-,24+,25+,30-/m1/s1
InChIKey=MNFCMXFKOGMPHY-LTNBHBMDSA-N

> <PUBCHEM_SUBSTANCE_SYNONYM>
SCHEMBL16119037

> <PUBCHEM_XREF_EXT_ID>
SCHEMBL16119037

> <PUBCHEM_EXT_DATASOURCE_URL>
https://www.surechembl.org/

> <PUBCHEM_EXT_SUBSTANCE_URL>
https://www.surechembl.org/chemical/SCHEMBL16119037

> <PUBCHEM_CID_ASSOCIATIONS>
117607968  1

> <PUBCHEM_COORDINATE_TYPE>
1
3

> <PUBCHEM_BONDANNOTATIONS>
25  10  6
12  16  5
12  22  6
26  33  6
21  8  5

$$$$
