310929780
  -OEChem-07211613022D

 61 68  0     1  0  0  0  0  0999 V2000
    6.8143   -1.5809    0.0000 S   0  0  0  0  0  0  0  0  0  0  0  0
    8.2862   -2.3986    0.0000 O   0  0  0  0  0  0  0  0  0  0  0  0
    7.3594   -5.2333    0.0000 O   0  0  0  0  0  0  0  0  0  0  0  0
    5.8330   -7.3594    0.0000 O   0  0  0  0  0  0  0  0  0  0  0  0
    7.6865   -1.5809    0.0000 O   0  0  0  0  0  0  0  0  0  0  0  0
    5.9966   -1.5809    0.0000 O   0  0  0  0  0  0  0  0  0  0  0  0
    5.1244   -3.1073    0.0000 O   0  0  0  0  0  0  0  0  0  0  0  0
    3.8160   -9.6490    0.0000 O   0  0  0  0  0  0  0  0  0  0  0  0
    1.7990   -4.4702    0.0000 O   0  0  0  0  0  0  0  0  0  0  0  0
    2.0715   -3.2163    0.0000 O   0  0  0  0  0  0  0  0  0  0  0  0
    3.1073   -8.3951    0.0000 O   0  0  0  0  0  0  0  0  0  0  0  0
    6.8143   -3.9250    0.0000 N   0  0  0  0  0  0  0  0  0  0  0  0
    6.8143   -2.3986    0.0000 N   0  0  0  0  0  0  0  0  0  0  0  0
    5.5059   -4.3066    0.0000 N   0  0  0  0  0  0  0  0  0  0  0  0
    5.9420   -8.3951    0.0000 N   0  0  0  0  0  0  0  0  0  0  0  0
    3.2163   -3.6525    0.0000 N   0  0  0  0  0  0  0  0  0  0  0  0
    7.5774   -3.6525    0.0000 C   0  0  3  0  0  0  0  0  0  0  0  0
    8.3407   -3.3798    0.0000 C   0  0  3  0  0  0  0  0  0  0  0  0
    8.1771   -4.1976    0.0000 C   0  0  0  0  0  0  0  0  0  0  0  0
    7.5774   -2.7802    0.0000 C   0  0  0  0  0  0  0  0  0  0  0  0
    6.7052   -4.7427    0.0000 C   0  0  0  0  0  0  0  0  0  0  0  0
    8.9403   -2.8347    0.0000 C   0  0  0  0  0  0  0  0  0  0  0  0
    5.9420   -5.0698    0.0000 C   0  0  3  0  0  0  0  0  0  0  0  0
    6.8143   -0.7632    0.0000 C   0  0  0  0  0  0  0  0  0  0  0  0
    6.1601   -5.8330    0.0000 C   0  0  0  0  0  0  0  0  0  0  0  0
    6.1601   -6.6507    0.0000 C   0  0  3  0  0  0  0  0  0  0  0  0
    6.4872   -5.2879    0.0000 C   0  0  0  0  0  0  0  0  0  0  0  0
    4.7973   -3.8705    0.0000 C   0  0  0  0  0  0  0  0  0  0  0  0
    6.4327    0.0000    0.0000 C   0  0  0  0  0  0  0  0  0  0  0  0
    7.2504    0.0000    0.0000 C   0  0  0  0  0  0  0  0  0  0  0  0
    5.2879   -8.0136    0.0000 C   0  0  0  0  0  0  0  0  0  0  0  0
    3.9795   -3.6525    0.0000 C   0  0  3  0  0  0  0  0  0  0  0  0
    8.6677   -2.0170    0.0000 C   0  0  0  0  0  0  0  0  0  0  0  0
    4.5247   -8.4497    0.0000 C   0  0  0  0  0  0  0  0  0  0  0  0
    4.5247   -9.2674    0.0000 C   0  0  0  0  0  0  0  0  0  0  0  0
    5.1788   -9.6490    0.0000 C   0  0  0  0  0  0  0  0  0  0  0  0
    5.9420   -9.2129    0.0000 C   0  0  0  0  0  0  0  0  0  0  0  0
    4.0886   -2.8347    0.0000 C   0  0  0  0  0  0  0  0  0  0  0  0
    3.7069   -8.6132    0.0000 C   0  0  0  0  0  0  0  0  0  0  0  0
    5.2333  -10.5212    0.0000 C   0  0  0  0  0  0  0  0  0  0  0  0
    6.7052   -9.7035    0.0000 C   0  0  0  0  0  0  0  0  0  0  0  0
    3.4889   -2.2351    0.0000 C   0  0  0  0  0  0  0  0  0  0  0  0
    4.7973   -2.4532    0.0000 C   0  0  0  0  0  0  0  0  0  0  0  0
    2.5076   -3.9250    0.0000 C   0  0  0  0  0  0  0  0  0  0  0  0
    3.1073   -9.2674    0.0000 C   0  0  0  0  0  0  0  0  0  0  0  0
    5.9420  -10.9028    0.0000 C   0  0  0  0  0  0  0  0  0  0  0  0
    6.7052  -10.4667    0.0000 C   0  0  0  0  0  0  0  0  0  0  0  0
    2.9438   -8.4497    0.0000 C   0  0  0  0  0  0  0  0  0  0  0  0
    3.8705   -1.5264    0.0000 C   0  0  0  0  0  0  0  0  0  0  0  0
    4.6882   -1.6354    0.0000 C   0  0  0  0  0  0  0  0  0  0  0  0
    2.3986   -9.6490    0.0000 C   0  0  0  0  0  0  0  0  0  0  0  0
    1.3628   -5.1244    0.0000 C   0  0  3  0  0  0  0  0  0  0  0  0
    1.1448   -5.9420    0.0000 C   0  0  3  0  0  0  0  0  0  0  0  0
    2.3986   -7.8500    0.0000 C   0  0  0  0  0  0  0  0  0  0  0  0
    0.7087   -4.7427    0.0000 C   0  0  0  0  0  0  0  0  0  0  0  0
    1.3084   -6.7597    0.0000 C   0  0  0  0  0  0  0  0  0  0  0  0
    1.6354   -7.5229    0.0000 C   0  0  0  0  0  0  0  0  0  0  0  0
    0.3271   -6.0510    0.0000 C   0  0  0  0  0  0  0  0  0  0  0  0
    0.0000   -5.2333    0.0000 C   0  0  0  0  0  0  0  0  0  0  0  0
    1.6899   -9.2674    0.0000 C   0  0  0  0  0  0  0  0  0  0  0  0
    2.3986  -10.4667    0.0000 C   0  0  0  0  0  0  0  0  0  0  0  0
  1  5  2  0  0  0  0
  1  6  2  0  0  0  0
  1 13  1  0  0  0  0
  1 24  1  0  0  0  0
  2 20  2  0  0  0  0
  3 21  2  0  0  0  0
  4 26  1  0  0  0  0
  4 31  1  0  0  0  0
  7 28  2  0  0  0  0
  8 35  1  0  0  0  0
  8 45  1  0  0  0  0
  9 44  1  0  0  0  0
  9 52  1  0  0  0  0
 10 44  2  0  0  0  0
 11 45  2  0  0  0  0
 17 12  1  1  0  0  0
 12 21  1  0  0  0  0
 13 20  1  0  0  0  0
 14 23  1  0  0  0  0
 14 27  1  0  0  0  0
 14 28  1  0  0  0  0
 15 31  1  0  0  0  0
 15 37  2  0  0  0  0
 16 32  1  0  0  0  0
 16 44  1  0  0  0  0
 17 18  1  0  0  0  0
 17 19  1  0  0  0  0
 17 20  1  6  0  0  0
 18 19  1  0  0  0  0
 18 22  1  6  0  0  0
 23 21  1  6  0  0  0
 22 33  2  0  0  0  0
 23 25  1  0  0  0  0
 24 29  1  0  0  0  0
 24 30  1  0  0  0  0
 26 25  1  1  0  0  0
 26 27  1  0  0  0  0
 32 28  1  1  0  0  0
 29 30  1  0  0  0  0
 31 34  2  0  0  0  0
 32 38  1  0  0  0  0
 34 35  1  0  0  0  0
 34 39  1  0  0  0  0
 35 36  2  0  0  0  0
 36 37  1  0  0  0  0
 36 40  1  0  0  0  0
 37 41  1  0  0  0  0
 38 42  1  0  0  0  0
 38 43  1  0  0  0  0
 39 48  1  0  0  0  0
 40 46  2  0  0  0  0
 41 47  2  0  0  0  0
 42 49  1  0  0  0  0
 43 50  1  0  0  0  0
 45 51  1  0  0  0  0
 46 47  1  0  0  0  0
 48 54  2  0  0  0  0
 49 50  1  0  0  0  0
 51 60  1  0  0  0  0
 51 61  1  0  0  0  0
 52 53  1  0  0  0  0
 52 55  1  1  0  0  0
 53 56  1  0  0  0  0
 53 58  1  6  0  0  0
 54 57  1  0  0  0  0
 55 59  1  0  0  0  0
 56 57  1  0  0  0  0
 58 59  1  0  0  0  0
M  END
> <PUBCHEM_COMPOUND_ID_TYPE>
0

> <PUBCHEM_TOTAL_CHARGE>
0

> <PUBCHEM_SUBSTANCE_ID>
310929780

> <PUBCHEM_SUBSTANCE_VERSION>
1

> <PUBCHEM_EXT_DATASOURCE_NAME>
4488

> <PUBCHEM_EXT_DATASOURCE_REGID>
SCHEMBL16106981

> <PUBCHEM_SUBSTANCE_COMMENT>
InChI=1S/C45H57N5O10S/c1-4-29-24-45(29,43(54)49-61(56,57)31-21-22-31)48-39(51)35-23-30-25-50(35)41(52)37(28-14-8-9-15-28)47-44(55)59-36-20-12-16-27(36)13-6-5-7-18-33-38(60-42(53)26(2)3)32-17-10-11-19-34(32)46-40(33)58-30/h4-5,7,10-11,17,19,26-31,35-37H,1,6,8-9,12-16,18,20-25H2,2-3H3,(H,47,55)(H,48,51)(H,49,54)/b7-5+/t27-,29-,30-,35+,36-,37+,45-/m1/s1
InChIKey=DZLWPWIOSYZQBL-SRKYRMSXSA-N

> <PUBCHEM_SUBSTANCE_SYNONYM>
SCHEMBL16106981

> <PUBCHEM_XREF_EXT_ID>
SCHEMBL16106981

> <PUBCHEM_EXT_DATASOURCE_URL>
https://www.surechembl.org/

> <PUBCHEM_EXT_SUBSTANCE_URL>
https://www.surechembl.org/chemical/SCHEMBL16106981

> <PUBCHEM_CID_ASSOCIATIONS>
117599064  1

> <PUBCHEM_COORDINATE_TYPE>
1
3

> <PUBCHEM_BONDANNOTATIONS>
17  12  5
17  20  6
18  22  6
23  21  6
26  25  5
32  28  5
52  55  5
53  58  6

$$$$
