310939398
  -OEChem-07211613022D

 27 28  0     1  0  0  0  0  0999 V2000
    0.4125    0.8250    0.0000 Cl  0  0  0  0  0  0  0  0  0  0  0  0
   -1.0164   -1.6500    0.0000 F   0  0  0  0  0  0  0  0  0  0  0  0
    0.4125   -0.8250    0.0000 O   0  0  0  0  0  0  0  0  0  0  0  0
   -1.7309    2.0625    0.0000 O   0  0  0  0  0  0  0  0  0  0  0  0
   -3.1599   -0.4125    0.0000 N   0  0  0  0  0  0  0  0  0  0  0  0
    2.5559   -0.4125    0.0000 N   0  0  0  0  0  0  0  0  0  0  0  0
   -1.7309   -0.4125    0.0000 C   0  0  0  0  0  0  0  0  0  0  0  0
   -1.0164   -0.8250    0.0000 C   0  0  0  0  0  0  0  0  0  0  0  0
   -0.3020   -0.4125    0.0000 C   0  0  0  0  0  0  0  0  0  0  0  0
   -2.4454   -0.8250    0.0000 C   0  0  3  0  0  0  0  0  0  0  0  0
   -0.3020    0.4125    0.0000 C   0  0  0  0  0  0  0  0  0  0  0  0
   -1.7309    0.4125    0.0000 C   0  0  0  0  0  0  0  0  0  0  0  0
   -1.0164    0.8250    0.0000 C   0  0  0  0  0  0  0  0  0  0  0  0
   -3.1599    0.4125    0.0000 C   0  0  0  0  0  0  0  0  0  0  0  0
    1.1270   -0.4125    0.0000 C   0  0  0  0  0  0  0  0  0  0  0  0
   -2.4454   -1.6500    0.0000 C   0  0  0  0  0  0  0  0  0  0  0  0
   -2.4454    0.8250    0.0000 C   0  0  0  0  0  0  0  0  0  0  0  0
    1.8414   -0.8250    0.0000 C   0  0  0  0  0  0  0  0  0  0  0  0
    1.1270    0.4125    0.0000 C   0  0  0  0  0  0  0  0  0  0  0  0
   -3.9849    0.4125    0.0000 C   0  0  0  0  0  0  0  0  0  0  0  0
   -3.5724    1.1270    0.0000 C   0  0  0  0  0  0  0  0  0  0  0  0
    2.5559    0.4125    0.0000 C   0  0  0  0  0  0  0  0  0  0  0  0
    1.8414    0.8250    0.0000 C   0  0  0  0  0  0  0  0  0  0  0  0
   -2.4454    1.6500    0.0000 C   0  0  0  0  0  0  0  0  0  0  0  0
   -3.1599   -2.0625    0.0000 C   0  0  0  0  0  0  0  0  0  0  0  0
    3.2704    0.8250    0.0000 H   0  0  0  0  0  0  0  0  0  0  0  0
   -3.1599    2.0625    0.0000 H   0  0  0  0  0  0  0  0  0  0  0  0
  1 11  1  0  0  0  0
  2  8  1  0  0  0  0
  3  9  1  0  0  0  0
  3 15  1  0  0  0  0
  4 24  2  0  0  0  0
 10  5  1  1  0  0  0
  5 14  1  0  0  0  0
  6 18  1  0  0  0  0
  6 22  2  0  0  0  0
  7  8  1  0  0  0  0
  7 10  1  0  0  0  0
  7 12  2  0  0  0  0
  8  9  2  0  0  0  0
  9 11  1  0  0  0  0
 10 16  1  0  0  0  0
 11 13  2  0  0  0  0
 12 13  1  0  0  0  0
 14 17  1  0  0  0  0
 14 20  1  0  0  0  0
 14 21  1  0  0  0  0
 15 18  2  0  0  0  0
 15 19  1  0  0  0  0
 16 25  1  0  0  0  0
 17 24  1  0  0  0  0
 19 23  2  0  0  0  0
 22 23  1  0  0  0  0
 22 26  1  0  0  0  0
 24 27  1  0  0  0  0
M  END
> <PUBCHEM_COMPOUND_ID_TYPE>
0

> <PUBCHEM_TOTAL_CHARGE>
0

> <PUBCHEM_SUBSTANCE_ID>
310939398

> <PUBCHEM_SUBSTANCE_VERSION>
1

> <PUBCHEM_EXT_DATASOURCE_NAME>
4488

> <PUBCHEM_EXT_DATASOURCE_REGID>
SCHEMBL16117319

> <PUBCHEM_SUBSTANCE_COMMENT>
InChI=1S/C19H22ClFN2O2/c1-4-16(23-19(2,3)9-11-24)14-7-8-15(20)18(17(14)21)25-13-6-5-10-22-12-13/h5-8,10-12,16,23H,4,9H2,1-3H3/t16-/m1/s1
InChIKey=CZHOSOIGHXDVAD-MRXNPFEDSA-N

> <PUBCHEM_SUBSTANCE_SYNONYM>
SCHEMBL16117319

> <PUBCHEM_XREF_EXT_ID>
SCHEMBL16117319

> <PUBCHEM_EXT_DATASOURCE_URL>
https://www.surechembl.org/

> <PUBCHEM_EXT_SUBSTANCE_URL>
https://www.surechembl.org/chemical/SCHEMBL16117319

> <PUBCHEM_CID_ASSOCIATIONS>
117606725  1

> <PUBCHEM_COORDINATE_TYPE>
1
3

> <PUBCHEM_BONDANNOTATIONS>
10  5  5

$$$$
