310942651
  -OEChem-07211613022D

 69 71  0     1  0  0  0  0  0999 V2000
    3.6050    1.2099    0.0000 F   0  0  0  0  0  0  0  0  0  0  0  0
    6.0411   -4.0247    0.0000 F   0  0  0  0  0  0  0  0  0  0  0  0
    4.8724    0.3374    0.0000 O   0  0  0  0  0  0  0  0  0  0  0  0
    3.5556   -0.3210    0.0000 O   0  0  0  0  0  0  0  0  0  0  0  0
    2.7490   -1.4732    0.0000 O   0  0  0  0  0  0  0  0  0  0  0  0
   -2.8313   -1.3416    0.0000 O   0  0  0  0  0  0  0  0  0  0  0  0
   -0.6420    0.6338    0.0000 O   0  0  0  0  0  0  0  0  0  0  0  0
   -4.9053    0.7655    0.0000 O   0  0  0  0  0  0  0  0  0  0  0  0
   -2.2058   -4.2387    0.0000 O   0  0  0  0  0  0  0  0  0  0  0  0
    6.4691    1.3910    0.0000 N   0  0  0  0  0  0  0  0  0  0  0  0
    5.2017    0.9300    0.0000 N   0  0  0  0  0  0  0  0  0  0  0  0
    5.7449   -0.7161    0.0000 N   0  0  0  0  0  0  0  0  0  0  0  0
    2.1564   -0.2058    0.0000 N   0  0  0  0  0  0  0  0  0  0  0  0
    7.4239   -3.0864    0.0000 N   0  0  0  0  0  0  0  0  0  0  0  0
   -2.0905   -0.1235    0.0000 N   0  0  0  0  0  0  0  0  0  0  0  0
    0.0329   -0.6008    0.0000 N   0  0  0  0  0  0  0  0  0  0  0  0
   -4.2304   -0.4691    0.0000 N   0  0  0  0  0  0  0  0  0  0  0  0
   -2.8807   -2.9712    0.0000 N   0  0  0  0  0  0  0  0  0  0  0  0
   -3.6214   -4.1893    0.0000 N   0  0  0  0  0  0  0  0  0  0  0  0
   -9.1688   -0.0412    0.0000 N   0  0  0  0  0  0  0  0  0  0  0  0
    5.9917    0.6996    0.0000 C   0  0  0  0  0  0  0  0  0  0  0  0
    6.2881   -0.0576    0.0000 C   0  0  3  0  0  0  0  0  0  0  0  0
    5.2017    1.7696    0.0000 C   0  0  0  0  0  0  0  0  0  0  0  0
    7.0288   -0.4527    0.0000 C   0  0  0  0  0  0  0  0  0  0  0  0
    5.9424    2.0329    0.0000 C   0  0  0  0  0  0  0  0  0  0  0  0
    4.5103    2.3128    0.0000 C   0  0  0  0  0  0  0  0  0  0  0  0
    7.2922    1.2428    0.0000 C   0  0  0  0  0  0  0  0  0  0  0  0
    4.9877   -0.3703    0.0000 C   0  0  0  0  0  0  0  0  0  0  0  0
    3.7531    2.0494    0.0000 C   0  0  0  0  0  0  0  0  0  0  0  0
    5.8107   -1.5391    0.0000 C   0  0  0  0  0  0  0  0  0  0  0  0
    4.6914    3.1193    0.0000 C   0  0  0  0  0  0  0  0  0  0  0  0
    7.8354    1.8848    0.0000 C   0  0  0  0  0  0  0  0  0  0  0  0
    6.5350   -1.0946    0.0000 C   0  0  0  0  0  0  0  0  0  0  0  0
    7.1276   -1.2757    0.0000 C   0  0  0  0  0  0  0  0  0  0  0  0
    7.7366    0.0247    0.0000 C   0  0  0  0  0  0  0  0  0  0  0  0
    4.0659    3.6790    0.0000 C   0  0  0  0  0  0  0  0  0  0  0  0
    3.1440    2.5596    0.0000 C   0  0  0  0  0  0  0  0  0  0  0  0
    4.3292   -0.8313    0.0000 C   0  0  0  0  0  0  0  0  0  0  0  0
    3.2757    3.3827    0.0000 C   0  0  0  0  0  0  0  0  0  0  0  0
    6.5843   -1.9013    0.0000 C   0  0  0  0  0  0  0  0  0  0  0  0
    8.6749    1.7531    0.0000 C   0  0  0  0  0  0  0  0  0  0  0  0
    7.5556    2.6749    0.0000 C   0  0  0  0  0  0  0  0  0  0  0  0
    6.6667   -2.7243    0.0000 C   0  0  3  0  0  0  0  0  0  0  0  0
    4.1975    4.2387    0.0000 C   0  0  0  0  0  0  0  0  0  0  0  0
    9.1688    2.3622    0.0000 C   0  0  0  0  0  0  0  0  0  0  0  0
    8.0659    3.3004    0.0000 C   0  0  0  0  0  0  0  0  0  0  0  0
    2.8148   -0.6338    0.0000 C   0  0  0  0  0  0  0  0  0  0  0  0
    8.9053    3.1522    0.0000 C   0  0  0  0  0  0  0  0  0  0  0  0
    5.9588   -3.2016    0.0000 C   0  0  0  0  0  0  0  0  0  0  0  0
    1.4650   -0.6008    0.0000 C   0  0  0  0  0  0  0  0  0  0  0  0
    2.1728    0.6173    0.0000 C   0  0  0  0  0  0  0  0  0  0  0  0
    0.7243   -0.2058    0.0000 C   0  0  0  0  0  0  0  0  0  0  0  0
   -1.3827   -0.5679    0.0000 C   0  0  3  0  0  0  0  0  0  0  0  0
   -3.5062   -0.0741    0.0000 C   0  0  3  0  0  0  0  0  0  0  0  0
   -2.7984   -0.4856    0.0000 C   0  0  0  0  0  0  0  0  0  0  0  0
   -0.6749   -0.1893    0.0000 C   0  0  0  0  0  0  0  0  0  0  0  0
   -3.4733    0.7655    0.0000 C   0  0  0  0  0  0  0  0  0  0  0  0
   -1.3992   -1.3745    0.0000 C   0  0  0  0  0  0  0  0  0  0  0  0
   -4.9383   -0.0576    0.0000 C   0  0  0  0  0  0  0  0  0  0  0  0
   -2.1234   -1.7696    0.0000 C   0  0  0  0  0  0  0  0  0  0  0  0
   -4.1811    1.1605    0.0000 C   0  0  0  0  0  0  0  0  0  0  0  0
   -2.7325    1.1111    0.0000 C   0  0  0  0  0  0  0  0  0  0  0  0
   -5.6132   -0.4362    0.0000 C   0  0  0  0  0  0  0  0  0  0  0  0
   -2.1728   -2.5926    0.0000 C   0  0  0  0  0  0  0  0  0  0  0  0
   -6.3375   -0.0412    0.0000 C   0  0  0  0  0  0  0  0  0  0  0  0
   -7.0288   -0.4362    0.0000 C   0  0  0  0  0  0  0  0  0  0  0  0
   -2.9301   -3.7778    0.0000 C   0  0  0  0  0  0  0  0  0  0  0  0
   -7.7531   -0.0412    0.0000 C   0  0  0  0  0  0  0  0  0  0  0  0
   -8.4445   -0.4362    0.0000 C   0  0  0  0  0  0  0  0  0  0  0  0
  1 29  1  0  0  0  0
  2 49  1  0  0  0  0
  3 28  2  0  0  0  0
  4 38  1  0  0  0  0
  4 47  1  0  0  0  0
  5 47  2  0  0  0  0
  6 55  2  0  0  0  0
  7 56  2  0  0  0  0
  8 59  2  0  0  0  0
  9 67  2  0  0  0  0
 10 21  1  0  0  0  0
 10 25  1  0  0  0  0
 10 27  1  0  0  0  0
 11 21  2  0  0  0  0
 11 23  1  0  0  0  0
 22 12  1  1  0  0  0
 12 28  1  0  0  0  0
 12 30  1  0  0  0  0
 13 47  1  0  0  0  0
 13 50  1  0  0  0  0
 13 51  1  0  0  0  0
 43 14  1  6  0  0  0
 53 15  1  6  0  0  0
 15 55  1  0  0  0  0
 16 52  1  0  0  0  0
 16 56  1  0  0  0  0
 54 17  1  1  0  0  0
 17 59  1  0  0  0  0
 18 64  1  0  0  0  0
 18 67  1  0  0  0  0
 19 67  1  0  0  0  0
 20 69  1  0  0  0  0
 21 22  1  0  0  0  0
 22 24  1  0  0  0  0
 23 25  2  0  0  0  0
 23 26  1  0  0  0  0
 24 33  1  0  0  0  0
 24 34  1  0  0  0  0
 24 35  1  0  0  0  0
 26 29  1  0  0  0  0
 26 31  2  0  0  0  0
 27 32  1  0  0  0  0
 28 38  1  0  0  0  0
 29 37  2  0  0  0  0
 30 40  1  0  0  0  0
 31 36  1  0  0  0  0
 32 41  2  0  0  0  0
 32 42  1  0  0  0  0
 36 39  2  0  0  0  0
 36 44  1  0  0  0  0
 37 39  1  0  0  0  0
 40 43  1  0  0  0  0
 41 45  1  0  0  0  0
 42 46  2  0  0  0  0
 43 49  1  0  0  0  0
 45 48  2  0  0  0  0
 46 48  1  0  0  0  0
 50 52  1  0  0  0  0
 53 56  1  0  0  0  0
 53 58  1  0  0  0  0
 54 55  1  0  0  0  0
 54 57  1  0  0  0  0
 57 61  1  0  0  0  0
 57 62  1  0  0  0  0
 58 60  1  0  0  0  0
 59 63  1  0  0  0  0
 60 64  1  0  0  0  0
 63 65  1  0  0  0  0
 65 66  1  0  0  0  0
 66 68  1  0  0  0  0
 68 69  1  0  0  0  0
M  END
> <PUBCHEM_COMPOUND_ID_TYPE>
0

> <PUBCHEM_TOTAL_CHARGE>
0

> <PUBCHEM_SUBSTANCE_ID>
310942651

> <PUBCHEM_SUBSTANCE_VERSION>
1

> <PUBCHEM_EXT_DATASOURCE_NAME>
4488

> <PUBCHEM_EXT_DATASOURCE_REGID>
SCHEMBL16120697

> <PUBCHEM_SUBSTANCE_COMMENT>
InChI=1S/C49H75F2N11O7/c1-32(2)42(59-40(63)18-12-9-13-22-52)46(66)58-38(17-14-23-56-47(54)67)45(65)55-24-26-60(7)48(68)69-31-41(64)62(25-21-35(53)28-50)43(49(4,5)6)44-57-39(36-27-33(3)19-20-37(36)51)30-61(44)29-34-15-10-8-11-16-34/h8,10-11,15-16,19-20,27,30,32,35,38,42-43H,9,12-14,17-18,21-26,28-29,31,52-53H2,1-7H3,(H,55,65)(H,58,66)(H,59,63)(H3,54,56,67)/t35-,38-,42-,43-/m0/s1
InChIKey=RYYHQHUWEJXEIY-FHMAHEFYSA-N

> <PUBCHEM_SUBSTANCE_SYNONYM>
SCHEMBL16120697

> <PUBCHEM_XREF_EXT_ID>
SCHEMBL16120697

> <PUBCHEM_EXT_DATASOURCE_URL>
https://www.surechembl.org/

> <PUBCHEM_EXT_SUBSTANCE_URL>
https://www.surechembl.org/chemical/SCHEMBL16120697

> <PUBCHEM_CID_ASSOCIATIONS>
117609181  1

> <PUBCHEM_COORDINATE_TYPE>
1
3

> <PUBCHEM_BONDANNOTATIONS>
22  12  5
43  14  6
53  15  6
54  17  5

$$$$
