310936529
  -OEChem-07211613022D

 32 36  0     0  0  0  0  0  0999 V2000
    1.4870   -2.0322    0.0000 N   0  0  0  0  0  0  0  0  0  0  0  0
    0.7435   -3.2714    0.0000 N   0  0  0  0  0  0  0  0  0  0  0  0
    1.4870   -4.5106    0.0000 N   0  0  0  0  0  0  0  0  0  0  0  0
    1.4870   -6.9888    0.0000 N   0  0  0  0  0  0  0  0  0  0  0  0
    5.7497   -1.2391    0.0000 N   0  0  0  0  0  0  0  0  0  0  0  0
    0.7435   -9.8637    0.0000 N   0  0  0  0  0  0  0  0  0  0  0  0
    2.1809   -3.2714    0.0000 C   0  0  0  0  0  0  0  0  0  0  0  0
    2.1809   -2.4288    0.0000 C   0  0  0  0  0  0  0  0  0  0  0  0
    1.4870   -3.6679    0.0000 C   0  0  0  0  0  0  0  0  0  0  0  0
    3.6184   -2.4288    0.0000 C   0  0  0  0  0  0  0  0  0  0  0  0
    2.8749   -2.0322    0.0000 C   0  0  0  0  0  0  0  0  0  0  0  0
    2.8749   -3.6679    0.0000 C   0  0  0  0  0  0  0  0  0  0  0  0
    4.3123   -2.0322    0.0000 C   0  0  0  0  0  0  0  0  0  0  0  0
    3.6184   -3.2714    0.0000 C   0  0  0  0  0  0  0  0  0  0  0  0
    0.7435   -2.4288    0.0000 C   0  0  0  0  0  0  0  0  0  0  0  0
    0.7435   -7.4350    0.0000 C   0  0  0  0  0  0  0  0  0  0  0  0
    0.7435   -5.7497    0.0000 C   0  0  0  0  0  0  0  0  0  0  0  0
    4.3123   -1.1896    0.0000 C   0  0  0  0  0  0  0  0  0  0  0  0
    0.7435   -8.2280    0.0000 C   0  0  0  0  0  0  0  0  0  0  0  0
    0.7435   -4.9071    0.0000 C   0  0  0  0  0  0  0  0  0  0  0  0
    5.0062   -2.4288    0.0000 C   0  0  0  0  0  0  0  0  0  0  0  0
    5.0558   -0.8426    0.0000 C   0  0  0  0  0  0  0  0  0  0  0  0
    0.0496   -6.9888    0.0000 C   0  0  0  0  0  0  0  0  0  0  0  0
    1.4870   -6.1958    0.0000 C   0  0  0  0  0  0  0  0  0  0  0  0
    0.0496   -6.1958    0.0000 C   0  0  0  0  0  0  0  0  0  0  0  0
    1.4870   -8.6246    0.0000 C   0  0  0  0  0  0  0  0  0  0  0  0
    5.7497   -2.0818    0.0000 C   0  0  0  0  0  0  0  0  0  0  0  0
    0.0496   -8.6246    0.0000 C   0  0  0  0  0  0  0  0  0  0  0  0
    1.4374   -9.4672    0.0000 C   0  0  0  0  0  0  0  0  0  0  0  0
    0.0000   -9.4672    0.0000 C   0  0  0  0  0  0  0  0  0  0  0  0
    5.0558    0.0000    0.0000 C   0  0  0  0  0  0  0  0  0  0  0  0
    2.1314   -9.9133    0.0000 C   0  0  0  0  0  0  0  0  0  0  0  0
  1  8  2  0  0  0  0
  1 15  1  0  0  0  0
  2  9  1  0  0  0  0
  2 15  2  0  0  0  0
  3  9  1  0  0  0  0
  3 20  1  0  0  0  0
  4 16  2  0  0  0  0
  4 24  1  0  0  0  0
  5 22  1  0  0  0  0
  5 27  2  0  0  0  0
  6 29  1  0  0  0  0
  6 30  2  0  0  0  0
  7  8  1  0  0  0  0
  7  9  2  0  0  0  0
  7 12  1  0  0  0  0
  8 11  1  0  0  0  0
 10 11  2  0  0  0  0
 10 13  1  0  0  0  0
 10 14  1  0  0  0  0
 12 14  2  0  0  0  0
 13 18  1  0  0  0  0
 13 21  2  0  0  0  0
 16 19  1  0  0  0  0
 16 23  1  0  0  0  0
 17 20  1  0  0  0  0
 17 24  2  0  0  0  0
 17 25  1  0  0  0  0
 18 22  2  0  0  0  0
 19 26  1  0  0  0  0
 19 28  2  0  0  0  0
 21 27  1  0  0  0  0
 22 31  1  0  0  0  0
 23 25  2  0  0  0  0
 26 29  2  0  0  0  0
 28 30  1  0  0  0  0
 29 32  1  0  0  0  0
M  END
> <PUBCHEM_COMPOUND_ID_TYPE>
0

> <PUBCHEM_TOTAL_CHARGE>
0

> <PUBCHEM_SUBSTANCE_ID>
310936529

> <PUBCHEM_SUBSTANCE_VERSION>
1

> <PUBCHEM_EXT_DATASOURCE_NAME>
4488

> <PUBCHEM_EXT_DATASOURCE_REGID>
SCHEMBL16114180

> <PUBCHEM_SUBSTANCE_COMMENT>
InChI=1S/C26H22N6/c1-17-11-21(7-9-27-17)20-4-5-23-25(13-20)31-16-32-26(23)30-15-19-3-6-24(29-14-19)22-8-10-28-18(2)12-22/h3-14,16H,15H2,1-2H3,(H,30,31,32)
InChIKey=RPHIMHWKZZFYDT-UHFFFAOYSA-N

> <PUBCHEM_SUBSTANCE_SYNONYM>
SCHEMBL16114180

> <PUBCHEM_XREF_EXT_ID>
SCHEMBL16114180

> <PUBCHEM_EXT_DATASOURCE_URL>
https://www.surechembl.org/

> <PUBCHEM_EXT_SUBSTANCE_URL>
https://www.surechembl.org/chemical/SCHEMBL16114180

> <PUBCHEM_CID_ASSOCIATIONS>
57413824  1

> <PUBCHEM_COORDINATE_TYPE>
1
3

$$$$
