310942786
  -OEChem-07211613022D

 81 85  0     1  0  0  0  0  0999 V2000
    9.6293   -1.1741    0.0000 F   0  0  0  0  0  0  0  0  0  0  0  0
   11.2849   -1.0052    0.0000 F   0  0  0  0  0  0  0  0  0  0  0  0
   10.9808    1.8498    0.0000 F   0  0  0  0  0  0  0  0  0  0  0  0
    8.0751    1.6809    0.0000 O   0  0  0  0  0  0  0  0  0  0  0  0
    2.3482    1.6809    0.0000 O   0  0  0  0  0  0  0  0  0  0  0  0
    3.0577    2.9141    0.0000 O   0  0  0  0  0  0  0  0  0  0  0  0
   -1.9596    1.6809    0.0000 O   0  0  0  0  0  0  0  0  0  0  0  0
   -4.1051   -0.3801    0.0000 O   0  0  0  0  0  0  0  0  0  0  0  0
  -11.2849   -0.5997    0.0000 O   0  0  0  0  0  0  0  0  0  0  0  0
   -8.3792   -0.6166    0.0000 O   0  0  0  0  0  0  0  0  0  0  0  0
   -6.2506    1.6809    0.0000 O   0  0  0  0  0  0  0  0  0  0  0  0
   -4.8146   -0.8024    0.0000 O   0  0  0  0  0  0  0  0  0  0  0  0
    7.4500   -0.3801    0.0000 N   0  0  0  0  0  0  0  0  0  0  0  0
    8.1089    0.7687    0.0000 N   0  0  0  0  0  0  0  0  0  0  0  0
    6.6391    1.6809    0.0000 N   0  0  0  0  0  0  0  0  0  0  0  0
    3.7842    1.6809    0.0000 N   0  0  0  0  0  0  0  0  0  0  0  0
   -9.8320   -0.3801    0.0000 N   0  0  0  0  0  0  0  0  0  0  0  0
   -1.2332    0.4308    0.0000 N   0  0  0  0  0  0  0  0  0  0  0  0
   -3.3787    0.8531    0.0000 N   0  0  0  0  0  0  0  0  0  0  0  0
   -5.5242    0.4308    0.0000 N   0  0  0  0  0  0  0  0  0  0  0  0
   -4.1051   -2.0356    0.0000 N   0  0  0  0  0  0  0  0  0  0  0  0
   -5.5242   -2.0356    0.0000 N   0  0  0  0  0  0  0  0  0  0  0  0
    7.3656    0.4308    0.0000 C   0  0  0  0  0  0  0  0  0  0  0  0
    6.6391    0.8700    0.0000 C   0  0  3  0  0  0  0  0  0  0  0  0
    8.6664    0.1774    0.0000 C   0  0  0  0  0  0  0  0  0  0  0  0
    5.9127    0.4477    0.0000 C   0  0  0  0  0  0  0  0  0  0  0  0
    9.4941    0.2450    0.0000 C   0  0  0  0  0  0  0  0  0  0  0  0
    8.2609   -0.5491    0.0000 C   0  0  0  0  0  0  0  0  0  0  0  0
    9.9840   -0.3970    0.0000 C   0  0  0  0  0  0  0  0  0  0  0  0
    7.3318    2.1032    0.0000 C   0  0  0  0  0  0  0  0  0  0  0  0
    6.8419   -0.9376    0.0000 C   0  0  0  0  0  0  0  0  0  0  0  0
    9.8489    1.0052    0.0000 C   0  0  0  0  0  0  0  0  0  0  0  0
    5.9127    2.0864    0.0000 C   0  0  0  0  0  0  0  0  0  0  0  0
   10.7781   -0.3125    0.0000 C   0  0  0  0  0  0  0  0  0  0  0  0
    6.9939   -1.7147    0.0000 C   0  0  0  0  0  0  0  0  0  0  0  0
   10.6429    1.0896    0.0000 C   0  0  0  0  0  0  0  0  0  0  0  0
    5.2032    0.8363    0.0000 C   0  0  0  0  0  0  0  0  0  0  0  0
    5.2032    0.0422    0.0000 C   0  0  0  0  0  0  0  0  0  0  0  0
    5.9465   -0.3970    0.0000 C   0  0  0  0  0  0  0  0  0  0  0  0
    7.3824    2.9311    0.0000 C   0  0  0  0  0  0  0  0  0  0  0  0
   11.1159    0.4308    0.0000 C   0  0  0  0  0  0  0  0  0  0  0  0
    5.2201    1.6809    0.0000 C   0  0  0  0  0  0  0  0  0  0  0  0
    6.4026   -2.2891    0.0000 C   0  0  0  0  0  0  0  0  0  0  0  0
    7.7879   -2.0188    0.0000 C   0  0  0  0  0  0  0  0  0  0  0  0
    4.4768    2.0864    0.0000 C   0  0  3  0  0  0  0  0  0  0  0  0
    7.8555    3.2182    0.0000 C   0  0  0  0  0  0  0  0  0  0  0  0
    6.6561    3.3365    0.0000 C   0  0  0  0  0  0  0  0  0  0  0  0
    6.5716   -3.0999    0.0000 C   0  0  0  0  0  0  0  0  0  0  0  0
    7.9568   -2.8127    0.0000 C   0  0  0  0  0  0  0  0  0  0  0  0
    7.3656   -3.3365    0.0000 C   0  0  0  0  0  0  0  0  0  0  0  0
    4.5106    2.8972    0.0000 C   0  0  0  0  0  0  0  0  0  0  0  0
    3.0577    2.0864    0.0000 C   0  0  0  0  0  0  0  0  0  0  0  0
    4.9498    3.2013    0.0000 C   0  0  0  0  0  0  0  0  0  0  0  0
    1.6218    2.0864    0.0000 C   0  0  0  0  0  0  0  0  0  0  0  0
    0.9292    1.6809    0.0000 C   0  0  0  0  0  0  0  0  0  0  0  0
   -2.6523    0.4477    0.0000 C   0  0  3  0  0  0  0  0  0  0  0  0
   -0.5237    0.8531    0.0000 C   0  0  0  0  0  0  0  0  0  0  0  0
   -1.9596    0.8363    0.0000 C   0  0  0  0  0  0  0  0  0  0  0  0
   -4.8315    0.8531    0.0000 C   0  0  3  0  0  0  0  0  0  0  0  0
   -4.0883    0.4646    0.0000 C   0  0  0  0  0  0  0  0  0  0  0  0
  -10.4740   -0.8700    0.0000 C   0  0  0  0  0  0  0  0  0  0  0  0
   -9.1732   -0.8700    0.0000 C   0  0  0  0  0  0  0  0  0  0  0  0
    0.9123    0.8531    0.0000 C   0  0  0  0  0  0  0  0  0  0  0  0
    0.1858    2.0864    0.0000 C   0  0  0  0  0  0  0  0  0  0  0  0
    0.2196    0.4477    0.0000 C   0  0  0  0  0  0  0  0  0  0  0  0
   -0.4899    1.6809    0.0000 C   0  0  0  0  0  0  0  0  0  0  0  0
  -10.2375   -1.6302    0.0000 C   0  0  0  0  0  0  0  0  0  0  0  0
   -9.4096   -1.6471    0.0000 C   0  0  0  0  0  0  0  0  0  0  0  0
   -4.8146    1.7147    0.0000 C   0  0  0  0  0  0  0  0  0  0  0  0
   -9.8152    0.4646    0.0000 C   0  0  0  0  0  0  0  0  0  0  0  0
   -2.6354   -0.3970    0.0000 C   0  0  0  0  0  0  0  0  0  0  0  0
   -6.2506    0.8363    0.0000 C   0  0  0  0  0  0  0  0  0  0  0  0
   -9.1056    0.8700    0.0000 C   0  0  0  0  0  0  0  0  0  0  0  0
   -3.3618   -0.7855    0.0000 C   0  0  0  0  0  0  0  0  0  0  0  0
   -6.9433    0.4477    0.0000 C   0  0  0  0  0  0  0  0  0  0  0  0
   -5.5411    2.0864    0.0000 C   0  0  0  0  0  0  0  0  0  0  0  0
   -4.0714    2.0864    0.0000 C   0  0  0  0  0  0  0  0  0  0  0  0
   -8.3961    0.4477    0.0000 C   0  0  0  0  0  0  0  0  0  0  0  0
   -7.6865    0.8531    0.0000 C   0  0  0  0  0  0  0  0  0  0  0  0
   -3.3787   -1.6302    0.0000 C   0  0  0  0  0  0  0  0  0  0  0  0
   -4.8315   -1.6471    0.0000 C   0  0  0  0  0  0  0  0  0  0  0  0
  1 29  1  0  0  0  0
  2 34  1  0  0  0  0
  3 36  1  0  0  0  0
  4 30  2  0  0  0  0
  5 52  1  0  0  0  0
  5 54  1  0  0  0  0
  6 52  2  0  0  0  0
  7 58  2  0  0  0  0
  8 60  2  0  0  0  0
  9 61  2  0  0  0  0
 10 62  2  0  0  0  0
 11 72  2  0  0  0  0
 12 81  2  0  0  0  0
 13 23  1  0  0  0  0
 13 28  1  0  0  0  0
 13 31  1  0  0  0  0
 14 23  2  0  0  0  0
 14 25  1  0  0  0  0
 24 15  1  1  0  0  0
 15 30  1  0  0  0  0
 15 33  1  0  0  0  0
 45 16  1  6  0  0  0
 16 52  1  0  0  0  0
 17 61  1  0  0  0  0
 17 62  1  0  0  0  0
 17 70  1  0  0  0  0
 18 57  1  0  0  0  0
 18 58  1  0  0  0  0
 56 19  1  6  0  0  0
 19 60  1  0  0  0  0
 59 20  1  1  0  0  0
 20 72  1  0  0  0  0
 21 80  1  0  0  0  0
 21 81  1  0  0  0  0
 22 81  1  0  0  0  0
 23 24  1  0  0  0  0
 24 26  1  0  0  0  0
 25 27  1  0  0  0  0
 25 28  2  0  0  0  0
 26 37  1  0  0  0  0
 26 38  1  0  0  0  0
 26 39  1  0  0  0  0
 27 29  2  0  0  0  0
 27 32  1  0  0  0  0
 29 34  1  0  0  0  0
 30 40  1  0  0  0  0
 31 35  1  0  0  0  0
 32 36  2  0  0  0  0
 33 42  1  0  0  0  0
 34 41  2  0  0  0  0
 35 43  2  0  0  0  0
 35 44  1  0  0  0  0
 36 41  1  0  0  0  0
 40 46  1  0  0  0  0
 40 47  1  0  0  0  0
 42 45  1  0  0  0  0
 43 48  1  0  0  0  0
 44 49  2  0  0  0  0
 45 51  1  0  0  0  0
 48 50  2  0  0  0  0
 49 50  1  0  0  0  0
 51 53  1  0  0  0  0
 54 55  1  0  0  0  0
 55 63  2  0  0  0  0
 55 64  1  0  0  0  0
 56 58  1  0  0  0  0
 56 71  1  0  0  0  0
 57 65  2  0  0  0  0
 57 66  1  0  0  0  0
 59 60  1  0  0  0  0
 59 69  1  0  0  0  0
 61 67  1  0  0  0  0
 62 68  1  0  0  0  0
 63 65  1  0  0  0  0
 64 66  2  0  0  0  0
 67 68  2  0  0  0  0
 69 76  1  0  0  0  0
 69 77  1  0  0  0  0
 70 73  1  0  0  0  0
 71 74  1  0  0  0  0
 72 75  1  0  0  0  0
 73 78  1  0  0  0  0
 74 80  1  0  0  0  0
 75 79  1  0  0  0  0
 78 79  1  0  0  0  0
M  END
> <PUBCHEM_COMPOUND_ID_TYPE>
0

> <PUBCHEM_TOTAL_CHARGE>
0

> <PUBCHEM_SUBSTANCE_ID>
310942786

> <PUBCHEM_SUBSTANCE_VERSION>
1

> <PUBCHEM_EXT_DATASOURCE_NAME>
4488

> <PUBCHEM_EXT_DATASOURCE_REGID>
SCHEMBL16120839

> <PUBCHEM_SUBSTANCE_COMMENT>
InChI=1S/C59H77F3N10O9/c1-9-41(27-30-72(56(78)37(4)5)52(59(6,7)8)53-67-46(43-31-40(60)32-44(61)50(43)62)34-70(53)33-38-17-12-10-13-18-38)66-58(80)81-35-39-21-23-42(24-22-39)65-54(76)45(19-16-28-64-57(63)79)68-55(77)51(36(2)3)69-47(73)20-14-11-15-29-71-48(74)25-26-49(71)75/h10,12-13,17-18,21-26,31-32,34,36-37,41,45,51-52H,9,11,14-16,19-20,27-30,33,35H2,1-8H3,(H,65,76)(H,66,80)(H,68,77)(H,69,73)(H3,63,64,79)/t41-,45+,51+,52+/m1/s1
InChIKey=PZKQRWLXVHHQAR-FDPZWENBSA-N

> <PUBCHEM_SUBSTANCE_SYNONYM>
SCHEMBL16120839

> <PUBCHEM_XREF_EXT_ID>
SCHEMBL16120839

> <PUBCHEM_EXT_DATASOURCE_URL>
https://www.surechembl.org/

> <PUBCHEM_EXT_SUBSTANCE_URL>
https://www.surechembl.org/chemical/SCHEMBL16120839

> <PUBCHEM_CID_ASSOCIATIONS>
117609292  1

> <PUBCHEM_COORDINATE_TYPE>
1
3

> <PUBCHEM_BONDANNOTATIONS>
24  15  5
45  16  6
56  19  6
59  20  5

$$$$
