310938300
  -OEChem-07211613022D

 23 25  0     1  0  0  0  0  0999 V2000
    0.8819    2.0318    0.0000 F   0  0  0  0  0  0  0  0  0  0  0  0
   -0.2407    1.7138    0.0000 F   0  0  0  0  0  0  0  0  0  0  0  0
    1.1999    0.9092    0.0000 F   0  0  0  0  0  0  0  0  0  0  0  0
    0.4999   -0.1173    0.0000 N   0  0  0  0  0  0  0  0  0  0  0  0
    3.7519   -2.8171    0.0000 N   0  0  0  0  0  0  0  0  0  0  0  0
    1.9176   -2.9957    0.0000 N   0  0  0  0  0  0  0  0  0  0  0  0
    2.1275   -1.3591    0.0000 C   0  0  0  0  0  0  0  0  0  0  0  0
    0.6396   -0.9304    0.0000 C   0  0  3  0  0  0  0  0  0  0  0  0
    1.0605   -0.5572    0.0000 C   0  0  3  0  0  0  0  0  0  0  0  0
    1.6113   -0.9304    0.0000 C   0  0  0  0  0  0  0  0  0  0  0  0
    1.9893   -0.5417    0.0000 C   0  0  0  0  0  0  0  0  0  0  0  0
    2.8880   -1.6789    0.0000 C   0  0  0  0  0  0  0  0  0  0  0  0
    0.1197   -1.6427    0.0000 C   0  0  0  0  0  0  0  0  0  0  0  0
    0.7400   -1.2658    0.0000 C   0  0  0  0  0  0  0  0  0  0  0  0
    2.0225   -2.1774    0.0000 C   0  0  0  0  0  0  0  0  0  0  0  0
    0.0773    0.5912    0.0000 C   0  0  0  0  0  0  0  0  0  0  0  0
    3.5452   -1.1801    0.0000 C   0  0  0  0  0  0  0  0  0  0  0  0
    0.4796    1.3115    0.0000 C   0  0  0  0  0  0  0  0  0  0  0  0
    2.9914   -2.4974    0.0000 C   0  0  0  0  0  0  0  0  0  0  0  0
    4.3057   -1.4999    0.0000 C   0  0  0  0  0  0  0  0  0  0  0  0
    4.4090   -2.3184    0.0000 C   0  0  0  0  0  0  0  0  0  0  0  0
    4.9629   -1.0011    0.0000 C   0  0  0  0  0  0  0  0  0  0  0  0
    5.6200   -0.5024    0.0000 C   0  0  0  0  0  0  0  0  0  0  0  0
  1 18  1  0  0  0  0
  2 18  1  0  0  0  0
  3 18  1  0  0  0  0
  8  4  1  1  0  0  0
  9  4  1  6  0  0  0
  4 16  1  0  0  0  0
  5 19  2  0  0  0  0
  5 21  1  0  0  0  0
  6 15  3  0  0  0  0
  7 10  1  0  0  0  0
  7 11  1  0  0  0  0
  7 12  1  0  0  0  0
  7 15  1  1  0  0  0
  8 10  1  0  0  0  0
  8 13  1  0  0  0  0
  9 11  1  0  0  0  0
  9 14  1  0  0  0  0
 12 17  2  0  0  0  0
 12 19  1  0  0  0  0
 13 14  1  0  0  0  0
 16 18  1  0  0  0  0
 17 20  1  0  0  0  0
 20 21  2  0  0  0  0
 20 22  1  0  0  0  0
 22 23  3  0  0  0  0
M  END
> <PUBCHEM_COMPOUND_ID_TYPE>
0

> <PUBCHEM_TOTAL_CHARGE>
0

> <PUBCHEM_SUBSTANCE_ID>
310938300

> <PUBCHEM_SUBSTANCE_VERSION>
1

> <PUBCHEM_EXT_DATASOURCE_NAME>
4488

> <PUBCHEM_EXT_DATASOURCE_REGID>
SCHEMBL16116173

> <PUBCHEM_SUBSTANCE_COMMENT>
InChI=1S/C17H16F3N3/c1-2-12-5-13(9-22-8-12)16(10-21)6-14-3-4-15(7-16)23(14)11-17(18,19)20/h1,5,8-9,14-15H,3-4,6-7,11H2/t14-,15+,16-
InChIKey=OEFNVWZAJCMKFW-MUJYYYPQSA-N

> <PUBCHEM_SUBSTANCE_SYNONYM>
SCHEMBL16116173

> <PUBCHEM_XREF_EXT_ID>
SCHEMBL16116173

> <PUBCHEM_EXT_DATASOURCE_URL>
https://www.surechembl.org/

> <PUBCHEM_EXT_SUBSTANCE_URL>
https://www.surechembl.org/chemical/SCHEMBL16116173

> <PUBCHEM_CID_ASSOCIATIONS>
117605802  1

> <PUBCHEM_COORDINATE_TYPE>
1
3

> <PUBCHEM_BONDANNOTATIONS>
8  4  5
9  4  6
7  15  5

$$$$
