310945190
  -OEChem-07211613022D

 10 10  0     0  0  0  0  0  0999 V2000
   -2.0213   -0.6520    0.0000 I   0  0  0  0  0  0  0  0  0  0  0  0
   -0.8766   -0.7825    0.0000 S   0  0  0  0  0  0  0  0  0  0  0  0
    0.5578   -0.7825    0.0000 N   0  0  0  0  0  0  0  0  0  0  0  0
   -0.1666   -0.3477    0.0000 C   0  0  0  0  0  0  0  0  0  0  0  0
    1.2678   -0.3477    0.0000 C   0  0  0  0  0  0  0  0  0  0  0  0
   -0.1521    0.4636    0.0000 C   0  0  0  0  0  0  0  0  0  0  0  0
    1.2823    0.4636    0.0000 C   0  0  0  0  0  0  0  0  0  0  0  0
    0.5578    0.8839    0.0000 C   0  0  0  0  0  0  0  0  0  0  0  0
   -1.6011   -0.3477    0.0000 C   0  0  0  0  0  0  0  0  0  0  0  0
    2.0213   -0.7534    0.0000 C   0  0  0  0  0  0  0  0  0  0  0  0
  1  9  1  0  0  0  0
  2  4  1  0  0  0  0
  2  9  1  0  0  0  0
  3  4  1  0  0  0  0
  3  5  2  0  0  0  0
  4  6  2  0  0  0  0
  5  7  1  0  0  0  0
  5 10  1  0  0  0  0
  6  8  1  0  0  0  0
  7  8  2  0  0  0  0
M  END
> <PUBCHEM_COMPOUND_ID_TYPE>
0

> <PUBCHEM_TOTAL_CHARGE>
0

> <PUBCHEM_SUBSTANCE_ID>
310945190

> <PUBCHEM_SUBSTANCE_VERSION>
1

> <PUBCHEM_EXT_DATASOURCE_NAME>
4488

> <PUBCHEM_EXT_DATASOURCE_REGID>
SCHEMBL16123280

> <PUBCHEM_SUBSTANCE_COMMENT>
InChI=1S/C7H8INS/c1-6-3-2-4-7(9-6)10-5-8/h2-4H,5H2,1H3
InChIKey=WUQMEPYFXKHHKD-UHFFFAOYSA-N

> <PUBCHEM_SUBSTANCE_SYNONYM>
SCHEMBL16123280

> <PUBCHEM_XREF_EXT_ID>
SCHEMBL16123280

> <PUBCHEM_EXT_DATASOURCE_URL>
https://www.surechembl.org/

> <PUBCHEM_EXT_SUBSTANCE_URL>
https://www.surechembl.org/chemical/SCHEMBL16123280

> <PUBCHEM_CID_ASSOCIATIONS>
117611274  1

> <PUBCHEM_COORDINATE_TYPE>
1
3

$$$$
