310930828
  -OEChem-07211613022D

 25 26  0     0  0  0  0  0  0999 V2000
    0.7097   -1.2092    0.0000 F   0  0  0  0  0  0  0  0  0  0  0  0
    7.8858   -1.2355    0.0000 F   0  0  0  0  0  0  0  0  0  0  0  0
    7.1761    0.0000    0.0000 F   0  0  0  0  0  0  0  0  0  0  0  0
    7.8858   -0.4206    0.0000 F   0  0  0  0  0  0  0  0  0  0  0  0
    2.1555   -1.2092    0.0000 O   0  0  0  0  0  0  0  0  0  0  0  0
    5.7304   -0.8149    0.0000 O   0  0  0  0  0  0  0  0  0  0  0  0
    2.8652   -3.2858    0.0000 O   0  5  0  0  0  0  0  0  0  0  0  0
    2.1555   -4.5212    0.0000 O   0  0  0  0  0  0  0  0  0  0  0  0
    2.1555   -3.7064    0.0000 N   0  3  0  0  0  0  0  0  0  0  0  0
    2.8652   -2.4709    0.0000 N   0  0  0  0  0  0  0  0  0  0  0  0
    1.4194   -2.4709    0.0000 C   0  0  0  0  0  0  0  0  0  0  0  0
    1.4194   -3.2858    0.0000 C   0  0  0  0  0  0  0  0  0  0  0  0
    2.1555   -2.0503    0.0000 C   0  0  0  0  0  0  0  0  0  0  0  0
    0.7097   -2.0503    0.0000 C   0  0  0  0  0  0  0  0  0  0  0  0
    3.5749   -2.0503    0.0000 C   0  0  0  0  0  0  0  0  0  0  0  0
    0.7097   -3.7064    0.0000 C   0  0  0  0  0  0  0  0  0  0  0  0
    0.0000   -2.4709    0.0000 C   0  0  0  0  0  0  0  0  0  0  0  0
    0.0000   -3.2858    0.0000 C   0  0  0  0  0  0  0  0  0  0  0  0
    5.0207   -1.2092    0.0000 C   0  0  0  0  0  0  0  0  0  0  0  0
    3.6012   -1.2092    0.0000 C   0  0  0  0  0  0  0  0  0  0  0  0
    4.3110   -2.4446    0.0000 C   0  0  0  0  0  0  0  0  0  0  0  0
    4.3110   -0.7886    0.0000 C   0  0  0  0  0  0  0  0  0  0  0  0
    5.0207   -2.0503    0.0000 C   0  0  0  0  0  0  0  0  0  0  0  0
    7.1761   -0.8149    0.0000 C   0  0  0  0  0  0  0  0  0  0  0  0
    6.4401   -1.2355    0.0000 C   0  0  0  0  0  0  0  0  0  0  0  0
  1 14  1  0  0  0  0
  2 24  1  0  0  0  0
  3 24  1  0  0  0  0
  4 24  1  0  0  0  0
  5 13  2  0  0  0  0
  6 19  1  0  0  0  0
  6 25  1  0  0  0  0
  7  9  1  0  0  0  0
  8  9  2  0  0  0  0
  9 12  1  0  0  0  0
 10 13  1  0  0  0  0
 10 15  1  0  0  0  0
 11 12  1  0  0  0  0
 11 13  1  0  0  0  0
 11 14  2  0  0  0  0
 12 16  2  0  0  0  0
 14 17  1  0  0  0  0
 15 20  2  0  0  0  0
 15 21  1  0  0  0  0
 16 18  1  0  0  0  0
 17 18  2  0  0  0  0
 19 22  2  0  0  0  0
 19 23  1  0  0  0  0
 20 22  1  0  0  0  0
 21 23  2  0  0  0  0
 24 25  1  0  0  0  0
M  CHG  2   7  -1   9   1
M  END
> <PUBCHEM_COMPOUND_ID_TYPE>
0

> <PUBCHEM_TOTAL_CHARGE>
0

> <PUBCHEM_SUBSTANCE_ID>
310930828

> <PUBCHEM_SUBSTANCE_VERSION>
1

> <PUBCHEM_EXT_DATASOURCE_NAME>
4488

> <PUBCHEM_EXT_DATASOURCE_REGID>
SCHEMBL16108125

> <PUBCHEM_SUBSTANCE_COMMENT>
InChI=1S/C15H10F4N2O4/c16-11-2-1-3-12(21(23)24)13(11)14(22)20-9-4-6-10(7-5-9)25-8-15(17,18)19/h1-7H,8H2,(H,20,22)
InChIKey=ROWZVWAMOAQCLD-UHFFFAOYSA-N

> <PUBCHEM_SUBSTANCE_SYNONYM>
SCHEMBL16108125

> <PUBCHEM_XREF_EXT_ID>
SCHEMBL16108125

> <PUBCHEM_EXT_DATASOURCE_URL>
https://www.surechembl.org/

> <PUBCHEM_EXT_SUBSTANCE_URL>
https://www.surechembl.org/chemical/SCHEMBL16108125

> <PUBCHEM_CID_ASSOCIATIONS>
117599826  1

> <PUBCHEM_COORDINATE_TYPE>
1
3

$$$$
