310942386
  -OEChem-07211613022D

 29 32  0     0  0  0  0  0  0999 V2000
   -4.6970    2.0802    0.0000 O   0  0  0  0  0  0  0  0  0  0  0  0
    1.0866   -0.3947    0.0000 N   0  0  0  0  0  0  0  0  0  0  0  0
   -0.3593   -0.3947    0.0000 N   0  0  0  0  0  0  0  0  0  0  0  0
    0.3593    0.8382    0.0000 N   0  0  0  0  0  0  0  0  0  0  0  0
   -3.2511    1.2464    0.0000 N   0  0  0  0  0  0  0  0  0  0  0  0
    2.5326   -0.3947    0.0000 N   0  0  0  0  0  0  0  0  0  0  0  0
    4.6970    1.6544    0.0000 N   0  0  0  0  0  0  0  0  0  0  0  0
    1.8052    0.0133    0.0000 C   0  0  0  0  0  0  0  0  0  0  0  0
    0.3681    0.0221    0.0000 C   0  0  0  0  0  0  0  0  0  0  0  0
    1.8141    0.8471    0.0000 C   0  0  0  0  0  0  0  0  0  0  0  0
   -1.0866    0.0221    0.0000 C   0  0  0  0  0  0  0  0  0  0  0  0
   -2.5237    0.8382    0.0000 C   0  0  0  0  0  0  0  0  0  0  0  0
    1.0778    1.2464    0.0000 C   0  0  0  0  0  0  0  0  0  0  0  0
   -1.8052   -0.3859    0.0000 C   0  0  0  0  0  0  0  0  0  0  0  0
   -1.0866    0.8382    0.0000 C   0  0  0  0  0  0  0  0  0  0  0  0
   -2.5237    0.0133    0.0000 C   0  0  0  0  0  0  0  0  0  0  0  0
   -1.8141    1.2464    0.0000 C   0  0  0  0  0  0  0  0  0  0  0  0
    2.5148   -1.2286    0.0000 C   0  0  0  0  0  0  0  0  0  0  0  0
    2.5237    1.2464    0.0000 C   0  0  0  0  0  0  0  0  0  0  0  0
   -3.2511    2.0713    0.0000 C   0  0  0  0  0  0  0  0  0  0  0  0
   -3.9519    0.8471    0.0000 C   0  0  0  0  0  0  0  0  0  0  0  0
    1.8495   -1.7076    0.0000 C   0  0  0  0  0  0  0  0  0  0  0  0
    3.1890   -1.7076    0.0000 C   0  0  0  0  0  0  0  0  0  0  0  0
   -3.9785    2.4882    0.0000 C   0  0  0  0  0  0  0  0  0  0  0  0
   -4.6970    1.2552    0.0000 C   0  0  0  0  0  0  0  0  0  0  0  0
    3.2689    0.8471    0.0000 C   0  0  0  0  0  0  0  0  0  0  0  0
    2.1067   -2.4882    0.0000 C   0  0  0  0  0  0  0  0  0  0  0  0
    2.9317   -2.4882    0.0000 C   0  0  0  0  0  0  0  0  0  0  0  0
    3.9785    1.2552    0.0000 C   0  0  0  0  0  0  0  0  0  0  0  0
  1 24  1  0  0  0  0
  1 25  1  0  0  0  0
  2  8  2  0  0  0  0
  2  9  1  0  0  0  0
  3  9  1  0  0  0  0
  3 11  1  0  0  0  0
  4  9  2  0  0  0  0
  4 13  1  0  0  0  0
  5 12  1  0  0  0  0
  5 20  1  0  0  0  0
  5 21  1  0  0  0  0
  6  8  1  0  0  0  0
  6 18  1  0  0  0  0
  7 29  3  0  0  0  0
  8 10  1  0  0  0  0
 10 13  2  0  0  0  0
 10 19  1  0  0  0  0
 11 14  2  0  0  0  0
 11 15  1  0  0  0  0
 12 16  2  0  0  0  0
 12 17  1  0  0  0  0
 14 16  1  0  0  0  0
 15 17  2  0  0  0  0
 18 22  1  0  0  0  0
 18 23  1  0  0  0  0
 19 26  2  0  0  0  0
 20 24  1  0  0  0  0
 21 25  1  0  0  0  0
 22 27  1  0  0  0  0
 23 28  1  0  0  0  0
 26 29  1  0  0  0  0
 27 28  1  0  0  0  0
M  END
> <PUBCHEM_COMPOUND_ID_TYPE>
0

> <PUBCHEM_TOTAL_CHARGE>
0

> <PUBCHEM_SUBSTANCE_ID>
310942386

> <PUBCHEM_SUBSTANCE_VERSION>
1

> <PUBCHEM_EXT_DATASOURCE_NAME>
4488

> <PUBCHEM_EXT_DATASOURCE_REGID>
SCHEMBL16120422

> <PUBCHEM_SUBSTANCE_COMMENT>
InChI=1S/C22H26N6O/c23-11-3-4-17-16-24-22(27-21(17)25-18-5-1-2-6-18)26-19-7-9-20(10-8-19)28-12-14-29-15-13-28/h3-4,7-10,16,18H,1-2,5-6,12-15H2,(H2,24,25,26,27)/b4-3+
InChIKey=BMUPQFBPDYQIJD-ONEGZZNKSA-N

> <PUBCHEM_SUBSTANCE_SYNONYM>
SCHEMBL16120422

> <PUBCHEM_XREF_EXT_ID>
SCHEMBL16120422

> <PUBCHEM_EXT_DATASOURCE_URL>
https://www.surechembl.org/

> <PUBCHEM_EXT_SUBSTANCE_URL>
https://www.surechembl.org/chemical/SCHEMBL16120422

> <PUBCHEM_CID_ASSOCIATIONS>
90466628  1

> <PUBCHEM_COORDINATE_TYPE>
1
3

$$$$
