310931975
  -OEChem-07211613022D

 31 33  0     0  0  0  0  0  0999 V2000
    0.9718   -0.1736    0.0000 F   0  0  0  0  0  0  0  0  0  0  0  0
    3.9915   -2.7419    0.0000 O   0  0  0  0  0  0  0  0  0  0  0  0
    8.4688   -2.8114    0.0000 O   0  0  0  0  0  0  0  0  0  0  0  0
    9.1977   -6.5252    0.0000 O   0  0  0  0  0  0  0  0  0  0  0  0
    4.8939   -1.5966    0.0000 N   0  0  0  0  0  0  0  0  0  0  0  0
    4.8244   -0.7636    0.0000 N   0  0  0  0  0  0  0  0  0  0  0  0
    6.3169   -1.5966    0.0000 N   0  0  0  0  0  0  0  0  0  0  0  0
    7.7747   -4.0609    0.0000 N   0  0  0  0  0  0  0  0  0  0  0  0
    0.0000   -2.4643    0.0000 N   0  0  0  0  0  0  0  0  0  0  0  0
    3.6097   -1.3189    0.0000 C   0  0  0  0  0  0  0  0  0  0  0  0
    4.1650   -1.9437    0.0000 C   0  0  0  0  0  0  0  0  0  0  0  0
    2.7766   -1.4231    0.0000 C   0  0  0  0  0  0  0  0  0  0  0  0
    5.6228   -2.0131    0.0000 C   0  0  0  0  0  0  0  0  0  0  0  0
    2.2908   -0.7636    0.0000 C   0  0  0  0  0  0  0  0  0  0  0  0
    3.9915   -0.6247    0.0000 C   0  0  0  0  0  0  0  0  0  0  0  0
    1.4578   -0.8677    0.0000 C   0  0  0  0  0  0  0  0  0  0  0  0
    2.4643   -2.1866    0.0000 C   0  0  0  0  0  0  0  0  0  0  0  0
    1.1454   -1.5966    0.0000 C   0  0  0  0  0  0  0  0  0  0  0  0
    5.6228   -2.8114    0.0000 C   0  0  0  0  0  0  0  0  0  0  0  0
    1.6313   -2.2561    0.0000 C   0  0  0  0  0  0  0  0  0  0  0  0
    7.0458   -2.8114    0.0000 C   0  0  0  0  0  0  0  0  0  0  0  0
    7.0458   -2.0131    0.0000 C   0  0  0  0  0  0  0  0  0  0  0  0
    6.3169   -3.2279    0.0000 C   0  0  0  0  0  0  0  0  0  0  0  0
    7.7747   -3.2279    0.0000 C   0  0  0  0  0  0  0  0  0  0  0  0
    2.6032    0.0000    0.0000 C   0  0  0  0  0  0  0  0  0  0  0  0
    0.3124   -1.7007    0.0000 C   0  0  0  0  0  0  0  0  0  0  0  0
    8.4688   -4.4774    0.0000 C   0  0  0  0  0  0  0  0  0  0  0  0
    7.0458   -4.4774    0.0000 C   0  0  0  0  0  0  0  0  0  0  0  0
    8.5036   -5.3104    0.0000 C   0  0  0  0  0  0  0  0  0  0  0  0
    9.1977   -5.6922    0.0000 C   0  0  0  0  0  0  0  0  0  0  0  0
    9.9266   -6.9417    0.0000 C   0  0  0  0  0  0  0  0  0  0  0  0
  1 16  1  0  0  0  0
  2 11  1  0  0  0  0
  3 24  2  0  0  0  0
  4 30  1  0  0  0  0
  4 31  1  0  0  0  0
  5  6  1  0  0  0  0
  5 11  1  0  0  0  0
  5 13  1  0  0  0  0
  6 15  2  0  0  0  0
  7 13  2  0  0  0  0
  7 22  1  0  0  0  0
  8 24  1  0  0  0  0
  8 27  1  0  0  0  0
  8 28  1  0  0  0  0
  9 26  3  0  0  0  0
 10 11  2  0  0  0  0
 10 12  1  0  0  0  0
 10 15  1  0  0  0  0
 12 14  1  0  0  0  0
 12 17  2  0  0  0  0
 13 19  1  0  0  0  0
 14 16  2  0  0  0  0
 14 25  1  0  0  0  0
 16 18  1  0  0  0  0
 17 20  1  0  0  0  0
 18 20  2  0  0  0  0
 18 26  1  0  0  0  0
 19 23  2  0  0  0  0
 21 22  2  0  0  0  0
 21 23  1  0  0  0  0
 21 24  1  0  0  0  0
 27 29  1  0  0  0  0
 29 30  1  0  0  0  0
M  END
> <PUBCHEM_COMPOUND_ID_TYPE>
0

> <PUBCHEM_TOTAL_CHARGE>
0

> <PUBCHEM_SUBSTANCE_ID>
310931975

> <PUBCHEM_SUBSTANCE_VERSION>
1

> <PUBCHEM_EXT_DATASOURCE_NAME>
4488

> <PUBCHEM_EXT_DATASOURCE_REGID>
SCHEMBL16109314

> <PUBCHEM_SUBSTANCE_COMMENT>
InChI=1S/C22H22FN5O3/c1-14-17(7-5-15(11-24)20(14)23)18-13-26-28(22(18)30)19-8-6-16(12-25-19)21(29)27(2)9-4-10-31-3/h5-8,12-13,30H,4,9-10H2,1-3H3
InChIKey=PSFSDILVYIVRMM-UHFFFAOYSA-N

> <PUBCHEM_SUBSTANCE_SYNONYM>
SCHEMBL16109314

> <PUBCHEM_XREF_EXT_ID>
SCHEMBL16109314

> <PUBCHEM_EXT_DATASOURCE_URL>
https://www.surechembl.org/

> <PUBCHEM_EXT_SUBSTANCE_URL>
https://www.surechembl.org/chemical/SCHEMBL16109314

> <PUBCHEM_CID_ASSOCIATIONS>
117600620  1

> <PUBCHEM_COORDINATE_TYPE>
1
3

$$$$
