310944604
  -OEChem-07211613022D

 31 33  0     0  0  0  0  0  0999 V2000
   -3.7602   -0.2300    0.0000 Cl  0  0  0  0  0  0  0  0  0  0  0  0
    0.7023    2.2561    0.0000 O   0  0  0  0  0  0  0  0  0  0  0  0
    5.0156   -1.0503    0.0000 O   0  0  0  0  0  0  0  0  0  0  0  0
   -0.7147    1.4357    0.0000 N   0  0  0  0  0  0  0  0  0  0  0  0
    1.4481    1.0131    0.0000 N   0  0  0  0  0  0  0  0  0  0  0  0
   -0.0063   -0.6402    0.0000 N   0  0  0  0  0  0  0  0  0  0  0  0
    3.5986   -1.0503    0.0000 N   0  0  0  0  0  0  0  0  0  0  0  0
   -2.8652    1.0255    0.0000 C   0  0  0  0  0  0  0  0  0  0  0  0
   -1.4357    1.0255    0.0000 C   0  0  0  0  0  0  0  0  0  0  0  0
   -2.8652    0.1927    0.0000 C   0  0  0  0  0  0  0  0  0  0  0  0
   -1.4481    0.1927    0.0000 C   0  0  0  0  0  0  0  0  0  0  0  0
   -2.1566    1.4233    0.0000 C   0  0  0  0  0  0  0  0  0  0  0  0
   -3.5986    1.4357    0.0000 C   0  0  0  0  0  0  0  0  0  0  0  0
   -2.1442   -0.2176    0.0000 C   0  0  0  0  0  0  0  0  0  0  0  0
    0.7147    1.4233    0.0000 C   0  0  0  0  0  0  0  0  0  0  0  0
    0.0187    1.0255    0.0000 C   0  0  0  0  0  0  0  0  0  0  0  0
   -4.2947    1.0255    0.0000 C   0  0  0  0  0  0  0  0  0  0  0  0
   -3.5861    2.2561    0.0000 C   0  0  0  0  0  0  0  0  0  0  0  0
   -0.7147   -0.2300    0.0000 C   0  0  0  0  0  0  0  0  0  0  0  0
    1.4481    0.1927    0.0000 C   0  0  0  0  0  0  0  0  0  0  0  0
    2.1691    1.4357    0.0000 C   0  0  0  0  0  0  0  0  0  0  0  0
    2.8776    0.1927    0.0000 C   0  0  0  0  0  0  0  0  0  0  0  0
    2.1691   -0.2176    0.0000 C   0  0  0  0  0  0  0  0  0  0  0  0
    2.8776    1.0131    0.0000 C   0  0  0  0  0  0  0  0  0  0  0  0
   -5.0156    1.4357    0.0000 C   0  0  0  0  0  0  0  0  0  0  0  0
   -4.2947    2.6663    0.0000 C   0  0  0  0  0  0  0  0  0  0  0  0
   -5.0156    2.2561    0.0000 C   0  0  0  0  0  0  0  0  0  0  0  0
    3.5986   -0.2176    0.0000 C   0  0  0  0  0  0  0  0  0  0  0  0
    4.3071   -1.4730    0.0000 C   0  0  0  0  0  0  0  0  0  0  0  0
    4.3195   -2.2934    0.0000 C   0  0  0  0  0  0  0  0  0  0  0  0
    3.5737   -2.6663    0.0000 C   0  0  0  0  0  0  0  0  0  0  0  0
  1 10  1  0  0  0  0
  2 15  2  0  0  0  0
  3 29  2  0  0  0  0
  4  9  1  0  0  0  0
  4 16  1  0  0  0  0
  5 15  1  0  0  0  0
  5 20  1  0  0  0  0
  5 21  1  0  0  0  0
  6 19  3  0  0  0  0
  7 28  1  0  0  0  0
  7 29  1  0  0  0  0
  8 10  2  0  0  0  0
  8 12  1  0  0  0  0
  8 13  1  0  0  0  0
  9 11  1  0  0  0  0
  9 12  2  0  0  0  0
 10 14  1  0  0  0  0
 11 14  2  0  0  0  0
 11 19  1  0  0  0  0
 13 17  2  0  0  0  0
 13 18  1  0  0  0  0
 15 16  1  0  0  0  0
 17 25  1  0  0  0  0
 18 26  2  0  0  0  0
 20 23  1  0  0  0  0
 21 24  1  0  0  0  0
 22 23  1  0  0  0  0
 22 24  1  0  0  0  0
 22 28  1  0  0  0  0
 25 27  2  0  0  0  0
 26 27  1  0  0  0  0
 29 30  1  0  0  0  0
 30 31  2  0  0  0  0
M  END
> <PUBCHEM_COMPOUND_ID_TYPE>
0

> <PUBCHEM_TOTAL_CHARGE>
0

> <PUBCHEM_SUBSTANCE_ID>
310944604

> <PUBCHEM_SUBSTANCE_VERSION>
1

> <PUBCHEM_EXT_DATASOURCE_NAME>
4488

> <PUBCHEM_EXT_DATASOURCE_REGID>
SCHEMBL16122682

> <PUBCHEM_SUBSTANCE_COMMENT>
InChI=1S/C24H25ClN4O2/c1-2-23(30)28-15-17-8-10-29(11-9-17)24(31)16-27-22-13-20(18-6-4-3-5-7-18)21(25)12-19(22)14-26/h2-7,12-13,17,27H,1,8-11,15-16H2,(H,28,30)
InChIKey=KZCVVUFRXXDQMU-UHFFFAOYSA-N

> <PUBCHEM_SUBSTANCE_SYNONYM>
SCHEMBL16122682

> <PUBCHEM_XREF_EXT_ID>
SCHEMBL16122682

> <PUBCHEM_EXT_DATASOURCE_URL>
https://www.surechembl.org/

> <PUBCHEM_EXT_SUBSTANCE_URL>
https://www.surechembl.org/chemical/SCHEMBL16122682

> <PUBCHEM_CID_ASSOCIATIONS>
117610834  1

> <PUBCHEM_COORDINATE_TYPE>
1
3

$$$$
