310929057
  -OEChem-07211613022D

 19 19  0     0  0  0  0  0  0999 V2000
    2.1556   -0.4085    0.0000 O   0  0  0  0  0  0  0  0  0  0  0  0
    3.5851   -0.4085    0.0000 O   0  0  0  0  0  0  0  0  0  0  0  0
    0.0000   -1.6564    0.0000 O   0  5  0  0  0  0  0  0  0  0  0  0
    0.7034   -0.4085    0.0000 O   0  0  0  0  0  0  0  0  0  0  0  0
    0.7034   -1.2253    0.0000 N   0  3  0  0  0  0  0  0  0  0  0  0
    4.2885   -1.6564    0.0000 N   0  0  0  0  0  0  0  0  0  0  0  0
    4.2885   -2.4732    0.0000 N   0  0  0  0  0  0  0  0  0  0  0  0
    2.1556   -1.2253    0.0000 C   0  0  0  0  0  0  0  0  0  0  0  0
    2.8590   -1.6564    0.0000 C   0  0  0  0  0  0  0  0  0  0  0  0
    1.4295   -1.6564    0.0000 C   0  0  0  0  0  0  0  0  0  0  0  0
    2.1556   -2.8817    0.0000 C   0  0  0  0  0  0  0  0  0  0  0  0
    2.8590   -2.4732    0.0000 C   0  0  0  0  0  0  0  0  0  0  0  0
    1.4295   -2.4732    0.0000 C   0  0  0  0  0  0  0  0  0  0  0  0
    2.1556   -3.7212    0.0000 C   0  0  0  0  0  0  0  0  0  0  0  0
    3.5851   -1.2253    0.0000 C   0  0  0  0  0  0  0  0  0  0  0  0
    1.2934   -3.7212    0.0000 C   0  0  0  0  0  0  0  0  0  0  0  0
    2.1556   -4.5381    0.0000 C   0  0  0  0  0  0  0  0  0  0  0  0
    2.9725   -3.7212    0.0000 C   0  0  0  0  0  0  0  0  0  0  0  0
    1.4295    0.0000    0.0000 C   0  0  0  0  0  0  0  0  0  0  0  0
  1  8  1  0  0  0  0
  1 19  1  0  0  0  0
  2 15  2  0  0  0  0
  3  5  1  0  0  0  0
  4  5  2  0  0  0  0
  5 10  1  0  0  0  0
  6  7  1  0  0  0  0
  6 15  1  0  0  0  0
  8  9  2  0  0  0  0
  8 10  1  0  0  0  0
  9 12  1  0  0  0  0
  9 15  1  0  0  0  0
 10 13  2  0  0  0  0
 11 12  2  0  0  0  0
 11 13  1  0  0  0  0
 11 14  1  0  0  0  0
 14 16  1  0  0  0  0
 14 17  1  0  0  0  0
 14 18  1  0  0  0  0
M  CHG  2   3  -1   5   1
M  END
> <PUBCHEM_COMPOUND_ID_TYPE>
0

> <PUBCHEM_TOTAL_CHARGE>
0

> <PUBCHEM_SUBSTANCE_ID>
310929057

> <PUBCHEM_SUBSTANCE_VERSION>
1

> <PUBCHEM_EXT_DATASOURCE_NAME>
4488

> <PUBCHEM_EXT_DATASOURCE_REGID>
SCHEMBL16106219

> <PUBCHEM_SUBSTANCE_COMMENT>
InChI=1S/C12H17N3O4/c1-12(2,3)7-5-8(11(16)14-13)10(19-4)9(6-7)15(17)18/h5-6H,13H2,1-4H3,(H,14,16)
InChIKey=FXSPEWSHAJGRGW-UHFFFAOYSA-N

> <PUBCHEM_SUBSTANCE_SYNONYM>
SCHEMBL16106219

> <PUBCHEM_XREF_EXT_ID>
SCHEMBL16106219

> <PUBCHEM_EXT_DATASOURCE_URL>
https://www.surechembl.org/

> <PUBCHEM_EXT_SUBSTANCE_URL>
https://www.surechembl.org/chemical/SCHEMBL16106219

> <PUBCHEM_CID_ASSOCIATIONS>
50882156  1

> <PUBCHEM_COORDINATE_TYPE>
1
3

$$$$
