310944795
  -OEChem-07211613022D

 33 38  0     0  0  0  0  0  0999 V2000
    4.8266    1.3545    0.0000 O   0  0  0  0  0  0  0  0  0  0  0  0
    0.1238   -0.8869    0.0000 O   0  0  0  0  0  0  0  0  0  0  0  0
   -2.7227    1.6020    0.0000 O   0  0  0  0  0  0  0  0  0  0  0  0
    3.0390    0.1031    0.0000 N   0  0  0  0  0  0  0  0  0  0  0  0
    4.6753   -0.0619    0.0000 N   0  0  0  0  0  0  0  0  0  0  0  0
   -3.4378    0.3644    0.0000 N   0  0  0  0  0  0  0  0  0  0  0  0
   -0.5913    0.3644    0.0000 N   0  0  0  0  0  0  0  0  0  0  0  0
    3.3690   -0.6532    0.0000 C   0  0  0  0  0  0  0  0  0  0  0  0
    2.2552    0.3781    0.0000 C   0  0  0  0  0  0  0  0  0  0  0  0
    3.5202    0.7769    0.0000 C   0  0  0  0  0  0  0  0  0  0  0  0
    2.2552    1.2032    0.0000 C   0  0  0  0  0  0  0  0  0  0  0  0
    3.0527    1.4370    0.0000 C   0  0  0  0  0  0  0  0  0  0  0  0
    4.3315    0.6669    0.0000 C   0  0  0  0  0  0  0  0  0  0  0  0
    4.1940   -0.7494    0.0000 C   0  0  0  0  0  0  0  0  0  0  0  0
    2.5852   -0.7907    0.0000 C   0  0  0  0  0  0  0  0  0  0  0  0
    3.4927   -1.4782    0.0000 C   0  0  0  0  0  0  0  0  0  0  0  0
    1.5538   -0.0482    0.0000 C   0  0  0  0  0  0  0  0  0  0  0  0
    2.6951   -1.6020    0.0000 C   0  0  0  0  0  0  0  0  0  0  0  0
    0.8388    0.3644    0.0000 C   0  0  0  0  0  0  0  0  0  0  0  0
    1.5538    1.6020    0.0000 C   0  0  0  0  0  0  0  0  0  0  0  0
    0.8388    1.2032    0.0000 C   0  0  0  0  0  0  0  0  0  0  0  0
    0.1238   -0.0344    0.0000 C   0  0  0  0  0  0  0  0  0  0  0  0
   -2.7227   -0.0482    0.0000 C   0  0  0  0  0  0  0  0  0  0  0  0
   -2.7227   -0.8732    0.0000 C   0  0  0  0  0  0  0  0  0  0  0  0
   -1.2926   -0.0482    0.0000 C   0  0  0  0  0  0  0  0  0  0  0  0
   -2.0213    0.3506    0.0000 C   0  0  0  0  0  0  0  0  0  0  0  0
   -4.1528   -0.8732    0.0000 C   0  0  0  0  0  0  0  0  0  0  0  0
   -4.1528   -0.0482    0.0000 C   0  0  0  0  0  0  0  0  0  0  0  0
   -2.0077   -1.2995    0.0000 C   0  0  0  0  0  0  0  0  0  0  0  0
   -1.3063   -0.8869    0.0000 C   0  0  0  0  0  0  0  0  0  0  0  0
   -3.4514    1.1895    0.0000 C   0  0  0  0  0  0  0  0  0  0  0  0
   -4.1528    1.6020    0.0000 C   0  0  0  0  0  0  0  0  0  0  0  0
   -4.8266    1.1207    0.0000 C   0  0  0  0  0  0  0  0  0  0  0  0
  1 13  2  0  0  0  0
  2 22  2  0  0  0  0
  3 31  2  0  0  0  0
  4  8  1  0  0  0  0
  4  9  1  0  0  0  0
  4 10  1  0  0  0  0
  5 13  1  0  0  0  0
  5 14  1  0  0  0  0
  6 23  1  0  0  0  0
  6 28  1  0  0  0  0
  6 31  1  0  0  0  0
  7 22  1  0  0  0  0
  7 25  1  0  0  0  0
  8 14  1  0  0  0  0
  8 15  1  0  0  0  0
  8 16  1  0  0  0  0
  9 11  1  0  0  0  0
  9 17  2  0  0  0  0
 10 12  2  0  0  0  0
 10 13  1  0  0  0  0
 11 12  1  0  0  0  0
 11 20  2  0  0  0  0
 15 18  1  0  0  0  0
 16 18  1  0  0  0  0
 17 19  1  0  0  0  0
 19 21  2  0  0  0  0
 19 22  1  0  0  0  0
 20 21  1  0  0  0  0
 23 24  2  0  0  0  0
 23 26  1  0  0  0  0
 24 27  1  0  0  0  0
 24 29  1  0  0  0  0
 25 26  2  0  0  0  0
 25 30  1  0  0  0  0
 27 28  1  0  0  0  0
 29 30  2  0  0  0  0
 31 32  1  0  0  0  0
 32 33  2  0  0  0  0
M  END
> <PUBCHEM_COMPOUND_ID_TYPE>
0

> <PUBCHEM_TOTAL_CHARGE>
0

> <PUBCHEM_SUBSTANCE_ID>
310944795

> <PUBCHEM_SUBSTANCE_VERSION>
1

> <PUBCHEM_EXT_DATASOURCE_NAME>
4488

> <PUBCHEM_EXT_DATASOURCE_REGID>
SCHEMBL16122874

> <PUBCHEM_SUBSTANCE_COMMENT>
InChI=1S/C26H24N4O3/c1-2-23(31)29-11-8-16-6-7-19(14-20(16)29)28-24(32)18-5-4-17-12-22-25(33)27-15-26(9-3-10-26)30(22)21(17)13-18/h2,4-7,12-14H,1,3,8-11,15H2,(H,27,33)(H,28,32)
InChIKey=UYHSMQWLRKSEAR-UHFFFAOYSA-N

> <PUBCHEM_SUBSTANCE_SYNONYM>
SCHEMBL16122874

> <PUBCHEM_XREF_EXT_ID>
SCHEMBL16122874

> <PUBCHEM_EXT_DATASOURCE_URL>
https://www.surechembl.org/

> <PUBCHEM_EXT_SUBSTANCE_URL>
https://www.surechembl.org/chemical/SCHEMBL16122874

> <PUBCHEM_CID_ASSOCIATIONS>
117611007  1

> <PUBCHEM_COORDINATE_TYPE>
1
3

$$$$
