310949945
  -OEChem-07211613022D

 30 35  0     1  0  0  0  0  0999 V2000
   -0.8868    1.3925    0.0000 N   0  0  0  0  0  0  0  0  0  0  0  0
   -0.8868    2.7366    0.0000 N   0  0  0  0  0  0  0  0  0  0  0  0
   -0.1247   -0.9769    0.0000 N   0  0  0  0  0  0  0  0  0  0  0  0
    1.7043    1.6558    0.0000 N   0  0  0  0  0  0  0  0  0  0  0  0
    2.3139   -1.4757    0.0000 C   0  0  0  0  0  0  0  0  0  0  0  0
    1.5103   -1.3233    0.0000 C   0  0  3  0  0  0  0  0  0  0  0  0
    2.5633   -2.2793    0.0000 C   0  0  3  0  0  0  0  0  0  0  0  0
   -0.4157    2.0715    0.0000 C   0  0  0  0  0  0  0  0  0  0  0  0
   -1.6904    1.6696    0.0000 C   0  0  0  0  0  0  0  0  0  0  0  0
    0.9423   -1.9329    0.0000 C   0  0  0  0  0  0  0  0  0  0  0  0
   -1.6766    2.4872    0.0000 C   0  0  0  0  0  0  0  0  0  0  0  0
    1.7736   -2.0576    0.0000 C   0  0  0  0  0  0  0  0  0  0  0  0
   -0.6374    0.6305    0.0000 C   0  0  0  0  0  0  0  0  0  0  0  0
    0.4295    2.0576    0.0000 C   0  0  3  0  0  0  0  0  0  0  0  0
    2.0230   -2.8890    0.0000 C   0  0  0  0  0  0  0  0  0  0  0  0
    1.2055   -2.7089    0.0000 C   0  0  0  0  0  0  0  0  0  0  0  0
    0.1386   -1.7528    0.0000 C   0  0  0  0  0  0  0  0  0  0  0  0
   -2.3971    1.2401    0.0000 C   0  0  0  0  0  0  0  0  0  0  0  0
   -1.1916   -0.0208    0.0000 C   0  0  0  0  0  0  0  0  0  0  0  0
    0.1801    0.4364    0.0000 C   0  0  0  0  0  0  0  0  0  0  0  0
    2.4803   -0.6720    0.0000 C   0  0  0  0  0  0  0  0  0  0  0  0
    3.1176   -1.2263    0.0000 C   0  0  0  0  0  0  0  0  0  0  0  0
   -2.3971    2.8890    0.0000 C   0  0  0  0  0  0  0  0  0  0  0  0
   -0.9283   -0.7967    0.0000 C   0  0  0  0  0  0  0  0  0  0  0  0
    0.4295   -0.3533    0.0000 C   0  0  0  0  0  0  0  0  0  0  0  0
    0.9283    1.4064    0.0000 C   0  0  0  0  0  0  0  0  0  0  0  0
    0.9006    2.7227    0.0000 C   0  0  0  0  0  0  0  0  0  0  0  0
   -3.1176    1.6558    0.0000 C   0  0  0  0  0  0  0  0  0  0  0  0
   -3.1176    2.4872    0.0000 C   0  0  0  0  0  0  0  0  0  0  0  0
    1.7043    2.4872    0.0000 C   0  0  0  0  0  0  0  0  0  0  0  0
  1  8  1  0  0  0  0
  1  9  1  0  0  0  0
  1 13  1  0  0  0  0
  2  8  2  0  0  0  0
  2 11  1  0  0  0  0
  3 17  1  0  0  0  0
  3 24  1  0  0  0  0
  3 25  1  0  0  0  0
  4 26  1  0  0  0  0
  4 30  1  0  0  0  0
  5  6  1  0  0  0  0
  5  7  1  0  0  0  0
  5 21  1  0  0  0  0
  5 22  1  0  0  0  0
  6 10  1  0  0  0  0
  6 12  1  6  0  0  0
  7 12  1  6  0  0  0
  7 15  1  0  0  0  0
 14  8  1  6  0  0  0
  9 11  1  0  0  0  0
  9 18  2  0  0  0  0
 10 16  2  0  0  0  0
 10 17  1  0  0  0  0
 11 23  2  0  0  0  0
 13 19  1  0  0  0  0
 13 20  1  0  0  0  0
 14 26  1  0  0  0  0
 14 27  1  0  0  0  0
 15 16  1  0  0  0  0
 18 28  1  0  0  0  0
 19 24  1  0  0  0  0
 20 25  1  0  0  0  0
 23 29  1  0  0  0  0
 27 30  1  0  0  0  0
 28 29  2  0  0  0  0
M  END
> <PUBCHEM_COMPOUND_ID_TYPE>
0

> <PUBCHEM_TOTAL_CHARGE>
0

> <PUBCHEM_SUBSTANCE_ID>
310949945

> <PUBCHEM_SUBSTANCE_VERSION>
1

> <PUBCHEM_EXT_DATASOURCE_NAME>
4488

> <PUBCHEM_EXT_DATASOURCE_REGID>
SCHEMBL16128172

> <PUBCHEM_SUBSTANCE_COMMENT>
InChI=1S/C26H36N4/c1-26(2)20-8-7-19(22(26)15-20)17-29-13-10-21(11-14-29)30-24-6-4-3-5-23(24)28-25(30)18-9-12-27-16-18/h3-7,18,20-22,27H,8-17H2,1-2H3/t18-,20+,22+/m1/s1
InChIKey=XSTLVALVWOEGRK-CBQOVEMMSA-N

> <PUBCHEM_SUBSTANCE_SYNONYM>
SCHEMBL16128172

> <PUBCHEM_XREF_EXT_ID>
SCHEMBL16128172

> <PUBCHEM_EXT_DATASOURCE_URL>
https://www.surechembl.org/

> <PUBCHEM_EXT_SUBSTANCE_URL>
https://www.surechembl.org/chemical/SCHEMBL16128172

> <PUBCHEM_CID_ASSOCIATIONS>
117615205  1

> <PUBCHEM_COORDINATE_TYPE>
1
3

> <PUBCHEM_BONDANNOTATIONS>
6  12  6
7  12  6
14  8  6

$$$$
