310944935
  -OEChem-07211613022D

 22 24  0     0  0  0  0  0  0999 V2000
    0.2447    2.8770    0.0000 Cl  0  0  0  0  0  0  0  0  0  0  0  0
    1.4484   -1.6336    0.0000 S   0  0  0  0  0  0  0  0  0  0  0  0
    2.9035   -0.0463    0.0000 O   0  0  0  0  0  0  0  0  0  0  0  0
   -2.7315   -1.7394    0.0000 O   0  0  0  0  0  0  0  0  0  0  0  0
   -1.8982   -0.2183    0.0000 O   0  0  0  0  0  0  0  0  0  0  0  0
    1.4616   -0.2580    0.0000 N   0  0  0  0  0  0  0  0  0  0  0  0
    0.1389   -0.9193    0.0000 N   0  0  0  0  0  0  0  0  0  0  0  0
   -0.6812   -0.9193    0.0000 N   0  0  0  0  0  0  0  0  0  0  0  0
    0.9855   -0.8664    0.0000 C   0  0  0  0  0  0  0  0  0  0  0  0
    1.2103    0.5886    0.0000 C   0  0  0  0  0  0  0  0  0  0  0  0
    2.2421   -0.4563    0.0000 C   0  0  0  0  0  0  0  0  0  0  0  0
    2.2288   -1.2897    0.0000 C   0  0  0  0  0  0  0  0  0  0  0  0
    1.7526    1.2103    0.0000 C   0  0  0  0  0  0  0  0  0  0  0  0
    0.4167    0.7738    0.0000 C   0  0  0  0  0  0  0  0  0  0  0  0
   -1.4881   -0.8532    0.0000 C   0  0  0  0  0  0  0  0  0  0  0  0
   -1.9114   -1.5939    0.0000 C   0  0  0  0  0  0  0  0  0  0  0  0
    1.5278    1.9908    0.0000 C   0  0  0  0  0  0  0  0  0  0  0  0
    0.1786    1.5410    0.0000 C   0  0  0  0  0  0  0  0  0  0  0  0
    0.7209    2.1759    0.0000 C   0  0  0  0  0  0  0  0  0  0  0  0
   -1.5807   -2.3214    0.0000 C   0  0  0  0  0  0  0  0  0  0  0  0
   -2.9035   -2.4537    0.0000 C   0  0  0  0  0  0  0  0  0  0  0  0
   -2.2024   -2.8770    0.0000 C   0  0  0  0  0  0  0  0  0  0  0  0
  1 19  1  0  0  0  0
  2  9  1  0  0  0  0
  2 12  1  0  0  0  0
  3 11  2  0  0  0  0
  4 16  1  0  0  0  0
  4 21  1  0  0  0  0
  5 15  2  0  0  0  0
  6  9  1  0  0  0  0
  6 10  1  0  0  0  0
  6 11  1  0  0  0  0
  7  8  1  0  0  0  0
  7  9  2  3  0  0  0
  8 15  1  0  0  0  0
 10 13  2  0  0  0  0
 10 14  1  0  0  0  0
 11 12  1  0  0  0  0
 13 17  1  0  0  0  0
 14 18  2  0  0  0  0
 15 16  1  0  0  0  0
 16 20  2  0  0  0  0
 17 19  2  0  0  0  0
 18 19  1  0  0  0  0
 20 22  1  0  0  0  0
 21 22  2  0  0  0  0
M  END
> <PUBCHEM_COMPOUND_ID_TYPE>
0

> <PUBCHEM_TOTAL_CHARGE>
0

> <PUBCHEM_SUBSTANCE_ID>
310944935

> <PUBCHEM_SUBSTANCE_VERSION>
1

> <PUBCHEM_EXT_DATASOURCE_NAME>
4488

> <PUBCHEM_EXT_DATASOURCE_REGID>
SCHEMBL16123020

> <PUBCHEM_SUBSTANCE_COMMENT>
InChI=1S/C14H10ClN3O3S/c15-9-3-5-10(6-4-9)18-12(19)8-22-14(18)17-16-13(20)11-2-1-7-21-11/h1-7H,8H2,(H,16,20)/b17-14+
InChIKey=CAEPIOSDSWBBRJ-SAPNQHFASA-N

> <PUBCHEM_SUBSTANCE_SYNONYM>
SCHEMBL16123020

> <PUBCHEM_XREF_EXT_ID>
SCHEMBL16123020

> <PUBCHEM_EXT_DATASOURCE_URL>
https://www.surechembl.org/

> <PUBCHEM_EXT_SUBSTANCE_URL>
https://www.surechembl.org/chemical/SCHEMBL16123020

> <PUBCHEM_CID_ASSOCIATIONS>
117611094  1

> <PUBCHEM_COORDINATE_TYPE>
1
3

$$$$
