310939217
  -OEChem-07211613022D

 23 24  0     1  0  0  0  0  0999 V2000
    0.0000    1.0865    0.0000 Cl  0  0  0  0  0  0  0  0  0  0  0  0
    2.8579    1.0865    0.0000 S   0  0  0  0  0  0  0  0  0  0  0  0
   -1.4289   -1.3885    0.0000 F   0  0  0  0  0  0  0  0  0  0  0  0
    0.0000   -0.5635    0.0000 O   0  0  0  0  0  0  0  0  0  0  0  0
    2.4454    1.8010    0.0000 O   0  0  0  0  0  0  0  0  0  0  0  0
    3.2704    0.3720    0.0000 O   0  0  0  0  0  0  0  0  0  0  0  0
   -3.5724   -0.1510    0.0000 N   0  0  0  0  0  0  0  0  0  0  0  0
   -0.7145   -0.1510    0.0000 C   0  0  0  0  0  0  0  0  0  0  0  0
   -1.4289   -0.5635    0.0000 C   0  0  0  0  0  0  0  0  0  0  0  0
   -2.1434   -0.1510    0.0000 C   0  0  0  0  0  0  0  0  0  0  0  0
   -0.7145    0.6740    0.0000 C   0  0  0  0  0  0  0  0  0  0  0  0
    0.7145   -0.1510    0.0000 C   0  0  0  0  0  0  0  0  0  0  0  0
    2.1434    0.6740    0.0000 C   0  0  0  0  0  0  0  0  0  0  0  0
   -2.1434    0.6740    0.0000 C   0  0  0  0  0  0  0  0  0  0  0  0
   -2.8579   -0.5635    0.0000 C   0  0  3  0  0  0  0  0  0  0  0  0
   -1.4289    1.0865    0.0000 C   0  0  0  0  0  0  0  0  0  0  0  0
    1.4289   -0.5635    0.0000 C   0  0  0  0  0  0  0  0  0  0  0  0
    0.7145    0.6740    0.0000 C   0  0  0  0  0  0  0  0  0  0  0  0
    2.1434   -0.1510    0.0000 C   0  0  0  0  0  0  0  0  0  0  0  0
    1.4289    1.0865    0.0000 C   0  0  0  0  0  0  0  0  0  0  0  0
   -2.8579   -1.3885    0.0000 C   0  0  0  0  0  0  0  0  0  0  0  0
    3.5724    1.4990    0.0000 C   0  0  0  0  0  0  0  0  0  0  0  0
   -3.5724   -1.8010    0.0000 C   0  0  0  0  0  0  0  0  0  0  0  0
  1 11  1  0  0  0  0
  2  5  2  0  0  0  0
  2  6  2  0  0  0  0
  2 13  1  0  0  0  0
  2 22  1  0  0  0  0
  3  9  1  0  0  0  0
  4  8  1  0  0  0  0
  4 12  1  0  0  0  0
 15  7  1  1  0  0  0
  8  9  1  0  0  0  0
  8 11  2  0  0  0  0
  9 10  2  0  0  0  0
 10 14  1  0  0  0  0
 10 15  1  0  0  0  0
 11 16  1  0  0  0  0
 12 17  2  0  0  0  0
 12 18  1  0  0  0  0
 13 19  2  0  0  0  0
 13 20  1  0  0  0  0
 14 16  2  0  0  0  0
 15 21  1  0  0  0  0
 17 19  1  0  0  0  0
 18 20  2  0  0  0  0
 21 23  1  0  0  0  0
M  END
> <PUBCHEM_COMPOUND_ID_TYPE>
0

> <PUBCHEM_TOTAL_CHARGE>
0

> <PUBCHEM_SUBSTANCE_ID>
310939217

> <PUBCHEM_SUBSTANCE_VERSION>
1

> <PUBCHEM_EXT_DATASOURCE_NAME>
4488

> <PUBCHEM_EXT_DATASOURCE_REGID>
SCHEMBL16117138

> <PUBCHEM_SUBSTANCE_COMMENT>
InChI=1S/C16H17ClFNO3S/c1-3-14(19)12-8-9-13(17)16(15(12)18)22-10-4-6-11(7-5-10)23(2,20)21/h4-9,14H,3,19H2,1-2H3/t14-/m1/s1
InChIKey=YHOBHTQJKBVKSN-CQSZACIVSA-N

> <PUBCHEM_SUBSTANCE_SYNONYM>
SCHEMBL16117138

> <PUBCHEM_XREF_EXT_ID>
SCHEMBL16117138

> <PUBCHEM_EXT_DATASOURCE_URL>
https://www.surechembl.org/

> <PUBCHEM_EXT_SUBSTANCE_URL>
https://www.surechembl.org/chemical/SCHEMBL16117138

> <PUBCHEM_CID_ASSOCIATIONS>
117606566  1

> <PUBCHEM_COORDINATE_TYPE>
1
3

> <PUBCHEM_BONDANNOTATIONS>
15  7  5

$$$$
