310937200
  -OEChem-07211613022D

 27 29  0     0  0  0  0  0  0999 V2000
    0.3953    0.0000    0.0000 F   0  0  0  0  0  0  0  0  0  0  0  0
    0.0000   -0.8236    0.0000 F   0  0  0  0  0  0  0  0  0  0  0  0
    5.0407   -0.9884    0.0000 F   0  0  0  0  0  0  0  0  0  0  0  0
    3.7887   -0.2965    0.0000 F   0  0  0  0  0  0  0  0  0  0  0  0
    4.6124   -0.2965    0.0000 F   0  0  0  0  0  0  0  0  0  0  0  0
    2.9981   -1.7461    0.0000 O   0  0  0  0  0  0  0  0  0  0  0  0
    1.3837   -1.7461    0.0000 N   0  0  0  0  0  0  0  0  0  0  0  0
    1.7791   -3.8876    0.0000 N   0  0  0  0  0  0  0  0  0  0  0  0
    3.8217   -4.6783    0.0000 N   0  0  0  0  0  0  0  0  0  0  0  0
    2.6357   -5.3372    0.0000 N   0  0  0  0  0  0  0  0  0  0  0  0
    1.7791   -2.4380    0.0000 C   0  0  0  0  0  0  0  0  0  0  0  0
    0.8236   -0.7248    0.0000 C   0  0  0  0  0  0  0  0  0  0  0  0
    2.6027   -2.4380    0.0000 C   0  0  0  0  0  0  0  0  0  0  0  0
    0.5930   -1.5155    0.0000 C   0  0  0  0  0  0  0  0  0  0  0  0
    1.6144   -0.9225    0.0000 C   0  0  0  0  0  0  0  0  0  0  0  0
    2.6027   -3.8876    0.0000 C   0  0  0  0  0  0  0  0  0  0  0  0
    2.9981   -4.5795    0.0000 C   0  0  0  0  0  0  0  0  0  0  0  0
    3.0310   -3.1628    0.0000 C   0  0  0  0  0  0  0  0  0  0  0  0
    1.3508   -3.1628    0.0000 C   0  0  0  0  0  0  0  0  0  0  0  0
    3.9864   -5.5019    0.0000 C   0  0  0  0  0  0  0  0  0  0  0  0
    4.7113   -5.8314    0.0000 C   0  0  0  0  0  0  0  0  0  0  0  0
    3.2616   -5.8973    0.0000 C   0  0  0  0  0  0  0  0  0  0  0  0
    3.8217   -1.7132    0.0000 C   0  0  0  0  0  0  0  0  0  0  0  0
    4.2170   -1.0213    0.0000 C   0  0  0  0  0  0  0  0  0  0  0  0
    4.3488   -6.5892    0.0000 C   0  0  0  0  0  0  0  0  0  0  0  0
    5.4690   -6.1609    0.0000 C   0  0  0  0  0  0  0  0  0  0  0  0
    5.0407   -5.1066    0.0000 C   0  0  0  0  0  0  0  0  0  0  0  0
  1 12  1  0  0  0  0
  2 12  1  0  0  0  0
  3 24  1  0  0  0  0
  4 24  1  0  0  0  0
  5 24  1  0  0  0  0
  6 13  1  0  0  0  0
  6 23  1  0  0  0  0
  7 11  1  0  0  0  0
  7 14  1  0  0  0  0
  7 15  1  0  0  0  0
  8 16  1  0  0  0  0
  8 19  2  0  0  0  0
  9 17  1  0  0  0  0
  9 20  1  0  0  0  0
 10 17  2  0  0  0  0
 10 22  1  0  0  0  0
 11 13  2  0  0  0  0
 11 19  1  0  0  0  0
 12 14  1  0  0  0  0
 12 15  1  0  0  0  0
 13 18  1  0  0  0  0
 16 17  1  0  0  0  0
 16 18  2  0  0  0  0
 20 21  1  0  0  0  0
 20 22  2  0  0  0  0
 21 25  1  0  0  0  0
 21 26  1  0  0  0  0
 21 27  1  0  0  0  0
 23 24  1  0  0  0  0
M  END
> <PUBCHEM_COMPOUND_ID_TYPE>
0

> <PUBCHEM_TOTAL_CHARGE>
0

> <PUBCHEM_SUBSTANCE_ID>
310937200

> <PUBCHEM_SUBSTANCE_VERSION>
1

> <PUBCHEM_EXT_DATASOURCE_NAME>
4488

> <PUBCHEM_EXT_DATASOURCE_REGID>
SCHEMBL16114929

> <PUBCHEM_SUBSTANCE_COMMENT>
InChI=1S/C17H19F5N4O/c1-15(2,3)13-6-24-14(25-13)10-4-12(27-9-17(20,21)22)11(5-23-10)26-7-16(18,19)8-26/h4-6H,7-9H2,1-3H3,(H,24,25)
InChIKey=KVFRXZASAOBHCO-UHFFFAOYSA-N

> <PUBCHEM_SUBSTANCE_SYNONYM>
SCHEMBL16114929

> <PUBCHEM_XREF_EXT_ID>
SCHEMBL16114929

> <PUBCHEM_EXT_DATASOURCE_URL>
https://www.surechembl.org/

> <PUBCHEM_EXT_SUBSTANCE_URL>
https://www.surechembl.org/chemical/SCHEMBL16114929

> <PUBCHEM_CID_ASSOCIATIONS>
86276001  1

> <PUBCHEM_COORDINATE_TYPE>
1
3

$$$$
