310944791
  -OEChem-07211613022D

 28 32  0     1  0  0  0  0  0999 V2000
    1.9647    1.3374    0.0000 S   0  0  0  0  0  0  0  0  0  0  0  0
   -1.1899   -0.7840    0.0000 O   0  0  0  0  0  0  0  0  0  0  0  0
    3.5881    1.5035    0.0000 O   0  0  0  0  0  0  0  0  0  0  0  0
   -3.2007    1.3743    0.0000 O   0  5  0  0  0  0  0  0  0  0  0  0
   -4.3814    0.6180    0.0000 O   0  0  0  0  0  0  0  0  0  0  0  0
   -1.7802    0.4335    0.0000 N   0  0  0  0  0  0  0  0  0  0  0  0
    2.2230   -0.7840    0.0000 N   0  0  0  0  0  0  0  0  0  0  0  0
    3.8833    0.1015    0.0000 N   0  0  0  0  0  0  0  0  0  0  0  0
   -3.5881    0.6549    0.0000 N   0  3  0  0  0  0  0  0  0  0  0  0
    1.1714    0.2859    0.0000 C   0  0  0  0  0  0  0  0  0  0  0  0
    1.9647    0.0092    0.0000 C   0  0  0  0  0  0  0  0  0  0  0  0
    1.1899    1.0976    0.0000 C   0  0  0  0  0  0  0  0  0  0  0  0
    2.4444    0.6733    0.0000 C   0  0  0  0  0  0  0  0  0  0  0  0
   -0.3044    0.4151    0.0000 C   0  0  0  0  0  0  0  0  0  0  0  0
   -1.0423    0.0461    0.0000 C   0  0  0  0  0  0  0  0  0  0  0  0
   -2.3890   -0.1384    0.0000 C   0  0  0  0  0  0  0  0  0  0  0  0
    0.3782   -0.0277    0.0000 C   0  0  0  0  0  0  0  0  0  0  0  0
   -2.0201   -0.8947    0.0000 C   0  0  0  0  0  0  0  0  0  0  0  0
    3.3299    0.7102    0.0000 C   0  0  0  0  0  0  0  0  0  0  0  0
    0.5258    1.5588    0.0000 C   0  0  0  0  0  0  0  0  0  0  0  0
   -3.2192   -0.0830    0.0000 C   0  0  0  0  0  0  0  0  0  0  0  0
   -0.2306    1.2268    0.0000 C   0  0  0  0  0  0  0  0  0  0  0  0
   -2.4628   -1.5588    0.0000 C   0  0  0  0  0  0  0  0  0  0  0  0
   -3.6619   -0.8025    0.0000 C   0  0  0  0  0  0  0  0  0  0  0  0
    3.0163   -1.1161    0.0000 C   0  0  0  0  0  0  0  0  0  0  0  0
    3.7173   -0.7287    0.0000 C   0  0  3  0  0  0  0  0  0  0  0  0
   -3.2930   -1.5219    0.0000 C   0  0  0  0  0  0  0  0  0  0  0  0
    4.3814   -1.2083    0.0000 C   0  0  0  0  0  0  0  0  0  0  0  0
  1 12  1  0  0  0  0
  1 13  1  0  0  0  0
  2 15  1  0  0  0  0
  2 18  1  0  0  0  0
  3 19  2  0  0  0  0
  4  9  1  0  0  0  0
  5  9  2  0  0  0  0
  6 15  2  0  0  0  0
  6 16  1  0  0  0  0
  7 11  1  0  0  0  0
  7 25  1  0  0  0  0
  8 19  1  0  0  0  0
  8 26  1  0  0  0  0
  9 21  1  0  0  0  0
 10 11  1  0  0  0  0
 10 12  2  0  0  0  0
 10 17  1  0  0  0  0
 11 13  2  0  0  0  0
 12 20  1  0  0  0  0
 13 19  1  0  0  0  0
 14 15  1  0  0  0  0
 14 17  2  0  0  0  0
 14 22  1  0  0  0  0
 16 18  2  0  0  0  0
 16 21  1  0  0  0  0
 18 23  1  0  0  0  0
 20 22  2  0  0  0  0
 21 24  2  0  0  0  0
 23 27  2  0  0  0  0
 24 27  1  0  0  0  0
 25 26  1  0  0  0  0
 26 28  1  6  0  0  0
M  CHG  2   4  -1   9   1
M  END
> <PUBCHEM_COMPOUND_ID_TYPE>
0

> <PUBCHEM_TOTAL_CHARGE>
0

> <PUBCHEM_SUBSTANCE_ID>
310944791

> <PUBCHEM_SUBSTANCE_VERSION>
1

> <PUBCHEM_EXT_DATASOURCE_NAME>
4488

> <PUBCHEM_EXT_DATASOURCE_REGID>
SCHEMBL16122870

> <PUBCHEM_SUBSTANCE_COMMENT>
InChI=1S/C19H14N4O4S/c1-9-8-20-15-11-7-10(5-6-14(11)28-17(15)18(24)21-9)19-22-16-12(23(25)26)3-2-4-13(16)27-19/h2-7,9,20H,8H2,1H3,(H,21,24)/t9-/m1/s1
InChIKey=NIQITZUASFFKFG-SECBINFHSA-N

> <PUBCHEM_SUBSTANCE_SYNONYM>
SCHEMBL16122870

> <PUBCHEM_XREF_EXT_ID>
SCHEMBL16122870

> <PUBCHEM_EXT_DATASOURCE_URL>
https://www.surechembl.org/

> <PUBCHEM_EXT_SUBSTANCE_URL>
https://www.surechembl.org/chemical/SCHEMBL16122870

> <PUBCHEM_CID_ASSOCIATIONS>
117611005  1

> <PUBCHEM_COORDINATE_TYPE>
1
3

> <PUBCHEM_BONDANNOTATIONS>
26  28  6

$$$$
