310937298
  -OEChem-07211613022D

 11 11  0     0  0  0  0  0  0999 V2000
    0.0000    0.0000    0.0000 Br  0  0  0  0  0  0  0  0  0  0  0  0
    0.0000   -1.7698    0.0000 Cl  0  0  0  0  0  0  0  0  0  0  0  0
    3.1670   -0.1730    0.0000 O   0  0  0  0  0  0  0  0  0  0  0  0
    3.1670   -1.5968    0.0000 O   0  0  0  0  0  0  0  0  0  0  0  0
    1.4638   -1.5569    0.0000 N   0  0  0  0  0  0  0  0  0  0  0  0
    1.9428   -0.8783    0.0000 C   0  0  0  0  0  0  0  0  0  0  0  0
    0.6787   -1.2908    0.0000 C   0  0  0  0  0  0  0  0  0  0  0  0
    0.6787   -0.4790    0.0000 C   0  0  0  0  0  0  0  0  0  0  0  0
    1.4638   -0.2129    0.0000 C   0  0  0  0  0  0  0  0  0  0  0  0
    2.7678   -0.8783    0.0000 C   0  0  0  0  0  0  0  0  0  0  0  0
    3.9920   -0.1730    0.0000 C   0  0  0  0  0  0  0  0  0  0  0  0
  1  8  1  0  0  0  0
  2  7  1  0  0  0  0
  3 10  1  0  0  0  0
  3 11  1  0  0  0  0
  4 10  2  0  0  0  0
  5  6  1  0  0  0  0
  5  7  1  0  0  0  0
  6  9  2  0  0  0  0
  6 10  1  0  0  0  0
  7  8  2  0  0  0  0
  8  9  1  0  0  0  0
M  END
> <PUBCHEM_COMPOUND_ID_TYPE>
0

> <PUBCHEM_TOTAL_CHARGE>
0

> <PUBCHEM_SUBSTANCE_ID>
310937298

> <PUBCHEM_SUBSTANCE_VERSION>
1

> <PUBCHEM_EXT_DATASOURCE_NAME>
4488

> <PUBCHEM_EXT_DATASOURCE_REGID>
SCHEMBL16115046

> <PUBCHEM_SUBSTANCE_COMMENT>
InChI=1S/C6H5BrClNO2/c1-11-6(10)4-2-3(7)5(8)9-4/h2,9H,1H3
InChIKey=CVMCQCWHGHRKKI-UHFFFAOYSA-N

> <PUBCHEM_SUBSTANCE_SYNONYM>
SCHEMBL16115046

> <PUBCHEM_XREF_EXT_ID>
SCHEMBL16115046

> <PUBCHEM_EXT_DATASOURCE_URL>
https://www.surechembl.org/

> <PUBCHEM_EXT_SUBSTANCE_URL>
https://www.surechembl.org/chemical/SCHEMBL16115046

> <PUBCHEM_CID_ASSOCIATIONS>
117605081  1

> <PUBCHEM_COORDINATE_TYPE>
1
3

$$$$
