310944155
  -OEChem-07211613022D

 35 40  0     1  0  0  0  0  0999 V2000
    2.7975    1.0428    0.0000 O   0  0  0  0  0  0  0  0  0  0  0  0
    5.9866    0.4249    0.0000 O   0  0  0  0  0  0  0  0  0  0  0  0
   -1.4180   -1.3629    0.0000 O   0  0  0  0  0  0  0  0  0  0  0  0
    5.9977    1.8926    0.0000 O   0  0  0  0  0  0  0  0  0  0  0  0
    3.9341   -0.1379    0.0000 N   0  0  0  0  0  0  0  0  0  0  0  0
   -0.0718   -0.7338    0.0000 N   0  0  0  0  0  0  0  0  0  0  0  0
   -3.7464   -0.5242    0.0000 N   0  0  0  0  0  0  0  0  0  0  0  0
   -4.6624    0.5683    0.0000 N   0  0  0  0  0  0  0  0  0  0  0  0
   -5.3466    0.1048    0.0000 N   0  0  0  0  0  0  0  0  0  0  0  0
   -5.9977    0.6124    0.0000 N   0  0  0  0  0  0  0  0  0  0  0  0
   -5.7218    1.3850    0.0000 N   0  0  0  0  0  0  0  0  0  0  0  0
    2.5326   -0.4800    0.0000 C   0  0  0  0  0  0  0  0  0  0  0  0
    3.0402    0.2593    0.0000 C   0  0  0  0  0  0  0  0  0  0  0  0
    0.9766   -0.7780    0.0000 C   0  0  3  0  0  0  0  0  0  0  0  0
    0.7449   -0.0607    0.0000 C   0  0  3  0  0  0  0  0  0  0  0  0
    1.8263   -1.4401    0.0000 C   0  0  0  0  0  0  0  0  0  0  0  0
    1.7160   -0.8332    0.0000 C   0  0  0  0  0  0  0  0  0  0  0  0
    2.8747   -1.1532    0.0000 C   0  0  0  0  0  0  0  0  0  0  0  0
    4.6624    0.2483    0.0000 C   0  0  0  0  0  0  0  0  0  0  0  0
    3.6913   -1.0980    0.0000 C   0  0  0  0  0  0  0  0  0  0  0  0
    1.2414   -0.0607    0.0000 C   0  0  0  0  0  0  0  0  0  0  0  0
    0.8332    0.5242    0.0000 C   0  0  0  0  0  0  0  0  0  0  0  0
    4.8058    1.0649    0.0000 C   0  0  0  0  0  0  0  0  0  0  0  0
   -0.8773   -0.0938    0.0000 C   0  0  0  0  0  0  0  0  0  0  0  0
    5.4018   -0.1379    0.0000 C   0  0  0  0  0  0  0  0  0  0  0  0
    5.6004    1.1532    0.0000 C   0  0  0  0  0  0  0  0  0  0  0  0
   -1.5504   -0.5352    0.0000 C   0  0  3  0  0  0  0  0  0  0  0  0
   -2.3450   -0.2593    0.0000 C   0  0  0  0  0  0  0  0  0  0  0  0
    4.2209    1.6388    0.0000 C   0  0  0  0  0  0  0  0  0  0  0  0
   -2.9629   -0.7890    0.0000 C   0  0  0  0  0  0  0  0  0  0  0  0
   -2.4884    0.5463    0.0000 C   0  0  0  0  0  0  0  0  0  0  0  0
   -3.8899    0.3035    0.0000 C   0  0  0  0  0  0  0  0  0  0  0  0
   -3.2720    0.8221    0.0000 C   0  0  0  0  0  0  0  0  0  0  0  0
   -4.8942    1.3629    0.0000 C   0  0  0  0  0  0  0  0  0  0  0  0
   -2.0581   -1.8926    0.0000 C   0  0  0  0  0  0  0  0  0  0  0  0
  1 13  2  0  0  0  0
  2 25  1  0  0  0  0
  2 26  1  0  0  0  0
 27  3  1  6  0  0  0
  3 35  1  0  0  0  0
  4 26  2  0  0  0  0
  5 13  1  0  0  0  0
  5 19  1  0  0  0  0
  5 20  1  0  0  0  0
  6 14  1  0  0  0  0
  6 15  1  0  0  0  0
  6 24  1  0  0  0  0
  7 30  1  0  0  0  0
  7 32  2  0  0  0  0
  8  9  1  0  0  0  0
  8 32  1  0  0  0  0
  8 34  1  0  0  0  0
  9 10  2  0  0  0  0
 10 11  1  0  0  0  0
 11 34  2  0  0  0  0
 12 13  1  0  0  0  0
 12 16  1  0  0  0  0
 12 17  1  0  0  0  0
 12 18  1  0  0  0  0
 14 16  1  0  0  0  0
 14 21  1  0  0  0  0
 15 17  1  0  0  0  0
 15 22  1  0  0  0  0
 18 20  1  0  0  0  0
 19 23  2  0  0  0  0
 19 25  1  0  0  0  0
 21 22  1  0  0  0  0
 23 26  1  0  0  0  0
 23 29  1  0  0  0  0
 24 27  1  0  0  0  0
 27 28  1  0  0  0  0
 28 30  2  0  0  0  0
 28 31  1  0  0  0  0
 31 33  2  0  0  0  0
 32 33  1  0  0  0  0
M  END
> <PUBCHEM_COMPOUND_ID_TYPE>
0

> <PUBCHEM_TOTAL_CHARGE>
0

> <PUBCHEM_SUBSTANCE_ID>
310944155

> <PUBCHEM_SUBSTANCE_VERSION>
1

> <PUBCHEM_EXT_DATASOURCE_NAME>
4488

> <PUBCHEM_EXT_DATASOURCE_REGID>
SCHEMBL16122230

> <PUBCHEM_SUBSTANCE_COMMENT>
InChI=1S/C24H29N7O4/c1-15-19(13-35-22(15)32)29-8-7-24(23(29)33)9-17-4-5-18(10-24)30(17)12-20(34-2)16-3-6-21(25-11-16)31-14-26-27-28-31/h3,6,11,14,17-18,20H,4-5,7-10,12-13H2,1-2H3/t17?,18?,20-,24?/m0/s1
InChIKey=KHZKINMNFCMAGW-JAZMGGTGSA-N

> <PUBCHEM_SUBSTANCE_SYNONYM>
SCHEMBL16122230

> <PUBCHEM_XREF_EXT_ID>
SCHEMBL16122230

> <PUBCHEM_EXT_DATASOURCE_URL>
https://www.surechembl.org/

> <PUBCHEM_EXT_SUBSTANCE_URL>
https://www.surechembl.org/chemical/SCHEMBL16122230

> <PUBCHEM_CID_ASSOCIATIONS>
117610436  1

> <PUBCHEM_COORDINATE_TYPE>
1
3

> <PUBCHEM_BONDANNOTATIONS>
27  3  6

$$$$
