310938597
  -OEChem-07211613022D

 14 15  0     0  0  0  0  0  0999 V2000
    4.4424  -11.6596    0.0000 N   0  0  0  0  0  0  0  0  0  0  0  0
    4.4424  -14.4763    0.0000 N   0  0  0  0  0  0  0  0  0  0  0  0
    4.4424  -12.8263    0.0000 C   0  0  0  0  0  0  0  0  0  0  0  0
    5.0258  -12.2429    0.0000 C   0  0  0  0  0  0  0  0  0  0  0  0
    3.8590  -12.2429    0.0000 C   0  0  0  0  0  0  0  0  0  0  0  0
    3.7279  -13.2388    0.0000 C   0  0  0  0  0  0  0  0  0  0  0  0
    5.1569  -13.2388    0.0000 C   0  0  0  0  0  0  0  0  0  0  0  0
    4.4424  -15.3013    0.0000 C   0  0  0  0  0  0  0  0  0  0  0  0
    3.7279  -14.0638    0.0000 C   0  0  0  0  0  0  0  0  0  0  0  0
    5.1569  -14.0638    0.0000 C   0  0  0  0  0  0  0  0  0  0  0  0
    4.4424  -10.8346    0.0000 C   0  0  0  0  0  0  0  0  0  0  0  0
    5.2674  -15.3013    0.0000 C   0  0  0  0  0  0  0  0  0  0  0  0
    3.6174  -15.3013    0.0000 C   0  0  0  0  0  0  0  0  0  0  0  0
    4.4424  -16.1263    0.0000 C   0  0  0  0  0  0  0  0  0  0  0  0
  1  4  1  0  0  0  0
  1  5  1  0  0  0  0
  1 11  1  0  0  0  0
  2  8  1  0  0  0  0
  2  9  1  0  0  0  0
  2 10  1  0  0  0  0
  3  4  1  0  0  0  0
  3  5  1  0  0  0  0
  3  6  1  0  0  0  0
  3  7  1  0  0  0  0
  6  9  1  0  0  0  0
  7 10  1  0  0  0  0
  8 12  1  0  0  0  0
  8 13  1  0  0  0  0
  8 14  1  0  0  0  0
M  END
> <PUBCHEM_COMPOUND_ID_TYPE>
0

> <PUBCHEM_TOTAL_CHARGE>
0

> <PUBCHEM_SUBSTANCE_ID>
310938597

> <PUBCHEM_SUBSTANCE_VERSION>
1

> <PUBCHEM_EXT_DATASOURCE_NAME>
4488

> <PUBCHEM_EXT_DATASOURCE_REGID>
SCHEMBL16116511

> <PUBCHEM_SUBSTANCE_COMMENT>
InChI=1S/C12H24N2/c1-11(2,3)14-7-5-12(6-8-14)9-13(4)10-12/h5-10H2,1-4H3
InChIKey=JXAIPLKUAXAARB-UHFFFAOYSA-N

> <PUBCHEM_SUBSTANCE_SYNONYM>
SCHEMBL16116511

> <PUBCHEM_XREF_EXT_ID>
SCHEMBL16116511

> <PUBCHEM_EXT_DATASOURCE_URL>
https://www.surechembl.org/

> <PUBCHEM_EXT_SUBSTANCE_URL>
https://www.surechembl.org/chemical/SCHEMBL16116511

> <PUBCHEM_CID_ASSOCIATIONS>
117606030  1

> <PUBCHEM_COORDINATE_TYPE>
1
3

> <PUBCHEM_BONDANNOTATIONS>
8  12  3
8  13  3

$$$$
