310941036
  -OEChem-07211613022D

 42 45  0     1  0  0  0  0  0999 V2000
    5.0708    0.6685    0.0000 O   0  0  0  0  0  0  0  0  0  0  0  0
    3.9471   -1.2801    0.0000 O   0  0  0  0  0  0  0  0  0  0  0  0
    1.7993    0.7823    0.0000 O   0  0  0  0  0  0  0  0  0  0  0  0
   -0.3484   -1.2801    0.0000 O   0  0  0  0  0  0  0  0  0  0  0  0
    3.9471   -2.9301    0.0000 O   0  0  0  0  0  0  0  0  0  0  0  0
   -2.4963    0.7823    0.0000 O   0  0  0  0  0  0  0  0  0  0  0  0
   -5.3695    0.7823    0.0000 O   0  0  0  0  0  0  0  0  0  0  0  0
    2.5105   -0.4694    0.0000 N   0  0  0  0  0  0  0  0  0  0  0  0
    0.3627   -0.0569    0.0000 N   0  0  0  0  0  0  0  0  0  0  0  0
   -1.7851   -0.4694    0.0000 N   0  0  0  0  0  0  0  0  0  0  0  0
   -3.9328   -0.0569    0.0000 N   0  0  0  0  0  0  0  0  0  0  0  0
    4.6583   -0.0142    0.0000 C   0  0  3  0  0  0  0  0  0  0  0  0
    3.9471   -0.4267    0.0000 C   0  0  0  0  0  0  0  0  0  0  0  0
    4.2742    0.6828    0.0000 C   0  0  0  0  0  0  0  0  0  0  0  0
    3.2359   -0.0284    0.0000 C   0  0  3  0  0  0  0  0  0  0  0  0
    5.3695   -0.4267    0.0000 C   0  0  0  0  0  0  0  0  0  0  0  0
    3.2359    1.2943    0.0000 C   0  0  0  0  0  0  0  0  0  0  0  0
    1.7851   -0.0427    0.0000 C   0  0  0  0  0  0  0  0  0  0  0  0
    1.1023   -0.4267    0.0000 C   0  0  3  0  0  0  0  0  0  0  0  0
    2.5247    1.7210    0.0000 C   0  0  0  0  0  0  0  0  0  0  0  0
    1.0739   -1.2801    0.0000 C   0  0  0  0  0  0  0  0  0  0  0  0
    1.8135   -1.6642    0.0000 C   0  0  0  0  0  0  0  0  0  0  0  0
   -0.3342   -0.4125    0.0000 C   0  0  0  0  0  0  0  0  0  0  0  0
    1.7993    1.3086    0.0000 C   0  0  0  0  0  0  0  0  0  0  0  0
    2.5247    2.5176    0.0000 C   0  0  0  0  0  0  0  0  0  0  0  0
   -1.0739   -0.0284    0.0000 C   0  0  3  0  0  0  0  0  0  0  0  0
    2.5105   -1.2801    0.0000 C   0  0  0  0  0  0  0  0  0  0  0  0
    1.8135   -2.5034    0.0000 C   0  0  0  0  0  0  0  0  0  0  0  0
    1.1023    1.7068    0.0000 C   0  0  0  0  0  0  0  0  0  0  0  0
    1.7851    2.9301    0.0000 C   0  0  0  0  0  0  0  0  0  0  0  0
    3.2359   -2.4891    0.0000 C   0  0  0  0  0  0  0  0  0  0  0  0
    3.2359   -1.6784    0.0000 C   0  0  0  0  0  0  0  0  0  0  0  0
    2.5247   -2.9016    0.0000 C   0  0  0  0  0  0  0  0  0  0  0  0
    1.1023    2.5318    0.0000 C   0  0  0  0  0  0  0  0  0  0  0  0
   -2.5105   -0.0427    0.0000 C   0  0  0  0  0  0  0  0  0  0  0  0
   -3.1932   -0.4267    0.0000 C   0  0  0  0  0  0  0  0  0  0  0  0
   -1.0597    0.7965    0.0000 C   0  0  0  0  0  0  0  0  0  0  0  0
   -3.9328    0.7965    0.0000 C   0  0  0  0  0  0  0  0  0  0  0  0
   -4.6298   -0.4267    0.0000 C   0  0  0  0  0  0  0  0  0  0  0  0
   -4.6583    1.2090    0.0000 C   0  0  0  0  0  0  0  0  0  0  0  0
   -5.3410   -0.0284    0.0000 C   0  0  0  0  0  0  0  0  0  0  0  0
    4.6583   -2.4891    0.0000 C   0  0  0  0  0  0  0  0  0  0  0  0
  1 12  1  0  0  0  0
  1 14  1  0  0  0  0
  2 13  2  0  0  0  0
  3 18  2  0  0  0  0
  4 23  2  0  0  0  0
  5 31  1  0  0  0  0
  5 42  1  0  0  0  0
  6 35  2  0  0  0  0
  7 40  1  0  0  0  0
  7 41  1  0  0  0  0
 15  8  1  1  0  0  0
  8 18  1  0  0  0  0
 19  9  1  6  0  0  0
  9 23  1  0  0  0  0
 10 26  1  0  0  0  0
 10 35  1  0  0  0  0
 11 36  1  0  0  0  0
 11 38  1  0  0  0  0
 11 39  1  0  0  0  0
 12 13  1  1  0  0  0
 12 14  1  0  0  0  0
 12 16  1  6  0  0  0
 13 15  1  0  0  0  0
 15 17  1  0  0  0  0
 17 20  1  0  0  0  0
 18 19  1  0  0  0  0
 19 21  1  0  0  0  0
 20 24  2  0  0  0  0
 20 25  1  0  0  0  0
 21 22  1  0  0  0  0
 22 27  2  0  0  0  0
 22 28  1  0  0  0  0
 23 26  1  0  0  0  0
 24 29  1  0  0  0  0
 25 30  1  0  0  0  0
 26 37  1  1  0  0  0
 27 32  1  0  0  0  0
 28 33  2  0  0  0  0
 29 34  1  0  0  0  0
 30 34  1  0  0  0  0
 31 32  2  0  0  0  0
 31 33  1  0  0  0  0
 35 36  1  0  0  0  0
 38 40  1  0  0  0  0
 39 41  1  0  0  0  0
M  END
> <PUBCHEM_COMPOUND_ID_TYPE>
0

> <PUBCHEM_TOTAL_CHARGE>
0

> <PUBCHEM_SUBSTANCE_ID>
310941036

> <PUBCHEM_SUBSTANCE_VERSION>
1

> <PUBCHEM_EXT_DATASOURCE_NAME>
4488

> <PUBCHEM_EXT_DATASOURCE_REGID>
SCHEMBL16118995

> <PUBCHEM_SUBSTANCE_COMMENT>
InChI=1S/C31H44N4O7/c1-21(32-27(36)19-35-13-15-41-16-14-35)29(38)34-26(18-23-9-11-24(40-3)12-10-23)30(39)33-25(28(37)31(2)20-42-31)17-22-7-5-4-6-8-22/h7,9-12,21,25-26H,4-6,8,13-20H2,1-3H3,(H,32,36)(H,33,39)(H,34,38)/t21-,25-,26-,31+/m0/s1
InChIKey=PVOIKOSYTZPUDH-VTNASVEKSA-N

> <PUBCHEM_SUBSTANCE_SYNONYM>
SCHEMBL16118995

> <PUBCHEM_XREF_EXT_ID>
SCHEMBL16118995

> <PUBCHEM_EXT_DATASOURCE_URL>
https://www.surechembl.org/

> <PUBCHEM_EXT_SUBSTANCE_URL>
https://www.surechembl.org/chemical/SCHEMBL16118995

> <PUBCHEM_CID_ASSOCIATIONS>
117607930  1

> <PUBCHEM_COORDINATE_TYPE>
1
3

> <PUBCHEM_BONDANNOTATIONS>
12  13  5
12  16  6
26  37  5
15  8  5
19  9  6

$$$$
