310941879
  -OEChem-07211613022D

 29 32  0     0  0  0  0  0  0999 V2000
    4.3861    2.1721    0.0000 Br  0  0  0  0  0  0  0  0  0  0  0  0
    1.1594   -0.1327    0.0000 O   0  0  0  0  0  0  0  0  0  0  0  0
   -3.1848   -0.9848    0.0000 O   0  0  0  0  0  0  0  0  0  0  0  0
   -2.4585   -2.2280    0.0000 O   0  0  0  0  0  0  0  0  0  0  0  0
    3.3245    1.1245    0.0000 N   0  0  0  0  0  0  0  0  0  0  0  0
    4.1207    0.0210    0.0000 N   0  0  0  0  0  0  0  0  0  0  0  0
    4.6236    0.7054    0.0000 N   0  0  0  0  0  0  0  0  0  0  0  0
   -1.7321   -0.9708    0.0000 N   0  0  0  0  0  0  0  0  0  0  0  0
    1.8858    1.1245    0.0000 C   0  0  0  0  0  0  0  0  0  0  0  0
    1.8718    0.2863    0.0000 C   0  0  0  0  0  0  0  0  0  0  0  0
    3.3106    0.3003    0.0000 C   0  0  0  0  0  0  0  0  0  0  0  0
    1.1454    1.5575    0.0000 C   0  0  0  0  0  0  0  0  0  0  0  0
    2.5702    1.5296    0.0000 C   0  0  0  0  0  0  0  0  0  0  0  0
    2.6261   -0.1187    0.0000 C   0  0  0  0  0  0  0  0  0  0  0  0
    4.1207    1.3759    0.0000 C   0  0  0  0  0  0  0  0  0  0  0  0
   -0.2934   -0.1048    0.0000 C   0  0  0  0  0  0  0  0  0  0  0  0
    0.3492    1.5575    0.0000 C   0  0  0  0  0  0  0  0  0  0  0  0
    0.7403    2.2420    0.0000 C   0  0  0  0  0  0  0  0  0  0  0  0
    0.4330    0.2863    0.0000 C   0  0  0  0  0  0  0  0  0  0  0  0
   -0.2934   -0.9848    0.0000 C   0  0  0  0  0  0  0  0  0  0  0  0
   -1.0337    0.2724    0.0000 C   0  0  0  0  0  0  0  0  0  0  0  0
   -1.0058   -1.3899    0.0000 C   0  0  0  0  0  0  0  0  0  0  0  0
   -1.7182   -0.1187    0.0000 C   0  0  0  0  0  0  0  0  0  0  0  0
   -2.4585   -1.3620    0.0000 C   0  0  0  0  0  0  0  0  0  0  0  0
   -0.2794    0.7194    0.0000 C   0  0  0  0  0  0  0  0  0  0  0  0
   -3.8972   -1.3759    0.0000 C   0  0  0  0  0  0  0  0  0  0  0  0
   -3.8972   -0.5517    0.0000 C   0  0  0  0  0  0  0  0  0  0  0  0
   -4.6236   -0.9848    0.0000 C   0  0  0  0  0  0  0  0  0  0  0  0
   -3.8833   -2.2420    0.0000 C   0  0  0  0  0  0  0  0  0  0  0  0
  1 15  1  0  0  0  0
  2 10  1  0  0  0  0
  2 19  1  0  0  0  0
  3 24  1  0  0  0  0
  3 26  1  0  0  0  0
  4 24  2  0  0  0  0
  5 11  1  0  0  0  0
  5 13  1  0  0  0  0
  5 15  1  0  0  0  0
  6  7  1  0  0  0  0
  6 11  2  0  0  0  0
  7 15  2  0  0  0  0
  8 22  1  0  0  0  0
  8 23  1  0  0  0  0
  8 24  1  0  0  0  0
  9 10  1  0  0  0  0
  9 12  1  0  0  0  0
  9 13  2  0  0  0  0
 10 14  2  0  0  0  0
 11 14  1  0  0  0  0
 12 17  1  0  0  0  0
 12 18  1  0  0  0  0
 16 19  1  0  0  0  0
 16 20  1  0  0  0  0
 16 21  1  0  0  0  0
 16 25  1  0  0  0  0
 17 18  1  0  0  0  0
 20 22  1  0  0  0  0
 21 23  1  0  0  0  0
 26 27  1  0  0  0  0
 26 28  1  0  0  0  0
 26 29  1  0  0  0  0
M  END
> <PUBCHEM_COMPOUND_ID_TYPE>
0

> <PUBCHEM_TOTAL_CHARGE>
0

> <PUBCHEM_SUBSTANCE_ID>
310941879

> <PUBCHEM_SUBSTANCE_VERSION>
1

> <PUBCHEM_EXT_DATASOURCE_NAME>
4488

> <PUBCHEM_EXT_DATASOURCE_REGID>
SCHEMBL16119911

> <PUBCHEM_SUBSTANCE_COMMENT>
InChI=1S/C21H29BrN4O3/c1-20(2,3)29-19(27)25-9-7-21(4,8-10-25)13-28-16-11-17-23-24-18(22)26(17)12-15(16)14-5-6-14/h11-12,14H,5-10,13H2,1-4H3
InChIKey=UDCCHZNRCUIZMJ-UHFFFAOYSA-N

> <PUBCHEM_SUBSTANCE_SYNONYM>
SCHEMBL16119911

> <PUBCHEM_XREF_EXT_ID>
SCHEMBL16119911

> <PUBCHEM_EXT_DATASOURCE_URL>
https://www.surechembl.org/

> <PUBCHEM_EXT_SUBSTANCE_URL>
https://www.surechembl.org/chemical/SCHEMBL16119911

> <PUBCHEM_CID_ASSOCIATIONS>
117608615  1

> <PUBCHEM_COORDINATE_TYPE>
1
3

$$$$
