310933480
  -OEChem-07211613022D

 28 31  0     0  0  0  0  0  0999 V2000
   -0.3025   -0.4039    0.0000 O   0  0  0  0  0  0  0  0  0  0  0  0
    0.1652   -4.1555    0.0000 O   0  0  0  0  0  0  0  0  0  0  0  0
   -0.5996   -1.8016    0.0000 N   0  0  0  0  0  0  0  0  0  0  0  0
    1.4269   -0.8751    0.0000 N   0  0  0  0  0  0  0  0  0  0  0  0
   -0.3446   -2.5862    0.0000 N   0  0  0  0  0  0  0  0  0  0  0  0
    1.5242   -3.7139    0.0000 N   0  0  0  0  0  0  0  0  0  0  0  0
    1.0144   -2.1447    0.0000 C   0  0  0  0  0  0  0  0  0  0  0  0
    0.7594   -1.3601    0.0000 C   0  0  0  0  0  0  0  0  0  0  0  0
    1.8394   -2.1447    0.0000 C   0  0  0  0  0  0  0  0  0  0  0  0
    0.4623   -2.7578    0.0000 C   0  0  0  0  0  0  0  0  0  0  0  0
    2.0943   -1.3601    0.0000 C   0  0  0  0  0  0  0  0  0  0  0  0
   -0.0476   -1.1885    0.0000 C   0  0  0  0  0  0  0  0  0  0  0  0
    0.7173   -3.5424    0.0000 C   0  0  0  0  0  0  0  0  0  0  0  0
    2.3914   -2.7578    0.0000 C   0  0  0  0  0  0  0  0  0  0  0  0
    2.9013   -1.1885    0.0000 C   0  0  0  0  0  0  0  0  0  0  0  0
   -1.4066   -1.6301    0.0000 C   0  0  0  0  0  0  0  0  0  0  0  0
    3.1984   -2.5862    0.0000 C   0  0  0  0  0  0  0  0  0  0  0  0
   -1.6615   -0.8455    0.0000 C   0  0  0  0  0  0  0  0  0  0  0  0
    3.4533   -1.8016    0.0000 C   0  0  0  0  0  0  0  0  0  0  0  0
    1.7792   -4.4985    0.0000 C   0  0  0  0  0  0  0  0  0  0  0  0
   -1.9164   -0.0608    0.0000 C   0  0  0  0  0  0  0  0  0  0  0  0
   -2.4461   -1.1004    0.0000 C   0  0  0  0  0  0  0  0  0  0  0  0
   -0.8769   -0.5905    0.0000 C   0  0  0  0  0  0  0  0  0  0  0  0
    2.5861   -4.6701    0.0000 C   0  0  0  0  0  0  0  0  0  0  0  0
    1.2271   -5.1116    0.0000 C   0  0  0  0  0  0  0  0  0  0  0  0
    2.8411   -5.4547    0.0000 C   0  0  0  0  0  0  0  0  0  0  0  0
    1.4821   -5.8963    0.0000 C   0  0  0  0  0  0  0  0  0  0  0  0
    2.2891   -6.0678    0.0000 C   0  0  0  0  0  0  0  0  0  0  0  0
  1 12  2  0  0  0  0
  2 13  2  0  0  0  0
  3  5  1  0  0  0  0
  3 12  1  0  0  0  0
  3 16  1  0  0  0  0
  4  8  1  0  0  0  0
  4 11  1  0  0  0  0
  5 10  2  0  0  0  0
  6 13  1  0  0  0  0
  6 20  1  0  0  0  0
  7  8  2  0  0  0  0
  7  9  1  0  0  0  0
  7 10  1  0  0  0  0
  8 12  1  0  0  0  0
  9 11  2  0  0  0  0
  9 14  1  0  0  0  0
 10 13  1  0  0  0  0
 11 15  1  0  0  0  0
 14 17  2  0  0  0  0
 15 19  2  0  0  0  0
 16 18  1  0  0  0  0
 17 19  1  0  0  0  0
 18 21  1  0  0  0  0
 18 22  1  0  0  0  0
 18 23  1  0  0  0  0
 20 24  2  0  0  0  0
 20 25  1  0  0  0  0
 24 26  1  0  0  0  0
 25 27  2  0  0  0  0
 26 28  2  0  0  0  0
 27 28  1  0  0  0  0
M  END
> <PUBCHEM_COMPOUND_ID_TYPE>
0

> <PUBCHEM_TOTAL_CHARGE>
0

> <PUBCHEM_SUBSTANCE_ID>
310933480

> <PUBCHEM_SUBSTANCE_VERSION>
1

> <PUBCHEM_EXT_DATASOURCE_NAME>
4488

> <PUBCHEM_EXT_DATASOURCE_REGID>
SCHEMBL16110900

> <PUBCHEM_SUBSTANCE_COMMENT>
InChI=1S/C22H22N4O2/c1-22(2,3)13-26-21(28)19-17(15-11-7-8-12-16(15)24-19)18(25-26)20(27)23-14-9-5-4-6-10-14/h4-12,24H,13H2,1-3H3,(H,23,27)
InChIKey=FGACJMSEVYZJAH-UHFFFAOYSA-N

> <PUBCHEM_SUBSTANCE_SYNONYM>
SCHEMBL16110900

> <PUBCHEM_XREF_EXT_ID>
SCHEMBL16110900

> <PUBCHEM_EXT_DATASOURCE_URL>
https://www.surechembl.org/

> <PUBCHEM_EXT_SUBSTANCE_URL>
https://www.surechembl.org/chemical/SCHEMBL16110900

> <PUBCHEM_CID_ASSOCIATIONS>
117601876  1

> <PUBCHEM_COORDINATE_TYPE>
1
3

$$$$
