310935166
  -OEChem-07211613022D

 13 15  0     0  0  0  0  0  0999 V2000
    0.0000   -1.6500    0.0000 Br  0  0  0  0  0  0  0  0  0  0  0  0
    2.9040   -1.4685    0.0000 S   0  0  0  0  0  0  0  0  0  0  0  0
    2.9040   -0.1650    0.0000 N   0  0  0  0  0  0  0  0  0  0  0  0
    2.1121   -1.2375    0.0000 C   0  0  0  0  0  0  0  0  0  0  0  0
    3.3825   -0.8250    0.0000 C   0  0  0  0  0  0  0  0  0  0  0  0
    2.1121   -0.3960    0.0000 C   0  0  0  0  0  0  0  0  0  0  0  0
    4.2075   -0.8250    0.0000 C   0  0  0  0  0  0  0  0  0  0  0  0
    1.3860   -1.6336    0.0000 C   0  0  0  0  0  0  0  0  0  0  0  0
    1.3860    0.0000    0.0000 C   0  0  0  0  0  0  0  0  0  0  0  0
    0.7095   -1.2375    0.0000 C   0  0  0  0  0  0  0  0  0  0  0  0
    4.9170   -0.4125    0.0000 C   0  0  0  0  0  0  0  0  0  0  0  0
    4.9501   -1.2210    0.0000 C   0  0  0  0  0  0  0  0  0  0  0  0
    0.7095   -0.3960    0.0000 C   0  0  0  0  0  0  0  0  0  0  0  0
  1 10  1  0  0  0  0
  2  4  1  0  0  0  0
  2  5  1  0  0  0  0
  3  5  2  0  0  0  0
  3  6  1  0  0  0  0
  4  6  2  0  0  0  0
  4  8  1  0  0  0  0
  5  7  1  0  0  0  0
  6  9  1  0  0  0  0
  7 11  1  0  0  0  0
  7 12  1  0  0  0  0
  8 10  2  0  0  0  0
  9 13  2  0  0  0  0
 10 13  1  0  0  0  0
 11 12  1  0  0  0  0
M  END
> <PUBCHEM_COMPOUND_ID_TYPE>
0

> <PUBCHEM_TOTAL_CHARGE>
0

> <PUBCHEM_SUBSTANCE_ID>
310935166

> <PUBCHEM_SUBSTANCE_VERSION>
1

> <PUBCHEM_EXT_DATASOURCE_NAME>
4488

> <PUBCHEM_EXT_DATASOURCE_REGID>
SCHEMBL16112694

> <PUBCHEM_SUBSTANCE_COMMENT>
InChI=1S/C10H8BrNS/c11-7-3-4-8-9(5-7)13-10(12-8)6-1-2-6/h3-6H,1-2H2
InChIKey=HBKPOEIGIDYXDC-UHFFFAOYSA-N

> <PUBCHEM_SUBSTANCE_SYNONYM>
SCHEMBL16112694

> <PUBCHEM_XREF_EXT_ID>
SCHEMBL16112694

> <PUBCHEM_EXT_DATASOURCE_URL>
https://www.surechembl.org/

> <PUBCHEM_EXT_SUBSTANCE_URL>
https://www.surechembl.org/chemical/SCHEMBL16112694

> <PUBCHEM_CID_ASSOCIATIONS>
83825502  1

> <PUBCHEM_COORDINATE_TYPE>
1
3

$$$$
