310944683
  -OEChem-07211613022D

 33 37  0     0  0  0  0  0  0999 V2000
   -0.4455    2.9117    0.0000 F   0  0  0  0  0  0  0  0  0  0  0  0
    0.2970    0.1538    0.0000 F   0  0  0  0  0  0  0  0  0  0  0  0
    2.3018    2.1692    0.0000 O   0  0  0  0  0  0  0  0  0  0  0  0
   -1.1031    0.5145    0.0000 N   0  0  0  0  0  0  0  0  0  0  0  0
   -0.6258   -0.1432    0.0000 N   0  0  0  0  0  0  0  0  0  0  0  0
   -1.4745   -2.1905    0.0000 N   0  0  0  0  0  0  0  0  0  0  0  0
    0.9122   -2.8268    0.0000 N   0  0  0  0  0  0  0  0  0  0  0  0
    2.6943   -1.6388    0.0000 N   0  0  0  0  0  0  0  0  0  0  0  0
    2.1109   -1.0555    0.0000 N   0  0  0  0  0  0  0  0  0  0  0  0
   -1.8881   -0.5251    0.0000 C   0  0  0  0  0  0  0  0  0  0  0  0
   -1.1138   -0.8009    0.0000 C   0  0  0  0  0  0  0  0  0  0  0  0
   -1.8881    0.2811    0.0000 C   0  0  0  0  0  0  0  0  0  0  0  0
   -0.9017   -1.5646    0.0000 C   0  0  0  0  0  0  0  0  0  0  0  0
   -0.8910    1.3312    0.0000 C   0  0  0  0  0  0  0  0  0  0  0  0
   -0.1061    1.5434    0.0000 C   0  0  0  0  0  0  0  0  0  0  0  0
   -2.5988   -0.9494    0.0000 C   0  0  0  0  0  0  0  0  0  0  0  0
   -2.6094    0.6841    0.0000 C   0  0  0  0  0  0  0  0  0  0  0  0
    0.1167    2.3389    0.0000 C   0  0  0  0  0  0  0  0  0  0  0  0
    0.4879    0.9600    0.0000 C   0  0  0  0  0  0  0  0  0  0  0  0
   -0.0955   -1.8086    0.0000 C   0  0  0  0  0  0  0  0  0  0  0  0
    0.1061   -2.5723    0.0000 C   0  0  0  0  0  0  0  0  0  0  0  0
   -3.3095   -0.5462    0.0000 C   0  0  0  0  0  0  0  0  0  0  0  0
   -3.3095    0.2811    0.0000 C   0  0  0  0  0  0  0  0  0  0  0  0
    1.4957    1.9783    0.0000 C   0  0  0  0  0  0  0  0  0  0  0  0
    0.9228    2.5405    0.0000 C   0  0  0  0  0  0  0  0  0  0  0  0
    1.2835    1.1933    0.0000 C   0  0  0  0  0  0  0  0  0  0  0  0
   -1.2623   -2.9647    0.0000 C   0  0  0  0  0  0  0  0  0  0  0  0
   -0.4667   -3.1769    0.0000 C   0  0  0  0  0  0  0  0  0  0  0  0
    1.4957   -2.2116    0.0000 C   0  0  0  0  0  0  0  0  0  0  0  0
    2.3230   -2.3495    0.0000 C   0  0  0  0  0  0  0  0  0  0  0  0
    1.3789   -1.3949    0.0000 C   0  0  0  0  0  0  0  0  0  0  0  0
    2.5139    2.9860    0.0000 C   0  0  0  0  0  0  0  0  0  0  0  0
    3.3095    3.1769    0.0000 C   0  0  0  0  0  0  0  0  0  0  0  0
  1 18  1  0  0  0  0
  2 19  1  0  0  0  0
  3 24  1  0  0  0  0
  3 32  1  0  0  0  0
  4  5  1  0  0  0  0
  4 12  1  0  0  0  0
  4 14  1  0  0  0  0
  5 11  2  0  0  0  0
  6 13  1  0  0  0  0
  6 27  2  0  0  0  0
  7 21  1  0  0  0  0
  7 29  1  0  0  0  0
  8  9  1  0  0  0  0
  8 30  2  0  0  0  0
  9 31  1  0  0  0  0
 10 11  1  0  0  0  0
 10 12  2  0  0  0  0
 10 16  1  0  0  0  0
 11 13  1  0  0  0  0
 12 17  1  0  0  0  0
 13 20  2  0  0  0  0
 14 15  1  0  0  0  0
 15 18  2  0  0  0  0
 15 19  1  0  0  0  0
 16 22  2  0  0  0  0
 17 23  2  0  0  0  0
 18 25  1  0  0  0  0
 19 26  2  0  0  0  0
 20 21  1  0  0  0  0
 21 28  2  0  0  0  0
 22 23  1  0  0  0  0
 24 25  2  0  0  0  0
 24 26  1  0  0  0  0
 27 28  1  0  0  0  0
 29 30  1  0  0  0  0
 29 31  2  0  0  0  0
 32 33  1  0  0  0  0
M  END
> <PUBCHEM_COMPOUND_ID_TYPE>
0

> <PUBCHEM_TOTAL_CHARGE>
0

> <PUBCHEM_SUBSTANCE_ID>
310944683

> <PUBCHEM_SUBSTANCE_VERSION>
1

> <PUBCHEM_EXT_DATASOURCE_NAME>
4488

> <PUBCHEM_EXT_DATASOURCE_REGID>
SCHEMBL16122762

> <PUBCHEM_SUBSTANCE_COMMENT>
InChI=1S/C24H20F2N6O/c1-2-33-17-10-20(25)19(21(26)11-17)14-32-23-6-4-3-5-18(23)24(31-32)22-9-15(7-8-27-22)30-16-12-28-29-13-16/h3-13H,2,14H2,1H3,(H,27,30)(H,28,29)
InChIKey=UGOWSYNBMNIZJE-UHFFFAOYSA-N

> <PUBCHEM_SUBSTANCE_SYNONYM>
SCHEMBL16122762

> <PUBCHEM_XREF_EXT_ID>
SCHEMBL16122762

> <PUBCHEM_EXT_DATASOURCE_URL>
https://www.surechembl.org/

> <PUBCHEM_EXT_SUBSTANCE_URL>
https://www.surechembl.org/chemical/SCHEMBL16122762

> <PUBCHEM_CID_ASSOCIATIONS>
86268507  1

> <PUBCHEM_COORDINATE_TYPE>
1
3

$$$$
