310938927
  -OEChem-07211613022D

  7  7  0     0  0  0  0  0  0999 V2000
   -0.9450   -1.6482    0.0000 Cl  0  0  0  0  0  0  0  0  0  0  0  0
   -0.1200   -1.6482    0.0000 Cl  0  0  0  0  0  0  0  0  0  0  0  0
   -1.6594   -3.4897    0.0000 Cl  0  0  0  0  0  0  0  0  0  0  0  0
   -0.5325   -2.3627    0.0000 C   0  0  0  0  0  0  0  0  0  0  0  0
   -0.9450   -3.0772    0.0000 C   0  0  0  0  0  0  0  0  0  0  0  0
   -0.1200   -3.0772    0.0000 C   0  0  0  0  0  0  0  0  0  0  0  0
    0.5945   -3.4897    0.0000 C   0  0  0  0  0  0  0  0  0  0  0  0
  1  4  1  0  0  0  0
  2  4  1  0  0  0  0
  3  5  1  0  0  0  0
  4  5  1  0  0  0  0
  4  6  1  0  0  0  0
  5  6  2  0  0  0  0
  6  7  1  0  0  0  0
M  END
> <PUBCHEM_COMPOUND_ID_TYPE>
0

> <PUBCHEM_TOTAL_CHARGE>
0

> <PUBCHEM_SUBSTANCE_ID>
310938927

> <PUBCHEM_SUBSTANCE_VERSION>
1

> <PUBCHEM_EXT_DATASOURCE_NAME>
4488

> <PUBCHEM_EXT_DATASOURCE_REGID>
SCHEMBL16116846

> <PUBCHEM_SUBSTANCE_COMMENT>
InChI=1S/C4H3Cl3/c1-2-3(5)4(2,6)7/h1H3
InChIKey=AISIJPBRUVWFLK-UHFFFAOYSA-N

> <PUBCHEM_SUBSTANCE_SYNONYM>
SCHEMBL16116846

> <PUBCHEM_XREF_EXT_ID>
SCHEMBL16116846

> <PUBCHEM_EXT_DATASOURCE_URL>
https://www.surechembl.org/

> <PUBCHEM_EXT_SUBSTANCE_URL>
https://www.surechembl.org/chemical/SCHEMBL16116846

> <PUBCHEM_CID_ASSOCIATIONS>
117606324  1

> <PUBCHEM_COORDINATE_TYPE>
1
3

$$$$
