310937248
  -OEChem-07211613022D

 13 14  0     0  0  0  0  0  0999 V2000
    2.0909   -2.8449    0.0000 Br  0  0  0  0  0  0  0  0  0  0  0  0
    2.0909    0.0000    0.0000 F   0  0  0  0  0  0  0  0  0  0  0  0
    0.7824   -2.1052    0.0000 O   0  0  0  0  0  0  0  0  0  0  0  0
    0.7824   -0.7681    0.0000 N   0  0  0  0  0  0  0  0  0  0  0  0
    2.0768   -1.4366    0.0000 C   0  0  0  0  0  0  0  0  0  0  0  0
    1.2518   -1.4366    0.0000 C   0  0  0  0  0  0  0  0  0  0  0  0
    2.4893   -2.1336    0.0000 C   0  0  0  0  0  0  0  0  0  0  0  0
    2.4893   -0.7112    0.0000 C   0  0  0  0  0  0  0  0  0  0  0  0
    3.3143   -2.1336    0.0000 C   0  0  0  0  0  0  0  0  0  0  0  0
    3.3143   -0.7112    0.0000 C   0  0  0  0  0  0  0  0  0  0  0  0
    3.7268   -1.4366    0.0000 C   0  0  0  0  0  0  0  0  0  0  0  0
    0.0000   -1.8349    0.0000 C   0  0  0  0  0  0  0  0  0  0  0  0
    0.0000   -1.0241    0.0000 C   0  0  0  0  0  0  0  0  0  0  0  0
  1  7  1  0  0  0  0
  2  8  1  0  0  0  0
  3  6  1  0  0  0  0
  3 12  1  0  0  0  0
  4  6  2  0  0  0  0
  4 13  1  0  0  0  0
  5  6  1  0  0  0  0
  5  7  1  0  0  0  0
  5  8  2  0  0  0  0
  7  9  2  0  0  0  0
  8 10  1  0  0  0  0
  9 11  1  0  0  0  0
 10 11  2  0  0  0  0
 12 13  2  0  0  0  0
M  END
> <PUBCHEM_COMPOUND_ID_TYPE>
0

> <PUBCHEM_TOTAL_CHARGE>
0

> <PUBCHEM_SUBSTANCE_ID>
310937248

> <PUBCHEM_SUBSTANCE_VERSION>
1

> <PUBCHEM_EXT_DATASOURCE_NAME>
4488

> <PUBCHEM_EXT_DATASOURCE_REGID>
SCHEMBL16114986

> <PUBCHEM_SUBSTANCE_COMMENT>
InChI=1S/C9H5BrFNO/c10-6-2-1-3-7(11)8(6)9-12-4-5-13-9/h1-5H
InChIKey=MOPDZJGIHCTDAR-UHFFFAOYSA-N

> <PUBCHEM_SUBSTANCE_SYNONYM>
SCHEMBL16114986

> <PUBCHEM_XREF_EXT_ID>
SCHEMBL16114986

> <PUBCHEM_EXT_DATASOURCE_URL>
https://www.surechembl.org/

> <PUBCHEM_EXT_SUBSTANCE_URL>
https://www.surechembl.org/chemical/SCHEMBL16114986

> <PUBCHEM_CID_ASSOCIATIONS>
117605045  1

> <PUBCHEM_COORDINATE_TYPE>
1
3

$$$$
