310929630
  -OEChem-07211613022D

 61 68  0     1  0  0  0  0  0999 V2000
    4.7311   -0.9098    0.0000 S   0  0  0  0  0  0  0  0  0  0  0  0
    4.3065   -2.5475    0.0000 O   0  0  0  0  0  0  0  0  0  0  0  0
    4.9737   -1.6983    0.0000 O   0  0  0  0  0  0  0  0  0  0  0  0
    4.4885   -0.1213    0.0000 O   0  0  0  0  0  0  0  0  0  0  0  0
    4.2458   -3.2147    0.0000 O   0  0  0  0  0  0  0  0  0  0  0  0
    5.3983   -5.5196    0.0000 O   0  0  0  0  0  0  0  0  0  0  0  0
    1.4557   -4.0033    0.0000 O   0  0  0  0  0  0  0  0  0  0  0  0
    6.4294   -8.4310    0.0000 O   0  0  0  0  0  0  0  0  0  0  0  0
    0.9098   -7.5819    0.0000 O   0  0  0  0  0  0  0  0  0  0  0  0
    0.0000   -6.7934    0.0000 O   0  0  0  0  0  0  0  0  0  0  0  0
    2.8508   -3.0327    0.0000 N   0  0  0  0  0  0  0  0  0  0  0  0
    3.9426   -1.1525    0.0000 N   0  0  0  0  0  0  0  0  0  0  0  0
    2.6688   -4.3065    0.0000 N   0  0  0  0  0  0  0  0  0  0  0  0
    6.4294   -5.9442    0.0000 N   0  0  0  0  0  0  0  0  0  0  0  0
    0.9098   -5.9442    0.0000 N   0  0  0  0  0  0  0  0  0  0  0  0
    5.0950  -10.9786    0.0000 N   0  0  0  0  0  0  0  0  0  0  0  0
    2.9114   -2.1836    0.0000 C   0  0  3  0  0  0  0  0  0  0  0  0
    2.2442   -1.8197    0.0000 C   0  0  3  0  0  0  0  0  0  0  0  0
    2.9114   -1.3951    0.0000 C   0  0  0  0  0  0  0  0  0  0  0  0
    3.7606   -1.9410    0.0000 C   0  0  0  0  0  0  0  0  0  0  0  0
    5.5196   -0.7279    0.0000 C   0  0  0  0  0  0  0  0  0  0  0  0
    3.5180   -3.5180    0.0000 C   0  0  0  0  0  0  0  0  0  0  0  0
    1.3951   -1.8803    0.0000 C   0  0  0  0  0  0  0  0  0  0  0  0
    6.0655   -0.1213    0.0000 C   0  0  0  0  0  0  0  0  0  0  0  0
    6.3081   -0.9098    0.0000 C   0  0  0  0  0  0  0  0  0  0  0  0
    3.3967   -4.3065    0.0000 C   0  0  3  0  0  0  0  0  0  0  0  0
    5.0950    0.0000    0.0000 C   0  0  0  0  0  0  0  0  0  0  0  0
    4.2458   -4.5491    0.0000 C   0  0  0  0  0  0  0  0  0  0  0  0
    4.9131   -4.9131    0.0000 C   0  0  3  0  0  0  0  0  0  0  0  0
    1.9410   -4.7311    0.0000 C   0  0  0  0  0  0  0  0  0  0  0  0
    3.9426   -3.9426    0.0000 C   0  0  0  0  0  0  0  0  0  0  0  0
    1.2738   -5.2770    0.0000 C   0  0  3  0  0  0  0  0  0  0  0  0
    1.0311   -2.6082    0.0000 C   0  0  0  0  0  0  0  0  0  0  0  0
    5.6409   -6.3688    0.0000 C   0  0  0  0  0  0  0  0  0  0  0  0
    5.6409   -7.1573    0.0000 C   0  0  0  0  0  0  0  0  0  0  0  0
    0.6672   -4.7311    0.0000 C   0  0  0  0  0  0  0  0  0  0  0  0
    6.4294   -7.5819    0.0000 C   0  0  0  0  0  0  0  0  0  0  0  0
    7.0966   -7.1573    0.0000 C   0  0  0  0  0  0  0  0  0  0  0  0
    7.0966   -6.3688    0.0000 C   0  0  0  0  0  0  0  0  0  0  0  0
    5.3983   -8.0065    0.0000 C   0  0  0  0  0  0  0  0  0  0  0  0
    0.7885   -6.7934    0.0000 C   0  0  0  0  0  0  0  0  0  0  0  0
    7.8245   -7.5819    0.0000 C   0  0  0  0  0  0  0  0  0  0  0  0
    7.8245   -5.9442    0.0000 C   0  0  0  0  0  0  0  0  0  0  0  0
    1.2738   -8.2491    0.0000 C   0  0  3  0  0  0  0  0  0  0  0  0
    1.9410   -8.7950    0.0000 C   0  0  3  0  0  0  0  0  0  0  0  0
    1.1525   -4.1246    0.0000 C   0  0  0  0  0  0  0  0  0  0  0  0
    0.0000   -4.2458    0.0000 C   0  0  0  0  0  0  0  0  0  0  0  0
    0.1213   -5.3983    0.0000 C   0  0  0  0  0  0  0  0  0  0  0  0
    1.0918   -9.0983    0.0000 C   0  0  0  0  0  0  0  0  0  0  0  0
    8.5523   -7.1573    0.0000 C   0  0  0  0  0  0  0  0  0  0  0  0
    8.5523   -6.3688    0.0000 C   0  0  0  0  0  0  0  0  0  0  0  0
    4.9131   -8.6130    0.0000 C   0  0  0  0  0  0  0  0  0  0  0  0
    5.7622   -8.8557    0.0000 C   0  0  0  0  0  0  0  0  0  0  0  0
    2.6688   -9.2195    0.0000 C   0  0  0  0  0  0  0  0  0  0  0  0
    4.2458   -8.9770    0.0000 C   0  0  0  0  0  0  0  0  0  0  0  0
    3.3967   -9.2195    0.0000 C   0  0  0  0  0  0  0  0  0  0  0  0
    5.7622   -9.7048    0.0000 C   0  0  0  0  0  0  0  0  0  0  0  0
    5.0950  -10.1294    0.0000 C   0  0  0  0  0  0  0  0  0  0  0  0
    5.7016  -11.5245    0.0000 C   0  0  0  0  0  0  0  0  0  0  0  0
    4.4885  -11.5852    0.0000 C   0  0  0  0  0  0  0  0  0  0  0  0
    5.0950  -12.1310    0.0000 C   0  0  0  0  0  0  0  0  0  0  0  0
  1  3  2  0  0  0  0
  1  4  2  0  0  0  0
  1 12  1  0  0  0  0
  1 21  1  0  0  0  0
  2 20  2  0  0  0  0
  5 22  2  0  0  0  0
  6 29  1  0  0  0  0
  6 34  1  0  0  0  0
  7 30  2  0  0  0  0
  8 37  1  0  0  0  0
  8 53  1  0  0  0  0
  9 41  1  0  0  0  0
  9 44  1  0  0  0  0
 10 41  2  0  0  0  0
 17 11  1  1  0  0  0
 11 22  1  0  0  0  0
 12 20  1  0  0  0  0
 13 26  1  0  0  0  0
 13 30  1  0  0  0  0
 13 31  1  0  0  0  0
 14 34  1  0  0  0  0
 14 39  2  0  0  0  0
 15 32  1  0  0  0  0
 15 41  1  0  0  0  0
 16 58  1  0  0  0  0
 16 59  1  0  0  0  0
 16 60  1  0  0  0  0
 17 18  1  0  0  0  0
 17 19  1  0  0  0  0
 17 20  1  6  0  0  0
 18 19  1  0  0  0  0
 18 23  1  6  0  0  0
 21 24  1  0  0  0  0
 21 25  1  0  0  0  0
 21 27  1  0  0  0  0
 26 22  1  6  0  0  0
 23 33  2  0  0  0  0
 24 25  1  0  0  0  0
 26 28  1  0  0  0  0
 29 28  1  1  0  0  0
 29 31  1  0  0  0  0
 30 32  1  0  0  0  0
 32 36  1  1  0  0  0
 34 35  2  0  0  0  0
 35 37  1  0  0  0  0
 35 40  1  0  0  0  0
 36 46  1  0  0  0  0
 36 47  1  0  0  0  0
 36 48  1  0  0  0  0
 37 38  2  0  0  0  0
 38 39  1  0  0  0  0
 38 42  1  0  0  0  0
 39 43  1  0  0  0  0
 40 52  1  0  0  0  0
 42 50  2  0  0  0  0
 43 51  2  0  0  0  0
 44 45  1  0  0  0  0
 44 49  1  1  0  0  0
 45 49  1  6  0  0  0
 45 54  1  0  0  0  0
 50 51  1  0  0  0  0
 52 55  1  0  0  0  0
 53 57  1  0  0  0  0
 54 56  1  0  0  0  0
 55 56  1  0  0  0  0
 57 58  1  0  0  0  0
 59 61  1  0  0  0  0
 60 61  1  0  0  0  0
M  END
> <PUBCHEM_COMPOUND_ID_TYPE>
0

> <PUBCHEM_TOTAL_CHARGE>
0

> <PUBCHEM_SUBSTANCE_ID>
310929630

> <PUBCHEM_SUBSTANCE_VERSION>
1

> <PUBCHEM_EXT_DATASOURCE_NAME>
4488

> <PUBCHEM_EXT_DATASOURCE_REGID>
SCHEMBL16106818

> <PUBCHEM_SUBSTANCE_COMMENT>
InChI=1S/C45H62N6O9S/c1-6-29-26-45(29,41(54)49-61(56,57)44(5)18-19-44)48-38(52)34-25-30-27-51(34)40(53)37(43(2,3)4)47-42(55)60-35-24-28(35)14-8-7-9-16-32-36(58-23-13-22-50-20-12-21-50)31-15-10-11-17-33(31)46-39(32)59-30/h6,10-11,15,17,28-30,34-35,37H,1,7-9,12-14,16,18-27H2,2-5H3,(H,47,55)(H,48,52)(H,49,54)/t28-,29-,30-,34+,35-,37-,45-/m1/s1
InChIKey=XVJHWNMTWSEVJN-LWCOJZGSSA-N

> <PUBCHEM_SUBSTANCE_SYNONYM>
SCHEMBL16106818

> <PUBCHEM_XREF_EXT_ID>
SCHEMBL16106818

> <PUBCHEM_EXT_DATASOURCE_URL>
https://www.surechembl.org/

> <PUBCHEM_EXT_SUBSTANCE_URL>
https://www.surechembl.org/chemical/SCHEMBL16106818

> <PUBCHEM_CID_ASSOCIATIONS>
117598934  1

> <PUBCHEM_COORDINATE_TYPE>
1
3

> <PUBCHEM_BONDANNOTATIONS>
17  11  5
17  20  6
18  23  6
26  22  6
29  28  5
32  36  5
44  49  5
45  49  6

$$$$
