310941795
  -OEChem-07211613022D

 31 33  0     1  0  0  0  0  0999 V2000
    0.2750   -1.2249    0.0000 O   0  0  0  0  0  0  0  0  0  0  0  0
    1.0749   -0.1750    0.0000 O   0  0  0  0  0  0  0  0  0  0  0  0
    1.3749   -1.3124    0.0000 O   0  0  0  0  0  0  0  0  0  0  0  0
    0.4999   -3.2247    0.0000 O   0  0  0  0  0  0  0  0  0  0  0  0
    0.0625   -3.5746    0.0000 O   0  0  0  0  0  0  0  0  0  0  0  0
   -1.1249   -2.4373    0.0000 O   0  0  0  0  0  0  0  0  0  0  0  0
   -1.8123   -1.0124    0.0000 O   0  0  0  0  0  0  0  0  0  0  0  0
   -0.2500    1.4874    0.0000 O   0  0  0  0  0  0  0  0  0  0  0  0
    1.7998    3.5746    0.0000 O   0  0  0  0  0  0  0  0  0  0  0  0
    3.2497    2.7373    0.0000 O   0  0  0  0  0  0  0  0  0  0  0  0
    1.0624   -1.0249    0.0000 C   0  0  3  0  0  0  0  0  0  0  0  0
    0.7124   -1.6624    0.0000 C   0  0  3  0  0  0  0  0  0  0  0  0
    0.6374   -2.5873    0.0000 C   0  0  3  0  0  0  0  0  0  0  0  0
   -0.1250   -2.7623    0.0000 C   0  0  3  0  0  0  0  0  0  0  0  0
    0.2500   -2.0872    0.0000 C   0  0  3  0  0  0  0  0  0  0  0  0
    0.3624    0.2500    0.0000 C   0  0  0  0  0  0  0  0  0  0  0  0
   -1.0874    0.2500    0.0000 C   0  0  0  0  0  0  0  0  0  0  0  0
   -0.3374   -0.1750    0.0000 C   0  0  0  0  0  0  0  0  0  0  0  0
    0.3750    1.0749    0.0000 C   0  0  0  0  0  0  0  0  0  0  0  0
    1.0874    1.4999    0.0000 C   0  0  0  0  0  0  0  0  0  0  0  0
   -0.3000   -2.6497    0.0000 C   0  0  0  0  0  0  0  0  0  0  0  0
   -1.7998   -0.1624    0.0000 C   0  0  0  0  0  0  0  0  0  0  0  0
   -1.0749    1.0874    0.0000 C   0  0  0  0  0  0  0  0  0  0  0  0
    1.0999    2.3249    0.0000 C   0  0  0  0  0  0  0  0  0  0  0  0
    1.8123    2.7373    0.0000 C   0  0  0  0  0  0  0  0  0  0  0  0
    1.7998    1.0874    0.0000 C   0  0  0  0  0  0  0  0  0  0  0  0
    2.5373    2.3373    0.0000 C   0  0  0  0  0  0  0  0  0  0  0  0
   -2.4998    0.2374    0.0000 C   0  0  0  0  0  0  0  0  0  0  0  0
   -1.7873    1.4874    0.0000 C   0  0  0  0  0  0  0  0  0  0  0  0
    2.5373    1.4999    0.0000 C   0  0  0  0  0  0  0  0  0  0  0  0
   -2.5123    1.0749    0.0000 C   0  0  0  0  0  0  0  0  0  0  0  0
  1 11  1  0  0  0  0
  1 15  1  0  0  0  0
 11  2  1  1  0  0  0
  2 16  1  0  0  0  0
  3 12  1  0  0  0  0
 13  4  1  1  0  0  0
 14  5  1  6  0  0  0
  6 21  1  0  0  0  0
  7 22  1  0  0  0  0
  8 23  1  0  0  0  0
  9 25  1  0  0  0  0
 10 27  1  0  0  0  0
 11 12  1  0  0  0  0
 12 13  1  0  0  0  0
 13 14  1  0  0  0  0
 14 15  1  0  0  0  0
 15 21  1  0  0  0  0
 16 18  2  0  0  0  0
 16 19  1  0  0  0  0
 17 18  1  0  0  0  0
 17 22  1  0  0  0  0
 17 23  2  0  0  0  0
 19 20  1  0  0  0  0
 20 24  1  0  0  0  0
 20 26  2  0  0  0  0
 22 28  2  0  0  0  0
 23 29  1  0  0  0  0
 24 25  2  0  0  0  0
 25 27  1  0  0  0  0
 26 30  1  0  0  0  0
 27 30  2  0  0  0  0
 28 31  1  0  0  0  0
 29 31  2  0  0  0  0
M  END
> <PUBCHEM_COMPOUND_ID_TYPE>
0

> <PUBCHEM_TOTAL_CHARGE>
0

> <PUBCHEM_SUBSTANCE_ID>
310941795

> <PUBCHEM_SUBSTANCE_VERSION>
1

> <PUBCHEM_EXT_DATASOURCE_NAME>
4488

> <PUBCHEM_EXT_DATASOURCE_REGID>
SCHEMBL16119826

> <PUBCHEM_SUBSTANCE_COMMENT>
InChI=1S/C21H24O10/c22-9-17-18(27)19(28)20(29)21(31-17)30-11(6-10-4-5-15(25)16(26)7-10)8-12-13(23)2-1-3-14(12)24/h1-5,7-8,17-29H,6,9H2/b11-8+/t17?,18-,19+,20?,21-/m1/s1
InChIKey=OQNSWOWLFKSKOH-WDNRKNKFSA-N

> <PUBCHEM_SUBSTANCE_SYNONYM>
SCHEMBL16119826

> <PUBCHEM_XREF_EXT_ID>
SCHEMBL16119826

> <PUBCHEM_EXT_DATASOURCE_URL>
https://www.surechembl.org/

> <PUBCHEM_EXT_SUBSTANCE_URL>
https://www.surechembl.org/chemical/SCHEMBL16119826

> <PUBCHEM_CID_ASSOCIATIONS>
117608544  1

> <PUBCHEM_COORDINATE_TYPE>
1
3

> <PUBCHEM_BONDANNOTATIONS>
11  2  5
13  4  5
14  5  6

$$$$
