310942559
  -OEChem-07211613022D

 83 88  0     1  0  0  0  0  0999 V2000
    5.0595    2.3677    0.0000 S   0  0  0  0  0  0  0  0  0  0  0  0
   10.3434    0.8890    0.0000 F   0  0  0  0  0  0  0  0  0  0  0  0
    5.0761   -2.5505    0.0000 F   0  0  0  0  0  0  0  0  0  0  0  0
    8.3994    3.5475    0.0000 F   0  0  0  0  0  0  0  0  0  0  0  0
   10.6425   -3.5475    0.0000 F   0  0  0  0  0  0  0  0  0  0  0  0
    5.0263   -0.0083    0.0000 O   0  0  0  0  0  0  0  0  0  0  0  0
    3.1155    0.4237    0.0000 O   0  0  0  0  0  0  0  0  0  0  0  0
    2.4010   -0.8225    0.0000 O   0  0  0  0  0  0  0  0  0  0  0  0
   -1.1880    0.4071    0.0000 O   0  0  0  0  0  0  0  0  0  0  0  0
   -3.3315   -1.6533    0.0000 O   0  0  0  0  0  0  0  0  0  0  0  0
   -9.2467    0.9721    0.0000 O   0  0  0  0  0  0  0  0  0  0  0  0
  -10.7089   -1.5536    0.0000 O   0  0  0  0  0  0  0  0  0  0  0  0
   -5.4749    0.4071    0.0000 O   0  0  0  0  0  0  0  0  0  0  0  0
   -4.0459   -2.0687    0.0000 O   0  0  0  0  0  0  0  0  0  0  0  0
    8.5655   -0.6065    0.0000 N   0  0  0  0  0  0  0  0  0  0  0  0
    6.3721   -0.2742    0.0000 N   0  0  0  0  0  0  0  0  0  0  0  0
    7.9009    0.5566    0.0000 N   0  0  0  0  0  0  0  0  0  0  0  0
    3.8465   -0.8059    0.0000 N   0  0  0  0  0  0  0  0  0  0  0  0
   -0.4569   -0.8225    0.0000 N   0  0  0  0  0  0  0  0  0  0  0  0
   -9.7784   -0.4071    0.0000 N   0  0  0  0  0  0  0  0  0  0  0  0
   -2.6170   -0.4071    0.0000 N   0  0  0  0  0  0  0  0  0  0  0  0
   -4.7605   -0.8225    0.0000 N   0  0  0  0  0  0  0  0  0  0  0  0
   -3.3315   -3.2983    0.0000 N   0  0  0  0  0  0  0  0  0  0  0  0
   -4.7605   -3.2983    0.0000 N   0  0  0  0  0  0  0  0  0  0  0  0
    7.0867   -0.6896    0.0000 C   0  0  3  0  0  0  0  0  0  0  0  0
    7.8011   -0.2575    0.0000 C   0  0  0  0  0  0  0  0  0  0  0  0
    7.0867   -1.5203    0.0000 C   0  0  0  0  0  0  0  0  0  0  0  0
    8.6984    0.7062    0.0000 C   0  0  0  0  0  0  0  0  0  0  0  0
    9.1138   -0.0083    0.0000 C   0  0  0  0  0  0  0  0  0  0  0  0
    9.0474    1.4871    0.0000 C   0  0  0  0  0  0  0  0  0  0  0  0
    5.7740    0.3240    0.0000 C   0  0  0  0  0  0  0  0  0  0  0  0
    5.9734   -0.9886    0.0000 C   0  0  0  0  0  0  0  0  0  0  0  0
    8.7316   -1.4040    0.0000 C   0  0  0  0  0  0  0  0  0  0  0  0
    5.1426   -1.0717    0.0000 C   0  0  3  0  0  0  0  0  0  0  0  0
    9.8449    1.5702    0.0000 C   0  0  0  0  0  0  0  0  0  0  0  0
    8.5655    2.1351    0.0000 C   0  0  0  0  0  0  0  0  0  0  0  0
    9.5292   -1.6699    0.0000 C   0  0  0  0  0  0  0  0  0  0  0  0
    4.7272   -1.8028    0.0000 C   0  0  3  0  0  0  0  0  0  0  0  0
    6.3721   -1.9524    0.0000 C   0  0  0  0  0  0  0  0  0  0  0  0
    7.8178   -1.9357    0.0000 C   0  0  0  0  0  0  0  0  0  0  0  0
    7.1032   -2.3512    0.0000 C   0  0  0  0  0  0  0  0  0  0  0  0
    4.5776   -0.4736    0.0000 C   0  0  0  0  0  0  0  0  0  0  0  0
    8.8812    2.8994    0.0000 C   0  0  0  0  0  0  0  0  0  0  0  0
    5.7907    1.1382    0.0000 C   0  0  0  0  0  0  0  0  0  0  0  0
    3.9296   -1.6201    0.0000 C   0  0  0  0  0  0  0  0  0  0  0  0
   10.1939    2.3013    0.0000 C   0  0  0  0  0  0  0  0  0  0  0  0
    9.7120    2.9825    0.0000 C   0  0  0  0  0  0  0  0  0  0  0  0
    9.6954   -2.4841    0.0000 C   0  0  0  0  0  0  0  0  0  0  0  0
    3.1321   -0.3738    0.0000 C   0  0  0  0  0  0  0  0  0  0  0  0
   10.1273   -1.1216    0.0000 C   0  0  0  0  0  0  0  0  0  0  0  0
   10.4763   -2.7333    0.0000 C   0  0  0  0  0  0  0  0  0  0  0  0
    5.0761    1.5536    0.0000 C   0  0  0  0  0  0  0  0  0  0  0  0
   10.9083   -1.3874    0.0000 C   0  0  0  0  0  0  0  0  0  0  0  0
   11.0745   -2.1850    0.0000 C   0  0  0  0  0  0  0  0  0  0  0  0
    2.3844    0.8225    0.0000 C   0  0  0  0  0  0  0  0  0  0  0  0
    1.6865    0.4237    0.0000 C   0  0  0  0  0  0  0  0  0  0  0  0
    4.3450    2.7666    0.0000 C   0  0  0  0  0  0  0  0  0  0  0  0
    0.9554    0.8225    0.0000 C   0  0  0  0  0  0  0  0  0  0  0  0
    1.6699   -0.4237    0.0000 C   0  0  0  0  0  0  0  0  0  0  0  0
    0.2575   -0.4071    0.0000 C   0  0  0  0  0  0  0  0  0  0  0  0
    0.2742    0.4237    0.0000 C   0  0  0  0  0  0  0  0  0  0  0  0
    0.9554   -0.8059    0.0000 C   0  0  0  0  0  0  0  0  0  0  0  0
   -1.1880   -0.4237    0.0000 C   0  0  0  0  0  0  0  0  0  0  0  0
   -1.8859   -0.8225    0.0000 C   0  0  3  0  0  0  0  0  0  0  0  0
   -3.3315   -0.7892    0.0000 C   0  0  0  0  0  0  0  0  0  0  0  0
   -4.0626   -0.4071    0.0000 C   0  0  3  0  0  0  0  0  0  0  0  0
  -10.5262   -0.7062    0.0000 C   0  0  0  0  0  0  0  0  0  0  0  0
   -9.8781    0.3905    0.0000 C   0  0  0  0  0  0  0  0  0  0  0  0
   -1.8859   -1.6366    0.0000 C   0  0  0  0  0  0  0  0  0  0  0  0
   -4.0459    0.4403    0.0000 C   0  0  0  0  0  0  0  0  0  0  0  0
  -11.0745   -0.1412    0.0000 C   0  0  0  0  0  0  0  0  0  0  0  0
  -10.6590    0.5899    0.0000 C   0  0  0  0  0  0  0  0  0  0  0  0
   -9.0474   -0.8059    0.0000 C   0  0  0  0  0  0  0  0  0  0  0  0
   -5.4915   -0.4237    0.0000 C   0  0  0  0  0  0  0  0  0  0  0  0
   -2.6004   -2.0520    0.0000 C   0  0  0  0  0  0  0  0  0  0  0  0
   -8.3495   -0.4071    0.0000 C   0  0  0  0  0  0  0  0  0  0  0  0
   -6.1894   -0.8225    0.0000 C   0  0  0  0  0  0  0  0  0  0  0  0
   -4.7770    0.8225    0.0000 C   0  0  0  0  0  0  0  0  0  0  0  0
   -3.3148    0.8059    0.0000 C   0  0  0  0  0  0  0  0  0  0  0  0
   -7.6184   -0.8225    0.0000 C   0  0  0  0  0  0  0  0  0  0  0  0
   -6.9205   -0.4071    0.0000 C   0  0  0  0  0  0  0  0  0  0  0  0
   -2.6170   -2.8994    0.0000 C   0  0  0  0  0  0  0  0  0  0  0  0
   -4.0626   -2.8994    0.0000 C   0  0  0  0  0  0  0  0  0  0  0  0
  1 52  1  0  0  0  0
  1 57  1  0  0  0  0
  2 35  1  0  0  0  0
 38  3  1  1  0  0  0
  4 43  1  0  0  0  0
  5 51  1  0  0  0  0
  6 31  2  0  0  0  0
  7 49  1  0  0  0  0
  7 55  1  0  0  0  0
  8 49  2  0  0  0  0
  9 63  2  0  0  0  0
 10 65  2  0  0  0  0
 11 68  2  0  0  0  0
 12 67  2  0  0  0  0
 13 74  2  0  0  0  0
 14 83  2  0  0  0  0
 15 26  1  0  0  0  0
 15 29  1  0  0  0  0
 15 33  1  0  0  0  0
 25 16  1  1  0  0  0
 16 31  1  0  0  0  0
 16 32  1  0  0  0  0
 17 26  2  0  0  0  0
 17 28  1  0  0  0  0
 18 42  1  0  0  0  0
 18 45  1  0  0  0  0
 18 49  1  0  0  0  0
 19 60  1  0  0  0  0
 19 63  1  0  0  0  0
 20 67  1  0  0  0  0
 20 68  1  0  0  0  0
 20 73  1  0  0  0  0
 64 21  1  6  0  0  0
 21 65  1  0  0  0  0
 66 22  1  1  0  0  0
 22 74  1  0  0  0  0
 23 82  1  0  0  0  0
 23 83  1  0  0  0  0
 24 83  1  0  0  0  0
 25 26  1  0  0  0  0
 25 27  1  0  0  0  0
 27 39  1  0  0  0  0
 27 40  1  0  0  0  0
 27 41  1  0  0  0  0
 28 29  2  0  0  0  0
 28 30  1  0  0  0  0
 30 35  2  0  0  0  0
 30 36  1  0  0  0  0
 31 44  1  0  0  0  0
 34 32  1  1  0  0  0
 33 37  1  0  0  0  0
 34 38  1  0  0  0  0
 34 42  1  0  0  0  0
 35 46  1  0  0  0  0
 36 43  2  0  0  0  0
 37 48  2  0  0  0  0
 37 50  1  0  0  0  0
 38 45  1  0  0  0  0
 43 47  1  0  0  0  0
 44 52  1  0  0  0  0
 46 47  2  0  0  0  0
 48 51  1  0  0  0  0
 50 53  2  0  0  0  0
 51 54  2  0  0  0  0
 53 54  1  0  0  0  0
 55 56  1  0  0  0  0
 56 58  2  0  0  0  0
 56 59  1  0  0  0  0
 58 61  1  0  0  0  0
 59 62  2  0  0  0  0
 60 61  2  0  0  0  0
 60 62  1  0  0  0  0
 63 64  1  0  0  0  0
 64 69  1  0  0  0  0
 65 66  1  0  0  0  0
 66 70  1  0  0  0  0
 67 71  1  0  0  0  0
 68 72  1  0  0  0  0
 69 75  1  0  0  0  0
 70 78  1  0  0  0  0
 70 79  1  0  0  0  0
 71 72  2  0  0  0  0
 73 76  1  0  0  0  0
 74 77  1  0  0  0  0
 75 82  1  0  0  0  0
 76 80  1  0  0  0  0
 77 81  1  0  0  0  0
 80 81  1  0  0  0  0
M  END
> <PUBCHEM_COMPOUND_ID_TYPE>
0

> <PUBCHEM_TOTAL_CHARGE>
0

> <PUBCHEM_SUBSTANCE_ID>
310942559

> <PUBCHEM_SUBSTANCE_VERSION>
1

> <PUBCHEM_EXT_DATASOURCE_NAME>
4488

> <PUBCHEM_EXT_DATASOURCE_REGID>
SCHEMBL16120600

> <PUBCHEM_SUBSTANCE_COMMENT>
InChI=1S/C59H74F4N10O9S/c1-36(2)52(69-48(74)15-8-7-9-26-72-49(75)22-23-50(72)76)56(79)68-46(14-11-25-65-57(64)80)55(78)66-42-19-16-37(17-20-42)35-82-58(81)71-31-39(45(63)33-71)32-73(51(77)24-27-83-6)53(59(3,4)5)54-67-47(43-29-41(61)18-21-44(43)62)34-70(54)30-38-12-10-13-40(60)28-38/h10,12-13,16-23,28-29,34,36,39,45-46,52-53H,7-9,11,14-15,24-27,30-33,35H2,1-6H3,(H,66,78)(H,68,79)(H,69,74)(H3,64,65,80)/t39-,45-,46-,52-,53-/m0/s1
InChIKey=YJURDGFWLHJSGB-BZCYDFJESA-N

> <PUBCHEM_SUBSTANCE_SYNONYM>
SCHEMBL16120600

> <PUBCHEM_XREF_EXT_ID>
SCHEMBL16120600

> <PUBCHEM_EXT_DATASOURCE_URL>
https://www.surechembl.org/

> <PUBCHEM_EXT_SUBSTANCE_URL>
https://www.surechembl.org/chemical/SCHEMBL16120600

> <PUBCHEM_CID_ASSOCIATIONS>
117609115  1

> <PUBCHEM_COORDINATE_TYPE>
1
3

> <PUBCHEM_BONDANNOTATIONS>
25  16  5
64  21  6
66  22  5
38  3  5
34  32  5

$$$$
