310939245
  -OEChem-07211613022D

 31 32  0     1  0  0  0  0  0999 V2000
    0.0000    1.1822    0.0000 Cl  0  0  0  0  0  0  0  0  0  0  0  0
    3.5724   -1.7053    0.0000 S   0  0  0  0  0  0  0  0  0  0  0  0
   -1.4289   -1.2928    0.0000 F   0  0  0  0  0  0  0  0  0  0  0  0
    0.0000   -0.4678    0.0000 O   0  0  0  0  0  0  0  0  0  0  0  0
    3.9849   -0.9908    0.0000 O   0  0  0  0  0  0  0  0  0  0  0  0
    3.1599   -2.4197    0.0000 O   0  0  0  0  0  0  0  0  0  0  0  0
   -2.1434    2.4197    0.0000 O   0  0  0  0  0  0  0  0  0  0  0  0
   -3.5724   -0.0553    0.0000 N   0  0  0  0  0  0  0  0  0  0  0  0
    2.8579   -1.2928    0.0000 N   0  0  0  0  0  0  0  0  0  0  0  0
   -3.5724    2.4197    0.0000 N   0  0  0  0  0  0  0  0  0  0  0  0
   -0.7145   -0.0553    0.0000 C   0  0  0  0  0  0  0  0  0  0  0  0
   -1.4289   -0.4678    0.0000 C   0  0  0  0  0  0  0  0  0  0  0  0
   -2.1434   -0.0553    0.0000 C   0  0  0  0  0  0  0  0  0  0  0  0
   -0.7145    0.7697    0.0000 C   0  0  0  0  0  0  0  0  0  0  0  0
   -2.8579   -0.4678    0.0000 C   0  0  3  0  0  0  0  0  0  0  0  0
   -2.1434    0.7697    0.0000 C   0  0  0  0  0  0  0  0  0  0  0  0
    0.7145   -0.0553    0.0000 C   0  0  0  0  0  0  0  0  0  0  0  0
   -1.4289    1.1822    0.0000 C   0  0  0  0  0  0  0  0  0  0  0  0
    1.4289   -0.4678    0.0000 C   0  0  0  0  0  0  0  0  0  0  0  0
    2.1434   -0.0553    0.0000 C   0  0  0  0  0  0  0  0  0  0  0  0
   -2.8579   -1.2928    0.0000 C   0  0  0  0  0  0  0  0  0  0  0  0
    0.7145    0.7697    0.0000 C   0  0  0  0  0  0  0  0  0  0  0  0
   -3.5724    0.7697    0.0000 C   0  0  3  0  0  0  0  0  0  0  0  0
    2.1434    0.7697    0.0000 C   0  0  0  0  0  0  0  0  0  0  0  0
    1.4289    1.1822    0.0000 C   0  0  0  0  0  0  0  0  0  0  0  0
    2.8579   -0.4678    0.0000 C   0  0  0  0  0  0  0  0  0  0  0  0
   -2.8579    1.1822    0.0000 C   0  0  0  0  0  0  0  0  0  0  0  0
   -3.5724   -1.7053    0.0000 C   0  0  0  0  0  0  0  0  0  0  0  0
   -4.2868    1.1822    0.0000 C   0  0  0  0  0  0  0  0  0  0  0  0
   -2.8579    2.0072    0.0000 C   0  0  0  0  0  0  0  0  0  0  0  0
    4.2868   -2.1178    0.0000 C   0  0  0  0  0  0  0  0  0  0  0  0
  1 14  1  0  0  0  0
  2  5  2  0  0  0  0
  2  6  2  0  0  0  0
  2  9  1  0  0  0  0
  2 31  1  0  0  0  0
  3 12  1  0  0  0  0
  4 11  1  0  0  0  0
  4 17  1  0  0  0  0
  7 30  2  0  0  0  0
 15  8  1  1  0  0  0
  8 23  1  0  0  0  0
  9 26  1  0  0  0  0
 10 30  1  0  0  0  0
 11 12  1  0  0  0  0
 11 14  2  0  0  0  0
 12 13  2  0  0  0  0
 13 15  1  0  0  0  0
 13 16  1  0  0  0  0
 14 18  1  0  0  0  0
 15 21  1  0  0  0  0
 16 18  2  0  0  0  0
 17 19  1  0  0  0  0
 17 22  2  0  0  0  0
 19 20  2  0  0  0  0
 20 24  1  0  0  0  0
 20 26  1  0  0  0  0
 21 28  1  0  0  0  0
 22 25  1  0  0  0  0
 23 27  1  0  0  0  0
 23 29  1  1  0  0  0
 24 25  2  0  0  0  0
 27 30  1  0  0  0  0
M  END
> <PUBCHEM_COMPOUND_ID_TYPE>
0

> <PUBCHEM_TOTAL_CHARGE>
0

> <PUBCHEM_SUBSTANCE_ID>
310939245

> <PUBCHEM_SUBSTANCE_VERSION>
1

> <PUBCHEM_EXT_DATASOURCE_NAME>
4488

> <PUBCHEM_EXT_DATASOURCE_REGID>
SCHEMBL16117166

> <PUBCHEM_SUBSTANCE_COMMENT>
InChI=1S/C21H27ClFN3O4S/c1-4-18(26-13(2)10-19(24)27)16-8-9-17(22)21(20(16)23)30-15-7-5-6-14(11-15)12-25-31(3,28)29/h5-9,11,13,18,25-26H,4,10,12H2,1-3H3,(H2,24,27)/t13-,18+/m0/s1
InChIKey=LNWFKFMZWALRLE-SCLBCKFNSA-N

> <PUBCHEM_SUBSTANCE_SYNONYM>
SCHEMBL16117166

> <PUBCHEM_XREF_EXT_ID>
SCHEMBL16117166

> <PUBCHEM_EXT_DATASOURCE_URL>
https://www.surechembl.org/

> <PUBCHEM_EXT_SUBSTANCE_URL>
https://www.surechembl.org/chemical/SCHEMBL16117166

> <PUBCHEM_CID_ASSOCIATIONS>
117606593  1

> <PUBCHEM_COORDINATE_TYPE>
1
3

> <PUBCHEM_BONDANNOTATIONS>
23  29  5
15  8  5

$$$$
