310945088
  -OEChem-07211613022D

 26 29  0     0  0  0  0  0  0999 V2000
   -3.4844   -2.0585    0.0000 Cl  0  0  0  0  0  0  0  0  0  0  0  0
    1.3556    0.8536    0.0000 O   0  0  0  0  0  0  0  0  0  0  0  0
    2.8618    0.9138    0.0000 O   0  0  0  0  0  0  0  0  0  0  0  0
    3.4844   -0.3916    0.0000 O   0  0  0  0  0  0  0  0  0  0  0  0
   -0.0904   -1.5163    0.0000 N   0  0  0  0  0  0  0  0  0  0  0  0
    2.0986   -0.3716    0.0000 N   0  0  0  0  0  0  0  0  0  0  0  0
   -1.8778   -1.4560    0.0000 N   0  0  0  0  0  0  0  0  0  0  0  0
   -3.0626   -0.6527    0.0000 N   0  0  0  0  0  0  0  0  0  0  0  0
    0.6728   -0.3916    0.0000 C   0  0  0  0  0  0  0  0  0  0  0  0
   -0.1506   -0.1707    0.0000 C   0  0  0  0  0  0  0  0  0  0  0  0
   -0.5924   -0.8536    0.0000 C   0  0  0  0  0  0  0  0  0  0  0  0
    0.6728   -1.2351    0.0000 C   0  0  0  0  0  0  0  0  0  0  0  0
   -1.4158   -0.7732    0.0000 C   0  0  0  0  0  0  0  0  0  0  0  0
    1.3556    0.0101    0.0000 C   0  0  0  0  0  0  0  0  0  0  0  0
   -1.7773   -0.0302    0.0000 C   0  0  0  0  0  0  0  0  0  0  0  0
   -0.4719    0.5724    0.0000 C   0  0  0  0  0  0  0  0  0  0  0  0
    1.4158   -1.6367    0.0000 C   0  0  0  0  0  0  0  0  0  0  0  0
   -1.2953    0.6326    0.0000 C   0  0  0  0  0  0  0  0  0  0  0  0
    2.0986   -1.2150    0.0000 C   0  0  0  0  0  0  0  0  0  0  0  0
    2.8015    0.0502    0.0000 C   0  0  0  0  0  0  0  0  0  0  0  0
   -2.5806    0.0302    0.0000 C   0  0  0  0  0  0  0  0  0  0  0  0
   -2.7212   -1.3757    0.0000 C   0  0  0  0  0  0  0  0  0  0  0  0
    2.1790    1.3958    0.0000 C   0  0  0  0  0  0  0  0  0  0  0  0
    2.5605    2.0585    0.0000 C   0  0  0  0  0  0  0  0  0  0  0  0
    1.7372    0.7330    0.0000 C   0  0  0  0  0  0  0  0  0  0  0  0
    1.4560    1.8376    0.0000 C   0  0  0  0  0  0  0  0  0  0  0  0
  1 22  1  0  0  0  0
  2 14  2  0  0  0  0
  3 20  1  0  0  0  0
  3 23  1  0  0  0  0
  4 20  2  0  0  0  0
  5 11  1  0  0  0  0
  5 12  1  0  0  0  0
  6 14  1  0  0  0  0
  6 19  1  0  0  0  0
  6 20  1  0  0  0  0
  7 13  1  0  0  0  0
  7 22  2  0  0  0  0
  8 21  2  0  0  0  0
  8 22  1  0  0  0  0
  9 10  1  0  0  0  0
  9 12  2  0  0  0  0
  9 14  1  0  0  0  0
 10 11  2  0  0  0  0
 10 16  1  0  0  0  0
 11 13  1  0  0  0  0
 12 17  1  0  0  0  0
 13 15  2  0  0  0  0
 15 18  1  0  0  0  0
 15 21  1  0  0  0  0
 16 18  1  0  0  0  0
 17 19  1  0  0  0  0
 23 24  1  0  0  0  0
 23 25  1  0  0  0  0
 23 26  1  0  0  0  0
M  END
> <PUBCHEM_COMPOUND_ID_TYPE>
0

> <PUBCHEM_TOTAL_CHARGE>
0

> <PUBCHEM_SUBSTANCE_ID>
310945088

> <PUBCHEM_SUBSTANCE_VERSION>
1

> <PUBCHEM_EXT_DATASOURCE_NAME>
4488

> <PUBCHEM_EXT_DATASOURCE_REGID>
SCHEMBL16123178

> <PUBCHEM_SUBSTANCE_COMMENT>
InChI=1S/C18H19ClN4O3/c1-18(2,3)26-17(25)23-7-6-11-12(15(23)24)10-5-4-9-8-20-16(19)22-13(9)14(10)21-11/h8,21H,4-7H2,1-3H3
InChIKey=VBORNDICOLYYBC-UHFFFAOYSA-N

> <PUBCHEM_SUBSTANCE_SYNONYM>
SCHEMBL16123178

> <PUBCHEM_XREF_EXT_ID>
SCHEMBL16123178

> <PUBCHEM_EXT_DATASOURCE_URL>
https://www.surechembl.org/

> <PUBCHEM_EXT_SUBSTANCE_URL>
https://www.surechembl.org/chemical/SCHEMBL16123178

> <PUBCHEM_CID_ASSOCIATIONS>
117611189  1

> <PUBCHEM_COORDINATE_TYPE>
1
3

$$$$
