310939761
  -OEChem-07211613022D

 15 16  0     0  0  0  0  0  0999 V2000
    3.4166   -2.6534    0.0000 Cl  0  0  0  0  0  0  0  0  0  0  0  0
    2.9067   -1.0841    0.0000 Cl  0  0  0  0  0  0  0  0  0  0  0  0
    0.5832   -3.4084    0.0000 N   0  0  0  0  0  0  0  0  0  0  0  0
    1.2506   -2.9234    0.0000 C   0  0  0  0  0  0  0  0  0  0  0  0
    0.9957   -2.1388    0.0000 C   0  0  0  0  0  0  0  0  0  0  0  0
    0.5832   -4.2334    0.0000 C   0  0  0  0  0  0  0  0  0  0  0  0
    2.0576   -3.0950    0.0000 C   0  0  0  0  0  0  0  0  0  0  0  0
   -0.0842   -2.9234    0.0000 C   0  0  0  0  0  0  0  0  0  0  0  0
    2.6096   -2.4819    0.0000 C   0  0  0  0  0  0  0  0  0  0  0  0
    0.1707   -2.1388    0.0000 C   0  0  0  0  0  0  0  0  0  0  0  0
    1.5477   -1.5257    0.0000 C   0  0  0  0  0  0  0  0  0  0  0  0
    2.3547   -1.6972    0.0000 C   0  0  0  0  0  0  0  0  0  0  0  0
    1.4082   -4.2334    0.0000 C   0  0  0  0  0  0  0  0  0  0  0  0
   -0.2418   -4.2334    0.0000 C   0  0  0  0  0  0  0  0  0  0  0  0
    0.5832   -5.0584    0.0000 C   0  0  0  0  0  0  0  0  0  0  0  0
  1  9  1  0  0  0  0
  2 12  1  0  0  0  0
  3  4  1  0  0  0  0
  3  6  1  0  0  0  0
  3  8  1  0  0  0  0
  4  5  2  0  0  0  0
  4  7  1  0  0  0  0
  5 10  1  0  0  0  0
  5 11  1  0  0  0  0
  6 13  1  0  0  0  0
  6 14  1  0  0  0  0
  6 15  1  0  0  0  0
  7  9  2  0  0  0  0
  8 10  2  0  0  0  0
  9 12  1  0  0  0  0
 11 12  2  0  0  0  0
M  END
> <PUBCHEM_COMPOUND_ID_TYPE>
0

> <PUBCHEM_TOTAL_CHARGE>
0

> <PUBCHEM_SUBSTANCE_ID>
310939761

> <PUBCHEM_SUBSTANCE_VERSION>
1

> <PUBCHEM_EXT_DATASOURCE_NAME>
4488

> <PUBCHEM_EXT_DATASOURCE_REGID>
SCHEMBL16117691

> <PUBCHEM_SUBSTANCE_COMMENT>
InChI=1S/C12H13Cl2N/c1-12(2,3)15-5-4-8-6-9(13)10(14)7-11(8)15/h4-7H,1-3H3
InChIKey=OMTSABUCTSKYLP-UHFFFAOYSA-N

> <PUBCHEM_SUBSTANCE_SYNONYM>
SCHEMBL16117691

> <PUBCHEM_XREF_EXT_ID>
SCHEMBL16117691

> <PUBCHEM_EXT_DATASOURCE_URL>
https://www.surechembl.org/

> <PUBCHEM_EXT_SUBSTANCE_URL>
https://www.surechembl.org/chemical/SCHEMBL16117691

> <PUBCHEM_CID_ASSOCIATIONS>
117606983  1

> <PUBCHEM_COORDINATE_TYPE>
1
3

> <PUBCHEM_BONDANNOTATIONS>
6  13  3
6  14  3

$$$$
