310937457
  -OEChem-07211613022D

 12 12  0     0  0  0  0  0  0999 V2000
    0.0000   -0.8765    0.0000 Br  0  0  0  0  0  0  0  0  0  0  0  0
    3.9187   -0.7047    0.0000 O   0  0  0  0  0  0  0  0  0  0  0  0
    3.9187   -2.1313    0.0000 O   0  0  0  0  0  0  0  0  0  0  0  0
    2.2000   -2.0968    0.0000 N   0  0  0  0  0  0  0  0  0  0  0  0
    2.6813   -1.4265    0.0000 C   0  0  0  0  0  0  0  0  0  0  0  0
    3.5062   -1.4265    0.0000 C   0  0  0  0  0  0  0  0  0  0  0  0
    1.4265   -1.0140    0.0000 C   0  0  0  0  0  0  0  0  0  0  0  0
    2.2000   -0.7563    0.0000 C   0  0  0  0  0  0  0  0  0  0  0  0
    1.4265   -1.8390    0.0000 C   0  0  0  0  0  0  0  0  0  0  0  0
    0.7563   -0.5328    0.0000 C   0  0  0  0  0  0  0  0  0  0  0  0
    4.7438   -0.7047    0.0000 C   0  0  0  0  0  0  0  0  0  0  0  0
    5.1562    0.0000    0.0000 C   0  0  0  0  0  0  0  0  0  0  0  0
  1 10  1  0  0  0  0
  2  6  1  0  0  0  0
  2 11  1  0  0  0  0
  3  6  2  0  0  0  0
  4  5  1  0  0  0  0
  4  9  1  0  0  0  0
  5  6  1  0  0  0  0
  5  8  2  0  0  0  0
  7  8  1  0  0  0  0
  7  9  2  0  0  0  0
  7 10  1  0  0  0  0
 11 12  1  0  0  0  0
M  END
> <PUBCHEM_COMPOUND_ID_TYPE>
0

> <PUBCHEM_TOTAL_CHARGE>
0

> <PUBCHEM_SUBSTANCE_ID>
310937457

> <PUBCHEM_SUBSTANCE_VERSION>
1

> <PUBCHEM_EXT_DATASOURCE_NAME>
4488

> <PUBCHEM_EXT_DATASOURCE_REGID>
SCHEMBL16115225

> <PUBCHEM_SUBSTANCE_COMMENT>
InChI=1S/C8H10BrNO2/c1-2-12-8(11)7-3-6(4-9)5-10-7/h3,5,10H,2,4H2,1H3
InChIKey=XMBFZCPMTMFUFR-UHFFFAOYSA-N

> <PUBCHEM_SUBSTANCE_SYNONYM>
SCHEMBL16115225

> <PUBCHEM_XREF_EXT_ID>
SCHEMBL16115225

> <PUBCHEM_EXT_DATASOURCE_URL>
https://www.surechembl.org/

> <PUBCHEM_EXT_SUBSTANCE_URL>
https://www.surechembl.org/chemical/SCHEMBL16115225

> <PUBCHEM_CID_ASSOCIATIONS>
117605202  1

> <PUBCHEM_COORDINATE_TYPE>
1
3

$$$$
