310945599
  -OEChem-07211613022D

 28 30  0     1  0  0  0  0  0999 V2000
   -1.7656   -2.6897    0.0000 O   0  0  0  0  0  0  0  0  0  0  0  0
   -1.7656    3.0692    0.0000 O   0  0  0  0  0  0  0  0  0  0  0  0
   -1.7656    0.6106    0.0000 N   0  0  0  0  0  0  0  0  0  0  0  0
   -1.0560   -0.6271    0.0000 N   0  0  0  0  0  0  0  0  0  0  0  0
   -0.3465    2.2441    0.0000 N   0  0  0  0  0  0  0  0  0  0  0  0
    1.0725    0.6106    0.0000 N   0  0  0  0  0  0  0  0  0  0  0  0
   -2.4752    1.8316    0.0000 N   0  0  0  0  0  0  0  0  0  0  0  0
    2.5082   -0.2145    0.0000 N   0  0  0  0  0  0  0  0  0  0  0  0
   -1.0725    1.0231    0.0000 C   0  0  0  0  0  0  0  0  0  0  0  0
   -1.0560    1.8481    0.0000 C   0  0  0  0  0  0  0  0  0  0  0  0
   -1.7821   -0.2145    0.0000 C   0  0  0  0  0  0  0  0  0  0  0  0
    0.3630    1.0231    0.0000 C   0  0  0  0  0  0  0  0  0  0  0  0
   -0.3135    0.6271    0.0000 C   0  0  0  0  0  0  0  0  0  0  0  0
   -1.7656   -1.8481    0.0000 C   0  0  0  0  0  0  0  0  0  0  0  0
   -1.0725   -1.4521    0.0000 C   0  0  0  0  0  0  0  0  0  0  0  0
   -2.4917   -1.4521    0.0000 C   0  0  0  0  0  0  0  0  0  0  0  0
   -2.4752   -0.6106    0.0000 C   0  0  0  0  0  0  0  0  0  0  0  0
   -1.7821    2.2441    0.0000 C   0  0  0  0  0  0  0  0  0  0  0  0
    0.3795    1.8316    0.0000 C   0  0  0  0  0  0  0  0  0  0  0  0
    1.7986    1.0231    0.0000 C   0  0  3  0  0  0  0  0  0  0  0  0
    2.5247    0.6271    0.0000 C   0  0  3  0  0  0  0  0  0  0  0  0
    1.7986    1.8481    0.0000 C   0  0  0  0  0  0  0  0  0  0  0  0
   -0.3135   -1.8646    0.0000 C   0  0  0  0  0  0  0  0  0  0  0  0
   -3.2012   -1.8481    0.0000 C   0  0  0  0  0  0  0  0  0  0  0  0
    3.2012    1.0231    0.0000 C   0  0  0  0  0  0  0  0  0  0  0  0
    2.5082    2.2441    0.0000 C   0  0  0  0  0  0  0  0  0  0  0  0
    3.2012    1.8481    0.0000 C   0  0  0  0  0  0  0  0  0  0  0  0
   -1.0396   -3.0692    0.0000 C   0  0  0  0  0  0  0  0  0  0  0  0
  1 14  1  0  0  0  0
  1 28  1  0  0  0  0
  2 18  2  0  0  0  0
  3  9  1  0  0  0  0
  3 11  1  0  0  0  0
  4 11  1  0  0  0  0
  4 15  2  0  0  0  0
  5 10  1  0  0  0  0
  5 19  2  0  0  0  0
  6 12  1  0  0  0  0
 20  6  1  6  0  0  0
  7 18  1  0  0  0  0
 21  8  1  6  0  0  0
  9 10  2  0  0  0  0
  9 13  1  0  0  0  0
 10 18  1  0  0  0  0
 11 17  2  0  0  0  0
 12 13  2  0  0  0  0
 12 19  1  0  0  0  0
 14 15  1  0  0  0  0
 14 16  2  0  0  0  0
 15 23  1  0  0  0  0
 16 17  1  0  0  0  0
 16 24  1  0  0  0  0
 20 21  1  0  0  0  0
 20 22  1  0  0  0  0
 21 25  1  0  0  0  0
 22 26  1  0  0  0  0
 25 27  1  0  0  0  0
 26 27  1  0  0  0  0
M  END
> <PUBCHEM_COMPOUND_ID_TYPE>
0

> <PUBCHEM_TOTAL_CHARGE>
0

> <PUBCHEM_SUBSTANCE_ID>
310945599

> <PUBCHEM_SUBSTANCE_VERSION>
1

> <PUBCHEM_EXT_DATASOURCE_NAME>
4488

> <PUBCHEM_EXT_DATASOURCE_REGID>
SCHEMBL16123698

> <PUBCHEM_SUBSTANCE_COMMENT>
InChI=1S/C20H28N6O2/c1-11-8-17(24-12(2)19(11)28-3)26-16-9-13(10-23-18(16)20(22)27)25-15-7-5-4-6-14(15)21/h8-10,14-15,25H,4-7,21H2,1-3H3,(H2,22,27)(H,24,26)/t14-,15+/m0/s1
InChIKey=PDCSKSQBFUDSOL-LSDHHAIUSA-N

> <PUBCHEM_SUBSTANCE_SYNONYM>
SCHEMBL16123698

> <PUBCHEM_XREF_EXT_ID>
SCHEMBL16123698

> <PUBCHEM_EXT_DATASOURCE_URL>
https://www.surechembl.org/

> <PUBCHEM_EXT_SUBSTANCE_URL>
https://www.surechembl.org/chemical/SCHEMBL16123698

> <PUBCHEM_CID_ASSOCIATIONS>
85471920  1

> <PUBCHEM_COORDINATE_TYPE>
1
3

> <PUBCHEM_BONDANNOTATIONS>
20  6  6
21  8  6

$$$$
