310945192
  -OEChem-07211613022D

 26 29  0     0  0  0  0  0  0999 V2000
   -3.5752   -1.0445    0.0000 Cl  0  0  0  0  0  0  0  0  0  0  0  0
    1.7675    0.7632    0.0000 O   0  0  0  0  0  0  0  0  0  0  0  0
    3.2539    0.4821    0.0000 O   0  0  0  0  0  0  0  0  0  0  0  0
    3.5752   -0.9239    0.0000 O   0  0  0  0  0  0  0  0  0  0  0  0
   -0.1607   -1.2051    0.0000 N   0  0  0  0  0  0  0  0  0  0  0  0
    2.2294   -0.6026    0.0000 N   0  0  0  0  0  0  0  0  0  0  0  0
   -2.8521    0.3213    0.0000 N   0  0  0  0  0  0  0  0  0  0  0  0
    0.8235   -0.3013    0.0000 C   0  0  0  0  0  0  0  0  0  0  0  0
    0.1004    0.1205    0.0000 C   0  0  0  0  0  0  0  0  0  0  0  0
   -0.5222   -0.4419    0.0000 C   0  0  0  0  0  0  0  0  0  0  0  0
    0.6226   -1.1047    0.0000 C   0  0  0  0  0  0  0  0  0  0  0  0
    1.5868   -0.0602    0.0000 C   0  0  0  0  0  0  0  0  0  0  0  0
   -1.2855   -0.1808    0.0000 C   0  0  0  0  0  0  0  0  0  0  0  0
   -1.4662    0.6226    0.0000 C   0  0  0  0  0  0  0  0  0  0  0  0
   -0.0804    0.9038    0.0000 C   0  0  0  0  0  0  0  0  0  0  0  0
    1.3056   -1.6872    0.0000 C   0  0  0  0  0  0  0  0  0  0  0  0
    2.0286   -1.4260    0.0000 C   0  0  0  0  0  0  0  0  0  0  0  0
   -0.8637    1.1649    0.0000 C   0  0  0  0  0  0  0  0  0  0  0  0
   -1.8881   -0.7432    0.0000 C   0  0  0  0  0  0  0  0  0  0  0  0
    2.9928   -0.3415    0.0000 C   0  0  0  0  0  0  0  0  0  0  0  0
   -2.2696    0.8637    0.0000 C   0  0  0  0  0  0  0  0  0  0  0  0
   -2.7115   -0.5021    0.0000 C   0  0  0  0  0  0  0  0  0  0  0  0
    2.6713    1.1047    0.0000 C   0  0  0  0  0  0  0  0  0  0  0  0
    3.1534    1.6872    0.0000 C   0  0  0  0  0  0  0  0  0  0  0  0
    2.1090    0.5423    0.0000 C   0  0  0  0  0  0  0  0  0  0  0  0
    2.0487    1.6872    0.0000 C   0  0  0  0  0  0  0  0  0  0  0  0
  1 22  1  0  0  0  0
  2 12  2  0  0  0  0
  3 20  1  0  0  0  0
  3 23  1  0  0  0  0
  4 20  2  0  0  0  0
  5 10  1  0  0  0  0
  5 11  1  0  0  0  0
  6 12  1  0  0  0  0
  6 17  1  0  0  0  0
  6 20  1  0  0  0  0
  7 21  1  0  0  0  0
  7 22  2  0  0  0  0
  8  9  1  0  0  0  0
  8 11  2  0  0  0  0
  8 12  1  0  0  0  0
  9 10  2  0  0  0  0
  9 15  1  0  0  0  0
 10 13  1  0  0  0  0
 11 16  1  0  0  0  0
 13 14  1  0  0  0  0
 13 19  2  0  0  0  0
 14 18  1  0  0  0  0
 14 21  2  0  0  0  0
 15 18  1  0  0  0  0
 16 17  1  0  0  0  0
 19 22  1  0  0  0  0
 23 24  1  0  0  0  0
 23 25  1  0  0  0  0
 23 26  1  0  0  0  0
M  END
> <PUBCHEM_COMPOUND_ID_TYPE>
0

> <PUBCHEM_TOTAL_CHARGE>
0

> <PUBCHEM_SUBSTANCE_ID>
310945192

> <PUBCHEM_SUBSTANCE_VERSION>
1

> <PUBCHEM_EXT_DATASOURCE_NAME>
4488

> <PUBCHEM_EXT_DATASOURCE_REGID>
SCHEMBL16123282

> <PUBCHEM_SUBSTANCE_COMMENT>
InChI=1S/C19H20ClN3O3/c1-19(2,3)26-18(25)23-7-6-13-15(17(23)24)11-5-4-10-9-21-14(20)8-12(10)16(11)22-13/h8-9,22H,4-7H2,1-3H3
InChIKey=ZYEVMUTYAFQCAN-UHFFFAOYSA-N

> <PUBCHEM_SUBSTANCE_SYNONYM>
SCHEMBL16123282

> <PUBCHEM_XREF_EXT_ID>
SCHEMBL16123282

> <PUBCHEM_EXT_DATASOURCE_URL>
https://www.surechembl.org/

> <PUBCHEM_EXT_SUBSTANCE_URL>
https://www.surechembl.org/chemical/SCHEMBL16123282

> <PUBCHEM_CID_ASSOCIATIONS>
117611276  1

> <PUBCHEM_COORDINATE_TYPE>
1
3

$$$$
