310934370
  -OEChem-07211613022D

 33 37  0     0  0  0  0  0  0999 V2000
    7.7992   -1.8430    0.0000 Cl  0  0  0  0  0  0  0  0  0  0  0  0
    1.4156    0.0000    0.0000 O   0  0  0  0  0  0  0  0  0  0  0  0
    5.7693   -2.4573    0.0000 O   0  0  0  0  0  0  0  0  0  0  0  0
    0.6945   -1.2286    0.0000 O   0  0  0  0  0  0  0  0  0  0  0  0
    2.8312    0.0000    0.0000 N   0  0  0  0  0  0  0  0  0  0  0  0
    3.5524   -3.7126    0.0000 N   0  0  0  0  0  0  0  0  0  0  0  0
    6.5706   -2.6442    0.0000 N   0  0  0  0  0  0  0  0  0  0  0  0
    2.8312   -1.6560    0.0000 C   0  0  0  0  0  0  0  0  0  0  0  0
    3.5524   -1.2286    0.0000 C   0  0  0  0  0  0  0  0  0  0  0  0
    2.1101   -1.2286    0.0000 C   0  0  0  0  0  0  0  0  0  0  0  0
    3.5524   -0.4006    0.0000 C   0  0  0  0  0  0  0  0  0  0  0  0
    2.1101   -0.4006    0.0000 C   0  0  0  0  0  0  0  0  0  0  0  0
    2.8312   -2.4573    0.0000 C   0  0  0  0  0  0  0  0  0  0  0  0
    4.2468   -1.6560    0.0000 C   0  0  0  0  0  0  0  0  0  0  0  0
    4.9680   -1.2286    0.0000 C   0  0  0  0  0  0  0  0  0  0  0  0
    1.4156   -1.6560    0.0000 C   0  0  0  0  0  0  0  0  0  0  0  0
    4.2468    0.0000    0.0000 C   0  0  0  0  0  0  0  0  0  0  0  0
    5.6624   -1.6560    0.0000 C   0  0  0  0  0  0  0  0  0  0  0  0
    4.9680   -0.4006    0.0000 C   0  0  0  0  0  0  0  0  0  0  0  0
    3.5524   -2.9114    0.0000 C   0  0  0  0  0  0  0  0  0  0  0  0
    2.1368   -2.9114    0.0000 C   0  0  0  0  0  0  0  0  0  0  0  0
    1.4156   -2.4573    0.0000 C   0  0  0  0  0  0  0  0  0  0  0  0
    6.4370   -1.3088    0.0000 C   0  0  0  0  0  0  0  0  0  0  0  0
    6.9712   -1.9231    0.0000 C   0  0  0  0  0  0  0  0  0  0  0  0
    2.1368   -3.7126    0.0000 C   0  0  0  0  0  0  0  0  0  0  0  0
    2.8312   -4.1400    0.0000 C   0  0  0  0  0  0  0  0  0  0  0  0
    0.6945   -2.8846    0.0000 C   0  0  0  0  0  0  0  0  0  0  0  0
    0.6945   -3.6859    0.0000 C   0  0  0  0  0  0  0  0  0  0  0  0
    0.0000   -4.1133    0.0000 C   0  0  0  0  0  0  0  0  0  0  0  0
    1.4156   -4.1133    0.0000 C   0  0  0  0  0  0  0  0  0  0  0  0
    0.0000   -4.9413    0.0000 C   0  0  0  0  0  0  0  0  0  0  0  0
    1.4156   -4.9413    0.0000 C   0  0  0  0  0  0  0  0  0  0  0  0
    0.6945   -5.3419    0.0000 C   0  0  0  0  0  0  0  0  0  0  0  0
  1 24  1  0  0  0  0
  2 12  2  0  0  0  0
  3  7  1  0  0  0  0
  3 18  1  0  0  0  0
  4 16  2  0  0  0  0
  5 11  1  0  0  0  0
  5 12  1  0  0  0  0
  6 20  1  0  0  0  0
  6 26  2  0  0  0  0
  7 24  2  0  0  0  0
  8  9  1  0  0  0  0
  8 10  2  0  0  0  0
  8 13  1  0  0  0  0
  9 11  2  0  0  0  0
  9 14  1  0  0  0  0
 10 12  1  0  0  0  0
 10 16  1  0  0  0  0
 11 17  1  0  0  0  0
 13 20  2  0  0  0  0
 13 21  1  0  0  0  0
 14 15  2  0  0  0  0
 15 18  1  0  0  0  0
 15 19  1  0  0  0  0
 16 22  1  0  0  0  0
 17 19  2  0  0  0  0
 18 23  2  0  0  0  0
 21 25  2  0  0  0  0
 22 27  2  0  0  0  0
 23 24  1  0  0  0  0
 25 26  1  0  0  0  0
 27 28  1  0  0  0  0
 28 29  2  0  0  0  0
 28 30  1  0  0  0  0
 29 31  1  0  0  0  0
 30 32  2  0  0  0  0
 31 33  2  0  0  0  0
 32 33  1  0  0  0  0
M  END
> <PUBCHEM_COMPOUND_ID_TYPE>
0

> <PUBCHEM_TOTAL_CHARGE>
0

> <PUBCHEM_SUBSTANCE_ID>
310934370

> <PUBCHEM_SUBSTANCE_VERSION>
1

> <PUBCHEM_EXT_DATASOURCE_NAME>
4488

> <PUBCHEM_EXT_DATASOURCE_REGID>
SCHEMBL16111838

> <PUBCHEM_SUBSTANCE_COMMENT>
InChI=1S/C26H16ClN3O3/c27-23-14-22(33-30-23)17-9-10-20-19(13-17)24(18-7-4-12-28-15-18)25(26(32)29-20)21(31)11-8-16-5-2-1-3-6-16/h1-15H,(H,29,32)/b11-8+
InChIKey=FRQBLNNNKYYEKL-DHZHZOJOSA-N

> <PUBCHEM_SUBSTANCE_SYNONYM>
SCHEMBL16111838

> <PUBCHEM_XREF_EXT_ID>
SCHEMBL16111838

> <PUBCHEM_EXT_DATASOURCE_URL>
https://www.surechembl.org/

> <PUBCHEM_EXT_SUBSTANCE_URL>
https://www.surechembl.org/chemical/SCHEMBL16111838

> <PUBCHEM_CID_ASSOCIATIONS>
117602598  1

> <PUBCHEM_COORDINATE_TYPE>
1
3

$$$$
