310935317
  -OEChem-07211613022D

 23 25  0     0  0  0  0  0  0999 V2000
    2.9100   -0.0576    0.0000 S   0  0  0  0  0  0  0  0  0  0  0  0
    0.7203   -1.2389    0.0000 O   0  0  0  0  0  0  0  0  0  0  0  0
    4.7539   -1.2677    0.0000 N   0  0  0  0  0  0  0  0  0  0  0  0
    2.2185   -1.2389    0.0000 N   0  0  0  0  0  0  0  0  0  0  0  0
    1.4406    0.0000    0.0000 N   0  0  0  0  0  0  0  0  0  0  0  0
    3.4574   -0.6915    0.0000 C   0  0  0  0  0  0  0  0  0  0  0  0
    2.1609   -0.4034    0.0000 C   0  0  0  0  0  0  0  0  0  0  0  0
    4.2641   -0.6050    0.0000 C   0  0  0  0  0  0  0  0  0  0  0  0
    3.0252   -1.3830    0.0000 C   0  0  0  0  0  0  0  0  0  0  0  0
    5.7047   -2.6218    0.0000 C   0  0  0  0  0  0  0  0  0  0  0  0
    5.5895   -1.1813    0.0000 C   0  0  0  0  0  0  0  0  0  0  0  0
    4.4082   -2.0168    0.0000 C   0  0  0  0  0  0  0  0  0  0  0  0
    6.0505   -1.8439    0.0000 C   0  0  0  0  0  0  0  0  0  0  0  0
    4.8980   -2.6795    0.0000 C   0  0  0  0  0  0  0  0  0  0  0  0
    6.1657   -3.2845    0.0000 C   0  0  0  0  0  0  0  0  0  0  0  0
    7.0012   -3.1981    0.0000 C   0  0  0  0  0  0  0  0  0  0  0  0
    0.7203   -0.4034    0.0000 C   0  0  0  0  0  0  0  0  0  0  0  0
    7.4622   -3.8608    0.0000 C   0  0  0  0  0  0  0  0  0  0  0  0
    7.3470   -2.4490    0.0000 C   0  0  0  0  0  0  0  0  0  0  0  0
    8.2977   -3.8031    0.0000 C   0  0  0  0  0  0  0  0  0  0  0  0
    8.1537   -2.3626    0.0000 C   0  0  0  0  0  0  0  0  0  0  0  0
    0.0000    0.0000    0.0000 C   0  0  0  0  0  0  0  0  0  0  0  0
    8.6435   -3.0541    0.0000 C   0  0  0  0  0  0  0  0  0  0  0  0
  1  6  1  0  0  0  0
  1  7  1  0  0  0  0
  2 17  2  0  0  0  0
  3  8  1  0  0  0  0
  3 11  1  0  0  0  0
  3 12  1  0  0  0  0
  4  7  2  0  0  0  0
  4  9  1  0  0  0  0
  5  7  1  0  0  0  0
  5 17  1  0  0  0  0
  6  8  1  0  0  0  0
  6  9  2  0  0  0  0
 10 13  1  0  0  0  0
 10 14  1  0  0  0  0
 10 15  1  0  0  0  0
 11 13  1  0  0  0  0
 12 14  1  0  0  0  0
 15 16  1  0  0  0  0
 16 18  2  0  0  0  0
 16 19  1  0  0  0  0
 17 22  1  0  0  0  0
 18 20  1  0  0  0  0
 19 21  2  0  0  0  0
 20 23  2  0  0  0  0
 21 23  1  0  0  0  0
M  END
> <PUBCHEM_COMPOUND_ID_TYPE>
0

> <PUBCHEM_TOTAL_CHARGE>
0

> <PUBCHEM_SUBSTANCE_ID>
310935317

> <PUBCHEM_SUBSTANCE_VERSION>
1

> <PUBCHEM_EXT_DATASOURCE_NAME>
4488

> <PUBCHEM_EXT_DATASOURCE_REGID>
SCHEMBL16112851

> <PUBCHEM_SUBSTANCE_COMMENT>
InChI=1S/C18H23N3OS/c1-14(22)20-18-19-12-17(23-18)13-21-9-7-16(8-10-21)11-15-5-3-2-4-6-15/h2-6,12,16H,7-11,13H2,1H3,(H,19,20,22)
InChIKey=FGBFGOGTMJJQJP-UHFFFAOYSA-N

> <PUBCHEM_SUBSTANCE_SYNONYM>
SCHEMBL16112851

> <PUBCHEM_XREF_EXT_ID>
SCHEMBL16112851

> <PUBCHEM_EXT_DATASOURCE_URL>
https://www.surechembl.org/

> <PUBCHEM_EXT_SUBSTANCE_URL>
https://www.surechembl.org/chemical/SCHEMBL16112851

> <PUBCHEM_CID_ASSOCIATIONS>
86275053  1

> <PUBCHEM_COORDINATE_TYPE>
1
3

$$$$
