310947651
  -OEChem-07211613022D

 12 11  0     1  0  0  0  0  0999 V2000
   -2.9054   12.4836    0.0000 O   0  0  0  0  0  0  0  0  0  0  0  0
   -4.3344   12.4836    0.0000 O   0  0  0  0  0  0  0  0  0  0  0  0
   -7.1923   10.8336    0.0000 N   0  0  0  0  0  0  0  0  0  0  0  0
   -3.6199   11.2461    0.0000 C   0  0  3  0  0  0  0  0  0  0  0  0
   -3.6199   12.0711    0.0000 C   0  0  0  0  0  0  0  0  0  0  0  0
   -4.3344   10.8336    0.0000 C   0  0  0  0  0  0  0  0  0  0  0  0
   -5.0489   11.2461    0.0000 C   0  0  0  0  0  0  0  0  0  0  0  0
   -2.9054   10.8336    0.0000 C   0  0  0  0  0  0  0  0  0  0  0  0
   -2.9054   13.3086    0.0000 C   0  0  0  0  0  0  0  0  0  0  0  0
   -5.7633   10.8336    0.0000 C   0  0  0  0  0  0  0  0  0  0  0  0
   -6.4778   11.2461    0.0000 C   0  0  0  0  0  0  0  0  0  0  0  0
   -2.1910   13.7211    0.0000 C   0  0  0  0  0  0  0  0  0  0  0  0
  1  5  1  0  0  0  0
  1  9  1  0  0  0  0
  2  5  2  0  0  0  0
  3 11  1  0  0  0  0
  4  5  1  0  0  0  0
  4  6  1  0  0  0  0
  4  8  1  1  0  0  0
  6  7  1  0  0  0  0
  7 10  1  0  0  0  0
  9 12  1  0  0  0  0
 10 11  1  0  0  0  0
M  END
> <PUBCHEM_COMPOUND_ID_TYPE>
0

> <PUBCHEM_TOTAL_CHARGE>
0

> <PUBCHEM_SUBSTANCE_ID>
310947651

> <PUBCHEM_SUBSTANCE_VERSION>
1

> <PUBCHEM_EXT_DATASOURCE_NAME>
4488

> <PUBCHEM_EXT_DATASOURCE_REGID>
SCHEMBL16125818

> <PUBCHEM_SUBSTANCE_COMMENT>
InChI=1S/C9H19NO2/c1-3-12-9(11)8(2)6-4-5-7-10/h8H,3-7,10H2,1-2H3/t8-/m0/s1
InChIKey=PICRQVBVKFPNBI-QMMMGPOBSA-N

> <PUBCHEM_SUBSTANCE_SYNONYM>
SCHEMBL16125818

> <PUBCHEM_XREF_EXT_ID>
SCHEMBL16125818

> <PUBCHEM_EXT_DATASOURCE_URL>
https://www.surechembl.org/

> <PUBCHEM_EXT_SUBSTANCE_URL>
https://www.surechembl.org/chemical/SCHEMBL16125818

> <PUBCHEM_CID_ASSOCIATIONS>
117613367  1

> <PUBCHEM_COORDINATE_TYPE>
1
3

> <PUBCHEM_BONDANNOTATIONS>
4  8  5

$$$$
