310947407
  -OEChem-07211613022D

 17 19  0     0  0  0  0  0  0999 V2000
   -2.4950    4.3703    0.0000 N   0  0  0  0  0  0  0  0  0  0  0  0
   -0.4325    3.6558    0.0000 N   0  0  0  0  0  0  0  0  0  0  0  0
   -1.5124    2.8712    0.0000 N   0  0  0  0  0  0  0  0  0  0  0  0
   -4.1450    4.3703    0.0000 N   0  0  0  0  0  0  0  0  0  0  0  0
   -0.1775    2.8712    0.0000 N   0  0  0  0  0  0  0  0  0  0  0  0
   -1.6700    4.3703    0.0000 C   0  0  0  0  0  0  0  0  0  0  0  0
   -1.2575    3.6558    0.0000 C   0  0  0  0  0  0  0  0  0  0  0  0
   -2.9075    5.0847    0.0000 C   0  0  0  0  0  0  0  0  0  0  0  0
   -3.7325    5.0847    0.0000 C   0  0  0  0  0  0  0  0  0  0  0  0
   -1.2575    5.0847    0.0000 C   0  0  0  0  0  0  0  0  0  0  0  0
   -2.4950    5.7992    0.0000 C   0  0  0  0  0  0  0  0  0  0  0  0
   -1.6694    5.7995    0.0000 C   0  0  0  0  0  0  0  0  0  0  0  0
   -4.1450    5.7992    0.0000 C   0  0  0  0  0  0  0  0  0  0  0  0
   -0.8450    2.3862    0.0000 C   0  0  0  0  0  0  0  0  0  0  0  0
   -4.9700    4.3703    0.0000 C   0  0  0  0  0  0  0  0  0  0  0  0
   -4.9700    5.7992    0.0000 C   0  0  0  0  0  0  0  0  0  0  0  0
   -5.3830    5.0850    0.0000 C   0  0  0  0  0  0  0  0  0  0  0  0
  1  6  1  0  0  0  0
  1  8  2  0  0  0  0
  2  5  1  0  0  0  0
  2  7  2  0  0  0  0
  3  7  1  0  0  0  0
  3 14  1  0  0  0  0
  4  9  1  0  0  0  0
  4 15  2  0  0  0  0
  5 14  2  0  0  0  0
  6  7  1  0  0  0  0
  6 10  2  0  0  0  0
  8  9  1  0  0  0  0
  8 11  1  0  0  0  0
  9 13  2  0  0  0  0
 10 12  1  0  0  0  0
 11 12  2  0  0  0  0
 13 16  1  0  0  0  0
 15 17  1  0  0  0  0
 16 17  2  0  0  0  0
M  END
> <PUBCHEM_COMPOUND_ID_TYPE>
0

> <PUBCHEM_TOTAL_CHARGE>
0

> <PUBCHEM_SUBSTANCE_ID>
310947407

> <PUBCHEM_SUBSTANCE_VERSION>
1

> <PUBCHEM_EXT_DATASOURCE_NAME>
4488

> <PUBCHEM_EXT_DATASOURCE_REGID>
SCHEMBL16125563

> <PUBCHEM_SUBSTANCE_COMMENT>
InChI=1S/C12H9N5/c1-2-7-13-9(4-1)10-5-3-6-11(16-10)12-14-8-15-17-12/h1-8H,(H,14,15,17)
InChIKey=CUAMHNKKGZGVJQ-UHFFFAOYSA-N

> <PUBCHEM_SUBSTANCE_SYNONYM>
SCHEMBL16125563

> <PUBCHEM_XREF_EXT_ID>
SCHEMBL16125563

> <PUBCHEM_EXT_DATASOURCE_URL>
https://www.surechembl.org/

> <PUBCHEM_EXT_SUBSTANCE_URL>
https://www.surechembl.org/chemical/SCHEMBL16125563

> <PUBCHEM_CID_ASSOCIATIONS>
15849039  1

> <PUBCHEM_COORDINATE_TYPE>
1
3

$$$$
