310942806
  -OEChem-07211613022D

 18 18  0     0  0  0  0  0  0999 V2000
    1.0541    0.2200    0.0000 O   0  0  0  0  0  0  0  0  0  0  0  0
    0.3575   -1.0450    0.0000 N   0  0  0  0  0  0  0  0  0  0  0  0
   -2.5025   -1.0450    0.0000 N   0  0  0  0  0  0  0  0  0  0  0  0
    0.3391   -0.2017    0.0000 C   0  0  0  0  0  0  0  0  0  0  0  0
   -0.3758    0.2200    0.0000 C   0  0  0  0  0  0  0  0  0  0  0  0
   -0.3758    1.0450    0.0000 C   0  0  0  0  0  0  0  0  0  0  0  0
   -1.0908   -0.1833    0.0000 C   0  0  0  0  0  0  0  0  0  0  0  0
    1.1091   -1.4300    0.0000 C   0  0  0  0  0  0  0  0  0  0  0  0
   -0.3758   -1.4483    0.0000 C   0  0  0  0  0  0  0  0  0  0  0  0
   -1.7691    1.0450    0.0000 C   0  0  0  0  0  0  0  0  0  0  0  0
   -1.0908    1.4483    0.0000 C   0  0  0  0  0  0  0  0  0  0  0  0
   -1.7691    0.2200    0.0000 C   0  0  0  0  0  0  0  0  0  0  0  0
    1.7691   -1.0267    0.0000 C   0  0  0  0  0  0  0  0  0  0  0  0
   -1.0908   -1.0450    0.0000 C   0  0  0  0  0  0  0  0  0  0  0  0
   -2.5208    1.4850    0.0000 C   0  0  0  0  0  0  0  0  0  0  0  0
    1.8058   -0.1833    0.0000 C   0  0  0  0  0  0  0  0  0  0  0  0
    2.5208   -1.4850    0.0000 C   0  0  0  0  0  0  0  0  0  0  0  0
   -1.7691   -1.4483    0.0000 C   0  0  0  0  0  0  0  0  0  0  0  0
  1  4  2  0  0  0  0
  2  4  1  0  0  0  0
  2  8  1  0  0  0  0
  2  9  1  0  0  0  0
  3 18  1  0  0  0  0
  4  5  1  0  0  0  0
  5  6  2  0  0  0  0
  5  7  1  0  0  0  0
  6 11  1  0  0  0  0
  7 12  2  0  0  0  0
  8 13  1  0  0  0  0
  9 14  1  0  0  0  0
 10 11  2  0  0  0  0
 10 12  1  0  0  0  0
 10 15  1  0  0  0  0
 13 16  1  0  0  0  0
 13 17  1  0  0  0  0
 14 18  1  0  0  0  0
M  END
> <PUBCHEM_COMPOUND_ID_TYPE>
0

> <PUBCHEM_TOTAL_CHARGE>
0

> <PUBCHEM_SUBSTANCE_ID>
310942806

> <PUBCHEM_SUBSTANCE_VERSION>
1

> <PUBCHEM_EXT_DATASOURCE_NAME>
4488

> <PUBCHEM_EXT_DATASOURCE_REGID>
SCHEMBL16120860

> <PUBCHEM_SUBSTANCE_COMMENT>
InChI=1S/C15H24N2O/c1-12(2)11-17(10-4-9-16)15(18)14-7-5-13(3)6-8-14/h5-8,12H,4,9-11,16H2,1-3H3
InChIKey=FVNFWSMNPJDUKC-UHFFFAOYSA-N

> <PUBCHEM_SUBSTANCE_SYNONYM>
SCHEMBL16120860

> <PUBCHEM_XREF_EXT_ID>
SCHEMBL16120860

> <PUBCHEM_EXT_DATASOURCE_URL>
https://www.surechembl.org/

> <PUBCHEM_EXT_SUBSTANCE_URL>
https://www.surechembl.org/chemical/SCHEMBL16120860

> <PUBCHEM_CID_ASSOCIATIONS>
61660722  1

> <PUBCHEM_COORDINATE_TYPE>
1
3

$$$$
