310946398
  -OEChem-07211613022D

 57 61  0     1  0  0  0  0  0999 V2000
   -3.3195    3.4013    0.0000 Cl  0  0  0  0  0  0  0  0  0  0  0  0
    8.2000   -0.9066    0.0000 S   0  0  0  0  0  0  0  0  0  0  0  0
   11.6353    0.4158    0.0000 O   0  0  0  0  0  0  0  0  0  0  0  0
   -6.7958   -0.1977    0.0000 O   0  0  0  0  0  0  0  0  0  0  0  0
   -4.7236   -2.2016    0.0000 O   0  0  0  0  0  0  0  0  0  0  0  0
    4.5328    1.3291    0.0000 O   0  0  0  0  0  0  0  0  0  0  0  0
    0.6066   -0.9474    0.0000 O   0  0  0  0  0  0  0  0  0  0  0  0
   10.4220    0.4976    0.0000 N   0  0  0  0  0  0  0  0  0  0  0  0
   10.7356   -0.8929    0.0000 N   0  0  0  0  0  0  0  0  0  0  0  0
  -10.9401   -2.5970    0.0000 N   0  0  0  0  0  0  0  0  0  0  0  0
   -6.0869   -1.3973    0.0000 N   0  0  0  0  0  0  0  0  0  0  0  0
   -0.1704    0.4158    0.0000 N   0  0  0  0  0  0  0  0  0  0  0  0
    3.7694   -0.0341    0.0000 N   0  0  0  0  0  0  0  0  0  0  0  0
   -3.8648    1.4109    0.0000 N   0  0  0  0  0  0  0  0  0  0  0  0
   -4.6964    2.6106    0.0000 N   0  0  0  0  0  0  0  0  0  0  0  0
    9.3996   -0.0477    0.0000 C   0  0  3  0  0  0  0  0  0  0  0  0
    9.6723   -0.8793    0.0000 C   0  0  3  0  0  0  0  0  0  0  0  0
    8.4863   -0.0341    0.0000 C   0  0  3  0  0  0  0  0  0  0  0  0
   10.8447   -0.0341    0.0000 C   0  0  0  0  0  0  0  0  0  0  0  0
    8.9498   -1.4382    0.0000 C   0  0  0  0  0  0  0  0  0  0  0  0
   -8.8680   -1.3973    0.0000 C   0  0  0  0  0  0  0  0  0  0  0  0
   -8.8680   -2.1881    0.0000 C   0  0  0  0  0  0  0  0  0  0  0  0
    7.6955    0.4158    0.0000 C   0  0  0  0  0  0  0  0  0  0  0  0
   -7.4775   -1.3837    0.0000 C   0  0  0  0  0  0  0  0  0  0  0  0
   -8.1727   -1.0020    0.0000 C   0  0  0  0  0  0  0  0  0  0  0  0
  -10.2585   -2.1881    0.0000 C   0  0  0  0  0  0  0  0  0  0  0  0
   -9.5768   -2.5834    0.0000 C   0  0  0  0  0  0  0  0  0  0  0  0
   -8.1727   -2.5970    0.0000 C   0  0  0  0  0  0  0  0  0  0  0  0
   -6.7958   -1.0020    0.0000 C   0  0  0  0  0  0  0  0  0  0  0  0
   -9.5496   -1.0020    0.0000 C   0  0  0  0  0  0  0  0  0  0  0  0
   -7.4775   -2.1881    0.0000 C   0  0  0  0  0  0  0  0  0  0  0  0
  -10.2448   -1.3973    0.0000 C   0  0  0  0  0  0  0  0  0  0  0  0
    6.9185   -0.0341    0.0000 C   0  0  0  0  0  0  0  0  0  0  0  0
   -5.4053   -0.9884    0.0000 C   0  0  3  0  0  0  0  0  0  0  0  0
   -4.6964   -1.3701    0.0000 C   0  0  0  0  0  0  0  0  0  0  0  0
    6.1142    0.4158    0.0000 C   0  0  0  0  0  0  0  0  0  0  0  0
   -5.3916   -0.1977    0.0000 C   0  0  0  0  0  0  0  0  0  0  0  0
   -4.0148   -1.0020    0.0000 C   0  0  0  0  0  0  0  0  0  0  0  0
  -10.9401   -3.4013    0.0000 C   0  0  0  0  0  0  0  0  0  0  0  0
  -11.6353   -2.2153    0.0000 C   0  0  0  0  0  0  0  0  0  0  0  0
   -2.5425   -0.9338    0.0000 C   0  0  0  0  0  0  0  0  0  0  0  0
    5.3508   -0.0341    0.0000 C   0  0  0  0  0  0  0  0  0  0  0  0
   -3.3059   -1.3973    0.0000 C   0  0  0  0  0  0  0  0  0  0  0  0
   -4.7100    0.1977    0.0000 C   0  0  0  0  0  0  0  0  0  0  0  0
   -0.9611   -0.0204    0.0000 C   0  0  0  0  0  0  0  0  0  0  0  0
   -2.5016   -0.0204    0.0000 C   0  0  0  0  0  0  0  0  0  0  0  0
   -1.7381   -1.3973    0.0000 C   0  0  0  0  0  0  0  0  0  0  0  0
    4.5464    0.4021    0.0000 C   0  0  0  0  0  0  0  0  0  0  0  0
   -1.7381    0.4158    0.0000 C   0  0  0  0  0  0  0  0  0  0  0  0
   -0.9611   -0.9338    0.0000 C   0  0  0  0  0  0  0  0  0  0  0  0
   -4.6964    1.0156    0.0000 C   0  0  0  0  0  0  0  0  0  0  0  0
    0.6203   -0.0068    0.0000 C   0  0  0  0  0  0  0  0  0  0  0  0
    1.3973    0.4158    0.0000 C   0  0  0  0  0  0  0  0  0  0  0  0
    2.9651    0.4158    0.0000 C   0  0  0  0  0  0  0  0  0  0  0  0
    2.2016   -0.0341    0.0000 C   0  0  0  0  0  0  0  0  0  0  0  0
   -4.0011    2.2016    0.0000 C   0  0  0  0  0  0  0  0  0  0  0  0
   -3.3195    2.5970    0.0000 C   0  0  0  0  0  0  0  0  0  0  0  0
  1 57  1  0  0  0  0
  2 18  1  0  0  0  0
  2 20  1  0  0  0  0
  3 19  2  0  0  0  0
  4 29  2  0  0  0  0
  5 35  2  0  0  0  0
  6 48  2  0  0  0  0
  7 52  2  0  0  0  0
  8 16  1  0  0  0  0
  8 19  1  0  0  0  0
  9 17  1  0  0  0  0
  9 19  1  0  0  0  0
 10 26  1  0  0  0  0
 10 39  1  0  0  0  0
 10 40  1  0  0  0  0
 11 29  1  0  0  0  0
 34 11  1  1  0  0  0
 12 45  1  0  0  0  0
 12 52  1  0  0  0  0
 13 48  1  0  0  0  0
 13 54  1  0  0  0  0
 14 51  1  0  0  0  0
 14 56  1  0  0  0  0
 15 56  2  3  0  0  0
 16 17  1  0  0  0  0
 16 18  1  0  0  0  0
 17 20  1  0  0  0  0
 18 23  1  0  0  0  0
 21 22  1  0  0  0  0
 21 25  2  0  0  0  0
 21 30  1  0  0  0  0
 22 27  1  0  0  0  0
 22 28  2  0  0  0  0
 23 33  1  0  0  0  0
 24 25  1  0  0  0  0
 24 29  1  0  0  0  0
 24 31  2  0  0  0  0
 26 27  2  0  0  0  0
 26 32  1  0  0  0  0
 28 31  1  0  0  0  0
 30 32  2  0  0  0  0
 33 36  1  0  0  0  0
 34 35  1  0  0  0  0
 34 37  1  0  0  0  0
 35 38  1  0  0  0  0
 36 42  1  0  0  0  0
 37 44  1  0  0  0  0
 38 43  1  0  0  0  0
 41 43  1  0  0  0  0
 41 46  2  0  0  0  0
 41 47  1  0  0  0  0
 42 48  1  0  0  0  0
 44 51  1  0  0  0  0
 45 49  2  0  0  0  0
 45 50  1  0  0  0  0
 46 49  1  0  0  0  0
 47 50  2  0  0  0  0
 52 53  1  0  0  0  0
 53 55  1  0  0  0  0
 54 55  1  0  0  0  0
 56 57  1  0  0  0  0
M  END
> <PUBCHEM_COMPOUND_ID_TYPE>
0

> <PUBCHEM_TOTAL_CHARGE>
0

> <PUBCHEM_SUBSTANCE_ID>
310946398

> <PUBCHEM_SUBSTANCE_VERSION>
1

> <PUBCHEM_EXT_DATASOURCE_NAME>
4488

> <PUBCHEM_EXT_DATASOURCE_REGID>
SCHEMBL16124519

> <PUBCHEM_SUBSTANCE_COMMENT>
InChI=1S/C42H55ClN8O5S/c1-51(2)32-19-16-28-23-30(15-14-29(28)24-32)41(55)48-33(7-5-21-45-37(44)25-43)35(52)20-13-27-11-17-31(18-12-27)47-39(54)10-6-22-46-38(53)9-4-3-8-36-40-34(26-57-36)49-42(56)50-40/h11-12,14-19,23-24,33-34,36,40H,3-10,13,20-22,25-26H2,1-2H3,(H2,44,45)(H,46,53)(H,47,54)(H,48,55)(H2,49,50,56)/t33-,34?,36?,40?/m0/s1
InChIKey=USHUOMDOSBCXOY-GKHGADIJSA-N

> <PUBCHEM_SUBSTANCE_SYNONYM>
SCHEMBL16124519

> <PUBCHEM_XREF_EXT_ID>
SCHEMBL16124519

> <PUBCHEM_EXT_DATASOURCE_URL>
https://www.surechembl.org/

> <PUBCHEM_EXT_SUBSTANCE_URL>
https://www.surechembl.org/chemical/SCHEMBL16124519

> <PUBCHEM_CID_ASSOCIATIONS>
117612319  1

> <PUBCHEM_COORDINATE_TYPE>
1
3

> <PUBCHEM_BONDANNOTATIONS>
34  11  5

$$$$
