310929010
  -OEChem-07211613022D

 39 43  0     1  0  0  0  0  0999 V2000
   -0.4189    1.1540    0.0000 O   0  0  0  0  0  0  0  0  0  0  0  0
    1.0101   -1.3210    0.0000 O   0  0  0  0  0  0  0  0  0  0  0  0
    2.4390    1.1540    0.0000 O   0  0  0  0  0  0  0  0  0  0  0  0
    3.8680    1.1540    0.0000 O   0  0  0  0  0  0  0  0  0  0  0  0
   -1.8478    1.1540    0.0000 N   0  0  0  0  0  0  0  0  0  0  0  0
    0.2956   -0.0835    0.0000 N   0  0  0  0  0  0  0  0  0  0  0  0
   -1.1333   -0.0835    0.0000 C   0  0  0  0  0  0  0  0  0  0  0  0
   -0.4189   -0.4960    0.0000 C   0  0  0  0  0  0  0  0  0  0  0  0
   -3.2767    1.9790    0.0000 C   0  0  0  0  0  0  0  0  0  0  0  0
   -1.1333    0.7415    0.0000 C   0  0  0  0  0  0  0  0  0  0  0  0
   -0.4189   -1.3210    0.0000 C   0  0  0  0  0  0  0  0  0  0  0  0
   -1.8478   -0.4960    0.0000 C   0  0  0  0  0  0  0  0  0  0  0  0
    2.4390   -1.3210    0.0000 C   0  0  0  0  0  0  0  0  0  0  0  0
   -2.5623    2.3915    0.0000 C   0  0  0  0  0  0  0  0  0  0  0  0
   -3.2767    1.1540    0.0000 C   0  0  0  0  0  0  0  0  0  0  0  0
    3.1535   -1.7335    0.0000 C   0  0  0  0  0  0  0  0  0  0  0  0
   -1.8478    1.9790    0.0000 C   0  0  0  0  0  0  0  0  0  0  0  0
   -2.5623    0.7415    0.0000 C   0  0  0  0  0  0  0  0  0  0  0  0
    2.4390   -0.4960    0.0000 C   0  0  3  0  0  0  0  0  0  0  0  0
   -1.8478   -1.3210    0.0000 C   0  0  0  0  0  0  0  0  0  0  0  0
   -1.1333   -1.7335    0.0000 C   0  0  0  0  0  0  0  0  0  0  0  0
   -3.3630    2.7995    0.0000 C   0  0  0  0  0  0  0  0  0  0  0  0
   -4.0304    1.6434    0.0000 C   0  0  0  0  0  0  0  0  0  0  0  0
    3.1535   -2.5585    0.0000 C   0  0  0  0  0  0  0  0  0  0  0  0
    1.0101   -0.4960    0.0000 C   0  0  0  0  0  0  0  0  0  0  0  0
    1.7246   -0.0835    0.0000 C   0  0  0  0  0  0  0  0  0  0  0  0
    1.7246   -1.7335    0.0000 C   0  0  0  0  0  0  0  0  0  0  0  0
   -4.1699    2.9710    0.0000 C   0  0  0  0  0  0  0  0  0  0  0  0
   -4.5824    2.2565    0.0000 C   0  0  0  0  0  0  0  0  0  0  0  0
    3.8680   -1.3210    0.0000 C   0  0  0  0  0  0  0  0  0  0  0  0
    2.4390   -2.9710    0.0000 C   0  0  0  0  0  0  0  0  0  0  0  0
    3.1535   -0.0835    0.0000 C   0  0  0  0  0  0  0  0  0  0  0  0
    3.8680   -2.9710    0.0000 C   0  0  0  0  0  0  0  0  0  0  0  0
    1.7246   -2.5585    0.0000 C   0  0  0  0  0  0  0  0  0  0  0  0
    0.2956   -1.7335    0.0000 C   0  0  0  0  0  0  0  0  0  0  0  0
   -2.5623   -1.7335    0.0000 C   0  0  0  0  0  0  0  0  0  0  0  0
    4.5824   -1.7335    0.0000 C   0  0  0  0  0  0  0  0  0  0  0  0
    4.5824   -2.5585    0.0000 C   0  0  0  0  0  0  0  0  0  0  0  0
    3.1535    0.7415    0.0000 C   0  0  0  0  0  0  0  0  0  0  0  0
  1 10  2  0  0  0  0
  2 25  2  0  0  0  0
  3 39  2  0  0  0  0
  4 39  1  0  0  0  0
  5 10  1  0  0  0  0
  5 17  1  0  0  0  0
  5 18  1  0  0  0  0
  6  8  1  0  0  0  0
  6 25  1  0  0  0  0
  7  8  2  0  0  0  0
  7 10  1  0  0  0  0
  7 12  1  0  0  0  0
  8 11  1  0  0  0  0
  9 14  1  0  0  0  0
  9 15  1  0  0  0  0
  9 22  1  0  0  0  0
  9 23  1  0  0  0  0
 11 21  2  0  0  0  0
 11 35  1  0  0  0  0
 12 20  2  0  0  0  0
 13 16  2  0  0  0  0
 19 13  1  6  0  0  0
 13 27  1  0  0  0  0
 14 17  1  0  0  0  0
 15 18  1  0  0  0  0
 16 24  1  0  0  0  0
 16 30  1  0  0  0  0
 19 26  1  0  0  0  0
 19 32  1  0  0  0  0
 20 21  1  0  0  0  0
 20 36  1  0  0  0  0
 22 28  1  0  0  0  0
 23 29  1  0  0  0  0
 24 31  2  0  0  0  0
 24 33  1  0  0  0  0
 25 26  1  0  0  0  0
 27 34  2  0  0  0  0
 28 29  1  0  0  0  0
 30 37  2  0  0  0  0
 31 34  1  0  0  0  0
 32 39  1  0  0  0  0
 33 38  2  0  0  0  0
 37 38  1  0  0  0  0
M  END
> <PUBCHEM_COMPOUND_ID_TYPE>
0

> <PUBCHEM_TOTAL_CHARGE>
0

> <PUBCHEM_SUBSTANCE_ID>
310929010

> <PUBCHEM_SUBSTANCE_VERSION>
1

> <PUBCHEM_EXT_DATASOURCE_NAME>
11752

> <PUBCHEM_EXT_DATASOURCE_REGID>
BD328147

> <PUBCHEM_SUBSTANCE_SYNONYM>
(R)-5-((2,4-Dimethyl-6-(8-azaspiro[4.5]decane-8-carbonyl)phenyl)amino)-3-(naphthalen-1-yl)-5-oxopentanoic acid
201605-51-8

> <PUBCHEM_GENERIC_REGISTRY_NAME>
201605-51-8

> <PUBCHEM_XREF_EXT_ID>
BD328147

> <PUBCHEM_EXT_DATASOURCE_URL>
http://www.bidepharmatech.com/en/index.html

> <PUBCHEM_EXT_SUBSTANCE_URL>
http://www.bidepharmatech.com/en/goodsview_goodscode_BD328147.html

> <PUBCHEM_CID_ASSOCIATIONS>
6604121  1

> <PUBCHEM_COORDINATE_TYPE>
1
3

> <PUBCHEM_BONDANNOTATIONS>
19  13  6

$$$$
