310932167
  -OEChem-07211613022D

 27 30  0     0  0  0  0  0  0999 V2000
    0.7012   -8.2499    0.0000 Br  0  0  0  0  0  0  0  0  0  0  0  0
    3.5474   -2.4749    0.0000 O   0  0  0  0  0  0  0  0  0  0  0  0
    3.5474   -0.8250    0.0000 O   0  0  0  0  0  0  0  0  0  0  0  0
    0.7012   -3.2999    0.0000 N   0  0  0  0  0  0  0  0  0  0  0  0
    0.0000   -2.0625    0.0000 N   0  0  0  0  0  0  0  0  0  0  0  0
    0.7012   -4.9499    0.0000 N   0  0  0  0  0  0  0  0  0  0  0  0
    0.7012   -0.8250    0.0000 N   0  0  0  0  0  0  0  0  0  0  0  0
    0.0000   -6.1874    0.0000 N   0  0  0  0  0  0  0  0  0  0  0  0
    1.4437   -6.1874    0.0000 N   0  0  0  0  0  0  0  0  0  0  0  0
    1.4437   -2.0625    0.0000 C   0  0  0  0  0  0  0  0  0  0  0  0
    0.7012   -2.4749    0.0000 C   0  0  0  0  0  0  0  0  0  0  0  0
    1.4437   -1.2375    0.0000 C   0  0  0  0  0  0  0  0  0  0  0  0
    2.1037   -2.4749    0.0000 C   0  0  0  0  0  0  0  0  0  0  0  0
    2.8462   -2.0625    0.0000 C   0  0  0  0  0  0  0  0  0  0  0  0
    2.8462   -1.2375    0.0000 C   0  0  0  0  0  0  0  0  0  0  0  0
    2.1037   -0.8250    0.0000 C   0  0  0  0  0  0  0  0  0  0  0  0
    0.0000   -3.6712    0.0000 C   0  0  0  0  0  0  0  0  0  0  0  0
    1.4437   -3.6712    0.0000 C   0  0  0  0  0  0  0  0  0  0  0  0
    0.7012   -5.7337    0.0000 C   0  0  0  0  0  0  0  0  0  0  0  0
    0.0000   -1.2375    0.0000 C   0  0  0  0  0  0  0  0  0  0  0  0
    1.4437   -4.5374    0.0000 C   0  0  0  0  0  0  0  0  0  0  0  0
    0.0000   -4.5374    0.0000 C   0  0  0  0  0  0  0  0  0  0  0  0
    0.7012   -7.4249    0.0000 C   0  0  0  0  0  0  0  0  0  0  0  0
    0.0000   -7.0124    0.0000 C   0  0  0  0  0  0  0  0  0  0  0  0
    1.4437   -7.0124    0.0000 C   0  0  0  0  0  0  0  0  0  0  0  0
    4.2487   -2.0625    0.0000 C   0  0  0  0  0  0  0  0  0  0  0  0
    3.5474    0.0000    0.0000 C   0  0  0  0  0  0  0  0  0  0  0  0
  1 23  1  0  0  0  0
  2 14  1  0  0  0  0
  2 26  1  0  0  0  0
  3 15  1  0  0  0  0
  3 27  1  0  0  0  0
  4 11  1  0  0  0  0
  4 17  1  0  0  0  0
  4 18  1  0  0  0  0
  5 11  1  0  0  0  0
  5 20  2  0  0  0  0
  6 19  1  0  0  0  0
  6 21  1  0  0  0  0
  6 22  1  0  0  0  0
  7 12  2  0  0  0  0
  7 20  1  0  0  0  0
  8 19  2  0  0  0  0
  8 24  1  0  0  0  0
  9 19  1  0  0  0  0
  9 25  2  0  0  0  0
 10 11  2  0  0  0  0
 10 12  1  0  0  0  0
 10 13  1  0  0  0  0
 12 16  1  0  0  0  0
 13 14  2  0  0  0  0
 14 15  1  0  0  0  0
 15 16  2  0  0  0  0
 17 22  1  0  0  0  0
 18 21  1  0  0  0  0
 23 24  2  0  0  0  0
 23 25  1  0  0  0  0
M  END
> <PUBCHEM_COMPOUND_ID_TYPE>
0

> <PUBCHEM_TOTAL_CHARGE>
0

> <PUBCHEM_SUBSTANCE_ID>
310932167

> <PUBCHEM_SUBSTANCE_VERSION>
1

> <PUBCHEM_EXT_DATASOURCE_NAME>
4488

> <PUBCHEM_EXT_DATASOURCE_REGID>
SCHEMBL16109521

> <PUBCHEM_SUBSTANCE_COMMENT>
InChI=1S/C18H19BrN6O2/c1-26-15-7-13-14(8-16(15)27-2)22-11-23-17(13)24-3-5-25(6-4-24)18-20-9-12(19)10-21-18/h7-11H,3-6H2,1-2H3
InChIKey=YDJXDQNVLLIECW-UHFFFAOYSA-N

> <PUBCHEM_SUBSTANCE_SYNONYM>
SCHEMBL16109521

> <PUBCHEM_XREF_EXT_ID>
SCHEMBL16109521

> <PUBCHEM_EXT_DATASOURCE_URL>
https://www.surechembl.org/

> <PUBCHEM_EXT_SUBSTANCE_URL>
https://www.surechembl.org/chemical/SCHEMBL16109521

> <PUBCHEM_CID_ASSOCIATIONS>
117600768  1

> <PUBCHEM_COORDINATE_TYPE>
1
3

$$$$
