310935856
  -OEChem-07211613022D

 16 17  0     0  0  0  0  0  0999 V2000
    2.8749   -1.7058    0.0000 S   0  0  0  0  0  0  0  0  0  0  0  0
    0.7091   -2.8749    0.0000 O   0  0  0  0  0  0  0  0  0  0  0  0
    2.2232   -2.8557    0.0000 N   0  0  0  0  0  0  0  0  0  0  0  0
    4.5998   -1.4949    0.0000 N   0  0  0  0  0  0  0  0  0  0  0  0
    1.4183   -1.6291    0.0000 N   0  0  0  0  0  0  0  0  0  0  0  0
    3.4307   -2.3191    0.0000 C   0  0  0  0  0  0  0  0  0  0  0  0
    2.1274   -2.0507    0.0000 C   0  0  0  0  0  0  0  0  0  0  0  0
    3.0282   -3.0282    0.0000 C   0  0  0  0  0  0  0  0  0  0  0  0
    4.2548   -2.2424    0.0000 C   0  0  0  0  0  0  0  0  0  0  0  0
    4.1015   -0.8241    0.0000 C   0  0  0  0  0  0  0  0  0  0  0  0
    5.4048   -1.3991    0.0000 C   0  0  0  0  0  0  0  0  0  0  0  0
    0.7091   -2.0507    0.0000 C   0  0  0  0  0  0  0  0  0  0  0  0
    4.4273   -0.0575    0.0000 C   0  0  0  0  0  0  0  0  0  0  0  0
    5.7498   -0.6708    0.0000 C   0  0  0  0  0  0  0  0  0  0  0  0
    5.2706    0.0000    0.0000 C   0  0  0  0  0  0  0  0  0  0  0  0
    0.0000   -1.6291    0.0000 C   0  0  0  0  0  0  0  0  0  0  0  0
  1  6  1  0  0  0  0
  1  7  1  0  0  0  0
  2 12  2  0  0  0  0
  3  7  2  0  0  0  0
  3  8  1  0  0  0  0
  4  9  1  0  0  0  0
  4 10  1  0  0  0  0
  4 11  1  0  0  0  0
  5  7  1  0  0  0  0
  5 12  1  0  0  0  0
  6  8  2  0  0  0  0
  6  9  1  0  0  0  0
 10 13  1  0  0  0  0
 11 14  1  0  0  0  0
 12 16  1  0  0  0  0
 13 15  1  0  0  0  0
 14 15  1  0  0  0  0
M  END
> <PUBCHEM_COMPOUND_ID_TYPE>
0

> <PUBCHEM_TOTAL_CHARGE>
0

> <PUBCHEM_SUBSTANCE_ID>
310935856

> <PUBCHEM_SUBSTANCE_VERSION>
1

> <PUBCHEM_EXT_DATASOURCE_NAME>
4488

> <PUBCHEM_EXT_DATASOURCE_REGID>
SCHEMBL16113448

> <PUBCHEM_SUBSTANCE_COMMENT>
InChI=1S/C11H17N3OS/c1-9(15)13-11-12-7-10(16-11)8-14-5-3-2-4-6-14/h7H,2-6,8H2,1H3,(H,12,13,15)
InChIKey=WQUWVCYQJKWKDB-UHFFFAOYSA-N

> <PUBCHEM_SUBSTANCE_SYNONYM>
SCHEMBL16113448

> <PUBCHEM_XREF_EXT_ID>
SCHEMBL16113448

> <PUBCHEM_EXT_DATASOURCE_URL>
https://www.surechembl.org/

> <PUBCHEM_EXT_SUBSTANCE_URL>
https://www.surechembl.org/chemical/SCHEMBL16113448

> <PUBCHEM_CID_ASSOCIATIONS>
314318  1

> <PUBCHEM_COORDINATE_TYPE>
1
3

$$$$
