310928850
  -OEChem-07211613022D

 17 18  0     0  0  0  0  0  0999 V2000
   -0.8427    0.1205    0.0000 O   0  0  0  0  0  0  0  0  0  0  0  0
   -1.5102   -1.0356    0.0000 O   0  0  0  0  0  0  0  0  0  0  0  0
   -1.6497    0.2920    0.0000 C   0  0  0  0  0  0  0  0  0  0  0  0
   -2.0622   -0.4225    0.0000 C   0  0  0  0  0  0  0  0  0  0  0  0
   -0.0420   -1.1125    0.0000 C   0  0  0  0  0  0  0  0  0  0  0  0
    0.6725   -0.7000    0.0000 C   0  0  0  0  0  0  0  0  0  0  0  0
   -2.3171    0.7769    0.0000 C   0  0  0  0  0  0  0  0  0  0  0  0
   -1.5635    1.1125    0.0000 C   0  0  0  0  0  0  0  0  0  0  0  0
   -2.7296   -0.9074    0.0000 C   0  0  0  0  0  0  0  0  0  0  0  0
   -2.8159   -0.0869    0.0000 C   0  0  0  0  0  0  0  0  0  0  0  0
    1.3869   -1.1125    0.0000 C   0  0  0  0  0  0  0  0  0  0  0  0
    0.6725    0.1250    0.0000 C   0  0  0  0  0  0  0  0  0  0  0  0
    2.1014    0.1250    0.0000 C   0  0  0  0  0  0  0  0  0  0  0  0
    2.1014   -0.7000    0.0000 C   0  0  0  0  0  0  0  0  0  0  0  0
    1.3869    0.5375    0.0000 C   0  0  0  0  0  0  0  0  0  0  0  0
    2.8159    0.5375    0.0000 C   0  0  0  0  0  0  0  0  0  0  0  0
   -0.7565   -0.7000    0.0000 B   0  0  0  0  0  0  0  0  0  0  0  0
  1  3  1  0  0  0  0
  1 17  1  0  0  0  0
  2  4  1  0  0  0  0
  2 17  1  0  0  0  0
  3  4  1  0  0  0  0
  3  7  1  0  0  0  0
  3  8  1  0  0  0  0
  4  9  1  0  0  0  0
  4 10  1  0  0  0  0
  5  6  1  0  0  0  0
  5 17  1  0  0  0  0
  6 11  2  0  0  0  0
  6 12  1  0  0  0  0
 11 14  1  0  0  0  0
 12 15  2  0  0  0  0
 13 14  2  0  0  0  0
 13 15  1  0  0  0  0
 13 16  1  0  0  0  0
M  END
> <PUBCHEM_COMPOUND_ID_TYPE>
0

> <PUBCHEM_TOTAL_CHARGE>
0

> <PUBCHEM_SUBSTANCE_ID>
310928850

> <PUBCHEM_SUBSTANCE_VERSION>
1

> <PUBCHEM_EXT_DATASOURCE_NAME>
11752

> <PUBCHEM_EXT_DATASOURCE_REGID>
BD224664

> <PUBCHEM_SUBSTANCE_SYNONYM>
356570-52-0
4,4,5,5-Tetramethyl-2-(4-methylbenzyl)-1,3,2-dioxaborolane

> <PUBCHEM_GENERIC_REGISTRY_NAME>
356570-52-0

> <PUBCHEM_XREF_EXT_ID>
BD224664

> <PUBCHEM_EXT_DATASOURCE_URL>
http://www.bidepharmatech.com/en/index.html

> <PUBCHEM_EXT_SUBSTANCE_URL>
http://www.bidepharmatech.com/en/goodsview_goodscode_BD224664.html

> <PUBCHEM_CID_ASSOCIATIONS>
16218149  1

> <PUBCHEM_COORDINATE_TYPE>
1
3

$$$$
