310949129
  -OEChem-07211613022D

 39 43  0     0  0  0  0  0  0999 V2000
   -1.7852    0.2861    0.0000 F   0  0  0  0  0  0  0  0  0  0  0  0
   -2.1395    1.3491    0.0000 F   0  0  0  0  0  0  0  0  0  0  0  0
   -1.0629    1.6761    0.0000 F   0  0  0  0  0  0  0  0  0  0  0  0
    1.4445   -1.4990    0.0000 F   0  0  0  0  0  0  0  0  0  0  0  0
   -1.4036   -1.4717    0.0000 F   0  0  0  0  0  0  0  0  0  0  0  0
   -1.4172   -3.1343    0.0000 F   0  0  0  0  0  0  0  0  0  0  0  0
    1.4445   -3.1479    0.0000 F   0  0  0  0  0  0  0  0  0  0  0  0
    0.0000   -3.9792    0.0000 F   0  0  0  0  0  0  0  0  0  0  0  0
    0.0000    1.8261    0.0000 N   0  0  0  0  0  0  0  0  0  0  0  0
    2.1531    1.3218    0.0000 N   0  0  0  0  0  0  0  0  0  0  0  0
   -0.0137    0.9948    0.0000 C   0  0  0  0  0  0  0  0  0  0  0  0
   -0.0409    3.3796    0.0000 C   0  0  0  0  0  0  0  0  0  0  0  0
   -0.7904    2.1395    0.0000 C   0  0  0  0  0  0  0  0  0  0  0  0
    0.7495    2.1804    0.0000 C   0  0  0  0  0  0  0  0  0  0  0  0
   -0.7768    2.9844    0.0000 C   0  0  0  0  0  0  0  0  0  0  0  0
    0.6950    2.9707    0.0000 C   0  0  0  0  0  0  0  0  0  0  0  0
   -0.6950    0.5996    0.0000 C   0  0  0  0  0  0  0  0  0  0  0  0
    0.7222    0.6132    0.0000 C   0  0  0  0  0  0  0  0  0  0  0  0
    0.0137   -0.6405    0.0000 C   0  0  0  0  0  0  0  0  0  0  0  0
    0.0000   -1.4854    0.0000 C   0  0  0  0  0  0  0  0  0  0  0  0
   -0.7086   -0.2317    0.0000 C   0  0  0  0  0  0  0  0  0  0  0  0
   -1.4309    0.9948    0.0000 C   0  0  0  0  0  0  0  0  0  0  0  0
    0.6950   -0.2317    0.0000 C   0  0  0  0  0  0  0  0  0  0  0  0
   -1.5126    1.7715    0.0000 C   0  0  0  0  0  0  0  0  0  0  0  0
    1.5126    1.8397    0.0000 C   0  0  0  0  0  0  0  0  0  0  0  0
   -1.4445    3.4068    0.0000 C   0  0  0  0  0  0  0  0  0  0  0  0
    1.3355    3.4613    0.0000 C   0  0  0  0  0  0  0  0  0  0  0  0
    0.7222   -1.8806    0.0000 C   0  0  0  0  0  0  0  0  0  0  0  0
   -0.6950   -1.8806    0.0000 C   0  0  0  0  0  0  0  0  0  0  0  0
   -0.6132    3.9792    0.0000 C   0  0  0  0  0  0  0  0  0  0  0  0
    0.5859    3.9519    0.0000 C   0  0  0  0  0  0  0  0  0  0  0  0
   -0.7086   -2.6982    0.0000 C   0  0  0  0  0  0  0  0  0  0  0  0
    0.6950   -2.7118    0.0000 C   0  0  0  0  0  0  0  0  0  0  0  0
    0.0000   -3.1207    0.0000 C   0  0  0  0  0  0  0  0  0  0  0  0
    1.4309    0.9811    0.0000 C   0  0  0  0  0  0  0  0  0  0  0  0
   -2.1531    2.1940    0.0000 C   0  0  0  0  0  0  0  0  0  0  0  0
    2.1531    2.3030    0.0000 C   0  0  0  0  0  0  0  0  0  0  0  0
   -2.1259    3.0252    0.0000 C   0  0  0  0  0  0  0  0  0  0  0  0
    2.0986    3.1207    0.0000 C   0  0  0  0  0  0  0  0  0  0  0  0
  1 22  1  0  0  0  0
  2 22  1  0  0  0  0
  3 22  1  0  0  0  0
  4 28  1  0  0  0  0
  5 29  1  0  0  0  0
  6 32  1  0  0  0  0
  7 33  1  0  0  0  0
  8 34  1  0  0  0  0
  9 11  1  0  0  0  0
  9 13  1  0  0  0  0
  9 14  1  0  0  0  0
 10 35  3  0  0  0  0
 11 17  1  0  0  0  0
 11 18  2  0  0  0  0
 12 15  1  0  0  0  0
 12 16  1  0  0  0  0
 12 30  1  0  0  0  0
 12 31  1  0  0  0  0
 13 15  2  0  0  0  0
 13 24  1  0  0  0  0
 14 16  2  0  0  0  0
 14 25  1  0  0  0  0
 15 26  1  0  0  0  0
 16 27  1  0  0  0  0
 17 21  2  0  0  0  0
 17 22  1  0  0  0  0
 18 23  1  0  0  0  0
 18 35  1  0  0  0  0
 19 20  1  0  0  0  0
 19 21  1  0  0  0  0
 19 23  2  0  0  0  0
 20 28  2  0  0  0  0
 20 29  1  0  0  0  0
 24 36  2  0  0  0  0
 25 37  2  0  0  0  0
 26 38  2  0  0  0  0
 27 39  2  0  0  0  0
 28 33  1  0  0  0  0
 29 32  2  0  0  0  0
 32 34  1  0  0  0  0
 33 34  2  0  0  0  0
 36 38  1  0  0  0  0
 37 39  1  0  0  0  0
M  END
> <PUBCHEM_COMPOUND_ID_TYPE>
0

> <PUBCHEM_TOTAL_CHARGE>
0

> <PUBCHEM_SUBSTANCE_ID>
310949129

> <PUBCHEM_SUBSTANCE_VERSION>
1

> <PUBCHEM_EXT_DATASOURCE_NAME>
4488

> <PUBCHEM_EXT_DATASOURCE_REGID>
SCHEMBL16127319

> <PUBCHEM_SUBSTANCE_COMMENT>
InChI=1S/C29H16F8N2/c1-28(2)16-7-3-5-9-19(16)39(20-10-6-4-8-17(20)28)27-15(13-38)11-14(12-18(27)29(35,36)37)21-22(30)24(32)26(34)25(33)23(21)31/h3-12H,1-2H3
InChIKey=DDBIYLCNRDOZGW-UHFFFAOYSA-N

> <PUBCHEM_SUBSTANCE_SYNONYM>
SCHEMBL16127319

> <PUBCHEM_XREF_EXT_ID>
SCHEMBL16127319

> <PUBCHEM_EXT_DATASOURCE_URL>
https://www.surechembl.org/

> <PUBCHEM_EXT_SUBSTANCE_URL>
https://www.surechembl.org/chemical/SCHEMBL16127319

> <PUBCHEM_CID_ASSOCIATIONS>
117614626  1

> <PUBCHEM_COORDINATE_TYPE>
1
3

$$$$
