310932209
  -OEChem-07211613022D

 17 18  0     1  0  0  0  0  0999 V2000
    0.8377   -1.1099    0.0000 F   0  0  0  0  0  0  0  0  0  0  0  0
    0.0000   -2.2618    0.0000 F   0  0  0  0  0  0  0  0  0  0  0  0
    1.4869   -1.5916    0.0000 F   0  0  0  0  0  0  0  0  0  0  0  0
    2.8062   -0.8168    0.0000 N   0  0  3  0  0  0  0  0  0  0  0  0
    3.7068   -2.7644    0.0000 N   0  0  0  0  0  0  0  0  0  0  0  0
    1.9057   -2.7644    0.0000 C   0  0  0  0  0  0  0  0  0  0  0  0
    1.0890   -2.6806    0.0000 C   0  0  0  0  0  0  0  0  0  0  0  0
    2.3874   -2.0942    0.0000 C   0  0  3  0  0  0  0  0  0  0  0  0
    0.7539   -1.9267    0.0000 C   0  0  0  0  0  0  0  0  0  0  0  0
    3.2042   -2.0942    0.0000 C   0  0  3  0  0  0  0  0  0  0  0  0
    2.1361   -1.3194    0.0000 C   0  0  0  0  0  0  0  0  0  0  0  0
    2.2409   -3.5183    0.0000 C   0  0  0  0  0  0  0  0  0  0  0  0
    0.6073   -3.3508    0.0000 C   0  0  0  0  0  0  0  0  0  0  0  0
    3.4555   -1.3194    0.0000 C   0  0  0  0  0  0  0  0  0  0  0  0
    1.7591   -4.1885    0.0000 C   0  0  0  0  0  0  0  0  0  0  0  0
    0.9424   -4.1047    0.0000 C   0  0  0  0  0  0  0  0  0  0  0  0
    2.8062    0.0000    0.0000 C   0  0  0  0  0  0  0  0  0  0  0  0
  1  9  1  0  0  0  0
  2  9  1  0  0  0  0
  3  9  1  0  0  0  0
  4 11  1  0  0  0  0
  4 14  1  0  0  0  0
  4 17  1  0  0  0  0
 10  5  1  1  0  0  0
  6  7  1  0  0  0  0
  6  8  1  0  0  0  0
  6 12  2  0  0  0  0
  7  9  1  0  0  0  0
  7 13  2  0  0  0  0
  8 10  1  0  0  0  0
  8 11  1  6  0  0  0
 10 14  1  0  0  0  0
 12 15  1  0  0  0  0
 13 16  1  0  0  0  0
 15 16  2  0  0  0  0
M  END
> <PUBCHEM_COMPOUND_ID_TYPE>
0

> <PUBCHEM_TOTAL_CHARGE>
0

> <PUBCHEM_SUBSTANCE_ID>
310932209

> <PUBCHEM_SUBSTANCE_VERSION>
1

> <PUBCHEM_EXT_DATASOURCE_NAME>
4488

> <PUBCHEM_EXT_DATASOURCE_REGID>
SCHEMBL16109566

> <PUBCHEM_SUBSTANCE_COMMENT>
InChI=1S/C12H15F3N2/c1-17-6-9(11(16)7-17)8-4-2-3-5-10(8)12(13,14)15/h2-5,9,11H,6-7,16H2,1H3/t9-,11+/m0/s1
InChIKey=WKPYUKGDCNTYKE-GXSJLCMTSA-N

> <PUBCHEM_SUBSTANCE_SYNONYM>
SCHEMBL16109566

> <PUBCHEM_XREF_EXT_ID>
SCHEMBL16109566

> <PUBCHEM_EXT_DATASOURCE_URL>
https://www.surechembl.org/

> <PUBCHEM_EXT_SUBSTANCE_URL>
https://www.surechembl.org/chemical/SCHEMBL16109566

> <PUBCHEM_CID_ASSOCIATIONS>
117600798  1

> <PUBCHEM_COORDINATE_TYPE>
1
3

> <PUBCHEM_BONDANNOTATIONS>
10  5  5
8  11  6

$$$$
