310948009
  -OEChem-07211613022D

 30 34  0     1  0  0  0  0  0999 V2000
    1.4363   -0.6556    0.0000 S   0  0  0  0  0  0  0  0  0  0  0  0
    4.3975   -0.4640    0.0000 S   0  0  0  0  0  0  0  0  0  0  0  0
   -2.6296   -0.1252    0.0000 O   0  0  0  0  0  0  0  0  0  0  0  0
   -2.9243   -2.0698    0.0000 O   0  0  0  0  0  0  0  0  0  0  0  0
   -2.9243    2.0551    0.0000 O   0  0  0  0  0  0  0  0  0  0  0  0
    1.4511    0.1694    0.0000 O   0  0  0  0  0  0  0  0  0  0  0  0
    1.4511   -1.4806    0.0000 O   0  0  0  0  0  0  0  0  0  0  0  0
   -3.6461   -0.8323    0.0000 O   0  0  0  0  0  0  0  0  0  0  0  0
    0.6408   -0.8765    0.0000 N   0  0  3  0  0  0  0  0  0  0  0  0
   -1.4953   -0.3757    0.0000 C   0  0  3  0  0  0  0  0  0  0  0  0
   -1.4953    0.4346    0.0000 C   0  0  0  0  0  0  0  0  0  0  0  0
   -0.7882   -0.8029    0.0000 C   0  0  3  0  0  0  0  0  0  0  0  0
   -2.2171   -0.8029    0.0000 C   0  0  3  0  0  0  0  0  0  0  0  0
   -2.2171    0.8323    0.0000 C   0  0  0  0  0  0  0  0  0  0  0  0
   -0.0810   -0.3904    0.0000 C   0  0  3  0  0  0  0  0  0  0  0  0
   -0.8029    0.8618    0.0000 C   0  0  0  0  0  0  0  0  0  0  0  0
   -0.9208    0.0515    0.0000 C   0  0  0  0  0  0  0  0  0  0  0  0
   -2.2171   -1.6279    0.0000 C   0  0  3  0  0  0  0  0  0  0  0  0
   -0.0810    0.4346    0.0000 C   0  0  0  0  0  0  0  0  0  0  0  0
   -0.8029   -1.6279    0.0000 C   0  0  0  0  0  0  0  0  0  0  0  0
    0.3904    0.0515    0.0000 C   0  0  0  0  0  0  0  0  0  0  0  0
   -2.2171    1.6721    0.0000 C   0  0  0  0  0  0  0  0  0  0  0  0
   -1.4953   -2.0404    0.0000 C   0  0  0  0  0  0  0  0  0  0  0  0
   -0.8029    1.6721    0.0000 C   0  0  0  0  0  0  0  0  0  0  0  0
   -1.5100    2.0698    0.0000 C   0  0  0  0  0  0  0  0  0  0  0  0
    2.2613   -0.8471    0.0000 C   0  0  0  0  0  0  0  0  0  0  0  0
   -3.6609   -1.6573    0.0000 C   0  0  0  0  0  0  0  0  0  0  0  0
    2.9390   -0.4493    0.0000 C   0  0  0  0  0  0  0  0  0  0  0  0
   -4.3975   -2.0404    0.0000 C   0  0  0  0  0  0  0  0  0  0  0  0
    3.6904   -0.8471    0.0000 C   0  0  0  0  0  0  0  0  0  0  0  0
  1  6  2  0  0  0  0
  1  7  2  0  0  0  0
  1  9  1  0  0  0  0
  1 26  1  0  0  0  0
  2 30  1  0  0  0  0
 13  3  1  6  0  0  0
  3 14  1  0  0  0  0
 18  4  1  6  0  0  0
  4 27  1  0  0  0  0
  5 22  1  0  0  0  0
  8 27  2  0  0  0  0
 15  9  1  1  0  0  0
  9 21  1  0  0  0  0
 10 11  1  6  0  0  0
 10 12  1  0  0  0  0
 10 13  1  0  0  0  0
 10 17  1  0  0  0  0
 11 14  1  0  0  0  0
 11 16  2  0  0  0  0
 12 15  1  0  0  0  0
 12 20  1  0  0  0  0
 13 18  1  0  0  0  0
 14 22  2  0  0  0  0
 15 19  1  0  0  0  0
 16 19  1  0  0  0  0
 16 24  1  0  0  0  0
 17 21  1  0  0  0  0
 18 23  1  0  0  0  0
 20 23  2  0  0  0  0
 22 25  1  0  0  0  0
 24 25  2  0  0  0  0
 26 28  1  0  0  0  0
 27 29  1  0  0  0  0
 28 30  1  0  0  0  0
M  END
> <PUBCHEM_COMPOUND_ID_TYPE>
0

> <PUBCHEM_TOTAL_CHARGE>
0

> <PUBCHEM_SUBSTANCE_ID>
310948009

> <PUBCHEM_SUBSTANCE_VERSION>
1

> <PUBCHEM_EXT_DATASOURCE_NAME>
4488

> <PUBCHEM_EXT_DATASOURCE_REGID>
SCHEMBL16126183

> <PUBCHEM_SUBSTANCE_COMMENT>
InChI=1S/C21H25NO6S2/c1-12(23)27-17-6-4-14-15-11-13-3-5-16(24)19-18(13)21(14,20(17)28-19)7-8-22(15)30(25,26)10-2-9-29/h3-6,14-15,17,20,24,29H,2,7-11H2,1H3/t14?,15-,17+,20+,21+/m1/s1
InChIKey=BWQXMBNAFCDGCZ-NDVPCOTPSA-N

> <PUBCHEM_SUBSTANCE_SYNONYM>
SCHEMBL16126183

> <PUBCHEM_XREF_EXT_ID>
SCHEMBL16126183

> <PUBCHEM_EXT_DATASOURCE_URL>
https://www.surechembl.org/

> <PUBCHEM_EXT_SUBSTANCE_URL>
https://www.surechembl.org/chemical/SCHEMBL16126183

> <PUBCHEM_CID_ASSOCIATIONS>
117613653  1

> <PUBCHEM_COORDINATE_TYPE>
1
3

> <PUBCHEM_BONDANNOTATIONS>
10  11  6
13  3  6
18  4  6
15  9  5

$$$$
