310933314
  -OEChem-07211613022D

 16 17  0     0  0  0  0  0  0999 V2000
    5.0007   -3.5996    0.0000 Cl  0  0  0  0  0  0  0  0  0  0  0  0
    2.9099   -4.3109    0.0000 N   0  0  0  0  0  0  0  0  0  0  0  0
    3.7289   -4.3109    0.0000 N   0  0  0  0  0  0  0  0  0  0  0  0
    1.6381   -3.5996    0.0000 N   0  0  0  0  0  0  0  0  0  0  0  0
    2.4788   -3.5996    0.0000 C   0  0  0  0  0  0  0  0  0  0  0  0
    4.1601   -3.5996    0.0000 C   0  0  0  0  0  0  0  0  0  0  0  0
    2.9099   -2.8883    0.0000 C   0  0  0  0  0  0  0  0  0  0  0  0
    3.7289   -2.8883    0.0000 C   0  0  0  0  0  0  0  0  0  0  0  0
    1.2501   -1.4441    0.0000 C   0  0  0  0  0  0  0  0  0  0  0  0
    1.2501   -2.8668    0.0000 C   0  0  0  0  0  0  0  0  0  0  0  0
    1.6381   -2.1555    0.0000 C   0  0  0  0  0  0  0  0  0  0  0  0
    0.4311   -1.4441    0.0000 C   0  0  0  0  0  0  0  0  0  0  0  0
    1.6597   -0.7113    0.0000 C   0  0  0  0  0  0  0  0  0  0  0  0
    0.0000   -0.7113    0.0000 C   0  0  0  0  0  0  0  0  0  0  0  0
    1.2501    0.0000    0.0000 C   0  0  0  0  0  0  0  0  0  0  0  0
    0.4311    0.0000    0.0000 C   0  0  0  0  0  0  0  0  0  0  0  0
  1  6  1  0  0  0  0
  2  3  2  0  0  0  0
  2  5  1  0  0  0  0
  3  6  1  0  0  0  0
  4  5  1  0  0  0  0
  4 10  1  0  0  0  0
  5  7  2  0  0  0  0
  6  8  2  0  0  0  0
  7  8  1  0  0  0  0
  9 11  1  0  0  0  0
  9 12  2  0  0  0  0
  9 13  1  0  0  0  0
 10 11  1  0  0  0  0
 12 14  1  0  0  0  0
 13 15  2  0  0  0  0
 14 16  2  0  0  0  0
 15 16  1  0  0  0  0
M  END
> <PUBCHEM_COMPOUND_ID_TYPE>
0

> <PUBCHEM_TOTAL_CHARGE>
0

> <PUBCHEM_SUBSTANCE_ID>
310933314

> <PUBCHEM_SUBSTANCE_VERSION>
1

> <PUBCHEM_EXT_DATASOURCE_NAME>
4488

> <PUBCHEM_EXT_DATASOURCE_REGID>
SCHEMBL16110725

> <PUBCHEM_SUBSTANCE_COMMENT>
InChI=1S/C12H12ClN3/c13-11-6-7-12(16-15-11)14-9-8-10-4-2-1-3-5-10/h1-7H,8-9H2,(H,14,16)
InChIKey=KXXMWXCJRYLWMZ-UHFFFAOYSA-N

> <PUBCHEM_SUBSTANCE_SYNONYM>
SCHEMBL16110725

> <PUBCHEM_XREF_EXT_ID>
SCHEMBL16110725

> <PUBCHEM_EXT_DATASOURCE_URL>
https://www.surechembl.org/

> <PUBCHEM_EXT_SUBSTANCE_URL>
https://www.surechembl.org/chemical/SCHEMBL16110725

> <PUBCHEM_CID_ASSOCIATIONS>
25067282  1

> <PUBCHEM_COORDINATE_TYPE>
1
3

$$$$
