310937949
  -OEChem-07211613022D

113127  0     1  0  0  0  0  0999 V2000
    2.8334    0.1223    0.0000 O   0  0  0  0  0  0  0  0  0  0  0  0
    1.0067   -3.1877    0.0000 O   0  0  0  0  0  0  0  0  0  0  0  0
    2.6206   -2.8447    0.0000 O   0  0  0  0  0  0  0  0  0  0  0  0
   -0.3523   -2.7462    0.0000 O   0  0  0  0  0  0  0  0  0  0  0  0
    5.1200    3.5073    0.0000 O   0  0  0  0  0  0  0  0  0  0  0  0
    5.9462   -0.7431    0.0000 O   0  0  0  0  0  0  0  0  0  0  0  0
   -5.0415   -2.3301    0.0000 O   0  0  0  0  0  0  0  0  0  0  0  0
    3.7247   -4.0709    0.0000 O   0  0  0  0  0  0  0  0  0  0  0  0
    4.0218   -5.4685    0.0000 O   0  0  0  0  0  0  0  0  0  0  0  0
   -3.9796   -3.2862    0.0000 N   0  0  0  0  0  0  0  0  0  0  0  0
    0.6674    0.3923    0.0000 C   0  0  0  0  0  0  0  0  0  0  0  0
    0.4125   -0.3923    0.0000 C   0  0  0  0  0  0  0  0  0  0  0  0
    0.0000    0.8772    0.0000 C   0  0  0  0  0  0  0  0  0  0  0  0
    1.4744    0.5638    0.0000 C   0  0  0  0  0  0  0  0  0  0  0  0
   -0.4125   -0.3923    0.0000 C   0  0  0  0  0  0  0  0  0  0  0  0
   -0.6674    0.3923    0.0000 C   0  0  0  0  0  0  0  0  0  0  0  0
    0.9645   -1.0054    0.0000 C   0  0  0  0  0  0  0  0  0  0  0  0
    2.0264   -0.0493    0.0000 C   0  0  0  0  0  0  0  0  0  0  0  0
    1.7715   -0.8339    0.0000 C   0  0  0  0  0  0  0  0  0  0  0  0
    3.0883    0.9069    0.0000 C   0  0  3  0  0  0  0  0  0  0  0  0
    1.7294    1.3485    0.0000 C   0  0  0  0  0  0  0  0  0  0  0  0
   -0.9645   -1.0054    0.0000 C   0  0  0  0  0  0  0  0  0  0  0  0
    0.7096   -1.7900    0.0000 C   0  0  0  0  0  0  0  0  0  0  0  0
   -1.4744    0.5638    0.0000 C   0  0  0  0  0  0  0  0  0  0  0  0
    2.3235   -1.4470    0.0000 C   0  0  0  0  0  0  0  0  0  0  0  0
    2.5363    1.5200    0.0000 C   0  0  0  0  0  0  0  0  0  0  0  0
   -0.4125    1.5917    0.0000 C   0  0  0  0  0  0  0  0  0  0  0  0
    0.4125    1.5917    0.0000 C   0  0  0  0  0  0  0  0  0  0  0  0
    1.2616   -2.4031    0.0000 C   0  0  0  0  0  0  0  0  0  0  0  0
   -1.7715   -0.8339    0.0000 C   0  0  0  0  0  0  0  0  0  0  0  0
    2.0686   -2.2316    0.0000 C   0  0  0  0  0  0  0  0  0  0  0  0
    3.5963    1.5570    0.0000 C   0  0  0  0  0  0  0  0  0  0  0  0
    3.8028    0.4944    0.0000 C   0  0  0  0  0  0  0  0  0  0  0  0
   -2.0264   -0.0493    0.0000 C   0  0  0  0  0  0  0  0  0  0  0  0
   -2.3235   -1.4470    0.0000 C   0  0  0  0  0  0  0  0  0  0  0  0
    4.4132    1.4421    0.0000 C   0  0  0  0  0  0  0  0  0  0  0  0
    3.2872    2.3219    0.0000 C   0  0  0  0  0  0  0  0  0  0  0  0
    3.8028   -0.3306    0.0000 C   0  0  0  0  0  0  0  0  0  0  0  0
    4.5173    0.9069    0.0000 C   0  0  0  0  0  0  0  0  0  0  0  0
    0.1997   -3.3593    0.0000 C   0  0  0  0  0  0  0  0  0  0  0  0
   -3.1305   -1.2754    0.0000 C   0  0  0  0  0  0  0  0  0  0  0  0
   -2.0686   -2.2316    0.0000 C   0  0  0  0  0  0  0  0  0  0  0  0
    4.9212    2.0923    0.0000 C   0  0  0  0  0  0  0  0  0  0  0  0
    3.7951    2.9720    0.0000 C   0  0  0  0  0  0  0  0  0  0  0  0
    4.5173   -0.7431    0.0000 C   0  0  0  0  0  0  0  0  0  0  0  0
    5.2317    0.4944    0.0000 C   0  0  0  0  0  0  0  0  0  0  0  0
    4.6121    2.8572    0.0000 C   0  0  0  0  0  0  0  0  0  0  0  0
    5.2317   -0.3306    0.0000 C   0  0  0  0  0  0  0  0  0  0  0  0
    3.4276   -2.6732    0.0000 C   0  0  0  0  0  0  0  0  0  0  0  0
   -0.0552   -4.1439    0.0000 C   0  0  0  0  0  0  0  0  0  0  0  0
   -3.6825   -1.8885    0.0000 C   0  0  0  0  0  0  0  0  0  0  0  0
   -2.6206   -2.8447    0.0000 C   0  0  0  0  0  0  0  0  0  0  0  0
   -3.4276   -2.6732    0.0000 C   0  0  0  0  0  0  0  0  0  0  0  0
    0.4968   -4.7570    0.0000 C   0  0  0  0  0  0  0  0  0  0  0  0
   -0.8622   -4.3154    0.0000 C   0  0  0  0  0  0  0  0  0  0  0  0
    3.9796   -3.2862    0.0000 C   0  0  0  0  0  0  0  0  0  0  0  0
    1.3038   -4.5854    0.0000 C   0  0  0  0  0  0  0  0  0  0  0  0
    0.2418   -5.5415    0.0000 C   0  0  0  0  0  0  0  0  0  0  0  0
    5.9370    3.3925    0.0000 C   0  0  0  0  0  0  0  0  0  0  0  0
   -1.1171   -5.1000    0.0000 C   0  0  0  0  0  0  0  0  0  0  0  0
   -4.7866   -3.1147    0.0000 C   0  0  0  0  0  0  0  0  0  0  0  0
   -0.5651   -5.7131    0.0000 C   0  0  0  0  0  0  0  0  0  0  0  0
    6.6607   -0.3306    0.0000 C   0  0  0  0  0  0  0  0  0  0  0  0
    1.8558   -5.1985    0.0000 C   0  0  0  0  0  0  0  0  0  0  0  0
    1.5587   -3.8008    0.0000 C   0  0  0  0  0  0  0  0  0  0  0  0
    6.4449    4.0426    0.0000 C   0  0  3  0  0  0  0  0  0  0  0  0
   -5.3386   -3.7278    0.0000 C   0  0  0  0  0  0  0  0  0  0  0  0
    2.6628   -5.0270    0.0000 C   0  0  0  0  0  0  0  0  0  0  0  0
    2.3657   -3.6293    0.0000 C   0  0  0  0  0  0  0  0  0  0  0  0
    2.9177   -4.2424    0.0000 C   0  0  0  0  0  0  0  0  0  0  0  0
    7.2618    3.9278    0.0000 C   0  0  0  0  0  0  0  0  0  0  0  0
   -5.0837   -4.5124    0.0000 C   0  0  0  0  0  0  0  0  0  0  0  0
   -6.1456   -3.5563    0.0000 C   0  0  0  0  0  0  0  0  0  0  0  0
    6.1358    4.8075    0.0000 C   0  0  0  0  0  0  0  0  0  0  0  0
   -5.6357   -5.1255    0.0000 C   0  0  0  0  0  0  0  0  0  0  0  0
   -6.6976   -4.1693    0.0000 C   0  0  0  0  0  0  0  0  0  0  0  0
   -6.4427   -4.9540    0.0000 C   0  0  0  0  0  0  0  0  0  0  0  0
    4.2767   -4.6840    0.0000 C   0  0  0  0  0  0  0  0  0  0  0  0
    7.7698    4.5779    0.0000 C   0  0  0  0  0  0  0  0  0  0  0  0
   -6.9947   -5.5671    0.0000 C   0  0  0  0  0  0  0  0  0  0  0  0
    5.0837   -4.5124    0.0000 C   0  0  0  0  0  0  0  0  0  0  0  0
   -7.8017   -5.3955    0.0000 C   0  0  0  0  0  0  0  0  0  0  0  0
   -6.7397   -6.3517    0.0000 C   0  0  0  0  0  0  0  0  0  0  0  0
    5.6357   -5.1255    0.0000 C   0  0  0  0  0  0  0  0  0  0  0  0
    5.3386   -3.7278    0.0000 C   0  0  0  0  0  0  0  0  0  0  0  0
   -8.3537   -6.0086    0.0000 C   0  0  0  0  0  0  0  0  0  0  0  0
   -7.2918   -6.9648    0.0000 C   0  0  0  0  0  0  0  0  0  0  0  0
   -8.0987   -6.7932    0.0000 C   0  0  0  0  0  0  0  0  0  0  0  0
    6.4427   -4.9540    0.0000 C   0  0  0  0  0  0  0  0  0  0  0  0
    6.1456   -3.5563    0.0000 C   0  0  0  0  0  0  0  0  0  0  0  0
    6.6976   -4.1693    0.0000 C   0  0  0  0  0  0  0  0  0  0  0  0
   -8.6508   -7.4063    0.0000 C   0  0  0  0  0  0  0  0  0  0  0  0
    7.5046   -3.9979    0.0000 C   0  0  0  0  0  0  0  0  0  0  0  0
   -8.3959   -8.1910    0.0000 C   0  0  0  0  0  0  0  0  0  0  0  0
   -9.4577   -7.2348    0.0000 C   0  0  0  0  0  0  0  0  0  0  0  0
    7.7595   -3.2132    0.0000 C   0  0  0  0  0  0  0  0  0  0  0  0
    8.0566   -4.6110    0.0000 C   0  0  0  0  0  0  0  0  0  0  0  0
   -8.9479   -8.8040    0.0000 C   0  0  0  0  0  0  0  0  0  0  0  0
  -10.0098   -7.8479    0.0000 C   0  0  0  0  0  0  0  0  0  0  0  0
   -9.7549   -8.6325    0.0000 C   0  0  0  0  0  0  0  0  0  0  0  0
    8.5664   -3.0417    0.0000 C   0  0  0  0  0  0  0  0  0  0  0  0
    8.8636   -4.4394    0.0000 C   0  0  0  0  0  0  0  0  0  0  0  0
    9.1185   -3.6548    0.0000 C   0  0  0  0  0  0  0  0  0  0  0  0
  -10.3069   -9.2456    0.0000 C   0  0  0  0  0  0  0  0  0  0  0  0
    9.9254   -3.4832    0.0000 C   0  0  0  0  0  0  0  0  0  0  0  0
  -11.1139   -9.0741    0.0000 C   0  0  0  0  0  0  0  0  0  0  0  0
   10.4775   -4.0963    0.0000 C   0  0  0  0  0  0  0  0  0  0  0  0
  -11.6658   -9.6872    0.0000 C   0  0  0  0  0  0  0  0  0  0  0  0
   11.2845   -3.9249    0.0000 C   0  0  0  0  0  0  0  0  0  0  0  0
  -12.4729   -9.5157    0.0000 C   0  0  0  0  0  0  0  0  0  0  0  0
   11.8365   -4.5379    0.0000 C   0  0  0  0  0  0  0  0  0  0  0  0
  -13.0248  -10.1288    0.0000 C   0  0  0  0  0  0  0  0  0  0  0  0
   12.6435   -4.3664    0.0000 C   0  0  0  0  0  0  0  0  0  0  0  0
  1 18  1  0  0  0  0
  1 20  1  0  0  0  0
  2 29  1  0  0  0  0
  2 40  1  0  0  0  0
  3 31  1  0  0  0  0
  3 49  1  0  0  0  0
  4 40  2  0  0  0  0
  5 47  1  0  0  0  0
  5 59  1  0  0  0  0
  6 48  1  0  0  0  0
  6 63  1  0  0  0  0
  7 61  2  0  0  0  0
  8 70  1  0  0  0  0
  8 78  1  0  0  0  0
  9 78  2  0  0  0  0
 10 53  1  0  0  0  0
 10 61  1  0  0  0  0
 11 12  1  0  0  0  0
 11 13  1  0  0  0  0
 11 14  2  0  0  0  0
 12 15  1  0  0  0  0
 12 17  2  0  0  0  0
 13 16  1  0  0  0  0
 13 27  1  0  0  0  0
 13 28  1  0  0  0  0
 14 18  1  0  0  0  0
 14 21  1  0  0  0  0
 15 16  2  0  0  0  0
 15 22  1  0  0  0  0
 16 24  1  0  0  0  0
 17 19  1  0  0  0  0
 17 23  1  0  0  0  0
 18 19  2  0  0  0  0
 19 25  1  0  0  0  0
 20 26  1  0  0  0  0
 20 32  1  0  0  0  0
 20 33  1  0  0  0  0
 21 26  2  0  0  0  0
 22 30  2  0  0  0  0
 23 29  2  0  0  0  0
 24 34  2  0  0  0  0
 25 31  2  0  0  0  0
 29 31  1  0  0  0  0
 30 34  1  0  0  0  0
 30 35  1  0  0  0  0
 32 36  2  0  0  0  0
 32 37  1  0  0  0  0
 33 38  2  0  0  0  0
 33 39  1  0  0  0  0
 35 41  2  0  0  0  0
 35 42  1  0  0  0  0
 36 43  1  0  0  0  0
 37 44  2  0  0  0  0
 38 45  1  0  0  0  0
 39 46  2  0  0  0  0
 40 50  1  0  0  0  0
 41 51  1  0  0  0  0
 42 52  2  0  0  0  0
 43 47  2  0  0  0  0
 44 47  1  0  0  0  0
 45 48  2  0  0  0  0
 46 48  1  0  0  0  0
 49 56  1  0  0  0  0
 50 54  1  0  0  0  0
 50 55  2  0  0  0  0
 51 53  2  0  0  0  0
 52 53  1  0  0  0  0
 54 57  1  0  0  0  0
 54 58  2  0  0  0  0
 55 60  1  0  0  0  0
 57 64  2  0  0  0  0
 57 65  1  0  0  0  0
 58 62  1  0  0  0  0
 59 66  1  0  0  0  0
 60 62  2  0  0  0  0
 61 67  1  0  0  0  0
 64 68  1  0  0  0  0
 65 69  2  0  0  0  0
 66 71  1  0  0  0  0
 66 74  1  1  0  0  0
 67 72  2  0  0  0  0
 67 73  1  0  0  0  0
 68 70  2  0  0  0  0
 69 70  1  0  0  0  0
 71 79  1  0  0  0  0
 72 75  1  0  0  0  0
 73 76  2  0  0  0  0
 75 77  2  0  0  0  0
 76 77  1  0  0  0  0
 77 80  1  0  0  0  0
 81 78  1  6  0  0  0
 80 82  2  0  0  0  0
 80 83  1  0  0  0  0
 81 84  1  0  0  0  0
 81 85  1  0  0  0  0
 82 86  1  0  0  0  0
 83 87  2  0  0  0  0
 84 89  1  0  0  0  0
 85 90  1  0  0  0  0
 86 88  2  0  0  0  0
 87 88  1  0  0  0  0
 92 88  1  1  0  0  0
 91 89  1  1  0  0  0
 90 91  1  0  0  0  0
 91 93  1  0  0  0  0
 92 94  1  0  0  0  0
 92 95  1  0  0  0  0
 93 96  1  1  0  0  0
 93 97  1  0  0  0  0
 94 98  1  0  0  0  0
 95 99  1  0  0  0  0
 96101  1  0  0  0  0
 97102  1  0  0  0  0
 98100  1  0  0  0  0
 99100  1  0  0  0  0
100104  1  6  0  0  0
101103  1  0  0  0  0
102103  1  0  0  0  0
103105  1  6  0  0  0
104106  1  0  0  0  0
105107  1  0  0  0  0
106108  1  0  0  0  0
107109  1  0  0  0  0
108110  1  0  0  0  0
109111  1  0  0  0  0
110112  1  0  0  0  0
111113  1  0  0  0  0
M  END
> <PUBCHEM_COMPOUND_ID_TYPE>
0

> <PUBCHEM_TOTAL_CHARGE>
0

> <PUBCHEM_SUBSTANCE_ID>
310937949

> <PUBCHEM_SUBSTANCE_VERSION>
1

> <PUBCHEM_EXT_DATASOURCE_NAME>
4488

> <PUBCHEM_EXT_DATASOURCE_REGID>
SCHEMBL16115780

> <PUBCHEM_SUBSTANCE_COMMENT>
InChI=1S/C103H113NO9/c1-9-13-15-19-68-23-27-70(28-24-68)72-31-33-73(34-32-72)74-35-39-78(40-36-74)99(105)104-83-52-43-76(44-53-83)80-47-60-93-92(63-80)96-90-64-95(112-101(107)88-22-18-17-21-87(88)77-45-54-86(55-46-77)111-100(106)79-41-37-75(38-42-79)71-29-25-69(26-30-71)20-16-14-10-2)94(109-12-4)65-91(90)98-89(97(96)102(93,6)7)61-62-103(113-98,81-48-56-84(108-8)57-49-81)82-50-58-85(59-51-82)110-66-67(5)11-3/h17-18,21-22,31-36,39-40,43-65,67-71,75,79H,9-16,19-20,23-30,37-38,41-42,66H2,1-8H3,(H,104,105)/t67-,68-,69-,70-,71-,75-,79-,103?/m0/s1
InChIKey=CBWXBQLLEOFIRZ-ONAYVBGPSA-N

> <PUBCHEM_SUBSTANCE_SYNONYM>
SCHEMBL16115780

> <PUBCHEM_XREF_EXT_ID>
SCHEMBL16115780

> <PUBCHEM_EXT_DATASOURCE_URL>
https://www.surechembl.org/

> <PUBCHEM_EXT_SUBSTANCE_URL>
https://www.surechembl.org/chemical/SCHEMBL16115780

> <PUBCHEM_CID_ASSOCIATIONS>
117605553  1

> <PUBCHEM_COORDINATE_TYPE>
1
3

> <PUBCHEM_BONDANNOTATIONS>
100  104  6
103  105  6
66  74  5
81  78  6
92  88  5
91  89  5
93  96  5

$$$$
