310945445
  -OEChem-07211613022D

 28 31  0     0  0  0  0  0  0999 V2000
   -2.3613    1.1807    0.0000 Cl  0  0  0  0  0  0  0  0  0  0  0  0
   -4.2610   -1.5536    0.0000 Cl  0  0  0  0  0  0  0  0  0  0  0  0
   -0.3196    1.3937    0.0000 F   0  0  0  0  0  0  0  0  0  0  0  0
    0.5503    2.1749    0.0000 F   0  0  0  0  0  0  0  0  0  0  0  0
    1.3848    1.3937    0.0000 F   0  0  0  0  0  0  0  0  0  0  0  0
    4.2610   -2.1571    0.0000 F   0  0  0  0  0  0  0  0  0  0  0  0
   -1.0119    0.4528    0.0000 N   0  0  0  0  0  0  0  0  0  0  0  0
   -1.0297   -0.8255    0.0000 N   0  0  0  0  0  0  0  0  0  0  0  0
    1.2606    0.2042    0.0000 N   0  0  0  0  0  0  0  0  0  0  0  0
    0.5326   -0.9853    0.0000 N   0  0  0  0  0  0  0  0  0  0  0  0
   -0.2131    0.1864    0.0000 C   0  0  0  0  0  0  0  0  0  0  0  0
    0.5149    0.5769    0.0000 C   0  0  0  0  0  0  0  0  0  0  0  0
   -0.2309   -0.5947    0.0000 C   0  0  0  0  0  0  0  0  0  0  0  0
   -1.5092   -0.2042    0.0000 C   0  0  0  0  0  0  0  0  0  0  0  0
    1.2606   -0.6124    0.0000 C   0  0  0  0  0  0  0  0  0  0  0  0
    0.5149    1.3582    0.0000 C   0  0  0  0  0  0  0  0  0  0  0  0
   -2.3791   -0.2042    0.0000 C   0  0  0  0  0  0  0  0  0  0  0  0
    2.0062   -1.0031    0.0000 C   0  0  0  0  0  0  0  0  0  0  0  0
   -2.8051    0.4705    0.0000 C   0  0  0  0  0  0  0  0  0  0  0  0
   -2.8051   -0.8788    0.0000 C   0  0  0  0  0  0  0  0  0  0  0  0
   -3.6574   -0.8966    0.0000 C   0  0  0  0  0  0  0  0  0  0  0  0
    2.0240   -1.7842    0.0000 C   0  0  0  0  0  0  0  0  0  0  0  0
    2.7696   -0.6302    0.0000 C   0  0  0  0  0  0  0  0  0  0  0  0
   -3.6397    0.4705    0.0000 C   0  0  0  0  0  0  0  0  0  0  0  0
   -4.0479   -0.2042    0.0000 C   0  0  0  0  0  0  0  0  0  0  0  0
    2.7874   -2.1749    0.0000 C   0  0  0  0  0  0  0  0  0  0  0  0
    3.4976   -1.0208    0.0000 C   0  0  0  0  0  0  0  0  0  0  0  0
    3.4976   -1.7842    0.0000 C   0  0  0  0  0  0  0  0  0  0  0  0
  1 19  1  0  0  0  0
  2 21  1  0  0  0  0
  3 16  1  0  0  0  0
  4 16  1  0  0  0  0
  5 16  1  0  0  0  0
  6 28  1  0  0  0  0
  7 11  1  0  0  0  0
  7 14  2  0  0  0  0
  8 13  1  0  0  0  0
  8 14  1  0  0  0  0
  9 12  2  0  0  0  0
  9 15  1  0  0  0  0
 10 13  1  0  0  0  0
 10 15  2  0  0  0  0
 11 12  1  0  0  0  0
 11 13  2  0  0  0  0
 12 16  1  0  0  0  0
 14 17  1  0  0  0  0
 15 18  1  0  0  0  0
 17 19  2  0  0  0  0
 17 20  1  0  0  0  0
 18 22  2  0  0  0  0
 18 23  1  0  0  0  0
 19 24  1  0  0  0  0
 20 21  2  0  0  0  0
 21 25  1  0  0  0  0
 22 26  1  0  0  0  0
 23 27  2  0  0  0  0
 24 25  2  0  0  0  0
 26 28  2  0  0  0  0
 27 28  1  0  0  0  0
M  END
> <PUBCHEM_COMPOUND_ID_TYPE>
0

> <PUBCHEM_TOTAL_CHARGE>
0

> <PUBCHEM_SUBSTANCE_ID>
310945445

> <PUBCHEM_SUBSTANCE_VERSION>
1

> <PUBCHEM_EXT_DATASOURCE_NAME>
4488

> <PUBCHEM_EXT_DATASOURCE_REGID>
SCHEMBL16123543

> <PUBCHEM_SUBSTANCE_COMMENT>
InChI=1S/C18H8Cl2F4N4/c19-9-3-6-12(20)11(7-9)16-25-13-14(18(22,23)24)26-15(27-17(13)28-16)8-1-4-10(21)5-2-8/h1-7H,(H,25,26,27,28)
InChIKey=NCTFICADJGBCMI-UHFFFAOYSA-N

> <PUBCHEM_SUBSTANCE_SYNONYM>
SCHEMBL16123543

> <PUBCHEM_XREF_EXT_ID>
SCHEMBL16123543

> <PUBCHEM_EXT_DATASOURCE_URL>
https://www.surechembl.org/

> <PUBCHEM_EXT_SUBSTANCE_URL>
https://www.surechembl.org/chemical/SCHEMBL16123543

> <PUBCHEM_CID_ASSOCIATIONS>
117611490  1

> <PUBCHEM_COORDINATE_TYPE>
1
3

$$$$
