310947920
  -OEChem-07211613022D

 13 13  0     0  0  0  0  0  0999 V2000
   -2.2325   -1.2117    0.0000 O   0  0  0  0  0  0  0  0  0  0  0  0
    0.6254    1.2633    0.0000 O   0  5  0  0  0  0  0  0  0  0  0  0
    1.3398    0.0258    0.0000 O   0  0  0  0  0  0  0  0  0  0  0  0
   -2.9470   -2.4492    0.0000 O   0  0  0  0  0  0  0  0  0  0  0  0
   -0.8036   -1.2117    0.0000 N   0  0  0  0  0  0  0  0  0  0  0  0
    0.6254    0.4383    0.0000 N   0  3  0  0  0  0  0  0  0  0  0  0
   -0.0891    0.0258    0.0000 C   0  0  0  0  0  0  0  0  0  0  0  0
   -0.0891   -0.7992    0.0000 C   0  0  0  0  0  0  0  0  0  0  0  0
   -1.5180   -0.7992    0.0000 C   0  0  0  0  0  0  0  0  0  0  0  0
   -0.8036    0.4383    0.0000 C   0  0  0  0  0  0  0  0  0  0  0  0
   -1.5180    0.0258    0.0000 C   0  0  0  0  0  0  0  0  0  0  0  0
    0.6254   -1.2117    0.0000 C   0  0  0  0  0  0  0  0  0  0  0  0
   -2.2325   -2.0367    0.0000 C   0  0  0  0  0  0  0  0  0  0  0  0
  1  9  1  0  0  0  0
  1 13  1  0  0  0  0
  2  6  1  0  0  0  0
  3  6  2  0  0  0  0
  4 13  2  0  0  0  0
  5  8  2  0  0  0  0
  5  9  1  0  0  0  0
  6  7  1  0  0  0  0
  7  8  1  0  0  0  0
  7 10  2  0  0  0  0
  8 12  1  0  0  0  0
  9 11  2  0  0  0  0
 10 11  1  0  0  0  0
M  CHG  2   2  -1   6   1
M  END
> <PUBCHEM_COMPOUND_ID_TYPE>
0

> <PUBCHEM_TOTAL_CHARGE>
0

> <PUBCHEM_SUBSTANCE_ID>
310947920

> <PUBCHEM_SUBSTANCE_VERSION>
1

> <PUBCHEM_EXT_DATASOURCE_NAME>
4488

> <PUBCHEM_EXT_DATASOURCE_REGID>
SCHEMBL16126094

> <PUBCHEM_SUBSTANCE_COMMENT>
InChI=1S/C7H6N2O4/c1-5-6(9(11)12)2-3-7(8-5)13-4-10/h2-4H,1H3
InChIKey=SQAKDTRWSVHENO-UHFFFAOYSA-N

> <PUBCHEM_SUBSTANCE_SYNONYM>
SCHEMBL16126094

> <PUBCHEM_XREF_EXT_ID>
SCHEMBL16126094

> <PUBCHEM_EXT_DATASOURCE_URL>
https://www.surechembl.org/

> <PUBCHEM_EXT_SUBSTANCE_URL>
https://www.surechembl.org/chemical/SCHEMBL16126094

> <PUBCHEM_CID_ASSOCIATIONS>
117613580  1

> <PUBCHEM_COORDINATE_TYPE>
1
3

$$$$
