310930956
  -OEChem-07211613022D

 25 28  0     0  0  0  0  0  0999 V2000
    6.5037   -0.4288    0.0000 Cl  0  0  0  0  0  0  0  0  0  0  0  0
    3.0017   -1.8939    0.0000 N   0  0  0  0  0  0  0  0  0  0  0  0
    3.5020   -2.5729    0.0000 N   0  0  0  0  0  0  0  0  0  0  0  0
    1.5009   -1.7510    0.0000 N   0  0  0  0  0  0  0  0  0  0  0  0
    0.8219   -3.0017    0.0000 N   0  0  0  0  0  0  0  0  0  0  0  0
    1.5009   -4.2167    0.0000 N   0  0  0  0  0  0  0  0  0  0  0  0
    1.4294   -6.7181    0.0000 N   0  0  0  0  0  0  0  0  0  0  0  0
    2.2156   -2.1440    0.0000 C   0  0  0  0  0  0  0  0  0  0  0  0
    2.2156   -3.0017    0.0000 C   0  0  0  0  0  0  0  0  0  0  0  0
    1.5009   -3.3948    0.0000 C   0  0  0  0  0  0  0  0  0  0  0  0
    3.0017   -3.2518    0.0000 C   0  0  0  0  0  0  0  0  0  0  0  0
    3.2875   -1.1078    0.0000 C   0  0  0  0  0  0  0  0  0  0  0  0
    0.8219   -2.1440    0.0000 C   0  0  0  0  0  0  0  0  0  0  0  0
    4.0737   -0.9648    0.0000 C   0  0  0  0  0  0  0  0  0  0  0  0
    0.7862   -4.6098    0.0000 C   0  0  0  0  0  0  0  0  0  0  0  0
    4.6098   -1.5723    0.0000 C   0  0  0  0  0  0  0  0  0  0  0  0
    4.3239   -0.1786    0.0000 C   0  0  0  0  0  0  0  0  0  0  0  0
    0.7504   -5.4674    0.0000 C   0  0  0  0  0  0  0  0  0  0  0  0
    5.6818   -0.6075    0.0000 C   0  0  0  0  0  0  0  0  0  0  0  0
    5.4316   -1.3937    0.0000 C   0  0  0  0  0  0  0  0  0  0  0  0
    5.1458    0.0000    0.0000 C   0  0  0  0  0  0  0  0  0  0  0  0
    1.4651   -5.8962    0.0000 C   0  0  0  0  0  0  0  0  0  0  0  0
    0.0357   -5.8962    0.0000 C   0  0  0  0  0  0  0  0  0  0  0  0
    0.0000   -6.6823    0.0000 C   0  0  0  0  0  0  0  0  0  0  0  0
    0.7147   -7.1469    0.0000 C   0  0  0  0  0  0  0  0  0  0  0  0
  1 19  1  0  0  0  0
  2  3  1  0  0  0  0
  2  8  1  0  0  0  0
  2 12  1  0  0  0  0
  3 11  2  0  0  0  0
  4  8  2  0  0  0  0
  4 13  1  0  0  0  0
  5 10  1  0  0  0  0
  5 13  2  0  0  0  0
  6 10  1  0  0  0  0
  6 15  1  0  0  0  0
  7 22  1  0  0  0  0
  7 25  2  0  0  0  0
  8  9  1  0  0  0  0
  9 10  2  0  0  0  0
  9 11  1  0  0  0  0
 12 14  1  0  0  0  0
 14 16  2  0  0  0  0
 14 17  1  0  0  0  0
 15 18  1  0  0  0  0
 16 20  1  0  0  0  0
 17 21  2  0  0  0  0
 18 22  2  0  0  0  0
 18 23  1  0  0  0  0
 19 20  2  0  0  0  0
 19 21  1  0  0  0  0
 23 24  2  0  0  0  0
 24 25  1  0  0  0  0
M  END
> <PUBCHEM_COMPOUND_ID_TYPE>
0

> <PUBCHEM_TOTAL_CHARGE>
0

> <PUBCHEM_SUBSTANCE_ID>
310930956

> <PUBCHEM_SUBSTANCE_VERSION>
1

> <PUBCHEM_EXT_DATASOURCE_NAME>
4488

> <PUBCHEM_EXT_DATASOURCE_REGID>
SCHEMBL16108255

> <PUBCHEM_SUBSTANCE_COMMENT>
InChI=1S/C18H15ClN6/c19-15-5-3-13(4-6-15)11-25-18-16(10-24-25)17(22-12-23-18)21-9-14-2-1-7-20-8-14/h1-8,10,12H,9,11H2,(H,21,22,23)
InChIKey=PTDOGUKLBPGEGZ-UHFFFAOYSA-N

> <PUBCHEM_SUBSTANCE_SYNONYM>
SCHEMBL16108255

> <PUBCHEM_XREF_EXT_ID>
SCHEMBL16108255

> <PUBCHEM_EXT_DATASOURCE_URL>
https://www.surechembl.org/

> <PUBCHEM_EXT_SUBSTANCE_URL>
https://www.surechembl.org/chemical/SCHEMBL16108255

> <PUBCHEM_CID_ASSOCIATIONS>
1307071  1

> <PUBCHEM_COORDINATE_TYPE>
1
3

$$$$
