310948413
  -OEChem-07211613022D

 26 29  0     0  0  0  0  0  0999 V2000
    2.4690   -2.0871    0.0000 S   0  0  0  0  0  0  0  0  0  0  0  0
   -2.5622   -1.5839    0.0000 O   0  0  0  0  0  0  0  0  0  0  0  0
    2.6368   -1.2672    0.0000 O   0  0  0  0  0  0  0  0  0  0  0  0
    3.2889   -2.2547    0.0000 O   0  0  0  0  0  0  0  0  0  0  0  0
   -1.0528    0.7827    0.0000 N   0  0  0  0  0  0  0  0  0  0  0  0
   -0.5497    0.0932    0.0000 N   0  0  0  0  0  0  0  0  0  0  0  0
   -0.7919   -1.3790    0.0000 N   0  0  0  0  0  0  0  0  0  0  0  0
   -3.2889   -0.3168    0.0000 N   0  0  0  0  0  0  0  0  0  0  0  0
   -1.8541   -0.3168    0.0000 C   0  0  0  0  0  0  0  0  0  0  0  0
   -1.8355    0.5217    0.0000 C   0  0  0  0  0  0  0  0  0  0  0  0
   -1.0528   -0.5777    0.0000 C   0  0  0  0  0  0  0  0  0  0  0  0
   -2.5622   -0.7267    0.0000 C   0  0  0  0  0  0  0  0  0  0  0  0
   -0.7919    1.5839    0.0000 C   0  0  0  0  0  0  0  0  0  0  0  0
   -2.5808    0.9317    0.0000 C   0  0  0  0  0  0  0  0  0  0  0  0
    0.0280   -1.5466    0.0000 C   0  0  0  0  0  0  0  0  0  0  0  0
   -3.2703    0.5217    0.0000 C   0  0  0  0  0  0  0  0  0  0  0  0
   -1.2578    2.2361    0.0000 C   0  0  0  0  0  0  0  0  0  0  0  0
   -0.0094    1.8448    0.0000 C   0  0  0  0  0  0  0  0  0  0  0  0
    1.6491   -1.9007    0.0000 C   0  0  0  0  0  0  0  0  0  0  0  0
    0.5869   -0.9317    0.0000 C   0  0  0  0  0  0  0  0  0  0  0  0
    0.2888   -2.3293    0.0000 C   0  0  0  0  0  0  0  0  0  0  0  0
    1.3882   -1.0994    0.0000 C   0  0  0  0  0  0  0  0  0  0  0  0
    1.1088   -2.5156    0.0000 C   0  0  0  0  0  0  0  0  0  0  0  0
   -0.7919    2.9069    0.0000 C   0  0  0  0  0  0  0  0  0  0  0  0
   -0.0094    2.6647    0.0000 C   0  0  0  0  0  0  0  0  0  0  0  0
    2.3200   -2.9069    0.0000 C   0  0  0  0  0  0  0  0  0  0  0  0
  1  3  2  0  0  0  0
  1  4  2  0  0  0  0
  1 19  1  0  0  0  0
  1 26  1  0  0  0  0
  2 12  2  0  0  0  0
  5  6  1  0  0  0  0
  5 10  1  0  0  0  0
  5 13  1  0  0  0  0
  6 11  2  0  0  0  0
  7 11  1  0  0  0  0
  7 15  1  0  0  0  0
  8 12  1  0  0  0  0
  8 16  1  0  0  0  0
  9 10  2  0  0  0  0
  9 11  1  0  0  0  0
  9 12  1  0  0  0  0
 10 14  1  0  0  0  0
 13 17  1  0  0  0  0
 13 18  1  0  0  0  0
 14 16  2  0  0  0  0
 15 20  2  0  0  0  0
 15 21  1  0  0  0  0
 17 24  1  0  0  0  0
 18 25  1  0  0  0  0
 19 22  2  0  0  0  0
 19 23  1  0  0  0  0
 20 22  1  0  0  0  0
 21 23  2  0  0  0  0
 24 25  1  0  0  0  0
M  END
> <PUBCHEM_COMPOUND_ID_TYPE>
0

> <PUBCHEM_TOTAL_CHARGE>
0

> <PUBCHEM_SUBSTANCE_ID>
310948413

> <PUBCHEM_SUBSTANCE_VERSION>
1

> <PUBCHEM_EXT_DATASOURCE_NAME>
4488

> <PUBCHEM_EXT_DATASOURCE_REGID>
SCHEMBL16126594

> <PUBCHEM_SUBSTANCE_COMMENT>
InChI=1S/C18H20N4O3S/c1-26(24,25)14-8-6-12(7-9-14)20-17-16-15(10-11-19-18(16)23)22(21-17)13-4-2-3-5-13/h6-11,13H,2-5H2,1H3,(H,19,23)(H,20,21)
InChIKey=VHLJVMJHQXZNNB-UHFFFAOYSA-N

> <PUBCHEM_SUBSTANCE_SYNONYM>
SCHEMBL16126594

> <PUBCHEM_XREF_EXT_ID>
SCHEMBL16126594

> <PUBCHEM_EXT_DATASOURCE_URL>
https://www.surechembl.org/

> <PUBCHEM_EXT_SUBSTANCE_URL>
https://www.surechembl.org/chemical/SCHEMBL16126594

> <PUBCHEM_CID_ASSOCIATIONS>
117613974  1

> <PUBCHEM_COORDINATE_TYPE>
1
3

$$$$
