310949593
  -OEChem-07211613022D

 27 29  0     0  0  0  0  0  0999 V2000
   -4.6416    0.7787    0.0000 Cl  0  0  0  0  0  0  0  0  0  0  0  0
   -1.4857   -0.8402    0.0000 O   0  0  0  0  0  0  0  0  0  0  0  0
    1.3833   -1.6394    0.0000 O   0  0  0  0  0  0  0  0  0  0  0  0
    2.9816    0.6148    0.0000 N   0  0  0  0  0  0  0  0  0  0  0  0
    2.8588   -0.7173    0.0000 N   0  0  0  0  0  0  0  0  0  0  0  0
    0.6660   -0.4099    0.0000 N   0  0  0  0  0  0  0  0  0  0  0  0
    3.3915    1.3320    0.0000 N   0  0  0  0  0  0  0  0  0  0  0  0
    2.1005   -0.3894    0.0000 C   0  0  0  0  0  0  0  0  0  0  0  0
    3.3915   -0.1025    0.0000 C   0  0  0  0  0  0  0  0  0  0  0  0
    2.1825    0.4099    0.0000 C   0  0  0  0  0  0  0  0  0  0  0  0
   -2.2440    0.4099    0.0000 C   0  0  0  0  0  0  0  0  0  0  0  0
    1.4038   -0.7992    0.0000 C   0  0  0  0  0  0  0  0  0  0  0  0
   -2.2440   -0.4508    0.0000 C   0  0  0  0  0  0  0  0  0  0  0  0
   -1.5062    0.8197    0.0000 C   0  0  0  0  0  0  0  0  0  0  0  0
    4.2522   -0.1025    0.0000 C   0  0  0  0  0  0  0  0  0  0  0  0
   -2.9406    0.7787    0.0000 C   0  0  0  0  0  0  0  0  0  0  0  0
   -3.5964    0.3689    0.0000 C   0  0  0  0  0  0  0  0  0  0  0  0
   -2.8792   -0.8402    0.0000 C   0  0  0  0  0  0  0  0  0  0  0  0
   -0.0922   -0.8402    0.0000 C   0  0  0  0  0  0  0  0  0  0  0  0
    4.2317    1.3115    0.0000 C   0  0  0  0  0  0  0  0  0  0  0  0
    4.6416    0.6353    0.0000 C   0  0  0  0  0  0  0  0  0  0  0  0
   -3.6169   -0.4508    0.0000 C   0  0  0  0  0  0  0  0  0  0  0  0
   -0.7685   -0.4508    0.0000 C   0  0  0  0  0  0  0  0  0  0  0  0
   -1.4857    1.6394    0.0000 C   0  0  0  0  0  0  0  0  0  0  0  0
   -0.7685    1.2296    0.0000 C   0  0  0  0  0  0  0  0  0  0  0  0
   -0.7685    0.4099    0.0000 C   0  0  0  0  0  0  0  0  0  0  0  0
    0.6455    0.4304    0.0000 C   0  0  0  0  0  0  0  0  0  0  0  0
  1 17  1  0  0  0  0
  2 13  1  0  0  0  0
  2 23  1  0  0  0  0
  3 12  2  0  0  0  0
  4  7  1  0  0  0  0
  4  9  1  0  0  0  0
  4 10  1  0  0  0  0
  5  8  1  0  0  0  0
  5  9  2  0  0  0  0
  6 12  1  0  0  0  0
  6 19  1  0  0  0  0
  6 27  1  0  0  0  0
  7 20  2  0  0  0  0
  8 10  2  0  0  0  0
  8 12  1  0  0  0  0
  9 15  1  0  0  0  0
 11 13  1  0  0  0  0
 11 14  1  0  0  0  0
 11 16  2  0  0  0  0
 13 18  2  0  0  0  0
 14 24  1  0  0  0  0
 14 25  1  0  0  0  0
 14 26  1  0  0  0  0
 15 21  2  0  0  0  0
 16 17  1  0  0  0  0
 17 22  2  0  0  0  0
 18 22  1  0  0  0  0
 19 23  1  0  0  0  0
 20 21  1  0  0  0  0
M  END
> <PUBCHEM_COMPOUND_ID_TYPE>
0

> <PUBCHEM_TOTAL_CHARGE>
0

> <PUBCHEM_SUBSTANCE_ID>
310949593

> <PUBCHEM_SUBSTANCE_VERSION>
1

> <PUBCHEM_EXT_DATASOURCE_NAME>
4488

> <PUBCHEM_EXT_DATASOURCE_REGID>
SCHEMBL16127790

> <PUBCHEM_SUBSTANCE_COMMENT>
InChI=1S/C20H23ClN4O2/c1-20(2,3)15-12-14(21)7-8-17(15)27-11-10-24(4)19(26)16-13-25-18(23-16)6-5-9-22-25/h5-9,12-13H,10-11H2,1-4H3
InChIKey=XESDKGNVXZFCIS-UHFFFAOYSA-N

> <PUBCHEM_SUBSTANCE_SYNONYM>
SCHEMBL16127790

> <PUBCHEM_XREF_EXT_ID>
SCHEMBL16127790

> <PUBCHEM_EXT_DATASOURCE_URL>
https://www.surechembl.org/

> <PUBCHEM_EXT_SUBSTANCE_URL>
https://www.surechembl.org/chemical/SCHEMBL16127790

> <PUBCHEM_CID_ASSOCIATIONS>
86272284  1

> <PUBCHEM_COORDINATE_TYPE>
1
3

$$$$
