310929905
  -OEChem-07211613022D

 67 74  0     1  0  0  0  0  0999 V2000
   -2.3860   -3.7235    0.0000 S   0  0  0  0  0  0  0  0  0  0  0  0
   -1.5610   -5.1524    0.0000 O   0  0  0  0  0  0  0  0  0  0  0  0
   -2.3860   -2.8985    0.0000 O   0  0  0  0  0  0  0  0  0  0  0  0
   -2.3860   -4.5485    0.0000 O   0  0  0  0  0  0  0  0  0  0  0  0
    1.4290   -0.8250    0.0000 O   0  0  0  0  0  0  0  0  0  0  0  0
    1.3265   -4.4380    0.0000 O   0  0  0  0  0  0  0  0  0  0  0  0
   -4.4485   -3.0090    0.0000 O   0  0  0  0  0  0  0  0  0  0  0  0
    2.8579   -4.1250    0.0000 O   0  0  0  0  0  0  0  0  0  0  0  0
    4.2868   -0.8250    0.0000 O   0  0  0  0  0  0  0  0  0  0  0  0
    0.0000    1.6500    0.0000 O   0  0  0  0  0  0  0  0  0  0  0  0
    5.0013   -2.0625    0.0000 O   0  0  0  0  0  0  0  0  0  0  0  0
    0.0890   -3.7235    0.0000 N   0  0  0  0  0  0  0  0  0  0  0  0
   -1.5610   -3.7235    0.0000 N   0  0  0  0  0  0  0  0  0  0  0  0
    2.1434   -2.8875    0.0000 N   0  0  0  0  0  0  0  0  0  0  0  0
    3.5724   -2.0625    0.0000 N   0  0  0  0  0  0  0  0  0  0  0  0
    0.0000   -0.8250    0.0000 N   0  0  0  0  0  0  0  0  0  0  0  0
   -0.3235   -4.4380    0.0000 C   0  0  3  0  0  0  0  0  0  0  0  0
    0.3909   -4.8505    0.0000 C   0  0  3  0  0  0  0  0  0  0  0  0
   -0.3235   -5.2630    0.0000 C   0  0  0  0  0  0  0  0  0  0  0  0
   -1.1485   -4.4380    0.0000 C   0  0  0  0  0  0  0  0  0  0  0  0
   -3.2110   -3.7235    0.0000 C   0  0  0  0  0  0  0  0  0  0  0  0
    0.9140   -3.7235    0.0000 C   0  0  0  0  0  0  0  0  0  0  0  0
   -3.2110   -4.5485    0.0000 C   0  0  0  0  0  0  0  0  0  0  0  0
   -3.9255   -4.1360    0.0000 C   0  0  0  0  0  0  0  0  0  0  0  0
    1.3265   -3.0090    0.0000 C   0  0  3  0  0  0  0  0  0  0  0  0
    1.2159   -4.8505    0.0000 C   0  0  0  0  0  0  0  0  0  0  0  0
    1.4290   -1.6500    0.0000 C   0  0  3  0  0  0  0  0  0  0  0  0
   -3.6235   -3.0090    0.0000 C   0  0  0  0  0  0  0  0  0  0  0  0
    0.9140   -2.2945    0.0000 C   0  0  0  0  0  0  0  0  0  0  0  0
    2.1434   -2.0625    0.0000 C   0  0  0  0  0  0  0  0  0  0  0  0
    2.8579   -3.3000    0.0000 C   0  0  0  0  0  0  0  0  0  0  0  0
    3.5724   -2.8875    0.0000 C   0  0  3  0  0  0  0  0  0  0  0  0
    0.7144   -0.4125    0.0000 C   0  0  0  0  0  0  0  0  0  0  0  0
    1.6284   -5.5649    0.0000 C   0  0  0  0  0  0  0  0  0  0  0  0
    4.2868   -3.3000    0.0000 C   0  0  0  0  0  0  0  0  0  0  0  0
    0.7144    0.4125    0.0000 C   0  0  0  0  0  0  0  0  0  0  0  0
    5.0013   -0.4125    0.0000 C   0  0  3  0  0  0  0  0  0  0  0  0
    5.0013    0.4125    0.0000 C   0  0  3  0  0  0  0  0  0  0  0  0
    0.0000    0.8250    0.0000 C   0  0  0  0  0  0  0  0  0  0  0  0
   -0.7144    0.4125    0.0000 C   0  0  0  0  0  0  0  0  0  0  0  0
   -0.7144   -0.4125    0.0000 C   0  0  0  0  0  0  0  0  0  0  0  0
    4.2868   -1.6500    0.0000 C   0  0  0  0  0  0  0  0  0  0  0  0
   -4.8610   -2.2945    0.0000 C   0  0  0  0  0  0  0  0  0  0  0  0
    5.7859   -0.6674    0.0000 C   0  0  0  0  0  0  0  0  0  0  0  0
    5.7859    0.6674    0.0000 C   0  0  0  0  0  0  0  0  0  0  0  0
    1.4290    0.8250    0.0000 C   0  0  0  0  0  0  0  0  0  0  0  0
    4.2868    0.8250    0.0000 C   0  0  0  0  0  0  0  0  0  0  0  0
    6.2708    0.0000    0.0000 C   0  0  0  0  0  0  0  0  0  0  0  0
    5.0013   -3.7125    0.0000 C   0  0  0  0  0  0  0  0  0  0  0  0
    4.2868   -4.1250    0.0000 C   0  0  0  0  0  0  0  0  0  0  0  0
    5.0013   -2.8875    0.0000 C   0  0  0  0  0  0  0  0  0  0  0  0
   -1.4290    0.8250    0.0000 C   0  0  0  0  0  0  0  0  0  0  0  0
   -1.4290   -0.8250    0.0000 C   0  0  0  0  0  0  0  0  0  0  0  0
   -5.6860   -2.2945    0.0000 C   0  0  0  0  0  0  0  0  0  0  0  0
    2.1434    0.4125    0.0000 C   0  0  0  0  0  0  0  0  0  0  0  0
    3.5724    0.4125    0.0000 C   0  0  0  0  0  0  0  0  0  0  0  0
   -2.1434    0.4125    0.0000 C   0  0  0  0  0  0  0  0  0  0  0  0
   -2.1434   -0.4125    0.0000 C   0  0  0  0  0  0  0  0  0  0  0  0
    2.8579    0.8250    0.0000 C   0  0  0  0  0  0  0  0  0  0  0  0
   -6.0985   -1.5801    0.0000 C   0  0  0  0  0  0  0  0  0  0  0  0
   -6.0985   -3.0090    0.0000 C   0  0  0  0  0  0  0  0  0  0  0  0
   -6.9235   -1.5801    0.0000 C   0  0  0  0  0  0  0  0  0  0  0  0
   -6.9235   -3.0090    0.0000 C   0  0  0  0  0  0  0  0  0  0  0  0
   -7.3360   -2.2945    0.0000 C   0  0  0  0  0  0  0  0  0  0  0  0
    0.6504   -1.3772    0.0000 H   0  0  0  0  0  0  0  0  0  0  0  0
    5.0875   -1.2330    0.0000 H   0  0  0  0  0  0  0  0  0  0  0  0
    5.0875    1.2330    0.0000 H   0  0  0  0  0  0  0  0  0  0  0  0
  1  3  2  0  0  0  0
  1  4  2  0  0  0  0
  1 13  1  0  0  0  0
  1 21  1  0  0  0  0
  2 20  2  0  0  0  0
  5 27  1  0  0  0  0
  5 33  1  0  0  0  0
  6 22  2  0  0  0  0
  7 28  1  0  0  0  0
  7 43  1  0  0  0  0
  8 31  2  0  0  0  0
  9 37  1  0  0  0  0
  9 42  1  0  0  0  0
 10 39  1  0  0  0  0
 11 42  2  0  0  0  0
 17 12  1  1  0  0  0
 12 22  1  0  0  0  0
 13 20  1  0  0  0  0
 14 25  1  0  0  0  0
 14 30  1  0  0  0  0
 14 31  1  0  0  0  0
 15 32  1  0  0  0  0
 15 42  1  0  0  0  0
 16 33  2  0  0  0  0
 16 41  1  0  0  0  0
 17 18  1  0  0  0  0
 17 19  1  0  0  0  0
 17 20  1  6  0  0  0
 18 19  1  0  0  0  0
 18 26  1  6  0  0  0
 21 23  1  0  0  0  0
 21 24  1  0  0  0  0
 21 28  1  0  0  0  0
 25 22  1  6  0  0  0
 23 24  1  0  0  0  0
 25 29  1  0  0  0  0
 26 34  2  0  0  0  0
 27 29  1  0  0  0  0
 27 30  1  0  0  0  0
 27 65  1  6  0  0  0
 31 32  1  0  0  0  0
 32 35  1  1  0  0  0
 33 36  1  0  0  0  0
 35 49  1  0  0  0  0
 35 50  1  0  0  0  0
 35 51  1  0  0  0  0
 36 39  2  0  0  0  0
 36 46  1  0  0  0  0
 37 38  1  0  0  0  0
 37 44  1  0  0  0  0
 37 66  1  6  0  0  0
 38 45  1  0  0  0  0
 38 47  1  0  0  0  0
 38 67  1  1  0  0  0
 39 40  1  0  0  0  0
 40 41  1  0  0  0  0
 40 52  2  0  0  0  0
 41 53  2  0  0  0  0
 43 54  1  0  0  0  0
 44 48  1  0  0  0  0
 45 48  1  0  0  0  0
 46 55  1  0  0  0  0
 47 56  1  0  0  0  0
 52 57  1  0  0  0  0
 53 58  1  0  0  0  0
 54 60  2  0  0  0  0
 54 61  1  0  0  0  0
 55 59  1  0  0  0  0
 56 59  1  0  0  0  0
 57 58  2  0  0  0  0
 60 62  1  0  0  0  0
 61 63  2  0  0  0  0
 62 64  2  0  0  0  0
 63 64  1  0  0  0  0
M  END
> <PUBCHEM_COMPOUND_ID_TYPE>
0

> <PUBCHEM_TOTAL_CHARGE>
0

> <PUBCHEM_SUBSTANCE_ID>
310929905

> <PUBCHEM_SUBSTANCE_VERSION>
1

> <PUBCHEM_EXT_DATASOURCE_NAME>
4488

> <PUBCHEM_EXT_DATASOURCE_REGID>
SCHEMBL16107122

> <PUBCHEM_SUBSTANCE_COMMENT>
InChI=1S/C48H61N5O10S/c1-5-32-26-48(32,44(57)52-64(59,60)47(23-24-47)29-61-28-30-15-8-6-9-16-30)51-41(55)37-25-33-27-53(37)43(56)40(46(2,3)4)50-45(58)63-38-22-14-18-31(38)17-10-7-11-20-35-39(54)34-19-12-13-21-36(34)49-42(35)62-33/h5-6,8-9,12-13,15-16,19,21,31-33,37-38,40H,1,7,10-11,14,17-18,20,22-29H2,2-4H3,(H,49,54)(H,50,58)(H,51,55)(H,52,57)/t31-,32-,33-,37+,38-,40-,48-/m1/s1
InChIKey=SEEMUMZUHNBBQM-UCPWVXRUSA-N

> <PUBCHEM_SUBSTANCE_SYNONYM>
SCHEMBL16107122

> <PUBCHEM_XREF_EXT_ID>
SCHEMBL16107122

> <PUBCHEM_EXT_DATASOURCE_URL>
https://www.surechembl.org/

> <PUBCHEM_EXT_SUBSTANCE_URL>
https://www.surechembl.org/chemical/SCHEMBL16107122

> <PUBCHEM_CID_ASSOCIATIONS>
117599166  1

> <PUBCHEM_COORDINATE_TYPE>
1
3

> <PUBCHEM_BONDANNOTATIONS>
17  12  5
17  20  6
18  26  6
25  22  6
27  65  6
32  35  5
37  66  6
38  67  5

$$$$
