310945988
  -OEChem-07211613022D

 38 41  0     1  0  0  0  0  0999 V2000
    3.6577    0.8381    0.0000 O   0  0  0  0  0  0  0  0  0  0  0  0
    1.3993    0.8381    0.0000 O   0  0  0  0  0  0  0  0  0  0  0  0
    0.6790    0.4226    0.0000 O   0  0  0  0  0  0  0  0  0  0  0  0
   -0.0416    0.8381    0.0000 O   0  0  0  0  0  0  0  0  0  0  0  0
   -2.2029    2.9164    0.0000 O   0  0  0  0  0  0  0  0  0  0  0  0
   -2.9234   -3.3182    0.0000 O   0  0  0  0  0  0  0  0  0  0  0  0
    1.3854   -0.8106    0.0000 N   0  0  0  0  0  0  0  0  0  0  0  0
   -0.7898   -0.4087    0.0000 N   0  0  0  0  0  0  0  0  0  0  0  0
   -1.4963    1.6695    0.0000 N   0  0  0  0  0  0  0  0  0  0  0  0
   -2.9372    1.6695    0.0000 N   0  0  0  0  0  0  0  0  0  0  0  0
    2.8402    0.8381    0.0000 C   0  0  3  0  0  0  0  0  0  0  0  0
    2.0783    0.3672    0.0000 C   0  0  0  0  0  0  0  0  0  0  0  0
    3.2420    0.1316    0.0000 C   0  0  0  0  0  0  0  0  0  0  0  0
    2.0921   -0.4087    0.0000 C   0  0  3  0  0  0  0  0  0  0  0  0
    2.8263    1.6695    0.0000 C   0  0  0  0  0  0  0  0  0  0  0  0
    2.8125   -0.8106    0.0000 C   0  0  0  0  0  0  0  0  0  0  0  0
    0.6651   -0.4226    0.0000 C   0  0  0  0  0  0  0  0  0  0  0  0
   -0.0416   -0.8106    0.0000 C   0  0  3  0  0  0  0  0  0  0  0  0
    2.8263   -1.6418    0.0000 C   0  0  0  0  0  0  0  0  0  0  0  0
   -0.8036    0.4226    0.0000 C   0  0  0  0  0  0  0  0  0  0  0  0
   -0.0277   -1.6556    0.0000 C   0  0  0  0  0  0  0  0  0  0  0  0
   -1.5102    0.8520    0.0000 C   0  0  0  0  0  0  0  0  0  0  0  0
   -0.7759   -2.0575    0.0000 C   0  0  0  0  0  0  0  0  0  0  0  0
    3.5330   -2.0713    0.0000 C   0  0  0  0  0  0  0  0  0  0  0  0
    2.1060   -2.0713    0.0000 C   0  0  0  0  0  0  0  0  0  0  0  0
   -2.2168    2.0990    0.0000 C   0  0  0  0  0  0  0  0  0  0  0  0
   -2.2029    0.4364    0.0000 C   0  0  0  0  0  0  0  0  0  0  0  0
   -1.4963   -1.6695    0.0000 C   0  0  0  0  0  0  0  0  0  0  0  0
   -0.7759   -2.8887    0.0000 C   0  0  0  0  0  0  0  0  0  0  0  0
   -2.9234    0.8381    0.0000 C   0  0  0  0  0  0  0  0  0  0  0  0
   -2.2168   -2.8887    0.0000 C   0  0  0  0  0  0  0  0  0  0  0  0
    3.5330   -2.8887    0.0000 C   0  0  0  0  0  0  0  0  0  0  0  0
    2.1060   -2.8887    0.0000 C   0  0  0  0  0  0  0  0  0  0  0  0
   -2.2029   -2.0713    0.0000 C   0  0  0  0  0  0  0  0  0  0  0  0
   -1.4825   -3.3044    0.0000 C   0  0  0  0  0  0  0  0  0  0  0  0
    2.8402   -3.3044    0.0000 C   0  0  0  0  0  0  0  0  0  0  0  0
   -2.9372    3.3182    0.0000 C   0  0  0  0  0  0  0  0  0  0  0  0
   -3.6577   -2.9164    0.0000 C   0  0  0  0  0  0  0  0  0  0  0  0
  1 11  1  0  0  0  0
  1 13  1  0  0  0  0
  2 12  2  0  0  0  0
  3 17  2  0  0  0  0
  4 20  2  0  0  0  0
  5 26  1  0  0  0  0
  5 37  1  0  0  0  0
  6 31  1  0  0  0  0
  6 38  1  0  0  0  0
 14  7  1  6  0  0  0
  7 17  1  0  0  0  0
 18  8  1  6  0  0  0
  8 20  1  0  0  0  0
  9 22  1  0  0  0  0
  9 26  2  0  0  0  0
 10 26  1  0  0  0  0
 10 30  2  0  0  0  0
 11 12  1  6  0  0  0
 11 13  1  0  0  0  0
 11 15  1  1  0  0  0
 12 14  1  0  0  0  0
 14 16  1  0  0  0  0
 16 19  1  0  0  0  0
 17 18  1  0  0  0  0
 18 21  1  0  0  0  0
 19 24  2  0  0  0  0
 19 25  1  0  0  0  0
 20 22  1  0  0  0  0
 21 23  1  0  0  0  0
 22 27  2  0  0  0  0
 23 28  2  0  0  0  0
 23 29  1  0  0  0  0
 24 32  1  0  0  0  0
 25 33  2  0  0  0  0
 27 30  1  0  0  0  0
 28 34  1  0  0  0  0
 29 35  2  0  0  0  0
 31 34  2  0  0  0  0
 31 35  1  0  0  0  0
 32 36  2  0  0  0  0
 33 36  1  0  0  0  0
M  END
> <PUBCHEM_COMPOUND_ID_TYPE>
0

> <PUBCHEM_TOTAL_CHARGE>
0

> <PUBCHEM_SUBSTANCE_ID>
310945988

> <PUBCHEM_SUBSTANCE_VERSION>
1

> <PUBCHEM_EXT_DATASOURCE_NAME>
4488

> <PUBCHEM_EXT_DATASOURCE_REGID>
SCHEMBL16124093

> <PUBCHEM_SUBSTANCE_COMMENT>
InChI=1S/C28H30N4O6/c1-28(17-38-28)24(33)22(15-18-7-5-4-6-8-18)30-26(35)23(16-19-9-11-20(36-2)12-10-19)31-25(34)21-13-14-29-27(32-21)37-3/h4-14,22-23H,15-17H2,1-3H3,(H,30,35)(H,31,34)/t22-,23-,28+/m0/s1
InChIKey=ZPNIOTFNXWDICB-UXWDXCIHSA-N

> <PUBCHEM_SUBSTANCE_SYNONYM>
SCHEMBL16124093

> <PUBCHEM_XREF_EXT_ID>
SCHEMBL16124093

> <PUBCHEM_EXT_DATASOURCE_URL>
https://www.surechembl.org/

> <PUBCHEM_EXT_SUBSTANCE_URL>
https://www.surechembl.org/chemical/SCHEMBL16124093

> <PUBCHEM_CID_ASSOCIATIONS>
117611960  1

> <PUBCHEM_COORDINATE_TYPE>
1
3

> <PUBCHEM_BONDANNOTATIONS>
11  12  6
11  15  5
14  7  6
18  8  6

$$$$
