310942500
  -OEChem-07211613022D

 76 81  0     1  0  0  0  0  0999 V2000
    9.1842    0.8565    0.0000 F   0  0  0  0  0  0  0  0  0  0  0  0
    3.2676   -1.7290    0.0000 F   0  0  0  0  0  0  0  0  0  0  0  0
    9.0573   -3.6007    0.0000 F   0  0  0  0  0  0  0  0  0  0  0  0
    5.9483    1.2373    0.0000 O   0  0  0  0  0  0  0  0  0  0  0  0
    4.5842    2.2049    0.0000 O   0  0  0  0  0  0  0  0  0  0  0  0
    0.7614    0.3014    0.0000 O   0  0  0  0  0  0  0  0  0  0  0  0
    1.4752    1.5386    0.0000 O   0  0  0  0  0  0  0  0  0  0  0  0
   -7.8835    0.6979    0.0000 O   0  0  0  0  0  0  0  0  0  0  0  0
   -5.7739   -1.5545    0.0000 O   0  0  0  0  0  0  0  0  0  0  0  0
   -3.6324    0.5076    0.0000 O   0  0  0  0  0  0  0  0  0  0  0  0
   -6.5035   -1.9669    0.0000 O   0  0  0  0  0  0  0  0  0  0  0  0
    7.2649   -0.4759    0.0000 N   0  0  0  0  0  0  0  0  0  0  0  0
    5.1076    0.0635    0.0000 N   0  0  0  0  0  0  0  0  0  0  0  0
    6.7097    0.7455    0.0000 N   0  0  0  0  0  0  0  0  0  0  0  0
    2.2842    0.1904    0.0000 N   0  0  0  0  0  0  0  0  0  0  0  0
   -7.2173   -0.7296    0.0000 N   0  0  0  0  0  0  0  0  0  0  0  0
   -9.6125    0.0951    0.0000 N   0  0  0  0  0  0  0  0  0  0  0  0
   -5.0601   -0.3173    0.0000 N   0  0  0  0  0  0  0  0  0  0  0  0
   -2.9187   -0.7296    0.0000 N   0  0  0  0  0  0  0  0  0  0  0  0
   -5.7739   -3.2042    0.0000 N   0  0  0  0  0  0  0  0  0  0  0  0
   -7.2173   -3.2042    0.0000 N   0  0  0  0  0  0  0  0  0  0  0  0
    5.7897   -0.3966    0.0000 C   0  0  3  0  0  0  0  0  0  0  0  0
    6.5352   -0.0476    0.0000 C   0  0  0  0  0  0  0  0  0  0  0  0
    5.6946   -1.2373    0.0000 C   0  0  0  0  0  0  0  0  0  0  0  0
    7.5187    0.8407    0.0000 C   0  0  0  0  0  0  0  0  0  0  0  0
    7.8518    0.1111    0.0000 C   0  0  0  0  0  0  0  0  0  0  0  0
    7.9311    1.5862    0.0000 C   0  0  0  0  0  0  0  0  0  0  0  0
    5.1711    0.9041    0.0000 C   0  0  0  0  0  0  0  0  0  0  0  0
    4.4097   -0.2855    0.0000 C   0  0  0  0  0  0  0  0  0  0  0  0
    7.3442   -1.2848    0.0000 C   0  0  0  0  0  0  0  0  0  0  0  0
    3.5373   -0.2697    0.0000 C   0  0  3  0  0  0  0  0  0  0  0  0
    8.7560    1.6021    0.0000 C   0  0  0  0  0  0  0  0  0  0  0  0
    7.5345    2.2842    0.0000 C   0  0  0  0  0  0  0  0  0  0  0  0
    3.0296   -0.9200    0.0000 C   0  0  3  0  0  0  0  0  0  0  0  0
    8.1056   -1.6179    0.0000 C   0  0  0  0  0  0  0  0  0  0  0  0
    4.9490   -1.5862    0.0000 C   0  0  0  0  0  0  0  0  0  0  0  0
    6.3925   -1.6814    0.0000 C   0  0  0  0  0  0  0  0  0  0  0  0
    5.6786   -2.0621    0.0000 C   0  0  0  0  0  0  0  0  0  0  0  0
    4.4890    1.3800    0.0000 C   0  0  3  0  0  0  0  0  0  0  0  0
    3.0931    0.3966    0.0000 C   0  0  0  0  0  0  0  0  0  0  0  0
    2.2524   -0.6345    0.0000 C   0  0  0  0  0  0  0  0  0  0  0  0
    7.8994    3.0138    0.0000 C   0  0  0  0  0  0  0  0  0  0  0  0
    9.1525    2.3000    0.0000 C   0  0  0  0  0  0  0  0  0  0  0  0
    8.7560    3.0138    0.0000 C   0  0  0  0  0  0  0  0  0  0  0  0
    1.4435    0.7138    0.0000 C   0  0  0  0  0  0  0  0  0  0  0  0
    8.2008   -2.4269    0.0000 C   0  0  0  0  0  0  0  0  0  0  0  0
    8.7560   -1.1262    0.0000 C   0  0  0  0  0  0  0  0  0  0  0  0
    8.9780   -2.7601    0.0000 C   0  0  0  0  0  0  0  0  0  0  0  0
    3.7752    1.0152    0.0000 C   0  0  0  0  0  0  0  0  0  0  0  0
    9.5173   -1.4593    0.0000 C   0  0  0  0  0  0  0  0  0  0  0  0
    7.5822    3.6007    0.0000 C   0  0  0  0  0  0  0  0  0  0  0  0
    9.6125   -2.2842    0.0000 C   0  0  0  0  0  0  0  0  0  0  0  0
   -8.7242   -0.4600    0.0000 C   0  0  0  0  0  0  0  0  0  0  0  0
   -7.9787   -0.1269    0.0000 C   0  0  0  0  0  0  0  0  0  0  0  0
   -0.0635    0.9358    0.0000 C   0  0  0  0  0  0  0  0  0  0  0  0
   -6.5193   -0.3014    0.0000 C   0  0  3  0  0  0  0  0  0  0  0  0
   -9.4221   -0.8883    0.0000 C   0  0  0  0  0  0  0  0  0  0  0  0
   -8.1056   -0.9993    0.0000 C   0  0  0  0  0  0  0  0  0  0  0  0
   -0.7614    0.5235    0.0000 C   0  0  0  0  0  0  0  0  0  0  0  0
   -5.7739   -0.6979    0.0000 C   0  0  0  0  0  0  0  0  0  0  0  0
   -8.4070   -1.7290    0.0000 C   0  0  0  0  0  0  0  0  0  0  0  0
   -9.2159   -1.6814    0.0000 C   0  0  0  0  0  0  0  0  0  0  0  0
   -6.4876    0.5235    0.0000 C   0  0  0  0  0  0  0  0  0  0  0  0
   -4.3304   -0.7138    0.0000 C   0  0  3  0  0  0  0  0  0  0  0  0
   -1.4752    0.9200    0.0000 C   0  0  0  0  0  0  0  0  0  0  0  0
   -0.7772   -0.3014    0.0000 C   0  0  0  0  0  0  0  0  0  0  0  0
   -2.2049   -0.3014    0.0000 C   0  0  0  0  0  0  0  0  0  0  0  0
   -3.6483   -0.3173    0.0000 C   0  0  0  0  0  0  0  0  0  0  0  0
   -2.1890    0.5235    0.0000 C   0  0  0  0  0  0  0  0  0  0  0  0
   -1.4593   -0.6979    0.0000 C   0  0  0  0  0  0  0  0  0  0  0  0
   -4.3621   -1.5386    0.0000 C   0  0  0  0  0  0  0  0  0  0  0  0
   -7.2332    0.9358    0.0000 C   0  0  0  0  0  0  0  0  0  0  0  0
   -5.7580    0.9358    0.0000 C   0  0  0  0  0  0  0  0  0  0  0  0
   -5.0442   -1.9511    0.0000 C   0  0  0  0  0  0  0  0  0  0  0  0
   -5.0759   -2.7917    0.0000 C   0  0  0  0  0  0  0  0  0  0  0  0
   -6.5035   -2.7917    0.0000 C   0  0  0  0  0  0  0  0  0  0  0  0
  1 32  1  0  0  0  0
 34  2  1  1  0  0  0
  3 48  1  0  0  0  0
  4 28  2  0  0  0  0
 39  5  1  6  0  0  0
  6 45  1  0  0  0  0
  6 55  1  0  0  0  0
  7 45  2  0  0  0  0
  8 54  2  0  0  0  0
  9 60  2  0  0  0  0
 10 68  2  0  0  0  0
 11 76  2  0  0  0  0
 12 23  1  0  0  0  0
 12 26  1  0  0  0  0
 12 30  1  0  0  0  0
 22 13  1  1  0  0  0
 13 28  1  0  0  0  0
 13 29  1  0  0  0  0
 14 23  2  0  0  0  0
 14 25  1  0  0  0  0
 15 40  1  0  0  0  0
 15 41  1  0  0  0  0
 15 45  1  0  0  0  0
 16 54  1  0  0  0  0
 56 16  1  1  0  0  0
 17 53  1  0  0  0  0
 18 60  1  0  0  0  0
 64 18  1  6  0  0  0
 19 67  1  0  0  0  0
 19 68  1  0  0  0  0
 20 75  1  0  0  0  0
 20 76  1  0  0  0  0
 21 76  1  0  0  0  0
 22 23  1  0  0  0  0
 22 24  1  0  0  0  0
 24 36  1  0  0  0  0
 24 37  1  0  0  0  0
 24 38  1  0  0  0  0
 25 26  2  0  0  0  0
 25 27  1  0  0  0  0
 27 32  2  0  0  0  0
 27 33  1  0  0  0  0
 28 39  1  0  0  0  0
 31 29  1  1  0  0  0
 30 35  1  0  0  0  0
 31 34  1  0  0  0  0
 31 40  1  0  0  0  0
 32 43  1  0  0  0  0
 33 42  2  0  0  0  0
 34 41  1  0  0  0  0
 35 46  2  0  0  0  0
 35 47  1  0  0  0  0
 39 49  1  0  0  0  0
 42 44  1  0  0  0  0
 42 51  1  0  0  0  0
 43 44  2  0  0  0  0
 46 48  1  0  0  0  0
 47 50  2  0  0  0  0
 48 52  2  0  0  0  0
 50 52  1  0  0  0  0
 53 54  1  0  0  0  0
 53 57  1  0  0  0  0
 53 58  1  0  0  0  0
 55 59  1  0  0  0  0
 56 60  1  0  0  0  0
 56 63  1  0  0  0  0
 57 62  1  0  0  0  0
 58 61  1  0  0  0  0
 59 65  2  0  0  0  0
 59 66  1  0  0  0  0
 61 62  1  0  0  0  0
 63 72  1  0  0  0  0
 63 73  1  0  0  0  0
 64 68  1  0  0  0  0
 64 71  1  0  0  0  0
 65 69  1  0  0  0  0
 66 70  2  0  0  0  0
 67 69  2  0  0  0  0
 67 70  1  0  0  0  0
 71 74  1  0  0  0  0
 74 75  1  0  0  0  0
M  END
> <PUBCHEM_COMPOUND_ID_TYPE>
0

> <PUBCHEM_TOTAL_CHARGE>
0

> <PUBCHEM_SUBSTANCE_ID>
310942500

> <PUBCHEM_SUBSTANCE_VERSION>
1

> <PUBCHEM_EXT_DATASOURCE_NAME>
4488

> <PUBCHEM_EXT_DATASOURCE_REGID>
SCHEMBL16120536

> <PUBCHEM_SUBSTANCE_COMMENT>
InChI=1S/C55H73F3N10O8/c1-32(2)45(65-51(73)55(60)21-8-9-22-55)49(71)64-43(14-11-23-61-52(59)74)48(70)62-39-18-16-35(17-19-39)31-76-53(75)67-27-37(42(58)29-67)28-68(50(72)34(4)69)46(54(5,6)7)47-63-44(40-24-33(3)15-20-41(40)57)30-66(47)26-36-12-10-13-38(56)25-36/h10,12-13,15-20,24-25,30,32,34,37,42-43,45-46,69H,8-9,11,14,21-23,26-29,31,60H2,1-7H3,(H,62,70)(H,64,71)(H,65,73)(H3,59,61,74)/t34-,37-,42-,43-,45-,46-/m0/s1
InChIKey=QWZXNERTVGRFKT-KKPSGBCBSA-N

> <PUBCHEM_SUBSTANCE_SYNONYM>
SCHEMBL16120536

> <PUBCHEM_XREF_EXT_ID>
SCHEMBL16120536

> <PUBCHEM_EXT_DATASOURCE_URL>
https://www.surechembl.org/

> <PUBCHEM_EXT_SUBSTANCE_URL>
https://www.surechembl.org/chemical/SCHEMBL16120536

> <PUBCHEM_CID_ASSOCIATIONS>
117609070  1

> <PUBCHEM_COORDINATE_TYPE>
1
3

> <PUBCHEM_BONDANNOTATIONS>
22  13  5
56  16  5
64  18  6
34  2  5
31  29  5
39  5  6

$$$$
