310945755
  -OEChem-07211613022D

 22 22  0     0  0  0  0  0  0999 V2000
   -1.5139    1.7186    0.0000 O   0  0  0  0  0  0  0  0  0  0  0  0
   -1.5139   -1.7186    0.0000 O   0  0  0  0  0  0  0  0  0  0  0  0
    1.3526    1.7186    0.0000 O   0  0  0  0  0  0  0  0  0  0  0  0
    1.3526   -1.7186    0.0000 O   0  0  0  0  0  0  0  0  0  0  0  0
   -2.2087    0.4777    0.0000 N   0  0  0  0  0  0  0  0  0  0  0  0
   -2.2211   -0.4777    0.0000 N   0  0  0  0  0  0  0  0  0  0  0  0
    2.0846    0.4777    0.0000 N   0  0  0  0  0  0  0  0  0  0  0  0
    2.0722   -0.4777    0.0000 N   0  0  0  0  0  0  0  0  0  0  0  0
   -2.7920    0.7383    0.0000 N   0  0  0  0  0  0  0  0  0  0  0  0
   -0.7817    0.4777    0.0000 C   0  0  0  0  0  0  0  0  0  0  0  0
   -0.7941   -0.4653    0.0000 C   0  0  0  0  0  0  0  0  0  0  0  0
    0.6452    0.4902    0.0000 C   0  0  0  0  0  0  0  0  0  0  0  0
    0.6328   -0.4653    0.0000 C   0  0  0  0  0  0  0  0  0  0  0  0
   -0.0744    0.8872    0.0000 C   0  0  0  0  0  0  0  0  0  0  0  0
   -0.0620   -0.8748    0.0000 C   0  0  0  0  0  0  0  0  0  0  0  0
   -1.5139    0.8872    0.0000 C   0  0  0  0  0  0  0  0  0  0  0  0
   -1.5015   -0.8624    0.0000 C   0  0  0  0  0  0  0  0  0  0  0  0
    1.3526    0.8872    0.0000 C   0  0  0  0  0  0  0  0  0  0  0  0
    1.3650   -0.8624    0.0000 C   0  0  0  0  0  0  0  0  0  0  0  0
   -2.7547   -0.8004    0.0000 C   0  0  0  0  0  0  0  0  0  0  0  0
    2.7920    0.8872    0.0000 C   0  0  0  0  0  0  0  0  0  0  0  0
    2.7920   -0.8872    0.0000 C   0  0  0  0  0  0  0  0  0  0  0  0
  1 16  2  0  0  0  0
  2 17  2  0  0  0  0
  3 18  2  0  0  0  0
  4 19  2  0  0  0  0
  5  9  1  0  0  0  0
  5 16  1  0  0  0  0
  6 17  1  0  0  0  0
  6 20  1  0  0  0  0
  7 18  1  0  0  0  0
  7 21  1  0  0  0  0
  8 19  1  0  0  0  0
  8 22  1  0  0  0  0
 10 11  2  0  0  0  0
 10 14  1  0  0  0  0
 10 16  1  0  0  0  0
 11 15  1  0  0  0  0
 11 17  1  0  0  0  0
 12 13  1  0  0  0  0
 12 14  2  0  0  0  0
 12 18  1  0  0  0  0
 13 15  2  0  0  0  0
 13 19  1  0  0  0  0
M  END
> <PUBCHEM_COMPOUND_ID_TYPE>
0

> <PUBCHEM_TOTAL_CHARGE>
0

> <PUBCHEM_SUBSTANCE_ID>
310945755

> <PUBCHEM_SUBSTANCE_VERSION>
1

> <PUBCHEM_EXT_DATASOURCE_NAME>
4488

> <PUBCHEM_EXT_DATASOURCE_REGID>
SCHEMBL16123859

> <PUBCHEM_SUBSTANCE_COMMENT>
InChI=1S/C13H17N5O4/c1-15-10(19)6-4-8(12(21)17-3)9(13(22)18-14)5-7(6)11(20)16-2/h4-5H,14H2,1-3H3,(H,15,19)(H,16,20)(H,17,21)(H,18,22)
InChIKey=MUYKQLWGJHSDIZ-UHFFFAOYSA-N

> <PUBCHEM_SUBSTANCE_SYNONYM>
SCHEMBL16123859

> <PUBCHEM_XREF_EXT_ID>
SCHEMBL16123859

> <PUBCHEM_EXT_DATASOURCE_URL>
https://www.surechembl.org/

> <PUBCHEM_EXT_SUBSTANCE_URL>
https://www.surechembl.org/chemical/SCHEMBL16123859

> <PUBCHEM_CID_ASSOCIATIONS>
117611748  1

> <PUBCHEM_COORDINATE_TYPE>
1
3

$$$$
