310940660
  -OEChem-07211613022D

 40 45  0     1  0  0  0  0  0999 V2000
    4.1563    3.7362    0.0000 F   0  0  0  0  0  0  0  0  0  0  0  0
    4.9521    3.5152    0.0000 F   0  0  0  0  0  0  0  0  0  0  0  0
   -1.3412   -0.7443    0.0000 O   0  0  0  0  0  0  0  0  0  0  0  0
    2.1076   -3.0140    0.0000 O   0  0  0  0  0  0  0  0  0  0  0  0
    3.3456   -3.7362    0.0000 O   0  0  0  0  0  0  0  0  0  0  0  0
    1.6065   -0.8917    0.0000 N   0  0  0  0  0  0  0  0  0  0  0  0
    1.6065   -2.2477    0.0000 N   0  0  0  0  0  0  0  0  0  0  0  0
    3.9941    1.8055    0.0000 N   0  0  0  0  0  0  0  0  0  0  0  0
   -3.4930   -1.1570    0.0000 N   0  0  0  0  0  0  0  0  0  0  0  0
    2.0781   -1.5696    0.0000 C   0  0  0  0  0  0  0  0  0  0  0  0
    0.8253   -1.1570    0.0000 C   0  0  0  0  0  0  0  0  0  0  0  0
    0.8106   -1.9676    0.0000 C   0  0  0  0  0  0  0  0  0  0  0  0
    2.9477   -1.5844    0.0000 C   0  0  3  0  0  0  0  0  0  0  0  0
    1.8718   -0.1105    0.0000 C   0  0  0  0  0  0  0  0  0  0  0  0
    0.1032   -0.7590    0.0000 C   0  0  0  0  0  0  0  0  0  0  0  0
    3.3604   -2.2624    0.0000 C   0  0  3  0  0  0  0  0  0  0  0  0
    2.6824    0.0663    0.0000 C   0  0  0  0  0  0  0  0  0  0  0  0
    0.1179   -2.3950    0.0000 C   0  0  0  0  0  0  0  0  0  0  0  0
   -0.6190   -1.1570    0.0000 C   0  0  0  0  0  0  0  0  0  0  0  0
    3.7435    1.0243    0.0000 C   0  0  0  0  0  0  0  0  0  0  0  0
    4.3626    2.9256    0.0000 C   0  0  0  0  0  0  0  0  0  0  0  0
    3.3456   -0.8622    0.0000 C   0  0  0  0  0  0  0  0  0  0  0  0
    2.9477    0.8475    0.0000 C   0  0  0  0  0  0  0  0  0  0  0  0
   -0.6190   -1.9823    0.0000 C   0  0  0  0  0  0  0  0  0  0  0  0
    4.7311    2.2034    0.0000 C   0  0  0  0  0  0  0  0  0  0  0  0
    3.6404    2.5572    0.0000 C   0  0  0  0  0  0  0  0  0  0  0  0
    2.9329   -3.0140    0.0000 C   0  0  0  0  0  0  0  0  0  0  0  0
    4.1710   -2.2771    0.0000 C   0  0  0  0  0  0  0  0  0  0  0  0
    3.2277   -0.5527    0.0000 C   0  0  0  0  0  0  0  0  0  0  0  0
    4.2889    0.4053    0.0000 C   0  0  0  0  0  0  0  0  0  0  0  0
    4.1710   -0.8622    0.0000 C   0  0  0  0  0  0  0  0  0  0  0  0
    4.0383   -0.3758    0.0000 C   0  0  0  0  0  0  0  0  0  0  0  0
    4.5837   -1.5696    0.0000 C   0  0  0  0  0  0  0  0  0  0  0  0
   -2.0339   -1.1423    0.0000 C   0  0  0  0  0  0  0  0  0  0  0  0
   -2.7855   -0.7443    0.0000 C   0  0  0  0  0  0  0  0  0  0  0  0
   -2.7708    0.0811    0.0000 C   0  0  0  0  0  0  0  0  0  0  0  0
   -4.2152   -0.7296    0.0000 C   0  0  0  0  0  0  0  0  0  0  0  0
   -3.4930    0.5085    0.0000 C   0  0  0  0  0  0  0  0  0  0  0  0
   -4.2152    0.0958    0.0000 C   0  0  0  0  0  0  0  0  0  0  0  0
   -4.9521    0.4938    0.0000 C   0  0  0  0  0  0  0  0  0  0  0  0
  1 21  1  0  0  0  0
  2 21  1  0  0  0  0
  3 19  1  0  0  0  0
  3 34  1  0  0  0  0
  4 27  2  0  0  0  0
  5 27  1  0  0  0  0
  6 10  1  0  0  0  0
  6 11  1  0  0  0  0
  6 14  1  0  0  0  0
  7 10  2  0  0  0  0
  7 12  1  0  0  0  0
  8 20  1  0  0  0  0
  8 25  1  0  0  0  0
  8 26  1  0  0  0  0
  9 35  1  0  0  0  0
  9 37  2  0  0  0  0
 13 10  1  1  0  0  0
 11 12  1  0  0  0  0
 11 15  2  0  0  0  0
 12 18  2  0  0  0  0
 13 16  1  0  0  0  0
 13 22  1  0  0  0  0
 14 17  1  0  0  0  0
 15 19  1  0  0  0  0
 16 27  1  1  0  0  0
 16 28  1  0  0  0  0
 17 23  1  0  0  0  0
 17 29  2  0  0  0  0
 18 24  1  0  0  0  0
 19 24  2  0  0  0  0
 20 23  2  0  0  0  0
 20 30  1  0  0  0  0
 21 25  1  0  0  0  0
 21 26  1  0  0  0  0
 22 31  1  0  0  0  0
 28 33  1  0  0  0  0
 29 32  1  0  0  0  0
 30 32  2  0  0  0  0
 31 33  1  0  0  0  0
 34 35  1  0  0  0  0
 35 36  2  0  0  0  0
 36 38  1  0  0  0  0
 37 39  1  0  0  0  0
 38 39  2  0  0  0  0
 39 40  1  0  0  0  0
M  END
> <PUBCHEM_COMPOUND_ID_TYPE>
0

> <PUBCHEM_TOTAL_CHARGE>
0

> <PUBCHEM_SUBSTANCE_ID>
310940660

> <PUBCHEM_SUBSTANCE_VERSION>
1

> <PUBCHEM_EXT_DATASOURCE_NAME>
4488

> <PUBCHEM_EXT_DATASOURCE_REGID>
SCHEMBL16118615

> <PUBCHEM_SUBSTANCE_COMMENT>
InChI=1S/C31H32F2N4O3/c1-20-9-10-22(34-15-20)17-40-24-11-12-27-28(14-24)37(29(35-27)25-7-2-3-8-26(25)30(38)39)16-21-5-4-6-23(13-21)36-18-31(32,33)19-36/h4-6,9-15,25-26H,2-3,7-8,16-19H2,1H3,(H,38,39)/t25-,26+/m0/s1
InChIKey=XOMPQAXSOXITAN-IZZNHLLZSA-N

> <PUBCHEM_SUBSTANCE_SYNONYM>
SCHEMBL16118615

> <PUBCHEM_XREF_EXT_ID>
SCHEMBL16118615

> <PUBCHEM_EXT_DATASOURCE_URL>
https://www.surechembl.org/

> <PUBCHEM_EXT_SUBSTANCE_URL>
https://www.surechembl.org/chemical/SCHEMBL16118615

> <PUBCHEM_CID_ASSOCIATIONS>
117607637  1

> <PUBCHEM_COORDINATE_TYPE>
1
3

> <PUBCHEM_BONDANNOTATIONS>
13  10  5
16  27  5

$$$$
