310940388
  -OEChem-07211613022D

 23 25  0     0  0  0  0  0  0999 V2000
   -4.7979    0.0968    0.0000 Cl  0  0  0  0  0  0  0  0  0  0  0  0
    4.7979    1.9357    0.0000 F   0  0  0  0  0  0  0  0  0  0  0  0
    0.4563   -0.6222    0.0000 O   0  0  0  0  0  0  0  0  0  0  0  0
   -1.2444   -0.3871    0.0000 N   0  0  0  0  0  0  0  0  0  0  0  0
    1.9357    0.2903    0.0000 N   0  0  0  0  0  0  0  0  0  0  0  0
   -0.0829   -1.2444    0.0000 C   0  0  0  0  0  0  0  0  0  0  0  0
    1.2306   -0.9541    0.0000 C   0  0  0  0  0  0  0  0  0  0  0  0
    0.3180   -1.9357    0.0000 C   0  0  0  0  0  0  0  0  0  0  0  0
    1.1338   -1.7837    0.0000 C   0  0  0  0  0  0  0  0  0  0  0  0
   -0.9126   -1.1338    0.0000 C   0  0  0  0  0  0  0  0  0  0  0  0
    1.9357   -0.5393    0.0000 C   0  0  0  0  0  0  0  0  0  0  0  0
   -2.0602   -0.2765    0.0000 C   0  0  0  0  0  0  0  0  0  0  0  0
    2.6686    0.6913    0.0000 C   0  0  0  0  0  0  0  0  0  0  0  0
   -2.3644    0.4701    0.0000 C   0  0  0  0  0  0  0  0  0  0  0  0
   -2.5995   -0.9402    0.0000 C   0  0  0  0  0  0  0  0  0  0  0  0
    3.3875    0.3042    0.0000 C   0  0  0  0  0  0  0  0  0  0  0  0
    2.6686    1.5209    0.0000 C   0  0  0  0  0  0  0  0  0  0  0  0
   -3.7056   -0.0415    0.0000 C   0  0  0  0  0  0  0  0  0  0  0  0
    4.0928    1.5348    0.0000 C   0  0  0  0  0  0  0  0  0  0  0  0
   -3.1801    0.5945    0.0000 C   0  0  0  0  0  0  0  0  0  0  0  0
   -3.4014   -0.8019    0.0000 C   0  0  0  0  0  0  0  0  0  0  0  0
    4.0928    0.7052    0.0000 C   0  0  0  0  0  0  0  0  0  0  0  0
    3.3875    1.9357    0.0000 C   0  0  0  0  0  0  0  0  0  0  0  0
  1 18  1  0  0  0  0
  2 19  1  0  0  0  0
  3  6  1  0  0  0  0
  3  7  1  0  0  0  0
  4 10  2  0  0  0  0
  4 12  1  0  0  0  0
  5 11  2  0  0  0  0
  5 13  1  0  0  0  0
  6  8  2  0  0  0  0
  6 10  1  0  0  0  0
  7  9  2  0  0  0  0
  7 11  1  0  0  0  0
  8  9  1  0  0  0  0
 12 14  2  0  0  0  0
 12 15  1  0  0  0  0
 13 16  2  0  0  0  0
 13 17  1  0  0  0  0
 14 20  1  0  0  0  0
 15 21  2  0  0  0  0
 16 22  1  0  0  0  0
 17 23  2  0  0  0  0
 18 20  2  0  0  0  0
 18 21  1  0  0  0  0
 19 22  2  0  0  0  0
 19 23  1  0  0  0  0
M  END
> <PUBCHEM_COMPOUND_ID_TYPE>
0

> <PUBCHEM_TOTAL_CHARGE>
0

> <PUBCHEM_SUBSTANCE_ID>
310940388

> <PUBCHEM_SUBSTANCE_VERSION>
1

> <PUBCHEM_EXT_DATASOURCE_NAME>
4488

> <PUBCHEM_EXT_DATASOURCE_REGID>
SCHEMBL16118334

> <PUBCHEM_SUBSTANCE_COMMENT>
InChI=1S/C18H12ClFN2O/c19-13-1-5-15(6-2-13)21-11-17-9-10-18(23-17)12-22-16-7-3-14(20)4-8-16/h1-12H/b21-11+,22-12+
InChIKey=XWZUVTMOQKCNNA-XHQRYOPUSA-N

> <PUBCHEM_SUBSTANCE_SYNONYM>
SCHEMBL16118334

> <PUBCHEM_XREF_EXT_ID>
SCHEMBL16118334

> <PUBCHEM_EXT_DATASOURCE_URL>
https://www.surechembl.org/

> <PUBCHEM_EXT_SUBSTANCE_URL>
https://www.surechembl.org/chemical/SCHEMBL16118334

> <PUBCHEM_CID_ASSOCIATIONS>
117607419  1

> <PUBCHEM_COORDINATE_TYPE>
1
3

> <PUBCHEM_BONDANNOTATIONS>
4  12  3
5  13  3

$$$$
