310942298
  -OEChem-07211613022D

 59 64  0     1  0  0  0  0  0999 V2000
   -5.4684    1.7075    0.0000 O   0  0  0  0  0  0  0  0  0  0  0  0
   -3.9965    2.0166    0.0000 O   0  0  0  0  0  0  0  0  0  0  0  0
   -1.8620    2.3552    0.0000 O   0  0  0  0  0  0  0  0  0  0  0  0
   -0.7433    0.9421    0.0000 O   0  0  0  0  0  0  0  0  0  0  0  0
   -4.8650   -1.1923    0.0000 O   0  0  0  0  0  0  0  0  0  0  0  0
   -3.7315   -1.5456    0.0000 O   0  0  0  0  0  0  0  0  0  0  0  0
   -2.5539   -2.1638    0.0000 O   0  0  0  0  0  0  0  0  0  0  0  0
    0.5226   -0.9274    0.0000 O   0  0  0  0  0  0  0  0  0  0  0  0
   -4.3792    3.4444    0.0000 O   0  0  0  0  0  0  0  0  0  0  0  0
   -0.7139    1.6928    0.0000 O   0  0  0  0  0  0  0  0  0  0  0  0
    0.5226   -2.3994    0.0000 O   0  0  0  0  0  0  0  0  0  0  0  0
    4.3497   -1.6634    0.0000 O   0  0  0  0  0  0  0  0  0  0  0  0
    3.0691   -0.9274    0.0000 O   0  0  0  0  0  0  0  0  0  0  0  0
    3.2458   -2.3994    0.0000 N   0  0  0  0  0  0  0  0  0  0  0  0
   -3.6138    0.6035    0.0000 C   0  0  3  0  0  0  0  0  0  0  0  0
   -4.2172    1.1923    0.0000 C   0  0  3  0  0  0  0  0  0  0  0  0
   -3.8198   -0.2355    0.0000 C   0  0  3  0  0  0  0  0  0  0  0  0
   -1.3322    0.3385    0.0000 C   0  0  3  0  0  0  0  0  0  0  0  0
   -2.3773    1.2954    0.0000 C   0  0  3  0  0  0  0  0  0  0  0  0
   -1.9357   -0.2649    0.0000 C   0  0  0  0  0  0  0  0  0  0  0  0
   -5.0415    0.9862    0.0000 C   0  0  3  0  0  0  0  0  0  0  0  0
   -3.2310   -1.0451    0.0000 C   0  0  0  0  0  0  0  0  0  0  0  0
   -1.7296   -1.0745    0.0000 C   0  0  0  0  0  0  0  0  0  0  0  0
   -4.6441   -0.4416    0.0000 C   0  0  3  0  0  0  0  0  0  0  0  0
   -2.5392   -1.2954    0.0000 C   0  0  3  0  0  0  0  0  0  0  0  0
   -4.6441    1.9136    0.0000 C   0  0  0  0  0  0  0  0  0  0  0  0
   -5.2330    0.1472    0.0000 C   0  0  0  0  0  0  0  0  0  0  0  0
   -0.5079    0.1031    0.0000 C   0  0  0  0  0  0  0  0  0  0  0  0
   -0.8906   -1.3101    0.0000 C   0  0  0  0  0  0  0  0  0  0  0  0
   -0.3017   -0.7065    0.0000 C   0  0  3  0  0  0  0  0  0  0  0  0
   -4.0259   -1.0156    0.0000 C   0  0  0  0  0  0  0  0  0  0  0  0
   -2.8336   -0.2796    0.0000 C   0  0  0  0  0  0  0  0  0  0  0  0
   -2.3184    0.4122    0.0000 C   0  0  0  0  0  0  0  0  0  0  0  0
   -4.5999    2.6054    0.0000 C   0  0  0  0  0  0  0  0  0  0  0  0
   -1.0819    2.3699    0.0000 C   0  0  0  0  0  0  0  0  0  0  0  0
   -0.6697   -2.1197    0.0000 C   0  0  0  0  0  0  0  0  0  0  0  0
   -0.6992    3.0323    0.0000 C   0  0  0  0  0  0  0  0  0  0  0  0
   -5.6304   -1.3837    0.0000 C   0  0  0  0  0  0  0  0  0  0  0  0
    0.9642   -1.6339    0.0000 C   0  0  0  0  0  0  0  0  0  0  0  0
   -3.2605   -2.5613    0.0000 C   0  0  0  0  0  0  0  0  0  0  0  0
   -5.3948    2.3846    0.0000 C   0  0  0  0  0  0  0  0  0  0  0  0
    0.0663    3.0175    0.0000 C   0  0  0  0  0  0  0  0  0  0  0  0
   -1.0672    3.6800    0.0000 C   0  0  0  0  0  0  0  0  0  0  0  0
    1.8179   -1.6781    0.0000 C   0  0  0  0  0  0  0  0  0  0  0  0
    2.2300   -2.3846    0.0000 C   0  0  3  0  0  0  0  0  0  0  0  0
    0.4490    3.6800    0.0000 C   0  0  0  0  0  0  0  0  0  0  0  0
   -0.6844    4.3424    0.0000 C   0  0  0  0  0  0  0  0  0  0  0  0
    0.0663    4.3424    0.0000 C   0  0  0  0  0  0  0  0  0  0  0  0
    1.8768   -3.0323    0.0000 C   0  0  0  0  0  0  0  0  0  0  0  0
    2.2595   -3.6800    0.0000 C   0  0  0  0  0  0  0  0  0  0  0  0
    1.1113   -3.0323    0.0000 C   0  0  0  0  0  0  0  0  0  0  0  0
    3.5254   -1.6634    0.0000 C   0  0  0  0  0  0  0  0  0  0  0  0
    1.8768   -4.3424    0.0000 C   0  0  0  0  0  0  0  0  0  0  0  0
    0.7433   -3.6800    0.0000 C   0  0  0  0  0  0  0  0  0  0  0  0
    1.1113   -4.3424    0.0000 C   0  0  0  0  0  0  0  0  0  0  0  0
    4.8650   -0.7802    0.0000 C   0  0  0  0  0  0  0  0  0  0  0  0
    5.2330   -0.1620    0.0000 C   0  0  0  0  0  0  0  0  0  0  0  0
    4.4675   -0.1325    0.0000 C   0  0  0  0  0  0  0  0  0  0  0  0
    5.6304   -0.8096    0.0000 C   0  0  0  0  0  0  0  0  0  0  0  0
  1 21  1  0  0  0  0
  1 26  1  0  0  0  0
 16  2  1  6  0  0  0
  2 34  1  0  0  0  0
 19  3  1  6  0  0  0
  3 35  1  0  0  0  0
 18  4  1  1  0  0  0
 24  5  1  1  0  0  0
  5 38  1  0  0  0  0
  6 22  2  0  0  0  0
 25  7  1  1  0  0  0
  7 40  1  0  0  0  0
 30  8  1  6  0  0  0
  8 39  1  0  0  0  0
  9 34  2  0  0  0  0
 10 35  2  0  0  0  0
 11 39  2  0  0  0  0
 12 52  1  0  0  0  0
 12 56  1  0  0  0  0
 13 52  2  0  0  0  0
 45 14  1  1  0  0  0
 14 52  1  0  0  0  0
 15 16  1  0  0  0  0
 15 17  1  1  0  0  0
 15 19  1  0  0  0  0
 16 21  1  0  0  0  0
 16 26  1  0  0  0  0
 17 22  1  0  0  0  0
 17 24  1  0  0  0  0
 17 31  1  1  0  0  0
 18 19  1  0  0  0  0
 18 20  1  0  0  0  0
 18 28  1  0  0  0  0
 20 23  1  0  0  0  0
 20 32  1  0  0  0  0
 20 33  1  0  0  0  0
 21 27  1  1  0  0  0
 22 25  1  0  0  0  0
 23 25  1  0  0  0  0
 23 29  2  0  0  0  0
 24 27  1  0  0  0  0
 28 30  1  0  0  0  0
 29 30  1  0  0  0  0
 29 36  1  0  0  0  0
 34 41  1  0  0  0  0
 35 37  1  0  0  0  0
 37 42  2  0  0  0  0
 37 43  1  0  0  0  0
 39 44  1  0  0  0  0
 42 46  1  0  0  0  0
 43 47  2  0  0  0  0
 44 45  1  0  0  0  0
 45 49  1  0  0  0  0
 46 48  2  0  0  0  0
 47 48  1  0  0  0  0
 49 50  2  0  0  0  0
 49 51  1  0  0  0  0
 50 53  1  0  0  0  0
 51 54  2  0  0  0  0
 53 55  2  0  0  0  0
 54 55  1  0  0  0  0
 56 57  1  0  0  0  0
 56 58  1  0  0  0  0
 56 59  1  0  0  0  0
M  END
> <PUBCHEM_COMPOUND_ID_TYPE>
0

> <PUBCHEM_TOTAL_CHARGE>
0

> <PUBCHEM_SUBSTANCE_ID>
310942298

> <PUBCHEM_SUBSTANCE_VERSION>
1

> <PUBCHEM_EXT_DATASOURCE_NAME>
4488

> <PUBCHEM_EXT_DATASOURCE_REGID>
SCHEMBL16120334

> <PUBCHEM_SUBSTANCE_COMMENT>
InChI=1S/C45H57NO13/c1-25-30(56-33(48)21-29(27-17-13-11-14-18-27)46-40(51)59-41(3,4)5)23-45(52)38(57-39(50)28-19-15-12-16-20-28)36-43(8,37(49)35(54-10)34(25)42(45,6)7)31(53-9)22-32-44(36,24-55-32)58-26(2)47/h11-20,29-32,35-36,38,52H,21-24H2,1-10H3,(H,46,51)/t29-,30+,31+,32-,35-,36+,38+,43-,44+,45-/m1/s1
InChIKey=WHSSIQTUKKZMLR-AALGGJMDSA-N

> <PUBCHEM_SUBSTANCE_SYNONYM>
SCHEMBL16120334

> <PUBCHEM_XREF_EXT_ID>
SCHEMBL16120334

> <PUBCHEM_EXT_DATASOURCE_URL>
https://www.surechembl.org/

> <PUBCHEM_EXT_SUBSTANCE_URL>
https://www.surechembl.org/chemical/SCHEMBL16120334

> <PUBCHEM_CID_ASSOCIATIONS>
117608946  1

> <PUBCHEM_COORDINATE_TYPE>
1
3

> <PUBCHEM_BONDANNOTATIONS>
45  14  5
15  17  5
17  31  5
16  2  6
21  27  5
19  3  6
18  4  5
24  5  5
25  7  5
30  8  6

$$$$
