310949019
  -OEChem-07211613022D

 26 27  0     0  0  0  0  0  0999 V2000
    1.1766   -0.3604    0.0000 S   0  0  0  0  0  0  0  0  0  0  0  0
    2.5971   -1.1025    0.0000 O   0  0  0  0  0  0  0  0  0  0  0  0
    2.1095   -0.3604    0.0000 O   0  0  0  0  0  0  0  0  0  0  0  0
    0.0954   -0.3604    0.0000 O   0  0  0  0  0  0  0  0  0  0  0  0
    1.1979   -3.5406    0.0000 O   0  0  0  0  0  0  0  0  0  0  0  0
   -0.4134   -3.6254    0.0000 O   0  0  0  0  0  0  0  0  0  0  0  0
    1.1766    0.7844    0.0000 N   0  0  0  0  0  0  0  0  0  0  0  0
    1.1766    3.6254    0.0000 N   0  0  0  0  0  0  0  0  0  0  0  0
    1.1555   -1.1449    0.0000 C   0  0  0  0  0  0  0  0  0  0  0  0
    0.4983   -2.3745    0.0000 C   0  0  0  0  0  0  0  0  0  0  0  0
    1.9187   -1.5052    0.0000 C   0  0  0  0  0  0  0  0  0  0  0  0
    0.4983   -1.5689    0.0000 C   0  0  0  0  0  0  0  0  0  0  0  0
    1.2190   -2.7561    0.0000 C   0  0  0  0  0  0  0  0  0  0  0  0
   -0.4134   -2.7774    0.0000 C   0  0  0  0  0  0  0  0  0  0  0  0
    1.8975   -2.3534    0.0000 C   0  0  0  0  0  0  0  0  0  0  0  0
   -1.1555   -2.4169    0.0000 C   0  0  0  0  0  0  0  0  0  0  0  0
   -1.1766   -1.5901    0.0000 C   0  0  0  0  0  0  0  0  0  0  0  0
   -1.8127   -2.8198    0.0000 C   0  0  0  0  0  0  0  0  0  0  0  0
    1.5795    1.5052    0.0000 C   0  0  0  0  0  0  0  0  0  0  0  0
   -1.9187   -1.2296    0.0000 C   0  0  0  0  0  0  0  0  0  0  0  0
   -2.5335   -2.4593    0.0000 C   0  0  0  0  0  0  0  0  0  0  0  0
   -2.5759   -1.6325    0.0000 C   0  0  0  0  0  0  0  0  0  0  0  0
    3.3179   -1.5052    0.0000 C   0  0  0  0  0  0  0  0  0  0  0  0
    1.1979    2.1625    0.0000 C   0  0  0  0  0  0  0  0  0  0  0  0
   -3.3179   -1.2509    0.0000 C   0  0  0  0  0  0  0  0  0  0  0  0
    1.5795    2.9045    0.0000 C   0  0  0  0  0  0  0  0  0  0  0  0
  1  3  2  0  0  0  0
  1  4  2  0  0  0  0
  1  7  1  0  0  0  0
  1  9  1  0  0  0  0
  2 11  1  0  0  0  0
  2 23  1  0  0  0  0
  5 13  1  0  0  0  0
  6 14  2  0  0  0  0
  7 19  1  0  0  0  0
  8 26  1  0  0  0  0
  9 11  2  0  0  0  0
  9 12  1  0  0  0  0
 10 12  2  0  0  0  0
 10 13  1  0  0  0  0
 10 14  1  0  0  0  0
 11 15  1  0  0  0  0
 13 15  2  0  0  0  0
 14 16  1  0  0  0  0
 16 17  2  0  0  0  0
 16 18  1  0  0  0  0
 17 20  1  0  0  0  0
 18 21  2  0  0  0  0
 19 24  1  0  0  0  0
 20 22  2  0  0  0  0
 21 22  1  0  0  0  0
 22 25  1  0  0  0  0
 24 26  1  0  0  0  0
M  END
> <PUBCHEM_COMPOUND_ID_TYPE>
0

> <PUBCHEM_TOTAL_CHARGE>
0

> <PUBCHEM_SUBSTANCE_ID>
310949019

> <PUBCHEM_SUBSTANCE_VERSION>
1

> <PUBCHEM_EXT_DATASOURCE_NAME>
4488

> <PUBCHEM_EXT_DATASOURCE_REGID>
SCHEMBL16127209

> <PUBCHEM_SUBSTANCE_COMMENT>
InChI=1S/C18H22N2O5S/c1-12-4-6-13(7-5-12)18(22)14-10-17(16(25-2)11-15(14)21)26(23,24)20-9-3-8-19/h4-7,10-11,20-21H,3,8-9,19H2,1-2H3
InChIKey=XLRFMBSVDRLWFO-UHFFFAOYSA-N

> <PUBCHEM_SUBSTANCE_SYNONYM>
SCHEMBL16127209

> <PUBCHEM_XREF_EXT_ID>
SCHEMBL16127209

> <PUBCHEM_EXT_DATASOURCE_URL>
https://www.surechembl.org/

> <PUBCHEM_EXT_SUBSTANCE_URL>
https://www.surechembl.org/chemical/SCHEMBL16127209

> <PUBCHEM_CID_ASSOCIATIONS>
86273297  1

> <PUBCHEM_COORDINATE_TYPE>
1
3

$$$$
