310936136
  -OEChem-07211613022D

 45 51  0     1  0  0  0  0  0999 V2000
    3.1625   -5.9125    0.0000 S   0  0  0  0  0  0  0  0  0  0  0  0
    0.0000   -9.1666    0.0000 F   0  0  0  0  0  0  0  0  0  0  0  0
    5.6375   -1.1458    0.0000 O   0  0  0  0  0  0  0  0  0  0  0  0
    7.7458   -4.7667    0.0000 O   0  0  0  0  0  0  0  0  0  0  0  0
    6.3250   -3.1625    0.0000 O   0  0  0  0  0  0  0  0  0  0  0  0
    7.0583   -1.9250    0.0000 O   0  0  0  0  0  0  0  0  0  0  0  0
    3.4833   -3.1625    0.0000 N   0  0  0  0  0  0  0  0  0  0  0  0
    2.8875   -3.7125    0.0000 N   0  0  0  0  0  0  0  0  0  0  0  0
    4.9042   -4.8583    0.0000 N   0  0  0  0  0  0  0  0  0  0  0  0
    2.0167   -5.2250    0.0000 N   0  0  0  0  0  0  0  0  0  0  0  0
    4.9042   -3.1625    0.0000 C   0  0  0  0  0  0  0  0  0  0  0  0
    4.2166   -3.5750    0.0000 C   0  0  0  0  0  0  0  0  0  0  0  0
    5.6375   -3.5750    0.0000 C   0  0  0  0  0  0  0  0  0  0  0  0
    4.9042   -2.3375    0.0000 C   0  0  0  0  0  0  0  0  0  0  0  0
    5.6375   -4.4000    0.0000 C   0  0  0  0  0  0  0  0  0  0  0  0
    6.3708   -4.8125    0.0000 C   0  0  0  0  0  0  0  0  0  0  0  0
    4.2166   -1.9250    0.0000 C   0  0  0  0  0  0  0  0  0  0  0  0
    3.2542   -4.4458    0.0000 C   0  0  0  0  0  0  0  0  0  0  0  0
    4.0333   -4.4000    0.0000 C   0  0  0  0  0  0  0  0  0  0  0  0
    5.6375   -1.9250    0.0000 C   0  0  3  0  0  0  0  0  0  0  0  0
    3.5292   -2.3375    0.0000 C   0  0  0  0  0  0  0  0  0  0  0  0
    7.0583   -4.4000    0.0000 C   0  0  0  0  0  0  0  0  0  0  0  0
    6.4625   -3.3458    0.0000 C   0  0  0  0  0  0  0  0  0  0  0  0
    6.3708   -5.6375    0.0000 C   0  0  0  0  0  0  0  0  0  0  0  0
    2.8417   -5.1792    0.0000 C   0  0  0  0  0  0  0  0  0  0  0  0
    7.0583   -3.5750    0.0000 C   0  0  0  0  0  0  0  0  0  0  0  0
    6.3250   -2.3375    0.0000 C   0  0  0  0  0  0  0  0  0  0  0  0
    5.6833   -6.0500    0.0000 C   0  0  0  0  0  0  0  0  0  0  0  0
    7.0583   -6.0042    0.0000 C   0  0  0  0  0  0  0  0  0  0  0  0
    4.9500   -5.6375    0.0000 C   0  0  0  0  0  0  0  0  0  0  0  0
    4.2166   -1.1458    0.0000 C   0  0  0  0  0  0  0  0  0  0  0  0
    4.9042   -0.6875    0.0000 C   0  0  0  0  0  0  0  0  0  0  0  0
    7.7458   -5.5917    0.0000 C   0  0  0  0  0  0  0  0  0  0  0  0
    2.5666   -6.4625    0.0000 C   0  0  0  0  0  0  0  0  0  0  0  0
    1.8792   -6.0500    0.0000 C   0  0  0  0  0  0  0  0  0  0  0  0
    2.6583   -7.2417    0.0000 C   0  0  0  0  0  0  0  0  0  0  0  0
    4.2166   -0.2750    0.0000 C   0  0  0  0  0  0  0  0  0  0  0  0
    5.3625    0.0000    0.0000 C   0  0  0  0  0  0  0  0  0  0  0  0
    4.4917   -1.4208    0.0000 C   0  0  0  0  0  0  0  0  0  0  0  0
    1.9708   -7.7458    0.0000 C   0  0  0  0  0  0  0  0  0  0  0  0
    1.2375   -7.3791    0.0000 C   0  0  0  0  0  0  0  0  0  0  0  0
    2.0625   -8.5708    0.0000 C   0  0  0  0  0  0  0  0  0  0  0  0
    0.5958   -7.8833    0.0000 C   0  0  0  0  0  0  0  0  0  0  0  0
    1.4208   -9.0291    0.0000 C   0  0  0  0  0  0  0  0  0  0  0  0
    0.6417   -8.7083    0.0000 C   0  0  0  0  0  0  0  0  0  0  0  0
  1 25  1  0  0  0  0
  1 34  1  0  0  0  0
  2 45  1  0  0  0  0
 20  3  1  6  0  0  0
  3 32  1  0  0  0  0
  4 22  1  0  0  0  0
  4 33  1  0  0  0  0
  5 27  2  0  0  0  0
  6 27  1  0  0  0  0
  7  8  1  0  0  0  0
  7 12  1  0  0  0  0
  7 21  1  0  0  0  0
  8 18  2  0  0  0  0
  9 15  2  0  0  0  0
  9 30  1  0  0  0  0
 10 25  2  0  0  0  0
 10 35  1  0  0  0  0
 11 12  1  0  0  0  0
 11 13  1  0  0  0  0
 11 14  2  0  0  0  0
 12 19  2  0  0  0  0
 13 15  1  0  0  0  0
 13 23  2  0  0  0  0
 14 17  1  0  0  0  0
 14 20  1  0  0  0  0
 15 16  1  0  0  0  0
 16 22  1  0  0  0  0
 16 24  2  0  0  0  0
 17 21  2  0  0  0  0
 17 31  1  0  0  0  0
 18 19  1  0  0  0  0
 18 25  1  0  0  0  0
 20 27  1  0  0  0  0
 22 26  2  0  0  0  0
 23 26  1  0  0  0  0
 24 28  1  0  0  0  0
 24 29  1  0  0  0  0
 28 30  2  0  0  0  0
 29 33  1  0  0  0  0
 32 37  1  0  0  0  0
 32 38  1  0  0  0  0
 32 39  1  0  0  0  0
 34 35  2  0  0  0  0
 34 36  1  0  0  0  0
 36 40  1  0  0  0  0
 40 41  2  0  0  0  0
 40 42  1  0  0  0  0
 41 43  1  0  0  0  0
 42 44  2  0  0  0  0
 43 45  2  0  0  0  0
 44 45  1  0  0  0  0
M  END
> <PUBCHEM_COMPOUND_ID_TYPE>
0

> <PUBCHEM_TOTAL_CHARGE>
0

> <PUBCHEM_SUBSTANCE_ID>
310936136

> <PUBCHEM_SUBSTANCE_VERSION>
1

> <PUBCHEM_EXT_DATASOURCE_NAME>
4488

> <PUBCHEM_EXT_DATASOURCE_REGID>
SCHEMBL16113746

> <PUBCHEM_SUBSTANCE_COMMENT>
InChI=1S/C35H31FN4O4S/c1-19-18-40-26(16-25(39-40)33-38-17-23(45-33)15-20-5-7-22(36)8-6-20)30(28(19)32(34(41)42)44-35(2,3)4)24-9-10-27-29-21(12-14-43-27)11-13-37-31(24)29/h5-11,13,16-18,32H,12,14-15H2,1-4H3,(H,41,42)/t32-/m0/s1
InChIKey=SRRAXFGSMNTMDJ-YTTGMZPUSA-N

> <PUBCHEM_SUBSTANCE_SYNONYM>
SCHEMBL16113746

> <PUBCHEM_XREF_EXT_ID>
SCHEMBL16113746

> <PUBCHEM_EXT_DATASOURCE_URL>
https://www.surechembl.org/

> <PUBCHEM_EXT_SUBSTANCE_URL>
https://www.surechembl.org/chemical/SCHEMBL16113746

> <PUBCHEM_CID_ASSOCIATIONS>
86301995  1

> <PUBCHEM_COORDINATE_TYPE>
1
3

> <PUBCHEM_BONDANNOTATIONS>
20  3  6

$$$$
