310929143
  -OEChem-07211613022D

 58 63  0     0  0  0  0  0  0999 V2000
    1.4558   -0.7279    0.0000 S   0  0  0  0  0  0  0  0  0  0  0  0
   14.5584   -2.3293    0.0000 S   0  0  0  0  0  0  0  0  0  0  0  0
    3.7852   -2.1352    0.0000 O   0  0  0  0  0  0  0  0  0  0  0  0
    6.5028   -1.9411    0.0000 O   0  0  0  0  0  0  0  0  0  0  0  0
    2.9117   -4.9013    0.0000 O   0  0  0  0  0  0  0  0  0  0  0  0
    0.9706   -1.5044    0.0000 O   0  0  0  0  0  0  0  0  0  0  0  0
    1.8440    0.0000    0.0000 O   0  0  0  0  0  0  0  0  0  0  0  0
    9.4630   -6.9395    0.0000 O   0  0  0  0  0  0  0  0  0  0  0  0
   10.9188   -3.5911    0.0000 O   0  0  0  0  0  0  0  0  0  0  0  0
    3.5911   -3.6396    0.0000 N   0  0  0  0  0  0  0  0  0  0  0  0
    2.1838   -1.1162    0.0000 N   0  0  0  0  0  0  0  0  0  0  0  0
    4.3190   -4.9013    0.0000 N   0  0  0  0  0  0  0  0  0  0  0  0
    7.9586   -4.4160    0.0000 N   0  0  0  0  0  0  0  0  0  0  0  0
    8.7350   -3.1543    0.0000 N   0  0  0  0  0  0  0  0  0  0  0  0
   11.6467   -4.8528    0.0000 N   0  0  0  0  0  0  0  0  0  0  0  0
   13.0541   -3.1543    0.0000 N   0  0  0  0  0  0  0  0  0  0  0  0
    2.8632   -3.2029    0.0000 C   0  0  0  0  0  0  0  0  0  0  0  0
    4.3190   -3.2029    0.0000 C   0  0  0  0  0  0  0  0  0  0  0  0
    4.3190   -2.4264    0.0000 C   0  0  0  0  0  0  0  0  0  0  0  0
    2.8632   -2.3779    0.0000 C   0  0  0  0  0  0  0  0  0  0  0  0
    5.0469   -1.9897    0.0000 C   0  0  0  0  0  0  0  0  0  0  0  0
    2.1352   -1.9897    0.0000 C   0  0  0  0  0  0  0  0  0  0  0  0
    1.4558   -3.2514    0.0000 C   0  0  0  0  0  0  0  0  0  0  0  0
    2.1352   -3.6396    0.0000 C   0  0  0  0  0  0  0  0  0  0  0  0
    5.7748   -2.3779    0.0000 C   0  0  0  0  0  0  0  0  0  0  0  0
    3.5911   -4.4646    0.0000 C   0  0  0  0  0  0  0  0  0  0  0  0
    5.0469   -3.6396    0.0000 C   0  0  0  0  0  0  0  0  0  0  0  0
    1.4558   -2.3779    0.0000 C   0  0  0  0  0  0  0  0  0  0  0  0
    0.6794   -3.6396    0.0000 C   0  0  0  0  0  0  0  0  0  0  0  0
    5.7748   -3.2029    0.0000 C   0  0  0  0  0  0  0  0  0  0  0  0
    3.5911   -1.9897    0.0000 C   0  0  0  0  0  0  0  0  0  0  0  0
    5.0469   -1.1647    0.0000 C   0  0  0  0  0  0  0  0  0  0  0  0
    3.5911   -1.1647    0.0000 C   0  0  0  0  0  0  0  0  0  0  0  0
    4.3190   -0.7279    0.0000 C   0  0  0  0  0  0  0  0  0  0  0  0
    7.2307   -2.3779    0.0000 C   0  0  0  0  0  0  0  0  0  0  0  0
    0.2912   -2.9117    0.0000 C   0  0  0  0  0  0  0  0  0  0  0  0
    0.0000   -4.0764    0.0000 C   0  0  0  0  0  0  0  0  0  0  0  0
    1.1162   -4.3675    0.0000 C   0  0  0  0  0  0  0  0  0  0  0  0
    7.2307   -3.2029    0.0000 C   0  0  0  0  0  0  0  0  0  0  0  0
    3.7367   -1.3103    0.0000 C   0  0  0  0  0  0  0  0  0  0  0  0
    7.9586   -3.5911    0.0000 C   0  0  0  0  0  0  0  0  0  0  0  0
    7.9586   -1.9411    0.0000 C   0  0  0  0  0  0  0  0  0  0  0  0
    0.7279   -0.2912    0.0000 C   0  0  0  0  0  0  0  0  0  0  0  0
    8.7350   -4.8528    0.0000 C   0  0  0  0  0  0  0  0  0  0  0  0
    8.6865   -2.3293    0.0000 C   0  0  0  0  0  0  0  0  0  0  0  0
   10.1424   -4.8528    0.0000 C   0  0  0  0  0  0  0  0  0  0  0  0
    9.4630   -4.4160    0.0000 C   0  0  0  0  0  0  0  0  0  0  0  0
    8.7350   -5.6778    0.0000 C   0  0  0  0  0  0  0  0  0  0  0  0
    9.4630   -6.1145    0.0000 C   0  0  0  0  0  0  0  0  0  0  0  0
   10.1424   -5.6778    0.0000 C   0  0  0  0  0  0  0  0  0  0  0  0
   10.9188   -4.4160    0.0000 C   0  0  0  0  0  0  0  0  0  0  0  0
   12.3261   -4.4160    0.0000 C   0  0  0  0  0  0  0  0  0  0  0  0
   10.1909   -7.3763    0.0000 C   0  0  0  0  0  0  0  0  0  0  0  0
   12.3261   -3.5911    0.0000 C   0  0  0  0  0  0  0  0  0  0  0  0
   13.0541   -2.3293    0.0000 C   0  0  0  0  0  0  0  0  0  0  0  0
   13.7820   -3.5911    0.0000 C   0  0  0  0  0  0  0  0  0  0  0  0
   13.8305   -1.9411    0.0000 C   0  0  0  0  0  0  0  0  0  0  0  0
   14.5099   -3.2029    0.0000 C   0  0  0  0  0  0  0  0  0  0  0  0
  1  6  2  0  0  0  0
  1  7  2  0  0  0  0
  1 11  1  0  0  0  0
  1 43  1  0  0  0  0
  2 57  1  0  0  0  0
  2 58  1  0  0  0  0
  3 20  1  0  0  0  0
  3 40  1  0  0  0  0
  4 25  1  0  0  0  0
  4 35  1  0  0  0  0
  5 26  2  0  0  0  0
  8 49  1  0  0  0  0
  8 53  1  0  0  0  0
  9 51  2  0  0  0  0
 10 17  1  0  0  0  0
 10 18  1  0  0  0  0
 10 26  1  0  0  0  0
 11 22  1  0  0  0  0
 12 26  1  0  0  0  0
 13 41  1  0  0  0  0
 13 44  1  0  0  0  0
 14 41  2  0  0  0  0
 14 45  1  0  0  0  0
 15 51  1  0  0  0  0
 15 52  1  0  0  0  0
 16 54  1  0  0  0  0
 16 55  1  0  0  0  0
 16 56  1  0  0  0  0
 17 20  1  0  0  0  0
 17 24  2  0  0  0  0
 18 19  1  0  0  0  0
 18 27  2  0  0  0  0
 19 21  2  0  0  0  0
 19 31  1  0  0  0  0
 20 22  2  0  0  0  0
 21 25  1  0  0  0  0
 21 32  1  0  0  0  0
 22 28  1  0  0  0  0
 23 24  1  0  0  0  0
 23 28  2  0  0  0  0
 23 29  1  0  0  0  0
 25 30  2  0  0  0  0
 27 30  1  0  0  0  0
 29 36  1  0  0  0  0
 29 37  1  0  0  0  0
 29 38  1  0  0  0  0
 31 33  2  0  0  0  0
 32 34  2  0  0  0  0
 33 34  1  0  0  0  0
 35 39  2  0  0  0  0
 35 42  1  0  0  0  0
 39 41  1  0  0  0  0
 42 45  2  0  0  0  0
 44 47  1  0  0  0  0
 44 48  2  0  0  0  0
 46 47  2  0  0  0  0
 46 50  1  0  0  0  0
 46 51  1  0  0  0  0
 48 49  1  0  0  0  0
 49 50  2  0  0  0  0
 52 54  1  0  0  0  0
 55 57  1  0  0  0  0
 56 58  1  0  0  0  0
M  END
> <PUBCHEM_COMPOUND_ID_TYPE>
0

> <PUBCHEM_TOTAL_CHARGE>
0

> <PUBCHEM_SUBSTANCE_ID>
310929143

> <PUBCHEM_SUBSTANCE_VERSION>
1

> <PUBCHEM_EXT_DATASOURCE_NAME>
4488

> <PUBCHEM_EXT_DATASOURCE_REGID>
SCHEMBL16106306

> <PUBCHEM_SUBSTANCE_COMMENT>
InChI=1S/C42H49N7O7S2/c1-42(2,3)28-23-34(47-58(6,52)53)39(55-5)36(24-28)49(41(43)51)35-11-12-37(33-10-8-7-9-32(33)35)56-30-13-14-44-38(26-30)46-29-21-27(22-31(25-29)54-4)40(50)45-15-16-48-17-19-57-20-18-48/h7-14,21-26,47H,15-20H2,1-6H3,(H2,43,51)(H,44,46)(H,45,50)
InChIKey=MEMGOECIZRRWDG-UHFFFAOYSA-N

> <PUBCHEM_SUBSTANCE_SYNONYM>
SCHEMBL16106306

> <PUBCHEM_XREF_EXT_ID>
SCHEMBL16106306

> <PUBCHEM_EXT_DATASOURCE_URL>
https://www.surechembl.org/

> <PUBCHEM_EXT_SUBSTANCE_URL>
https://www.surechembl.org/chemical/SCHEMBL16106306

> <PUBCHEM_CID_ASSOCIATIONS>
86273786  1

> <PUBCHEM_COORDINATE_TYPE>
1
3

$$$$
