310945105
  -OEChem-07211613022D

 31 35  0     0  0  0  0  0  0999 V2000
    4.2666   -0.1533    0.0000 O   0  0  0  0  0  0  0  0  0  0  0  0
   -3.5276   -1.7987    0.0000 O   0  0  0  0  0  0  0  0  0  0  0  0
   -4.2387    1.1294    0.0000 O   0  0  0  0  0  0  0  0  0  0  0  0
    1.7010   -1.3525    0.0000 N   0  0  0  0  0  0  0  0  0  0  0  0
   -0.6414    0.7251    0.0000 N   0  0  0  0  0  0  0  0  0  0  0  0
   -2.0775   -1.7847    0.0000 N   0  0  0  0  0  0  0  0  0  0  0  0
   -3.5276   -0.1116    0.0000 N   0  0  0  0  0  0  0  0  0  0  0  0
    1.5337   -0.5298    0.0000 C   0  0  0  0  0  0  0  0  0  0  0  0
    2.2309   -0.1116    0.0000 C   0  0  0  0  0  0  0  0  0  0  0  0
    2.8723   -0.6832    0.0000 C   0  0  0  0  0  0  0  0  0  0  0  0
    2.5516   -1.4361    0.0000 C   0  0  0  0  0  0  0  0  0  0  0  0
    0.7947   -0.1116    0.0000 C   0  0  0  0  0  0  0  0  0  0  0  0
    0.8087    0.7111    0.0000 C   0  0  0  0  0  0  0  0  0  0  0  0
    3.6810   -0.7947    0.0000 C   0  0  0  0  0  0  0  0  0  0  0  0
    2.2449    0.7111    0.0000 C   0  0  0  0  0  0  0  0  0  0  0  0
    3.1651   -1.9799    0.0000 C   0  0  0  0  0  0  0  0  0  0  0  0
    0.0976   -0.5298    0.0000 C   0  0  0  0  0  0  0  0  0  0  0  0
    1.5337    1.1154    0.0000 C   0  0  0  0  0  0  0  0  0  0  0  0
   -0.6414   -0.1116    0.0000 C   0  0  0  0  0  0  0  0  0  0  0  0
    3.8622   -1.5756    0.0000 C   0  0  0  0  0  0  0  0  0  0  0  0
    0.0697    1.1294    0.0000 C   0  0  0  0  0  0  0  0  0  0  0  0
   -1.3525   -0.5298    0.0000 C   0  0  0  0  0  0  0  0  0  0  0  0
    1.1294   -1.9660    0.0000 C   0  0  0  0  0  0  0  0  0  0  0  0
   -2.0915   -0.1255    0.0000 C   0  0  0  0  0  0  0  0  0  0  0  0
   -2.8026   -0.5298    0.0000 C   0  0  0  0  0  0  0  0  0  0  0  0
   -1.3664   -1.3664    0.0000 C   0  0  0  0  0  0  0  0  0  0  0  0
   -2.8165   -1.3664    0.0000 C   0  0  0  0  0  0  0  0  0  0  0  0
   -3.5136    0.7111    0.0000 C   0  0  0  0  0  0  0  0  0  0  0  0
   -2.8165    1.1294    0.0000 C   0  0  0  0  0  0  0  0  0  0  0  0
   -4.2666   -1.3803    0.0000 C   0  0  0  0  0  0  0  0  0  0  0  0
   -2.8862    1.9799    0.0000 C   0  0  0  0  0  0  0  0  0  0  0  0
  1 14  2  0  0  0  0
  2 27  1  0  0  0  0
  2 30  1  0  0  0  0
  3 28  2  0  0  0  0
  4  8  1  0  0  0  0
  4 11  1  0  0  0  0
  4 23  1  0  0  0  0
  5 19  2  0  0  0  0
  5 21  1  0  0  0  0
  6 26  2  0  0  0  0
  6 27  1  0  0  0  0
  7 25  1  0  0  0  0
  7 28  1  0  0  0  0
  8  9  2  0  0  0  0
  8 12  1  0  0  0  0
  9 10  1  0  0  0  0
  9 15  1  0  0  0  0
 10 11  2  0  0  0  0
 10 14  1  0  0  0  0
 11 16  1  0  0  0  0
 12 13  1  0  0  0  0
 12 17  2  0  0  0  0
 13 18  1  0  0  0  0
 13 21  2  0  0  0  0
 14 20  1  0  0  0  0
 15 18  2  0  0  0  0
 16 20  1  0  0  0  0
 17 19  1  0  0  0  0
 19 22  1  0  0  0  0
 22 24  2  0  0  0  0
 22 26  1  0  0  0  0
 24 25  1  0  0  0  0
 25 27  2  0  0  0  0
 28 29  1  0  0  0  0
 29 31  2  0  0  0  0
M  END
> <PUBCHEM_COMPOUND_ID_TYPE>
0

> <PUBCHEM_TOTAL_CHARGE>
0

> <PUBCHEM_SUBSTANCE_ID>
310945105

> <PUBCHEM_SUBSTANCE_VERSION>
1

> <PUBCHEM_EXT_DATASOURCE_NAME>
4488

> <PUBCHEM_EXT_DATASOURCE_REGID>
SCHEMBL16123195

> <PUBCHEM_SUBSTANCE_COMMENT>
InChI=1S/C24H20N4O3/c1-4-21(30)27-18-9-14(12-26-24(18)31-3)17-10-16-13(11-25-17)5-6-15-22-19(7-8-20(22)29)28(2)23(15)16/h4-6,9-12H,1,7-8H2,2-3H3,(H,27,30)
InChIKey=FEWAFKJGDZPORE-UHFFFAOYSA-N

> <PUBCHEM_SUBSTANCE_SYNONYM>
SCHEMBL16123195

> <PUBCHEM_XREF_EXT_ID>
SCHEMBL16123195

> <PUBCHEM_EXT_DATASOURCE_URL>
https://www.surechembl.org/

> <PUBCHEM_EXT_SUBSTANCE_URL>
https://www.surechembl.org/chemical/SCHEMBL16123195

> <PUBCHEM_CID_ASSOCIATIONS>
117611201  1

> <PUBCHEM_COORDINATE_TYPE>
1
3

$$$$
