310947955
  -OEChem-07211613022D

 12 11  0     1  0  0  0  0  0999 V2000
   -1.0235   -2.0915    0.0000 O   0  0  0  0  0  0  0  0  0  0  0  0
   -2.4524   -2.9165    0.0000 O   0  0  0  0  0  0  0  0  0  0  0  0
   -3.1669   -0.8540    0.0000 O   0  0  0  0  0  0  0  0  0  0  0  0
   -1.7380   -0.8540    0.0000 O   0  0  0  0  0  0  0  0  0  0  0  0
   -2.4524   -2.0915    0.0000 C   0  0  3  0  0  0  0  0  0  0  0  0
   -3.1669   -1.6790    0.0000 C   0  0  3  0  0  0  0  0  0  0  0  0
   -1.7380   -1.6790    0.0000 C   0  0  0  0  0  0  0  0  0  0  0  0
   -3.8814   -2.0915    0.0000 C   0  0  0  0  0  0  0  0  0  0  0  0
   -0.3090   -1.6790    0.0000 C   0  0  0  0  0  0  0  0  0  0  0  0
   -4.2939   -1.3770    0.0000 C   0  0  0  0  0  0  0  0  0  0  0  0
   -3.4689   -2.8060    0.0000 C   0  0  0  0  0  0  0  0  0  0  0  0
    0.4054   -2.0915    0.0000 C   0  0  0  0  0  0  0  0  0  0  0  0
  1  7  1  0  0  0  0
  1  9  1  0  0  0  0
  5  2  1  1  0  0  0
  6  3  1  6  0  0  0
  4  7  2  0  0  0  0
  5  6  1  0  0  0  0
  5  7  1  0  0  0  0
  6  8  1  0  0  0  0
  8 10  1  0  0  0  0
  8 11  1  0  0  0  0
  9 12  1  0  0  0  0
M  END
> <PUBCHEM_COMPOUND_ID_TYPE>
0

> <PUBCHEM_TOTAL_CHARGE>
0

> <PUBCHEM_SUBSTANCE_ID>
310947955

> <PUBCHEM_SUBSTANCE_VERSION>
1

> <PUBCHEM_EXT_DATASOURCE_NAME>
4488

> <PUBCHEM_EXT_DATASOURCE_REGID>
SCHEMBL16126129

> <PUBCHEM_SUBSTANCE_COMMENT>
InChI=1S/C8H16O4/c1-4-12-8(11)7(10)6(9)5(2)3/h5-7,9-10H,4H2,1-3H3/t6-,7-/m0/s1
InChIKey=MNGABTAXGMCARC-BQBZGAKWSA-N

> <PUBCHEM_SUBSTANCE_SYNONYM>
SCHEMBL16126129

> <PUBCHEM_XREF_EXT_ID>
SCHEMBL16126129

> <PUBCHEM_EXT_DATASOURCE_URL>
https://www.surechembl.org/

> <PUBCHEM_EXT_SUBSTANCE_URL>
https://www.surechembl.org/chemical/SCHEMBL16126129

> <PUBCHEM_CID_ASSOCIATIONS>
13809107  1

> <PUBCHEM_COORDINATE_TYPE>
1
3

> <PUBCHEM_BONDANNOTATIONS>
5  2  5
6  3  6
8  10  3
8  11  3

$$$$
