310945523
  -OEChem-07211613022D

 25 28  0     0  0  0  0  0  0999 V2000
    2.5792    3.0189    0.0000 F   0  0  0  0  0  0  0  0  0  0  0  0
   -2.5792    1.4509    0.0000 O   0  0  0  0  0  0  0  0  0  0  0  0
   -2.5792   -2.6379    0.0000 O   0  0  0  0  0  0  0  0  0  0  0  0
    0.2491    0.7035    0.0000 N   0  0  0  0  0  0  0  0  0  0  0  0
    2.2715    1.6267    0.0000 N   0  0  0  0  0  0  0  0  0  0  0  0
   -1.1577   -1.8026    0.0000 N   0  0  0  0  0  0  0  0  0  0  0  0
    0.9086    1.2163    0.0000 C   0  0  0  0  0  0  0  0  0  0  0  0
    0.6595    1.9784    0.0000 C   0  0  0  0  0  0  0  0  0  0  0  0
   -0.1612    1.9931    0.0000 C   0  0  0  0  0  0  0  0  0  0  0  0
   -0.4250    1.2017    0.0000 C   0  0  0  0  0  0  0  0  0  0  0  0
    1.7293    1.0259    0.0000 C   0  0  0  0  0  0  0  0  0  0  0  0
    1.2163    2.5939    0.0000 C   0  0  0  0  0  0  0  0  0  0  0  0
   -1.2163    1.0259    0.0000 C   0  0  0  0  0  0  0  0  0  0  0  0
   -0.7181    2.5792    0.0000 C   0  0  0  0  0  0  0  0  0  0  0  0
    2.0224    2.4181    0.0000 C   0  0  0  0  0  0  0  0  0  0  0  0
    0.2345   -0.1612    0.0000 C   0  0  0  0  0  0  0  0  0  0  0  0
   -1.7879    1.6413    0.0000 C   0  0  0  0  0  0  0  0  0  0  0  0
   -1.5094    2.4181    0.0000 C   0  0  0  0  0  0  0  0  0  0  0  0
    2.0370    0.1465    0.0000 C   0  0  0  0  0  0  0  0  0  0  0  0
   -0.4250   -0.5422    0.0000 C   0  0  0  0  0  0  0  0  0  0  0  0
   -0.4396   -1.3776    0.0000 C   0  0  0  0  0  0  0  0  0  0  0  0
   -1.1577   -2.6232    0.0000 C   0  0  0  0  0  0  0  0  0  0  0  0
   -1.8611   -1.3776    0.0000 C   0  0  0  0  0  0  0  0  0  0  0  0
   -1.8465   -3.0189    0.0000 C   0  0  0  0  0  0  0  0  0  0  0  0
   -2.5646   -1.7879    0.0000 C   0  0  0  0  0  0  0  0  0  0  0  0
  1 15  1  0  0  0  0
  2 17  1  0  0  0  0
  3 24  1  0  0  0  0
  3 25  1  0  0  0  0
  4  7  1  0  0  0  0
  4 10  1  0  0  0  0
  4 16  1  0  0  0  0
  5 11  2  0  0  0  0
  5 15  1  0  0  0  0
  6 21  1  0  0  0  0
  6 22  1  0  0  0  0
  6 23  1  0  0  0  0
  7  8  2  0  0  0  0
  7 11  1  0  0  0  0
  8  9  1  0  0  0  0
  8 12  1  0  0  0  0
  9 10  2  0  0  0  0
  9 14  1  0  0  0  0
 10 13  1  0  0  0  0
 11 19  1  0  0  0  0
 12 15  2  0  0  0  0
 13 17  2  0  0  0  0
 14 18  2  0  0  0  0
 16 20  1  0  0  0  0
 17 18  1  0  0  0  0
 20 21  1  0  0  0  0
 22 24  1  0  0  0  0
 23 25  1  0  0  0  0
M  END
> <PUBCHEM_COMPOUND_ID_TYPE>
0

> <PUBCHEM_TOTAL_CHARGE>
0

> <PUBCHEM_SUBSTANCE_ID>
310945523

> <PUBCHEM_SUBSTANCE_VERSION>
1

> <PUBCHEM_EXT_DATASOURCE_NAME>
4488

> <PUBCHEM_EXT_DATASOURCE_REGID>
SCHEMBL16123621

> <PUBCHEM_SUBSTANCE_COMMENT>
InChI=1S/C19H22FN3O2/c1-13-19-16(12-18(20)21-13)15-4-3-14(24)11-17(15)23(19)6-2-5-22-7-9-25-10-8-22/h3-4,11-12,24H,2,5-10H2,1H3
InChIKey=BKSQVSOWIGXMSE-UHFFFAOYSA-N

> <PUBCHEM_SUBSTANCE_SYNONYM>
SCHEMBL16123621

> <PUBCHEM_XREF_EXT_ID>
SCHEMBL16123621

> <PUBCHEM_EXT_DATASOURCE_URL>
https://www.surechembl.org/

> <PUBCHEM_EXT_SUBSTANCE_URL>
https://www.surechembl.org/chemical/SCHEMBL16123621

> <PUBCHEM_CID_ASSOCIATIONS>
117611564  1

> <PUBCHEM_COORDINATE_TYPE>
1
3

$$$$
