310933537
  -OEChem-07211613022D

 31 33  0     1  0  0  0  0  0999 V2000
    1.7798    1.0799    0.0000 S   0  0  0  0  0  0  0  0  0  0  0  0
    3.2789   -1.2375    0.0000 F   0  0  0  0  0  0  0  0  0  0  0  0
    5.8348    0.9355    0.0000 F   0  0  0  0  0  0  0  0  0  0  0  0
    5.0098    2.3645    0.0000 F   0  0  0  0  0  0  0  0  0  0  0  0
    6.1368    2.0625    0.0000 F   0  0  0  0  0  0  0  0  0  0  0  0
    3.2789    1.2375    0.0000 O   0  0  0  0  0  0  0  0  0  0  0  0
    4.7079   -0.4125    0.0000 O   0  0  0  0  0  0  0  0  0  0  0  0
    5.1204    0.5230    0.0000 O   0  0  0  0  0  0  0  0  0  0  0  0
   -0.7676   -0.3020    0.0000 O   0  0  0  0  0  0  0  0  0  0  0  0
    0.4699   -1.0164    0.0000 O   0  0  0  0  0  0  0  0  0  0  0  0
    1.7798   -0.2549    0.0000 N   0  0  0  0  0  0  0  0  0  0  0  0
    0.4699    0.4125    0.0000 N   0  0  0  0  0  0  0  0  0  0  0  0
    3.9934    0.8250    0.0000 C   0  0  3  0  0  0  0  0  0  0  0  0
    4.7079    1.2375    0.0000 C   0  0  3  0  0  0  0  0  0  0  0  0
    2.5645    0.0000    0.0000 C   0  0  3  0  0  0  0  0  0  0  0  0
    3.9934    0.0000    0.0000 C   0  0  3  0  0  0  0  0  0  0  0  0
    2.5645    0.8250    0.0000 C   0  0  3  0  0  0  0  0  0  0  0  0
    3.2789   -0.4125    0.0000 C   0  0  3  0  0  0  0  0  0  0  0  0
    5.4223    1.6500    0.0000 C   0  0  0  0  0  0  0  0  0  0  0  0
    1.2949    0.4125    0.0000 C   0  0  0  0  0  0  0  0  0  0  0  0
    4.2954    1.9520    0.0000 C   0  0  0  0  0  0  0  0  0  0  0  0
    0.0574   -0.3020    0.0000 C   0  0  0  0  0  0  0  0  0  0  0  0
    5.4223   -0.0000    0.0000 C   0  0  0  0  0  0  0  0  0  0  0  0
    0.0574    1.1270    0.0000 C   0  0  0  0  0  0  0  0  0  0  0  0
    6.1368   -0.4125    0.0000 C   0  0  0  0  0  0  0  0  0  0  0  0
    6.8513   -0.0000    0.0000 C   0  0  0  0  0  0  0  0  0  0  0  0
    6.1368   -1.2375    0.0000 C   0  0  0  0  0  0  0  0  0  0  0  0
   -0.7676    1.1270    0.0000 C   0  0  0  0  0  0  0  0  0  0  0  0
    7.5658   -0.4125    0.0000 C   0  0  0  0  0  0  0  0  0  0  0  0
    6.8513   -1.6500    0.0000 C   0  0  0  0  0  0  0  0  0  0  0  0
    7.5658   -1.2375    0.0000 C   0  0  0  0  0  0  0  0  0  0  0  0
 17  1  1  1  0  0  0
  1 20  1  0  0  0  0
 18  2  1  6  0  0  0
  3 19  1  0  0  0  0
  4 19  1  0  0  0  0
  5 19  1  0  0  0  0
  6 13  1  0  0  0  0
  6 17  1  0  0  0  0
 16  7  1  1  0  0  0
  7 23  1  0  0  0  0
  8 14  1  0  0  0  0
  9 22  2  0  0  0  0
 10 22  1  0  0  0  0
 15 11  1  1  0  0  0
 11 20  2  0  0  0  0
 12 20  1  0  0  0  0
 12 22  1  0  0  0  0
 12 24  1  0  0  0  0
 13 14  1  6  0  0  0
 13 16  1  0  0  0  0
 14 19  1  0  0  0  0
 14 21  1  0  0  0  0
 15 17  1  0  0  0  0
 15 18  1  0  0  0  0
 16 18  1  0  0  0  0
 23 25  1  0  0  0  0
 24 28  1  0  0  0  0
 25 26  2  0  0  0  0
 25 27  1  0  0  0  0
 26 29  1  0  0  0  0
 27 30  2  0  0  0  0
 29 31  2  0  0  0  0
 30 31  1  0  0  0  0
M  END
> <PUBCHEM_COMPOUND_ID_TYPE>
0

> <PUBCHEM_TOTAL_CHARGE>
0

> <PUBCHEM_SUBSTANCE_ID>
310933537

> <PUBCHEM_SUBSTANCE_VERSION>
1

> <PUBCHEM_EXT_DATASOURCE_NAME>
4488

> <PUBCHEM_EXT_DATASOURCE_REGID>
SCHEMBL16110960

> <PUBCHEM_SUBSTANCE_COMMENT>
InChI=1S/C19H22F4N2O5S/c1-3-25(17(26)27)16-24-12-11(20)13(29-9-10-7-5-4-6-8-10)14(30-15(12)31-16)18(2,28)19(21,22)23/h4-8,11-15,28H,3,9H2,1-2H3,(H,26,27)/t11-,12-,13+,14+,15-,18?/m1/s1
InChIKey=YBNFTTVJHBTMNQ-OKBVGNRTSA-N

> <PUBCHEM_SUBSTANCE_SYNONYM>
SCHEMBL16110960

> <PUBCHEM_XREF_EXT_ID>
SCHEMBL16110960

> <PUBCHEM_EXT_DATASOURCE_URL>
https://www.surechembl.org/

> <PUBCHEM_EXT_SUBSTANCE_URL>
https://www.surechembl.org/chemical/SCHEMBL16110960

> <PUBCHEM_CID_ASSOCIATIONS>
117601925  1

> <PUBCHEM_COORDINATE_TYPE>
1
3

> <PUBCHEM_BONDANNOTATIONS>
17  1  5
15  11  5
13  14  6
18  2  6
16  7  5

$$$$
