310932226
  -OEChem-07211613022D

 35 39  0     1  0  0  0  0  0999 V2000
    7.8931   -2.9002    0.0000 F   0  0  0  0  0  0  0  0  0  0  0  0
    1.4318   -4.0383    0.0000 F   0  0  0  0  0  0  0  0  0  0  0  0
    6.4614   -3.7079    0.0000 O   0  0  0  0  0  0  0  0  0  0  0  0
    3.5978   -1.9824    0.0000 O   0  0  0  0  0  0  0  0  0  0  0  0
    6.5348   -0.4405    0.0000 O   0  0  0  0  0  0  0  0  0  0  0  0
    2.8635   -4.0383    0.0000 O   0  0  0  0  0  0  0  0  0  0  0  0
    0.0000   -6.4981    0.0000 O   0  0  0  0  0  0  0  0  0  0  0  0
    5.0295   -2.0192    0.0000 N   0  0  0  0  0  0  0  0  0  0  0  0
    3.5611   -5.2865    0.0000 N   0  0  0  0  0  0  0  0  0  0  0  0
    4.3687   -0.7710    0.0000 N   0  0  0  0  0  0  0  0  0  0  0  0
    5.0295   -2.8268    0.0000 C   0  0  3  0  0  0  0  0  0  0  0  0
    5.7638   -2.4597    0.0000 C   0  0  0  0  0  0  0  0  0  0  0  0
    4.9928   -3.6712    0.0000 C   0  0  0  0  0  0  0  0  0  0  0  0
    6.4614   -2.8635    0.0000 C   0  0  0  0  0  0  0  0  0  0  0  0
    5.6904   -4.1117    0.0000 C   0  0  0  0  0  0  0  0  0  0  0  0
    4.2953   -3.2307    0.0000 C   0  0  0  0  0  0  0  0  0  0  0  0
    5.7638   -1.6153    0.0000 C   0  0  0  0  0  0  0  0  0  0  0  0
    7.1956   -2.4964    0.0000 C   0  0  0  0  0  0  0  0  0  0  0  0
    4.2586   -4.0750    0.0000 C   0  0  0  0  0  0  0  0  0  0  0  0
    6.4981   -1.2482    0.0000 C   0  0  0  0  0  0  0  0  0  0  0  0
    5.6904   -4.9561    0.0000 C   0  0  0  0  0  0  0  0  0  0  0  0
    4.2586   -4.8827    0.0000 C   0  0  0  0  0  0  0  0  0  0  0  0
    4.3320   -1.5786    0.0000 C   0  0  0  0  0  0  0  0  0  0  0  0
    7.1956   -1.6888    0.0000 C   0  0  0  0  0  0  0  0  0  0  0  0
    3.5978   -2.7901    0.0000 C   0  0  0  0  0  0  0  0  0  0  0  0
    4.9928   -5.2865    0.0000 C   0  0  0  0  0  0  0  0  0  0  0  0
    2.8635   -4.8827    0.0000 C   0  0  0  0  0  0  0  0  0  0  0  0
    2.1293   -5.2865    0.0000 C   0  0  0  0  0  0  0  0  0  0  0  0
    1.4318   -4.8827    0.0000 C   0  0  0  0  0  0  0  0  0  0  0  0
    2.1293   -6.0943    0.0000 C   0  0  0  0  0  0  0  0  0  0  0  0
    5.8373    0.0000    0.0000 C   0  0  0  0  0  0  0  0  0  0  0  0
    0.6975   -5.2865    0.0000 C   0  0  0  0  0  0  0  0  0  0  0  0
    0.6975   -6.0943    0.0000 C   0  0  0  0  0  0  0  0  0  0  0  0
    1.4318   -6.4981    0.0000 C   0  0  0  0  0  0  0  0  0  0  0  0
    0.0000   -7.3425    0.0000 C   0  0  0  0  0  0  0  0  0  0  0  0
  1 18  1  0  0  0  0
  2 29  1  0  0  0  0
  3 14  1  0  0  0  0
  3 15  1  0  0  0  0
  4 23  1  0  0  0  0
  4 25  1  0  0  0  0
  5 20  1  0  0  0  0
  5 31  1  0  0  0  0
  6 27  2  0  0  0  0
  7 33  1  0  0  0  0
  7 35  1  0  0  0  0
 11  8  1  6  0  0  0
  8 23  2  0  0  0  0
  9 22  1  0  0  0  0
  9 27  1  0  0  0  0
 10 23  1  0  0  0  0
 11 12  1  0  0  0  0
 11 13  1  0  0  0  0
 11 16  1  0  0  0  0
 12 14  2  0  0  0  0
 12 17  1  0  0  0  0
 13 15  2  0  0  0  0
 13 19  1  0  0  0  0
 14 18  1  0  0  0  0
 15 21  1  0  0  0  0
 16 25  1  0  0  0  0
 17 20  2  0  0  0  0
 18 24  2  0  0  0  0
 19 22  2  0  0  0  0
 20 24  1  0  0  0  0
 21 26  2  0  0  0  0
 22 26  1  0  0  0  0
 27 28  1  0  0  0  0
 28 29  2  0  0  0  0
 28 30  1  0  0  0  0
 29 32  1  0  0  0  0
 30 34  2  0  0  0  0
 32 33  2  0  0  0  0
 33 34  1  0  0  0  0
M  END
> <PUBCHEM_COMPOUND_ID_TYPE>
0

> <PUBCHEM_TOTAL_CHARGE>
0

> <PUBCHEM_SUBSTANCE_ID>
310932226

> <PUBCHEM_SUBSTANCE_VERSION>
1

> <PUBCHEM_EXT_DATASOURCE_NAME>
4488

> <PUBCHEM_EXT_DATASOURCE_REGID>
SCHEMBL16109583

> <PUBCHEM_SUBSTANCE_COMMENT>
InChI=1S/C25H21F2N3O5/c1-32-14-4-5-16(19(26)11-14)23(31)29-13-3-6-21-17(9-13)25(7-8-34-24(28)30-25)18-10-15(33-2)12-20(27)22(18)35-21/h3-6,9-12H,7-8H2,1-2H3,(H2,28,30)(H,29,31)/t25-/m0/s1
InChIKey=XOXIZFJDEGLEMV-VWLOTQADSA-N

> <PUBCHEM_SUBSTANCE_SYNONYM>
SCHEMBL16109583

> <PUBCHEM_XREF_EXT_ID>
SCHEMBL16109583

> <PUBCHEM_EXT_DATASOURCE_URL>
https://www.surechembl.org/

> <PUBCHEM_EXT_SUBSTANCE_URL>
https://www.surechembl.org/chemical/SCHEMBL16109583

> <PUBCHEM_CID_ASSOCIATIONS>
117600809  1

> <PUBCHEM_COORDINATE_TYPE>
1
3

> <PUBCHEM_BONDANNOTATIONS>
11  8  6

$$$$
