310949873
  -OEChem-07211613022D

 27 30  0     1  0  0  0  0  0999 V2000
   -0.6121    1.3068    0.0000 N   0  0  0  0  0  0  0  0  0  0  0  0
   -0.6121    2.6411    0.0000 N   0  0  0  0  0  0  0  0  0  0  0  0
    0.1582   -1.0592    0.0000 N   0  0  0  0  0  0  0  0  0  0  0  0
    1.8639    1.9671    0.0000 N   0  0  0  0  0  0  0  0  0  0  0  0
   -0.1307    1.9808    0.0000 C   0  0  0  0  0  0  0  0  0  0  0  0
   -1.4100    1.5681    0.0000 C   0  0  0  0  0  0  0  0  0  0  0  0
   -1.3962    2.3935    0.0000 C   0  0  0  0  0  0  0  0  0  0  0  0
   -0.3646    0.5365    0.0000 C   0  0  0  0  0  0  0  0  0  0  0  0
    0.6946    1.9671    0.0000 C   0  0  0  0  0  0  0  0  0  0  0  0
   -2.1253    1.1554    0.0000 C   0  0  0  0  0  0  0  0  0  0  0  0
   -2.1253    2.7787    0.0000 C   0  0  0  0  0  0  0  0  0  0  0  0
   -0.9148   -0.0963    0.0000 C   0  0  0  0  0  0  0  0  0  0  0  0
    0.4608    0.3439    0.0000 C   0  0  0  0  0  0  0  0  0  0  0  0
    1.2724    2.5448    0.0000 C   0  0  0  0  0  0  0  0  0  0  0  0
    1.2862    1.3893    0.0000 C   0  0  0  0  0  0  0  0  0  0  0  0
   -2.8268    1.5681    0.0000 C   0  0  0  0  0  0  0  0  0  0  0  0
   -0.6534   -0.8804    0.0000 C   0  0  0  0  0  0  0  0  0  0  0  0
    0.6946   -0.4264    0.0000 C   0  0  0  0  0  0  0  0  0  0  0  0
   -2.8268    2.3797    0.0000 C   0  0  0  0  0  0  0  0  0  0  0  0
    0.4058   -1.8432    0.0000 C   0  0  3  0  0  0  0  0  0  0  0  0
    1.2037   -2.0221    0.0000 C   0  0  3  0  0  0  0  0  0  0  0  0
   -0.1307   -2.4760    0.0000 C   0  0  0  0  0  0  0  0  0  0  0  0
    1.7676   -1.4031    0.0000 C   0  0  0  0  0  0  0  0  0  0  0  0
    1.4512   -2.7787    0.0000 C   0  0  0  0  0  0  0  0  0  0  0  0
    2.5792   -1.5681    0.0000 C   0  0  0  0  0  0  0  0  0  0  0  0
    2.8268   -2.3523    0.0000 C   0  0  0  0  0  0  0  0  0  0  0  0
    2.4279   -2.7787    0.0000 C   0  0  0  0  0  0  0  0  0  0  0  0
  1  5  1  0  0  0  0
  1  6  1  0  0  0  0
  1  8  1  0  0  0  0
  2  5  2  0  0  0  0
  2  7  1  0  0  0  0
  3 17  1  0  0  0  0
  3 18  1  0  0  0  0
  3 20  1  0  0  0  0
  4 14  1  0  0  0  0
  4 15  1  0  0  0  0
  5  9  1  0  0  0  0
  6  7  1  0  0  0  0
  6 10  2  0  0  0  0
  7 11  2  0  0  0  0
  8 12  1  0  0  0  0
  8 13  1  0  0  0  0
  9 14  1  0  0  0  0
  9 15  1  0  0  0  0
 10 16  1  0  0  0  0
 11 19  1  0  0  0  0
 12 17  1  0  0  0  0
 13 18  1  0  0  0  0
 16 19  2  0  0  0  0
 20 21  1  0  0  0  0
 20 22  1  6  0  0  0
 21 23  1  0  0  0  0
 21 24  1  0  0  0  0
 23 25  1  0  0  0  0
 25 26  1  0  0  0  0
 26 27  1  0  0  0  0
M  END
> <PUBCHEM_COMPOUND_ID_TYPE>
0

> <PUBCHEM_TOTAL_CHARGE>
0

> <PUBCHEM_SUBSTANCE_ID>
310949873

> <PUBCHEM_SUBSTANCE_VERSION>
1

> <PUBCHEM_EXT_DATASOURCE_NAME>
4488

> <PUBCHEM_EXT_DATASOURCE_REGID>
SCHEMBL16128079

> <PUBCHEM_SUBSTANCE_COMMENT>
InChI=1S/C23H36N4/c1-4-5-8-17(2)18(3)26-13-11-20(12-14-26)27-22-10-7-6-9-21(22)25-23(27)19-15-24-16-19/h6-7,9-10,17-20,24H,4-5,8,11-16H2,1-3H3/t17?,18-/m0/s1
InChIKey=UXKXUTJEKPCCSG-ZVAWYAOSSA-N

> <PUBCHEM_SUBSTANCE_SYNONYM>
SCHEMBL16128079

> <PUBCHEM_XREF_EXT_ID>
SCHEMBL16128079

> <PUBCHEM_EXT_DATASOURCE_URL>
https://www.surechembl.org/

> <PUBCHEM_EXT_SUBSTANCE_URL>
https://www.surechembl.org/chemical/SCHEMBL16128079

> <PUBCHEM_CID_ASSOCIATIONS>
117615170  1

> <PUBCHEM_COORDINATE_TYPE>
1
3

> <PUBCHEM_BONDANNOTATIONS>
20  22  6

$$$$
