310940529
  -OEChem-07211613022D

 32 36  0     0  0  0  0  0  0999 V2000
    2.3371   -0.3093    0.0000 O   0  0  0  0  0  0  0  0  0  0  0  0
   -1.8697   -0.4331    0.0000 O   0  0  0  0  0  0  0  0  0  0  0  0
    2.4196    1.1892    0.0000 O   0  0  0  0  0  0  0  0  0  0  0  0
   -3.1482   -2.3715    0.0000 O   0  0  0  0  0  0  0  0  0  0  0  0
    3.1482   -1.6841    0.0000 O   0  0  0  0  0  0  0  0  0  0  0  0
    1.2098    0.3781    0.0000 N   0  0  0  0  0  0  0  0  0  0  0  0
    1.0311   -2.1103    0.0000 N   0  0  0  0  0  0  0  0  0  0  0  0
   -2.7358   -3.1001    0.0000 N   0  0  0  0  0  0  0  0  0  0  0  0
    0.9898   -0.3643    0.0000 C   0  0  0  0  0  0  0  0  0  0  0  0
    0.2749   -0.7630    0.0000 C   0  0  0  0  0  0  0  0  0  0  0  0
    1.7184   -0.7905    0.0000 C   0  0  0  0  0  0  0  0  0  0  0  0
    0.2612   -1.6291    0.0000 C   0  0  0  0  0  0  0  0  0  0  0  0
    1.7047   -1.6154    0.0000 C   0  0  0  0  0  0  0  0  0  0  0  0
   -1.1548   -1.6154    0.0000 C   0  0  0  0  0  0  0  0  0  0  0  0
    1.9660    0.5156    0.0000 C   0  0  0  0  0  0  0  0  0  0  0  0
   -0.4399   -0.3781    0.0000 C   0  0  0  0  0  0  0  0  0  0  0  0
   -1.1411   -0.7905    0.0000 C   0  0  0  0  0  0  0  0  0  0  0  0
   -0.4399   -2.0140    0.0000 C   0  0  0  0  0  0  0  0  0  0  0  0
   -1.8835   -2.0415    0.0000 C   0  0  0  0  0  0  0  0  0  0  0  0
    0.6049    1.0242    0.0000 C   0  0  0  0  0  0  0  0  0  0  0  0
   -2.6258   -1.6841    0.0000 C   0  0  0  0  0  0  0  0  0  0  0  0
   -1.9660   -2.8664    0.0000 C   0  0  0  0  0  0  0  0  0  0  0  0
    2.4471   -2.0278    0.0000 C   0  0  0  0  0  0  0  0  0  0  0  0
    0.8111    1.8628    0.0000 C   0  0  0  0  0  0  0  0  0  0  0  0
   -2.7908   -0.8730    0.0000 C   0  0  0  0  0  0  0  0  0  0  0  0
   -1.3610   -3.4438    0.0000 C   0  0  0  0  0  0  0  0  0  0  0  0
    0.2337    2.4264    0.0000 C   0  0  0  0  0  0  0  0  0  0  0  0
    1.6085    2.0828    0.0000 C   0  0  0  0  0  0  0  0  0  0  0  0
   -1.8835    0.4743    0.0000 C   0  0  0  0  0  0  0  0  0  0  0  0
    0.4537    3.2376    0.0000 C   0  0  0  0  0  0  0  0  0  0  0  0
    1.8009    2.8664    0.0000 C   0  0  0  0  0  0  0  0  0  0  0  0
    1.2373    3.4438    0.0000 C   0  0  0  0  0  0  0  0  0  0  0  0
  1 11  1  0  0  0  0
  1 15  1  0  0  0  0
  2 17  1  0  0  0  0
  2 29  1  0  0  0  0
  3 15  2  0  0  0  0
  4  8  1  0  0  0  0
  4 21  1  0  0  0  0
  5 23  1  0  0  0  0
  6  9  1  0  0  0  0
  6 15  1  0  0  0  0
  6 20  1  0  0  0  0
  7 12  1  0  0  0  0
  7 13  2  0  0  0  0
  8 22  2  0  0  0  0
  9 10  1  0  0  0  0
  9 11  2  0  0  0  0
 10 12  2  0  0  0  0
 10 16  1  0  0  0  0
 11 13  1  0  0  0  0
 12 18  1  0  0  0  0
 13 23  1  0  0  0  0
 14 17  1  0  0  0  0
 14 18  2  0  0  0  0
 14 19  1  0  0  0  0
 16 17  2  0  0  0  0
 19 21  2  0  0  0  0
 19 22  1  0  0  0  0
 20 24  1  0  0  0  0
 21 25  1  0  0  0  0
 22 26  1  0  0  0  0
 24 27  2  0  0  0  0
 24 28  1  0  0  0  0
 27 30  1  0  0  0  0
 28 31  2  0  0  0  0
 30 32  2  0  0  0  0
 31 32  1  0  0  0  0
M  END
> <PUBCHEM_COMPOUND_ID_TYPE>
0

> <PUBCHEM_TOTAL_CHARGE>
0

> <PUBCHEM_SUBSTANCE_ID>
310940529

> <PUBCHEM_SUBSTANCE_VERSION>
1

> <PUBCHEM_EXT_DATASOURCE_NAME>
4488

> <PUBCHEM_EXT_DATASOURCE_REGID>
SCHEMBL16118483

> <PUBCHEM_SUBSTANCE_COMMENT>
InChI=1S/C24H21N3O5/c1-13-21(14(2)32-26-13)17-9-18-16(10-20(17)30-3)22-23(19(12-28)25-18)31-24(29)27(22)11-15-7-5-4-6-8-15/h4-10,28H,11-12H2,1-3H3
InChIKey=DTJBXFDYNFQPPV-UHFFFAOYSA-N

> <PUBCHEM_SUBSTANCE_SYNONYM>
SCHEMBL16118483

> <PUBCHEM_XREF_EXT_ID>
SCHEMBL16118483

> <PUBCHEM_EXT_DATASOURCE_URL>
https://www.surechembl.org/

> <PUBCHEM_EXT_SUBSTANCE_URL>
https://www.surechembl.org/chemical/SCHEMBL16118483

> <PUBCHEM_CID_ASSOCIATIONS>
117607539  1

> <PUBCHEM_COORDINATE_TYPE>
1
3

$$$$
