310940392
  -OEChem-07211613022D

 19 20  0     0  0  0  0  0  0999 V2000
    2.3990   -0.0899    0.0000 O   0  0  0  0  0  0  0  0  0  0  0  0
   -3.1042   -0.0069    0.0000 O   0  0  0  0  0  0  0  0  0  0  0  0
   -2.8830    1.4035    0.0000 O   0  0  0  0  0  0  0  0  0  0  0  0
    0.6983    0.1451    0.0000 N   0  0  0  0  0  0  0  0  0  0  0  0
    3.8785    0.8227    0.0000 N   0  0  0  0  0  0  0  0  0  0  0  0
    1.8598   -0.6983    0.0000 C   0  0  0  0  0  0  0  0  0  0  0  0
    3.1733   -0.4079    0.0000 C   0  0  0  0  0  0  0  0  0  0  0  0
   -0.1175    0.2419    0.0000 C   0  0  0  0  0  0  0  0  0  0  0  0
   -1.7630    0.5047    0.0000 C   0  0  0  0  0  0  0  0  0  0  0  0
    2.2884   -1.4035    0.0000 C   0  0  0  0  0  0  0  0  0  0  0  0
    1.0301   -0.5876    0.0000 C   0  0  0  0  0  0  0  0  0  0  0  0
    3.0765   -1.2376    0.0000 C   0  0  0  0  0  0  0  0  0  0  0  0
   -0.4218    1.0025    0.0000 C   0  0  0  0  0  0  0  0  0  0  0  0
   -0.6430   -0.3941    0.0000 C   0  0  0  0  0  0  0  0  0  0  0  0
   -1.2376    1.1408    0.0000 C   0  0  0  0  0  0  0  0  0  0  0  0
   -1.4588   -0.2558    0.0000 C   0  0  0  0  0  0  0  0  0  0  0  0
   -2.5650    0.6291    0.0000 C   0  0  0  0  0  0  0  0  0  0  0  0
    3.8785   -0.0069    0.0000 C   0  0  0  0  0  0  0  0  0  0  0  0
   -3.8785    0.1314    0.0000 C   0  0  0  0  0  0  0  0  0  0  0  0
  1  6  1  0  0  0  0
  1  7  1  0  0  0  0
  2 17  1  0  0  0  0
  2 19  1  0  0  0  0
  3 17  2  0  0  0  0
  4  8  1  0  0  0  0
  4 11  2  0  0  0  0
  5 18  2  3  0  0  0
  6 10  2  0  0  0  0
  6 11  1  0  0  0  0
  7 12  2  0  0  0  0
  7 18  1  0  0  0  0
  8 13  2  0  0  0  0
  8 14  1  0  0  0  0
  9 15  2  0  0  0  0
  9 16  1  0  0  0  0
  9 17  1  0  0  0  0
 10 12  1  0  0  0  0
 13 15  1  0  0  0  0
 14 16  2  0  0  0  0
M  END
> <PUBCHEM_COMPOUND_ID_TYPE>
0

> <PUBCHEM_TOTAL_CHARGE>
0

> <PUBCHEM_SUBSTANCE_ID>
310940392

> <PUBCHEM_SUBSTANCE_VERSION>
1

> <PUBCHEM_EXT_DATASOURCE_NAME>
4488

> <PUBCHEM_EXT_DATASOURCE_REGID>
SCHEMBL16118338

> <PUBCHEM_SUBSTANCE_COMMENT>
InChI=1S/C14H12N2O3/c1-18-14(17)10-2-4-11(5-3-10)16-9-13-7-6-12(8-15)19-13/h2-9,15H,1H3/b15-8?,16-9+
InChIKey=WTNGQFNUDOEDJB-LBWIRQCPSA-N

> <PUBCHEM_SUBSTANCE_SYNONYM>
SCHEMBL16118338

> <PUBCHEM_XREF_EXT_ID>
SCHEMBL16118338

> <PUBCHEM_EXT_DATASOURCE_URL>
https://www.surechembl.org/

> <PUBCHEM_EXT_SUBSTANCE_URL>
https://www.surechembl.org/chemical/SCHEMBL16118338

> <PUBCHEM_CID_ASSOCIATIONS>
117607422  1

> <PUBCHEM_COORDINATE_TYPE>
1
3

> <PUBCHEM_BONDANNOTATIONS>
4  8  3

$$$$
