310948733
  -OEChem-07211613022D

 27 30  0     0  0  0  0  0  0999 V2000
   -2.8562   -1.6507    0.0000 O   0  0  0  0  0  0  0  0  0  0  0  0
   -4.2906    0.8222    0.0000 O   0  0  0  0  0  0  0  0  0  0  0  0
    4.2782    1.6507    0.0000 O   0  0  0  0  0  0  0  0  0  0  0  0
    1.4467    0.8346    0.0000 N   0  0  0  0  0  0  0  0  0  0  0  0
    0.0124    0.8346    0.0000 N   0  0  0  0  0  0  0  0  0  0  0  0
    2.8686    0.8346    0.0000 N   0  0  0  0  0  0  0  0  0  0  0  0
    1.4467   -0.8222    0.0000 N   0  0  0  0  0  0  0  0  0  0  0  0
   -1.4220    0.8346    0.0000 N   0  0  0  0  0  0  0  0  0  0  0  0
    0.7295    0.4265    0.0000 C   0  0  0  0  0  0  0  0  0  0  0  0
    0.7048   -0.4018    0.0000 C   0  0  0  0  0  0  0  0  0  0  0  0
    2.1514    0.4265    0.0000 C   0  0  0  0  0  0  0  0  0  0  0  0
   -0.7048    0.4265    0.0000 C   0  0  0  0  0  0  0  0  0  0  0  0
    0.0124   -0.8222    0.0000 C   0  0  0  0  0  0  0  0  0  0  0  0
    2.1514   -0.4142    0.0000 C   0  0  0  0  0  0  0  0  0  0  0  0
   -2.1390    0.4265    0.0000 C   0  0  0  0  0  0  0  0  0  0  0  0
   -0.7048   -0.4018    0.0000 C   0  0  0  0  0  0  0  0  0  0  0  0
   -2.8439    0.8222    0.0000 C   0  0  0  0  0  0  0  0  0  0  0  0
   -2.1390   -0.4018    0.0000 C   0  0  0  0  0  0  0  0  0  0  0  0
   -2.8439   -0.8099    0.0000 C   0  0  0  0  0  0  0  0  0  0  0  0
   -3.5610    0.4142    0.0000 C   0  0  0  0  0  0  0  0  0  0  0  0
    2.8686    1.6507    0.0000 C   0  0  0  0  0  0  0  0  0  0  0  0
    3.5857    0.4142    0.0000 C   0  0  0  0  0  0  0  0  0  0  0  0
   -3.5487   -0.4018    0.0000 C   0  0  0  0  0  0  0  0  0  0  0  0
    3.5734    2.0587    0.0000 C   0  0  0  0  0  0  0  0  0  0  0  0
    4.2906    0.8222    0.0000 C   0  0  0  0  0  0  0  0  0  0  0  0
   -3.5363   -2.0587    0.0000 C   0  0  0  0  0  0  0  0  0  0  0  0
   -4.2782    1.6384    0.0000 C   0  0  0  0  0  0  0  0  0  0  0  0
  1 19  1  0  0  0  0
  1 26  1  0  0  0  0
  2 20  1  0  0  0  0
  2 27  1  0  0  0  0
  3 24  1  0  0  0  0
  3 25  1  0  0  0  0
  4  9  1  0  0  0  0
  4 11  2  0  0  0  0
  5  9  2  0  0  0  0
  5 12  1  0  0  0  0
  6 11  1  0  0  0  0
  6 21  1  0  0  0  0
  6 22  1  0  0  0  0
  7 10  1  0  0  0  0
  7 14  2  0  0  0  0
  8 12  1  0  0  0  0
  8 15  1  0  0  0  0
  9 10  1  0  0  0  0
 10 13  2  0  0  0  0
 11 14  1  0  0  0  0
 12 16  2  0  0  0  0
 13 16  1  0  0  0  0
 15 17  2  0  0  0  0
 15 18  1  0  0  0  0
 17 20  1  0  0  0  0
 18 19  2  0  0  0  0
 19 23  1  0  0  0  0
 20 23  2  0  0  0  0
 21 24  1  0  0  0  0
 22 25  1  0  0  0  0
M  END
> <PUBCHEM_COMPOUND_ID_TYPE>
0

> <PUBCHEM_TOTAL_CHARGE>
0

> <PUBCHEM_SUBSTANCE_ID>
310948733

> <PUBCHEM_SUBSTANCE_VERSION>
1

> <PUBCHEM_EXT_DATASOURCE_NAME>
4488

> <PUBCHEM_EXT_DATASOURCE_REGID>
SCHEMBL16126917

> <PUBCHEM_SUBSTANCE_COMMENT>
InChI=1S/C19H21N5O3/c1-25-14-9-13(10-15(11-14)26-2)21-17-4-3-16-19(22-17)23-18(12-20-16)24-5-7-27-8-6-24/h3-4,9-12H,5-8H2,1-2H3,(H,21,22,23)
InChIKey=VDBJQPSGBLKGCU-UHFFFAOYSA-N

> <PUBCHEM_SUBSTANCE_SYNONYM>
SCHEMBL16126917

> <PUBCHEM_XREF_EXT_ID>
SCHEMBL16126917

> <PUBCHEM_EXT_DATASOURCE_URL>
https://www.surechembl.org/

> <PUBCHEM_EXT_SUBSTANCE_URL>
https://www.surechembl.org/chemical/SCHEMBL16126917

> <PUBCHEM_CID_ASSOCIATIONS>
117614275  1

> <PUBCHEM_COORDINATE_TYPE>
1
3

$$$$
