310935543
  -OEChem-07211613022D

 33 36  0     1  0  0  0  0  0999 V2000
    0.7434   -0.5605    0.0000 S   0  0  0  0  0  0  0  0  0  0  0  0
    0.5314    0.2971    0.0000 O   0  0  0  0  0  0  0  0  0  0  0  0
    4.5538    0.2202    0.0000 O   0  0  0  0  0  0  0  0  0  0  0  0
    6.5402    2.4343    0.0000 O   0  0  0  0  0  0  0  0  0  0  0  0
    3.3420   -0.5370    0.0000 O   0  0  0  0  0  0  0  0  0  0  0  0
    2.0519   -0.2967    0.0000 N   0  0  0  0  0  0  0  0  0  0  0  0
    3.3523    3.5854    0.0000 N   0  0  0  0  0  0  0  0  0  0  0  0
    3.3523    4.4104    0.0000 N   0  3  0  0  0  0  0  0  0  0  0  0
    3.3523    5.2354    0.0000 N   0  5  0  0  0  0  0  0  0  0  0  0
    1.9233    1.1104    0.0000 C   0  0  3  0  0  0  0  0  0  0  0  0
    1.1387    0.8555    0.0000 C   0  0  3  0  0  0  0  0  0  0  0  0
    1.9233    1.9354    0.0000 C   0  0  3  0  0  0  0  0  0  0  0  0
    2.6378    2.3479    0.0000 C   0  0  3  0  0  0  0  0  0  0  0  0
    3.3523    1.9354    0.0000 C   0  0  3  0  0  0  0  0  0  0  0  0
    1.3018    0.0468    0.0000 C   0  0  0  0  0  0  0  0  0  0  0  0
    2.6378    0.6979    0.0000 C   0  0  0  0  0  0  0  0  0  0  0  0
    0.6538    1.5229    0.0000 C   0  0  0  0  0  0  0  0  0  0  0  0
    4.0668    2.3479    0.0000 C   0  0  3  0  0  0  0  0  0  0  0  0
    1.1387    2.1904    0.0000 C   0  0  0  0  0  0  0  0  0  0  0  0
    3.3523    1.1104    0.0000 C   0  0  0  0  0  0  0  0  0  0  0  0
    1.8371    0.2900    0.0000 C   0  0  0  0  0  0  0  0  0  0  0  0
    4.5039    1.6483    0.0000 C   0  0  3  0  0  0  0  0  0  0  0  0
    2.6378    3.1729    0.0000 C   0  0  0  0  0  0  0  0  0  0  0  0
    4.4541    3.0764    0.0000 C   0  0  0  0  0  0  0  0  0  0  0  0
    3.3253    2.7096    0.0000 C   0  0  0  0  0  0  0  0  0  0  0  0
    5.3284    1.6771    0.0000 C   0  0  0  0  0  0  0  0  0  0  0  0
    1.1484   -1.2793    0.0000 C   0  0  0  0  0  0  0  0  0  0  0  0
    1.9571   -1.1162    0.0000 C   0  0  0  0  0  0  0  0  0  0  0  0
    5.2786    3.1052    0.0000 C   0  0  0  0  0  0  0  0  0  0  0  0
    4.1166    0.9199    0.0000 C   0  0  0  0  0  0  0  0  0  0  0  0
    5.7158    2.4055    0.0000 C   0  0  3  0  0  0  0  0  0  0  0  0
    4.1665   -0.5082    0.0000 C   0  0  0  0  0  0  0  0  0  0  0  0
    4.6037   -1.2078    0.0000 C   0  0  0  0  0  0  0  0  0  0  0  0
  1 15  1  0  0  0  0
  1 27  1  0  0  0  0
 11  2  1  1  0  0  0
  3 30  1  0  0  0  0
  3 32  1  0  0  0  0
 31  4  1  6  0  0  0
  5 32  2  0  0  0  0
  6 15  2  0  0  0  0
  6 28  1  0  0  0  0
  7  8  2  0  0  0  0
  7 23  1  0  0  0  0
  8  9  2  0  0  0  0
 10 11  1  0  0  0  0
 10 12  1  0  0  0  0
 10 16  1  0  0  0  0
 10 21  1  1  0  0  0
 11 15  1  0  0  0  0
 11 17  1  0  0  0  0
 12 13  1  0  0  0  0
 12 19  1  1  0  0  0
 13 14  1  0  0  0  0
 13 23  1  6  0  0  0
 14 18  1  0  0  0  0
 14 20  1  1  0  0  0
 16 20  1  0  0  0  0
 17 19  1  0  0  0  0
 18 22  1  0  0  0  0
 18 24  1  0  0  0  0
 18 25  1  6  0  0  0
 22 26  1  0  0  0  0
 22 30  1  6  0  0  0
 24 29  1  0  0  0  0
 26 31  1  0  0  0  0
 27 28  2  0  0  0  0
 29 31  1  0  0  0  0
 32 33  1  0  0  0  0
M  CHG  2   8   1   9  -1
M  END
> <PUBCHEM_COMPOUND_ID_TYPE>
0

> <PUBCHEM_TOTAL_CHARGE>
0

> <PUBCHEM_SUBSTANCE_ID>
310935543

> <PUBCHEM_SUBSTANCE_VERSION>
1

> <PUBCHEM_EXT_DATASOURCE_NAME>
4488

> <PUBCHEM_EXT_DATASOURCE_REGID>
SCHEMBL16113113

> <PUBCHEM_SUBSTANCE_COMMENT>
InChI=1S/C24H36N4O4S/c1-15(29)32-14-16-12-17(30)4-7-22(16,2)19-5-8-23(3)20(18(19)13-27-28-25)6-9-24(23,31)21-26-10-11-33-21/h10-11,16-20,30-31H,4-9,12-14H2,1-3H3/t16-,17+,18-,19+,20+,22+,23+,24-/m1/s1
InChIKey=RZKORYBLVZRYHW-IXNIKLRASA-N

> <PUBCHEM_SUBSTANCE_SYNONYM>
SCHEMBL16113113

> <PUBCHEM_XREF_EXT_ID>
SCHEMBL16113113

> <PUBCHEM_EXT_DATASOURCE_URL>
https://www.surechembl.org/

> <PUBCHEM_EXT_SUBSTANCE_URL>
https://www.surechembl.org/chemical/SCHEMBL16113113

> <PUBCHEM_CID_ASSOCIATIONS>
117603567  1

> <PUBCHEM_COORDINATE_TYPE>
1
3

> <PUBCHEM_BONDANNOTATIONS>
10  21  5
12  19  5
13  23  6
14  20  5
18  25  6
11  2  5
22  30  6
31  4  6

$$$$
