310942109
  -OEChem-07211613022D

 19 20  0     0  0  0  0  0  0999 V2000
   -2.4995   -1.4820    0.0000 F   0  0  0  0  0  0  0  0  0  0  0  0
   -0.0074   -1.4672    0.0000 O   0  5  0  0  0  0  0  0  0  0  0  0
   -1.2608   -2.1604    0.0000 O   0  0  0  0  0  0  0  0  0  0  0  0
    2.4995    1.3935    0.0000 O   0  0  0  0  0  0  0  0  0  0  0  0
   -0.8331   -1.4820    0.0000 N   0  3  0  0  0  0  0  0  0  0  0  0
   -0.8331    0.0516    0.0000 C   0  0  0  0  0  0  0  0  0  0  0  0
   -1.2608   -0.6710    0.0000 C   0  0  0  0  0  0  0  0  0  0  0  0
   -0.0074    0.0368    0.0000 C   0  0  0  0  0  0  0  0  0  0  0  0
   -2.0866   -0.6562    0.0000 C   0  0  0  0  0  0  0  0  0  0  0  0
   -1.2460    0.7594    0.0000 C   0  0  0  0  0  0  0  0  0  0  0  0
    0.4203    0.7447    0.0000 C   0  0  0  0  0  0  0  0  0  0  0  0
    1.2313    0.7300    0.0000 C   0  0  0  0  0  0  0  0  0  0  0  0
    0.4055   -0.6710    0.0000 C   0  0  0  0  0  0  0  0  0  0  0  0
   -2.4700    0.0516    0.0000 C   0  0  0  0  0  0  0  0  0  0  0  0
   -2.0719    0.7742    0.0000 C   0  0  0  0  0  0  0  0  0  0  0  0
    1.6442    0.0221    0.0000 C   0  0  0  0  0  0  0  0  0  0  0  0
    1.2313   -0.6857    0.0000 C   0  0  0  0  0  0  0  0  0  0  0  0
    1.6295    1.4672    0.0000 C   0  0  0  0  0  0  0  0  0  0  0  0
    1.2313    2.1604    0.0000 C   0  0  0  0  0  0  0  0  0  0  0  0
  1  9  1  0  0  0  0
  2  5  1  0  0  0  0
  3  5  2  0  0  0  0
  4 18  2  0  0  0  0
  5  7  1  0  0  0  0
  6  7  1  0  0  0  0
  6  8  1  0  0  0  0
  6 10  2  0  0  0  0
  7  9  2  0  0  0  0
  8 11  1  0  0  0  0
  8 13  2  0  0  0  0
  9 14  1  0  0  0  0
 10 15  1  0  0  0  0
 11 12  2  0  0  0  0
 12 16  1  0  0  0  0
 12 18  1  0  0  0  0
 13 17  1  0  0  0  0
 14 15  2  0  0  0  0
 16 17  2  0  0  0  0
 18 19  1  0  0  0  0
M  CHG  2   2  -1   5   1
M  END
> <PUBCHEM_COMPOUND_ID_TYPE>
0

> <PUBCHEM_TOTAL_CHARGE>
0

> <PUBCHEM_SUBSTANCE_ID>
310942109

> <PUBCHEM_SUBSTANCE_VERSION>
1

> <PUBCHEM_EXT_DATASOURCE_NAME>
4488

> <PUBCHEM_EXT_DATASOURCE_REGID>
SCHEMBL16120144

> <PUBCHEM_SUBSTANCE_COMMENT>
InChI=1S/C14H10FNO3/c1-9(17)10-4-2-5-11(8-10)12-6-3-7-13(15)14(12)16(18)19/h2-8H,1H3
InChIKey=BBBLXGVRUMXGLF-UHFFFAOYSA-N

> <PUBCHEM_SUBSTANCE_SYNONYM>
SCHEMBL16120144

> <PUBCHEM_XREF_EXT_ID>
SCHEMBL16120144

> <PUBCHEM_EXT_DATASOURCE_URL>
https://www.surechembl.org/

> <PUBCHEM_EXT_SUBSTANCE_URL>
https://www.surechembl.org/chemical/SCHEMBL16120144

> <PUBCHEM_CID_ASSOCIATIONS>
117608770  1

> <PUBCHEM_COORDINATE_TYPE>
1
3

$$$$
