310947265
  -OEChem-07211613022D

 38 42  0     1  0  0  0  0  0999 V2000
   -1.4608    2.0769    0.0000 O   0  0  0  0  0  0  0  0  0  0  0  0
    1.4672   -0.2405    0.0000 N   0  0  0  0  0  0  0  0  0  0  0  0
    1.9522    0.4269    0.0000 N   0  0  0  0  0  0  0  0  0  0  0  0
   -2.1753    0.8394    0.0000 N   0  0  0  0  0  0  0  0  0  0  0  0
    0.6826    0.0144    0.0000 C   0  0  0  0  0  0  0  0  0  0  0  0
    0.6826    0.8394    0.0000 C   0  0  0  0  0  0  0  0  0  0  0  0
    1.4672    1.0944    0.0000 C   0  0  0  0  0  0  0  0  0  0  0  0
   -0.0319    1.2519    0.0000 C   0  0  0  0  0  0  0  0  0  0  0  0
   -0.7463    0.8394    0.0000 C   0  0  0  0  0  0  0  0  0  0  0  0
   -0.0319   -0.3981    0.0000 C   0  0  0  0  0  0  0  0  0  0  0  0
    1.6808   -1.0374    0.0000 C   0  0  0  0  0  0  0  0  0  0  0  0
   -0.7463    0.0144    0.0000 C   0  0  0  0  0  0  0  0  0  0  0  0
   -1.4608    1.2519    0.0000 C   0  0  0  0  0  0  0  0  0  0  0  0
    2.4777   -1.2509    0.0000 C   0  0  0  0  0  0  0  0  0  0  0  0
    1.8797    1.8088    0.0000 C   0  0  0  0  0  0  0  0  0  0  0  0
   -2.8897    1.2519    0.0000 C   0  0  3  0  0  0  0  0  0  0  0  0
   -3.6042    0.8394    0.0000 C   0  0  0  0  0  0  0  0  0  0  0  0
    2.6912   -2.0478    0.0000 C   0  0  0  0  0  0  0  0  0  0  0  0
    3.0610   -0.6676    0.0000 C   0  0  0  0  0  0  0  0  0  0  0  0
    4.0714   -1.6780    0.0000 C   0  0  0  0  0  0  0  0  0  0  0  0
    3.4881   -2.2613    0.0000 C   0  0  0  0  0  0  0  0  0  0  0  0
    3.8579   -0.8811    0.0000 C   0  0  0  0  0  0  0  0  0  0  0  0
    4.8683   -1.8915    0.0000 C   0  0  0  0  0  0  0  0  0  0  0  0
   -4.3187    1.2519    0.0000 C   0  0  0  0  0  0  0  0  0  0  0  0
   -5.0332    0.8394    0.0000 C   0  0  0  0  0  0  0  0  0  0  0  0
   -3.6042    0.0144    0.0000 C   0  0  0  0  0  0  0  0  0  0  0  0
   -2.8897    2.0769    0.0000 C   0  0  0  0  0  0  0  0  0  0  0  0
   -5.0332    0.0144    0.0000 C   0  0  0  0  0  0  0  0  0  0  0  0
   -4.3187   -0.3981    0.0000 C   0  0  0  0  0  0  0  0  0  0  0  0
   -5.7476    1.2519    0.0000 C   0  0  0  0  0  0  0  0  0  0  0  0
    5.0818   -2.6884    0.0000 C   0  0  0  0  0  0  0  0  0  0  0  0
    5.4517   -1.3081    0.0000 C   0  0  0  0  0  0  0  0  0  0  0  0
    5.8787   -2.9019    0.0000 C   0  0  0  0  0  0  0  0  0  0  0  0
    6.2486   -1.5217    0.0000 C   0  0  0  0  0  0  0  0  0  0  0  0
   -2.8897    2.9019    0.0000 C   0  0  0  0  0  0  0  0  0  0  0  0
    6.4621   -2.3186    0.0000 C   0  0  0  0  0  0  0  0  0  0  0  0
   -6.4621    0.8394    0.0000 C   0  0  0  0  0  0  0  0  0  0  0  0
   -5.7476    2.0769    0.0000 C   0  0  0  0  0  0  0  0  0  0  0  0
  1 13  2  0  0  0  0
  2  3  1  0  0  0  0
  2  5  1  0  0  0  0
  2 11  1  0  0  0  0
  3  7  2  0  0  0  0
  4 13  1  0  0  0  0
 16  4  1  6  0  0  0
  5  6  1  0  0  0  0
  5 10  2  0  0  0  0
  6  7  1  0  0  0  0
  6  8  2  0  0  0  0
  7 15  1  0  0  0  0
  8  9  1  0  0  0  0
  9 12  2  0  0  0  0
  9 13  1  0  0  0  0
 10 12  1  0  0  0  0
 11 14  1  0  0  0  0
 14 18  2  0  0  0  0
 14 19  1  0  0  0  0
 16 17  1  0  0  0  0
 16 27  1  0  0  0  0
 17 24  2  0  0  0  0
 17 26  1  0  0  0  0
 18 21  1  0  0  0  0
 19 22  2  0  0  0  0
 20 21  2  0  0  0  0
 20 22  1  0  0  0  0
 20 23  1  0  0  0  0
 23 31  2  0  0  0  0
 23 32  1  0  0  0  0
 24 25  1  0  0  0  0
 25 28  2  0  0  0  0
 25 30  1  0  0  0  0
 26 29  2  0  0  0  0
 27 35  3  0  0  0  0
 28 29  1  0  0  0  0
 30 37  1  0  0  0  0
 30 38  1  0  0  0  0
 31 33  1  0  0  0  0
 32 34  2  0  0  0  0
 33 36  2  0  0  0  0
 34 36  1  0  0  0  0
M  END
> <PUBCHEM_COMPOUND_ID_TYPE>
0

> <PUBCHEM_TOTAL_CHARGE>
0

> <PUBCHEM_SUBSTANCE_ID>
310947265

> <PUBCHEM_SUBSTANCE_VERSION>
1

> <PUBCHEM_EXT_DATASOURCE_NAME>
4488

> <PUBCHEM_EXT_DATASOURCE_REGID>
SCHEMBL16125420

> <PUBCHEM_SUBSTANCE_COMMENT>
InChI=1S/C34H31N3O/c1-5-32(29-13-9-12-28(20-29)23(2)3)35-34(38)30-18-19-33-31(21-30)24(4)36-37(33)22-25-14-16-27(17-15-25)26-10-7-6-8-11-26/h1,6-21,23,32H,22H2,2-4H3,(H,35,38)/t32-/m0/s1
InChIKey=UUTHEUSTAJACRG-YTTGMZPUSA-N

> <PUBCHEM_SUBSTANCE_SYNONYM>
SCHEMBL16125420

> <PUBCHEM_XREF_EXT_ID>
SCHEMBL16125420

> <PUBCHEM_EXT_DATASOURCE_URL>
https://www.surechembl.org/

> <PUBCHEM_EXT_SUBSTANCE_URL>
https://www.surechembl.org/chemical/SCHEMBL16125420

> <PUBCHEM_CID_ASSOCIATIONS>
117613069  1

> <PUBCHEM_COORDINATE_TYPE>
1
3

> <PUBCHEM_BONDANNOTATIONS>
16  4  6

$$$$
