310934346
  -OEChem-07211613022D

 28 32  0     0  0  0  0  0  0999 V2000
   -1.7309   -1.5395    0.0000 F   0  0  0  0  0  0  0  0  0  0  0  0
   -2.5559   -1.5395    0.0000 F   0  0  0  0  0  0  0  0  0  0  0  0
   -3.6116   -0.7480    0.0000 N   0  0  0  0  0  0  0  0  0  0  0  0
   -2.9441    0.4080    0.0000 N   0  0  0  0  0  0  0  0  0  0  0  0
   -3.8665   -1.5327    0.0000 N   0  0  0  0  0  0  0  0  0  0  0  0
   -3.7511    0.5795    0.0000 N   0  0  0  0  0  0  0  0  0  0  0  0
   -5.7130   -3.5688    0.0000 N   0  0  0  0  0  0  0  0  0  0  0  0
    0.7144    0.8250    0.0000 N   0  0  0  0  0  0  0  0  0  0  0  0
   -4.9284   -3.8237    0.0000 N   0  0  0  0  0  0  0  0  0  0  0  0
   -2.8579   -0.4125    0.0000 C   0  0  0  0  0  0  0  0  0  0  0  0
   -2.1434   -0.8250    0.0000 C   0  0  0  0  0  0  0  0  0  0  0  0
   -4.1636   -0.1349    0.0000 C   0  0  0  0  0  0  0  0  0  0  0  0
   -1.4290   -0.4125    0.0000 C   0  0  0  0  0  0  0  0  0  0  0  0
   -4.6734   -1.7042    0.0000 C   0  0  0  0  0  0  0  0  0  0  0  0
   -4.9706   -0.3065    0.0000 C   0  0  0  0  0  0  0  0  0  0  0  0
   -4.9284   -2.4888    0.0000 C   0  0  0  0  0  0  0  0  0  0  0  0
   -0.7144   -0.8250    0.0000 C   0  0  0  0  0  0  0  0  0  0  0  0
   -5.2255   -1.0911    0.0000 C   0  0  0  0  0  0  0  0  0  0  0  0
   -1.4290    0.4125    0.0000 C   0  0  0  0  0  0  0  0  0  0  0  0
    0.0000   -0.4125    0.0000 C   0  0  0  0  0  0  0  0  0  0  0  0
    0.0000    0.4125    0.0000 C   0  0  0  0  0  0  0  0  0  0  0  0
   -5.7130   -2.7438    0.0000 C   0  0  0  0  0  0  0  0  0  0  0  0
   -0.7144    0.8250    0.0000 C   0  0  0  0  0  0  0  0  0  0  0  0
   -4.4435   -3.1563    0.0000 C   0  0  0  0  0  0  0  0  0  0  0  0
    0.7144   -0.8250    0.0000 C   0  0  0  0  0  0  0  0  0  0  0  0
    1.4290   -0.4125    0.0000 C   0  0  0  0  0  0  0  0  0  0  0  0
    1.4290    0.4125    0.0000 C   0  0  0  0  0  0  0  0  0  0  0  0
   -6.3805   -2.2589    0.0000 C   0  0  0  0  0  0  0  0  0  0  0  0
  1 11  1  0  0  0  0
  2 11  1  0  0  0  0
  3  5  1  0  0  0  0
  3 10  1  0  0  0  0
  3 12  1  0  0  0  0
  4  6  1  0  0  0  0
  4 10  2  0  0  0  0
  5 14  2  0  0  0  0
  6 12  2  0  0  0  0
  7  9  1  0  0  0  0
  7 22  2  0  0  0  0
  8 21  1  0  0  0  0
  8 27  2  0  0  0  0
  9 24  1  0  0  0  0
 10 11  1  0  0  0  0
 11 13  1  0  0  0  0
 12 15  1  0  0  0  0
 13 17  1  0  0  0  0
 13 19  2  0  0  0  0
 14 16  1  0  0  0  0
 14 18  1  0  0  0  0
 15 18  2  0  0  0  0
 16 22  1  0  0  0  0
 16 24  2  0  0  0  0
 17 20  2  0  0  0  0
 19 23  1  0  0  0  0
 20 21  1  0  0  0  0
 20 25  1  0  0  0  0
 21 23  2  0  0  0  0
 22 28  1  0  0  0  0
 25 26  2  0  0  0  0
 26 27  1  0  0  0  0
M  END
> <PUBCHEM_COMPOUND_ID_TYPE>
0

> <PUBCHEM_TOTAL_CHARGE>
0

> <PUBCHEM_SUBSTANCE_ID>
310934346

> <PUBCHEM_SUBSTANCE_VERSION>
1

> <PUBCHEM_EXT_DATASOURCE_NAME>
4488

> <PUBCHEM_EXT_DATASOURCE_REGID>
SCHEMBL16111810

> <PUBCHEM_SUBSTANCE_COMMENT>
InChI=1S/C19H13F2N7/c1-11-14(10-23-24-11)16-6-7-17-25-26-18(28(17)27-16)19(20,21)13-4-5-15-12(9-13)3-2-8-22-15/h2-10H,1H3,(H,23,24)
InChIKey=KQCXOKLBZGGGKM-UHFFFAOYSA-N

> <PUBCHEM_SUBSTANCE_SYNONYM>
SCHEMBL16111810

> <PUBCHEM_XREF_EXT_ID>
SCHEMBL16111810

> <PUBCHEM_EXT_DATASOURCE_URL>
https://www.surechembl.org/

> <PUBCHEM_EXT_SUBSTANCE_URL>
https://www.surechembl.org/chemical/SCHEMBL16111810

> <PUBCHEM_CID_ASSOCIATIONS>
117602579  1

> <PUBCHEM_COORDINATE_TYPE>
1
3

$$$$
