310942761
  -OEChem-07211613022D

 45 50  0     1  0  0  0  0  0999 V2000
    4.3176    2.2627    0.0000 F   0  0  0  0  0  0  0  0  0  0  0  0
    5.4413    2.4320    0.0000 F   0  0  0  0  0  0  0  0  0  0  0  0
    5.5798    1.2930    0.0000 F   0  0  0  0  0  0  0  0  0  0  0  0
    1.8702    0.7234    0.0000 O   0  0  0  0  0  0  0  0  0  0  0  0
    2.3782   -1.3699    0.0000 O   0  0  0  0  0  0  0  0  0  0  0  0
    1.1159   -1.3084    0.0000 O   0  0  0  0  0  0  0  0  0  0  0  0
    3.3017    0.4002    0.0000 N   0  0  0  0  0  0  0  0  0  0  0  0
    4.0098   -0.9390    0.0000 N   0  0  0  0  0  0  0  0  0  0  0  0
    5.4566   -0.8466    0.0000 N   0  0  0  0  0  0  0  0  0  0  0  0
   -0.3309    0.2771    0.0000 N   0  0  3  0  0  0  0  0  0  0  0  0
    6.1031    0.4310    0.0000 N   0  0  0  0  0  0  0  0  0  0  0  0
   -2.7475   -1.2314    0.0000 N   0  0  0  0  0  0  0  0  0  0  0  0
   -3.4094   -2.3858    0.0000 N   0  0  0  0  0  0  0  0  0  0  0  0
    4.6562    0.3540    0.0000 C   0  0  0  0  0  0  0  0  0  0  0  0
    3.9790   -0.0924    0.0000 C   0  0  0  0  0  0  0  0  0  0  0  0
    4.4407    1.1236    0.0000 C   0  0  0  0  0  0  0  0  0  0  0  0
    2.5167    0.1847    0.0000 C   0  0  3  0  0  0  0  0  0  0  0  0
    3.6095    1.1544    0.0000 C   0  0  0  0  0  0  0  0  0  0  0  0
    2.1473   -0.5695    0.0000 C   0  0  3  0  0  0  0  0  0  0  0  0
    4.9487    1.7856    0.0000 C   0  0  0  0  0  0  0  0  0  0  0  0
    5.4258    0.0000    0.0000 C   0  0  0  0  0  0  0  0  0  0  0  0
    1.1467    0.3078    0.0000 C   0  0  3  0  0  0  0  0  0  0  0  0
    1.3007   -0.5080    0.0000 C   0  0  3  0  0  0  0  0  0  0  0  0
    0.4233    0.6926    0.0000 C   0  0  0  0  0  0  0  0  0  0  0  0
    4.7640   -1.2930    0.0000 C   0  0  0  0  0  0  0  0  0  0  0  0
   -0.5465   -0.5233    0.0000 C   0  0  0  0  0  0  0  0  0  0  0  0
   -0.8389   -1.6162    0.0000 C   0  0  0  0  0  0  0  0  0  0  0  0
   -1.2545   -0.9390    0.0000 C   0  0  0  0  0  0  0  0  0  0  0  0
   -0.1462   -1.2314    0.0000 C   0  0  0  0  0  0  0  0  0  0  0  0
   -1.0851    0.6926    0.0000 C   0  0  0  0  0  0  0  0  0  0  0  0
   -3.5788   -1.0621    0.0000 C   0  0  0  0  0  0  0  0  0  0  0  0
   -3.9790   -1.7701    0.0000 C   0  0  0  0  0  0  0  0  0  0  0  0
   -2.6398   -2.0318    0.0000 C   0  0  0  0  0  0  0  0  0  0  0  0
   -4.8409   -0.3540    0.0000 C   0  0  0  0  0  0  0  0  0  0  0  0
   -1.0390   -2.4166    0.0000 C   0  0  0  0  0  0  0  0  0  0  0  0
   -3.9943   -0.3694    0.0000 C   0  0  0  0  0  0  0  0  0  0  0  0
   -1.9317   -2.4320    0.0000 C   0  0  0  0  0  0  0  0  0  0  0  0
   -5.2719    0.3694    0.0000 C   0  0  0  0  0  0  0  0  0  0  0  0
   -4.8101   -1.7701    0.0000 C   0  0  0  0  0  0  0  0  0  0  0  0
   -5.2411   -1.0929    0.0000 C   0  0  0  0  0  0  0  0  0  0  0  0
   -1.0698    1.5239    0.0000 C   0  0  0  0  0  0  0  0  0  0  0  0
   -1.7778    0.2463    0.0000 C   0  0  0  0  0  0  0  0  0  0  0  0
   -6.1031    0.3233    0.0000 C   0  0  0  0  0  0  0  0  0  0  0  0
   -5.6875    1.0467    0.0000 C   0  0  0  0  0  0  0  0  0  0  0  0
   -4.8409    1.0621    0.0000 C   0  0  0  0  0  0  0  0  0  0  0  0
  1 20  1  0  0  0  0
  2 20  1  0  0  0  0
  3 20  1  0  0  0  0
 17  4  1  1  0  0  0
  4 22  1  0  0  0  0
 19  5  1  6  0  0  0
 23  6  1  6  0  0  0
  7 15  1  0  0  0  0
  7 17  1  0  0  0  0
  7 18  1  0  0  0  0
  8 15  1  0  0  0  0
  8 25  2  0  0  0  0
  9 21  2  0  0  0  0
  9 25  1  0  0  0  0
 10 24  1  0  0  0  0
 26 10  1  1  0  0  0
 10 30  1  0  0  0  0
 11 21  1  0  0  0  0
 12 31  1  0  0  0  0
 12 33  2  0  0  0  0
 13 32  1  0  0  0  0
 13 33  1  0  0  0  0
 14 15  2  0  0  0  0
 14 16  1  0  0  0  0
 14 21  1  0  0  0  0
 16 18  2  0  0  0  0
 16 20  1  0  0  0  0
 17 19  1  0  0  0  0
 19 23  1  0  0  0  0
 22 23  1  0  0  0  0
 22 24  1  1  0  0  0
 26 28  1  0  0  0  0
 26 29  1  0  0  0  0
 27 28  1  0  0  0  0
 27 29  1  0  0  0  0
 27 35  1  6  0  0  0
 30 41  1  0  0  0  0
 30 42  1  0  0  0  0
 31 32  2  0  0  0  0
 31 36  1  0  0  0  0
 32 39  1  0  0  0  0
 33 37  1  0  0  0  0
 34 36  2  0  0  0  0
 34 38  1  0  0  0  0
 34 40  1  0  0  0  0
 35 37  1  0  0  0  0
 38 43  1  0  0  0  0
 38 44  1  0  0  0  0
 38 45  1  0  0  0  0
 39 40  2  0  0  0  0
M  END
> <PUBCHEM_COMPOUND_ID_TYPE>
0

> <PUBCHEM_TOTAL_CHARGE>
0

> <PUBCHEM_SUBSTANCE_ID>
310942761

> <PUBCHEM_SUBSTANCE_VERSION>
1

> <PUBCHEM_EXT_DATASOURCE_NAME>
4488

> <PUBCHEM_EXT_DATASOURCE_REGID>
SCHEMBL16120814

> <PUBCHEM_SUBSTANCE_COMMENT>
InChI=1S/C32H42F3N7O3/c1-16(2)41(19-10-17(11-19)6-9-24-39-21-8-7-18(31(3,4)5)12-22(21)40-24)14-23-26(43)27(44)30(45-23)42-13-20(32(33,34)35)25-28(36)37-15-38-29(25)42/h7-8,12-13,15-17,19,23,26-27,30,43-44H,6,9-11,14H2,1-5H3,(H,39,40)(H2,36,37,38)/t17-,19-,23-,26-,27-,30-/m1/s1
InChIKey=NPGYTUOCAQWKSL-XENOUKJNSA-N

> <PUBCHEM_SUBSTANCE_SYNONYM>
SCHEMBL16120814

> <PUBCHEM_XREF_EXT_ID>
SCHEMBL16120814

> <PUBCHEM_EXT_DATASOURCE_URL>
https://www.surechembl.org/

> <PUBCHEM_EXT_SUBSTANCE_URL>
https://www.surechembl.org/chemical/SCHEMBL16120814

> <PUBCHEM_CID_ASSOCIATIONS>
86275201  1

> <PUBCHEM_COORDINATE_TYPE>
1
3

> <PUBCHEM_BONDANNOTATIONS>
26  10  5
22  24  5
27  35  6
17  4  5
19  5  6
23  6  6

$$$$
