310939990
  -OEChem-07211613022D

 11 11  0     0  0  0  0  0  0999 V2000
  -13.6475   10.0134    0.0000 I   0  0  0  0  0  0  0  0  0  0  0  0
  -13.6475    8.3634    0.0000 Cl  0  0  0  0  0  0  0  0  0  0  0  0
  -10.7897    8.3634    0.0000 O   0  0  0  0  0  0  0  0  0  0  0  0
  -10.7897   10.0134    0.0000 N   0  0  0  0  0  0  0  0  0  0  0  0
  -11.5041    8.7759    0.0000 C   0  0  0  0  0  0  0  0  0  0  0  0
  -12.9331    8.7759    0.0000 C   0  0  0  0  0  0  0  0  0  0  0  0
  -11.5041    9.6009    0.0000 C   0  0  0  0  0  0  0  0  0  0  0  0
  -12.9331    9.6009    0.0000 C   0  0  0  0  0  0  0  0  0  0  0  0
  -12.2186    8.3634    0.0000 C   0  0  0  0  0  0  0  0  0  0  0  0
  -12.2186   10.0134    0.0000 C   0  0  0  0  0  0  0  0  0  0  0  0
  -10.0752    8.7759    0.0000 C   0  0  0  0  0  0  0  0  0  0  0  0
  1  8  1  0  0  0  0
  2  6  1  0  0  0  0
  3  5  1  0  0  0  0
  3 11  1  0  0  0  0
  4  7  1  0  0  0  0
  5  7  1  0  0  0  0
  5  9  2  0  0  0  0
  6  8  2  0  0  0  0
  6  9  1  0  0  0  0
  7 10  2  0  0  0  0
  8 10  1  0  0  0  0
M  END
> <PUBCHEM_COMPOUND_ID_TYPE>
0

> <PUBCHEM_TOTAL_CHARGE>
0

> <PUBCHEM_SUBSTANCE_ID>
310939990

> <PUBCHEM_SUBSTANCE_VERSION>
1

> <PUBCHEM_EXT_DATASOURCE_NAME>
4488

> <PUBCHEM_EXT_DATASOURCE_REGID>
SCHEMBL16117920

> <PUBCHEM_SUBSTANCE_COMMENT>
InChI=1S/C7H7ClINO/c1-11-7-2-4(8)5(9)3-6(7)10/h2-3H,10H2,1H3
InChIKey=YAVPMCPZPHTTHT-UHFFFAOYSA-N

> <PUBCHEM_SUBSTANCE_SYNONYM>
SCHEMBL16117920

> <PUBCHEM_XREF_EXT_ID>
SCHEMBL16117920

> <PUBCHEM_EXT_DATASOURCE_URL>
https://www.surechembl.org/

> <PUBCHEM_EXT_SUBSTANCE_URL>
https://www.surechembl.org/chemical/SCHEMBL16117920

> <PUBCHEM_CID_ASSOCIATIONS>
91758377  1

> <PUBCHEM_COORDINATE_TYPE>
1
3

$$$$
