310944963
  -OEChem-07211613022D

 13 12  0     0  0  0  0  0  0999 V2000
    0.2822   -1.0391    0.0000 O   0  0  0  0  0  0  0  0  0  0  0  0
   -1.8649    1.0391    0.0000 O   0  0  0  0  0  0  0  0  0  0  0  0
    0.2822   -0.1582    0.0000 C   0  0  0  0  0  0  0  0  0  0  0  0
   -0.4473    0.2271    0.0000 C   0  0  0  0  0  0  0  0  0  0  0  0
   -1.8786    0.2133    0.0000 C   0  0  0  0  0  0  0  0  0  0  0  0
   -1.1492   -0.1858    0.0000 C   0  0  0  0  0  0  0  0  0  0  0  0
    0.9427    0.1858    0.0000 C   0  0  0  0  0  0  0  0  0  0  0  0
    1.7272   -0.1995    0.0000 C   0  0  0  0  0  0  0  0  0  0  0  0
   -2.3741   -0.0206    0.0000 C   0  0  0  0  0  0  0  0  0  0  0  0
   -2.4429   -0.4473    0.0000 C   0  0  0  0  0  0  0  0  0  0  0  0
    2.4429    0.2409    0.0000 C   0  0  0  0  0  0  0  0  0  0  0  0
    1.7272   -1.0391    0.0000 C   0  0  0  0  0  0  0  0  0  0  0  0
   -2.4292   -0.8877    0.0000 C   0  0  0  0  0  0  0  0  0  0  0  0
  1  3  2  0  0  0  0
  2  5  2  0  0  0  0
  3  4  1  0  0  0  0
  3  7  1  0  0  0  0
  4  6  1  0  0  0  0
  5  6  1  0  0  0  0
  5  9  1  0  0  0  0
  7  8  2  0  0  0  0
  8 11  1  0  0  0  0
  8 12  1  0  0  0  0
  9 10  1  0  0  0  0
 10 13  1  0  0  0  0
M  END
> <PUBCHEM_COMPOUND_ID_TYPE>
0

> <PUBCHEM_TOTAL_CHARGE>
0

> <PUBCHEM_SUBSTANCE_ID>
310944963

> <PUBCHEM_SUBSTANCE_VERSION>
1

> <PUBCHEM_EXT_DATASOURCE_NAME>
4488

> <PUBCHEM_EXT_DATASOURCE_REGID>
SCHEMBL16123051

> <PUBCHEM_SUBSTANCE_COMMENT>
InChI=1S/C11H18O2/c1-4-5-10(12)6-7-11(13)8-9(2)3/h8H,4-7H2,1-3H3
InChIKey=VEXCLSUJOGRAGY-UHFFFAOYSA-N

> <PUBCHEM_SUBSTANCE_SYNONYM>
SCHEMBL16123051

> <PUBCHEM_XREF_EXT_ID>
SCHEMBL16123051

> <PUBCHEM_EXT_DATASOURCE_URL>
https://www.surechembl.org/

> <PUBCHEM_EXT_SUBSTANCE_URL>
https://www.surechembl.org/chemical/SCHEMBL16123051

> <PUBCHEM_CID_ASSOCIATIONS>
12348655  1

> <PUBCHEM_COORDINATE_TYPE>
1
3

$$$$
