310933207
  -OEChem-07211613022D

 24 26  0     1  0  0  0  0  0999 V2000
    2.5330    0.5621    0.0000 O   0  0  0  0  0  0  0  0  0  0  0  0
   -0.6180    1.9181    0.0000 O   0  5  0  0  0  0  0  0  0  0  0  0
    0.7622    2.2880    0.0000 O   0  0  0  0  0  0  0  0  0  0  0  0
    1.0178   -0.2584    0.0000 N   0  0  3  0  0  0  0  0  0  0  0  0
    0.1788    1.7046    0.0000 N   0  3  0  0  0  0  0  0  0  0  0  0
    0.3504    0.8977    0.0000 C   0  0  3  0  0  0  0  0  0  0  0  0
   -0.2017    0.2845    0.0000 C   0  0  3  0  0  0  0  0  0  0  0  0
    1.1041    0.5621    0.0000 C   0  0  3  0  0  0  0  0  0  0  0  0
    0.2108   -0.4299    0.0000 C   0  0  0  0  0  0  0  0  0  0  0  0
   -1.0221    0.3708    0.0000 C   0  0  0  0  0  0  0  0  0  0  0  0
    1.8185    0.9746    0.0000 C   0  0  0  0  0  0  0  0  0  0  0  0
   -1.3577    1.1245    0.0000 C   0  0  0  0  0  0  0  0  0  0  0  0
   -1.5070   -0.2966    0.0000 C   0  0  0  0  0  0  0  0  0  0  0  0
    1.6309   -0.8104    0.0000 C   0  0  0  0  0  0  0  0  0  0  0  0
   -2.1782    1.2107    0.0000 C   0  0  0  0  0  0  0  0  0  0  0  0
   -2.3276   -0.2104    0.0000 C   0  0  0  0  0  0  0  0  0  0  0  0
    3.2475    0.9746    0.0000 C   0  0  0  0  0  0  0  0  0  0  0  0
   -2.6631    0.5433    0.0000 C   0  0  0  0  0  0  0  0  0  0  0  0
    3.9619    0.5621    0.0000 C   0  0  0  0  0  0  0  0  0  0  0  0
    3.9619   -0.2629    0.0000 C   0  0  0  0  0  0  0  0  0  0  0  0
    4.6764    0.9746    0.0000 C   0  0  0  0  0  0  0  0  0  0  0  0
    4.6764   -0.6754    0.0000 C   0  0  0  0  0  0  0  0  0  0  0  0
    5.3909    0.5621    0.0000 C   0  0  0  0  0  0  0  0  0  0  0  0
    5.3909   -0.2629    0.0000 C   0  0  0  0  0  0  0  0  0  0  0  0
  1 11  1  0  0  0  0
  1 17  1  0  0  0  0
  2  5  1  0  0  0  0
  3  5  2  0  0  0  0
  4  8  1  0  0  0  0
  4  9  1  0  0  0  0
  4 14  1  0  0  0  0
  6  5  1  6  0  0  0
  6  7  1  0  0  0  0
  6  8  1  0  0  0  0
  7  9  1  1  0  0  0
  7 10  1  0  0  0  0
  8 11  1  1  0  0  0
 10 12  2  0  0  0  0
 10 13  1  0  0  0  0
 12 15  1  0  0  0  0
 13 16  2  0  0  0  0
 15 18  2  0  0  0  0
 16 18  1  0  0  0  0
 17 19  1  0  0  0  0
 19 20  2  0  0  0  0
 19 21  1  0  0  0  0
 20 22  1  0  0  0  0
 21 23  2  0  0  0  0
 22 24  2  0  0  0  0
 23 24  1  0  0  0  0
M  CHG  2   2  -1   5   1
M  END
> <PUBCHEM_COMPOUND_ID_TYPE>
0

> <PUBCHEM_TOTAL_CHARGE>
0

> <PUBCHEM_SUBSTANCE_ID>
310933207

> <PUBCHEM_SUBSTANCE_VERSION>
1

> <PUBCHEM_EXT_DATASOURCE_NAME>
4488

> <PUBCHEM_EXT_DATASOURCE_REGID>
SCHEMBL16110616

> <PUBCHEM_SUBSTANCE_COMMENT>
InChI=1S/C19H22N2O3/c1-20-12-17(16-10-6-3-7-11-16)19(21(22)23)18(20)14-24-13-15-8-4-2-5-9-15/h2-11,17-19H,12-14H2,1H3/t17-,18+,19-/m0/s1
InChIKey=SUWYEZGIMBRWFU-OTWHNJEPSA-N

> <PUBCHEM_SUBSTANCE_SYNONYM>
SCHEMBL16110616

> <PUBCHEM_XREF_EXT_ID>
SCHEMBL16110616

> <PUBCHEM_EXT_DATASOURCE_URL>
https://www.surechembl.org/

> <PUBCHEM_EXT_SUBSTANCE_URL>
https://www.surechembl.org/chemical/SCHEMBL16110616

> <PUBCHEM_CID_ASSOCIATIONS>
117601646  1

> <PUBCHEM_COORDINATE_TYPE>
1
3

> <PUBCHEM_BONDANNOTATIONS>
6  5  6
7  9  5
8  11  5

$$$$
