310949494
  -OEChem-07211613022D

 31 34  0     1  0  0  0  0  0999 V2000
   -2.1623    2.7829    0.0000 F   0  0  0  0  0  0  0  0  0  0  0  0
   -3.9852    1.2314    0.0000 F   0  0  0  0  0  0  0  0  0  0  0  0
   -4.2954    2.3756    0.0000 F   0  0  0  0  0  0  0  0  0  0  0  0
   -3.1707    2.6665    0.0000 F   0  0  0  0  0  0  0  0  0  0  0  0
    3.1707   -2.7829    0.0000 F   0  0  0  0  0  0  0  0  0  0  0  0
   -0.7466    2.7829    0.0000 O   0  0  0  0  0  0  0  0  0  0  0  0
   -0.0291    1.5223    0.0000 N   0  0  0  0  0  0  0  0  0  0  0  0
    2.1623    0.4169    0.0000 N   0  0  0  0  0  0  0  0  0  0  0  0
    2.1623    1.7744    0.0000 N   0  0  0  0  0  0  0  0  0  0  0  0
    2.6471    1.0957    0.0000 N   0  0  0  0  0  0  0  0  0  0  0  0
   -2.8798    0.6884    0.0000 N   0  0  0  0  0  0  0  0  0  0  0  0
    1.8520   -0.9987    0.0000 N   0  0  0  0  0  0  0  0  0  0  0  0
    1.3866    0.6884    0.0000 C   0  0  0  0  0  0  0  0  0  0  0  0
    1.3866    1.5029    0.0000 C   0  0  0  0  0  0  0  0  0  0  0  0
    0.6691    1.9489    0.0000 C   0  0  3  0  0  0  0  0  0  0  0  0
   -0.7466    1.9101    0.0000 C   0  0  0  0  0  0  0  0  0  0  0  0
   -1.4447    1.5223    0.0000 C   0  0  0  0  0  0  0  0  0  0  0  0
    2.4144   -0.3588    0.0000 C   0  0  0  0  0  0  0  0  0  0  0  0
   -2.1623    1.9489    0.0000 C   0  0  0  0  0  0  0  0  0  0  0  0
    0.6691    0.2618    0.0000 C   0  0  0  0  0  0  0  0  0  0  0  0
   -0.0291    0.6884    0.0000 C   0  0  0  0  0  0  0  0  0  0  0  0
   -2.8604    1.5417    0.0000 C   0  0  0  0  0  0  0  0  0  0  0  0
   -3.5779    1.9489    0.0000 C   0  0  0  0  0  0  0  0  0  0  0  0
   -1.4641    0.6691    0.0000 C   0  0  0  0  0  0  0  0  0  0  0  0
    3.2289   -0.5721    0.0000 C   0  0  0  0  0  0  0  0  0  0  0  0
    0.6884    2.7634    0.0000 C   0  0  0  0  0  0  0  0  0  0  0  0
   -2.1429    0.2812    0.0000 C   0  0  0  0  0  0  0  0  0  0  0  0
    3.4616   -1.3284    0.0000 C   0  0  0  0  0  0  0  0  0  0  0  0
    2.9186   -2.0071    0.0000 C   0  0  0  0  0  0  0  0  0  0  0  0
    2.1235   -1.7938    0.0000 C   0  0  0  0  0  0  0  0  0  0  0  0
    4.2954   -1.5223    0.0000 C   0  0  0  0  0  0  0  0  0  0  0  0
  1 19  1  0  0  0  0
  2 23  1  0  0  0  0
  3 23  1  0  0  0  0
  4 23  1  0  0  0  0
  5 29  1  0  0  0  0
  6 16  2  0  0  0  0
  7 15  1  0  0  0  0
  7 16  1  0  0  0  0
  7 21  1  0  0  0  0
  8 10  1  0  0  0  0
  8 13  1  0  0  0  0
  8 18  1  0  0  0  0
  9 10  2  0  0  0  0
  9 14  1  0  0  0  0
 11 22  1  0  0  0  0
 11 27  2  0  0  0  0
 12 18  2  0  0  0  0
 12 30  1  0  0  0  0
 13 14  2  0  0  0  0
 13 20  1  0  0  0  0
 14 15  1  0  0  0  0
 15 26  1  1  0  0  0
 16 17  1  0  0  0  0
 17 19  1  0  0  0  0
 17 24  2  0  0  0  0
 18 25  1  0  0  0  0
 19 22  2  0  0  0  0
 20 21  1  0  0  0  0
 22 23  1  0  0  0  0
 24 27  1  0  0  0  0
 25 28  2  0  0  0  0
 28 29  1  0  0  0  0
 28 31  1  0  0  0  0
 29 30  2  0  0  0  0
M  END
> <PUBCHEM_COMPOUND_ID_TYPE>
0

> <PUBCHEM_TOTAL_CHARGE>
0

> <PUBCHEM_SUBSTANCE_ID>
310949494

> <PUBCHEM_SUBSTANCE_VERSION>
1

> <PUBCHEM_EXT_DATASOURCE_NAME>
4488

> <PUBCHEM_EXT_DATASOURCE_REGID>
SCHEMBL16127689

> <PUBCHEM_SUBSTANCE_COMMENT>
InChI=1S/C19H15F5N6O/c1-9-7-14(26-8-12(9)20)30-13-4-6-29(10(2)16(13)27-28-30)18(31)11-3-5-25-17(15(11)21)19(22,23)24/h3,5,7-8,10H,4,6H2,1-2H3/t10-/m0/s1
InChIKey=PRDUJOCOLHYJBS-JTQLQIEISA-N

> <PUBCHEM_SUBSTANCE_SYNONYM>
SCHEMBL16127689

> <PUBCHEM_XREF_EXT_ID>
SCHEMBL16127689

> <PUBCHEM_EXT_DATASOURCE_URL>
https://www.surechembl.org/

> <PUBCHEM_EXT_SUBSTANCE_URL>
https://www.surechembl.org/chemical/SCHEMBL16127689

> <PUBCHEM_CID_ASSOCIATIONS>
117614936  1

> <PUBCHEM_COORDINATE_TYPE>
1
3

> <PUBCHEM_BONDANNOTATIONS>
15  26  5

$$$$
