310933546
  -OEChem-07211613022D

 38 43  0     1  0  0  0  0  0999 V2000
    5.8071   -3.5724    0.0000 Cl  0  0  0  0  0  0  0  0  0  0  0  0
   -2.1434   -0.8250    0.0000 F   0  0  0  0  0  0  0  0  0  0  0  0
    5.8071    0.7144    0.0000 F   0  0  0  0  0  0  0  0  0  0  0  0
    1.2696   -1.4290    0.0000 O   0  0  0  0  0  0  0  0  0  0  0  0
    2.5071   -0.7144    0.0000 N   0  0  0  0  0  0  0  0  0  0  0  0
    0.7846   -0.6674    0.0000 N   0  0  0  0  0  0  0  0  0  0  0  0
    0.7846    0.6674    0.0000 N   0  0  0  0  0  0  0  0  0  0  0  0
    2.5071   -3.5724    0.0000 N   0  0  0  0  0  0  0  0  0  0  0  0
    2.0221   -4.2398    0.0000 N   0  0  0  0  0  0  0  0  0  0  0  0
    1.2375   -3.9849    0.0000 N   0  0  0  0  0  0  0  0  0  0  0  0
    1.2375   -3.1599    0.0000 N   0  0  0  0  0  0  0  0  0  0  0  0
    2.0946    0.0000    0.0000 C   0  0  3  0  0  0  0  0  0  0  0  0
    1.2696    0.0000    0.0000 C   0  0  0  0  0  0  0  0  0  0  0  0
    3.7446   -2.8579    0.0000 C   0  0  0  0  0  0  0  0  0  0  0  0
    3.3321   -2.1434    0.0000 C   0  0  0  0  0  0  0  0  0  0  0  0
    0.0000   -0.4125    0.0000 C   0  0  0  0  0  0  0  0  0  0  0  0
    0.0000    0.4125    0.0000 C   0  0  0  0  0  0  0  0  0  0  0  0
    2.0946   -1.4290    0.0000 C   0  0  0  0  0  0  0  0  0  0  0  0
    3.3321   -3.5724    0.0000 C   0  0  0  0  0  0  0  0  0  0  0  0
    2.5071   -2.1434    0.0000 C   0  0  0  0  0  0  0  0  0  0  0  0
    3.3321   -0.7144    0.0000 C   0  0  0  0  0  0  0  0  0  0  0  0
    3.7446   -1.4290    0.0000 C   0  0  0  0  0  0  0  0  0  0  0  0
    2.5071    0.7144    0.0000 C   0  0  0  0  0  0  0  0  0  0  0  0
    4.5696   -2.8579    0.0000 C   0  0  0  0  0  0  0  0  0  0  0  0
   -0.7144   -0.8250    0.0000 C   0  0  0  0  0  0  0  0  0  0  0  0
   -0.7144    0.8250    0.0000 C   0  0  0  0  0  0  0  0  0  0  0  0
    3.7446   -4.2868    0.0000 C   0  0  0  0  0  0  0  0  0  0  0  0
    4.9821   -3.5724    0.0000 C   0  0  0  0  0  0  0  0  0  0  0  0
    3.3321    0.7144    0.0000 C   0  0  0  0  0  0  0  0  0  0  0  0
   -1.4290   -0.4125    0.0000 C   0  0  0  0  0  0  0  0  0  0  0  0
    4.5696   -4.2868    0.0000 C   0  0  0  0  0  0  0  0  0  0  0  0
   -1.4290    0.4125    0.0000 C   0  0  0  0  0  0  0  0  0  0  0  0
    2.0221   -2.9049    0.0000 C   0  0  0  0  0  0  0  0  0  0  0  0
    3.7446    0.0000    0.0000 C   0  0  0  0  0  0  0  0  0  0  0  0
    3.7446    1.4290    0.0000 C   0  0  0  0  0  0  0  0  0  0  0  0
    4.5696    0.0000    0.0000 C   0  0  0  0  0  0  0  0  0  0  0  0
    4.5696    1.4290    0.0000 C   0  0  0  0  0  0  0  0  0  0  0  0
    4.9821    0.7144    0.0000 C   0  0  0  0  0  0  0  0  0  0  0  0
  1 28  1  0  0  0  0
  2 30  1  0  0  0  0
  3 38  1  0  0  0  0
  4 18  2  0  0  0  0
  5 12  1  0  0  0  0
  5 18  1  0  0  0  0
  5 21  1  0  0  0  0
  6 13  2  0  0  0  0
  6 16  1  0  0  0  0
  7 13  1  0  0  0  0
  7 17  1  0  0  0  0
  8  9  1  0  0  0  0
  8 19  1  0  0  0  0
  8 33  1  0  0  0  0
  9 10  2  0  0  0  0
 10 11  1  0  0  0  0
 11 33  2  0  0  0  0
 12 13  1  0  0  0  0
 12 23  1  6  0  0  0
 14 15  1  0  0  0  0
 14 19  1  0  0  0  0
 14 24  2  0  0  0  0
 15 20  2  0  0  0  0
 15 22  1  0  0  0  0
 16 17  1  0  0  0  0
 16 25  2  0  0  0  0
 17 26  2  0  0  0  0
 18 20  1  0  0  0  0
 19 27  2  0  0  0  0
 21 22  2  0  0  0  0
 23 29  1  0  0  0  0
 24 28  1  0  0  0  0
 25 30  1  0  0  0  0
 26 32  1  0  0  0  0
 27 31  1  0  0  0  0
 28 31  2  0  0  0  0
 29 34  2  0  0  0  0
 29 35  1  0  0  0  0
 30 32  2  0  0  0  0
 34 36  1  0  0  0  0
 35 37  2  0  0  0  0
 36 38  2  0  0  0  0
 37 38  1  0  0  0  0
M  END
> <PUBCHEM_COMPOUND_ID_TYPE>
0

> <PUBCHEM_TOTAL_CHARGE>
0

> <PUBCHEM_SUBSTANCE_ID>
310933546

> <PUBCHEM_SUBSTANCE_VERSION>
1

> <PUBCHEM_EXT_DATASOURCE_NAME>
4488

> <PUBCHEM_EXT_DATASOURCE_REGID>
SCHEMBL16110969

> <PUBCHEM_SUBSTANCE_COMMENT>
InChI=1S/C27H18ClF2N7O/c28-18-3-8-24(37-15-31-34-35-37)21(13-18)17-9-10-36(26(38)12-17)25(11-16-1-4-19(29)5-2-16)27-32-22-7-6-20(30)14-23(22)33-27/h1-10,12-15,25H,11H2,(H,32,33)/t25-/m0/s1
InChIKey=ICZZLLALJDZBNX-VWLOTQADSA-N

> <PUBCHEM_SUBSTANCE_SYNONYM>
SCHEMBL16110969

> <PUBCHEM_XREF_EXT_ID>
SCHEMBL16110969

> <PUBCHEM_EXT_DATASOURCE_URL>
https://www.surechembl.org/

> <PUBCHEM_EXT_SUBSTANCE_URL>
https://www.surechembl.org/chemical/SCHEMBL16110969

> <PUBCHEM_CID_ASSOCIATIONS>
86301227  1

> <PUBCHEM_COORDINATE_TYPE>
1
3

> <PUBCHEM_BONDANNOTATIONS>
12  23  6

$$$$
