310937195
  -OEChem-07211613022D

 33 35  0     1  0  0  0  0  0999 V2000
  -11.4316   -0.8250    0.0000 O   0  0  0  0  0  0  0  0  0  0  0  0
  -12.0286    1.5301    0.0000 O   0  0  0  0  0  0  0  0  0  0  0  0
  -13.5750    1.2375    0.0000 O   0  0  0  0  0  0  0  0  0  0  0  0
  -15.7184   -0.8250    0.0000 O   0  0  0  0  0  0  0  0  0  0  0  0
  -10.7171    0.4125    0.0000 N   0  0  0  0  0  0  0  0  0  0  0  0
  -11.0724    2.5920    0.0000 N   0  0  0  0  0  0  0  0  0  0  0  0
  -12.8605    0.0000    0.0000 N   0  0  0  0  0  0  0  0  0  0  0  0
  -15.0039    0.4125    0.0000 N   0  0  0  0  0  0  0  0  0  0  0  0
  -10.8494    4.3006    0.0000 N   0  0  0  0  0  0  0  0  0  0  0  0
  -12.1679    4.5094    0.0000 N   0  0  0  0  0  0  0  0  0  0  0  0
  -10.9785    5.1154    0.0000 N   0  0  0  0  0  0  0  0  0  0  0  0
  -11.7933    5.2445    0.0000 N   0  0  0  0  0  0  0  0  0  0  0  0
   -9.9634    0.0770    0.0000 C   0  0  0  0  0  0  0  0  0  0  0  0
  -10.6308    1.2330    0.0000 C   0  0  3  0  0  0  0  0  0  0  0  0
   -9.4114    0.6901    0.0000 C   0  0  0  0  0  0  0  0  0  0  0  0
   -9.8239    1.4045    0.0000 C   0  0  0  0  0  0  0  0  0  0  0  0
  -11.4316    0.0000    0.0000 C   0  0  0  0  0  0  0  0  0  0  0  0
  -11.2439    1.7850    0.0000 C   0  0  0  0  0  0  0  0  0  0  0  0
   -9.7084   -0.7077    0.0000 C   0  0  0  0  0  0  0  0  0  0  0  0
   -8.6044    0.5185    0.0000 C   0  0  0  0  0  0  0  0  0  0  0  0
  -12.1460    0.4125    0.0000 C   0  0  0  0  0  0  0  0  0  0  0  0
   -8.9015   -0.8792    0.0000 C   0  0  0  0  0  0  0  0  0  0  0  0
   -8.3495   -0.2661    0.0000 C   0  0  0  0  0  0  0  0  0  0  0  0
  -13.5750    0.4125    0.0000 C   0  0  0  0  0  0  0  0  0  0  0  0
  -11.7135    3.1112    0.0000 C   0  0  0  0  0  0  0  0  0  0  0  0
  -14.2894    0.0000    0.0000 C   0  0  3  0  0  0  0  0  0  0  0  0
  -11.5845    3.9260    0.0000 C   0  0  0  0  0  0  0  0  0  0  0  0
  -14.2894   -0.8250    0.0000 C   0  0  3  0  0  0  0  0  0  0  0  0
  -15.7184    0.0000    0.0000 C   0  0  0  0  0  0  0  0  0  0  0  0
  -15.0039   -1.2375    0.0000 C   0  0  0  0  0  0  0  0  0  0  0  0
  -13.5750   -1.2375    0.0000 C   0  0  0  0  0  0  0  0  0  0  0  0
  -16.4328    0.4125    0.0000 C   0  0  0  0  0  0  0  0  0  0  0  0
  -15.0039   -2.0625    0.0000 C   0  0  0  0  0  0  0  0  0  0  0  0
  1 17  2  0  0  0  0
  2 18  2  0  0  0  0
  3 24  2  0  0  0  0
  4 29  2  0  0  0  0
  5 13  1  0  0  0  0
  5 14  1  0  0  0  0
  5 17  1  0  0  0  0
  6 18  1  0  0  0  0
  6 25  1  0  0  0  0
  7 21  1  0  0  0  0
  7 24  1  0  0  0  0
  8 26  1  0  0  0  0
  8 29  1  0  0  0  0
  9 11  2  0  0  0  0
  9 27  1  0  0  0  0
 10 12  1  0  0  0  0
 10 27  2  0  0  0  0
 11 12  1  0  0  0  0
 13 15  2  0  0  0  0
 13 19  1  0  0  0  0
 14 16  1  0  0  0  0
 14 18  1  6  0  0  0
 15 16  1  0  0  0  0
 15 20  1  0  0  0  0
 17 21  1  0  0  0  0
 19 22  2  0  0  0  0
 20 23  2  0  0  0  0
 22 23  1  0  0  0  0
 24 26  1  0  0  0  0
 25 27  1  0  0  0  0
 26 28  1  0  0  0  0
 28 30  1  0  0  0  0
 28 31  1  0  0  0  0
 29 32  1  0  0  0  0
 30 33  1  0  0  0  0
M  END
> <PUBCHEM_COMPOUND_ID_TYPE>
0

> <PUBCHEM_TOTAL_CHARGE>
0

> <PUBCHEM_SUBSTANCE_ID>
310937195

> <PUBCHEM_SUBSTANCE_VERSION>
1

> <PUBCHEM_EXT_DATASOURCE_NAME>
4488

> <PUBCHEM_EXT_DATASOURCE_REGID>
SCHEMBL16114922

> <PUBCHEM_SUBSTANCE_COMMENT>
InChI=1S/C21H28N8O4/c1-4-12(2)19(24-13(3)30)21(33)23-11-18(31)29-15-8-6-5-7-14(15)9-16(29)20(32)22-10-17-25-27-28-26-17/h5-8,12,16,19H,4,9-11H2,1-3H3,(H,22,32)(H,23,33)(H,24,30)(H,25,26,27,28)/t12?,16-,19?/m0/s1
InChIKey=WTTPANCAUQEZAM-CHLGFOLGSA-N

> <PUBCHEM_SUBSTANCE_SYNONYM>
SCHEMBL16114922

> <PUBCHEM_XREF_EXT_ID>
SCHEMBL16114922

> <PUBCHEM_EXT_DATASOURCE_URL>
https://www.surechembl.org/

> <PUBCHEM_EXT_SUBSTANCE_URL>
https://www.surechembl.org/chemical/SCHEMBL16114922

> <PUBCHEM_CID_ASSOCIATIONS>
117605009  1

> <PUBCHEM_COORDINATE_TYPE>
1
3

> <PUBCHEM_BONDANNOTATIONS>
14  18  6

$$$$
