310948407
  -OEChem-07211613022D

 23 26  0     0  0  0  0  0  0999 V2000
    2.6101   -0.6781    0.0000 F   0  0  0  0  0  0  0  0  0  0  0  0
   -1.9041   -1.7741    0.0000 O   0  0  0  0  0  0  0  0  0  0  0  0
   -0.3808    0.5666    0.0000 N   0  0  0  0  0  0  0  0  0  0  0  0
    0.1021   -0.1021    0.0000 N   0  0  0  0  0  0  0  0  0  0  0  0
   -0.1207   -1.5697    0.0000 N   0  0  0  0  0  0  0  0  0  0  0  0
   -2.6101   -0.5294    0.0000 N   0  0  0  0  0  0  0  0  0  0  0  0
    2.3129   -2.0899    0.0000 N   0  0  0  0  0  0  0  0  0  0  0  0
   -1.1797   -0.5109    0.0000 C   0  0  0  0  0  0  0  0  0  0  0  0
   -1.1611    0.3251    0.0000 C   0  0  0  0  0  0  0  0  0  0  0  0
   -0.3808   -0.7895    0.0000 C   0  0  0  0  0  0  0  0  0  0  0  0
   -1.8856   -0.9196    0.0000 C   0  0  0  0  0  0  0  0  0  0  0  0
   -0.1207    1.3840    0.0000 C   0  0  0  0  0  0  0  0  0  0  0  0
   -1.9041    0.7338    0.0000 C   0  0  0  0  0  0  0  0  0  0  0  0
    0.6781   -1.7555    0.0000 C   0  0  0  0  0  0  0  0  0  0  0  0
   -2.5915    0.3251    0.0000 C   0  0  0  0  0  0  0  0  0  0  0  0
   -0.6037    2.0342    0.0000 C   0  0  0  0  0  0  0  0  0  0  0  0
    0.6595    1.6255    0.0000 C   0  0  0  0  0  0  0  0  0  0  0  0
    1.2354   -1.1239    0.0000 C   0  0  0  0  0  0  0  0  0  0  0  0
    0.9382   -2.5358    0.0000 C   0  0  0  0  0  0  0  0  0  0  0  0
   -0.1207    2.7030    0.0000 C   0  0  0  0  0  0  0  0  0  0  0  0
    0.6595    2.4429    0.0000 C   0  0  0  0  0  0  0  0  0  0  0  0
    2.0528   -1.2911    0.0000 C   0  0  0  0  0  0  0  0  0  0  0  0
    1.7555   -2.7030    0.0000 C   0  0  0  0  0  0  0  0  0  0  0  0
  1 22  1  0  0  0  0
  2 11  2  0  0  0  0
  3  4  1  0  0  0  0
  3  9  1  0  0  0  0
  3 12  1  0  0  0  0
  4 10  2  0  0  0  0
  5 10  1  0  0  0  0
  5 14  1  0  0  0  0
  6 11  1  0  0  0  0
  6 15  1  0  0  0  0
  7 22  1  0  0  0  0
  7 23  2  0  0  0  0
  8  9  2  0  0  0  0
  8 10  1  0  0  0  0
  8 11  1  0  0  0  0
  9 13  1  0  0  0  0
 12 16  1  0  0  0  0
 12 17  1  0  0  0  0
 13 15  2  0  0  0  0
 14 18  1  0  0  0  0
 14 19  2  0  0  0  0
 16 20  1  0  0  0  0
 17 21  1  0  0  0  0
 18 22  2  0  0  0  0
 19 23  1  0  0  0  0
 20 21  1  0  0  0  0
M  END
> <PUBCHEM_COMPOUND_ID_TYPE>
0

> <PUBCHEM_TOTAL_CHARGE>
0

> <PUBCHEM_SUBSTANCE_ID>
310948407

> <PUBCHEM_SUBSTANCE_VERSION>
1

> <PUBCHEM_EXT_DATASOURCE_NAME>
4488

> <PUBCHEM_EXT_DATASOURCE_REGID>
SCHEMBL16126588

> <PUBCHEM_SUBSTANCE_COMMENT>
InChI=1S/C16H16FN5O/c17-13-9-10(5-7-18-13)20-15-14-12(6-8-19-16(14)23)22(21-15)11-3-1-2-4-11/h5-9,11H,1-4H2,(H,19,23)(H,18,20,21)
InChIKey=RCBKWTYNKLDBFF-UHFFFAOYSA-N

> <PUBCHEM_SUBSTANCE_SYNONYM>
SCHEMBL16126588

> <PUBCHEM_XREF_EXT_ID>
SCHEMBL16126588

> <PUBCHEM_EXT_DATASOURCE_URL>
https://www.surechembl.org/

> <PUBCHEM_EXT_SUBSTANCE_URL>
https://www.surechembl.org/chemical/SCHEMBL16126588

> <PUBCHEM_CID_ASSOCIATIONS>
117613968  1

> <PUBCHEM_COORDINATE_TYPE>
1
3

$$$$
