310930175
  -OEChem-07211613022D

 49 49  0     0  0  0  0  0  0999 V2000
    8.5444   -6.2826    0.0000 O   0  0  0  0  0  0  0  0  0  0  0  0
    7.2878   -5.5287    0.0000 O   0  0  0  0  0  0  0  0  0  0  0  0
    7.2878   -6.9527    0.0000 N   0  0  0  0  0  0  0  0  0  0  0  0
   10.9736   -4.8585    0.0000 N   0  0  0  0  0  0  0  0  0  0  0  0
    7.7066   -6.2826    0.0000 C   0  0  0  0  0  0  0  0  0  0  0  0
    6.5339   -6.9527    0.0000 C   0  0  0  0  0  0  0  0  0  0  0  0
    7.7066   -7.6229    0.0000 C   0  0  0  0  0  0  0  0  0  0  0  0
    8.9631   -5.5287    0.0000 C   0  0  0  0  0  0  0  0  0  0  0  0
   10.1360   -4.8585    0.0000 C   0  0  0  0  0  0  0  0  0  0  0  0
    9.7171   -5.5287    0.0000 C   0  0  0  0  0  0  0  0  0  0  0  0
   11.3087   -4.1046    0.0000 C   0  0  0  0  0  0  0  0  0  0  0  0
   11.3925   -5.5287    0.0000 C   0  0  0  0  0  0  0  0  0  0  0  0
    6.1151   -6.2826    0.0000 C   0  0  0  0  0  0  0  0  0  0  0  0
    7.2878   -8.3768    0.0000 C   0  0  0  0  0  0  0  0  0  0  0  0
   12.1464   -4.1046    0.0000 C   0  0  0  0  0  0  0  0  0  0  0  0
   12.1464   -5.5287    0.0000 C   0  0  0  0  0  0  0  0  0  0  0  0
   12.5652   -4.8585    0.0000 C   0  0  0  0  0  0  0  0  0  0  0  0
    5.2774   -6.2826    0.0000 C   0  0  0  0  0  0  0  0  0  0  0  0
    7.7066   -9.0469    0.0000 C   0  0  0  0  0  0  0  0  0  0  0  0
    4.8585   -5.5287    0.0000 C   0  0  0  0  0  0  0  0  0  0  0  0
    7.2878   -9.7171    0.0000 C   0  0  0  0  0  0  0  0  0  0  0  0
    4.1046   -5.5287    0.0000 C   0  0  0  0  0  0  0  0  0  0  0  0
    7.7066  -10.4710    0.0000 C   0  0  0  0  0  0  0  0  0  0  0  0
    3.6858   -4.8585    0.0000 C   0  0  0  0  0  0  0  0  0  0  0  0
    7.2878  -11.1412    0.0000 C   0  0  0  0  0  0  0  0  0  0  0  0
    2.8481   -4.8585    0.0000 C   0  0  0  0  0  0  0  0  0  0  0  0
    7.7066  -11.8113    0.0000 C   0  0  0  0  0  0  0  0  0  0  0  0
    2.5130   -4.1884    0.0000 C   0  0  0  0  0  0  0  0  0  0  0  0
    7.2878  -12.5652    0.0000 C   0  0  0  0  0  0  0  0  0  0  0  0
    1.6754   -4.1884    0.0000 C   0  0  0  0  0  0  0  0  0  0  0  0
    7.7066  -13.2353    0.0000 C   0  0  0  0  0  0  0  0  0  0  0  0
    1.2565   -3.4345    0.0000 C   0  0  0  0  0  0  0  0  0  0  0  0
    7.2878  -13.9893    0.0000 C   0  0  0  0  0  0  0  0  0  0  0  0
    1.6754   -2.7643    0.0000 C   0  0  0  0  0  0  0  0  0  0  0  0
    6.5339  -13.9893    0.0000 C   0  0  0  0  0  0  0  0  0  0  0  0
    2.5130   -2.7643    0.0000 C   0  0  0  0  0  0  0  0  0  0  0  0
    6.1151  -13.2353    0.0000 C   0  0  0  0  0  0  0  0  0  0  0  0
    2.8481   -2.0942    0.0000 C   0  0  0  0  0  0  0  0  0  0  0  0
    5.2774  -13.2353    0.0000 C   0  0  0  0  0  0  0  0  0  0  0  0
    2.5130   -1.3403    0.0000 C   0  0  0  0  0  0  0  0  0  0  0  0
    4.9423  -13.9893    0.0000 C   0  0  0  0  0  0  0  0  0  0  0  0
    1.6754   -1.4241    0.0000 C   0  0  0  0  0  0  0  0  0  0  0  0
    5.3611  -14.6594    0.0000 C   0  0  0  0  0  0  0  0  0  0  0  0
    1.2565   -0.6702    0.0000 C   0  0  0  0  0  0  0  0  0  0  0  0
    4.9423  -15.3296    0.0000 C   0  0  0  0  0  0  0  0  0  0  0  0
    0.4189   -0.6702    0.0000 C   0  0  0  0  0  0  0  0  0  0  0  0
    5.3611  -16.0834    0.0000 C   0  0  0  0  0  0  0  0  0  0  0  0
    0.0000    0.0000    0.0000 C   0  0  0  0  0  0  0  0  0  0  0  0
    4.9423  -16.7536    0.0000 C   0  0  0  0  0  0  0  0  0  0  0  0
  1  5  1  0  0  0  0
  1  8  1  0  0  0  0
  2  5  2  0  0  0  0
  3  5  1  0  0  0  0
  3  6  1  0  0  0  0
  3  7  1  0  0  0  0
  4  9  1  0  0  0  0
  4 11  1  0  0  0  0
  4 12  1  0  0  0  0
  6 13  1  0  0  0  0
  7 14  1  0  0  0  0
  8 10  1  0  0  0  0
  9 10  1  0  0  0  0
 11 15  1  0  0  0  0
 12 16  1  0  0  0  0
 13 18  1  0  0  0  0
 14 19  1  0  0  0  0
 15 17  1  0  0  0  0
 16 17  1  0  0  0  0
 18 20  1  0  0  0  0
 19 21  1  0  0  0  0
 20 22  1  0  0  0  0
 21 23  1  0  0  0  0
 22 24  1  0  0  0  0
 23 25  1  0  0  0  0
 24 26  1  0  0  0  0
 25 27  1  0  0  0  0
 26 28  1  0  0  0  0
 27 29  1  0  0  0  0
 28 30  1  0  0  0  0
 29 31  1  0  0  0  0
 30 32  2  0  0  0  0
 31 33  2  0  0  0  0
 32 34  1  0  0  0  0
 33 35  1  0  0  0  0
 34 36  1  0  0  0  0
 35 37  1  0  0  0  0
 36 38  2  0  0  0  0
 37 39  2  0  0  0  0
 38 40  1  0  0  0  0
 39 41  1  0  0  0  0
 40 42  1  0  0  0  0
 41 43  1  0  0  0  0
 42 44  1  0  0  0  0
 43 45  1  0  0  0  0
 44 46  1  0  0  0  0
 45 47  1  0  0  0  0
 46 48  1  0  0  0  0
 47 49  1  0  0  0  0
M  END
> <PUBCHEM_COMPOUND_ID_TYPE>
0

> <PUBCHEM_TOTAL_CHARGE>
0

> <PUBCHEM_SUBSTANCE_ID>
310930175

> <PUBCHEM_SUBSTANCE_VERSION>
1

> <PUBCHEM_EXT_DATASOURCE_NAME>
4488

> <PUBCHEM_EXT_DATASOURCE_REGID>
SCHEMBL16107435

> <PUBCHEM_SUBSTANCE_COMMENT>
InChI=1S/C45H82N2O2/c1-3-5-7-9-11-13-15-17-19-21-23-25-27-29-31-36-42-47(45(48)49-44-38-41-46-39-34-33-35-40-46)43-37-32-30-28-26-24-22-20-18-16-14-12-10-8-6-4-2/h11-14,17-20H,3-10,15-16,21-44H2,1-2H3/b13-11-,14-12-,19-17-,20-18-
InChIKey=WFAMDXUUZDCMTJ-MAZCIEHSSA-N

> <PUBCHEM_SUBSTANCE_SYNONYM>
SCHEMBL16107435

> <PUBCHEM_XREF_EXT_ID>
SCHEMBL16107435

> <PUBCHEM_EXT_DATASOURCE_URL>
https://www.surechembl.org/

> <PUBCHEM_EXT_SUBSTANCE_URL>
https://www.surechembl.org/chemical/SCHEMBL16107435

> <PUBCHEM_CID_ASSOCIATIONS>
117599392  1

> <PUBCHEM_COORDINATE_TYPE>
1
3

$$$$
