310929297
  -OEChem-07211613022D

 59 64  0     0  0  0  0  0  0999 V2000
    4.2868   -4.5375    0.0000 S   0  0  0  0  0  0  0  0  0  0  0  0
   10.7170    0.8250    0.0000 S   0  0  0  0  0  0  0  0  0  0  0  0
    0.7144    1.6500    0.0000 O   0  0  0  0  0  0  0  0  0  0  0  0
    2.1434   -3.3000    0.0000 O   0  0  0  0  0  0  0  0  0  0  0  0
    1.4290   -2.8875    0.0000 O   0  0  0  0  0  0  0  0  0  0  0  0
    3.8743   -5.2520    0.0000 O   0  0  0  0  0  0  0  0  0  0  0  0
    4.6993   -3.8230    0.0000 O   0  0  0  0  0  0  0  0  0  0  0  0
    5.0013    4.1250    0.0000 O   0  0  0  0  0  0  0  0  0  0  0  0
    6.4302    0.8250    0.0000 O   0  0  0  0  0  0  0  0  0  0  0  0
   11.4316    0.4125    0.0000 O   0  0  0  0  0  0  0  0  0  0  0  0
    2.1434   -1.6500    0.0000 N   0  0  0  0  0  0  0  0  0  0  0  0
    0.7144   -1.6500    0.0000 N   0  0  0  0  0  0  0  0  0  0  0  0
    3.5724   -4.1250    0.0000 N   0  0  0  0  0  0  0  0  0  0  0  0
    3.5724    1.6500    0.0000 N   0  0  0  0  0  0  0  0  0  0  0  0
    2.8579    2.8875    0.0000 N   0  0  0  0  0  0  0  0  0  0  0  0
    7.1447    2.0625    0.0000 N   0  0  0  0  0  0  0  0  0  0  0  0
    9.2881    1.6500    0.0000 N   0  0  0  0  0  0  0  0  0  0  0  0
    2.8579   -2.0625    0.0000 C   0  0  0  0  0  0  0  0  0  0  0  0
    2.8579   -2.8875    0.0000 C   0  0  0  0  0  0  0  0  0  0  0  0
    0.0000   -0.4125    0.0000 C   0  0  0  0  0  0  0  0  0  0  0  0
    0.0000    0.4125    0.0000 C   0  0  0  0  0  0  0  0  0  0  0  0
    3.5724   -3.3000    0.0000 C   0  0  0  0  0  0  0  0  0  0  0  0
    4.2868   -2.0625    0.0000 C   0  0  0  0  0  0  0  0  0  0  0  0
    0.7144   -0.8250    0.0000 C   0  0  0  0  0  0  0  0  0  0  0  0
    0.7144    0.8250    0.0000 C   0  0  0  0  0  0  0  0  0  0  0  0
    3.5724   -1.6500    0.0000 C   0  0  0  0  0  0  0  0  0  0  0  0
    4.2868   -2.8875    0.0000 C   0  0  0  0  0  0  0  0  0  0  0  0
    5.0013   -1.6500    0.0000 C   0  0  0  0  0  0  0  0  0  0  0  0
    1.4290   -2.0625    0.0000 C   0  0  0  0  0  0  0  0  0  0  0  0
    1.4290   -0.4125    0.0000 C   0  0  0  0  0  0  0  0  0  0  0  0
    1.4290    0.4125    0.0000 C   0  0  0  0  0  0  0  0  0  0  0  0
   -0.7144   -0.8250    0.0000 C   0  0  0  0  0  0  0  0  0  0  0  0
   -0.7144    0.8250    0.0000 C   0  0  0  0  0  0  0  0  0  0  0  0
    1.4290    2.0625    0.0000 C   0  0  0  0  0  0  0  0  0  0  0  0
   -1.4290   -0.4125    0.0000 C   0  0  0  0  0  0  0  0  0  0  0  0
   -1.4290    0.4125    0.0000 C   0  0  0  0  0  0  0  0  0  0  0  0
    2.8579    2.0625    0.0000 C   0  0  0  0  0  0  0  0  0  0  0  0
    2.1434    1.6500    0.0000 C   0  0  0  0  0  0  0  0  0  0  0  0
    5.0013   -0.8250    0.0000 C   0  0  0  0  0  0  0  0  0  0  0  0
    5.7158   -1.2375    0.0000 C   0  0  0  0  0  0  0  0  0  0  0  0
    5.7158   -2.0625    0.0000 C   0  0  0  0  0  0  0  0  0  0  0  0
    4.2868    2.0625    0.0000 C   0  0  0  0  0  0  0  0  0  0  0  0
    1.4290    2.8875    0.0000 C   0  0  0  0  0  0  0  0  0  0  0  0
    5.7158    2.0625    0.0000 C   0  0  0  0  0  0  0  0  0  0  0  0
    5.0013    1.6500    0.0000 C   0  0  0  0  0  0  0  0  0  0  0  0
    5.0013    3.3000    0.0000 C   0  0  0  0  0  0  0  0  0  0  0  0
    4.2868    2.8875    0.0000 C   0  0  0  0  0  0  0  0  0  0  0  0
    2.1434    3.3000    0.0000 C   0  0  0  0  0  0  0  0  0  0  0  0
    2.1434   -4.1250    0.0000 C   0  0  0  0  0  0  0  0  0  0  0  0
    5.0013   -4.9500    0.0000 C   0  0  0  0  0  0  0  0  0  0  0  0
    5.7158    2.8875    0.0000 C   0  0  0  0  0  0  0  0  0  0  0  0
    6.4302    1.6500    0.0000 C   0  0  0  0  0  0  0  0  0  0  0  0
    7.8592    1.6500    0.0000 C   0  0  0  0  0  0  0  0  0  0  0  0
    5.7158    4.5375    0.0000 C   0  0  0  0  0  0  0  0  0  0  0  0
    8.5736    2.0625    0.0000 C   0  0  0  0  0  0  0  0  0  0  0  0
    9.2881    0.8250    0.0000 C   0  0  0  0  0  0  0  0  0  0  0  0
   10.0026    2.0625    0.0000 C   0  0  0  0  0  0  0  0  0  0  0  0
   10.0026    0.4125    0.0000 C   0  0  0  0  0  0  0  0  0  0  0  0
   10.7170    1.6500    0.0000 C   0  0  0  0  0  0  0  0  0  0  0  0
  1  6  2  0  0  0  0
  1  7  2  0  0  0  0
  1 13  1  0  0  0  0
  1 50  1  0  0  0  0
  2 10  2  0  0  0  0
  2 58  1  0  0  0  0
  2 59  1  0  0  0  0
  3 25  1  0  0  0  0
  3 34  1  0  0  0  0
  4 19  1  0  0  0  0
  4 49  1  0  0  0  0
  5 29  2  0  0  0  0
  8 46  1  0  0  0  0
  8 54  1  0  0  0  0
  9 52  2  0  0  0  0
 11 18  1  0  0  0  0
 11 29  1  0  0  0  0
 12 24  1  0  0  0  0
 12 29  1  0  0  0  0
 13 22  1  0  0  0  0
 14 37  1  0  0  0  0
 14 42  1  0  0  0  0
 15 37  2  0  0  0  0
 15 48  1  0  0  0  0
 16 52  1  0  0  0  0
 16 53  1  0  0  0  0
 17 55  1  0  0  0  0
 17 56  1  0  0  0  0
 17 57  1  0  0  0  0
 18 19  1  0  0  0  0
 18 26  2  0  0  0  0
 19 22  2  0  0  0  0
 20 21  1  0  0  0  0
 20 24  2  0  0  0  0
 20 32  1  0  0  0  0
 21 25  2  0  0  0  0
 21 33  1  0  0  0  0
 22 27  1  0  0  0  0
 23 26  1  0  0  0  0
 23 27  2  0  0  0  0
 23 28  1  0  0  0  0
 24 30  1  0  0  0  0
 25 31  1  0  0  0  0
 28 39  1  0  0  0  0
 28 40  1  0  0  0  0
 28 41  1  0  0  0  0
 30 31  2  0  0  0  0
 32 35  2  0  0  0  0
 33 36  2  0  0  0  0
 34 38  2  0  0  0  0
 34 43  1  0  0  0  0
 35 36  1  0  0  0  0
 37 38  1  0  0  0  0
 42 45  2  0  0  0  0
 42 47  1  0  0  0  0
 43 48  2  0  0  0  0
 44 45  1  0  0  0  0
 44 51  2  0  0  0  0
 44 52  1  0  0  0  0
 46 47  2  0  0  0  0
 46 51  1  0  0  0  0
 53 55  1  0  0  0  0
 56 58  1  0  0  0  0
 57 59  1  0  0  0  0
M  END
> <PUBCHEM_COMPOUND_ID_TYPE>
0

> <PUBCHEM_TOTAL_CHARGE>
0

> <PUBCHEM_SUBSTANCE_ID>
310929297

> <PUBCHEM_SUBSTANCE_VERSION>
1

> <PUBCHEM_EXT_DATASOURCE_NAME>
4488

> <PUBCHEM_EXT_DATASOURCE_REGID>
SCHEMBL16106461

> <PUBCHEM_SUBSTANCE_COMMENT>
InChI=1S/C42H49N7O8S2/c1-42(2,3)28-23-35(39(56-5)36(24-28)48-59(6,53)54)47-41(51)46-34-11-12-37(33-10-8-7-9-32(33)34)57-30-13-14-43-38(26-30)45-29-21-27(22-31(25-29)55-4)40(50)44-15-16-49-17-19-58(52)20-18-49/h7-14,21-26,48H,15-20H2,1-6H3,(H,43,45)(H,44,50)(H2,46,47,51)
InChIKey=CKWDPQZFWFUFEP-UHFFFAOYSA-N

> <PUBCHEM_SUBSTANCE_SYNONYM>
SCHEMBL16106461

> <PUBCHEM_XREF_EXT_ID>
SCHEMBL16106461

> <PUBCHEM_EXT_DATASOURCE_URL>
https://www.surechembl.org/

> <PUBCHEM_EXT_SUBSTANCE_URL>
https://www.surechembl.org/chemical/SCHEMBL16106461

> <PUBCHEM_CID_ASSOCIATIONS>
117598705  1

> <PUBCHEM_COORDINATE_TYPE>
1
3

$$$$
