310947272
  -OEChem-07211613022D

 34 37  0     0  0  0  0  0  0999 V2000
   -1.1234    1.4477    0.0000 Br  0  0  0  0  0  0  0  0  0  0  0  0
    2.5891    0.8272    0.0000 O   0  0  0  0  0  0  0  0  0  0  0  0
   -5.1785    0.4783    0.0000 O   0  0  0  0  0  0  0  0  0  0  0  0
   -4.4639    1.7157    0.0000 O   0  0  0  0  0  0  0  0  0  0  0  0
    1.3516    0.1127    0.0000 O   0  0  0  0  0  0  0  0  0  0  0  0
   -1.5359   -0.6017    0.0000 N   0  0  0  0  0  0  0  0  0  0  0  0
   -1.0510    0.0657    0.0000 N   0  0  0  0  0  0  0  0  0  0  0  0
   -2.3206   -0.3467    0.0000 C   0  0  0  0  0  0  0  0  0  0  0  0
   -2.3206    0.4783    0.0000 C   0  0  0  0  0  0  0  0  0  0  0  0
   -1.5359    0.7333    0.0000 C   0  0  0  0  0  0  0  0  0  0  0  0
   -3.0350    0.8908    0.0000 C   0  0  0  0  0  0  0  0  0  0  0  0
   -3.7495    0.4783    0.0000 C   0  0  0  0  0  0  0  0  0  0  0  0
   -3.0350   -0.7593    0.0000 C   0  0  0  0  0  0  0  0  0  0  0  0
   -1.1234   -1.3162    0.0000 C   0  0  0  0  0  0  0  0  0  0  0  0
   -0.2983   -1.3162    0.0000 C   0  0  0  0  0  0  0  0  0  0  0  0
   -3.7495   -0.3467    0.0000 C   0  0  0  0  0  0  0  0  0  0  0  0
    2.1767   -1.3162    0.0000 C   0  0  0  0  0  0  0  0  0  0  0  0
    1.3516   -1.3162    0.0000 C   0  0  0  0  0  0  0  0  0  0  0  0
    2.5891   -0.6017    0.0000 C   0  0  0  0  0  0  0  0  0  0  0  0
   -4.4639    0.8908    0.0000 C   0  0  0  0  0  0  0  0  0  0  0  0
    0.1141   -2.0306    0.0000 C   0  0  0  0  0  0  0  0  0  0  0  0
    0.1141   -0.6017    0.0000 C   0  0  0  0  0  0  0  0  0  0  0  0
    0.9391   -2.0306    0.0000 C   0  0  0  0  0  0  0  0  0  0  0  0
    0.9391   -0.6017    0.0000 C   0  0  0  0  0  0  0  0  0  0  0  0
    2.1767    0.1127    0.0000 C   0  0  0  0  0  0  0  0  0  0  0  0
    2.5891   -2.0306    0.0000 C   0  0  0  0  0  0  0  0  0  0  0  0
    3.4140   -0.6017    0.0000 C   0  0  0  0  0  0  0  0  0  0  0  0
    3.4140   -2.0306    0.0000 C   0  0  0  0  0  0  0  0  0  0  0  0
    3.8266   -1.3162    0.0000 C   0  0  0  0  0  0  0  0  0  0  0  0
    2.1767    1.5417    0.0000 C   0  0  0  0  0  0  0  0  0  0  0  0
   -5.8929    0.8908    0.0000 C   0  0  0  0  0  0  0  0  0  0  0  0
    2.5891    2.2562    0.0000 C   0  0  0  0  0  0  0  0  0  0  0  0
    1.3516    1.5417    0.0000 C   0  0  0  0  0  0  0  0  0  0  0  0
    3.0016    1.5417    0.0000 C   0  0  0  0  0  0  0  0  0  0  0  0
  1 10  1  0  0  0  0
  2 25  1  0  0  0  0
  2 30  1  0  0  0  0
  3 20  1  0  0  0  0
  3 31  1  0  0  0  0
  4 20  2  0  0  0  0
  5 25  2  0  0  0  0
  6  7  1  0  0  0  0
  6  8  1  0  0  0  0
  6 14  1  0  0  0  0
  7 10  2  0  0  0  0
  8  9  1  0  0  0  0
  8 13  2  0  0  0  0
  9 10  1  0  0  0  0
  9 11  2  0  0  0  0
 11 12  1  0  0  0  0
 12 16  2  0  0  0  0
 12 20  1  0  0  0  0
 13 16  1  0  0  0  0
 14 15  1  0  0  0  0
 15 21  2  0  0  0  0
 15 22  1  0  0  0  0
 17 18  1  0  0  0  0
 17 19  1  0  0  0  0
 17 26  2  0  0  0  0
 18 23  2  0  0  0  0
 18 24  1  0  0  0  0
 19 25  1  0  0  0  0
 19 27  2  0  0  0  0
 21 23  1  0  0  0  0
 22 24  2  0  0  0  0
 26 28  1  0  0  0  0
 27 29  1  0  0  0  0
 28 29  2  0  0  0  0
 30 32  1  0  0  0  0
 30 33  1  0  0  0  0
 30 34  1  0  0  0  0
M  END
> <PUBCHEM_COMPOUND_ID_TYPE>
0

> <PUBCHEM_TOTAL_CHARGE>
0

> <PUBCHEM_SUBSTANCE_ID>
310947272

> <PUBCHEM_SUBSTANCE_VERSION>
1

> <PUBCHEM_EXT_DATASOURCE_NAME>
4488

> <PUBCHEM_EXT_DATASOURCE_REGID>
SCHEMBL16125427

> <PUBCHEM_SUBSTANCE_COMMENT>
InChI=1S/C27H25BrN2O4/c1-27(2,3)34-26(32)21-8-6-5-7-20(21)18-11-9-17(10-12-18)16-30-23-14-13-19(25(31)33-4)15-22(23)24(28)29-30/h5-15H,16H2,1-4H3
InChIKey=HIEVCTIBBBFBJV-UHFFFAOYSA-N

> <PUBCHEM_SUBSTANCE_SYNONYM>
SCHEMBL16125427

> <PUBCHEM_XREF_EXT_ID>
SCHEMBL16125427

> <PUBCHEM_EXT_DATASOURCE_URL>
https://www.surechembl.org/

> <PUBCHEM_EXT_SUBSTANCE_URL>
https://www.surechembl.org/chemical/SCHEMBL16125427

> <PUBCHEM_CID_ASSOCIATIONS>
117613075  1

> <PUBCHEM_COORDINATE_TYPE>
1
3

$$$$
