310946351
  -OEChem-07211613022D

 24 25  0     0  0  0  0  0  0999 V2000
   -1.5591    1.1898    0.0000 I   0  0  0  0  0  0  0  0  0  0  0  0
   -0.1302    3.6648    0.0000 I   0  0  0  0  0  0  0  0  0  0  0  0
   -1.5591    2.8398    0.0000 O   0  0  0  0  0  0  0  0  0  0  0  0
   -4.4170    1.1898    0.0000 O   0  0  0  0  0  0  0  0  0  0  0  0
    2.7277    0.3648    0.0000 O   0  0  0  0  0  0  0  0  0  0  0  0
    3.4422    1.6023    0.0000 N   0  0  0  0  0  0  0  0  0  0  0  0
   -0.8447    2.4273    0.0000 C   0  0  0  0  0  0  0  0  0  0  0  0
   -0.8447    1.6023    0.0000 C   0  0  0  0  0  0  0  0  0  0  0  0
   -0.1302    2.8398    0.0000 C   0  0  0  0  0  0  0  0  0  0  0  0
    0.5843    1.6023    0.0000 C   0  0  0  0  0  0  0  0  0  0  0  0
   -0.1302    1.1898    0.0000 C   0  0  0  0  0  0  0  0  0  0  0  0
    0.5843    2.4273    0.0000 C   0  0  0  0  0  0  0  0  0  0  0  0
   -2.2736    2.4273    0.0000 C   0  0  0  0  0  0  0  0  0  0  0  0
    1.2987    1.1898    0.0000 C   0  0  0  0  0  0  0  0  0  0  0  0
   -2.9881    2.8398    0.0000 C   0  0  0  0  0  0  0  0  0  0  0  0
   -2.2736    1.6023    0.0000 C   0  0  0  0  0  0  0  0  0  0  0  0
   -3.7026    1.6023    0.0000 C   0  0  0  0  0  0  0  0  0  0  0  0
   -3.7026    2.4273    0.0000 C   0  0  0  0  0  0  0  0  0  0  0  0
   -2.9881    1.1898    0.0000 C   0  0  0  0  0  0  0  0  0  0  0  0
    2.0132    1.6023    0.0000 C   0  0  0  0  0  0  0  0  0  0  0  0
    2.7277    1.1898    0.0000 C   0  0  0  0  0  0  0  0  0  0  0  0
    3.4422    2.4273    0.0000 C   0  0  0  0  0  0  0  0  0  0  0  0
    4.1566    2.8398    0.0000 C   0  0  0  0  0  0  0  0  0  0  0  0
    4.1566    3.6648    0.0000 C   0  0  0  0  0  0  0  0  0  0  0  0
  1  8  1  0  0  0  0
  2  9  1  0  0  0  0
  3  7  1  0  0  0  0
  3 13  1  0  0  0  0
  4 17  1  0  0  0  0
  5 21  2  0  0  0  0
  6 21  1  0  0  0  0
  6 22  1  0  0  0  0
  7  8  2  0  0  0  0
  7  9  1  0  0  0  0
  8 11  1  0  0  0  0
  9 12  2  0  0  0  0
 10 11  2  0  0  0  0
 10 12  1  0  0  0  0
 10 14  1  0  0  0  0
 13 15  2  0  0  0  0
 13 16  1  0  0  0  0
 14 20  1  0  0  0  0
 15 18  1  0  0  0  0
 16 19  2  0  0  0  0
 17 18  2  0  0  0  0
 17 19  1  0  0  0  0
 20 21  1  0  0  0  0
 22 23  1  0  0  0  0
 23 24  1  0  0  0  0
M  END
> <PUBCHEM_COMPOUND_ID_TYPE>
0

> <PUBCHEM_TOTAL_CHARGE>
0

> <PUBCHEM_SUBSTANCE_ID>
310946351

> <PUBCHEM_SUBSTANCE_VERSION>
1

> <PUBCHEM_EXT_DATASOURCE_NAME>
4488

> <PUBCHEM_EXT_DATASOURCE_REGID>
SCHEMBL16124470

> <PUBCHEM_SUBSTANCE_COMMENT>
InChI=1S/C18H19I2NO3/c1-2-9-21-17(23)8-3-12-10-15(19)18(16(20)11-12)24-14-6-4-13(22)5-7-14/h4-7,10-11,22H,2-3,8-9H2,1H3,(H,21,23)
InChIKey=BBTXUVWZSDWWKY-UHFFFAOYSA-N

> <PUBCHEM_SUBSTANCE_SYNONYM>
SCHEMBL16124470

> <PUBCHEM_XREF_EXT_ID>
SCHEMBL16124470

> <PUBCHEM_EXT_DATASOURCE_URL>
https://www.surechembl.org/

> <PUBCHEM_EXT_SUBSTANCE_URL>
https://www.surechembl.org/chemical/SCHEMBL16124470

> <PUBCHEM_CID_ASSOCIATIONS>
117612274  1

> <PUBCHEM_COORDINATE_TYPE>
1
3

$$$$
