310944314
  -OEChem-07211613022D

 32 36  0     1  0  0  0  0  0999 V2000
   -1.3131   -1.1962    0.0000 F   0  0  0  0  0  0  0  0  0  0  0  0
    2.4682   -0.0688    0.0000 O   0  0  0  0  0  0  0  0  0  0  0  0
    4.9843   -1.6362    0.0000 O   0  0  0  0  0  0  0  0  0  0  0  0
    5.4656   -0.2475    0.0000 O   0  0  0  0  0  0  0  0  0  0  0  0
    2.8532   -1.4850    0.0000 N   0  0  0  0  0  0  0  0  0  0  0  0
    0.1169   -0.3712    0.0000 N   0  0  0  0  0  0  0  0  0  0  0  0
   -4.1593    1.2650    0.0000 N   0  0  0  0  0  0  0  0  0  0  0  0
   -2.7294   -0.3712    0.0000 N   0  0  0  0  0  0  0  0  0  0  0  0
   -2.7294    1.2650    0.0000 N   0  0  0  0  0  0  0  0  0  0  0  0
   -4.2419    2.0900    0.0000 N   0  0  0  0  0  0  0  0  0  0  0  0
   -5.0531    2.2687    0.0000 N   0  0  0  0  0  0  0  0  0  0  0  0
   -5.4656    1.5537    0.0000 N   0  0  0  0  0  0  0  0  0  0  0  0
    1.5469   -1.1962    0.0000 C   0  0  0  0  0  0  0  0  0  0  0  0
    2.2756   -0.8800    0.0000 C   0  0  0  0  0  0  0  0  0  0  0  0
    3.6782   -1.3888    0.0000 C   0  0  0  0  0  0  0  0  0  0  0  0
    1.5469   -2.0212    0.0000 C   0  0  0  0  0  0  0  0  0  0  0  0
    2.3444   -2.2687    0.0000 C   0  0  0  0  0  0  0  0  0  0  0  0
    0.8456   -1.6087    0.0000 C   0  0  0  0  0  0  0  0  0  0  0  0
    1.5469   -0.3850    0.0000 C   0  0  0  0  0  0  0  0  0  0  0  0
    4.0632   -0.6600    0.0000 C   0  0  0  0  0  0  0  0  0  0  0  0
    4.2556   -1.9800    0.0000 C   0  0  0  0  0  0  0  0  0  0  0  0
    4.8469   -0.8250    0.0000 C   0  0  0  0  0  0  0  0  0  0  0  0
    0.1306   -1.1962    0.0000 C   0  0  0  0  0  0  0  0  0  0  0  0
    0.8318    0.0275    0.0000 C   0  0  0  0  0  0  0  0  0  0  0  0
   -0.5981    0.0275    0.0000 C   0  0  0  0  0  0  0  0  0  0  0  0
   -1.2993   -0.3712    0.0000 C   0  0  3  0  0  0  0  0  0  0  0  0
   -2.0282    0.0413    0.0000 C   0  0  0  0  0  0  0  0  0  0  0  0
    3.6919    0.0550    0.0000 C   0  0  0  0  0  0  0  0  0  0  0  0
   -3.4444    0.8663    0.0000 C   0  0  0  0  0  0  0  0  0  0  0  0
   -2.0144    0.8525    0.0000 C   0  0  0  0  0  0  0  0  0  0  0  0
   -3.4444    0.0413    0.0000 C   0  0  0  0  0  0  0  0  0  0  0  0
   -4.9157    0.9350    0.0000 C   0  0  0  0  0  0  0  0  0  0  0  0
 26  1  1  6  0  0  0
  2 14  2  0  0  0  0
  3 21  1  0  0  0  0
  3 22  1  0  0  0  0
  4 22  2  0  0  0  0
  5 14  1  0  0  0  0
  5 15  1  0  0  0  0
  5 17  1  0  0  0  0
  6 23  1  0  0  0  0
  6 24  1  0  0  0  0
  6 25  1  0  0  0  0
  7 10  1  0  0  0  0
  7 29  1  0  0  0  0
  7 32  1  0  0  0  0
  8 27  2  0  0  0  0
  8 31  1  0  0  0  0
  9 29  1  0  0  0  0
  9 30  2  0  0  0  0
 10 11  2  0  0  0  0
 11 12  1  0  0  0  0
 12 32  2  0  0  0  0
 13 14  1  0  0  0  0
 13 16  1  0  0  0  0
 13 18  1  0  0  0  0
 13 19  1  0  0  0  0
 15 20  2  0  0  0  0
 15 21  1  0  0  0  0
 16 17  1  0  0  0  0
 18 23  1  0  0  0  0
 19 24  1  0  0  0  0
 20 22  1  0  0  0  0
 20 28  1  0  0  0  0
 25 26  1  0  0  0  0
 26 27  1  0  0  0  0
 27 30  1  0  0  0  0
 29 31  2  0  0  0  0
M  END
> <PUBCHEM_COMPOUND_ID_TYPE>
0

> <PUBCHEM_TOTAL_CHARGE>
0

> <PUBCHEM_SUBSTANCE_ID>
310944314

> <PUBCHEM_SUBSTANCE_VERSION>
1

> <PUBCHEM_EXT_DATASOURCE_NAME>
4488

> <PUBCHEM_EXT_DATASOURCE_REGID>
SCHEMBL16122389

> <PUBCHEM_SUBSTANCE_COMMENT>
InChI=1S/C20H23FN8O3/c1-13-16(11-32-18(13)30)28-7-4-20(19(28)31)2-5-27(6-3-20)10-14(21)15-8-23-17(9-22-15)29-12-24-25-26-29/h8-9,12,14H,2-7,10-11H2,1H3/t14-/m0/s1
InChIKey=HQVXZOKKQHGZJE-AWEZNQCLSA-N

> <PUBCHEM_SUBSTANCE_SYNONYM>
SCHEMBL16122389

> <PUBCHEM_XREF_EXT_ID>
SCHEMBL16122389

> <PUBCHEM_EXT_DATASOURCE_URL>
https://www.surechembl.org/

> <PUBCHEM_EXT_SUBSTANCE_URL>
https://www.surechembl.org/chemical/SCHEMBL16122389

> <PUBCHEM_CID_ASSOCIATIONS>
117610577  1

> <PUBCHEM_COORDINATE_TYPE>
1
3

> <PUBCHEM_BONDANNOTATIONS>
26  1  6

$$$$
