310939837
  -OEChem-07211613022D

 31 33  0     0  0  0  0  0  0999 V2000
    1.4289    3.0385    0.0000 Cl  0  0  0  0  0  0  0  0  0  0  0  0
   -2.8579   -2.7365    0.0000 S   0  0  0  0  0  0  0  0  0  0  0  0
    0.0000    0.5635    0.0000 O   0  0  0  0  0  0  0  0  0  0  0  0
    1.4289   -1.9115    0.0000 O   0  0  0  0  0  0  0  0  0  0  0  0
   -2.4454   -2.0220    0.0000 O   0  0  0  0  0  0  0  0  0  0  0  0
   -3.2704   -3.4510    0.0000 O   0  0  0  0  0  0  0  0  0  0  0  0
    1.4289   -0.2615    0.0000 N   0  0  0  0  0  0  0  0  0  0  0  0
    0.0000   -1.9115    0.0000 N   0  0  0  0  0  0  0  0  0  0  0  0
   -2.1434   -3.1490    0.0000 N   0  0  0  0  0  0  0  0  0  0  0  0
    2.1434    1.8010    0.0000 C   0  0  0  0  0  0  0  0  0  0  0  0
    2.8579    2.2135    0.0000 C   0  0  0  0  0  0  0  0  0  0  0  0
    1.4289    0.5635    0.0000 C   0  0  0  0  0  0  0  0  0  0  0  0
    1.4289    2.2135    0.0000 C   0  0  0  0  0  0  0  0  0  0  0  0
    2.1434    0.9760    0.0000 C   0  0  0  0  0  0  0  0  0  0  0  0
    0.7145    0.9760    0.0000 C   0  0  0  0  0  0  0  0  0  0  0  0
    0.7145    1.8010    0.0000 C   0  0  0  0  0  0  0  0  0  0  0  0
    2.8579    3.0385    0.0000 C   0  0  0  0  0  0  0  0  0  0  0  0
    3.5724    1.8010    0.0000 C   0  0  0  0  0  0  0  0  0  0  0  0
    0.7145   -1.4990    0.0000 C   0  0  0  0  0  0  0  0  0  0  0  0
   -1.4289   -2.7365    0.0000 C   0  0  0  0  0  0  0  0  0  0  0  0
    0.7145   -0.6740    0.0000 C   0  0  0  0  0  0  0  0  0  0  0  0
    3.5724    3.4510    0.0000 C   0  0  0  0  0  0  0  0  0  0  0  0
   -0.7145   -1.4990    0.0000 C   0  0  0  0  0  0  0  0  0  0  0  0
    0.0000   -2.7365    0.0000 C   0  0  0  0  0  0  0  0  0  0  0  0
   -1.4289   -1.9115    0.0000 C   0  0  0  0  0  0  0  0  0  0  0  0
   -0.7145   -3.1490    0.0000 C   0  0  0  0  0  0  0  0  0  0  0  0
    4.2868    2.2135    0.0000 C   0  0  0  0  0  0  0  0  0  0  0  0
    4.2868    3.0385    0.0000 C   0  0  0  0  0  0  0  0  0  0  0  0
    2.1434    3.4510    0.0000 C   0  0  0  0  0  0  0  0  0  0  0  0
   -3.5724   -2.3240    0.0000 C   0  0  0  0  0  0  0  0  0  0  0  0
   -4.2868   -2.7365    0.0000 C   0  0  0  0  0  0  0  0  0  0  0  0
  1 13  1  0  0  0  0
  2  5  2  0  0  0  0
  2  6  2  0  0  0  0
  2  9  1  0  0  0  0
  2 30  1  0  0  0  0
  3 15  1  0  0  0  0
  4 19  2  0  0  0  0
  7 12  1  0  0  0  0
  7 21  1  0  0  0  0
  8 19  1  0  0  0  0
  8 23  1  0  0  0  0
  8 24  1  0  0  0  0
  9 20  1  0  0  0  0
 10 11  1  0  0  0  0
 10 13  2  0  0  0  0
 10 14  1  0  0  0  0
 11 17  1  0  0  0  0
 11 18  2  0  0  0  0
 12 14  2  0  0  0  0
 12 15  1  0  0  0  0
 13 16  1  0  0  0  0
 15 16  2  0  0  0  0
 17 22  2  0  0  0  0
 17 29  1  0  0  0  0
 18 27  1  0  0  0  0
 19 21  1  0  0  0  0
 20 25  1  0  0  0  0
 20 26  1  0  0  0  0
 22 28  1  0  0  0  0
 23 25  1  0  0  0  0
 24 26  1  0  0  0  0
 27 28  2  0  0  0  0
 30 31  2  0  0  0  0
M  END
> <PUBCHEM_COMPOUND_ID_TYPE>
0

> <PUBCHEM_TOTAL_CHARGE>
0

> <PUBCHEM_SUBSTANCE_ID>
310939837

> <PUBCHEM_SUBSTANCE_VERSION>
1

> <PUBCHEM_EXT_DATASOURCE_NAME>
4488

> <PUBCHEM_EXT_DATASOURCE_REGID>
SCHEMBL16117767

> <PUBCHEM_SUBSTANCE_COMMENT>
InChI=1S/C22H26ClN3O4S/c1-3-31(29,30)25-16-8-10-26(11-9-16)22(28)14-24-20-12-18(19(23)13-21(20)27)17-7-5-4-6-15(17)2/h3-7,12-13,16,24-25,27H,1,8-11,14H2,2H3
InChIKey=KNEZTEVVLVXSBX-UHFFFAOYSA-N

> <PUBCHEM_SUBSTANCE_SYNONYM>
SCHEMBL16117767

> <PUBCHEM_XREF_EXT_ID>
SCHEMBL16117767

> <PUBCHEM_EXT_DATASOURCE_URL>
https://www.surechembl.org/

> <PUBCHEM_EXT_SUBSTANCE_URL>
https://www.surechembl.org/chemical/SCHEMBL16117767

> <PUBCHEM_CID_ASSOCIATIONS>
117607054  1

> <PUBCHEM_COORDINATE_TYPE>
1
3

$$$$
