310935656
  -OEChem-07211613022D

 22 24  0     0  0  0  0  0  0999 V2000
   -4.8946    6.0027    0.0000 Cl  0  0  0  0  0  0  0  0  0  0  0  0
   -4.8946    3.5277    0.0000 O   0  0  0  0  0  0  0  0  0  0  0  0
   -2.7512    3.1152    0.0000 N   0  0  0  0  0  0  0  0  0  0  0  0
   -4.1801    2.2902    0.0000 N   0  0  0  0  0  0  0  0  0  0  0  0
   -2.0367    1.0527    0.0000 N   0  0  0  0  0  0  0  0  0  0  0  0
   -1.3693    0.5678    0.0000 N   0  0  0  0  0  0  0  0  0  0  0  0
   -3.4656    3.5277    0.0000 C   0  0  0  0  0  0  0  0  0  0  0  0
   -4.1801    3.1152    0.0000 C   0  0  0  0  0  0  0  0  0  0  0  0
   -3.4656    4.3527    0.0000 C   0  0  0  0  0  0  0  0  0  0  0  0
   -2.7512    2.2902    0.0000 C   0  0  0  0  0  0  0  0  0  0  0  0
   -3.4656    1.8777    0.0000 C   0  0  0  0  0  0  0  0  0  0  0  0
   -4.1801    4.7652    0.0000 C   0  0  0  0  0  0  0  0  0  0  0  0
   -2.0367    1.8777    0.0000 C   0  0  0  0  0  0  0  0  0  0  0  0
   -2.7512    4.7652    0.0000 C   0  0  0  0  0  0  0  0  0  0  0  0
   -4.1801    5.5902    0.0000 C   0  0  0  0  0  0  0  0  0  0  0  0
   -2.7512    5.5902    0.0000 C   0  0  0  0  0  0  0  0  0  0  0  0
   -3.4656    6.0027    0.0000 C   0  0  0  0  0  0  0  0  0  0  0  0
   -2.7041    0.5678    0.0000 C   0  0  0  0  0  0  0  0  0  0  0  0
   -5.6091    3.1152    0.0000 C   0  0  0  0  0  0  0  0  0  0  0  0
   -1.6242   -0.2169    0.0000 C   0  0  0  0  0  0  0  0  0  0  0  0
   -2.4492   -0.2169    0.0000 C   0  0  0  0  0  0  0  0  0  0  0  0
   -6.3235    3.5277    0.0000 C   0  0  0  0  0  0  0  0  0  0  0  0
  1 15  1  0  0  0  0
  2  8  1  0  0  0  0
  2 19  1  0  0  0  0
  3  7  1  0  0  0  0
  3 10  2  0  0  0  0
  4  8  1  0  0  0  0
  4 11  2  0  0  0  0
  5  6  1  0  0  0  0
  5 13  1  0  0  0  0
  5 18  1  0  0  0  0
  6 20  2  0  0  0  0
  7  8  2  0  0  0  0
  7  9  1  0  0  0  0
  9 12  2  0  0  0  0
  9 14  1  0  0  0  0
 10 11  1  0  0  0  0
 10 13  1  0  0  0  0
 12 15  1  0  0  0  0
 14 16  2  0  0  0  0
 15 17  2  0  0  0  0
 16 17  1  0  0  0  0
 18 21  2  0  0  0  0
 19 22  1  0  0  0  0
 20 21  1  0  0  0  0
M  END
> <PUBCHEM_COMPOUND_ID_TYPE>
0

> <PUBCHEM_TOTAL_CHARGE>
0

> <PUBCHEM_SUBSTANCE_ID>
310935656

> <PUBCHEM_SUBSTANCE_VERSION>
1

> <PUBCHEM_EXT_DATASOURCE_NAME>
4488

> <PUBCHEM_EXT_DATASOURCE_REGID>
SCHEMBL16113237

> <PUBCHEM_SUBSTANCE_COMMENT>
InChI=1S/C16H15ClN4O/c1-2-22-16-15(12-5-3-6-13(17)9-12)20-14(10-18-16)11-21-8-4-7-19-21/h3-10H,2,11H2,1H3
InChIKey=PDUHDQFPQICRPQ-UHFFFAOYSA-N

> <PUBCHEM_SUBSTANCE_SYNONYM>
SCHEMBL16113237

> <PUBCHEM_XREF_EXT_ID>
SCHEMBL16113237

> <PUBCHEM_EXT_DATASOURCE_URL>
https://www.surechembl.org/

> <PUBCHEM_EXT_SUBSTANCE_URL>
https://www.surechembl.org/chemical/SCHEMBL16113237

> <PUBCHEM_CID_ASSOCIATIONS>
117603667  1

> <PUBCHEM_COORDINATE_TYPE>
1
3

$$$$
