310928997
  -OEChem-07211613022D

 13 13  0     0  0  0  0  0  0999 V2000
    1.4289   -0.8250    0.0000 O   0  0  0  0  0  0  0  0  0  0  0  0
    0.7145    0.4125    0.0000 O   0  0  0  0  0  0  0  0  0  0  0  0
   -0.7145    0.4125    0.0000 N   0  0  0  0  0  0  0  0  0  0  0  0
   -1.4289    0.8250    0.0000 N   0  0  0  0  0  0  0  0  0  0  0  0
   -2.8579    0.8250    0.0000 N   0  0  0  0  0  0  0  0  0  0  0  0
   -0.7145   -0.4125    0.0000 C   0  0  0  0  0  0  0  0  0  0  0  0
    0.0000   -0.8250    0.0000 C   0  0  0  0  0  0  0  0  0  0  0  0
   -1.4289   -0.8250    0.0000 C   0  0  0  0  0  0  0  0  0  0  0  0
   -2.1434    0.4125    0.0000 C   0  0  0  0  0  0  0  0  0  0  0  0
    0.7145   -0.4125    0.0000 C   0  0  0  0  0  0  0  0  0  0  0  0
   -2.1434   -0.4125    0.0000 C   0  0  0  0  0  0  0  0  0  0  0  0
    2.1434   -0.4125    0.0000 C   0  0  0  0  0  0  0  0  0  0  0  0
    2.8579   -0.8250    0.0000 C   0  0  0  0  0  0  0  0  0  0  0  0
  1 10  1  0  0  0  0
  1 12  1  0  0  0  0
  2 10  2  0  0  0  0
  3  4  1  0  0  0  0
  3  6  2  0  0  0  0
  4  9  2  0  0  0  0
  5  9  1  0  0  0  0
  6  7  1  0  0  0  0
  6  8  1  0  0  0  0
  7 10  1  0  0  0  0
  8 11  2  0  0  0  0
  9 11  1  0  0  0  0
 12 13  1  0  0  0  0
M  END
> <PUBCHEM_COMPOUND_ID_TYPE>
0

> <PUBCHEM_TOTAL_CHARGE>
0

> <PUBCHEM_SUBSTANCE_ID>
310928997

> <PUBCHEM_SUBSTANCE_VERSION>
1

> <PUBCHEM_EXT_DATASOURCE_NAME>
11752

> <PUBCHEM_EXT_DATASOURCE_REGID>
BD328134

> <PUBCHEM_SUBSTANCE_SYNONYM>
1674399-68-8
Ethyl 2-(6-aminopyridazin-3-yl)acetate

> <PUBCHEM_GENERIC_REGISTRY_NAME>
1674399-68-8

> <PUBCHEM_XREF_EXT_ID>
BD328134

> <PUBCHEM_EXT_DATASOURCE_URL>
http://www.bidepharmatech.com/en/index.html

> <PUBCHEM_EXT_SUBSTANCE_URL>
http://www.bidepharmatech.com/en/goodsview_goodscode_BD328134.html

> <PUBCHEM_CID_ASSOCIATIONS>
117598538  1

> <PUBCHEM_COORDINATE_TYPE>
1
3

$$$$
