310943019
  -OEChem-07211613022D

 34 38  0     1  0  0  0  0  0999 V2000
    2.3408   -0.2416    0.0000 F   0  0  0  0  0  0  0  0  0  0  0  0
    2.9739   -0.1749    0.0000 F   0  0  0  0  0  0  0  0  0  0  0  0
    3.5736   -0.9746    0.0000 F   0  0  0  0  0  0  0  0  0  0  0  0
   -2.7906   -1.2745    0.0000 O   0  0  0  0  0  0  0  0  0  0  0  0
   -1.4911    3.2738    0.0000 O   0  0  0  0  0  0  0  0  0  0  0  0
   -1.3744    1.0912    0.0000 N   0  0  0  0  0  0  0  0  0  0  0  0
   -0.8580    0.4415    0.0000 N   0  0  0  0  0  0  0  0  0  0  0  0
   -1.0412   -1.0246    0.0000 N   0  0  0  0  0  0  0  0  0  0  0  0
   -3.5570   -0.0583    0.0000 N   0  0  0  0  0  0  0  0  0  0  0  0
    2.4907   -2.3741    0.0000 N   0  0  0  0  0  0  0  0  0  0  0  0
    0.8080    0.8913    0.0000 N   0  0  0  0  0  0  0  0  0  0  0  0
   -2.1242   -0.0083    0.0000 C   0  0  0  0  0  0  0  0  0  0  0  0
   -2.1409    0.8247    0.0000 C   0  0  0  0  0  0  0  0  0  0  0  0
   -1.3245   -0.2249    0.0000 C   0  0  0  0  0  0  0  0  0  0  0  0
   -1.1246    1.8910    0.0000 C   0  0  3  0  0  0  0  0  0  0  0  0
   -2.8073   -0.4415    0.0000 C   0  0  0  0  0  0  0  0  0  0  0  0
   -2.8739    1.2078    0.0000 C   0  0  0  0  0  0  0  0  0  0  0  0
    2.2075   -1.5910    0.0000 C   0  0  3  0  0  0  0  0  0  0  0  0
   -0.3415    2.0742    0.0000 C   0  0  3  0  0  0  0  0  0  0  0  0
   -0.2249   -1.1579    0.0000 C   0  0  0  0  0  0  0  0  0  0  0  0
    1.3912   -1.4412    0.0000 C   0  0  0  0  0  0  0  0  0  0  0  0
    2.7407   -0.9246    0.0000 C   0  0  0  0  0  0  0  0  0  0  0  0
   -3.5736    0.7747    0.0000 C   0  0  0  0  0  0  0  0  0  0  0  0
   -1.7077    2.4741    0.0000 C   0  0  0  0  0  0  0  0  0  0  0  0
    0.0583   -1.9243    0.0000 C   0  0  0  0  0  0  0  0  0  0  0  0
    0.3082   -0.5248    0.0000 C   0  0  0  0  0  0  0  0  0  0  0  0
    0.8747   -2.0576    0.0000 C   0  0  0  0  0  0  0  0  0  0  0  0
    1.1079   -0.6747    0.0000 C   0  0  0  0  0  0  0  0  0  0  0  0
   -0.1083    2.8905    0.0000 C   0  0  0  0  0  0  0  0  0  0  0  0
    2.1409   -3.1071    0.0000 C   0  0  0  0  0  0  0  0  0  0  0  0
    3.2405   -2.7239    0.0000 C   0  0  0  0  0  0  0  0  0  0  0  0
    0.2249    1.4744    0.0000 C   0  0  0  0  0  0  0  0  0  0  0  0
   -0.6747    3.4570    0.0000 C   0  0  0  0  0  0  0  0  0  0  0  0
    2.9073   -3.4570    0.0000 C   0  0  0  0  0  0  0  0  0  0  0  0
  1 22  1  0  0  0  0
  2 22  1  0  0  0  0
  3 22  1  0  0  0  0
  4 16  2  0  0  0  0
  5 24  1  0  0  0  0
  5 33  1  0  0  0  0
  6  7  1  0  0  0  0
  6 13  1  0  0  0  0
 15  6  1  1  0  0  0
  7 14  2  0  0  0  0
  8 14  1  0  0  0  0
  8 20  1  0  0  0  0
  9 16  1  0  0  0  0
  9 23  1  0  0  0  0
 10 18  1  0  0  0  0
 10 30  1  0  0  0  0
 10 31  1  0  0  0  0
 11 32  3  0  0  0  0
 12 13  2  0  0  0  0
 12 14  1  0  0  0  0
 12 16  1  0  0  0  0
 13 17  1  0  0  0  0
 15 19  1  0  0  0  0
 15 24  1  0  0  0  0
 17 23  2  0  0  0  0
 18 21  1  0  0  0  0
 18 22  1  0  0  0  0
 19 29  1  0  0  0  0
 19 32  1  6  0  0  0
 20 25  2  0  0  0  0
 20 26  1  0  0  0  0
 21 27  2  0  0  0  0
 21 28  1  0  0  0  0
 25 27  1  0  0  0  0
 26 28  2  0  0  0  0
 29 33  1  0  0  0  0
 30 34  1  0  0  0  0
 31 34  1  0  0  0  0
M  END
> <PUBCHEM_COMPOUND_ID_TYPE>
0

> <PUBCHEM_TOTAL_CHARGE>
0

> <PUBCHEM_SUBSTANCE_ID>
310943019

> <PUBCHEM_SUBSTANCE_VERSION>
1

> <PUBCHEM_EXT_DATASOURCE_NAME>
4488

> <PUBCHEM_EXT_DATASOURCE_REGID>
SCHEMBL16121078

> <PUBCHEM_SUBSTANCE_COMMENT>
InChI=1S/C23H23F3N6O2/c24-23(25,26)20(31-9-1-10-31)14-2-4-16(5-3-14)29-21-19-17(6-8-28-22(19)33)32(30-21)18-13-34-11-7-15(18)12-27/h2-6,8,15,18,20H,1,7,9-11,13H2,(H,28,33)(H,29,30)/t15-,18+,20?/m1/s1
InChIKey=XAILBBYMKDLIKC-GSPDCJABSA-N

> <PUBCHEM_SUBSTANCE_SYNONYM>
SCHEMBL16121078

> <PUBCHEM_XREF_EXT_ID>
SCHEMBL16121078

> <PUBCHEM_EXT_DATASOURCE_URL>
https://www.surechembl.org/

> <PUBCHEM_EXT_SUBSTANCE_URL>
https://www.surechembl.org/chemical/SCHEMBL16121078

> <PUBCHEM_CID_ASSOCIATIONS>
117609465  1

> <PUBCHEM_COORDINATE_TYPE>
1
3

> <PUBCHEM_BONDANNOTATIONS>
19  32  6
15  6  5

$$$$
