310949106
  -OEChem-07211613022D

 25 28  0     1  0  0  0  0  0999 V2000
    1.4688    2.6088    0.0000 F   0  0  0  0  0  0  0  0  0  0  0  0
    1.6742    1.5201    0.0000 F   0  0  0  0  0  0  0  0  0  0  0  0
    0.6060    1.3353    0.0000 F   0  0  0  0  0  0  0  0  0  0  0  0
   -1.2428   -2.6910    0.0000 O   0  0  0  0  0  0  0  0  0  0  0  0
   -0.5238   -1.4174    0.0000 N   0  0  0  0  0  0  0  0  0  0  0  0
    0.2568   -3.5332    0.0000 N   0  0  0  0  0  0  0  0  0  0  0  0
    1.0373   -3.7181    0.0000 N   0  0  0  0  0  0  0  0  0  0  0  0
    1.4482   -2.9991    0.0000 N   0  0  0  0  0  0  0  0  0  0  0  0
   -0.8730   -0.0822    0.0000 C   0  0  3  0  0  0  0  0  0  0  0  0
   -0.0514   -0.1438    0.0000 C   0  0  3  0  0  0  0  0  0  0  0  0
   -0.4211    1.1914    0.0000 C   0  0  0  0  0  0  0  0  0  0  0  0
   -0.3800    2.0748    0.0000 C   0  0  0  0  0  0  0  0  0  0  0  0
   -1.0579    0.7189    0.0000 C   0  0  0  0  0  0  0  0  0  0  0  0
    0.2362    0.6573    0.0000 C   0  0  0  0  0  0  0  0  0  0  0  0
    0.3390    2.4650    0.0000 C   0  0  0  0  0  0  0  0  0  0  0  0
   -1.1401   -0.8628    0.0000 C   0  0  0  0  0  0  0  0  0  0  0  0
    0.1541   -0.9449    0.0000 C   0  0  0  0  0  0  0  0  0  0  0  0
   -0.5444   -2.2596    0.0000 C   0  0  0  0  0  0  0  0  0  0  0  0
    1.0168    1.9720    0.0000 C   0  0  0  0  0  0  0  0  0  0  0  0
    0.1746   -2.6910    0.0000 C   0  0  0  0  0  0  0  0  0  0  0  0
   -1.0373    2.4650    0.0000 C   0  0  0  0  0  0  0  0  0  0  0  0
    0.3800    3.2867    0.0000 C   0  0  0  0  0  0  0  0  0  0  0  0
   -1.0373    3.3072    0.0000 C   0  0  0  0  0  0  0  0  0  0  0  0
   -0.2978    3.7181    0.0000 C   0  0  0  0  0  0  0  0  0  0  0  0
    0.8936   -2.3623    0.0000 C   0  0  0  0  0  0  0  0  0  0  0  0
  1 19  1  0  0  0  0
  2 19  1  0  0  0  0
  3 19  1  0  0  0  0
  4 18  2  0  0  0  0
  5 16  1  0  0  0  0
  5 17  1  0  0  0  0
  5 18  1  0  0  0  0
  6  7  2  0  0  0  0
  6 20  1  0  0  0  0
  7  8  1  0  0  0  0
  8 25  1  0  0  0  0
  9 10  1  0  0  0  0
  9 13  1  1  0  0  0
  9 16  1  0  0  0  0
 10 14  1  1  0  0  0
 10 17  1  0  0  0  0
 11 12  1  0  0  0  0
 11 13  1  1  0  0  0
 11 14  1  0  0  0  0
 12 15  2  0  0  0  0
 12 21  1  0  0  0  0
 15 19  1  0  0  0  0
 15 22  1  0  0  0  0
 18 20  1  0  0  0  0
 20 25  2  0  0  0  0
 21 23  2  0  0  0  0
 22 24  2  0  0  0  0
 23 24  1  0  0  0  0
M  END
> <PUBCHEM_COMPOUND_ID_TYPE>
0

> <PUBCHEM_TOTAL_CHARGE>
0

> <PUBCHEM_SUBSTANCE_ID>
310949106

> <PUBCHEM_SUBSTANCE_VERSION>
1

> <PUBCHEM_EXT_DATASOURCE_NAME>
4488

> <PUBCHEM_EXT_DATASOURCE_REGID>
SCHEMBL16127296

> <PUBCHEM_SUBSTANCE_COMMENT>
InChI=1S/C17H17F3N4O/c18-17(19,20)14-4-2-1-3-13(14)10-5-11-8-24(9-12(11)6-10)16(25)15-7-21-23-22-15/h1-4,7,10-12H,5-6,8-9H2,(H,21,22,23)/t10-,11-,12+
InChIKey=UMVDFNYNCXGJGN-CNDDSTCGSA-N

> <PUBCHEM_SUBSTANCE_SYNONYM>
SCHEMBL16127296

> <PUBCHEM_XREF_EXT_ID>
SCHEMBL16127296

> <PUBCHEM_EXT_DATASOURCE_URL>
https://www.surechembl.org/

> <PUBCHEM_EXT_SUBSTANCE_URL>
https://www.surechembl.org/chemical/SCHEMBL16127296

> <PUBCHEM_CID_ASSOCIATIONS>
86304443  1

> <PUBCHEM_COORDINATE_TYPE>
1
3

> <PUBCHEM_BONDANNOTATIONS>
10  14  5
11  13  5
9  13  5

$$$$
