310935360
  -OEChem-07211613022D

 26 28  0     0  0  0  0  0  0999 V2000
    8.1070   -2.8645    0.0000 F   0  0  0  0  0  0  0  0  0  0  0  0
    0.7026    0.0000    0.0000 F   0  0  0  0  0  0  0  0  0  0  0  0
    0.0000   -1.2160    0.0000 F   0  0  0  0  0  0  0  0  0  0  0  0
    0.0000   -0.4054    0.0000 F   0  0  0  0  0  0  0  0  0  0  0  0
    4.2967   -2.2159    0.0000 O   0  0  0  0  0  0  0  0  0  0  0  0
    1.4052   -2.0267    0.0000 O   0  0  0  0  0  0  0  0  0  0  0  0
    4.0265   -4.9182    0.0000 O   0  0  0  0  0  0  0  0  0  0  0  0
    5.3506   -4.4858    0.0000 N   0  0  0  0  0  0  0  0  0  0  0  0
    4.2967   -3.5400    0.0000 C   0  0  0  0  0  0  0  0  0  0  0  0
    3.5400   -3.2968    0.0000 C   0  0  0  0  0  0  0  0  0  0  0  0
    4.8101   -2.8645    0.0000 C   0  0  0  0  0  0  0  0  0  0  0  0
    3.5400   -2.4591    0.0000 C   0  0  0  0  0  0  0  0  0  0  0  0
    5.6208   -2.8645    0.0000 C   0  0  0  0  0  0  0  0  0  0  0  0
    4.5669   -4.3237    0.0000 C   0  0  0  0  0  0  0  0  0  0  0  0
    2.8104   -2.0537    0.0000 C   0  0  0  0  0  0  0  0  0  0  0  0
    2.8104   -3.7022    0.0000 C   0  0  0  0  0  0  0  0  0  0  0  0
    2.1078   -2.4591    0.0000 C   0  0  0  0  0  0  0  0  0  0  0  0
    2.1078   -3.2968    0.0000 C   0  0  0  0  0  0  0  0  0  0  0  0
    6.0532   -2.1618    0.0000 C   0  0  0  0  0  0  0  0  0  0  0  0
    6.0532   -3.5941    0.0000 C   0  0  0  0  0  0  0  0  0  0  0  0
    6.8639   -2.1618    0.0000 C   0  0  0  0  0  0  0  0  0  0  0  0
    6.8639   -3.5941    0.0000 C   0  0  0  0  0  0  0  0  0  0  0  0
    7.2693   -2.8645    0.0000 C   0  0  0  0  0  0  0  0  0  0  0  0
    1.4052   -1.2160    0.0000 C   0  0  0  0  0  0  0  0  0  0  0  0
    0.7026   -0.8107    0.0000 C   0  0  0  0  0  0  0  0  0  0  0  0
    5.6208   -5.2695    0.0000 C   0  0  0  0  0  0  0  0  0  0  0  0
  1 23  1  0  0  0  0
  2 25  1  0  0  0  0
  3 25  1  0  0  0  0
  4 25  1  0  0  0  0
  5 11  1  0  0  0  0
  5 12  1  0  0  0  0
  6 17  1  0  0  0  0
  6 24  1  0  0  0  0
  7 14  2  0  0  0  0
  8 14  1  0  0  0  0
  8 26  1  0  0  0  0
  9 10  1  0  0  0  0
  9 11  2  0  0  0  0
  9 14  1  0  0  0  0
 10 12  2  0  0  0  0
 10 16  1  0  0  0  0
 11 13  1  0  0  0  0
 12 15  1  0  0  0  0
 13 19  2  0  0  0  0
 13 20  1  0  0  0  0
 15 17  2  0  0  0  0
 16 18  2  0  0  0  0
 17 18  1  0  0  0  0
 19 21  1  0  0  0  0
 20 22  2  0  0  0  0
 21 23  2  0  0  0  0
 22 23  1  0  0  0  0
 24 25  1  0  0  0  0
M  END
> <PUBCHEM_COMPOUND_ID_TYPE>
0

> <PUBCHEM_TOTAL_CHARGE>
0

> <PUBCHEM_SUBSTANCE_ID>
310935360

> <PUBCHEM_SUBSTANCE_VERSION>
1

> <PUBCHEM_EXT_DATASOURCE_NAME>
4488

> <PUBCHEM_EXT_DATASOURCE_REGID>
SCHEMBL16112899

> <PUBCHEM_SUBSTANCE_COMMENT>
InChI=1S/C18H13F4NO3/c1-23-17(24)15-13-7-6-12(25-9-18(20,21)22)8-14(13)26-16(15)10-2-4-11(19)5-3-10/h2-8H,9H2,1H3,(H,23,24)
InChIKey=NIBRIORHHVOKMV-UHFFFAOYSA-N

> <PUBCHEM_SUBSTANCE_SYNONYM>
SCHEMBL16112899

> <PUBCHEM_XREF_EXT_ID>
SCHEMBL16112899

> <PUBCHEM_EXT_DATASOURCE_URL>
https://www.surechembl.org/

> <PUBCHEM_EXT_SUBSTANCE_URL>
https://www.surechembl.org/chemical/SCHEMBL16112899

> <PUBCHEM_CID_ASSOCIATIONS>
117603414  1

> <PUBCHEM_COORDINATE_TYPE>
1
3

$$$$
