310949821
  -OEChem-07211613022D

 20 21  0     0  0  0  0  0  0999 V2000
   -0.2275   -0.7256    0.0000 O   0  0  0  0  0  0  0  0  0  0  0  0
    3.5417   -0.0109    0.0000 O   0  0  0  0  0  0  0  0  0  0  0  0
    3.5633   -1.3972    0.0000 O   0  0  0  0  0  0  0  0  0  0  0  0
   -0.2491    0.7039    0.0000 N   0  0  0  0  0  0  0  0  0  0  0  0
   -2.7403   -0.7473    0.0000 N   0  0  0  0  0  0  0  0  0  0  0  0
   -0.6608    0.0109    0.0000 C   0  0  0  0  0  0  0  0  0  0  0  0
   -1.5055    0.0325    0.0000 C   0  0  0  0  0  0  0  0  0  0  0  0
    0.5957   -0.6824    0.0000 C   0  0  0  0  0  0  0  0  0  0  0  0
    2.2419   -0.6391    0.0000 C   0  0  0  0  0  0  0  0  0  0  0  0
    1.0289   -1.3756    0.0000 C   0  0  0  0  0  0  0  0  0  0  0  0
    1.0072    0.0325    0.0000 C   0  0  0  0  0  0  0  0  0  0  0  0
   -1.8955    0.6824    0.0000 C   0  0  0  0  0  0  0  0  0  0  0  0
    1.8738   -1.3538    0.0000 C   0  0  0  0  0  0  0  0  0  0  0  0
    1.8305    0.0542    0.0000 C   0  0  0  0  0  0  0  0  0  0  0  0
   -1.8955   -0.7039    0.0000 C   0  0  0  0  0  0  0  0  0  0  0  0
    3.1302   -0.6824    0.0000 C   0  0  0  0  0  0  0  0  0  0  0  0
   -0.6608    1.4189    0.0000 C   0  0  0  0  0  0  0  0  0  0  0  0
   -1.5055    1.4189    0.0000 C   0  0  0  0  0  0  0  0  0  0  0  0
   -3.1735   -1.4189    0.0000 C   0  0  0  0  0  0  0  0  0  0  0  0
   -3.5633   -0.0325    0.0000 C   0  0  0  0  0  0  0  0  0  0  0  0
  1  6  1  0  0  0  0
  1  8  1  0  0  0  0
  2 16  2  0  0  0  0
  3 16  1  0  0  0  0
  4  6  1  0  0  0  0
  4 17  2  0  0  0  0
  5 15  1  0  0  0  0
  5 19  1  0  0  0  0
  5 20  1  0  0  0  0
  6  7  2  0  0  0  0
  7 12  1  0  0  0  0
  7 15  1  0  0  0  0
  8 10  2  0  0  0  0
  8 11  1  0  0  0  0
  9 13  2  0  0  0  0
  9 14  1  0  0  0  0
  9 16  1  0  0  0  0
 10 13  1  0  0  0  0
 11 14  2  0  0  0  0
 12 18  2  0  0  0  0
 17 18  1  0  0  0  0
M  END
> <PUBCHEM_COMPOUND_ID_TYPE>
0

> <PUBCHEM_TOTAL_CHARGE>
0

> <PUBCHEM_SUBSTANCE_ID>
310949821

> <PUBCHEM_SUBSTANCE_VERSION>
1

> <PUBCHEM_EXT_DATASOURCE_NAME>
4488

> <PUBCHEM_EXT_DATASOURCE_REGID>
SCHEMBL16128021

> <PUBCHEM_SUBSTANCE_COMMENT>
InChI=1S/C15H16N2O3/c1-17(2)10-12-4-3-9-16-14(12)20-13-7-5-11(6-8-13)15(18)19/h3-9H,10H2,1-2H3,(H,18,19)
InChIKey=OLPWVSINLQYDIY-UHFFFAOYSA-N

> <PUBCHEM_SUBSTANCE_SYNONYM>
SCHEMBL16128021

> <PUBCHEM_XREF_EXT_ID>
SCHEMBL16128021

> <PUBCHEM_EXT_DATASOURCE_URL>
https://www.surechembl.org/

> <PUBCHEM_EXT_SUBSTANCE_URL>
https://www.surechembl.org/chemical/SCHEMBL16128021

> <PUBCHEM_CID_ASSOCIATIONS>
117615139  1

> <PUBCHEM_COORDINATE_TYPE>
1
3

$$$$
