310929494
  -OEChem-07211613022D

 25 26  0     0  0  0  0  0  0999 V2000
    9.9038   -2.8297    0.0000 O   0  0  0  0  0  0  0  0  0  0  0  0
    0.0000   -0.4245    0.0000 O   0  0  0  0  0  0  0  0  0  0  0  0
    9.9038   -1.2380    0.0000 N   0  0  0  0  0  0  0  0  0  0  0  0
    8.4891   -1.2380    0.0000 C   0  0  0  0  0  0  0  0  0  0  0  0
    9.1964   -1.6271    0.0000 C   0  0  0  0  0  0  0  0  0  0  0  0
    8.4891   -0.4245    0.0000 C   0  0  0  0  0  0  0  0  0  0  0  0
    9.1964   -2.4406    0.0000 C   0  0  0  0  0  0  0  0  0  0  0  0
    7.7816   -1.6271    0.0000 C   0  0  0  0  0  0  0  0  0  0  0  0
    9.1964    0.0000    0.0000 C   0  0  0  0  0  0  0  0  0  0  0  0
    8.4891   -2.8297    0.0000 C   0  0  0  0  0  0  0  0  0  0  0  0
    9.9038   -0.3891    0.0000 C   0  0  0  0  0  0  0  0  0  0  0  0
    7.7816   -2.4406    0.0000 C   0  0  0  0  0  0  0  0  0  0  0  0
    7.7816    0.0000    0.0000 C   0  0  0  0  0  0  0  0  0  0  0  0
    7.0742   -0.4245    0.0000 C   0  0  0  0  0  0  0  0  0  0  0  0
   10.6113   -2.4406    0.0000 C   0  0  0  0  0  0  0  0  0  0  0  0
    6.3668    0.0000    0.0000 C   0  0  0  0  0  0  0  0  0  0  0  0
   10.6113   -1.5917    0.0000 C   0  0  0  0  0  0  0  0  0  0  0  0
    5.6593   -0.4245    0.0000 C   0  0  0  0  0  0  0  0  0  0  0  0
    4.9519    0.0000    0.0000 C   0  0  0  0  0  0  0  0  0  0  0  0
    4.2445   -0.4245    0.0000 C   0  0  0  0  0  0  0  0  0  0  0  0
    3.5371    0.0000    0.0000 C   0  0  0  0  0  0  0  0  0  0  0  0
    2.8297   -0.4245    0.0000 C   0  0  0  0  0  0  0  0  0  0  0  0
    2.1223    0.0000    0.0000 C   0  0  0  0  0  0  0  0  0  0  0  0
    1.4149   -0.4245    0.0000 C   0  0  0  0  0  0  0  0  0  0  0  0
    0.7074    0.0000    0.0000 C   0  0  0  0  0  0  0  0  0  0  0  0
  1  7  1  0  0  0  0
  1 15  1  0  0  0  0
  2 25  1  0  0  0  0
  3  5  2  0  0  0  0
  3 11  1  0  0  0  0
  4  5  1  0  0  0  0
  4  6  2  0  0  0  0
  4  8  1  0  0  0  0
  5  7  1  0  0  0  0
  6  9  1  0  0  0  0
  6 13  1  0  0  0  0
  7 10  2  0  0  0  0
  8 12  2  0  0  0  0
  9 11  2  0  0  0  0
 10 12  1  0  0  0  0
 13 14  1  0  0  0  0
 14 16  1  0  0  0  0
 15 17  1  0  0  0  0
 16 18  1  0  0  0  0
 18 19  1  0  0  0  0
 19 20  1  0  0  0  0
 20 21  1  0  0  0  0
 21 22  1  0  0  0  0
 22 23  1  0  0  0  0
 23 24  1  0  0  0  0
 24 25  1  0  0  0  0
M  END
> <PUBCHEM_COMPOUND_ID_TYPE>
0

> <PUBCHEM_TOTAL_CHARGE>
0

> <PUBCHEM_SUBSTANCE_ID>
310929494

> <PUBCHEM_SUBSTANCE_VERSION>
1

> <PUBCHEM_EXT_DATASOURCE_NAME>
4488

> <PUBCHEM_EXT_DATASOURCE_REGID>
SCHEMBL16106670

> <PUBCHEM_SUBSTANCE_COMMENT>
InChI=1S/C22H33NO2/c1-2-25-21-15-12-14-20-19(16-17-23-22(20)21)13-10-8-6-4-3-5-7-9-11-18-24/h12,14-17,24H,2-11,13,18H2,1H3
InChIKey=USZUNSRTKWXXGL-UHFFFAOYSA-N

> <PUBCHEM_SUBSTANCE_SYNONYM>
SCHEMBL16106670

> <PUBCHEM_XREF_EXT_ID>
SCHEMBL16106670

> <PUBCHEM_EXT_DATASOURCE_URL>
https://www.surechembl.org/

> <PUBCHEM_EXT_SUBSTANCE_URL>
https://www.surechembl.org/chemical/SCHEMBL16106670

> <PUBCHEM_CID_ASSOCIATIONS>
117598822  1

> <PUBCHEM_COORDINATE_TYPE>
1
3

$$$$
