310932197
  -OEChem-07211613022D

 17 17  0     0  0  0  0  0  0999 V2000
    3.5504   -1.2359    0.0000 O   0  0  0  0  0  0  0  0  0  0  0  0
    2.8314    0.0000    0.0000 O   0  0  0  0  0  0  0  0  0  0  0  0
    2.1347   -4.4942    0.0000 O   0  0  0  0  0  0  0  0  0  0  0  0
    2.1347   -2.0448    0.0000 N   0  0  0  0  0  0  0  0  0  0  0  0
    0.6966   -1.2134    0.0000 N   0  0  0  0  0  0  0  0  0  0  0  0
    2.1347   -1.2359    0.0000 C   0  0  0  0  0  0  0  0  0  0  0  0
    2.8314   -0.8090    0.0000 C   0  0  0  0  0  0  0  0  0  0  0  0
    2.8538   -2.4493    0.0000 C   0  0  0  0  0  0  0  0  0  0  0  0
    1.4382   -2.4493    0.0000 C   0  0  0  0  0  0  0  0  0  0  0  0
    1.4156   -0.8090    0.0000 C   0  0  0  0  0  0  0  0  0  0  0  0
    2.1347   -3.6853    0.0000 C   0  0  0  0  0  0  0  0  0  0  0  0
    1.3932   -3.2808    0.0000 C   0  0  0  0  0  0  0  0  0  0  0  0
    2.8314   -3.2808    0.0000 C   0  0  0  0  0  0  0  0  0  0  0  0
    4.2470   -0.8090    0.0000 C   0  0  0  0  0  0  0  0  0  0  0  0
    0.0000   -0.8090    0.0000 C   0  0  0  0  0  0  0  0  0  0  0  0
    0.7191   -2.0448    0.0000 C   0  0  0  0  0  0  0  0  0  0  0  0
    4.2470    0.0000    0.0000 C   0  0  0  0  0  0  0  0  0  0  0  0
  1  7  1  0  0  0  0
  1 14  1  0  0  0  0
  2  7  2  0  0  0  0
  3 11  2  0  0  0  0
  4  6  1  0  0  0  0
  4  8  1  0  0  0  0
  4  9  1  0  0  0  0
  5 10  1  0  0  0  0
  5 15  1  0  0  0  0
  5 16  1  0  0  0  0
  6  7  1  0  0  0  0
  6 10  2  0  0  0  0
  8 13  2  0  0  0  0
  9 12  2  0  0  0  0
 11 12  1  0  0  0  0
 11 13  1  0  0  0  0
 14 17  1  0  0  0  0
M  END
> <PUBCHEM_COMPOUND_ID_TYPE>
0

> <PUBCHEM_TOTAL_CHARGE>
0

> <PUBCHEM_SUBSTANCE_ID>
310932197

> <PUBCHEM_SUBSTANCE_VERSION>
1

> <PUBCHEM_EXT_DATASOURCE_NAME>
4488

> <PUBCHEM_EXT_DATASOURCE_REGID>
SCHEMBL16109553

> <PUBCHEM_SUBSTANCE_COMMENT>
InChI=1S/C12H16N2O3/c1-4-17-12(16)11(9-13(2)3)14-7-5-10(15)6-8-14/h5-9H,4H2,1-3H3/b11-9-
InChIKey=IZZVBXPIJYGMAM-LUAWRHEFSA-N

> <PUBCHEM_SUBSTANCE_SYNONYM>
SCHEMBL16109553

> <PUBCHEM_XREF_EXT_ID>
SCHEMBL16109553

> <PUBCHEM_EXT_DATASOURCE_URL>
https://www.surechembl.org/

> <PUBCHEM_EXT_SUBSTANCE_URL>
https://www.surechembl.org/chemical/SCHEMBL16109553

> <PUBCHEM_CID_ASSOCIATIONS>
117600789  1

> <PUBCHEM_COORDINATE_TYPE>
1
3

$$$$
