310945333
  -OEChem-07211613022D

 23 25  0     0  0  0  0  0  0999 V2000
   -2.2411    0.8620    0.0000 Cl  0  0  0  0  0  0  0  0  0  0  0  0
   -2.5259   -0.9668    0.0000 S   0  0  0  0  0  0  0  0  0  0  0  0
    0.1574    1.0118    0.0000 F   0  0  0  0  0  0  0  0  0  0  0  0
    1.0418    1.7164    0.0000 F   0  0  0  0  0  0  0  0  0  0  0  0
    1.9413    1.0118    0.0000 F   0  0  0  0  0  0  0  0  0  0  0  0
    3.0206   -0.5022    0.0000 F   0  0  0  0  0  0  0  0  0  0  0  0
    3.3503   -1.4616    0.0000 F   0  0  0  0  0  0  0  0  0  0  0  0
    2.1361   -1.7164    0.0000 F   0  0  0  0  0  0  0  0  0  0  0  0
   -0.5922    0.1873    0.0000 N   0  0  0  0  0  0  0  0  0  0  0  0
    1.8064   -0.0524    0.0000 N   0  0  0  0  0  0  0  0  0  0  0  0
   -0.6071   -0.9668    0.0000 N   0  0  0  0  0  0  0  0  0  0  0  0
    1.0269   -1.1168    0.0000 N   0  0  0  0  0  0  0  0  0  0  0  0
    0.2623   -0.0524    0.0000 C   0  0  0  0  0  0  0  0  0  0  0  0
    1.0118    0.2923    0.0000 C   0  0  0  0  0  0  0  0  0  0  0  0
    0.2323   -0.7570    0.0000 C   0  0  0  0  0  0  0  0  0  0  0  0
   -1.1168   -0.4122    0.0000 C   0  0  0  0  0  0  0  0  0  0  0  0
    1.8064   -0.7720    0.0000 C   0  0  0  0  0  0  0  0  0  0  0  0
    1.0269    1.0118    0.0000 C   0  0  0  0  0  0  0  0  0  0  0  0
   -2.0012   -0.3972    0.0000 C   0  0  0  0  0  0  0  0  0  0  0  0
    2.5708   -1.1168    0.0000 C   0  0  0  0  0  0  0  0  0  0  0  0
   -2.5259    0.1574    0.0000 C   0  0  0  0  0  0  0  0  0  0  0  0
   -3.3503   -0.0675    0.0000 C   0  0  0  0  0  0  0  0  0  0  0  0
   -3.3503   -0.7570    0.0000 C   0  0  0  0  0  0  0  0  0  0  0  0
  1 21  1  0  0  0  0
  2 19  1  0  0  0  0
  2 23  1  0  0  0  0
  3 18  1  0  0  0  0
  4 18  1  0  0  0  0
  5 18  1  0  0  0  0
  6 20  1  0  0  0  0
  7 20  1  0  0  0  0
  8 20  1  0  0  0  0
  9 13  1  0  0  0  0
  9 16  2  0  0  0  0
 10 14  2  0  0  0  0
 10 17  1  0  0  0  0
 11 15  1  0  0  0  0
 11 16  1  0  0  0  0
 12 15  1  0  0  0  0
 12 17  2  0  0  0  0
 13 14  1  0  0  0  0
 13 15  2  0  0  0  0
 14 18  1  0  0  0  0
 16 19  1  0  0  0  0
 17 20  1  0  0  0  0
 19 21  2  0  0  0  0
 21 22  1  0  0  0  0
 22 23  2  0  0  0  0
M  END
> <PUBCHEM_COMPOUND_ID_TYPE>
0

> <PUBCHEM_TOTAL_CHARGE>
0

> <PUBCHEM_SUBSTANCE_ID>
310945333

> <PUBCHEM_SUBSTANCE_VERSION>
1

> <PUBCHEM_EXT_DATASOURCE_NAME>
4488

> <PUBCHEM_EXT_DATASOURCE_REGID>
SCHEMBL16123431

> <PUBCHEM_SUBSTANCE_COMMENT>
InChI=1S/C11H3ClF6N4S/c12-3-1-2-23-5(3)8-19-4-6(10(13,14)15)20-9(11(16,17)18)22-7(4)21-8/h1-2H,(H,19,20,21,22)
InChIKey=HWQIPCIYGFXXDF-UHFFFAOYSA-N

> <PUBCHEM_SUBSTANCE_SYNONYM>
SCHEMBL16123431

> <PUBCHEM_XREF_EXT_ID>
SCHEMBL16123431

> <PUBCHEM_EXT_DATASOURCE_URL>
https://www.surechembl.org/

> <PUBCHEM_EXT_SUBSTANCE_URL>
https://www.surechembl.org/chemical/SCHEMBL16123431

> <PUBCHEM_CID_ASSOCIATIONS>
117611392  1

> <PUBCHEM_COORDINATE_TYPE>
1
3

$$$$
