310945733
  -OEChem-07211613022D

 34 38  0     1  0  0  0  0  0999 V2000
   -0.8643    1.2869    0.0000 F   0  0  0  0  0  0  0  0  0  0  0  0
   -1.1908    2.3817    0.0000 F   0  0  0  0  0  0  0  0  0  0  0  0
   -0.0768    2.7082    0.0000 F   0  0  0  0  0  0  0  0  0  0  0  0
   -2.7275   -2.6891    0.0000 O   0  0  0  0  0  0  0  0  0  0  0  0
    2.2857   -1.0180    0.0000 O   0  0  0  0  0  0  0  0  0  0  0  0
   -1.9976   -1.4021    0.0000 N   0  0  0  0  0  0  0  0  0  0  0  0
   -1.9400    1.1908    0.0000 N   0  0  0  0  0  0  0  0  0  0  0  0
   -0.4802   -2.3433    0.0000 N   0  0  0  0  0  0  0  0  0  0  0  0
   -1.1908   -3.5150    0.0000 N   0  0  0  0  0  0  0  0  0  0  0  0
   -0.3841   -3.6878    0.0000 N   0  0  0  0  0  0  0  0  0  0  0  0
    0.8643   -0.5955    0.0000 N   0  0  0  0  0  0  0  0  0  0  0  0
    1.9015    0.4034    0.0000 N   0  0  0  0  0  0  0  0  0  0  0  0
   -1.5558   -0.0961    0.0000 C   0  0  3  0  0  0  0  0  0  0  0  0
   -2.4009   -0.0961    0.0000 C   0  0  3  0  0  0  0  0  0  0  0  0
   -1.2869   -2.7082    0.0000 C   0  0  0  0  0  0  0  0  0  0  0  0
   -2.0168   -2.2281    0.0000 C   0  0  0  0  0  0  0  0  0  0  0  0
   -1.9400    2.0168    0.0000 C   0  0  0  0  0  0  0  0  0  0  0  0
   -1.3253   -0.9219    0.0000 C   0  0  0  0  0  0  0  0  0  0  0  0
   -2.6507   -0.9027    0.0000 C   0  0  0  0  0  0  0  0  0  0  0  0
   -1.2677    0.6723    0.0000 C   0  0  0  0  0  0  0  0  0  0  0  0
   -2.6314    0.6914    0.0000 C   0  0  0  0  0  0  0  0  0  0  0  0
    0.0576   -2.9580    0.0000 C   0  0  0  0  0  0  0  0  0  0  0  0
   -1.2677    2.4586    0.0000 C   0  0  0  0  0  0  0  0  0  0  0  0
   -0.1921   -1.5366    0.0000 C   0  0  0  0  0  0  0  0  0  0  0  0
   -0.4802    2.0168    0.0000 C   0  0  0  0  0  0  0  0  0  0  0  0
    0.5762   -1.3637    0.0000 C   0  0  0  0  0  0  0  0  0  0  0  0
    0.8643   -2.7851    0.0000 C   0  0  0  0  0  0  0  0  0  0  0  0
   -2.6698    2.4586    0.0000 C   0  0  0  0  0  0  0  0  0  0  0  0
    1.1333   -2.0168    0.0000 C   0  0  0  0  0  0  0  0  0  0  0  0
   -1.2292    3.2652    0.0000 C   0  0  0  0  0  0  0  0  0  0  0  0
   -2.6507    3.3037    0.0000 C   0  0  0  0  0  0  0  0  0  0  0  0
   -1.9207    3.6878    0.0000 C   0  0  0  0  0  0  0  0  0  0  0  0
    1.6519   -0.3841    0.0000 C   0  0  0  0  0  0  0  0  0  0  0  0
    2.7275    0.6147    0.0000 C   0  0  0  0  0  0  0  0  0  0  0  0
  1 25  1  0  0  0  0
  2 25  1  0  0  0  0
  3 25  1  0  0  0  0
  4 16  2  0  0  0  0
  5 33  2  0  0  0  0
  6 16  1  0  0  0  0
  6 18  1  0  0  0  0
  6 19  1  0  0  0  0
  7 17  1  0  0  0  0
  7 20  1  0  0  0  0
  7 21  1  0  0  0  0
  8 15  1  0  0  0  0
  8 22  1  0  0  0  0
  8 24  1  0  0  0  0
  9 10  1  0  0  0  0
  9 15  2  0  0  0  0
 10 22  2  0  0  0  0
 11 26  1  0  0  0  0
 11 33  1  0  0  0  0
 12 33  1  0  0  0  0
 12 34  1  0  0  0  0
 13 14  1  0  0  0  0
 13 18  1  1  0  0  0
 13 20  1  0  0  0  0
 14 19  1  0  0  0  0
 14 21  1  0  0  0  0
 15 16  1  0  0  0  0
 17 23  2  0  0  0  0
 17 28  1  0  0  0  0
 22 27  1  0  0  0  0
 23 25  1  0  0  0  0
 23 30  1  0  0  0  0
 24 26  2  0  0  0  0
 26 29  1  0  0  0  0
 27 29  2  0  0  0  0
 28 31  2  0  0  0  0
 30 32  2  0  0  0  0
 31 32  1  0  0  0  0
M  END
> <PUBCHEM_COMPOUND_ID_TYPE>
0

> <PUBCHEM_TOTAL_CHARGE>
0

> <PUBCHEM_SUBSTANCE_ID>
310945733

> <PUBCHEM_SUBSTANCE_VERSION>
1

> <PUBCHEM_EXT_DATASOURCE_NAME>
4488

> <PUBCHEM_EXT_DATASOURCE_REGID>
SCHEMBL16123837

> <PUBCHEM_SUBSTANCE_COMMENT>
InChI=1S/C22H22F3N7O2/c1-26-21(34)27-15-6-7-18-28-29-19(32(18)12-15)20(33)31-10-13-8-30(9-14(13)11-31)17-5-3-2-4-16(17)22(23,24)25/h2-7,12-14H,8-11H2,1H3,(H2,26,27,34)/t13-,14?/m0/s1
InChIKey=AOFKXYKATQNPOA-LSLKUGRBSA-N

> <PUBCHEM_SUBSTANCE_SYNONYM>
SCHEMBL16123837

> <PUBCHEM_XREF_EXT_ID>
SCHEMBL16123837

> <PUBCHEM_EXT_DATASOURCE_URL>
https://www.surechembl.org/

> <PUBCHEM_EXT_SUBSTANCE_URL>
https://www.surechembl.org/chemical/SCHEMBL16123837

> <PUBCHEM_CID_ASSOCIATIONS>
117611729  1

> <PUBCHEM_COORDINATE_TYPE>
1
3

> <PUBCHEM_BONDANNOTATIONS>
13  18  5

$$$$
