310932797
  -OEChem-07211613022D

 26 28  0     0  0  0  0  0  0999 V2000
    9.8994   -3.8278    0.0000 F   0  0  0  0  0  0  0  0  0  0  0  0
    3.9927   -2.1118    0.0000 O   0  0  0  0  0  0  0  0  0  0  0  0
    8.4475   -2.1779    0.0000 O   0  0  0  0  0  0  0  0  0  0  0  0
    4.8837   -0.9570    0.0000 N   0  0  0  0  0  0  0  0  0  0  0  0
    4.8177   -0.1320    0.0000 N   0  0  0  0  0  0  0  0  0  0  0  0
    6.3356   -0.9570    0.0000 N   0  0  0  0  0  0  0  0  0  0  0  0
    7.7545   -3.4318    0.0000 N   0  0  0  0  0  0  0  0  0  0  0  0
    0.0000   -1.8149    0.0000 N   0  0  0  0  0  0  0  0  0  0  0  0
    4.1577   -1.2869    0.0000 C   0  0  0  0  0  0  0  0  0  0  0  0
    3.5968   -0.6930    0.0000 C   0  0  0  0  0  0  0  0  0  0  0  0
    5.6096   -1.3859    0.0000 C   0  0  0  0  0  0  0  0  0  0  0  0
    2.7718   -0.7920    0.0000 C   0  0  0  0  0  0  0  0  0  0  0  0
    3.9927    0.0000    0.0000 C   0  0  0  0  0  0  0  0  0  0  0  0
    5.6096   -2.1779    0.0000 C   0  0  0  0  0  0  0  0  0  0  0  0
    7.0286   -2.1779    0.0000 C   0  0  0  0  0  0  0  0  0  0  0  0
    2.4418   -1.5509    0.0000 C   0  0  0  0  0  0  0  0  0  0  0  0
    2.2768   -0.1320    0.0000 C   0  0  0  0  0  0  0  0  0  0  0  0
    7.0286   -1.3859    0.0000 C   0  0  0  0  0  0  0  0  0  0  0  0
    6.3356   -2.6068    0.0000 C   0  0  0  0  0  0  0  0  0  0  0  0
    7.7545   -2.6068    0.0000 C   0  0  0  0  0  0  0  0  0  0  0  0
    1.1549   -0.9899    0.0000 C   0  0  0  0  0  0  0  0  0  0  0  0
    1.6169   -1.6499    0.0000 C   0  0  0  0  0  0  0  0  0  0  0  0
    1.4849   -0.2310    0.0000 C   0  0  0  0  0  0  0  0  0  0  0  0
    0.3300   -1.0560    0.0000 C   0  0  0  0  0  0  0  0  0  0  0  0
    8.4805   -3.8278    0.0000 C   0  0  0  0  0  0  0  0  0  0  0  0
    9.1734   -3.4318    0.0000 C   0  0  0  0  0  0  0  0  0  0  0  0
  1 26  1  0  0  0  0
  2  9  1  0  0  0  0
  3 20  2  0  0  0  0
  4  5  1  0  0  0  0
  4  9  1  0  0  0  0
  4 11  1  0  0  0  0
  5 13  2  0  0  0  0
  6 11  2  0  0  0  0
  6 18  1  0  0  0  0
  7 20  1  0  0  0  0
  7 25  1  0  0  0  0
  8 24  3  0  0  0  0
  9 10  2  0  0  0  0
 10 12  1  0  0  0  0
 10 13  1  0  0  0  0
 11 14  1  0  0  0  0
 12 16  2  0  0  0  0
 12 17  1  0  0  0  0
 14 19  2  0  0  0  0
 15 18  2  0  0  0  0
 15 19  1  0  0  0  0
 15 20  1  0  0  0  0
 16 22  1  0  0  0  0
 17 23  2  0  0  0  0
 21 22  2  0  0  0  0
 21 23  1  0  0  0  0
 21 24  1  0  0  0  0
 25 26  1  0  0  0  0
M  END
> <PUBCHEM_COMPOUND_ID_TYPE>
0

> <PUBCHEM_TOTAL_CHARGE>
0

> <PUBCHEM_SUBSTANCE_ID>
310932797

> <PUBCHEM_SUBSTANCE_VERSION>
1

> <PUBCHEM_EXT_DATASOURCE_NAME>
4488

> <PUBCHEM_EXT_DATASOURCE_REGID>
SCHEMBL16110185

> <PUBCHEM_SUBSTANCE_COMMENT>
InChI=1S/C18H14FN5O2/c19-7-8-21-17(25)14-5-6-16(22-10-14)24-18(26)15(11-23-24)13-3-1-12(9-20)2-4-13/h1-6,10-11,26H,7-8H2,(H,21,25)
InChIKey=NUAGQCXTOAILEY-UHFFFAOYSA-N

> <PUBCHEM_SUBSTANCE_SYNONYM>
SCHEMBL16110185

> <PUBCHEM_XREF_EXT_ID>
SCHEMBL16110185

> <PUBCHEM_EXT_DATASOURCE_URL>
https://www.surechembl.org/

> <PUBCHEM_EXT_SUBSTANCE_URL>
https://www.surechembl.org/chemical/SCHEMBL16110185

> <PUBCHEM_CID_ASSOCIATIONS>
117601288  1

> <PUBCHEM_COORDINATE_TYPE>
1
3

$$$$
