310947686
  -OEChem-07211613022D

  9  9  0     0  0  0  0  0  0999 V2000
   -3.6354   -2.6005    0.0000 N   0  0  0  0  0  0  0  0  0  0  0  0
   -2.9679   -2.1156    0.0000 N   0  0  0  0  0  0  0  0  0  0  0  0
   -5.0173   -2.5281    0.0000 N   0  0  0  0  0  0  0  0  0  0  0  0
   -5.2854    0.8125    0.0000 N   0  0  0  0  0  0  0  0  0  0  0  0
   -4.0479   -1.3310    0.0000 C   0  0  0  0  0  0  0  0  0  0  0  0
   -4.3028   -2.1156    0.0000 C   0  0  0  0  0  0  0  0  0  0  0  0
   -3.2229   -1.3310    0.0000 C   0  0  0  0  0  0  0  0  0  0  0  0
   -4.4604   -0.6165    0.0000 C   0  0  0  0  0  0  0  0  0  0  0  0
   -4.8729    0.0980    0.0000 C   0  0  0  0  0  0  0  0  0  0  0  0
  1  2  1  0  0  0  0
  1  6  1  0  0  0  0
  2  7  2  0  0  0  0
  3  6  1  0  0  0  0
  4  9  1  0  0  0  0
  5  6  2  0  0  0  0
  5  7  1  0  0  0  0
  5  8  1  0  0  0  0
  8  9  3  0  0  0  0
M  END
> <PUBCHEM_COMPOUND_ID_TYPE>
0

> <PUBCHEM_TOTAL_CHARGE>
0

> <PUBCHEM_SUBSTANCE_ID>
310947686

> <PUBCHEM_SUBSTANCE_VERSION>
1

> <PUBCHEM_EXT_DATASOURCE_NAME>
4488

> <PUBCHEM_EXT_DATASOURCE_REGID>
SCHEMBL16125854

> <PUBCHEM_SUBSTANCE_COMMENT>
InChI=1S/C5H6N4/c6-2-1-4-3-8-9-5(4)7/h3H,6H2,(H3,7,8,9)
InChIKey=GDMGIPZDHFCKBX-UHFFFAOYSA-N

> <PUBCHEM_SUBSTANCE_SYNONYM>
SCHEMBL16125854

> <PUBCHEM_XREF_EXT_ID>
SCHEMBL16125854

> <PUBCHEM_EXT_DATASOURCE_URL>
https://www.surechembl.org/

> <PUBCHEM_EXT_SUBSTANCE_URL>
https://www.surechembl.org/chemical/SCHEMBL16125854

> <PUBCHEM_CID_ASSOCIATIONS>
117613400  1

> <PUBCHEM_COORDINATE_TYPE>
1
3

$$$$
