310943292
  -OEChem-07211613022D

 38 42  0     0  0  0  0  0  0999 V2000
    4.6301    1.4396    0.0000 S   0  0  0  0  0  0  0  0  0  0  0  0
    1.7678    2.2646    0.0000 O   0  0  0  0  0  0  0  0  0  0  0  0
   -2.5087   -2.6855    0.0000 O   0  0  0  0  0  0  0  0  0  0  0  0
   -5.3709    2.2646    0.0000 O   0  0  0  0  0  0  0  0  0  0  0  0
    4.6301    2.2646    0.0000 O   0  0  0  0  0  0  0  0  0  0  0  0
    5.2194    2.0288    0.0000 O   0  0  0  0  0  0  0  0  0  0  0  0
   -3.2158    0.2104    0.0000 N   0  0  0  0  0  0  0  0  0  0  0  0
   -2.5087   -1.0186    0.0000 N   0  0  0  0  0  0  0  0  0  0  0  0
   -3.9230    1.4396    0.0000 N   0  0  0  0  0  0  0  0  0  0  0  0
    1.0607    1.0354    0.0000 N   0  0  0  0  0  0  0  0  0  0  0  0
    3.9230    0.2104    0.0000 N   0  0  0  0  0  0  0  0  0  0  0  0
   -1.7847    1.0523    0.0000 C   0  0  0  0  0  0  0  0  0  0  0  0
   -1.0776    1.4564    0.0000 C   0  0  0  0  0  0  0  0  0  0  0  0
   -2.5087   -0.1936    0.0000 C   0  0  0  0  0  0  0  0  0  0  0  0
   -3.2158    1.0523    0.0000 C   0  0  0  0  0  0  0  0  0  0  0  0
   -1.8015    0.1936    0.0000 C   0  0  0  0  0  0  0  0  0  0  0  0
   -2.5255    1.4396    0.0000 C   0  0  0  0  0  0  0  0  0  0  0  0
   -1.0776    2.2814    0.0000 C   0  0  0  0  0  0  0  0  0  0  0  0
   -0.3367    1.0523    0.0000 C   0  0  0  0  0  0  0  0  0  0  0  0
    0.3535    1.4564    0.0000 C   0  0  0  0  0  0  0  0  0  0  0  0
    2.4919    1.0354    0.0000 C   0  0  0  0  0  0  0  0  0  0  0  0
    1.7678    1.4396    0.0000 C   0  0  0  0  0  0  0  0  0  0  0  0
   -0.3704    2.6686    0.0000 C   0  0  0  0  0  0  0  0  0  0  0  0
    3.9230    1.0354    0.0000 C   0  0  0  0  0  0  0  0  0  0  0  0
    0.3367    2.2646    0.0000 C   0  0  0  0  0  0  0  0  0  0  0  0
    3.1990    1.4396    0.0000 C   0  0  0  0  0  0  0  0  0  0  0  0
   -1.7847   -1.4396    0.0000 C   0  0  0  0  0  0  0  0  0  0  0  0
   -3.2158   -1.4227    0.0000 C   0  0  0  0  0  0  0  0  0  0  0  0
   -3.9230    2.2646    0.0000 C   0  0  0  0  0  0  0  0  0  0  0  0
   -4.6638    1.0354    0.0000 C   0  0  0  0  0  0  0  0  0  0  0  0
    2.4919    0.2104    0.0000 C   0  0  0  0  0  0  0  0  0  0  0  0
   -1.8015    2.6686    0.0000 C   0  0  0  0  0  0  0  0  0  0  0  0
    3.2158   -0.1936    0.0000 C   0  0  0  0  0  0  0  0  0  0  0  0
   -1.8015   -2.2646    0.0000 C   0  0  0  0  0  0  0  0  0  0  0  0
   -3.2158   -2.2646    0.0000 C   0  0  0  0  0  0  0  0  0  0  0  0
   -4.6470    2.6855    0.0000 C   0  0  0  0  0  0  0  0  0  0  0  0
   -5.3541    1.4396    0.0000 C   0  0  0  0  0  0  0  0  0  0  0  0
    5.3709    1.0186    0.0000 C   0  0  0  0  0  0  0  0  0  0  0  0
  1  5  2  0  0  0  0
  1  6  2  0  0  0  0
  1 24  1  0  0  0  0
  1 38  1  0  0  0  0
  2 22  2  0  0  0  0
  3 34  1  0  0  0  0
  3 35  1  0  0  0  0
  4 36  1  0  0  0  0
  4 37  1  0  0  0  0
  7 14  2  0  0  0  0
  7 15  1  0  0  0  0
  8 14  1  0  0  0  0
  8 27  1  0  0  0  0
  8 28  1  0  0  0  0
  9 15  1  0  0  0  0
  9 29  1  0  0  0  0
  9 30  1  0  0  0  0
 10 20  1  0  0  0  0
 10 22  1  0  0  0  0
 11 24  1  0  0  0  0
 11 33  2  0  0  0  0
 12 13  1  0  0  0  0
 12 16  2  0  0  0  0
 12 17  1  0  0  0  0
 13 18  2  0  0  0  0
 13 19  1  0  0  0  0
 14 16  1  0  0  0  0
 15 17  2  0  0  0  0
 18 23  1  0  0  0  0
 18 32  1  0  0  0  0
 19 20  2  0  0  0  0
 20 25  1  0  0  0  0
 21 22  1  0  0  0  0
 21 26  1  0  0  0  0
 21 31  2  0  0  0  0
 23 25  2  0  0  0  0
 24 26  2  0  0  0  0
 27 34  1  0  0  0  0
 28 35  1  0  0  0  0
 29 36  1  0  0  0  0
 30 37  1  0  0  0  0
 31 33  1  0  0  0  0
M  END
> <PUBCHEM_COMPOUND_ID_TYPE>
0

> <PUBCHEM_TOTAL_CHARGE>
0

> <PUBCHEM_SUBSTANCE_ID>
310943292

> <PUBCHEM_SUBSTANCE_VERSION>
1

> <PUBCHEM_EXT_DATASOURCE_NAME>
4488

> <PUBCHEM_EXT_DATASOURCE_REGID>
SCHEMBL16121354

> <PUBCHEM_SUBSTANCE_COMMENT>
InChI=1S/C27H31N5O5S/c1-19-3-4-22(29-27(33)20-5-6-28-26(17-20)38(2,34)35)18-23(19)21-15-24(31-7-11-36-12-8-31)30-25(16-21)32-9-13-37-14-10-32/h3-6,15-18H,7-14H2,1-2H3,(H,29,33)
InChIKey=SFKJCDRNMOKSAF-UHFFFAOYSA-N

> <PUBCHEM_SUBSTANCE_SYNONYM>
SCHEMBL16121354

> <PUBCHEM_XREF_EXT_ID>
SCHEMBL16121354

> <PUBCHEM_EXT_DATASOURCE_URL>
https://www.surechembl.org/

> <PUBCHEM_EXT_SUBSTANCE_URL>
https://www.surechembl.org/chemical/SCHEMBL16121354

> <PUBCHEM_CID_ASSOCIATIONS>
117609717  1

> <PUBCHEM_COORDINATE_TYPE>
1
3

$$$$
