310937448
  -OEChem-07211613022D

 38 41  0     1  0  0  0  0  0999 V2000
    1.3648    0.0000    0.0000 Br  0  0  0  0  0  0  0  0  0  0  0  0
    5.3682   -5.9141    0.0000 F   0  0  0  0  0  0  0  0  0  0  0  0
    6.7936   -5.7624    0.0000 F   0  0  0  0  0  0  0  0  0  0  0  0
    5.3075   -5.0952    0.0000 F   0  0  0  0  0  0  0  0  0  0  0  0
    9.0986   -4.0944    0.0000 F   0  0  0  0  0  0  0  0  0  0  0  0
    8.2797   -2.9419    0.0000 F   0  0  0  0  0  0  0  0  0  0  0  0
    8.4313   -4.5796    0.0000 F   0  0  0  0  0  0  0  0  0  0  0  0
    6.0051   -1.8197    0.0000 O   0  0  0  0  0  0  0  0  0  0  0  0
    5.3378   -0.5156    0.0000 O   0  0  0  0  0  0  0  0  0  0  0  0
    4.6706   -1.8197    0.0000 N   0  0  0  0  0  0  0  0  0  0  0  0
    2.0017   -3.1845    0.0000 N   0  0  0  0  0  0  0  0  0  0  0  0
    2.3049   -1.0311    0.0000 N   0  0  0  0  0  0  0  0  0  0  0  0
    1.0918   -2.1230    0.0000 N   0  0  0  0  0  0  0  0  0  0  0  0
    6.2174   -3.2755    0.0000 C   0  0  0  0  0  0  0  0  0  0  0  0
    5.7321   -2.6083    0.0000 C   0  0  3  0  0  0  0  0  0  0  0  0
    6.3993   -4.6706    0.0000 C   0  0  0  0  0  0  0  0  0  0  0  0
    7.5215   -3.8517    0.0000 C   0  0  0  0  0  0  0  0  0  0  0  0
    7.0362   -3.1845    0.0000 C   0  0  0  0  0  0  0  0  0  0  0  0
    5.9141   -4.0034    0.0000 C   0  0  0  0  0  0  0  0  0  0  0  0
    7.1879   -4.5796    0.0000 C   0  0  0  0  0  0  0  0  0  0  0  0
    6.0354   -5.4288    0.0000 C   0  0  0  0  0  0  0  0  0  0  0  0
    8.3707   -3.7607    0.0000 C   0  0  0  0  0  0  0  0  0  0  0  0
    4.9132   -2.6083    0.0000 C   0  0  0  0  0  0  0  0  0  0  0  0
    5.3378   -1.3345    0.0000 C   0  0  0  0  0  0  0  0  0  0  0  0
    1.8501   -2.3960    0.0000 C   0  0  0  0  0  0  0  0  0  0  0  0
    2.4870   -1.8501    0.0000 C   0  0  0  0  0  0  0  0  0  0  0  0
    3.8821   -1.5771    0.0000 C   0  0  0  0  0  0  0  0  0  0  0  0
    3.2755   -2.1230    0.0000 C   0  0  0  0  0  0  0  0  0  0  0  0
    1.3951   -3.7304    0.0000 C   0  0  0  0  0  0  0  0  0  0  0  0
    1.5468   -0.7886    0.0000 C   0  0  0  0  0  0  0  0  0  0  0  0
    0.9099   -1.3345    0.0000 C   0  0  0  0  0  0  0  0  0  0  0  0
    2.7902   -3.4575    0.0000 C   0  0  0  0  0  0  0  0  0  0  0  0
    1.5164   -4.5493    0.0000 C   0  0  0  0  0  0  0  0  0  0  0  0
    0.6066   -3.4575    0.0000 C   0  0  0  0  0  0  0  0  0  0  0  0
    0.9099   -5.0649    0.0000 C   0  0  0  0  0  0  0  0  0  0  0  0
    0.0000   -4.0034    0.0000 C   0  0  0  0  0  0  0  0  0  0  0  0
    0.1213   -4.8222    0.0000 C   0  0  0  0  0  0  0  0  0  0  0  0
    3.3968   -2.9116    0.0000 C   0  0  0  0  0  0  0  0  0  0  0  0
  1 30  1  0  0  0  0
  2 21  1  0  0  0  0
  3 21  1  0  0  0  0
  4 21  1  0  0  0  0
  5 22  1  0  0  0  0
  6 22  1  0  0  0  0
  7 22  1  0  0  0  0
 15  8  1  6  0  0  0
  8 24  1  0  0  0  0
  9 24  2  0  0  0  0
 10 23  1  0  0  0  0
 10 24  1  0  0  0  0
 10 27  1  0  0  0  0
 11 25  1  0  0  0  0
 11 29  1  0  0  0  0
 11 32  1  0  0  0  0
 12 26  2  0  0  0  0
 12 30  1  0  0  0  0
 13 25  2  0  0  0  0
 13 31  1  0  0  0  0
 14 15  1  0  0  0  0
 14 18  2  0  0  0  0
 14 19  1  0  0  0  0
 15 23  1  0  0  0  0
 16 19  2  0  0  0  0
 16 20  1  0  0  0  0
 16 21  1  0  0  0  0
 17 18  1  0  0  0  0
 17 20  2  0  0  0  0
 17 22  1  0  0  0  0
 25 26  1  0  0  0  0
 26 28  1  0  0  0  0
 27 28  1  0  0  0  0
 29 33  1  0  0  0  0
 29 34  1  0  0  0  0
 30 31  2  0  0  0  0
 32 38  1  0  0  0  0
 33 35  1  0  0  0  0
 34 36  1  0  0  0  0
 35 37  1  0  0  0  0
 36 37  1  0  0  0  0
M  END
> <PUBCHEM_COMPOUND_ID_TYPE>
0

> <PUBCHEM_TOTAL_CHARGE>
0

> <PUBCHEM_SUBSTANCE_ID>
310937448

> <PUBCHEM_SUBSTANCE_VERSION>
1

> <PUBCHEM_EXT_DATASOURCE_NAME>
4488

> <PUBCHEM_EXT_DATASOURCE_REGID>
SCHEMBL16115216

> <PUBCHEM_SUBSTANCE_COMMENT>
InChI=1S/C25H27BrF6N4O2/c1-2-36(18-6-4-3-5-7-18)22-19(34-21(26)13-33-22)8-9-35-14-20(38-23(35)37)15-10-16(24(27,28)29)12-17(11-15)25(30,31)32/h10-13,18,20H,2-9,14H2,1H3/t20-/m0/s1
InChIKey=PNZOKMKKUKFQOZ-FQEVSTJZSA-N

> <PUBCHEM_SUBSTANCE_SYNONYM>
SCHEMBL16115216

> <PUBCHEM_XREF_EXT_ID>
SCHEMBL16115216

> <PUBCHEM_EXT_DATASOURCE_URL>
https://www.surechembl.org/

> <PUBCHEM_EXT_SUBSTANCE_URL>
https://www.surechembl.org/chemical/SCHEMBL16115216

> <PUBCHEM_CID_ASSOCIATIONS>
117605193  1

> <PUBCHEM_COORDINATE_TYPE>
1
3

> <PUBCHEM_BONDANNOTATIONS>
15  8  6

$$$$
