310944990
  -OEChem-07211613022D

 30 34  0     0  0  0  0  0  0999 V2000
    3.8025    2.4268    0.0000 O   0  0  0  0  0  0  0  0  0  0  0  0
   -2.7869    0.5255    0.0000 O   0  0  0  0  0  0  0  0  0  0  0  0
    2.3028    0.1004    0.0000 N   0  0  0  0  0  0  0  0  0  0  0  0
    0.5078    0.1830    0.0000 N   0  0  0  0  0  0  0  0  0  0  0  0
   -0.6495    1.0215    0.0000 N   0  0  0  0  0  0  0  0  0  0  0  0
    4.5229    1.1750    0.0000 N   0  0  0  0  0  0  0  0  0  0  0  0
   -0.9566   -1.8245    0.0000 N   0  0  0  0  0  0  0  0  0  0  0  0
   -2.9405   -0.8916    0.0000 N   0  0  0  0  0  0  0  0  0  0  0  0
    1.8068    0.7735    0.0000 C   0  0  0  0  0  0  0  0  0  0  0  0
    2.2910    1.4467    0.0000 C   0  0  0  0  0  0  0  0  0  0  0  0
    3.0822    1.1868    0.0000 C   0  0  0  0  0  0  0  0  0  0  0  0
    0.9920    0.8679    0.0000 C   0  0  0  0  0  0  0  0  0  0  0  0
    3.0822    0.3601    0.0000 C   0  0  0  0  0  0  0  0  0  0  0  0
    0.6495    1.6120    0.0000 C   0  0  0  0  0  0  0  0  0  0  0  0
    3.7908    1.5765    0.0000 C   0  0  0  0  0  0  0  0  0  0  0  0
    1.9604    2.1906    0.0000 C   0  0  0  0  0  0  0  0  0  0  0  0
   -0.3189    0.2893    0.0000 C   0  0  0  0  0  0  0  0  0  0  0  0
    1.1455    2.2733    0.0000 C   0  0  0  0  0  0  0  0  0  0  0  0
    3.8144   -0.0531    0.0000 C   0  0  0  0  0  0  0  0  0  0  0  0
   -0.1653    1.6946    0.0000 C   0  0  0  0  0  0  0  0  0  0  0  0
   -0.8030   -0.4074    0.0000 C   0  0  0  0  0  0  0  0  0  0  0  0
    4.5111    0.3484    0.0000 C   0  0  0  0  0  0  0  0  0  0  0  0
   -1.6179   -0.3011    0.0000 C   0  0  0  0  0  0  0  0  0  0  0  0
   -2.1138   -0.9861    0.0000 C   0  0  0  0  0  0  0  0  0  0  0  0
   -0.4723   -1.1632    0.0000 C   0  0  0  0  0  0  0  0  0  0  0  0
   -1.7832   -1.7301    0.0000 C   0  0  0  0  0  0  0  0  0  0  0  0
   -3.2947   -0.1594    0.0000 C   0  0  0  0  0  0  0  0  0  0  0  0
   -2.2556   -2.4268    0.0000 C   0  0  0  0  0  0  0  0  0  0  0  0
   -4.0978   -0.0531    0.0000 C   0  0  0  0  0  0  0  0  0  0  0  0
   -4.5229   -0.7735    0.0000 C   0  0  0  0  0  0  0  0  0  0  0  0
  1 15  2  0  0  0  0
  2 27  2  0  0  0  0
  3  9  1  0  0  0  0
  3 13  1  0  0  0  0
  4 12  2  0  0  0  0
  4 17  1  0  0  0  0
  5 17  2  0  0  0  0
  5 20  1  0  0  0  0
  6 15  1  0  0  0  0
  6 22  1  0  0  0  0
  7 25  2  0  0  0  0
  7 26  1  0  0  0  0
  8 24  1  0  0  0  0
  8 27  1  0  0  0  0
  9 10  2  0  0  0  0
  9 12  1  0  0  0  0
 10 11  1  0  0  0  0
 10 16  1  0  0  0  0
 11 13  2  0  0  0  0
 11 15  1  0  0  0  0
 12 14  1  0  0  0  0
 13 19  1  0  0  0  0
 14 18  1  0  0  0  0
 14 20  2  0  0  0  0
 16 18  1  0  0  0  0
 17 21  1  0  0  0  0
 19 22  1  0  0  0  0
 21 23  2  0  0  0  0
 21 25  1  0  0  0  0
 23 24  1  0  0  0  0
 24 26  2  0  0  0  0
 26 28  1  0  0  0  0
 27 29  1  0  0  0  0
 29 30  2  0  0  0  0
M  END
> <PUBCHEM_COMPOUND_ID_TYPE>
0

> <PUBCHEM_TOTAL_CHARGE>
0

> <PUBCHEM_SUBSTANCE_ID>
310944990

> <PUBCHEM_SUBSTANCE_VERSION>
1

> <PUBCHEM_EXT_DATASOURCE_NAME>
4488

> <PUBCHEM_EXT_DATASOURCE_REGID>
SCHEMBL16123078

> <PUBCHEM_SUBSTANCE_COMMENT>
InChI=1S/C22H20N6O2/c1-3-17(29)26-16-8-13(10-24-11(16)2)21-25-9-12-4-5-14-18-15(6-7-23-22(18)30)27-20(14)19(12)28-21/h3,8-10,27H,1,4-7H2,2H3,(H,23,30)(H,26,29)
InChIKey=QJNMUJDIKHOXTI-UHFFFAOYSA-N

> <PUBCHEM_SUBSTANCE_SYNONYM>
SCHEMBL16123078

> <PUBCHEM_XREF_EXT_ID>
SCHEMBL16123078

> <PUBCHEM_EXT_DATASOURCE_URL>
https://www.surechembl.org/

> <PUBCHEM_EXT_SUBSTANCE_URL>
https://www.surechembl.org/chemical/SCHEMBL16123078

> <PUBCHEM_CID_ASSOCIATIONS>
117611133  1

> <PUBCHEM_COORDINATE_TYPE>
1
3

$$$$
