310939541
  -OEChem-07211613022D

 45 49  0     1  0  0  0  0  0999 V2000
    3.2743    6.1156    0.0000 O   0  0  0  0  0  0  0  0  0  0  0  0
   -0.9637    4.3883    0.0000 O   0  0  0  0  0  0  0  0  0  0  0  0
    4.4837    5.6147    0.0000 O   0  0  0  0  0  0  0  0  0  0  0  0
    5.4369    3.6511    0.0000 O   0  0  0  0  0  0  0  0  0  0  0  0
    5.0670    5.0313    0.0000 O   0  0  0  0  0  0  0  0  0  0  0  0
    3.8058    8.3225    0.0000 O   0  0  0  0  0  0  0  0  0  0  0  0
   -0.9637    2.7383    0.0000 O   0  0  0  0  0  0  0  0  0  0  0  0
    1.1797    6.5281    0.0000 C   0  0  3  0  0  0  0  0  0  0  0  0
    1.1797    5.7031    0.0000 C   0  0  3  0  0  0  0  0  0  0  0  0
    1.9644    6.7831    0.0000 C   0  0  3  0  0  0  0  0  0  0  0  0
    2.4493    6.1156    0.0000 C   0  0  3  0  0  0  0  0  0  0  0  0
   -0.2492    5.7031    0.0000 C   0  0  0  0  0  0  0  0  0  0  0  0
   -0.2492    6.5281    0.0000 C   0  0  0  0  0  0  0  0  0  0  0  0
    1.9644    5.4482    0.0000 C   0  0  0  0  0  0  0  0  0  0  0  0
    0.4653    6.9406    0.0000 C   0  0  0  0  0  0  0  0  0  0  0  0
    0.4653    5.2906    0.0000 C   0  0  0  0  0  0  0  0  0  0  0  0
   -0.9637    5.2906    0.0000 C   0  0  0  0  0  0  0  0  0  0  0  0
    2.3769    7.4975    0.0000 C   0  0  0  0  0  0  0  0  0  0  0  0
   -0.9637    6.9406    0.0000 C   0  0  0  0  0  0  0  0  0  0  0  0
    3.6868    5.4011    0.0000 C   0  0  0  0  0  0  0  0  0  0  0  0
   -1.6781    5.7031    0.0000 C   0  0  0  0  0  0  0  0  0  0  0  0
    3.4733    4.6043    0.0000 C   0  0  3  0  0  0  0  0  0  0  0  0
   -1.6781    6.5281    0.0000 C   0  0  0  0  0  0  0  0  0  0  0  0
    4.0566    4.0209    0.0000 C   0  0  3  0  0  0  0  0  0  0  0  0
    3.0913    7.0850    0.0000 C   0  0  0  0  0  0  0  0  0  0  0  0
    2.6764    4.3907    0.0000 C   0  0  0  0  0  0  0  0  0  0  0  0
   -1.6781    3.9758    0.0000 C   0  0  0  0  0  0  0  0  0  0  0  0
    4.8535    4.2344    0.0000 C   0  0  0  0  0  0  0  0  0  0  0  0
    3.8058    7.4975    0.0000 C   0  0  3  0  0  0  0  0  0  0  0  0
    3.8431    3.2240    0.0000 C   0  0  0  0  0  0  0  0  0  0  0  0
   -1.6781    3.1508    0.0000 C   0  0  0  0  0  0  0  0  0  0  0  0
    2.4628    3.5938    0.0000 C   0  0  0  0  0  0  0  0  0  0  0  0
    3.0462    3.0105    0.0000 C   0  0  0  0  0  0  0  0  0  0  0  0
   -2.3926    2.7383    0.0000 C   0  0  0  0  0  0  0  0  0  0  0  0
    4.5203    7.0850    0.0000 C   0  0  0  0  0  0  0  0  0  0  0  0
   -3.1071    3.1508    0.0000 C   0  0  0  0  0  0  0  0  0  0  0  0
   -2.3926    1.9133    0.0000 C   0  0  0  0  0  0  0  0  0  0  0  0
    5.2347    7.4975    0.0000 C   0  0  0  0  0  0  0  0  0  0  0  0
    6.2338    3.8646    0.0000 C   0  0  0  0  0  0  0  0  0  0  0  0
   -3.8216    2.7383    0.0000 C   0  0  0  0  0  0  0  0  0  0  0  0
   -3.1071    1.5008    0.0000 C   0  0  0  0  0  0  0  0  0  0  0  0
   -3.8216    1.9133    0.0000 C   0  0  0  0  0  0  0  0  0  0  0  0
    5.9492    7.0850    0.0000 C   0  0  0  0  0  0  0  0  0  0  0  0
    6.6637    7.4975    0.0000 C   0  0  0  0  0  0  0  0  0  0  0  0
    7.3782    7.0850    0.0000 C   0  0  0  0  0  0  0  0  0  0  0  0
 11  1  1  6  0  0  0
  1 20  1  0  0  0  0
  2 17  1  0  0  0  0
  2 27  1  0  0  0  0
  3 20  2  0  0  0  0
  4 28  1  0  0  0  0
  4 39  1  0  0  0  0
  5 28  2  0  0  0  0
 29  6  1  1  0  0  0
  7 31  2  0  0  0  0
  8  9  1  0  0  0  0
  8 10  1  0  0  0  0
  8 15  1  6  0  0  0
  9 14  1  6  0  0  0
  9 16  1  0  0  0  0
 10 11  1  0  0  0  0
 10 18  1  1  0  0  0
 11 14  1  0  0  0  0
 12 13  2  0  0  0  0
 12 16  1  0  0  0  0
 12 17  1  0  0  0  0
 13 15  1  0  0  0  0
 13 19  1  0  0  0  0
 17 21  2  0  0  0  0
 18 25  1  0  0  0  0
 19 23  2  0  0  0  0
 22 20  1  1  0  0  0
 21 23  1  0  0  0  0
 22 24  1  0  0  0  0
 22 26  1  0  0  0  0
 24 28  1  1  0  0  0
 24 30  1  0  0  0  0
 25 29  1  0  0  0  0
 26 32  1  0  0  0  0
 27 31  1  0  0  0  0
 29 35  1  0  0  0  0
 30 33  1  0  0  0  0
 31 34  1  0  0  0  0
 32 33  1  0  0  0  0
 34 36  2  0  0  0  0
 34 37  1  0  0  0  0
 35 38  1  0  0  0  0
 36 40  1  0  0  0  0
 37 41  2  0  0  0  0
 38 43  1  0  0  0  0
 40 42  2  0  0  0  0
 41 42  1  0  0  0  0
 43 44  1  0  0  0  0
 44 45  1  0  0  0  0
M  END
> <PUBCHEM_COMPOUND_ID_TYPE>
0

> <PUBCHEM_TOTAL_CHARGE>
0

> <PUBCHEM_SUBSTANCE_ID>
310939541

> <PUBCHEM_SUBSTANCE_VERSION>
1

> <PUBCHEM_EXT_DATASOURCE_NAME>
4488

> <PUBCHEM_EXT_DATASOURCE_REGID>
SCHEMBL16117470

> <PUBCHEM_SUBSTANCE_COMMENT>
InChI=1S/C38H50O7/c1-3-4-6-15-28(39)19-20-29-32-21-26-14-11-18-35(44-24-34(40)25-12-7-5-8-13-25)33(26)22-27(32)23-36(29)45-38(42)31-17-10-9-16-30(31)37(41)43-2/h5,7-8,11-14,18,27-32,36,39H,3-4,6,9-10,15-17,19-24H2,1-2H3/t27-,28-,29+,30-,31+,32-,36+/m0/s1
InChIKey=LKEOJSIZBOPRIJ-PXEOTRNNSA-N

> <PUBCHEM_SUBSTANCE_SYNONYM>
SCHEMBL16117470

> <PUBCHEM_XREF_EXT_ID>
SCHEMBL16117470

> <PUBCHEM_EXT_DATASOURCE_URL>
https://www.surechembl.org/

> <PUBCHEM_EXT_SUBSTANCE_URL>
https://www.surechembl.org/chemical/SCHEMBL16117470

> <PUBCHEM_CID_ASSOCIATIONS>
117606838  1

> <PUBCHEM_COORDINATE_TYPE>
1
3

> <PUBCHEM_BONDANNOTATIONS>
11  1  6
10  18  5
22  20  5
24  28  5
29  6  5
8  15  6
9  14  6

$$$$
