310936880
  -OEChem-07211613022D

 24 28  0     0  0  0  0  0  0999 V2000
    6.3271   -2.5986    0.0000 O   0  0  0  0  0  0  0  0  0  0  0  0
    5.8186    0.0000    0.0000 O   0  0  0  0  0  0  0  0  0  0  0  0
    2.2314   -3.3048    0.0000 O   0  0  0  0  0  0  0  0  0  0  0  0
    5.0843   -2.1750    0.0000 N   0  0  0  0  0  0  0  0  0  0  0  0
    5.8469   -3.2483    0.0000 N   0  0  0  0  0  0  0  0  0  0  0  0
    4.4911   -4.2651    0.0000 N   0  0  0  0  0  0  0  0  0  0  0  0
    6.1011   -1.1298    0.0000 C   0  0  0  0  0  0  0  0  0  0  0  0
    5.8469   -1.9207    0.0000 C   0  0  0  0  0  0  0  0  0  0  0  0
    5.0843   -2.9941    0.0000 C   0  0  0  0  0  0  0  0  0  0  0  0
    4.4064   -3.4743    0.0000 C   0  0  0  0  0  0  0  0  0  0  0  0
    3.0788   -4.4346    0.0000 C   0  0  0  0  0  0  0  0  0  0  0  0
    2.9941   -3.6437    0.0000 C   0  0  0  0  0  0  0  0  0  0  0  0
    6.5248   -0.3955    0.0000 C   0  0  0  0  0  0  0  0  0  0  0  0
    5.3950   -0.7344    0.0000 C   0  0  0  0  0  0  0  0  0  0  0  0
    2.4009   -4.9148    0.0000 C   0  0  0  0  0  0  0  0  0  0  0  0
    3.6437   -3.1353    0.0000 C   0  0  0  0  0  0  0  0  0  0  0  0
    3.8414   -4.7736    0.0000 C   0  0  0  0  0  0  0  0  0  0  0  0
    6.9202   -1.2146    0.0000 C   0  0  0  0  0  0  0  0  0  0  0  0
    2.0619   -5.6491    0.0000 C   0  0  0  0  0  0  0  0  0  0  0  0
    1.5817   -4.9995    0.0000 C   0  0  0  0  0  0  0  0  0  0  0  0
    1.5817   -3.7850    0.0000 C   0  0  0  0  0  0  0  0  0  0  0  0
    0.8191   -3.4743    0.0000 C   0  0  0  0  0  0  0  0  0  0  0  0
    0.0000   -3.5872    0.0000 C   0  0  0  0  0  0  0  0  0  0  0  0
    0.3107   -2.7964    0.0000 C   0  0  0  0  0  0  0  0  0  0  0  0
  1  5  1  0  0  0  0
  1  8  1  0  0  0  0
  2 13  1  0  0  0  0
  2 14  1  0  0  0  0
  3 12  1  0  0  0  0
  3 21  1  0  0  0  0
  4  8  2  0  0  0  0
  4  9  1  0  0  0  0
  5  9  2  0  0  0  0
  6 10  1  0  0  0  0
  6 17  2  0  0  0  0
  7  8  1  0  0  0  0
  7 13  1  0  0  0  0
  7 14  1  0  0  0  0
  7 18  1  0  0  0  0
  9 10  1  0  0  0  0
 10 16  2  0  0  0  0
 11 12  2  0  0  0  0
 11 15  1  0  0  0  0
 11 17  1  0  0  0  0
 12 16  1  0  0  0  0
 15 19  1  0  0  0  0
 15 20  1  0  0  0  0
 19 20  1  0  0  0  0
 21 22  1  0  0  0  0
 22 23  1  0  0  0  0
 22 24  1  0  0  0  0
 23 24  1  0  0  0  0
M  END
> <PUBCHEM_COMPOUND_ID_TYPE>
0

> <PUBCHEM_TOTAL_CHARGE>
0

> <PUBCHEM_SUBSTANCE_ID>
310936880

> <PUBCHEM_SUBSTANCE_VERSION>
1

> <PUBCHEM_EXT_DATASOURCE_NAME>
4488

> <PUBCHEM_EXT_DATASOURCE_REGID>
SCHEMBL16114576

> <PUBCHEM_SUBSTANCE_COMMENT>
InChI=1S/C18H21N3O3/c1-18(9-22-10-18)17-20-16(21-24-17)14-6-15(23-8-11-2-3-11)13(7-19-14)12-4-5-12/h6-7,11-12H,2-5,8-10H2,1H3
InChIKey=JJJIBHNTULMIAN-UHFFFAOYSA-N

> <PUBCHEM_SUBSTANCE_SYNONYM>
SCHEMBL16114576

> <PUBCHEM_XREF_EXT_ID>
SCHEMBL16114576

> <PUBCHEM_EXT_DATASOURCE_URL>
https://www.surechembl.org/

> <PUBCHEM_EXT_SUBSTANCE_URL>
https://www.surechembl.org/chemical/SCHEMBL16114576

> <PUBCHEM_CID_ASSOCIATIONS>
86275913  1

> <PUBCHEM_COORDINATE_TYPE>
1
3

$$$$
