310938736
  -OEChem-07211613022D

 37 40  0     1  0  0  0  0  0999 V2000
   -3.1035    1.3415    0.0000 S   0  0  0  0  0  0  0  0  0  0  0  0
    0.5391    1.9115    0.0000 O   0  0  0  0  0  0  0  0  0  0  0  0
   -0.1754   -0.9760    0.0000 O   0  0  0  0  0  0  0  0  0  0  0  0
    3.3969   -2.2135    0.0000 O   0  0  0  0  0  0  0  0  0  0  0  0
    1.9680   -2.2135    0.0000 O   0  0  0  0  0  0  0  0  0  0  0  0
    0.5391   -2.2135    0.0000 O   0  0  0  0  0  0  0  0  0  0  0  0
   -3.1035    0.0066    0.0000 N   0  0  0  0  0  0  0  0  0  0  0  0
   -4.8259    1.3885    0.0000 N   0  0  0  0  0  0  0  0  0  0  0  0
    1.2535    1.4990    0.0000 C   0  0  3  0  0  0  0  0  0  0  0  0
    0.5391    1.0865    0.0000 C   0  0  3  0  0  0  0  0  0  0  0  0
    0.5391    0.2615    0.0000 C   0  0  0  0  0  0  0  0  0  0  0  0
   -0.1754   -0.1510    0.0000 C   0  0  3  0  0  0  0  0  0  0  0  0
    1.9680    1.0865    0.0000 C   0  0  0  0  0  0  0  0  0  0  0  0
   -0.8899    0.2615    0.0000 C   0  0  0  0  0  0  0  0  0  0  0  0
    1.6660    2.2135    0.0000 C   0  0  0  0  0  0  0  0  0  0  0  0
   -2.3188    0.2615    0.0000 C   0  0  0  0  0  0  0  0  0  0  0  0
   -2.3188    1.0865    0.0000 C   0  0  0  0  0  0  0  0  0  0  0  0
   -1.6044   -0.1510    0.0000 C   0  0  0  0  0  0  0  0  0  0  0  0
    2.6825   -0.9760    0.0000 C   0  0  0  0  0  0  0  0  0  0  0  0
   -0.8899    1.0865    0.0000 C   0  0  0  0  0  0  0  0  0  0  0  0
    2.6825    1.4990    0.0000 C   0  0  0  0  0  0  0  0  0  0  0  0
   -1.6044    1.4990    0.0000 C   0  0  0  0  0  0  0  0  0  0  0  0
   -3.5884    0.6740    0.0000 C   0  0  0  0  0  0  0  0  0  0  0  0
    3.3969   -1.3885    0.0000 C   0  0  0  0  0  0  0  0  0  0  0  0
    0.5391   -1.3885    0.0000 C   0  0  0  0  0  0  0  0  0  0  0  0
    1.9680   -1.3885    0.0000 C   0  0  3  0  0  0  0  0  0  0  0  0
    4.1114   -0.9760    0.0000 C   0  0  3  0  0  0  0  0  0  0  0  0
    1.2535   -0.9760    0.0000 C   0  0  0  0  0  0  0  0  0  0  0  0
    4.1114   -0.1510    0.0000 C   0  0  3  0  0  0  0  0  0  0  0  0
    3.3969    1.0865    0.0000 C   0  0  0  0  0  0  0  0  0  0  0  0
    3.3969    0.2615    0.0000 C   0  0  3  0  0  0  0  0  0  0  0  0
    2.2700   -0.2615    0.0000 C   0  0  0  0  0  0  0  0  0  0  0  0
    3.3969   -0.5635    0.0000 C   0  0  0  0  0  0  0  0  0  0  0  0
   -4.4134    0.6740    0.0000 C   0  0  0  0  0  0  0  0  0  0  0  0
    4.8259   -1.3885    0.0000 C   0  0  0  0  0  0  0  0  0  0  0  0
    4.8259    0.2615    0.0000 C   0  0  0  0  0  0  0  0  0  0  0  0
    2.6825   -0.1510    0.0000 C   0  0  0  0  0  0  0  0  0  0  0  0
  1 17  1  0  0  0  0
  1 23  1  0  0  0  0
  2  9  1  0  0  0  0
  2 10  1  0  0  0  0
  3 12  1  0  0  0  0
  3 25  1  0  0  0  0
  4 24  2  0  0  0  0
 26  5  1  1  0  0  0
  6 25  2  0  0  0  0
  7 16  1  0  0  0  0
  7 23  2  0  0  0  0
  8 34  1  0  0  0  0
  9 10  1  0  0  0  0
  9 13  1  0  0  0  0
  9 15  1  1  0  0  0
 10 11  1  6  0  0  0
 12 11  1  6  0  0  0
 12 14  1  0  0  0  0
 13 21  1  0  0  0  0
 14 18  1  0  0  0  0
 14 20  2  0  0  0  0
 16 17  1  0  0  0  0
 16 18  2  0  0  0  0
 17 22  2  0  0  0  0
 19 24  1  0  0  0  0
 19 26  1  0  0  0  0
 19 32  1  0  0  0  0
 19 33  1  0  0  0  0
 20 22  1  0  0  0  0
 21 30  1  0  0  0  0
 23 34  1  0  0  0  0
 24 27  1  0  0  0  0
 25 28  1  0  0  0  0
 26 28  1  0  0  0  0
 27 29  1  0  0  0  0
 27 35  1  1  0  0  0
 29 31  1  0  0  0  0
 29 36  1  6  0  0  0
 30 31  1  0  0  0  0
 31 37  1  1  0  0  0
M  END
> <PUBCHEM_COMPOUND_ID_TYPE>
0

> <PUBCHEM_TOTAL_CHARGE>
0

> <PUBCHEM_SUBSTANCE_ID>
310938736

> <PUBCHEM_SUBSTANCE_VERSION>
1

> <PUBCHEM_EXT_DATASOURCE_NAME>
4488

> <PUBCHEM_EXT_DATASOURCE_REGID>
SCHEMBL16116651

> <PUBCHEM_SUBSTANCE_COMMENT>
InChI=1S/C29H42N2O5S/c1-16-8-7-11-29(6)24(36-29)13-21(19-9-10-22-20(12-19)31-25(15-30)37-22)35-26(33)14-23(32)28(4,5)27(34)18(3)17(16)2/h9-10,12,16-18,21,23-24,32H,7-8,11,13-15,30H2,1-6H3/t16-,17-,18+,21-,23-,24-,29+/m0/s1
InChIKey=KRDWYVWSUDVKGM-CHXHBJJNSA-N

> <PUBCHEM_SUBSTANCE_SYNONYM>
SCHEMBL16116651

> <PUBCHEM_XREF_EXT_ID>
SCHEMBL16116651

> <PUBCHEM_EXT_DATASOURCE_URL>
https://www.surechembl.org/

> <PUBCHEM_EXT_SUBSTANCE_URL>
https://www.surechembl.org/chemical/SCHEMBL16116651

> <PUBCHEM_CID_ASSOCIATIONS>
117606156  1

> <PUBCHEM_COORDINATE_TYPE>
1
3

> <PUBCHEM_BONDANNOTATIONS>
10  11  6
12  11  6
27  35  5
29  36  6
31  37  5
26  5  5
9  15  5

$$$$
