310929365
  -OEChem-07211613022D

 63 71  0     1  0  0  0  0  0999 V2000
    2.3369   -2.2470    0.0000 S   0  0  0  0  0  0  0  0  0  0  0  0
    0.7190   -2.2470    0.0000 O   0  0  0  0  0  0  0  0  0  0  0  0
    3.0560   -2.6514    0.0000 O   0  0  0  0  0  0  0  0  0  0  0  0
    1.6178   -1.8426    0.0000 O   0  0  0  0  0  0  0  0  0  0  0  0
    1.1235   -5.2131    0.0000 O   0  0  0  0  0  0  0  0  0  0  0  0
    3.9997   -3.1458    0.0000 O   0  0  0  0  0  0  0  0  0  0  0  0
    1.8875   -6.7411    0.0000 O   0  0  0  0  0  0  0  0  0  0  0  0
    5.2580   -7.8645    0.0000 O   0  0  0  0  0  0  0  0  0  0  0  0
    4.3143   -8.6286    0.0000 O   0  0  0  0  0  0  0  0  0  0  0  0
    1.4830   -3.8648    0.0000 N   0  0  0  0  0  0  0  0  0  0  0  0
    1.9324   -2.9660    0.0000 N   0  0  0  0  0  0  0  0  0  0  0  0
    2.3819   -5.6175    0.0000 N   0  0  0  0  0  0  0  0  0  0  0  0
    4.5390   -2.2021    0.0000 N   0  0  0  0  0  0  0  0  0  0  0  0
    3.6402   -7.5949    0.0000 N   0  0  0  0  0  0  0  0  0  0  0  0
    7.4601   -1.9324    0.0000 N   0  0  0  0  0  0  0  0  0  0  0  0
    8.4488   -0.6292    0.0000 N   0  0  0  0  0  0  0  0  0  0  0  0
    0.7190   -3.6402    0.0000 C   0  0  3  0  0  0  0  0  0  0  0  0
    0.7190   -4.4491    0.0000 C   0  0  3  0  0  0  0  0  0  0  0  0
    0.0000   -4.0896    0.0000 C   0  0  0  0  0  0  0  0  0  0  0  0
    1.1235   -2.9660    0.0000 C   0  0  0  0  0  0  0  0  0  0  0  0
    2.7414   -1.5280    0.0000 C   0  0  0  0  0  0  0  0  0  0  0  0
    1.7077   -4.6738    0.0000 C   0  0  0  0  0  0  0  0  0  0  0  0
    1.3033   -5.3479    0.0000 C   0  0  0  0  0  0  0  0  0  0  0  0
    2.7414   -0.7190    0.0000 C   0  0  0  0  0  0  0  0  0  0  0  0
    3.4604   -1.1235    0.0000 C   0  0  0  0  0  0  0  0  0  0  0  0
    2.4717   -4.8536    0.0000 C   0  0  3  0  0  0  0  0  0  0  0  0
    1.9774   -1.3482    0.0000 C   0  0  0  0  0  0  0  0  0  0  0  0
    2.7863   -4.0896    0.0000 C   0  0  0  0  0  0  0  0  0  0  0  0
    3.2806   -3.5053    0.0000 C   0  0  3  0  0  0  0  0  0  0  0  0
    2.2021   -4.2694    0.0000 C   0  0  0  0  0  0  0  0  0  0  0  0
    2.6065   -6.3815    0.0000 C   0  0  0  0  0  0  0  0  0  0  0  0
    1.9324   -5.1682    0.0000 C   0  0  0  0  0  0  0  0  0  0  0  0
    4.8536   -3.0110    0.0000 C   0  0  0  0  0  0  0  0  0  0  0  0
    3.0560   -7.1006    0.0000 C   0  0  3  0  0  0  0  0  0  0  0  0
    5.5726   -3.1458    0.0000 C   0  0  0  0  0  0  0  0  0  0  0  0
    6.1568   -2.4717    0.0000 C   0  0  0  0  0  0  0  0  0  0  0  0
    5.7973   -1.7527    0.0000 C   0  0  0  0  0  0  0  0  0  0  0  0
    5.0782   -1.6178    0.0000 C   0  0  0  0  0  0  0  0  0  0  0  0
    2.4268   -7.6398    0.0000 C   0  0  0  0  0  0  0  0  0  0  0  0
    6.9657   -2.6065    0.0000 C   0  0  0  0  0  0  0  0  0  0  0  0
    6.3366   -3.5503    0.0000 C   0  0  0  0  0  0  0  0  0  0  0  0
    6.3815   -1.1235    0.0000 C   0  0  0  0  0  0  0  0  0  0  0  0
    4.7187   -0.8539    0.0000 C   0  0  0  0  0  0  0  0  0  0  0  0
    4.4491   -7.8196    0.0000 C   0  0  0  0  0  0  0  0  0  0  0  0
    5.9771   -7.5949    0.0000 C   0  0  3  0  0  0  0  0  0  0  0  0
    2.6065   -8.4488    0.0000 C   0  0  0  0  0  0  0  0  0  0  0  0
    1.6628   -7.4152    0.0000 C   0  0  0  0  0  0  0  0  0  0  0  0
    6.6062   -7.0557    0.0000 C   0  0  3  0  0  0  0  0  0  0  0  0
    6.0669   -0.3146    0.0000 C   0  0  0  0  0  0  0  0  0  0  0  0
    5.3030   -0.1798    0.0000 C   0  0  0  0  0  0  0  0  0  0  0  0
    6.7860   -7.9095    0.0000 C   0  0  0  0  0  0  0  0  0  0  0  0
    6.9208   -4.0896    0.0000 C   0  0  0  0  0  0  0  0  0  0  0  0
    1.9774   -8.9881    0.0000 C   0  0  0  0  0  0  0  0  0  0  0  0
    1.0785   -7.9095    0.0000 C   0  0  0  0  0  0  0  0  0  0  0  0
    7.1006   -6.3815    0.0000 C   0  0  0  0  0  0  0  0  0  0  0  0
    8.2690   -2.0673    0.0000 C   0  0  0  0  0  0  0  0  0  0  0  0
    7.1455   -1.2134    0.0000 C   0  0  0  0  0  0  0  0  0  0  0  0
    7.1905   -4.7637    0.0000 C   0  0  0  0  0  0  0  0  0  0  0  0
    1.2134   -8.7634    0.0000 C   0  0  0  0  0  0  0  0  0  0  0  0
    7.2354   -5.6175    0.0000 C   0  0  0  0  0  0  0  0  0  0  0  0
    7.6398   -0.5393    0.0000 C   0  0  0  0  0  0  0  0  0  0  0  0
    8.7634   -1.3931    0.0000 C   0  0  0  0  0  0  0  0  0  0  0  0
    8.9431    0.0000    0.0000 C   0  0  0  0  0  0  0  0  0  0  0  0
  1  3  2  0  0  0  0
  1  4  2  0  0  0  0
  1 11  1  0  0  0  0
  1 21  1  0  0  0  0
  2 20  2  0  0  0  0
  5 22  2  0  0  0  0
  6 29  1  0  0  0  0
  6 33  1  0  0  0  0
  7 31  2  0  0  0  0
  8 44  1  0  0  0  0
  8 45  1  0  0  0  0
  9 44  2  0  0  0  0
 17 10  1  1  0  0  0
 10 22  1  0  0  0  0
 11 20  1  0  0  0  0
 12 26  1  0  0  0  0
 12 30  1  0  0  0  0
 12 31  1  0  0  0  0
 13 33  1  0  0  0  0
 13 38  2  0  0  0  0
 14 34  1  0  0  0  0
 14 44  1  0  0  0  0
 15 40  1  0  0  0  0
 15 56  1  0  0  0  0
 15 57  1  0  0  0  0
 16 61  1  0  0  0  0
 16 62  1  0  0  0  0
 16 63  1  0  0  0  0
 17 18  1  0  0  0  0
 17 19  1  0  0  0  0
 17 20  1  6  0  0  0
 18 19  1  0  0  0  0
 18 23  1  6  0  0  0
 21 24  1  0  0  0  0
 21 25  1  0  0  0  0
 21 27  1  0  0  0  0
 26 22  1  6  0  0  0
 23 32  2  0  0  0  0
 24 25  1  0  0  0  0
 26 28  1  0  0  0  0
 29 28  1  1  0  0  0
 29 30  1  0  0  0  0
 34 31  1  1  0  0  0
 33 35  2  0  0  0  0
 34 39  1  0  0  0  0
 35 36  1  0  0  0  0
 35 41  1  0  0  0  0
 36 37  2  0  0  0  0
 36 40  1  0  0  0  0
 37 38  1  0  0  0  0
 37 42  1  0  0  0  0
 38 43  1  0  0  0  0
 39 46  1  0  0  0  0
 39 47  1  0  0  0  0
 41 52  1  0  0  0  0
 42 49  2  0  0  0  0
 43 50  2  0  0  0  0
 45 48  1  0  0  0  0
 45 51  1  1  0  0  0
 46 53  1  0  0  0  0
 47 54  1  0  0  0  0
 48 51  1  6  0  0  0
 48 55  1  0  0  0  0
 49 50  1  0  0  0  0
 52 58  1  0  0  0  0
 53 59  1  0  0  0  0
 54 59  1  0  0  0  0
 55 60  1  0  0  0  0
 56 62  1  0  0  0  0
 57 61  1  0  0  0  0
 58 60  1  0  0  0  0
M  END
> <PUBCHEM_COMPOUND_ID_TYPE>
0

> <PUBCHEM_TOTAL_CHARGE>
0

> <PUBCHEM_SUBSTANCE_ID>
310929365

> <PUBCHEM_SUBSTANCE_VERSION>
1

> <PUBCHEM_EXT_DATASOURCE_NAME>
4488

> <PUBCHEM_EXT_DATASOURCE_REGID>
SCHEMBL16106537

> <PUBCHEM_SUBSTANCE_COMMENT>
InChI=1S/C47H65N7O8S/c1-4-32-27-47(32,44(57)51-63(59,60)46(2)19-20-46)50-41(55)38-26-33-28-54(38)43(56)40(30-13-7-5-8-14-30)49-45(58)62-39-25-31(39)15-9-6-10-17-35-36(29-53-23-21-52(3)22-24-53)34-16-11-12-18-37(34)48-42(35)61-33/h4,11-12,16,18,30-33,38-40H,1,5-10,13-15,17,19-29H2,2-3H3,(H,49,58)(H,50,55)(H,51,57)/t31-,32-,33-,38+,39-,40+,47-/m1/s1
InChIKey=CDMLAIPLYGQIAY-FAPNPLBSSA-N

> <PUBCHEM_SUBSTANCE_SYNONYM>
SCHEMBL16106537

> <PUBCHEM_XREF_EXT_ID>
SCHEMBL16106537

> <PUBCHEM_EXT_DATASOURCE_URL>
https://www.surechembl.org/

> <PUBCHEM_EXT_SUBSTANCE_URL>
https://www.surechembl.org/chemical/SCHEMBL16106537

> <PUBCHEM_CID_ASSOCIATIONS>
117598742  1

> <PUBCHEM_COORDINATE_TYPE>
1
3

> <PUBCHEM_BONDANNOTATIONS>
17  10  5
17  20  6
18  23  6
26  22  6
29  28  5
34  31  5
45  51  5
48  51  6

$$$$
