310948795
  -OEChem-07211613022D

 24 26  0     1  0  0  0  0  0999 V2000
   -1.1986   -0.6582    0.0000 O   0  0  0  0  0  0  0  0  0  0  0  0
    0.2286    0.9769    0.0000 O   0  0  0  0  0  0  0  0  0  0  0  0
   -1.9054    0.5751    0.0000 O   0  0  0  0  0  0  0  0  0  0  0  0
    1.6421   -0.6582    0.0000 O   0  0  0  0  0  0  0  0  0  0  0  0
    1.6421    0.9769    0.0000 O   0  0  0  0  0  0  0  0  0  0  0  0
    0.2286   -1.4758    0.0000 O   0  0  0  0  0  0  0  0  0  0  0  0
   -0.4919   -0.2425    0.0000 C   0  0  3  0  0  0  0  0  0  0  0  0
   -0.4781    0.5751    0.0000 C   0  0  3  0  0  0  0  0  0  0  0  0
    0.2286   -0.6443    0.0000 C   0  0  3  0  0  0  0  0  0  0  0  0
    0.9215   -0.2425    0.0000 C   0  0  3  0  0  0  0  0  0  0  0  0
    0.9354    0.5751    0.0000 C   0  0  3  0  0  0  0  0  0  0  0  0
   -1.9054   -0.2425    0.0000 C   0  0  3  0  0  0  0  0  0  0  0  0
   -1.1986    0.9769    0.0000 C   0  0  0  0  0  0  0  0  0  0  0  0
   -2.9446   -0.6443    0.0000 C   0  0  0  0  0  0  0  0  0  0  0  0
   -3.5544   -0.1316    0.0000 C   0  0  0  0  0  0  0  0  0  0  0  0
   -3.0970   -1.4758    0.0000 C   0  0  0  0  0  0  0  0  0  0  0  0
    2.3349   -0.2702    0.0000 C   0  0  0  0  0  0  0  0  0  0  0  0
   -4.3581   -0.4088    0.0000 C   0  0  0  0  0  0  0  0  0  0  0  0
   -3.8731   -1.7668    0.0000 C   0  0  0  0  0  0  0  0  0  0  0  0
    1.6698    1.7668    0.0000 C   0  0  0  0  0  0  0  0  0  0  0  0
   -4.5105   -1.2125    0.0000 C   0  0  0  0  0  0  0  0  0  0  0  0
    3.0555   -0.6721    0.0000 C   0  0  0  0  0  0  0  0  0  0  0  0
    3.7761   -0.2425    0.0000 C   0  0  0  0  0  0  0  0  0  0  0  0
    4.5105   -0.6582    0.0000 C   0  0  0  0  0  0  0  0  0  0  0  0
  7  1  1  6  0  0  0
 12  1  1  6  0  0  0
  8  2  1  1  0  0  0
  2 11  1  0  0  0  0
  3 12  1  0  0  0  0
  3 13  1  0  0  0  0
 10  4  1  1  0  0  0
  4 17  1  0  0  0  0
 11  5  1  6  0  0  0
  5 20  1  0  0  0  0
  9  6  1  1  0  0  0
  7  8  1  0  0  0  0
  7  9  1  0  0  0  0
  8 13  1  0  0  0  0
  9 10  1  0  0  0  0
 10 11  1  0  0  0  0
 12 14  1  0  0  0  0
 14 15  2  0  0  0  0
 14 16  1  0  0  0  0
 15 18  1  0  0  0  0
 16 19  2  0  0  0  0
 17 22  1  0  0  0  0
 18 21  2  0  0  0  0
 19 21  1  0  0  0  0
 22 23  1  0  0  0  0
 23 24  1  0  0  0  0
M  END
> <PUBCHEM_COMPOUND_ID_TYPE>
0

> <PUBCHEM_TOTAL_CHARGE>
0

> <PUBCHEM_SUBSTANCE_ID>
310948795

> <PUBCHEM_SUBSTANCE_VERSION>
1

> <PUBCHEM_EXT_DATASOURCE_NAME>
4488

> <PUBCHEM_EXT_DATASOURCE_REGID>
SCHEMBL16126979

> <PUBCHEM_SUBSTANCE_COMMENT>
InChI=1S/C18H26O6/c1-3-4-10-21-16-14(19)15-13(23-18(16)20-2)11-22-17(24-15)12-8-6-5-7-9-12/h5-9,13-19H,3-4,10-11H2,1-2H3/t13-,14+,15-,16+,17-,18+/m1/s1
InChIKey=KSAGDIWIWMNRMT-HTPGKPQGSA-N

> <PUBCHEM_SUBSTANCE_SYNONYM>
SCHEMBL16126979

> <PUBCHEM_XREF_EXT_ID>
SCHEMBL16126979

> <PUBCHEM_EXT_DATASOURCE_URL>
https://www.surechembl.org/

> <PUBCHEM_EXT_SUBSTANCE_URL>
https://www.surechembl.org/chemical/SCHEMBL16126979

> <PUBCHEM_CID_ASSOCIATIONS>
117614334  1

> <PUBCHEM_COORDINATE_TYPE>
1
3

> <PUBCHEM_BONDANNOTATIONS>
12  1  6
7  1  6
8  2  5
10  4  5
11  5  6
9  6  5

$$$$
