310932006
  -OEChem-07211613022D

 25 27  0     0  0  0  0  0  0999 V2000
    2.1305   -1.4749    0.0000 S   0  0  0  0  0  0  0  0  0  0  0  0
    1.3930   -5.2851    0.0000 O   0  0  0  0  0  0  0  0  0  0  0  0
    4.2609   -1.9665    0.0000 O   0  0  0  0  0  0  0  0  0  0  0  0
    4.9574   -3.1956    0.0000 O   0  0  0  0  0  0  0  0  0  0  0  0
    2.0895   -4.0151    0.0000 N   0  0  0  0  0  0  0  0  0  0  0  0
    3.4824   -1.4749    0.0000 N   0  0  0  0  0  0  0  0  0  0  0  0
    2.8269   -2.7860    0.0000 C   0  0  0  0  0  0  0  0  0  0  0  0
    2.8269   -1.9665    0.0000 C   0  0  0  0  0  0  0  0  0  0  0  0
    2.0895   -3.1956    0.0000 C   0  0  0  0  0  0  0  0  0  0  0  0
    1.3930   -4.4657    0.0000 C   0  0  0  0  0  0  0  0  0  0  0  0
    3.5234   -3.1956    0.0000 C   0  0  0  0  0  0  0  0  0  0  0  0
    2.4172   -0.6965    0.0000 C   0  0  0  0  0  0  0  0  0  0  0  0
    1.3930   -2.7450    0.0000 C   0  0  0  0  0  0  0  0  0  0  0  0
    3.2366   -0.6965    0.0000 C   0  0  0  0  0  0  0  0  0  0  0  0
    0.6965   -4.0151    0.0000 C   0  0  0  0  0  0  0  0  0  0  0  0
    0.6555   -3.1956    0.0000 C   0  0  0  0  0  0  0  0  0  0  0  0
    4.2609   -2.7860    0.0000 C   0  0  0  0  0  0  0  0  0  0  0  0
    0.6965   -5.6948    0.0000 C   0  0  0  0  0  0  0  0  0  0  0  0
    1.9256    0.0000    0.0000 C   0  0  0  0  0  0  0  0  0  0  0  0
    0.6965   -6.5552    0.0000 C   0  0  0  0  0  0  0  0  0  0  0  0
    0.0000   -6.9649    0.0000 C   0  0  0  0  0  0  0  0  0  0  0  0
    1.4340   -6.9649    0.0000 C   0  0  0  0  0  0  0  0  0  0  0  0
    0.0000   -7.7843    0.0000 C   0  0  0  0  0  0  0  0  0  0  0  0
    1.4340   -7.7843    0.0000 C   0  0  0  0  0  0  0  0  0  0  0  0
    0.6965   -8.1940    0.0000 C   0  0  0  0  0  0  0  0  0  0  0  0
  1  8  1  0  0  0  0
  1 12  1  0  0  0  0
  2 10  1  0  0  0  0
  2 18  1  0  0  0  0
  3 17  2  0  0  0  0
  4 17  1  0  0  0  0
  5  9  1  0  0  0  0
  5 10  2  0  0  0  0
  6  8  2  0  0  0  0
  6 14  1  0  0  0  0
  7  8  1  0  0  0  0
  7  9  1  0  0  0  0
  7 11  2  0  0  0  0
  9 13  2  0  0  0  0
 10 15  1  0  0  0  0
 11 17  1  0  0  0  0
 12 14  2  0  0  0  0
 12 19  1  0  0  0  0
 13 16  1  0  0  0  0
 15 16  2  0  0  0  0
 18 20  1  0  0  0  0
 20 21  2  0  0  0  0
 20 22  1  0  0  0  0
 21 23  1  0  0  0  0
 22 24  2  0  0  0  0
 23 25  2  0  0  0  0
 24 25  1  0  0  0  0
M  END
> <PUBCHEM_COMPOUND_ID_TYPE>
0

> <PUBCHEM_TOTAL_CHARGE>
0

> <PUBCHEM_SUBSTANCE_ID>
310932006

> <PUBCHEM_SUBSTANCE_VERSION>
1

> <PUBCHEM_EXT_DATASOURCE_NAME>
4488

> <PUBCHEM_EXT_DATASOURCE_REGID>
SCHEMBL16109348

> <PUBCHEM_SUBSTANCE_COMMENT>
InChI=1S/C19H16N2O3S/c1-13-11-20-19(25-13)15(10-18(22)23)16-8-5-9-17(21-16)24-12-14-6-3-2-4-7-14/h2-11H,12H2,1H3,(H,22,23)/b15-10-
InChIKey=OSBCMIYGAWMQLM-GDNBJRDFSA-N

> <PUBCHEM_SUBSTANCE_SYNONYM>
SCHEMBL16109348

> <PUBCHEM_XREF_EXT_ID>
SCHEMBL16109348

> <PUBCHEM_EXT_DATASOURCE_URL>
https://www.surechembl.org/

> <PUBCHEM_EXT_SUBSTANCE_URL>
https://www.surechembl.org/chemical/SCHEMBL16109348

> <PUBCHEM_CID_ASSOCIATIONS>
117600646  1

> <PUBCHEM_COORDINATE_TYPE>
1
3

$$$$
