310937639
  -OEChem-07211613022D

 17 18  0     0  0  0  0  0  0999 V2000
    3.6896   -0.4125    0.0000 F   0  0  0  0  0  0  0  0  0  0  0  0
    2.2688   -0.4125    0.0000 F   0  0  0  0  0  0  0  0  0  0  0  0
    2.9792    0.0000    0.0000 F   0  0  0  0  0  0  0  0  0  0  0  0
    2.2688   -2.0854    0.0000 O   0  0  0  0  0  0  0  0  0  0  0  0
    2.2688   -4.5604    0.0000 N   0  0  0  0  0  0  0  0  0  0  0  0
    4.4229   -4.1709    0.0000 N   0  0  0  0  0  0  0  0  0  0  0  0
    1.5354   -3.3229    0.0000 C   0  0  0  0  0  0  0  0  0  0  0  0
    2.2688   -2.9104    0.0000 C   0  0  0  0  0  0  0  0  0  0  0  0
    0.8250   -2.9104    0.0000 C   0  0  0  0  0  0  0  0  0  0  0  0
    2.9792   -3.3229    0.0000 C   0  0  0  0  0  0  0  0  0  0  0  0
    1.5354   -4.1709    0.0000 C   0  0  0  0  0  0  0  0  0  0  0  0
    2.9792   -4.1709    0.0000 C   0  0  0  0  0  0  0  0  0  0  0  0
    0.0000   -2.9104    0.0000 C   0  0  0  0  0  0  0  0  0  0  0  0
    0.3896   -2.1771    0.0000 C   0  0  0  0  0  0  0  0  0  0  0  0
    2.9792   -0.8250    0.0000 C   0  0  0  0  0  0  0  0  0  0  0  0
    2.9792   -1.6500    0.0000 C   0  0  0  0  0  0  0  0  0  0  0  0
    3.6896   -4.5833    0.0000 C   0  0  0  0  0  0  0  0  0  0  0  0
  1 15  1  0  0  0  0
  2 15  1  0  0  0  0
  3 15  1  0  0  0  0
  4  8  1  0  0  0  0
  4 16  1  0  0  0  0
  5 11  2  0  0  0  0
  5 12  1  0  0  0  0
  6 17  3  0  0  0  0
  7  8  2  0  0  0  0
  7  9  1  0  0  0  0
  7 11  1  0  0  0  0
  8 10  1  0  0  0  0
  9 13  1  0  0  0  0
  9 14  1  0  0  0  0
 10 12  2  0  0  0  0
 12 17  1  0  0  0  0
 13 14  1  0  0  0  0
 15 16  1  0  0  0  0
M  END
> <PUBCHEM_COMPOUND_ID_TYPE>
0

> <PUBCHEM_TOTAL_CHARGE>
0

> <PUBCHEM_SUBSTANCE_ID>
310937639

> <PUBCHEM_SUBSTANCE_VERSION>
1

> <PUBCHEM_EXT_DATASOURCE_NAME>
4488

> <PUBCHEM_EXT_DATASOURCE_REGID>
SCHEMBL16115426

> <PUBCHEM_SUBSTANCE_COMMENT>
InChI=1S/C11H9F3N2O/c12-11(13,14)6-17-10-3-8(4-15)16-5-9(10)7-1-2-7/h3,5,7H,1-2,6H2
InChIKey=PVZVCNQYGAKGGR-UHFFFAOYSA-N

> <PUBCHEM_SUBSTANCE_SYNONYM>
SCHEMBL16115426

> <PUBCHEM_XREF_EXT_ID>
SCHEMBL16115426

> <PUBCHEM_EXT_DATASOURCE_URL>
https://www.surechembl.org/

> <PUBCHEM_EXT_SUBSTANCE_URL>
https://www.surechembl.org/chemical/SCHEMBL16115426

> <PUBCHEM_CID_ASSOCIATIONS>
117605332  1

> <PUBCHEM_COORDINATE_TYPE>
1
3

$$$$
