310941504
  -OEChem-07211613022D

 24 27  0     0  0  0  0  0  0999 V2000
    0.3070    1.5350    0.0000 S   0  0  0  0  0  0  0  0  0  0  0  0
   -2.0174   -1.1257    0.0000 O   0  0  0  0  0  0  0  0  0  0  0  0
   -3.5378   -0.9649    0.0000 O   0  0  0  0  0  0  0  0  0  0  0  0
   -0.5848   -1.1257    0.0000 O   0  0  0  0  0  0  0  0  0  0  0  0
    3.2017    0.5555    0.0000 O   0  0  0  0  0  0  0  0  0  0  0  0
    0.1608    0.2047    0.0000 N   0  0  0  0  0  0  0  0  0  0  0  0
    1.5497    0.7310    0.0000 N   0  0  0  0  0  0  0  0  0  0  0  0
   -1.3157    0.1316    0.0000 C   0  0  0  0  0  0  0  0  0  0  0  0
   -0.5994    0.5409    0.0000 C   0  0  0  0  0  0  0  0  0  0  0  0
   -2.7338    0.1169    0.0000 C   0  0  0  0  0  0  0  0  0  0  0  0
   -1.3450   -0.6871    0.0000 C   0  0  0  0  0  0  0  0  0  0  0  0
   -2.7484   -0.7017    0.0000 C   0  0  0  0  0  0  0  0  0  0  0  0
   -2.0467    0.5409    0.0000 C   0  0  0  0  0  0  0  0  0  0  0  0
    0.7164    0.8333    0.0000 C   0  0  0  0  0  0  0  0  0  0  0  0
   -0.4970    1.3742    0.0000 C   0  0  0  0  0  0  0  0  0  0  0  0
   -3.5378    0.3801    0.0000 C   0  0  0  0  0  0  0  0  0  0  0  0
    1.8859   -0.0293    0.0000 C   0  0  0  0  0  0  0  0  0  0  0  0
   -4.0203   -0.3070    0.0000 C   0  0  0  0  0  0  0  0  0  0  0  0
    2.7046   -0.1316    0.0000 C   0  0  0  0  0  0  0  0  0  0  0  0
    1.4181   -0.7017    0.0000 C   0  0  0  0  0  0  0  0  0  0  0  0
    3.0262   -0.8918    0.0000 C   0  0  0  0  0  0  0  0  0  0  0  0
    1.7397   -1.4473    0.0000 C   0  0  0  0  0  0  0  0  0  0  0  0
    2.5584   -1.5350    0.0000 C   0  0  0  0  0  0  0  0  0  0  0  0
    4.0203    0.4679    0.0000 C   0  0  0  0  0  0  0  0  0  0  0  0
  1 14  1  0  0  0  0
  1 15  1  0  0  0  0
  2 11  1  0  0  0  0
  2 12  1  0  0  0  0
  3 12  1  0  0  0  0
  3 18  1  0  0  0  0
  4 11  2  0  0  0  0
  5 19  1  0  0  0  0
  5 24  1  0  0  0  0
  6  9  1  0  0  0  0
  6 14  2  0  0  0  0
  7 14  1  0  0  0  0
  7 17  1  0  0  0  0
  8  9  1  0  0  0  0
  8 11  1  0  0  0  0
  8 13  2  0  0  0  0
  9 15  2  0  0  0  0
 10 12  2  0  0  0  0
 10 13  1  0  0  0  0
 10 16  1  0  0  0  0
 16 18  2  0  0  0  0
 17 19  1  0  0  0  0
 17 20  2  0  0  0  0
 19 21  2  0  0  0  0
 20 22  1  0  0  0  0
 21 23  1  0  0  0  0
 22 23  2  0  0  0  0
M  END
> <PUBCHEM_COMPOUND_ID_TYPE>
0

> <PUBCHEM_TOTAL_CHARGE>
0

> <PUBCHEM_SUBSTANCE_ID>
310941504

> <PUBCHEM_SUBSTANCE_VERSION>
1

> <PUBCHEM_EXT_DATASOURCE_NAME>
4488

> <PUBCHEM_EXT_DATASOURCE_REGID>
SCHEMBL16119535

> <PUBCHEM_SUBSTANCE_COMMENT>
InChI=1S/C17H12N2O4S/c1-21-14-5-3-2-4-12(14)18-17-19-13(9-24-17)11-8-10-6-7-22-16(10)23-15(11)20/h2-9H,1H3,(H,18,19)
InChIKey=RGDCVOFVSZAFBC-UHFFFAOYSA-N

> <PUBCHEM_SUBSTANCE_SYNONYM>
SCHEMBL16119535

> <PUBCHEM_XREF_EXT_ID>
SCHEMBL16119535

> <PUBCHEM_EXT_DATASOURCE_URL>
https://www.surechembl.org/

> <PUBCHEM_EXT_SUBSTANCE_URL>
https://www.surechembl.org/chemical/SCHEMBL16119535

> <PUBCHEM_CID_ASSOCIATIONS>
117608324  1

> <PUBCHEM_COORDINATE_TYPE>
1
3

$$$$
