310930106
  -OEChem-07211613022D

 74 82  0     1  0  0  0  0  0999 V2000
    1.0945   -5.3171    0.0000 S   0  0  0  0  0  0  0  0  0  0  0  0
    0.9738   -3.4401    0.0000 F   0  0  0  0  0  0  0  0  0  0  0  0
    0.3665   -3.6134    0.0000 F   0  0  0  0  0  0  0  0  0  0  0  0
    1.1870   -3.6697    0.0000 O   0  0  0  0  0  0  0  0  0  0  0  0
   -1.2278   -2.2682    0.0000 O   0  0  0  0  0  0  0  0  0  0  0  0
   -0.0216    0.8226    0.0000 O   0  0  0  0  0  0  0  0  0  0  0  0
    0.6426   -6.0074    0.0000 O   0  0  0  0  0  0  0  0  0  0  0  0
    1.5464   -4.6269    0.0000 O   0  0  0  0  0  0  0  0  0  0  0  0
    1.4525   -2.4575    0.0000 O   0  0  0  0  0  0  0  0  0  0  0  0
    4.2988   -1.5933    0.0000 O   0  0  0  0  0  0  0  0  0  0  0  0
    2.8360    0.8619    0.0000 O   0  0  0  0  0  0  0  0  0  0  0  0
    3.5674   -0.3657    0.0000 O   0  0  0  0  0  0  0  0  0  0  0  0
    0.0855   -2.8314    0.0000 N   0  0  0  0  0  0  0  0  0  0  0  0
    0.7211   -1.2299    0.0000 N   0  0  0  0  0  0  0  0  0  0  0  0
    0.4043   -4.8653    0.0000 N   0  0  0  0  0  0  0  0  0  0  0  0
    2.8700   -1.6129    0.0000 N   0  0  0  0  0  0  0  0  0  0  0  0
    0.6757    2.0698    0.0000 N   0  0  0  0  0  0  0  0  0  0  0  0
    1.1903   -1.3885    0.0000 N   0  0  3  0  0  0  0  0  0  0  0  0
   -0.2397   -3.5897    0.0000 C   0  0  3  0  0  0  0  0  0  0  0  0
   -1.0429   -3.4011    0.0000 C   0  0  3  0  0  0  0  0  0  0  0  0
   -0.8046   -4.1909    0.0000 C   0  0  0  0  0  0  0  0  0  0  0  0
    0.4505   -4.0416    0.0000 C   0  0  0  0  0  0  0  0  0  0  0  0
   -0.0834   -1.4125    0.0000 C   0  0  3  0  0  0  0  0  0  0  0  0
   -0.4086   -2.1707    0.0000 C   0  0  0  0  0  0  0  0  0  0  0  0
   -1.6441   -2.8362    0.0000 C   0  0  0  0  0  0  0  0  0  0  0  0
   -0.0103   -0.0024    0.0000 C   0  0  3  0  0  0  0  0  0  0  0  0
   -0.5057   -0.7038    0.0000 C   0  0  0  0  0  0  0  0  0  0  0  0
    1.7848   -5.7690    0.0000 C   0  0  0  0  0  0  0  0  0  0  0  0
    0.7098   -0.4050    0.0000 C   0  0  0  0  0  0  0  0  0  0  0  0
    1.4412   -1.6326    0.0000 C   0  0  0  0  0  0  0  0  0  0  0  0
    2.3940   -0.9594    0.0000 C   0  0  3  0  0  0  0  0  0  0  0  0
    1.4596   -6.5272    0.0000 C   0  0  0  0  0  0  0  0  0  0  0  0
    2.2788   -6.4297    0.0000 C   0  0  0  0  0  0  0  0  0  0  0  0
   -2.4340   -3.0745    0.0000 C   0  0  0  0  0  0  0  0  0  0  0  0
    2.1613   -2.0352    0.0000 C   0  0  0  0  0  0  0  0  0  0  0  0
    0.6871    1.2448    0.0000 C   0  0  0  0  0  0  0  0  0  0  0  0
    2.3496   -5.1678    0.0000 C   0  0  0  0  0  0  0  0  0  0  0  0
    1.4072    0.8422    0.0000 C   0  0  0  0  0  0  0  0  0  0  0  0
    3.5787   -1.1906    0.0000 C   0  0  0  0  0  0  0  0  0  0  0  0
    1.6678   -2.6920    0.0000 C   0  0  0  0  0  0  0  0  0  0  0  0
    2.8353   -2.5109    0.0000 C   0  0  0  0  0  0  0  0  0  0  0  0
    2.1159    1.2645    0.0000 C   0  0  0  0  0  0  0  0  0  0  0  0
    1.3845    2.4921    0.0000 C   0  0  0  0  0  0  0  0  0  0  0  0
    2.1046    2.0894    0.0000 C   0  0  0  0  0  0  0  0  0  0  0  0
    5.0075   -1.1710    0.0000 C   0  0  3  0  0  0  0  0  0  0  0  0
    4.9962   -0.3461    0.0000 C   0  0  3  0  0  0  0  0  0  0  0  0
    1.8650    1.5086    0.0000 C   0  0  0  0  0  0  0  0  0  0  0  0
    1.7663   -3.3103    0.0000 C   0  0  0  0  0  0  0  0  0  0  0  0
    2.5912   -3.2989    0.0000 C   0  0  0  0  0  0  0  0  0  0  0  0
    5.7956   -1.4151    0.0000 C   0  0  0  0  0  0  0  0  0  0  0  0
    1.3731    3.3170    0.0000 C   0  0  0  0  0  0  0  0  0  0  0  0
    2.8133    2.5117    0.0000 C   0  0  0  0  0  0  0  0  0  0  0  0
    5.7772   -0.0804    0.0000 C   0  0  0  0  0  0  0  0  0  0  0  0
    4.2761    0.0566    0.0000 C   0  0  0  0  0  0  0  0  0  0  0  0
    6.2713   -0.7411    0.0000 C   0  0  0  0  0  0  0  0  0  0  0  0
    2.5851    1.1059    0.0000 C   0  0  0  0  0  0  0  0  0  0  0  0
    2.0819    3.7393    0.0000 C   0  0  0  0  0  0  0  0  0  0  0  0
    2.8019    3.3366    0.0000 C   0  0  0  0  0  0  0  0  0  0  0  0
    4.2648    0.8815    0.0000 C   0  0  0  0  0  0  0  0  0  0  0  0
    2.8473    0.0369    0.0000 C   0  0  0  0  0  0  0  0  0  0  0  0
    3.5447    1.2841    0.0000 C   0  0  0  0  0  0  0  0  0  0  0  0
    2.1386   -0.3854    0.0000 C   0  0  0  0  0  0  0  0  0  0  0  0
    2.1499   -1.2103    0.0000 C   0  0  0  0  0  0  0  0  0  0  0  0
    1.2016   -2.2134    0.0000 C   0  0  0  0  0  0  0  0  0  0  0  0
    0.7438   -2.8798    0.0000 C   0  0  0  0  0  0  0  0  0  0  0  0
    0.4702   -0.9858    0.0000 C   0  0  0  0  0  0  0  0  0  0  0  0
    0.0237   -2.4771    0.0000 C   0  0  0  0  0  0  0  0  0  0  0  0
    0.0960   -1.7336    0.0000 C   0  0  0  0  0  0  0  0  0  0  0  0
   -0.6529   -2.6741    0.0000 H   0  0  0  0  0  0  0  0  0  0  0  0
   -0.9066   -1.4670    0.0000 H   0  0  0  0  0  0  0  0  0  0  0  0
   -0.7983    0.2419    0.0000 H   0  0  0  0  0  0  0  0  0  0  0  0
    1.9389   -1.6475    0.0000 H   0  0  0  0  0  0  0  0  0  0  0  0
    5.1050   -1.9902    0.0000 H   0  0  0  0  0  0  0  0  0  0  0  0
    5.0711    0.4755    0.0000 H   0  0  0  0  0  0  0  0  0  0  0  0
  1  7  2  0  0  0  0
  1  8  2  0  0  0  0
  1 15  1  0  0  0  0
  1 28  1  0  0  0  0
  2 65  1  0  0  0  0
  3 65  1  0  0  0  0
  4 22  2  0  0  0  0
  5 24  2  0  0  0  0
  6 26  1  0  0  0  0
  6 36  1  0  0  0  0
  9 30  2  0  0  0  0
 10 39  1  0  0  0  0
 10 45  1  0  0  0  0
 11 42  1  0  0  0  0
 11 60  1  0  0  0  0
 12 39  2  0  0  0  0
 19 13  1  6  0  0  0
 13 24  1  0  0  0  0
 14 23  1  0  0  0  0
 14 29  1  0  0  0  0
 14 30  1  0  0  0  0
 15 22  1  0  0  0  0
 16 31  1  0  0  0  0
 16 39  1  0  0  0  0
 17 36  2  0  0  0  0
 17 43  1  0  0  0  0
 18 63  1  0  0  0  0
 18 64  1  0  0  0  0
 18 66  1  0  0  0  0
 19 20  1  0  0  0  0
 19 21  1  0  0  0  0
 19 22  1  1  0  0  0
 20 21  1  0  0  0  0
 20 25  1  0  0  0  0
 20 69  1  6  0  0  0
 23 24  1  0  0  0  0
 23 27  1  0  0  0  0
 23 70  1  1  0  0  0
 25 34  2  0  0  0  0
 26 27  1  0  0  0  0
 26 29  1  0  0  0  0
 26 71  1  6  0  0  0
 28 32  1  0  0  0  0
 28 33  1  0  0  0  0
 28 37  1  0  0  0  0
 30 31  1  0  0  0  0
 31 35  1  0  0  0  0
 31 72  1  6  0  0  0
 32 33  1  0  0  0  0
 35 40  1  0  0  0  0
 35 41  1  0  0  0  0
 36 38  1  0  0  0  0
 38 42  2  0  0  0  0
 38 47  1  0  0  0  0
 40 48  1  0  0  0  0
 41 49  1  0  0  0  0
 42 44  1  0  0  0  0
 43 44  2  0  0  0  0
 43 51  1  0  0  0  0
 44 52  1  0  0  0  0
 45 46  1  0  0  0  0
 45 50  1  0  0  0  0
 45 73  1  6  0  0  0
 46 53  1  0  0  0  0
 46 54  1  0  0  0  0
 46 74  1  1  0  0  0
 47 56  1  0  0  0  0
 48 49  1  0  0  0  0
 50 55  1  0  0  0  0
 51 57  2  0  0  0  0
 52 58  2  0  0  0  0
 53 55  1  0  0  0  0
 54 59  1  0  0  0  0
 56 61  2  0  0  0  0
 57 58  1  0  0  0  0
 59 61  1  0  0  0  0
 60 62  1  0  0  0  0
 62 63  1  0  0  0  0
 64 65  1  0  0  0  0
 65 67  1  0  0  0  0
 66 68  1  0  0  0  0
 67 68  1  0  0  0  0
M  END
> <PUBCHEM_COMPOUND_ID_TYPE>
0

> <PUBCHEM_TOTAL_CHARGE>
0

> <PUBCHEM_SUBSTANCE_ID>
310930106

> <PUBCHEM_SUBSTANCE_VERSION>
1

> <PUBCHEM_EXT_DATASOURCE_NAME>
4488

> <PUBCHEM_EXT_DATASOURCE_REGID>
SCHEMBL16107356

> <PUBCHEM_SUBSTANCE_COMMENT>
InChI=1S/C50H66F2N6O9S/c1-3-34-29-50(34,46(61)56-68(63,64)48(2)23-24-48)55-43(59)39-28-35-30-58(39)45(60)41(33-15-7-8-16-33)54-47(62)67-40-21-11-17-32(40)14-5-4-6-19-37-42(36-18-9-10-20-38(36)53-44(37)66-35)65-27-13-26-57-25-12-22-49(51,52)31-57/h3-4,6,9-10,18,20,32-35,39-41H,1,5,7-8,11-17,19,21-31H2,2H3,(H,54,62)(H,55,59)(H,56,61)/t32-,34-,35-,39+,40-,41+,50-/m1/s1
InChIKey=GSSVOYFRNBFVRP-ZKLFGUGWSA-N

> <PUBCHEM_SUBSTANCE_SYNONYM>
SCHEMBL16107356

> <PUBCHEM_XREF_EXT_ID>
SCHEMBL16107356

> <PUBCHEM_EXT_DATASOURCE_URL>
https://www.surechembl.org/

> <PUBCHEM_EXT_SUBSTANCE_URL>
https://www.surechembl.org/chemical/SCHEMBL16107356

> <PUBCHEM_CID_ASSOCIATIONS>
117599335  1

> <PUBCHEM_COORDINATE_TYPE>
1
3

> <PUBCHEM_BONDANNOTATIONS>
19  13  6
19  22  5
20  69  6
23  70  5
26  71  6
31  72  6
45  73  6
46  74  5
61  59  3

$$$$
