310944618
  -OEChem-07211613022D

 19 19  0     0  0  0  0  0  0999 V2000
   -0.0067    1.6392    0.0000 F   0  0  0  0  0  0  0  0  0  0  0  0
   -2.1607    1.1921    0.0000 N   0  0  0  0  0  0  0  0  0  0  0  0
    2.1743    1.1650    0.0000 N   0  0  0  0  0  0  0  0  0  0  0  0
   -0.7654   -0.3794    0.0000 C   0  0  0  0  0  0  0  0  0  0  0  0
    0.6977   -0.3794    0.0000 C   0  0  0  0  0  0  0  0  0  0  0  0
   -0.7519    0.4470    0.0000 C   0  0  0  0  0  0  0  0  0  0  0  0
    0.7112    0.4470    0.0000 C   0  0  0  0  0  0  0  0  0  0  0  0
   -0.0203    0.8399    0.0000 C   0  0  0  0  0  0  0  0  0  0  0  0
   -0.0203   -0.7857    0.0000 C   0  0  0  0  0  0  0  0  0  0  0  0
   -1.4699   -0.7722    0.0000 C   0  0  0  0  0  0  0  0  0  0  0  0
    1.4292   -0.8264    0.0000 C   0  0  0  0  0  0  0  0  0  0  0  0
   -1.4563    0.8264    0.0000 C   0  0  0  0  0  0  0  0  0  0  0  0
    1.4428    0.8264    0.0000 C   0  0  0  0  0  0  0  0  0  0  0  0
   -1.4834   -1.6257    0.0000 C   0  0  0  0  0  0  0  0  0  0  0  0
   -2.1878   -0.3928    0.0000 C   0  0  0  0  0  0  0  0  0  0  0  0
   -1.6866    0.0000    0.0000 C   0  0  0  0  0  0  0  0  0  0  0  0
    0.8602   -1.3954    0.0000 C   0  0  0  0  0  0  0  0  0  0  0  0
    2.1878   -0.4064    0.0000 C   0  0  0  0  0  0  0  0  0  0  0  0
    1.4292   -1.6392    0.0000 C   0  0  0  0  0  0  0  0  0  0  0  0
  1  8  1  0  0  0  0
  2 12  3  0  0  0  0
  3 13  3  0  0  0  0
  4  6  2  0  0  0  0
  4  9  1  0  0  0  0
  4 10  1  0  0  0  0
  5  7  1  0  0  0  0
  5  9  2  0  0  0  0
  5 11  1  0  0  0  0
  6  8  1  0  0  0  0
  6 12  1  0  0  0  0
  7  8  2  0  0  0  0
  7 13  1  0  0  0  0
 10 14  1  0  0  0  0
 10 15  1  0  0  0  0
 10 16  1  0  0  0  0
 11 17  1  0  0  0  0
 11 18  1  0  0  0  0
 11 19  1  0  0  0  0
M  END
> <PUBCHEM_COMPOUND_ID_TYPE>
0

> <PUBCHEM_TOTAL_CHARGE>
0

> <PUBCHEM_SUBSTANCE_ID>
310944618

> <PUBCHEM_SUBSTANCE_VERSION>
1

> <PUBCHEM_EXT_DATASOURCE_NAME>
4488

> <PUBCHEM_EXT_DATASOURCE_REGID>
SCHEMBL16122696

> <PUBCHEM_SUBSTANCE_COMMENT>
InChI=1S/C16H19FN2/c1-15(2,3)12-7-13(16(4,5)6)11(9-19)14(17)10(12)8-18/h7H,1-6H3
InChIKey=YXMYTQFUWFDTIZ-UHFFFAOYSA-N

> <PUBCHEM_SUBSTANCE_SYNONYM>
SCHEMBL16122696

> <PUBCHEM_XREF_EXT_ID>
SCHEMBL16122696

> <PUBCHEM_EXT_DATASOURCE_URL>
https://www.surechembl.org/

> <PUBCHEM_EXT_SUBSTANCE_URL>
https://www.surechembl.org/chemical/SCHEMBL16122696

> <PUBCHEM_CID_ASSOCIATIONS>
117610848  1

> <PUBCHEM_COORDINATE_TYPE>
1
3

$$$$
