310942639
  -OEChem-07211613022D

 55 60  0     1  0  0  0  0  0999 V2000
   -5.3182    2.7381    0.0000 F   0  0  0  0  0  0  0  0  0  0  0  0
   -5.3182   -0.5792    0.0000 F   0  0  0  0  0  0  0  0  0  0  0  0
   -2.5626    0.6143    0.0000 O   0  0  0  0  0  0  0  0  0  0  0  0
    1.7025    0.5266    0.0000 O   0  0  0  0  0  0  0  0  0  0  0  0
    0.0351    3.8088    0.0000 O   0  0  0  0  0  0  0  0  0  0  0  0
   -1.7201   -0.8249    0.0000 O   0  0  0  0  0  0  0  0  0  0  0  0
    3.1418    0.5266    0.0000 O   0  0  0  0  0  0  0  0  0  0  0  0
    3.1067   -4.6688    0.0000 O   0  0  0  0  0  0  0  0  0  0  0  0
    6.0203   -4.6688    0.0000 O   0  0  0  0  0  0  0  0  0  0  0  0
    3.8438   -2.3695    0.0000 O   0  0  0  0  0  0  0  0  0  0  0  0
   -2.8961    2.8083    0.0000 N   0  0  0  0  0  0  0  0  0  0  0  0
   -1.3164    1.3339    0.0000 N   0  0  0  0  0  0  0  0  0  0  0  0
   -3.1769    1.4919    0.0000 N   0  0  0  0  0  0  0  0  0  0  0  0
    1.7201    2.6503    0.0000 N   0  0  0  0  0  0  0  0  0  0  0  0
    2.4222   -0.7196    0.0000 N   0  0  0  0  0  0  0  0  0  0  0  0
    4.5635   -4.4231    0.0000 N   0  0  0  0  0  0  0  0  0  0  0  0
   -2.5626    2.0711    0.0000 C   0  0  0  0  0  0  0  0  0  0  0  0
   -1.7376    2.0536    0.0000 C   0  0  3  0  0  0  0  0  0  0  0  0
   -3.8965    1.9131    0.0000 C   0  0  0  0  0  0  0  0  0  0  0  0
   -1.1584    2.6503    0.0000 C   0  0  0  0  0  0  0  0  0  0  0  0
   -3.7034    2.7205    0.0000 C   0  0  0  0  0  0  0  0  0  0  0  0
   -4.5986    1.5095    0.0000 C   0  0  0  0  0  0  0  0  0  0  0  0
   -1.7025    0.6143    0.0000 C   0  0  0  0  0  0  0  0  0  0  0  0
   -0.0702    1.3339    0.0000 C   0  0  0  0  0  0  0  0  0  0  0  0
   -2.4572    3.7386    0.0000 C   0  0  0  0  0  0  0  0  0  0  0  0
   -5.3182    1.9131    0.0000 C   0  0  0  0  0  0  0  0  0  0  0  0
    0.7372    1.7376    0.0000 C   0  0  3  0  0  0  0  0  0  0  0  0
   -1.3339    3.4401    0.0000 C   0  0  0  0  0  0  0  0  0  0  0  0
   -0.3335    2.4222    0.0000 C   0  0  0  0  0  0  0  0  0  0  0  0
   -4.6161    0.6670    0.0000 C   0  0  0  0  0  0  0  0  0  0  0  0
   -3.0540    4.3353    0.0000 C   0  0  0  0  0  0  0  0  0  0  0  0
   -1.3164   -0.0877    0.0000 C   0  0  3  0  0  0  0  0  0  0  0  0
    1.5095    1.3339    0.0000 C   0  0  3  0  0  0  0  0  0  0  0  0
   -5.3182    0.2633    0.0000 C   0  0  0  0  0  0  0  0  0  0  0  0
   -6.0203    1.4919    0.0000 C   0  0  0  0  0  0  0  0  0  0  0  0
    0.9302    2.5450    0.0000 C   0  0  0  0  0  0  0  0  0  0  0  0
   -0.7723    4.0194    0.0000 C   0  0  0  0  0  0  0  0  0  0  0  0
    0.2458    3.0189    0.0000 C   0  0  0  0  0  0  0  0  0  0  0  0
   -6.0203    0.6670    0.0000 C   0  0  0  0  0  0  0  0  0  0  0  0
    2.0887    1.8956    0.0000 C   0  0  0  0  0  0  0  0  0  0  0  0
   -2.8434    5.1252    0.0000 C   0  0  0  0  0  0  0  0  0  0  0  0
   -3.8438    4.1247    0.0000 C   0  0  0  0  0  0  0  0  0  0  0  0
   -0.4914   -0.1053    0.0000 C   0  0  0  0  0  0  0  0  0  0  0  0
    2.4046    0.1229    0.0000 C   0  0  0  0  0  0  0  0  0  0  0  0
   -3.4226    5.7043    0.0000 C   0  0  0  0  0  0  0  0  0  0  0  0
   -4.4231    4.6863    0.0000 C   0  0  0  0  0  0  0  0  0  0  0  0
   -4.2125    5.4586    0.0000 C   0  0  0  0  0  0  0  0  0  0  0  0
    3.9140   -4.9321    0.0000 C   0  0  0  0  0  0  0  0  0  0  0  0
    5.2129   -4.9321    0.0000 C   0  0  0  0  0  0  0  0  0  0  0  0
    4.1423   -5.6868    0.0000 C   0  0  0  0  0  0  0  0  0  0  0  0
    4.9671   -5.7043    0.0000 C   0  0  0  0  0  0  0  0  0  0  0  0
    3.1418   -1.1408    0.0000 C   0  0  0  0  0  0  0  0  0  0  0  0
    4.5635   -3.6157    0.0000 C   0  0  0  0  0  0  0  0  0  0  0  0
    3.8438   -3.1944    0.0000 C   0  0  0  0  0  0  0  0  0  0  0  0
    3.1418   -1.9483    0.0000 C   0  0  0  0  0  0  0  0  0  0  0  0
  1 26  1  0  0  0  0
  2 34  1  0  0  0  0
  3 23  2  0  0  0  0
 33  4  1  6  0  0  0
  4 44  1  0  0  0  0
  5 37  1  0  0  0  0
  5 38  1  0  0  0  0
 32  6  1  6  0  0  0
  7 44  2  0  0  0  0
  8 48  2  0  0  0  0
  9 49  2  0  0  0  0
 10 54  1  0  0  0  0
 10 55  1  0  0  0  0
 11 17  1  0  0  0  0
 11 21  1  0  0  0  0
 11 25  1  0  0  0  0
 18 12  1  1  0  0  0
 12 23  1  0  0  0  0
 12 24  1  0  0  0  0
 13 17  2  0  0  0  0
 13 19  1  0  0  0  0
 14 36  1  0  0  0  0
 14 40  1  0  0  0  0
 15 44  1  0  0  0  0
 15 52  1  0  0  0  0
 16 48  1  0  0  0  0
 16 49  1  0  0  0  0
 16 53  1  0  0  0  0
 17 18  1  0  0  0  0
 18 20  1  0  0  0  0
 19 21  2  0  0  0  0
 19 22  1  0  0  0  0
 20 28  1  0  0  0  0
 20 29  1  0  0  0  0
 22 26  2  0  0  0  0
 22 30  1  0  0  0  0
 23 32  1  0  0  0  0
 27 24  1  1  0  0  0
 25 31  1  0  0  0  0
 26 35  1  0  0  0  0
 27 33  1  0  0  0  0
 27 36  1  0  0  0  0
 28 37  1  0  0  0  0
 29 38  1  0  0  0  0
 30 34  2  0  0  0  0
 31 41  2  0  0  0  0
 31 42  1  0  0  0  0
 32 43  1  0  0  0  0
 33 40  1  0  0  0  0
 34 39  1  0  0  0  0
 35 39  2  0  0  0  0
 41 45  1  0  0  0  0
 42 46  2  0  0  0  0
 45 47  2  0  0  0  0
 46 47  1  0  0  0  0
 48 50  1  0  0  0  0
 49 51  1  0  0  0  0
 50 51  2  0  0  0  0
 52 55  1  0  0  0  0
 53 54  1  0  0  0  0
M  END
> <PUBCHEM_COMPOUND_ID_TYPE>
0

> <PUBCHEM_TOTAL_CHARGE>
0

> <PUBCHEM_SUBSTANCE_ID>
310942639

> <PUBCHEM_SUBSTANCE_VERSION>
1

> <PUBCHEM_EXT_DATASOURCE_NAME>
4488

> <PUBCHEM_EXT_DATASOURCE_REGID>
SCHEMBL16120685

> <PUBCHEM_SUBSTANCE_COMMENT>
InChI=1S/C39H46F2N6O8/c1-25(48)38(51)47(23-28-20-42-21-33(28)55-39(52)43-13-17-54-18-14-46-34(49)9-10-35(46)50)36(27-11-15-53-16-12-27)37-44-32(30-19-29(40)7-8-31(30)41)24-45(37)22-26-5-3-2-4-6-26/h2-10,19,24-25,27-28,33,36,42,48H,11-18,20-23H2,1H3,(H,43,52)/t25-,28+,33-,36+/m0/s1
InChIKey=NFGFWTCUKQKCRC-UKUBRDFXSA-N

> <PUBCHEM_SUBSTANCE_SYNONYM>
SCHEMBL16120685

> <PUBCHEM_XREF_EXT_ID>
SCHEMBL16120685

> <PUBCHEM_EXT_DATASOURCE_URL>
https://www.surechembl.org/

> <PUBCHEM_EXT_SUBSTANCE_URL>
https://www.surechembl.org/chemical/SCHEMBL16120685

> <PUBCHEM_CID_ASSOCIATIONS>
117609170  1

> <PUBCHEM_COORDINATE_TYPE>
1
3

> <PUBCHEM_BONDANNOTATIONS>
18  12  5
27  24  5
33  4  6
32  6  6

$$$$
