310949139
  -OEChem-07211613022D

 32 35  0     0  0  0  0  0  0999 V2000
    1.2077    1.1218    0.0000 F   0  0  0  0  0  0  0  0  0  0  0  0
    2.3066    0.8127    0.0000 F   0  0  0  0  0  0  0  0  0  0  0  0
    1.9861   -0.2976    0.0000 F   0  0  0  0  0  0  0  0  0  0  0  0
   -1.8259   -0.3778    0.0000 F   0  0  0  0  0  0  0  0  0  0  0  0
   -2.3066    0.6525    0.0000 F   0  0  0  0  0  0  0  0  0  0  0  0
   -1.2420    1.1333    0.0000 F   0  0  0  0  0  0  0  0  0  0  0  0
    0.9673   -2.0949    0.0000 F   0  0  0  0  0  0  0  0  0  0  0  0
    0.1660   -2.9191    0.0000 F   0  0  0  0  0  0  0  0  0  0  0  0
   -0.6582   -2.0949    0.0000 F   0  0  0  0  0  0  0  0  0  0  0  0
    0.1431    2.9076    0.0000 O   0  0  0  0  0  0  0  0  0  0  0  0
    0.1431    1.2477    0.0000 N   0  0  0  0  0  0  0  0  0  0  0  0
    0.1317    0.4236    0.0000 C   0  0  0  0  0  0  0  0  0  0  0  0
    0.8643    0.0000    0.0000 C   0  0  0  0  0  0  0  0  0  0  0  0
   -0.5896    0.0000    0.0000 C   0  0  0  0  0  0  0  0  0  0  0  0
    0.8643    1.6828    0.0000 C   0  0  0  0  0  0  0  0  0  0  0  0
   -0.6010    1.6828    0.0000 C   0  0  0  0  0  0  0  0  0  0  0  0
    0.1431   -1.2363    0.0000 C   0  0  0  0  0  0  0  0  0  0  0  0
    1.5969    0.4121    0.0000 C   0  0  0  0  0  0  0  0  0  0  0  0
   -1.5397    0.3892    0.0000 C   0  0  0  0  0  0  0  0  0  0  0  0
    0.8643   -0.8242    0.0000 C   0  0  0  0  0  0  0  0  0  0  0  0
   -0.5781   -0.8357    0.0000 C   0  0  0  0  0  0  0  0  0  0  0  0
    0.8758    2.5070    0.0000 C   0  0  0  0  0  0  0  0  0  0  0  0
   -0.6010    2.4955    0.0000 C   0  0  0  0  0  0  0  0  0  0  0  0
    0.1431   -2.0949    0.0000 C   0  0  0  0  0  0  0  0  0  0  0  0
    1.5969    1.2821    0.0000 C   0  0  0  0  0  0  0  0  0  0  0  0
   -1.2878    1.2592    0.0000 C   0  0  0  0  0  0  0  0  0  0  0  0
    1.5854    2.9191    0.0000 C   0  0  0  0  0  0  0  0  0  0  0  0
   -1.2993    2.8962    0.0000 C   0  0  0  0  0  0  0  0  0  0  0  0
    2.3066    1.7056    0.0000 C   0  0  0  0  0  0  0  0  0  0  0  0
   -2.0319    1.6599    0.0000 C   0  0  0  0  0  0  0  0  0  0  0  0
    2.3066    2.5299    0.0000 C   0  0  0  0  0  0  0  0  0  0  0  0
   -2.0204    2.4955    0.0000 C   0  0  0  0  0  0  0  0  0  0  0  0
  1 18  1  0  0  0  0
  2 18  1  0  0  0  0
  3 18  1  0  0  0  0
  4 19  1  0  0  0  0
  5 19  1  0  0  0  0
  6 19  1  0  0  0  0
  7 24  1  0  0  0  0
  8 24  1  0  0  0  0
  9 24  1  0  0  0  0
 10 22  1  0  0  0  0
 10 23  1  0  0  0  0
 11 12  1  0  0  0  0
 11 15  1  0  0  0  0
 11 16  1  0  0  0  0
 12 13  2  0  0  0  0
 12 14  1  0  0  0  0
 13 18  1  0  0  0  0
 13 20  1  0  0  0  0
 14 19  1  0  0  0  0
 14 21  2  0  0  0  0
 15 22  2  0  0  0  0
 15 25  1  0  0  0  0
 16 23  2  0  0  0  0
 16 26  1  0  0  0  0
 17 20  2  0  0  0  0
 17 21  1  0  0  0  0
 17 24  1  0  0  0  0
 22 27  1  0  0  0  0
 23 28  1  0  0  0  0
 25 29  2  0  0  0  0
 26 30  2  0  0  0  0
 27 31  2  0  0  0  0
 28 32  2  0  0  0  0
 29 31  1  0  0  0  0
 30 32  1  0  0  0  0
M  END
> <PUBCHEM_COMPOUND_ID_TYPE>
0

> <PUBCHEM_TOTAL_CHARGE>
0

> <PUBCHEM_SUBSTANCE_ID>
310949139

> <PUBCHEM_SUBSTANCE_VERSION>
1

> <PUBCHEM_EXT_DATASOURCE_NAME>
4488

> <PUBCHEM_EXT_DATASOURCE_REGID>
SCHEMBL16127329

> <PUBCHEM_SUBSTANCE_COMMENT>
InChI=1S/C21H10F9NO/c22-19(23,24)11-9-12(20(25,26)27)18(13(10-11)21(28,29)30)31-14-5-1-3-7-16(14)32-17-8-4-2-6-15(17)31/h1-10H
InChIKey=GVQQIHAPADZNEL-UHFFFAOYSA-N

> <PUBCHEM_SUBSTANCE_SYNONYM>
SCHEMBL16127329

> <PUBCHEM_XREF_EXT_ID>
SCHEMBL16127329

> <PUBCHEM_EXT_DATASOURCE_URL>
https://www.surechembl.org/

> <PUBCHEM_EXT_SUBSTANCE_URL>
https://www.surechembl.org/chemical/SCHEMBL16127329

> <PUBCHEM_CID_ASSOCIATIONS>
117614636  1

> <PUBCHEM_COORDINATE_TYPE>
1
3

$$$$
