310942821
  -OEChem-07211613022D

 34 38  0     0  0  0  0  0  0999 V2000
   -4.0072   -1.1786    0.0000 O   0  0  0  0  0  0  0  0  0  0  0  0
   -4.0072    1.3112    0.0000 O   0  0  0  0  0  0  0  0  0  0  0  0
   -1.1491   -1.1786    0.0000 O   0  0  0  0  0  0  0  0  0  0  0  0
    5.3036   -0.7514    0.0000 O   0  0  0  0  0  0  0  0  0  0  0  0
    3.8746    0.0736    0.0000 N   0  0  0  0  0  0  0  0  0  0  0  0
    2.4456   -0.7514    0.0000 N   0  0  0  0  0  0  0  0  0  0  0  0
   -4.7291   -0.7366    0.0000 C   0  0  0  0  0  0  0  0  0  0  0  0
   -3.2853   -0.7366    0.0000 C   0  0  0  0  0  0  0  0  0  0  0  0
   -3.2706    0.0884    0.0000 C   0  0  0  0  0  0  0  0  0  0  0  0
   -4.0219    0.4862    0.0000 C   0  0  0  0  0  0  0  0  0  0  0  0
   -4.7143    0.0884    0.0000 C   0  0  0  0  0  0  0  0  0  0  0  0
   -5.4657   -0.4272    0.0000 C   0  0  0  0  0  0  0  0  0  0  0  0
   -4.8174   -1.5616    0.0000 C   0  0  0  0  0  0  0  0  0  0  0  0
   -2.5781   -1.1491    0.0000 C   0  0  0  0  0  0  0  0  0  0  0  0
   -2.5929    0.4862    0.0000 C   0  0  0  0  0  0  0  0  0  0  0  0
   -1.8563   -0.7366    0.0000 C   0  0  0  0  0  0  0  0  0  0  0  0
   -6.0255   -1.0313    0.0000 C   0  0  0  0  0  0  0  0  0  0  0  0
   -5.6130   -1.7237    0.0000 C   0  0  0  0  0  0  0  0  0  0  0  0
   -1.8563    0.0884    0.0000 C   0  0  0  0  0  0  0  0  0  0  0  0
    4.5965    0.5009    0.0000 C   0  0  0  0  0  0  0  0  0  0  0  0
    5.3331    0.0884    0.0000 C   0  0  0  0  0  0  0  0  0  0  0  0
    3.8746   -0.7514    0.0000 C   0  0  0  0  0  0  0  0  0  0  0  0
    3.1527    0.4862    0.0000 C   0  0  0  0  0  0  0  0  0  0  0  0
    4.6112    1.3259    0.0000 C   0  0  0  0  0  0  0  0  0  0  0  0
    6.0255    0.5009    0.0000 C   0  0  0  0  0  0  0  0  0  0  0  0
    3.1674   -1.1638    0.0000 C   0  0  0  0  0  0  0  0  0  0  0  0
    2.4603    0.0884    0.0000 C   0  0  0  0  0  0  0  0  0  0  0  0
   -0.4272   -0.7514    0.0000 C   0  0  0  0  0  0  0  0  0  0  0  0
    5.3036    1.7237    0.0000 C   0  0  0  0  0  0  0  0  0  0  0  0
    6.0255    1.3259    0.0000 C   0  0  0  0  0  0  0  0  0  0  0  0
    1.7384   -1.1638    0.0000 C   0  0  0  0  0  0  0  0  0  0  0  0
    0.3094   -1.1491    0.0000 C   0  0  0  0  0  0  0  0  0  0  0  0
    1.0165   -0.7514    0.0000 C   0  0  0  0  0  0  0  0  0  0  0  0
    5.9960   -1.1786    0.0000 C   0  0  0  0  0  0  0  0  0  0  0  0
  1  7  1  0  0  0  0
  1  8  1  0  0  0  0
  2 10  2  0  0  0  0
  3 16  1  0  0  0  0
  3 28  1  0  0  0  0
  4 21  1  0  0  0  0
  4 34  1  0  0  0  0
  5 20  1  0  0  0  0
  5 22  1  0  0  0  0
  5 23  1  0  0  0  0
  6 26  1  0  0  0  0
  6 27  1  0  0  0  0
  6 31  1  0  0  0  0
  7 11  1  0  0  0  0
  7 12  1  0  0  0  0
  7 13  1  0  0  0  0
  8  9  2  0  0  0  0
  8 14  1  0  0  0  0
  9 10  1  0  0  0  0
  9 15  1  0  0  0  0
 10 11  1  0  0  0  0
 12 17  1  0  0  0  0
 13 18  1  0  0  0  0
 14 16  2  0  0  0  0
 15 19  2  0  0  0  0
 16 19  1  0  0  0  0
 17 18  1  0  0  0  0
 20 21  2  0  0  0  0
 20 24  1  0  0  0  0
 21 25  1  0  0  0  0
 22 26  1  0  0  0  0
 23 27  1  0  0  0  0
 24 29  2  0  0  0  0
 25 30  2  0  0  0  0
 28 32  1  0  0  0  0
 29 30  1  0  0  0  0
 31 33  1  0  0  0  0
 32 33  1  0  0  0  0
M  END
> <PUBCHEM_COMPOUND_ID_TYPE>
0

> <PUBCHEM_TOTAL_CHARGE>
0

> <PUBCHEM_SUBSTANCE_ID>
310942821

> <PUBCHEM_SUBSTANCE_VERSION>
1

> <PUBCHEM_EXT_DATASOURCE_NAME>
4488

> <PUBCHEM_EXT_DATASOURCE_REGID>
SCHEMBL16120876

> <PUBCHEM_SUBSTANCE_COMMENT>
InChI=1S/C28H36N2O4/c1-32-26-9-3-2-8-24(26)30-17-15-29(16-18-30)14-6-7-19-33-22-10-11-23-25(31)21-28(12-4-5-13-28)34-27(23)20-22/h2-3,8-11,20H,4-7,12-19,21H2,1H3
InChIKey=BGZDTCVNVHQDBI-UHFFFAOYSA-N

> <PUBCHEM_SUBSTANCE_SYNONYM>
SCHEMBL16120876

> <PUBCHEM_XREF_EXT_ID>
SCHEMBL16120876

> <PUBCHEM_EXT_DATASOURCE_URL>
https://www.surechembl.org/

> <PUBCHEM_EXT_SUBSTANCE_URL>
https://www.surechembl.org/chemical/SCHEMBL16120876

> <PUBCHEM_CID_ASSOCIATIONS>
86274949  1

> <PUBCHEM_COORDINATE_TYPE>
1
3

$$$$
