310929542
  -OEChem-07211613022D

 68 76  0     1  0  0  0  0  0999 V2000
   -2.3860   -3.7235    0.0000 S   0  0  0  0  0  0  0  0  0  0  0  0
   -1.5610   -5.1524    0.0000 O   0  0  0  0  0  0  0  0  0  0  0  0
   -2.3860   -2.8985    0.0000 O   0  0  0  0  0  0  0  0  0  0  0  0
   -2.3860   -4.5485    0.0000 O   0  0  0  0  0  0  0  0  0  0  0  0
    1.4290   -0.8250    0.0000 O   0  0  0  0  0  0  0  0  0  0  0  0
    1.3265   -4.4380    0.0000 O   0  0  0  0  0  0  0  0  0  0  0  0
    2.8579   -4.1250    0.0000 O   0  0  0  0  0  0  0  0  0  0  0  0
    4.2868   -0.8250    0.0000 O   0  0  0  0  0  0  0  0  0  0  0  0
    0.0000    1.6500    0.0000 O   0  0  0  0  0  0  0  0  0  0  0  0
    5.0013   -2.0625    0.0000 O   0  0  0  0  0  0  0  0  0  0  0  0
    0.0890   -3.7235    0.0000 N   0  0  0  0  0  0  0  0  0  0  0  0
   -1.5610   -3.7235    0.0000 N   0  0  0  0  0  0  0  0  0  0  0  0
    2.1434   -2.8875    0.0000 N   0  0  0  0  0  0  0  0  0  0  0  0
    0.0000   -0.8250    0.0000 N   0  0  0  0  0  0  0  0  0  0  0  0
    3.5724   -2.0625    0.0000 N   0  0  0  0  0  0  0  0  0  0  0  0
   -1.4290    4.1250    0.0000 N   0  0  0  0  0  0  0  0  0  0  0  0
   -0.3235   -4.4380    0.0000 C   0  0  3  0  0  0  0  0  0  0  0  0
    0.3909   -4.8505    0.0000 C   0  0  3  0  0  0  0  0  0  0  0  0
   -0.3235   -5.2630    0.0000 C   0  0  0  0  0  0  0  0  0  0  0  0
   -1.1485   -4.4380    0.0000 C   0  0  0  0  0  0  0  0  0  0  0  0
   -3.2110   -3.7235    0.0000 C   0  0  0  0  0  0  0  0  0  0  0  0
    0.9140   -3.7235    0.0000 C   0  0  0  0  0  0  0  0  0  0  0  0
    1.3265   -3.0090    0.0000 C   0  0  3  0  0  0  0  0  0  0  0  0
    1.2159   -4.8505    0.0000 C   0  0  0  0  0  0  0  0  0  0  0  0
    1.4290   -1.6500    0.0000 C   0  0  3  0  0  0  0  0  0  0  0  0
   -3.6235   -4.4380    0.0000 C   0  0  0  0  0  0  0  0  0  0  0  0
   -4.0360   -3.7235    0.0000 C   0  0  0  0  0  0  0  0  0  0  0  0
    0.9140   -2.2945    0.0000 C   0  0  0  0  0  0  0  0  0  0  0  0
    2.1434   -2.0625    0.0000 C   0  0  0  0  0  0  0  0  0  0  0  0
    2.8579   -3.3000    0.0000 C   0  0  0  0  0  0  0  0  0  0  0  0
   -2.7985   -3.0090    0.0000 C   0  0  0  0  0  0  0  0  0  0  0  0
    0.7144   -0.4125    0.0000 C   0  0  0  0  0  0  0  0  0  0  0  0
    3.5724   -2.8875    0.0000 C   0  0  3  0  0  0  0  0  0  0  0  0
    0.7144    0.4125    0.0000 C   0  0  0  0  0  0  0  0  0  0  0  0
    1.6284   -5.5649    0.0000 C   0  0  0  0  0  0  0  0  0  0  0  0
    0.0000    0.8250    0.0000 C   0  0  0  0  0  0  0  0  0  0  0  0
    5.0013   -0.4125    0.0000 C   0  0  3  0  0  0  0  0  0  0  0  0
    5.0013    0.4125    0.0000 C   0  0  3  0  0  0  0  0  0  0  0  0
   -0.7144    0.4125    0.0000 C   0  0  0  0  0  0  0  0  0  0  0  0
    4.2868   -3.3000    0.0000 C   0  0  0  0  0  0  0  0  0  0  0  0
   -0.7144   -0.4125    0.0000 C   0  0  0  0  0  0  0  0  0  0  0  0
    4.2868   -1.6500    0.0000 C   0  0  0  0  0  0  0  0  0  0  0  0
    1.4290    0.8250    0.0000 C   0  0  0  0  0  0  0  0  0  0  0  0
    5.7859   -0.6674    0.0000 C   0  0  0  0  0  0  0  0  0  0  0  0
    5.7859    0.6674    0.0000 C   0  0  0  0  0  0  0  0  0  0  0  0
    4.2868    0.8250    0.0000 C   0  0  0  0  0  0  0  0  0  0  0  0
   -1.4290    0.8250    0.0000 C   0  0  0  0  0  0  0  0  0  0  0  0
   -1.4290   -0.8250    0.0000 C   0  0  0  0  0  0  0  0  0  0  0  0
    5.0405   -2.9645    0.0000 C   0  0  0  0  0  0  0  0  0  0  0  0
    4.3731   -4.1205    0.0000 C   0  0  0  0  0  0  0  0  0  0  0  0
    6.2708    0.0000    0.0000 C   0  0  0  0  0  0  0  0  0  0  0  0
    2.1434    0.4125    0.0000 C   0  0  0  0  0  0  0  0  0  0  0  0
   -2.1434    0.4125    0.0000 C   0  0  0  0  0  0  0  0  0  0  0  0
   -2.1434   -0.4125    0.0000 C   0  0  0  0  0  0  0  0  0  0  0  0
    5.5926   -3.5776    0.0000 C   0  0  0  0  0  0  0  0  0  0  0  0
    5.1801   -4.2920    0.0000 C   0  0  0  0  0  0  0  0  0  0  0  0
    3.5724    0.4125    0.0000 C   0  0  0  0  0  0  0  0  0  0  0  0
    2.8579    0.8250    0.0000 C   0  0  0  0  0  0  0  0  0  0  0  0
   -0.7144    2.0625    0.0000 C   0  0  0  0  0  0  0  0  0  0  0  0
   -0.7144    2.8875    0.0000 C   0  0  0  0  0  0  0  0  0  0  0  0
   -1.4290    3.3000    0.0000 C   0  0  0  0  0  0  0  0  0  0  0  0
   -2.0964    4.6099    0.0000 C   0  0  0  0  0  0  0  0  0  0  0  0
   -0.7615    4.6099    0.0000 C   0  0  0  0  0  0  0  0  0  0  0  0
   -1.8415    5.3946    0.0000 C   0  0  0  0  0  0  0  0  0  0  0  0
   -1.0165    5.3946    0.0000 C   0  0  0  0  0  0  0  0  0  0  0  0
    0.6504   -1.3772    0.0000 H   0  0  0  0  0  0  0  0  0  0  0  0
    5.0875   -1.2330    0.0000 H   0  0  0  0  0  0  0  0  0  0  0  0
    5.0875    1.2330    0.0000 H   0  0  0  0  0  0  0  0  0  0  0  0
  1  3  2  0  0  0  0
  1  4  2  0  0  0  0
  1 12  1  0  0  0  0
  1 21  1  0  0  0  0
  2 20  2  0  0  0  0
  5 25  1  0  0  0  0
  5 32  1  0  0  0  0
  6 22  2  0  0  0  0
  7 30  2  0  0  0  0
  8 37  1  0  0  0  0
  8 42  1  0  0  0  0
  9 36  1  0  0  0  0
  9 59  1  0  0  0  0
 10 42  2  0  0  0  0
 17 11  1  1  0  0  0
 11 22  1  0  0  0  0
 12 20  1  0  0  0  0
 13 23  1  0  0  0  0
 13 29  1  0  0  0  0
 13 30  1  0  0  0  0
 14 32  2  0  0  0  0
 14 41  1  0  0  0  0
 15 33  1  0  0  0  0
 15 42  1  0  0  0  0
 16 61  1  0  0  0  0
 16 62  1  0  0  0  0
 16 63  1  0  0  0  0
 17 18  1  0  0  0  0
 17 19  1  0  0  0  0
 17 20  1  6  0  0  0
 18 19  1  0  0  0  0
 18 24  1  6  0  0  0
 21 26  1  0  0  0  0
 21 27  1  0  0  0  0
 21 31  1  0  0  0  0
 23 22  1  6  0  0  0
 23 28  1  0  0  0  0
 24 35  2  0  0  0  0
 25 28  1  0  0  0  0
 25 29  1  0  0  0  0
 25 66  1  6  0  0  0
 26 27  1  0  0  0  0
 33 30  1  1  0  0  0
 32 34  1  0  0  0  0
 33 40  1  0  0  0  0
 34 36  2  0  0  0  0
 34 43  1  0  0  0  0
 36 39  1  0  0  0  0
 37 38  1  0  0  0  0
 37 44  1  0  0  0  0
 37 67  1  6  0  0  0
 38 45  1  0  0  0  0
 38 46  1  0  0  0  0
 38 68  1  1  0  0  0
 39 41  1  0  0  0  0
 39 47  2  0  0  0  0
 40 49  1  0  0  0  0
 40 50  1  0  0  0  0
 41 48  2  0  0  0  0
 43 52  1  0  0  0  0
 44 51  1  0  0  0  0
 45 51  1  0  0  0  0
 46 57  1  0  0  0  0
 47 53  1  0  0  0  0
 48 54  1  0  0  0  0
 49 55  1  0  0  0  0
 50 56  1  0  0  0  0
 52 58  2  0  0  0  0
 53 54  2  0  0  0  0
 55 56  1  0  0  0  0
 57 58  1  0  0  0  0
 59 60  1  0  0  0  0
 60 61  1  0  0  0  0
 62 64  2  0  0  0  0
 63 65  2  0  0  0  0
 64 65  1  0  0  0  0
M  END
> <PUBCHEM_COMPOUND_ID_TYPE>
0

> <PUBCHEM_TOTAL_CHARGE>
0

> <PUBCHEM_SUBSTANCE_ID>
310929542

> <PUBCHEM_SUBSTANCE_VERSION>
1

> <PUBCHEM_EXT_DATASOURCE_NAME>
4488

> <PUBCHEM_EXT_DATASOURCE_REGID>
SCHEMBL16106723

> <PUBCHEM_SUBSTANCE_COMMENT>
InChI=1S/C49H62N6O9S/c1-3-34-30-49(34,46(58)53-65(60,61)48(2)23-24-48)52-43(56)39-29-35-31-55(39)45(57)41(33-16-7-8-17-33)51-47(59)64-40-22-13-18-32(40)15-5-4-6-20-37-42(62-28-14-27-54-25-11-12-26-54)36-19-9-10-21-38(36)50-44(37)63-35/h3-4,6,9-12,19,21,25-26,32-35,39-41H,1,5,7-8,13-18,20,22-24,27-31H2,2H3,(H,51,59)(H,52,56)(H,53,58)/b6-4+/t32-,34-,35-,39+,40-,41+,49-/m1/s1
InChIKey=NXKFIPQPDFLZBE-VKEVPWOPSA-N

> <PUBCHEM_SUBSTANCE_SYNONYM>
SCHEMBL16106723

> <PUBCHEM_XREF_EXT_ID>
SCHEMBL16106723

> <PUBCHEM_EXT_DATASOURCE_URL>
https://www.surechembl.org/

> <PUBCHEM_EXT_SUBSTANCE_URL>
https://www.surechembl.org/chemical/SCHEMBL16106723

> <PUBCHEM_CID_ASSOCIATIONS>
117598861  1

> <PUBCHEM_COORDINATE_TYPE>
1
3

> <PUBCHEM_BONDANNOTATIONS>
17  11  5
17  20  6
18  24  6
23  22  6
25  66  6
33  30  5
37  67  6
38  68  5

$$$$
