310940937
  -OEChem-07211613022D

 44 47  0     1  0  0  0  0  0999 V2000
    5.0838    0.6610    0.0000 O   0  0  0  0  0  0  0  0  0  0  0  0
    3.9588   -1.2939    0.0000 O   0  0  0  0  0  0  0  0  0  0  0  0
    1.8071    0.7735    0.0000 O   0  0  0  0  0  0  0  0  0  0  0  0
   -0.3586   -1.2939    0.0000 O   0  0  0  0  0  0  0  0  0  0  0  0
    3.9588   -2.9533    0.0000 O   0  0  0  0  0  0  0  0  0  0  0  0
   -2.5103    0.7735    0.0000 O   0  0  0  0  0  0  0  0  0  0  0  0
   -5.3792    0.7735    0.0000 O   0  0  0  0  0  0  0  0  0  0  0  0
    2.5244   -0.4641    0.0000 N   0  0  0  0  0  0  0  0  0  0  0  0
    0.3727   -0.0563    0.0000 N   0  0  0  0  0  0  0  0  0  0  0  0
   -1.7790   -0.4641    0.0000 N   0  0  0  0  0  0  0  0  0  0  0  0
   -3.9448   -0.0563    0.0000 N   0  0  0  0  0  0  0  0  0  0  0  0
   -0.3446    2.5174    0.0000 N   0  0  0  0  0  0  0  0  0  0  0  0
    4.6620    0.0000    0.0000 C   0  0  3  0  0  0  0  0  0  0  0  0
    3.9588   -0.4359    0.0000 C   0  0  0  0  0  0  0  0  0  0  0  0
    4.2822    0.6750    0.0000 C   0  0  0  0  0  0  0  0  0  0  0  0
    3.2416   -0.0281    0.0000 C   0  0  3  0  0  0  0  0  0  0  0  0
    5.3792   -0.4359    0.0000 C   0  0  0  0  0  0  0  0  0  0  0  0
    3.2416    1.2939    0.0000 C   0  0  0  0  0  0  0  0  0  0  0  0
    1.8071   -0.0422    0.0000 C   0  0  0  0  0  0  0  0  0  0  0  0
    2.5244    1.7298    0.0000 C   0  0  0  0  0  0  0  0  0  0  0  0
    1.1040   -0.4359    0.0000 C   0  0  3  0  0  0  0  0  0  0  0  0
    1.0759   -1.2798    0.0000 C   0  0  0  0  0  0  0  0  0  0  0  0
    1.8211    1.3079    0.0000 C   0  0  0  0  0  0  0  0  0  0  0  0
    2.5244    2.5315    0.0000 C   0  0  0  0  0  0  0  0  0  0  0  0
    1.8211   -1.6735    0.0000 C   0  0  0  0  0  0  0  0  0  0  0  0
   -0.3446   -0.4218    0.0000 C   0  0  0  0  0  0  0  0  0  0  0  0
    1.1040    2.5455    0.0000 C   0  0  0  0  0  0  0  0  0  0  0  0
    1.1040    1.7157    0.0000 C   0  0  0  0  0  0  0  0  0  0  0  0
    1.7930    2.9392    0.0000 C   0  0  0  0  0  0  0  0  0  0  0  0
   -1.0618   -0.0281    0.0000 C   0  0  3  0  0  0  0  0  0  0  0  0
    2.5244   -1.2939    0.0000 C   0  0  0  0  0  0  0  0  0  0  0  0
    1.8211   -2.5033    0.0000 C   0  0  0  0  0  0  0  0  0  0  0  0
    3.2275   -2.5033    0.0000 C   0  0  0  0  0  0  0  0  0  0  0  0
    3.2416   -1.6876    0.0000 C   0  0  0  0  0  0  0  0  0  0  0  0
    2.5244   -2.9111    0.0000 C   0  0  0  0  0  0  0  0  0  0  0  0
   -2.5103   -0.0422    0.0000 C   0  0  0  0  0  0  0  0  0  0  0  0
    0.3586    2.9533    0.0000 C   0  0  0  0  0  0  0  0  0  0  0  0
   -1.0618    0.8017    0.0000 C   0  0  0  0  0  0  0  0  0  0  0  0
   -3.2134   -0.4359    0.0000 C   0  0  0  0  0  0  0  0  0  0  0  0
   -3.9308    0.7876    0.0000 C   0  0  0  0  0  0  0  0  0  0  0  0
   -4.6479   -0.4359    0.0000 C   0  0  0  0  0  0  0  0  0  0  0  0
   -4.6620    1.2094    0.0000 C   0  0  0  0  0  0  0  0  0  0  0  0
   -5.3511   -0.0281    0.0000 C   0  0  0  0  0  0  0  0  0  0  0  0
    4.7042   -2.5033    0.0000 C   0  0  0  0  0  0  0  0  0  0  0  0
  1 13  1  0  0  0  0
  1 15  1  0  0  0  0
  2 14  2  0  0  0  0
  3 19  2  0  0  0  0
  4 26  2  0  0  0  0
  5 33  1  0  0  0  0
  5 44  1  0  0  0  0
  6 36  2  0  0  0  0
  7 42  1  0  0  0  0
  7 43  1  0  0  0  0
 16  8  1  1  0  0  0
  8 19  1  0  0  0  0
 21  9  1  6  0  0  0
  9 26  1  0  0  0  0
 10 30  1  0  0  0  0
 10 36  1  0  0  0  0
 11 39  1  0  0  0  0
 11 40  1  0  0  0  0
 11 41  1  0  0  0  0
 12 37  1  0  0  0  0
 13 14  1  1  0  0  0
 13 15  1  0  0  0  0
 13 17  1  6  0  0  0
 14 16  1  0  0  0  0
 16 18  1  0  0  0  0
 18 20  1  0  0  0  0
 19 21  1  0  0  0  0
 20 23  2  0  0  0  0
 20 24  1  0  0  0  0
 21 22  1  0  0  0  0
 22 25  1  0  0  0  0
 23 28  1  0  0  0  0
 24 29  2  0  0  0  0
 25 31  2  0  0  0  0
 25 32  1  0  0  0  0
 26 30  1  0  0  0  0
 27 28  2  0  0  0  0
 27 29  1  0  0  0  0
 27 37  1  0  0  0  0
 30 38  1  1  0  0  0
 31 34  1  0  0  0  0
 32 35  2  0  0  0  0
 33 34  2  0  0  0  0
 33 35  1  0  0  0  0
 36 39  1  0  0  0  0
 40 42  1  0  0  0  0
 41 43  1  0  0  0  0
M  END
> <PUBCHEM_COMPOUND_ID_TYPE>
0

> <PUBCHEM_TOTAL_CHARGE>
0

> <PUBCHEM_SUBSTANCE_ID>
310940937

> <PUBCHEM_SUBSTANCE_VERSION>
1

> <PUBCHEM_EXT_DATASOURCE_NAME>
4488

> <PUBCHEM_EXT_DATASOURCE_REGID>
SCHEMBL16118896

> <PUBCHEM_SUBSTANCE_COMMENT>
InChI=1S/C32H43N5O7/c1-21(34-28(38)19-37-12-14-43-15-13-37)30(40)36-27(17-23-8-10-25(42-3)11-9-23)31(41)35-26(29(39)32(2)20-44-32)16-22-4-6-24(18-33)7-5-22/h4-11,21,26-27H,12-20,33H2,1-3H3,(H,34,38)(H,35,41)(H,36,40)/t21-,26-,27-,32+/m0/s1
InChIKey=UQGUESMWIYCSKQ-OYJHBXMHSA-N

> <PUBCHEM_SUBSTANCE_SYNONYM>
SCHEMBL16118896

> <PUBCHEM_XREF_EXT_ID>
SCHEMBL16118896

> <PUBCHEM_EXT_DATASOURCE_URL>
https://www.surechembl.org/

> <PUBCHEM_EXT_SUBSTANCE_URL>
https://www.surechembl.org/chemical/SCHEMBL16118896

> <PUBCHEM_CID_ASSOCIATIONS>
117607845  1

> <PUBCHEM_COORDINATE_TYPE>
1
3

> <PUBCHEM_BONDANNOTATIONS>
13  14  5
13  17  6
30  38  5
16  8  5
21  9  6

$$$$
