310938703
  -OEChem-07211613022D

 17 18  0     0  0  0  0  0  0999 V2000
   -2.8163   -6.4215    0.0000 O   0  0  0  0  0  0  0  0  0  0  0  0
   -4.2452   -3.9465    0.0000 O   0  0  0  0  0  0  0  0  0  0  0  0
    1.4705   -3.9465    0.0000 O   0  0  0  0  0  0  0  0  0  0  0  0
    0.7561   -5.1840    0.0000 N   0  0  0  0  0  0  0  0  0  0  0  0
   -2.1018   -4.3590    0.0000 C   0  0  0  0  0  0  0  0  0  0  0  0
   -1.3874   -3.9465    0.0000 C   0  0  0  0  0  0  0  0  0  0  0  0
    0.0416   -3.9465    0.0000 C   0  0  0  0  0  0  0  0  0  0  0  0
   -0.6729   -4.3590    0.0000 C   0  0  0  0  0  0  0  0  0  0  0  0
   -2.8163   -3.9465    0.0000 C   0  0  0  0  0  0  0  0  0  0  0  0
   -2.1018   -5.1840    0.0000 C   0  0  0  0  0  0  0  0  0  0  0  0
   -2.8163   -5.5965    0.0000 C   0  0  0  0  0  0  0  0  0  0  0  0
   -3.5308   -4.3590    0.0000 C   0  0  0  0  0  0  0  0  0  0  0  0
   -1.3874   -3.1215    0.0000 C   0  0  0  0  0  0  0  0  0  0  0  0
   -3.5308   -5.1840    0.0000 C   0  0  0  0  0  0  0  0  0  0  0  0
    0.0416   -3.1215    0.0000 C   0  0  0  0  0  0  0  0  0  0  0  0
    0.7561   -4.3590    0.0000 C   0  0  0  0  0  0  0  0  0  0  0  0
   -0.6729   -2.7090    0.0000 C   0  0  0  0  0  0  0  0  0  0  0  0
  1 11  1  0  0  0  0
  2 12  1  0  0  0  0
  3 16  2  0  0  0  0
  4 16  1  0  0  0  0
  5  6  1  0  0  0  0
  5  9  2  0  0  0  0
  5 10  1  0  0  0  0
  6  8  1  0  0  0  0
  6 13  2  0  0  0  0
  7  8  2  0  0  0  0
  7 15  1  0  0  0  0
  7 16  1  0  0  0  0
  9 12  1  0  0  0  0
 10 11  2  0  0  0  0
 11 14  1  0  0  0  0
 12 14  2  0  0  0  0
 13 17  1  0  0  0  0
 15 17  2  0  0  0  0
M  END
> <PUBCHEM_COMPOUND_ID_TYPE>
0

> <PUBCHEM_TOTAL_CHARGE>
0

> <PUBCHEM_SUBSTANCE_ID>
310938703

> <PUBCHEM_SUBSTANCE_VERSION>
1

> <PUBCHEM_EXT_DATASOURCE_NAME>
4488

> <PUBCHEM_EXT_DATASOURCE_REGID>
SCHEMBL16116617

> <PUBCHEM_SUBSTANCE_COMMENT>
InChI=1S/C13H11NO3/c14-13(17)9-3-1-2-8(4-9)10-5-11(15)7-12(16)6-10/h1-7,15-16H,(H2,14,17)
InChIKey=KTCFCRLWFAOENY-UHFFFAOYSA-N

> <PUBCHEM_SUBSTANCE_SYNONYM>
SCHEMBL16116617

> <PUBCHEM_XREF_EXT_ID>
SCHEMBL16116617

> <PUBCHEM_EXT_DATASOURCE_URL>
https://www.surechembl.org/

> <PUBCHEM_EXT_SUBSTANCE_URL>
https://www.surechembl.org/chemical/SCHEMBL16116617

> <PUBCHEM_CID_ASSOCIATIONS>
102584046  1

> <PUBCHEM_COORDINATE_TYPE>
1
3

$$$$
