310941646
  -OEChem-07211613022D

 24 27  0     0  0  0  0  0  0999 V2000
   -2.9680   -1.7955    0.0000 Cl  0  0  0  0  0  0  0  0  0  0  0  0
    0.7109    1.7955    0.0000 S   0  0  0  0  0  0  0  0  0  0  0  0
   -1.5316   -0.9600    0.0000 O   0  0  0  0  0  0  0  0  0  0  0  0
   -0.0806   -0.9600    0.0000 O   0  0  0  0  0  0  0  0  0  0  0  0
    0.7109    0.4470    0.0000 N   0  0  0  0  0  0  0  0  0  0  0  0
    2.0300    1.1359    0.0000 N   0  0  0  0  0  0  0  0  0  0  0  0
   -0.7841    0.3005    0.0000 C   0  0  0  0  0  0  0  0  0  0  0  0
   -2.2645   -0.5203    0.0000 C   0  0  0  0  0  0  0  0  0  0  0  0
   -0.0953    0.7255    0.0000 C   0  0  0  0  0  0  0  0  0  0  0  0
   -2.2498    0.3005    0.0000 C   0  0  0  0  0  0  0  0  0  0  0  0
   -0.8428   -0.5203    0.0000 C   0  0  0  0  0  0  0  0  0  0  0  0
   -1.5170    0.7109    0.0000 C   0  0  0  0  0  0  0  0  0  0  0  0
   -2.9680   -0.9454    0.0000 C   0  0  0  0  0  0  0  0  0  0  0  0
    1.1799    1.1505    0.0000 C   0  0  0  0  0  0  0  0  0  0  0  0
   -0.0660    1.5463    0.0000 C   0  0  0  0  0  0  0  0  0  0  0  0
   -2.9534    0.7109    0.0000 C   0  0  0  0  0  0  0  0  0  0  0  0
   -3.6862   -0.5350    0.0000 C   0  0  0  0  0  0  0  0  0  0  0  0
   -3.6862    0.3005    0.0000 C   0  0  0  0  0  0  0  0  0  0  0  0
    2.4404    0.4177    0.0000 C   0  0  0  0  0  0  0  0  0  0  0  0
    2.0446   -0.3298    0.0000 C   0  0  0  0  0  0  0  0  0  0  0  0
    3.2758    0.4030    0.0000 C   0  0  0  0  0  0  0  0  0  0  0  0
    2.4550   -1.0186    0.0000 C   0  0  0  0  0  0  0  0  0  0  0  0
    3.6862   -0.3151    0.0000 C   0  0  0  0  0  0  0  0  0  0  0  0
    3.2758   -1.0186    0.0000 C   0  0  0  0  0  0  0  0  0  0  0  0
  1 13  1  0  0  0  0
  2 14  1  0  0  0  0
  2 15  1  0  0  0  0
  3  8  1  0  0  0  0
  3 11  1  0  0  0  0
  4 11  2  0  0  0  0
  5  9  1  0  0  0  0
  5 14  2  0  0  0  0
  6 14  1  0  0  0  0
  6 19  1  0  0  0  0
  7  9  1  0  0  0  0
  7 11  1  0  0  0  0
  7 12  2  0  0  0  0
  8 10  1  0  0  0  0
  8 13  2  0  0  0  0
  9 15  2  0  0  0  0
 10 12  1  0  0  0  0
 10 16  2  0  0  0  0
 13 17  1  0  0  0  0
 16 18  1  0  0  0  0
 17 18  2  0  0  0  0
 19 20  1  0  0  0  0
 19 21  1  0  0  0  0
 20 22  1  0  0  0  0
 21 23  1  0  0  0  0
 22 24  1  0  0  0  0
 23 24  1  0  0  0  0
M  END
> <PUBCHEM_COMPOUND_ID_TYPE>
0

> <PUBCHEM_TOTAL_CHARGE>
0

> <PUBCHEM_SUBSTANCE_ID>
310941646

> <PUBCHEM_SUBSTANCE_VERSION>
1

> <PUBCHEM_EXT_DATASOURCE_NAME>
4488

> <PUBCHEM_EXT_DATASOURCE_REGID>
SCHEMBL16119677

> <PUBCHEM_SUBSTANCE_COMMENT>
InChI=1S/C18H17ClN2O2S/c19-14-8-4-5-11-9-13(17(22)23-16(11)14)15-10-24-18(21-15)20-12-6-2-1-3-7-12/h4-5,8-10,12H,1-3,6-7H2,(H,20,21)
InChIKey=MWTXEAINDQXSIS-UHFFFAOYSA-N

> <PUBCHEM_SUBSTANCE_SYNONYM>
SCHEMBL16119677

> <PUBCHEM_XREF_EXT_ID>
SCHEMBL16119677

> <PUBCHEM_EXT_DATASOURCE_URL>
https://www.surechembl.org/

> <PUBCHEM_EXT_SUBSTANCE_URL>
https://www.surechembl.org/chemical/SCHEMBL16119677

> <PUBCHEM_CID_ASSOCIATIONS>
78425819  1

> <PUBCHEM_COORDINATE_TYPE>
1
3

$$$$
