310949695
  -OEChem-07211613022D

 23 25  0     0  0  0  0  0  0999 V2000
   -1.3668    0.9594    0.0000 O   0  0  0  0  0  0  0  0  0  0  0  0
   -1.3668   -2.3526    0.0000 O   0  0  0  0  0  0  0  0  0  0  0  0
   -0.6572   -0.2760    0.0000 N   0  0  0  0  0  0  0  0  0  0  0  0
    2.3000    2.1948    0.0000 N   0  0  0  0  0  0  0  0  0  0  0  0
    2.9834    1.0383    0.0000 N   0  0  0  0  0  0  0  0  0  0  0  0
   -2.1029   -0.2892    0.0000 C   0  0  0  0  0  0  0  0  0  0  0  0
   -2.1029   -1.1040    0.0000 C   0  0  0  0  0  0  0  0  0  0  0  0
   -1.3800    0.1183    0.0000 C   0  0  0  0  0  0  0  0  0  0  0  0
    1.4983    0.9594    0.0000 C   0  0  0  0  0  0  0  0  0  0  0  0
    0.0525    0.1446    0.0000 C   0  0  0  0  0  0  0  0  0  0  0  0
    2.2211    1.3800    0.0000 C   0  0  0  0  0  0  0  0  0  0  0  0
   -2.8257    0.1183    0.0000 C   0  0  0  0  0  0  0  0  0  0  0  0
   -1.3668   -1.4983    0.0000 C   0  0  0  0  0  0  0  0  0  0  0  0
    0.7754    1.3537    0.0000 C   0  0  0  0  0  0  0  0  0  0  0  0
    1.4983    0.1314    0.0000 C   0  0  0  0  0  0  0  0  0  0  0  0
    0.0657    0.9594    0.0000 C   0  0  0  0  0  0  0  0  0  0  0  0
    0.7623   -0.2760    0.0000 C   0  0  0  0  0  0  0  0  0  0  0  0
   -2.8125   -1.5114    0.0000 C   0  0  0  0  0  0  0  0  0  0  0  0
   -3.5354   -0.3023    0.0000 C   0  0  0  0  0  0  0  0  0  0  0  0
   -3.5354   -1.1040    0.0000 C   0  0  0  0  0  0  0  0  0  0  0  0
    3.1280    2.3526    0.0000 C   0  0  0  0  0  0  0  0  0  0  0  0
    3.5354    1.6560    0.0000 C   0  0  0  0  0  0  0  0  0  0  0  0
   -0.8674   -1.2354    0.0000 C   0  0  0  0  0  0  0  0  0  0  0  0
  1  8  2  0  0  0  0
  2 13  2  0  0  0  0
  3  8  1  0  0  0  0
  3 10  1  0  0  0  0
  4 11  2  0  0  0  0
  4 21  1  0  0  0  0
  5 11  1  0  0  0  0
  5 22  1  0  0  0  0
  6  7  1  0  0  0  0
  6  8  1  0  0  0  0
  6 12  2  0  0  0  0
  7 13  1  0  0  0  0
  7 18  2  0  0  0  0
  9 11  1  0  0  0  0
  9 14  2  0  0  0  0
  9 15  1  0  0  0  0
 10 16  2  0  0  0  0
 10 17  1  0  0  0  0
 12 19  1  0  0  0  0
 13 23  1  0  0  0  0
 14 16  1  0  0  0  0
 15 17  2  0  0  0  0
 18 20  1  0  0  0  0
 19 20  2  0  0  0  0
 21 22  2  0  0  0  0
M  END
> <PUBCHEM_COMPOUND_ID_TYPE>
0

> <PUBCHEM_TOTAL_CHARGE>
0

> <PUBCHEM_SUBSTANCE_ID>
310949695

> <PUBCHEM_SUBSTANCE_VERSION>
1

> <PUBCHEM_EXT_DATASOURCE_NAME>
4488

> <PUBCHEM_EXT_DATASOURCE_REGID>
SCHEMBL16127893

> <PUBCHEM_SUBSTANCE_COMMENT>
InChI=1S/C18H15N3O2/c1-12(22)15-4-2-3-5-16(15)18(23)21-14-8-6-13(7-9-14)17-19-10-11-20-17/h2-11H,1H3,(H,19,20)(H,21,23)
InChIKey=WYTPJXKRFBOSCE-UHFFFAOYSA-N

> <PUBCHEM_SUBSTANCE_SYNONYM>
SCHEMBL16127893

> <PUBCHEM_XREF_EXT_ID>
SCHEMBL16127893

> <PUBCHEM_EXT_DATASOURCE_URL>
https://www.surechembl.org/

> <PUBCHEM_EXT_SUBSTANCE_URL>
https://www.surechembl.org/chemical/SCHEMBL16127893

> <PUBCHEM_CID_ASSOCIATIONS>
117615054  1

> <PUBCHEM_COORDINATE_TYPE>
1
3

$$$$
