310944180
  -OEChem-07211613022D

 36 41  0     1  0  0  0  0  0999 V2000
    2.7054    0.8638    0.0000 O   0  0  0  0  0  0  0  0  0  0  0  0
    5.7259    0.5596    0.0000 O   0  0  0  0  0  0  0  0  0  0  0  0
    5.6607    2.0155    0.0000 O   0  0  0  0  0  0  0  0  0  0  0  0
   -1.4885   -2.0155    0.0000 O   0  0  0  0  0  0  0  0  0  0  0  0
    3.7702   -0.1792    0.0000 N   0  0  0  0  0  0  0  0  0  0  0  0
   -0.1738   -0.7768    0.0000 N   0  0  0  0  0  0  0  0  0  0  0  0
    1.7167    1.1571    0.0000 N   0  0  0  0  0  0  0  0  0  0  0  0
   -3.4007   -0.3423    0.0000 N   0  0  0  0  0  0  0  0  0  0  0  0
   -4.5416   -0.7660    0.0000 N   0  0  0  0  0  0  0  0  0  0  0  0
   -4.7372   -0.0597    0.0000 N   0  0  0  0  0  0  0  0  0  0  0  0
   -5.4652   -0.0271    0.0000 N   0  0  0  0  0  0  0  0  0  0  0  0
   -5.7259   -0.7117    0.0000 N   0  0  0  0  0  0  0  0  0  0  0  0
    2.4881   -0.5705    0.0000 C   0  0  0  0  0  0  0  0  0  0  0  0
    2.9988    0.0815    0.0000 C   0  0  0  0  0  0  0  0  0  0  0  0
    1.2495   -0.3531    0.0000 C   0  0  0  0  0  0  0  0  0  0  0  0
    1.5211   -1.5265    0.0000 C   0  0  0  0  0  0  0  0  0  0  0  0
    0.6627    0.3096    0.0000 C   0  0  3  0  0  0  0  0  0  0  0  0
    0.8149   -0.6900    0.0000 C   0  0  3  0  0  0  0  0  0  0  0  0
    2.9879   -1.2332    0.0000 C   0  0  0  0  0  0  0  0  0  0  0  0
    4.4221    0.3096    0.0000 C   0  0  0  0  0  0  0  0  0  0  0  0
    3.7485   -0.9942    0.0000 C   0  0  0  0  0  0  0  0  0  0  0  0
    0.8366    1.2549    0.0000 C   0  0  0  0  0  0  0  0  0  0  0  0
    1.1083    0.5922    0.0000 C   0  0  0  0  0  0  0  0  0  0  0  0
    4.5307    1.1245    0.0000 C   0  0  0  0  0  0  0  0  0  0  0  0
   -1.2386   -0.6139    0.0000 C   0  0  0  0  0  0  0  0  0  0  0  0
    5.1718   -0.0380    0.0000 C   0  0  0  0  0  0  0  0  0  0  0  0
    5.3131    1.2549    0.0000 C   0  0  0  0  0  0  0  0  0  0  0  0
   -1.7710   -1.2441    0.0000 C   0  0  3  0  0  0  0  0  0  0  0  0
   -2.4664   -1.1137    0.0000 C   0  0  0  0  0  0  0  0  0  0  0  0
    3.9223    1.6896    0.0000 C   0  0  0  0  0  0  0  0  0  0  0  0
    1.8688    1.9937    0.0000 C   0  0  0  0  0  0  0  0  0  0  0  0
   -2.7054   -0.4509    0.0000 C   0  0  0  0  0  0  0  0  0  0  0  0
   -2.9118   -1.6678    0.0000 C   0  0  0  0  0  0  0  0  0  0  0  0
   -3.8571   -0.8855    0.0000 C   0  0  0  0  0  0  0  0  0  0  0  0
   -3.6072   -1.5482    0.0000 C   0  0  0  0  0  0  0  0  0  0  0  0
   -5.1392   -1.1571    0.0000 C   0  0  0  0  0  0  0  0  0  0  0  0
  1 14  2  0  0  0  0
  2 26  1  0  0  0  0
  2 27  1  0  0  0  0
  3 27  2  0  0  0  0
 28  4  1  6  0  0  0
  5 14  1  0  0  0  0
  5 20  1  0  0  0  0
  5 21  1  0  0  0  0
  6 17  1  0  0  0  0
  6 18  1  0  0  0  0
  6 25  1  0  0  0  0
  7 22  1  0  0  0  0
  7 23  1  0  0  0  0
  7 31  1  0  0  0  0
  8 32  1  0  0  0  0
  8 34  2  0  0  0  0
  9 10  1  0  0  0  0
  9 34  1  0  0  0  0
  9 36  1  0  0  0  0
 10 11  2  0  0  0  0
 11 12  1  0  0  0  0
 12 36  2  0  0  0  0
 13 14  1  0  0  0  0
 13 15  1  0  0  0  0
 13 16  1  0  0  0  0
 13 19  1  0  0  0  0
 15 17  1  0  0  0  0
 16 18  1  0  0  0  0
 17 22  1  0  0  0  0
 18 23  1  0  0  0  0
 19 21  1  0  0  0  0
 20 24  2  0  0  0  0
 20 26  1  0  0  0  0
 24 27  1  0  0  0  0
 24 30  1  0  0  0  0
 25 28  1  0  0  0  0
 28 29  1  0  0  0  0
 29 32  2  0  0  0  0
 29 33  1  0  0  0  0
 33 35  2  0  0  0  0
 34 35  1  0  0  0  0
M  END
> <PUBCHEM_COMPOUND_ID_TYPE>
0

> <PUBCHEM_TOTAL_CHARGE>
0

> <PUBCHEM_SUBSTANCE_ID>
310944180

> <PUBCHEM_SUBSTANCE_VERSION>
1

> <PUBCHEM_EXT_DATASOURCE_NAME>
4488

> <PUBCHEM_EXT_DATASOURCE_REGID>
SCHEMBL16122255

> <PUBCHEM_SUBSTANCE_COMMENT>
InChI=1S/C24H30N8O4/c1-15-19(13-36-22(15)34)30-6-5-24(23(30)35)7-17-10-29(2)11-18(8-24)31(17)12-20(33)16-3-4-21(25-9-16)32-14-26-27-28-32/h3-4,9,14,17-18,20,33H,5-8,10-13H2,1-2H3/t17?,18?,20-,24?/m0/s1
InChIKey=KWBWGKKZHJOTJW-JAZMGGTGSA-N

> <PUBCHEM_SUBSTANCE_SYNONYM>
SCHEMBL16122255

> <PUBCHEM_XREF_EXT_ID>
SCHEMBL16122255

> <PUBCHEM_EXT_DATASOURCE_URL>
https://www.surechembl.org/

> <PUBCHEM_EXT_SUBSTANCE_URL>
https://www.surechembl.org/chemical/SCHEMBL16122255

> <PUBCHEM_CID_ASSOCIATIONS>
117610454  1

> <PUBCHEM_COORDINATE_TYPE>
1
3

> <PUBCHEM_BONDANNOTATIONS>
28  4  6

$$$$
