310939747
  -OEChem-07211613022D

 20 21  0     0  0  0  0  0  0999 V2000
    2.2338   -4.0477    0.0000 Cl  0  0  0  0  0  0  0  0  0  0  0  0
    4.3772   -6.1102    0.0000 Cl  0  0  0  0  0  0  0  0  0  0  0  0
    4.3772   -2.8102    0.0000 Cl  0  0  0  0  0  0  0  0  0  0  0  0
    0.8048   -6.5227    0.0000 O   0  0  0  0  0  0  0  0  0  0  0  0
    2.9483   -5.2852    0.0000 C   0  0  0  0  0  0  0  0  0  0  0  0
    2.2338   -6.5227    0.0000 C   0  0  0  0  0  0  0  0  0  0  0  0
    3.6627   -4.8727    0.0000 C   0  0  0  0  0  0  0  0  0  0  0  0
    2.2338   -4.8727    0.0000 C   0  0  0  0  0  0  0  0  0  0  0  0
    2.9483   -6.1102    0.0000 C   0  0  0  0  0  0  0  0  0  0  0  0
    1.5193   -6.1102    0.0000 C   0  0  0  0  0  0  0  0  0  0  0  0
    2.2338   -7.3477    0.0000 C   0  0  0  0  0  0  0  0  0  0  0  0
    4.3772   -5.2852    0.0000 C   0  0  0  0  0  0  0  0  0  0  0  0
    1.5193   -5.2852    0.0000 C   0  0  0  0  0  0  0  0  0  0  0  0
    3.6627   -4.0477    0.0000 C   0  0  0  0  0  0  0  0  0  0  0  0
    4.3772   -3.6352    0.0000 C   0  0  0  0  0  0  0  0  0  0  0  0
    5.0917   -4.8727    0.0000 C   0  0  0  0  0  0  0  0  0  0  0  0
    5.0917   -4.0477    0.0000 C   0  0  0  0  0  0  0  0  0  0  0  0
    3.0588   -7.3477    0.0000 C   0  0  0  0  0  0  0  0  0  0  0  0
    1.4088   -7.3477    0.0000 C   0  0  0  0  0  0  0  0  0  0  0  0
    2.2338   -8.1727    0.0000 C   0  0  0  0  0  0  0  0  0  0  0  0
  1  8  1  0  0  0  0
  2 12  1  0  0  0  0
  3 15  1  0  0  0  0
  4 10  1  0  0  0  0
  5  7  1  0  0  0  0
  5  8  2  0  0  0  0
  5  9  1  0  0  0  0
  6  9  2  0  0  0  0
  6 10  1  0  0  0  0
  6 11  1  0  0  0  0
  7 12  2  0  0  0  0
  7 14  1  0  0  0  0
  8 13  1  0  0  0  0
 10 13  2  0  0  0  0
 11 18  1  0  0  0  0
 11 19  1  0  0  0  0
 11 20  1  0  0  0  0
 12 16  1  0  0  0  0
 14 15  2  0  0  0  0
 15 17  1  0  0  0  0
 16 17  2  0  0  0  0
M  END
> <PUBCHEM_COMPOUND_ID_TYPE>
0

> <PUBCHEM_TOTAL_CHARGE>
0

> <PUBCHEM_SUBSTANCE_ID>
310939747

> <PUBCHEM_SUBSTANCE_VERSION>
1

> <PUBCHEM_EXT_DATASOURCE_NAME>
4488

> <PUBCHEM_EXT_DATASOURCE_REGID>
SCHEMBL16117677

> <PUBCHEM_SUBSTANCE_COMMENT>
InChI=1S/C16H15Cl3O/c1-16(2,3)12-7-11(14(19)8-15(12)20)10-6-9(17)4-5-13(10)18/h4-8,20H,1-3H3
InChIKey=LXCBZVDSBXFHQZ-UHFFFAOYSA-N

> <PUBCHEM_SUBSTANCE_SYNONYM>
SCHEMBL16117677

> <PUBCHEM_XREF_EXT_ID>
SCHEMBL16117677

> <PUBCHEM_EXT_DATASOURCE_URL>
https://www.surechembl.org/

> <PUBCHEM_EXT_SUBSTANCE_URL>
https://www.surechembl.org/chemical/SCHEMBL16117677

> <PUBCHEM_CID_ASSOCIATIONS>
117606970  1

> <PUBCHEM_COORDINATE_TYPE>
1
3

> <PUBCHEM_BONDANNOTATIONS>
11  18  3
11  19  3

$$$$
