310934342
  -OEChem-07211613022D

 40 44  0     0  0  0  0  0  0999 V2000
    3.7511    2.6420    0.0000 S   0  0  0  0  0  0  0  0  0  0  0  0
   -0.7870    5.1010    0.0000 N   0  0  0  0  0  0  0  0  0  0  0  0
   -0.2037    4.5176    0.0000 C   0  0  0  0  0  0  0  0  0  0  0  0
   -0.5736    5.8979    0.0000 C   0  0  0  0  0  0  0  0  0  0  0  0
   -1.5839    4.8875    0.0000 C   0  0  0  0  0  0  0  0  0  0  0  0
    2.8579    1.6500    0.0000 C   0  0  0  0  0  0  0  0  0  0  0  0
    2.9441    2.4705    0.0000 C   0  0  0  0  0  0  0  0  0  0  0  0
    2.1434    1.2375    0.0000 C   0  0  0  0  0  0  0  0  0  0  0  0
    0.9631    3.3509    0.0000 C   0  0  0  0  0  0  0  0  0  0  0  0
   -0.4172    3.7207    0.0000 C   0  0  0  0  0  0  0  0  0  0  0  0
    0.5932    4.7312    0.0000 C   0  0  0  0  0  0  0  0  0  0  0  0
    3.6116    1.3145    0.0000 C   0  0  0  0  0  0  0  0  0  0  0  0
    2.3310    3.0225    0.0000 C   0  0  0  0  0  0  0  0  0  0  0  0
    0.1662    3.1374    0.0000 C   0  0  0  0  0  0  0  0  0  0  0  0
    1.1766    4.1478    0.0000 C   0  0  0  0  0  0  0  0  0  0  0  0
    0.2233    6.1114    0.0000 C   0  0  0  0  0  0  0  0  0  0  0  0
   -2.1673    5.4709    0.0000 C   0  0  0  0  0  0  0  0  0  0  0  0
   -1.1569    6.4813    0.0000 C   0  0  0  0  0  0  0  0  0  0  0  0
   -1.7974    4.0906    0.0000 C   0  0  0  0  0  0  0  0  0  0  0  0
    1.5464    2.7676    0.0000 C   0  0  0  0  0  0  0  0  0  0  0  0
    1.4290    1.6500    0.0000 C   0  0  0  0  0  0  0  0  0  0  0  0
    2.1434    0.4125    0.0000 C   0  0  0  0  0  0  0  0  0  0  0  0
    4.1636    1.9276    0.0000 C   0  0  0  0  0  0  0  0  0  0  0  0
    0.7144    0.4125    0.0000 C   0  0  0  0  0  0  0  0  0  0  0  0
    0.7144    1.2375    0.0000 C   0  0  0  0  0  0  0  0  0  0  0  0
    1.4290    0.0000    0.0000 C   0  0  0  0  0  0  0  0  0  0  0  0
    0.4369    6.9083    0.0000 C   0  0  0  0  0  0  0  0  0  0  0  0
   -2.9642    5.2573    0.0000 C   0  0  0  0  0  0  0  0  0  0  0  0
   -0.9434    7.2781    0.0000 C   0  0  0  0  0  0  0  0  0  0  0  0
   -2.5943    3.8771    0.0000 C   0  0  0  0  0  0  0  0  0  0  0  0
   -0.1465    7.4917    0.0000 C   0  0  0  0  0  0  0  0  0  0  0  0
   -3.1777    4.4604    0.0000 C   0  0  0  0  0  0  0  0  0  0  0  0
    0.0000    0.0000    0.0000 C   0  0  0  0  0  0  0  0  0  0  0  0
   -0.7144    0.4125    0.0000 C   0  0  0  0  0  0  0  0  0  0  0  0
   -1.4290    0.0000    0.0000 C   0  0  0  0  0  0  0  0  0  0  0  0
   -2.1434    0.4125    0.0000 C   0  0  0  0  0  0  0  0  0  0  0  0
   -2.8579    0.0000    0.0000 C   0  0  0  0  0  0  0  0  0  0  0  0
   -3.5724    0.4125    0.0000 C   0  0  0  0  0  0  0  0  0  0  0  0
   -4.2868    0.0000    0.0000 C   0  0  0  0  0  0  0  0  0  0  0  0
   -5.0013    0.4125    0.0000 C   0  0  0  0  0  0  0  0  0  0  0  0
  1  7  1  0  0  0  0
  1 23  1  0  0  0  0
  2  3  1  0  0  0  0
  2  4  1  0  0  0  0
  2  5  1  0  0  0  0
  3 10  2  0  0  0  0
  3 11  1  0  0  0  0
  4 16  2  0  0  0  0
  4 18  1  0  0  0  0
  5 17  2  0  0  0  0
  5 19  1  0  0  0  0
  6  7  2  0  0  0  0
  6  8  1  0  0  0  0
  6 12  1  0  0  0  0
  7 13  1  0  0  0  0
  8 21  2  0  0  0  0
  8 22  1  0  0  0  0
  9 14  2  0  0  0  0
  9 15  1  0  0  0  0
  9 20  1  0  0  0  0
 10 14  1  0  0  0  0
 11 15  2  0  0  0  0
 12 23  2  0  0  0  0
 13 20  2  3  0  0  0
 16 27  1  0  0  0  0
 17 28  1  0  0  0  0
 18 29  2  0  0  0  0
 19 30  2  0  0  0  0
 21 25  1  0  0  0  0
 22 26  2  0  0  0  0
 24 25  2  0  0  0  0
 24 26  1  0  0  0  0
 24 33  1  0  0  0  0
 27 31  2  0  0  0  0
 28 32  2  0  0  0  0
 29 31  1  0  0  0  0
 30 32  1  0  0  0  0
 33 34  1  0  0  0  0
 34 35  1  0  0  0  0
 35 36  1  0  0  0  0
 36 37  1  0  0  0  0
 37 38  1  0  0  0  0
 38 39  1  0  0  0  0
 39 40  1  0  0  0  0
M  END
> <PUBCHEM_COMPOUND_ID_TYPE>
0

> <PUBCHEM_TOTAL_CHARGE>
0

> <PUBCHEM_SUBSTANCE_ID>
310934342

> <PUBCHEM_SUBSTANCE_VERSION>
1

> <PUBCHEM_EXT_DATASOURCE_NAME>
4488

> <PUBCHEM_EXT_DATASOURCE_REGID>
SCHEMBL16111806

> <PUBCHEM_SUBSTANCE_COMMENT>
InChI=1S/C38H39NS/c1-2-3-4-5-6-9-14-31-19-24-33(25-20-31)37-29-30-40-38(37)28-23-32-21-26-36(27-22-32)39(34-15-10-7-11-16-34)35-17-12-8-13-18-35/h7-8,10-13,15-30H,2-6,9,14H2,1H3/b28-23+
InChIKey=QQEUCUVTXZGHCP-WEMUOSSPSA-N

> <PUBCHEM_SUBSTANCE_SYNONYM>
SCHEMBL16111806

> <PUBCHEM_XREF_EXT_ID>
SCHEMBL16111806

> <PUBCHEM_EXT_DATASOURCE_URL>
https://www.surechembl.org/

> <PUBCHEM_EXT_SUBSTANCE_URL>
https://www.surechembl.org/chemical/SCHEMBL16111806

> <PUBCHEM_CID_ASSOCIATIONS>
117602575  1

> <PUBCHEM_COORDINATE_TYPE>
1
3

> <PUBCHEM_BONDANNOTATIONS>
13  20  1

$$$$
