310949021
  -OEChem-07211613022D

 22 23  0     0  0  0  0  0  0999 V2000
   -0.3180   -1.4445    0.0000 F   0  0  0  0  0  0  0  0  0  0  0  0
   -1.7417   -2.2876    0.0000 F   0  0  0  0  0  0  0  0  0  0  0  0
   -3.1931   -1.4859    0.0000 F   0  0  0  0  0  0  0  0  0  0  0  0
    1.8246   -1.0021    0.0000 O   0  0  0  0  0  0  0  0  0  0  0  0
    3.1931   -0.1589    0.0000 O   0  0  0  0  0  0  0  0  0  0  0  0
    0.3732   -0.1866    0.0000 N   0  0  0  0  0  0  0  0  0  0  0  0
   -0.3732    1.0297    0.0000 N   0  0  0  0  0  0  0  0  0  0  0  0
    0.3318    2.2876    0.0000 N   0  0  0  0  0  0  0  0  0  0  0  0
   -0.3732    0.1728    0.0000 C   0  0  0  0  0  0  0  0  0  0  0  0
   -1.0920   -0.2281    0.0000 C   0  0  0  0  0  0  0  0  0  0  0  0
    1.0643    0.2143    0.0000 C   0  0  0  0  0  0  0  0  0  0  0  0
   -1.0782   -1.0713    0.0000 C   0  0  0  0  0  0  0  0  0  0  0  0
    1.0643    1.0297    0.0000 C   0  0  0  0  0  0  0  0  0  0  0  0
    0.3180    1.4307    0.0000 C   0  0  0  0  0  0  0  0  0  0  0  0
   -1.7831   -1.4859    0.0000 C   0  0  0  0  0  0  0  0  0  0  0  0
   -1.7831    0.1451    0.0000 C   0  0  0  0  0  0  0  0  0  0  0  0
   -2.5157   -1.0851    0.0000 C   0  0  0  0  0  0  0  0  0  0  0  0
    1.7970   -0.1866    0.0000 C   0  0  0  0  0  0  0  0  0  0  0  0
   -2.5157   -0.2695    0.0000 C   0  0  0  0  0  0  0  0  0  0  0  0
    1.7693    1.4583    0.0000 C   0  0  0  0  0  0  0  0  0  0  0  0
    2.5157    0.2419    0.0000 C   0  0  0  0  0  0  0  0  0  0  0  0
    2.1010    1.1818    0.0000 C   0  0  0  0  0  0  0  0  0  0  0  0
  1 12  1  0  0  0  0
  2 15  1  0  0  0  0
  3 17  1  0  0  0  0
  4 18  2  0  0  0  0
  5 21  1  0  0  0  0
  6  9  1  0  0  0  0
  6 11  2  0  0  0  0
  7  9  2  0  0  0  0
  7 14  1  0  0  0  0
  8 14  1  0  0  0  0
  9 10  1  0  0  0  0
 10 12  1  0  0  0  0
 10 16  2  0  0  0  0
 11 13  1  0  0  0  0
 11 18  1  0  0  0  0
 12 15  2  0  0  0  0
 13 14  2  0  0  0  0
 13 20  1  0  0  0  0
 15 17  1  0  0  0  0
 16 19  1  0  0  0  0
 17 19  2  0  0  0  0
 18 21  1  0  0  0  0
 20 22  2  0  0  0  0
M  END
> <PUBCHEM_COMPOUND_ID_TYPE>
0

> <PUBCHEM_TOTAL_CHARGE>
0

> <PUBCHEM_SUBSTANCE_ID>
310949021

> <PUBCHEM_SUBSTANCE_VERSION>
1

> <PUBCHEM_EXT_DATASOURCE_NAME>
4488

> <PUBCHEM_EXT_DATASOURCE_REGID>
SCHEMBL16127211

> <PUBCHEM_SUBSTANCE_COMMENT>
InChI=1S/C14H10F3N3O2/c1-2-6-12(9(22)5-21)19-14(20-13(6)18)7-3-4-8(15)11(17)10(7)16/h2-4,21H,1,5H2,(H2,18,19,20)
InChIKey=DFBIPQNBWYRIDC-UHFFFAOYSA-N

> <PUBCHEM_SUBSTANCE_SYNONYM>
SCHEMBL16127211

> <PUBCHEM_XREF_EXT_ID>
SCHEMBL16127211

> <PUBCHEM_EXT_DATASOURCE_URL>
https://www.surechembl.org/

> <PUBCHEM_EXT_SUBSTANCE_URL>
https://www.surechembl.org/chemical/SCHEMBL16127211

> <PUBCHEM_CID_ASSOCIATIONS>
117614526  1

> <PUBCHEM_COORDINATE_TYPE>
1
3

$$$$
