310947141
  -OEChem-07211613022D

 48 48  0     1  0  0  0  0  0999 V2000
   -7.5019   -1.0313    0.0000 O   0  0  0  0  0  0  0  0  0  0  0  0
   -6.0730    2.2687    0.0000 O   0  0  0  0  0  0  0  0  0  0  0  0
   -6.8980   -0.2062    0.0000 O   0  0  0  0  0  0  0  0  0  0  0  0
   -6.0730   -1.0313    0.0000 O   0  0  0  0  0  0  0  0  0  0  0  0
   -1.0717    1.0313    0.0000 O   0  0  0  0  0  0  0  0  0  0  0  0
   -5.3585    1.0313    0.0000 N   0  0  0  0  0  0  0  0  0  0  0  0
   -8.9309    1.4437    0.0000 N   0  0  0  0  0  0  0  0  0  0  0  0
   -1.7862   -0.2062    0.0000 N   0  0  0  0  0  0  0  0  0  0  0  0
   -6.7875    1.0313    0.0000 C   0  0  0  0  0  0  0  0  0  0  0  0
   -7.5019   -0.2062    0.0000 C   0  0  3  0  0  0  0  0  0  0  0  0
   -8.2164    0.2062    0.0000 C   0  0  3  0  0  0  0  0  0  0  0  0
   -8.2164    1.0313    0.0000 C   0  0  3  0  0  0  0  0  0  0  0  0
   -6.7875    0.2062    0.0000 C   0  0  0  0  0  0  0  0  0  0  0  0
   -7.5019    1.4437    0.0000 C   0  0  0  0  0  0  0  0  0  0  0  0
   -6.0730    1.4437    0.0000 C   0  0  0  0  0  0  0  0  0  0  0  0
   -5.3585    0.2062    0.0000 C   0  0  3  0  0  0  0  0  0  0  0  0
   -8.9309   -0.2062    0.0000 C   0  0  0  0  0  0  0  0  0  0  0  0
   -8.2164   -1.4437    0.0000 C   0  0  3  0  0  0  0  0  0  0  0  0
   -6.0730   -0.2062    0.0000 C   0  0  0  0  0  0  0  0  0  0  0  0
   -4.6441   -0.2062    0.0000 C   0  0  0  0  0  0  0  0  0  0  0  0
   -8.9309   -1.0313    0.0000 C   0  0  0  0  0  0  0  0  0  0  0  0
   -8.2164   -2.2687    0.0000 C   0  0  0  0  0  0  0  0  0  0  0  0
   -3.9296    0.2062    0.0000 C   0  0  0  0  0  0  0  0  0  0  0  0
   -9.6454   -1.4437    0.0000 C   0  0  0  0  0  0  0  0  0  0  0  0
   -3.2151   -0.2062    0.0000 C   0  0  0  0  0  0  0  0  0  0  0  0
   -2.5006    0.2062    0.0000 C   0  0  0  0  0  0  0  0  0  0  0  0
   -1.0717    0.2062    0.0000 C   0  0  0  0  0  0  0  0  0  0  0  0
   -0.3572   -0.2062    0.0000 C   0  0  0  0  0  0  0  0  0  0  0  0
    0.3572    0.2062    0.0000 C   0  0  0  0  0  0  0  0  0  0  0  0
    1.0717   -0.2062    0.0000 C   0  0  0  0  0  0  0  0  0  0  0  0
    1.7862    0.2062    0.0000 C   0  0  0  0  0  0  0  0  0  0  0  0
    1.7862    1.0313    0.0000 C   0  0  0  0  0  0  0  0  0  0  0  0
    2.5006    1.4437    0.0000 C   0  0  0  0  0  0  0  0  0  0  0  0
    3.2151    1.0313    0.0000 C   0  0  0  0  0  0  0  0  0  0  0  0
    3.2151    0.2062    0.0000 C   0  0  0  0  0  0  0  0  0  0  0  0
    3.9296   -0.2062    0.0000 C   0  0  0  0  0  0  0  0  0  0  0  0
    4.6441    0.2062    0.0000 C   0  0  0  0  0  0  0  0  0  0  0  0
    4.6441    1.0313    0.0000 C   0  0  0  0  0  0  0  0  0  0  0  0
    5.3585    1.4437    0.0000 C   0  0  0  0  0  0  0  0  0  0  0  0
    6.0730    1.0313    0.0000 C   0  0  0  0  0  0  0  0  0  0  0  0
    6.0730    0.2062    0.0000 C   0  0  0  0  0  0  0  0  0  0  0  0
    6.7875   -0.2062    0.0000 C   0  0  0  0  0  0  0  0  0  0  0  0
    7.5019    0.2062    0.0000 C   0  0  0  0  0  0  0  0  0  0  0  0
    7.5019    1.0313    0.0000 C   0  0  0  0  0  0  0  0  0  0  0  0
    8.2164    1.4437    0.0000 C   0  0  0  0  0  0  0  0  0  0  0  0
    8.9309    1.0313    0.0000 C   0  0  0  0  0  0  0  0  0  0  0  0
    8.9309    0.2062    0.0000 C   0  0  0  0  0  0  0  0  0  0  0  0
    9.6454   -0.2062    0.0000 C   0  0  0  0  0  0  0  0  0  0  0  0
 10  1  1  1  0  0  0
  1 18  1  0  0  0  0
  2 15  2  0  0  0  0
  3 19  2  0  0  0  0
  4 19  1  0  0  0  0
  5 27  2  0  0  0  0
  6 15  1  0  0  0  0
 16  6  1  1  0  0  0
 12  7  1  1  0  0  0
  8 26  1  0  0  0  0
  8 27  1  0  0  0  0
  9 13  2  0  0  0  0
  9 14  1  0  0  0  0
  9 15  1  0  0  0  0
 10 11  1  0  0  0  0
 10 13  1  0  0  0  0
 11 12  1  0  0  0  0
 11 17  1  6  0  0  0
 12 14  1  0  0  0  0
 16 19  1  0  0  0  0
 16 20  1  0  0  0  0
 18 21  1  0  0  0  0
 18 22  1  0  0  0  0
 20 23  1  0  0  0  0
 21 24  1  0  0  0  0
 23 25  1  0  0  0  0
 25 26  1  0  0  0  0
 27 28  1  0  0  0  0
 28 29  1  0  0  0  0
 29 30  1  0  0  0  0
 30 31  2  0  0  0  0
 31 32  1  0  0  0  0
 32 33  1  0  0  0  0
 33 34  2  0  0  0  0
 34 35  1  0  0  0  0
 35 36  1  0  0  0  0
 36 37  2  0  0  0  0
 37 38  1  0  0  0  0
 38 39  1  0  0  0  0
 39 40  2  0  0  0  0
 40 41  1  0  0  0  0
 41 42  1  0  0  0  0
 42 43  2  0  0  0  0
 43 44  1  0  0  0  0
 44 45  1  0  0  0  0
 45 46  2  0  0  0  0
 46 47  1  0  0  0  0
 47 48  1  0  0  0  0
M  END
> <PUBCHEM_COMPOUND_ID_TYPE>
0

> <PUBCHEM_TOTAL_CHARGE>
0

> <PUBCHEM_SUBSTANCE_ID>
310947141

> <PUBCHEM_SUBSTANCE_VERSION>
1

> <PUBCHEM_EXT_DATASOURCE_NAME>
4488

> <PUBCHEM_EXT_DATASOURCE_REGID>
SCHEMBL16125295

> <PUBCHEM_SUBSTANCE_COMMENT>
InChI=1S/C40H63N3O5/c1-5-7-8-9-10-11-12-13-14-15-16-17-18-19-20-21-22-23-24-28-38(44)42-29-26-25-27-36(40(46)47)43-39(45)34-30-35(41)33(4)37(31-34)48-32(3)6-2/h7-8,10-11,13-14,16-17,19-20,22-23,31-33,35-37H,5-6,9,12,15,18,21,24-30,41H2,1-4H3,(H,42,44)(H,43,45)(H,46,47)/b8-7-,11-10-,14-13-,17-16-,20-19-,23-22-/t32?,33-,35+,36+,37-/m1/s1
InChIKey=HJEDXDXZHHYYSZ-GPKSNXAGSA-N

> <PUBCHEM_SUBSTANCE_SYNONYM>
SCHEMBL16125295

> <PUBCHEM_XREF_EXT_ID>
SCHEMBL16125295

> <PUBCHEM_EXT_DATASOURCE_URL>
https://www.surechembl.org/

> <PUBCHEM_EXT_SUBSTANCE_URL>
https://www.surechembl.org/chemical/SCHEMBL16125295

> <PUBCHEM_CID_ASSOCIATIONS>
117612977  1

> <PUBCHEM_COORDINATE_TYPE>
1
3

> <PUBCHEM_BONDANNOTATIONS>
10  1  5
11  17  6
16  6  5
12  7  5

$$$$
