310946578
  -OEChem-07211613022D

 21 21  0     1  0  0  0  0  0999 V2000
   -9.5969    0.5698    0.0000 O   0  0  0  0  0  0  0  0  0  0  0  0
   -7.6448    1.6969    0.0000 O   0  0  0  0  0  0  0  0  0  0  0  0
  -10.8345    1.2844    0.0000 O   0  0  0  0  0  0  0  0  0  0  0  0
   -9.1844    4.0936    0.0000 O   0  0  0  0  0  0  0  0  0  0  0  0
   -8.7719    0.5698    0.0000 O   0  0  0  0  0  0  0  0  0  0  0  0
   -9.5969    1.9988    0.0000 N   0  0  0  0  0  0  0  0  0  0  0  0
   -8.7719    1.9988    0.0000 C   0  0  3  0  0  0  0  0  0  0  0  0
  -10.0094    1.2844    0.0000 C   0  0  0  0  0  0  0  0  0  0  0  0
   -9.8518    2.7835    0.0000 C   0  0  0  0  0  0  0  0  0  0  0  0
   -9.1844    3.2685    0.0000 C   0  0  3  0  0  0  0  0  0  0  0  0
   -8.5169    2.7835    0.0000 C   0  0  0  0  0  0  0  0  0  0  0  0
   -8.3593    1.2844    0.0000 C   0  0  0  0  0  0  0  0  0  0  0  0
  -10.0094   -0.1447    0.0000 C   0  0  0  0  0  0  0  0  0  0  0  0
   -6.9303    1.2844    0.0000 C   0  0  0  0  0  0  0  0  0  0  0  0
  -10.4220   -0.8593    0.0000 C   0  0  0  0  0  0  0  0  0  0  0  0
  -10.7240    0.2678    0.0000 C   0  0  0  0  0  0  0  0  0  0  0  0
   -9.2949   -0.5572    0.0000 C   0  0  0  0  0  0  0  0  0  0  0  0
   -6.2158    1.6969    0.0000 C   0  0  0  0  0  0  0  0  0  0  0  0
   -5.5012    1.2844    0.0000 C   0  0  0  0  0  0  0  0  0  0  0  0
   -4.7867    1.6969    0.0000 C   0  0  0  0  0  0  0  0  0  0  0  0
   -4.0722    1.2844    0.0000 C   0  0  0  0  0  0  0  0  0  0  0  0
  1  8  1  0  0  0  0
  1 13  1  0  0  0  0
  2 12  1  0  0  0  0
  2 14  1  0  0  0  0
  3  8  2  0  0  0  0
 10  4  1  6  0  0  0
  5 12  2  0  0  0  0
  6  7  1  0  0  0  0
  6  8  1  0  0  0  0
  6  9  1  0  0  0  0
  7 11  1  0  0  0  0
  7 12  1  1  0  0  0
  9 10  1  0  0  0  0
 10 11  1  0  0  0  0
 13 15  1  0  0  0  0
 13 16  1  0  0  0  0
 13 17  1  0  0  0  0
 14 18  1  0  0  0  0
 18 19  1  0  0  0  0
 19 20  1  0  0  0  0
 20 21  1  0  0  0  0
M  END
> <PUBCHEM_COMPOUND_ID_TYPE>
0

> <PUBCHEM_TOTAL_CHARGE>
0

> <PUBCHEM_SUBSTANCE_ID>
310946578

> <PUBCHEM_SUBSTANCE_VERSION>
1

> <PUBCHEM_EXT_DATASOURCE_NAME>
4488

> <PUBCHEM_EXT_DATASOURCE_REGID>
SCHEMBL16124699

> <PUBCHEM_SUBSTANCE_COMMENT>
InChI=1S/C15H27NO5/c1-5-6-7-8-20-13(18)12-9-11(17)10-16(12)14(19)21-15(2,3)4/h11-12,17H,5-10H2,1-4H3/t11-,12+/m1/s1
InChIKey=MRJVEEQSWBYBMN-NEPJUHHUSA-N

> <PUBCHEM_SUBSTANCE_SYNONYM>
SCHEMBL16124699

> <PUBCHEM_XREF_EXT_ID>
SCHEMBL16124699

> <PUBCHEM_EXT_DATASOURCE_URL>
https://www.surechembl.org/

> <PUBCHEM_EXT_SUBSTANCE_URL>
https://www.surechembl.org/chemical/SCHEMBL16124699

> <PUBCHEM_CID_ASSOCIATIONS>
117612478  1

> <PUBCHEM_COORDINATE_TYPE>
1
3

> <PUBCHEM_BONDANNOTATIONS>
10  4  6
7  12  5

$$$$
