310932890
  -OEChem-07211613022D

 17 18  0     0  0  0  0  0  0999 V2000
    0.0000   -1.6586    0.0000 F   0  0  0  0  0  0  0  0  0  0  0  0
    0.7132   -0.4312    0.0000 F   0  0  0  0  0  0  0  0  0  0  0  0
    0.0000   -0.8293    0.0000 F   0  0  0  0  0  0  0  0  0  0  0  0
    1.4264   -2.4713    0.0000 O   0  0  0  0  0  0  0  0  0  0  0  0
    2.1396   -1.2439    0.0000 N   0  0  0  0  0  0  0  0  0  0  0  0
    4.9758   -0.4147    0.0000 N   0  0  0  0  0  0  0  0  0  0  0  0
    2.8528   -1.6586    0.0000 C   0  0  0  0  0  0  0  0  0  0  0  0
    3.5494   -1.2605    0.0000 C   0  0  0  0  0  0  0  0  0  0  0  0
    0.7132   -1.2439    0.0000 C   0  0  0  0  0  0  0  0  0  0  0  0
    1.4264   -1.6586    0.0000 C   0  0  0  0  0  0  0  0  0  0  0  0
    4.2792   -1.6586    0.0000 C   0  0  0  0  0  0  0  0  0  0  0  0
    2.8693   -2.4713    0.0000 C   0  0  0  0  0  0  0  0  0  0  0  0
    3.5494   -0.4312    0.0000 C   0  0  0  0  0  0  0  0  0  0  0  0
    4.2958   -2.4547    0.0000 C   0  0  0  0  0  0  0  0  0  0  0  0
    4.9758   -1.2439    0.0000 C   0  0  0  0  0  0  0  0  0  0  0  0
    3.5826   -2.8859    0.0000 C   0  0  0  0  0  0  0  0  0  0  0  0
    4.2626    0.0000    0.0000 C   0  0  0  0  0  0  0  0  0  0  0  0
  1  9  1  0  0  0  0
  2  9  1  0  0  0  0
  3  9  1  0  0  0  0
  4 10  2  0  0  0  0
  5  7  1  0  0  0  0
  5 10  1  0  0  0  0
  6 15  2  0  0  0  0
  6 17  1  0  0  0  0
  7  8  1  0  0  0  0
  7 12  2  0  0  0  0
  8 11  2  0  0  0  0
  8 13  1  0  0  0  0
  9 10  1  0  0  0  0
 11 14  1  0  0  0  0
 11 15  1  0  0  0  0
 12 16  1  0  0  0  0
 13 17  1  0  0  0  0
 14 16  2  0  0  0  0
M  END
> <PUBCHEM_COMPOUND_ID_TYPE>
0

> <PUBCHEM_TOTAL_CHARGE>
0

> <PUBCHEM_SUBSTANCE_ID>
310932890

> <PUBCHEM_SUBSTANCE_VERSION>
1

> <PUBCHEM_EXT_DATASOURCE_NAME>
4488

> <PUBCHEM_EXT_DATASOURCE_REGID>
SCHEMBL16110283

> <PUBCHEM_SUBSTANCE_COMMENT>
InChI=1S/C11H9F3N2O/c12-11(13,14)10(17)16-9-3-1-2-7-6-15-5-4-8(7)9/h1-3,6H,4-5H2,(H,16,17)
InChIKey=AENRQGJEYQQUNK-UHFFFAOYSA-N

> <PUBCHEM_SUBSTANCE_SYNONYM>
SCHEMBL16110283

> <PUBCHEM_XREF_EXT_ID>
SCHEMBL16110283

> <PUBCHEM_EXT_DATASOURCE_URL>
https://www.surechembl.org/

> <PUBCHEM_EXT_SUBSTANCE_URL>
https://www.surechembl.org/chemical/SCHEMBL16110283

> <PUBCHEM_CID_ASSOCIATIONS>
117601372  1

> <PUBCHEM_COORDINATE_TYPE>
1
3

$$$$
