310936599
  -OEChem-07211613022D

 24 26  0     0  0  0  0  0  0999 V2000
    2.3166   -7.8528    0.0000 F   0  0  0  0  0  0  0  0  0  0  0  0
    4.0835   -4.7509    0.0000 O   0  0  0  0  0  0  0  0  0  0  0  0
    0.0000    0.0000    0.0000 O   0  0  0  0  0  0  0  0  0  0  0  0
    1.4920   -2.0025    0.0000 N   0  0  0  0  0  0  0  0  0  0  0  0
    3.4945   -3.4552    0.0000 N   0  0  0  0  0  0  0  0  0  0  0  0
    0.9031   -1.4527    0.0000 N   0  0  0  0  0  0  0  0  0  0  0  0
    2.0417   -0.7853    0.0000 N   0  0  0  0  0  0  0  0  0  0  0  0
    2.6700   -4.5939    0.0000 C   0  0  0  0  0  0  0  0  0  0  0  0
    3.4552   -4.2798    0.0000 C   0  0  0  0  0  0  0  0  0  0  0  0
    2.0810   -3.2982    0.0000 C   0  0  0  0  0  0  0  0  0  0  0  0
    2.5914   -5.4184    0.0000 C   0  0  0  0  0  0  0  0  0  0  0  0
    2.0417   -4.1227    0.0000 C   0  0  0  0  0  0  0  0  0  0  0  0
    1.4135   -2.8270    0.0000 C   0  0  0  0  0  0  0  0  0  0  0  0
    2.8662   -2.9841    0.0000 C   0  0  0  0  0  0  0  0  0  0  0  0
    1.2172   -0.7068    0.0000 C   0  0  0  0  0  0  0  0  0  0  0  0
    3.2589   -5.9289    0.0000 C   0  0  0  0  0  0  0  0  0  0  0  0
    1.8454   -5.7325    0.0000 C   0  0  0  0  0  0  0  0  0  0  0  0
    2.1988   -1.6098    0.0000 C   0  0  0  0  0  0  0  0  0  0  0  0
    2.3951   -7.0283    0.0000 C   0  0  0  0  0  0  0  0  0  0  0  0
    3.1411   -6.7142    0.0000 C   0  0  0  0  0  0  0  0  0  0  0  0
    1.7276   -6.5571    0.0000 C   0  0  0  0  0  0  0  0  0  0  0  0
    0.8245    0.0000    0.0000 C   0  0  0  0  0  0  0  0  0  0  0  0
    4.8687   -4.4368    0.0000 C   0  0  0  0  0  0  0  0  0  0  0  0
    4.9473   -3.6123    0.0000 C   0  0  0  0  0  0  0  0  0  0  0  0
  1 19  1  0  0  0  0
  2  9  1  0  0  0  0
  2 23  1  0  0  0  0
  3 22  1  0  0  0  0
  4  6  1  0  0  0  0
  4 13  1  0  0  0  0
  4 18  1  0  0  0  0
  5  9  2  0  0  0  0
  5 14  1  0  0  0  0
  6 15  2  0  0  0  0
  7 15  1  0  0  0  0
  7 18  2  0  0  0  0
  8  9  1  0  0  0  0
  8 11  1  0  0  0  0
  8 12  2  0  0  0  0
 10 12  1  0  0  0  0
 10 13  1  0  0  0  0
 10 14  2  0  0  0  0
 11 16  2  0  0  0  0
 11 17  1  0  0  0  0
 15 22  1  0  0  0  0
 16 20  1  0  0  0  0
 17 21  2  0  0  0  0
 19 20  2  0  0  0  0
 19 21  1  0  0  0  0
 23 24  1  0  0  0  0
M  END
> <PUBCHEM_COMPOUND_ID_TYPE>
0

> <PUBCHEM_TOTAL_CHARGE>
0

> <PUBCHEM_SUBSTANCE_ID>
310936599

> <PUBCHEM_SUBSTANCE_VERSION>
1

> <PUBCHEM_EXT_DATASOURCE_NAME>
4488

> <PUBCHEM_EXT_DATASOURCE_REGID>
SCHEMBL16114259

> <PUBCHEM_SUBSTANCE_COMMENT>
InChI=1S/C17H17FN4O2/c1-2-24-17-15(13-3-5-14(18)6-4-13)7-12(8-19-17)9-22-11-20-16(10-23)21-22/h3-8,11,23H,2,9-10H2,1H3
InChIKey=KSTUJRAQGGKYBT-UHFFFAOYSA-N

> <PUBCHEM_SUBSTANCE_SYNONYM>
SCHEMBL16114259

> <PUBCHEM_XREF_EXT_ID>
SCHEMBL16114259

> <PUBCHEM_EXT_DATASOURCE_URL>
https://www.surechembl.org/

> <PUBCHEM_EXT_SUBSTANCE_URL>
https://www.surechembl.org/chemical/SCHEMBL16114259

> <PUBCHEM_CID_ASSOCIATIONS>
117604518  1

> <PUBCHEM_COORDINATE_TYPE>
1
3

$$$$
