310935115
  -OEChem-07211613022D

 21 22  0     0  0  0  0  0  0999 V2000
    2.1369   -2.4574    0.0000 S   0  0  0  0  0  0  0  0  0  0  0  0
    2.8313   -2.8847    0.0000 O   0  0  0  0  0  0  0  0  0  0  0  0
    0.6945   -2.4574    0.0000 N   0  0  0  0  0  0  0  0  0  0  0  0
    3.5525   -4.1134    0.0000 N   0  0  0  0  0  0  0  0  0  0  0  0
    1.4157   -3.6861    0.0000 C   0  0  0  0  0  0  0  0  0  0  0  0
    2.1102   -4.1134    0.0000 C   0  0  0  0  0  0  0  0  0  0  0  0
    1.4157   -2.8847    0.0000 C   0  0  0  0  0  0  0  0  0  0  0  0
    0.6945   -1.6560    0.0000 C   0  0  0  0  0  0  0  0  0  0  0  0
    1.4157   -1.2287    0.0000 C   0  0  0  0  0  0  0  0  0  0  0  0
    0.6945   -4.1134    0.0000 C   0  0  0  0  0  0  0  0  0  0  0  0
    2.8313   -3.6861    0.0000 C   0  0  0  0  0  0  0  0  0  0  0  0
    2.1102   -4.9415    0.0000 C   0  0  0  0  0  0  0  0  0  0  0  0
    0.0000   -1.2287    0.0000 C   0  0  0  0  0  0  0  0  0  0  0  0
    0.6945   -4.9415    0.0000 C   0  0  0  0  0  0  0  0  0  0  0  0
    1.4157   -5.3421    0.0000 C   0  0  0  0  0  0  0  0  0  0  0  0
    1.4157   -0.4006    0.0000 C   0  0  0  0  0  0  0  0  0  0  0  0
    2.1369   -1.6293    0.0000 C   0  0  0  0  0  0  0  0  0  0  0  0
    0.0000   -0.4006    0.0000 C   0  0  0  0  0  0  0  0  0  0  0  0
    0.6945    0.0000    0.0000 C   0  0  0  0  0  0  0  0  0  0  0  0
    2.8313   -1.2287    0.0000 C   0  0  0  0  0  0  0  0  0  0  0  0
    2.8313   -0.4006    0.0000 C   0  0  0  0  0  0  0  0  0  0  0  0
  1  7  2  0  0  0  0
  2 11  2  0  0  0  0
  3  7  1  0  0  0  0
  3  8  1  0  0  0  0
  4 11  1  0  0  0  0
  5  6  2  0  0  0  0
  5  7  1  0  0  0  0
  5 10  1  0  0  0  0
  6 11  1  0  0  0  0
  6 12  1  0  0  0  0
  8  9  1  0  0  0  0
  8 13  2  0  0  0  0
  9 16  2  0  0  0  0
  9 17  1  0  0  0  0
 10 14  2  0  0  0  0
 12 15  2  0  0  0  0
 13 18  1  0  0  0  0
 14 15  1  0  0  0  0
 16 19  1  0  0  0  0
 17 20  1  0  0  0  0
 18 19  2  0  0  0  0
 20 21  1  0  0  0  0
M  END
> <PUBCHEM_COMPOUND_ID_TYPE>
0

> <PUBCHEM_TOTAL_CHARGE>
0

> <PUBCHEM_SUBSTANCE_ID>
310935115

> <PUBCHEM_SUBSTANCE_VERSION>
1

> <PUBCHEM_EXT_DATASOURCE_NAME>
4488

> <PUBCHEM_EXT_DATASOURCE_REGID>
SCHEMBL16112642

> <PUBCHEM_SUBSTANCE_COMMENT>
InChI=1S/C17H18N2OS/c1-2-7-12-8-3-6-11-15(12)19-17(21)14-10-5-4-9-13(14)16(18)20/h3-6,8-11H,2,7H2,1H3,(H2,18,20)(H,19,21)
InChIKey=OQEJTLUZIXMCNY-UHFFFAOYSA-N

> <PUBCHEM_SUBSTANCE_SYNONYM>
SCHEMBL16112642

> <PUBCHEM_XREF_EXT_ID>
SCHEMBL16112642

> <PUBCHEM_EXT_DATASOURCE_URL>
https://www.surechembl.org/

> <PUBCHEM_EXT_SUBSTANCE_URL>
https://www.surechembl.org/chemical/SCHEMBL16112642

> <PUBCHEM_CID_ASSOCIATIONS>
117603206  1

> <PUBCHEM_COORDINATE_TYPE>
1
3

$$$$
