310943230
  -OEChem-07211613022D

 34 37  0     0  0  0  0  0  0999 V2000
   -4.0321   -1.0522    0.0000 O   0  0  0  0  0  0  0  0  0  0  0  0
   -5.4800    1.4563    0.0000 O   0  0  0  0  0  0  0  0  0  0  0  0
    1.8940    1.5236    0.0000 O   0  0  0  0  0  0  0  0  0  0  0  0
    4.7729    1.4563    0.0000 O   0  0  0  0  0  0  0  0  0  0  0  0
   -2.6011   -1.0522    0.0000 N   0  0  0  0  0  0  0  0  0  0  0  0
   -4.0490    0.6482    0.0000 N   0  0  0  0  0  0  0  0  0  0  0  0
    1.0859    0.2441    0.0000 N   0  0  0  0  0  0  0  0  0  0  0  0
    2.6011   -0.4967    0.0000 N   0  0  0  0  0  0  0  0  0  0  0  0
   -1.8940    0.1767    0.0000 C   0  0  0  0  0  0  0  0  0  0  0  0
   -3.3251    0.1767    0.0000 C   0  0  0  0  0  0  0  0  0  0  0  0
   -1.0691    0.6482    0.0000 C   0  0  0  0  0  0  0  0  0  0  0  0
   -3.3251   -0.6314    0.0000 C   0  0  0  0  0  0  0  0  0  0  0  0
   -2.6179    0.5808    0.0000 C   0  0  0  0  0  0  0  0  0  0  0  0
   -1.9108   -0.6482    0.0000 C   0  0  0  0  0  0  0  0  0  0  0  0
   -1.0522    1.4731    0.0000 C   0  0  0  0  0  0  0  0  0  0  0  0
   -0.3452    0.2441    0.0000 C   0  0  0  0  0  0  0  0  0  0  0  0
    0.3620    0.6482    0.0000 C   0  0  0  0  0  0  0  0  0  0  0  0
    2.6011    0.3283    0.0000 C   0  0  0  0  0  0  0  0  0  0  0  0
   -0.3620    1.8604    0.0000 C   0  0  0  0  0  0  0  0  0  0  0  0
    1.8772    0.7155    0.0000 C   0  0  0  0  0  0  0  0  0  0  0  0
    4.0321    0.3283    0.0000 C   0  0  0  0  0  0  0  0  0  0  0  0
    0.3620    1.4563    0.0000 C   0  0  0  0  0  0  0  0  0  0  0  0
    4.7224    0.6650    0.0000 C   0  0  0  0  0  0  0  0  0  0  0  0
   -4.0490    1.4731    0.0000 C   0  0  0  0  0  0  0  0  0  0  0  0
   -4.7392    0.2610    0.0000 C   0  0  0  0  0  0  0  0  0  0  0  0
    3.3082    0.7323    0.0000 C   0  0  0  0  0  0  0  0  0  0  0  0
   -2.5842   -1.8772    0.0000 C   0  0  0  0  0  0  0  0  0  0  0  0
    4.0153   -0.5135    0.0000 C   0  0  0  0  0  0  0  0  0  0  0  0
   -1.7930    1.8604    0.0000 C   0  0  0  0  0  0  0  0  0  0  0  0
    3.3419   -0.9007    0.0000 C   0  0  0  0  0  0  0  0  0  0  0  0
   -4.7560    1.8772    0.0000 C   0  0  0  0  0  0  0  0  0  0  0  0
   -5.4800    0.6650    0.0000 C   0  0  0  0  0  0  0  0  0  0  0  0
    5.4800    1.0017    0.0000 C   0  0  0  0  0  0  0  0  0  0  0  0
    5.3790    0.1767    0.0000 C   0  0  0  0  0  0  0  0  0  0  0  0
  1 12  2  0  0  0  0
  2 31  1  0  0  0  0
  2 32  1  0  0  0  0
  3 20  2  0  0  0  0
  4 23  1  0  0  0  0
  5 12  1  0  0  0  0
  5 14  1  0  0  0  0
  5 27  1  0  0  0  0
  6 10  1  0  0  0  0
  6 24  1  0  0  0  0
  6 25  1  0  0  0  0
  7 17  1  0  0  0  0
  7 20  1  0  0  0  0
  8 18  2  0  0  0  0
  8 30  1  0  0  0  0
  9 11  1  0  0  0  0
  9 13  1  0  0  0  0
  9 14  2  0  0  0  0
 10 12  1  0  0  0  0
 10 13  2  0  0  0  0
 11 15  1  0  0  0  0
 11 16  2  0  0  0  0
 15 19  2  0  0  0  0
 15 29  1  0  0  0  0
 16 17  1  0  0  0  0
 17 22  2  0  0  0  0
 18 20  1  0  0  0  0
 18 26  1  0  0  0  0
 19 22  1  0  0  0  0
 21 23  1  0  0  0  0
 21 26  2  0  0  0  0
 21 28  1  0  0  0  0
 23 33  1  0  0  0  0
 23 34  1  0  0  0  0
 24 31  1  0  0  0  0
 25 32  1  0  0  0  0
 28 30  2  0  0  0  0
M  END
> <PUBCHEM_COMPOUND_ID_TYPE>
0

> <PUBCHEM_TOTAL_CHARGE>
0

> <PUBCHEM_SUBSTANCE_ID>
310943230

> <PUBCHEM_SUBSTANCE_VERSION>
1

> <PUBCHEM_EXT_DATASOURCE_NAME>
4488

> <PUBCHEM_EXT_DATASOURCE_REGID>
SCHEMBL16121291

> <PUBCHEM_SUBSTANCE_COMMENT>
InChI=1S/C26H30N4O4/c1-17-5-6-20(28-24(31)22-14-19(7-8-27-22)26(2,3)33)15-21(17)18-13-23(25(32)29(4)16-18)30-9-11-34-12-10-30/h5-8,13-16,33H,9-12H2,1-4H3,(H,28,31)
InChIKey=DPOYQQDATBVMPD-UHFFFAOYSA-N

> <PUBCHEM_SUBSTANCE_SYNONYM>
SCHEMBL16121291

> <PUBCHEM_XREF_EXT_ID>
SCHEMBL16121291

> <PUBCHEM_EXT_DATASOURCE_URL>
https://www.surechembl.org/

> <PUBCHEM_EXT_SUBSTANCE_URL>
https://www.surechembl.org/chemical/SCHEMBL16121291

> <PUBCHEM_CID_ASSOCIATIONS>
117609655  1

> <PUBCHEM_COORDINATE_TYPE>
1
3

$$$$
