310947001
  -OEChem-07211613022D

 45 50  0     0  0  0  0  0  0999 V2000
   -2.4209   -0.7764    0.0000 F   0  0  0  0  0  0  0  0  0  0  0  0
   -3.8499   -1.6014    0.0000 O   0  0  0  0  0  0  0  0  0  0  0  0
    2.6445    3.2514    0.0000 O   0  0  0  0  0  0  0  0  0  0  0  0
   -2.4209   -4.0764    0.0000 O   0  0  0  0  0  0  0  0  0  0  0  0
    3.3589    2.0139    0.0000 O   0  0  0  0  0  0  0  0  0  0  0  0
   -0.9920   -1.6014    0.0000 N   0  0  0  0  0  0  0  0  0  0  0  0
    0.5071    0.7161    0.0000 N   0  0  0  0  0  0  0  0  0  0  0  0
    0.4369   -1.6014    0.0000 N   0  0  0  0  0  0  0  0  0  0  0  0
    1.9300    2.0139    0.0000 N   0  0  0  0  0  0  0  0  0  0  0  0
   -0.2775    0.4611    0.0000 N   0  0  0  0  0  0  0  0  0  0  0  0
    1.8659   -1.6014    0.0000 N   0  0  0  0  0  0  0  0  0  0  0  0
    0.5071   -0.6188    0.0000 N   0  0  0  0  0  0  0  0  0  0  0  0
    1.8659   -3.2514    0.0000 N   0  0  0  0  0  0  0  0  0  0  0  0
    4.0794   -0.5214    0.0000 N   0  0  0  0  0  0  0  0  0  0  0  0
    4.5644   -1.1889    0.0000 N   0  0  0  0  0  0  0  0  0  0  0  0
   -1.7065   -2.0139    0.0000 C   0  0  0  0  0  0  0  0  0  0  0  0
   -0.2775   -2.0139    0.0000 C   0  0  0  0  0  0  0  0  0  0  0  0
    0.9196    1.4305    0.0000 C   0  0  0  0  0  0  0  0  0  0  0  0
    1.1514   -2.0139    0.0000 C   0  0  0  0  0  0  0  0  0  0  0  0
   -2.4209   -1.6014    0.0000 C   0  0  0  0  0  0  0  0  0  0  0  0
   -0.2775   -0.3639    0.0000 C   0  0  0  0  0  0  0  0  0  0  0  0
   -0.9920   -0.7764    0.0000 C   0  0  0  0  0  0  0  0  0  0  0  0
    1.1514   -2.8389    0.0000 C   0  0  0  0  0  0  0  0  0  0  0  0
   -3.1354   -2.0139    0.0000 C   0  0  0  0  0  0  0  0  0  0  0  0
   -1.7065   -2.8389    0.0000 C   0  0  0  0  0  0  0  0  0  0  0  0
   -0.2775   -2.8389    0.0000 C   0  0  0  0  0  0  0  0  0  0  0  0
    1.7165    1.2170    0.0000 C   0  0  0  0  0  0  0  0  0  0  0  0
    1.1331    2.2274    0.0000 C   0  0  0  0  0  0  0  0  0  0  0  0
    2.5803   -2.0139    0.0000 C   0  0  0  0  0  0  0  0  0  0  0  0
   -2.4209   -3.2514    0.0000 C   0  0  0  0  0  0  0  0  0  0  0  0
    0.4369   -3.2514    0.0000 C   0  0  0  0  0  0  0  0  0  0  0  0
    0.9920    0.0486    0.0000 C   0  0  0  0  0  0  0  0  0  0  0  0
   -3.1354   -2.8389    0.0000 C   0  0  0  0  0  0  0  0  0  0  0  0
    2.6445    2.4264    0.0000 C   0  0  0  0  0  0  0  0  0  0  0  0
    3.2948   -1.6014    0.0000 C   0  0  0  0  0  0  0  0  0  0  0  0
    2.5803   -2.8389    0.0000 C   0  0  0  0  0  0  0  0  0  0  0  0
    3.2948   -0.7764    0.0000 C   0  0  0  0  0  0  0  0  0  0  0  0
    4.0794   -1.8563    0.0000 C   0  0  0  0  0  0  0  0  0  0  0  0
    3.3589    3.6639    0.0000 C   0  0  0  0  0  0  0  0  0  0  0  0
   -4.5644   -2.0139    0.0000 C   0  0  0  0  0  0  0  0  0  0  0  0
   -1.7065   -4.4889    0.0000 C   0  0  0  0  0  0  0  0  0  0  0  0
    4.4919    0.1930    0.0000 C   0  0  0  0  0  0  0  0  0  0  0  0
    4.0734    3.2514    0.0000 C   0  0  0  0  0  0  0  0  0  0  0  0
    3.3589    4.4889    0.0000 C   0  0  0  0  0  0  0  0  0  0  0  0
    4.0734    4.0764    0.0000 C   0  0  0  0  0  0  0  0  0  0  0  0
  1 20  1  0  0  0  0
  2 24  1  0  0  0  0
  2 40  1  0  0  0  0
  3 34  1  0  0  0  0
  3 39  1  0  0  0  0
  4 30  1  0  0  0  0
  4 41  1  0  0  0  0
  5 34  2  0  0  0  0
  6 16  1  0  0  0  0
  6 17  1  0  0  0  0
  6 22  1  0  0  0  0
  7 10  1  0  0  0  0
  7 18  1  0  0  0  0
  7 32  1  0  0  0  0
  8 17  1  0  0  0  0
  8 19  2  0  0  0  0
  9 27  1  0  0  0  0
  9 28  1  0  0  0  0
  9 34  1  0  0  0  0
 10 21  2  0  0  0  0
 11 19  1  0  0  0  0
 11 29  2  0  0  0  0
 12 21  1  0  0  0  0
 12 32  2  0  0  0  0
 13 23  1  0  0  0  0
 13 36  2  0  0  0  0
 14 15  1  0  0  0  0
 14 37  1  0  0  0  0
 14 42  1  0  0  0  0
 15 38  2  0  0  0  0
 16 20  2  0  0  0  0
 16 25  1  0  0  0  0
 17 26  2  0  0  0  0
 18 27  1  0  0  0  0
 18 28  1  0  0  0  0
 19 23  1  0  0  0  0
 20 24  1  0  0  0  0
 21 22  1  0  0  0  0
 23 31  2  0  0  0  0
 24 33  2  0  0  0  0
 25 30  2  0  0  0  0
 26 31  1  0  0  0  0
 29 35  1  0  0  0  0
 29 36  1  0  0  0  0
 30 33  1  0  0  0  0
 35 37  2  0  0  0  0
 35 38  1  0  0  0  0
 39 43  1  0  0  0  0
 39 44  1  0  0  0  0
 39 45  1  0  0  0  0
M  END
> <PUBCHEM_COMPOUND_ID_TYPE>
0

> <PUBCHEM_TOTAL_CHARGE>
0

> <PUBCHEM_SUBSTANCE_ID>
310947001

> <PUBCHEM_SUBSTANCE_VERSION>
1

> <PUBCHEM_EXT_DATASOURCE_NAME>
4488

> <PUBCHEM_EXT_DATASOURCE_REGID>
SCHEMBL16125153

> <PUBCHEM_SUBSTANCE_COMMENT>
InChI=1S/C30H33FN10O4/c1-30(2,3)45-29(42)39-14-19(15-39)41-17-33-25(37-41)16-40(23-9-20(43-5)10-24(44-6)27(23)31)26-8-7-21-28(36-26)35-22(12-32-21)18-11-34-38(4)13-18/h7-13,17,19H,14-16H2,1-6H3
InChIKey=IFRYRPFEWXCDDZ-UHFFFAOYSA-N

> <PUBCHEM_SUBSTANCE_SYNONYM>
SCHEMBL16125153

> <PUBCHEM_XREF_EXT_ID>
SCHEMBL16125153

> <PUBCHEM_EXT_DATASOURCE_URL>
https://www.surechembl.org/

> <PUBCHEM_EXT_SUBSTANCE_URL>
https://www.surechembl.org/chemical/SCHEMBL16125153

> <PUBCHEM_CID_ASSOCIATIONS>
117612855  1

> <PUBCHEM_COORDINATE_TYPE>
1
3

$$$$
