310941800
  -OEChem-07211613022D

 21 22  0     0  0  0  0  0  0999 V2000
   -0.0275    1.8484    0.0000 Br  0  0  0  0  0  0  0  0  0  0  0  0
   -4.0403   -0.6116    0.0000 F   0  0  0  0  0  0  0  0  0  0  0  0
   -4.0403   -1.4361    0.0000 F   0  0  0  0  0  0  0  0  0  0  0  0
   -3.3257   -1.8484    0.0000 F   0  0  0  0  0  0  0  0  0  0  0  0
    0.2611    0.1993    0.0000 O   0  0  0  0  0  0  0  0  0  0  0  0
    2.4186    1.4223    0.0000 N   0  0  0  0  0  0  0  0  0  0  0  0
    3.1195    0.1718    0.0000 N   0  0  0  0  0  0  0  0  0  0  0  0
    4.0403    0.5841    0.0000 N   0  0  0  0  0  0  0  0  0  0  0  0
   -2.6248   -0.6116    0.0000 C   0  0  0  0  0  0  0  0  0  0  0  0
    0.9620    0.5978    0.0000 C   0  0  0  0  0  0  0  0  0  0  0  0
   -3.3669   -1.0238    0.0000 C   0  0  0  0  0  0  0  0  0  0  0  0
    0.9894    1.4223    0.0000 C   0  0  0  0  0  0  0  0  0  0  0  0
   -1.1819    0.1856    0.0000 C   0  0  0  0  0  0  0  0  0  0  0  0
    2.3912    0.5978    0.0000 C   0  0  0  0  0  0  0  0  0  0  0  0
    1.7041    0.1993    0.0000 C   0  0  0  0  0  0  0  0  0  0  0  0
   -1.8827   -1.0238    0.0000 C   0  0  0  0  0  0  0  0  0  0  0  0
   -2.5973    0.1993    0.0000 C   0  0  0  0  0  0  0  0  0  0  0  0
   -1.8964    0.5978    0.0000 C   0  0  0  0  0  0  0  0  0  0  0  0
   -1.1819   -0.6253    0.0000 C   0  0  0  0  0  0  0  0  0  0  0  0
   -0.4672    0.5978    0.0000 C   0  0  0  0  0  0  0  0  0  0  0  0
    1.7041    1.8346    0.0000 C   0  0  0  0  0  0  0  0  0  0  0  0
  1 12  1  0  0  0  0
  2 11  1  0  0  0  0
  3 11  1  0  0  0  0
  4 11  1  0  0  0  0
  5 10  1  0  0  0  0
  5 20  1  0  0  0  0
  6 14  2  0  0  0  0
  6 21  1  0  0  0  0
  7  8  1  0  0  0  0
  7 14  1  0  0  0  0
  9 11  1  1  0  0  0
  9 16  1  0  0  0  0
  9 17  1  0  0  0  0
 10 12  1  0  0  0  0
 10 15  2  0  0  0  0
 12 21  2  0  0  0  0
 13 18  1  0  0  0  0
 13 19  1  0  0  0  0
 13 20  1  6  0  0  0
 14 15  1  0  0  0  0
 16 19  1  0  0  0  0
 17 18  1  0  0  0  0
M  END
> <PUBCHEM_COMPOUND_ID_TYPE>
0

> <PUBCHEM_TOTAL_CHARGE>
0

> <PUBCHEM_SUBSTANCE_ID>
310941800

> <PUBCHEM_SUBSTANCE_VERSION>
1

> <PUBCHEM_EXT_DATASOURCE_NAME>
4488

> <PUBCHEM_EXT_DATASOURCE_REGID>
SCHEMBL16119831

> <PUBCHEM_SUBSTANCE_COMMENT>
InChI=1S/C13H17BrF3N3O/c14-10-6-19-12(20-18)5-11(10)21-7-8-1-3-9(4-2-8)13(15,16)17/h5-6,8-9H,1-4,7,18H2,(H,19,20)/t8-,9-
InChIKey=CIUFMHJBWGGNQA-KYZUINATSA-N

> <PUBCHEM_SUBSTANCE_SYNONYM>
SCHEMBL16119831

> <PUBCHEM_XREF_EXT_ID>
SCHEMBL16119831

> <PUBCHEM_EXT_DATASOURCE_URL>
https://www.surechembl.org/

> <PUBCHEM_EXT_SUBSTANCE_URL>
https://www.surechembl.org/chemical/SCHEMBL16119831

> <PUBCHEM_CID_ASSOCIATIONS>
117608549  1

> <PUBCHEM_COORDINATE_TYPE>
1
3

> <PUBCHEM_BONDANNOTATIONS>
13  20  6
9  11  5

$$$$
