310948842
  -OEChem-07211613022D

 34 37  0     1  0  0  0  0  0999 V2000
   -0.4018    2.4872    0.0000 O   0  0  0  0  0  0  0  0  0  0  0  0
    0.3187   -0.4087    0.0000 N   0  0  0  0  0  0  0  0  0  0  0  0
   -3.9075   -0.4781    0.0000 N   0  0  0  0  0  0  0  0  0  0  0  0
   -2.5773   -0.4781    0.0000 N   0  0  0  0  0  0  0  0  0  0  0  0
    0.3187    1.2540    0.0000 N   0  0  0  0  0  0  0  0  0  0  0  0
   -3.6581   -1.2679    0.0000 N   0  0  0  0  0  0  0  0  0  0  0  0
   -2.8267   -1.2679    0.0000 N   0  0  0  0  0  0  0  0  0  0  0  0
    1.0392    2.5011    0.0000 N   0  0  0  0  0  0  0  0  0  0  0  0
   -2.5219    1.2402    0.0000 C   0  0  3  0  0  0  0  0  0  0  0  0
   -3.2424    0.8383    0.0000 C   0  0  3  0  0  0  0  0  0  0  0  0
   -1.7875    0.8245    0.0000 C   0  0  0  0  0  0  0  0  0  0  0  0
   -3.2424    1.6558    0.0000 C   0  0  0  0  0  0  0  0  0  0  0  0
   -3.2562   -0.0346    0.0000 C   0  0  0  0  0  0  0  0  0  0  0  0
   -0.3880    0.8383    0.0000 C   0  0  0  0  0  0  0  0  0  0  0  0
   -1.1224    1.2402    0.0000 C   0  0  0  0  0  0  0  0  0  0  0  0
   -0.4018    0.0208    0.0000 C   0  0  0  0  0  0  0  0  0  0  0  0
   -1.8152    0.0069    0.0000 C   0  0  0  0  0  0  0  0  0  0  0  0
   -1.1085   -0.3949    0.0000 C   0  0  0  0  0  0  0  0  0  0  0  0
    0.3464    2.0853    0.0000 C   0  0  0  0  0  0  0  0  0  0  0  0
    0.3187   -1.2402    0.0000 C   0  0  0  0  0  0  0  0  0  0  0  0
    1.0254    0.0069    0.0000 C   0  0  0  0  0  0  0  0  0  0  0  0
   -0.3880   -1.6420    0.0000 C   0  0  0  0  0  0  0  0  0  0  0  0
    1.7598   -0.4087    0.0000 C   0  0  0  0  0  0  0  0  0  0  0  0
    1.7459    2.0853    0.0000 C   0  0  0  0  0  0  0  0  0  0  0  0
    1.7459    1.2679    0.0000 C   0  0  0  0  0  0  0  0  0  0  0  0
    2.4387    2.4872    0.0000 C   0  0  0  0  0  0  0  0  0  0  0  0
    3.1592    1.2679    0.0000 C   0  0  0  0  0  0  0  0  0  0  0  0
    2.4665    0.8522    0.0000 C   0  0  0  0  0  0  0  0  0  0  0  0
    3.1731    2.0853    0.0000 C   0  0  0  0  0  0  0  0  0  0  0  0
   -1.1224   -1.2540    0.0000 C   0  0  0  0  0  0  0  0  0  0  0  0
   -0.3741   -2.5011    0.0000 C   0  0  0  0  0  0  0  0  0  0  0  0
    1.7321   -1.2540    0.0000 C   0  0  0  0  0  0  0  0  0  0  0  0
    2.4803   -0.0069    0.0000 C   0  0  0  0  0  0  0  0  0  0  0  0
    3.9075    0.8522    0.0000 C   0  0  0  0  0  0  0  0  0  0  0  0
  1 19  2  0  0  0  0
  2 16  1  0  0  0  0
  2 20  1  0  0  0  0
  2 21  1  0  0  0  0
  3  6  1  0  0  0  0
  3 13  2  0  0  0  0
  4  7  1  0  0  0  0
  4 13  1  0  0  0  0
  5 14  1  0  0  0  0
  5 19  1  0  0  0  0
  6  7  2  0  0  0  0
  8 19  1  0  0  0  0
  8 24  1  0  0  0  0
  9 10  1  0  0  0  0
  9 11  1  0  0  0  0
  9 12  1  1  0  0  0
 10 12  1  1  0  0  0
 10 13  1  0  0  0  0
 11 15  1  0  0  0  0
 11 17  2  0  0  0  0
 14 15  2  0  0  0  0
 14 16  1  0  0  0  0
 16 18  2  0  0  0  0
 17 18  1  0  0  0  0
 20 22  1  0  0  0  0
 21 23  1  0  0  0  0
 22 30  1  0  0  0  0
 22 31  1  0  0  0  0
 23 32  1  0  0  0  0
 23 33  1  0  0  0  0
 24 25  2  0  0  0  0
 24 26  1  0  0  0  0
 25 28  1  0  0  0  0
 26 29  2  0  0  0  0
 27 28  2  0  0  0  0
 27 29  1  0  0  0  0
 27 34  1  0  0  0  0
M  END
> <PUBCHEM_COMPOUND_ID_TYPE>
0

> <PUBCHEM_TOTAL_CHARGE>
0

> <PUBCHEM_SUBSTANCE_ID>
310948842

> <PUBCHEM_SUBSTANCE_VERSION>
1

> <PUBCHEM_EXT_DATASOURCE_NAME>
4488

> <PUBCHEM_EXT_DATASOURCE_REGID>
SCHEMBL16127026

> <PUBCHEM_SUBSTANCE_COMMENT>
InChI=1S/C26H35N7O/c1-16(2)14-33(15-17(3)4)24-11-8-19(21-13-22(21)25-29-31-32-30-25)12-23(24)28-26(34)27-20-9-6-18(5)7-10-20/h6-12,16-17,21-22H,13-15H2,1-5H3,(H2,27,28,34)(H,29,30,31,32)/t21-,22-/m0/s1
InChIKey=GJJJLLHAAHFGDJ-VXKWHMMOSA-N

> <PUBCHEM_SUBSTANCE_SYNONYM>
SCHEMBL16127026

> <PUBCHEM_XREF_EXT_ID>
SCHEMBL16127026

> <PUBCHEM_EXT_DATASOURCE_URL>
https://www.surechembl.org/

> <PUBCHEM_EXT_SUBSTANCE_URL>
https://www.surechembl.org/chemical/SCHEMBL16127026

> <PUBCHEM_CID_ASSOCIATIONS>
117614379  1

> <PUBCHEM_COORDINATE_TYPE>
1
3

> <PUBCHEM_BONDANNOTATIONS>
10  12  5
9  12  5

$$$$
