310934985
  -OEChem-07211613022D

 33 38  0     1  0  0  0  0  0999 V2000
    1.1219   -3.7263    0.0000 N   0  0  0  0  0  0  0  0  0  0  0  0
    0.3205   -3.7263    0.0000 N   0  0  0  0  0  0  0  0  0  0  0  0
    2.2037   -2.7646    0.0000 N   0  0  0  0  0  0  0  0  0  0  0  0
    4.6478   -6.6111    0.0000 N   0  0  0  0  0  0  0  0  0  0  0  0
    0.7212    0.0000    0.0000 N   0  0  0  0  0  0  0  0  0  0  0  0
    5.7297   -7.8533    0.0000 N   0  0  0  0  0  0  0  0  0  0  0  0
    0.7212   -2.4842    0.0000 C   0  0  0  0  0  0  0  0  0  0  0  0
    1.4024   -2.9249    0.0000 C   0  0  0  0  0  0  0  0  0  0  0  0
    0.7212   -1.6427    0.0000 C   0  0  0  0  0  0  0  0  0  0  0  0
    1.4424   -1.2421    0.0000 C   0  0  0  0  0  0  0  0  0  0  0  0
    2.4842   -4.1670    0.0000 C   0  0  0  0  0  0  0  0  0  0  0  0
    0.0401   -2.9249    0.0000 C   0  0  0  0  0  0  0  0  0  0  0  0
    1.6828   -4.3273    0.0000 C   0  0  0  0  0  0  0  0  0  0  0  0
    3.0050   -4.7680    0.0000 C   0  0  0  0  0  0  0  0  0  0  0  0
    1.4424   -0.4007    0.0000 C   0  0  0  0  0  0  0  0  0  0  0  0
    2.7246   -3.3657    0.0000 C   0  0  0  0  0  0  0  0  0  0  0  0
    0.0000   -1.2421    0.0000 C   0  0  0  0  0  0  0  0  0  0  0  0
    4.1269   -6.0101    0.0000 C   0  0  0  0  0  0  0  0  0  0  0  0
    2.1236   -1.6427    0.0000 C   0  0  0  0  0  0  0  0  0  0  0  0
    3.8064   -4.6078    0.0000 C   0  0  0  0  0  0  0  0  0  0  0  0
    2.7646   -5.5694    0.0000 C   0  0  0  0  0  0  0  0  0  0  0  0
    0.0000   -0.4007    0.0000 C   0  0  0  0  0  0  0  0  0  0  0  0
    4.3674   -5.2488    0.0000 C   0  0  0  0  0  0  0  0  0  0  0  0
    3.2856   -6.1704    0.0000 C   0  0  0  0  0  0  0  0  0  0  0  0
    2.1236    0.0000    0.0000 C   0  0  0  0  0  0  0  0  0  0  0  0
    4.3674   -7.4125    0.0000 C   0  0  3  0  0  0  0  0  0  0  0  0
    5.4492   -6.4509    0.0000 C   0  0  3  0  0  0  0  0  0  0  0  0
    2.8448   -1.2421    0.0000 C   0  0  0  0  0  0  0  0  0  0  0  0
    2.8448   -0.4007    0.0000 C   0  0  0  0  0  0  0  0  0  0  0  0
    5.9701   -7.0920    0.0000 C   0  0  0  0  0  0  0  0  0  0  0  0
    4.9283   -8.0135    0.0000 C   0  0  0  0  0  0  0  0  0  0  0  0
    5.6896   -5.6896    0.0000 C   0  0  0  0  0  0  0  0  0  0  0  0
    3.6061   -7.5327    0.0000 C   0  0  0  0  0  0  0  0  0  0  0  0
  1  2  1  0  0  0  0
  1  8  1  0  0  0  0
  1 13  1  0  0  0  0
  2 12  2  0  0  0  0
  3  8  1  0  0  0  0
  3 16  2  0  0  0  0
  4 18  1  0  0  0  0
  4 26  1  0  0  0  0
  4 27  1  0  0  0  0
  5 15  2  0  0  0  0
  5 22  1  0  0  0  0
  6 30  1  0  0  0  0
  6 31  1  0  0  0  0
  7  8  2  0  0  0  0
  7  9  1  0  0  0  0
  7 12  1  0  0  0  0
  9 10  2  0  0  0  0
  9 17  1  0  0  0  0
 10 15  1  0  0  0  0
 10 19  1  0  0  0  0
 11 13  2  0  0  0  0
 11 14  1  0  0  0  0
 11 16  1  0  0  0  0
 14 20  2  0  0  0  0
 14 21  1  0  0  0  0
 15 25  1  0  0  0  0
 17 22  2  0  0  0  0
 18 23  2  0  0  0  0
 18 24  1  0  0  0  0
 19 28  2  0  0  0  0
 20 23  1  0  0  0  0
 21 24  2  0  0  0  0
 25 29  2  0  0  0  0
 26 31  1  0  0  0  0
 26 33  1  6  0  0  0
 27 30  1  0  0  0  0
 27 32  1  6  0  0  0
 28 29  1  0  0  0  0
M  END
> <PUBCHEM_COMPOUND_ID_TYPE>
0

> <PUBCHEM_TOTAL_CHARGE>
0

> <PUBCHEM_SUBSTANCE_ID>
310934985

> <PUBCHEM_SUBSTANCE_VERSION>
1

> <PUBCHEM_EXT_DATASOURCE_NAME>
4488

> <PUBCHEM_EXT_DATASOURCE_REGID>
SCHEMBL16112502

> <PUBCHEM_SUBSTANCE_COMMENT>
InChI=1S/C27H26N6/c1-18-13-28-14-19(2)33(18)22-9-7-20(8-10-22)21-15-30-27-25(16-31-32(27)17-21)23-11-12-29-26-6-4-3-5-24(23)26/h3-12,15-19,28H,13-14H2,1-2H3/t18-,19+
InChIKey=SHWKNOUREYUNBF-KDURUIRLSA-N

> <PUBCHEM_SUBSTANCE_SYNONYM>
SCHEMBL16112502

> <PUBCHEM_XREF_EXT_ID>
SCHEMBL16112502

> <PUBCHEM_EXT_DATASOURCE_URL>
https://www.surechembl.org/

> <PUBCHEM_EXT_SUBSTANCE_URL>
https://www.surechembl.org/chemical/SCHEMBL16112502

> <PUBCHEM_CID_ASSOCIATIONS>
117603102  1

> <PUBCHEM_COORDINATE_TYPE>
1
3

> <PUBCHEM_BONDANNOTATIONS>
26  33  6
27  32  6

$$$$
