310943953
  -OEChem-07211613022D

 37 43  0     0  0  0  0  0  0999 V2000
    0.8539    3.6313    0.0000 F   0  0  0  0  0  0  0  0  0  0  0  0
   -0.6202    1.1685    0.0000 N   0  0  0  0  0  0  0  0  0  0  0  0
    0.0090   -1.7438    0.0000 N   0  0  0  0  0  0  0  0  0  0  0  0
   -1.3213    3.1280    0.0000 N   0  0  0  0  0  0  0  0  0  0  0  0
    3.0111    3.1639    0.0000 N   0  0  0  0  0  0  0  0  0  0  0  0
   -0.7460    0.3596    0.0000 C   0  0  0  0  0  0  0  0  0  0  0  0
   -1.5550    0.1977    0.0000 C   0  0  0  0  0  0  0  0  0  0  0  0
   -0.4225   -1.0067    0.0000 C   0  0  0  0  0  0  0  0  0  0  0  0
   -1.2674   -1.1685    0.0000 C   0  0  0  0  0  0  0  0  0  0  0  0
   -1.9325    0.8989    0.0000 C   0  0  0  0  0  0  0  0  0  0  0  0
   -1.4112    1.5100    0.0000 C   0  0  0  0  0  0  0  0  0  0  0  0
   -1.3392   -2.0135    0.0000 C   0  0  0  0  0  0  0  0  0  0  0  0
   -0.5483   -2.3370    0.0000 C   0  0  0  0  0  0  0  0  0  0  0  0
   -0.1708   -0.2157    0.0000 C   0  0  0  0  0  0  0  0  0  0  0  0
   -1.7707   -0.5932    0.0000 C   0  0  0  0  0  0  0  0  0  0  0  0
    0.0989    1.5999    0.0000 C   0  0  0  0  0  0  0  0  0  0  0  0
    0.8359   -1.7977    0.0000 C   0  0  0  0  0  0  0  0  0  0  0  0
    0.1168    2.4089    0.0000 C   0  0  0  0  0  0  0  0  0  0  0  0
   -2.7595    1.0786    0.0000 C   0  0  0  0  0  0  0  0  0  0  0  0
   -1.6449    2.2471    0.0000 C   0  0  0  0  0  0  0  0  0  0  0  0
   -1.9864   -2.4988    0.0000 C   0  0  0  0  0  0  0  0  0  0  0  0
   -0.4584   -3.1639    0.0000 C   0  0  0  0  0  0  0  0  0  0  0  0
    0.8539    1.1865    0.0000 C   0  0  0  0  0  0  0  0  0  0  0  0
    0.8180    2.8044    0.0000 C   0  0  0  0  0  0  0  0  0  0  0  0
   -3.0111    1.8516    0.0000 C   0  0  0  0  0  0  0  0  0  0  0  0
   -2.4538    2.4448    0.0000 C   0  0  0  0  0  0  0  0  0  0  0  0
    1.5730    2.4089    0.0000 C   0  0  0  0  0  0  0  0  0  0  0  0
    1.1955   -2.5527    0.0000 C   0  0  0  0  0  0  0  0  0  0  0  0
    1.3392   -1.1865    0.0000 C   0  0  0  0  0  0  0  0  0  0  0  0
   -1.8786   -3.3078    0.0000 C   0  0  0  0  0  0  0  0  0  0  0  0
   -1.1415   -3.6313    0.0000 C   0  0  0  0  0  0  0  0  0  0  0  0
    1.5550    1.5820    0.0000 C   0  0  0  0  0  0  0  0  0  0  0  0
   -0.6202    2.7864    0.0000 C   0  0  0  0  0  0  0  0  0  0  0  0
    2.0404   -2.6426    0.0000 C   0  0  0  0  0  0  0  0  0  0  0  0
    2.1662   -1.2404    0.0000 C   0  0  0  0  0  0  0  0  0  0  0  0
    2.2921    2.8044    0.0000 C   0  0  0  0  0  0  0  0  0  0  0  0
    2.5078   -2.0135    0.0000 C   0  0  0  0  0  0  0  0  0  0  0  0
  1 24  1  0  0  0  0
  2  6  1  0  0  0  0
  2 11  1  0  0  0  0
  2 16  1  0  0  0  0
  3  8  1  0  0  0  0
  3 13  1  0  0  0  0
  3 17  1  0  0  0  0
  4 33  3  0  0  0  0
  5 36  3  0  0  0  0
  6  7  2  0  0  0  0
  6 14  1  0  0  0  0
  7 10  1  0  0  0  0
  7 15  1  0  0  0  0
  8  9  1  0  0  0  0
  8 14  2  0  0  0  0
  9 12  1  0  0  0  0
  9 15  2  0  0  0  0
 10 11  2  0  0  0  0
 10 19  1  0  0  0  0
 11 20  1  0  0  0  0
 12 13  2  0  0  0  0
 12 21  1  0  0  0  0
 13 22  1  0  0  0  0
 16 18  2  0  0  0  0
 16 23  1  0  0  0  0
 17 28  2  0  0  0  0
 17 29  1  0  0  0  0
 18 24  1  0  0  0  0
 18 33  1  0  0  0  0
 19 25  2  0  0  0  0
 20 26  2  0  0  0  0
 21 30  2  0  0  0  0
 22 31  2  0  0  0  0
 23 32  2  0  0  0  0
 24 27  2  0  0  0  0
 25 26  1  0  0  0  0
 27 32  1  0  0  0  0
 27 36  1  0  0  0  0
 28 34  1  0  0  0  0
 29 35  2  0  0  0  0
 30 31  1  0  0  0  0
 34 37  2  0  0  0  0
 35 37  1  0  0  0  0
M  END
> <PUBCHEM_COMPOUND_ID_TYPE>
0

> <PUBCHEM_TOTAL_CHARGE>
0

> <PUBCHEM_SUBSTANCE_ID>
310943953

> <PUBCHEM_SUBSTANCE_VERSION>
1

> <PUBCHEM_EXT_DATASOURCE_NAME>
4488

> <PUBCHEM_EXT_DATASOURCE_REGID>
SCHEMBL16122024

> <PUBCHEM_SUBSTANCE_COMMENT>
InChI=1S/C32H17FN4/c33-32-20(18-34)14-15-29(26(32)19-35)37-28-13-7-5-11-23(28)25-16-24-22-10-4-6-12-27(22)36(30(24)17-31(25)37)21-8-2-1-3-9-21/h1-17H
InChIKey=QAVHCIGGFQYEBO-UHFFFAOYSA-N

> <PUBCHEM_SUBSTANCE_SYNONYM>
SCHEMBL16122024

> <PUBCHEM_XREF_EXT_ID>
SCHEMBL16122024

> <PUBCHEM_EXT_DATASOURCE_URL>
https://www.surechembl.org/

> <PUBCHEM_EXT_SUBSTANCE_URL>
https://www.surechembl.org/chemical/SCHEMBL16122024

> <PUBCHEM_CID_ASSOCIATIONS>
117610261  1

> <PUBCHEM_COORDINATE_TYPE>
1
3

$$$$
