310947534
  -OEChem-07211613022D

 11 11  0     1  0  0  0  0  0999 V2000
   -3.3226    0.8744    0.0000 O   0  0  0  0  0  0  0  0  0  0  0  0
   -1.9407    0.8019    0.0000 O   0  0  0  0  0  0  0  0  0  0  0  0
   -2.4976   -1.1096    0.0000 O   0  0  0  0  0  0  0  0  0  0  0  0
   -4.1476   -1.1096    0.0000 O   0  0  0  0  0  0  0  0  0  0  0  0
   -2.9101   -0.3952    0.0000 C   0  0  3  0  0  0  0  0  0  0  0  0
   -3.7351   -0.3952    0.0000 C   0  0  3  0  0  0  0  0  0  0  0  0
   -2.6551    0.3894    0.0000 C   0  0  3  0  0  0  0  0  0  0  0  0
   -3.9900    0.3894    0.0000 C   0  0  3  0  0  0  0  0  0  0  0  0
   -4.4025    1.1039    0.0000 C   0  0  0  0  0  0  0  0  0  0  0  0
   -1.2262    0.3894    0.0000 C   0  0  0  0  0  0  0  0  0  0  0  0
   -5.2275    1.1039    0.0000 C   0  0  0  0  0  0  0  0  0  0  0  0
  1  7  1  0  0  0  0
  1  8  1  0  0  0  0
  7  2  1  1  0  0  0
  2 10  1  0  0  0  0
  5  3  1  6  0  0  0
  6  4  1  1  0  0  0
  5  6  1  0  0  0  0
  5  7  1  0  0  0  0
  6  8  1  0  0  0  0
  8  9  1  1  0  0  0
  9 11  1  0  0  0  0
M  END
> <PUBCHEM_COMPOUND_ID_TYPE>
0

> <PUBCHEM_TOTAL_CHARGE>
0

> <PUBCHEM_SUBSTANCE_ID>
310947534

> <PUBCHEM_SUBSTANCE_VERSION>
1

> <PUBCHEM_EXT_DATASOURCE_NAME>
4488

> <PUBCHEM_EXT_DATASOURCE_REGID>
SCHEMBL16125697

> <PUBCHEM_SUBSTANCE_COMMENT>
InChI=1S/C7H14O4/c1-3-4-5(8)6(9)7(10-2)11-4/h4-9H,3H2,1-2H3/t4-,5+,6-,7-/m1/s1
InChIKey=TYCTZZBOKOSUQK-XZBKPIIZSA-N

> <PUBCHEM_SUBSTANCE_SYNONYM>
SCHEMBL16125697

> <PUBCHEM_XREF_EXT_ID>
SCHEMBL16125697

> <PUBCHEM_EXT_DATASOURCE_URL>
https://www.surechembl.org/

> <PUBCHEM_EXT_SUBSTANCE_URL>
https://www.surechembl.org/chemical/SCHEMBL16125697

> <PUBCHEM_CID_ASSOCIATIONS>
117613256  1

> <PUBCHEM_COORDINATE_TYPE>
1
3

> <PUBCHEM_BONDANNOTATIONS>
7  2  5
5  3  6
6  4  5
8  9  5

$$$$
