310938216
  -OEChem-07211613022D

 32 35  0     1  0  0  0  0  0999 V2000
    0.0768   -2.3215    0.0000 O   0  0  0  0  0  0  0  0  0  0  0  0
   -0.5837   -1.4124    0.0000 O   0  0  0  0  0  0  0  0  0  0  0  0
    2.5399   -3.9893    0.0000 O   0  0  0  0  0  0  0  0  0  0  0  0
    3.2004   -4.8984    0.0000 O   0  0  0  0  0  0  0  0  0  0  0  0
    3.2004   -6.3273    0.0000 O   0  0  0  0  0  0  0  0  0  0  0  0
    1.1387   -1.3654    0.0000 N   0  0  0  0  0  0  0  0  0  0  0  0
    1.9629   -5.6129    0.0000 N   0  0  0  0  0  0  0  0  0  0  0  0
   -0.5837    0.0165    0.0000 N   0  0  0  0  0  0  0  0  0  0  0  0
    1.1809   -3.5477    0.0000 N   0  0  0  0  0  0  0  0  0  0  0  0
   -1.4856    1.4847    0.0000 N   0  0  0  0  0  0  0  0  0  0  0  0
   -2.6417    0.8172    0.0000 N   0  0  0  0  0  0  0  0  0  0  0  0
   -2.0987    2.0367    0.0000 N   0  0  0  0  0  0  0  0  0  0  0  0
   -2.8132    1.6242    0.0000 N   0  0  0  0  0  0  0  0  0  0  0  0
    1.9233   -1.1104    0.0000 C   0  0  0  0  0  0  0  0  0  0  0  0
    0.6538   -0.6979    0.0000 C   0  0  3  0  0  0  0  0  0  0  0  0
    1.9233   -0.2854    0.0000 C   0  0  0  0  0  0  0  0  0  0  0  0
    1.1387   -0.0305    0.0000 C   0  0  0  0  0  0  0  0  0  0  0  0
    0.8838   -2.1500    0.0000 C   0  0  0  0  0  0  0  0  0  0  0  0
   -0.1712   -0.6979    0.0000 C   0  0  0  0  0  0  0  0  0  0  0  0
    2.6378   -1.5229    0.0000 C   0  0  0  0  0  0  0  0  0  0  0  0
    2.6378    0.1271    0.0000 C   0  0  0  0  0  0  0  0  0  0  0  0
    1.4358   -2.7631    0.0000 C   0  0  0  0  0  0  0  0  0  0  0  0
    1.4780   -4.9454    0.0000 C   0  0  3  0  0  0  0  0  0  0  0  0
    1.7329   -4.1608    0.0000 C   0  0  0  0  0  0  0  0  0  0  0  0
    3.3523   -1.1104    0.0000 C   0  0  0  0  0  0  0  0  0  0  0  0
    3.3523   -0.2854    0.0000 C   0  0  0  0  0  0  0  0  0  0  0  0
    0.6933   -5.2004    0.0000 C   0  0  0  0  0  0  0  0  0  0  0  0
    1.4780   -6.2803    0.0000 C   0  0  0  0  0  0  0  0  0  0  0  0
    2.7879   -5.6129    0.0000 C   0  0  0  0  0  0  0  0  0  0  0  0
   -1.4087    0.0165    0.0000 C   0  0  0  0  0  0  0  0  0  0  0  0
    0.6933   -6.0254    0.0000 C   0  0  0  0  0  0  0  0  0  0  0  0
   -1.8212    0.7310    0.0000 C   0  0  0  0  0  0  0  0  0  0  0  0
  1 18  2  0  0  0  0
  2 19  2  0  0  0  0
  3 24  2  0  0  0  0
  4 29  2  0  0  0  0
  5 29  1  0  0  0  0
  6 14  1  0  0  0  0
  6 15  1  0  0  0  0
  6 18  1  0  0  0  0
  7 23  1  0  0  0  0
  7 28  1  0  0  0  0
  7 29  1  0  0  0  0
  8 19  1  0  0  0  0
  8 30  1  0  0  0  0
  9 22  1  0  0  0  0
  9 24  1  0  0  0  0
 10 12  2  0  0  0  0
 10 32  1  0  0  0  0
 11 13  1  0  0  0  0
 11 32  2  0  0  0  0
 12 13  1  0  0  0  0
 14 16  1  0  0  0  0
 14 20  2  0  0  0  0
 15 17  1  0  0  0  0
 15 19  1  6  0  0  0
 16 17  1  0  0  0  0
 16 21  2  0  0  0  0
 18 22  1  0  0  0  0
 20 25  1  0  0  0  0
 21 26  1  0  0  0  0
 23 24  1  0  0  0  0
 23 27  1  0  0  0  0
 25 26  2  0  0  0  0
 27 31  1  0  0  0  0
 28 31  1  0  0  0  0
 30 32  1  0  0  0  0
M  END
> <PUBCHEM_COMPOUND_ID_TYPE>
0

> <PUBCHEM_TOTAL_CHARGE>
0

> <PUBCHEM_SUBSTANCE_ID>
310938216

> <PUBCHEM_SUBSTANCE_VERSION>
1

> <PUBCHEM_EXT_DATASOURCE_NAME>
4488

> <PUBCHEM_EXT_DATASOURCE_REGID>
SCHEMBL16116077

> <PUBCHEM_SUBSTANCE_COMMENT>
InChI=1S/C19H22N8O5/c28-16(10-21-17(29)13-6-3-7-26(13)19(31)32)27-12-5-2-1-4-11(12)8-14(27)18(30)20-9-15-22-24-25-23-15/h1-2,4-5,13-14H,3,6-10H2,(H,20,30)(H,21,29)(H,31,32)(H,22,23,24,25)/t13?,14-/m0/s1
InChIKey=HFBKHOHLIDKDMT-KZUDCZAMSA-N

> <PUBCHEM_SUBSTANCE_SYNONYM>
SCHEMBL16116077

> <PUBCHEM_XREF_EXT_ID>
SCHEMBL16116077

> <PUBCHEM_EXT_DATASOURCE_URL>
https://www.surechembl.org/

> <PUBCHEM_EXT_SUBSTANCE_URL>
https://www.surechembl.org/chemical/SCHEMBL16116077

> <PUBCHEM_CID_ASSOCIATIONS>
117605742  1

> <PUBCHEM_COORDINATE_TYPE>
1
3

> <PUBCHEM_BONDANNOTATIONS>
15  19  6

$$$$
