310944986
  -OEChem-07211613022D

 38 44  0     0  0  0  0  0  0999 V2000
    3.3476    3.4418    0.0000 O   0  0  0  0  0  0  0  0  0  0  0  0
   -3.2589    1.5352    0.0000 O   0  0  0  0  0  0  0  0  0  0  0  0
    1.8401    1.1140    0.0000 N   0  0  0  0  0  0  0  0  0  0  0  0
    4.0570    2.2003    0.0000 N   0  0  0  0  0  0  0  0  0  0  0  0
   -1.1196    2.0452    0.0000 N   0  0  0  0  0  0  0  0  0  0  0  0
   -2.7379   -1.4023    0.0000 N   0  0  0  0  0  0  0  0  0  0  0  0
   -3.4031    0.1164    0.0000 N   0  0  0  0  0  0  0  0  0  0  0  0
   -3.7134   -2.7546    0.0000 N   0  0  0  0  0  0  0  0  0  0  0  0
    4.0681    1.3579    0.0000 C   0  0  0  0  0  0  0  0  0  0  0  0
    2.6271    2.2003    0.0000 C   0  0  0  0  0  0  0  0  0  0  0  0
    2.6049    1.3690    0.0000 C   0  0  0  0  0  0  0  0  0  0  0  0
    1.8290    2.4553    0.0000 C   0  0  0  0  0  0  0  0  0  0  0  0
    1.3413    1.7902    0.0000 C   0  0  0  0  0  0  0  0  0  0  0  0
    3.3587    0.9589    0.0000 C   0  0  0  0  0  0  0  0  0  0  0  0
    3.3255    2.6105    0.0000 C   0  0  0  0  0  0  0  0  0  0  0  0
    0.5210    1.8789    0.0000 C   0  0  0  0  0  0  0  0  0  0  0  0
    4.8662    1.3579    0.0000 C   0  0  0  0  0  0  0  0  0  0  0  0
    4.4672    0.6706    0.0000 C   0  0  0  0  0  0  0  0  0  0  0  0
    0.1884    2.6326    0.0000 C   0  0  0  0  0  0  0  0  0  0  0  0
    1.4965    3.2091    0.0000 C   0  0  0  0  0  0  0  0  0  0  0  0
    0.0332    1.1916    0.0000 C   0  0  0  0  0  0  0  0  0  0  0  0
    0.6762    3.2978    0.0000 C   0  0  0  0  0  0  0  0  0  0  0  0
   -0.7981    1.3025    0.0000 C   0  0  0  0  0  0  0  0  0  0  0  0
   -0.6429    2.7102    0.0000 C   0  0  0  0  0  0  0  0  0  0  0  0
   -1.2858    0.6152    0.0000 C   0  0  0  0  0  0  0  0  0  0  0  0
   -2.5828    0.0277    0.0000 C   0  0  0  0  0  0  0  0  0  0  0  0
   -2.1061    0.6928    0.0000 C   0  0  0  0  0  0  0  0  0  0  0  0
   -2.2502   -0.7261    0.0000 C   0  0  0  0  0  0  0  0  0  0  0  0
   -0.9422   -0.1497    0.0000 C   0  0  0  0  0  0  0  0  0  0  0  0
   -1.4300   -0.8147    0.0000 C   0  0  0  0  0  0  0  0  0  0  0  0
   -3.5583   -1.3247    0.0000 C   0  0  0  0  0  0  0  0  0  0  0  0
   -2.4054   -2.1560    0.0000 C   0  0  0  0  0  0  0  0  0  0  0  0
   -3.7578    0.8591    0.0000 C   0  0  0  0  0  0  0  0  0  0  0  0
   -4.0460   -2.0119    0.0000 C   0  0  0  0  0  0  0  0  0  0  0  0
   -2.8931   -2.8433    0.0000 C   0  0  0  0  0  0  0  0  0  0  0  0
   -4.5670    0.9589    0.0000 C   0  0  0  0  0  0  0  0  0  0  0  0
   -4.2012   -3.4418    0.0000 C   0  0  0  0  0  0  0  0  0  0  0  0
   -4.8662    1.7570    0.0000 C   0  0  0  0  0  0  0  0  0  0  0  0
  1 15  2  0  0  0  0
  2 33  2  0  0  0  0
  3 11  1  0  0  0  0
  3 13  1  0  0  0  0
  4  9  1  0  0  0  0
  4 15  1  0  0  0  0
  5 23  1  0  0  0  0
  5 24  2  0  0  0  0
  6 28  1  0  0  0  0
  6 31  1  0  0  0  0
  6 32  1  0  0  0  0
  7 26  1  0  0  0  0
  7 33  1  0  0  0  0
  8 34  1  0  0  0  0
  8 35  1  0  0  0  0
  8 37  1  0  0  0  0
  9 14  1  0  0  0  0
  9 17  1  0  0  0  0
  9 18  1  0  0  0  0
 10 11  2  0  0  0  0
 10 12  1  0  0  0  0
 10 15  1  0  0  0  0
 11 14  1  0  0  0  0
 12 13  2  0  0  0  0
 12 20  1  0  0  0  0
 13 16  1  0  0  0  0
 16 19  2  0  0  0  0
 16 21  1  0  0  0  0
 17 18  1  0  0  0  0
 19 22  1  0  0  0  0
 19 24  1  0  0  0  0
 20 22  1  0  0  0  0
 21 23  2  0  0  0  0
 23 25  1  0  0  0  0
 25 27  2  0  0  0  0
 25 29  1  0  0  0  0
 26 27  1  0  0  0  0
 26 28  2  0  0  0  0
 28 30  1  0  0  0  0
 29 30  2  0  0  0  0
 31 34  1  0  0  0  0
 32 35  1  0  0  0  0
 33 36  1  0  0  0  0
 36 38  2  0  0  0  0
M  END
> <PUBCHEM_COMPOUND_ID_TYPE>
0

> <PUBCHEM_TOTAL_CHARGE>
0

> <PUBCHEM_SUBSTANCE_ID>
310944986

> <PUBCHEM_SUBSTANCE_VERSION>
1

> <PUBCHEM_EXT_DATASOURCE_NAME>
4488

> <PUBCHEM_EXT_DATASOURCE_REGID>
SCHEMBL16123074

> <PUBCHEM_SUBSTANCE_COMMENT>
InChI=1S/C30H32N6O2/c1-3-26(37)32-23-14-18(5-7-25(23)36-12-10-35(2)11-13-36)22-15-21-19(17-31-22)4-6-20-27-24(33-28(20)21)16-30(8-9-30)34-29(27)38/h3,5,7,14-15,17,33H,1,4,6,8-13,16H2,2H3,(H,32,37)(H,34,38)
InChIKey=CLCQTJAUFRUWCM-UHFFFAOYSA-N

> <PUBCHEM_SUBSTANCE_SYNONYM>
SCHEMBL16123074

> <PUBCHEM_XREF_EXT_ID>
SCHEMBL16123074

> <PUBCHEM_EXT_DATASOURCE_URL>
https://www.surechembl.org/

> <PUBCHEM_EXT_SUBSTANCE_URL>
https://www.surechembl.org/chemical/SCHEMBL16123074

> <PUBCHEM_CID_ASSOCIATIONS>
117611129  1

> <PUBCHEM_COORDINATE_TYPE>
1
3

$$$$
