310943847
  -OEChem-07211613022D

 33 37  0     1  0  0  0  0  0999 V2000
    2.4442   -0.0221    0.0000 O   0  0  0  0  0  0  0  0  0  0  0  0
    5.1036   -1.3573    0.0000 O   0  0  0  0  0  0  0  0  0  0  0  0
    5.4787    0.0662    0.0000 O   0  0  0  0  0  0  0  0  0  0  0  0
   -1.3186   -1.3242    0.0000 O   0  0  0  0  0  0  0  0  0  0  0  0
    2.9849   -1.3904    0.0000 N   0  0  0  0  0  0  0  0  0  0  0  0
    0.1490   -0.6069    0.0000 N   0  0  0  0  0  0  0  0  0  0  0  0
   -4.1657    1.1476    0.0000 N   0  0  0  0  0  0  0  0  0  0  0  0
   -2.7422   -0.4965    0.0000 N   0  0  0  0  0  0  0  0  0  0  0  0
   -4.9271    0.8165    0.0000 N   0  0  0  0  0  0  0  0  0  0  0  0
   -5.4787    1.4235    0.0000 N   0  0  0  0  0  0  0  0  0  0  0  0
   -5.0594    2.1408    0.0000 N   0  0  0  0  0  0  0  0  0  0  0  0
    1.6608   -1.2469    0.0000 C   0  0  0  0  0  0  0  0  0  0  0  0
    2.3559   -0.8607    0.0000 C   0  0  0  0  0  0  0  0  0  0  0  0
    3.7684   -1.2028    0.0000 C   0  0  0  0  0  0  0  0  0  0  0  0
    1.8263   -2.0525    0.0000 C   0  0  0  0  0  0  0  0  0  0  0  0
    2.6428   -2.1408    0.0000 C   0  0  0  0  0  0  0  0  0  0  0  0
    0.9876   -1.7324    0.0000 C   0  0  0  0  0  0  0  0  0  0  0  0
    1.5614   -0.4304    0.0000 C   0  0  0  0  0  0  0  0  0  0  0  0
    4.1215   -0.4524    0.0000 C   0  0  0  0  0  0  0  0  0  0  0  0
    4.4084   -1.7655    0.0000 C   0  0  0  0  0  0  0  0  0  0  0  0
    4.9160   -0.5738    0.0000 C   0  0  0  0  0  0  0  0  0  0  0  0
    0.2373   -1.4014    0.0000 C   0  0  0  0  0  0  0  0  0  0  0  0
    0.8000   -0.1104    0.0000 C   0  0  0  0  0  0  0  0  0  0  0  0
   -0.6124   -0.0772    0.0000 C   0  0  0  0  0  0  0  0  0  0  0  0
   -1.3076   -0.4855    0.0000 C   0  0  3  0  0  0  0  0  0  0  0  0
   -2.0359   -0.0772    0.0000 C   0  0  0  0  0  0  0  0  0  0  0  0
    3.6912    0.2649    0.0000 C   0  0  0  0  0  0  0  0  0  0  0  0
   -3.4484    0.7504    0.0000 C   0  0  0  0  0  0  0  0  0  0  0  0
   -2.0359    0.7504    0.0000 C   0  0  0  0  0  0  0  0  0  0  0  0
   -3.4594   -0.0772    0.0000 C   0  0  0  0  0  0  0  0  0  0  0  0
   -2.7532    1.1586    0.0000 C   0  0  0  0  0  0  0  0  0  0  0  0
   -4.2539    1.9753    0.0000 C   0  0  0  0  0  0  0  0  0  0  0  0
   -2.0249   -1.7435    0.0000 C   0  0  0  0  0  0  0  0  0  0  0  0
  1 13  2  0  0  0  0
  2 20  1  0  0  0  0
  2 21  1  0  0  0  0
  3 21  2  0  0  0  0
 25  4  1  6  0  0  0
  4 33  1  0  0  0  0
  5 13  1  0  0  0  0
  5 14  1  0  0  0  0
  5 16  1  0  0  0  0
  6 22  1  0  0  0  0
  6 23  1  0  0  0  0
  6 24  1  0  0  0  0
  7  9  1  0  0  0  0
  7 28  1  0  0  0  0
  7 32  1  0  0  0  0
  8 26  1  0  0  0  0
  8 30  2  0  0  0  0
  9 10  2  0  0  0  0
 10 11  1  0  0  0  0
 11 32  2  0  0  0  0
 12 13  1  0  0  0  0
 12 15  1  0  0  0  0
 12 17  1  0  0  0  0
 12 18  1  0  0  0  0
 14 19  2  0  0  0  0
 14 20  1  0  0  0  0
 15 16  1  0  0  0  0
 17 22  1  0  0  0  0
 18 23  1  0  0  0  0
 19 21  1  0  0  0  0
 19 27  1  0  0  0  0
 24 25  1  0  0  0  0
 25 26  1  0  0  0  0
 26 29  2  0  0  0  0
 28 30  1  0  0  0  0
 28 31  2  0  0  0  0
 29 31  1  0  0  0  0
M  END
> <PUBCHEM_COMPOUND_ID_TYPE>
0

> <PUBCHEM_TOTAL_CHARGE>
0

> <PUBCHEM_SUBSTANCE_ID>
310943847

> <PUBCHEM_SUBSTANCE_VERSION>
1

> <PUBCHEM_EXT_DATASOURCE_NAME>
4488

> <PUBCHEM_EXT_DATASOURCE_REGID>
SCHEMBL16121918

> <PUBCHEM_SUBSTANCE_COMMENT>
InChI=1S/C22H27N7O4/c1-15-18(13-33-20(15)30)28-10-7-22(21(28)31)5-8-27(9-6-22)12-19(32-2)17-4-3-16(11-23-17)29-14-24-25-26-29/h3-4,11,14,19H,5-10,12-13H2,1-2H3/t19-/m0/s1
InChIKey=KRKLDYHBVSMKHW-IBGZPJMESA-N

> <PUBCHEM_SUBSTANCE_SYNONYM>
SCHEMBL16121918

> <PUBCHEM_XREF_EXT_ID>
SCHEMBL16121918

> <PUBCHEM_EXT_DATASOURCE_URL>
https://www.surechembl.org/

> <PUBCHEM_EXT_SUBSTANCE_URL>
https://www.surechembl.org/chemical/SCHEMBL16121918

> <PUBCHEM_CID_ASSOCIATIONS>
117610185  1

> <PUBCHEM_COORDINATE_TYPE>
1
3

> <PUBCHEM_BONDANNOTATIONS>
25  4  6

$$$$
