310935713
  -OEChem-07211613022D

 31 35  0     0  0  0  0  0  0999 V2000
    0.0000   -8.0128    0.0000 Cl  0  0  0  0  0  0  0  0  0  0  0  0
    6.6506   -3.7660    0.0000 O   0  0  0  0  0  0  0  0  0  0  0  0
    1.5625   -0.8413    0.0000 N   0  0  0  0  0  0  0  0  0  0  0  0
    1.5625   -3.3253    0.0000 N   0  0  0  0  0  0  0  0  0  0  0  0
    0.2003   -5.0881    0.0000 N   0  0  0  0  0  0  0  0  0  0  0  0
    1.5225   -5.0881    0.0000 N   0  0  0  0  0  0  0  0  0  0  0  0
    0.8413   -2.0833    0.0000 N   0  0  0  0  0  0  0  0  0  0  0  0
    5.8894   -2.5240    0.0000 N   0  0  0  0  0  0  0  0  0  0  0  0
    2.2836   -2.0833    0.0000 C   0  0  0  0  0  0  0  0  0  0  0  0
    2.2836   -1.2420    0.0000 C   0  0  0  0  0  0  0  0  0  0  0  0
    1.5625   -2.4840    0.0000 C   0  0  0  0  0  0  0  0  0  0  0  0
    3.7260   -2.0833    0.0000 C   0  0  0  0  0  0  0  0  0  0  0  0
    3.0048   -0.8413    0.0000 C   0  0  0  0  0  0  0  0  0  0  0  0
    3.0048   -2.4840    0.0000 C   0  0  0  0  0  0  0  0  0  0  0  0
    0.4006   -5.8894    0.0000 C   0  0  0  0  0  0  0  0  0  0  0  0
    1.2821   -5.8894    0.0000 C   0  0  0  0  0  0  0  0  0  0  0  0
    3.7260   -1.2420    0.0000 C   0  0  0  0  0  0  0  0  0  0  0  0
    0.8413   -4.5673    0.0000 C   0  0  0  0  0  0  0  0  0  0  0  0
    4.4471   -2.4840    0.0000 C   0  0  0  0  0  0  0  0  0  0  0  0
    0.8413   -3.7660    0.0000 C   0  0  0  0  0  0  0  0  0  0  0  0
    0.8413   -1.2420    0.0000 C   0  0  0  0  0  0  0  0  0  0  0  0
    0.0000   -6.6106    0.0000 C   0  0  0  0  0  0  0  0  0  0  0  0
    1.6827   -6.6106    0.0000 C   0  0  0  0  0  0  0  0  0  0  0  0
    0.4006   -7.2917    0.0000 C   0  0  0  0  0  0  0  0  0  0  0  0
    5.2084   -2.0833    0.0000 C   0  0  0  0  0  0  0  0  0  0  0  0
    4.4872   -3.3253    0.0000 C   0  0  0  0  0  0  0  0  0  0  0  0
    1.2821   -7.2917    0.0000 C   0  0  0  0  0  0  0  0  0  0  0  0
    3.0048    0.0000    0.0000 C   0  0  0  0  0  0  0  0  0  0  0  0
    5.9295   -3.3654    0.0000 C   0  0  0  0  0  0  0  0  0  0  0  0
    5.1683   -3.7660    0.0000 C   0  0  0  0  0  0  0  0  0  0  0  0
    7.3718   -3.3253    0.0000 C   0  0  0  0  0  0  0  0  0  0  0  0
  1 24  1  0  0  0  0
  2 29  1  0  0  0  0
  2 31  1  0  0  0  0
  3 10  2  0  0  0  0
  3 21  1  0  0  0  0
  4 11  1  0  0  0  0
  4 20  1  0  0  0  0
  5 15  1  0  0  0  0
  5 18  2  0  0  0  0
  6 16  1  0  0  0  0
  6 18  1  0  0  0  0
  7 11  1  0  0  0  0
  7 21  2  0  0  0  0
  8 25  1  0  0  0  0
  8 29  2  0  0  0  0
  9 10  1  0  0  0  0
  9 11  2  0  0  0  0
  9 14  1  0  0  0  0
 10 13  1  0  0  0  0
 12 14  2  0  0  0  0
 12 17  1  0  0  0  0
 12 19  1  0  0  0  0
 13 17  2  0  0  0  0
 13 28  1  0  0  0  0
 15 16  2  0  0  0  0
 15 22  1  0  0  0  0
 16 23  1  0  0  0  0
 18 20  1  0  0  0  0
 19 25  2  0  0  0  0
 19 26  1  0  0  0  0
 22 24  2  0  0  0  0
 23 27  2  0  0  0  0
 24 27  1  0  0  0  0
 26 30  2  0  0  0  0
 29 30  1  0  0  0  0
M  END
> <PUBCHEM_COMPOUND_ID_TYPE>
0

> <PUBCHEM_TOTAL_CHARGE>
0

> <PUBCHEM_SUBSTANCE_ID>
310935713

> <PUBCHEM_SUBSTANCE_VERSION>
1

> <PUBCHEM_EXT_DATASOURCE_NAME>
4488

> <PUBCHEM_EXT_DATASOURCE_REGID>
SCHEMBL16113297

> <PUBCHEM_SUBSTANCE_COMMENT>
InChI=1S/C23H19ClN6O/c1-13-7-15(14-3-6-21(31-2)25-10-14)8-17-22(13)27-12-28-23(17)26-11-20-29-18-5-4-16(24)9-19(18)30-20/h3-10,12H,11H2,1-2H3,(H,29,30)(H,26,27,28)
InChIKey=ZNFYFUVQOSVKOQ-UHFFFAOYSA-N

> <PUBCHEM_SUBSTANCE_SYNONYM>
SCHEMBL16113297

> <PUBCHEM_XREF_EXT_ID>
SCHEMBL16113297

> <PUBCHEM_EXT_DATASOURCE_URL>
https://www.surechembl.org/

> <PUBCHEM_EXT_SUBSTANCE_URL>
https://www.surechembl.org/chemical/SCHEMBL16113297

> <PUBCHEM_CID_ASSOCIATIONS>
117603719  1

> <PUBCHEM_COORDINATE_TYPE>
1
3

$$$$
