310936195
  -OEChem-07211613022D

 19 20  0     0  0  0  0  0  0999 V2000
    2.9033   -3.1266    0.0000 S   0  0  0  0  0  0  0  0  0  0  0  0
    0.7147   -4.3103    0.0000 O   0  0  0  0  0  0  0  0  0  0  0  0
    4.6229   -2.9256    0.0000 N   0  0  0  0  0  0  0  0  0  0  0  0
    2.2333   -4.2879    0.0000 N   0  0  0  0  0  0  0  0  0  0  0  0
    1.4293   -3.0596    0.0000 N   0  0  0  0  0  0  0  0  0  0  0  0
    3.4393   -3.7520    0.0000 C   0  0  0  0  0  0  0  0  0  0  0  0
    2.1440   -3.4839    0.0000 C   0  0  0  0  0  0  0  0  0  0  0  0
    4.2656   -3.6626    0.0000 C   0  0  0  0  0  0  0  0  0  0  0  0
    3.0373   -4.4666    0.0000 C   0  0  0  0  0  0  0  0  0  0  0  0
    5.2929   -1.4293    0.0000 C   0  0  0  0  0  0  0  0  0  0  0  0
    4.1093   -2.2333    0.0000 C   0  0  0  0  0  0  0  0  0  0  0  0
    5.4046   -2.8363    0.0000 C   0  0  0  0  0  0  0  0  0  0  0  0
    4.4443   -1.4963    0.0000 C   0  0  0  0  0  0  0  0  0  0  0  0
    5.7619   -2.0993    0.0000 C   0  0  0  0  0  0  0  0  0  0  0  0
    5.6279   -0.6700    0.0000 C   0  0  0  0  0  0  0  0  0  0  0  0
    0.7147   -3.4839    0.0000 C   0  0  0  0  0  0  0  0  0  0  0  0
    0.0000   -3.0596    0.0000 C   0  0  0  0  0  0  0  0  0  0  0  0
    5.1590    0.0000    0.0000 C   0  0  0  0  0  0  0  0  0  0  0  0
    6.4543   -0.5807    0.0000 C   0  0  0  0  0  0  0  0  0  0  0  0
  1  6  1  0  0  0  0
  1  7  1  0  0  0  0
  2 16  2  0  0  0  0
  3  8  1  0  0  0  0
  3 11  1  0  0  0  0
  3 12  1  0  0  0  0
  4  7  2  0  0  0  0
  4  9  1  0  0  0  0
  5  7  1  0  0  0  0
  5 16  1  0  0  0  0
  6  8  1  0  0  0  0
  6  9  2  0  0  0  0
 10 13  1  0  0  0  0
 10 14  1  0  0  0  0
 10 15  1  0  0  0  0
 11 13  1  0  0  0  0
 12 14  1  0  0  0  0
 15 18  1  0  0  0  0
 15 19  1  0  0  0  0
 16 17  1  0  0  0  0
M  END
> <PUBCHEM_COMPOUND_ID_TYPE>
0

> <PUBCHEM_TOTAL_CHARGE>
0

> <PUBCHEM_SUBSTANCE_ID>
310936195

> <PUBCHEM_SUBSTANCE_VERSION>
1

> <PUBCHEM_EXT_DATASOURCE_NAME>
4488

> <PUBCHEM_EXT_DATASOURCE_REGID>
SCHEMBL16113807

> <PUBCHEM_SUBSTANCE_COMMENT>
InChI=1S/C14H23N3OS/c1-10(2)12-4-6-17(7-5-12)9-13-8-15-14(19-13)16-11(3)18/h8,10,12H,4-7,9H2,1-3H3,(H,15,16,18)
InChIKey=TUAFKWQWAZONID-UHFFFAOYSA-N

> <PUBCHEM_SUBSTANCE_SYNONYM>
SCHEMBL16113807

> <PUBCHEM_XREF_EXT_ID>
SCHEMBL16113807

> <PUBCHEM_EXT_DATASOURCE_URL>
https://www.surechembl.org/

> <PUBCHEM_EXT_SUBSTANCE_URL>
https://www.surechembl.org/chemical/SCHEMBL16113807

> <PUBCHEM_CID_ASSOCIATIONS>
86275052  1

> <PUBCHEM_COORDINATE_TYPE>
1
3

$$$$
