310942042
  -OEChem-07211613022D

 21 23  0     0  0  0  0  0  0999 V2000
    1.4674    2.1271    0.0000 O   0  0  0  0  0  0  0  0  0  0  0  0
    2.5495    1.1784    0.0000 O   0  0  0  0  0  0  0  0  0  0  0  0
   -0.5336   -1.0153    0.0000 N   0  0  0  0  0  0  0  0  0  0  0  0
    1.4674   -0.0963    0.0000 N   0  0  0  0  0  0  0  0  0  0  0  0
   -0.1334    0.2594    0.0000 C   0  0  0  0  0  0  0  0  0  0  0  0
    0.1038   -0.5114    0.0000 C   0  0  0  0  0  0  0  0  0  0  0  0
   -0.9635    0.2742    0.0000 C   0  0  0  0  0  0  0  0  0  0  0  0
   -1.2155   -0.5114    0.0000 C   0  0  0  0  0  0  0  0  0  0  0  0
    0.4150    0.8968    0.0000 C   0  0  0  0  0  0  0  0  0  0  0  0
    1.2007    0.7189    0.0000 C   0  0  0  0  0  0  0  0  0  0  0  0
    0.9190   -0.6892    0.0000 C   0  0  0  0  0  0  0  0  0  0  0  0
   -1.4971    0.8671    0.0000 C   0  0  0  0  0  0  0  0  0  0  0  0
   -2.0159   -0.6892    0.0000 C   0  0  0  0  0  0  0  0  0  0  0  0
   -0.5484   -1.8454    0.0000 C   0  0  0  0  0  0  0  0  0  0  0  0
    1.7343    1.3711    0.0000 C   0  0  0  0  0  0  0  0  0  0  0  0
   -2.2827    0.7189    0.0000 C   0  0  0  0  0  0  0  0  0  0  0  0
   -2.5495   -0.0815    0.0000 C   0  0  0  0  0  0  0  0  0  0  0  0
   -1.2303   -2.2456    0.0000 C   0  0  0  0  0  0  0  0  0  0  0  0
    0.6819    2.3050    0.0000 C   0  0  0  0  0  0  0  0  0  0  0  0
   -1.2303   -3.0905    0.0000 C   0  0  0  0  0  0  0  0  0  0  0  0
    0.4002    3.0905    0.0000 C   0  0  0  0  0  0  0  0  0  0  0  0
  1 15  1  0  0  0  0
  1 19  1  0  0  0  0
  2 15  2  0  0  0  0
  3  6  1  0  0  0  0
  3  8  1  0  0  0  0
  3 14  1  0  0  0  0
  4 10  1  0  0  0  0
  4 11  2  0  0  0  0
  5  6  2  0  0  0  0
  5  7  1  0  0  0  0
  5  9  1  0  0  0  0
  6 11  1  0  0  0  0
  7  8  1  0  0  0  0
  7 12  2  0  0  0  0
  8 13  2  0  0  0  0
  9 10  2  0  0  0  0
 10 15  1  0  0  0  0
 12 16  1  0  0  0  0
 13 17  1  0  0  0  0
 14 18  1  0  0  0  0
 16 17  2  0  0  0  0
 18 20  1  0  0  0  0
 19 21  1  0  0  0  0
M  END
> <PUBCHEM_COMPOUND_ID_TYPE>
0

> <PUBCHEM_TOTAL_CHARGE>
0

> <PUBCHEM_SUBSTANCE_ID>
310942042

> <PUBCHEM_SUBSTANCE_VERSION>
1

> <PUBCHEM_EXT_DATASOURCE_NAME>
4488

> <PUBCHEM_EXT_DATASOURCE_REGID>
SCHEMBL16120076

> <PUBCHEM_SUBSTANCE_COMMENT>
InChI=1S/C17H18N2O2/c1-3-9-19-15-8-6-5-7-12(15)13-10-14(17(20)21-4-2)18-11-16(13)19/h5-8,10-11H,3-4,9H2,1-2H3
InChIKey=OYLLMBBAOJOHCK-UHFFFAOYSA-N

> <PUBCHEM_SUBSTANCE_SYNONYM>
SCHEMBL16120076

> <PUBCHEM_XREF_EXT_ID>
SCHEMBL16120076

> <PUBCHEM_EXT_DATASOURCE_URL>
https://www.surechembl.org/

> <PUBCHEM_EXT_SUBSTANCE_URL>
https://www.surechembl.org/chemical/SCHEMBL16120076

> <PUBCHEM_CID_ASSOCIATIONS>
117608727  1

> <PUBCHEM_COORDINATE_TYPE>
1
3

$$$$
