310931083
  -OEChem-07211613022D

 18 20  0     0  0  0  0  0  0999 V2000
    0.0000   -1.9404    0.0000 O   0  0  0  0  0  0  0  0  0  0  0  0
    4.4905   -2.2730    0.0000 O   0  0  0  0  0  0  0  0  0  0  0  0
    5.5439   -0.8131    0.0000 O   0  0  0  0  0  0  0  0  0  0  0  0
    4.2318   -0.1663    0.0000 N   0  0  0  0  0  0  0  0  0  0  0  0
    0.4066   -2.6795    0.0000 N   0  0  0  0  0  0  0  0  0  0  0  0
    3.4372   -1.2566    0.0000 C   0  0  0  0  0  0  0  0  0  0  0  0
    2.0327   -1.2566    0.0000 C   0  0  0  0  0  0  0  0  0  0  0  0
    3.4372   -0.3881    0.0000 C   0  0  0  0  0  0  0  0  0  0  0  0
    1.3120   -1.6632    0.0000 C   0  0  0  0  0  0  0  0  0  0  0  0
    4.2318   -1.4784    0.0000 C   0  0  0  0  0  0  0  0  0  0  0  0
    2.7165   -1.6447    0.0000 C   0  0  0  0  0  0  0  0  0  0  0  0
    4.7308   -0.8131    0.0000 C   0  0  0  0  0  0  0  0  0  0  0  0
    0.5544   -1.3490    0.0000 C   0  0  0  0  0  0  0  0  0  0  0  0
    1.2197   -2.4763    0.0000 C   0  0  0  0  0  0  0  0  0  0  0  0
    2.0327   -0.3881    0.0000 C   0  0  0  0  0  0  0  0  0  0  0  0
    2.7165    0.0000    0.0000 C   0  0  0  0  0  0  0  0  0  0  0  0
    0.3696   -0.5359    0.0000 C   0  0  0  0  0  0  0  0  0  0  0  0
    1.8479   -3.0306    0.0000 C   0  0  0  0  0  0  0  0  0  0  0  0
  1  5  1  0  0  0  0
  1 13  1  0  0  0  0
  2 10  2  0  0  0  0
  3 12  2  0  0  0  0
  4  8  1  0  0  0  0
  4 12  1  0  0  0  0
  5 14  2  0  0  0  0
  6  8  2  0  0  0  0
  6 10  1  0  0  0  0
  6 11  1  0  0  0  0
  7  9  1  0  0  0  0
  7 11  2  0  0  0  0
  7 15  1  0  0  0  0
  8 16  1  0  0  0  0
  9 13  2  0  0  0  0
  9 14  1  0  0  0  0
 10 12  1  0  0  0  0
 13 17  1  0  0  0  0
 14 18  1  0  0  0  0
 15 16  2  0  0  0  0
M  END
> <PUBCHEM_COMPOUND_ID_TYPE>
0

> <PUBCHEM_TOTAL_CHARGE>
0

> <PUBCHEM_SUBSTANCE_ID>
310931083

> <PUBCHEM_SUBSTANCE_VERSION>
1

> <PUBCHEM_EXT_DATASOURCE_NAME>
4488

> <PUBCHEM_EXT_DATASOURCE_REGID>
SCHEMBL16108386

> <PUBCHEM_SUBSTANCE_COMMENT>
InChI=1S/C13H10N2O3/c1-6-11(7(2)18-15-6)8-3-4-10-9(5-8)12(16)13(17)14-10/h3-5H,1-2H3,(H,14,16,17)
InChIKey=ICZLXVUHQIUDAC-UHFFFAOYSA-N

> <PUBCHEM_SUBSTANCE_SYNONYM>
SCHEMBL16108386

> <PUBCHEM_XREF_EXT_ID>
SCHEMBL16108386

> <PUBCHEM_EXT_DATASOURCE_URL>
https://www.surechembl.org/

> <PUBCHEM_EXT_SUBSTANCE_URL>
https://www.surechembl.org/chemical/SCHEMBL16108386

> <PUBCHEM_CID_ASSOCIATIONS>
117599985  1

> <PUBCHEM_COORDINATE_TYPE>
1
3

$$$$
