310935477
  -OEChem-07211613022D

 17 17  0     0  0  0  0  0  0999 V2000
    3.7128   -1.4206    0.0000 O   0  0  0  0  0  0  0  0  0  0  0  0
    2.4698   -0.7103    0.0000 O   0  0  0  0  0  0  0  0  0  0  0  0
    2.4698   -2.1308    0.0000 N   0  0  0  0  0  0  0  0  0  0  0  0
    1.6465   -0.7103    0.0000 N   0  0  0  0  0  0  0  0  0  0  0  0
    1.6465   -2.1308    0.0000 C   0  0  0  0  0  0  0  0  0  0  0  0
    2.8895   -1.4206    0.0000 C   0  0  0  0  0  0  0  0  0  0  0  0
    1.2268   -1.4206    0.0000 C   0  0  0  0  0  0  0  0  0  0  0  0
    4.1164   -0.7103    0.0000 C   0  0  0  0  0  0  0  0  0  0  0  0
    1.2268   -2.8412    0.0000 C   0  0  0  0  0  0  0  0  0  0  0  0
    2.8895   -2.8412    0.0000 C   0  0  0  0  0  0  0  0  0  0  0  0
    0.4197   -1.4206    0.0000 C   0  0  0  0  0  0  0  0  0  0  0  0
    0.4197   -2.8412    0.0000 C   0  0  0  0  0  0  0  0  0  0  0  0
    0.0000   -2.1308    0.0000 C   0  0  0  0  0  0  0  0  0  0  0  0
    4.8428   -1.1300    0.0000 C   0  0  0  0  0  0  0  0  0  0  0  0
    4.5199    0.0000    0.0000 C   0  0  0  0  0  0  0  0  0  0  0  0
    3.4061   -0.3067    0.0000 C   0  0  0  0  0  0  0  0  0  0  0  0
    3.7128   -2.8412    0.0000 C   0  0  0  0  0  0  0  0  0  0  0  0
  1  6  1  0  0  0  0
  1  8  1  0  0  0  0
  2  6  2  0  0  0  0
  3  5  1  0  0  0  0
  3  6  1  0  0  0  0
  3 10  1  0  0  0  0
  4  7  1  0  0  0  0
  5  7  1  0  0  0  0
  5  9  2  0  0  0  0
  7 11  2  0  0  0  0
  8 14  1  0  0  0  0
  8 15  1  0  0  0  0
  8 16  1  0  0  0  0
  9 12  1  0  0  0  0
 10 17  1  0  0  0  0
 11 13  1  0  0  0  0
 12 13  2  0  0  0  0
M  END
> <PUBCHEM_COMPOUND_ID_TYPE>
0

> <PUBCHEM_TOTAL_CHARGE>
0

> <PUBCHEM_SUBSTANCE_ID>
310935477

> <PUBCHEM_SUBSTANCE_VERSION>
1

> <PUBCHEM_EXT_DATASOURCE_NAME>
4488

> <PUBCHEM_EXT_DATASOURCE_REGID>
SCHEMBL16113033

> <PUBCHEM_SUBSTANCE_COMMENT>
InChI=1S/C13H20N2O2/c1-5-15(12(16)17-13(2,3)4)11-9-7-6-8-10(11)14/h6-9H,5,14H2,1-4H3
InChIKey=XQTZGKVSJOZVEH-UHFFFAOYSA-N

> <PUBCHEM_SUBSTANCE_SYNONYM>
SCHEMBL16113033

> <PUBCHEM_XREF_EXT_ID>
SCHEMBL16113033

> <PUBCHEM_EXT_DATASOURCE_URL>
https://www.surechembl.org/

> <PUBCHEM_EXT_SUBSTANCE_URL>
https://www.surechembl.org/chemical/SCHEMBL16113033

> <PUBCHEM_CID_ASSOCIATIONS>
62101478  1

> <PUBCHEM_COORDINATE_TYPE>
1
3

$$$$
