310941443
  -OEChem-07211613022D

 21 22  0     1  0  0  0  0  0999 V2000
   -3.0493   -2.2766    0.0000 Cl  0  0  0  0  0  0  0  0  0  0  0  0
    2.0282    1.2280    0.0000 O   0  0  0  0  0  0  0  0  0  0  0  0
    0.6393    1.6052    0.0000 O   0  0  0  0  0  0  0  0  0  0  0  0
    3.0033   -0.7497    0.0000 O   0  0  0  0  0  0  0  0  0  0  0  0
    0.0046   -2.1111    0.0000 N   0  0  0  0  0  0  0  0  0  0  0  0
    1.5960   -0.3541    0.0000 N   0  0  0  0  0  0  0  0  0  0  0  0
   -0.7773   -0.9980    0.0000 C   0  0  0  0  0  0  0  0  0  0  0  0
    0.0046   -0.7405    0.0000 C   0  0  0  0  0  0  0  0  0  0  0  0
   -0.7865   -1.8076    0.0000 C   0  0  0  0  0  0  0  0  0  0  0  0
    0.2254    0.0598    0.0000 C   0  0  0  0  0  0  0  0  0  0  0  0
    0.4830   -1.4212    0.0000 C   0  0  0  0  0  0  0  0  0  0  0  0
    1.0072    0.2713    0.0000 C   0  0  3  0  0  0  0  0  0  0  0  0
   -1.5040   -0.5934    0.0000 C   0  0  0  0  0  0  0  0  0  0  0  0
   -1.4948   -2.2306    0.0000 C   0  0  0  0  0  0  0  0  0  0  0  0
   -2.2214   -1.8167    0.0000 C   0  0  0  0  0  0  0  0  0  0  0  0
    1.2371    1.0624    0.0000 C   0  0  0  0  0  0  0  0  0  0  0  0
   -2.2030   -0.9980    0.0000 C   0  0  0  0  0  0  0  0  0  0  0  0
    2.4147   -0.1702    0.0000 C   0  0  0  0  0  0  0  0  0  0  0  0
    2.2398    2.0743    0.0000 C   0  0  0  0  0  0  0  0  0  0  0  0
    2.6170    0.6209    0.0000 C   0  0  0  0  0  0  0  0  0  0  0  0
    3.0493    2.2766    0.0000 C   0  0  0  0  0  0  0  0  0  0  0  0
  1 15  1  0  0  0  0
  2 16  1  0  0  0  0
  2 19  1  0  0  0  0
  3 16  2  0  0  0  0
  4 18  2  0  0  0  0
  5  9  1  0  0  0  0
  5 11  1  0  0  0  0
 12  6  1  1  0  0  0
  6 18  1  0  0  0  0
  7  8  1  0  0  0  0
  7  9  1  0  0  0  0
  7 13  2  0  0  0  0
  8 10  1  0  0  0  0
  8 11  2  0  0  0  0
  9 14  2  0  0  0  0
 10 12  1  0  0  0  0
 12 16  1  0  0  0  0
 13 17  1  0  0  0  0
 14 15  1  0  0  0  0
 15 17  2  0  0  0  0
 18 20  1  0  0  0  0
 19 21  1  0  0  0  0
M  END
> <PUBCHEM_COMPOUND_ID_TYPE>
0

> <PUBCHEM_TOTAL_CHARGE>
0

> <PUBCHEM_SUBSTANCE_ID>
310941443

> <PUBCHEM_SUBSTANCE_VERSION>
1

> <PUBCHEM_EXT_DATASOURCE_NAME>
4488

> <PUBCHEM_EXT_DATASOURCE_REGID>
SCHEMBL16119403

> <PUBCHEM_SUBSTANCE_COMMENT>
InChI=1S/C15H17ClN2O3/c1-3-21-15(20)14(18-9(2)19)6-10-8-17-13-7-11(16)4-5-12(10)13/h4-5,7-8,14,17H,3,6H2,1-2H3,(H,18,19)/t14-/m0/s1
InChIKey=YPEYSSLKACZPMG-AWEZNQCLSA-N

> <PUBCHEM_SUBSTANCE_SYNONYM>
SCHEMBL16119403

> <PUBCHEM_XREF_EXT_ID>
SCHEMBL16119403

> <PUBCHEM_EXT_DATASOURCE_URL>
https://www.surechembl.org/

> <PUBCHEM_EXT_SUBSTANCE_URL>
https://www.surechembl.org/chemical/SCHEMBL16119403

> <PUBCHEM_CID_ASSOCIATIONS>
86268121  1

> <PUBCHEM_COORDINATE_TYPE>
1
3

> <PUBCHEM_BONDANNOTATIONS>
12  6  5

$$$$
