310942921
  -OEChem-07211613022D

 29 32  0     0  0  0  0  0  0999 V2000
   -2.9666    1.6499    0.0000 O   0  0  0  0  0  0  0  0  0  0  0  0
    2.9600    1.6499    0.0000 O   0  0  0  0  0  0  0  0  0  0  0  0
    4.3921   -0.8250    0.0000 O   0  0  0  0  0  0  0  0  0  0  0  0
   -4.3921   -0.8250    0.0000 O   0  0  0  0  0  0  0  0  0  0  0  0
    1.4618    0.6731    0.0000 N   0  0  0  0  0  0  0  0  0  0  0  0
   -1.4618    0.6731    0.0000 N   0  0  0  0  0  0  0  0  0  0  0  0
    2.9666   -0.8184    0.0000 N   0  0  0  0  0  0  0  0  0  0  0  0
   -2.9666   -0.8184    0.0000 N   0  0  0  0  0  0  0  0  0  0  0  0
    3.6793    0.4158    0.0000 N   0  0  0  0  0  0  0  0  0  0  0  0
   -3.6793    0.4158    0.0000 N   0  0  0  0  0  0  0  0  0  0  0  0
    1.4618   -0.6600    0.0000 N   0  0  0  0  0  0  0  0  0  0  0  0
   -1.4618   -0.6600    0.0000 N   0  0  0  0  0  0  0  0  0  0  0  0
   -2.2406    0.4290    0.0000 C   0  0  0  0  0  0  0  0  0  0  0  0
    2.2406    0.4290    0.0000 C   0  0  0  0  0  0  0  0  0  0  0  0
   -2.2538   -0.3960    0.0000 C   0  0  0  0  0  0  0  0  0  0  0  0
    2.2406   -0.3960    0.0000 C   0  0  0  0  0  0  0  0  0  0  0  0
   -2.9732    0.8250    0.0000 C   0  0  0  0  0  0  0  0  0  0  0  0
    2.9600    0.8250    0.0000 C   0  0  0  0  0  0  0  0  0  0  0  0
    3.6596   -0.3893    0.0000 C   0  0  0  0  0  0  0  0  0  0  0  0
   -3.6727   -0.3893    0.0000 C   0  0  0  0  0  0  0  0  0  0  0  0
    0.9800    0.0066    0.0000 C   0  0  0  0  0  0  0  0  0  0  0  0
   -0.9866    0.0066    0.0000 C   0  0  0  0  0  0  0  0  0  0  0  0
   -0.7293    1.2672    0.0000 C   0  0  0  0  0  0  0  0  0  0  0  0
    0.6963    1.2672    0.0000 C   0  0  0  0  0  0  0  0  0  0  0  0
   -0.0231    0.8580    0.0000 C   0  0  0  0  0  0  0  0  0  0  0  0
    2.9666   -1.6433    0.0000 C   0  0  0  0  0  0  0  0  0  0  0  0
   -2.9666   -1.6499    0.0000 C   0  0  0  0  0  0  0  0  0  0  0  0
    4.4252    0.8250    0.0000 C   0  0  0  0  0  0  0  0  0  0  0  0
   -4.4252    0.8051    0.0000 C   0  0  0  0  0  0  0  0  0  0  0  0
  1 17  2  0  0  0  0
  2 18  2  0  0  0  0
  3 19  2  0  0  0  0
  4 20  2  0  0  0  0
  5 14  1  0  0  0  0
  5 21  1  0  0  0  0
  5 24  1  0  0  0  0
  6 13  1  0  0  0  0
  6 22  1  0  0  0  0
  6 23  1  0  0  0  0
  7 16  1  0  0  0  0
  7 19  1  0  0  0  0
  7 26  1  0  0  0  0
  8 15  1  0  0  0  0
  8 20  1  0  0  0  0
  8 27  1  0  0  0  0
  9 18  1  0  0  0  0
  9 19  1  0  0  0  0
  9 28  1  0  0  0  0
 10 17  1  0  0  0  0
 10 20  1  0  0  0  0
 10 29  1  0  0  0  0
 11 16  1  0  0  0  0
 11 21  2  0  0  0  0
 12 15  1  0  0  0  0
 12 22  2  0  0  0  0
 13 15  2  0  0  0  0
 13 17  1  0  0  0  0
 14 16  2  0  0  0  0
 14 18  1  0  0  0  0
 23 25  1  0  0  0  0
 24 25  1  0  0  0  0
M  END
> <PUBCHEM_COMPOUND_ID_TYPE>
0

> <PUBCHEM_TOTAL_CHARGE>
0

> <PUBCHEM_SUBSTANCE_ID>
310942921

> <PUBCHEM_SUBSTANCE_VERSION>
1

> <PUBCHEM_EXT_DATASOURCE_NAME>
4488

> <PUBCHEM_EXT_DATASOURCE_REGID>
SCHEMBL16120979

> <PUBCHEM_SUBSTANCE_COMMENT>
InChI=1S/C17H20N8O4/c1-20-12-10(14(26)22(3)16(20)28)24(8-18-12)6-5-7-25-9-19-13-11(25)15(27)23(4)17(29)21(13)2/h8-9H,5-7H2,1-4H3
InChIKey=DMZRIAKPKBNRAC-UHFFFAOYSA-N

> <PUBCHEM_SUBSTANCE_SYNONYM>
SCHEMBL16120979

> <PUBCHEM_XREF_EXT_ID>
SCHEMBL16120979

> <PUBCHEM_EXT_DATASOURCE_URL>
https://www.surechembl.org/

> <PUBCHEM_EXT_SUBSTANCE_URL>
https://www.surechembl.org/chemical/SCHEMBL16120979

> <PUBCHEM_CID_ASSOCIATIONS>
1257679  1

> <PUBCHEM_COORDINATE_TYPE>
1
3

$$$$
