310946054
  -OEChem-07211613022D

 44 46  0     1  0  0  0  0  0999 V2000
    5.0563    2.3961    0.0000 O   0  0  0  0  0  0  0  0  0  0  0  0
    3.6351    0.7380    0.0000 O   0  0  0  0  0  0  0  0  0  0  0  0
    1.4668    2.8334    0.0000 O   0  0  0  0  0  0  0  0  0  0  0  0
    2.1592   -1.7219    0.0000 O   0  0  0  0  0  0  0  0  0  0  0  0
    3.5805   -0.9019    0.0000 O   0  0  0  0  0  0  0  0  0  0  0  0
   -0.7198    0.7380    0.0000 O   0  0  0  0  0  0  0  0  0  0  0  0
   -2.8881    2.8334    0.0000 O   0  0  0  0  0  0  0  0  0  0  0  0
   -5.0563    2.4143    0.0000 O   0  0  0  0  0  0  0  0  0  0  0  0
    2.1774    1.5761    0.0000 N   0  0  0  0  0  0  0  0  0  0  0  0
    0.0091    1.9952    0.0000 N   0  0  0  0  0  0  0  0  0  0  0  0
   -2.1592    1.5761    0.0000 N   0  0  0  0  0  0  0  0  0  0  0  0
    4.3639    2.0134    0.0000 C   0  0  3  0  0  0  0  0  0  0  0  0
    3.6351    1.6125    0.0000 C   0  0  0  0  0  0  0  0  0  0  0  0
    5.0199    1.6125    0.0000 C   0  0  0  0  0  0  0  0  0  0  0  0
    2.8881    1.9952    0.0000 C   0  0  3  0  0  0  0  0  0  0  0  0
    3.6351    2.4326    0.0000 C   0  0  0  0  0  0  0  0  0  0  0  0
    2.9245    2.8516    0.0000 C   0  0  0  0  0  0  0  0  0  0  0  0
    1.4486    1.9952    0.0000 C   0  0  0  0  0  0  0  0  0  0  0  0
    0.7562    1.5943    0.0000 C   0  0  3  0  0  0  0  0  0  0  0  0
    3.6351    3.2707    0.0000 C   0  0  0  0  0  0  0  0  0  0  0  0
    0.7198    0.7380    0.0000 C   0  0  0  0  0  0  0  0  0  0  0  0
    1.4668    0.3371    0.0000 C   0  0  0  0  0  0  0  0  0  0  0  0
    2.1592   -0.8655    0.0000 C   0  0  0  0  0  0  0  0  0  0  0  0
    1.4668   -0.4829    0.0000 C   0  0  0  0  0  0  0  0  0  0  0  0
    2.8334   -0.4647    0.0000 C   0  0  0  0  0  0  0  0  0  0  0  0
   -0.7198    1.6125    0.0000 C   0  0  0  0  0  0  0  0  0  0  0  0
    3.7262    4.0906    0.0000 C   0  0  0  0  0  0  0  0  0  0  0  0
    4.4186    2.9427    0.0000 C   0  0  0  0  0  0  0  0  0  0  0  0
    2.1410    0.7198    0.0000 C   0  0  0  0  0  0  0  0  0  0  0  0
    2.8516    0.3371    0.0000 C   0  0  0  0  0  0  0  0  0  0  0  0
   -1.4486    1.9952    0.0000 C   0  0  3  0  0  0  0  0  0  0  0  0
    4.5462    4.2546    0.0000 C   0  0  0  0  0  0  0  0  0  0  0  0
    4.9470    3.5440    0.0000 C   0  0  0  0  0  0  0  0  0  0  0  0
   -2.8881    1.9952    0.0000 C   0  0  0  0  0  0  0  0  0  0  0  0
    2.8334   -2.1410    0.0000 C   0  0  0  0  0  0  0  0  0  0  0  0
   -1.4304    2.8152    0.0000 C   0  0  0  0  0  0  0  0  0  0  0  0
   -3.5805    1.5943    0.0000 C   0  0  0  0  0  0  0  0  0  0  0  0
   -4.3457    2.0134    0.0000 C   0  0  0  0  0  0  0  0  0  0  0  0
    3.5987   -1.7219    0.0000 C   0  0  0  0  0  0  0  0  0  0  0  0
    2.7970   -2.9791    0.0000 C   0  0  0  0  0  0  0  0  0  0  0  0
   -5.0563    1.5579    0.0000 C   0  0  0  0  0  0  0  0  0  0  0  0
   -4.3093    2.8516    0.0000 C   0  0  0  0  0  0  0  0  0  0  0  0
    3.5440   -3.4165    0.0000 C   0  0  0  0  0  0  0  0  0  0  0  0
    3.5076   -4.2546    0.0000 C   0  0  0  0  0  0  0  0  0  0  0  0
  1 12  1  0  0  0  0
  1 14  1  0  0  0  0
  2 13  2  0  0  0  0
  3 18  2  0  0  0  0
  4 23  1  0  0  0  0
  4 35  1  0  0  0  0
  5 25  1  0  0  0  0
  5 39  1  0  0  0  0
  6 26  2  0  0  0  0
  7 34  2  0  0  0  0
  8 38  1  0  0  0  0
 15  9  1  1  0  0  0
  9 18  1  0  0  0  0
 19 10  1  6  0  0  0
 10 26  1  0  0  0  0
 11 31  1  0  0  0  0
 11 34  1  0  0  0  0
 12 13  1  6  0  0  0
 12 14  1  0  0  0  0
 12 16  1  1  0  0  0
 13 15  1  0  0  0  0
 15 17  1  0  0  0  0
 17 20  1  0  0  0  0
 18 19  1  0  0  0  0
 19 21  1  0  0  0  0
 20 27  1  0  0  0  0
 20 28  1  0  0  0  0
 21 22  1  0  0  0  0
 22 24  1  0  0  0  0
 22 29  2  0  0  0  0
 23 24  2  0  0  0  0
 23 25  1  0  0  0  0
 25 30  2  0  0  0  0
 26 31  1  0  0  0  0
 27 32  1  0  0  0  0
 28 33  1  0  0  0  0
 29 30  1  0  0  0  0
 31 36  1  6  0  0  0
 32 33  1  0  0  0  0
 34 37  1  0  0  0  0
 35 40  1  0  0  0  0
 37 38  1  0  0  0  0
 38 41  1  0  0  0  0
 38 42  1  0  0  0  0
 40 43  1  0  0  0  0
 43 44  1  0  0  0  0
M  END
> <PUBCHEM_COMPOUND_ID_TYPE>
0

> <PUBCHEM_TOTAL_CHARGE>
0

> <PUBCHEM_SUBSTANCE_ID>
310946054

> <PUBCHEM_SUBSTANCE_VERSION>
1

> <PUBCHEM_EXT_DATASOURCE_NAME>
4488

> <PUBCHEM_EXT_DATASOURCE_REGID>
SCHEMBL16124160

> <PUBCHEM_SUBSTANCE_COMMENT>
InChI=1S/C33H51N3O8/c1-7-8-15-43-27-18-23(13-14-26(27)42-6)17-25(36-30(39)21(2)34-28(37)19-32(3,4)41)31(40)35-24(16-22-11-9-10-12-22)29(38)33(5)20-44-33/h13-14,18,21-22,24-25,41H,7-12,15-17,19-20H2,1-6H3,(H,34,37)(H,35,40)(H,36,39)/t21-,24+,25+,33-/m1/s1
InChIKey=TXZAIZSXRPORHY-APFZBOGUSA-N

> <PUBCHEM_SUBSTANCE_SYNONYM>
SCHEMBL16124160

> <PUBCHEM_XREF_EXT_ID>
SCHEMBL16124160

> <PUBCHEM_EXT_DATASOURCE_URL>
https://www.surechembl.org/

> <PUBCHEM_EXT_SUBSTANCE_URL>
https://www.surechembl.org/chemical/SCHEMBL16124160

> <PUBCHEM_CID_ASSOCIATIONS>
117612025  1

> <PUBCHEM_COORDINATE_TYPE>
1
3

> <PUBCHEM_BONDANNOTATIONS>
19  10  6
12  13  6
12  16  5
31  36  6
15  9  5

$$$$
