310933665
  -OEChem-07211613022D

 12 12  0     0  0  0  0  0  0999 V2000
    0.0000    0.0000    0.0000 S   0  0  0  0  0  0  0  0  0  0  0  0
    4.0918   -1.4346    0.0000 N   0  0  0  0  0  0  0  0  0  0  0  0
    1.2227   -0.7010    0.0000 N   0  0  0  0  0  0  0  0  0  0  0  0
    0.0000   -1.4183    0.0000 N   0  0  0  0  0  0  0  0  0  0  0  0
    2.4453   -1.4346    0.0000 C   0  0  0  0  0  0  0  0  0  0  0  0
    2.8529   -2.1355    0.0000 C   0  0  0  0  0  0  0  0  0  0  0  0
    2.8529   -0.7173    0.0000 C   0  0  0  0  0  0  0  0  0  0  0  0
    1.6302   -1.4183    0.0000 C   0  0  0  0  0  0  0  0  0  0  0  0
    3.6843   -2.1519    0.0000 C   0  0  0  0  0  0  0  0  0  0  0  0
    3.6843   -0.7336    0.0000 C   0  0  0  0  0  0  0  0  0  0  0  0
    0.4076   -0.7010    0.0000 C   0  0  0  0  0  0  0  0  0  0  0  0
    4.8906   -1.4346    0.0000 C   0  0  0  0  0  0  0  0  0  0  0  0
  1 11  2  0  0  0  0
  2  9  1  0  0  0  0
  2 10  1  0  0  0  0
  2 12  1  0  0  0  0
  3  8  1  0  0  0  0
  3 11  1  0  0  0  0
  4 11  1  0  0  0  0
  5  6  1  0  0  0  0
  5  7  1  0  0  0  0
  5  8  1  0  0  0  0
  6  9  1  0  0  0  0
  7 10  1  0  0  0  0
M  END
> <PUBCHEM_COMPOUND_ID_TYPE>
0

> <PUBCHEM_TOTAL_CHARGE>
0

> <PUBCHEM_SUBSTANCE_ID>
310933665

> <PUBCHEM_SUBSTANCE_VERSION>
1

> <PUBCHEM_EXT_DATASOURCE_NAME>
4488

> <PUBCHEM_EXT_DATASOURCE_REGID>
SCHEMBL16111098

> <PUBCHEM_SUBSTANCE_COMMENT>
InChI=1S/C8H17N3S/c1-11-4-2-7(3-5-11)6-10-8(9)12/h7H,2-6H2,1H3,(H3,9,10,12)
InChIKey=FJJGGOBFDHBEKZ-UHFFFAOYSA-N

> <PUBCHEM_SUBSTANCE_SYNONYM>
SCHEMBL16111098

> <PUBCHEM_XREF_EXT_ID>
SCHEMBL16111098

> <PUBCHEM_EXT_DATASOURCE_URL>
https://www.surechembl.org/

> <PUBCHEM_EXT_SUBSTANCE_URL>
https://www.surechembl.org/chemical/SCHEMBL16111098

> <PUBCHEM_CID_ASSOCIATIONS>
61791068  1

> <PUBCHEM_COORDINATE_TYPE>
1
3

$$$$
