310940217
  -OEChem-07211613022D

 35 39  0     0  0  0  0  0  0999 V2000
   -1.2368   -4.1142    0.0000 Cl  0  0  0  0  0  0  0  0  0  0  0  0
   -0.1262   -2.8857    0.0000 F   0  0  0  0  0  0  0  0  0  0  0  0
   -3.3065    0.4627    0.0000 O   0  0  0  0  0  0  0  0  0  0  0  0
   -0.5300    0.3281    0.0000 N   0  0  0  0  0  0  0  0  0  0  0  0
   -0.8666   -0.4290    0.0000 N   0  0  0  0  0  0  0  0  0  0  0  0
   -2.2464   -0.9676    0.0000 N   0  0  0  0  0  0  0  0  0  0  0  0
   -2.5829    1.7079    0.0000 N   0  0  0  0  0  0  0  0  0  0  0  0
    0.9171    2.9026    0.0000 N   0  0  0  0  0  0  0  0  0  0  0  0
    2.4147    0.2104    0.0000 N   0  0  0  0  0  0  0  0  0  0  0  0
    0.2439    0.5300    0.0000 C   0  0  0  0  0  0  0  0  0  0  0  0
   -1.1695    0.8834    0.0000 C   0  0  0  0  0  0  0  0  0  0  0  0
   -1.8594    0.4795    0.0000 C   0  0  0  0  0  0  0  0  0  0  0  0
   -1.6911   -0.3281    0.0000 C   0  0  0  0  0  0  0  0  0  0  0  0
   -2.5829    0.9003    0.0000 C   0  0  0  0  0  0  0  0  0  0  0  0
   -0.2945    1.0854    0.0000 C   0  0  0  0  0  0  0  0  0  0  0  0
    1.0685    0.7320    0.0000 C   0  0  0  0  0  0  0  0  0  0  0  0
   -1.1527    1.7247    0.0000 C   0  0  0  0  0  0  0  0  0  0  0  0
    0.8162   -0.1262    0.0000 C   0  0  0  0  0  0  0  0  0  0  0  0
   -1.8930    2.1286    0.0000 C   0  0  0  0  0  0  0  0  0  0  0  0
   -0.0925    1.8930    0.0000 C   0  0  0  0  0  0  0  0  0  0  0  0
    1.2704    1.5228    0.0000 C   0  0  0  0  0  0  0  0  0  0  0  0
    0.6984    2.0949    0.0000 C   0  0  0  0  0  0  0  0  0  0  0  0
   -1.9940   -1.7415    0.0000 C   0  0  0  0  0  0  0  0  0  0  0  0
    1.6238    0.0589    0.0000 C   0  0  0  0  0  0  0  0  0  0  0  0
   -1.1863   -1.9267    0.0000 C   0  0  0  0  0  0  0  0  0  0  0  0
   -2.5324   -2.3473    0.0000 C   0  0  0  0  0  0  0  0  0  0  0  0
   -0.9339   -2.7007    0.0000 C   0  0  0  0  0  0  0  0  0  0  0  0
   -1.4891   -3.3233    0.0000 C   0  0  0  0  0  0  0  0  0  0  0  0
   -2.2800   -3.1382    0.0000 C   0  0  0  0  0  0  0  0  0  0  0  0
    1.6911    3.1382    0.0000 C   0  0  0  0  0  0  0  0  0  0  0  0
    2.3305    2.5493    0.0000 C   0  0  0  0  0  0  0  0  0  0  0  0
    1.9436    3.9122    0.0000 C   0  0  0  0  0  0  0  0  0  0  0  0
    3.1046    2.7680    0.0000 C   0  0  0  0  0  0  0  0  0  0  0  0
    2.7512    4.1142    0.0000 C   0  0  0  0  0  0  0  0  0  0  0  0
    3.3065    3.5589    0.0000 C   0  0  0  0  0  0  0  0  0  0  0  0
  1 28  1  0  0  0  0
  2 27  1  0  0  0  0
  3 14  2  0  0  0  0
  4  5  1  0  0  0  0
  4 10  1  0  0  0  0
  4 11  1  0  0  0  0
  5 13  2  0  0  0  0
  6 13  1  0  0  0  0
  6 23  1  0  0  0  0
  7 14  1  0  0  0  0
  7 19  1  0  0  0  0
 22  8  1  6  0  0  0
  8 30  1  0  0  0  0
  9 24  3  0  0  0  0
 10 15  1  0  0  0  0
 10 16  1  0  0  0  0
 10 18  1  6  0  0  0
 11 12  2  0  0  0  0
 11 17  1  0  0  0  0
 12 13  1  0  0  0  0
 12 14  1  0  0  0  0
 15 20  1  0  0  0  0
 16 21  1  0  0  0  0
 17 19  2  0  0  0  0
 18 24  1  0  0  0  0
 20 22  1  0  0  0  0
 21 22  1  0  0  0  0
 23 25  1  0  0  0  0
 23 26  2  0  0  0  0
 25 27  2  0  0  0  0
 26 29  1  0  0  0  0
 27 28  1  0  0  0  0
 28 29  2  0  0  0  0
 30 31  2  0  0  0  0
 30 32  1  0  0  0  0
 31 33  1  0  0  0  0
 32 34  2  0  0  0  0
 33 35  2  0  0  0  0
 34 35  1  0  0  0  0
M  END
> <PUBCHEM_COMPOUND_ID_TYPE>
0

> <PUBCHEM_TOTAL_CHARGE>
0

> <PUBCHEM_SUBSTANCE_ID>
310940217

> <PUBCHEM_SUBSTANCE_VERSION>
1

> <PUBCHEM_EXT_DATASOURCE_NAME>
4488

> <PUBCHEM_EXT_DATASOURCE_REGID>
SCHEMBL16118151

> <PUBCHEM_SUBSTANCE_COMMENT>
InChI=1S/C26H24ClFN6O/c27-20-7-6-19(16-21(20)28)32-24-23-22(10-15-30-25(23)35)34(33-24)26(13-14-29)11-8-18(9-12-26)31-17-4-2-1-3-5-17/h1-7,10,15-16,18,31H,8-9,11-13H2,(H,30,35)(H,32,33)/t18-,26-
InChIKey=JMOKBFLKPVDJME-AJHAWQTOSA-N

> <PUBCHEM_SUBSTANCE_SYNONYM>
SCHEMBL16118151

> <PUBCHEM_XREF_EXT_ID>
SCHEMBL16118151

> <PUBCHEM_EXT_DATASOURCE_URL>
https://www.surechembl.org/

> <PUBCHEM_EXT_SUBSTANCE_URL>
https://www.surechembl.org/chemical/SCHEMBL16118151

> <PUBCHEM_CID_ASSOCIATIONS>
90462672  1

> <PUBCHEM_COORDINATE_TYPE>
1
3

> <PUBCHEM_BONDANNOTATIONS>
10  18  6
22  8  6

$$$$
