310948262
  -OEChem-07211613022D

 36 40  0     1  0  0  0  0  0999 V2000
    2.8791   -4.9196    0.0000 F   0  0  0  0  0  0  0  0  0  0  0  0
    3.4008   -3.8387    0.0000 F   0  0  0  0  0  0  0  0  0  0  0  0
    1.8728   -4.3419    0.0000 F   0  0  0  0  0  0  0  0  0  0  0  0
   -2.6741   -2.7765    0.0000 O   0  0  0  0  0  0  0  0  0  0  0  0
    2.3573   -3.3170    0.0000 O   0  0  0  0  0  0  0  0  0  0  0  0
   -1.1646   -0.4100    0.0000 N   0  0  0  0  0  0  0  0  0  0  0  0
   -0.6616   -1.0808    0.0000 N   0  0  0  0  0  0  0  0  0  0  0  0
   -0.9038   -2.5716    0.0000 N   0  0  0  0  0  0  0  0  0  0  0  0
   -3.4008   -1.5094    0.0000 N   0  0  0  0  0  0  0  0  0  0  0  0
   -0.1584    2.7952    0.0000 N   0  0  0  0  0  0  0  0  0  0  0  0
    1.0156   -0.6895    0.0000 N   0  0  0  0  0  0  0  0  0  0  0  0
   -1.9660   -1.4908    0.0000 C   0  0  0  0  0  0  0  0  0  0  0  0
   -1.9287   -0.6522    0.0000 C   0  0  0  0  0  0  0  0  0  0  0  0
   -1.1646   -1.7516    0.0000 C   0  0  0  0  0  0  0  0  0  0  0  0
   -0.9038    0.4100    0.0000 C   0  0  3  0  0  0  0  0  0  0  0  0
   -2.6741   -1.9008    0.0000 C   0  0  0  0  0  0  0  0  0  0  0  0
   -0.0838    0.5776    0.0000 C   0  0  3  0  0  0  0  0  0  0  0  0
   -2.6741   -0.2422    0.0000 C   0  0  0  0  0  0  0  0  0  0  0  0
   -1.4442    1.0063    0.0000 C   0  0  0  0  0  0  0  0  0  0  0  0
   -3.3822   -0.6522    0.0000 C   0  0  0  0  0  0  0  0  0  0  0  0
   -0.0838   -2.7393    0.0000 C   0  0  0  0  0  0  0  0  0  0  0  0
    0.1584    1.3789    0.0000 C   0  0  0  0  0  0  0  0  0  0  0  0
   -0.3820    1.9939    0.0000 C   0  0  3  0  0  0  0  0  0  0  0  0
   -1.1833    1.8076    0.0000 C   0  0  0  0  0  0  0  0  0  0  0  0
    0.4752   -0.0746    0.0000 C   0  0  0  0  0  0  0  0  0  0  0  0
    0.1770   -3.5219    0.0000 C   0  0  0  0  0  0  0  0  0  0  0  0
    0.4752   -2.1243    0.0000 C   0  0  0  0  0  0  0  0  0  0  0  0
   -0.5870    3.5219    0.0000 C   0  0  3  0  0  0  0  0  0  0  0  0
    1.5373   -3.0748    0.0000 C   0  0  0  0  0  0  0  0  0  0  0  0
    0.0279    4.1369    0.0000 C   0  0  0  0  0  0  0  0  0  0  0  0
    0.9970   -3.6897    0.0000 C   0  0  0  0  0  0  0  0  0  0  0  0
    1.2765   -2.2921    0.0000 C   0  0  0  0  0  0  0  0  0  0  0  0
    0.2329    4.9196    0.0000 C   0  0  0  0  0  0  0  0  0  0  0  0
    0.7733    4.3419    0.0000 C   0  0  0  0  0  0  0  0  0  0  0  0
    2.6181   -4.1183    0.0000 C   0  0  0  0  0  0  0  0  0  0  0  0
   -1.4070    3.5406    0.0000 C   0  0  0  0  0  0  0  0  0  0  0  0
  1 35  1  0  0  0  0
  2 35  1  0  0  0  0
  3 35  1  0  0  0  0
  4 16  2  0  0  0  0
  5 29  1  0  0  0  0
  5 35  1  0  0  0  0
  6  7  1  0  0  0  0
  6 13  1  0  0  0  0
 15  6  1  1  0  0  0
  7 14  2  0  0  0  0
  8 14  1  0  0  0  0
  8 21  1  0  0  0  0
  9 16  1  0  0  0  0
  9 20  1  0  0  0  0
 23 10  1  1  0  0  0
 10 28  1  0  0  0  0
 11 25  3  0  0  0  0
 12 13  2  0  0  0  0
 12 14  1  0  0  0  0
 12 16  1  0  0  0  0
 13 18  1  0  0  0  0
 15 17  1  0  0  0  0
 15 19  1  0  0  0  0
 17 22  1  0  0  0  0
 17 25  1  6  0  0  0
 18 20  2  0  0  0  0
 19 24  1  0  0  0  0
 21 26  2  0  0  0  0
 21 27  1  0  0  0  0
 22 23  1  0  0  0  0
 23 24  1  0  0  0  0
 26 31  1  0  0  0  0
 27 32  2  0  0  0  0
 28 30  1  0  0  0  0
 28 36  1  1  0  0  0
 29 31  2  0  0  0  0
 29 32  1  0  0  0  0
 30 33  1  0  0  0  0
 30 34  1  0  0  0  0
 33 34  1  0  0  0  0
M  END
> <PUBCHEM_COMPOUND_ID_TYPE>
0

> <PUBCHEM_TOTAL_CHARGE>
0

> <PUBCHEM_SUBSTANCE_ID>
310948262

> <PUBCHEM_SUBSTANCE_VERSION>
1

> <PUBCHEM_EXT_DATASOURCE_NAME>
4488

> <PUBCHEM_EXT_DATASOURCE_REGID>
SCHEMBL16126439

> <PUBCHEM_SUBSTANCE_COMMENT>
InChI=1S/C25H27F3N6O2/c1-14(15-2-3-15)31-18-6-9-20(16(12-18)13-29)34-21-10-11-30-24(35)22(21)23(33-34)32-17-4-7-19(8-5-17)36-25(26,27)28/h4-5,7-8,10-11,14-16,18,20,31H,2-3,6,9,12H2,1H3,(H,30,35)(H,32,33)/t14-,16+,18+,20-/m0/s1
InChIKey=WARVMETXIBZNHI-UQWBFEFOSA-N

> <PUBCHEM_SUBSTANCE_SYNONYM>
SCHEMBL16126439

> <PUBCHEM_XREF_EXT_ID>
SCHEMBL16126439

> <PUBCHEM_EXT_DATASOURCE_URL>
https://www.surechembl.org/

> <PUBCHEM_EXT_SUBSTANCE_URL>
https://www.surechembl.org/chemical/SCHEMBL16126439

> <PUBCHEM_CID_ASSOCIATIONS>
117613842  1

> <PUBCHEM_COORDINATE_TYPE>
1
3

> <PUBCHEM_BONDANNOTATIONS>
23  10  5
17  25  6
28  36  5
15  6  5

$$$$
