310939986
  -OEChem-07211613022D

 20 21  0     0  0  0  0  0  0999 V2000
   -5.5951   -9.2200    0.0000 Br  0  0  0  0  0  0  0  0  0  0  0  0
   -5.5951  -10.8700    0.0000 Cl  0  0  0  0  0  0  0  0  0  0  0  0
   -2.7372  -10.8700    0.0000 O   0  0  0  0  0  0  0  0  0  0  0  0
   -1.3083   -8.3950    0.0000 O   0  0  0  0  0  0  0  0  0  0  0  0
   -2.0228   -9.6325    0.0000 N   0  0  0  0  0  0  0  0  0  0  0  0
    0.8351  -10.4575    0.0000 N   0  0  0  0  0  0  0  0  0  0  0  0
   -3.4517   -9.6325    0.0000 C   0  0  0  0  0  0  0  0  0  0  0  0
   -3.4517  -10.4575    0.0000 C   0  0  0  0  0  0  0  0  0  0  0  0
   -4.8806   -9.6325    0.0000 C   0  0  0  0  0  0  0  0  0  0  0  0
   -4.8806  -10.4575    0.0000 C   0  0  0  0  0  0  0  0  0  0  0  0
   -4.1662   -9.2200    0.0000 C   0  0  0  0  0  0  0  0  0  0  0  0
   -4.1662  -10.8700    0.0000 C   0  0  0  0  0  0  0  0  0  0  0  0
   -2.7372   -9.2200    0.0000 C   0  0  0  0  0  0  0  0  0  0  0  0
   -1.3083   -9.2200    0.0000 C   0  0  0  0  0  0  0  0  0  0  0  0
   -0.5938   -9.6325    0.0000 C   0  0  0  0  0  0  0  0  0  0  0  0
   -0.5938  -10.4575    0.0000 C   0  0  0  0  0  0  0  0  0  0  0  0
    0.1207   -9.2200    0.0000 C   0  0  0  0  0  0  0  0  0  0  0  0
    0.1207  -10.8700    0.0000 C   0  0  0  0  0  0  0  0  0  0  0  0
    0.8351   -9.6325    0.0000 C   0  0  0  0  0  0  0  0  0  0  0  0
   -1.7846  -10.3200    0.0000 C   0  0  0  0  0  0  0  0  0  0  0  0
  1  9  1  0  0  0  0
  2 10  1  0  0  0  0
  3  8  1  0  0  0  0
  3 20  1  0  0  0  0
  4 14  2  0  0  0  0
  5 13  1  0  0  0  0
  5 14  1  0  0  0  0
  6 18  1  0  0  0  0
  6 19  1  0  0  0  0
  7  8  1  0  0  0  0
  7 11  2  0  0  0  0
  7 13  1  0  0  0  0
  8 12  2  0  0  0  0
  9 10  2  0  0  0  0
  9 11  1  0  0  0  0
 10 12  1  0  0  0  0
 14 15  1  0  0  0  0
 15 16  1  0  0  0  0
 15 17  1  0  0  0  0
 16 18  1  0  0  0  0
 17 19  1  0  0  0  0
M  END
> <PUBCHEM_COMPOUND_ID_TYPE>
0

> <PUBCHEM_TOTAL_CHARGE>
0

> <PUBCHEM_SUBSTANCE_ID>
310939986

> <PUBCHEM_SUBSTANCE_VERSION>
1

> <PUBCHEM_EXT_DATASOURCE_NAME>
4488

> <PUBCHEM_EXT_DATASOURCE_REGID>
SCHEMBL16117916

> <PUBCHEM_SUBSTANCE_COMMENT>
InChI=1S/C14H18BrClN2O2/c1-20-13-7-12(16)11(15)6-10(13)8-18-14(19)9-2-4-17-5-3-9/h6-7,9,17H,2-5,8H2,1H3,(H,18,19)
InChIKey=KBIRSOKORFDZJK-UHFFFAOYSA-N

> <PUBCHEM_SUBSTANCE_SYNONYM>
SCHEMBL16117916

> <PUBCHEM_XREF_EXT_ID>
SCHEMBL16117916

> <PUBCHEM_EXT_DATASOURCE_URL>
https://www.surechembl.org/

> <PUBCHEM_EXT_SUBSTANCE_URL>
https://www.surechembl.org/chemical/SCHEMBL16117916

> <PUBCHEM_CID_ASSOCIATIONS>
117607152  1

> <PUBCHEM_COORDINATE_TYPE>
1
3

$$$$
