310942197
  -OEChem-07211613022D

 27 28  0     1  0  0  0  0  0999 V2000
    1.4433    0.8248    0.0000 Cl  0  0  0  0  0  0  0  0  0  0  0  0
   -0.0062   -1.6621    0.0000 F   0  0  0  0  0  0  0  0  0  0  0  0
    1.4309   -0.8373    0.0000 O   0  0  0  0  0  0  0  0  0  0  0  0
   -0.7436    2.0745    0.0000 O   0  0  0  0  0  0  0  0  0  0  0  0
   -2.9056    1.6621    0.0000 O   0  0  0  0  0  0  0  0  0  0  0  0
   -2.1558   -0.4125    0.0000 N   0  0  0  0  0  0  0  0  0  0  0  0
   -2.1683    2.0870    0.0000 N   0  0  0  0  0  0  0  0  0  0  0  0
   -0.7310   -0.4125    0.0000 C   0  0  0  0  0  0  0  0  0  0  0  0
   -0.0062   -0.8248    0.0000 C   0  0  0  0  0  0  0  0  0  0  0  0
    0.7061   -0.4125    0.0000 C   0  0  0  0  0  0  0  0  0  0  0  0
    0.7186    0.4249    0.0000 C   0  0  0  0  0  0  0  0  0  0  0  0
   -1.4433   -0.8248    0.0000 C   0  0  3  0  0  0  0  0  0  0  0  0
   -0.7186    0.4125    0.0000 C   0  0  0  0  0  0  0  0  0  0  0  0
    0.0062    0.8248    0.0000 C   0  0  0  0  0  0  0  0  0  0  0  0
    2.1558   -0.4125    0.0000 C   0  0  0  0  0  0  0  0  0  0  0  0
   -1.4559   -1.6746    0.0000 C   0  0  0  0  0  0  0  0  0  0  0  0
   -2.1558    0.4125    0.0000 C   0  0  3  0  0  0  0  0  0  0  0  0
    2.1682    0.4125    0.0000 C   0  0  0  0  0  0  0  0  0  0  0  0
    2.8931   -0.8248    0.0000 C   0  0  0  0  0  0  0  0  0  0  0  0
   -1.4433    0.8248    0.0000 C   0  0  0  0  0  0  0  0  0  0  0  0
    2.8931    0.8248    0.0000 C   0  0  0  0  0  0  0  0  0  0  0  0
    3.6054   -0.4125    0.0000 C   0  0  0  0  0  0  0  0  0  0  0  0
   -2.1433   -2.0870    0.0000 C   0  0  0  0  0  0  0  0  0  0  0  0
   -1.4559    1.6621    0.0000 C   0  0  0  0  0  0  0  0  0  0  0  0
    3.6054    0.4125    0.0000 C   0  0  0  0  0  0  0  0  0  0  0  0
   -2.8805    0.8248    0.0000 C   0  0  0  0  0  0  0  0  0  0  0  0
   -3.6054    2.0745    0.0000 C   0  0  0  0  0  0  0  0  0  0  0  0
  1 11  1  0  0  0  0
  2  9  1  0  0  0  0
  3 10  1  0  0  0  0
  3 15  1  0  0  0  0
  4 24  2  0  0  0  0
  5  7  1  0  0  0  0
  5 27  1  0  0  0  0
 12  6  1  1  0  0  0
  6 17  1  0  0  0  0
  7 24  1  0  0  0  0
  8  9  1  0  0  0  0
  8 12  1  0  0  0  0
  8 13  2  0  0  0  0
  9 10  2  0  0  0  0
 10 11  1  0  0  0  0
 11 14  2  0  0  0  0
 12 16  1  0  0  0  0
 13 14  1  0  0  0  0
 15 18  2  0  0  0  0
 15 19  1  0  0  0  0
 16 23  1  0  0  0  0
 17 20  1  0  0  0  0
 17 26  1  6  0  0  0
 18 21  1  0  0  0  0
 19 22  2  0  0  0  0
 20 24  1  0  0  0  0
 21 25  2  0  0  0  0
 22 25  1  0  0  0  0
M  END
> <PUBCHEM_COMPOUND_ID_TYPE>
0

> <PUBCHEM_TOTAL_CHARGE>
0

> <PUBCHEM_SUBSTANCE_ID>
310942197

> <PUBCHEM_SUBSTANCE_VERSION>
1

> <PUBCHEM_EXT_DATASOURCE_NAME>
4488

> <PUBCHEM_EXT_DATASOURCE_REGID>
SCHEMBL16120232

> <PUBCHEM_SUBSTANCE_COMMENT>
InChI=1S/C20H24ClFN2O3/c1-4-17(23-13(2)12-18(25)24-26-3)15-10-11-16(21)20(19(15)22)27-14-8-6-5-7-9-14/h5-11,13,17,23H,4,12H2,1-3H3,(H,24,25)/t13-,17-/m1/s1
InChIKey=FAJRERUZWSALNR-CXAGYDPISA-N

> <PUBCHEM_SUBSTANCE_SYNONYM>
SCHEMBL16120232

> <PUBCHEM_XREF_EXT_ID>
SCHEMBL16120232

> <PUBCHEM_EXT_DATASOURCE_URL>
https://www.surechembl.org/

> <PUBCHEM_EXT_SUBSTANCE_URL>
https://www.surechembl.org/chemical/SCHEMBL16120232

> <PUBCHEM_CID_ASSOCIATIONS>
117608848  1

> <PUBCHEM_COORDINATE_TYPE>
1
3

> <PUBCHEM_BONDANNOTATIONS>
17  26  6
12  6  5

$$$$
