310935678
  -OEChem-07211613022D

 20 21  0     0  0  0  0  0  0999 V2000
    0.0000   -2.4959    0.0000 F   0  0  0  0  0  0  0  0  0  0  0  0
    0.7260   -3.7211    0.0000 F   0  0  0  0  0  0  0  0  0  0  0  0
    0.7260   -2.0648    0.0000 F   0  0  0  0  0  0  0  0  0  0  0  0
    5.0598   -2.7228    0.0000 O   0  0  0  0  0  0  0  0  0  0  0  0
    6.1262   -0.4311    0.0000 O   0  0  0  0  0  0  0  0  0  0  0  0
    3.5623   -2.8816    0.0000 N   0  0  0  0  0  0  0  0  0  0  0  0
    4.7875    0.0000    0.0000 N   0  0  0  0  0  0  0  0  0  0  0  0
    4.2884   -1.6110    0.0000 C   0  0  0  0  0  0  0  0  0  0  0  0
    5.0598   -1.3841    0.0000 C   0  0  0  0  0  0  0  0  0  0  0  0
    4.2884   -2.4732    0.0000 C   0  0  0  0  0  0  0  0  0  0  0  0
    5.5589   -2.0421    0.0000 C   0  0  0  0  0  0  0  0  0  0  0  0
    3.5623   -1.2252    0.0000 C   0  0  0  0  0  0  0  0  0  0  0  0
    2.8589   -2.4732    0.0000 C   0  0  0  0  0  0  0  0  0  0  0  0
    5.3321   -0.6126    0.0000 C   0  0  0  0  0  0  0  0  0  0  0  0
    2.8589   -1.6110    0.0000 C   0  0  0  0  0  0  0  0  0  0  0  0
    6.3985   -2.0421    0.0000 C   0  0  0  0  0  0  0  0  0  0  0  0
    2.1555   -2.9043    0.0000 C   0  0  0  0  0  0  0  0  0  0  0  0
    0.7260   -2.9043    0.0000 C   0  0  0  0  0  0  0  0  0  0  0  0
    1.4295   -2.4732    0.0000 C   0  0  0  0  0  0  0  0  0  0  0  0
    6.8069   -1.3387    0.0000 C   0  0  0  0  0  0  0  0  0  0  0  0
  1 18  1  0  0  0  0
  2 18  1  0  0  0  0
  3 18  1  0  0  0  0
  4 10  1  0  0  0  0
  4 11  1  0  0  0  0
  5 14  2  0  0  0  0
  6 10  1  0  0  0  0
  6 13  2  0  0  0  0
  7 14  1  0  0  0  0
  8  9  1  0  0  0  0
  8 10  2  0  0  0  0
  8 12  1  0  0  0  0
  9 11  2  0  0  0  0
  9 14  1  0  0  0  0
 11 16  1  0  0  0  0
 12 15  2  0  0  0  0
 13 15  1  0  0  0  0
 13 17  1  0  0  0  0
 16 20  1  0  0  0  0
 17 19  1  0  0  0  0
 18 19  1  0  0  0  0
M  END
> <PUBCHEM_COMPOUND_ID_TYPE>
0

> <PUBCHEM_TOTAL_CHARGE>
0

> <PUBCHEM_SUBSTANCE_ID>
310935678

> <PUBCHEM_SUBSTANCE_VERSION>
1

> <PUBCHEM_EXT_DATASOURCE_NAME>
4488

> <PUBCHEM_EXT_DATASOURCE_REGID>
SCHEMBL16113260

> <PUBCHEM_SUBSTANCE_COMMENT>
InChI=1S/C13H13F3N2O2/c1-2-9-10(11(17)19)8-4-3-7(18-12(8)20-9)5-6-13(14,15)16/h3-4H,2,5-6H2,1H3,(H2,17,19)
InChIKey=UKLCWXOHQZJQNG-UHFFFAOYSA-N

> <PUBCHEM_SUBSTANCE_SYNONYM>
SCHEMBL16113260

> <PUBCHEM_XREF_EXT_ID>
SCHEMBL16113260

> <PUBCHEM_EXT_DATASOURCE_URL>
https://www.surechembl.org/

> <PUBCHEM_EXT_SUBSTANCE_URL>
https://www.surechembl.org/chemical/SCHEMBL16113260

> <PUBCHEM_CID_ASSOCIATIONS>
117603688  1

> <PUBCHEM_COORDINATE_TYPE>
1
3

$$$$
