310942959
  -OEChem-07211613022D

 35 39  0     1  0  0  0  0  0999 V2000
    3.4377   -0.6842    0.0000 F   0  0  0  0  0  0  0  0  0  0  0  0
   -2.8634   -1.0558    0.0000 O   0  0  0  0  0  0  0  0  0  0  0  0
   -1.4950    3.4715    0.0000 O   0  0  0  0  0  0  0  0  0  0  0  0
    2.4410   -0.5659    0.0000 O   0  0  0  0  0  0  0  0  0  0  0  0
   -1.3937    1.2923    0.0000 N   0  0  0  0  0  0  0  0  0  0  0  0
   -0.8869    0.6504    0.0000 N   0  0  0  0  0  0  0  0  0  0  0  0
   -1.0896   -0.8193    0.0000 N   0  0  0  0  0  0  0  0  0  0  0  0
   -3.6067    0.1605    0.0000 N   0  0  0  0  0  0  0  0  0  0  0  0
    3.0999   -3.6574    0.0000 N   0  0  0  0  0  0  0  0  0  0  0  0
    0.8024    1.1065    0.0000 N   0  0  0  0  0  0  0  0  0  0  0  0
   -2.1539    0.2111    0.0000 C   0  0  0  0  0  0  0  0  0  0  0  0
   -2.1708    1.0389    0.0000 C   0  0  0  0  0  0  0  0  0  0  0  0
   -1.3768   -0.0422    0.0000 C   0  0  0  0  0  0  0  0  0  0  0  0
   -1.1572    2.1201    0.0000 C   0  0  3  0  0  0  0  0  0  0  0  0
   -2.8803   -0.2111    0.0000 C   0  0  0  0  0  0  0  0  0  0  0  0
   -2.9140    1.4275    0.0000 C   0  0  0  0  0  0  0  0  0  0  0  0
    2.2046   -1.3430    0.0000 C   0  0  3  0  0  0  0  0  0  0  0  0
   -0.3463    2.2721    0.0000 C   0  0  3  0  0  0  0  0  0  0  0  0
   -0.2788   -0.9713    0.0000 C   0  0  0  0  0  0  0  0  0  0  0  0
    1.3599   -1.2079    0.0000 C   0  0  0  0  0  0  0  0  0  0  0  0
   -3.6236    1.0052    0.0000 C   0  0  0  0  0  0  0  0  0  0  0  0
   -1.7146    2.6775    0.0000 C   0  0  0  0  0  0  0  0  0  0  0  0
    2.4917   -2.0863    0.0000 C   0  0  0  0  0  0  0  0  0  0  0  0
    0.0422   -1.7316    0.0000 C   0  0  0  0  0  0  0  0  0  0  0  0
    0.2618   -0.3294    0.0000 C   0  0  0  0  0  0  0  0  0  0  0  0
    0.8531   -1.8498    0.0000 C   0  0  0  0  0  0  0  0  0  0  0  0
    1.0727   -0.4476    0.0000 C   0  0  0  0  0  0  0  0  0  0  0  0
   -0.1098    3.0830    0.0000 C   0  0  0  0  0  0  0  0  0  0  0  0
    3.0323   -1.3768    0.0000 C   0  0  0  0  0  0  0  0  0  0  0  0
    0.2281    1.6809    0.0000 C   0  0  0  0  0  0  0  0  0  0  0  0
   -0.6504    3.6574    0.0000 C   0  0  0  0  0  0  0  0  0  0  0  0
    1.9849   -2.7958    0.0000 C   0  0  0  0  0  0  0  0  0  0  0  0
    3.3195   -2.2383    0.0000 C   0  0  0  0  0  0  0  0  0  0  0  0
    2.2890   -3.5222    0.0000 C   0  0  0  0  0  0  0  0  0  0  0  0
    3.6236   -2.9985    0.0000 C   0  0  0  0  0  0  0  0  0  0  0  0
  1 29  1  0  0  0  0
  2 15  2  0  0  0  0
  3 22  1  0  0  0  0
  3 31  1  0  0  0  0
  4 17  1  0  0  0  0
  5  6  1  0  0  0  0
  5 12  1  0  0  0  0
 14  5  1  1  0  0  0
  6 13  2  0  0  0  0
  7 13  1  0  0  0  0
  7 19  1  0  0  0  0
  8 15  1  0  0  0  0
  8 21  1  0  0  0  0
  9 34  2  0  0  0  0
  9 35  1  0  0  0  0
 10 30  3  0  0  0  0
 11 12  2  0  0  0  0
 11 13  1  0  0  0  0
 11 15  1  0  0  0  0
 12 16  1  0  0  0  0
 14 18  1  0  0  0  0
 14 22  1  0  0  0  0
 16 21  2  0  0  0  0
 17 20  1  0  0  0  0
 17 23  1  0  0  0  0
 17 29  1  0  0  0  0
 18 28  1  0  0  0  0
 18 30  1  6  0  0  0
 19 24  2  0  0  0  0
 19 25  1  0  0  0  0
 20 26  2  0  0  0  0
 20 27  1  0  0  0  0
 23 32  2  0  0  0  0
 23 33  1  0  0  0  0
 24 26  1  0  0  0  0
 25 27  2  0  0  0  0
 28 31  1  0  0  0  0
 32 34  1  0  0  0  0
 33 35  2  0  0  0  0
M  END
> <PUBCHEM_COMPOUND_ID_TYPE>
0

> <PUBCHEM_TOTAL_CHARGE>
0

> <PUBCHEM_SUBSTANCE_ID>
310942959

> <PUBCHEM_SUBSTANCE_VERSION>
1

> <PUBCHEM_EXT_DATASOURCE_NAME>
4488

> <PUBCHEM_EXT_DATASOURCE_REGID>
SCHEMBL16121018

> <PUBCHEM_SUBSTANCE_COMMENT>
InChI=1S/C25H23FN6O3/c26-15-25(34,18-5-9-28-10-6-18)17-1-3-19(4-2-17)30-23-22-20(7-11-29-24(22)33)32(31-23)21-14-35-12-8-16(21)13-27/h1-7,9-11,16,21,34H,8,12,14-15H2,(H,29,33)(H,30,31)/t16-,21+,25?/m1/s1
InChIKey=MPYXSXQPYGZFJQ-NHERFWFWSA-N

> <PUBCHEM_SUBSTANCE_SYNONYM>
SCHEMBL16121018

> <PUBCHEM_XREF_EXT_ID>
SCHEMBL16121018

> <PUBCHEM_EXT_DATASOURCE_URL>
https://www.surechembl.org/

> <PUBCHEM_EXT_SUBSTANCE_URL>
https://www.surechembl.org/chemical/SCHEMBL16121018

> <PUBCHEM_CID_ASSOCIATIONS>
117609421  1

> <PUBCHEM_COORDINATE_TYPE>
1
3

> <PUBCHEM_BONDANNOTATIONS>
18  30  6
14  5  5

$$$$
