310934720
  -OEChem-07211613022D

 27 29  0     0  0  0  0  0  0999 V2000
    0.0000   -6.3417    0.0000 Cl  0  0  0  0  0  0  0  0  0  0  0  0
    3.7416   -0.5708    0.0000 S   0  0  0  0  0  0  0  0  0  0  0  0
    1.3634   -3.8367    0.0000 F   0  0  0  0  0  0  0  0  0  0  0  0
    5.4855   -3.3928    0.0000 O   0  0  0  0  0  0  0  0  0  0  0  0
    4.3440    0.0000    0.0000 O   0  0  0  0  0  0  0  0  0  0  0  0
    3.1391   -1.1732    0.0000 O   0  0  0  0  0  0  0  0  0  0  0  0
    3.5513   -4.9465    0.0000 O   0  0  0  0  0  0  0  0  0  0  0  0
    6.7222   -1.5854    0.0000 O   0  0  0  0  0  0  0  0  0  0  0  0
    4.8197   -2.7587    0.0000 N   0  0  0  0  0  0  0  0  0  0  0  0
    6.5002   -2.3781    0.0000 N   0  0  0  0  0  0  0  0  0  0  0  0
    4.1221   -4.3440    0.0000 N   0  0  0  0  0  0  0  0  0  0  0  0
    5.1368   -1.9977    0.0000 C   0  0  0  0  0  0  0  0  0  0  0  0
    4.3440   -1.1732    0.0000 C   0  0  0  0  0  0  0  0  0  0  0  0
    4.3440   -1.9977    0.0000 C   0  0  0  0  0  0  0  0  0  0  0  0
    5.1684   -1.1732    0.0000 C   0  0  0  0  0  0  0  0  0  0  0  0
    5.7075   -2.6001    0.0000 C   0  0  0  0  0  0  0  0  0  0  0  0
    3.9952   -2.8538    0.0000 C   0  0  0  0  0  0  0  0  0  0  0  0
    3.6782   -3.6148    0.0000 C   0  0  0  0  0  0  0  0  0  0  0  0
    2.8220   -4.6294    0.0000 C   0  0  0  0  0  0  0  0  0  0  0  0
    2.0928   -5.0417    0.0000 C   0  0  0  0  0  0  0  0  0  0  0  0
    2.8854   -3.8050    0.0000 C   0  0  0  0  0  0  0  0  0  0  0  0
    3.1708    0.0000    0.0000 C   0  0  0  0  0  0  0  0  0  0  0  0
    1.3952   -4.6611    0.0000 C   0  0  0  0  0  0  0  0  0  0  0  0
    2.1244   -5.8660    0.0000 C   0  0  0  0  0  0  0  0  0  0  0  0
    0.6976   -5.1050    0.0000 C   0  0  0  0  0  0  0  0  0  0  0  0
    0.6976   -5.8978    0.0000 C   0  0  0  0  0  0  0  0  0  0  0  0
    1.4269   -6.3100    0.0000 C   0  0  0  0  0  0  0  0  0  0  0  0
  1 26  1  0  0  0  0
  2  5  2  0  0  0  0
  2  6  2  0  0  0  0
  2 13  1  0  0  0  0
  2 22  1  0  0  0  0
  3 23  1  0  0  0  0
  4 16  2  0  0  0  0
  7 11  1  0  0  0  0
  7 19  1  0  0  0  0
  8 10  1  0  0  0  0
  9 12  1  0  0  0  0
  9 17  1  0  0  0  0
 10 16  1  0  0  0  0
 11 18  2  0  0  0  0
 12 14  1  0  0  0  0
 12 15  1  0  0  0  0
 12 16  1  0  0  0  0
 13 14  1  0  0  0  0
 13 15  1  0  0  0  0
 17 18  1  0  0  0  0
 18 21  1  0  0  0  0
 19 20  1  0  0  0  0
 19 21  2  0  0  0  0
 20 23  1  0  0  0  0
 20 24  2  0  0  0  0
 23 25  2  0  0  0  0
 24 27  1  0  0  0  0
 25 26  1  0  0  0  0
 26 27  2  0  0  0  0
M  END
> <PUBCHEM_COMPOUND_ID_TYPE>
0

> <PUBCHEM_TOTAL_CHARGE>
0

> <PUBCHEM_SUBSTANCE_ID>
310934720

> <PUBCHEM_SUBSTANCE_VERSION>
1

> <PUBCHEM_EXT_DATASOURCE_NAME>
4488

> <PUBCHEM_EXT_DATASOURCE_REGID>
SCHEMBL16112221

> <PUBCHEM_SUBSTANCE_COMMENT>
InChI=1S/C16H17ClFN3O5S/c1-27(24,25)11-6-16(7-11,15(22)20-23)19-8-10-5-14(26-21-10)12-3-2-9(17)4-13(12)18/h2-5,11,19,23H,6-8H2,1H3,(H,20,22)
InChIKey=YALBKQGVTSZQQO-UHFFFAOYSA-N

> <PUBCHEM_SUBSTANCE_SYNONYM>
SCHEMBL16112221

> <PUBCHEM_XREF_EXT_ID>
SCHEMBL16112221

> <PUBCHEM_EXT_DATASOURCE_URL>
https://www.surechembl.org/

> <PUBCHEM_EXT_SUBSTANCE_URL>
https://www.surechembl.org/chemical/SCHEMBL16112221

> <PUBCHEM_CID_ASSOCIATIONS>
117602877  1

> <PUBCHEM_COORDINATE_TYPE>
1
3

$$$$
