310930365
  -OEChem-07211613022D

 29 32  0     0  0  0  0  0  0999 V2000
    6.3976   -2.8554    0.0000 S   0  0  0  0  0  0  0  0  0  0  0  0
    2.2049   -7.0483    0.0000 O   0  0  0  0  0  0  0  0  0  0  0  0
    5.6025   -2.3856    0.0000 O   0  0  0  0  0  0  0  0  0  0  0  0
    7.0844   -3.2530    0.0000 O   0  0  0  0  0  0  0  0  0  0  0  0
    3.9037   -7.1206    0.0000 O   0  0  0  0  0  0  0  0  0  0  0  0
    6.3976   -1.4458    0.0000 N   0  0  0  0  0  0  0  0  0  0  0  0
    3.9037   -5.7109    0.0000 N   0  0  0  0  0  0  0  0  0  0  0  0
    0.0000   -6.8314    0.0000 N   0  0  0  0  0  0  0  0  0  0  0  0
    6.0000   -3.5422    0.0000 C   0  0  0  0  0  0  0  0  0  0  0  0
    6.8314   -2.1326    0.0000 C   0  0  0  0  0  0  0  0  0  0  0  0
    2.6747   -6.3976    0.0000 C   0  0  0  0  0  0  0  0  0  0  0  0
    1.4096   -6.8314    0.0000 C   0  0  0  0  0  0  0  0  0  0  0  0
    1.4096   -5.9639    0.0000 C   0  0  0  0  0  0  0  0  0  0  0  0
    2.2049   -5.7471    0.0000 C   0  0  0  0  0  0  0  0  0  0  0  0
    5.1687   -3.5422    0.0000 C   0  0  0  0  0  0  0  0  0  0  0  0
    6.3976   -4.2651    0.0000 C   0  0  0  0  0  0  0  0  0  0  0  0
    3.5061   -6.3976    0.0000 C   0  0  0  0  0  0  0  0  0  0  0  0
    5.1687   -4.9880    0.0000 C   0  0  0  0  0  0  0  0  0  0  0  0
    7.6627   -2.1687    0.0000 C   0  0  0  0  0  0  0  0  0  0  0  0
    4.7350   -4.2651    0.0000 C   0  0  0  0  0  0  0  0  0  0  0  0
    5.9639   -4.9519    0.0000 C   0  0  0  0  0  0  0  0  0  0  0  0
    6.7953   -0.7229    0.0000 C   0  0  0  0  0  0  0  0  0  0  0  0
    0.6868   -7.2290    0.0000 C   0  0  0  0  0  0  0  0  0  0  0  0
    0.6868   -5.5663    0.0000 C   0  0  0  0  0  0  0  0  0  0  0  0
    4.7350   -5.7109    0.0000 C   0  0  0  0  0  0  0  0  0  0  0  0
    8.0242   -1.4458    0.0000 C   0  0  0  0  0  0  0  0  0  0  0  0
    7.6627   -0.7229    0.0000 C   0  0  0  0  0  0  0  0  0  0  0  0
    0.0000   -5.9639    0.0000 C   0  0  0  0  0  0  0  0  0  0  0  0
    6.3976    0.0000    0.0000 C   0  0  0  0  0  0  0  0  0  0  0  0
  1  3  2  0  0  0  0
  1  4  2  0  0  0  0
  1  9  1  0  0  0  0
  1 10  1  0  0  0  0
  2 11  1  0  0  0  0
  2 12  1  0  0  0  0
  5 17  2  0  0  0  0
  6 10  1  0  0  0  0
  6 22  2  0  0  0  0
  7 17  1  0  0  0  0
  7 25  1  0  0  0  0
  8 23  1  0  0  0  0
  8 28  2  0  0  0  0
  9 15  2  0  0  0  0
  9 16  1  0  0  0  0
 10 19  2  0  0  0  0
 11 14  2  0  0  0  0
 11 17  1  0  0  0  0
 12 13  1  0  0  0  0
 12 23  2  0  0  0  0
 13 14  1  0  0  0  0
 13 24  2  0  0  0  0
 15 20  1  0  0  0  0
 16 21  2  0  0  0  0
 18 20  2  0  0  0  0
 18 21  1  0  0  0  0
 18 25  1  0  0  0  0
 19 26  1  0  0  0  0
 22 27  1  0  0  0  0
 22 29  1  0  0  0  0
 24 28  1  0  0  0  0
 26 27  2  0  0  0  0
M  END
> <PUBCHEM_COMPOUND_ID_TYPE>
0

> <PUBCHEM_TOTAL_CHARGE>
0

> <PUBCHEM_SUBSTANCE_ID>
310930365

> <PUBCHEM_SUBSTANCE_VERSION>
1

> <PUBCHEM_EXT_DATASOURCE_NAME>
4488

> <PUBCHEM_EXT_DATASOURCE_REGID>
SCHEMBL16107650

> <PUBCHEM_SUBSTANCE_COMMENT>
InChI=1S/C21H17N3O4S/c1-14-3-2-4-20(24-14)29(26,27)17-7-5-15(6-8-17)12-23-21(25)18-11-16-9-10-22-13-19(16)28-18/h2-11,13H,12H2,1H3,(H,23,25)
InChIKey=HUNKBSLMLDPSGX-UHFFFAOYSA-N

> <PUBCHEM_SUBSTANCE_SYNONYM>
SCHEMBL16107650

> <PUBCHEM_XREF_EXT_ID>
SCHEMBL16107650

> <PUBCHEM_EXT_DATASOURCE_URL>
https://www.surechembl.org/

> <PUBCHEM_EXT_SUBSTANCE_URL>
https://www.surechembl.org/chemical/SCHEMBL16107650

> <PUBCHEM_CID_ASSOCIATIONS>
117599523  1

> <PUBCHEM_COORDINATE_TYPE>
1
3

$$$$
