310932394
  -OEChem-07211613022D

 39 44  0     1  0  0  0  0  0999 V2000
    1.5674   -5.7832    0.0000 S   0  0  0  0  0  0  0  0  0  0  0  0
    5.7291   -7.2965    0.0000 F   0  0  0  0  0  0  0  0  0  0  0  0
    3.6753  -10.8097    0.0000 F   0  0  0  0  0  0  0  0  0  0  0  0
    4.9184   -5.7832    0.0000 O   0  0  0  0  0  0  0  0  0  0  0  0
    2.0539   -3.6212    0.0000 O   0  0  0  0  0  0  0  0  0  0  0  0
    0.8107    0.0000    0.0000 O   0  0  0  0  0  0  0  0  0  0  0  0
    2.8105   -5.0805    0.0000 N   0  0  0  0  0  0  0  0  0  0  0  0
    4.4860   -7.9451    0.0000 N   0  0  0  0  0  0  0  0  0  0  0  0
    3.2969   -2.9186    0.0000 N   0  0  0  0  0  0  0  0  0  0  0  0
    1.5674   -4.3239    0.0000 N   0  0  0  0  0  0  0  0  0  0  0  0
    2.4322  -10.1070    0.0000 N   0  0  0  0  0  0  0  0  0  0  0  0
    1.2431   -2.1619    0.0000 N   0  0  0  0  0  0  0  0  0  0  0  0
    3.2429   -5.7832    0.0000 C   0  0  3  0  0  0  0  0  0  0  0  0
    3.6753   -6.5398    0.0000 C   0  0  0  0  0  0  0  0  0  0  0  0
    3.6753   -5.0265    0.0000 C   0  0  0  0  0  0  0  0  0  0  0  0
    4.4860   -6.5398    0.0000 C   0  0  0  0  0  0  0  0  0  0  0  0
    4.4860   -5.0805    0.0000 C   0  0  0  0  0  0  0  0  0  0  0  0
    2.8105   -6.4858    0.0000 C   0  0  0  0  0  0  0  0  0  0  0  0
    3.2429   -7.2425    0.0000 C   0  0  0  0  0  0  0  0  0  0  0  0
    4.9184   -7.2425    0.0000 C   0  0  0  0  0  0  0  0  0  0  0  0
    3.2429   -4.3239    0.0000 C   0  0  0  0  0  0  0  0  0  0  0  0
    3.6212   -7.9451    0.0000 C   0  0  0  0  0  0  0  0  0  0  0  0
    1.9998   -5.0265    0.0000 C   0  0  0  0  0  0  0  0  0  0  0  0
    4.9184   -4.3239    0.0000 C   0  0  0  0  0  0  0  0  0  0  0  0
    3.6753   -3.6212    0.0000 C   0  0  0  0  0  0  0  0  0  0  0  0
    1.9998   -6.4858    0.0000 C   0  0  0  0  0  0  0  0  0  0  0  0
    3.2429   -8.6477    0.0000 C   0  0  0  0  0  0  0  0  0  0  0  0
    4.5401   -3.6212    0.0000 C   0  0  0  0  0  0  0  0  0  0  0  0
    3.6753   -9.3504    0.0000 C   0  0  0  0  0  0  0  0  0  0  0  0
    2.4322   -8.6477    0.0000 C   0  0  0  0  0  0  0  0  0  0  0  0
    2.4322   -2.9186    0.0000 C   0  0  0  0  0  0  0  0  0  0  0  0
    3.2429  -10.1070    0.0000 C   0  0  0  0  0  0  0  0  0  0  0  0
    2.0539   -2.1619    0.0000 C   0  0  0  0  0  0  0  0  0  0  0  0
    1.9998   -9.4044    0.0000 C   0  0  0  0  0  0  0  0  0  0  0  0
    2.4862   -1.4593    0.0000 C   0  0  0  0  0  0  0  0  0  0  0  0
    1.2431   -0.7567    0.0000 C   0  0  0  0  0  0  0  0  0  0  0  0
    0.8107   -1.4593    0.0000 C   0  0  0  0  0  0  0  0  0  0  0  0
    2.0539   -0.7567    0.0000 C   0  0  0  0  0  0  0  0  0  0  0  0
    0.0000    0.0000    0.0000 C   0  0  0  0  0  0  0  0  0  0  0  0
  1 23  1  0  0  0  0
  1 26  1  0  0  0  0
  2 20  1  0  0  0  0
  3 32  1  0  0  0  0
  4 16  1  0  0  0  0
  4 17  1  0  0  0  0
  5 31  2  0  0  0  0
  6 36  1  0  0  0  0
  6 39  1  0  0  0  0
 13  7  1  1  0  0  0
  7 23  2  0  0  0  0
  8 20  1  0  0  0  0
  8 22  2  0  0  0  0
  9 25  1  0  0  0  0
  9 31  1  0  0  0  0
 10 23  1  0  0  0  0
 11 32  1  0  0  0  0
 11 34  2  0  0  0  0
 12 33  1  0  0  0  0
 12 37  2  0  0  0  0
 13 14  1  0  0  0  0
 13 15  1  0  0  0  0
 13 18  1  0  0  0  0
 14 16  1  0  0  0  0
 14 19  2  0  0  0  0
 15 17  2  0  0  0  0
 15 21  1  0  0  0  0
 16 20  2  0  0  0  0
 17 24  1  0  0  0  0
 18 26  1  0  0  0  0
 19 22  1  0  0  0  0
 21 25  2  0  0  0  0
 22 27  1  0  0  0  0
 24 28  2  0  0  0  0
 25 28  1  0  0  0  0
 27 29  1  0  0  0  0
 27 30  2  0  0  0  0
 29 32  2  0  0  0  0
 30 34  1  0  0  0  0
 31 33  1  0  0  0  0
 33 35  2  0  0  0  0
 35 38  1  0  0  0  0
 36 37  1  0  0  0  0
 36 38  2  0  0  0  0
M  END
> <PUBCHEM_COMPOUND_ID_TYPE>
0

> <PUBCHEM_TOTAL_CHARGE>
0

> <PUBCHEM_SUBSTANCE_ID>
310932394

> <PUBCHEM_SUBSTANCE_VERSION>
1

> <PUBCHEM_EXT_DATASOURCE_NAME>
4488

> <PUBCHEM_EXT_DATASOURCE_REGID>
SCHEMBL16109762

> <PUBCHEM_SUBSTANCE_COMMENT>
InChI=1S/C27H20F2N6O3S/c1-37-16-3-4-19(32-13-16)25(36)33-15-2-5-21-17(11-15)27(7-9-39-26(30)35-27)18-12-20(34-24(29)23(18)38-21)14-6-8-31-22(28)10-14/h2-6,8,10-13H,7,9H2,1H3,(H2,30,35)(H,33,36)/t27-/m0/s1
InChIKey=ORGRRBHPTGGJBS-MHZLTWQESA-N

> <PUBCHEM_SUBSTANCE_SYNONYM>
SCHEMBL16109762

> <PUBCHEM_XREF_EXT_ID>
SCHEMBL16109762

> <PUBCHEM_EXT_DATASOURCE_URL>
https://www.surechembl.org/

> <PUBCHEM_EXT_SUBSTANCE_URL>
https://www.surechembl.org/chemical/SCHEMBL16109762

> <PUBCHEM_CID_ASSOCIATIONS>
71542423  1

> <PUBCHEM_COORDINATE_TYPE>
1
3

> <PUBCHEM_BONDANNOTATIONS>
13  7  5

$$$$
