310938547
  -OEChem-07211613022D

 16 18  0     0  0  0  0  0  0999 V2000
   -2.1210  -15.6441    0.0000 N   0  0  0  0  0  0  0  0  0  0  0  0
   -2.8355  -14.4066    0.0000 N   0  0  0  0  0  0  0  0  0  0  0  0
   -1.1106  -16.2274    0.0000 C   0  0  0  0  0  0  0  0  0  0  0  0
   -1.9075  -16.4410    0.0000 C   0  0  0  0  0  0  0  0  0  0  0  0
   -1.3241  -15.4306    0.0000 C   0  0  0  0  0  0  0  0  0  0  0  0
   -2.8355  -15.2316    0.0000 C   0  0  0  0  0  0  0  0  0  0  0  0
   -0.8970  -17.0243    0.0000 C   0  0  0  0  0  0  0  0  0  0  0  0
   -0.3137  -16.0139    0.0000 C   0  0  0  0  0  0  0  0  0  0  0  0
   -0.1002  -16.8108    0.0000 C   0  0  0  0  0  0  0  0  0  0  0  0
   -3.5499  -13.9941    0.0000 C   0  0  0  0  0  0  0  0  0  0  0  0
   -3.5499  -15.6441    0.0000 C   0  0  0  0  0  0  0  0  0  0  0  0
   -4.2644  -14.4066    0.0000 C   0  0  0  0  0  0  0  0  0  0  0  0
   -4.2644  -15.2316    0.0000 C   0  0  0  0  0  0  0  0  0  0  0  0
   -3.5499  -13.1691    0.0000 C   0  0  0  0  0  0  0  0  0  0  0  0
   -4.3749  -13.1691    0.0000 C   0  0  0  0  0  0  0  0  0  0  0  0
   -2.7249  -13.1691    0.0000 C   0  0  0  0  0  0  0  0  0  0  0  0
  1  4  1  0  0  0  0
  1  5  1  0  0  0  0
  1  6  1  0  0  0  0
  2  6  1  0  0  0  0
  2 10  2  0  0  0  0
  3  4  1  0  0  0  0
  3  5  1  0  0  0  0
  3  7  1  0  0  0  0
  3  8  1  0  0  0  0
  6 11  2  0  0  0  0
  7  9  1  0  0  0  0
  8  9  1  0  0  0  0
 10 12  1  0  0  0  0
 10 14  1  0  0  0  0
 11 13  1  0  0  0  0
 12 13  2  0  0  0  0
 14 15  1  0  0  0  0
 14 16  1  0  0  0  0
M  END
> <PUBCHEM_COMPOUND_ID_TYPE>
0

> <PUBCHEM_TOTAL_CHARGE>
0

> <PUBCHEM_SUBSTANCE_ID>
310938547

> <PUBCHEM_SUBSTANCE_VERSION>
1

> <PUBCHEM_EXT_DATASOURCE_NAME>
4488

> <PUBCHEM_EXT_DATASOURCE_REGID>
SCHEMBL16116461

> <PUBCHEM_SUBSTANCE_COMMENT>
InChI=1S/C14H20N2/c1-11(2)12-5-3-6-13(15-12)16-9-14(10-16)7-4-8-14/h3,5-6,11H,4,7-10H2,1-2H3
InChIKey=YLCJGBFDUAFWMI-UHFFFAOYSA-N

> <PUBCHEM_SUBSTANCE_SYNONYM>
SCHEMBL16116461

> <PUBCHEM_XREF_EXT_ID>
SCHEMBL16116461

> <PUBCHEM_EXT_DATASOURCE_URL>
https://www.surechembl.org/

> <PUBCHEM_EXT_SUBSTANCE_URL>
https://www.surechembl.org/chemical/SCHEMBL16116461

> <PUBCHEM_CID_ASSOCIATIONS>
117605987  1

> <PUBCHEM_COORDINATE_TYPE>
1
3

> <PUBCHEM_BONDANNOTATIONS>
14  15  3
14  16  3

$$$$
