310939402
  -OEChem-07211613022D

 23 26  0     0  0  0  0  0  0999 V2000
    1.0420    8.7781    0.0000 O   0  0  0  0  0  0  0  0  0  0  0  0
   -0.3275    4.4715    0.0000 N   0  0  0  0  0  0  0  0  0  0  0  0
    0.1574    5.1390    0.0000 N   0  0  0  0  0  0  0  0  0  0  0  0
   -1.8266    4.3140    0.0000 N   0  0  0  0  0  0  0  0  0  0  0  0
   -2.5411    5.5515    0.0000 N   0  0  0  0  0  0  0  0  0  0  0  0
    1.8266    7.6982    0.0000 N   0  0  0  0  0  0  0  0  0  0  0  0
   -1.8266    6.7890    0.0000 N   0  0  0  0  0  0  0  0  0  0  0  0
   -1.1122    5.5515    0.0000 C   0  0  0  0  0  0  0  0  0  0  0  0
   -0.3275    5.8064    0.0000 C   0  0  0  0  0  0  0  0  0  0  0  0
   -1.1122    4.7265    0.0000 C   0  0  0  0  0  0  0  0  0  0  0  0
   -0.1140    6.6033    0.0000 C   0  0  0  0  0  0  0  0  0  0  0  0
   -1.8266    5.9640    0.0000 C   0  0  0  0  0  0  0  0  0  0  0  0
    1.0420    7.4432    0.0000 C   0  0  0  0  0  0  0  0  0  0  0  0
    0.7065    6.6895    0.0000 C   0  0  0  0  0  0  0  0  0  0  0  0
    0.5571    8.1107    0.0000 C   0  0  0  0  0  0  0  0  0  0  0  0
   -0.1140    3.6747    0.0000 C   0  0  0  0  0  0  0  0  0  0  0  0
   -0.5989    7.2708    0.0000 C   0  0  0  0  0  0  0  0  0  0  0  0
   -0.2634    8.0244    0.0000 C   0  0  0  0  0  0  0  0  0  0  0  0
   -2.5411    4.7265    0.0000 C   0  0  0  0  0  0  0  0  0  0  0  0
    1.8266    8.5232    0.0000 C   0  0  0  0  0  0  0  0  0  0  0  0
   -0.6974    3.0913    0.0000 C   0  0  0  0  0  0  0  0  0  0  0  0
    0.6829    3.4611    0.0000 C   0  0  0  0  0  0  0  0  0  0  0  0
    2.5411    8.9357    0.0000 C   0  0  0  0  0  0  0  0  0  0  0  0
  1 15  1  0  0  0  0
  1 20  1  0  0  0  0
  2  3  1  0  0  0  0
  2 10  1  0  0  0  0
  2 16  1  0  0  0  0
  3  9  2  0  0  0  0
  4 10  1  0  0  0  0
  4 19  2  0  0  0  0
  5 12  2  0  0  0  0
  5 19  1  0  0  0  0
  6 13  1  0  0  0  0
  6 20  2  0  0  0  0
  7 12  1  0  0  0  0
  8  9  1  0  0  0  0
  8 10  2  0  0  0  0
  8 12  1  0  0  0  0
  9 11  1  0  0  0  0
 11 14  2  0  0  0  0
 11 17  1  0  0  0  0
 13 14  1  0  0  0  0
 13 15  2  0  0  0  0
 15 18  1  0  0  0  0
 16 21  1  0  0  0  0
 16 22  1  0  0  0  0
 17 18  2  0  0  0  0
 20 23  1  0  0  0  0
M  END
> <PUBCHEM_COMPOUND_ID_TYPE>
0

> <PUBCHEM_TOTAL_CHARGE>
0

> <PUBCHEM_SUBSTANCE_ID>
310939402

> <PUBCHEM_SUBSTANCE_VERSION>
1

> <PUBCHEM_EXT_DATASOURCE_NAME>
4488

> <PUBCHEM_EXT_DATASOURCE_REGID>
SCHEMBL16117323

> <PUBCHEM_SUBSTANCE_COMMENT>
InChI=1S/C16H16N6O/c1-8(2)22-16-13(15(17)18-7-19-16)14(21-22)10-4-5-12-11(6-10)20-9(3)23-12/h4-8H,1-3H3,(H2,17,18,19)
InChIKey=JUUFLLKHNYWHKP-UHFFFAOYSA-N

> <PUBCHEM_SUBSTANCE_SYNONYM>
SCHEMBL16117323

> <PUBCHEM_XREF_EXT_ID>
SCHEMBL16117323

> <PUBCHEM_EXT_DATASOURCE_URL>
https://www.surechembl.org/

> <PUBCHEM_EXT_SUBSTANCE_URL>
https://www.surechembl.org/chemical/SCHEMBL16117323

> <PUBCHEM_CID_ASSOCIATIONS>
117606729  1

> <PUBCHEM_COORDINATE_TYPE>
1
3

$$$$
