310943610
  -OEChem-07211613022D

 34 37  0     0  0  0  0  0  0999 V2000
    4.8097    1.4753    0.0000 F   0  0  0  0  0  0  0  0  0  0  0  0
    5.4919    0.9807    0.0000 F   0  0  0  0  0  0  0  0  0  0  0  0
   -4.0422   -1.0660    0.0000 O   0  0  0  0  0  0  0  0  0  0  0  0
    1.9102    1.5435    0.0000 O   0  0  0  0  0  0  0  0  0  0  0  0
   -5.4919    1.4753    0.0000 O   0  0  0  0  0  0  0  0  0  0  0  0
   -2.6095   -1.0660    0.0000 N   0  0  0  0  0  0  0  0  0  0  0  0
   -4.0422    0.6566    0.0000 N   0  0  0  0  0  0  0  0  0  0  0  0
    1.1086    0.2302    0.0000 N   0  0  0  0  0  0  0  0  0  0  0  0
    2.6266   -0.5032    0.0000 N   0  0  0  0  0  0  0  0  0  0  0  0
   -1.8932    0.1791    0.0000 C   0  0  0  0  0  0  0  0  0  0  0  0
   -3.3258    0.1791    0.0000 C   0  0  0  0  0  0  0  0  0  0  0  0
   -1.0574    0.6566    0.0000 C   0  0  0  0  0  0  0  0  0  0  0  0
   -3.3088   -0.6225    0.0000 C   0  0  0  0  0  0  0  0  0  0  0  0
   -2.6266    0.5714    0.0000 C   0  0  0  0  0  0  0  0  0  0  0  0
   -1.8932   -0.6396    0.0000 C   0  0  0  0  0  0  0  0  0  0  0  0
   -1.0404    1.4753    0.0000 C   0  0  0  0  0  0  0  0  0  0  0  0
   -0.3411    0.2473    0.0000 C   0  0  0  0  0  0  0  0  0  0  0  0
    0.3753    0.6566    0.0000 C   0  0  0  0  0  0  0  0  0  0  0  0
    2.6436    0.3326    0.0000 C   0  0  0  0  0  0  0  0  0  0  0  0
    4.0763    0.3326    0.0000 C   0  0  0  0  0  0  0  0  0  0  0  0
    1.8932    0.7078    0.0000 C   0  0  0  0  0  0  0  0  0  0  0  0
   -0.3581    1.8676    0.0000 C   0  0  0  0  0  0  0  0  0  0  0  0
    0.3753    1.4582    0.0000 C   0  0  0  0  0  0  0  0  0  0  0  0
    4.7585    0.6737    0.0000 C   0  0  0  0  0  0  0  0  0  0  0  0
    3.3258    0.7249    0.0000 C   0  0  0  0  0  0  0  0  0  0  0  0
   -4.0592    1.4753    0.0000 C   0  0  0  0  0  0  0  0  0  0  0  0
   -4.7585    0.2644    0.0000 C   0  0  0  0  0  0  0  0  0  0  0  0
    4.0592   -0.5032    0.0000 C   0  0  0  0  0  0  0  0  0  0  0  0
   -2.5924   -1.8847    0.0000 C   0  0  0  0  0  0  0  0  0  0  0  0
   -1.7738    1.8505    0.0000 C   0  0  0  0  0  0  0  0  0  0  0  0
    3.3600   -0.8954    0.0000 C   0  0  0  0  0  0  0  0  0  0  0  0
   -4.7927    1.8847    0.0000 C   0  0  0  0  0  0  0  0  0  0  0  0
   -5.4919    0.6737    0.0000 C   0  0  0  0  0  0  0  0  0  0  0  0
    5.4237    0.1791    0.0000 C   0  0  0  0  0  0  0  0  0  0  0  0
  1 24  1  0  0  0  0
  2 24  1  0  0  0  0
  3 13  2  0  0  0  0
  4 21  2  0  0  0  0
  5 32  1  0  0  0  0
  5 33  1  0  0  0  0
  6 13  1  0  0  0  0
  6 15  1  0  0  0  0
  6 29  1  0  0  0  0
  7 11  1  0  0  0  0
  7 26  1  0  0  0  0
  7 27  1  0  0  0  0
  8 18  1  0  0  0  0
  8 21  1  0  0  0  0
  9 19  2  0  0  0  0
  9 31  1  0  0  0  0
 10 12  1  0  0  0  0
 10 14  1  0  0  0  0
 10 15  2  0  0  0  0
 11 13  1  0  0  0  0
 11 14  2  0  0  0  0
 12 16  1  0  0  0  0
 12 17  2  0  0  0  0
 16 22  2  0  0  0  0
 16 30  1  0  0  0  0
 17 18  1  0  0  0  0
 18 23  2  0  0  0  0
 19 21  1  0  0  0  0
 19 25  1  0  0  0  0
 20 24  1  0  0  0  0
 20 25  2  0  0  0  0
 20 28  1  0  0  0  0
 22 23  1  0  0  0  0
 24 34  1  0  0  0  0
 26 32  1  0  0  0  0
 27 33  1  0  0  0  0
 28 31  2  0  0  0  0
M  END
> <PUBCHEM_COMPOUND_ID_TYPE>
0

> <PUBCHEM_TOTAL_CHARGE>
0

> <PUBCHEM_SUBSTANCE_ID>
310943610

> <PUBCHEM_SUBSTANCE_VERSION>
1

> <PUBCHEM_EXT_DATASOURCE_NAME>
4488

> <PUBCHEM_EXT_DATASOURCE_REGID>
SCHEMBL16121678

> <PUBCHEM_SUBSTANCE_COMMENT>
InChI=1S/C25H26F2N4O3/c1-16-4-5-19(29-23(32)21-13-18(6-7-28-21)25(2,26)27)14-20(16)17-12-22(24(33)30(3)15-17)31-8-10-34-11-9-31/h4-7,12-15H,8-11H2,1-3H3,(H,29,32)
InChIKey=JVJGDEKMUWPKOW-UHFFFAOYSA-N

> <PUBCHEM_SUBSTANCE_SYNONYM>
SCHEMBL16121678

> <PUBCHEM_XREF_EXT_ID>
SCHEMBL16121678

> <PUBCHEM_EXT_DATASOURCE_URL>
https://www.surechembl.org/

> <PUBCHEM_EXT_SUBSTANCE_URL>
https://www.surechembl.org/chemical/SCHEMBL16121678

> <PUBCHEM_CID_ASSOCIATIONS>
117610001  1

> <PUBCHEM_COORDINATE_TYPE>
1
3

$$$$
