310945094
  -OEChem-07211613022D

 41 45  0     0  0  0  0  0  0999 V2000
   -1.4582    2.3192    0.0000 Cl  0  0  0  0  0  0  0  0  0  0  0  0
   -4.8492   -1.3880    0.0000 S   0  0  0  0  0  0  0  0  0  0  0  0
    3.9180   -1.3001    0.0000 O   0  0  0  0  0  0  0  0  0  0  0  0
    3.1977   -2.5124    0.0000 O   0  0  0  0  0  0  0  0  0  0  0  0
   -5.0074   -2.6882    0.0000 N   0  0  0  0  0  0  0  0  0  0  0  0
    2.4422    2.6882    0.0000 N   0  0  0  0  0  0  0  0  0  0  0  0
   -1.1596    0.7028    0.0000 C   0  0  0  0  0  0  0  0  0  0  0  0
   -1.1772   -0.1054    0.0000 C   0  0  0  0  0  0  0  0  0  0  0  0
   -0.4393    1.1069    0.0000 C   0  0  0  0  0  0  0  0  0  0  0  0
   -1.9151    1.1069    0.0000 C   0  0  0  0  0  0  0  0  0  0  0  0
   -1.8975   -0.5095    0.0000 C   0  0  0  0  0  0  0  0  0  0  0  0
   -0.4393   -0.5095    0.0000 C   0  0  0  0  0  0  0  0  0  0  0  0
   -0.4393    1.9151    0.0000 C   0  0  0  0  0  0  0  0  0  0  0  0
   -2.7057    0.8961    0.0000 C   0  0  0  0  0  0  0  0  0  0  0  0
   -2.1259    1.8624    0.0000 C   0  0  0  0  0  0  0  0  0  0  0  0
    0.2635    0.7028    0.0000 C   0  0  0  0  0  0  0  0  0  0  0  0
   -2.6530   -0.1230    0.0000 C   0  0  0  0  0  0  0  0  0  0  0  0
   -1.9151   -1.3177    0.0000 C   0  0  0  0  0  0  0  0  0  0  0  0
   -0.4217   -1.3177    0.0000 C   0  0  0  0  0  0  0  0  0  0  0  0
    0.2635   -0.1230    0.0000 C   0  0  0  0  0  0  0  0  0  0  0  0
   -3.3558   -1.3177    0.0000 C   0  0  0  0  0  0  0  0  0  0  0  0
   -2.9166    1.6515    0.0000 C   0  0  0  0  0  0  0  0  0  0  0  0
    0.2811    2.2840    0.0000 C   0  0  0  0  0  0  0  0  0  0  0  0
    1.0191    1.9151    0.0000 C   0  0  0  0  0  0  0  0  0  0  0  0
   -3.3382   -0.5095    0.0000 C   0  0  0  0  0  0  0  0  0  0  0  0
   -2.6354   -1.7219    0.0000 C   0  0  0  0  0  0  0  0  0  0  0  0
    1.0015    1.0893    0.0000 C   0  0  0  0  0  0  0  0  0  0  0  0
   -4.0762   -1.7219    0.0000 C   0  0  0  0  0  0  0  0  0  0  0  0
    1.0191   -1.3177    0.0000 C   0  0  0  0  0  0  0  0  0  0  0  0
    0.2811   -1.7219    0.0000 C   0  0  0  0  0  0  0  0  0  0  0  0
    1.0015   -0.5271    0.0000 C   0  0  0  0  0  0  0  0  0  0  0  0
    1.7394    2.3192    0.0000 C   0  0  0  0  0  0  0  0  0  0  0  0
   -4.1816   -2.5301    0.0000 C   0  0  0  0  0  0  0  0  0  0  0  0
    1.7394   -1.7219    0.0000 C   0  0  0  0  0  0  0  0  0  0  0  0
   -5.4114   -2.0029    0.0000 C   0  0  0  0  0  0  0  0  0  0  0  0
    2.4598   -1.3353    0.0000 C   0  0  0  0  0  0  0  0  0  0  0  0
    3.1977   -1.7042    0.0000 C   0  0  0  0  0  0  0  0  0  0  0  0
    4.6735   -1.7394    0.0000 C   0  0  0  0  0  0  0  0  0  0  0  0
    5.4114   -1.3353    0.0000 C   0  0  0  0  0  0  0  0  0  0  0  0
    5.4114   -2.1259    0.0000 C   0  0  0  0  0  0  0  0  0  0  0  0
    4.6735   -2.5476    0.0000 C   0  0  0  0  0  0  0  0  0  0  0  0
  1 13  1  0  0  0  0
  2 28  1  0  0  0  0
  2 35  1  0  0  0  0
  3 37  1  0  0  0  0
  3 38  1  0  0  0  0
  4 37  2  0  0  0  0
  5 33  1  0  0  0  0
  5 35  2  0  0  0  0
  6 32  3  0  0  0  0
  7  8  2  0  0  0  0
  7  9  1  0  0  0  0
  7 10  1  0  0  0  0
  8 11  1  0  0  0  0
  8 12  1  0  0  0  0
  9 13  1  0  0  0  0
  9 16  2  0  0  0  0
 10 14  1  0  0  0  0
 10 15  1  0  0  0  0
 11 17  2  0  0  0  0
 11 18  1  0  0  0  0
 12 19  2  0  0  0  0
 12 20  1  0  0  0  0
 13 23  2  0  0  0  0
 14 22  1  0  0  0  0
 15 22  1  0  0  0  0
 16 27  1  0  0  0  0
 17 25  1  0  0  0  0
 18 26  2  0  0  0  0
 19 30  1  0  0  0  0
 20 31  2  0  0  0  0
 21 25  2  0  0  0  0
 21 26  1  0  0  0  0
 21 28  1  0  0  0  0
 23 24  1  0  0  0  0
 24 27  2  0  0  0  0
 24 32  1  0  0  0  0
 28 33  2  0  0  0  0
 29 30  2  0  0  0  0
 29 31  1  0  0  0  0
 29 34  1  0  0  0  0
 34 36  2  0  0  0  0
 36 37  1  0  0  0  0
 38 39  1  0  0  0  0
 38 40  1  0  0  0  0
 38 41  1  0  0  0  0
M  END
> <PUBCHEM_COMPOUND_ID_TYPE>
0

> <PUBCHEM_TOTAL_CHARGE>
0

> <PUBCHEM_SUBSTANCE_ID>
310945094

> <PUBCHEM_SUBSTANCE_VERSION>
1

> <PUBCHEM_EXT_DATASOURCE_NAME>
4488

> <PUBCHEM_EXT_DATASOURCE_REGID>
SCHEMBL16123184

> <PUBCHEM_SUBSTANCE_COMMENT>
InChI=1S/C35H31ClN2O2S/c1-35(2,3)40-32(39)18-10-23-7-11-27(12-8-23)33(28-15-13-25(14-16-28)31-21-38-22-41-31)34(26-5-4-6-26)29-17-9-24(20-37)19-30(29)36/h7-19,21-22,26H,4-6H2,1-3H3/b18-10+,34-33+
InChIKey=NYSWPZFEXVAWGE-DWUCKWBCSA-N

> <PUBCHEM_SUBSTANCE_SYNONYM>
SCHEMBL16123184

> <PUBCHEM_XREF_EXT_ID>
SCHEMBL16123184

> <PUBCHEM_EXT_DATASOURCE_URL>
https://www.surechembl.org/

> <PUBCHEM_EXT_SUBSTANCE_URL>
https://www.surechembl.org/chemical/SCHEMBL16123184

> <PUBCHEM_CID_ASSOCIATIONS>
117611193  1

> <PUBCHEM_COORDINATE_TYPE>
1
3

$$$$
