310944430
  -OEChem-07211613022D

 18 19  0     1  0  0  0  0  0999 V2000
   -1.8766   -0.8524    0.0000 F   0  0  0  0  0  0  0  0  0  0  0  0
   -2.9627   -0.5637    0.0000 F   0  0  0  0  0  0  0  0  0  0  0  0
   -2.6603    0.5225    0.0000 F   0  0  0  0  0  0  0  0  0  0  0  0
    2.9627   -1.4985    0.0000 O   0  0  0  0  0  0  0  0  0  0  0  0
    0.6530    0.0000    0.0000 N   0  0  0  0  0  0  0  0  0  0  0  0
    1.1342    0.6736    0.0000 N   0  0  0  0  0  0  0  0  0  0  0  0
   -0.1443    0.2887    0.0000 C   0  0  0  0  0  0  0  0  0  0  0  0
   -0.1306    1.0999    0.0000 C   0  0  0  0  0  0  0  0  0  0  0  0
   -1.5604    0.2750    0.0000 C   0  0  0  0  0  0  0  0  0  0  0  0
   -0.8455   -0.1375    0.0000 C   0  0  0  0  0  0  0  0  0  0  0  0
   -2.2753   -0.1513    0.0000 C   0  0  0  0  0  0  0  0  0  0  0  0
   -0.8592    1.4985    0.0000 C   0  0  0  0  0  0  0  0  0  0  0  0
    0.6668    1.3336    0.0000 C   0  0  0  0  0  0  0  0  0  0  0  0
   -1.5466    1.0999    0.0000 C   0  0  0  0  0  0  0  0  0  0  0  0
    0.9005   -0.7562    0.0000 C   0  0  0  0  0  0  0  0  0  0  0  0
    1.7392   -0.7836    0.0000 C   0  0  3  0  0  0  0  0  0  0  0  0
    2.1378   -1.4711    0.0000 C   0  0  0  0  0  0  0  0  0  0  0  0
    2.1240   -0.0687    0.0000 C   0  0  0  0  0  0  0  0  0  0  0  0
  1 11  1  0  0  0  0
  2 11  1  0  0  0  0
  3 11  1  0  0  0  0
  4 17  1  0  0  0  0
  5  6  1  0  0  0  0
  5  7  1  0  0  0  0
  5 15  1  0  0  0  0
  6 13  2  0  0  0  0
  7  8  1  0  0  0  0
  7 10  2  0  0  0  0
  8 12  2  0  0  0  0
  8 13  1  0  0  0  0
  9 10  1  0  0  0  0
  9 11  1  0  0  0  0
  9 14  2  0  0  0  0
 12 14  1  0  0  0  0
 15 16  1  0  0  0  0
 16 17  1  0  0  0  0
 16 18  1  6  0  0  0
M  END
> <PUBCHEM_COMPOUND_ID_TYPE>
0

> <PUBCHEM_TOTAL_CHARGE>
0

> <PUBCHEM_SUBSTANCE_ID>
310944430

> <PUBCHEM_SUBSTANCE_VERSION>
1

> <PUBCHEM_EXT_DATASOURCE_NAME>
4488

> <PUBCHEM_EXT_DATASOURCE_REGID>
SCHEMBL16122505

> <PUBCHEM_SUBSTANCE_COMMENT>
InChI=1S/C12H13F3N2O/c1-8(7-18)6-17-11-4-10(12(13,14)15)3-2-9(11)5-16-17/h2-5,8,18H,6-7H2,1H3/t8-/m0/s1
InChIKey=IVDVTHODZQUBBV-QMMMGPOBSA-N

> <PUBCHEM_SUBSTANCE_SYNONYM>
SCHEMBL16122505

> <PUBCHEM_XREF_EXT_ID>
SCHEMBL16122505

> <PUBCHEM_EXT_DATASOURCE_URL>
https://www.surechembl.org/

> <PUBCHEM_EXT_SUBSTANCE_URL>
https://www.surechembl.org/chemical/SCHEMBL16122505

> <PUBCHEM_CID_ASSOCIATIONS>
117610684  1

> <PUBCHEM_COORDINATE_TYPE>
1
3

> <PUBCHEM_BONDANNOTATIONS>
16  18  6

$$$$
