310949287
  -OEChem-07211613022D

 47 55  0     0  0  0  0  0  0999 V2000
   -3.0054   -0.9232    0.0000 Br  0  0  0  0  0  0  0  0  0  0  0  0
   -1.2964   -0.0785    0.0000 N   0  0  0  0  0  0  0  0  0  0  0  0
    1.6107   -0.8643    0.0000 N   0  0  0  0  0  0  0  0  0  0  0  0
    2.3572   -2.0821    0.0000 N   0  0  0  0  0  0  0  0  0  0  0  0
   -2.0036    0.4321    0.0000 C   0  0  0  0  0  0  0  0  0  0  0  0
   -3.3197    0.8447    0.0000 C   0  0  0  0  0  0  0  0  0  0  0  0
   -1.7089    1.1982    0.0000 C   0  0  0  0  0  0  0  0  0  0  0  0
   -3.0643    1.6303    0.0000 C   0  0  0  0  0  0  0  0  0  0  0  0
   -4.1643    0.8643    0.0000 C   0  0  0  0  0  0  0  0  0  0  0  0
   -0.8447    1.2179    0.0000 C   0  0  0  0  0  0  0  0  0  0  0  0
   -0.6286    0.4518    0.0000 C   0  0  0  0  0  0  0  0  0  0  0  0
   -3.7714    2.1018    0.0000 C   0  0  0  0  0  0  0  0  0  0  0  0
   -4.4001    1.6500    0.0000 C   0  0  0  0  0  0  0  0  0  0  0  0
   -2.7893    0.2554    0.0000 C   0  0  0  0  0  0  0  0  0  0  0  0
   -2.2393    1.7679    0.0000 C   0  0  0  0  0  0  0  0  0  0  0  0
   -1.3161   -0.9035    0.0000 C   0  0  0  0  0  0  0  0  0  0  0  0
   -0.5893   -1.3161    0.0000 C   0  0  0  0  0  0  0  0  0  0  0  0
   -2.0036   -1.3161    0.0000 C   0  0  0  0  0  0  0  0  0  0  0  0
    0.1768    0.2750    0.0000 C   0  0  0  0  0  0  0  0  0  0  0  0
   -0.3143    1.8072    0.0000 C   0  0  0  0  0  0  0  0  0  0  0  0
   -3.8304    2.8875    0.0000 C   0  0  0  0  0  0  0  0  0  0  0  0
   -5.1661    1.9643    0.0000 C   0  0  0  0  0  0  0  0  0  0  0  0
   -4.9893    0.6678    0.0000 C   0  0  0  0  0  0  0  0  0  0  0  0
   -4.1643    0.0197    0.0000 C   0  0  0  0  0  0  0  0  0  0  0  0
    1.5911   -1.6500    0.0000 C   0  0  0  0  0  0  0  0  0  0  0  0
   -0.5893   -2.1214    0.0000 C   0  0  0  0  0  0  0  0  0  0  0  0
    0.7465    0.8643    0.0000 C   0  0  0  0  0  0  0  0  0  0  0  0
    0.4911    1.6303    0.0000 C   0  0  0  0  0  0  0  0  0  0  0  0
   -4.5768    3.2607    0.0000 C   0  0  0  0  0  0  0  0  0  0  0  0
   -5.2643    2.7500    0.0000 C   0  0  0  0  0  0  0  0  0  0  0  0
   -2.0036   -2.1411    0.0000 C   0  0  0  0  0  0  0  0  0  0  0  0
   -1.3161   -2.5143    0.0000 C   0  0  0  0  0  0  0  0  0  0  0  0
    2.2982   -0.3929    0.0000 C   0  0  0  0  0  0  0  0  0  0  0  0
    3.0446   -1.6500    0.0000 C   0  0  0  0  0  0  0  0  0  0  0  0
    3.0840   -0.8447    0.0000 C   0  0  0  0  0  0  0  0  0  0  0  0
    2.2982    0.4125    0.0000 C   0  0  0  0  0  0  0  0  0  0  0  0
    3.7911   -2.0429    0.0000 C   0  0  0  0  0  0  0  0  0  0  0  0
    3.0446    0.8250    0.0000 C   0  0  0  0  0  0  0  0  0  0  0  0
    1.5911    0.8053    0.0000 C   0  0  0  0  0  0  0  0  0  0  0  0
    3.7911   -2.8679    0.0000 C   0  0  0  0  0  0  0  0  0  0  0  0
    4.5179   -1.6500    0.0000 C   0  0  0  0  0  0  0  0  0  0  0  0
    3.0250    1.6303    0.0000 C   0  0  0  0  0  0  0  0  0  0  0  0
    1.6107    1.6303    0.0000 C   0  0  0  0  0  0  0  0  0  0  0  0
    4.5375   -3.2607    0.0000 C   0  0  0  0  0  0  0  0  0  0  0  0
    5.2643   -2.0429    0.0000 C   0  0  0  0  0  0  0  0  0  0  0  0
    2.2982    2.0429    0.0000 C   0  0  0  0  0  0  0  0  0  0  0  0
    5.2446   -2.8679    0.0000 C   0  0  0  0  0  0  0  0  0  0  0  0
  1 18  1  0  0  0  0
  2  5  1  0  0  0  0
  2 11  1  0  0  0  0
  2 16  1  0  0  0  0
  3 25  1  0  0  0  0
  3 33  2  0  0  0  0
  4 25  2  0  0  0  0
  4 34  1  0  0  0  0
  5  7  2  0  0  0  0
  5 14  1  0  0  0  0
  6  8  1  0  0  0  0
  6  9  1  0  0  0  0
  6 14  2  0  0  0  0
  7 10  1  0  0  0  0
  7 15  1  0  0  0  0
  8 12  1  0  0  0  0
  8 15  2  0  0  0  0
  9 13  1  0  0  0  0
  9 23  1  0  0  0  0
  9 24  1  0  0  0  0
 10 11  2  0  0  0  0
 10 20  1  0  0  0  0
 11 19  1  0  0  0  0
 12 13  2  0  0  0  0
 12 21  1  0  0  0  0
 13 22  1  0  0  0  0
 16 17  2  0  0  0  0
 16 18  1  0  0  0  0
 17 25  1  0  0  0  0
 17 26  1  0  0  0  0
 18 31  2  0  0  0  0
 19 27  2  0  0  0  0
 20 28  2  0  0  0  0
 21 29  2  0  0  0  0
 22 30  2  0  0  0  0
 26 32  2  0  0  0  0
 27 28  1  0  0  0  0
 29 30  1  0  0  0  0
 31 32  1  0  0  0  0
 33 35  1  0  0  0  0
 33 36  1  0  0  0  0
 34 35  2  0  0  0  0
 34 37  1  0  0  0  0
 36 38  2  0  0  0  0
 36 39  1  0  0  0  0
 37 40  2  0  0  0  0
 37 41  1  0  0  0  0
 38 42  1  0  0  0  0
 39 43  2  0  0  0  0
 40 44  1  0  0  0  0
 41 45  2  0  0  0  0
 42 46  2  0  0  0  0
 43 46  1  0  0  0  0
 44 47  2  0  0  0  0
 45 47  1  0  0  0  0
M  END
> <PUBCHEM_COMPOUND_ID_TYPE>
0

> <PUBCHEM_TOTAL_CHARGE>
0

> <PUBCHEM_SUBSTANCE_ID>
310949287

> <PUBCHEM_SUBSTANCE_VERSION>
1

> <PUBCHEM_EXT_DATASOURCE_NAME>
4488

> <PUBCHEM_EXT_DATASOURCE_REGID>
SCHEMBL16127477

> <PUBCHEM_SUBSTANCE_COMMENT>
InChI=1S/C43H30BrN3/c1-43(2)34-21-11-9-18-29(34)32-24-33-30-19-10-12-23-39(30)47(40(33)25-35(32)43)41-31(20-13-22-36(41)44)42-45-37(27-14-5-3-6-15-27)26-38(46-42)28-16-7-4-8-17-28/h3-26H,1-2H3
InChIKey=KVACTNYPWXZWSP-UHFFFAOYSA-N

> <PUBCHEM_SUBSTANCE_SYNONYM>
SCHEMBL16127477

> <PUBCHEM_XREF_EXT_ID>
SCHEMBL16127477

> <PUBCHEM_EXT_DATASOURCE_URL>
https://www.surechembl.org/

> <PUBCHEM_EXT_SUBSTANCE_URL>
https://www.surechembl.org/chemical/SCHEMBL16127477

> <PUBCHEM_CID_ASSOCIATIONS>
117614772  1

> <PUBCHEM_COORDINATE_TYPE>
1
3

$$$$
