310941031
  -OEChem-07211613022D

 41 44  0     1  0  0  0  0  0999 V2000
    5.2185   -1.0232    0.0000 O   0  0  0  0  0  0  0  0  0  0  0  0
    4.0783    0.9502    0.0000 O   0  0  0  0  0  0  0  0  0  0  0  0
    1.6957   -1.0086    0.0000 O   0  0  0  0  0  0  0  0  0  0  0  0
   -0.4824    1.0671    0.0000 O   0  0  0  0  0  0  0  0  0  0  0  0
    3.8591    2.7336    0.0000 O   0  0  0  0  0  0  0  0  0  0  0  0
   -2.6458   -1.0086    0.0000 O   0  0  0  0  0  0  0  0  0  0  0  0
   -5.5255   -1.0086    0.0000 O   0  0  0  0  0  0  0  0  0  0  0  0
    2.4119    0.2339    0.0000 N   0  0  0  0  0  0  0  0  0  0  0  0
    0.2485   -0.1754    0.0000 N   0  0  0  0  0  0  0  0  0  0  0  0
   -1.9149    0.2339    0.0000 N   0  0  0  0  0  0  0  0  0  0  0  0
   -4.0783   -0.1754    0.0000 N   0  0  0  0  0  0  0  0  0  0  0  0
    4.8092   -0.2777    0.0000 C   0  0  3  0  0  0  0  0  0  0  0  0
    4.0199    0.1316    0.0000 C   0  0  0  0  0  0  0  0  0  0  0  0
    4.4000   -0.9794    0.0000 C   0  0  0  0  0  0  0  0  0  0  0  0
    3.3767   -0.2631    0.0000 C   0  0  3  0  0  0  0  0  0  0  0  0
    5.5255    0.1461    0.0000 C   0  0  0  0  0  0  0  0  0  0  0  0
    3.3475   -1.3449    0.0000 C   0  0  0  0  0  0  0  0  0  0  0  0
    1.7103   -0.1169    0.0000 C   0  0  0  0  0  0  0  0  0  0  0  0
    0.9794    0.2631    0.0000 C   0  0  3  0  0  0  0  0  0  0  0  0
    2.6458   -1.7687    0.0000 C   0  0  0  0  0  0  0  0  0  0  0  0
    0.9940    1.0963    0.0000 C   0  0  0  0  0  0  0  0  0  0  0  0
    1.6811    1.5203    0.0000 C   0  0  0  0  0  0  0  0  0  0  0  0
   -0.4824    0.2485    0.0000 C   0  0  0  0  0  0  0  0  0  0  0  0
    1.8711   -1.4472    0.0000 C   0  0  0  0  0  0  0  0  0  0  0  0
    2.5435   -2.5873    0.0000 C   0  0  0  0  0  0  0  0  0  0  0  0
   -1.1694   -0.1316    0.0000 C   0  0  3  0  0  0  0  0  0  0  0  0
    1.3302   -2.0465    0.0000 C   0  0  0  0  0  0  0  0  0  0  0  0
    1.7249   -2.7481    0.0000 C   0  0  0  0  0  0  0  0  0  0  0  0
    2.4266    1.1110    0.0000 C   0  0  0  0  0  0  0  0  0  0  0  0
    1.7103    2.3534    0.0000 C   0  0  0  0  0  0  0  0  0  0  0  0
    3.1428    2.3534    0.0000 C   0  0  0  0  0  0  0  0  0  0  0  0
    3.1428    1.5203    0.0000 C   0  0  0  0  0  0  0  0  0  0  0  0
    2.4119    2.7481    0.0000 C   0  0  0  0  0  0  0  0  0  0  0  0
   -2.6312   -0.1169    0.0000 C   0  0  0  0  0  0  0  0  0  0  0  0
   -3.3767    0.2631    0.0000 C   0  0  0  0  0  0  0  0  0  0  0  0
   -1.1840   -0.9648    0.0000 C   0  0  0  0  0  0  0  0  0  0  0  0
   -4.0783   -0.9794    0.0000 C   0  0  0  0  0  0  0  0  0  0  0  0
   -4.8092    0.2631    0.0000 C   0  0  0  0  0  0  0  0  0  0  0  0
   -4.7946   -1.3887    0.0000 C   0  0  0  0  0  0  0  0  0  0  0  0
   -5.5109   -0.1461    0.0000 C   0  0  0  0  0  0  0  0  0  0  0  0
    4.6046    2.3243    0.0000 C   0  0  0  0  0  0  0  0  0  0  0  0
  1 12  1  0  0  0  0
  1 14  1  0  0  0  0
  2 13  2  0  0  0  0
  3 18  2  0  0  0  0
  4 23  2  0  0  0  0
  5 31  1  0  0  0  0
  5 41  1  0  0  0  0
  6 34  2  0  0  0  0
  7 39  1  0  0  0  0
  7 40  1  0  0  0  0
 15  8  1  6  0  0  0
  8 18  1  0  0  0  0
 19  9  1  1  0  0  0
  9 23  1  0  0  0  0
 10 26  1  0  0  0  0
 10 34  1  0  0  0  0
 11 35  1  0  0  0  0
 11 37  1  0  0  0  0
 11 38  1  0  0  0  0
 12 13  1  6  0  0  0
 12 14  1  0  0  0  0
 12 16  1  1  0  0  0
 13 15  1  0  0  0  0
 15 17  1  0  0  0  0
 17 20  1  0  0  0  0
 18 19  1  0  0  0  0
 19 21  1  0  0  0  0
 20 24  1  0  0  0  0
 20 25  1  0  0  0  0
 21 22  1  0  0  0  0
 22 29  2  0  0  0  0
 22 30  1  0  0  0  0
 23 26  1  0  0  0  0
 24 27  1  0  0  0  0
 25 28  1  0  0  0  0
 26 36  1  6  0  0  0
 27 28  1  0  0  0  0
 29 32  1  0  0  0  0
 30 33  2  0  0  0  0
 31 32  2  0  0  0  0
 31 33  1  0  0  0  0
 34 35  1  0  0  0  0
 37 39  1  0  0  0  0
 38 40  1  0  0  0  0
M  END
> <PUBCHEM_COMPOUND_ID_TYPE>
0

> <PUBCHEM_TOTAL_CHARGE>
0

> <PUBCHEM_SUBSTANCE_ID>
310941031

> <PUBCHEM_SUBSTANCE_VERSION>
1

> <PUBCHEM_EXT_DATASOURCE_NAME>
4488

> <PUBCHEM_EXT_DATASOURCE_REGID>
SCHEMBL16118990

> <PUBCHEM_SUBSTANCE_COMMENT>
InChI=1S/C30H44N4O7/c1-20(31-26(35)18-34-12-14-40-15-13-34)28(37)33-25(17-22-8-10-23(39-3)11-9-22)29(38)32-24(16-21-6-4-5-7-21)27(36)30(2)19-41-30/h8-11,20-21,24-25H,4-7,12-19H2,1-3H3,(H,31,35)(H,32,38)(H,33,37)/t20-,24-,25-,30+/m0/s1
InChIKey=ZWGPKLDPIRVKIN-NHPFZIKMSA-N

> <PUBCHEM_SUBSTANCE_SYNONYM>
SCHEMBL16118990

> <PUBCHEM_XREF_EXT_ID>
SCHEMBL16118990

> <PUBCHEM_EXT_DATASOURCE_URL>
https://www.surechembl.org/

> <PUBCHEM_EXT_SUBSTANCE_URL>
https://www.surechembl.org/chemical/SCHEMBL16118990

> <PUBCHEM_CID_ASSOCIATIONS>
117607925  1

> <PUBCHEM_COORDINATE_TYPE>
1
3

> <PUBCHEM_BONDANNOTATIONS>
12  13  6
12  16  5
26  36  6
15  8  6
19  9  5

$$$$
