310945725
  -OEChem-07211613022D

 34 38  0     0  0  0  0  0  0999 V2000
    2.3152   -2.5944    0.0000 Cl  0  0  0  0  0  0  0  0  0  0  0  0
    5.3601   -0.3063    0.0000 O   0  0  0  0  0  0  0  0  0  0  0  0
    1.3242   -0.3243    0.0000 N   0  0  0  0  0  0  0  0  0  0  0  0
    1.3242   -1.7837    0.0000 N   0  0  0  0  0  0  0  0  0  0  0  0
   -0.1351   -1.9459    0.0000 N   0  0  0  0  0  0  0  0  0  0  0  0
    4.1530    0.4684    0.0000 N   0  0  0  0  0  0  0  0  0  0  0  0
    5.3601    1.2251    0.0000 N   0  0  0  0  0  0  0  0  0  0  0  0
    1.7747   -1.0630    0.0000 C   0  0  0  0  0  0  0  0  0  0  0  0
    0.5675   -0.6306    0.0000 C   0  0  0  0  0  0  0  0  0  0  0  0
    0.5675   -1.4954    0.0000 C   0  0  0  0  0  0  0  0  0  0  0  0
    2.5855   -1.0630    0.0000 C   0  0  0  0  0  0  0  0  0  0  0  0
   -0.8017   -0.6126    0.0000 C   0  0  0  0  0  0  0  0  0  0  0  0
   -0.1351   -0.1982    0.0000 C   0  0  0  0  0  0  0  0  0  0  0  0
    2.9638   -1.8197    0.0000 C   0  0  0  0  0  0  0  0  0  0  0  0
    2.9818   -0.3243    0.0000 C   0  0  0  0  0  0  0  0  0  0  0  0
   -1.5225   -0.1801    0.0000 C   0  0  0  0  0  0  0  0  0  0  0  0
   -0.8017   -1.5134    0.0000 C   0  0  0  0  0  0  0  0  0  0  0  0
    3.7565   -0.3243    0.0000 C   0  0  0  0  0  0  0  0  0  0  0  0
    3.7746   -1.8197    0.0000 C   0  0  0  0  0  0  0  0  0  0  0  0
    4.1530   -1.0810    0.0000 C   0  0  0  0  0  0  0  0  0  0  0  0
   -1.5044    0.6666    0.0000 C   0  0  0  0  0  0  0  0  0  0  0  0
   -2.1710   -0.6126    0.0000 C   0  0  0  0  0  0  0  0  0  0  0  0
   -2.8557    0.6846    0.0000 C   0  0  0  0  0  0  0  0  0  0  0  0
    4.9457    0.4684    0.0000 C   0  0  0  0  0  0  0  0  0  0  0  0
   -2.1530    1.0991    0.0000 C   0  0  0  0  0  0  0  0  0  0  0  0
   -2.8557   -0.1982    0.0000 C   0  0  0  0  0  0  0  0  0  0  0  0
   -5.6303    0.6846    0.0000 C   0  0  0  0  0  0  0  0  0  0  0  0
    6.1348    1.2972    0.0000 C   0  0  0  0  0  0  0  0  0  0  0  0
    5.0537    2.0179    0.0000 C   0  0  0  0  0  0  0  0  0  0  0  0
   -6.3150    1.0991    0.0000 C   0  0  0  0  0  0  0  0  0  0  0  0
   -6.3150    0.2522    0.0000 C   0  0  0  0  0  0  0  0  0  0  0  0
   -5.5943   -0.2162    0.0000 C   0  0  0  0  0  0  0  0  0  0  0  0
    6.3150    2.1621    0.0000 C   0  0  0  0  0  0  0  0  0  0  0  0
    5.6123    2.5944    0.0000 C   0  0  0  0  0  0  0  0  0  0  0  0
  1 14  1  0  0  0  0
  2 24  2  0  0  0  0
  3  8  1  0  0  0  0
  3  9  1  0  0  0  0
  4  8  2  0  0  0  0
  4 10  1  0  0  0  0
  5 10  2  0  0  0  0
  5 17  1  0  0  0  0
  6 18  1  0  0  0  0
  6 24  1  0  0  0  0
  7 24  1  0  0  0  0
  7 28  1  0  0  0  0
  7 29  1  0  0  0  0
  8 11  1  0  0  0  0
  9 10  1  0  0  0  0
  9 13  2  0  0  0  0
 11 14  1  0  0  0  0
 11 15  2  0  0  0  0
 12 13  1  0  0  0  0
 12 16  1  0  0  0  0
 12 17  2  0  0  0  0
 14 19  2  0  0  0  0
 15 18  1  0  0  0  0
 16 21  2  0  0  0  0
 16 22  1  0  0  0  0
 18 20  2  0  0  0  0
 19 20  1  0  0  0  0
 21 25  1  0  0  0  0
 22 26  2  0  0  0  0
 23 25  2  0  0  0  0
 23 26  1  0  0  0  0
 23 27  1  0  0  0  0
 27 30  1  0  0  0  0
 27 31  1  0  0  0  0
 27 32  1  0  0  0  0
 28 33  1  0  0  0  0
 29 34  1  0  0  0  0
 33 34  1  0  0  0  0
M  END
> <PUBCHEM_COMPOUND_ID_TYPE>
0

> <PUBCHEM_TOTAL_CHARGE>
0

> <PUBCHEM_SUBSTANCE_ID>
310945725

> <PUBCHEM_SUBSTANCE_VERSION>
1

> <PUBCHEM_EXT_DATASOURCE_NAME>
4488

> <PUBCHEM_EXT_DATASOURCE_REGID>
SCHEMBL16123829

> <PUBCHEM_SUBSTANCE_COMMENT>
InChI=1S/C27H28ClN5O/c1-27(2,3)19-8-6-17(7-9-19)18-14-23-25(29-16-18)32-24(31-23)21-15-20(10-11-22(21)28)30-26(34)33-12-4-5-13-33/h6-11,14-16H,4-5,12-13H2,1-3H3,(H,30,34)(H,29,31,32)
InChIKey=XHEPMTOSUGWGIZ-UHFFFAOYSA-N

> <PUBCHEM_SUBSTANCE_SYNONYM>
SCHEMBL16123829

> <PUBCHEM_XREF_EXT_ID>
SCHEMBL16123829

> <PUBCHEM_EXT_DATASOURCE_URL>
https://www.surechembl.org/

> <PUBCHEM_EXT_SUBSTANCE_URL>
https://www.surechembl.org/chemical/SCHEMBL16123829

> <PUBCHEM_CID_ASSOCIATIONS>
117611722  1

> <PUBCHEM_COORDINATE_TYPE>
1
3

> <PUBCHEM_BONDANNOTATIONS>
23  27  3

$$$$
