310931512
  -OEChem-07211613022D

 24 26  0     1  0  0  0  0  0999 V2000
    0.9326   -6.5639    0.0000 P   0  0  0  0  0  0  0  0  0  0  0  0
    1.5423   -3.7661    0.0000 O   0  0  0  0  0  0  0  0  0  0  0  0
    3.6585   -3.5151    0.0000 O   0  0  0  0  0  0  0  0  0  0  0  0
    3.0847   -5.2009    0.0000 O   0  0  0  0  0  0  0  0  0  0  0  0
    1.5065   -5.9541    0.0000 O   0  0  0  0  0  0  0  0  0  0  0  0
    1.5782   -7.1019    0.0000 O   0  0  0  0  0  0  0  0  0  0  0  0
    0.3946   -7.1736    0.0000 O   0  0  0  0  0  0  0  0  0  0  0  0
    0.3228   -5.9900    0.0000 O   0  0  0  0  0  0  0  0  0  0  0  0
    2.2238   -2.2956    0.0000 N   0  0  0  0  0  0  0  0  0  0  0  0
    2.2238   -0.9684    0.0000 N   0  0  0  0  0  0  0  0  0  0  0  0
    0.7532   -2.4749    0.0000 N   0  0  0  0  0  0  0  0  0  0  0  0
    0.0000   -1.2195    0.0000 N   0  0  0  0  0  0  0  0  0  0  0  0
    0.7532    0.0000    0.0000 N   0  0  0  0  0  0  0  0  0  0  0  0
    2.2238   -3.2640    0.0000 C   0  0  3  0  0  0  0  0  0  0  0  0
    2.8694   -3.7661    0.0000 C   0  0  3  0  0  0  0  0  0  0  0  0
    1.4347   -2.0445    0.0000 C   0  0  0  0  0  0  0  0  0  0  0  0
    2.6184   -4.5553    0.0000 C   0  0  3  0  0  0  0  0  0  0  0  0
    1.7934   -4.5194    0.0000 C   0  0  3  0  0  0  0  0  0  0  0  0
    1.4347   -1.2195    0.0000 C   0  0  0  0  0  0  0  0  0  0  0  0
    2.6901   -1.6499    0.0000 C   0  0  0  0  0  0  0  0  0  0  0  0
    2.9412   -2.9053    0.0000 C   0  0  0  0  0  0  0  0  0  0  0  0
    0.7532   -0.8249    0.0000 C   0  0  0  0  0  0  0  0  0  0  0  0
    1.2195   -5.0933    0.0000 C   0  0  0  0  0  0  0  0  0  0  0  0
    0.0000   -2.0445    0.0000 C   0  0  0  0  0  0  0  0  0  0  0  0
  1  5  1  0  0  0  0
  1  6  2  0  0  0  0
  1  7  1  0  0  0  0
  1  8  1  0  0  0  0
  2 14  1  0  0  0  0
  2 18  1  0  0  0  0
 15  3  1  6  0  0  0
 17  4  1  6  0  0  0
  5 23  1  0  0  0  0
  9 14  1  0  0  0  0
  9 16  1  0  0  0  0
  9 20  1  0  0  0  0
 10 19  1  0  0  0  0
 10 20  2  0  0  0  0
 11 16  2  0  0  0  0
 11 24  1  0  0  0  0
 12 22  1  0  0  0  0
 12 24  2  0  0  0  0
 13 22  1  0  0  0  0
 14 15  1  0  0  0  0
 14 21  1  6  0  0  0
 15 17  1  0  0  0  0
 16 19  1  0  0  0  0
 17 18  1  0  0  0  0
 18 23  1  1  0  0  0
 19 22  2  0  0  0  0
M  END
> <PUBCHEM_COMPOUND_ID_TYPE>
0

> <PUBCHEM_TOTAL_CHARGE>
0

> <PUBCHEM_SUBSTANCE_ID>
310931512

> <PUBCHEM_SUBSTANCE_VERSION>
1

> <PUBCHEM_EXT_DATASOURCE_NAME>
4488

> <PUBCHEM_EXT_DATASOURCE_REGID>
SCHEMBL16108838

> <PUBCHEM_SUBSTANCE_COMMENT>
InChI=1S/C11H16N5O7P/c1-11(16-4-15-6-9(12)13-3-14-10(6)16)8(18)7(17)5(23-11)2-22-24(19,20)21/h3-5,7-8,17-18H,2H2,1H3,(H2,12,13,14)(H2,19,20,21)/t5-,7-,8-,11-/m1/s1
InChIKey=YDSXFCLGQSFFDO-IOSLPCCCSA-N

> <PUBCHEM_SUBSTANCE_SYNONYM>
SCHEMBL16108838

> <PUBCHEM_XREF_EXT_ID>
SCHEMBL16108838

> <PUBCHEM_EXT_DATASOURCE_URL>
https://www.surechembl.org/

> <PUBCHEM_EXT_SUBSTANCE_URL>
https://www.surechembl.org/chemical/SCHEMBL16108838

> <PUBCHEM_CID_ASSOCIATIONS>
117600270  1

> <PUBCHEM_COORDINATE_TYPE>
1
3

> <PUBCHEM_BONDANNOTATIONS>
14  21  6
18  23  5
15  3  6
17  4  6

$$$$
