310949064
  -OEChem-07211613022D

 47 54  0     0  0  0  0  0  0999 V2000
   -0.9938   -0.3372    0.0000 N   0  0  0  0  0  0  0  0  0  0  0  0
   -3.4782   -0.3549    0.0000 N   0  0  0  0  0  0  0  0  0  0  0  0
   -2.2715   -2.0231    0.0000 N   0  0  0  0  0  0  0  0  0  0  0  0
    1.0115    0.7631    0.0000 N   0  0  0  0  0  0  0  0  0  0  0  0
   -0.3727   -0.9051    0.0000 C   0  0  0  0  0  0  0  0  0  0  0  0
   -0.8518    0.5324    0.0000 C   0  0  0  0  0  0  0  0  0  0  0  0
   -1.8101   -0.4082    0.0000 C   0  0  0  0  0  0  0  0  0  0  0  0
   -0.6743   -1.6859    0.0000 C   0  0  0  0  0  0  0  0  0  0  0  0
    0.4437   -0.7453    0.0000 C   0  0  0  0  0  0  0  0  0  0  0  0
   -0.1243   -2.2892    0.0000 C   0  0  0  0  0  0  0  0  0  0  0  0
    0.9938   -1.3488    0.0000 C   0  0  0  0  0  0  0  0  0  0  0  0
   -1.5972    0.9228    0.0000 C   0  0  0  0  0  0  0  0  0  0  0  0
    0.7276   -2.1473    0.0000 C   0  0  0  0  0  0  0  0  0  0  0  0
   -2.2360    0.3372    0.0000 C   0  0  0  0  0  0  0  0  0  0  0  0
   -0.3904   -3.0878    0.0000 C   0  0  0  0  0  0  0  0  0  0  0  0
    1.8279   -1.2245    0.0000 C   0  0  0  0  0  0  0  0  0  0  0  0
    1.2600   -2.7684    0.0000 C   0  0  0  0  0  0  0  0  0  0  0  0
   -0.1598    0.9761    0.0000 C   0  0  0  0  0  0  0  0  0  0  0  0
   -1.6504    1.7392    0.0000 C   0  0  0  0  0  0  0  0  0  0  0  0
   -2.2892   -1.0647    0.0000 C   0  0  0  0  0  0  0  0  0  0  0  0
   -2.9814    0.3727    0.0000 C   0  0  0  0  0  0  0  0  0  0  0  0
   -1.4907   -1.8633    0.0000 C   0  0  0  0  0  0  0  0  0  0  0  0
    0.7276    0.0178    0.0000 C   0  0  0  0  0  0  0  0  0  0  0  0
   -0.9583    2.1651    0.0000 C   0  0  0  0  0  0  0  0  0  0  0  0
   -0.1775    1.8101    0.0000 C   0  0  0  0  0  0  0  0  0  0  0  0
   -3.0701   -1.0470    0.0000 C   0  0  0  0  0  0  0  0  0  0  0  0
   -1.1890   -3.2653    0.0000 C   0  0  0  0  0  0  0  0  0  0  0  0
    0.1598   -3.7268    0.0000 C   0  0  0  0  0  0  0  0  0  0  0  0
    2.3780   -1.8279    0.0000 C   0  0  0  0  0  0  0  0  0  0  0  0
    2.1118   -0.4614    0.0000 C   0  0  0  0  0  0  0  0  0  0  0  0
    1.0293   -3.5670    0.0000 C   0  0  0  0  0  0  0  0  0  0  0  0
    2.1118   -2.6442    0.0000 C   0  0  0  0  0  0  0  0  0  0  0  0
   -0.9761    2.9991    0.0000 C   0  0  0  0  0  0  0  0  0  0  0  0
   -1.4729   -4.0107    0.0000 C   0  0  0  0  0  0  0  0  0  0  0  0
   -0.1065   -4.4721    0.0000 C   0  0  0  0  0  0  0  0  0  0  0  0
    3.2121   -1.7037    0.0000 C   0  0  0  0  0  0  0  0  0  0  0  0
    2.9459   -0.3194    0.0000 C   0  0  0  0  0  0  0  0  0  0  0  0
    1.5439   -4.1527    0.0000 C   0  0  0  0  0  0  0  0  0  0  0  0
    2.6619   -3.2476    0.0000 C   0  0  0  0  0  0  0  0  0  0  0  0
   -0.3017    3.4605    0.0000 C   0  0  0  0  0  0  0  0  0  0  0  0
   -1.7214    3.3896    0.0000 C   0  0  0  0  0  0  0  0  0  0  0  0
   -0.9406   -4.6318    0.0000 C   0  0  0  0  0  0  0  0  0  0  0  0
    3.4782   -0.9228    0.0000 C   0  0  0  0  0  0  0  0  0  0  0  0
    2.3780   -4.0284    0.0000 C   0  0  0  0  0  0  0  0  0  0  0  0
   -0.3549    4.2768    0.0000 C   0  0  0  0  0  0  0  0  0  0  0  0
   -1.7924    4.1882    0.0000 C   0  0  0  0  0  0  0  0  0  0  0  0
   -1.0470    4.6318    0.0000 C   0  0  0  0  0  0  0  0  0  0  0  0
  1  5  1  0  0  0  0
  1  6  1  0  0  0  0
  1  7  1  0  0  0  0
  2 21  2  0  0  0  0
  2 26  1  0  0  0  0
  3 22  3  0  0  0  0
  4 23  3  0  0  0  0
  5  8  2  0  0  0  0
  5  9  1  0  0  0  0
  6 12  2  0  0  0  0
  6 18  1  0  0  0  0
  7 14  2  0  0  0  0
  7 20  1  0  0  0  0
  8 10  1  0  0  0  0
  8 22  1  0  0  0  0
  9 11  2  0  0  0  0
  9 23  1  0  0  0  0
 10 13  2  0  0  0  0
 10 15  1  0  0  0  0
 11 13  1  0  0  0  0
 11 16  1  0  0  0  0
 12 14  1  0  0  0  0
 12 19  1  0  0  0  0
 13 17  1  0  0  0  0
 14 21  1  0  0  0  0
 15 27  2  0  0  0  0
 15 28  1  0  0  0  0
 16 29  2  0  0  0  0
 16 30  1  0  0  0  0
 17 31  2  0  0  0  0
 17 32  1  0  0  0  0
 18 25  2  0  0  0  0
 19 24  2  0  0  0  0
 20 26  2  0  0  0  0
 24 25  1  0  0  0  0
 24 33  1  0  0  0  0
 27 34  1  0  0  0  0
 28 35  2  0  0  0  0
 29 36  1  0  0  0  0
 30 37  2  0  0  0  0
 31 38  1  0  0  0  0
 32 39  2  0  0  0  0
 33 40  2  0  0  0  0
 33 41  1  0  0  0  0
 34 42  2  0  0  0  0
 35 42  1  0  0  0  0
 36 43  2  0  0  0  0
 37 43  1  0  0  0  0
 38 44  2  0  0  0  0
 39 44  1  0  0  0  0
 40 45  1  0  0  0  0
 41 46  2  0  0  0  0
 45 47  2  0  0  0  0
 46 47  1  0  0  0  0
M  END
> <PUBCHEM_COMPOUND_ID_TYPE>
0

> <PUBCHEM_TOTAL_CHARGE>
0

> <PUBCHEM_SUBSTANCE_ID>
310949064

> <PUBCHEM_SUBSTANCE_VERSION>
1

> <PUBCHEM_EXT_DATASOURCE_NAME>
4488

> <PUBCHEM_EXT_DATASOURCE_REGID>
SCHEMBL16127254

> <PUBCHEM_SUBSTANCE_COMMENT>
InChI=1S/C43H26N4/c44-26-35-40(30-15-7-2-8-16-30)42(32-19-11-4-12-20-32)41(31-17-9-3-10-18-31)36(27-45)43(35)47-38-22-21-33(29-13-5-1-6-14-29)25-34(38)37-28-46-24-23-39(37)47/h1-25,28H
InChIKey=VPRCVHVOJRRFTG-UHFFFAOYSA-N

> <PUBCHEM_SUBSTANCE_SYNONYM>
SCHEMBL16127254

> <PUBCHEM_XREF_EXT_ID>
SCHEMBL16127254

> <PUBCHEM_EXT_DATASOURCE_URL>
https://www.surechembl.org/

> <PUBCHEM_EXT_SUBSTANCE_URL>
https://www.surechembl.org/chemical/SCHEMBL16127254

> <PUBCHEM_CID_ASSOCIATIONS>
117614569  1

> <PUBCHEM_COORDINATE_TYPE>
1
3

$$$$
