310943979
  -OEChem-07211613022D

 18 18  0     0  0  0  0  0  0999 V2000
   -1.8259    2.0103    0.0000 F   0  0  0  0  0  0  0  0  0  0  0  0
    0.3034    1.5821    0.0000 N   0  0  0  0  0  0  0  0  0  0  0  0
   -1.8378   -2.0103    0.0000 N   0  0  0  0  0  0  0  0  0  0  0  0
   -1.1122    0.0238    0.0000 C   0  0  0  0  0  0  0  0  0  0  0  0
   -0.3866   -0.3925    0.0000 C   0  0  0  0  0  0  0  0  0  0  0  0
   -1.1003    0.8208    0.0000 C   0  0  0  0  0  0  0  0  0  0  0  0
   -1.8378   -0.3688    0.0000 C   0  0  0  0  0  0  0  0  0  0  0  0
   -1.8497    1.2253    0.0000 C   0  0  0  0  0  0  0  0  0  0  0  0
   -2.5397    0.0238    0.0000 C   0  0  0  0  0  0  0  0  0  0  0  0
   -2.5516    0.8208    0.0000 C   0  0  0  0  0  0  0  0  0  0  0  0
    0.3390    0.0119    0.0000 C   0  0  0  0  0  0  0  0  0  0  0  0
   -0.4104    1.2134    0.0000 C   0  0  0  0  0  0  0  0  0  0  0  0
   -1.8378   -1.2015    0.0000 C   0  0  0  0  0  0  0  0  0  0  0  0
   -0.9933   -0.9516    0.0000 C   0  0  0  0  0  0  0  0  0  0  0  0
   -0.3747   -1.1896    0.0000 C   0  0  0  0  0  0  0  0  0  0  0  0
    1.1003   -0.3806    0.0000 C   0  0  0  0  0  0  0  0  0  0  0  0
    1.8022    0.0000    0.0000 C   0  0  0  0  0  0  0  0  0  0  0  0
    2.5516   -0.4044    0.0000 C   0  0  0  0  0  0  0  0  0  0  0  0
  1  8  1  0  0  0  0
  2 12  3  0  0  0  0
  3 13  3  0  0  0  0
  4  5  1  0  0  0  0
  4  6  1  0  0  0  0
  4  7  2  0  0  0  0
  5 11  1  0  0  0  0
  5 14  1  0  0  0  0
  5 15  1  0  0  0  0
  6  8  2  0  0  0  0
  6 12  1  0  0  0  0
  7  9  1  0  0  0  0
  7 13  1  0  0  0  0
  8 10  1  0  0  0  0
  9 10  2  0  0  0  0
 11 16  1  0  0  0  0
 16 17  1  0  0  0  0
 17 18  1  0  0  0  0
M  END
> <PUBCHEM_COMPOUND_ID_TYPE>
0

> <PUBCHEM_TOTAL_CHARGE>
0

> <PUBCHEM_SUBSTANCE_ID>
310943979

> <PUBCHEM_SUBSTANCE_VERSION>
1

> <PUBCHEM_EXT_DATASOURCE_NAME>
4488

> <PUBCHEM_EXT_DATASOURCE_REGID>
SCHEMBL16122050

> <PUBCHEM_SUBSTANCE_COMMENT>
InChI=1S/C15H17FN2/c1-4-5-8-15(2,3)14-11(9-17)6-7-13(16)12(14)10-18/h6-7H,4-5,8H2,1-3H3
InChIKey=AMDYOASDLJJXEL-UHFFFAOYSA-N

> <PUBCHEM_SUBSTANCE_SYNONYM>
SCHEMBL16122050

> <PUBCHEM_XREF_EXT_ID>
SCHEMBL16122050

> <PUBCHEM_EXT_DATASOURCE_URL>
https://www.surechembl.org/

> <PUBCHEM_EXT_SUBSTANCE_URL>
https://www.surechembl.org/chemical/SCHEMBL16122050

> <PUBCHEM_CID_ASSOCIATIONS>
117610285  1

> <PUBCHEM_COORDINATE_TYPE>
1
3

$$$$
