310948950
  -OEChem-07211613022D

 24 25  0     0  0  0  0  0  0999 V2000
    2.6213    1.4501    0.0000 Cl  0  0  0  0  0  0  0  0  0  0  0  0
   -0.2649    1.4640    0.0000 F   0  0  0  0  0  0  0  0  0  0  0  0
   -0.9900   -2.3006    0.0000 F   0  0  0  0  0  0  0  0  0  0  0  0
    3.3464    0.2091    0.0000 O   0  0  0  0  0  0  0  0  0  0  0  0
    2.6213   -1.0457    0.0000 O   0  0  0  0  0  0  0  0  0  0  0  0
    1.1712   -0.2091    0.0000 N   0  0  0  0  0  0  0  0  0  0  0  0
    1.1712    2.3006    0.0000 N   0  0  0  0  0  0  0  0  0  0  0  0
    0.4183    0.1812    0.0000 C   0  0  0  0  0  0  0  0  0  0  0  0
    0.4462    1.0178    0.0000 C   0  0  0  0  0  0  0  0  0  0  0  0
    1.8684    0.1812    0.0000 C   0  0  0  0  0  0  0  0  0  0  0  0
    1.1573    1.4222    0.0000 C   0  0  0  0  0  0  0  0  0  0  0  0
    1.8823    1.0178    0.0000 C   0  0  0  0  0  0  0  0  0  0  0  0
   -0.2928   -0.2371    0.0000 C   0  0  0  0  0  0  0  0  0  0  0  0
    2.5935   -0.2371    0.0000 C   0  0  0  0  0  0  0  0  0  0  0  0
   -0.2928   -1.0736    0.0000 C   0  0  0  0  0  0  0  0  0  0  0  0
   -1.0178    0.1534    0.0000 C   0  0  0  0  0  0  0  0  0  0  0  0
   -1.0039   -1.4919    0.0000 C   0  0  0  0  0  0  0  0  0  0  0  0
   -1.7429   -1.0736    0.0000 C   0  0  0  0  0  0  0  0  0  0  0  0
   -1.7150   -0.2371    0.0000 C   0  0  0  0  0  0  0  0  0  0  0  0
   -2.4400   -1.4780    0.0000 C   0  0  0  0  0  0  0  0  0  0  0  0
   -2.9977   -1.6314    0.0000 C   0  0  0  0  0  0  0  0  0  0  0  0
   -3.0117   -2.0636    0.0000 C   0  0  0  0  0  0  0  0  0  0  0  0
   -3.3185   -1.7150    0.0000 C   0  0  0  0  0  0  0  0  0  0  0  0
   -3.3464   -2.1193    0.0000 C   0  0  0  0  0  0  0  0  0  0  0  0
  1 12  1  0  0  0  0
  2  9  1  0  0  0  0
  3 17  1  0  0  0  0
  4 14  2  0  0  0  0
  5 14  1  0  0  0  0
  6  8  1  0  0  0  0
  6 10  2  0  0  0  0
  7 11  1  0  0  0  0
  8  9  2  0  0  0  0
  8 13  1  0  0  0  0
  9 11  1  0  0  0  0
 10 12  1  0  0  0  0
 10 14  1  0  0  0  0
 11 12  2  0  0  0  0
 13 15  1  0  0  0  0
 13 16  2  0  0  0  0
 15 17  2  0  0  0  0
 16 19  1  0  0  0  0
 17 18  1  0  0  0  0
 18 19  2  0  0  0  0
 18 20  1  0  0  0  0
 20 21  3  0  0  0  0
 21 22  1  0  0  0  0
 22 23  1  0  0  0  0
 23 24  1  0  0  0  0
M  END
> <PUBCHEM_COMPOUND_ID_TYPE>
0

> <PUBCHEM_TOTAL_CHARGE>
0

> <PUBCHEM_SUBSTANCE_ID>
310948950

> <PUBCHEM_SUBSTANCE_VERSION>
1

> <PUBCHEM_EXT_DATASOURCE_NAME>
4488

> <PUBCHEM_EXT_DATASOURCE_REGID>
SCHEMBL16127138

> <PUBCHEM_SUBSTANCE_COMMENT>
InChI=1S/C17H13ClF2N2O2/c1-2-3-4-5-9-6-7-10(8-11(9)19)15-13(20)14(21)12(18)16(22-15)17(23)24/h6-8H,2-3H2,1H3,(H2,21,22)(H,23,24)
InChIKey=PBIXOANHXKZRCZ-UHFFFAOYSA-N

> <PUBCHEM_SUBSTANCE_SYNONYM>
SCHEMBL16127138

> <PUBCHEM_XREF_EXT_ID>
SCHEMBL16127138

> <PUBCHEM_EXT_DATASOURCE_URL>
https://www.surechembl.org/

> <PUBCHEM_EXT_SUBSTANCE_URL>
https://www.surechembl.org/chemical/SCHEMBL16127138

> <PUBCHEM_CID_ASSOCIATIONS>
117614460  1

> <PUBCHEM_COORDINATE_TYPE>
1
3

$$$$
