310938193
  -OEChem-07211613022D

 18 18  0     1  0  0  0  0  0999 V2000
    3.5606    0.0000    0.0000 O   0  0  0  0  0  0  0  0  0  0  0  0
    7.0741   -3.7257    0.0000 O   0  0  0  0  0  0  0  0  0  0  0  0
    0.7310    0.0000    0.0000 O   0  0  0  0  0  0  0  0  0  0  0  0
    0.0000   -1.2262    0.0000 O   0  0  0  0  0  0  0  0  0  0  0  0
    2.8533   -1.2498    0.0000 N   0  0  0  0  0  0  0  0  0  0  0  0
    4.9755   -0.8489    0.0000 N   0  0  0  0  0  0  0  0  0  0  0  0
    4.9755   -2.4759    0.0000 C   0  0  0  0  0  0  0  0  0  0  0  0
    4.2681   -1.2498    0.0000 C   0  0  3  0  0  0  0  0  0  0  0  0
    3.5606   -0.8253    0.0000 C   0  0  0  0  0  0  0  0  0  0  0  0
    4.2681   -2.0751    0.0000 C   0  0  0  0  0  0  0  0  0  0  0  0
    5.6829   -2.0751    0.0000 C   0  0  0  0  0  0  0  0  0  0  0  0
    4.9519   -3.3013    0.0000 C   0  0  0  0  0  0  0  0  0  0  0  0
    6.3667   -3.3248    0.0000 C   0  0  0  0  0  0  0  0  0  0  0  0
    6.3903   -2.4995    0.0000 C   0  0  0  0  0  0  0  0  0  0  0  0
    5.6829   -3.7022    0.0000 C   0  0  0  0  0  0  0  0  0  0  0  0
    2.1458   -0.8489    0.0000 C   0  0  0  0  0  0  0  0  0  0  0  0
    1.4384   -1.2262    0.0000 C   0  0  0  0  0  0  0  0  0  0  0  0
    0.7310   -0.8018    0.0000 C   0  0  0  0  0  0  0  0  0  0  0  0
  1  9  2  0  0  0  0
  2 13  1  0  0  0  0
  3 18  2  0  0  0  0
  4 18  1  0  0  0  0
  5  9  1  0  0  0  0
  5 16  1  0  0  0  0
  8  6  1  1  0  0  0
  7 10  1  0  0  0  0
  7 11  2  0  0  0  0
  7 12  1  0  0  0  0
  8  9  1  0  0  0  0
  8 10  1  0  0  0  0
 11 14  1  0  0  0  0
 12 15  2  0  0  0  0
 13 14  2  0  0  0  0
 13 15  1  0  0  0  0
 16 17  1  0  0  0  0
 17 18  1  0  0  0  0
M  END
> <PUBCHEM_COMPOUND_ID_TYPE>
0

> <PUBCHEM_TOTAL_CHARGE>
0

> <PUBCHEM_SUBSTANCE_ID>
310938193

> <PUBCHEM_SUBSTANCE_VERSION>
1

> <PUBCHEM_EXT_DATASOURCE_NAME>
4488

> <PUBCHEM_EXT_DATASOURCE_REGID>
SCHEMBL16116048

> <PUBCHEM_SUBSTANCE_COMMENT>
InChI=1S/C12H16N2O4/c13-10(12(18)14-6-5-11(16)17)7-8-1-3-9(15)4-2-8/h1-4,10,15H,5-7,13H2,(H,14,18)(H,16,17)/t10-/m0/s1
InChIKey=CMAQTHNYOAJTHQ-JTQLQIEISA-N

> <PUBCHEM_SUBSTANCE_SYNONYM>
SCHEMBL16116048

> <PUBCHEM_XREF_EXT_ID>
SCHEMBL16116048

> <PUBCHEM_EXT_DATASOURCE_URL>
https://www.surechembl.org/

> <PUBCHEM_EXT_SUBSTANCE_URL>
https://www.surechembl.org/chemical/SCHEMBL16116048

> <PUBCHEM_CID_ASSOCIATIONS>
61157456  1

> <PUBCHEM_COORDINATE_TYPE>
1
3

> <PUBCHEM_BONDANNOTATIONS>
8  6  5

$$$$
