310934359
  -OEChem-07211613022D

 35 40  0     1  0  0  0  0  0999 V2000
    0.6876    0.0000    0.0000 O   0  0  0  0  0  0  0  0  0  0  0  0
    3.9235   -3.7617    0.0000 N   0  0  0  0  0  0  0  0  0  0  0  0
    3.1145   -3.7212    0.0000 N   0  0  0  0  0  0  0  0  0  0  0  0
    5.0155   -2.7909    0.0000 N   0  0  0  0  0  0  0  0  0  0  0  0
    2.1437    0.0000    0.0000 N   0  0  0  0  0  0  0  0  0  0  0  0
    7.4424   -6.6739    0.0000 N   0  0  0  0  0  0  0  0  0  0  0  0
    8.5345   -7.9278    0.0000 N   0  0  0  0  0  0  0  0  0  0  0  0
    3.5594   -2.4673    0.0000 C   0  0  0  0  0  0  0  0  0  0  0  0
    4.2066   -2.9527    0.0000 C   0  0  0  0  0  0  0  0  0  0  0  0
    3.5594   -1.6584    0.0000 C   0  0  0  0  0  0  0  0  0  0  0  0
    2.8718   -1.2539    0.0000 C   0  0  0  0  0  0  0  0  0  0  0  0
    5.2987   -4.2066    0.0000 C   0  0  0  0  0  0  0  0  0  0  0  0
    2.8718   -2.9527    0.0000 C   0  0  0  0  0  0  0  0  0  0  0  0
    2.8718   -0.4045    0.0000 C   0  0  0  0  0  0  0  0  0  0  0  0
    4.4897   -4.3684    0.0000 C   0  0  0  0  0  0  0  0  0  0  0  0
    5.8245   -4.8133    0.0000 C   0  0  0  0  0  0  0  0  0  0  0  0
    4.2875   -1.2539    0.0000 C   0  0  0  0  0  0  0  0  0  0  0  0
    5.5414   -3.3977    0.0000 C   0  0  0  0  0  0  0  0  0  0  0  0
    2.1437   -1.6584    0.0000 C   0  0  0  0  0  0  0  0  0  0  0  0
    3.5594    0.0000    0.0000 C   0  0  0  0  0  0  0  0  0  0  0  0
    6.9166   -6.0672    0.0000 C   0  0  0  0  0  0  0  0  0  0  0  0
    4.2875   -0.4045    0.0000 C   0  0  0  0  0  0  0  0  0  0  0  0
    1.4157   -0.4045    0.0000 C   0  0  0  0  0  0  0  0  0  0  0  0
    6.6335   -4.6515    0.0000 C   0  0  0  0  0  0  0  0  0  0  0  0
    5.5414   -5.5818    0.0000 C   0  0  0  0  0  0  0  0  0  0  0  0
    1.4157   -1.2539    0.0000 C   0  0  0  0  0  0  0  0  0  0  0  0
    7.1997   -5.2987    0.0000 C   0  0  0  0  0  0  0  0  0  0  0  0
    6.1077   -6.2290    0.0000 C   0  0  0  0  0  0  0  0  0  0  0  0
    7.1997   -7.4829    0.0000 C   0  0  3  0  0  0  0  0  0  0  0  0
    8.2514   -6.5526    0.0000 C   0  0  3  0  0  0  0  0  0  0  0  0
    8.7772   -7.1593    0.0000 C   0  0  0  0  0  0  0  0  0  0  0  0
    7.7256   -8.0896    0.0000 C   0  0  0  0  0  0  0  0  0  0  0  0
    8.5345   -5.7436    0.0000 C   0  0  0  0  0  0  0  0  0  0  0  0
    6.3908   -7.6042    0.0000 C   0  0  0  0  0  0  0  0  0  0  0  0
    0.0000   -0.4045    0.0000 C   0  0  0  0  0  0  0  0  0  0  0  0
  1 23  1  0  0  0  0
  1 35  1  0  0  0  0
  2  3  1  0  0  0  0
  2  9  1  0  0  0  0
  2 15  1  0  0  0  0
  3 13  2  0  0  0  0
  4  9  1  0  0  0  0
  4 18  2  0  0  0  0
  5 14  2  0  0  0  0
  5 23  1  0  0  0  0
  6 21  1  0  0  0  0
  6 29  1  0  0  0  0
  6 30  1  0  0  0  0
  7 31  1  0  0  0  0
  7 32  1  0  0  0  0
  8  9  2  0  0  0  0
  8 10  1  0  0  0  0
  8 13  1  0  0  0  0
 10 11  1  0  0  0  0
 10 17  2  0  0  0  0
 11 14  1  0  0  0  0
 11 19  2  0  0  0  0
 12 15  2  0  0  0  0
 12 16  1  0  0  0  0
 12 18  1  0  0  0  0
 14 20  1  0  0  0  0
 16 24  2  0  0  0  0
 16 25  1  0  0  0  0
 17 22  1  0  0  0  0
 19 26  1  0  0  0  0
 20 22  2  0  0  0  0
 21 27  2  0  0  0  0
 21 28  1  0  0  0  0
 23 26  2  0  0  0  0
 24 27  1  0  0  0  0
 25 28  2  0  0  0  0
 29 32  1  0  0  0  0
 29 34  1  1  0  0  0
 30 31  1  0  0  0  0
 30 33  1  1  0  0  0
M  END
> <PUBCHEM_COMPOUND_ID_TYPE>
0

> <PUBCHEM_TOTAL_CHARGE>
0

> <PUBCHEM_SUBSTANCE_ID>
310934359

> <PUBCHEM_SUBSTANCE_VERSION>
1

> <PUBCHEM_EXT_DATASOURCE_NAME>
4488

> <PUBCHEM_EXT_DATASOURCE_REGID>
SCHEMBL16111824

> <PUBCHEM_SUBSTANCE_COMMENT>
InChI=1S/C28H28N6O/c1-18-13-29-14-19(2)34(18)22-9-7-20(8-10-22)21-15-30-28-25(16-31-33(28)17-21)23-5-4-6-26-24(23)11-12-27(32-26)35-3/h4-12,15-19,29H,13-14H2,1-3H3/t18-,19+
InChIKey=URUAVMYQAQXGRF-KDURUIRLSA-N

> <PUBCHEM_SUBSTANCE_SYNONYM>
SCHEMBL16111824

> <PUBCHEM_XREF_EXT_ID>
SCHEMBL16111824

> <PUBCHEM_EXT_DATASOURCE_URL>
https://www.surechembl.org/

> <PUBCHEM_EXT_SUBSTANCE_URL>
https://www.surechembl.org/chemical/SCHEMBL16111824

> <PUBCHEM_CID_ASSOCIATIONS>
117602588  1

> <PUBCHEM_COORDINATE_TYPE>
1
3

> <PUBCHEM_BONDANNOTATIONS>
29  34  5
30  33  5

$$$$
