310944109
  -OEChem-07211613022D

 33 37  0     1  0  0  0  0  0999 V2000
    2.2181    1.2219    0.0000 O   0  0  0  0  0  0  0  0  0  0  0  0
    4.7501    1.1449    0.0000 O   0  0  0  0  0  0  0  0  0  0  0  0
    5.8728    0.1981    0.0000 O   0  0  0  0  0  0  0  0  0  0  0  0
   -1.1173   -0.8917    0.0000 O   0  0  0  0  0  0  0  0  0  0  0  0
    2.9777   -0.0330    0.0000 N   0  0  0  0  0  0  0  0  0  0  0  0
    0.0385    0.2752    0.0000 N   0  0  0  0  0  0  0  0  0  0  0  0
   -4.5298    0.6935    0.0000 N   0  0  0  0  0  0  0  0  0  0  0  0
   -2.3613    0.8806    0.0000 N   0  0  0  0  0  0  0  0  0  0  0  0
   -3.5061   -0.2973    0.0000 N   0  0  0  0  0  0  0  0  0  0  0  0
   -4.8381    1.4531    0.0000 N   0  0  0  0  0  0  0  0  0  0  0  0
   -5.6637    1.3980    0.0000 N   0  0  0  0  0  0  0  0  0  0  0  0
   -5.8728    0.6055    0.0000 N   0  0  0  0  0  0  0  0  0  0  0  0
    1.6457   -0.0991    0.0000 C   0  0  0  0  0  0  0  0  0  0  0  0
    2.2732    0.3963    0.0000 C   0  0  0  0  0  0  0  0  0  0  0  0
    2.7575   -0.8146    0.0000 C   0  0  3  0  0  0  0  0  0  0  0  0
    3.7262    0.2862    0.0000 C   0  0  0  0  0  0  0  0  0  0  0  0
    1.9539   -0.8697    0.0000 C   0  0  0  0  0  0  0  0  0  0  0  0
    1.0623   -0.7045    0.0000 C   0  0  0  0  0  0  0  0  0  0  0  0
    1.4145    0.6715    0.0000 C   0  0  0  0  0  0  0  0  0  0  0  0
    4.4418   -0.1541    0.0000 C   0  0  0  0  0  0  0  0  0  0  0  0
    3.9244    1.0788    0.0000 C   0  0  0  0  0  0  0  0  0  0  0  0
    5.0472    0.4073    0.0000 C   0  0  0  0  0  0  0  0  0  0  0  0
    0.2587   -0.4954    0.0000 C   0  0  0  0  0  0  0  0  0  0  0  0
    0.6109    0.8697    0.0000 C   0  0  0  0  0  0  0  0  0  0  0  0
    3.2969   -1.4531    0.0000 C   0  0  0  0  0  0  0  0  0  0  0  0
   -0.7651    0.4844    0.0000 C   0  0  0  0  0  0  0  0  0  0  0  0
    4.5298   -0.9687    0.0000 C   0  0  0  0  0  0  0  0  0  0  0  0
   -1.3375   -0.0991    0.0000 C   0  0  3  0  0  0  0  0  0  0  0  0
   -2.1411    0.1101    0.0000 C   0  0  0  0  0  0  0  0  0  0  0  0
   -3.7373    0.5064    0.0000 C   0  0  0  0  0  0  0  0  0  0  0  0
   -2.7025   -0.4844    0.0000 C   0  0  0  0  0  0  0  0  0  0  0  0
   -3.1649    1.0898    0.0000 C   0  0  0  0  0  0  0  0  0  0  0  0
   -5.1573    0.1761    0.0000 C   0  0  0  0  0  0  0  0  0  0  0  0
  1 14  2  0  0  0  0
  2 21  1  0  0  0  0
  2 22  1  0  0  0  0
  3 22  2  0  0  0  0
 28  4  1  6  0  0  0
  5 14  1  0  0  0  0
  5 15  1  0  0  0  0
  5 16  1  0  0  0  0
  6 23  1  0  0  0  0
  6 24  1  0  0  0  0
  6 26  1  0  0  0  0
  7 10  1  0  0  0  0
  7 30  1  0  0  0  0
  7 33  1  0  0  0  0
  8 29  2  0  0  0  0
  8 32  1  0  0  0  0
  9 30  1  0  0  0  0
  9 31  2  0  0  0  0
 10 11  2  0  0  0  0
 11 12  1  0  0  0  0
 12 33  2  0  0  0  0
 13 14  1  0  0  0  0
 13 17  1  0  0  0  0
 13 18  1  0  0  0  0
 13 19  1  0  0  0  0
 15 17  1  0  0  0  0
 15 25  1  0  0  0  0
 16 20  2  0  0  0  0
 16 21  1  0  0  0  0
 18 23  1  0  0  0  0
 19 24  1  0  0  0  0
 20 22  1  0  0  0  0
 20 27  1  0  0  0  0
 26 28  1  0  0  0  0
 28 29  1  0  0  0  0
 29 31  1  0  0  0  0
 30 32  2  0  0  0  0
M  END
> <PUBCHEM_COMPOUND_ID_TYPE>
0

> <PUBCHEM_TOTAL_CHARGE>
0

> <PUBCHEM_SUBSTANCE_ID>
310944109

> <PUBCHEM_SUBSTANCE_VERSION>
1

> <PUBCHEM_EXT_DATASOURCE_NAME>
4488

> <PUBCHEM_EXT_DATASOURCE_REGID>
SCHEMBL16122184

> <PUBCHEM_SUBSTANCE_COMMENT>
InChI=1S/C21H26N8O4/c1-13-7-21(20(32)29(13)16-11-33-19(31)14(16)2)3-5-27(6-4-21)10-17(30)15-8-23-18(9-22-15)28-12-24-25-26-28/h8-9,12-13,17,30H,3-7,10-11H2,1-2H3/t13?,17-/m0/s1
InChIKey=XJIBSOOJEGEKDJ-RUINGEJQSA-N

> <PUBCHEM_SUBSTANCE_SYNONYM>
SCHEMBL16122184

> <PUBCHEM_XREF_EXT_ID>
SCHEMBL16122184

> <PUBCHEM_EXT_DATASOURCE_URL>
https://www.surechembl.org/

> <PUBCHEM_EXT_SUBSTANCE_URL>
https://www.surechembl.org/chemical/SCHEMBL16122184

> <PUBCHEM_CID_ASSOCIATIONS>
117610393  1

> <PUBCHEM_COORDINATE_TYPE>
1
3

> <PUBCHEM_BONDANNOTATIONS>
28  4  6

$$$$
