310945235
  -OEChem-07211613022D

 41 45  0     0  0  0  0  0  0999 V2000
    4.5993    3.1919    0.0000 O   0  0  0  0  0  0  0  0  0  0  0  0
   -2.3350   -0.2853    0.0000 O   0  0  0  0  0  0  0  0  0  0  0  0
   -2.2744    2.7473    0.0000 O   0  0  0  0  0  0  0  0  0  0  0  0
   -3.0469   -2.8008    0.0000 O   0  0  0  0  0  0  0  0  0  0  0  0
   -3.5431   -3.6165    0.0000 O   0  0  0  0  0  0  0  0  0  0  0  0
    2.6788    1.2310    0.0000 N   0  0  0  0  0  0  0  0  0  0  0  0
   -0.0303    2.7473    0.0000 N   0  0  0  0  0  0  0  0  0  0  0  0
    5.0643    1.8374    0.0000 N   0  0  0  0  0  0  0  0  0  0  0  0
   -2.6585    1.3523    0.0000 N   0  0  0  0  0  0  0  0  0  0  0  0
   -5.0643   -0.9929    0.0000 N   0  0  0  0  0  0  0  0  0  0  0  0
    2.3148    1.9991    0.0000 C   0  0  0  0  0  0  0  0  0  0  0  0
    2.9212    2.5652    0.0000 C   0  0  0  0  0  0  0  0  0  0  0  0
    3.6693    2.1407    0.0000 C   0  0  0  0  0  0  0  0  0  0  0  0
    1.5466    2.2619    0.0000 C   0  0  0  0  0  0  0  0  0  0  0  0
    3.4672    1.3321    0.0000 C   0  0  0  0  0  0  0  0  0  0  0  0
    1.3647    3.0706    0.0000 C   0  0  0  0  0  0  0  0  0  0  0  0
    4.4173    2.3833    0.0000 C   0  0  0  0  0  0  0  0  0  0  0  0
    2.7596    3.3537    0.0000 C   0  0  0  0  0  0  0  0  0  0  0  0
    0.9198    1.6960    0.0000 C   0  0  0  0  0  0  0  0  0  0  0  0
    0.1112    1.9587    0.0000 C   0  0  0  0  0  0  0  0  0  0  0  0
    1.9711    3.6165    0.0000 C   0  0  0  0  0  0  0  0  0  0  0  0
    4.1140    0.7659    0.0000 C   0  0  0  0  0  0  0  0  0  0  0  0
    0.5761    3.3132    0.0000 C   0  0  0  0  0  0  0  0  0  0  0  0
   -0.4954    1.3927    0.0000 C   0  0  0  0  0  0  0  0  0  0  0  0
    4.8824    1.0288    0.0000 C   0  0  0  0  0  0  0  0  0  0  0  0
   -1.2636    1.6353    0.0000 C   0  0  0  0  0  0  0  0  0  0  0  0
   -1.8902    1.0894    0.0000 C   0  0  0  0  0  0  0  0  0  0  0  0
   -0.3336    0.5839    0.0000 C   0  0  0  0  0  0  0  0  0  0  0  0
   -1.7082    0.3010    0.0000 C   0  0  0  0  0  0  0  0  0  0  0  0
   -0.9198    0.0382    0.0000 C   0  0  0  0  0  0  0  0  0  0  0  0
   -2.8606    2.1407    0.0000 C   0  0  0  0  0  0  0  0  0  0  0  0
   -3.1234   -0.0225    0.0000 C   0  0  0  0  0  0  0  0  0  0  0  0
   -3.6491    2.3833    0.0000 C   0  0  0  0  0  0  0  0  0  0  0  0
   -3.7098   -0.6087    0.0000 C   0  0  0  0  0  0  0  0  0  0  0  0
   -4.4982   -0.3864    0.0000 C   0  0  0  0  0  0  0  0  0  0  0  0
   -3.0359   -2.2496    0.0000 C   0  0  0  0  0  0  0  0  0  0  0  0
   -3.5431   -3.0874    0.0000 C   0  0  0  0  0  0  0  0  0  0  0  0
   -3.8109    3.2121    0.0000 C   0  0  0  0  0  0  0  0  0  0  0  0
   -2.5399   -2.2275    0.0000 C   0  0  0  0  0  0  0  0  0  0  0  0
   -3.5431   -2.2496    0.0000 C   0  0  0  0  0  0  0  0  0  0  0  0
   -3.0469   -1.7094    0.0000 C   0  0  0  0  0  0  0  0  0  0  0  0
  1 17  2  0  0  0  0
  2 29  1  0  0  0  0
  2 32  1  0  0  0  0
  3 31  2  0  0  0  0
  4 36  1  0  0  0  0
  4 37  1  0  0  0  0
  5 37  2  0  0  0  0
  6 11  1  0  0  0  0
  6 15  1  0  0  0  0
  7 20  2  0  0  0  0
  7 23  1  0  0  0  0
  8 17  1  0  0  0  0
  8 25  1  0  0  0  0
  9 27  1  0  0  0  0
  9 31  1  0  0  0  0
 10 35  1  0  0  0  0
 10 37  1  0  0  0  0
 11 12  2  0  0  0  0
 11 14  1  0  0  0  0
 12 13  1  0  0  0  0
 12 18  1  0  0  0  0
 13 15  2  0  0  0  0
 13 17  1  0  0  0  0
 14 16  1  0  0  0  0
 14 19  2  0  0  0  0
 15 22  1  0  0  0  0
 16 21  1  0  0  0  0
 16 23  2  0  0  0  0
 18 21  1  0  0  0  0
 19 20  1  0  0  0  0
 20 24  1  0  0  0  0
 22 25  1  0  0  0  0
 24 26  2  0  0  0  0
 24 28  1  0  0  0  0
 26 27  1  0  0  0  0
 27 29  2  0  0  0  0
 28 30  2  0  0  0  0
 29 30  1  0  0  0  0
 31 33  1  0  0  0  0
 32 34  1  0  0  0  0
 33 38  2  0  0  0  0
 34 35  1  0  0  0  0
 36 39  1  0  0  0  0
 36 40  1  0  0  0  0
 36 41  1  0  0  0  0
M  END
> <PUBCHEM_COMPOUND_ID_TYPE>
0

> <PUBCHEM_TOTAL_CHARGE>
0

> <PUBCHEM_SUBSTANCE_ID>
310945235

> <PUBCHEM_SUBSTANCE_VERSION>
1

> <PUBCHEM_EXT_DATASOURCE_NAME>
4488

> <PUBCHEM_EXT_DATASOURCE_REGID>
SCHEMBL16123325

> <PUBCHEM_SUBSTANCE_COMMENT>
InChI=1S/C31H35N5O5/c1-5-26(37)35-24-15-18(8-10-25(24)40-14-6-12-33-30(39)41-31(2,3)4)23-16-21-19(17-34-23)7-9-20-27-22(36-28(20)21)11-13-32-29(27)38/h5,8,10,15-17,36H,1,6-7,9,11-14H2,2-4H3,(H,32,38)(H,33,39)(H,35,37)
InChIKey=WXMIZBPRTXPPSK-UHFFFAOYSA-N

> <PUBCHEM_SUBSTANCE_SYNONYM>
SCHEMBL16123325

> <PUBCHEM_XREF_EXT_ID>
SCHEMBL16123325

> <PUBCHEM_EXT_DATASOURCE_URL>
https://www.surechembl.org/

> <PUBCHEM_EXT_SUBSTANCE_URL>
https://www.surechembl.org/chemical/SCHEMBL16123325

> <PUBCHEM_CID_ASSOCIATIONS>
117611307  1

> <PUBCHEM_COORDINATE_TYPE>
1
3

$$$$
