310947512
  -OEChem-07211613022D

 15 15  0     0  0  0  0  0  0999 V2000
    1.2313   -7.6545    0.0000 O   0  0  0  0  0  0  0  0  0  0  0  0
   -0.0062   -6.9400    0.0000 O   0  0  0  0  0  0  0  0  0  0  0  0
    1.2313   -9.0834    0.0000 O   0  0  0  0  0  0  0  0  0  0  0  0
   -0.4187   -7.6545    0.0000 C   0  0  0  0  0  0  0  0  0  0  0  0
   -0.0062   -8.3689    0.0000 C   0  0  0  0  0  0  0  0  0  0  0  0
   -1.2437   -7.6545    0.0000 C   0  0  0  0  0  0  0  0  0  0  0  0
    0.8188   -8.3689    0.0000 C   0  0  0  0  0  0  0  0  0  0  0  0
   -1.6562   -6.9400    0.0000 C   0  0  0  0  0  0  0  0  0  0  0  0
   -1.6562   -8.3689    0.0000 C   0  0  0  0  0  0  0  0  0  0  0  0
   -0.4187   -9.0834    0.0000 C   0  0  0  0  0  0  0  0  0  0  0  0
   -2.4812   -6.9400    0.0000 C   0  0  0  0  0  0  0  0  0  0  0  0
   -2.4812   -8.3689    0.0000 C   0  0  0  0  0  0  0  0  0  0  0  0
   -2.8937   -7.6545    0.0000 C   0  0  0  0  0  0  0  0  0  0  0  0
    2.0563   -7.6545    0.0000 C   0  0  0  0  0  0  0  0  0  0  0  0
    2.4688   -6.9400    0.0000 C   0  0  0  0  0  0  0  0  0  0  0  0
  1  7  1  0  0  0  0
  1 14  1  0  0  0  0
  2  4  2  0  0  0  0
  3  7  2  0  0  0  0
  4  5  1  0  0  0  0
  4  6  1  0  0  0  0
  5  7  1  0  0  0  0
  5 10  2  0  0  0  0
  6  8  2  0  0  0  0
  6  9  1  0  0  0  0
  8 11  1  0  0  0  0
  9 12  1  0  0  0  0
 11 13  2  0  0  0  0
 12 13  1  0  0  0  0
 14 15  1  0  0  0  0
M  END
> <PUBCHEM_COMPOUND_ID_TYPE>
0

> <PUBCHEM_TOTAL_CHARGE>
0

> <PUBCHEM_SUBSTANCE_ID>
310947512

> <PUBCHEM_SUBSTANCE_VERSION>
1

> <PUBCHEM_EXT_DATASOURCE_NAME>
4488

> <PUBCHEM_EXT_DATASOURCE_REGID>
SCHEMBL16125674

> <PUBCHEM_SUBSTANCE_COMMENT>
InChI=1S/C12H14O3/c1-3-15-12(14)9(2)11(13)10-7-5-4-6-8-10/h4-5,7H,2-3,6,8H2,1H3
InChIKey=NITDEBXNCCAHPH-UHFFFAOYSA-N

> <PUBCHEM_SUBSTANCE_SYNONYM>
SCHEMBL16125674

> <PUBCHEM_XREF_EXT_ID>
SCHEMBL16125674

> <PUBCHEM_EXT_DATASOURCE_URL>
https://www.surechembl.org/

> <PUBCHEM_EXT_SUBSTANCE_URL>
https://www.surechembl.org/chemical/SCHEMBL16125674

> <PUBCHEM_CID_ASSOCIATIONS>
117613235  1

> <PUBCHEM_COORDINATE_TYPE>
1
3

$$$$
