310929288
  -OEChem-07211613022D

 15 15  0     0  0  0  0  0  0999 V2000
    2.8669    0.0000    0.0000 O   0  0  0  0  0  0  0  0  0  0  0  0
    3.5888   -1.2375    0.0000 N   0  0  0  0  0  0  0  0  0  0  0  0
    0.0000   -0.8250    0.0000 N   0  0  0  0  0  0  0  0  0  0  0  0
    1.4438   -2.4750    0.0000 C   0  0  0  0  0  0  0  0  0  0  0  0
    2.1450   -1.2375    0.0000 C   0  0  0  0  0  0  0  0  0  0  0  0
    1.4438   -3.3000    0.0000 C   0  0  0  0  0  0  0  0  0  0  0  0
    2.1450   -2.0625    0.0000 C   0  0  0  0  0  0  0  0  0  0  0  0
    0.7219   -1.2375    0.0000 C   0  0  0  0  0  0  0  0  0  0  0  0
    0.7219   -2.0625    0.0000 C   0  0  0  0  0  0  0  0  0  0  0  0
    1.4438   -0.8250    0.0000 C   0  0  0  0  0  0  0  0  0  0  0  0
    2.8669   -0.8250    0.0000 C   0  0  0  0  0  0  0  0  0  0  0  0
    0.5981   -3.3000    0.0000 C   0  0  0  0  0  0  0  0  0  0  0  0
    1.4438   -4.1251    0.0000 C   0  0  0  0  0  0  0  0  0  0  0  0
    2.2688   -3.3000    0.0000 C   0  0  0  0  0  0  0  0  0  0  0  0
    4.3106   -0.8250    0.0000 C   0  0  0  0  0  0  0  0  0  0  0  0
  1 11  2  0  0  0  0
  2 11  1  0  0  0  0
  2 15  1  0  0  0  0
  3  8  1  0  0  0  0
  4  6  1  0  0  0  0
  4  7  2  0  0  0  0
  4  9  1  0  0  0  0
  5  7  1  0  0  0  0
  5 10  2  0  0  0  0
  5 11  1  0  0  0  0
  6 12  1  0  0  0  0
  6 13  1  0  0  0  0
  6 14  1  0  0  0  0
  8  9  2  0  0  0  0
  8 10  1  0  0  0  0
M  END
> <PUBCHEM_COMPOUND_ID_TYPE>
0

> <PUBCHEM_TOTAL_CHARGE>
0

> <PUBCHEM_SUBSTANCE_ID>
310929288

> <PUBCHEM_SUBSTANCE_VERSION>
1

> <PUBCHEM_EXT_DATASOURCE_NAME>
4488

> <PUBCHEM_EXT_DATASOURCE_REGID>
SCHEMBL16106452

> <PUBCHEM_SUBSTANCE_COMMENT>
InChI=1S/C12H18N2O/c1-12(2,3)9-5-8(11(15)14-4)6-10(13)7-9/h5-7H,13H2,1-4H3,(H,14,15)
InChIKey=HSBQGNXKHRFVNI-UHFFFAOYSA-N

> <PUBCHEM_SUBSTANCE_SYNONYM>
SCHEMBL16106452

> <PUBCHEM_XREF_EXT_ID>
SCHEMBL16106452

> <PUBCHEM_EXT_DATASOURCE_URL>
https://www.surechembl.org/

> <PUBCHEM_EXT_SUBSTANCE_URL>
https://www.surechembl.org/chemical/SCHEMBL16106452

> <PUBCHEM_CID_ASSOCIATIONS>
117598700  1

> <PUBCHEM_COORDINATE_TYPE>
1
3

$$$$
