310934038
  -OEChem-07211613022D

 22 23  0     0  0  0  0  0  0999 V2000
    1.2643    0.0000    0.0000 Cl  0  0  0  0  0  0  0  0  0  0  0  0
    3.7105   -1.4292    0.0000 S   0  0  0  0  0  0  0  0  0  0  0  0
    3.7105   -0.6047    0.0000 O   0  0  0  0  0  0  0  0  0  0  0  0
    3.7105   -2.2537    0.0000 O   0  0  0  0  0  0  0  0  0  0  0  0
    0.4123   -1.4292    0.0000 O   0  0  0  0  0  0  0  0  0  0  0  0
    7.0086    0.0000    0.0000 O   0  0  0  0  0  0  0  0  0  0  0  0
    8.2454   -0.7146    0.0000 O   0  0  0  0  0  0  0  0  0  0  0  0
    4.5349   -1.4292    0.0000 N   0  0  0  0  0  0  0  0  0  0  0  0
    7.0086   -1.4292    0.0000 N   0  0  0  0  0  0  0  0  0  0  0  0
    2.8859   -1.4292    0.0000 C   0  0  0  0  0  0  0  0  0  0  0  0
    2.4736   -0.7146    0.0000 C   0  0  0  0  0  0  0  0  0  0  0  0
    2.4736   -2.1438    0.0000 C   0  0  0  0  0  0  0  0  0  0  0  0
    1.6766   -0.7146    0.0000 C   0  0  0  0  0  0  0  0  0  0  0  0
    1.2643   -1.4292    0.0000 C   0  0  0  0  0  0  0  0  0  0  0  0
    4.9472   -0.6871    0.0000 C   0  0  0  0  0  0  0  0  0  0  0  0
    4.9472   -2.1438    0.0000 C   0  0  0  0  0  0  0  0  0  0  0  0
    1.6766   -2.1438    0.0000 C   0  0  0  0  0  0  0  0  0  0  0  0
    6.1840   -1.4292    0.0000 C   0  0  0  0  0  0  0  0  0  0  0  0
    5.7718   -0.6871    0.0000 C   0  0  0  0  0  0  0  0  0  0  0  0
    5.7718   -2.1438    0.0000 C   0  0  0  0  0  0  0  0  0  0  0  0
    7.4208   -0.7146    0.0000 C   0  0  0  0  0  0  0  0  0  0  0  0
    0.0000   -2.1438    0.0000 C   0  0  0  0  0  0  0  0  0  0  0  0
  1 13  1  0  0  0  0
  2  3  2  0  0  0  0
  2  4  2  0  0  0  0
  2  8  1  0  0  0  0
  2 10  1  0  0  0  0
  5 14  1  0  0  0  0
  5 22  1  0  0  0  0
  6 21  2  0  0  0  0
  7 21  1  0  0  0  0
  8 15  1  0  0  0  0
  8 16  1  0  0  0  0
  9 18  1  0  0  0  0
  9 21  1  0  0  0  0
 10 11  1  0  0  0  0
 10 12  2  0  0  0  0
 11 13  2  0  0  0  0
 12 17  1  0  0  0  0
 13 14  1  0  0  0  0
 14 17  2  0  0  0  0
 15 19  1  0  0  0  0
 16 20  1  0  0  0  0
 18 19  1  0  0  0  0
 18 20  1  0  0  0  0
M  END
> <PUBCHEM_COMPOUND_ID_TYPE>
0

> <PUBCHEM_TOTAL_CHARGE>
0

> <PUBCHEM_SUBSTANCE_ID>
310934038

> <PUBCHEM_SUBSTANCE_VERSION>
1

> <PUBCHEM_EXT_DATASOURCE_NAME>
4488

> <PUBCHEM_EXT_DATASOURCE_REGID>
SCHEMBL16111482

> <PUBCHEM_SUBSTANCE_COMMENT>
InChI=1S/C13H17ClN2O5S/c1-21-12-3-2-10(8-11(12)14)22(19,20)16-6-4-9(5-7-16)15-13(17)18/h2-3,8-9,15H,4-7H2,1H3,(H,17,18)
InChIKey=FYPRMFKKXSPGHO-UHFFFAOYSA-N

> <PUBCHEM_SUBSTANCE_SYNONYM>
SCHEMBL16111482

> <PUBCHEM_XREF_EXT_ID>
SCHEMBL16111482

> <PUBCHEM_EXT_DATASOURCE_URL>
https://www.surechembl.org/

> <PUBCHEM_EXT_SUBSTANCE_URL>
https://www.surechembl.org/chemical/SCHEMBL16111482

> <PUBCHEM_CID_ASSOCIATIONS>
117602337  1

> <PUBCHEM_COORDINATE_TYPE>
1
3

$$$$
