310940283
  -OEChem-07211613022D

 34 37  0     1  0  0  0  0  0999 V2000
    3.3398    2.1236    0.0000 S   0  0  0  0  0  0  0  0  0  0  0  0
   -2.2870    0.9801    0.0000 O   0  0  0  0  0  0  0  0  0  0  0  0
    1.3250   -2.5230    0.0000 O   0  0  0  0  0  0  0  0  0  0  0  0
   -4.1021   -0.2722    0.0000 O   0  0  0  0  0  0  0  0  0  0  0  0
   -3.9387    1.1616    0.0000 O   0  0  0  0  0  0  0  0  0  0  0  0
    2.6319    2.5411    0.0000 O   0  0  0  0  0  0  0  0  0  0  0  0
    3.7572    2.8315    0.0000 O   0  0  0  0  0  0  0  0  0  0  0  0
   -0.4356   -0.3630    0.0000 N   0  0  0  0  0  0  0  0  0  0  0  0
    0.3630   -0.0907    0.0000 N   0  0  0  0  0  0  0  0  0  0  0  0
    1.6880   -0.7805    0.0000 N   0  0  0  0  0  0  0  0  0  0  0  0
   -0.0907   -2.8315    0.0000 N   0  0  0  0  0  0  0  0  0  0  0  0
   -0.1815    2.1236    0.0000 N   0  0  0  0  0  0  0  0  0  0  0  0
   -1.0709    0.1633    0.0000 C   0  0  3  0  0  0  0  0  0  0  0  0
   -0.4356   -1.1798    0.0000 C   0  0  0  0  0  0  0  0  0  0  0  0
    0.3448   -1.4339    0.0000 C   0  0  0  0  0  0  0  0  0  0  0  0
    0.8349   -0.7442    0.0000 C   0  0  0  0  0  0  0  0  0  0  0  0
    0.5264   -2.2325    0.0000 C   0  0  0  0  0  0  0  0  0  0  0  0
   -1.4521    0.8894    0.0000 C   0  0  0  0  0  0  0  0  0  0  0  0
   -1.5973   -0.5264    0.0000 C   0  0  0  0  0  0  0  0  0  0  0  0
   -1.0527   -1.7425    0.0000 C   0  0  0  0  0  0  0  0  0  0  0  0
   -0.3448    0.4901    0.0000 C   0  0  0  0  0  0  0  0  0  0  0  0
   -2.7771    0.3085    0.0000 C   0  0  3  0  0  0  0  0  0  0  0  0
   -2.4322   -0.4356    0.0000 C   0  0  0  0  0  0  0  0  0  0  0  0
   -0.8712   -2.5593    0.0000 C   0  0  0  0  0  0  0  0  0  0  0  0
    2.1055   -0.0363    0.0000 C   0  0  0  0  0  0  0  0  0  0  0  0
   -0.2541    1.2887    0.0000 C   0  0  0  0  0  0  0  0  0  0  0  0
   -3.6302    0.3811    0.0000 C   0  0  0  0  0  0  0  0  0  0  0  0
    2.9404   -0.0363    0.0000 C   0  0  0  0  0  0  0  0  0  0  0  0
    1.7062    0.6716    0.0000 C   0  0  0  0  0  0  0  0  0  0  0  0
    2.9223    1.3976    0.0000 C   0  0  0  0  0  0  0  0  0  0  0  0
    3.3398    0.6897    0.0000 C   0  0  0  0  0  0  0  0  0  0  0  0
    2.1055    1.3795    0.0000 C   0  0  0  0  0  0  0  0  0  0  0  0
    4.1021    1.7062    0.0000 C   0  0  0  0  0  0  0  0  0  0  0  0
   -3.7390   -1.0527    0.0000 C   0  0  0  0  0  0  0  0  0  0  0  0
  1  6  2  0  0  0  0
  1  7  2  0  0  0  0
  1 30  1  0  0  0  0
  1 33  1  0  0  0  0
  2 18  1  0  0  0  0
  2 22  1  0  0  0  0
  3 17  2  0  0  0  0
  4 27  1  0  0  0  0
  4 34  1  0  0  0  0
  5 27  2  0  0  0  0
  8  9  1  0  0  0  0
  8 13  1  0  0  0  0
  8 14  1  0  0  0  0
  9 16  2  0  0  0  0
 10 16  1  0  0  0  0
 10 25  1  0  0  0  0
 11 17  1  0  0  0  0
 11 24  1  0  0  0  0
 12 26  3  0  0  0  0
 13 18  1  0  0  0  0
 13 19  1  0  0  0  0
 13 21  1  1  0  0  0
 14 15  2  0  0  0  0
 14 20  1  0  0  0  0
 15 16  1  0  0  0  0
 15 17  1  0  0  0  0
 19 23  1  0  0  0  0
 20 24  2  0  0  0  0
 21 26  1  0  0  0  0
 22 23  1  0  0  0  0
 22 27  1  1  0  0  0
 25 28  2  0  0  0  0
 25 29  1  0  0  0  0
 28 31  1  0  0  0  0
 29 32  2  0  0  0  0
 30 31  2  0  0  0  0
 30 32  1  0  0  0  0
M  END
> <PUBCHEM_COMPOUND_ID_TYPE>
0

> <PUBCHEM_TOTAL_CHARGE>
0

> <PUBCHEM_SUBSTANCE_ID>
310940283

> <PUBCHEM_SUBSTANCE_VERSION>
1

> <PUBCHEM_EXT_DATASOURCE_NAME>
4488

> <PUBCHEM_EXT_DATASOURCE_REGID>
SCHEMBL16118226

> <PUBCHEM_SUBSTANCE_COMMENT>
InChI=1S/C22H23N5O6S/c1-32-21(29)17-7-9-22(10-11-23,13-33-17)27-16-8-12-24-20(28)18(16)19(26-27)25-14-3-5-15(6-4-14)34(2,30)31/h3-6,8,12,17H,7,9-10,13H2,1-2H3,(H,24,28)(H,25,26)/t17-,22-/m0/s1
InChIKey=CUBORHOSMCXRBB-JTSKRJEESA-N

> <PUBCHEM_SUBSTANCE_SYNONYM>
SCHEMBL16118226

> <PUBCHEM_XREF_EXT_ID>
SCHEMBL16118226

> <PUBCHEM_EXT_DATASOURCE_URL>
https://www.surechembl.org/

> <PUBCHEM_EXT_SUBSTANCE_URL>
https://www.surechembl.org/chemical/SCHEMBL16118226

> <PUBCHEM_CID_ASSOCIATIONS>
117607366  1

> <PUBCHEM_COORDINATE_TYPE>
1
3

> <PUBCHEM_BONDANNOTATIONS>
13  21  5
22  27  5

$$$$
