310934334
  -OEChem-07211613022D

 39 44  0     0  0  0  0  0  0999 V2000
    2.1069   -1.6460    0.0000 O   0  0  0  0  0  0  0  0  0  0  0  0
    3.5553   -1.6460    0.0000 O   0  0  0  0  0  0  0  0  0  0  0  0
    3.5553   -9.1517    0.0000 N   0  0  0  0  0  0  0  0  0  0  0  0
    4.1479   -9.6785    0.0000 N   0  0  0  0  0  0  0  0  0  0  0  0
    2.1069   -9.1517    0.0000 N   0  0  0  0  0  0  0  0  0  0  0  0
    1.3168  -12.1804    0.0000 N   0  0  0  0  0  0  0  0  0  0  0  0
    2.8311   -2.8969    0.0000 N   0  0  0  0  0  0  0  0  0  0  0  0
    3.0287  -10.3368    0.0000 C   0  0  0  0  0  0  0  0  0  0  0  0
    2.8311   -9.5468    0.0000 C   0  0  0  0  0  0  0  0  0  0  0  0
    2.4361  -10.9952    0.0000 C   0  0  0  0  0  0  0  0  0  0  0  0
    1.6460  -10.7977    0.0000 C   0  0  0  0  0  0  0  0  0  0  0  0
    3.8187  -10.4685    0.0000 C   0  0  0  0  0  0  0  0  0  0  0  0
    1.0534  -11.3903    0.0000 C   0  0  0  0  0  0  0  0  0  0  0  0
    2.8311   -7.9008    0.0000 C   0  0  0  0  0  0  0  0  0  0  0  0
    3.5553   -8.2958    0.0000 C   0  0  0  0  0  0  0  0  0  0  0  0
    2.6994  -11.7853    0.0000 C   0  0  0  0  0  0  0  0  0  0  0  0
    2.1069   -8.2958    0.0000 C   0  0  0  0  0  0  0  0  0  0  0  0
    2.1727  -12.3779    0.0000 C   0  0  0  0  0  0  0  0  0  0  0  0
    2.8311   -7.0449    0.0000 C   0  0  0  0  0  0  0  0  0  0  0  0
    1.3827  -10.0076    0.0000 C   0  0  0  0  0  0  0  0  0  0  0  0
    0.2633  -11.2586    0.0000 C   0  0  0  0  0  0  0  0  0  0  0  0
    2.8311   -5.3989    0.0000 C   0  0  0  0  0  0  0  0  0  0  0  0
    3.5553   -6.6498    0.0000 C   0  0  0  0  0  0  0  0  0  0  0  0
    2.1069   -6.6498    0.0000 C   0  0  0  0  0  0  0  0  0  0  0  0
    0.5926   -9.8102    0.0000 C   0  0  0  0  0  0  0  0  0  0  0  0
    0.0000  -10.4685    0.0000 C   0  0  0  0  0  0  0  0  0  0  0  0
    2.8311   -4.5429    0.0000 C   0  0  0  0  0  0  0  0  0  0  0  0
    3.5553   -5.7939    0.0000 C   0  0  0  0  0  0  0  0  0  0  0  0
    2.1069   -5.7939    0.0000 C   0  0  0  0  0  0  0  0  0  0  0  0
    2.4361  -13.1680    0.0000 C   0  0  0  0  0  0  0  0  0  0  0  0
    3.5553   -4.1479    0.0000 C   0  0  0  0  0  0  0  0  0  0  0  0
    2.1069   -4.1479    0.0000 C   0  0  0  0  0  0  0  0  0  0  0  0
    3.5553   -3.2920    0.0000 C   0  0  0  0  0  0  0  0  0  0  0  0
    2.1069   -3.2920    0.0000 C   0  0  0  0  0  0  0  0  0  0  0  0
    2.8311   -2.0410    0.0000 C   0  0  0  0  0  0  0  0  0  0  0  0
    2.1069   -0.7901    0.0000 C   0  0  0  0  0  0  0  0  0  0  0  0
    2.9628   -0.7901    0.0000 C   0  0  0  0  0  0  0  0  0  0  0  0
    2.1069    0.0000    0.0000 C   0  0  0  0  0  0  0  0  0  0  0  0
    1.3168   -0.7901    0.0000 C   0  0  0  0  0  0  0  0  0  0  0  0
  1 35  1  0  0  0  0
  1 36  1  0  0  0  0
  2 35  2  0  0  0  0
  3  4  1  0  0  0  0
  3  9  1  0  0  0  0
  3 15  1  0  0  0  0
  4 12  2  0  0  0  0
  5  9  1  0  0  0  0
  5 17  2  0  0  0  0
  6 13  2  0  0  0  0
  6 18  1  0  0  0  0
  7 33  1  0  0  0  0
  7 34  1  0  0  0  0
  7 35  1  0  0  0  0
  8  9  2  0  0  0  0
  8 10  1  0  0  0  0
  8 12  1  0  0  0  0
 10 11  2  0  0  0  0
 10 16  1  0  0  0  0
 11 13  1  0  0  0  0
 11 20  1  0  0  0  0
 13 21  1  0  0  0  0
 14 15  2  0  0  0  0
 14 17  1  0  0  0  0
 14 19  1  0  0  0  0
 16 18  2  0  0  0  0
 18 30  1  0  0  0  0
 19 23  2  0  0  0  0
 19 24  1  0  0  0  0
 20 25  2  0  0  0  0
 21 26  2  0  0  0  0
 22 27  1  0  0  0  0
 22 28  2  0  0  0  0
 22 29  1  0  0  0  0
 23 28  1  0  0  0  0
 24 29  2  0  0  0  0
 25 26  1  0  0  0  0
 27 31  1  0  0  0  0
 27 32  1  0  0  0  0
 31 33  1  0  0  0  0
 32 34  1  0  0  0  0
 36 37  1  0  0  0  0
 36 38  1  0  0  0  0
 36 39  1  0  0  0  0
M  END
> <PUBCHEM_COMPOUND_ID_TYPE>
0

> <PUBCHEM_TOTAL_CHARGE>
0

> <PUBCHEM_SUBSTANCE_ID>
310934334

> <PUBCHEM_SUBSTANCE_VERSION>
1

> <PUBCHEM_EXT_DATASOURCE_NAME>
4488

> <PUBCHEM_EXT_DATASOURCE_REGID>
SCHEMBL16111797

> <PUBCHEM_SUBSTANCE_COMMENT>
InChI=1S/C32H33N5O2/c1-21-17-27(26-7-5-6-8-29(26)35-21)28-19-34-37-20-25(18-33-30(28)37)23-11-9-22(10-12-23)24-13-15-36(16-14-24)31(38)39-32(2,3)4/h5-12,17-20,24H,13-16H2,1-4H3
InChIKey=FZNHGHCQBMCAGW-UHFFFAOYSA-N

> <PUBCHEM_SUBSTANCE_SYNONYM>
SCHEMBL16111797

> <PUBCHEM_XREF_EXT_ID>
SCHEMBL16111797

> <PUBCHEM_EXT_DATASOURCE_URL>
https://www.surechembl.org/

> <PUBCHEM_EXT_SUBSTANCE_URL>
https://www.surechembl.org/chemical/SCHEMBL16111797

> <PUBCHEM_CID_ASSOCIATIONS>
117602571  1

> <PUBCHEM_COORDINATE_TYPE>
1
3

$$$$
