310946854
  -OEChem-07211613022D

 10 10  0     1  0  0  0  0  0999 V2000
   -1.7880   -0.7928    0.0000 F   0  0  0  0  0  0  0  0  0  0  0  0
    0.0728    0.8576    0.0000 O   0  0  0  0  0  0  0  0  0  0  0  0
    1.7880   -0.7928    0.0000 N   0  0  0  0  0  0  0  0  0  0  0  0
   -0.3803   -0.5177    0.0000 C   0  0  3  0  0  0  0  0  0  0  0  0
   -1.1569   -0.2427    0.0000 C   0  0  3  0  0  0  0  0  0  0  0  0
    0.2346    0.0323    0.0000 C   0  0  0  0  0  0  0  0  0  0  0  0
   -1.3187    0.5825    0.0000 C   0  0  0  0  0  0  0  0  0  0  0  0
    0.2023   -1.1165    0.0000 C   0  0  0  0  0  0  0  0  0  0  0  0
   -0.7200    1.1165    0.0000 C   0  0  0  0  0  0  0  0  0  0  0  0
    0.9627   -0.9708    0.0000 C   0  0  0  0  0  0  0  0  0  0  0  0
  5  1  1  6  0  0  0
  2  6  1  0  0  0  0
  2  9  1  0  0  0  0
  3 10  3  0  0  0  0
  4  5  1  0  0  0  0
  4  6  1  0  0  0  0
  4  8  1  1  0  0  0
  5  7  1  0  0  0  0
  7  9  1  0  0  0  0
  8 10  1  0  0  0  0
M  END
> <PUBCHEM_COMPOUND_ID_TYPE>
0

> <PUBCHEM_TOTAL_CHARGE>
0

> <PUBCHEM_SUBSTANCE_ID>
310946854

> <PUBCHEM_SUBSTANCE_VERSION>
1

> <PUBCHEM_EXT_DATASOURCE_NAME>
4488

> <PUBCHEM_EXT_DATASOURCE_REGID>
SCHEMBL16124978

> <PUBCHEM_SUBSTANCE_COMMENT>
InChI=1S/C7H10FNO/c8-7-2-4-10-5-6(7)1-3-9/h6-7H,1-2,4-5H2/t6-,7-/m1/s1
InChIKey=DSGMFFYFPFLGLS-RNFRBKRXSA-N

> <PUBCHEM_SUBSTANCE_SYNONYM>
SCHEMBL16124978

> <PUBCHEM_XREF_EXT_ID>
SCHEMBL16124978

> <PUBCHEM_EXT_DATASOURCE_URL>
https://www.surechembl.org/

> <PUBCHEM_EXT_SUBSTANCE_URL>
https://www.surechembl.org/chemical/SCHEMBL16124978

> <PUBCHEM_CID_ASSOCIATIONS>
105531395  1

> <PUBCHEM_COORDINATE_TYPE>
1
3

> <PUBCHEM_BONDANNOTATIONS>
5  1  6
4  8  5

$$$$
