310942615
  -OEChem-07211613022D

 55 59  0     1  0  0  0  0  0999 V2000
   -5.0059    0.5604    0.0000 F   0  0  0  0  0  0  0  0  0  0  0  0
   -5.0059   -2.7573    0.0000 F   0  0  0  0  0  0  0  0  0  0  0  0
    1.4524   -1.3418    0.0000 F   0  0  0  0  0  0  0  0  0  0  0  0
   -2.4993   -1.2091    0.0000 O   0  0  0  0  0  0  0  0  0  0  0  0
    1.2165    0.7520    0.0000 O   0  0  0  0  0  0  0  0  0  0  0  0
   -4.9617    2.6541    0.0000 O   0  0  0  0  0  0  0  0  0  0  0  0
    1.5851    2.1380    0.0000 O   0  0  0  0  0  0  0  0  0  0  0  0
   -3.4430   -3.1702    0.0000 O   0  0  0  0  0  0  0  0  0  0  0  0
    3.6937    3.2586    0.0000 O   0  0  0  0  0  0  0  0  0  0  0  0
    5.7431    1.2091    0.0000 O   0  0  0  0  0  0  0  0  0  0  0  0
   -2.6762    0.7225    0.0000 N   0  0  0  0  0  0  0  0  0  0  0  0
   -1.1132   -0.8257    0.0000 N   0  0  0  0  0  0  0  0  0  0  0  0
   -2.8236   -0.6046    0.0000 N   0  0  0  0  0  0  0  0  0  0  0  0
   -1.4818   -2.2117    0.0000 N   0  0  0  0  0  0  0  0  0  0  0  0
    0.1253   -3.0080    0.0000 N   0  0  0  0  0  0  0  0  0  0  0  0
    4.5488    2.0791    0.0000 N   0  0  0  0  0  0  0  0  0  0  0  0
    2.5877    1.1206    0.0000 N   0  0  0  0  0  0  0  0  0  0  0  0
   -1.4524   -0.0737    0.0000 C   0  0  3  0  0  0  0  0  0  0  0  0
   -2.2782    0.0295    0.0000 C   0  0  0  0  0  0  0  0  0  0  0  0
   -0.9805    0.6193    0.0000 C   0  0  0  0  0  0  0  0  0  0  0  0
   -3.5904   -0.2507    0.0000 C   0  0  0  0  0  0  0  0  0  0  0  0
   -3.4872    0.5751    0.0000 C   0  0  0  0  0  0  0  0  0  0  0  0
   -4.3128   -0.6636    0.0000 C   0  0  0  0  0  0  0  0  0  0  0  0
   -1.6883   -1.4303    0.0000 C   0  0  0  0  0  0  0  0  0  0  0  0
   -2.3519    1.5040    0.0000 C   0  0  0  0  0  0  0  0  0  0  0  0
   -0.3023   -0.9142    0.0000 C   0  0  0  0  0  0  0  0  0  0  0  0
   -0.1696    0.3982    0.0000 C   0  0  0  0  0  0  0  0  0  0  0  0
   -5.0207   -0.2507    0.0000 C   0  0  0  0  0  0  0  0  0  0  0  0
    0.0074   -1.6662    0.0000 C   0  0  3  0  0  0  0  0  0  0  0  0
   -1.5556    1.1648    0.0000 C   0  0  0  0  0  0  0  0  0  0  0  0
   -0.7594    1.4155    0.0000 C   0  0  0  0  0  0  0  0  0  0  0  0
   -4.3276   -1.5040    0.0000 C   0  0  0  0  0  0  0  0  0  0  0  0
   -2.8531    2.1675    0.0000 C   0  0  0  0  0  0  0  0  0  0  0  0
   -5.0207   -1.9022    0.0000 C   0  0  0  0  0  0  0  0  0  0  0  0
    0.8183   -1.8579    0.0000 C   0  0  3  0  0  0  0  0  0  0  0  0
   -5.7431   -0.6783    0.0000 C   0  0  0  0  0  0  0  0  0  0  0  0
    0.4055    0.9731    0.0000 C   0  0  0  0  0  0  0  0  0  0  0  0
   -0.4055   -2.3886    0.0000 C   0  0  0  0  0  0  0  0  0  0  0  0
   -5.7431   -1.5040    0.0000 C   0  0  0  0  0  0  0  0  0  0  0  0
   -3.6494    2.0791    0.0000 C   0  0  0  0  0  0  0  0  0  0  0  0
   -2.5139    2.9195    0.0000 C   0  0  0  0  0  0  0  0  0  0  0  0
   -2.0717   -2.7868    0.0000 C   0  0  3  0  0  0  0  0  0  0  0  0
    0.8773   -2.6835    0.0000 C   0  0  0  0  0  0  0  0  0  0  0  0
   -4.1212    2.7573    0.0000 C   0  0  0  0  0  0  0  0  0  0  0  0
   -2.9711    3.5683    0.0000 C   0  0  0  0  0  0  0  0  0  0  0  0
   -3.7968    3.4946    0.0000 C   0  0  0  0  0  0  0  0  0  0  0  0
    1.7915    1.3270    0.0000 C   0  0  0  0  0  0  0  0  0  0  0  0
   -2.8679   -2.5804    0.0000 C   0  0  0  0  0  0  0  0  0  0  0  0
   -1.8652   -3.5683    0.0000 C   0  0  0  0  0  0  0  0  0  0  0  0
    5.3451    1.9759    0.0000 C   0  0  0  0  0  0  0  0  0  0  0  0
    4.4456    2.8900    0.0000 C   0  0  0  0  0  0  0  0  0  0  0  0
    3.9737    1.5040    0.0000 C   0  0  0  0  0  0  0  0  0  0  0  0
    3.1628    1.7104    0.0000 C   0  0  0  0  0  0  0  0  0  0  0  0
    5.7283    2.6983    0.0000 C   0  0  0  0  0  0  0  0  0  0  0  0
    5.1534    3.2734    0.0000 C   0  0  0  0  0  0  0  0  0  0  0  0
  1 28  1  0  0  0  0
  2 34  1  0  0  0  0
 35  3  1  1  0  0  0
  4 24  2  0  0  0  0
  5 37  1  0  0  0  0
  5 47  1  0  0  0  0
  6 44  1  0  0  0  0
  7 47  2  0  0  0  0
  8 48  1  0  0  0  0
  9 51  2  0  0  0  0
 10 50  2  0  0  0  0
 11 19  1  0  0  0  0
 11 22  1  0  0  0  0
 11 25  1  0  0  0  0
 18 12  1  1  0  0  0
 12 24  1  0  0  0  0
 12 26  1  0  0  0  0
 13 19  2  0  0  0  0
 13 21  1  0  0  0  0
 14 24  1  0  0  0  0
 14 42  1  0  0  0  0
 15 38  1  0  0  0  0
 15 43  1  0  0  0  0
 16 50  1  0  0  0  0
 16 51  1  0  0  0  0
 16 52  1  0  0  0  0
 17 47  1  0  0  0  0
 17 53  1  0  0  0  0
 18 19  1  0  0  0  0
 18 20  1  0  0  0  0
 20 27  1  0  0  0  0
 20 30  1  0  0  0  0
 20 31  1  0  0  0  0
 21 22  2  0  0  0  0
 21 23  1  0  0  0  0
 23 28  2  0  0  0  0
 23 32  1  0  0  0  0
 25 33  1  0  0  0  0
 29 26  1  1  0  0  0
 27 37  1  0  0  0  0
 28 36  1  0  0  0  0
 29 35  1  0  0  0  0
 29 38  1  0  0  0  0
 32 34  2  0  0  0  0
 33 40  2  0  0  0  0
 33 41  1  0  0  0  0
 34 39  1  0  0  0  0
 35 43  1  0  0  0  0
 36 39  2  0  0  0  0
 40 44  1  0  0  0  0
 41 45  2  0  0  0  0
 42 48  1  0  0  0  0
 42 49  1  1  0  0  0
 44 46  2  0  0  0  0
 45 46  1  0  0  0  0
 50 54  1  0  0  0  0
 51 55  1  0  0  0  0
 52 53  1  0  0  0  0
 54 55  2  0  0  0  0
M  END
> <PUBCHEM_COMPOUND_ID_TYPE>
0

> <PUBCHEM_TOTAL_CHARGE>
0

> <PUBCHEM_SUBSTANCE_ID>
310942615

> <PUBCHEM_SUBSTANCE_VERSION>
1

> <PUBCHEM_EXT_DATASOURCE_NAME>
4488

> <PUBCHEM_EXT_DATASOURCE_REGID>
SCHEMBL16120661

> <PUBCHEM_SUBSTANCE_COMMENT>
InChI=1S/C38H46F3N7O7/c1-23(22-49)44-36(53)48(20-25-17-42-18-30(25)41)34(38(2,3)11-14-55-37(54)43-12-13-47-32(51)9-10-33(47)52)35-45-31(28-16-26(39)7-8-29(28)40)21-46(35)19-24-5-4-6-27(50)15-24/h4-10,15-16,21,23,25,30,34,42,49-50H,11-14,17-20,22H2,1-3H3,(H,43,54)(H,44,53)/t23-,25-,30-,34-/m0/s1
InChIKey=MOYJNDTVOVOHFY-XUNVLOAHSA-N

> <PUBCHEM_SUBSTANCE_SYNONYM>
SCHEMBL16120661

> <PUBCHEM_XREF_EXT_ID>
SCHEMBL16120661

> <PUBCHEM_EXT_DATASOURCE_URL>
https://www.surechembl.org/

> <PUBCHEM_EXT_SUBSTANCE_URL>
https://www.surechembl.org/chemical/SCHEMBL16120661

> <PUBCHEM_CID_ASSOCIATIONS>
117609147  1

> <PUBCHEM_COORDINATE_TYPE>
1
3

> <PUBCHEM_BONDANNOTATIONS>
18  12  5
29  26  5
35  3  5
42  49  5

$$$$
