310940011
  -OEChem-07211613022D

 20 21  0     0  0  0  0  0  0999 V2000
   -3.3227   -7.0638    0.0000 Cl  0  0  0  0  0  0  0  0  0  0  0  0
   -2.6082   -4.1761    0.0000 Cl  0  0  0  0  0  0  0  0  0  0  0  0
   -5.4662   -5.8262    0.0000 Cl  0  0  0  0  0  0  0  0  0  0  0  0
   -0.4646   -7.0638    0.0000 O   0  0  0  0  0  0  0  0  0  0  0  0
   -0.4646   -4.5885    0.0000 O   0  0  0  0  0  0  0  0  0  0  0  0
    0.2499   -5.8262    0.0000 O   0  0  0  0  0  0  0  0  0  0  0  0
   -2.6082   -5.8262    0.0000 C   0  0  0  0  0  0  0  0  0  0  0  0
   -3.3227   -5.4137    0.0000 C   0  0  0  0  0  0  0  0  0  0  0  0
   -1.1792   -5.8262    0.0000 C   0  0  0  0  0  0  0  0  0  0  0  0
   -2.6082   -6.6511    0.0000 C   0  0  0  0  0  0  0  0  0  0  0  0
   -1.8936   -5.4137    0.0000 C   0  0  0  0  0  0  0  0  0  0  0  0
   -1.1792   -6.6511    0.0000 C   0  0  0  0  0  0  0  0  0  0  0  0
   -3.3227   -4.5885    0.0000 C   0  0  0  0  0  0  0  0  0  0  0  0
   -1.8936   -7.0638    0.0000 C   0  0  0  0  0  0  0  0  0  0  0  0
   -4.0372   -5.8262    0.0000 C   0  0  0  0  0  0  0  0  0  0  0  0
   -0.4646   -5.4137    0.0000 C   0  0  0  0  0  0  0  0  0  0  0  0
   -4.7517   -5.4137    0.0000 C   0  0  0  0  0  0  0  0  0  0  0  0
   -4.0372   -4.1761    0.0000 C   0  0  0  0  0  0  0  0  0  0  0  0
   -4.7517   -4.5885    0.0000 C   0  0  0  0  0  0  0  0  0  0  0  0
   -0.4646   -7.8887    0.0000 C   0  0  0  0  0  0  0  0  0  0  0  0
  1 10  1  0  0  0  0
  2 13  1  0  0  0  0
  3 17  1  0  0  0  0
  4 12  1  0  0  0  0
  4 20  1  0  0  0  0
  5 16  2  0  0  0  0
  6 16  1  0  0  0  0
  7  8  1  0  0  0  0
  7 10  2  0  0  0  0
  7 11  1  0  0  0  0
  8 13  2  0  0  0  0
  8 15  1  0  0  0  0
  9 11  2  0  0  0  0
  9 12  1  0  0  0  0
  9 16  1  0  0  0  0
 10 14  1  0  0  0  0
 12 14  2  0  0  0  0
 13 18  1  0  0  0  0
 15 17  2  0  0  0  0
 17 19  1  0  0  0  0
 18 19  2  0  0  0  0
M  END
> <PUBCHEM_COMPOUND_ID_TYPE>
0

> <PUBCHEM_TOTAL_CHARGE>
0

> <PUBCHEM_SUBSTANCE_ID>
310940011

> <PUBCHEM_SUBSTANCE_VERSION>
1

> <PUBCHEM_EXT_DATASOURCE_NAME>
4488

> <PUBCHEM_EXT_DATASOURCE_REGID>
SCHEMBL16117941

> <PUBCHEM_SUBSTANCE_COMMENT>
InChI=1S/C14H9Cl3O3/c1-20-13-6-12(17)9(5-10(13)14(18)19)8-4-7(15)2-3-11(8)16/h2-6H,1H3,(H,18,19)
InChIKey=SSBFHXFVEZLYAM-UHFFFAOYSA-N

> <PUBCHEM_SUBSTANCE_SYNONYM>
SCHEMBL16117941

> <PUBCHEM_XREF_EXT_ID>
SCHEMBL16117941

> <PUBCHEM_EXT_DATASOURCE_URL>
https://www.surechembl.org/

> <PUBCHEM_EXT_SUBSTANCE_URL>
https://www.surechembl.org/chemical/SCHEMBL16117941

> <PUBCHEM_CID_ASSOCIATIONS>
117607170  1

> <PUBCHEM_COORDINATE_TYPE>
1
3

$$$$
