310949326
  -OEChem-07211613022D

 10 11  0     0  0  0  0  0  0999 V2000
   -1.4956    0.9454    0.0000 O   0  0  0  0  0  0  0  0  0  0  0  0
   -0.7516   -0.4030    0.0000 N   0  0  0  0  0  0  0  0  0  0  0  0
   -0.0232    0.5114    0.0000 C   0  0  0  0  0  0  0  0  0  0  0  0
    0.0232   -0.2945    0.0000 C   0  0  0  0  0  0  0  0  0  0  0  0
   -0.8447    0.4030    0.0000 C   0  0  0  0  0  0  0  0  0  0  0  0
    0.6432    0.9919    0.0000 C   0  0  0  0  0  0  0  0  0  0  0  0
    0.8447   -0.6354    0.0000 C   0  0  0  0  0  0  0  0  0  0  0  0
   -1.2631   -0.9919    0.0000 C   0  0  0  0  0  0  0  0  0  0  0  0
    1.4181    0.6509    0.0000 C   0  0  0  0  0  0  0  0  0  0  0  0
    1.4956   -0.1705    0.0000 C   0  0  0  0  0  0  0  0  0  0  0  0
  1  5  2  0  0  0  0
  2  4  1  0  0  0  0
  2  5  1  0  0  0  0
  2  8  1  0  0  0  0
  3  4  2  0  0  0  0
  3  5  1  0  0  0  0
  3  6  1  0  0  0  0
  4  7  1  0  0  0  0
  6  9  2  0  0  0  0
  7 10  2  0  0  0  0
  9 10  1  0  0  0  0
M  END
> <PUBCHEM_COMPOUND_ID_TYPE>
0

> <PUBCHEM_TOTAL_CHARGE>
0

> <PUBCHEM_SUBSTANCE_ID>
310949326

> <PUBCHEM_SUBSTANCE_VERSION>
1

> <PUBCHEM_EXT_DATASOURCE_NAME>
4488

> <PUBCHEM_EXT_DATASOURCE_REGID>
SCHEMBL16127516

> <PUBCHEM_SUBSTANCE_COMMENT>
InChI=1S/C8H7NO/c1-9-7-5-3-2-4-6(7)8(9)10/h2-5H,1H3
InChIKey=GHRSQAIKBXSOHA-UHFFFAOYSA-N

> <PUBCHEM_SUBSTANCE_SYNONYM>
SCHEMBL16127516

> <PUBCHEM_XREF_EXT_ID>
SCHEMBL16127516

> <PUBCHEM_EXT_DATASOURCE_URL>
https://www.surechembl.org/

> <PUBCHEM_EXT_SUBSTANCE_URL>
https://www.surechembl.org/chemical/SCHEMBL16127516

> <PUBCHEM_CID_ASSOCIATIONS>
13306281  1

> <PUBCHEM_COORDINATE_TYPE>
1
3

$$$$
