310928907
  -OEChem-07211613022D

  9  9  0     0  0  0  0  0  0999 V2000
    0.0000   -1.2375    0.0000 Br  0  0  0  0  0  0  0  0  0  0  0  0
   -1.4289    1.2375    0.0000 Br  0  0  0  0  0  0  0  0  0  0  0  0
    0.7145   -0.0000    0.0000 N   0  0  0  0  0  0  0  0  0  0  0  0
    1.4289    1.2375    0.0000 N   0  0  0  0  0  0  0  0  0  0  0  0
    0.0000   -0.4125    0.0000 C   0  0  0  0  0  0  0  0  0  0  0  0
    0.7145    0.8250    0.0000 C   0  0  0  0  0  0  0  0  0  0  0  0
   -0.7145    0.8250    0.0000 C   0  0  0  0  0  0  0  0  0  0  0  0
   -0.7145   -0.0000    0.0000 C   0  0  0  0  0  0  0  0  0  0  0  0
    0.0000    1.2375    0.0000 C   0  0  0  0  0  0  0  0  0  0  0  0
  1  5  1  0  0  0  0
  2  7  1  0  0  0  0
  3  5  1  0  0  0  0
  3  6  2  0  0  0  0
  4  6  1  0  0  0  0
  5  8  2  0  0  0  0
  6  9  1  0  0  0  0
  7  8  1  0  0  0  0
  7  9  2  0  0  0  0
M  END
> <PUBCHEM_COMPOUND_ID_TYPE>
0

> <PUBCHEM_TOTAL_CHARGE>
0

> <PUBCHEM_SUBSTANCE_ID>
310928907

> <PUBCHEM_SUBSTANCE_VERSION>
1

> <PUBCHEM_EXT_DATASOURCE_NAME>
11752

> <PUBCHEM_EXT_DATASOURCE_REGID>
BD216489

> <PUBCHEM_SUBSTANCE_SYNONYM>
4,6-Dibromopyridin-2-amine
408352-48-7

> <PUBCHEM_GENERIC_REGISTRY_NAME>
408352-48-7

> <PUBCHEM_XREF_EXT_ID>
BD216489

> <PUBCHEM_EXT_DATASOURCE_URL>
http://www.bidepharmatech.com/en/index.html

> <PUBCHEM_EXT_SUBSTANCE_URL>
http://www.bidepharmatech.com/en/goodsview_goodscode_BD216489.html

> <PUBCHEM_CID_ASSOCIATIONS>
53440006  1

> <PUBCHEM_COORDINATE_TYPE>
1
3

$$$$
