310938798
  -OEChem-07211613022D

 38 41  0     1  0  0  0  0  0999 V2000
   -8.1635    8.4822    0.0000 O   0  0  0  0  0  0  0  0  0  0  0  0
   -1.8681   13.0194    0.0000 O   0  0  0  0  0  0  0  0  0  0  0  0
   -2.8785   12.0090    0.0000 N   0  0  0  0  0  0  0  0  0  0  0  0
   -3.8767   10.9572    0.0000 C   0  0  3  0  0  0  0  0  0  0  0  0
   -3.8767   10.1322    0.0000 C   0  0  3  0  0  0  0  0  0  0  0  0
   -5.3056   10.1322    0.0000 C   0  0  3  0  0  0  0  0  0  0  0  0
   -6.0201    9.7197    0.0000 C   0  0  3  0  0  0  0  0  0  0  0  0
   -4.5911    9.7197    0.0000 C   0  0  3  0  0  0  0  0  0  0  0  0
   -3.0920   11.2121    0.0000 C   0  0  3  0  0  0  0  0  0  0  0  0
   -6.0201    8.8947    0.0000 C   0  0  0  0  0  0  0  0  0  0  0  0
   -4.5911   11.3697    0.0000 C   0  0  0  0  0  0  0  0  0  0  0  0
   -5.3056   10.9572    0.0000 C   0  0  0  0  0  0  0  0  0  0  0  0
   -3.0920    9.8772    0.0000 C   0  0  0  0  0  0  0  0  0  0  0  0
   -4.5911    8.8947    0.0000 C   0  0  0  0  0  0  0  0  0  0  0  0
   -2.6071   10.5447    0.0000 C   0  0  0  0  0  0  0  0  0  0  0  0
   -6.7346   10.1322    0.0000 C   0  0  0  0  0  0  0  0  0  0  0  0
   -5.3056    8.4822    0.0000 C   0  0  0  0  0  0  0  0  0  0  0  0
   -3.8767   11.7822    0.0000 C   0  0  0  0  0  0  0  0  0  0  0  0
   -6.7346    8.4822    0.0000 C   0  0  0  0  0  0  0  0  0  0  0  0
   -6.0201   10.5447    0.0000 C   0  0  0  0  0  0  0  0  0  0  0  0
   -7.4490    8.8947    0.0000 C   0  0  0  0  0  0  0  0  0  0  0  0
   -7.4490    9.7197    0.0000 C   0  0  0  0  0  0  0  0  0  0  0  0
   -2.0816   12.2225    0.0000 C   0  0  0  0  0  0  0  0  0  0  0  0
   -1.4983   11.6392    0.0000 C   0  0  0  0  0  0  0  0  0  0  0  0
   -0.7014   11.8527    0.0000 C   0  0  0  0  0  0  0  0  0  0  0  0
   -0.1180   11.2693    0.0000 C   0  0  0  0  0  0  0  0  0  0  0  0
    0.6789   11.4828    0.0000 C   0  0  0  0  0  0  0  0  0  0  0  0
    1.2622   10.8995    0.0000 C   0  0  0  0  0  0  0  0  0  0  0  0
    2.0591   11.1130    0.0000 C   0  0  0  0  0  0  0  0  0  0  0  0
    2.6425   10.5296    0.0000 C   0  0  0  0  0  0  0  0  0  0  0  0
    3.4394   10.7432    0.0000 C   0  0  0  0  0  0  0  0  0  0  0  0
    4.0227   10.1598    0.0000 C   0  0  0  0  0  0  0  0  0  0  0  0
    4.8196   10.3733    0.0000 C   0  0  0  0  0  0  0  0  0  0  0  0
    5.4030    9.7900    0.0000 C   0  0  0  0  0  0  0  0  0  0  0  0
    6.1999   10.0035    0.0000 C   0  0  0  0  0  0  0  0  0  0  0  0
    6.7832    9.4201    0.0000 C   0  0  0  0  0  0  0  0  0  0  0  0
    7.5801    9.6337    0.0000 C   0  0  0  0  0  0  0  0  0  0  0  0
    8.1635    9.0503    0.0000 C   0  0  0  0  0  0  0  0  0  0  0  0
  1 21  2  0  0  0  0
  2 23  2  0  0  0  0
  9  3  1  1  0  0  0
  3 23  1  0  0  0  0
  4  5  1  0  0  0  0
  4  9  1  0  0  0  0
  4 11  1  0  0  0  0
  4 18  1  1  0  0  0
  5  8  1  0  0  0  0
  5 13  1  1  0  0  0
  6  7  1  0  0  0  0
  6  8  1  0  0  0  0
  6 12  1  1  0  0  0
  7 10  1  0  0  0  0
  7 16  1  0  0  0  0
  7 20  1  1  0  0  0
  8 14  1  6  0  0  0
  9 15  1  0  0  0  0
 10 17  1  0  0  0  0
 10 19  2  0  0  0  0
 11 12  1  0  0  0  0
 13 15  1  0  0  0  0
 14 17  1  0  0  0  0
 16 22  1  0  0  0  0
 19 21  1  0  0  0  0
 21 22  1  0  0  0  0
 23 24  1  0  0  0  0
 24 25  1  0  0  0  0
 25 26  1  0  0  0  0
 26 27  1  0  0  0  0
 27 28  1  0  0  0  0
 28 29  1  0  0  0  0
 29 30  1  0  0  0  0
 30 31  1  0  0  0  0
 31 32  1  0  0  0  0
 32 33  1  0  0  0  0
 33 34  1  0  0  0  0
 34 35  1  0  0  0  0
 35 36  1  0  0  0  0
 36 37  1  0  0  0  0
 37 38  1  0  0  0  0
M  END
> <PUBCHEM_COMPOUND_ID_TYPE>
0

> <PUBCHEM_TOTAL_CHARGE>
0

> <PUBCHEM_SUBSTANCE_ID>
310938798

> <PUBCHEM_SUBSTANCE_VERSION>
1

> <PUBCHEM_EXT_DATASOURCE_NAME>
4488

> <PUBCHEM_EXT_DATASOURCE_REGID>
SCHEMBL16116715

> <PUBCHEM_SUBSTANCE_COMMENT>
InChI=1S/C35H59NO2/c1-4-5-6-7-8-9-10-11-12-13-14-15-16-17-33(38)36-32-21-20-30-29-19-18-27-26-28(37)22-24-34(27,2)31(29)23-25-35(30,32)3/h26,29-32H,4-25H2,1-3H3,(H,36,38)/t29-,30-,31-,32-,34-,35-/m0/s1
InChIKey=CUNCIYYYSBSZBS-SHDAAXGTSA-N

> <PUBCHEM_SUBSTANCE_SYNONYM>
SCHEMBL16116715

> <PUBCHEM_XREF_EXT_ID>
SCHEMBL16116715

> <PUBCHEM_EXT_DATASOURCE_URL>
https://www.surechembl.org/

> <PUBCHEM_EXT_SUBSTANCE_URL>
https://www.surechembl.org/chemical/SCHEMBL16116715

> <PUBCHEM_CID_ASSOCIATIONS>
117606206  1

> <PUBCHEM_COORDINATE_TYPE>
1
3

> <PUBCHEM_BONDANNOTATIONS>
9  3  5
4  18  5
5  13  5
6  12  5
7  20  5
8  14  6

$$$$
