310943020
  -OEChem-07211613022D

 32 35  0     1  0  0  0  0  0999 V2000
   -2.9583   -1.3034    0.0000 O   0  0  0  0  0  0  0  0  0  0  0  0
   -1.5692    3.2584    0.0000 O   0  0  0  0  0  0  0  0  0  0  0  0
   -1.4834    1.0633    0.0000 N   0  0  0  0  0  0  0  0  0  0  0  0
   -0.9689    0.3944    0.0000 N   0  0  0  0  0  0  0  0  0  0  0  0
   -1.1919   -1.0633    0.0000 N   0  0  0  0  0  0  0  0  0  0  0  0
   -3.6957   -0.0686    0.0000 N   0  0  0  0  0  0  0  0  0  0  0  0
    2.3580   -2.4867    0.0000 N   0  0  0  0  0  0  0  0  0  0  0  0
    0.7117    0.8403    0.0000 N   0  0  0  0  0  0  0  0  0  0  0  0
   -2.2723   -0.0343    0.0000 C   0  0  0  0  0  0  0  0  0  0  0  0
   -2.2552    0.8060    0.0000 C   0  0  0  0  0  0  0  0  0  0  0  0
   -1.4663   -0.2744    0.0000 C   0  0  0  0  0  0  0  0  0  0  0  0
   -1.2433    1.8693    0.0000 C   0  0  3  0  0  0  0  0  0  0  0  0
   -2.9583   -0.4459    0.0000 C   0  0  0  0  0  0  0  0  0  0  0  0
   -3.0098    1.2005    0.0000 C   0  0  0  0  0  0  0  0  0  0  0  0
   -0.4373    2.0408    0.0000 C   0  0  3  0  0  0  0  0  0  0  0  0
   -0.3687   -1.2176    0.0000 C   0  0  0  0  0  0  0  0  0  0  0  0
   -3.6957    0.7717    0.0000 C   0  0  0  0  0  0  0  0  0  0  0  0
   -1.8093    2.4695    0.0000 C   0  0  0  0  0  0  0  0  0  0  0  0
   -0.1801    2.8469    0.0000 C   0  0  0  0  0  0  0  0  0  0  0  0
    1.2605   -1.5264    0.0000 C   0  0  0  0  0  0  0  0  0  0  0  0
    2.1008   -1.6806    0.0000 C   0  0  0  0  0  0  0  0  0  0  0  0
   -0.0943   -1.9893    0.0000 C   0  0  0  0  0  0  0  0  0  0  0  0
    0.1801   -0.6002    0.0000 C   0  0  0  0  0  0  0  0  0  0  0  0
    0.1286    1.4405    0.0000 C   0  0  0  0  0  0  0  0  0  0  0  0
    0.7117   -2.1609    0.0000 C   0  0  0  0  0  0  0  0  0  0  0  0
    0.9861   -0.7546    0.0000 C   0  0  0  0  0  0  0  0  0  0  0  0
   -0.7460    3.4471    0.0000 C   0  0  0  0  0  0  0  0  0  0  0  0
    2.2380   -0.8746    0.0000 C   0  0  0  0  0  0  0  0  0  0  0  0
    2.8897   -1.4405    0.0000 C   0  0  0  0  0  0  0  0  0  0  0  0
    3.1641   -2.6411    0.0000 C   0  0  0  0  0  0  0  0  0  0  0  0
    3.6957   -2.0065    0.0000 C   0  0  0  0  0  0  0  0  0  0  0  0
    3.4556   -3.4471    0.0000 C   0  0  0  0  0  0  0  0  0  0  0  0
  1 13  2  0  0  0  0
  2 18  1  0  0  0  0
  2 27  1  0  0  0  0
  3  4  1  0  0  0  0
  3 10  1  0  0  0  0
 12  3  1  1  0  0  0
  4 11  2  0  0  0  0
  5 11  1  0  0  0  0
  5 16  1  0  0  0  0
  6 13  1  0  0  0  0
  6 17  1  0  0  0  0
  7 21  1  0  0  0  0
  7 30  1  0  0  0  0
  8 24  3  0  0  0  0
  9 10  2  0  0  0  0
  9 11  1  0  0  0  0
  9 13  1  0  0  0  0
 10 14  1  0  0  0  0
 12 15  1  0  0  0  0
 12 18  1  0  0  0  0
 14 17  2  0  0  0  0
 15 19  1  0  0  0  0
 15 24  1  6  0  0  0
 16 22  2  0  0  0  0
 16 23  1  0  0  0  0
 19 27  1  0  0  0  0
 20 21  1  0  0  0  0
 20 25  2  0  0  0  0
 20 26  1  0  0  0  0
 21 28  1  0  0  0  0
 21 29  1  0  0  0  0
 22 25  1  0  0  0  0
 23 26  2  0  0  0  0
 30 31  1  0  0  0  0
 30 32  1  0  0  0  0
M  END
> <PUBCHEM_COMPOUND_ID_TYPE>
0

> <PUBCHEM_TOTAL_CHARGE>
0

> <PUBCHEM_SUBSTANCE_ID>
310943020

> <PUBCHEM_SUBSTANCE_VERSION>
1

> <PUBCHEM_EXT_DATASOURCE_NAME>
4488

> <PUBCHEM_EXT_DATASOURCE_REGID>
SCHEMBL16121079

> <PUBCHEM_SUBSTANCE_COMMENT>
InChI=1S/C24H30N6O2/c1-15(2)28-24(3,4)17-5-7-18(8-6-17)27-22-21-19(9-11-26-23(21)31)30(29-22)20-14-32-12-10-16(20)13-25/h5-9,11,15-16,20,28H,10,12,14H2,1-4H3,(H,26,31)(H,27,29)/t16-,20+/m1/s1
InChIKey=GNQRXVPCERRFFA-UZLBHIALSA-N

> <PUBCHEM_SUBSTANCE_SYNONYM>
SCHEMBL16121079

> <PUBCHEM_XREF_EXT_ID>
SCHEMBL16121079

> <PUBCHEM_EXT_DATASOURCE_URL>
https://www.surechembl.org/

> <PUBCHEM_EXT_SUBSTANCE_URL>
https://www.surechembl.org/chemical/SCHEMBL16121079

> <PUBCHEM_CID_ASSOCIATIONS>
117609466  1

> <PUBCHEM_COORDINATE_TYPE>
1
3

> <PUBCHEM_BONDANNOTATIONS>
15  24  6
12  3  5

$$$$
