310933555
  -OEChem-07211613022D

  9  9  0     0  0  0  0  0  0999 V2000
    0.0000   -0.5685    0.0000 Br  0  0  0  0  0  0  0  0  0  0  0  0
    0.6633   -1.8635    0.0000 N   0  0  0  0  0  0  0  0  0  0  0  0
    1.4528   -2.1161    0.0000 N   0  0  0  0  0  0  0  0  0  0  0  0
    0.6633   -1.0423    0.0000 C   0  0  0  0  0  0  0  0  0  0  0  0
    1.4528   -0.7738    0.0000 C   0  0  0  0  0  0  0  0  0  0  0  0
    1.9266   -1.4528    0.0000 C   0  0  0  0  0  0  0  0  0  0  0  0
    0.0000   -2.3372    0.0000 C   0  0  0  0  0  0  0  0  0  0  0  0
    1.7055    0.0000    0.0000 C   0  0  0  0  0  0  0  0  0  0  0  0
    0.0790   -3.1584    0.0000 C   0  0  0  0  0  0  0  0  0  0  0  0
  1  4  1  0  0  0  0
  2  3  1  0  0  0  0
  2  4  1  0  0  0  0
  2  7  1  0  0  0  0
  3  6  2  0  0  0  0
  4  5  2  0  0  0  0
  5  6  1  0  0  0  0
  5  8  1  0  0  0  0
  7  9  1  0  0  0  0
M  END
> <PUBCHEM_COMPOUND_ID_TYPE>
0

> <PUBCHEM_TOTAL_CHARGE>
0

> <PUBCHEM_SUBSTANCE_ID>
310933555

> <PUBCHEM_SUBSTANCE_VERSION>
1

> <PUBCHEM_EXT_DATASOURCE_NAME>
4488

> <PUBCHEM_EXT_DATASOURCE_REGID>
SCHEMBL16110978

> <PUBCHEM_SUBSTANCE_COMMENT>
InChI=1S/C6H9BrN2/c1-3-9-6(7)5(2)4-8-9/h4H,3H2,1-2H3
InChIKey=CFLWGTLYBLLOCD-UHFFFAOYSA-N

> <PUBCHEM_SUBSTANCE_SYNONYM>
SCHEMBL16110978

> <PUBCHEM_XREF_EXT_ID>
SCHEMBL16110978

> <PUBCHEM_EXT_DATASOURCE_URL>
https://www.surechembl.org/

> <PUBCHEM_EXT_SUBSTANCE_URL>
https://www.surechembl.org/chemical/SCHEMBL16110978

> <PUBCHEM_CID_ASSOCIATIONS>
117601939  1

> <PUBCHEM_COORDINATE_TYPE>
1
3

$$$$
