310933387
  -OEChem-07211613022D

 13 15  0     0  0  0  0  0  0999 V2000
    2.5334   -0.1871    0.0000 Br  0  0  0  0  0  0  0  0  0  0  0  0
    1.4826   -2.0584    0.0000 N   0  0  0  0  0  0  0  0  0  0  0  0
    2.2743   -2.3318    0.0000 N   0  0  0  0  0  0  0  0  0  0  0  0
    1.4826   -1.2379    0.0000 C   0  0  0  0  0  0  0  0  0  0  0  0
    2.7493   -1.6409    0.0000 C   0  0  0  0  0  0  0  0  0  0  0  0
    2.2743   -0.9788    0.0000 C   0  0  0  0  0  0  0  0  0  0  0  0
    0.8205   -0.7629    0.0000 C   0  0  0  0  0  0  0  0  0  0  0  0
    3.5841   -1.6409    0.0000 C   0  0  0  0  0  0  0  0  0  0  0  0
    0.0000   -0.6765    0.0000 C   0  0  0  0  0  0  0  0  0  0  0  0
    0.4606    0.0000    0.0000 C   0  0  0  0  0  0  0  0  0  0  0  0
    4.2895   -1.2379    0.0000 C   0  0  0  0  0  0  0  0  0  0  0  0
    4.3183   -2.0584    0.0000 C   0  0  0  0  0  0  0  0  0  0  0  0
    0.8205   -2.5478    0.0000 C   0  0  0  0  0  0  0  0  0  0  0  0
  1  6  1  0  0  0  0
  2  3  1  0  0  0  0
  2  4  1  0  0  0  0
  2 13  1  0  0  0  0
  3  5  2  0  0  0  0
  4  6  2  0  0  0  0
  4  7  1  0  0  0  0
  5  6  1  0  0  0  0
  5  8  1  0  0  0  0
  7  9  1  0  0  0  0
  7 10  1  0  0  0  0
  8 11  1  0  0  0  0
  8 12  1  0  0  0  0
  9 10  1  0  0  0  0
 11 12  1  0  0  0  0
M  END
> <PUBCHEM_COMPOUND_ID_TYPE>
0

> <PUBCHEM_TOTAL_CHARGE>
0

> <PUBCHEM_SUBSTANCE_ID>
310933387

> <PUBCHEM_SUBSTANCE_VERSION>
1

> <PUBCHEM_EXT_DATASOURCE_NAME>
4488

> <PUBCHEM_EXT_DATASOURCE_REGID>
SCHEMBL16110803

> <PUBCHEM_SUBSTANCE_COMMENT>
InChI=1S/C10H13BrN2/c1-13-10(7-4-5-7)8(11)9(12-13)6-2-3-6/h6-7H,2-5H2,1H3
InChIKey=SORYEWGTSZGERP-UHFFFAOYSA-N

> <PUBCHEM_SUBSTANCE_SYNONYM>
SCHEMBL16110803

> <PUBCHEM_XREF_EXT_ID>
SCHEMBL16110803

> <PUBCHEM_EXT_DATASOURCE_URL>
https://www.surechembl.org/

> <PUBCHEM_EXT_SUBSTANCE_URL>
https://www.surechembl.org/chemical/SCHEMBL16110803

> <PUBCHEM_CID_ASSOCIATIONS>
117601798  1

> <PUBCHEM_COORDINATE_TYPE>
1
3

$$$$
