310943400
  -OEChem-07211613022D

 36 39  0     0  0  0  0  0  0999 V2000
   -4.1822   -0.7944    0.0000 O   0  0  0  0  0  0  0  0  0  0  0  0
   -5.7163    1.8355    0.0000 O   0  0  0  0  0  0  0  0  0  0  0  0
    1.4245    1.8172    0.0000 O   0  0  0  0  0  0  0  0  0  0  0  0
   -4.2918    0.9953    0.0000 N   0  0  0  0  0  0  0  0  0  0  0  0
   -2.1368   -0.2466    0.0000 N   0  0  0  0  0  0  0  0  0  0  0  0
   -2.8490   -0.6483    0.0000 N   0  0  0  0  0  0  0  0  0  0  0  0
    0.7123    0.5936    0.0000 N   0  0  0  0  0  0  0  0  0  0  0  0
    3.5613   -0.2466    0.0000 N   0  0  0  0  0  0  0  0  0  0  0  0
    5.7163    0.1735    0.0000 N   0  0  0  0  0  0  0  0  0  0  0  0
   -2.1368    0.5936    0.0000 C   0  0  0  0  0  0  0  0  0  0  0  0
   -1.4245    1.0136    0.0000 C   0  0  0  0  0  0  0  0  0  0  0  0
   -3.5613    0.6118    0.0000 C   0  0  0  0  0  0  0  0  0  0  0  0
   -3.5795   -0.2283    0.0000 C   0  0  0  0  0  0  0  0  0  0  0  0
   -2.8672    0.9953    0.0000 C   0  0  0  0  0  0  0  0  0  0  0  0
   -1.4245    1.8355    0.0000 C   0  0  0  0  0  0  0  0  0  0  0  0
   -0.6940    0.6118    0.0000 C   0  0  0  0  0  0  0  0  0  0  0  0
    0.0000    1.0319    0.0000 C   0  0  0  0  0  0  0  0  0  0  0  0
    3.5795    0.6118    0.0000 C   0  0  0  0  0  0  0  0  0  0  0  0
    2.1550    0.5936    0.0000 C   0  0  0  0  0  0  0  0  0  0  0  0
    1.4245    0.9953    0.0000 C   0  0  0  0  0  0  0  0  0  0  0  0
    4.2918    1.0136    0.0000 C   0  0  0  0  0  0  0  0  0  0  0  0
   -0.7305    2.2372    0.0000 C   0  0  0  0  0  0  0  0  0  0  0  0
    0.0000    1.8172    0.0000 C   0  0  0  0  0  0  0  0  0  0  0  0
    2.8490    0.9953    0.0000 C   0  0  0  0  0  0  0  0  0  0  0  0
   -4.2918    1.8355    0.0000 C   0  0  0  0  0  0  0  0  0  0  0  0
   -4.9676    0.5936    0.0000 C   0  0  0  0  0  0  0  0  0  0  0  0
    2.1550   -0.2283    0.0000 C   0  0  0  0  0  0  0  0  0  0  0  0
   -2.1551    2.2372    0.0000 C   0  0  0  0  0  0  0  0  0  0  0  0
    2.8672   -0.6483    0.0000 C   0  0  0  0  0  0  0  0  0  0  0  0
   -5.0040    2.2372    0.0000 C   0  0  0  0  0  0  0  0  0  0  0  0
   -5.6980    0.9953    0.0000 C   0  0  0  0  0  0  0  0  0  0  0  0
    4.9858    0.5936    0.0000 C   0  0  0  0  0  0  0  0  0  0  0  0
   -3.8535   -1.5249    0.0000 C   0  0  0  0  0  0  0  0  0  0  0  0
    4.2735    1.8355    0.0000 C   0  0  0  0  0  0  0  0  0  0  0  0
    5.0040    1.4336    0.0000 C   0  0  0  0  0  0  0  0  0  0  0  0
   -4.3100   -2.2372    0.0000 C   0  0  0  0  0  0  0  0  0  0  0  0
  1 13  1  0  0  0  0
  1 33  1  0  0  0  0
  2 30  1  0  0  0  0
  2 31  1  0  0  0  0
  3 20  2  0  0  0  0
  4 12  1  0  0  0  0
  4 25  1  0  0  0  0
  4 26  1  0  0  0  0
  5  6  1  0  0  0  0
  5 10  2  0  0  0  0
  6 13  2  0  0  0  0
  7 17  1  0  0  0  0
  7 20  1  0  0  0  0
  8 18  1  0  0  0  0
  8 29  2  0  0  0  0
  9 32  3  0  0  0  0
 10 11  1  0  0  0  0
 10 14  1  0  0  0  0
 11 15  2  0  0  0  0
 11 16  1  0  0  0  0
 12 13  1  0  0  0  0
 12 14  2  0  0  0  0
 15 22  1  0  0  0  0
 15 28  1  0  0  0  0
 16 17  2  0  0  0  0
 17 23  1  0  0  0  0
 18 21  1  0  0  0  0
 18 24  2  0  0  0  0
 19 20  1  0  0  0  0
 19 24  1  0  0  0  0
 19 27  2  0  0  0  0
 21 32  1  0  0  0  0
 21 34  1  0  0  0  0
 21 35  1  0  0  0  0
 22 23  2  0  0  0  0
 25 30  1  0  0  0  0
 26 31  1  0  0  0  0
 27 29  1  0  0  0  0
 33 36  1  0  0  0  0
M  END
> <PUBCHEM_COMPOUND_ID_TYPE>
0

> <PUBCHEM_TOTAL_CHARGE>
0

> <PUBCHEM_SUBSTANCE_ID>
310943400

> <PUBCHEM_SUBSTANCE_VERSION>
1

> <PUBCHEM_EXT_DATASOURCE_NAME>
4488

> <PUBCHEM_EXT_DATASOURCE_REGID>
SCHEMBL16121463

> <PUBCHEM_SUBSTANCE_COMMENT>
InChI=1S/C27H30N6O3/c1-5-36-26-23(33-10-12-35-13-11-33)16-22(31-32-26)21-15-20(7-6-18(21)2)30-25(34)19-8-9-29-24(14-19)27(3,4)17-28/h6-9,14-16H,5,10-13H2,1-4H3,(H,30,34)
InChIKey=WCGIFAUOSCNXHI-UHFFFAOYSA-N

> <PUBCHEM_SUBSTANCE_SYNONYM>
SCHEMBL16121463

> <PUBCHEM_XREF_EXT_ID>
SCHEMBL16121463

> <PUBCHEM_EXT_DATASOURCE_URL>
https://www.surechembl.org/

> <PUBCHEM_EXT_SUBSTANCE_URL>
https://www.surechembl.org/chemical/SCHEMBL16121463

> <PUBCHEM_CID_ASSOCIATIONS>
117609824  1

> <PUBCHEM_COORDINATE_TYPE>
1
3

$$$$
