310932918
  -OEChem-07211613022D

 30 32  0     0  0  0  0  0  0999 V2000
    4.0589   -2.5922    0.0000 O   0  0  0  0  0  0  0  0  0  0  0  0
    8.5613   -2.6605    0.0000 O   0  0  0  0  0  0  0  0  0  0  0  0
    9.3117   -6.4124    0.0000 O   0  0  0  0  0  0  0  0  0  0  0  0
    4.9457   -1.4325    0.0000 N   0  0  0  0  0  0  0  0  0  0  0  0
    4.8776   -0.5798    0.0000 N   0  0  0  0  0  0  0  0  0  0  0  0
    6.4124   -1.4325    0.0000 N   0  0  0  0  0  0  0  0  0  0  0  0
    7.8450   -3.9225    0.0000 N   0  0  0  0  0  0  0  0  0  0  0  0
    0.0000   -2.2853    0.0000 N   0  0  0  0  0  0  0  0  0  0  0  0
    4.1954   -1.7737    0.0000 C   0  0  0  0  0  0  0  0  0  0  0  0
    3.6496   -1.1597    0.0000 C   0  0  0  0  0  0  0  0  0  0  0  0
    2.7969   -1.2620    0.0000 C   0  0  0  0  0  0  0  0  0  0  0  0
    5.6961   -1.8419    0.0000 C   0  0  0  0  0  0  0  0  0  0  0  0
    4.0589   -0.4434    0.0000 C   0  0  0  0  0  0  0  0  0  0  0  0
    2.3194   -0.5798    0.0000 C   0  0  0  0  0  0  0  0  0  0  0  0
    5.6961   -2.6605    0.0000 C   0  0  0  0  0  0  0  0  0  0  0  0
    2.4899   -2.0124    0.0000 C   0  0  0  0  0  0  0  0  0  0  0  0
    1.5008   -0.6821    0.0000 C   0  0  0  0  0  0  0  0  0  0  0  0
    7.1287   -2.6605    0.0000 C   0  0  0  0  0  0  0  0  0  0  0  0
    1.1597   -1.4325    0.0000 C   0  0  0  0  0  0  0  0  0  0  0  0
    7.1287   -1.8419    0.0000 C   0  0  0  0  0  0  0  0  0  0  0  0
    6.4124   -3.0698    0.0000 C   0  0  0  0  0  0  0  0  0  0  0  0
    1.6372   -2.1148    0.0000 C   0  0  0  0  0  0  0  0  0  0  0  0
    7.8450   -3.0698    0.0000 C   0  0  0  0  0  0  0  0  0  0  0  0
    4.6729   -3.1039    0.0000 C   0  0  0  0  0  0  0  0  0  0  0  0
    0.3411   -1.5349    0.0000 C   0  0  0  0  0  0  0  0  0  0  0  0
    0.9891    0.0000    0.0000 C   0  0  0  0  0  0  0  0  0  0  0  0
    8.5613   -4.3318    0.0000 C   0  0  0  0  0  0  0  0  0  0  0  0
    8.5954   -5.1504    0.0000 C   0  0  0  0  0  0  0  0  0  0  0  0
    9.3117   -5.5597    0.0000 C   0  0  0  0  0  0  0  0  0  0  0  0
   10.0280   -6.8217    0.0000 C   0  0  0  0  0  0  0  0  0  0  0  0
  1  9  1  0  0  0  0
  1 24  1  0  0  0  0
  2 23  2  0  0  0  0
  3 29  1  0  0  0  0
  3 30  1  0  0  0  0
  4  5  1  0  0  0  0
  4  9  1  0  0  0  0
  4 12  1  0  0  0  0
  5 13  2  0  0  0  0
  6 12  2  0  0  0  0
  6 20  1  0  0  0  0
  7 23  1  0  0  0  0
  7 27  1  0  0  0  0
  8 25  3  0  0  0  0
  9 10  2  0  0  0  0
 10 11  1  0  0  0  0
 10 13  1  0  0  0  0
 11 14  1  0  0  0  0
 11 16  2  0  0  0  0
 12 15  1  0  0  0  0
 14 17  2  0  0  0  0
 15 21  2  0  0  0  0
 16 22  1  0  0  0  0
 17 19  1  0  0  0  0
 17 26  1  0  0  0  0
 18 20  2  0  0  0  0
 18 21  1  0  0  0  0
 18 23  1  0  0  0  0
 19 22  2  0  0  0  0
 19 25  1  0  0  0  0
 27 28  1  0  0  0  0
 28 29  1  0  0  0  0
M  END
> <PUBCHEM_COMPOUND_ID_TYPE>
0

> <PUBCHEM_TOTAL_CHARGE>
0

> <PUBCHEM_SUBSTANCE_ID>
310932918

> <PUBCHEM_SUBSTANCE_VERSION>
1

> <PUBCHEM_EXT_DATASOURCE_NAME>
4488

> <PUBCHEM_EXT_DATASOURCE_REGID>
SCHEMBL16110312

> <PUBCHEM_SUBSTANCE_COMMENT>
InChI=1S/C22H23N5O3/c1-15-11-16(5-6-17(15)12-23)19-14-26-27(22(19)30-3)20-8-7-18(13-25-20)21(28)24-9-4-10-29-2/h5-8,11,13-14H,4,9-10H2,1-3H3,(H,24,28)
InChIKey=DGPGROQPZMQAKH-UHFFFAOYSA-N

> <PUBCHEM_SUBSTANCE_SYNONYM>
SCHEMBL16110312

> <PUBCHEM_XREF_EXT_ID>
SCHEMBL16110312

> <PUBCHEM_EXT_DATASOURCE_URL>
https://www.surechembl.org/

> <PUBCHEM_EXT_SUBSTANCE_URL>
https://www.surechembl.org/chemical/SCHEMBL16110312

> <PUBCHEM_CID_ASSOCIATIONS>
117601399  1

> <PUBCHEM_COORDINATE_TYPE>
1
3

$$$$
