310949039
  -OEChem-07211613022D

 60 70  0     0  0  0  0  0  0999 V2000
    0.3761    1.4451    0.0000 N   0  0  0  0  0  0  0  0  0  0  0  0
   -1.0888   -1.0294    0.0000 N   0  0  0  0  0  0  0  0  0  0  0  0
   -1.8014    0.9304    0.0000 N   0  0  0  0  0  0  0  0  0  0  0  0
    2.5734    0.9502    0.0000 N   0  0  0  0  0  0  0  0  0  0  0  0
    0.4157    0.6334    0.0000 C   0  0  0  0  0  0  0  0  0  0  0  0
   -0.2970    1.9795    0.0000 C   0  0  0  0  0  0  0  0  0  0  0  0
    1.0888    1.9598    0.0000 C   0  0  0  0  0  0  0  0  0  0  0  0
   -0.3365   -0.5938    0.0000 C   0  0  0  0  0  0  0  0  0  0  0  0
   -0.3365    0.2573    0.0000 C   0  0  0  0  0  0  0  0  0  0  0  0
   -1.8806   -0.6533    0.0000 C   0  0  0  0  0  0  0  0  0  0  0  0
   -1.1877   -1.8409    0.0000 C   0  0  0  0  0  0  0  0  0  0  0  0
   -0.0396    2.7713    0.0000 C   0  0  0  0  0  0  0  0  0  0  0  0
    0.8314    2.7317    0.0000 C   0  0  0  0  0  0  0  0  0  0  0  0
   -2.4150   -1.2867    0.0000 C   0  0  0  0  0  0  0  0  0  0  0  0
   -2.0192   -1.9795    0.0000 C   0  0  0  0  0  0  0  0  0  0  0  0
    1.1284    0.2376    0.0000 C   0  0  0  0  0  0  0  0  0  0  0  0
    0.4157   -1.0095    0.0000 C   0  0  0  0  0  0  0  0  0  0  0  0
   -0.5938    3.3454    0.0000 C   0  0  0  0  0  0  0  0  0  0  0  0
    1.4055    3.3454    0.0000 C   0  0  0  0  0  0  0  0  0  0  0  0
   -2.1182    0.0990    0.0000 C   0  0  0  0  0  0  0  0  0  0  0  0
   -0.6334   -2.4349    0.0000 C   0  0  0  0  0  0  0  0  0  0  0  0
   -1.1284    1.8014    0.0000 C   0  0  0  0  0  0  0  0  0  0  0  0
    1.9399    1.8212    0.0000 C   0  0  0  0  0  0  0  0  0  0  0  0
    1.1284   -0.6137    0.0000 C   0  0  0  0  0  0  0  0  0  0  0  0
   -3.1474   -1.0888    0.0000 C   0  0  0  0  0  0  0  0  0  0  0  0
   -2.2567   -2.7317    0.0000 C   0  0  0  0  0  0  0  0  0  0  0  0
    2.1973    3.1871    0.0000 C   0  0  0  0  0  0  0  0  0  0  0  0
   -1.4451    3.2069    0.0000 C   0  0  0  0  0  0  0  0  0  0  0  0
   -1.0888    0.6137    0.0000 C   0  0  0  0  0  0  0  0  0  0  0  0
   -2.8901    0.2970    0.0000 C   0  0  0  0  0  0  0  0  0  0  0  0
   -0.9304   -3.2069    0.0000 C   0  0  0  0  0  0  0  0  0  0  0  0
   -1.6826    2.4150    0.0000 C   0  0  0  0  0  0  0  0  0  0  0  0
    2.4744    2.3953    0.0000 C   0  0  0  0  0  0  0  0  0  0  0  0
   -3.4246   -0.3365    0.0000 C   0  0  0  0  0  0  0  0  0  0  0  0
   -1.7222   -3.3653    0.0000 C   0  0  0  0  0  0  0  0  0  0  0  0
    1.8409    0.6137    0.0000 C   0  0  0  0  0  0  0  0  0  0  0  0
    2.7912    3.8404    0.0000 C   0  0  0  0  0  0  0  0  0  0  0  0
   -2.0192    3.8404    0.0000 C   0  0  0  0  0  0  0  0  0  0  0  0
   -3.1277    1.0888    0.0000 C   0  0  0  0  0  0  0  0  0  0  0  0
   -0.3167   -3.8205    0.0000 C   0  0  0  0  0  0  0  0  0  0  0  0
    3.6424    3.6621    0.0000 C   0  0  0  0  0  0  0  0  0  0  0  0
   -1.7420    4.6123    0.0000 C   0  0  0  0  0  0  0  0  0  0  0  0
    2.5339    4.5728    0.0000 C   0  0  0  0  0  0  0  0  0  0  0  0
   -2.8110    3.6621    0.0000 C   0  0  0  0  0  0  0  0  0  0  0  0
   -2.6526    1.6826    0.0000 C   0  0  0  0  0  0  0  0  0  0  0  0
   -0.5543   -4.6322    0.0000 C   0  0  0  0  0  0  0  0  0  0  0  0
   -3.9393    1.2867    0.0000 C   0  0  0  0  0  0  0  0  0  0  0  0
    0.5147   -3.7018    0.0000 C   0  0  0  0  0  0  0  0  0  0  0  0
    4.1768    4.2561    0.0000 C   0  0  0  0  0  0  0  0  0  0  0  0
   -2.2765    5.2062    0.0000 C   0  0  0  0  0  0  0  0  0  0  0  0
    3.0881    5.2062    0.0000 C   0  0  0  0  0  0  0  0  0  0  0  0
   -3.2860    4.2561    0.0000 C   0  0  0  0  0  0  0  0  0  0  0  0
   -2.8506    2.4349    0.0000 C   0  0  0  0  0  0  0  0  0  0  0  0
   -0.0396   -5.2062    0.0000 C   0  0  0  0  0  0  0  0  0  0  0  0
   -4.1768    2.0587    0.0000 C   0  0  0  0  0  0  0  0  0  0  0  0
    1.0491   -4.2561    0.0000 C   0  0  0  0  0  0  0  0  0  0  0  0
    3.8997    5.0280    0.0000 C   0  0  0  0  0  0  0  0  0  0  0  0
   -3.0881    5.0479    0.0000 C   0  0  0  0  0  0  0  0  0  0  0  0
   -3.6226    2.6526    0.0000 C   0  0  0  0  0  0  0  0  0  0  0  0
    0.7720   -5.0676    0.0000 C   0  0  0  0  0  0  0  0  0  0  0  0
  1  5  1  0  0  0  0
  1  6  1  0  0  0  0
  1  7  1  0  0  0  0
  2  8  1  0  0  0  0
  2 10  1  0  0  0  0
  2 11  1  0  0  0  0
  3 29  3  0  0  0  0
  4 36  3  0  0  0  0
  5  9  1  0  0  0  0
  5 16  2  0  0  0  0
  6 12  2  0  0  0  0
  6 22  1  0  0  0  0
  7 13  2  0  0  0  0
  7 23  1  0  0  0  0
  8  9  2  0  0  0  0
  8 17  1  0  0  0  0
  9 29  1  0  0  0  0
 10 14  2  0  0  0  0
 10 20  1  0  0  0  0
 11 15  2  0  0  0  0
 11 21  1  0  0  0  0
 12 13  1  0  0  0  0
 12 18  1  0  0  0  0
 13 19  1  0  0  0  0
 14 15  1  0  0  0  0
 14 25  1  0  0  0  0
 15 26  1  0  0  0  0
 16 24  1  0  0  0  0
 16 36  1  0  0  0  0
 17 24  2  0  0  0  0
 18 28  2  0  0  0  0
 19 27  2  0  0  0  0
 20 30  2  0  0  0  0
 21 31  2  0  0  0  0
 22 32  2  0  0  0  0
 23 33  2  0  0  0  0
 25 34  2  0  0  0  0
 26 35  2  0  0  0  0
 27 33  1  0  0  0  0
 27 37  1  0  0  0  0
 28 32  1  0  0  0  0
 28 38  1  0  0  0  0
 30 34  1  0  0  0  0
 30 39  1  0  0  0  0
 31 35  1  0  0  0  0
 31 40  1  0  0  0  0
 37 41  2  0  0  0  0
 37 43  1  0  0  0  0
 38 42  2  0  0  0  0
 38 44  1  0  0  0  0
 39 45  2  0  0  0  0
 39 47  1  0  0  0  0
 40 46  2  0  0  0  0
 40 48  1  0  0  0  0
 41 49  1  0  0  0  0
 42 50  1  0  0  0  0
 43 51  2  0  0  0  0
 44 52  2  0  0  0  0
 45 53  1  0  0  0  0
 46 54  1  0  0  0  0
 47 55  2  0  0  0  0
 48 56  2  0  0  0  0
 49 57  2  0  0  0  0
 50 58  2  0  0  0  0
 51 57  1  0  0  0  0
 52 58  1  0  0  0  0
 53 59  2  0  0  0  0
 54 60  2  0  0  0  0
 55 59  1  0  0  0  0
 56 60  1  0  0  0  0
M  END
> <PUBCHEM_COMPOUND_ID_TYPE>
0

> <PUBCHEM_TOTAL_CHARGE>
0

> <PUBCHEM_SUBSTANCE_ID>
310949039

> <PUBCHEM_SUBSTANCE_VERSION>
1

> <PUBCHEM_EXT_DATASOURCE_NAME>
4488

> <PUBCHEM_EXT_DATASOURCE_REGID>
SCHEMBL16127229

> <PUBCHEM_SUBSTANCE_COMMENT>
InChI=1S/C56H34N4/c57-35-45-25-30-53(59-54-33-43(39-17-9-3-10-18-39)21-26-46(54)47-27-22-44(34-55(47)59)40-19-11-4-12-20-40)50(36-58)56(45)60-51-28-23-41(37-13-5-1-6-14-37)31-48(51)49-32-42(24-29-52(49)60)38-15-7-2-8-16-38/h1-34H
InChIKey=PQCJIBNWMVXHFN-UHFFFAOYSA-N

> <PUBCHEM_SUBSTANCE_SYNONYM>
SCHEMBL16127229

> <PUBCHEM_XREF_EXT_ID>
SCHEMBL16127229

> <PUBCHEM_EXT_DATASOURCE_URL>
https://www.surechembl.org/

> <PUBCHEM_EXT_SUBSTANCE_URL>
https://www.surechembl.org/chemical/SCHEMBL16127229

> <PUBCHEM_CID_ASSOCIATIONS>
117614544  1

> <PUBCHEM_COORDINATE_TYPE>
1
3

$$$$
