310947350
  -OEChem-07211613022D

 41 45  0     1  0  0  0  0  0999 V2000
   -2.5488    2.4895    0.0000 O   0  0  0  0  0  0  0  0  0  0  0  0
    0.3791    0.1720    0.0000 N   0  0  0  0  0  0  0  0  0  0  0  0
    0.8641    0.8395    0.0000 N   0  0  0  0  0  0  0  0  0  0  0  0
   -3.2633    1.2519    0.0000 N   0  0  0  0  0  0  0  0  0  0  0  0
   -0.4054    0.4269    0.0000 C   0  0  0  0  0  0  0  0  0  0  0  0
   -0.4054    1.2519    0.0000 C   0  0  0  0  0  0  0  0  0  0  0  0
    0.3791    1.5068    0.0000 C   0  0  0  0  0  0  0  0  0  0  0  0
   -1.1199    1.6645    0.0000 C   0  0  0  0  0  0  0  0  0  0  0  0
   -1.8344    1.2519    0.0000 C   0  0  0  0  0  0  0  0  0  0  0  0
   -1.1199    0.0145    0.0000 C   0  0  0  0  0  0  0  0  0  0  0  0
    0.5927   -0.6249    0.0000 C   0  0  0  0  0  0  0  0  0  0  0  0
   -1.8344    0.4269    0.0000 C   0  0  0  0  0  0  0  0  0  0  0  0
    1.3896   -0.8384    0.0000 C   0  0  0  0  0  0  0  0  0  0  0  0
   -2.5488    1.6645    0.0000 C   0  0  0  0  0  0  0  0  0  0  0  0
    3.7802   -1.4790    0.0000 C   0  0  0  0  0  0  0  0  0  0  0  0
    2.9833   -1.2655    0.0000 C   0  0  0  0  0  0  0  0  0  0  0  0
    4.3636   -0.8956    0.0000 C   0  0  0  0  0  0  0  0  0  0  0  0
    4.1500   -0.0987    0.0000 C   0  0  0  0  0  0  0  0  0  0  0  0
    0.7917    2.2213    0.0000 C   0  0  0  0  0  0  0  0  0  0  0  0
    1.6031   -1.6353    0.0000 C   0  0  0  0  0  0  0  0  0  0  0  0
    1.9730   -0.2550    0.0000 C   0  0  0  0  0  0  0  0  0  0  0  0
    2.4000   -1.8489    0.0000 C   0  0  0  0  0  0  0  0  0  0  0  0
    2.7699   -0.4686    0.0000 C   0  0  0  0  0  0  0  0  0  0  0  0
    3.9938   -2.2759    0.0000 C   0  0  0  0  0  0  0  0  0  0  0  0
    5.1605   -1.1092    0.0000 C   0  0  0  0  0  0  0  0  0  0  0  0
   -3.9778    1.6645    0.0000 C   0  0  3  0  0  0  0  0  0  0  0  0
   -4.6922    1.2519    0.0000 C   0  0  0  0  0  0  0  0  0  0  0  0
    4.7906   -2.4895    0.0000 C   0  0  0  0  0  0  0  0  0  0  0  0
    5.3739   -1.9060    0.0000 C   0  0  0  0  0  0  0  0  0  0  0  0
   -5.4066    1.6645    0.0000 C   0  0  0  0  0  0  0  0  0  0  0  0
    3.3000   -0.3265    0.0000 C   0  0  0  0  0  0  0  0  0  0  0  0
    3.9223    0.7513    0.0000 C   0  0  0  0  0  0  0  0  0  0  0  0
    5.0000    0.1289    0.0000 C   0  0  0  0  0  0  0  0  0  0  0  0
   -6.1212    1.2519    0.0000 C   0  0  0  0  0  0  0  0  0  0  0  0
   -4.6922    0.4269    0.0000 C   0  0  0  0  0  0  0  0  0  0  0  0
   -3.9778    2.4895    0.0000 C   0  0  0  0  0  0  0  0  0  0  0  0
   -6.1212    0.4269    0.0000 C   0  0  0  0  0  0  0  0  0  0  0  0
   -5.4066    0.0145    0.0000 C   0  0  0  0  0  0  0  0  0  0  0  0
   -6.8356    1.6645    0.0000 C   0  0  0  0  0  0  0  0  0  0  0  0
   -7.5500    1.2519    0.0000 C   0  0  0  0  0  0  0  0  0  0  0  0
   -6.8356    2.4895    0.0000 C   0  0  0  0  0  0  0  0  0  0  0  0
  1 14  2  0  0  0  0
  2  3  1  0  0  0  0
  2  5  1  0  0  0  0
  2 11  1  0  0  0  0
  3  7  2  0  0  0  0
  4 14  1  0  0  0  0
  4 26  1  0  0  0  0
  5  6  1  0  0  0  0
  5 10  2  0  0  0  0
  6  7  1  0  0  0  0
  6  8  2  0  0  0  0
  7 19  1  0  0  0  0
  8  9  1  0  0  0  0
  9 12  2  0  0  0  0
  9 14  1  0  0  0  0
 10 12  1  0  0  0  0
 11 13  1  0  0  0  0
 13 20  2  0  0  0  0
 13 21  1  0  0  0  0
 15 16  1  0  0  0  0
 15 17  1  0  0  0  0
 15 24  2  0  0  0  0
 16 22  2  0  0  0  0
 16 23  1  0  0  0  0
 17 18  1  0  0  0  0
 17 25  2  0  0  0  0
 18 31  1  0  0  0  0
 18 32  1  0  0  0  0
 18 33  1  0  0  0  0
 20 22  1  0  0  0  0
 21 23  2  0  0  0  0
 24 28  1  0  0  0  0
 25 29  1  0  0  0  0
 26 27  1  0  0  0  0
 26 36  1  6  0  0  0
 27 30  2  0  0  0  0
 27 35  1  0  0  0  0
 28 29  2  0  0  0  0
 30 34  1  0  0  0  0
 34 37  2  0  0  0  0
 34 39  1  0  0  0  0
 35 38  2  0  0  0  0
 37 38  1  0  0  0  0
 39 40  1  0  0  0  0
 39 41  1  0  0  0  0
M  END
> <PUBCHEM_COMPOUND_ID_TYPE>
0

> <PUBCHEM_TOTAL_CHARGE>
0

> <PUBCHEM_SUBSTANCE_ID>
310947350

> <PUBCHEM_SUBSTANCE_VERSION>
1

> <PUBCHEM_EXT_DATASOURCE_NAME>
4488

> <PUBCHEM_EXT_DATASOURCE_REGID>
SCHEMBL16125505

> <PUBCHEM_SUBSTANCE_COMMENT>
InChI=1S/C37H41N3O/c1-24(2)29-11-10-12-30(21-29)25(3)38-36(41)31-19-20-35-33(22-31)26(4)39-40(35)23-27-15-17-28(18-16-27)32-13-8-9-14-34(32)37(5,6)7/h8-22,24-25H,23H2,1-7H3,(H,38,41)/t25-/m0/s1
InChIKey=HVXSWVRQMMOUAM-VWLOTQADSA-N

> <PUBCHEM_SUBSTANCE_SYNONYM>
SCHEMBL16125505

> <PUBCHEM_XREF_EXT_ID>
SCHEMBL16125505

> <PUBCHEM_EXT_DATASOURCE_URL>
https://www.surechembl.org/

> <PUBCHEM_EXT_SUBSTANCE_URL>
https://www.surechembl.org/chemical/SCHEMBL16125505

> <PUBCHEM_CID_ASSOCIATIONS>
117613095  1

> <PUBCHEM_COORDINATE_TYPE>
1
3

> <PUBCHEM_BONDANNOTATIONS>
26  36  6

$$$$
