310931905
  -OEChem-07211613022D

 30 33  0     0  0  0  0  0  0999 V2000
    4.0194   -2.1341    0.0000 O   0  0  0  0  0  0  0  0  0  0  0  0
    8.5011   -2.2053    0.0000 O   0  0  0  0  0  0  0  0  0  0  0  0
    4.9086   -0.9960    0.0000 N   0  0  0  0  0  0  0  0  0  0  0  0
    4.8375   -0.1423    0.0000 N   0  0  0  0  0  0  0  0  0  0  0  0
    6.3670   -0.9960    0.0000 N   0  0  0  0  0  0  0  0  0  0  0  0
    7.7897   -3.4502    0.0000 N   0  0  0  0  0  0  0  0  0  0  0  0
    0.0000   -1.8496    0.0000 N   0  0  0  0  0  0  0  0  0  0  0  0
    3.6281   -0.7114    0.0000 C   0  0  0  0  0  0  0  0  0  0  0  0
    4.1972   -1.3161    0.0000 C   0  0  0  0  0  0  0  0  0  0  0  0
    5.6556   -1.3872    0.0000 C   0  0  0  0  0  0  0  0  0  0  0  0
    2.8100   -0.8181    0.0000 C   0  0  0  0  0  0  0  0  0  0  0  0
    4.0194    0.0000    0.0000 C   0  0  0  0  0  0  0  0  0  0  0  0
    5.6556   -2.2053    0.0000 C   0  0  0  0  0  0  0  0  0  0  0  0
    7.0783   -2.2053    0.0000 C   0  0  0  0  0  0  0  0  0  0  0  0
    2.4899   -1.5651    0.0000 C   0  0  0  0  0  0  0  0  0  0  0  0
    2.3120   -0.1423    0.0000 C   0  0  0  0  0  0  0  0  0  0  0  0
    7.0783   -1.3872    0.0000 C   0  0  0  0  0  0  0  0  0  0  0  0
    6.3670   -2.6322    0.0000 C   0  0  0  0  0  0  0  0  0  0  0  0
    7.7897   -2.6322    0.0000 C   0  0  0  0  0  0  0  0  0  0  0  0
    1.1738   -0.9960    0.0000 C   0  0  0  0  0  0  0  0  0  0  0  0
    1.6362   -1.6718    0.0000 C   0  0  0  0  0  0  0  0  0  0  0  0
    1.4939   -0.2490    0.0000 C   0  0  0  0  0  0  0  0  0  0  0  0
    8.5011   -3.8771    0.0000 C   0  0  0  0  0  0  0  0  0  0  0  0
    0.3557   -1.1027    0.0000 C   0  0  0  0  0  0  0  0  0  0  0  0
    9.2481   -3.4502    0.0000 C   0  0  0  0  0  0  0  0  0  0  0  0
    8.5367   -4.6952    0.0000 C   0  0  0  0  0  0  0  0  0  0  0  0
    9.9595   -4.6952    0.0000 C   0  0  0  0  0  0  0  0  0  0  0  0
    9.9239   -3.8771    0.0000 C   0  0  0  0  0  0  0  0  0  0  0  0
    9.2481   -5.0864    0.0000 C   0  0  0  0  0  0  0  0  0  0  0  0
   10.6709   -5.1220    0.0000 C   0  0  0  0  0  0  0  0  0  0  0  0
  1  9  1  0  0  0  0
  2 19  2  0  0  0  0
  3  4  1  0  0  0  0
  3  9  1  0  0  0  0
  3 10  1  0  0  0  0
  4 12  2  0  0  0  0
  5 10  2  0  0  0  0
  5 17  1  0  0  0  0
  6 19  1  0  0  0  0
  6 23  1  0  0  0  0
  7 24  3  0  0  0  0
  8  9  2  0  0  0  0
  8 11  1  0  0  0  0
  8 12  1  0  0  0  0
 10 13  1  0  0  0  0
 11 15  2  0  0  0  0
 11 16  1  0  0  0  0
 13 18  2  0  0  0  0
 14 17  2  0  0  0  0
 14 18  1  0  0  0  0
 14 19  1  0  0  0  0
 15 21  1  0  0  0  0
 16 22  2  0  0  0  0
 20 21  2  0  0  0  0
 20 22  1  0  0  0  0
 20 24  1  0  0  0  0
 23 25  1  0  0  0  0
 23 26  1  0  0  0  0
 25 28  1  0  0  0  0
 26 29  1  0  0  0  0
 27 28  1  0  0  0  0
 27 29  1  0  0  0  0
 27 30  1  0  0  0  0
M  END
> <PUBCHEM_COMPOUND_ID_TYPE>
0

> <PUBCHEM_TOTAL_CHARGE>
0

> <PUBCHEM_SUBSTANCE_ID>
310931905

> <PUBCHEM_SUBSTANCE_VERSION>
1

> <PUBCHEM_EXT_DATASOURCE_NAME>
4488

> <PUBCHEM_EXT_DATASOURCE_REGID>
SCHEMBL16109240

> <PUBCHEM_SUBSTANCE_COMMENT>
InChI=1S/C23H23N5O2/c1-15-2-9-19(10-3-15)27-22(29)18-8-11-21(25-13-18)28-23(30)20(14-26-28)17-6-4-16(12-24)5-7-17/h4-8,11,13-15,19,30H,2-3,9-10H2,1H3,(H,27,29)
InChIKey=YDGXLAZTESORPC-UHFFFAOYSA-N

> <PUBCHEM_SUBSTANCE_SYNONYM>
SCHEMBL16109240

> <PUBCHEM_XREF_EXT_ID>
SCHEMBL16109240

> <PUBCHEM_EXT_DATASOURCE_URL>
https://www.surechembl.org/

> <PUBCHEM_EXT_SUBSTANCE_URL>
https://www.surechembl.org/chemical/SCHEMBL16109240

> <PUBCHEM_CID_ASSOCIATIONS>
117600560  1

> <PUBCHEM_COORDINATE_TYPE>
1
3

$$$$
