310945014
  -OEChem-07211613022D

 36 40  0     1  0  0  0  0  0999 V2000
    3.4894    2.4327    0.0000 S   0  0  0  0  0  0  0  0  0  0  0  0
    5.0195    2.6088    0.0000 O   0  0  0  0  0  0  0  0  0  0  0  0
   -2.2896   -2.1245    0.0000 O   0  0  0  0  0  0  0  0  0  0  0  0
    3.7206    0.2972    0.0000 N   0  0  0  0  0  0  0  0  0  0  0  0
    0.5724    0.9467    0.0000 N   0  0  0  0  0  0  0  0  0  0  0  0
    5.3497    1.1888    0.0000 N   0  0  0  0  0  0  0  0  0  0  0  0
   -0.1431   -0.2972    0.0000 N   0  0  0  0  0  0  0  0  0  0  0  0
   -1.5961   -0.8696    0.0000 N   0  0  0  0  0  0  0  0  0  0  0  0
   -5.1626   -1.3319    0.0000 N   0  0  0  0  0  0  0  0  0  0  0  0
    2.7079    1.3650    0.0000 C   0  0  0  0  0  0  0  0  0  0  0  0
    3.5004    1.0898    0.0000 C   0  0  0  0  0  0  0  0  0  0  0  0
    2.7079    2.1795    0.0000 C   0  0  0  0  0  0  0  0  0  0  0  0
    2.0034    0.9467    0.0000 C   0  0  0  0  0  0  0  0  0  0  0  0
    3.9737    1.7833    0.0000 C   0  0  0  0  0  0  0  0  0  0  0  0
    1.2769    1.3539    0.0000 C   0  0  0  0  0  0  0  0  0  0  0  0
    4.7883    1.8053    0.0000 C   0  0  0  0  0  0  0  0  0  0  0  0
    1.9814    2.5868    0.0000 C   0  0  0  0  0  0  0  0  0  0  0  0
    1.2989    2.1795    0.0000 C   0  0  0  0  0  0  0  0  0  0  0  0
    1.9923    0.1101    0.0000 C   0  0  0  0  0  0  0  0  0  0  0  0
    0.5614    0.1211    0.0000 C   0  0  0  0  0  0  0  0  0  0  0  0
    1.2659   -0.2972    0.0000 C   0  0  0  0  0  0  0  0  0  0  0  0
    4.5021   -0.0220    0.0000 C   0  0  0  0  0  0  0  0  0  0  0  0
    5.1956    0.3633    0.0000 C   0  0  3  0  0  0  0  0  0  0  0  0
   -0.1431   -0.9687    0.0000 C   0  0  0  0  0  0  0  0  0  0  0  0
   -0.8586   -1.3539    0.0000 C   0  0  0  0  0  0  0  0  0  0  0  0
    5.9001   -0.0330    0.0000 C   0  0  0  0  0  0  0  0  0  0  0  0
    0.5614   -1.3980    0.0000 C   0  0  0  0  0  0  0  0  0  0  0  0
   -0.8806   -2.1795    0.0000 C   0  0  0  0  0  0  0  0  0  0  0  0
    0.5394   -2.2125    0.0000 C   0  0  0  0  0  0  0  0  0  0  0  0
   -0.1761   -2.6088    0.0000 C   0  0  0  0  0  0  0  0  0  0  0  0
   -2.3006   -1.2769    0.0000 C   0  0  0  0  0  0  0  0  0  0  0  0
   -3.0381   -0.8916    0.0000 C   0  0  0  0  0  0  0  0  0  0  0  0
   -3.7206   -1.3099    0.0000 C   0  0  0  0  0  0  0  0  0  0  0  0
   -4.4581   -0.9136    0.0000 C   0  0  0  0  0  0  0  0  0  0  0  0
   -5.1515   -2.1685    0.0000 C   0  0  0  0  0  0  0  0  0  0  0  0
   -5.9001   -0.9247    0.0000 C   0  0  0  0  0  0  0  0  0  0  0  0
  1 12  1  0  0  0  0
  1 14  1  0  0  0  0
  2 16  2  0  0  0  0
  3 31  2  0  0  0  0
  4 11  1  0  0  0  0
  4 22  1  0  0  0  0
  5 15  1  0  0  0  0
  5 20  2  0  0  0  0
  6 16  1  0  0  0  0
  6 23  1  0  0  0  0
  7 20  1  0  0  0  0
  7 24  1  0  0  0  0
  8 25  1  0  0  0  0
  8 31  1  0  0  0  0
  9 34  1  0  0  0  0
  9 35  1  0  0  0  0
  9 36  1  0  0  0  0
 10 11  1  0  0  0  0
 10 12  2  0  0  0  0
 10 13  1  0  0  0  0
 11 14  2  0  0  0  0
 12 17  1  0  0  0  0
 13 15  2  0  0  0  0
 13 19  1  0  0  0  0
 14 16  1  0  0  0  0
 15 18  1  0  0  0  0
 17 18  2  0  0  0  0
 19 21  2  0  0  0  0
 20 21  1  0  0  0  0
 22 23  1  0  0  0  0
 23 26  1  6  0  0  0
 24 25  1  0  0  0  0
 24 27  2  0  0  0  0
 25 28  2  0  0  0  0
 27 29  1  0  0  0  0
 28 30  1  0  0  0  0
 29 30  2  0  0  0  0
 31 32  1  0  0  0  0
 32 33  2  0  0  0  0
 33 34  1  0  0  0  0
M  END
> <PUBCHEM_COMPOUND_ID_TYPE>
0

> <PUBCHEM_TOTAL_CHARGE>
0

> <PUBCHEM_SUBSTANCE_ID>
310945014

> <PUBCHEM_SUBSTANCE_VERSION>
1

> <PUBCHEM_EXT_DATASOURCE_NAME>
4488

> <PUBCHEM_EXT_DATASOURCE_REGID>
SCHEMBL16123102

> <PUBCHEM_SUBSTANCE_COMMENT>
InChI=1S/C27H28N6O2S/c1-16-15-28-25-24-17-10-13-22(30-18(17)11-12-21(24)36-26(25)27(35)29-16)31-19-7-4-5-8-20(19)32-23(34)9-6-14-33(2)3/h4-13,16,28H,14-15H2,1-3H3,(H,29,35)(H,30,31)(H,32,34)/b9-6+/t16-/m1/s1
InChIKey=NFBRNEMTQHCRLM-YXMGTMDOSA-N

> <PUBCHEM_SUBSTANCE_SYNONYM>
SCHEMBL16123102

> <PUBCHEM_XREF_EXT_ID>
SCHEMBL16123102

> <PUBCHEM_EXT_DATASOURCE_URL>
https://www.surechembl.org/

> <PUBCHEM_EXT_SUBSTANCE_URL>
https://www.surechembl.org/chemical/SCHEMBL16123102

> <PUBCHEM_CID_ASSOCIATIONS>
117611152  1

> <PUBCHEM_COORDINATE_TYPE>
1
3

> <PUBCHEM_BONDANNOTATIONS>
23  26  6

$$$$
