310949605
  -OEChem-07211613022D

 31 36  0     1  0  0  0  0  0999 V2000
   -0.9007    1.6559    0.0000 N   0  0  0  0  0  0  0  0  0  0  0  0
   -0.9007    2.9999    0.0000 N   0  0  0  0  0  0  0  0  0  0  0  0
   -0.1385   -0.7136    0.0000 N   0  0  0  0  0  0  0  0  0  0  0  0
    1.9953   -2.4734    0.0000 N   0  0  0  0  0  0  0  0  0  0  0  0
    1.6904    1.9053    0.0000 N   0  0  0  0  0  0  0  0  0  0  0  0
   -0.4157    2.3348    0.0000 C   0  0  0  0  0  0  0  0  0  0  0  0
   -1.6904    1.9469    0.0000 C   0  0  0  0  0  0  0  0  0  0  0  0
   -1.6767    2.7644    0.0000 C   0  0  0  0  0  0  0  0  0  0  0  0
   -0.6374    0.8799    0.0000 C   0  0  0  0  0  0  0  0  0  0  0  0
    0.4295    2.3210    0.0000 C   0  0  3  0  0  0  0  0  0  0  0  0
    1.5797   -1.1847    0.0000 C   0  0  0  0  0  0  0  0  0  0  0  0
    0.9145   -1.6697    0.0000 C   0  0  0  0  0  0  0  0  0  0  0  0
   -2.4111    1.5311    0.0000 C   0  0  0  0  0  0  0  0  0  0  0  0
    2.2586   -1.6697    0.0000 C   0  0  0  0  0  0  0  0  0  0  0  0
   -2.4111    3.1662    0.0000 C   0  0  0  0  0  0  0  0  0  0  0  0
   -1.2055    0.2286    0.0000 C   0  0  0  0  0  0  0  0  0  0  0  0
    0.1663    0.6997    0.0000 C   0  0  0  0  0  0  0  0  0  0  0  0
    0.1109   -1.4896    0.0000 C   0  0  0  0  0  0  0  0  0  0  0  0
    1.1778   -2.4734    0.0000 C   0  0  0  0  0  0  0  0  0  0  0  0
    0.9007    1.6697    0.0000 C   0  0  0  0  0  0  0  0  0  0  0  0
    0.9145    2.9860    0.0000 C   0  0  0  0  0  0  0  0  0  0  0  0
   -0.9423   -0.5335    0.0000 C   0  0  0  0  0  0  0  0  0  0  0  0
    0.4157   -0.0901    0.0000 C   0  0  0  0  0  0  0  0  0  0  0  0
   -3.1177    1.9330    0.0000 C   0  0  0  0  0  0  0  0  0  0  0  0
   -3.1177    2.7644    0.0000 C   0  0  0  0  0  0  0  0  0  0  0  0
    1.6904   -0.3672    0.0000 C   0  0  0  0  0  0  0  0  0  0  0  0
    3.0068   -1.3371    0.0000 C   0  0  0  0  0  0  0  0  0  0  0  0
    1.7043    2.7366    0.0000 C   0  0  0  0  0  0  0  0  0  0  0  0
    2.4387   -0.0485    0.0000 C   0  0  0  0  0  0  0  0  0  0  0  0
    3.1177   -0.5196    0.0000 C   0  0  0  0  0  0  0  0  0  0  0  0
    2.5080   -3.1662    0.0000 C   0  0  0  0  0  0  0  0  0  0  0  0
  1  6  1  0  0  0  0
  1  7  1  0  0  0  0
  1  9  1  0  0  0  0
  2  6  2  0  0  0  0
  2  8  1  0  0  0  0
  3 18  1  0  0  0  0
  3 22  1  0  0  0  0
  3 23  1  0  0  0  0
  4 14  1  0  0  0  0
  4 19  1  0  0  0  0
  4 31  1  0  0  0  0
  5 20  1  0  0  0  0
  5 28  1  0  0  0  0
 10  6  1  6  0  0  0
  7  8  1  0  0  0  0
  7 13  2  0  0  0  0
  8 15  2  0  0  0  0
  9 16  1  0  0  0  0
  9 17  1  0  0  0  0
 10 20  1  0  0  0  0
 10 21  1  0  0  0  0
 11 12  1  0  0  0  0
 11 14  2  0  0  0  0
 11 26  1  0  0  0  0
 12 18  1  0  0  0  0
 12 19  2  0  0  0  0
 13 24  1  0  0  0  0
 14 27  1  0  0  0  0
 15 25  1  0  0  0  0
 16 22  1  0  0  0  0
 17 23  1  0  0  0  0
 21 28  1  0  0  0  0
 24 25  2  0  0  0  0
 26 29  2  0  0  0  0
 27 30  2  0  0  0  0
 29 30  1  0  0  0  0
M  END
> <PUBCHEM_COMPOUND_ID_TYPE>
0

> <PUBCHEM_TOTAL_CHARGE>
0

> <PUBCHEM_SUBSTANCE_ID>
310949605

> <PUBCHEM_SUBSTANCE_VERSION>
1

> <PUBCHEM_EXT_DATASOURCE_NAME>
4488

> <PUBCHEM_EXT_DATASOURCE_REGID>
SCHEMBL16127802

> <PUBCHEM_SUBSTANCE_COMMENT>
InChI=1S/C26H31N5/c1-29-17-20(22-6-2-4-8-24(22)29)18-30-14-11-21(12-15-30)31-25-9-5-3-7-23(25)28-26(31)19-10-13-27-16-19/h2-9,17,19,21,27H,10-16,18H2,1H3/t19-/m1/s1
InChIKey=FELSQFRUUMKWIX-LJQANCHMSA-N

> <PUBCHEM_SUBSTANCE_SYNONYM>
SCHEMBL16127802

> <PUBCHEM_XREF_EXT_ID>
SCHEMBL16127802

> <PUBCHEM_EXT_DATASOURCE_URL>
https://www.surechembl.org/

> <PUBCHEM_EXT_SUBSTANCE_URL>
https://www.surechembl.org/chemical/SCHEMBL16127802

> <PUBCHEM_CID_ASSOCIATIONS>
117615000  1

> <PUBCHEM_COORDINATE_TYPE>
1
3

> <PUBCHEM_BONDANNOTATIONS>
10  6  6

$$$$
