310946662
  -OEChem-07211613022D

 36 42  0     1  0  0  0  0  0999 V2000
    3.6936   15.2287    0.0000 O   0  0  0  0  0  0  0  0  0  0  0  0
    3.5233   16.0294    0.0000 O   0  0  0  0  0  0  0  0  0  0  0  0
    4.7359   16.9471    0.0000 O   0  0  0  0  0  0  0  0  0  0  0  0
   -1.3778   13.8337    0.0000 O   0  0  0  0  0  0  0  0  0  0  0  0
   -2.2028   13.8337    0.0000 O   0  0  0  0  0  0  0  0  0  0  0  0
   -3.7942   14.6587    0.0000 O   0  0  0  0  0  0  0  0  0  0  0  0
   -4.7619   12.7494    0.0000 O   0  0  0  0  0  0  0  0  0  0  0  0
    2.9090   15.4837    0.0000 C   0  0  3  0  0  0  0  0  0  0  0  0
    2.9090   16.3087    0.0000 C   0  0  3  0  0  0  0  0  0  0  0  0
    3.6936   16.5636    0.0000 C   0  0  3  0  0  0  0  0  0  0  0  0
    4.1785   15.8962    0.0000 C   0  0  3  0  0  0  0  0  0  0  0  0
    2.1945   15.0712    0.0000 C   0  0  3  0  0  0  0  0  0  0  0  0
    3.9100   17.2089    0.0000 C   0  0  3  0  0  0  0  0  0  0  0  0
    1.4801   15.4837    0.0000 C   0  0  3  0  0  0  0  0  0  0  0  0
    2.1945   16.7212    0.0000 C   0  0  0  0  0  0  0  0  0  0  0  0
    0.7656   15.0712    0.0000 C   0  0  3  0  0  0  0  0  0  0  0  0
    4.6951   16.1484    0.0000 C   0  0  0  0  0  0  0  0  0  0  0  0
    4.3644   16.5902    0.0000 C   0  0  0  0  0  0  0  0  0  0  0  0
    1.4801   16.3087    0.0000 C   0  0  0  0  0  0  0  0  0  0  0  0
    2.9090   17.1337    0.0000 C   0  0  0  0  0  0  0  0  0  0  0  0
    2.1945   14.2462    0.0000 C   0  0  0  0  0  0  0  0  0  0  0  0
    0.7656   14.2462    0.0000 C   0  0  0  0  0  0  0  0  0  0  0  0
    4.7619   15.3128    0.0000 C   0  0  0  0  0  0  0  0  0  0  0  0
    1.4801   13.8337    0.0000 C   0  0  0  0  0  0  0  0  0  0  0  0
    0.0511   15.4837    0.0000 C   0  0  0  0  0  0  0  0  0  0  0  0
    0.7656   15.8962    0.0000 C   0  0  0  0  0  0  0  0  0  0  0  0
    0.0511   13.8337    0.0000 C   0  0  0  0  0  0  0  0  0  0  0  0
   -0.6634   14.2462    0.0000 C   0  0  3  0  0  0  0  0  0  0  0  0
   -0.6634   15.0712    0.0000 C   0  0  0  0  0  0  0  0  0  0  0  0
   -1.7903   13.1192    0.0000 C   0  0  3  0  0  0  0  0  0  0  0  0
   -2.5836   13.3283    0.0000 C   0  0  0  0  0  0  0  0  0  0  0  0
   -3.3817   13.1192    0.0000 C   0  0  3  0  0  0  0  0  0  0  0  0
   -3.0009   13.6247    0.0000 C   0  0  3  0  0  0  0  0  0  0  0  0
   -3.7942   13.8337    0.0000 C   0  0  3  0  0  0  0  0  0  0  0  0
   -4.1785   13.3327    0.0000 C   0  0  0  0  0  0  0  0  0  0  0  0
   -3.5843   14.2080    0.0000 C   0  0  0  0  0  0  0  0  0  0  0  0
  8  1  1  6  0  0  0
  1 11  1  0  0  0  0
  2  8  1  0  0  0  0
  2 18  1  0  0  0  0
 13  3  1  6  0  0  0
  3 17  1  0  0  0  0
 28  4  1  1  0  0  0
  4 30  1  0  0  0  0
  5 30  1  0  0  0  0
  5 33  1  0  0  0  0
  6 34  1  0  0  0  0
  7 35  1  0  0  0  0
  8  9  1  0  0  0  0
  8 12  1  0  0  0  0
 10  9  1  1  0  0  0
  9 15  1  0  0  0  0
  9 20  1  1  0  0  0
 10 11  1  0  0  0  0
 10 13  1  0  0  0  0
 11 17  1  0  0  0  0
 11 23  1  6  0  0  0
 12 14  1  0  0  0  0
 12 21  1  6  0  0  0
 13 18  1  0  0  0  0
 14 16  1  0  0  0  0
 14 19  1  1  0  0  0
 15 19  1  0  0  0  0
 16 22  1  0  0  0  0
 16 25  1  0  0  0  0
 16 26  1  1  0  0  0
 21 24  1  0  0  0  0
 22 24  2  0  0  0  0
 22 27  1  0  0  0  0
 25 29  1  0  0  0  0
 27 28  1  0  0  0  0
 28 29  1  0  0  0  0
 30 31  1  0  0  0  0
 31 32  1  0  0  0  0
 32 34  1  0  0  0  0
 32 35  1  0  0  0  0
 33 34  1  0  0  0  0
 33 36  1  0  0  0  0
M  END
> <PUBCHEM_COMPOUND_ID_TYPE>
0

> <PUBCHEM_TOTAL_CHARGE>
0

> <PUBCHEM_SUBSTANCE_ID>
310946662

> <PUBCHEM_SUBSTANCE_VERSION>
1

> <PUBCHEM_EXT_DATASOURCE_NAME>
4488

> <PUBCHEM_EXT_DATASOURCE_REGID>
SCHEMBL16124783

> <PUBCHEM_SUBSTANCE_COMMENT>
InChI=1S/C29H44O7/c1-16-24(31)17(13-30)11-23(34-16)35-19-7-9-26(2)18(12-19)5-6-21-20(26)8-10-27(3)25-22-14-33-29(21,27)36-28(25,4)15-32-22/h5,16-17,19-25,30-31H,6-15H2,1-4H3/t16?,17?,19-,20-,21+,22+,23?,24?,25+,26-,27+,28+,29+/m0/s1
InChIKey=WGCJOVJATTYFIH-ZRVNVQQKSA-N

> <PUBCHEM_SUBSTANCE_SYNONYM>
SCHEMBL16124783

> <PUBCHEM_XREF_EXT_ID>
SCHEMBL16124783

> <PUBCHEM_EXT_DATASOURCE_URL>
https://www.surechembl.org/

> <PUBCHEM_EXT_SUBSTANCE_URL>
https://www.surechembl.org/chemical/SCHEMBL16124783

> <PUBCHEM_CID_ASSOCIATIONS>
117612562  1

> <PUBCHEM_COORDINATE_TYPE>
1
3

> <PUBCHEM_BONDANNOTATIONS>
8  1  6
11  23  6
12  21  6
14  19  5
16  26  5
13  3  6
28  4  5
10  9  5
9  20  5

$$$$
