310945750
  -OEChem-07211613022D

 30 33  0     0  0  0  0  0  0999 V2000
   -2.7931    0.6595    0.0000 Cl  0  0  0  0  0  0  0  0  0  0  0  0
    1.8480    0.8711    0.0000 O   0  0  0  0  0  0  0  0  0  0  0  0
    4.8950    0.7018    0.0000 O   0  0  0  0  0  0  0  0  0  0  0  0
    1.3049   -0.5607    0.0000 N   0  0  0  0  0  0  0  0  0  0  0  0
    0.4937    0.4902    0.0000 N   0  0  0  0  0  0  0  0  0  0  0  0
   -2.0736   -0.5749    0.0000 N   0  0  0  0  0  0  0  0  0  0  0  0
   -1.2343    0.4761    0.0000 N   0  0  0  0  0  0  0  0  0  0  0  0
    0.0494   -0.1728    0.0000 C   0  0  0  0  0  0  0  0  0  0  0  0
   -0.7899   -0.1657    0.0000 C   0  0  0  0  0  0  0  0  0  0  0  0
    0.5643   -0.8005    0.0000 C   0  0  0  0  0  0  0  0  0  0  0  0
   -1.2978   -0.8217    0.0000 C   0  0  0  0  0  0  0  0  0  0  0  0
    1.2625    0.2998    0.0000 C   0  0  0  0  0  0  0  0  0  0  0  0
   -2.0314    0.2927    0.0000 C   0  0  0  0  0  0  0  0  0  0  0  0
    2.0384   -0.9275    0.0000 C   0  0  0  0  0  0  0  0  0  0  0  0
   -2.7790   -0.9486    0.0000 C   0  0  0  0  0  0  0  0  0  0  0  0
    2.7578   -0.5043    0.0000 C   0  0  0  0  0  0  0  0  0  0  0  0
    0.3738   -1.4635    0.0000 C   0  0  0  0  0  0  0  0  0  0  0  0
   -3.5196   -0.5325    0.0000 C   0  0  0  0  0  0  0  0  0  0  0  0
   -1.1356   -1.4917    0.0000 C   0  0  0  0  0  0  0  0  0  0  0  0
   -3.5196    0.2927    0.0000 C   0  0  0  0  0  0  0  0  0  0  0  0
    3.4702   -0.9134    0.0000 C   0  0  0  0  0  0  0  0  0  0  0  0
    2.7578    0.3209    0.0000 C   0  0  0  0  0  0  0  0  0  0  0  0
   -4.2319   -0.9557    0.0000 C   0  0  0  0  0  0  0  0  0  0  0  0
    4.1826    0.3351    0.0000 C   0  0  0  0  0  0  0  0  0  0  0  0
    4.1826   -0.4972    0.0000 C   0  0  0  0  0  0  0  0  0  0  0  0
    3.4632    0.7300    0.0000 C   0  0  0  0  0  0  0  0  0  0  0  0
   -4.2319    0.6877    0.0000 C   0  0  0  0  0  0  0  0  0  0  0  0
   -4.9373   -0.5537    0.0000 C   0  0  0  0  0  0  0  0  0  0  0  0
   -4.9443    0.2716    0.0000 C   0  0  0  0  0  0  0  0  0  0  0  0
    4.9443    1.4917    0.0000 C   0  0  0  0  0  0  0  0  0  0  0  0
  1 20  1  0  0  0  0
  2 12  2  0  0  0  0
  3 24  1  0  0  0  0
  3 30  1  0  0  0  0
  4 10  1  0  0  0  0
  4 12  1  0  0  0  0
  4 14  1  0  0  0  0
  5  8  2  0  0  0  0
  5 12  1  0  0  0  0
  6 11  1  0  0  0  0
  6 13  1  0  0  0  0
  6 15  1  0  0  0  0
  7  9  1  0  0  0  0
  7 13  2  0  0  0  0
  8  9  1  0  0  0  0
  8 10  1  0  0  0  0
  9 11  2  0  0  0  0
 10 17  2  0  0  0  0
 11 19  1  0  0  0  0
 14 16  1  0  0  0  0
 15 18  1  0  0  0  0
 16 21  2  0  0  0  0
 16 22  1  0  0  0  0
 18 20  2  0  0  0  0
 18 23  1  0  0  0  0
 20 27  1  0  0  0  0
 21 25  1  0  0  0  0
 22 26  2  0  0  0  0
 23 28  2  0  0  0  0
 24 25  2  0  0  0  0
 24 26  1  0  0  0  0
 27 29  2  0  0  0  0
 28 29  1  0  0  0  0
M  END
> <PUBCHEM_COMPOUND_ID_TYPE>
0

> <PUBCHEM_TOTAL_CHARGE>
0

> <PUBCHEM_SUBSTANCE_ID>
310945750

> <PUBCHEM_SUBSTANCE_VERSION>
1

> <PUBCHEM_EXT_DATASOURCE_NAME>
4488

> <PUBCHEM_EXT_DATASOURCE_REGID>
SCHEMBL16123854

> <PUBCHEM_SUBSTANCE_COMMENT>
InChI=1S/C23H21ClN4O2/c1-15-21(25-14-27(15)13-18-6-4-5-7-20(18)24)22-16(2)28(23(29)26-22)12-17-8-10-19(30-3)11-9-17/h4-11,14H,2,12-13H2,1,3H3
InChIKey=OYOIFHGVALPHNM-UHFFFAOYSA-N

> <PUBCHEM_SUBSTANCE_SYNONYM>
SCHEMBL16123854

> <PUBCHEM_XREF_EXT_ID>
SCHEMBL16123854

> <PUBCHEM_EXT_DATASOURCE_URL>
https://www.surechembl.org/

> <PUBCHEM_EXT_SUBSTANCE_URL>
https://www.surechembl.org/chemical/SCHEMBL16123854

> <PUBCHEM_CID_ASSOCIATIONS>
117611743  1

> <PUBCHEM_COORDINATE_TYPE>
1
3

$$$$
