310932182
  -OEChem-07211613022D

 32 35  0     0  0  0  0  0  0999 V2000
    2.8653   -2.1148    0.0000 O   0  0  0  0  0  0  0  0  0  0  0  0
    0.1023   -2.3878    0.0000 O   0  0  0  0  0  0  0  0  0  0  0  0
    7.3337   -2.2172    0.0000 O   0  0  0  0  0  0  0  0  0  0  0  0
    3.7522   -0.9551    0.0000 N   0  0  0  0  0  0  0  0  0  0  0  0
    3.6839   -0.1365    0.0000 N   0  0  0  0  0  0  0  0  0  0  0  0
    5.1848   -0.9551    0.0000 N   0  0  0  0  0  0  0  0  0  0  0  0
    0.0000   -0.9892    0.0000 N   0  0  0  0  0  0  0  0  0  0  0  0
    6.6174   -3.4452    0.0000 N   0  0  0  0  0  0  0  0  0  0  0  0
    8.8005   -4.6731    0.0000 N   0  0  0  0  0  0  0  0  0  0  0  0
    2.4218   -0.7163    0.0000 C   0  0  0  0  0  0  0  0  0  0  0  0
    3.0017   -1.2962    0.0000 C   0  0  0  0  0  0  0  0  0  0  0  0
    4.4685   -1.3985    0.0000 C   0  0  0  0  0  0  0  0  0  0  0  0
    1.6032   -0.7846    0.0000 C   0  0  0  0  0  0  0  0  0  0  0  0
    2.8653    0.0000    0.0000 C   0  0  0  0  0  0  0  0  0  0  0  0
    4.4685   -2.2172    0.0000 C   0  0  0  0  0  0  0  0  0  0  0  0
    5.9011   -2.2172    0.0000 C   0  0  0  0  0  0  0  0  0  0  0  0
    1.2962   -1.5691    0.0000 C   0  0  0  0  0  0  0  0  0  0  0  0
    1.1597   -0.1365    0.0000 C   0  0  0  0  0  0  0  0  0  0  0  0
    5.9011   -1.3985    0.0000 C   0  0  0  0  0  0  0  0  0  0  0  0
    5.1848   -2.6265    0.0000 C   0  0  0  0  0  0  0  0  0  0  0  0
    0.4434   -1.6373    0.0000 C   0  0  0  0  0  0  0  0  0  0  0  0
    6.6174   -2.6265    0.0000 C   0  0  0  0  0  0  0  0  0  0  0  0
    0.3070   -0.2047    0.0000 C   0  0  0  0  0  0  0  0  0  0  0  0
    7.3679   -3.8545    0.0000 C   0  0  0  0  0  0  0  0  0  0  0  0
    7.3679   -4.7072    0.0000 C   0  0  0  0  0  0  0  0  0  0  0  0
    8.0500   -3.4452    0.0000 C   0  0  0  0  0  0  0  0  0  0  0  0
    8.0500   -5.1166    0.0000 C   0  0  0  0  0  0  0  0  0  0  0  0
    8.8005   -3.8545    0.0000 C   0  0  0  0  0  0  0  0  0  0  0  0
    9.4827   -5.1166    0.0000 C   0  0  0  0  0  0  0  0  0  0  0  0
    0.5799   -3.0699    0.0000 C   0  0  0  0  0  0  0  0  0  0  0  0
   10.2331   -4.6731    0.0000 C   0  0  0  0  0  0  0  0  0  0  0  0
   10.1990   -3.8545    0.0000 C   0  0  0  0  0  0  0  0  0  0  0  0
  1 11  1  0  0  0  0
  2 21  1  0  0  0  0
  2 30  1  0  0  0  0
  3 22  2  0  0  0  0
  4  5  1  0  0  0  0
  4 11  1  0  0  0  0
  4 12  1  0  0  0  0
  5 14  2  0  0  0  0
  6 12  2  0  0  0  0
  6 19  1  0  0  0  0
  7 21  1  0  0  0  0
  7 23  2  0  0  0  0
  8 22  1  0  0  0  0
  8 24  1  0  0  0  0
  9 27  1  0  0  0  0
  9 28  1  0  0  0  0
  9 29  1  0  0  0  0
 10 11  2  0  0  0  0
 10 13  1  0  0  0  0
 10 14  1  0  0  0  0
 12 15  1  0  0  0  0
 13 17  1  0  0  0  0
 13 18  2  0  0  0  0
 15 20  2  0  0  0  0
 16 19  2  0  0  0  0
 16 20  1  0  0  0  0
 16 22  1  0  0  0  0
 17 21  2  0  0  0  0
 18 23  1  0  0  0  0
 24 25  1  0  0  0  0
 24 26  1  0  0  0  0
 25 27  1  0  0  0  0
 26 28  1  0  0  0  0
 29 31  1  0  0  0  0
 31 32  1  0  0  0  0
M  END
> <PUBCHEM_COMPOUND_ID_TYPE>
0

> <PUBCHEM_TOTAL_CHARGE>
0

> <PUBCHEM_SUBSTANCE_ID>
310932182

> <PUBCHEM_SUBSTANCE_VERSION>
1

> <PUBCHEM_EXT_DATASOURCE_NAME>
4488

> <PUBCHEM_EXT_DATASOURCE_REGID>
SCHEMBL16109537

> <PUBCHEM_SUBSTANCE_COMMENT>
InChI=1S/C23H28N6O3/c1-3-10-28-11-7-18(8-12-28)27-22(30)17-4-5-20(25-14-17)29-23(31)19(15-26-29)16-6-9-24-21(13-16)32-2/h4-6,9,13-15,18,31H,3,7-8,10-12H2,1-2H3,(H,27,30)
InChIKey=SYLGZXRPMTZSGA-UHFFFAOYSA-N

> <PUBCHEM_SUBSTANCE_SYNONYM>
SCHEMBL16109537

> <PUBCHEM_XREF_EXT_ID>
SCHEMBL16109537

> <PUBCHEM_EXT_DATASOURCE_URL>
https://www.surechembl.org/

> <PUBCHEM_EXT_SUBSTANCE_URL>
https://www.surechembl.org/chemical/SCHEMBL16109537

> <PUBCHEM_CID_ASSOCIATIONS>
117600778  1

> <PUBCHEM_COORDINATE_TYPE>
1
3

$$$$
