310934345
  -OEChem-07211613022D

 45 49  0     0  0  0  0  0  0999 V2000
   -3.3574   -0.8754    0.0000 S   0  0  0  0  0  0  0  0  0  0  0  0
   -9.1124   -1.7774    0.0000 P   0  0  0  0  0  0  0  0  0  0  0  0
   -8.3980   -2.1899    0.0000 O   0  0  0  0  0  0  0  0  0  0  0  0
   -9.8269   -2.1899    0.0000 O   0  0  0  0  0  0  0  0  0  0  0  0
   -9.1124   -2.6024    0.0000 O   0  0  0  0  0  0  0  0  0  0  0  0
   -9.1124   -0.9524    0.0000 O   0  0  0  0  0  0  0  0  0  0  0  0
    1.7820   -0.0260    0.0000 N   0  0  0  0  0  0  0  0  0  0  0  0
   -7.6834   -0.1273    0.0000 N   0  0  0  0  0  0  0  0  0  0  0  0
    0.9616    0.0602    0.0000 C   0  0  0  0  0  0  0  0  0  0  0  0
    2.1176   -0.7798    0.0000 C   0  0  0  0  0  0  0  0  0  0  0  0
    2.2670    0.6414    0.0000 C   0  0  0  0  0  0  0  0  0  0  0  0
   -4.1111   -0.5399    0.0000 C   0  0  0  0  0  0  0  0  0  0  0  0
   -4.8255   -0.9524    0.0000 C   0  0  0  0  0  0  0  0  0  0  0  0
   -2.8053   -0.2623    0.0000 C   0  0  0  0  0  0  0  0  0  0  0  0
    0.4766   -0.6073    0.0000 C   0  0  0  0  0  0  0  0  0  0  0  0
    0.6260    0.8139    0.0000 C   0  0  0  0  0  0  0  0  0  0  0  0
   -0.6794    0.2327    0.0000 C   0  0  0  0  0  0  0  0  0  0  0  0
   -6.2545   -1.7774    0.0000 C   0  0  0  0  0  0  0  0  0  0  0  0
   -4.0248    0.2806    0.0000 C   0  0  0  0  0  0  0  0  0  0  0  0
   -0.3439   -0.5211    0.0000 C   0  0  0  0  0  0  0  0  0  0  0  0
   -0.1945    0.9001    0.0000 C   0  0  0  0  0  0  0  0  0  0  0  0
   -4.8255   -1.7774    0.0000 C   0  0  0  0  0  0  0  0  0  0  0  0
   -5.5400   -0.5399    0.0000 C   0  0  0  0  0  0  0  0  0  0  0  0
   -3.2178    0.4522    0.0000 C   0  0  0  0  0  0  0  0  0  0  0  0
    1.6327   -1.4472    0.0000 C   0  0  0  0  0  0  0  0  0  0  0  0
    3.0875    0.5552    0.0000 C   0  0  0  0  0  0  0  0  0  0  0  0
    2.9381   -0.8660    0.0000 C   0  0  0  0  0  0  0  0  0  0  0  0
    1.9314    1.3951    0.0000 C   0  0  0  0  0  0  0  0  0  0  0  0
   -7.6834   -1.7774    0.0000 C   0  0  0  0  0  0  0  0  0  0  0  0
   -1.9849   -0.3486    0.0000 C   0  0  0  0  0  0  0  0  0  0  0  0
   -5.5400   -2.1899    0.0000 C   0  0  0  0  0  0  0  0  0  0  0  0
   -6.2545   -0.9524    0.0000 C   0  0  0  0  0  0  0  0  0  0  0  0
   -1.4999    0.3189    0.0000 C   0  0  0  0  0  0  0  0  0  0  0  0
   -6.9690   -2.1899    0.0000 C   0  0  0  0  0  0  0  0  0  0  0  0
    1.9682   -2.2009    0.0000 C   0  0  0  0  0  0  0  0  0  0  0  0
    3.5724    1.2226    0.0000 C   0  0  0  0  0  0  0  0  0  0  0  0
    3.2736   -1.6197    0.0000 C   0  0  0  0  0  0  0  0  0  0  0  0
    2.4163    2.0625    0.0000 C   0  0  0  0  0  0  0  0  0  0  0  0
    2.7887   -2.2871    0.0000 C   0  0  0  0  0  0  0  0  0  0  0  0
    3.2368    1.9763    0.0000 C   0  0  0  0  0  0  0  0  0  0  0  0
   -7.6834   -0.9524    0.0000 C   0  0  0  0  0  0  0  0  0  0  0  0
  -10.5414   -1.7774    0.0000 C   0  0  0  0  0  0  0  0  0  0  0  0
   -9.8269   -3.0149    0.0000 C   0  0  0  0  0  0  0  0  0  0  0  0
  -11.2559   -2.1899    0.0000 C   0  0  0  0  0  0  0  0  0  0  0  0
   -9.8269   -3.8399    0.0000 C   0  0  0  0  0  0  0  0  0  0  0  0
  1 12  1  0  0  0  0
  1 14  1  0  0  0  0
  2  3  1  0  0  0  0
  2  4  1  0  0  0  0
  2  5  1  0  0  0  0
  2  6  2  0  0  0  0
  3 29  1  0  0  0  0
  4 42  1  0  0  0  0
  5 43  1  0  0  0  0
  7  9  1  0  0  0  0
  7 10  1  0  0  0  0
  7 11  1  0  0  0  0
  8 41  3  0  0  0  0
  9 15  2  0  0  0  0
  9 16  1  0  0  0  0
 10 25  2  0  0  0  0
 10 27  1  0  0  0  0
 11 26  2  0  0  0  0
 11 28  1  0  0  0  0
 12 13  1  0  0  0  0
 12 19  2  0  0  0  0
 13 22  2  0  0  0  0
 13 23  1  0  0  0  0
 14 24  2  0  0  0  0
 14 30  1  0  0  0  0
 15 20  1  0  0  0  0
 16 21  2  0  0  0  0
 17 20  2  0  0  0  0
 17 21  1  0  0  0  0
 17 33  1  0  0  0  0
 18 31  2  0  0  0  0
 18 32  1  0  0  0  0
 18 34  1  0  0  0  0
 19 24  1  0  0  0  0
 22 31  1  0  0  0  0
 23 32  2  0  0  0  0
 25 35  1  0  0  0  0
 26 36  1  0  0  0  0
 27 37  2  0  0  0  0
 28 38  2  0  0  0  0
 29 34  2  3  0  0  0
 29 41  1  0  0  0  0
 30 33  2  3  0  0  0
 35 39  2  0  0  0  0
 36 40  2  0  0  0  0
 37 39  1  0  0  0  0
 38 40  1  0  0  0  0
 42 44  1  0  0  0  0
 43 45  1  0  0  0  0
M  END
> <PUBCHEM_COMPOUND_ID_TYPE>
0

> <PUBCHEM_TOTAL_CHARGE>
0

> <PUBCHEM_SUBSTANCE_ID>
310934345

> <PUBCHEM_SUBSTANCE_VERSION>
1

> <PUBCHEM_EXT_DATASOURCE_NAME>
4488

> <PUBCHEM_EXT_DATASOURCE_REGID>
SCHEMBL16111809

> <PUBCHEM_SUBSTANCE_COMMENT>
InChI=1S/C37H33N2O4PS/c1-3-41-44(40,42-4-2)43-35(28-38)27-30-15-20-31(21-16-30)37-26-25-36(45-37)24-19-29-17-22-34(23-18-29)39(32-11-7-5-8-12-32)33-13-9-6-10-14-33/h5-27H,3-4H2,1-2H3/b24-19+,35-27+
InChIKey=BLCDKSYFDVIDGJ-MXNHQORGSA-N

> <PUBCHEM_SUBSTANCE_SYNONYM>
SCHEMBL16111809

> <PUBCHEM_XREF_EXT_ID>
SCHEMBL16111809

> <PUBCHEM_EXT_DATASOURCE_URL>
https://www.surechembl.org/

> <PUBCHEM_EXT_SUBSTANCE_URL>
https://www.surechembl.org/chemical/SCHEMBL16111809

> <PUBCHEM_CID_ASSOCIATIONS>
117602578  1

> <PUBCHEM_COORDINATE_TYPE>
1
3

> <PUBCHEM_BONDANNOTATIONS>
29  34  1
30  33  1

$$$$
