310941136
  -OEChem-07211613022D

 43 46  0     1  0  0  0  0  0999 V2000
    5.0705    0.6756    0.0000 O   0  0  0  0  0  0  0  0  0  0  0  0
    3.9469   -1.2872    0.0000 O   0  0  0  0  0  0  0  0  0  0  0  0
    1.7992    0.7894    0.0000 O   0  0  0  0  0  0  0  0  0  0  0  0
   -0.3485   -1.2872    0.0000 O   0  0  0  0  0  0  0  0  0  0  0  0
    0.3627    2.9512    0.0000 O   0  0  0  0  0  0  0  0  0  0  0  0
    3.9469   -2.9512    0.0000 O   0  0  0  0  0  0  0  0  0  0  0  0
   -2.4961    0.7894    0.0000 O   0  0  0  0  0  0  0  0  0  0  0  0
   -5.3691    0.7894    0.0000 O   0  0  0  0  0  0  0  0  0  0  0  0
    2.5104   -0.4765    0.0000 N   0  0  0  0  0  0  0  0  0  0  0  0
    0.3627   -0.0498    0.0000 N   0  0  0  0  0  0  0  0  0  0  0  0
   -1.7850   -0.4765    0.0000 N   0  0  0  0  0  0  0  0  0  0  0  0
   -3.9326   -0.0498    0.0000 N   0  0  0  0  0  0  0  0  0  0  0  0
    4.6579   -0.0071    0.0000 C   0  0  3  0  0  0  0  0  0  0  0  0
    3.9469   -0.4338    0.0000 C   0  0  0  0  0  0  0  0  0  0  0  0
    4.2740    0.6756    0.0000 C   0  0  0  0  0  0  0  0  0  0  0  0
    3.2214   -0.0213    0.0000 C   0  0  3  0  0  0  0  0  0  0  0  0
    5.3691   -0.4338    0.0000 C   0  0  0  0  0  0  0  0  0  0  0  0
    3.2357    1.3014    0.0000 C   0  0  0  0  0  0  0  0  0  0  0  0
    1.7850   -0.0498    0.0000 C   0  0  0  0  0  0  0  0  0  0  0  0
    1.0880   -0.4338    0.0000 C   0  0  3  0  0  0  0  0  0  0  0  0
    2.5245    1.7280    0.0000 C   0  0  0  0  0  0  0  0  0  0  0  0
    1.0738   -1.2872    0.0000 C   0  0  0  0  0  0  0  0  0  0  0  0
    1.7992    1.3156    0.0000 C   0  0  0  0  0  0  0  0  0  0  0  0
    2.5245    2.5387    0.0000 C   0  0  0  0  0  0  0  0  0  0  0  0
    1.8134   -1.6854    0.0000 C   0  0  0  0  0  0  0  0  0  0  0  0
   -0.3485   -0.4195    0.0000 C   0  0  0  0  0  0  0  0  0  0  0  0
   -1.0596   -0.0213    0.0000 C   0  0  3  0  0  0  0  0  0  0  0  0
    1.1022    1.7138    0.0000 C   0  0  0  0  0  0  0  0  0  0  0  0
    1.7850    2.9512    0.0000 C   0  0  0  0  0  0  0  0  0  0  0  0
    1.1022    2.5387    0.0000 C   0  0  0  0  0  0  0  0  0  0  0  0
    2.5104   -1.2872    0.0000 C   0  0  0  0  0  0  0  0  0  0  0  0
    1.8134   -2.5245    0.0000 C   0  0  0  0  0  0  0  0  0  0  0  0
    3.2357   -2.5104    0.0000 C   0  0  0  0  0  0  0  0  0  0  0  0
    3.2357   -1.6996    0.0000 C   0  0  0  0  0  0  0  0  0  0  0  0
    2.5245   -2.9228    0.0000 C   0  0  0  0  0  0  0  0  0  0  0  0
   -2.5104   -0.0498    0.0000 C   0  0  0  0  0  0  0  0  0  0  0  0
   -1.0596    0.8036    0.0000 C   0  0  0  0  0  0  0  0  0  0  0  0
   -3.2072   -0.4338    0.0000 C   0  0  0  0  0  0  0  0  0  0  0  0
   -3.9326    0.8036    0.0000 C   0  0  0  0  0  0  0  0  0  0  0  0
   -4.6437   -0.4338    0.0000 C   0  0  0  0  0  0  0  0  0  0  0  0
   -4.6579    1.2161    0.0000 C   0  0  0  0  0  0  0  0  0  0  0  0
   -5.3549   -0.0356    0.0000 C   0  0  0  0  0  0  0  0  0  0  0  0
    4.6864   -2.5104    0.0000 C   0  0  0  0  0  0  0  0  0  0  0  0
  1 13  1  0  0  0  0
  1 15  1  0  0  0  0
  2 14  2  0  0  0  0
  3 19  2  0  0  0  0
  4 26  2  0  0  0  0
 30  5  1  6  0  0  0
  6 33  1  0  0  0  0
  6 43  1  0  0  0  0
  7 36  2  0  0  0  0
  8 41  1  0  0  0  0
  8 42  1  0  0  0  0
 16  9  1  1  0  0  0
  9 19  1  0  0  0  0
 20 10  1  6  0  0  0
 10 26  1  0  0  0  0
 11 27  1  0  0  0  0
 11 36  1  0  0  0  0
 12 38  1  0  0  0  0
 12 39  1  0  0  0  0
 12 40  1  0  0  0  0
 13 14  1  1  0  0  0
 13 15  1  0  0  0  0
 13 17  1  6  0  0  0
 14 16  1  0  0  0  0
 16 18  1  0  0  0  0
 21 18  1  1  0  0  0
 19 20  1  0  0  0  0
 20 22  1  0  0  0  0
 21 23  1  0  0  0  0
 21 24  1  0  0  0  0
 22 25  1  0  0  0  0
 23 28  1  0  0  0  0
 24 29  1  0  0  0  0
 25 31  2  0  0  0  0
 25 32  1  0  0  0  0
 26 27  1  0  0  0  0
 27 37  1  1  0  0  0
 28 30  1  0  0  0  0
 29 30  1  0  0  0  0
 31 34  1  0  0  0  0
 32 35  2  0  0  0  0
 33 34  2  0  0  0  0
 33 35  1  0  0  0  0
 36 38  1  0  0  0  0
 39 41  1  0  0  0  0
 40 42  1  0  0  0  0
M  END
> <PUBCHEM_COMPOUND_ID_TYPE>
0

> <PUBCHEM_TOTAL_CHARGE>
0

> <PUBCHEM_SUBSTANCE_ID>
310941136

> <PUBCHEM_SUBSTANCE_VERSION>
1

> <PUBCHEM_EXT_DATASOURCE_NAME>
4488

> <PUBCHEM_EXT_DATASOURCE_REGID>
SCHEMBL16119096

> <PUBCHEM_SUBSTANCE_COMMENT>
InChI=1S/C31H46N4O8/c1-20(32-27(37)18-35-12-14-42-15-13-35)29(39)34-26(17-22-6-10-24(41-3)11-7-22)30(40)33-25(28(38)31(2)19-43-31)16-21-4-8-23(36)9-5-21/h6-7,10-11,20-21,23,25-26,36H,4-5,8-9,12-19H2,1-3H3,(H,32,37)(H,33,40)(H,34,39)/t20-,21-,23-,25-,26-,31+/m0/s1
InChIKey=GATQINIFNIOYTP-JSOSGXKBSA-N

> <PUBCHEM_SUBSTANCE_SYNONYM>
SCHEMBL16119096

> <PUBCHEM_XREF_EXT_ID>
SCHEMBL16119096

> <PUBCHEM_EXT_DATASOURCE_URL>
https://www.surechembl.org/

> <PUBCHEM_EXT_SUBSTANCE_URL>
https://www.surechembl.org/chemical/SCHEMBL16119096

> <PUBCHEM_CID_ASSOCIATIONS>
117608019  1

> <PUBCHEM_COORDINATE_TYPE>
1
3

> <PUBCHEM_BONDANNOTATIONS>
20  10  6
13  14  5
13  17  6
21  18  5
27  37  5
30  5  6
16  9  5

$$$$
