310936067
  -OEChem-07211613022D

 26 27  0     1  0  0  0  0  0999 V2000
   -5.0012    0.4125    0.0000 S   0  0  0  0  0  0  0  0  0  0  0  0
   -6.4302    1.2375    0.0000 F   0  0  0  0  0  0  0  0  0  0  0  0
   -5.7157    1.6500    0.0000 F   0  0  0  0  0  0  0  0  0  0  0  0
   -6.4302    0.4125    0.0000 F   0  0  0  0  0  0  0  0  0  0  0  0
    0.0458   -0.5995    0.0000 F   0  0  0  0  0  0  0  0  0  0  0  0
   -4.2868    0.0000    0.0000 O   0  0  0  0  0  0  0  0  0  0  0  0
   -2.3915    2.6447    0.0000 O   0  0  0  0  0  0  0  0  0  0  0  0
   -5.4137   -0.3019    0.0000 O   0  0  0  0  0  0  0  0  0  0  0  0
   -4.5887    1.1269    0.0000 O   0  0  0  0  0  0  0  0  0  0  0  0
   -1.0487    2.1560    0.0000 O   0  0  0  0  0  0  0  0  0  0  0  0
   -2.1434    1.2375    0.0000 C   0  0  3  0  0  0  0  0  0  0  0  0
   -1.3310    1.0942    0.0000 C   0  0  0  0  0  0  0  0  0  0  0  0
   -1.8612    2.0128    0.0000 C   0  0  0  0  0  0  0  0  0  0  0  0
   -2.1434    0.4125    0.0000 C   0  0  0  0  0  0  0  0  0  0  0  0
   -2.8578    1.6500    0.0000 C   0  0  0  0  0  0  0  0  0  0  0  0
   -3.5723    0.4125    0.0000 C   0  0  0  0  0  0  0  0  0  0  0  0
   -5.7157    0.8250    0.0000 C   0  0  0  0  0  0  0  0  0  0  0  0
   -1.0487    0.3190    0.0000 C   0  0  0  0  0  0  0  0  0  0  0  0
   -2.8578    0.0000    0.0000 C   0  0  0  0  0  0  0  0  0  0  0  0
   -3.5723    1.2375    0.0000 C   0  0  0  0  0  0  0  0  0  0  0  0
   -0.8007    1.7262    0.0000 C   0  0  0  0  0  0  0  0  0  0  0  0
   -0.2363    0.1757    0.0000 C   0  0  0  0  0  0  0  0  0  0  0  0
    0.0118    1.5829    0.0000 C   0  0  0  0  0  0  0  0  0  0  0  0
    0.2940    0.8077    0.0000 C   0  0  0  0  0  0  0  0  0  0  0  0
   -1.5791   -0.3130    0.0000 C   0  0  0  0  0  0  0  0  0  0  0  0
   -2.1094    3.4200    0.0000 C   0  0  0  0  0  0  0  0  0  0  0  0
  1  6  1  0  0  0  0
  1  8  2  0  0  0  0
  1  9  2  0  0  0  0
  1 17  1  0  0  0  0
  2 17  1  0  0  0  0
  3 17  1  0  0  0  0
  4 17  1  0  0  0  0
  5 22  1  0  0  0  0
  6 16  1  0  0  0  0
  7 13  1  0  0  0  0
  7 26  1  0  0  0  0
 10 13  2  0  0  0  0
 11 12  1  0  0  0  0
 11 13  1  1  0  0  0
 11 14  1  0  0  0  0
 11 15  1  0  0  0  0
 12 18  1  0  0  0  0
 12 21  2  0  0  0  0
 14 19  1  0  0  0  0
 15 20  1  0  0  0  0
 16 19  2  0  0  0  0
 16 20  1  0  0  0  0
 18 22  2  0  0  0  0
 18 25  1  0  0  0  0
 21 23  1  0  0  0  0
 22 24  1  0  0  0  0
 23 24  2  0  0  0  0
M  END
> <PUBCHEM_COMPOUND_ID_TYPE>
0

> <PUBCHEM_TOTAL_CHARGE>
0

> <PUBCHEM_SUBSTANCE_ID>
310936067

> <PUBCHEM_SUBSTANCE_VERSION>
1

> <PUBCHEM_EXT_DATASOURCE_NAME>
4488

> <PUBCHEM_EXT_DATASOURCE_REGID>
SCHEMBL16113673

> <PUBCHEM_SUBSTANCE_COMMENT>
InChI=1S/C16H16F4O5S/c1-10-12(4-3-5-13(10)17)15(14(21)24-2)8-6-11(7-9-15)25-26(22,23)16(18,19)20/h3-6H,7-9H2,1-2H3/t15-/m0/s1
InChIKey=CDBYJVPZLUSANV-HNNXBMFYSA-N

> <PUBCHEM_SUBSTANCE_SYNONYM>
SCHEMBL16113673

> <PUBCHEM_XREF_EXT_ID>
SCHEMBL16113673

> <PUBCHEM_EXT_DATASOURCE_URL>
https://www.surechembl.org/

> <PUBCHEM_EXT_SUBSTANCE_URL>
https://www.surechembl.org/chemical/SCHEMBL16113673

> <PUBCHEM_CID_ASSOCIATIONS>
117604032  1

> <PUBCHEM_COORDINATE_TYPE>
1
3

> <PUBCHEM_BONDANNOTATIONS>
11  13  5

$$$$
