310939034
  -OEChem-07211613022D

 16 18  0     0  0  0  0  0  0999 V2000
   -0.3498    0.5830    0.0000 N   0  0  0  0  0  0  0  0  0  0  0  0
   -1.0640   -0.6122    0.0000 N   0  0  0  0  0  0  0  0  0  0  0  0
   -0.3789   -1.8656    0.0000 N   0  0  0  0  0  0  0  0  0  0  0  0
   -0.9911    1.0932    0.0000 N   0  0  0  0  0  0  0  0  0  0  0  0
   -0.7288    1.8656    0.0000 N   0  0  0  0  0  0  0  0  0  0  0  0
    1.7636   -1.4721    0.0000 N   0  0  0  0  0  0  0  0  0  0  0  0
   -0.3352   -0.2041    0.0000 C   0  0  0  0  0  0  0  0  0  0  0  0
    0.3644   -0.6413    0.0000 C   0  0  0  0  0  0  0  0  0  0  0  0
    0.3498   -1.4575    0.0000 C   0  0  0  0  0  0  0  0  0  0  0  0
   -1.0640   -1.4575    0.0000 C   0  0  0  0  0  0  0  0  0  0  0  0
    1.0786   -0.2623    0.0000 C   0  0  0  0  0  0  0  0  0  0  0  0
    0.3498    1.0786    0.0000 C   0  0  0  0  0  0  0  0  0  0  0  0
    1.0932   -1.8802    0.0000 C   0  0  0  0  0  0  0  0  0  0  0  0
    1.8073   -0.6413    0.0000 C   0  0  0  0  0  0  0  0  0  0  0  0
    0.1020    1.8802    0.0000 C   0  0  0  0  0  0  0  0  0  0  0  0
   -1.8073   -1.8365    0.0000 C   0  0  0  0  0  0  0  0  0  0  0  0
  1  4  1  0  0  0  0
  1  7  1  0  0  0  0
  1 12  1  0  0  0  0
  2  7  2  0  0  0  0
  2 10  1  0  0  0  0
  3  9  1  0  0  0  0
  3 10  2  0  0  0  0
  4  5  2  0  0  0  0
  5 15  1  0  0  0  0
  6 13  1  0  0  0  0
  6 14  1  0  0  0  0
  7  8  1  0  0  0  0
  8  9  2  0  0  0  0
  8 11  1  0  0  0  0
  9 13  1  0  0  0  0
 10 16  1  0  0  0  0
 11 14  1  0  0  0  0
 12 15  2  0  0  0  0
M  END
> <PUBCHEM_COMPOUND_ID_TYPE>
0

> <PUBCHEM_TOTAL_CHARGE>
0

> <PUBCHEM_SUBSTANCE_ID>
310939034

> <PUBCHEM_SUBSTANCE_VERSION>
1

> <PUBCHEM_EXT_DATASOURCE_NAME>
4488

> <PUBCHEM_EXT_DATASOURCE_REGID>
SCHEMBL16116953

> <PUBCHEM_SUBSTANCE_COMMENT>
InChI=1S/C10H12N6/c1-7-13-9-6-11-3-2-8(9)10(14-7)16-5-4-12-15-16/h4-5,11H,2-3,6H2,1H3
InChIKey=ABRRUYHOJCBIHW-UHFFFAOYSA-N

> <PUBCHEM_SUBSTANCE_SYNONYM>
SCHEMBL16116953

> <PUBCHEM_XREF_EXT_ID>
SCHEMBL16116953

> <PUBCHEM_EXT_DATASOURCE_URL>
https://www.surechembl.org/

> <PUBCHEM_EXT_SUBSTANCE_URL>
https://www.surechembl.org/chemical/SCHEMBL16116953

> <PUBCHEM_CID_ASSOCIATIONS>
117606406  1

> <PUBCHEM_COORDINATE_TYPE>
1
3

$$$$
