310940503
  -OEChem-07211613022D

 30 34  0     0  0  0  0  0  0999 V2000
   -0.1957    2.6002    0.0000 F   0  0  0  0  0  0  0  0  0  0  0  0
    0.1467    1.5242    0.0000 F   0  0  0  0  0  0  0  0  0  0  0  0
   -0.9455    1.1982    0.0000 F   0  0  0  0  0  0  0  0  0  0  0  0
   -2.7714   -1.7851    0.0000 O   0  0  0  0  0  0  0  0  0  0  0  0
   -0.0326   -2.0948    0.0000 N   0  0  0  0  0  0  0  0  0  0  0  0
   -1.2553   -2.6165    0.0000 N   0  0  0  0  0  0  0  0  0  0  0  0
    0.8151   -2.0948    0.0000 N   0  0  0  0  0  0  0  0  0  0  0  0
   -2.0377   -0.5624    0.0000 N   0  0  0  0  0  0  0  0  0  0  0  0
   -0.4565   -2.8284    0.0000 C   0  0  0  0  0  0  0  0  0  0  0  0
   -1.3368   -1.7851    0.0000 C   0  0  0  0  0  0  0  0  0  0  0  0
   -2.0541   -1.3612    0.0000 C   0  0  0  0  0  0  0  0  0  0  0  0
    1.2064   -2.8121    0.0000 C   0  0  0  0  0  0  0  0  0  0  0  0
   -0.5706   -1.4916    0.0000 C   0  0  0  0  0  0  0  0  0  0  0  0
   -2.0052    1.9481    0.0000 C   0  0  0  0  0  0  0  0  0  0  0  0
    2.0541   -2.8448    0.0000 C   0  0  0  0  0  0  0  0  0  0  0  0
   -1.3204    2.3230    0.0000 C   0  0  0  0  0  0  0  0  0  0  0  0
   -2.0215    1.1004    0.0000 C   0  0  0  0  0  0  0  0  0  0  0  0
   -0.0326   -3.5457    0.0000 C   0  0  0  0  0  0  0  0  0  0  0  0
    0.7825   -3.5620    0.0000 C   0  0  0  0  0  0  0  0  0  0  0  0
   -0.5869    1.8992    0.0000 C   0  0  0  0  0  0  0  0  0  0  0  0
   -1.3204   -0.1549    0.0000 C   0  0  0  0  0  0  0  0  0  0  0  0
   -2.7388   -0.1223    0.0000 C   0  0  0  0  0  0  0  0  0  0  0  0
    2.7714   -2.4698    0.0000 C   0  0  0  0  0  0  0  0  0  0  0  0
    2.7388   -3.2523    0.0000 C   0  0  0  0  0  0  0  0  0  0  0  0
   -1.3042    0.6765    0.0000 C   0  0  0  0  0  0  0  0  0  0  0  0
   -2.7388    0.6928    0.0000 C   0  0  0  0  0  0  0  0  0  0  0  0
   -2.6899    2.3394    0.0000 C   0  0  0  0  0  0  0  0  0  0  0  0
   -1.3042    3.1707    0.0000 C   0  0  0  0  0  0  0  0  0  0  0  0
   -2.7061    3.1545    0.0000 C   0  0  0  0  0  0  0  0  0  0  0  0
   -1.9726    3.5620    0.0000 C   0  0  0  0  0  0  0  0  0  0  0  0
  1 20  1  0  0  0  0
  2 20  1  0  0  0  0
  3 20  1  0  0  0  0
  4 11  2  0  0  0  0
  5  7  1  0  0  0  0
  5  9  1  0  0  0  0
  5 13  1  0  0  0  0
  6  9  2  0  0  0  0
  6 10  1  0  0  0  0
  7 12  2  0  0  0  0
  8 11  1  0  0  0  0
  8 21  1  0  0  0  0
  8 22  1  0  0  0  0
  9 18  1  0  0  0  0
 10 11  1  0  0  0  0
 10 13  2  0  0  0  0
 12 15  1  0  0  0  0
 12 19  1  0  0  0  0
 14 16  2  0  0  0  0
 14 17  1  0  0  0  0
 14 27  1  0  0  0  0
 15 23  1  0  0  0  0
 15 24  1  0  0  0  0
 16 20  1  0  0  0  0
 16 28  1  0  0  0  0
 17 25  1  0  0  0  0
 17 26  1  0  0  0  0
 18 19  2  0  0  0  0
 21 25  1  0  0  0  0
 22 26  1  0  0  0  0
 23 24  1  0  0  0  0
 27 29  2  0  0  0  0
 28 30  2  0  0  0  0
 29 30  1  0  0  0  0
M  END
> <PUBCHEM_COMPOUND_ID_TYPE>
0

> <PUBCHEM_TOTAL_CHARGE>
0

> <PUBCHEM_SUBSTANCE_ID>
310940503

> <PUBCHEM_SUBSTANCE_VERSION>
1

> <PUBCHEM_EXT_DATASOURCE_NAME>
4488

> <PUBCHEM_EXT_DATASOURCE_REGID>
SCHEMBL16118457

> <PUBCHEM_SUBSTANCE_COMMENT>
InChI=1S/C22H21F3N4O/c23-22(24,25)17-4-2-1-3-16(17)14-9-11-28(12-10-14)21(30)19-13-29-20(26-19)8-7-18(27-29)15-5-6-15/h1-4,7-8,13-15H,5-6,9-12H2
InChIKey=AWEAEJSIPNJNIQ-UHFFFAOYSA-N

> <PUBCHEM_SUBSTANCE_SYNONYM>
SCHEMBL16118457

> <PUBCHEM_XREF_EXT_ID>
SCHEMBL16118457

> <PUBCHEM_EXT_DATASOURCE_URL>
https://www.surechembl.org/

> <PUBCHEM_EXT_SUBSTANCE_URL>
https://www.surechembl.org/chemical/SCHEMBL16118457

> <PUBCHEM_CID_ASSOCIATIONS>
117607518  1

> <PUBCHEM_COORDINATE_TYPE>
1
3

$$$$
