310940596
  -OEChem-07211613022D

 25 27  0     0  0  0  0  0  0999 V2000
   -1.9483   -3.2986    0.0000 Cl  0  0  0  0  0  0  0  0  0  0  0  0
    0.2165    0.9277    0.0000 F   0  0  0  0  0  0  0  0  0  0  0  0
   -0.8761    1.2370    0.0000 F   0  0  0  0  0  0  0  0  0  0  0  0
   -0.5670    2.3296    0.0000 F   0  0  0  0  0  0  0  0  0  0  0  0
    1.9276   -2.1028    0.0000 O   0  0  0  0  0  0  0  0  0  0  0  0
    1.2060   -0.8452    0.0000 N   0  0  0  0  0  0  0  0  0  0  0  0
   -0.2165   -1.6493    0.0000 N   0  0  0  0  0  0  0  0  0  0  0  0
   -0.9380   -2.0822    0.0000 N   0  0  0  0  0  0  0  0  0  0  0  0
    1.2472    1.6699    0.0000 C   0  0  0  0  0  0  0  0  0  0  0  0
    0.5051    2.0822    0.0000 C   0  0  0  0  0  0  0  0  0  0  0  0
    1.2060    0.8452    0.0000 C   0  0  0  0  0  0  0  0  0  0  0  0
   -0.1958    1.6493    0.0000 C   0  0  0  0  0  0  0  0  0  0  0  0
    1.1648   -1.6286    0.0000 C   0  0  0  0  0  0  0  0  0  0  0  0
    0.4639   -2.0822    0.0000 C   0  0  0  0  0  0  0  0  0  0  0  0
    1.9276    0.4123    0.0000 C   0  0  0  0  0  0  0  0  0  0  0  0
    0.4845    0.3918    0.0000 C   0  0  0  0  0  0  0  0  0  0  0  0
    1.9276    2.0616    0.0000 C   0  0  0  0  0  0  0  0  0  0  0  0
    0.5051    2.8863    0.0000 C   0  0  0  0  0  0  0  0  0  0  0  0
    1.9276   -0.4123    0.0000 C   0  0  0  0  0  0  0  0  0  0  0  0
    0.4845   -0.4123    0.0000 C   0  0  0  0  0  0  0  0  0  0  0  0
    1.9483    2.8863    0.0000 C   0  0  0  0  0  0  0  0  0  0  0  0
    1.2472    3.3192    0.0000 C   0  0  0  0  0  0  0  0  0  0  0  0
    0.4639   -2.9069    0.0000 C   0  0  0  0  0  0  0  0  0  0  0  0
   -0.9586   -2.8656    0.0000 C   0  0  0  0  0  0  0  0  0  0  0  0
   -0.2165   -3.3192    0.0000 C   0  0  0  0  0  0  0  0  0  0  0  0
  1 24  1  0  0  0  0
  2 12  1  0  0  0  0
  3 12  1  0  0  0  0
  4 12  1  0  0  0  0
  5 13  2  0  0  0  0
  6 13  1  0  0  0  0
  6 19  1  0  0  0  0
  6 20  1  0  0  0  0
  7  8  1  0  0  0  0
  7 14  2  0  0  0  0
  8 24  2  0  0  0  0
  9 10  2  0  0  0  0
  9 11  1  0  0  0  0
  9 17  1  0  0  0  0
 10 12  1  0  0  0  0
 10 18  1  0  0  0  0
 11 15  1  0  0  0  0
 11 16  1  0  0  0  0
 13 14  1  0  0  0  0
 14 23  1  0  0  0  0
 15 19  1  0  0  0  0
 16 20  1  0  0  0  0
 17 21  2  0  0  0  0
 18 22  2  0  0  0  0
 21 22  1  0  0  0  0
 23 25  2  0  0  0  0
 24 25  1  0  0  0  0
M  END
> <PUBCHEM_COMPOUND_ID_TYPE>
0

> <PUBCHEM_TOTAL_CHARGE>
0

> <PUBCHEM_SUBSTANCE_ID>
310940596

> <PUBCHEM_SUBSTANCE_VERSION>
1

> <PUBCHEM_EXT_DATASOURCE_NAME>
4488

> <PUBCHEM_EXT_DATASOURCE_REGID>
SCHEMBL16118550

> <PUBCHEM_SUBSTANCE_COMMENT>
InChI=1S/C17H15ClF3N3O/c18-15-6-5-14(22-23-15)16(25)24-9-7-11(8-10-24)12-3-1-2-4-13(12)17(19,20)21/h1-6,11H,7-10H2
InChIKey=JRTWWAQVDSZFCX-UHFFFAOYSA-N

> <PUBCHEM_SUBSTANCE_SYNONYM>
SCHEMBL16118550

> <PUBCHEM_XREF_EXT_ID>
SCHEMBL16118550

> <PUBCHEM_EXT_DATASOURCE_URL>
https://www.surechembl.org/

> <PUBCHEM_EXT_SUBSTANCE_URL>
https://www.surechembl.org/chemical/SCHEMBL16118550

> <PUBCHEM_CID_ASSOCIATIONS>
117607584  1

> <PUBCHEM_COORDINATE_TYPE>
1
3

$$$$
