310949249
  -OEChem-07211613022D

 41 47  0     0  0  0  0  0  0999 V2000
    0.0528    0.1433    0.0000 N   0  0  0  0  0  0  0  0  0  0  0  0
    2.1792   -0.2940    0.0000 N   0  0  0  0  0  0  0  0  0  0  0  0
    0.0227   -3.9587    0.0000 N   0  0  0  0  0  0  0  0  0  0  0  0
    0.6861    0.6861    0.0000 C   0  0  0  0  0  0  0  0  0  0  0  0
   -0.6560    0.6560    0.0000 C   0  0  0  0  0  0  0  0  0  0  0  0
   -0.3846    1.4553    0.0000 C   0  0  0  0  0  0  0  0  0  0  0  0
    0.4449    1.4703    0.0000 C   0  0  0  0  0  0  0  0  0  0  0  0
    0.0377   -0.6560    0.0000 C   0  0  0  0  0  0  0  0  0  0  0  0
   -0.6711   -1.0782    0.0000 C   0  0  0  0  0  0  0  0  0  0  0  0
    0.7615   -1.0481    0.0000 C   0  0  0  0  0  0  0  0  0  0  0  0
   -0.9425    2.0284    0.0000 C   0  0  0  0  0  0  0  0  0  0  0  0
    0.9727    2.0585    0.0000 C   0  0  0  0  0  0  0  0  0  0  0  0
    1.5005    0.5354    0.0000 C   0  0  0  0  0  0  0  0  0  0  0  0
   -1.4553    0.4750    0.0000 C   0  0  0  0  0  0  0  0  0  0  0  0
   -1.7720    1.8775    0.0000 C   0  0  0  0  0  0  0  0  0  0  0  0
    1.7871    1.9228    0.0000 C   0  0  0  0  0  0  0  0  0  0  0  0
   -1.4100   -0.6560    0.0000 C   0  0  0  0  0  0  0  0  0  0  0  0
    2.0585    1.1235    0.0000 C   0  0  0  0  0  0  0  0  0  0  0  0
   -1.9982    1.0481    0.0000 C   0  0  0  0  0  0  0  0  0  0  0  0
   -0.6711   -1.9077    0.0000 C   0  0  0  0  0  0  0  0  0  0  0  0
    0.7465   -1.8775    0.0000 C   0  0  0  0  0  0  0  0  0  0  0  0
    0.0377   -2.2847    0.0000 C   0  0  0  0  0  0  0  0  0  0  0  0
   -2.3451    2.4807    0.0000 C   0  0  0  0  0  0  0  0  0  0  0  0
    2.3451    2.5713    0.0000 C   0  0  0  0  0  0  0  0  0  0  0  0
    1.4553   -0.6560    0.0000 C   0  0  0  0  0  0  0  0  0  0  0  0
   -1.3950    0.1282    0.0000 C   0  0  0  0  0  0  0  0  0  0  0  0
   -2.1038   -1.0632    0.0000 C   0  0  0  0  0  0  0  0  0  0  0  0
    0.0227   -3.1443    0.0000 C   0  0  0  0  0  0  0  0  0  0  0  0
   -2.0886    3.2801    0.0000 C   0  0  0  0  0  0  0  0  0  0  0  0
    3.1593    2.4053    0.0000 C   0  0  0  0  0  0  0  0  0  0  0  0
   -3.1292    2.2847    0.0000 C   0  0  0  0  0  0  0  0  0  0  0  0
    2.0886    3.3253    0.0000 C   0  0  0  0  0  0  0  0  0  0  0  0
   -2.1188    0.5504    0.0000 C   0  0  0  0  0  0  0  0  0  0  0  0
   -2.8126   -0.7013    0.0000 C   0  0  0  0  0  0  0  0  0  0  0  0
   -2.8126    0.1282    0.0000 C   0  0  0  0  0  0  0  0  0  0  0  0
   -2.6316    3.8531    0.0000 C   0  0  0  0  0  0  0  0  0  0  0  0
    3.7023    3.0086    0.0000 C   0  0  0  0  0  0  0  0  0  0  0  0
   -3.7023    2.9030    0.0000 C   0  0  0  0  0  0  0  0  0  0  0  0
    2.6466    3.9587    0.0000 C   0  0  0  0  0  0  0  0  0  0  0  0
   -3.4308    3.6872    0.0000 C   0  0  0  0  0  0  0  0  0  0  0  0
    3.4610    3.7928    0.0000 C   0  0  0  0  0  0  0  0  0  0  0  0
  1  4  1  0  0  0  0
  1  5  1  0  0  0  0
  1  8  1  0  0  0  0
  2 25  3  0  0  0  0
  3 28  3  0  0  0  0
  4  7  2  0  0  0  0
  4 13  1  0  0  0  0
  5  6  2  0  0  0  0
  5 14  1  0  0  0  0
  6  7  1  0  0  0  0
  6 11  1  0  0  0  0
  7 12  1  0  0  0  0
  8  9  1  0  0  0  0
  8 10  2  0  0  0  0
  9 17  1  0  0  0  0
  9 20  2  0  0  0  0
 10 21  1  0  0  0  0
 10 25  1  0  0  0  0
 11 15  2  0  0  0  0
 12 16  2  0  0  0  0
 13 18  2  0  0  0  0
 14 19  2  0  0  0  0
 15 19  1  0  0  0  0
 15 23  1  0  0  0  0
 16 18  1  0  0  0  0
 16 24  1  0  0  0  0
 17 26  2  0  0  0  0
 17 27  1  0  0  0  0
 20 22  1  0  0  0  0
 21 22  2  0  0  0  0
 22 28  1  0  0  0  0
 23 29  2  0  0  0  0
 23 31  1  0  0  0  0
 24 30  2  0  0  0  0
 24 32  1  0  0  0  0
 26 33  1  0  0  0  0
 27 34  2  0  0  0  0
 29 36  1  0  0  0  0
 30 37  1  0  0  0  0
 31 38  2  0  0  0  0
 32 39  2  0  0  0  0
 33 35  2  0  0  0  0
 34 35  1  0  0  0  0
 36 40  2  0  0  0  0
 37 41  2  0  0  0  0
 38 40  1  0  0  0  0
 39 41  1  0  0  0  0
M  END
> <PUBCHEM_COMPOUND_ID_TYPE>
0

> <PUBCHEM_TOTAL_CHARGE>
0

> <PUBCHEM_SUBSTANCE_ID>
310949249

> <PUBCHEM_SUBSTANCE_VERSION>
1

> <PUBCHEM_EXT_DATASOURCE_NAME>
4488

> <PUBCHEM_EXT_DATASOURCE_REGID>
SCHEMBL16127439

> <PUBCHEM_SUBSTANCE_COMMENT>
InChI=1S/C38H23N3/c39-24-26-20-32(25-40)38(33(21-26)29-14-8-3-9-15-29)41-36-18-16-30(27-10-4-1-5-11-27)22-34(36)35-23-31(17-19-37(35)41)28-12-6-2-7-13-28/h1-23H
InChIKey=FZTBLQFNADOXKY-UHFFFAOYSA-N

> <PUBCHEM_SUBSTANCE_SYNONYM>
SCHEMBL16127439

> <PUBCHEM_XREF_EXT_ID>
SCHEMBL16127439

> <PUBCHEM_EXT_DATASOURCE_URL>
https://www.surechembl.org/

> <PUBCHEM_EXT_SUBSTANCE_URL>
https://www.surechembl.org/chemical/SCHEMBL16127439

> <PUBCHEM_CID_ASSOCIATIONS>
117614737  1

> <PUBCHEM_COORDINATE_TYPE>
1
3

$$$$
