310931754
  -OEChem-07211613022D

 27 30  0     0  0  0  0  0  0999 V2000
    0.9124   -2.7371    0.0000 O   0  0  0  0  0  0  0  0  0  0  0  0
    2.3654    0.0000    0.0000 O   0  0  0  0  0  0  0  0  0  0  0  0
    0.0000   -6.4880    0.0000 O   0  0  0  0  0  0  0  0  0  0  0  0
    3.4467   -6.7584    0.0000 O   0  0  0  0  0  0  0  0  0  0  0  0
    2.3654   -2.5006    0.0000 N   0  0  0  0  0  0  0  0  0  0  0  0
    2.8047   -3.7847    0.0000 N   0  0  0  0  0  0  0  0  0  0  0  0
    3.8185   -2.7371    0.0000 N   0  0  0  0  0  0  0  0  0  0  0  0
    1.9599   -3.7847    0.0000 C   0  0  0  0  0  0  0  0  0  0  0  0
    1.7234   -3.0074    0.0000 C   0  0  0  0  0  0  0  0  0  0  0  0
    1.4868   -4.4605    0.0000 C   0  0  0  0  0  0  0  0  0  0  0  0
    2.3316   -4.5281    0.0000 C   0  0  0  0  0  0  0  0  0  0  0  0
    3.0412   -3.0074    0.0000 C   0  0  0  0  0  0  0  0  0  0  0  0
    2.3654   -1.6896    0.0000 C   0  0  0  0  0  0  0  0  0  0  0  0
    1.8248   -5.2377    0.0000 C   0  0  0  0  0  0  0  0  0  0  0  0
    3.1764   -4.5957    0.0000 C   0  0  0  0  0  0  0  0  0  0  0  0
    0.6420   -4.3929    0.0000 C   0  0  0  0  0  0  0  0  0  0  0  0
    2.0613   -5.4067    0.0000 C   0  0  0  0  0  0  0  0  0  0  0  0
    3.0751   -1.2503    0.0000 C   0  0  0  0  0  0  0  0  0  0  0  0
    1.6558   -1.2503    0.0000 C   0  0  0  0  0  0  0  0  0  0  0  0
    1.3178   -5.9136    0.0000 C   0  0  0  0  0  0  0  0  0  0  0  0
    3.5481   -5.3053    0.0000 C   0  0  0  0  0  0  0  0  0  0  0  0
    0.1689   -5.0688    0.0000 C   0  0  0  0  0  0  0  0  0  0  0  0
    2.2640   -5.9811    0.0000 C   0  0  0  0  0  0  0  0  0  0  0  0
    0.5069   -5.8122    0.0000 C   0  0  0  0  0  0  0  0  0  0  0  0
    3.0751   -6.0149    0.0000 C   0  0  0  0  0  0  0  0  0  0  0  0
    3.0751   -0.4393    0.0000 C   0  0  0  0  0  0  0  0  0  0  0  0
    1.6558   -0.4393    0.0000 C   0  0  0  0  0  0  0  0  0  0  0  0
  1  9  2  0  0  0  0
  2 26  1  0  0  0  0
  2 27  1  0  0  0  0
  3 24  1  0  0  0  0
  4 25  1  0  0  0  0
  5  9  1  0  0  0  0
  5 12  1  0  0  0  0
  5 13  1  0  0  0  0
  6  8  1  0  0  0  0
  6 12  1  0  0  0  0
  7 12  2  3  0  0  0
  8  9  1  0  0  0  0
  8 10  1  0  0  0  0
  8 11  1  0  0  0  0
 10 14  2  0  0  0  0
 10 16  1  0  0  0  0
 11 15  2  0  0  0  0
 11 17  1  0  0  0  0
 13 18  1  0  0  0  0
 13 19  1  0  0  0  0
 14 20  1  0  0  0  0
 15 21  1  0  0  0  0
 16 22  2  0  0  0  0
 17 23  2  0  0  0  0
 18 26  1  0  0  0  0
 19 27  1  0  0  0  0
 20 24  2  0  0  0  0
 21 25  2  0  0  0  0
 22 24  1  0  0  0  0
 23 25  1  0  0  0  0
M  END
> <PUBCHEM_COMPOUND_ID_TYPE>
0

> <PUBCHEM_TOTAL_CHARGE>
0

> <PUBCHEM_SUBSTANCE_ID>
310931754

> <PUBCHEM_SUBSTANCE_VERSION>
1

> <PUBCHEM_EXT_DATASOURCE_NAME>
4488

> <PUBCHEM_EXT_DATASOURCE_REGID>
SCHEMBL16109083

> <PUBCHEM_SUBSTANCE_COMMENT>
InChI=1S/C20H21N3O4/c21-19-22-20(13-1-5-16(24)6-2-13,14-3-7-17(25)8-4-14)18(26)23(19)15-9-11-27-12-10-15/h1-8,15,24-25H,9-12H2,(H2,21,22)
InChIKey=ODEVANYLABPZEQ-UHFFFAOYSA-N

> <PUBCHEM_SUBSTANCE_SYNONYM>
SCHEMBL16109083

> <PUBCHEM_XREF_EXT_ID>
SCHEMBL16109083

> <PUBCHEM_EXT_DATASOURCE_URL>
https://www.surechembl.org/

> <PUBCHEM_EXT_SUBSTANCE_URL>
https://www.surechembl.org/chemical/SCHEMBL16109083

> <PUBCHEM_CID_ASSOCIATIONS>
86274325  1

> <PUBCHEM_COORDINATE_TYPE>
1
3

$$$$
