310934154
  -OEChem-07211613022D

 33 37  0     0  0  0  0  0  0999 V2000
    3.7227   -6.3579    0.0000 S   0  0  0  0  0  0  0  0  0  0  0  0
    2.7188   -0.4183    0.0000 O   0  0  0  0  0  0  0  0  0  0  0  0
    0.0000   -5.6050    0.0000 O   0  0  0  0  0  0  0  0  0  0  0  0
    3.7227   -7.2363    0.0000 O   0  0  0  0  0  0  0  0  0  0  0  0
    3.7227   -5.5213    0.0000 O   0  0  0  0  0  0  0  0  0  0  0  0
    0.0000   -4.1410    0.0000 N   0  0  0  0  0  0  0  0  0  0  0  0
    4.5175   -6.3579    0.0000 N   0  0  0  0  0  0  0  0  0  0  0  0
    2.0077    0.0000    0.0000 N   0  0  0  0  0  0  0  0  0  0  0  0
    1.2549   -4.8939    0.0000 C   0  0  0  0  0  0  0  0  0  0  0  0
    1.2549   -3.4718    0.0000 C   0  0  0  0  0  0  0  0  0  0  0  0
    0.4183   -3.4299    0.0000 C   0  0  0  0  0  0  0  0  0  0  0  0
    1.2967   -2.0496    0.0000 C   0  0  0  0  0  0  0  0  0  0  0  0
    1.6313   -5.6050    0.0000 C   0  0  0  0  0  0  0  0  0  0  0  0
    1.7150   -1.3385    0.0000 C   0  0  0  0  0  0  0  0  0  0  0  0
    0.4183   -4.8939    0.0000 C   0  0  0  0  0  0  0  0  0  0  0  0
    1.6731   -4.1828    0.0000 C   0  0  0  0  0  0  0  0  0  0  0  0
    1.6731   -2.7606    0.0000 C   0  0  0  0  0  0  0  0  0  0  0  0
    2.8861   -6.3579    0.0000 C   0  0  0  0  0  0  0  0  0  0  0  0
    2.4679   -5.6050    0.0000 C   0  0  0  0  0  0  0  0  0  0  0  0
    0.0419   -2.7606    0.0000 C   0  0  0  0  0  0  0  0  0  0  0  0
    2.5097   -1.2130    0.0000 C   0  0  0  0  0  0  0  0  0  0  0  0
    1.3803   -0.5438    0.0000 C   0  0  0  0  0  0  0  0  0  0  0  0
    0.4601   -2.0077    0.0000 C   0  0  0  0  0  0  0  0  0  0  0  0
    1.2130   -6.3579    0.0000 C   0  0  0  0  0  0  0  0  0  0  0  0
    2.4679   -7.0690    0.0000 C   0  0  0  0  0  0  0  0  0  0  0  0
    1.6313   -7.0690    0.0000 C   0  0  0  0  0  0  0  0  0  0  0  0
    4.9357   -7.0690    0.0000 C   0  0  0  0  0  0  0  0  0  0  0  0
    3.0534   -1.8404    0.0000 C   0  0  0  0  0  0  0  0  0  0  0  0
    0.5856   -0.3765    0.0000 C   0  0  0  0  0  0  0  0  0  0  0  0
    5.7723   -7.1526    0.0000 C   0  0  0  0  0  0  0  0  0  0  0  0
    4.6011   -7.8219    0.0000 C   0  0  0  0  0  0  0  0  0  0  0  0
    5.9396   -7.9474    0.0000 C   0  0  0  0  0  0  0  0  0  0  0  0
    5.2285   -8.3656    0.0000 C   0  0  0  0  0  0  0  0  0  0  0  0
  1  4  2  0  0  0  0
  1  5  2  0  0  0  0
  1  7  1  0  0  0  0
  1 18  1  0  0  0  0
  2  8  1  0  0  0  0
  2 21  1  0  0  0  0
  3 15  2  0  0  0  0
  6 11  1  0  0  0  0
  6 15  1  0  0  0  0
  7 27  1  0  0  0  0
  8 22  2  0  0  0  0
  9 13  1  0  0  0  0
  9 15  1  0  0  0  0
  9 16  2  0  0  0  0
 10 11  2  0  0  0  0
 10 16  1  0  0  0  0
 10 17  1  0  0  0  0
 11 20  1  0  0  0  0
 12 14  1  0  0  0  0
 12 17  2  0  0  0  0
 12 23  1  0  0  0  0
 13 19  2  0  0  0  0
 13 24  1  0  0  0  0
 14 21  2  0  0  0  0
 14 22  1  0  0  0  0
 18 19  1  0  0  0  0
 18 25  2  0  0  0  0
 20 23  2  0  0  0  0
 21 28  1  0  0  0  0
 22 29  1  0  0  0  0
 24 26  2  0  0  0  0
 25 26  1  0  0  0  0
 27 30  1  0  0  0  0
 27 31  1  0  0  0  0
 30 32  1  0  0  0  0
 31 33  1  0  0  0  0
 32 33  1  0  0  0  0
M  END
> <PUBCHEM_COMPOUND_ID_TYPE>
0

> <PUBCHEM_TOTAL_CHARGE>
0

> <PUBCHEM_SUBSTANCE_ID>
310934154

> <PUBCHEM_SUBSTANCE_VERSION>
1

> <PUBCHEM_EXT_DATASOURCE_NAME>
4488

> <PUBCHEM_EXT_DATASOURCE_REGID>
SCHEMBL16111604

> <PUBCHEM_SUBSTANCE_COMMENT>
InChI=1S/C25H25N3O4S/c1-15-24(16(2)32-27-15)18-10-11-23-19(12-18)14-22(25(29)26-23)17-6-5-9-21(13-17)33(30,31)28-20-7-3-4-8-20/h5-6,9-14,20,28H,3-4,7-8H2,1-2H3,(H,26,29)
InChIKey=FATVXVCUDVXKPV-UHFFFAOYSA-N

> <PUBCHEM_SUBSTANCE_SYNONYM>
SCHEMBL16111604

> <PUBCHEM_XREF_EXT_ID>
SCHEMBL16111604

> <PUBCHEM_EXT_DATASOURCE_URL>
https://www.surechembl.org/

> <PUBCHEM_EXT_SUBSTANCE_URL>
https://www.surechembl.org/chemical/SCHEMBL16111604

> <PUBCHEM_CID_ASSOCIATIONS>
117602429  1

> <PUBCHEM_COORDINATE_TYPE>
1
3

$$$$
