310949526
  -OEChem-07211613022D

 24 25  0     0  0  0  0  0  0999 V2000
   -3.6147   -0.6383    0.0000 F   0  0  0  0  0  0  0  0  0  0  0  0
   -3.6147    0.1814    0.0000 F   0  0  0  0  0  0  0  0  0  0  0  0
   -2.8891    0.5979    0.0000 F   0  0  0  0  0  0  0  0  0  0  0  0
    3.6147    1.0146    0.0000 O   0  0  0  0  0  0  0  0  0  0  0  0
    0.7257   -1.4580    0.0000 O   0  0  0  0  0  0  0  0  0  0  0  0
    2.1634    1.0146    0.0000 O   0  0  0  0  0  0  0  0  0  0  0  0
    1.4378   -0.2218    0.0000 N   0  0  0  0  0  0  0  0  0  0  0  0
   -0.0134   -0.2218    0.0000 N   0  0  0  0  0  0  0  0  0  0  0  0
   -2.1634   -0.6517    0.0000 C   0  0  0  0  0  0  0  0  0  0  0  0
   -2.9293   -0.2083    0.0000 C   0  0  0  0  0  0  0  0  0  0  0  0
    2.1769   -0.6517    0.0000 C   0  0  0  0  0  0  0  0  0  0  0  0
    2.8891   -0.2218    0.0000 C   0  0  0  0  0  0  0  0  0  0  0  0
   -0.7257   -0.6383    0.0000 C   0  0  0  0  0  0  0  0  0  0  0  0
   -1.4512   -0.2351    0.0000 C   0  0  0  0  0  0  0  0  0  0  0  0
    0.7257   -0.6114    0.0000 C   0  0  0  0  0  0  0  0  0  0  0  0
   -2.1634   -1.4580    0.0000 C   0  0  0  0  0  0  0  0  0  0  0  0
    2.9159    0.5845    0.0000 C   0  0  0  0  0  0  0  0  0  0  0  0
   -0.7391   -1.4580    0.0000 C   0  0  0  0  0  0  0  0  0  0  0  0
    2.1769   -1.4580    0.0000 C   0  0  0  0  0  0  0  0  0  0  0  0
    3.6012   -0.6383    0.0000 C   0  0  0  0  0  0  0  0  0  0  0  0
   -1.4378   -1.8611    0.0000 C   0  0  0  0  0  0  0  0  0  0  0  0
    2.9025   -1.8611    0.0000 C   0  0  0  0  0  0  0  0  0  0  0  0
    3.6012   -1.4580    0.0000 C   0  0  0  0  0  0  0  0  0  0  0  0
    3.6012    1.8611    0.0000 C   0  0  0  0  0  0  0  0  0  0  0  0
  1 10  1  0  0  0  0
  2 10  1  0  0  0  0
  3 10  1  0  0  0  0
  4 17  1  0  0  0  0
  4 24  1  0  0  0  0
  5 15  2  0  0  0  0
  6 17  2  0  0  0  0
  7 11  1  0  0  0  0
  7 15  1  0  0  0  0
  8 13  1  0  0  0  0
  8 15  1  0  0  0  0
  9 10  1  0  0  0  0
  9 14  1  0  0  0  0
  9 16  2  0  0  0  0
 11 12  1  0  0  0  0
 11 19  2  0  0  0  0
 12 17  1  0  0  0  0
 12 20  2  0  0  0  0
 13 14  2  0  0  0  0
 13 18  1  0  0  0  0
 16 21  1  0  0  0  0
 18 21  2  0  0  0  0
 19 22  1  0  0  0  0
 20 23  1  0  0  0  0
 22 23  2  0  0  0  0
M  END
> <PUBCHEM_COMPOUND_ID_TYPE>
0

> <PUBCHEM_TOTAL_CHARGE>
0

> <PUBCHEM_SUBSTANCE_ID>
310949526

> <PUBCHEM_SUBSTANCE_VERSION>
1

> <PUBCHEM_EXT_DATASOURCE_NAME>
4488

> <PUBCHEM_EXT_DATASOURCE_REGID>
SCHEMBL16127721

> <PUBCHEM_SUBSTANCE_COMMENT>
InChI=1S/C16H13F3N2O3/c1-24-14(22)12-7-2-3-8-13(12)21-15(23)20-11-6-4-5-10(9-11)16(17,18)19/h2-9H,1H3,(H2,20,21,23)
InChIKey=GUDRLKWKZBPOOQ-UHFFFAOYSA-N

> <PUBCHEM_SUBSTANCE_SYNONYM>
SCHEMBL16127721

> <PUBCHEM_XREF_EXT_ID>
SCHEMBL16127721

> <PUBCHEM_EXT_DATASOURCE_URL>
https://www.surechembl.org/

> <PUBCHEM_EXT_SUBSTANCE_URL>
https://www.surechembl.org/chemical/SCHEMBL16127721

> <PUBCHEM_CID_ASSOCIATIONS>
306338  1

> <PUBCHEM_COORDINATE_TYPE>
1
3

$$$$
