310940022
  -OEChem-07211613022D

 12 12  0     0  0  0  0  0  0999 V2000
   -2.9612    6.8159    0.0000 Cl  0  0  0  0  0  0  0  0  0  0  0  0
   -0.1033    6.8159    0.0000 O   0  0  0  0  0  0  0  0  0  0  0  0
   -0.1033    8.4659    0.0000 N   0  0  0  0  0  0  0  0  0  0  0  0
   -0.8178    7.2284    0.0000 C   0  0  0  0  0  0  0  0  0  0  0  0
   -2.2467    8.0534    0.0000 C   0  0  0  0  0  0  0  0  0  0  0  0
   -0.8178    8.0534    0.0000 C   0  0  0  0  0  0  0  0  0  0  0  0
   -2.2467    7.2284    0.0000 C   0  0  0  0  0  0  0  0  0  0  0  0
   -1.5322    6.8159    0.0000 C   0  0  0  0  0  0  0  0  0  0  0  0
   -1.5322    8.4659    0.0000 C   0  0  0  0  0  0  0  0  0  0  0  0
   -2.9612    8.4659    0.0000 C   0  0  0  0  0  0  0  0  0  0  0  0
    0.6112    7.2284    0.0000 C   0  0  0  0  0  0  0  0  0  0  0  0
   -3.6757    8.0534    0.0000 C   0  0  0  0  0  0  0  0  0  0  0  0
  1  7  1  0  0  0  0
  2  4  1  0  0  0  0
  2 11  1  0  0  0  0
  3  6  1  0  0  0  0
  4  6  1  0  0  0  0
  4  8  2  0  0  0  0
  5  7  2  0  0  0  0
  5  9  1  0  0  0  0
  5 10  1  0  0  0  0
  6  9  2  0  0  0  0
  7  8  1  0  0  0  0
 10 12  2  0  0  0  0
M  END
> <PUBCHEM_COMPOUND_ID_TYPE>
0

> <PUBCHEM_TOTAL_CHARGE>
0

> <PUBCHEM_SUBSTANCE_ID>
310940022

> <PUBCHEM_SUBSTANCE_VERSION>
1

> <PUBCHEM_EXT_DATASOURCE_NAME>
4488

> <PUBCHEM_EXT_DATASOURCE_REGID>
SCHEMBL16117952

> <PUBCHEM_SUBSTANCE_COMMENT>
InChI=1S/C9H10ClNO/c1-3-6-4-8(11)9(12-2)5-7(6)10/h3-5H,1,11H2,2H3
InChIKey=MHVUEBSUJAXDGL-UHFFFAOYSA-N

> <PUBCHEM_SUBSTANCE_SYNONYM>
SCHEMBL16117952

> <PUBCHEM_XREF_EXT_ID>
SCHEMBL16117952

> <PUBCHEM_EXT_DATASOURCE_URL>
https://www.surechembl.org/

> <PUBCHEM_EXT_SUBSTANCE_URL>
https://www.surechembl.org/chemical/SCHEMBL16117952

> <PUBCHEM_CID_ASSOCIATIONS>
117607178  1

> <PUBCHEM_COORDINATE_TYPE>
1
3

$$$$
