310929637
  -OEChem-07211613022D

 16 16  0     0  0  0  0  0  0999 V2000
    2.3889   -0.7102    0.0000 O   0  0  0  0  0  0  0  0  0  0  0  0
    3.2283   -0.7102    0.0000 O   0  0  0  0  0  0  0  0  0  0  0  0
    4.4765   -1.4420    0.0000 O   0  0  0  0  0  0  0  0  0  0  0  0
    3.2283   -2.1522    0.0000 N   0  0  0  0  0  0  0  0  0  0  0  0
    1.1622   -2.8839    0.0000 C   0  0  0  0  0  0  0  0  0  0  0  0
    2.4104   -2.1522    0.0000 C   0  0  0  0  0  0  0  0  0  0  0  0
    1.9800   -1.4420    0.0000 C   0  0  0  0  0  0  0  0  0  0  0  0
    0.7317   -3.5942    0.0000 C   0  0  0  0  0  0  0  0  0  0  0  0
    1.9800   -2.8839    0.0000 C   0  0  0  0  0  0  0  0  0  0  0  0
    0.7533   -2.1522    0.0000 C   0  0  0  0  0  0  0  0  0  0  0  0
    1.1622   -1.4420    0.0000 C   0  0  0  0  0  0  0  0  0  0  0  0
    3.6587   -1.4420    0.0000 C   0  0  0  0  0  0  0  0  0  0  0  0
    0.0000   -3.1637    0.0000 C   0  0  0  0  0  0  0  0  0  0  0  0
    0.3228   -4.3044    0.0000 C   0  0  0  0  0  0  0  0  0  0  0  0
    1.4420   -4.0031    0.0000 C   0  0  0  0  0  0  0  0  0  0  0  0
    1.9800    0.0000    0.0000 C   0  0  0  0  0  0  0  0  0  0  0  0
  1  7  1  0  0  0  0
  1 16  1  0  0  0  0
  2 12  2  0  0  0  0
  3 12  1  0  0  0  0
  4  6  1  0  0  0  0
  4 12  1  0  0  0  0
  5  8  1  0  0  0  0
  5  9  1  0  0  0  0
  5 10  2  0  0  0  0
  6  7  1  0  0  0  0
  6  9  2  0  0  0  0
  7 11  2  0  0  0  0
  8 13  1  0  0  0  0
  8 14  1  0  0  0  0
  8 15  1  0  0  0  0
 10 11  1  0  0  0  0
M  END
> <PUBCHEM_COMPOUND_ID_TYPE>
0

> <PUBCHEM_TOTAL_CHARGE>
0

> <PUBCHEM_SUBSTANCE_ID>
310929637

> <PUBCHEM_SUBSTANCE_VERSION>
1

> <PUBCHEM_EXT_DATASOURCE_NAME>
4488

> <PUBCHEM_EXT_DATASOURCE_REGID>
SCHEMBL16106825

> <PUBCHEM_SUBSTANCE_COMMENT>
InChI=1S/C12H17NO3/c1-12(2,3)8-5-6-10(16-4)9(7-8)13-11(14)15/h5-7,13H,1-4H3,(H,14,15)
InChIKey=HQWVKGZGZXEOFN-UHFFFAOYSA-N

> <PUBCHEM_SUBSTANCE_SYNONYM>
SCHEMBL16106825

> <PUBCHEM_XREF_EXT_ID>
SCHEMBL16106825

> <PUBCHEM_EXT_DATASOURCE_URL>
https://www.surechembl.org/

> <PUBCHEM_EXT_SUBSTANCE_URL>
https://www.surechembl.org/chemical/SCHEMBL16106825

> <PUBCHEM_CID_ASSOCIATIONS>
115170612  1

> <PUBCHEM_COORDINATE_TYPE>
1
3

$$$$
