310941379
  -OEChem-07211613022D

 37 39  0     1  0  0  0  0  0999 V2000
   -0.3600    1.5115    0.0000 S   0  0  0  0  0  0  0  0  0  0  0  0
   -0.7650    2.2316    0.0000 O   0  0  0  0  0  0  0  0  0  0  0  0
    0.0600    2.2316    0.0000 O   0  0  0  0  0  0  0  0  0  0  0  0
    2.5350    2.3515    0.0000 O   0  0  0  0  0  0  0  0  0  0  0  0
    3.9750   -0.1385    0.0000 O   0  0  0  0  0  0  0  0  0  0  0  0
   -3.2400    1.5115    0.0000 O   0  0  0  0  0  0  0  0  0  0  0  0
   -2.6669   -1.9275    0.0000 O   0  0  0  0  0  0  0  0  0  0  0  0
   -4.6800    1.5115    0.0000 O   0  0  0  0  0  0  0  0  0  0  0  0
   -3.1620   -2.7415    0.0000 O   0  0  0  0  0  0  0  0  0  0  0  0
    0.3750    1.1216    0.0000 N   0  0  3  0  0  0  0  0  0  0  0  0
   -4.6800   -0.1235    0.0000 N   0  0  0  0  0  0  0  0  0  0  0  0
   -1.0650    1.1065    0.0000 C   0  0  0  0  0  0  0  0  0  0  0  0
   -1.0800    0.2966    0.0000 C   0  0  0  0  0  0  0  0  0  0  0  0
    0.3750    0.2815    0.0000 C   0  0  0  0  0  0  0  0  0  0  0  0
   -1.7850    1.5115    0.0000 C   0  0  0  0  0  0  0  0  0  0  0  0
   -0.3300   -0.1235    0.0000 C   0  0  0  0  0  0  0  0  0  0  0  0
   -1.7700   -0.1235    0.0000 C   0  0  0  0  0  0  0  0  0  0  0  0
    1.0800    1.5265    0.0000 C   0  0  0  0  0  0  0  0  0  0  0  0
   -2.5200    0.2815    0.0000 C   0  0  0  0  0  0  0  0  0  0  0  0
    1.8300    1.1065    0.0000 C   0  0  0  0  0  0  0  0  0  0  0  0
   -2.5050    1.1065    0.0000 C   0  0  0  0  0  0  0  0  0  0  0  0
    2.5350    1.5265    0.0000 C   0  0  0  0  0  0  0  0  0  0  0  0
   -3.2250   -0.1235    0.0000 C   0  0  0  0  0  0  0  0  0  0  0  0
    1.8300    0.2815    0.0000 C   0  0  0  0  0  0  0  0  0  0  0  0
   -3.9600    0.2815    0.0000 C   0  0  3  0  0  0  0  0  0  0  0  0
    3.2550    1.1065    0.0000 C   0  0  0  0  0  0  0  0  0  0  0  0
    3.2550    0.2966    0.0000 C   0  0  0  0  0  0  0  0  0  0  0  0
    2.5500   -0.1235    0.0000 C   0  0  0  0  0  0  0  0  0  0  0  0
   -3.9300    1.1065    0.0000 C   0  0  0  0  0  0  0  0  0  0  0  0
   -3.1620   -2.2135    0.0000 C   0  0  0  0  0  0  0  0  0  0  0  0
   -2.6559   -1.3775    0.0000 C   0  0  0  0  0  0  0  0  0  0  0  0
    3.2400    2.7415    0.0000 C   0  0  0  0  0  0  0  0  0  0  0  0
    4.6800    0.2365    0.0000 C   0  0  0  0  0  0  0  0  0  0  0  0
   -3.2400    2.3066    0.0000 C   0  0  0  0  0  0  0  0  0  0  0  0
   -2.1609   -1.3555    0.0000 C   0  0  0  0  0  0  0  0  0  0  0  0
   -3.1620   -1.3775    0.0000 C   0  0  0  0  0  0  0  0  0  0  0  0
   -2.6669   -0.8385    0.0000 C   0  0  0  0  0  0  0  0  0  0  0  0
  1  2  2  0  0  0  0
  1  3  2  0  0  0  0
  1 10  1  0  0  0  0
  1 12  1  0  0  0  0
  4 22  1  0  0  0  0
  4 32  1  0  0  0  0
  5 27  1  0  0  0  0
  5 33  1  0  0  0  0
  6 29  1  0  0  0  0
  6 34  1  0  0  0  0
  7 30  1  0  0  0  0
  7 31  1  0  0  0  0
  8 29  2  0  0  0  0
  9 30  2  0  0  0  0
 10 14  1  0  0  0  0
 10 18  1  0  0  0  0
 25 11  1  6  0  0  0
 11 30  1  0  0  0  0
 12 13  1  0  0  0  0
 12 15  2  0  0  0  0
 13 16  1  0  0  0  0
 13 17  2  0  0  0  0
 14 16  1  0  0  0  0
 15 21  1  0  0  0  0
 17 19  1  0  0  0  0
 18 20  1  0  0  0  0
 19 21  2  0  0  0  0
 19 23  1  0  0  0  0
 20 22  1  0  0  0  0
 20 24  2  0  0  0  0
 22 26  2  0  0  0  0
 23 25  1  0  0  0  0
 24 28  1  0  0  0  0
 25 29  1  0  0  0  0
 26 27  1  0  0  0  0
 27 28  2  0  0  0  0
 31 35  1  0  0  0  0
 31 36  1  0  0  0  0
 31 37  1  0  0  0  0
M  END
> <PUBCHEM_COMPOUND_ID_TYPE>
0

> <PUBCHEM_TOTAL_CHARGE>
0

> <PUBCHEM_SUBSTANCE_ID>
310941379

> <PUBCHEM_SUBSTANCE_VERSION>
1

> <PUBCHEM_EXT_DATASOURCE_NAME>
4488

> <PUBCHEM_EXT_DATASOURCE_REGID>
SCHEMBL16119339

> <PUBCHEM_SUBSTANCE_COMMENT>
InChI=1S/C26H34N2O8S/c1-26(2,3)36-25(30)27-21(24(29)35-6)14-17-7-10-23-18(13-17)11-12-28(37(23,31)32)16-19-8-9-20(33-4)15-22(19)34-5/h7-10,13,15,21H,11-12,14,16H2,1-6H3,(H,27,30)/t21-/m0/s1
InChIKey=OLYGZSDVFQJFBJ-NRFANRHFSA-N

> <PUBCHEM_SUBSTANCE_SYNONYM>
SCHEMBL16119339

> <PUBCHEM_XREF_EXT_ID>
SCHEMBL16119339

> <PUBCHEM_EXT_DATASOURCE_URL>
https://www.surechembl.org/

> <PUBCHEM_EXT_SUBSTANCE_URL>
https://www.surechembl.org/chemical/SCHEMBL16119339

> <PUBCHEM_CID_ASSOCIATIONS>
117608219  1

> <PUBCHEM_COORDINATE_TYPE>
1
3

> <PUBCHEM_BONDANNOTATIONS>
25  11  6

$$$$
