310940668
  -OEChem-07211613022D

 41 46  0     1  0  0  0  0  0999 V2000
   -0.4935   -3.4619    0.0000 F   0  0  0  0  0  0  0  0  0  0  0  0
   -2.2171    3.8302    0.0000 F   0  0  0  0  0  0  0  0  0  0  0  0
   -1.3922    3.9628    0.0000 F   0  0  0  0  0  0  0  0  0  0  0  0
   -1.9372   -0.9870    0.0000 O   0  0  0  0  0  0  0  0  0  0  0  0
    1.4952   -3.2557    0.0000 O   0  0  0  0  0  0  0  0  0  0  0  0
    2.7327   -3.9628    0.0000 O   0  0  0  0  0  0  0  0  0  0  0  0
    1.0091   -1.1343    0.0000 N   0  0  0  0  0  0  0  0  0  0  0  0
    1.0091   -2.4749    0.0000 N   0  0  0  0  0  0  0  0  0  0  0  0
   -1.0828    1.9887    0.0000 N   0  0  3  0  0  0  0  0  0  0  0  0
   -2.7474    1.0902    0.0000 N   0  0  0  0  0  0  0  0  0  0  0  0
   -3.5577    1.2669    0.0000 N   0  0  0  0  0  0  0  0  0  0  0  0
    0.2136   -1.3848    0.0000 C   0  0  0  0  0  0  0  0  0  0  0  0
    1.4658   -1.7972    0.0000 C   0  0  0  0  0  0  0  0  0  0  0  0
    0.2136   -2.2098    0.0000 C   0  0  0  0  0  0  0  0  0  0  0  0
    2.3349   -1.8120    0.0000 C   0  0  3  0  0  0  0  0  0  0  0  0
   -0.5082   -2.6222    0.0000 C   0  0  0  0  0  0  0  0  0  0  0  0
   -0.4935   -0.9870    0.0000 C   0  0  0  0  0  0  0  0  0  0  0  0
    1.2596   -0.3535    0.0000 C   0  0  0  0  0  0  0  0  0  0  0  0
   -1.2154   -1.3848    0.0000 C   0  0  0  0  0  0  0  0  0  0  0  0
    2.7474   -2.4896    0.0000 C   0  0  3  0  0  0  0  0  0  0  0  0
   -1.2154   -2.2245    0.0000 C   0  0  0  0  0  0  0  0  0  0  0  0
    0.6555    0.2505    0.0000 C   0  0  0  0  0  0  0  0  0  0  0  0
    2.7474   -1.0902    0.0000 C   0  0  0  0  0  0  0  0  0  0  0  0
    2.3349   -3.2557    0.0000 C   0  0  0  0  0  0  0  0  0  0  0  0
    3.5724   -2.5191    0.0000 C   0  0  0  0  0  0  0  0  0  0  0  0
   -0.4935    1.4143    0.0000 C   0  0  0  0  0  0  0  0  0  0  0  0
   -0.1105    0.0294    0.0000 C   0  0  0  0  0  0  0  0  0  0  0  0
    0.8765    1.0459    0.0000 C   0  0  0  0  0  0  0  0  0  0  0  0
    3.5724   -1.0902    0.0000 C   0  0  0  0  0  0  0  0  0  0  0  0
    3.9702   -1.8267    0.0000 C   0  0  0  0  0  0  0  0  0  0  0  0
   -0.6997    0.6040    0.0000 C   0  0  0  0  0  0  0  0  0  0  0  0
    0.3167    1.6057    0.0000 C   0  0  0  0  0  0  0  0  0  0  0  0
   -1.7015    3.1968    0.0000 C   0  0  0  0  0  0  0  0  0  0  0  0
   -0.9649    2.8137    0.0000 C   0  0  0  0  0  0  0  0  0  0  0  0
   -1.8930    1.8709    0.0000 C   0  0  0  0  0  0  0  0  0  0  0  0
   -1.9519   -0.1473    0.0000 C   0  0  0  0  0  0  0  0  0  0  0  0
   -2.2760    2.5928    0.0000 C   0  0  0  0  0  0  0  0  0  0  0  0
   -2.6590    0.2652    0.0000 C   0  0  0  0  0  0  0  0  0  0  0  0
   -3.4103   -0.0589    0.0000 C   0  0  0  0  0  0  0  0  0  0  0  0
   -3.9702    0.5450    0.0000 C   0  0  0  0  0  0  0  0  0  0  0  0
   -3.8818    2.0330    0.0000 C   0  0  0  0  0  0  0  0  0  0  0  0
  1 16  1  0  0  0  0
  2 33  1  0  0  0  0
  3 33  1  0  0  0  0
  4 19  1  0  0  0  0
  4 36  1  0  0  0  0
  5 24  2  0  0  0  0
  6 24  1  0  0  0  0
  7 12  1  0  0  0  0
  7 13  1  0  0  0  0
  7 18  1  0  0  0  0
  8 13  2  0  0  0  0
  8 14  1  0  0  0  0
  9 26  1  0  0  0  0
  9 34  1  0  0  0  0
  9 35  1  0  0  0  0
 10 11  1  0  0  0  0
 10 38  2  0  0  0  0
 11 40  1  0  0  0  0
 11 41  1  0  0  0  0
 12 14  2  0  0  0  0
 12 17  1  0  0  0  0
 15 13  1  1  0  0  0
 14 16  1  0  0  0  0
 15 20  1  0  0  0  0
 15 23  1  0  0  0  0
 16 21  2  0  0  0  0
 17 19  2  0  0  0  0
 18 22  1  0  0  0  0
 19 21  1  0  0  0  0
 20 24  1  1  0  0  0
 20 25  1  0  0  0  0
 22 27  2  0  0  0  0
 22 28  1  0  0  0  0
 23 29  1  0  0  0  0
 25 30  1  0  0  0  0
 26 31  2  0  0  0  0
 26 32  1  0  0  0  0
 27 31  1  0  0  0  0
 28 32  2  0  0  0  0
 29 30  1  0  0  0  0
 33 34  1  0  0  0  0
 33 37  1  0  0  0  0
 35 37  1  0  0  0  0
 36 38  1  0  0  0  0
 38 39  1  0  0  0  0
 39 40  2  0  0  0  0
M  END
> <PUBCHEM_COMPOUND_ID_TYPE>
0

> <PUBCHEM_TOTAL_CHARGE>
0

> <PUBCHEM_SUBSTANCE_ID>
310940668

> <PUBCHEM_SUBSTANCE_VERSION>
1

> <PUBCHEM_EXT_DATASOURCE_NAME>
4488

> <PUBCHEM_EXT_DATASOURCE_REGID>
SCHEMBL16118623

> <PUBCHEM_SUBSTANCE_COMMENT>
InChI=1S/C30H32F3N5O3/c1-36-12-10-20(35-36)17-41-22-14-25(31)27-26(15-22)38(28(34-27)23-4-2-3-5-24(23)29(39)40)16-19-6-8-21(9-7-19)37-13-11-30(32,33)18-37/h6-10,12,14-15,23-24H,2-5,11,13,16-18H2,1H3,(H,39,40)/t23-,24+/m0/s1
InChIKey=AENITQBHDLSPHS-BJKOFHAPSA-N

> <PUBCHEM_SUBSTANCE_SYNONYM>
SCHEMBL16118623

> <PUBCHEM_XREF_EXT_ID>
SCHEMBL16118623

> <PUBCHEM_EXT_DATASOURCE_URL>
https://www.surechembl.org/

> <PUBCHEM_EXT_SUBSTANCE_URL>
https://www.surechembl.org/chemical/SCHEMBL16118623

> <PUBCHEM_CID_ASSOCIATIONS>
117607645  1

> <PUBCHEM_COORDINATE_TYPE>
1
3

> <PUBCHEM_BONDANNOTATIONS>
15  13  5
20  24  5

$$$$
