310935622
  -OEChem-07211613022D

 49 55  0     0  0  0  0  0  0999 V2000
    1.0396    1.4521    0.0000 S   0  0  0  0  0  0  0  0  0  0  0  0
    1.8242    1.1971    0.0000 O   0  0  0  0  0  0  0  0  0  0  0  0
    0.2549    1.7070    0.0000 O   0  0  0  0  0  0  0  0  0  0  0  0
   -5.0013    1.6500    0.0000 O   0  0  0  0  0  0  0  0  0  0  0  0
   -4.2868    2.8875    0.0000 O   0  0  0  0  0  0  0  0  0  0  0  0
    0.7846    0.6674    0.0000 N   0  0  0  0  0  0  0  0  0  0  0  0
   -0.7144    0.8250    0.0000 N   0  0  0  0  0  0  0  0  0  0  0  0
   -1.4290   -0.4125    0.0000 N   0  0  0  0  0  0  0  0  0  0  0  0
    0.6131   -3.4395    0.0000 N   0  0  0  0  0  0  0  0  0  0  0  0
   -3.5724    1.6500    0.0000 N   0  0  0  0  0  0  0  0  0  0  0  0
   -1.6783   -5.3035    0.0000 N   0  0  0  0  0  0  0  0  0  0  0  0
    0.0000    0.4125    0.0000 C   0  0  0  0  0  0  0  0  0  0  0  0
    0.0000   -0.4125    0.0000 C   0  0  0  0  0  0  0  0  0  0  0  0
   -0.7144   -0.8250    0.0000 C   0  0  0  0  0  0  0  0  0  0  0  0
   -0.7144   -1.6500    0.0000 C   0  0  0  0  0  0  0  0  0  0  0  0
   -1.4290    0.4125    0.0000 C   0  0  0  0  0  0  0  0  0  0  0  0
    0.7846   -0.6674    0.0000 C   0  0  0  0  0  0  0  0  0  0  0  0
    1.2696    0.0000    0.0000 C   0  0  0  0  0  0  0  0  0  0  0  0
    0.0000   -2.8875    0.0000 C   0  0  0  0  0  0  0  0  0  0  0  0
   -0.7144   -3.3000    0.0000 C   0  0  0  0  0  0  0  0  0  0  0  0
    1.2945    2.2367    0.0000 C   0  0  0  0  0  0  0  0  0  0  0  0
    0.0000   -2.0625    0.0000 C   0  0  0  0  0  0  0  0  0  0  0  0
   -2.1434    0.8250    0.0000 C   0  0  0  0  0  0  0  0  0  0  0  0
   -1.4290   -2.0625    0.0000 C   0  0  0  0  0  0  0  0  0  0  0  0
   -0.5430   -4.1070    0.0000 C   0  0  0  0  0  0  0  0  0  0  0  0
   -1.4290   -2.8875    0.0000 C   0  0  0  0  0  0  0  0  0  0  0  0
    0.2776   -4.1932    0.0000 C   0  0  0  0  0  0  0  0  0  0  0  0
    2.1015    2.4082    0.0000 C   0  0  0  0  0  0  0  0  0  0  0  0
    0.7424    2.8498    0.0000 C   0  0  0  0  0  0  0  0  0  0  0  0
    1.4201   -3.2680    0.0000 C   0  0  0  0  0  0  0  0  0  0  0  0
   -2.1434    1.6500    0.0000 C   0  0  0  0  0  0  0  0  0  0  0  0
   -2.8579    0.4125    0.0000 C   0  0  0  0  0  0  0  0  0  0  0  0
   -1.0950   -4.7201    0.0000 C   0  0  0  0  0  0  0  0  0  0  0  0
    1.9721   -3.8811    0.0000 C   0  0  0  0  0  0  0  0  0  0  0  0
   -2.8579    2.0625    0.0000 C   0  0  0  0  0  0  0  0  0  0  0  0
   -3.5724    0.8250    0.0000 C   0  0  0  0  0  0  0  0  0  0  0  0
    2.3564    3.1928    0.0000 C   0  0  0  0  0  0  0  0  0  0  0  0
    0.9974    3.6344    0.0000 C   0  0  0  0  0  0  0  0  0  0  0  0
    1.8044    3.8059    0.0000 C   0  0  0  0  0  0  0  0  0  0  0  0
   -4.2868    2.0625    0.0000 C   0  0  0  0  0  0  0  0  0  0  0  0
    1.7172   -4.6657    0.0000 C   0  0  0  0  0  0  0  0  0  0  0  0
    2.7791   -3.7096    0.0000 C   0  0  0  0  0  0  0  0  0  0  0  0
   -5.7158    2.0625    0.0000 C   0  0  0  0  0  0  0  0  0  0  0  0
    2.2692   -5.2788    0.0000 C   0  0  0  0  0  0  0  0  0  0  0  0
    3.3311   -4.3226    0.0000 C   0  0  0  0  0  0  0  0  0  0  0  0
    3.0762   -5.1073    0.0000 C   0  0  0  0  0  0  0  0  0  0  0  0
   -6.4302    2.4750    0.0000 C   0  0  0  0  0  0  0  0  0  0  0  0
   -5.7158    2.8875    0.0000 C   0  0  0  0  0  0  0  0  0  0  0  0
   -6.4302    1.6500    0.0000 C   0  0  0  0  0  0  0  0  0  0  0  0
  1  2  2  0  0  0  0
  1  3  2  0  0  0  0
  1  6  1  0  0  0  0
  1 21  1  0  0  0  0
  4 40  1  0  0  0  0
  4 43  1  0  0  0  0
  5 40  2  0  0  0  0
  6 12  1  0  0  0  0
  6 18  1  0  0  0  0
  7 12  2  0  0  0  0
  7 16  1  0  0  0  0
  8 14  1  0  0  0  0
  8 16  2  0  0  0  0
  9 19  1  0  0  0  0
  9 27  1  0  0  0  0
  9 30  1  0  0  0  0
 10 35  1  0  0  0  0
 10 36  1  0  0  0  0
 10 40  1  0  0  0  0
 11 33  3  0  0  0  0
 12 13  1  0  0  0  0
 13 14  2  0  0  0  0
 13 17  1  0  0  0  0
 14 15  1  0  0  0  0
 15 22  2  0  0  0  0
 15 24  1  0  0  0  0
 16 23  1  0  0  0  0
 17 18  2  0  0  0  0
 19 20  2  0  0  0  0
 19 22  1  0  0  0  0
 20 25  1  0  0  0  0
 20 26  1  0  0  0  0
 21 28  2  0  0  0  0
 21 29  1  0  0  0  0
 23 31  2  0  0  0  0
 23 32  1  0  0  0  0
 24 26  2  0  0  0  0
 25 27  2  0  0  0  0
 25 33  1  0  0  0  0
 28 37  1  0  0  0  0
 29 38  2  0  0  0  0
 30 34  1  0  0  0  0
 31 35  1  0  0  0  0
 32 36  1  0  0  0  0
 34 41  2  0  0  0  0
 34 42  1  0  0  0  0
 37 39  2  0  0  0  0
 38 39  1  0  0  0  0
 41 44  1  0  0  0  0
 42 45  2  0  0  0  0
 43 47  1  0  0  0  0
 43 48  1  0  0  0  0
 43 49  1  0  0  0  0
 44 46  2  0  0  0  0
 45 46  1  0  0  0  0
M  END
> <PUBCHEM_COMPOUND_ID_TYPE>
0

> <PUBCHEM_TOTAL_CHARGE>
0

> <PUBCHEM_SUBSTANCE_ID>
310935622

> <PUBCHEM_SUBSTANCE_VERSION>
1

> <PUBCHEM_EXT_DATASOURCE_NAME>
4488

> <PUBCHEM_EXT_DATASOURCE_REGID>
SCHEMBL16113199

> <PUBCHEM_SUBSTANCE_COMMENT>
InChI=1S/C38H34N6O4S/c1-38(2,3)48-37(45)42-19-16-27(17-20-42)35-40-34(32-18-21-44(36(32)41-35)49(46,47)30-12-8-5-9-13-30)28-14-15-31-29(23-39)25-43(33(31)22-28)24-26-10-6-4-7-11-26/h4-16,18,21-22,25H,17,19-20,24H2,1-3H3
InChIKey=CRDVXOATXRSHOK-UHFFFAOYSA-N

> <PUBCHEM_SUBSTANCE_SYNONYM>
SCHEMBL16113199

> <PUBCHEM_XREF_EXT_ID>
SCHEMBL16113199

> <PUBCHEM_EXT_DATASOURCE_URL>
https://www.surechembl.org/

> <PUBCHEM_EXT_SUBSTANCE_URL>
https://www.surechembl.org/chemical/SCHEMBL16113199

> <PUBCHEM_CID_ASSOCIATIONS>
117603639  1

> <PUBCHEM_COORDINATE_TYPE>
1
3

$$$$
