310931123
  -OEChem-07211613022D

 25 28  0     0  0  0  0  0  0999 V2000
    0.0000    0.8772    0.0000 S   0  0  0  0  0  0  0  0  0  0  0  0
   -1.1945   -2.4574    0.0000 O   0  0  0  0  0  0  0  0  0  0  0  0
   -4.7866   -3.1147    0.0000 O   0  0  0  0  0  0  0  0  0  0  0  0
   -5.8485   -2.1586    0.0000 O   0  0  0  0  0  0  0  0  0  0  0  0
   -1.4744    0.5638    0.0000 N   0  0  0  0  0  0  0  0  0  0  0  0
   -0.4125   -0.3923    0.0000 C   0  0  0  0  0  0  0  0  0  0  0  0
   -0.9645   -1.0054    0.0000 C   0  0  0  0  0  0  0  0  0  0  0  0
    0.4125   -0.3923    0.0000 C   0  0  0  0  0  0  0  0  0  0  0  0
   -0.6674    0.3923    0.0000 C   0  0  0  0  0  0  0  0  0  0  0  0
    0.6674    0.3923    0.0000 C   0  0  0  0  0  0  0  0  0  0  0  0
   -1.7715   -0.8339    0.0000 C   0  0  0  0  0  0  0  0  0  0  0  0
   -0.7096   -1.7900    0.0000 C   0  0  0  0  0  0  0  0  0  0  0  0
   -2.0264   -0.0493    0.0000 C   0  0  0  0  0  0  0  0  0  0  0  0
    1.0799   -0.8772    0.0000 C   0  0  0  0  0  0  0  0  0  0  0  0
    1.4924    0.3923    0.0000 C   0  0  0  0  0  0  0  0  0  0  0  0
    1.7474   -0.3923    0.0000 C   0  0  0  0  0  0  0  0  0  0  0  0
   -2.3236   -1.4470    0.0000 C   0  0  0  0  0  0  0  0  0  0  0  0
    0.0750   -2.0449    0.0000 C   0  0  0  0  0  0  0  0  0  0  0  0
   -2.8334    0.1223    0.0000 C   0  0  0  0  0  0  0  0  0  0  0  0
   -0.7096   -3.1249    0.0000 C   0  0  0  0  0  0  0  0  0  0  0  0
    0.0750   -2.8699    0.0000 C   0  0  0  0  0  0  0  0  0  0  0  0
   -3.1305   -1.2755    0.0000 C   0  0  0  0  0  0  0  0  0  0  0  0
   -3.6826   -1.8885    0.0000 C   0  0  0  0  0  0  0  0  0  0  0  0
   -4.4895   -1.7170    0.0000 C   0  0  0  0  0  0  0  0  0  0  0  0
   -5.0416   -2.3301    0.0000 C   0  0  0  0  0  0  0  0  0  0  0  0
  1  9  1  0  0  0  0
  1 10  1  0  0  0  0
  2 12  1  0  0  0  0
  2 20  1  0  0  0  0
  3 25  2  0  0  0  0
  4 25  1  0  0  0  0
  5  9  2  0  0  0  0
  5 13  1  0  0  0  0
  6  7  2  0  0  0  0
  6  8  1  0  0  0  0
  6  9  1  0  0  0  0
  7 11  1  0  0  0  0
  7 12  1  0  0  0  0
  8 10  2  0  0  0  0
  8 14  1  0  0  0  0
 10 15  1  0  0  0  0
 11 13  2  0  0  0  0
 11 17  1  0  0  0  0
 12 18  2  0  0  0  0
 13 19  1  0  0  0  0
 14 16  1  0  0  0  0
 15 16  1  0  0  0  0
 17 22  1  0  0  0  0
 18 21  1  0  0  0  0
 20 21  2  0  0  0  0
 22 23  1  0  0  0  0
 23 24  1  0  0  0  0
 24 25  1  0  0  0  0
M  END
> <PUBCHEM_COMPOUND_ID_TYPE>
0

> <PUBCHEM_TOTAL_CHARGE>
0

> <PUBCHEM_SUBSTANCE_ID>
310931123

> <PUBCHEM_SUBSTANCE_VERSION>
1

> <PUBCHEM_EXT_DATASOURCE_NAME>
4488

> <PUBCHEM_EXT_DATASOURCE_REGID>
SCHEMBL16108427

> <PUBCHEM_SUBSTANCE_COMMENT>
InChI=1S/C20H21NO3S/c1-12-13(6-2-3-10-17(22)23)18(15-8-5-11-24-15)19-14-7-4-9-16(14)25-20(19)21-12/h5,8,11H,2-4,6-7,9-10H2,1H3,(H,22,23)
InChIKey=OBLSHGADOCOZEG-UHFFFAOYSA-N

> <PUBCHEM_SUBSTANCE_SYNONYM>
SCHEMBL16108427

> <PUBCHEM_XREF_EXT_ID>
SCHEMBL16108427

> <PUBCHEM_EXT_DATASOURCE_URL>
https://www.surechembl.org/

> <PUBCHEM_EXT_SUBSTANCE_URL>
https://www.surechembl.org/chemical/SCHEMBL16108427

> <PUBCHEM_CID_ASSOCIATIONS>
117600007  1

> <PUBCHEM_COORDINATE_TYPE>
1
3

$$$$
