310944015
  -OEChem-07211613022D

 26 29  0     0  0  0  0  0  0999 V2000
    0.5149    2.7325    0.0000 F   0  0  0  0  0  0  0  0  0  0  0  0
    2.7119    2.3068    0.0000 N   0  0  0  0  0  0  0  0  0  0  0  0
   -1.6821    2.2519    0.0000 N   0  0  0  0  0  0  0  0  0  0  0  0
   -0.2266   -0.9612    0.0000 C   0  0  0  0  0  0  0  0  0  0  0  0
   -1.0092   -2.0185    0.0000 C   0  0  0  0  0  0  0  0  0  0  0  0
   -0.2266   -1.7575    0.0000 C   0  0  0  0  0  0  0  0  0  0  0  0
   -1.0505   -0.7003    0.0000 C   0  0  0  0  0  0  0  0  0  0  0  0
   -1.5173   -1.3456    0.0000 C   0  0  0  0  0  0  0  0  0  0  0  0
    0.5012   -0.5493    0.0000 C   0  0  0  0  0  0  0  0  0  0  0  0
    0.5286    0.2883    0.0000 C   0  0  0  0  0  0  0  0  0  0  0  0
    0.5286   -2.1558    0.0000 C   0  0  0  0  0  0  0  0  0  0  0  0
   -1.3937    0.0412    0.0000 C   0  0  0  0  0  0  0  0  0  0  0  0
   -2.3686   -1.2770    0.0000 C   0  0  0  0  0  0  0  0  0  0  0  0
    1.2427   -0.9475    0.0000 C   0  0  0  0  0  0  0  0  0  0  0  0
   -1.8331   -2.2519    0.0000 C   0  0  0  0  0  0  0  0  0  0  0  0
   -0.5836   -2.7325    0.0000 C   0  0  0  0  0  0  0  0  0  0  0  0
    1.2289   -1.7714    0.0000 C   0  0  0  0  0  0  0  0  0  0  0  0
    1.2289    0.7140    0.0000 C   0  0  0  0  0  0  0  0  0  0  0  0
   -0.2129    0.7003    0.0000 C   0  0  0  0  0  0  0  0  0  0  0  0
    1.2427    1.5379    0.0000 C   0  0  0  0  0  0  0  0  0  0  0  0
   -0.2266    1.5241    0.0000 C   0  0  0  0  0  0  0  0  0  0  0  0
    0.5149    1.9224    0.0000 C   0  0  0  0  0  0  0  0  0  0  0  0
   -2.2313    0.1099    0.0000 C   0  0  0  0  0  0  0  0  0  0  0  0
   -2.7119   -0.5493    0.0000 C   0  0  0  0  0  0  0  0  0  0  0  0
    1.9841    1.9361    0.0000 C   0  0  0  0  0  0  0  0  0  0  0  0
   -0.9543    1.9087    0.0000 C   0  0  0  0  0  0  0  0  0  0  0  0
  1 22  1  0  0  0  0
  2 25  3  0  0  0  0
  3 26  3  0  0  0  0
  4  6  1  0  0  0  0
  4  7  1  0  0  0  0
  4  9  2  0  0  0  0
  5  6  1  0  0  0  0
  5  8  1  0  0  0  0
  5 15  1  0  0  0  0
  5 16  1  0  0  0  0
  6 11  2  0  0  0  0
  7  8  2  0  0  0  0
  7 12  1  0  0  0  0
  8 13  1  0  0  0  0
  9 10  1  0  0  0  0
  9 14  1  0  0  0  0
 10 18  2  0  0  0  0
 10 19  1  0  0  0  0
 11 17  1  0  0  0  0
 12 23  2  0  0  0  0
 13 24  2  0  0  0  0
 14 17  2  0  0  0  0
 18 20  1  0  0  0  0
 19 21  2  0  0  0  0
 20 22  2  0  0  0  0
 20 25  1  0  0  0  0
 21 22  1  0  0  0  0
 21 26  1  0  0  0  0
 23 24  1  0  0  0  0
M  END
> <PUBCHEM_COMPOUND_ID_TYPE>
0

> <PUBCHEM_TOTAL_CHARGE>
0

> <PUBCHEM_SUBSTANCE_ID>
310944015

> <PUBCHEM_SUBSTANCE_VERSION>
1

> <PUBCHEM_EXT_DATASOURCE_NAME>
4488

> <PUBCHEM_EXT_DATASOURCE_REGID>
SCHEMBL16122086

> <PUBCHEM_SUBSTANCE_COMMENT>
InChI=1S/C23H15FN2/c1-23(2)19-8-4-3-6-18(19)21-17(7-5-9-20(21)23)14-10-15(12-25)22(24)16(11-14)13-26/h3-11H,1-2H3
InChIKey=GIPFSCPUCURYJI-UHFFFAOYSA-N

> <PUBCHEM_SUBSTANCE_SYNONYM>
SCHEMBL16122086

> <PUBCHEM_XREF_EXT_ID>
SCHEMBL16122086

> <PUBCHEM_EXT_DATASOURCE_URL>
https://www.surechembl.org/

> <PUBCHEM_EXT_SUBSTANCE_URL>
https://www.surechembl.org/chemical/SCHEMBL16122086

> <PUBCHEM_CID_ASSOCIATIONS>
117610319  1

> <PUBCHEM_COORDINATE_TYPE>
1
3

$$$$
