310931043
  -OEChem-07211613022D

 15 15  0     0  0  0  0  0  0999 V2000
    0.0000    0.0000    0.0000 S   0  0  0  0  0  0  0  0  0  0  0  0
    4.0904   -3.6851    0.0000 F   0  0  0  0  0  0  0  0  0  0  0  0
    4.8090   -2.4506    0.0000 F   0  0  0  0  0  0  0  0  0  0  0  0
    3.3902   -3.2797    0.0000 F   0  0  0  0  0  0  0  0  0  0  0  0
    1.2345   -0.7186    0.0000 N   0  0  0  0  0  0  0  0  0  0  0  0
    0.0000   -1.4187    0.0000 N   0  0  0  0  0  0  0  0  0  0  0  0
    3.6851   -2.1558    0.0000 C   0  0  0  0  0  0  0  0  0  0  0  0
    4.0904   -2.8743    0.0000 C   0  0  0  0  0  0  0  0  0  0  0  0
    2.8559   -2.1373    0.0000 C   0  0  0  0  0  0  0  0  0  0  0  0
    2.4506   -1.4372    0.0000 C   0  0  0  0  0  0  0  0  0  0  0  0
    4.0904   -1.4372    0.0000 C   0  0  0  0  0  0  0  0  0  0  0  0
    2.8743   -0.7186    0.0000 C   0  0  0  0  0  0  0  0  0  0  0  0
    3.6851   -0.7186    0.0000 C   0  0  0  0  0  0  0  0  0  0  0  0
    1.6399   -1.4372    0.0000 C   0  0  0  0  0  0  0  0  0  0  0  0
    0.4054   -0.7186    0.0000 C   0  0  0  0  0  0  0  0  0  0  0  0
  1 15  2  0  0  0  0
  2  8  1  0  0  0  0
  3  8  1  0  0  0  0
  4  8  1  0  0  0  0
  5 14  1  0  0  0  0
  5 15  1  0  0  0  0
  6 15  1  0  0  0  0
  7  8  1  0  0  0  0
  7  9  1  0  0  0  0
  7 11  2  0  0  0  0
  9 10  2  0  0  0  0
 10 12  1  0  0  0  0
 10 14  1  0  0  0  0
 11 13  1  0  0  0  0
 12 13  2  0  0  0  0
M  END
> <PUBCHEM_COMPOUND_ID_TYPE>
0

> <PUBCHEM_TOTAL_CHARGE>
0

> <PUBCHEM_SUBSTANCE_ID>
310931043

> <PUBCHEM_SUBSTANCE_VERSION>
1

> <PUBCHEM_EXT_DATASOURCE_NAME>
4488

> <PUBCHEM_EXT_DATASOURCE_REGID>
SCHEMBL16108345

> <PUBCHEM_SUBSTANCE_COMMENT>
InChI=1S/C9H9F3N2S/c10-9(11,12)7-3-1-2-6(4-7)5-14-8(13)15/h1-4H,5H2,(H3,13,14,15)
InChIKey=PMHXDYLJMNAAPX-UHFFFAOYSA-N

> <PUBCHEM_SUBSTANCE_SYNONYM>
SCHEMBL16108345

> <PUBCHEM_XREF_EXT_ID>
SCHEMBL16108345

> <PUBCHEM_EXT_DATASOURCE_URL>
https://www.surechembl.org/

> <PUBCHEM_EXT_SUBSTANCE_URL>
https://www.surechembl.org/chemical/SCHEMBL16108345

> <PUBCHEM_CID_ASSOCIATIONS>
23079420  1

> <PUBCHEM_COORDINATE_TYPE>
1
3

$$$$
