310940161
  -OEChem-07211613022D

 37 42  0     1  0  0  0  0  0999 V2000
   -0.6199   -4.0294    0.0000 S   0  0  0  0  0  0  0  0  0  0  0  0
    1.8932    4.8335    0.0000 F   0  0  0  0  0  0  0  0  0  0  0  0
   -1.3403   -4.4482    0.0000 O   0  0  0  0  0  0  0  0  0  0  0  0
   -0.4021   -4.8335    0.0000 O   0  0  0  0  0  0  0  0  0  0  0  0
   -2.8649    0.4774    0.0000 O   0  0  0  0  0  0  0  0  0  0  0  0
   -0.0838    0.3267    0.0000 N   0  0  0  0  0  0  0  0  0  0  0  0
   -0.4188   -0.4272    0.0000 N   0  0  0  0  0  0  0  0  0  0  0  0
   -1.8095   -0.9467    0.0000 N   0  0  0  0  0  0  0  0  0  0  0  0
    0.2010   -3.8618    0.0000 N   0  0  3  0  0  0  0  0  0  0  0  0
   -2.1446    1.7172    0.0000 N   0  0  0  0  0  0  0  0  0  0  0  0
    1.3738    2.9069    0.0000 N   0  0  0  0  0  0  0  0  0  0  0  0
    2.8649    0.2261    0.0000 N   0  0  0  0  0  0  0  0  0  0  0  0
    0.7037    0.5277    0.0000 C   0  0  0  0  0  0  0  0  0  0  0  0
   -0.7037    0.8964    0.0000 C   0  0  0  0  0  0  0  0  0  0  0  0
   -1.4073    0.4942    0.0000 C   0  0  0  0  0  0  0  0  0  0  0  0
   -1.2566   -0.2931    0.0000 C   0  0  0  0  0  0  0  0  0  0  0  0
   -1.0388   -3.3089    0.0000 C   0  0  0  0  0  0  0  0  0  0  0  0
   -0.4858   -2.6890    0.0000 C   0  0  0  0  0  0  0  0  0  0  0  0
   -2.1278    0.9299    0.0000 C   0  0  0  0  0  0  0  0  0  0  0  0
    0.1507    1.0974    0.0000 C   0  0  0  0  0  0  0  0  0  0  0  0
    1.5246    0.7456    0.0000 C   0  0  0  0  0  0  0  0  0  0  0  0
   -1.5581   -1.7172    0.0000 C   0  0  0  0  0  0  0  0  0  0  0  0
   -0.7037    1.7341    0.0000 C   0  0  0  0  0  0  0  0  0  0  0  0
    1.2733   -0.0922    0.0000 C   0  0  0  0  0  0  0  0  0  0  0  0
   -0.7372   -1.9183    0.0000 C   0  0  0  0  0  0  0  0  0  0  0  0
    0.2848   -3.0409    0.0000 C   0  0  0  0  0  0  0  0  0  0  0  0
    1.1560    2.1026    0.0000 C   0  0  0  0  0  0  0  0  0  0  0  0
   -1.8430   -3.1247    0.0000 C   0  0  0  0  0  0  0  0  0  0  0  0
    0.3685    1.9017    0.0000 C   0  0  0  0  0  0  0  0  0  0  0  0
    1.7257    1.5329    0.0000 C   0  0  0  0  0  0  0  0  0  0  0  0
   -2.0943   -2.3707    0.0000 C   0  0  0  0  0  0  0  0  0  0  0  0
   -1.4408    2.1361    0.0000 C   0  0  0  0  0  0  0  0  0  0  0  0
    2.0775    0.0754    0.0000 C   0  0  0  0  0  0  0  0  0  0  0  0
    0.8377   -4.4315    0.0000 C   0  0  0  0  0  0  0  0  0  0  0  0
    2.0775    3.3424    0.0000 C   0  0  0  0  0  0  0  0  0  0  0  0
    0.9718    3.6272    0.0000 C   0  0  0  0  0  0  0  0  0  0  0  0
    1.6586    4.0461    0.0000 C   0  0  0  0  0  0  0  0  0  0  0  0
  1  3  2  0  0  0  0
  1  4  2  0  0  0  0
  1  9  1  0  0  0  0
  1 17  1  0  0  0  0
  2 37  1  0  0  0  0
  5 19  2  0  0  0  0
  6  7  1  0  0  0  0
  6 13  1  0  0  0  0
  6 14  1  0  0  0  0
  7 16  2  0  0  0  0
  8 16  1  0  0  0  0
  8 22  1  0  0  0  0
  9 26  1  0  0  0  0
  9 34  1  0  0  0  0
 10 19  1  0  0  0  0
 10 32  1  0  0  0  0
 27 11  1  1  0  0  0
 11 35  1  0  0  0  0
 11 36  1  0  0  0  0
 12 33  3  0  0  0  0
 13 20  1  0  0  0  0
 13 21  1  0  0  0  0
 13 24  1  6  0  0  0
 14 15  2  0  0  0  0
 14 23  1  0  0  0  0
 15 16  1  0  0  0  0
 15 19  1  0  0  0  0
 17 18  1  0  0  0  0
 17 28  2  0  0  0  0
 18 25  2  0  0  0  0
 18 26  1  0  0  0  0
 20 29  1  0  0  0  0
 21 30  1  0  0  0  0
 22 25  1  0  0  0  0
 22 31  2  0  0  0  0
 23 32  2  0  0  0  0
 24 33  1  0  0  0  0
 27 29  1  0  0  0  0
 27 30  1  0  0  0  0
 28 31  1  0  0  0  0
 35 37  1  0  0  0  0
 36 37  1  0  0  0  0
M  END
> <PUBCHEM_COMPOUND_ID_TYPE>
0

> <PUBCHEM_TOTAL_CHARGE>
0

> <PUBCHEM_SUBSTANCE_ID>
310940161

> <PUBCHEM_SUBSTANCE_VERSION>
1

> <PUBCHEM_EXT_DATASOURCE_NAME>
4488

> <PUBCHEM_EXT_DATASOURCE_REGID>
SCHEMBL16118094

> <PUBCHEM_SUBSTANCE_COMMENT>
InChI=1S/C25H28FN7O3S/c1-31-13-16-12-18(2-3-21(16)37(31,35)36)29-23-22-20(6-11-28-24(22)34)33(30-23)25(9-10-27)7-4-19(5-8-25)32-14-17(26)15-32/h2-3,6,11-12,17,19H,4-5,7-9,13-15H2,1H3,(H,28,34)(H,29,30)/t19-,25+
InChIKey=CQAQZMPRLYALAL-KJDSRRNHSA-N

> <PUBCHEM_SUBSTANCE_SYNONYM>
SCHEMBL16118094

> <PUBCHEM_XREF_EXT_ID>
SCHEMBL16118094

> <PUBCHEM_EXT_DATASOURCE_URL>
https://www.surechembl.org/

> <PUBCHEM_EXT_SUBSTANCE_URL>
https://www.surechembl.org/chemical/SCHEMBL16118094

> <PUBCHEM_CID_ASSOCIATIONS>
117607277  1

> <PUBCHEM_COORDINATE_TYPE>
1
3

> <PUBCHEM_BONDANNOTATIONS>
27  11  5
13  24  6

$$$$
