310941622
  -OEChem-07211613022D

 27 30  0     0  0  0  0  0  0999 V2000
   -2.9000   -1.6832    0.0000 Cl  0  0  0  0  0  0  0  0  0  0  0  0
    0.8744    1.7852    0.0000 S   0  0  0  0  0  0  0  0  0  0  0  0
   -1.4573   -0.8671    0.0000 O   0  0  0  0  0  0  0  0  0  0  0  0
   -0.0146   -0.8671    0.0000 O   0  0  0  0  0  0  0  0  0  0  0  0
    1.1513   -0.3570    0.0000 O   0  0  0  0  0  0  0  0  0  0  0  0
    0.7287    0.4590    0.0000 N   0  0  0  0  0  0  0  0  0  0  0  0
    2.1131    0.9983    0.0000 N   0  0  0  0  0  0  0  0  0  0  0  0
   -0.7287    0.3862    0.0000 C   0  0  0  0  0  0  0  0  0  0  0  0
   -0.0291    0.8088    0.0000 C   0  0  0  0  0  0  0  0  0  0  0  0
   -2.1860   -0.4299    0.0000 C   0  0  0  0  0  0  0  0  0  0  0  0
   -2.1714    0.3862    0.0000 C   0  0  0  0  0  0  0  0  0  0  0  0
   -0.7724   -0.4299    0.0000 C   0  0  0  0  0  0  0  0  0  0  0  0
   -1.4428    0.7942    0.0000 C   0  0  0  0  0  0  0  0  0  0  0  0
    1.2824    1.0857    0.0000 C   0  0  0  0  0  0  0  0  0  0  0  0
   -2.8855   -0.8525    0.0000 C   0  0  0  0  0  0  0  0  0  0  0  0
    0.0729    1.6250    0.0000 C   0  0  0  0  0  0  0  0  0  0  0  0
    2.4483    0.2404    0.0000 C   0  0  0  0  0  0  0  0  0  0  0  0
   -2.8855    0.7942    0.0000 C   0  0  0  0  0  0  0  0  0  0  0  0
    1.9674   -0.4445    0.0000 C   0  0  0  0  0  0  0  0  0  0  0  0
   -3.6141   -0.4445    0.0000 C   0  0  0  0  0  0  0  0  0  0  0  0
   -3.6141    0.3862    0.0000 C   0  0  0  0  0  0  0  0  0  0  0  0
    2.3026   -1.1877    0.0000 C   0  0  0  0  0  0  0  0  0  0  0  0
    3.2790    0.1385    0.0000 C   0  0  0  0  0  0  0  0  0  0  0  0
    3.1332   -1.2752    0.0000 C   0  0  0  0  0  0  0  0  0  0  0  0
    3.6141   -0.6048    0.0000 C   0  0  0  0  0  0  0  0  0  0  0  0
    1.7051   -1.7852    0.0000 C   0  0  0  0  0  0  0  0  0  0  0  0
    0.6558   -1.0274    0.0000 C   0  0  0  0  0  0  0  0  0  0  0  0
  1 15  1  0  0  0  0
  2 14  1  0  0  0  0
  2 16  1  0  0  0  0
  3 10  1  0  0  0  0
  3 12  1  0  0  0  0
  4 12  2  0  0  0  0
  5 19  1  0  0  0  0
  5 27  1  0  0  0  0
  6  9  1  0  0  0  0
  6 14  2  0  0  0  0
  7 14  1  0  0  0  0
  7 17  1  0  0  0  0
  8  9  1  0  0  0  0
  8 12  1  0  0  0  0
  8 13  2  0  0  0  0
  9 16  2  0  0  0  0
 10 11  1  0  0  0  0
 10 15  2  0  0  0  0
 11 13  1  0  0  0  0
 11 18  2  0  0  0  0
 15 20  1  0  0  0  0
 17 19  2  0  0  0  0
 17 23  1  0  0  0  0
 18 21  1  0  0  0  0
 19 22  1  0  0  0  0
 20 21  2  0  0  0  0
 22 24  2  0  0  0  0
 22 26  1  0  0  0  0
 23 25  2  0  0  0  0
 24 25  1  0  0  0  0
M  END
> <PUBCHEM_COMPOUND_ID_TYPE>
0

> <PUBCHEM_TOTAL_CHARGE>
0

> <PUBCHEM_SUBSTANCE_ID>
310941622

> <PUBCHEM_SUBSTANCE_VERSION>
1

> <PUBCHEM_EXT_DATASOURCE_NAME>
4488

> <PUBCHEM_EXT_DATASOURCE_REGID>
SCHEMBL16119653

> <PUBCHEM_SUBSTANCE_COMMENT>
InChI=1S/C20H15ClN2O3S/c1-11-5-3-8-15(17(11)25-2)22-20-23-16(10-27-20)13-9-12-6-4-7-14(21)18(12)26-19(13)24/h3-10H,1-2H3,(H,22,23)
InChIKey=NJSDEAUNYRISGB-UHFFFAOYSA-N

> <PUBCHEM_SUBSTANCE_SYNONYM>
SCHEMBL16119653

> <PUBCHEM_XREF_EXT_ID>
SCHEMBL16119653

> <PUBCHEM_EXT_DATASOURCE_URL>
https://www.surechembl.org/

> <PUBCHEM_EXT_SUBSTANCE_URL>
https://www.surechembl.org/chemical/SCHEMBL16119653

> <PUBCHEM_CID_ASSOCIATIONS>
117608411  1

> <PUBCHEM_COORDINATE_TYPE>
1
3

$$$$
