310932612
  -OEChem-07211613022D

 31 34  0     1  0  0  0  0  0999 V2000
    2.8239   -2.0941    0.0000 O   0  0  0  0  0  0  0  0  0  0  0  0
    0.1269   -2.3480    0.0000 O   0  0  0  0  0  0  0  0  0  0  0  0
    7.2978   -2.1893    0.0000 O   0  0  0  0  0  0  0  0  0  0  0  0
    7.2978   -6.3459    0.0000 O   0  0  0  0  0  0  0  0  0  0  0  0
    3.7124   -0.9519    0.0000 N   0  0  0  0  0  0  0  0  0  0  0  0
    3.6489   -0.1587    0.0000 N   0  0  0  0  0  0  0  0  0  0  0  0
    5.1402   -0.9519    0.0000 N   0  0  0  0  0  0  0  0  0  0  0  0
    0.0000   -0.9836    0.0000 N   0  0  0  0  0  0  0  0  0  0  0  0
    6.5997   -3.4268    0.0000 N   0  0  0  0  0  0  0  0  0  0  0  0
    2.4115   -0.6980    0.0000 C   0  0  0  0  0  0  0  0  0  0  0  0
    2.9826   -1.3009    0.0000 C   0  0  0  0  0  0  0  0  0  0  0  0
    4.4421   -1.3644    0.0000 C   0  0  0  0  0  0  0  0  0  0  0  0
    1.6182   -0.7932    0.0000 C   0  0  0  0  0  0  0  0  0  0  0  0
    2.8239    0.0000    0.0000 C   0  0  0  0  0  0  0  0  0  0  0  0
    4.4421   -2.1893    0.0000 C   0  0  0  0  0  0  0  0  0  0  0  0
    5.8700   -2.1893    0.0000 C   0  0  0  0  0  0  0  0  0  0  0  0
    1.3009   -1.5548    0.0000 C   0  0  0  0  0  0  0  0  0  0  0  0
    1.1423   -0.1587    0.0000 C   0  0  0  0  0  0  0  0  0  0  0  0
    5.8700   -1.3644    0.0000 C   0  0  0  0  0  0  0  0  0  0  0  0
    5.1402   -2.6019    0.0000 C   0  0  0  0  0  0  0  0  0  0  0  0
    0.4442   -1.6182    0.0000 C   0  0  0  0  0  0  0  0  0  0  0  0
    6.5997   -2.6019    0.0000 C   0  0  0  0  0  0  0  0  0  0  0  0
    0.3173   -0.1904    0.0000 C   0  0  0  0  0  0  0  0  0  0  0  0
    7.2978   -3.8393    0.0000 C   0  0  3  0  0  0  0  0  0  0  0  0
    7.2978   -4.6643    0.0000 C   0  0  0  0  0  0  0  0  0  0  0  0
    6.5997   -5.1085    0.0000 C   0  0  0  0  0  0  0  0  0  0  0  0
    7.9959   -5.1085    0.0000 C   0  0  0  0  0  0  0  0  0  0  0  0
    8.0276   -3.4268    0.0000 C   0  0  0  0  0  0  0  0  0  0  0  0
    6.5997   -5.9017    0.0000 C   0  0  0  0  0  0  0  0  0  0  0  0
    7.9959   -5.9017    0.0000 C   0  0  0  0  0  0  0  0  0  0  0  0
    0.6029   -3.0460    0.0000 C   0  0  0  0  0  0  0  0  0  0  0  0
  1 11  1  0  0  0  0
  2 21  1  0  0  0  0
  2 31  1  0  0  0  0
  3 22  2  0  0  0  0
  4 29  1  0  0  0  0
  4 30  1  0  0  0  0
  5  6  1  0  0  0  0
  5 11  1  0  0  0  0
  5 12  1  0  0  0  0
  6 14  2  0  0  0  0
  7 12  2  0  0  0  0
  7 19  1  0  0  0  0
  8 21  1  0  0  0  0
  8 23  2  0  0  0  0
  9 22  1  0  0  0  0
  9 24  1  0  0  0  0
 10 11  2  0  0  0  0
 10 13  1  0  0  0  0
 10 14  1  0  0  0  0
 12 15  1  0  0  0  0
 13 17  1  0  0  0  0
 13 18  2  0  0  0  0
 15 20  2  0  0  0  0
 16 19  2  0  0  0  0
 16 20  1  0  0  0  0
 16 22  1  0  0  0  0
 17 21  2  0  0  0  0
 18 23  1  0  0  0  0
 24 25  1  0  0  0  0
 24 28  1  1  0  0  0
 25 26  1  0  0  0  0
 25 27  1  0  0  0  0
 26 29  1  0  0  0  0
 27 30  1  0  0  0  0
M  END
> <PUBCHEM_COMPOUND_ID_TYPE>
0

> <PUBCHEM_TOTAL_CHARGE>
0

> <PUBCHEM_SUBSTANCE_ID>
310932612

> <PUBCHEM_SUBSTANCE_VERSION>
1

> <PUBCHEM_EXT_DATASOURCE_NAME>
4488

> <PUBCHEM_EXT_DATASOURCE_REGID>
SCHEMBL16109990

> <PUBCHEM_SUBSTANCE_COMMENT>
InChI=1S/C22H25N5O4/c1-14(15-6-9-31-10-7-15)26-21(28)17-3-4-19(24-12-17)27-22(29)18(13-25-27)16-5-8-23-20(11-16)30-2/h3-5,8,11-15,29H,6-7,9-10H2,1-2H3,(H,26,28)/t14-/m0/s1
InChIKey=NGUOUNLJHIVTIQ-AWEZNQCLSA-N

> <PUBCHEM_SUBSTANCE_SYNONYM>
SCHEMBL16109990

> <PUBCHEM_XREF_EXT_ID>
SCHEMBL16109990

> <PUBCHEM_EXT_DATASOURCE_URL>
https://www.surechembl.org/

> <PUBCHEM_EXT_SUBSTANCE_URL>
https://www.surechembl.org/chemical/SCHEMBL16109990

> <PUBCHEM_CID_ASSOCIATIONS>
117601133  1

> <PUBCHEM_COORDINATE_TYPE>
1
3

> <PUBCHEM_BONDANNOTATIONS>
24  28  5

$$$$
