310937725
  -OEChem-07211613022D

 18 20  0     0  0  0  0  0  0999 V2000
    2.2610   -1.9950    0.0000 O   0  0  0  0  0  0  0  0  0  0  0  0
    5.1338   -4.4954    0.0000 O   0  0  0  0  0  0  0  0  0  0  0  0
    2.2610   -4.4688    0.0000 N   0  0  0  0  0  0  0  0  0  0  0  0
    4.3890   -4.0698    0.0000 N   0  0  0  0  0  0  0  0  0  0  0  0
    3.6708   -5.3200    0.0000 N   0  0  0  0  0  0  0  0  0  0  0  0
    1.5428   -3.2452    0.0000 C   0  0  0  0  0  0  0  0  0  0  0  0
    2.2610   -2.8196    0.0000 C   0  0  0  0  0  0  0  0  0  0  0  0
    0.7980   -2.8196    0.0000 C   0  0  0  0  0  0  0  0  0  0  0  0
    2.9792   -4.0698    0.0000 C   0  0  0  0  0  0  0  0  0  0  0  0
    2.9792   -3.2452    0.0000 C   0  0  0  0  0  0  0  0  0  0  0  0
    1.5428   -4.0698    0.0000 C   0  0  0  0  0  0  0  0  0  0  0  0
    0.0000   -2.8196    0.0000 C   0  0  0  0  0  0  0  0  0  0  0  0
    0.3724   -2.1014    0.0000 C   0  0  0  0  0  0  0  0  0  0  0  0
    3.6708   -4.4954    0.0000 C   0  0  0  0  0  0  0  0  0  0  0  0
    1.5428   -0.7448    0.0000 C   0  0  0  0  0  0  0  0  0  0  0  0
    1.5428   -1.5694    0.0000 C   0  0  0  0  0  0  0  0  0  0  0  0
    1.1172   -0.0266    0.0000 C   0  0  0  0  0  0  0  0  0  0  0  0
    1.9418    0.0000    0.0000 C   0  0  0  0  0  0  0  0  0  0  0  0
  1  7  1  0  0  0  0
  1 16  1  0  0  0  0
  2  4  1  0  0  0  0
  3  9  1  0  0  0  0
  3 11  2  0  0  0  0
  4 14  2  0  0  0  0
  5 14  1  0  0  0  0
  6  7  2  0  0  0  0
  6  8  1  0  0  0  0
  6 11  1  0  0  0  0
  7 10  1  0  0  0  0
  8 12  1  0  0  0  0
  8 13  1  0  0  0  0
  9 10  2  0  0  0  0
  9 14  1  0  0  0  0
 12 13  1  0  0  0  0
 15 16  1  0  0  0  0
 15 17  1  0  0  0  0
 15 18  1  0  0  0  0
 17 18  1  0  0  0  0
M  END
> <PUBCHEM_COMPOUND_ID_TYPE>
0

> <PUBCHEM_TOTAL_CHARGE>
0

> <PUBCHEM_SUBSTANCE_ID>
310937725

> <PUBCHEM_SUBSTANCE_VERSION>
1

> <PUBCHEM_EXT_DATASOURCE_NAME>
4488

> <PUBCHEM_EXT_DATASOURCE_REGID>
SCHEMBL16115523

> <PUBCHEM_SUBSTANCE_COMMENT>
InChI=1S/C13H17N3O2/c14-13(16-17)11-5-12(18-7-8-1-2-8)10(6-15-11)9-3-4-9/h5-6,8-9,17H,1-4,7H2,(H2,14,16)
InChIKey=NNUFYKZKEJCOQE-UHFFFAOYSA-N

> <PUBCHEM_SUBSTANCE_SYNONYM>
SCHEMBL16115523

> <PUBCHEM_XREF_EXT_ID>
SCHEMBL16115523

> <PUBCHEM_EXT_DATASOURCE_URL>
https://www.surechembl.org/

> <PUBCHEM_EXT_SUBSTANCE_URL>
https://www.surechembl.org/chemical/SCHEMBL16115523

> <PUBCHEM_CID_ASSOCIATIONS>
117605398  1

> <PUBCHEM_COORDINATE_TYPE>
1
3

$$$$
