310930769
  -OEChem-07211613022D

 36 39  0     0  0  0  0  0  0999 V2000
    4.9821   -3.5724    0.0000 S   0  0  0  0  0  0  0  0  0  0  0  0
    3.7446   -4.2868    0.0000 F   0  0  0  0  0  0  0  0  0  0  0  0
    3.3321   -5.0013    0.0000 F   0  0  0  0  0  0  0  0  0  0  0  0
    3.7446   -5.7158    0.0000 F   0  0  0  0  0  0  0  0  0  0  0  0
    6.2196   -7.1447    0.0000 F   0  0  0  0  0  0  0  0  0  0  0  0
    7.0446   -7.1447    0.0000 F   0  0  0  0  0  0  0  0  0  0  0  0
    7.4571   -6.4302    0.0000 F   0  0  0  0  0  0  0  0  0  0  0  0
    4.2675   -3.9849    0.0000 O   0  0  0  0  0  0  0  0  0  0  0  0
    5.6965   -3.1599    0.0000 O   0  0  0  0  0  0  0  0  0  0  0  0
    0.7846    0.6674    0.0000 O   0  0  0  0  0  0  0  0  0  0  0  0
    2.5071    0.7145    0.0000 O   0  0  0  0  0  0  0  0  0  0  0  0
    2.5071   -0.7145    0.0000 N   0  0  0  0  0  0  0  0  0  0  0  0
   -1.4290    0.4125    0.0000 N   0  0  0  0  0  0  0  0  0  0  0  0
    5.3946   -4.2868    0.0000 C   0  0  0  0  0  0  0  0  0  0  0  0
    4.9821   -5.0013    0.0000 C   0  0  0  0  0  0  0  0  0  0  0  0
    4.1571   -5.0013    0.0000 C   0  0  0  0  0  0  0  0  0  0  0  0
    4.5696   -2.8579    0.0000 C   0  0  0  0  0  0  0  0  0  0  0  0
    6.2196   -5.7158    0.0000 C   0  0  0  0  0  0  0  0  0  0  0  0
    5.3946   -5.7158    0.0000 C   0  0  0  0  0  0  0  0  0  0  0  0
    6.2196   -4.2868    0.0000 C   0  0  0  0  0  0  0  0  0  0  0  0
    6.6321   -5.0013    0.0000 C   0  0  0  0  0  0  0  0  0  0  0  0
    6.6321   -6.4302    0.0000 C   0  0  0  0  0  0  0  0  0  0  0  0
    3.7446   -2.8579    0.0000 C   0  0  0  0  0  0  0  0  0  0  0  0
    4.9821   -2.1434    0.0000 C   0  0  0  0  0  0  0  0  0  0  0  0
    3.7446   -1.4290    0.0000 C   0  0  0  0  0  0  0  0  0  0  0  0
    3.3321   -2.1434    0.0000 C   0  0  0  0  0  0  0  0  0  0  0  0
    4.5696   -1.4290    0.0000 C   0  0  0  0  0  0  0  0  0  0  0  0
    1.2696    0.0000    0.0000 C   0  0  0  0  0  0  0  0  0  0  0  0
    0.0000    0.4125    0.0000 C   0  0  0  0  0  0  0  0  0  0  0  0
    0.0000   -0.4125    0.0000 C   0  0  0  0  0  0  0  0  0  0  0  0
    0.7846   -0.6674    0.0000 C   0  0  0  0  0  0  0  0  0  0  0  0
    2.0946    0.0000    0.0000 C   0  0  0  0  0  0  0  0  0  0  0  0
    3.3321   -0.7145    0.0000 C   0  0  0  0  0  0  0  0  0  0  0  0
   -0.7145    0.8250    0.0000 C   0  0  0  0  0  0  0  0  0  0  0  0
   -0.7145   -0.8250    0.0000 C   0  0  0  0  0  0  0  0  0  0  0  0
   -1.4290   -0.4125    0.0000 C   0  0  0  0  0  0  0  0  0  0  0  0
  1  8  2  0  0  0  0
  1  9  2  0  0  0  0
  1 14  1  0  0  0  0
  1 17  1  0  0  0  0
  2 16  1  0  0  0  0
  3 16  1  0  0  0  0
  4 16  1  0  0  0  0
  5 22  1  0  0  0  0
  6 22  1  0  0  0  0
  7 22  1  0  0  0  0
 10 28  1  0  0  0  0
 10 29  1  0  0  0  0
 11 32  2  0  0  0  0
 12 32  1  0  0  0  0
 12 33  1  0  0  0  0
 13 34  2  0  0  0  0
 13 36  1  0  0  0  0
 14 15  1  0  0  0  0
 14 20  2  0  0  0  0
 15 16  1  0  0  0  0
 15 19  2  0  0  0  0
 17 23  2  0  0  0  0
 17 24  1  0  0  0  0
 18 19  1  0  0  0  0
 18 21  2  0  0  0  0
 18 22  1  0  0  0  0
 20 21  1  0  0  0  0
 23 26  1  0  0  0  0
 24 27  2  0  0  0  0
 25 26  2  0  0  0  0
 25 27  1  0  0  0  0
 25 33  1  0  0  0  0
 28 31  2  0  0  0  0
 28 32  1  0  0  0  0
 29 30  2  0  0  0  0
 29 34  1  0  0  0  0
 30 31  1  0  0  0  0
 30 35  1  0  0  0  0
 35 36  2  0  0  0  0
M  END
> <PUBCHEM_COMPOUND_ID_TYPE>
0

> <PUBCHEM_TOTAL_CHARGE>
0

> <PUBCHEM_SUBSTANCE_ID>
310930769

> <PUBCHEM_SUBSTANCE_VERSION>
1

> <PUBCHEM_EXT_DATASOURCE_NAME>
4488

> <PUBCHEM_EXT_DATASOURCE_REGID>
SCHEMBL16108066

> <PUBCHEM_SUBSTANCE_COMMENT>
InChI=1S/C23H14F6N2O4S/c24-22(25,26)15-3-6-20(17(10-15)23(27,28)29)36(33,34)16-4-1-13(2-5-16)11-31-21(32)18-9-14-7-8-30-12-19(14)35-18/h1-10,12H,11H2,(H,31,32)
InChIKey=ANQFCKMWJOLADX-UHFFFAOYSA-N

> <PUBCHEM_SUBSTANCE_SYNONYM>
SCHEMBL16108066

> <PUBCHEM_XREF_EXT_ID>
SCHEMBL16108066

> <PUBCHEM_EXT_DATASOURCE_URL>
https://www.surechembl.org/

> <PUBCHEM_EXT_SUBSTANCE_URL>
https://www.surechembl.org/chemical/SCHEMBL16108066

> <PUBCHEM_CID_ASSOCIATIONS>
56943126  1

> <PUBCHEM_COORDINATE_TYPE>
1
3

$$$$
