310944112
  -OEChem-07211613022D

 34 38  0     1  0  0  0  0  0999 V2000
    2.4696   -0.0495    0.0000 O   0  0  0  0  0  0  0  0  0  0  0  0
    4.9888   -1.6226    0.0000 O   0  0  0  0  0  0  0  0  0  0  0  0
    5.4618   -0.2365    0.0000 O   0  0  0  0  0  0  0  0  0  0  0  0
   -1.3146    1.2816    0.0000 O   0  0  0  0  0  0  0  0  0  0  0  0
   -1.3146   -1.1936    0.0000 O   0  0  0  0  0  0  0  0  0  0  0  0
    2.8547   -1.4796    0.0000 N   0  0  0  0  0  0  0  0  0  0  0  0
    0.1155   -0.3685    0.0000 N   0  0  0  0  0  0  0  0  0  0  0  0
   -2.7336    1.2816    0.0000 N   0  0  0  0  0  0  0  0  0  0  0  0
   -4.1637    1.2816    0.0000 N   0  0  0  0  0  0  0  0  0  0  0  0
   -4.2407    2.0956    0.0000 N   0  0  0  0  0  0  0  0  0  0  0  0
   -5.0548    2.2606    0.0000 N   0  0  0  0  0  0  0  0  0  0  0  0
   -5.4618    1.5566    0.0000 N   0  0  0  0  0  0  0  0  0  0  0  0
    1.5456   -1.1825    0.0000 C   0  0  0  0  0  0  0  0  0  0  0  0
    2.2826   -0.8745    0.0000 C   0  0  0  0  0  0  0  0  0  0  0  0
    3.6797   -1.3806    0.0000 C   0  0  0  0  0  0  0  0  0  0  0  0
    1.5456   -2.0076    0.0000 C   0  0  0  0  0  0  0  0  0  0  0  0
    2.3376   -2.2606    0.0000 C   0  0  0  0  0  0  0  0  0  0  0  0
    0.8526   -1.5896    0.0000 C   0  0  0  0  0  0  0  0  0  0  0  0
    1.5456   -0.3685    0.0000 C   0  0  0  0  0  0  0  0  0  0  0  0
    4.0647   -0.6435    0.0000 C   0  0  0  0  0  0  0  0  0  0  0  0
    4.2518   -1.9746    0.0000 C   0  0  0  0  0  0  0  0  0  0  0  0
    0.1155   -1.1825    0.0000 C   0  0  0  0  0  0  0  0  0  0  0  0
    0.8196    0.0495    0.0000 C   0  0  0  0  0  0  0  0  0  0  0  0
    4.8568   -0.8085    0.0000 C   0  0  0  0  0  0  0  0  0  0  0  0
   -2.0296    0.0495    0.0000 C   0  0  0  0  0  0  0  0  0  0  0  0
   -1.3036   -0.3575    0.0000 C   0  0  3  0  0  0  0  0  0  0  0  0
   -0.5995    0.0495    0.0000 C   0  0  0  0  0  0  0  0  0  0  0  0
   -2.0186    0.8745    0.0000 C   0  0  0  0  0  0  0  0  0  0  0  0
   -3.4487    0.8745    0.0000 C   0  0  0  0  0  0  0  0  0  0  0  0
   -2.7336   -0.3575    0.0000 C   0  0  0  0  0  0  0  0  0  0  0  0
    3.7127    0.1045    0.0000 C   0  0  0  0  0  0  0  0  0  0  0  0
   -3.4487    0.0495    0.0000 C   0  0  0  0  0  0  0  0  0  0  0  0
   -4.9118    0.9515    0.0000 C   0  0  0  0  0  0  0  0  0  0  0  0
   -0.5886    0.8526    0.0000 C   0  0  0  0  0  0  0  0  0  0  0  0
  1 14  2  0  0  0  0
  2 21  1  0  0  0  0
  2 24  1  0  0  0  0
  3 24  2  0  0  0  0
  4 28  1  0  0  0  0
  4 34  1  0  0  0  0
 26  5  1  6  0  0  0
  6 14  1  0  0  0  0
  6 15  1  0  0  0  0
  6 17  1  0  0  0  0
  7 22  1  0  0  0  0
  7 23  1  0  0  0  0
  7 27  1  0  0  0  0
  8 28  2  0  0  0  0
  8 29  1  0  0  0  0
  9 10  1  0  0  0  0
  9 29  1  0  0  0  0
  9 33  1  0  0  0  0
 10 11  2  0  0  0  0
 11 12  1  0  0  0  0
 12 33  2  0  0  0  0
 13 14  1  0  0  0  0
 13 16  1  0  0  0  0
 13 18  1  0  0  0  0
 13 19  1  0  0  0  0
 15 20  2  0  0  0  0
 15 21  1  0  0  0  0
 16 17  1  0  0  0  0
 18 22  1  0  0  0  0
 19 23  1  0  0  0  0
 20 24  1  0  0  0  0
 20 31  1  0  0  0  0
 25 26  1  0  0  0  0
 25 28  1  0  0  0  0
 25 30  2  0  0  0  0
 26 27  1  0  0  0  0
 29 32  2  0  0  0  0
 30 32  1  0  0  0  0
M  END
> <PUBCHEM_COMPOUND_ID_TYPE>
0

> <PUBCHEM_TOTAL_CHARGE>
0

> <PUBCHEM_SUBSTANCE_ID>
310944112

> <PUBCHEM_SUBSTANCE_VERSION>
1

> <PUBCHEM_EXT_DATASOURCE_NAME>
4488

> <PUBCHEM_EXT_DATASOURCE_REGID>
SCHEMBL16122187

> <PUBCHEM_SUBSTANCE_COMMENT>
InChI=1S/C22H27N7O5/c1-14-16(12-34-20(14)31)28-10-7-22(21(28)32)5-8-27(9-6-22)11-17(30)15-3-4-18(24-19(15)33-2)29-13-23-25-26-29/h3-4,13,17,30H,5-12H2,1-2H3/t17-/m0/s1
InChIKey=GKPPWISWQQWJMP-KRWDZBQOSA-N

> <PUBCHEM_SUBSTANCE_SYNONYM>
SCHEMBL16122187

> <PUBCHEM_XREF_EXT_ID>
SCHEMBL16122187

> <PUBCHEM_EXT_DATASOURCE_URL>
https://www.surechembl.org/

> <PUBCHEM_EXT_SUBSTANCE_URL>
https://www.surechembl.org/chemical/SCHEMBL16122187

> <PUBCHEM_CID_ASSOCIATIONS>
117610395  1

> <PUBCHEM_COORDINATE_TYPE>
1
3

> <PUBCHEM_BONDANNOTATIONS>
26  5  6

$$$$
