310944174
  -OEChem-07211613022D

 33 37  0     1  0  0  0  0  0999 V2000
    2.7196    0.8035    0.0000 O   0  0  0  0  0  0  0  0  0  0  0  0
    5.8213    0.6350    0.0000 O   0  0  0  0  0  0  0  0  0  0  0  0
    5.6526    2.0734    0.0000 O   0  0  0  0  0  0  0  0  0  0  0  0
   -0.4720   -1.9049    0.0000 O   0  0  0  0  0  0  0  0  0  0  0  0
    3.7759   -0.2641    0.0000 N   0  0  0  0  0  0  0  0  0  0  0  0
    0.7979   -0.4889    0.0000 N   0  0  0  0  0  0  0  0  0  0  0  0
   -4.3266   -0.6012    0.0000 N   0  0  0  0  0  0  0  0  0  0  0  0
   -3.0792   -0.0506    0.0000 N   0  0  0  0  0  0  0  0  0  0  0  0
   -2.2700   -0.1405    0.0000 N   0  0  0  0  0  0  0  0  0  0  0  0
   -4.7761    0.2416    0.0000 N   0  0  0  0  0  0  0  0  0  0  0  0
   -5.7088    0.0731    0.0000 N   0  0  0  0  0  0  0  0  0  0  0  0
   -5.8213   -0.8709    0.0000 N   0  0  0  0  0  0  0  0  0  0  0  0
    2.4723   -0.6574    0.0000 C   0  0  0  0  0  0  0  0  0  0  0  0
    2.9781   -0.0057    0.0000 C   0  0  0  0  0  0  0  0  0  0  0  0
    4.5514    0.2978    0.0000 C   0  0  0  0  0  0  0  0  0  0  0  0
    2.9556   -1.3429    0.0000 C   0  0  0  0  0  0  0  0  0  0  0  0
    3.7759   -1.1069    0.0000 C   0  0  0  0  0  0  0  0  0  0  0  0
    1.9666   -1.3429    0.0000 C   0  0  0  0  0  0  0  0  0  0  0  0
    2.1352    0.0956    0.0000 C   0  0  0  0  0  0  0  0  0  0  0  0
    4.5963    1.1069    0.0000 C   0  0  0  0  0  0  0  0  0  0  0  0
    5.3155    0.0169    0.0000 C   0  0  0  0  0  0  0  0  0  0  0  0
    5.3605    1.3092    0.0000 C   0  0  0  0  0  0  0  0  0  0  0  0
    1.1351   -1.2418    0.0000 C   0  0  0  0  0  0  0  0  0  0  0  0
    1.3036    0.1855    0.0000 C   0  0  0  0  0  0  0  0  0  0  0  0
   -3.5512   -0.6911    0.0000 C   0  0  0  0  0  0  0  0  0  0  0  0
   -1.9441   -0.8597    0.0000 C   0  0  0  0  0  0  0  0  0  0  0  0
   -0.3034   -0.3540    0.0000 C   0  0  0  0  0  0  0  0  0  0  0  0
   -0.8878   -0.9833    0.0000 C   0  0  3  0  0  0  0  0  0  0  0  0
   -3.2365   -1.4103    0.0000 C   0  0  0  0  0  0  0  0  0  0  0  0
   -2.4273   -1.5002    0.0000 C   0  0  0  0  0  0  0  0  0  0  0  0
    3.9445    1.6126    0.0000 C   0  0  0  0  0  0  0  0  0  0  0  0
   -4.9334   -1.2755    0.0000 C   0  0  0  0  0  0  0  0  0  0  0  0
   -3.6972   -2.0734    0.0000 C   0  0  0  0  0  0  0  0  0  0  0  0
  1 14  2  0  0  0  0
  2 21  1  0  0  0  0
  2 22  1  0  0  0  0
  3 22  2  0  0  0  0
 28  4  1  6  0  0  0
  5 14  1  0  0  0  0
  5 15  1  0  0  0  0
  5 17  1  0  0  0  0
  6 23  1  0  0  0  0
  6 24  1  0  0  0  0
  6 27  1  0  0  0  0
  7 10  1  0  0  0  0
  7 25  1  0  0  0  0
  7 32  1  0  0  0  0
  8  9  1  0  0  0  0
  8 25  2  0  0  0  0
  9 26  2  0  0  0  0
 10 11  2  0  0  0  0
 11 12  1  0  0  0  0
 12 32  2  0  0  0  0
 13 14  1  0  0  0  0
 13 16  1  0  0  0  0
 13 18  1  0  0  0  0
 13 19  1  0  0  0  0
 15 20  2  0  0  0  0
 15 21  1  0  0  0  0
 16 17  1  0  0  0  0
 18 23  1  0  0  0  0
 19 24  1  0  0  0  0
 20 22  1  0  0  0  0
 20 31  1  0  0  0  0
 25 29  1  0  0  0  0
 26 28  1  0  0  0  0
 26 30  1  0  0  0  0
 27 28  1  0  0  0  0
 29 30  2  0  0  0  0
 29 33  1  0  0  0  0
M  END
> <PUBCHEM_COMPOUND_ID_TYPE>
0

> <PUBCHEM_TOTAL_CHARGE>
0

> <PUBCHEM_SUBSTANCE_ID>
310944174

> <PUBCHEM_SUBSTANCE_VERSION>
1

> <PUBCHEM_EXT_DATASOURCE_NAME>
4488

> <PUBCHEM_EXT_DATASOURCE_REGID>
SCHEMBL16122249

> <PUBCHEM_SUBSTANCE_COMMENT>
InChI=1S/C21H26N8O4/c1-13-9-15(23-24-18(13)29-12-22-25-26-29)17(30)10-27-6-3-21(4-7-27)5-8-28(20(21)32)16-11-33-19(31)14(16)2/h9,12,17,30H,3-8,10-11H2,1-2H3/t17-/m0/s1
InChIKey=OSEWTFOFMFUEAA-KRWDZBQOSA-N

> <PUBCHEM_SUBSTANCE_SYNONYM>
SCHEMBL16122249

> <PUBCHEM_XREF_EXT_ID>
SCHEMBL16122249

> <PUBCHEM_EXT_DATASOURCE_URL>
https://www.surechembl.org/

> <PUBCHEM_EXT_SUBSTANCE_URL>
https://www.surechembl.org/chemical/SCHEMBL16122249

> <PUBCHEM_CID_ASSOCIATIONS>
117610449  1

> <PUBCHEM_COORDINATE_TYPE>
1
3

> <PUBCHEM_BONDANNOTATIONS>
28  4  6

$$$$
