310944868
  -OEChem-07211613022D

 34 38  0     0  0  0  0  0  0999 V2000
    3.9354   -2.3542    0.0000 O   0  0  0  0  0  0  0  0  0  0  0  0
    4.6733   -1.1244    0.0000 O   0  0  0  0  0  0  0  0  0  0  0  0
   -4.6733   -1.8096    0.0000 N   0  0  0  0  0  0  0  0  0  0  0  0
   -4.2516   -2.5124    0.0000 N   0  0  0  0  0  0  0  0  0  0  0  0
   -0.4392    0.0703    0.0000 C   0  0  0  0  0  0  0  0  0  0  0  0
   -0.4216    0.8960    0.0000 C   0  0  0  0  0  0  0  0  0  0  0  0
   -1.1420   -0.3338    0.0000 C   0  0  0  0  0  0  0  0  0  0  0  0
   -1.1771    1.3177    0.0000 C   0  0  0  0  0  0  0  0  0  0  0  0
    0.3162   -0.3338    0.0000 C   0  0  0  0  0  0  0  0  0  0  0  0
    0.2987    1.3001    0.0000 C   0  0  0  0  0  0  0  0  0  0  0  0
   -1.8623    0.0527    0.0000 C   0  0  0  0  0  0  0  0  0  0  0  0
   -1.1596   -1.1420    0.0000 C   0  0  0  0  0  0  0  0  0  0  0  0
   -1.9677    1.1068    0.0000 C   0  0  0  0  0  0  0  0  0  0  0  0
   -1.3703    2.0731    0.0000 C   0  0  0  0  0  0  0  0  0  0  0  0
   -2.6002   -1.1420    0.0000 C   0  0  0  0  0  0  0  0  0  0  0  0
    0.3162   -1.1596    0.0000 C   0  0  0  0  0  0  0  0  0  0  0  0
    1.0365    0.0527    0.0000 C   0  0  0  0  0  0  0  0  0  0  0  0
   -2.5826   -0.3338    0.0000 C   0  0  0  0  0  0  0  0  0  0  0  0
   -1.8799   -1.5461    0.0000 C   0  0  0  0  0  0  0  0  0  0  0  0
    1.0365    0.8960    0.0000 C   0  0  0  0  0  0  0  0  0  0  0  0
    0.3338    2.1082    0.0000 C   0  0  0  0  0  0  0  0  0  0  0  0
   -2.1610    1.8623    0.0000 C   0  0  0  0  0  0  0  0  0  0  0  0
   -3.3380   -1.5461    0.0000 C   0  0  0  0  0  0  0  0  0  0  0  0
    1.7568   -1.1420    0.0000 C   0  0  0  0  0  0  0  0  0  0  0  0
    1.0365   -1.5461    0.0000 C   0  0  0  0  0  0  0  0  0  0  0  0
    1.7568   -0.3514    0.0000 C   0  0  0  0  0  0  0  0  0  0  0  0
    1.7568    1.3001    0.0000 C   0  0  0  0  0  0  0  0  0  0  0  0
    1.0190    2.5124    0.0000 C   0  0  0  0  0  0  0  0  0  0  0  0
   -4.1111   -1.2298    0.0000 C   0  0  0  0  0  0  0  0  0  0  0  0
   -3.4259   -2.3718    0.0000 C   0  0  0  0  0  0  0  0  0  0  0  0
    1.7568    2.0907    0.0000 C   0  0  0  0  0  0  0  0  0  0  0  0
    2.5124   -1.5461    0.0000 C   0  0  0  0  0  0  0  0  0  0  0  0
    3.1975   -1.1596    0.0000 C   0  0  0  0  0  0  0  0  0  0  0  0
    3.9354   -1.5285    0.0000 C   0  0  0  0  0  0  0  0  0  0  0  0
  1 34  2  0  0  0  0
  2 34  1  0  0  0  0
  3  4  1  0  0  0  0
  3 29  2  0  0  0  0
  4 30  1  0  0  0  0
  5  6  2  0  0  0  0
  5  7  1  0  0  0  0
  5  9  1  0  0  0  0
  6  8  1  0  0  0  0
  6 10  1  0  0  0  0
  7 11  2  0  0  0  0
  7 12  1  0  0  0  0
  8 13  1  0  0  0  0
  8 14  1  0  0  0  0
  9 16  2  0  0  0  0
  9 17  1  0  0  0  0
 10 20  2  0  0  0  0
 10 21  1  0  0  0  0
 11 18  1  0  0  0  0
 12 19  2  0  0  0  0
 13 22  1  0  0  0  0
 14 22  1  0  0  0  0
 15 18  2  0  0  0  0
 15 19  1  0  0  0  0
 15 23  1  0  0  0  0
 16 25  1  0  0  0  0
 17 26  2  0  0  0  0
 20 27  1  0  0  0  0
 21 28  2  0  0  0  0
 23 29  1  0  0  0  0
 23 30  2  0  0  0  0
 24 25  2  0  0  0  0
 24 26  1  0  0  0  0
 24 32  1  0  0  0  0
 27 31  2  0  0  0  0
 28 31  1  0  0  0  0
 32 33  2  0  0  0  0
 33 34  1  0  0  0  0
M  END
> <PUBCHEM_COMPOUND_ID_TYPE>
0

> <PUBCHEM_TOTAL_CHARGE>
0

> <PUBCHEM_SUBSTANCE_ID>
310944868

> <PUBCHEM_SUBSTANCE_VERSION>
1

> <PUBCHEM_EXT_DATASOURCE_NAME>
4488

> <PUBCHEM_EXT_DATASOURCE_REGID>
SCHEMBL16122950

> <PUBCHEM_SUBSTANCE_COMMENT>
InChI=1S/C30H26N2O2/c33-28(34)18-11-21-9-12-25(13-10-21)30(26-16-14-22(15-17-26)27-19-31-32-20-27)29(24-7-4-8-24)23-5-2-1-3-6-23/h1-3,5-6,9-20,24H,4,7-8H2,(H,31,32)(H,33,34)/b18-11+,30-29-
InChIKey=XNLMDOSANHWAGK-GLDINAPMSA-N

> <PUBCHEM_SUBSTANCE_SYNONYM>
SCHEMBL16122950

> <PUBCHEM_XREF_EXT_ID>
SCHEMBL16122950

> <PUBCHEM_EXT_DATASOURCE_URL>
https://www.surechembl.org/

> <PUBCHEM_EXT_SUBSTANCE_URL>
https://www.surechembl.org/chemical/SCHEMBL16122950

> <PUBCHEM_CID_ASSOCIATIONS>
78425809  1

> <PUBCHEM_COORDINATE_TYPE>
1
3

$$$$
