310932474
  -OEChem-07211613022D

 33 36  0     0  0  0  0  0  0999 V2000
   11.2854   -2.7837    0.0000 F   0  0  0  0  0  0  0  0  0  0  0  0
   10.5706   -2.3699    0.0000 F   0  0  0  0  0  0  0  0  0  0  0  0
    3.9875   -2.7085    0.0000 O   0  0  0  0  0  0  0  0  0  0  0  0
    8.4264   -2.7837    0.0000 O   0  0  0  0  0  0  0  0  0  0  0  0
    4.8903   -1.5799    0.0000 N   0  0  0  0  0  0  0  0  0  0  0  0
    4.8151   -0.7523    0.0000 N   0  0  0  0  0  0  0  0  0  0  0  0
    6.3198   -1.5799    0.0000 N   0  0  0  0  0  0  0  0  0  0  0  0
    7.7116   -4.0251    0.0000 N   0  0  0  0  0  0  0  0  0  0  0  0
    0.0000   -2.4075    0.0000 N   0  0  0  0  0  0  0  0  0  0  0  0
    3.5737   -1.3166    0.0000 C   0  0  0  0  0  0  0  0  0  0  0  0
    4.1380   -1.9185    0.0000 C   0  0  0  0  0  0  0  0  0  0  0  0
    2.7837   -1.3919    0.0000 C   0  0  0  0  0  0  0  0  0  0  0  0
    5.6051   -1.9937    0.0000 C   0  0  0  0  0  0  0  0  0  0  0  0
    3.9875   -0.6019    0.0000 C   0  0  0  0  0  0  0  0  0  0  0  0
    2.2947   -0.7523    0.0000 C   0  0  0  0  0  0  0  0  0  0  0  0
    2.4451   -2.1442    0.0000 C   0  0  0  0  0  0  0  0  0  0  0  0
    5.6051   -2.7837    0.0000 C   0  0  0  0  0  0  0  0  0  0  0  0
    6.9969   -2.7837    0.0000 C   0  0  0  0  0  0  0  0  0  0  0  0
    1.4671   -0.8652    0.0000 C   0  0  0  0  0  0  0  0  0  0  0  0
    1.1662   -1.5799    0.0000 C   0  0  0  0  0  0  0  0  0  0  0  0
    6.9969   -1.9937    0.0000 C   0  0  0  0  0  0  0  0  0  0  0  0
    6.3198   -3.1975    0.0000 C   0  0  0  0  0  0  0  0  0  0  0  0
    1.6552   -2.2570    0.0000 C   0  0  0  0  0  0  0  0  0  0  0  0
    7.7116   -3.1975    0.0000 C   0  0  0  0  0  0  0  0  0  0  0  0
    2.6332    0.0000    0.0000 C   0  0  0  0  0  0  0  0  0  0  0  0
   10.6082   -3.1975    0.0000 C   0  0  0  0  0  0  0  0  0  0  0  0
    9.1412   -4.0251    0.0000 C   0  0  0  0  0  0  0  0  0  0  0  0
    0.3386   -1.6928    0.0000 C   0  0  0  0  0  0  0  0  0  0  0  0
    8.4264   -4.4389    0.0000 C   0  0  0  0  0  0  0  0  0  0  0  0
    9.8559   -2.7837    0.0000 C   0  0  0  0  0  0  0  0  0  0  0  0
   10.5706   -4.0251    0.0000 C   0  0  0  0  0  0  0  0  0  0  0  0
    9.1788   -3.1975    0.0000 C   0  0  0  0  0  0  0  0  0  0  0  0
    9.8559   -4.4013    0.0000 C   0  0  0  0  0  0  0  0  0  0  0  0
  1 26  1  0  0  0  0
  2 26  1  0  0  0  0
  3 11  1  0  0  0  0
  4 24  2  0  0  0  0
  5  6  1  0  0  0  0
  5 11  1  0  0  0  0
  5 13  1  0  0  0  0
  6 14  2  0  0  0  0
  7 13  2  0  0  0  0
  7 21  1  0  0  0  0
  8 24  1  0  0  0  0
  8 29  1  0  0  0  0
  9 28  3  0  0  0  0
 10 11  2  0  0  0  0
 10 12  1  0  0  0  0
 10 14  1  0  0  0  0
 12 15  1  0  0  0  0
 12 16  2  0  0  0  0
 13 17  1  0  0  0  0
 15 19  2  0  0  0  0
 15 25  1  0  0  0  0
 16 23  1  0  0  0  0
 17 22  2  0  0  0  0
 18 21  2  0  0  0  0
 18 22  1  0  0  0  0
 18 24  1  0  0  0  0
 19 20  1  0  0  0  0
 20 23  2  0  0  0  0
 20 28  1  0  0  0  0
 26 30  1  0  0  0  0
 26 31  1  0  0  0  0
 27 29  1  0  0  0  0
 27 32  1  0  0  0  0
 27 33  1  0  0  0  0
 30 32  1  0  0  0  0
 31 33  1  0  0  0  0
M  END
> <PUBCHEM_COMPOUND_ID_TYPE>
0

> <PUBCHEM_TOTAL_CHARGE>
0

> <PUBCHEM_SUBSTANCE_ID>
310932474

> <PUBCHEM_SUBSTANCE_VERSION>
1

> <PUBCHEM_EXT_DATASOURCE_NAME>
4488

> <PUBCHEM_EXT_DATASOURCE_REGID>
SCHEMBL16109846

> <PUBCHEM_SUBSTANCE_COMMENT>
InChI=1S/C24H23F2N5O2/c1-15-10-17(11-27)2-4-19(15)20-14-30-31(23(20)33)21-5-3-18(13-28-21)22(32)29-12-16-6-8-24(25,26)9-7-16/h2-5,10,13-14,16,33H,6-9,12H2,1H3,(H,29,32)
InChIKey=QROUEBWGZOFYST-UHFFFAOYSA-N

> <PUBCHEM_SUBSTANCE_SYNONYM>
SCHEMBL16109846

> <PUBCHEM_XREF_EXT_ID>
SCHEMBL16109846

> <PUBCHEM_EXT_DATASOURCE_URL>
https://www.surechembl.org/

> <PUBCHEM_EXT_SUBSTANCE_URL>
https://www.surechembl.org/chemical/SCHEMBL16109846

> <PUBCHEM_CID_ASSOCIATIONS>
117601015  1

> <PUBCHEM_COORDINATE_TYPE>
1
3

$$$$
