310943206
  -OEChem-07211613022D

 20 22  0     0  0  0  0  0  0999 V2000
   -3.0779    1.2296    0.0000 O   0  0  0  0  0  0  0  0  0  0  0  0
   -1.7948    0.1756    0.0000 N   0  0  0  0  0  0  0  0  0  0  0  0
   -0.3742   -1.5199    0.0000 N   0  0  0  0  0  0  0  0  0  0  0  0
    1.7643    1.3824    0.0000 N   0  0  0  0  0  0  0  0  0  0  0  0
    3.2001   -0.2673    0.0000 N   0  0  0  0  0  0  0  0  0  0  0  0
    0.3437   -0.2520    0.0000 C   0  0  0  0  0  0  0  0  0  0  0  0
    1.0463    0.1604    0.0000 C   0  0  0  0  0  0  0  0  0  0  0  0
   -1.0769   -0.2673    0.0000 C   0  0  0  0  0  0  0  0  0  0  0  0
   -0.3895    0.1451    0.0000 C   0  0  0  0  0  0  0  0  0  0  0  0
    1.0616    0.9852    0.0000 C   0  0  0  0  0  0  0  0  0  0  0  0
    1.7948   -0.2520    0.0000 C   0  0  0  0  0  0  0  0  0  0  0  0
    0.3284   -1.0921    0.0000 C   0  0  0  0  0  0  0  0  0  0  0  0
   -1.0769   -1.0921    0.0000 C   0  0  0  0  0  0  0  0  0  0  0  0
    2.4669    0.1451    0.0000 C   0  0  0  0  0  0  0  0  0  0  0  0
   -2.5280   -0.0993    0.0000 C   0  0  0  0  0  0  0  0  0  0  0  0
   -1.6573    1.0005    0.0000 C   0  0  0  0  0  0  0  0  0  0  0  0
    2.4822    0.9700    0.0000 C   0  0  0  0  0  0  0  0  0  0  0  0
    0.3284    1.3824    0.0000 C   0  0  0  0  0  0  0  0  0  0  0  0
   -3.2001    0.4200    0.0000 C   0  0  0  0  0  0  0  0  0  0  0  0
   -2.2836    1.5199    0.0000 C   0  0  0  0  0  0  0  0  0  0  0  0
  1 19  1  0  0  0  0
  1 20  1  0  0  0  0
  2  8  1  0  0  0  0
  2 15  1  0  0  0  0
  2 16  1  0  0  0  0
  3 12  2  0  0  0  0
  3 13  1  0  0  0  0
  4 10  2  0  0  0  0
  4 17  1  0  0  0  0
  5 14  1  0  0  0  0
  6  7  1  0  0  0  0
  6  9  2  0  0  0  0
  6 12  1  0  0  0  0
  7 10  1  0  0  0  0
  7 11  2  0  0  0  0
  8  9  1  0  0  0  0
  8 13  2  0  0  0  0
 10 18  1  0  0  0  0
 11 14  1  0  0  0  0
 14 17  2  0  0  0  0
 15 19  1  0  0  0  0
 16 20  1  0  0  0  0
M  END
> <PUBCHEM_COMPOUND_ID_TYPE>
0

> <PUBCHEM_TOTAL_CHARGE>
0

> <PUBCHEM_SUBSTANCE_ID>
310943206

> <PUBCHEM_SUBSTANCE_VERSION>
1

> <PUBCHEM_EXT_DATASOURCE_NAME>
4488

> <PUBCHEM_EXT_DATASOURCE_REGID>
SCHEMBL16121267

> <PUBCHEM_SUBSTANCE_COMMENT>
InChI=1S/C15H18N4O/c1-11-15(7-13(16)9-18-11)12-6-14(10-17-8-12)19-2-4-20-5-3-19/h6-10H,2-5,16H2,1H3
InChIKey=CDXBAERKOZKRRH-UHFFFAOYSA-N

> <PUBCHEM_SUBSTANCE_SYNONYM>
SCHEMBL16121267

> <PUBCHEM_XREF_EXT_ID>
SCHEMBL16121267

> <PUBCHEM_EXT_DATASOURCE_URL>
https://www.surechembl.org/

> <PUBCHEM_EXT_SUBSTANCE_URL>
https://www.surechembl.org/chemical/SCHEMBL16121267

> <PUBCHEM_CID_ASSOCIATIONS>
117609632  1

> <PUBCHEM_COORDINATE_TYPE>
1
3

$$$$
