310949673
  -OEChem-07211613022D

 22 24  0     0  0  0  0  0  0999 V2000
    2.5812    0.2041    0.0000 O   0  0  0  0  0  0  0  0  0  0  0  0
    2.5680    1.8371    0.0000 O   0  0  0  0  0  0  0  0  0  0  0  0
   -1.1063    1.4157    0.0000 O   0  0  0  0  0  0  0  0  0  0  0  0
   -1.0931   -1.8371    0.0000 O   0  0  0  0  0  0  0  0  0  0  0  0
   -0.3687    0.1909    0.0000 N   0  0  0  0  0  0  0  0  0  0  0  0
    1.8305    0.6255    0.0000 C   0  0  0  0  0  0  0  0  0  0  0  0
    1.8305    1.4289    0.0000 C   0  0  0  0  0  0  0  0  0  0  0  0
    0.3687    0.6123    0.0000 C   0  0  0  0  0  0  0  0  0  0  0  0
   -1.8305    0.1909    0.0000 C   0  0  0  0  0  0  0  0  0  0  0  0
   -1.1063    0.5860    0.0000 C   0  0  0  0  0  0  0  0  0  0  0  0
    1.1194    0.2173    0.0000 C   0  0  0  0  0  0  0  0  0  0  0  0
   -1.8436   -0.6123    0.0000 C   0  0  0  0  0  0  0  0  0  0  0  0
    1.1063    1.8239    0.0000 C   0  0  0  0  0  0  0  0  0  0  0  0
    0.3555    1.4026    0.0000 C   0  0  0  0  0  0  0  0  0  0  0  0
   -2.5812    0.5860    0.0000 C   0  0  0  0  0  0  0  0  0  0  0  0
   -1.0931   -1.0075    0.0000 C   0  0  0  0  0  0  0  0  0  0  0  0
   -2.5417   -1.0206    0.0000 C   0  0  0  0  0  0  0  0  0  0  0  0
    3.3054    0.6123    0.0000 C   0  0  0  0  0  0  0  0  0  0  0  0
    3.2923    1.4289    0.0000 C   0  0  0  0  0  0  0  0  0  0  0  0
   -3.3054    0.1646    0.0000 C   0  0  0  0  0  0  0  0  0  0  0  0
   -3.2923   -0.6386    0.0000 C   0  0  0  0  0  0  0  0  0  0  0  0
   -0.5794   -0.7441    0.0000 C   0  0  0  0  0  0  0  0  0  0  0  0
  1  6  1  0  0  0  0
  1 18  1  0  0  0  0
  2  7  1  0  0  0  0
  2 19  1  0  0  0  0
  3 10  2  0  0  0  0
  4 16  2  0  0  0  0
  5  8  1  0  0  0  0
  5 10  1  0  0  0  0
  6  7  1  0  0  0  0
  6 11  2  0  0  0  0
  7 13  2  0  0  0  0
  8 11  1  0  0  0  0
  8 14  2  0  0  0  0
  9 10  1  0  0  0  0
  9 12  1  0  0  0  0
  9 15  2  0  0  0  0
 12 16  1  0  0  0  0
 12 17  2  0  0  0  0
 13 14  1  0  0  0  0
 15 20  1  0  0  0  0
 16 22  1  0  0  0  0
 17 21  1  0  0  0  0
 18 19  1  0  0  0  0
 20 21  2  0  0  0  0
M  END
> <PUBCHEM_COMPOUND_ID_TYPE>
0

> <PUBCHEM_TOTAL_CHARGE>
0

> <PUBCHEM_SUBSTANCE_ID>
310949673

> <PUBCHEM_SUBSTANCE_VERSION>
1

> <PUBCHEM_EXT_DATASOURCE_NAME>
4488

> <PUBCHEM_EXT_DATASOURCE_REGID>
SCHEMBL16127871

> <PUBCHEM_SUBSTANCE_COMMENT>
InChI=1S/C17H15NO4/c1-11(19)13-4-2-3-5-14(13)17(20)18-12-6-7-15-16(10-12)22-9-8-21-15/h2-7,10H,8-9H2,1H3,(H,18,20)
InChIKey=GBQCCFPDIXYPCX-UHFFFAOYSA-N

> <PUBCHEM_SUBSTANCE_SYNONYM>
SCHEMBL16127871

> <PUBCHEM_XREF_EXT_ID>
SCHEMBL16127871

> <PUBCHEM_EXT_DATASOURCE_URL>
https://www.surechembl.org/

> <PUBCHEM_EXT_SUBSTANCE_URL>
https://www.surechembl.org/chemical/SCHEMBL16127871

> <PUBCHEM_CID_ASSOCIATIONS>
117615045  1

> <PUBCHEM_COORDINATE_TYPE>
1
3

$$$$
