310944472
  -OEChem-07211613022D

 34 38  0     1  0  0  0  0  0999 V2000
   -2.1944   -1.4225    0.0000 F   0  0  0  0  0  0  0  0  0  0  0  0
   -1.2460    0.9704    0.0000 F   0  0  0  0  0  0  0  0  0  0  0  0
    2.3488    0.3198    0.0000 O   0  0  0  0  0  0  0  0  0  0  0  0
    5.2820    0.3198    0.0000 O   0  0  0  0  0  0  0  0  0  0  0  0
    5.0615    1.6320    0.0000 O   0  0  0  0  0  0  0  0  0  0  0  0
   -0.7719   -1.2130    0.0000 O   0  0  0  0  0  0  0  0  0  0  0  0
    3.3523   -0.5403    0.0000 N   0  0  0  0  0  0  0  0  0  0  0  0
    0.5514   -0.3529    0.0000 N   0  0  0  0  0  0  0  0  0  0  0  0
   -3.9477    0.6616    0.0000 N   0  0  0  0  0  0  0  0  0  0  0  0
   -4.1462    1.4666    0.0000 N   0  0  0  0  0  0  0  0  0  0  0  0
   -4.9733    1.5107    0.0000 N   0  0  0  0  0  0  0  0  0  0  0  0
   -5.2820    0.7388    0.0000 N   0  0  0  0  0  0  0  0  0  0  0  0
    2.0952   -0.9704    0.0000 C   0  0  0  0  0  0  0  0  0  0  0  0
    2.5693   -0.3087    0.0000 C   0  0  0  0  0  0  0  0  0  0  0  0
    4.0139   -0.0220    0.0000 C   0  0  0  0  0  0  0  0  0  0  0  0
    2.6024   -1.6320    0.0000 C   0  0  0  0  0  0  0  0  0  0  0  0
    3.3854   -1.3674    0.0000 C   0  0  0  0  0  0  0  0  0  0  0  0
    1.4445   -1.4776    0.0000 C   0  0  0  0  0  0  0  0  0  0  0  0
    1.9959   -0.1544    0.0000 C   0  0  0  0  0  0  0  0  0  0  0  0
    4.0470    0.7939    0.0000 C   0  0  0  0  0  0  0  0  0  0  0  0
   -1.6431   -0.2316    0.0000 C   0  0  0  0  0  0  0  0  0  0  0  0
    0.6616   -1.1468    0.0000 C   0  0  0  0  0  0  0  0  0  0  0  0
    1.2240    0.1654    0.0000 C   0  0  0  0  0  0  0  0  0  0  0  0
    4.7858   -0.3198    0.0000 C   0  0  0  0  0  0  0  0  0  0  0  0
    4.8189    1.0035    0.0000 C   0  0  0  0  0  0  0  0  0  0  0  0
   -0.8601   -0.5514    0.0000 C   0  0  3  0  0  0  0  0  0  0  0  0
   -2.2937   -0.7499    0.0000 C   0  0  0  0  0  0  0  0  0  0  0  0
   -1.7534    0.5734    0.0000 C   0  0  0  0  0  0  0  0  0  0  0  0
   -3.1758    0.3639    0.0000 C   0  0  0  0  0  0  0  0  0  0  0  0
   -0.2316   -0.0441    0.0000 C   0  0  0  0  0  0  0  0  0  0  0  0
   -3.0545   -0.4521    0.0000 C   0  0  0  0  0  0  0  0  0  0  0  0
   -2.5253    0.8712    0.0000 C   0  0  0  0  0  0  0  0  0  0  0  0
    3.5066    1.2020    0.0000 C   0  0  0  0  0  0  0  0  0  0  0  0
   -4.6314    0.2205    0.0000 C   0  0  0  0  0  0  0  0  0  0  0  0
  1 27  1  0  0  0  0
  2 28  1  0  0  0  0
  3 14  2  0  0  0  0
  4 24  1  0  0  0  0
  4 25  1  0  0  0  0
  5 25  2  0  0  0  0
 26  6  1  6  0  0  0
  7 14  1  0  0  0  0
  7 15  1  0  0  0  0
  7 17  1  0  0  0  0
  8 22  1  0  0  0  0
  8 23  1  0  0  0  0
  8 30  1  0  0  0  0
  9 10  1  0  0  0  0
  9 29  1  0  0  0  0
  9 34  1  0  0  0  0
 10 11  2  0  0  0  0
 11 12  1  0  0  0  0
 12 34  2  0  0  0  0
 13 14  1  0  0  0  0
 13 16  1  0  0  0  0
 13 18  1  0  0  0  0
 13 19  1  0  0  0  0
 15 20  2  0  0  0  0
 15 24  1  0  0  0  0
 16 17  1  0  0  0  0
 18 22  1  0  0  0  0
 19 23  1  0  0  0  0
 20 25  1  0  0  0  0
 20 33  1  0  0  0  0
 21 26  1  0  0  0  0
 21 27  2  0  0  0  0
 21 28  1  0  0  0  0
 26 30  1  0  0  0  0
 27 31  1  0  0  0  0
 28 32  2  0  0  0  0
 29 31  2  0  0  0  0
 29 32  1  0  0  0  0
M  END
> <PUBCHEM_COMPOUND_ID_TYPE>
0

> <PUBCHEM_TOTAL_CHARGE>
0

> <PUBCHEM_SUBSTANCE_ID>
310944472

> <PUBCHEM_SUBSTANCE_VERSION>
1

> <PUBCHEM_EXT_DATASOURCE_NAME>
4488

> <PUBCHEM_EXT_DATASOURCE_REGID>
SCHEMBL16122547

> <PUBCHEM_SUBSTANCE_COMMENT>
InChI=1S/C22H24F2N6O4/c1-13-17(11-34-20(13)32)29-7-4-22(21(29)33)2-5-28(6-3-22)10-18(31)19-15(23)8-14(9-16(19)24)30-12-25-26-27-30/h8-9,12,18,31H,2-7,10-11H2,1H3/t18-/m0/s1
InChIKey=LCTNFWIVMMBDBV-SFHVURJKSA-N

> <PUBCHEM_SUBSTANCE_SYNONYM>
SCHEMBL16122547

> <PUBCHEM_XREF_EXT_ID>
SCHEMBL16122547

> <PUBCHEM_EXT_DATASOURCE_URL>
https://www.surechembl.org/

> <PUBCHEM_EXT_SUBSTANCE_URL>
https://www.surechembl.org/chemical/SCHEMBL16122547

> <PUBCHEM_CID_ASSOCIATIONS>
86271732  1

> <PUBCHEM_COORDINATE_TYPE>
1
3

> <PUBCHEM_BONDANNOTATIONS>
26  6  6

$$$$
