310930467
  -OEChem-07211613022D

 32 35  0     0  0  0  0  0  0999 V2000
    6.3689   -2.2110    0.0000 S   0  0  0  0  0  0  0  0  0  0  0  0
    2.1779   -6.4349    0.0000 S   0  0  0  0  0  0  0  0  0  0  0  0
    9.5368   -1.2210    0.0000 F   0  0  0  0  0  0  0  0  0  0  0  0
    8.8438    0.0000    0.0000 F   0  0  0  0  0  0  0  0  0  0  0  0
    8.8438   -1.6170    0.0000 F   0  0  0  0  0  0  0  0  0  0  0  0
    5.6099   -1.7490    0.0000 O   0  0  0  0  0  0  0  0  0  0  0  0
    7.0949   -2.6400    0.0000 O   0  0  0  0  0  0  0  0  0  0  0  0
    3.8939   -6.5009    0.0000 O   0  0  0  0  0  0  0  0  0  0  0  0
    6.4018   -0.8250    0.0000 N   0  0  0  0  0  0  0  0  0  0  0  0
    3.8939   -5.0819    0.0000 N   0  0  0  0  0  0  0  0  0  0  0  0
    0.0000   -6.2039    0.0000 N   0  0  0  0  0  0  0  0  0  0  0  0
    6.7979   -1.5180    0.0000 C   0  0  0  0  0  0  0  0  0  0  0  0
    5.9729   -2.9369    0.0000 C   0  0  0  0  0  0  0  0  0  0  0  0
    8.0188   -0.8250    0.0000 C   0  0  0  0  0  0  0  0  0  0  0  0
    7.6229   -1.5510    0.0000 C   0  0  0  0  0  0  0  0  0  0  0  0
    8.8438   -0.8250    0.0000 C   0  0  0  0  0  0  0  0  0  0  0  0
    2.6729   -5.7749    0.0000 C   0  0  0  0  0  0  0  0  0  0  0  0
    1.4190   -6.2039    0.0000 C   0  0  0  0  0  0  0  0  0  0  0  0
    1.4190   -5.3459    0.0000 C   0  0  0  0  0  0  0  0  0  0  0  0
    5.1479   -2.9369    0.0000 C   0  0  0  0  0  0  0  0  0  0  0  0
    6.3689   -3.6629    0.0000 C   0  0  0  0  0  0  0  0  0  0  0  0
    7.6229   -0.1320    0.0000 C   0  0  0  0  0  0  0  0  0  0  0  0
    2.1779   -5.1149    0.0000 C   0  0  0  0  0  0  0  0  0  0  0  0
    5.1479   -4.3559    0.0000 C   0  0  0  0  0  0  0  0  0  0  0  0
    6.7979   -0.0990    0.0000 C   0  0  0  0  0  0  0  0  0  0  0  0
    3.4979   -5.7749    0.0000 C   0  0  0  0  0  0  0  0  0  0  0  0
    4.7519   -3.6299    0.0000 C   0  0  0  0  0  0  0  0  0  0  0  0
    5.9729   -4.3559    0.0000 C   0  0  0  0  0  0  0  0  0  0  0  0
    0.6930   -6.5999    0.0000 C   0  0  0  0  0  0  0  0  0  0  0  0
    0.6930   -4.9499    0.0000 C   0  0  0  0  0  0  0  0  0  0  0  0
    4.7189   -5.0819    0.0000 C   0  0  0  0  0  0  0  0  0  0  0  0
    0.0000   -5.3459    0.0000 C   0  0  0  0  0  0  0  0  0  0  0  0
  1  6  2  0  0  0  0
  1  7  2  0  0  0  0
  1 12  1  0  0  0  0
  1 13  1  0  0  0  0
  2 17  1  0  0  0  0
  2 18  1  0  0  0  0
  3 16  1  0  0  0  0
  4 16  1  0  0  0  0
  5 16  1  0  0  0  0
  8 26  2  0  0  0  0
  9 12  1  0  0  0  0
  9 25  2  0  0  0  0
 10 26  1  0  0  0  0
 10 31  1  0  0  0  0
 11 29  1  0  0  0  0
 11 32  2  0  0  0  0
 12 15  2  0  0  0  0
 13 20  2  0  0  0  0
 13 21  1  0  0  0  0
 14 15  1  0  0  0  0
 14 16  1  0  0  0  0
 14 22  2  0  0  0  0
 17 23  2  0  0  0  0
 17 26  1  0  0  0  0
 18 19  1  0  0  0  0
 18 29  2  0  0  0  0
 19 23  1  0  0  0  0
 19 30  2  0  0  0  0
 20 27  1  0  0  0  0
 21 28  2  0  0  0  0
 22 25  1  0  0  0  0
 24 27  2  0  0  0  0
 24 28  1  0  0  0  0
 24 31  1  0  0  0  0
 30 32  1  0  0  0  0
M  END
> <PUBCHEM_COMPOUND_ID_TYPE>
0

> <PUBCHEM_TOTAL_CHARGE>
0

> <PUBCHEM_SUBSTANCE_ID>
310930467

> <PUBCHEM_SUBSTANCE_VERSION>
1

> <PUBCHEM_EXT_DATASOURCE_NAME>
4488

> <PUBCHEM_EXT_DATASOURCE_REGID>
SCHEMBL16107757

> <PUBCHEM_SUBSTANCE_COMMENT>
InChI=1S/C21H14F3N3O3S2/c22-21(23,24)15-6-8-26-19(10-15)32(29,30)16-3-1-13(2-4-16)11-27-20(28)17-9-14-5-7-25-12-18(14)31-17/h1-10,12H,11H2,(H,27,28)
InChIKey=KRTBNASXRPZUES-UHFFFAOYSA-N

> <PUBCHEM_SUBSTANCE_SYNONYM>
SCHEMBL16107757

> <PUBCHEM_XREF_EXT_ID>
SCHEMBL16107757

> <PUBCHEM_EXT_DATASOURCE_URL>
https://www.surechembl.org/

> <PUBCHEM_EXT_SUBSTANCE_URL>
https://www.surechembl.org/chemical/SCHEMBL16107757

> <PUBCHEM_CID_ASSOCIATIONS>
88919754  1

> <PUBCHEM_COORDINATE_TYPE>
1
3

$$$$
