310949558
  -OEChem-07211613022D

130137  0     1  0  0  0  0  0999 V2000
   -8.0333    4.9898    0.0000 Cl  0  0  0  0  0  0  0  0  0  0  0  0
   -1.2206   -2.1032    0.0000 S   0  0  0  0  0  0  0  0  0  0  0  0
   -6.9446   -1.1464    0.0000 S   0  0  0  0  0  0  0  0  0  0  0  0
   -1.0722    4.0496    0.0000 O   0  0  0  0  0  0  0  0  0  0  0  0
   -3.4805    2.0207    0.0000 O   0  0  0  0  0  0  0  0  0  0  0  0
    1.1052    2.4331    0.0000 O   0  0  0  0  0  0  0  0  0  0  0  0
    0.1155   -4.9074    0.0000 O   0  0  0  0  0  0  0  0  0  0  0  0
    9.8313    0.1567    0.0000 O   0  0  0  0  0  0  0  0  0  0  0  0
    6.5322   -1.8887    0.0000 O   0  0  0  0  0  0  0  0  0  0  0  0
    4.4868   -4.9074    0.0000 O   0  0  0  0  0  0  0  0  0  0  0  0
    2.2929   -3.2908    0.0000 O   0  0  0  0  0  0  0  0  0  0  0  0
    5.8889    1.8228    0.0000 O   0  0  0  0  0  0  0  0  0  0  0  0
   -2.3258   -2.5486    0.0000 O   0  0  0  0  0  0  0  0  0  0  0  0
    3.2826    4.0496    0.0000 O   0  0  0  0  0  0  0  0  0  0  0  0
   -5.0971    0.5526    0.0000 O   0  0  0  0  0  0  0  0  0  0  0  0
   -5.0971   -3.8847    0.0000 O   0  0  0  0  0  0  0  0  0  0  0  0
    4.3383    4.3630    0.0000 O   0  0  0  0  0  0  0  0  0  0  0  0
    5.3280    5.4518    0.0000 O   0  0  0  0  0  0  0  0  0  0  0  0
    2.0619   -1.5258    0.0000 O   0  0  0  0  0  0  0  0  0  0  0  0
   -7.2910   -3.6372    0.0000 O   0  0  0  0  0  0  0  0  0  0  0  0
   -4.9156   -6.0456    0.0000 O   0  0  0  0  0  0  0  0  0  0  0  0
   -9.6169   -2.4496    0.0000 O   0  0  0  0  0  0  0  0  0  0  0  0
   -2.8702    3.0269    0.0000 N   0  0  0  0  0  0  0  0  0  0  0  0
   -0.2474    3.2249    0.0000 N   0  0  0  0  0  0  0  0  0  0  0  0
    8.1652   -1.3938    0.0000 N   0  0  0  0  0  0  0  0  0  0  0  0
    1.4846   -4.1156    0.0000 N   0  0  0  0  0  0  0  0  0  0  0  0
    1.9300    3.2578    0.0000 N   0  0  0  0  0  0  0  0  0  0  0  0
   -0.6928   -4.0827    0.0000 N   0  0  0  0  0  0  0  0  0  0  0  0
    5.7404   -3.7857    0.0000 N   0  0  0  0  0  0  0  0  0  0  0  0
    3.6620   -4.0827    0.0000 N   0  0  0  0  0  0  0  0  0  0  0  0
   -5.9218    2.2516    0.0000 N   0  0  0  0  0  0  0  0  0  0  0  0
    7.4229    2.3836    0.0000 N   0  0  0  0  0  0  0  0  0  0  0  0
    4.1239    3.2249    0.0000 N   0  0  0  0  0  0  0  0  0  0  0  0
   -3.5136   -3.3898    0.0000 N   0  0  0  0  0  0  0  0  0  0  0  0
   -5.8064   -3.0434    0.0000 N   0  0  0  0  0  0  0  0  0  0  0  0
   -7.9838   -2.6970    0.0000 N   0  0  0  0  0  0  0  0  0  0  0  0
   -9.8313   -3.8517    0.0000 N   0  0  0  0  0  0  0  0  0  0  0  0
    0.0165   -1.5588    0.0000 C   0  0  0  0  0  0  0  0  0  0  0  0
    0.0824   -2.3836    0.0000 C   0  0  0  0  0  0  0  0  0  0  0  0
   -0.7918   -1.3773    0.0000 C   0  0  0  0  0  0  0  0  0  0  0  0
   -1.7320    2.7795    0.0000 C   0  0  3  0  0  0  0  0  0  0  0  0
   -1.0887    3.2249    0.0000 C   0  0  0  0  0  0  0  0  0  0  0  0
   -0.6433   -2.7135    0.0000 C   0  0  0  0  0  0  0  0  0  0  0  0
    0.8412   -2.7960    0.0000 C   0  0  0  0  0  0  0  0  0  0  0  0
    0.4124    3.7362    0.0000 C   0  0  3  0  0  0  0  0  0  0  0  0
    0.8083   -3.6372    0.0000 C   0  0  3  0  0  0  0  0  0  0  0  0
   -3.6785    2.8455    0.0000 C   0  0  0  0  0  0  0  0  0  0  0  0
    0.5608   -0.9485    0.0000 C   0  0  0  0  0  0  0  0  0  0  0  0
   -1.0227   -0.5856    0.0000 C   0  0  0  0  0  0  0  0  0  0  0  0
    1.1052    3.2743    0.0000 C   0  0  0  0  0  0  0  0  0  0  0  0
    7.8684   -2.4826    0.0000 C   0  0  3  0  0  0  0  0  0  0  0  0
   -4.4703    3.1259    0.0000 C   0  0  3  0  0  0  0  0  0  0  0  0
   -1.7650    1.9217    0.0000 C   0  0  0  0  0  0  0  0  0  0  0  0
    0.1320   -4.0662    0.0000 C   0  0  0  0  0  0  0  0  0  0  0  0
    9.0066    0.1732    0.0000 C   0  0  0  0  0  0  0  0  0  0  0  0
    7.0435   -2.5320    0.0000 C   0  0  0  0  0  0  0  0  0  0  0  0
    8.5776    1.7732    0.0000 C   0  0  3  0  0  0  0  0  0  0  0  0
    0.3134   -0.1732    0.0000 C   0  0  0  0  0  0  0  0  0  0  0  0
   -0.4949   -0.0082    0.0000 C   0  0  0  0  0  0  0  0  0  0  0  0
   -1.0393    1.5423    0.0000 C   0  0  0  0  0  0  0  0  0  0  0  0
    5.1301   -3.7362    0.0000 C   0  0  3  0  0  0  0  0  0  0  0  0
    4.5033   -4.2311    0.0000 C   0  0  0  0  0  0  0  0  0  0  0  0
    0.4289    4.5445    0.0000 C   0  0  0  0  0  0  0  0  0  0  0  0
    2.2929   -4.1156    0.0000 C   0  0  0  0  0  0  0  0  0  0  0  0
   -1.7815   -3.9012    0.0000 C   0  0  3  0  0  0  0  0  0  0  0  0
    8.3797   -3.1259    0.0000 C   0  0  0  0  0  0  0  0  0  0  0  0
   -4.6518    3.9177    0.0000 C   0  0  0  0  0  0  0  0  0  0  0  0
   -2.8867    3.8682    0.0000 C   0  0  0  0  0  0  0  0  0  0  0  0
    0.0330    2.4331    0.0000 C   0  0  0  0  0  0  0  0  0  0  0  0
    6.1033    2.6310    0.0000 C   0  0  0  0  0  0  0  0  0  0  0  0
    8.9901    2.5320    0.0000 C   0  0  0  0  0  0  0  0  0  0  0  0
    3.0187   -4.5610    0.0000 C   0  0  0  0  0  0  0  0  0  0  0  0
    5.5424    3.2413    0.0000 C   0  0  3  0  0  0  0  0  0  0  0  0
    2.5898    2.7795    0.0000 C   0  0  0  0  0  0  0  0  0  0  0  0
   -5.4270    4.1981    0.0000 C   0  0  0  0  0  0  0  0  0  0  0  0
   -2.6393   -3.1259    0.0000 C   0  0  0  0  0  0  0  0  0  0  0  0
    8.0663   -3.9012    0.0000 C   0  0  0  0  0  0  0  0  0  0  0  0
    5.0806   -2.9114    0.0000 C   0  0  0  0  0  0  0  0  0  0  0  0
    3.2661    3.2249    0.0000 C   0  0  0  0  0  0  0  0  0  0  0  0
   -0.8247    0.7341    0.0000 C   0  0  0  0  0  0  0  0  0  0  0  0
   -0.4453    2.1032    0.0000 C   0  0  0  0  0  0  0  0  0  0  0  0
   -5.9218    0.7835    0.0000 C   0  0  0  0  0  0  0  0  0  0  0  0
   -1.8805   -4.7260    0.0000 C   0  0  0  0  0  0  0  0  0  0  0  0
    9.0066   -1.2784    0.0000 C   0  0  0  0  0  0  0  0  0  0  0  0
    4.3053   -2.5320    0.0000 C   0  0  0  0  0  0  0  0  0  0  0  0
   -0.2970    4.9734    0.0000 C   0  0  0  0  0  0  0  0  0  0  0  0
   -2.6228   -5.0559    0.0000 C   0  0  0  0  0  0  0  0  0  0  0  0
   -4.1074   -2.8455    0.0000 C   0  0  3  0  0  0  0  0  0  0  0  0
    2.1774    4.0496    0.0000 C   0  0  0  0  0  0  0  0  0  0  0  0
   -5.5755    4.9898    0.0000 C   0  0  0  0  0  0  0  0  0  0  0  0
   -6.0209    3.6537    0.0000 C   0  0  0  0  0  0  0  0  0  0  0  0
    5.7404    4.0496    0.0000 C   0  0  0  0  0  0  0  0  0  0  0  0
    7.2580   -4.0166    0.0000 C   0  0  0  0  0  0  0  0  0  0  0  0
    8.5611   -4.5445    0.0000 C   0  0  0  0  0  0  0  0  0  0  0  0
   -0.0165    0.5361    0.0000 C   0  0  0  0  0  0  0  0  0  0  0  0
    0.3299    1.9052    0.0000 C   0  0  0  0  0  0  0  0  0  0  0  0
   -4.9156   -3.0764    0.0000 C   0  0  0  0  0  0  0  0  0  0  0  0
    3.4805   -3.2743    0.0000 C   0  0  0  0  0  0  0  0  0  0  0  0
   -6.7137    0.3547    0.0000 C   0  0  0  0  0  0  0  0  0  0  0  0
    4.2393   -1.7403    0.0000 C   0  0  0  0  0  0  0  0  0  0  0  0
    3.6455   -3.0269    0.0000 C   0  0  0  0  0  0  0  0  0  0  0  0
    0.5444    1.1135    0.0000 C   0  0  0  0  0  0  0  0  0  0  0  0
    8.5281    3.2084    0.0000 C   0  0  0  0  0  0  0  0  0  0  0  0
    9.8148    2.5155    0.0000 C   0  0  0  0  0  0  0  0  0  0  0  0
   -6.9776    4.7260    0.0000 C   0  0  0  0  0  0  0  0  0  0  0  0
   -6.3508    5.2538    0.0000 C   0  0  0  0  0  0  0  0  0  0  0  0
   -6.8126    3.9177    0.0000 C   0  0  0  0  0  0  0  0  0  0  0  0
   -6.4003   -2.4661    0.0000 C   0  0  3  0  0  0  0  0  0  0  0  0
   -3.2826   -4.5775    0.0000 C   0  0  0  0  0  0  0  0  0  0  0  0
   -2.7383   -5.8806    0.0000 C   0  0  0  0  0  0  0  0  0  0  0  0
    5.1466    4.6104    0.0000 C   0  0  0  0  0  0  0  0  0  0  0  0
   -3.9259   -2.0207    0.0000 C   0  0  0  0  0  0  0  0  0  0  0  0
   -0.2970    5.7817    0.0000 C   0  0  0  0  0  0  0  0  0  0  0  0
    6.9446   -4.7754    0.0000 C   0  0  0  0  0  0  0  0  0  0  0  0
    8.2643   -5.3033    0.0000 C   0  0  0  0  0  0  0  0  0  0  0  0
    2.8207   -1.8558    0.0000 C   0  0  0  0  0  0  0  0  0  0  0  0
    3.4805   -1.3938    0.0000 C   0  0  0  0  0  0  0  0  0  0  0  0
    2.9032   -2.6805    0.0000 C   0  0  0  0  0  0  0  0  0  0  0  0
   -6.2683   -1.6413    0.0000 C   0  0  0  0  0  0  0  0  0  0  0  0
    7.4394   -5.4188    0.0000 C   0  0  0  0  0  0  0  0  0  0  0  0
   -4.1569   -5.7157    0.0000 C   0  0  0  0  0  0  0  0  0  0  0  0
   -4.0414   -4.8909    0.0000 C   0  0  0  0  0  0  0  0  0  0  0  0
   -3.4640   -6.1941    0.0000 C   0  0  0  0  0  0  0  0  0  0  0  0
   -7.1590   -2.8125    0.0000 C   0  0  0  0  0  0  0  0  0  0  0  0
   -4.5692   -1.4599    0.0000 C   0  0  0  0  0  0  0  0  0  0  0  0
   -1.0227    6.1941    0.0000 C   0  0  0  0  0  0  0  0  0  0  0  0
   -4.3713   -0.6515    0.0000 C   0  0  0  0  0  0  0  0  0  0  0  0
   -5.3445   -1.7403    0.0000 C   0  0  0  0  0  0  0  0  0  0  0  0
   -8.4952   -3.3239    0.0000 C   0  0  0  0  0  0  0  0  0  0  0  0
   -9.3034   -3.2084    0.0000 C   0  0  0  0  0  0  0  0  0  0  0  0
  1105  1  0  0  0  0
  2 40  1  0  0  0  0
  2 43  1  0  0  0  0
  3 99  1  0  0  0  0
  3119  1  0  0  0  0
  4 42  2  0  0  0  0
  5 47  2  0  0  0  0
  6 50  2  0  0  0  0
  7 54  2  0  0  0  0
  8 55  2  0  0  0  0
  9 56  2  0  0  0  0
 10 62  2  0  0  0  0
 11 64  2  0  0  0  0
 12 70  2  0  0  0  0
 13 76  2  0  0  0  0
 14 79  2  0  0  0  0
 15 82  2  0  0  0  0
 16 97  2  0  0  0  0
 17111  2  0  0  0  0
 18111  1  0  0  0  0
 19116  1  0  0  0  0
 20124  2  0  0  0  0
 21121  1  0  0  0  0
 22130  2  0  0  0  0
 23 41  1  0  0  0  0
 23 47  1  0  0  0  0
 23 68  1  0  0  0  0
 24 42  1  0  0  0  0
 24 45  1  0  0  0  0
 24 69  1  0  0  0  0
 25 51  1  0  0  0  0
 25 55  1  0  0  0  0
 25 84  1  0  0  0  0
 26 46  1  0  0  0  0
 26 64  1  0  0  0  0
 27 50  1  0  0  0  0
 27 74  1  0  0  0  0
 27 89  1  0  0  0  0
 28 54  1  0  0  0  0
 28 65  1  0  0  0  0
 29 56  1  0  0  0  0
 29 61  1  0  0  0  0
 30 62  1  0  0  0  0
 30 72  1  0  0  0  0
 30 98  1  0  0  0  0
 31 52  1  0  0  0  0
 31 82  1  0  0  0  0
 32 57  1  0  0  0  0
 32 70  1  0  0  0  0
 33 73  1  0  0  0  0
 33 79  1  0  0  0  0
 34 76  1  0  0  0  0
 34 88  1  0  0  0  0
 35 97  1  0  0  0  0
 35108  1  0  0  0  0
 36124  1  0  0  0  0
 36129  1  0  0  0  0
 37130  1  0  0  0  0
 38 39  1  0  0  0  0
 38 40  2  0  0  0  0
 38 48  1  0  0  0  0
 39 43  2  0  0  0  0
 39 44  1  0  0  0  0
 40 49  1  0  0  0  0
 41 42  1  0  0  0  0
 41 53  1  6  0  0  0
 46 44  1  6  0  0  0
 45 50  1  0  0  0  0
 45 63  1  1  0  0  0
 46 54  1  0  0  0  0
 47 52  1  0  0  0  0
 48 58  2  0  0  0  0
 49 59  2  0  0  0  0
 51 56  1  0  0  0  0
 51 66  1  1  0  0  0
 52 67  1  1  0  0  0
 53 60  1  0  0  0  0
 55 57  1  0  0  0  0
 57 71  1  1  0  0  0
 58 59  1  0  0  0  0
 60 80  2  0  0  0  0
 60 81  1  0  0  0  0
 61 62  1  0  0  0  0
 61 78  1  6  0  0  0
 63 86  1  0  0  0  0
 64 72  1  0  0  0  0
 65 76  1  0  0  0  0
 65 83  1  1  0  0  0
 66 77  1  0  0  0  0
 67 75  1  0  0  0  0
 70 73  1  0  0  0  0
 71103  1  0  0  0  0
 71104  1  0  0  0  0
 73 92  1  1  0  0  0
 74 79  1  0  0  0  0
 75 90  2  0  0  0  0
 75 91  1  0  0  0  0
 77 93  2  0  0  0  0
 77 94  1  0  0  0  0
 78 85  1  0  0  0  0
 80 95  1  0  0  0  0
 81 96  2  0  0  0  0
 82 99  1  0  0  0  0
 83 87  1  0  0  0  0
 85100  2  0  0  0  0
 85101  1  0  0  0  0
 86113  1  0  0  0  0
 87109  2  0  0  0  0
 87110  1  0  0  0  0
 88 97  1  0  0  0  0
 88112  1  6  0  0  0
 90106  1  0  0  0  0
 91107  2  0  0  0  0
 92111  1  0  0  0  0
 93114  1  0  0  0  0
 94115  2  0  0  0  0
 95102  2  0  0  0  0
 96102  1  0  0  0  0
100117  1  0  0  0  0
101118  2  0  0  0  0
105106  2  0  0  0  0
105107  1  0  0  0  0
108119  1  0  0  0  0
108124  1  6  0  0  0
109122  1  0  0  0  0
110123  2  0  0  0  0
112125  1  0  0  0  0
113126  1  0  0  0  0
114120  2  0  0  0  0
115120  1  0  0  0  0
116117  2  0  0  0  0
116118  1  0  0  0  0
121122  2  0  0  0  0
121123  1  0  0  0  0
125127  1  0  0  0  0
125128  1  0  0  0  0
129130  1  0  0  0  0
M  END
> <PUBCHEM_COMPOUND_ID_TYPE>
0

> <PUBCHEM_TOTAL_CHARGE>
0

> <PUBCHEM_SUBSTANCE_ID>
310949558

> <PUBCHEM_SUBSTANCE_VERSION>
1

> <PUBCHEM_EXT_DATASOURCE_NAME>
4488

> <PUBCHEM_EXT_DATASOURCE_REGID>
SCHEMBL16127753

> <PUBCHEM_SUBSTANCE_COMMENT>
InChI=1S/C93H116ClN15O19S2/c1-11-12-26-73-91(126)106(7)50-79(114)98-69(47-81(116)117)87(122)104-82(55(4)5)93(128)108(9)74(44-56-21-15-13-16-22-56)88(123)102-70(42-60-32-38-64(111)39-33-60)89(124)105(6)49-78(113)97-68(46-61-51-130-76-27-20-19-25-65(61)76)86(121)101-67(41-59-30-36-63(110)37-31-59)85(120)100-66(40-54(2)3)84(119)103-72(83(118)96-48-77(95)112)52-129-53-80(115)99-71(43-58-28-34-62(94)35-29-58)90(125)109(10)75(92(127)107(73)8)45-57-23-17-14-18-24-57/h13-25,27-39,51,54-55,66-75,82,110-111H,11-12,26,40-50,52-53H2,1-10H3,(H2,95,112)(H,96,118)(H,97,113)(H,98,114)(H,99,115)(H,100,120)(H,101,121)(H,102,123)(H,103,119)(H,104,122)(H,116,117)/t66-,67-,68-,69-,70-,71-,72-,73-,74-,75-,82-/m0/s1
InChIKey=NXJPYMJSIIEDKV-XIJBJYHKSA-N

> <PUBCHEM_SUBSTANCE_SYNONYM>
SCHEMBL16127753

> <PUBCHEM_XREF_EXT_ID>
SCHEMBL16127753

> <PUBCHEM_EXT_DATASOURCE_URL>
https://www.surechembl.org/

> <PUBCHEM_EXT_SUBSTANCE_URL>
https://www.surechembl.org/chemical/SCHEMBL16127753

> <PUBCHEM_CID_ASSOCIATIONS>
117614976  1

> <PUBCHEM_COORDINATE_TYPE>
1
3

> <PUBCHEM_BONDANNOTATIONS>
108  124  6
41  53  6
46  44  6
45  63  5
51  66  5
52  67  5
57  71  5
61  78  6
65  83  5
73  92  5
88  112  6

$$$$
