310941976
  -OEChem-07211613022D

 23 26  0     0  0  0  0  0  0999 V2000
   -1.9113   -3.1879    0.0000 F   0  0  0  0  0  0  0  0  0  0  0  0
   -0.4796   -3.1879    0.0000 F   0  0  0  0  0  0  0  0  0  0  0  0
    2.5108    1.8549    0.0000 O   0  0  0  0  0  0  0  0  0  0  0  0
   -0.4867   -0.7053    0.0000 N   0  0  0  0  0  0  0  0  0  0  0  0
    1.1355    2.3697    0.0000 N   0  0  0  0  0  0  0  0  0  0  0  0
   -0.0635    0.5713    0.0000 C   0  0  0  0  0  0  0  0  0  0  0  0
    0.1833   -0.2116    0.0000 C   0  0  0  0  0  0  0  0  0  0  0  0
    0.4726    1.1919    0.0000 C   0  0  0  0  0  0  0  0  0  0  0  0
   -0.9098    0.5783    0.0000 C   0  0  0  0  0  0  0  0  0  0  0  0
   -1.1567   -0.2116    0.0000 C   0  0  0  0  0  0  0  0  0  0  0  0
    1.2836    1.0297    0.0000 C   0  0  0  0  0  0  0  0  0  0  0  0
    1.6715    1.7562    0.0000 C   0  0  0  0  0  0  0  0  0  0  0  0
    0.9944   -0.3809    0.0000 C   0  0  0  0  0  0  0  0  0  0  0  0
    0.3950    2.0171    0.0000 C   0  0  0  0  0  0  0  0  0  0  0  0
    1.5375    0.2257    0.0000 C   0  0  0  0  0  0  0  0  0  0  0  0
   -1.4529    1.1779    0.0000 C   0  0  0  0  0  0  0  0  0  0  0  0
   -1.9607   -0.3879    0.0000 C   0  0  0  0  0  0  0  0  0  0  0  0
   -0.4796   -1.5375    0.0000 C   0  0  0  0  0  0  0  0  0  0  0  0
   -2.2498    1.0156    0.0000 C   0  0  0  0  0  0  0  0  0  0  0  0
   -2.5108    0.2186    0.0000 C   0  0  0  0  0  0  0  0  0  0  0  0
    1.2836    3.1879    0.0000 C   0  0  0  0  0  0  0  0  0  0  0  0
   -1.1849   -1.9395    0.0000 C   0  0  0  0  0  0  0  0  0  0  0  0
   -1.1989   -2.7718    0.0000 C   0  0  0  0  0  0  0  0  0  0  0  0
  1 23  1  0  0  0  0
  2 23  1  0  0  0  0
  3 12  2  0  0  0  0
  4  7  1  0  0  0  0
  4 10  1  0  0  0  0
  4 18  1  0  0  0  0
  5 12  1  0  0  0  0
  5 14  1  0  0  0  0
  5 21  1  0  0  0  0
  6  7  2  0  0  0  0
  6  8  1  0  0  0  0
  6  9  1  0  0  0  0
  7 13  1  0  0  0  0
  8 11  2  0  0  0  0
  8 14  1  0  0  0  0
  9 10  1  0  0  0  0
  9 16  2  0  0  0  0
 10 17  2  0  0  0  0
 11 12  1  0  0  0  0
 11 15  1  0  0  0  0
 13 15  2  0  0  0  0
 16 19  1  0  0  0  0
 17 20  1  0  0  0  0
 18 22  1  0  0  0  0
 19 20  2  0  0  0  0
 22 23  1  0  0  0  0
M  END
> <PUBCHEM_COMPOUND_ID_TYPE>
0

> <PUBCHEM_TOTAL_CHARGE>
0

> <PUBCHEM_SUBSTANCE_ID>
310941976

> <PUBCHEM_SUBSTANCE_VERSION>
1

> <PUBCHEM_EXT_DATASOURCE_NAME>
4488

> <PUBCHEM_EXT_DATASOURCE_REGID>
SCHEMBL16120010

> <PUBCHEM_SUBSTANCE_COMMENT>
InChI=1S/C18H16F2N2O/c1-21-10-13-11(18(21)23)6-7-15-17(13)12-4-2-3-5-14(12)22(15)9-8-16(19)20/h2-7,16H,8-10H2,1H3
InChIKey=BBLZNPUMQYROPV-UHFFFAOYSA-N

> <PUBCHEM_SUBSTANCE_SYNONYM>
SCHEMBL16120010

> <PUBCHEM_XREF_EXT_ID>
SCHEMBL16120010

> <PUBCHEM_EXT_DATASOURCE_URL>
https://www.surechembl.org/

> <PUBCHEM_EXT_SUBSTANCE_URL>
https://www.surechembl.org/chemical/SCHEMBL16120010

> <PUBCHEM_CID_ASSOCIATIONS>
117608682  1

> <PUBCHEM_COORDINATE_TYPE>
1
3

$$$$
