310933077
  -OEChem-07211613022D

 36 39  0     1  0  0  0  0  0999 V2000
    9.8460   -0.9019    0.0000 F   0  0  0  0  0  0  0  0  0  0  0  0
    0.1503    0.0000    0.0000 F   0  0  0  0  0  0  0  0  0  0  0  0
    0.0000   -1.4280    0.0000 F   0  0  0  0  0  0  0  0  0  0  0  0
    7.4784   -2.2548    0.0000 O   0  0  0  0  0  0  0  0  0  0  0  0
    3.3822   -3.9459    0.0000 O   0  0  0  0  0  0  0  0  0  0  0  0
    7.1402   -3.6452    0.0000 N   0  0  0  0  0  0  0  0  0  0  0  0
    7.5160   -4.3593    0.0000 N   0  0  0  0  0  0  0  0  0  0  0  0
    5.8249   -4.2090    0.0000 N   0  0  0  0  0  0  0  0  0  0  0  0
    3.5325   -2.5179    0.0000 N   0  0  0  0  0  0  0  0  0  0  0  0
    1.6159   -1.6159    0.0000 N   0  0  3  0  0  0  0  0  0  0  0  0
   11.2740   -0.9019    0.0000 N   0  0  0  0  0  0  0  0  0  0  0  0
    8.4179   -3.3446    0.0000 C   0  0  0  0  0  0  0  0  0  0  0  0
    7.6663   -3.0440    0.0000 C   0  0  0  0  0  0  0  0  0  0  0  0
    9.1319   -2.9313    0.0000 C   0  0  0  0  0  0  0  0  0  0  0  0
    6.3134   -3.5325    0.0000 C   0  0  0  0  0  0  0  0  0  0  0  0
    9.1319   -2.1421    0.0000 C   0  0  0  0  0  0  0  0  0  0  0  0
    8.3427   -4.1714    0.0000 C   0  0  0  0  0  0  0  0  0  0  0  0
    9.8460   -1.7287    0.0000 C   0  0  0  0  0  0  0  0  0  0  0  0
    9.8460   -3.3446    0.0000 C   0  0  0  0  0  0  0  0  0  0  0  0
    4.6975   -3.3822    0.0000 C   0  0  0  0  0  0  0  0  0  0  0  0
   10.5599   -2.1421    0.0000 C   0  0  0  0  0  0  0  0  0  0  0  0
    5.9752   -2.7809    0.0000 C   0  0  0  0  0  0  0  0  0  0  0  0
    3.8708   -3.2695    0.0000 C   0  0  0  0  0  0  0  0  0  0  0  0
   10.5599   -2.9313    0.0000 C   0  0  0  0  0  0  0  0  0  0  0  0
    4.9981   -4.1338    0.0000 C   0  0  0  0  0  0  0  0  0  0  0  0
    5.1485   -2.7057    0.0000 C   0  0  0  0  0  0  0  0  0  0  0  0
    8.4179   -1.7287    0.0000 C   0  0  0  0  0  0  0  0  0  0  0  0
    2.7433   -2.4427    0.0000 C   0  0  0  0  0  0  0  0  0  0  0  0
    2.4051   -1.6911    0.0000 C   0  0  3  0  0  0  0  0  0  0  0  0
   11.2740   -1.7287    0.0000 C   0  0  0  0  0  0  0  0  0  0  0  0
    4.0586   -1.8790    0.0000 C   0  0  0  0  0  0  0  0  0  0  0  0
    2.8936   -1.0146    0.0000 C   0  0  0  0  0  0  0  0  0  0  0  0
    3.7204   -1.1274    0.0000 C   0  0  0  0  0  0  0  0  0  0  0  0
    1.2777   -0.8643    0.0000 C   0  0  0  0  0  0  0  0  0  0  0  0
    1.1274   -2.2548    0.0000 C   0  0  0  0  0  0  0  0  0  0  0  0
    0.4885   -0.7516    0.0000 C   0  0  0  0  0  0  0  0  0  0  0  0
  1 18  1  0  0  0  0
  2 36  1  0  0  0  0
  3 36  1  0  0  0  0
  4 13  1  0  0  0  0
  5 23  2  0  0  0  0
  6  7  1  0  0  0  0
  6 13  1  0  0  0  0
  6 15  1  0  0  0  0
  7 17  2  0  0  0  0
  8 15  1  0  0  0  0
  8 25  2  0  0  0  0
  9 23  1  0  0  0  0
  9 28  1  0  0  0  0
  9 31  1  0  0  0  0
 29 10  1  1  0  0  0
 10 34  1  0  0  0  0
 10 35  1  0  0  0  0
 11 30  3  0  0  0  0
 12 13  2  0  0  0  0
 12 14  1  0  0  0  0
 12 17  1  0  0  0  0
 14 16  2  0  0  0  0
 14 19  1  0  0  0  0
 15 22  2  0  0  0  0
 16 18  1  0  0  0  0
 16 27  1  0  0  0  0
 18 21  2  0  0  0  0
 19 24  2  0  0  0  0
 20 23  1  0  0  0  0
 20 25  1  0  0  0  0
 20 26  2  0  0  0  0
 21 24  1  0  0  0  0
 21 30  1  0  0  0  0
 22 26  1  0  0  0  0
 28 29  1  0  0  0  0
 29 32  1  0  0  0  0
 31 33  1  0  0  0  0
 32 33  1  0  0  0  0
 34 36  1  0  0  0  0
M  END
> <PUBCHEM_COMPOUND_ID_TYPE>
0

> <PUBCHEM_TOTAL_CHARGE>
0

> <PUBCHEM_SUBSTANCE_ID>
310933077

> <PUBCHEM_SUBSTANCE_VERSION>
1

> <PUBCHEM_EXT_DATASOURCE_NAME>
4488

> <PUBCHEM_EXT_DATASOURCE_REGID>
SCHEMBL16110479

> <PUBCHEM_SUBSTANCE_COMMENT>
InChI=1S/C25H25F3N6O2/c1-15-19(7-5-16(10-29)23(15)28)20-12-31-34(25(20)36)22-8-6-17(11-30-22)24(35)33-9-3-4-18(13-33)32(2)14-21(26)27/h5-8,11-12,18,21,36H,3-4,9,13-14H2,1-2H3/t18-/m0/s1
InChIKey=FFCJAPWTGBTUDH-SFHVURJKSA-N

> <PUBCHEM_SUBSTANCE_SYNONYM>
SCHEMBL16110479

> <PUBCHEM_XREF_EXT_ID>
SCHEMBL16110479

> <PUBCHEM_EXT_DATASOURCE_URL>
https://www.surechembl.org/

> <PUBCHEM_EXT_SUBSTANCE_URL>
https://www.surechembl.org/chemical/SCHEMBL16110479

> <PUBCHEM_CID_ASSOCIATIONS>
117601537  1

> <PUBCHEM_COORDINATE_TYPE>
1
3

> <PUBCHEM_BONDANNOTATIONS>
29  10  5

$$$$
