310949669
  -OEChem-07211613022D

 25 26  0     0  0  0  0  0  0999 V2000
   -1.4125   -1.6657    0.0000 O   0  0  0  0  0  0  0  0  0  0  0  0
    2.1454    2.0787    0.0000 O   0  0  0  0  0  0  0  0  0  0  0  0
    3.5446    0.3998    0.0000 O   0  0  0  0  0  0  0  0  0  0  0  0
    2.8517    1.6657    0.0000 O   0  0  0  0  0  0  0  0  0  0  0  0
   -2.1188   -2.0787    0.0000 O   0  0  0  0  0  0  0  0  0  0  0  0
   -3.5446   -2.0787    0.0000 O   0  0  0  0  0  0  0  0  0  0  0  0
   -0.7063   -0.4131    0.0000 N   0  0  0  0  0  0  0  0  0  0  0  0
    1.4258    0.8262    0.0000 C   0  0  0  0  0  0  0  0  0  0  0  0
    2.1188    0.4131    0.0000 C   0  0  0  0  0  0  0  0  0  0  0  0
   -2.1321   -0.3998    0.0000 C   0  0  0  0  0  0  0  0  0  0  0  0
   -2.8250   -0.8129    0.0000 C   0  0  0  0  0  0  0  0  0  0  0  0
    0.7063   -0.4131    0.0000 C   0  0  0  0  0  0  0  0  0  0  0  0
    0.7195    0.4131    0.0000 C   0  0  0  0  0  0  0  0  0  0  0  0
   -1.4125   -0.7995    0.0000 C   0  0  0  0  0  0  0  0  0  0  0  0
    2.1188   -0.4264    0.0000 C   0  0  0  0  0  0  0  0  0  0  0  0
    1.4258    1.6657    0.0000 C   0  0  0  0  0  0  0  0  0  0  0  0
    1.4258   -0.8262    0.0000 C   0  0  0  0  0  0  0  0  0  0  0  0
    2.8250    0.8395    0.0000 C   0  0  0  0  0  0  0  0  0  0  0  0
    0.0000   -0.8395    0.0000 C   0  0  0  0  0  0  0  0  0  0  0  0
   -2.8650   -1.6523    0.0000 C   0  0  0  0  0  0  0  0  0  0  0  0
   -2.1321    0.4264    0.0000 C   0  0  0  0  0  0  0  0  0  0  0  0
   -3.5446   -0.3998    0.0000 C   0  0  0  0  0  0  0  0  0  0  0  0
   -2.8383    0.8262    0.0000 C   0  0  0  0  0  0  0  0  0  0  0  0
   -3.5446    0.4131    0.0000 C   0  0  0  0  0  0  0  0  0  0  0  0
    0.7063    2.0787    0.0000 C   0  0  0  0  0  0  0  0  0  0  0  0
  1 14  2  0  0  0  0
  2 16  2  0  0  0  0
  3 18  2  0  0  0  0
  4 18  1  0  0  0  0
  5 20  2  0  0  0  0
  6 20  1  0  0  0  0
  7 14  1  0  0  0  0
  7 19  1  0  0  0  0
  8  9  2  0  0  0  0
  8 13  1  0  0  0  0
  8 16  1  0  0  0  0
  9 15  1  0  0  0  0
  9 18  1  0  0  0  0
 10 11  2  0  0  0  0
 10 14  1  0  0  0  0
 10 21  1  0  0  0  0
 11 20  1  0  0  0  0
 11 22  1  0  0  0  0
 12 13  2  0  0  0  0
 12 17  1  0  0  0  0
 12 19  1  0  0  0  0
 15 17  2  0  0  0  0
 16 25  1  0  0  0  0
 21 23  2  0  0  0  0
 22 24  2  0  0  0  0
 23 24  1  0  0  0  0
M  END
> <PUBCHEM_COMPOUND_ID_TYPE>
0

> <PUBCHEM_TOTAL_CHARGE>
0

> <PUBCHEM_SUBSTANCE_ID>
310949669

> <PUBCHEM_SUBSTANCE_VERSION>
1

> <PUBCHEM_EXT_DATASOURCE_NAME>
4488

> <PUBCHEM_EXT_DATASOURCE_REGID>
SCHEMBL16127867

> <PUBCHEM_SUBSTANCE_COMMENT>
InChI=1S/C18H15NO6/c1-10(20)15-8-11(6-7-14(15)18(24)25)9-19-16(21)12-4-2-3-5-13(12)17(22)23/h2-8H,9H2,1H3,(H,19,21)(H,22,23)(H,24,25)
InChIKey=DMACOJSISYAUSN-UHFFFAOYSA-N

> <PUBCHEM_SUBSTANCE_SYNONYM>
SCHEMBL16127867

> <PUBCHEM_XREF_EXT_ID>
SCHEMBL16127867

> <PUBCHEM_EXT_DATASOURCE_URL>
https://www.surechembl.org/

> <PUBCHEM_EXT_SUBSTANCE_URL>
https://www.surechembl.org/chemical/SCHEMBL16127867

> <PUBCHEM_CID_ASSOCIATIONS>
117615042  1

> <PUBCHEM_COORDINATE_TYPE>
1
3

$$$$
