310943384
  -OEChem-07211613022D

 35 39  0     0  0  0  0  0  0999 V2000
   -3.9456   -0.8465    0.0000 O   0  0  0  0  0  0  0  0  0  0  0  0
    0.3534   -0.8465    0.0000 O   0  0  0  0  0  0  0  0  0  0  0  0
   -5.3590    1.6563    0.0000 O   0  0  0  0  0  0  0  0  0  0  0  0
    3.2095   -1.6563    0.0000 N   0  0  0  0  0  0  0  0  0  0  0  0
   -2.5028    0.8319    0.0000 N   0  0  0  0  0  0  0  0  0  0  0  0
   -3.9309    0.8319    0.0000 N   0  0  0  0  0  0  0  0  0  0  0  0
   -2.5176   -0.8319    0.0000 N   0  0  0  0  0  0  0  0  0  0  0  0
    1.0747    0.4049    0.0000 N   0  0  0  0  0  0  0  0  0  0  0  0
   -0.3534    2.0685    0.0000 N   0  0  0  0  0  0  0  0  0  0  0  0
    5.3590   -1.2587    0.0000 N   0  0  0  0  0  0  0  0  0  0  0  0
    3.9309   -0.4049    0.0000 C   0  0  0  0  0  0  0  0  0  0  0  0
    3.1948   -0.8171    0.0000 C   0  0  0  0  0  0  0  0  0  0  0  0
    3.5481    0.3018    0.0000 C   0  0  0  0  0  0  0  0  0  0  0  0
    4.3284    0.2724    0.0000 C   0  0  0  0  0  0  0  0  0  0  0  0
   -1.7815    0.4196    0.0000 C   0  0  0  0  0  0  0  0  0  0  0  0
   -1.0895    0.8319    0.0000 C   0  0  0  0  0  0  0  0  0  0  0  0
   -3.2095    0.4049    0.0000 C   0  0  0  0  0  0  0  0  0  0  0  0
    2.4881   -0.4196    0.0000 C   0  0  0  0  0  0  0  0  0  0  0  0
    4.6229   -0.8612    0.0000 C   0  0  0  0  0  0  0  0  0  0  0  0
    1.7815   -0.8319    0.0000 C   0  0  0  0  0  0  0  0  0  0  0  0
   -3.2390   -0.4196    0.0000 C   0  0  0  0  0  0  0  0  0  0  0  0
   -1.0600    1.6563    0.0000 C   0  0  0  0  0  0  0  0  0  0  0  0
    0.3534    0.8319    0.0000 C   0  0  0  0  0  0  0  0  0  0  0  0
   -0.3386    0.4196    0.0000 C   0  0  0  0  0  0  0  0  0  0  0  0
    1.0600   -0.4049    0.0000 C   0  0  0  0  0  0  0  0  0  0  0  0
   -1.8109   -0.4196    0.0000 C   0  0  0  0  0  0  0  0  0  0  0  0
    1.7815   -1.6563    0.0000 C   0  0  0  0  0  0  0  0  0  0  0  0
    2.5028   -2.0685    0.0000 C   0  0  0  0  0  0  0  0  0  0  0  0
    0.3681    1.6563    0.0000 C   0  0  0  0  0  0  0  0  0  0  0  0
   -3.9309    1.6563    0.0000 C   0  0  0  0  0  0  0  0  0  0  0  0
   -4.6229    0.4196    0.0000 C   0  0  0  0  0  0  0  0  0  0  0  0
   -1.7961    2.0538    0.0000 C   0  0  0  0  0  0  0  0  0  0  0  0
   -4.6523    2.0685    0.0000 C   0  0  0  0  0  0  0  0  0  0  0  0
   -5.3590    0.8319    0.0000 C   0  0  0  0  0  0  0  0  0  0  0  0
   -3.9309   -1.6857    0.0000 C   0  0  0  0  0  0  0  0  0  0  0  0
  1 21  1  0  0  0  0
  1 35  1  0  0  0  0
  2 25  2  0  0  0  0
  3 33  1  0  0  0  0
  3 34  1  0  0  0  0
  4 12  1  0  0  0  0
  4 28  2  0  0  0  0
  5 15  1  0  0  0  0
  5 17  2  0  0  0  0
  6 17  1  0  0  0  0
  6 30  1  0  0  0  0
  6 31  1  0  0  0  0
  7 21  2  0  0  0  0
  7 26  1  0  0  0  0
  8 23  1  0  0  0  0
  8 25  1  0  0  0  0
  9 22  1  0  0  0  0
  9 29  2  0  0  0  0
 10 19  3  0  0  0  0
 11 12  1  0  0  0  0
 11 13  1  0  0  0  0
 11 14  1  0  0  0  0
 11 19  1  0  0  0  0
 12 18  2  0  0  0  0
 13 14  1  0  0  0  0
 15 16  1  0  0  0  0
 15 26  2  0  0  0  0
 16 22  2  0  0  0  0
 16 24  1  0  0  0  0
 17 21  1  0  0  0  0
 18 20  1  0  0  0  0
 20 25  1  0  0  0  0
 20 27  2  0  0  0  0
 22 32  1  0  0  0  0
 23 24  2  0  0  0  0
 23 29  1  0  0  0  0
 27 28  1  0  0  0  0
 30 33  1  0  0  0  0
 31 34  1  0  0  0  0
M  END
> <PUBCHEM_COMPOUND_ID_TYPE>
0

> <PUBCHEM_TOTAL_CHARGE>
0

> <PUBCHEM_SUBSTANCE_ID>
310943384

> <PUBCHEM_SUBSTANCE_VERSION>
1

> <PUBCHEM_EXT_DATASOURCE_NAME>
4488

> <PUBCHEM_EXT_DATASOURCE_REGID>
SCHEMBL16121447

> <PUBCHEM_SUBSTANCE_COMMENT>
InChI=1S/C25H25N7O3/c1-16-19(20-14-29-24(34-2)22(31-20)32-7-9-35-10-8-32)12-18(13-28-16)30-23(33)17-3-6-27-21(11-17)25(15-26)4-5-25/h3,6,11-14H,4-5,7-10H2,1-2H3,(H,30,33)
InChIKey=MKSMMQHYPGOHAM-UHFFFAOYSA-N

> <PUBCHEM_SUBSTANCE_SYNONYM>
SCHEMBL16121447

> <PUBCHEM_XREF_EXT_ID>
SCHEMBL16121447

> <PUBCHEM_EXT_DATASOURCE_URL>
https://www.surechembl.org/

> <PUBCHEM_EXT_SUBSTANCE_URL>
https://www.surechembl.org/chemical/SCHEMBL16121447

> <PUBCHEM_CID_ASSOCIATIONS>
117609808  1

> <PUBCHEM_COORDINATE_TYPE>
1
3

$$$$
