310941878
  -OEChem-07211613022D

 19 22  0     1  0  0  0  0  0999 V2000
   -0.3074    0.5239    0.0000 O   0  0  0  0  0  0  0  0  0  0  0  0
    1.8581   -0.7335    0.0000 N   0  0  0  0  0  0  0  0  0  0  0  0
    1.3133   -1.9769    0.0000 N   0  0  0  0  0  0  0  0  0  0  0  0
    2.1376   -2.0607    0.0000 N   0  0  0  0  0  0  0  0  0  0  0  0
   -1.7464   -1.1386    0.0000 N   0  0  0  0  0  0  0  0  0  0  0  0
    1.1317    0.5099    0.0000 C   0  0  0  0  0  0  0  0  0  0  0  0
    0.4331    0.0908    0.0000 C   0  0  0  0  0  0  0  0  0  0  0  0
    1.1596    1.3761    0.0000 C   0  0  0  0  0  0  0  0  0  0  0  0
    1.1456   -1.1526    0.0000 C   0  0  0  0  0  0  0  0  0  0  0  0
    1.8581    0.0908    0.0000 C   0  0  0  0  0  0  0  0  0  0  0  0
    0.4191   -0.7335    0.0000 C   0  0  0  0  0  0  0  0  0  0  0  0
    0.7544    2.0607    0.0000 C   0  0  0  0  0  0  0  0  0  0  0  0
    1.5368    2.0468    0.0000 C   0  0  0  0  0  0  0  0  0  0  0  0
    2.4729   -1.3063    0.0000 C   0  0  0  0  0  0  0  0  0  0  0  0
   -1.0199    0.1048    0.0000 C   0  0  3  0  0  0  0  0  0  0  0  0
   -1.0338   -0.7195    0.0000 C   0  0  0  0  0  0  0  0  0  0  0  0
   -1.7603    0.5099    0.0000 C   0  0  0  0  0  0  0  0  0  0  0  0
   -2.4589    0.1048    0.0000 C   0  0  0  0  0  0  0  0  0  0  0  0
   -2.4729   -0.7335    0.0000 C   0  0  0  0  0  0  0  0  0  0  0  0
  1  7  1  0  0  0  0
 15  1  1  1  0  0  0
  2  9  1  0  0  0  0
  2 10  1  0  0  0  0
  2 14  1  0  0  0  0
  3  4  1  0  0  0  0
  3  9  2  0  0  0  0
  4 14  2  0  0  0  0
  5 16  1  0  0  0  0
  5 19  1  0  0  0  0
  6  7  1  0  0  0  0
  6  8  1  0  0  0  0
  6 10  2  0  0  0  0
  7 11  2  0  0  0  0
  8 12  1  0  0  0  0
  8 13  1  0  0  0  0
  9 11  1  0  0  0  0
 12 13  1  0  0  0  0
 15 16  1  0  0  0  0
 15 17  1  0  0  0  0
 17 18  1  0  0  0  0
 18 19  1  0  0  0  0
M  END
> <PUBCHEM_COMPOUND_ID_TYPE>
0

> <PUBCHEM_TOTAL_CHARGE>
0

> <PUBCHEM_SUBSTANCE_ID>
310941878

> <PUBCHEM_SUBSTANCE_VERSION>
1

> <PUBCHEM_EXT_DATASOURCE_NAME>
4488

> <PUBCHEM_EXT_DATASOURCE_REGID>
SCHEMBL16119910

> <PUBCHEM_SUBSTANCE_COMMENT>
InChI=1S/C14H18N4O/c1-2-11(7-15-5-1)19-13-6-14-17-16-9-18(14)8-12(13)10-3-4-10/h6,8-11,15H,1-5,7H2/t11-/m1/s1
InChIKey=KCPRZUIOAJKUHQ-LLVKDONJSA-N

> <PUBCHEM_SUBSTANCE_SYNONYM>
SCHEMBL16119910

> <PUBCHEM_XREF_EXT_ID>
SCHEMBL16119910

> <PUBCHEM_EXT_DATASOURCE_URL>
https://www.surechembl.org/

> <PUBCHEM_EXT_SUBSTANCE_URL>
https://www.surechembl.org/chemical/SCHEMBL16119910

> <PUBCHEM_CID_ASSOCIATIONS>
117608614  1

> <PUBCHEM_COORDINATE_TYPE>
1
3

> <PUBCHEM_BONDANNOTATIONS>
15  1  5

$$$$
