310940949
  -OEChem-07211613022D

 43 46  0     1  0  0  0  0  0999 V2000
   -5.9149   -0.1712    0.0000 F   0  0  0  0  0  0  0  0  0  0  0  0
   -5.4947    0.5604    0.0000 F   0  0  0  0  0  0  0  0  0  0  0  0
    5.6347   -1.0118    0.0000 O   0  0  0  0  0  0  0  0  0  0  0  0
    4.4985    0.9495    0.0000 O   0  0  0  0  0  0  0  0  0  0  0  0
    2.1170   -0.9962    0.0000 O   0  0  0  0  0  0  0  0  0  0  0  0
   -0.0467    1.0896    0.0000 O   0  0  0  0  0  0  0  0  0  0  0  0
   -2.2103   -0.9962    0.0000 O   0  0  0  0  0  0  0  0  0  0  0  0
    4.2806    2.7395    0.0000 O   0  0  0  0  0  0  0  0  0  0  0  0
    2.8174    0.2490    0.0000 N   0  0  0  0  0  0  0  0  0  0  0  0
    0.6693   -0.1712    0.0000 N   0  0  0  0  0  0  0  0  0  0  0  0
   -3.6580   -0.1712    0.0000 N   0  0  3  0  0  0  0  0  0  0  0  0
   -1.4943    0.2490    0.0000 N   0  0  0  0  0  0  0  0  0  0  0  0
    5.2145   -0.2802    0.0000 C   0  0  3  0  0  0  0  0  0  0  0  0
    4.4206    0.1401    0.0000 C   0  0  0  0  0  0  0  0  0  0  0  0
    4.7942   -0.9806    0.0000 C   0  0  0  0  0  0  0  0  0  0  0  0
    3.7981   -0.2490    0.0000 C   0  0  3  0  0  0  0  0  0  0  0  0
    5.9149    0.1557    0.0000 C   0  0  0  0  0  0  0  0  0  0  0  0
    3.7825   -1.3698    0.0000 C   0  0  0  0  0  0  0  0  0  0  0  0
    2.1014   -0.1089    0.0000 C   0  0  0  0  0  0  0  0  0  0  0  0
    1.3853    0.2802    0.0000 C   0  0  3  0  0  0  0  0  0  0  0  0
    3.0509   -1.7589    0.0000 C   0  0  0  0  0  0  0  0  0  0  0  0
    1.4009    1.1052    0.0000 C   0  0  0  0  0  0  0  0  0  0  0  0
   -0.0467    0.2646    0.0000 C   0  0  0  0  0  0  0  0  0  0  0  0
    2.2882   -1.4321    0.0000 C   0  0  0  0  0  0  0  0  0  0  0  0
    2.9575   -2.5839    0.0000 C   0  0  0  0  0  0  0  0  0  0  0  0
    2.1014    1.5254    0.0000 C   0  0  0  0  0  0  0  0  0  0  0  0
   -5.1055   -0.1245    0.0000 C   0  0  0  0  0  0  0  0  0  0  0  0
   -0.7627   -0.1401    0.0000 C   0  0  3  0  0  0  0  0  0  0  0  0
   -4.3895    0.2646    0.0000 C   0  0  0  0  0  0  0  0  0  0  0  0
    1.7433   -2.0702    0.0000 C   0  0  0  0  0  0  0  0  0  0  0  0
    2.1636   -2.7551    0.0000 C   0  0  0  0  0  0  0  0  0  0  0  0
   -2.2103   -0.1089    0.0000 C   0  0  0  0  0  0  0  0  0  0  0  0
   -2.9419    0.2646    0.0000 C   0  0  0  0  0  0  0  0  0  0  0  0
    2.8330    1.1207    0.0000 C   0  0  0  0  0  0  0  0  0  0  0  0
    2.1170    2.3504    0.0000 C   0  0  0  0  0  0  0  0  0  0  0  0
   -5.0900   -0.9651    0.0000 C   0  0  0  0  0  0  0  0  0  0  0  0
   -3.6580   -0.9806    0.0000 C   0  0  0  0  0  0  0  0  0  0  0  0
   -4.3584   -1.3853    0.0000 C   0  0  0  0  0  0  0  0  0  0  0  0
    3.5645    2.3504    0.0000 C   0  0  0  0  0  0  0  0  0  0  0  0
    3.5489    1.5254    0.0000 C   0  0  0  0  0  0  0  0  0  0  0  0
    2.8485    2.7551    0.0000 C   0  0  0  0  0  0  0  0  0  0  0  0
   -0.7627   -0.9651    0.0000 C   0  0  0  0  0  0  0  0  0  0  0  0
    5.0122    2.3348    0.0000 C   0  0  0  0  0  0  0  0  0  0  0  0
  1 27  1  0  0  0  0
  2 27  1  0  0  0  0
  3 13  1  0  0  0  0
  3 15  1  0  0  0  0
  4 14  2  0  0  0  0
  5 19  2  0  0  0  0
  6 23  2  0  0  0  0
  7 32  2  0  0  0  0
  8 39  1  0  0  0  0
  8 43  1  0  0  0  0
 16  9  1  6  0  0  0
  9 19  1  0  0  0  0
 20 10  1  1  0  0  0
 10 23  1  0  0  0  0
 11 29  1  0  0  0  0
 11 33  1  0  0  0  0
 11 37  1  0  0  0  0
 12 28  1  0  0  0  0
 12 32  1  0  0  0  0
 13 14  1  6  0  0  0
 13 15  1  0  0  0  0
 13 17  1  1  0  0  0
 14 16  1  0  0  0  0
 16 18  1  0  0  0  0
 18 21  1  0  0  0  0
 19 20  1  0  0  0  0
 20 22  1  0  0  0  0
 21 24  1  0  0  0  0
 21 25  1  0  0  0  0
 22 26  1  0  0  0  0
 23 28  1  0  0  0  0
 24 30  1  0  0  0  0
 25 31  1  0  0  0  0
 26 34  2  0  0  0  0
 26 35  1  0  0  0  0
 27 29  1  0  0  0  0
 27 36  1  0  0  0  0
 28 42  1  6  0  0  0
 30 31  1  0  0  0  0
 32 33  1  0  0  0  0
 34 40  1  0  0  0  0
 35 41  2  0  0  0  0
 36 38  1  0  0  0  0
 37 38  1  0  0  0  0
 39 40  2  0  0  0  0
 39 41  1  0  0  0  0
M  END
> <PUBCHEM_COMPOUND_ID_TYPE>
0

> <PUBCHEM_TOTAL_CHARGE>
0

> <PUBCHEM_SUBSTANCE_ID>
310940949

> <PUBCHEM_SUBSTANCE_VERSION>
1

> <PUBCHEM_EXT_DATASOURCE_NAME>
4488

> <PUBCHEM_EXT_DATASOURCE_REGID>
SCHEMBL16118908

> <PUBCHEM_SUBSTANCE_COMMENT>
InChI=1S/C31H44F2N4O6/c1-20(34-26(38)17-37-14-6-13-31(32,33)18-37)28(40)36-25(16-22-9-11-23(42-3)12-10-22)29(41)35-24(15-21-7-4-5-8-21)27(39)30(2)19-43-30/h9-12,20-21,24-25H,4-8,13-19H2,1-3H3,(H,34,38)(H,35,41)(H,36,40)/t20-,24-,25-,30+/m0/s1
InChIKey=DKIKJTDFYIHQPV-NHPFZIKMSA-N

> <PUBCHEM_SUBSTANCE_SYNONYM>
SCHEMBL16118908

> <PUBCHEM_XREF_EXT_ID>
SCHEMBL16118908

> <PUBCHEM_EXT_DATASOURCE_URL>
https://www.surechembl.org/

> <PUBCHEM_EXT_SUBSTANCE_URL>
https://www.surechembl.org/chemical/SCHEMBL16118908

> <PUBCHEM_CID_ASSOCIATIONS>
117607857  1

> <PUBCHEM_COORDINATE_TYPE>
1
3

> <PUBCHEM_BONDANNOTATIONS>
20  10  5
13  14  6
13  17  5
28  42  6
16  9  6

$$$$
