310935199
  -OEChem-07211613022D

 13 14  0     0  0  0  0  0  0999 V2000
    3.5416   -2.4749    0.0000 O   0  0  0  0  0  0  0  0  0  0  0  0
    0.7112    0.0000    0.0000 O   0  0  0  0  0  0  0  0  0  0  0  0
    2.1335   -2.4749    0.0000 N   0  0  0  0  0  0  0  0  0  0  0  0
    0.0000   -1.2232    0.0000 N   0  0  0  0  0  0  0  0  0  0  0  0
    2.8589   -1.2374    0.0000 C   0  0  0  0  0  0  0  0  0  0  0  0
    2.8589   -2.0624    0.0000 C   0  0  0  0  0  0  0  0  0  0  0  0
    1.4223   -1.2374    0.0000 C   0  0  0  0  0  0  0  0  0  0  0  0
    2.1335   -0.8249    0.0000 C   0  0  0  0  0  0  0  0  0  0  0  0
    1.4223   -2.0624    0.0000 C   0  0  0  0  0  0  0  0  0  0  0  0
    0.6969   -0.8249    0.0000 C   0  0  0  0  0  0  0  0  0  0  0  0
    3.5416   -0.8249    0.0000 C   0  0  0  0  0  0  0  0  0  0  0  0
    4.2670   -1.2374    0.0000 C   0  0  0  0  0  0  0  0  0  0  0  0
    4.2670   -2.0624    0.0000 C   0  0  0  0  0  0  0  0  0  0  0  0
  1  6  1  0  0  0  0
  1 13  1  0  0  0  0
  2 10  2  0  0  0  0
  3  6  1  0  0  0  0
  3  9  2  0  0  0  0
  4 10  1  0  0  0  0
  5  6  2  0  0  0  0
  5  8  1  0  0  0  0
  5 11  1  0  0  0  0
  7  8  2  0  0  0  0
  7  9  1  0  0  0  0
  7 10  1  0  0  0  0
 11 12  2  0  0  0  0
 12 13  1  0  0  0  0
M  END
> <PUBCHEM_COMPOUND_ID_TYPE>
0

> <PUBCHEM_TOTAL_CHARGE>
0

> <PUBCHEM_SUBSTANCE_ID>
310935199

> <PUBCHEM_SUBSTANCE_VERSION>
1

> <PUBCHEM_EXT_DATASOURCE_NAME>
4488

> <PUBCHEM_EXT_DATASOURCE_REGID>
SCHEMBL16112727

> <PUBCHEM_SUBSTANCE_COMMENT>
InChI=1S/C9H8N2O2/c10-8(12)7-4-6-2-1-3-13-9(6)11-5-7/h1-2,4-5H,3H2,(H2,10,12)
InChIKey=RJOACHZLIDEHEA-UHFFFAOYSA-N

> <PUBCHEM_SUBSTANCE_SYNONYM>
SCHEMBL16112727

> <PUBCHEM_XREF_EXT_ID>
SCHEMBL16112727

> <PUBCHEM_EXT_DATASOURCE_URL>
https://www.surechembl.org/

> <PUBCHEM_EXT_SUBSTANCE_URL>
https://www.surechembl.org/chemical/SCHEMBL16112727

> <PUBCHEM_CID_ASSOCIATIONS>
117603279  1

> <PUBCHEM_COORDINATE_TYPE>
1
3

$$$$
