310948866
  -OEChem-07211613022D

 25 25  0     1  0  0  0  0  0999 V2000
    0.0000    1.1272    0.0000 O   0  0  0  0  0  0  0  0  0  0  0  0
    0.0000   -1.3763    0.0000 O   0  0  0  0  0  0  0  0  0  0  0  0
    1.4385   -0.5464    0.0000 O   0  0  0  0  0  0  0  0  0  0  0  0
   -1.4385   -0.5464    0.0000 O   0  0  0  0  0  0  0  0  0  0  0  0
    1.4385    1.1134    0.0000 O   0  0  0  0  0  0  0  0  0  0  0  0
   -1.4523    1.9571    0.0000 O   0  0  0  0  0  0  0  0  0  0  0  0
    0.7468   -2.5795    0.0000 O   0  0  0  0  0  0  0  0  0  0  0  0
    2.8493   -0.5187    0.0000 O   0  0  0  0  0  0  0  0  0  0  0  0
   -2.1992    3.1190    0.0000 O   0  0  0  0  0  0  0  0  0  0  0  0
    0.0000   -0.5325    0.0000 C   0  0  3  0  0  0  0  0  0  0  0  0
   -0.7331   -0.1176    0.0000 C   0  0  3  0  0  0  0  0  0  0  0  0
    0.7054   -0.1176    0.0000 C   0  0  3  0  0  0  0  0  0  0  0  0
   -0.7192    0.7123    0.0000 C   0  0  3  0  0  0  0  0  0  0  0  0
    0.7192    0.6846    0.0000 C   0  0  3  0  0  0  0  0  0  0  0  0
   -1.4385    1.1272    0.0000 C   0  0  0  0  0  0  0  0  0  0  0  0
    0.7468   -1.8051    0.0000 C   0  0  0  0  0  0  0  0  0  0  0  0
    2.1854   -0.1314    0.0000 C   0  0  0  0  0  0  0  0  0  0  0  0
   -1.3831   -1.3486    0.0000 C   0  0  0  0  0  0  0  0  0  0  0  0
   -2.1992    2.3444    0.0000 C   0  0  0  0  0  0  0  0  0  0  0  0
    1.4246   -1.3763    0.0000 C   0  0  0  0  0  0  0  0  0  0  0  0
   -2.0470   -1.8051    0.0000 C   0  0  0  0  0  0  0  0  0  0  0  0
    2.1577    0.6708    0.0000 C   0  0  0  0  0  0  0  0  0  0  0  0
   -1.9778   -2.6487    0.0000 C   0  0  0  0  0  0  0  0  0  0  0  0
   -2.8493    1.9296    0.0000 C   0  0  0  0  0  0  0  0  0  0  0  0
   -2.6557   -3.1190    0.0000 C   0  0  0  0  0  0  0  0  0  0  0  0
  1 13  1  0  0  0  0
  1 14  1  0  0  0  0
 10  2  1  1  0  0  0
  2 16  1  0  0  0  0
 12  3  1  1  0  0  0
  3 17  1  0  0  0  0
 11  4  1  6  0  0  0
  4 18  1  0  0  0  0
  5 14  1  0  0  0  0
  6 15  1  0  0  0  0
  6 19  1  0  0  0  0
  7 16  2  0  0  0  0
  8 17  2  0  0  0  0
  9 19  2  0  0  0  0
 10 11  1  0  0  0  0
 10 12  1  0  0  0  0
 11 13  1  0  0  0  0
 12 14  1  0  0  0  0
 13 15  1  1  0  0  0
 16 20  1  0  0  0  0
 17 22  1  0  0  0  0
 18 21  1  0  0  0  0
 19 24  1  0  0  0  0
 21 23  1  0  0  0  0
 23 25  1  0  0  0  0
M  END
> <PUBCHEM_COMPOUND_ID_TYPE>
0

> <PUBCHEM_TOTAL_CHARGE>
0

> <PUBCHEM_SUBSTANCE_ID>
310948866

> <PUBCHEM_SUBSTANCE_VERSION>
1

> <PUBCHEM_EXT_DATASOURCE_NAME>
4488

> <PUBCHEM_EXT_DATASOURCE_REGID>
SCHEMBL16127051

> <PUBCHEM_SUBSTANCE_COMMENT>
InChI=1S/C16H26O9/c1-5-6-7-21-13-12(8-22-9(2)17)25-16(20)15(24-11(4)19)14(13)23-10(3)18/h12-16,20H,5-8H2,1-4H3/t12-,13-,14+,15+,16?/m1/s1
InChIKey=MHIOEAYSUVVVMR-WHWZVRATSA-N

> <PUBCHEM_SUBSTANCE_SYNONYM>
SCHEMBL16127051

> <PUBCHEM_XREF_EXT_ID>
SCHEMBL16127051

> <PUBCHEM_EXT_DATASOURCE_URL>
https://www.surechembl.org/

> <PUBCHEM_EXT_SUBSTANCE_URL>
https://www.surechembl.org/chemical/SCHEMBL16127051

> <PUBCHEM_CID_ASSOCIATIONS>
117614399  1

> <PUBCHEM_COORDINATE_TYPE>
1
3

> <PUBCHEM_BONDANNOTATIONS>
13  15  5
10  2  5
12  3  5
11  4  6
14  5  3

$$$$
