310945026
  -OEChem-07211613022D

 34 38  0     0  0  0  0  0  0999 V2000
    1.5851    1.5506    0.0000 S   0  0  0  0  0  0  0  0  0  0  0  0
   -3.9799   -1.3094    0.0000 S   0  0  0  0  0  0  0  0  0  0  0  0
    3.8249   -2.4982    0.0000 O   0  0  0  0  0  0  0  0  0  0  0  0
    4.5313   -1.2405    0.0000 O   0  0  0  0  0  0  0  0  0  0  0  0
   -4.1178   -2.6533    0.0000 N   0  0  0  0  0  0  0  0  0  0  0  0
   -0.4135    0.8443    0.0000 C   0  0  0  0  0  0  0  0  0  0  0  0
   -0.4307    0.0000    0.0000 C   0  0  0  0  0  0  0  0  0  0  0  0
    0.2929    1.2750    0.0000 C   0  0  0  0  0  0  0  0  0  0  0  0
   -1.1543    1.2750    0.0000 C   0  0  0  0  0  0  0  0  0  0  0  0
   -1.1199   -0.4135    0.0000 C   0  0  0  0  0  0  0  0  0  0  0  0
    0.2929   -0.4135    0.0000 C   0  0  0  0  0  0  0  0  0  0  0  0
    0.3962    2.1020    0.0000 C   0  0  0  0  0  0  0  0  0  0  0  0
    1.0510    0.9304    0.0000 C   0  0  0  0  0  0  0  0  0  0  0  0
   -1.8953    1.0510    0.0000 C   0  0  0  0  0  0  0  0  0  0  0  0
   -1.3439    2.0503    0.0000 C   0  0  0  0  0  0  0  0  0  0  0  0
   -1.8091   -0.0172    0.0000 C   0  0  0  0  0  0  0  0  0  0  0  0
   -1.1372   -1.2577    0.0000 C   0  0  0  0  0  0  0  0  0  0  0  0
   -2.5499   -1.2577    0.0000 C   0  0  0  0  0  0  0  0  0  0  0  0
    0.3101   -1.2405    0.0000 C   0  0  0  0  0  0  0  0  0  0  0  0
    1.0165   -0.0172    0.0000 C   0  0  0  0  0  0  0  0  0  0  0  0
   -2.1020    1.8435    0.0000 C   0  0  0  0  0  0  0  0  0  0  0  0
    1.1888    2.2570    0.0000 C   0  0  0  0  0  0  0  0  0  0  0  0
   -2.5155   -0.4135    0.0000 C   0  0  0  0  0  0  0  0  0  0  0  0
   -1.7918   -1.6540    0.0000 C   0  0  0  0  0  0  0  0  0  0  0  0
   -3.2391   -1.6712    0.0000 C   0  0  0  0  0  0  0  0  0  0  0  0
    1.6884   -1.2405    0.0000 C   0  0  0  0  0  0  0  0  0  0  0  0
    1.0338   -1.6540    0.0000 C   0  0  0  0  0  0  0  0  0  0  0  0
    1.6884   -0.4135    0.0000 C   0  0  0  0  0  0  0  0  0  0  0  0
   -0.2412    2.6533    0.0000 C   0  0  0  0  0  0  0  0  0  0  0  0
   -3.3252   -2.4982    0.0000 C   0  0  0  0  0  0  0  0  0  0  0  0
    2.4465   -1.6540    0.0000 C   0  0  0  0  0  0  0  0  0  0  0  0
   -4.5313   -1.9469    0.0000 C   0  0  0  0  0  0  0  0  0  0  0  0
    3.1013   -1.2577    0.0000 C   0  0  0  0  0  0  0  0  0  0  0  0
    3.8249   -1.6368    0.0000 C   0  0  0  0  0  0  0  0  0  0  0  0
  1 13  1  0  0  0  0
  1 22  1  0  0  0  0
  2 25  1  0  0  0  0
  2 32  1  0  0  0  0
  3 34  2  0  0  0  0
  4 34  1  0  0  0  0
  5 30  1  0  0  0  0
  5 32  2  0  0  0  0
  6  7  2  0  0  0  0
  6  8  1  0  0  0  0
  6  9  1  0  0  0  0
  7 10  1  0  0  0  0
  7 11  1  0  0  0  0
  8 12  1  0  0  0  0
  8 13  2  0  0  0  0
  9 14  1  0  0  0  0
  9 15  1  0  0  0  0
 10 16  2  0  0  0  0
 10 17  1  0  0  0  0
 11 19  2  0  0  0  0
 11 20  1  0  0  0  0
 12 22  2  0  0  0  0
 12 29  1  0  0  0  0
 14 21  1  0  0  0  0
 15 21  1  0  0  0  0
 16 23  1  0  0  0  0
 17 24  2  0  0  0  0
 18 23  2  0  0  0  0
 18 24  1  0  0  0  0
 18 25  1  0  0  0  0
 19 27  1  0  0  0  0
 20 28  2  0  0  0  0
 25 30  2  0  0  0  0
 26 27  2  0  0  0  0
 26 28  1  0  0  0  0
 26 31  1  0  0  0  0
 31 33  2  0  0  0  0
 33 34  1  0  0  0  0
M  END
> <PUBCHEM_COMPOUND_ID_TYPE>
0

> <PUBCHEM_TOTAL_CHARGE>
0

> <PUBCHEM_SUBSTANCE_ID>
310945026

> <PUBCHEM_SUBSTANCE_VERSION>
1

> <PUBCHEM_EXT_DATASOURCE_NAME>
4488

> <PUBCHEM_EXT_DATASOURCE_REGID>
SCHEMBL16123114

> <PUBCHEM_SUBSTANCE_COMMENT>
InChI=1S/C29H25NO2S2/c1-19-16-33-17-25(19)29(22-3-2-4-22)28(23-8-5-20(6-9-23)7-14-27(31)32)24-12-10-21(11-13-24)26-15-30-18-34-26/h5-18,22H,2-4H2,1H3,(H,31,32)/b14-7+,29-28+
InChIKey=SHVQHQNTCLROBM-ZDZQMEADSA-N

> <PUBCHEM_SUBSTANCE_SYNONYM>
SCHEMBL16123114

> <PUBCHEM_XREF_EXT_ID>
SCHEMBL16123114

> <PUBCHEM_EXT_DATASOURCE_URL>
https://www.surechembl.org/

> <PUBCHEM_EXT_SUBSTANCE_URL>
https://www.surechembl.org/chemical/SCHEMBL16123114

> <PUBCHEM_CID_ASSOCIATIONS>
86271554  1

> <PUBCHEM_COORDINATE_TYPE>
1
3

$$$$
