310943483
  -OEChem-07211613022D

 34 37  0     0  0  0  0  0  0999 V2000
    3.2361   -2.0702    0.0000 F   0  0  0  0  0  0  0  0  0  0  0  0
   -3.2361   -0.8328    0.0000 O   0  0  0  0  0  0  0  0  0  0  0  0
   -4.6797    1.6419    0.0000 O   0  0  0  0  0  0  0  0  0  0  0  0
    2.5064    1.6419    0.0000 O   0  0  0  0  0  0  0  0  0  0  0  0
   -1.7926   -0.8328    0.0000 N   0  0  0  0  0  0  0  0  0  0  0  0
   -1.0787   -0.4204    0.0000 N   0  0  0  0  0  0  0  0  0  0  0  0
   -3.2361    0.8328    0.0000 N   0  0  0  0  0  0  0  0  0  0  0  0
    0.3490    2.0702    0.0000 N   0  0  0  0  0  0  0  0  0  0  0  0
    1.7926    0.4204    0.0000 N   0  0  0  0  0  0  0  0  0  0  0  0
    4.6639   -0.4204    0.0000 N   0  0  0  0  0  0  0  0  0  0  0  0
   -1.0787    0.4204    0.0000 C   0  0  0  0  0  0  0  0  0  0  0  0
   -2.5064    0.4204    0.0000 C   0  0  0  0  0  0  0  0  0  0  0  0
   -0.3649    0.8328    0.0000 C   0  0  0  0  0  0  0  0  0  0  0  0
   -2.5064   -0.3887    0.0000 C   0  0  0  0  0  0  0  0  0  0  0  0
   -1.7926    0.8328    0.0000 C   0  0  0  0  0  0  0  0  0  0  0  0
   -0.3490    1.6577    0.0000 C   0  0  0  0  0  0  0  0  0  0  0  0
    0.3808    0.4204    0.0000 C   0  0  0  0  0  0  0  0  0  0  0  0
    1.0628    0.8328    0.0000 C   0  0  0  0  0  0  0  0  0  0  0  0
    3.2361    0.4204    0.0000 C   0  0  0  0  0  0  0  0  0  0  0  0
    1.0787    1.6577    0.0000 C   0  0  0  0  0  0  0  0  0  0  0  0
    2.5064    0.8169    0.0000 C   0  0  0  0  0  0  0  0  0  0  0  0
    3.9500   -0.8169    0.0000 C   0  0  0  0  0  0  0  0  0  0  0  0
   -3.2361    1.6577    0.0000 C   0  0  0  0  0  0  0  0  0  0  0  0
   -3.9342    0.4204    0.0000 C   0  0  0  0  0  0  0  0  0  0  0  0
    3.9500   -1.6419    0.0000 C   0  0  0  0  0  0  0  0  0  0  0  0
    3.2361   -0.4204    0.0000 C   0  0  0  0  0  0  0  0  0  0  0  0
   -1.7767   -1.6736    0.0000 C   0  0  0  0  0  0  0  0  0  0  0  0
    3.9500    0.8328    0.0000 C   0  0  0  0  0  0  0  0  0  0  0  0
   -1.0946    2.0543    0.0000 C   0  0  0  0  0  0  0  0  0  0  0  0
   -3.9659    2.0702    0.0000 C   0  0  0  0  0  0  0  0  0  0  0  0
   -4.6639    0.8169    0.0000 C   0  0  0  0  0  0  0  0  0  0  0  0
    4.6639    0.4204    0.0000 C   0  0  0  0  0  0  0  0  0  0  0  0
    4.6797   -1.2611    0.0000 C   0  0  0  0  0  0  0  0  0  0  0  0
    4.6797   -2.0702    0.0000 C   0  0  0  0  0  0  0  0  0  0  0  0
  1 25  1  0  0  0  0
  2 14  2  0  0  0  0
  3 30  1  0  0  0  0
  3 31  1  0  0  0  0
  4 21  2  0  0  0  0
  5  6  1  0  0  0  0
  5 14  1  0  0  0  0
  5 27  1  0  0  0  0
  6 11  2  0  0  0  0
  7 12  1  0  0  0  0
  7 23  1  0  0  0  0
  7 24  1  0  0  0  0
  8 16  2  0  0  0  0
  8 20  1  0  0  0  0
  9 18  1  0  0  0  0
  9 21  1  0  0  0  0
 10 22  2  0  0  0  0
 10 32  1  0  0  0  0
 11 13  1  0  0  0  0
 11 15  1  0  0  0  0
 12 14  1  0  0  0  0
 12 15  2  0  0  0  0
 13 16  1  0  0  0  0
 13 17  2  0  0  0  0
 16 29  1  0  0  0  0
 17 18  1  0  0  0  0
 18 20  2  0  0  0  0
 19 21  1  0  0  0  0
 19 26  2  0  0  0  0
 19 28  1  0  0  0  0
 22 25  1  0  0  0  0
 22 26  1  0  0  0  0
 23 30  1  0  0  0  0
 24 31  1  0  0  0  0
 25 33  1  0  0  0  0
 25 34  1  0  0  0  0
 28 32  2  0  0  0  0
M  END
> <PUBCHEM_COMPOUND_ID_TYPE>
0

> <PUBCHEM_TOTAL_CHARGE>
0

> <PUBCHEM_SUBSTANCE_ID>
310943483

> <PUBCHEM_SUBSTANCE_VERSION>
1

> <PUBCHEM_EXT_DATASOURCE_NAME>
4488

> <PUBCHEM_EXT_DATASOURCE_REGID>
SCHEMBL16121548

> <PUBCHEM_SUBSTANCE_COMMENT>
InChI=1S/C24H27FN6O3/c1-15-18(19-13-20(23(33)30(4)29-19)31-7-9-34-10-8-31)12-17(14-27-15)28-22(32)16-5-6-26-21(11-16)24(2,3)25/h5-6,11-14H,7-10H2,1-4H3,(H,28,32)
InChIKey=MOUAKHSIRKLVDE-UHFFFAOYSA-N

> <PUBCHEM_SUBSTANCE_SYNONYM>
SCHEMBL16121548

> <PUBCHEM_XREF_EXT_ID>
SCHEMBL16121548

> <PUBCHEM_EXT_DATASOURCE_URL>
https://www.surechembl.org/

> <PUBCHEM_EXT_SUBSTANCE_URL>
https://www.surechembl.org/chemical/SCHEMBL16121548

> <PUBCHEM_CID_ASSOCIATIONS>
117609905  1

> <PUBCHEM_COORDINATE_TYPE>
1
3

$$$$
