310934133
  -OEChem-07211613022D

 23 25  0     0  0  0  0  0  0999 V2000
    1.6397    0.7300    0.0000 O   0  0  0  0  0  0  0  0  0  0  0  0
   -1.4290   -1.6500    0.0000 O   0  0  0  0  0  0  0  0  0  0  0  0
    0.0000   -1.6500    0.0000 O   0  0  0  0  0  0  0  0  0  0  0  0
    4.3323    0.9898    0.0000 O   0  0  0  0  0  0  0  0  0  0  0  0
    0.7145   -0.4125    0.0000 N   0  0  0  0  0  0  0  0  0  0  0  0
    0.8007   -1.2330    0.0000 N   0  0  0  0  0  0  0  0  0  0  0  0
   -1.4290    0.8250    0.0000 N   0  0  0  0  0  0  0  0  0  0  0  0
    4.4816   -0.4314    0.0000 N   0  0  0  0  0  0  0  0  0  0  0  0
    1.4681   -0.0770    0.0000 C   0  0  0  0  0  0  0  0  0  0  0  0
    2.0202   -0.6901    0.0000 C   0  0  0  0  0  0  0  0  0  0  0  0
    0.0000    0.0000    0.0000 C   0  0  0  0  0  0  0  0  0  0  0  0
    2.8407   -0.6038    0.0000 C   0  0  0  0  0  0  0  0  0  0  0  0
   -0.7145   -0.4125    0.0000 C   0  0  0  0  0  0  0  0  0  0  0  0
    1.6077   -1.4045    0.0000 C   0  0  0  0  0  0  0  0  0  0  0  0
    0.0000    0.8250    0.0000 C   0  0  0  0  0  0  0  0  0  0  0  0
   -0.7145   -1.2375    0.0000 C   0  0  0  0  0  0  0  0  0  0  0  0
    3.1762    0.1499    0.0000 C   0  0  0  0  0  0  0  0  0  0  0  0
   -1.4290    0.0000    0.0000 C   0  0  0  0  0  0  0  0  0  0  0  0
    3.3256   -1.2713    0.0000 C   0  0  0  0  0  0  0  0  0  0  0  0
    3.9967    0.2361    0.0000 C   0  0  0  0  0  0  0  0  0  0  0  0
   -0.7145    1.2375    0.0000 C   0  0  0  0  0  0  0  0  0  0  0  0
    4.1460   -1.1850    0.0000 C   0  0  0  0  0  0  0  0  0  0  0  0
    5.1527    1.0760    0.0000 C   0  0  0  0  0  0  0  0  0  0  0  0
  1  9  1  0  0  0  0
  2 16  2  0  0  0  0
  3 16  1  0  0  0  0
  4 20  1  0  0  0  0
  4 23  1  0  0  0  0
  5  6  1  0  0  0  0
  5  9  1  0  0  0  0
  5 11  1  0  0  0  0
  6 14  2  0  0  0  0
  7 18  1  0  0  0  0
  7 21  2  0  0  0  0
  8 20  2  0  0  0  0
  8 22  1  0  0  0  0
  9 10  2  0  0  0  0
 10 12  1  0  0  0  0
 10 14  1  0  0  0  0
 11 13  1  0  0  0  0
 11 15  2  0  0  0  0
 12 17  2  0  0  0  0
 12 19  1  0  0  0  0
 13 16  1  0  0  0  0
 13 18  2  0  0  0  0
 15 21  1  0  0  0  0
 17 20  1  0  0  0  0
 19 22  2  0  0  0  0
M  END
> <PUBCHEM_COMPOUND_ID_TYPE>
0

> <PUBCHEM_TOTAL_CHARGE>
0

> <PUBCHEM_SUBSTANCE_ID>
310934133

> <PUBCHEM_SUBSTANCE_VERSION>
1

> <PUBCHEM_EXT_DATASOURCE_NAME>
4488

> <PUBCHEM_EXT_DATASOURCE_REGID>
SCHEMBL16111580

> <PUBCHEM_SUBSTANCE_COMMENT>
InChI=1S/C15H12N4O4/c1-23-13-6-9(2-5-17-13)10-8-18-19(14(10)20)12-3-4-16-7-11(12)15(21)22/h2-8,20H,1H3,(H,21,22)
InChIKey=IQVMJXXGRCGJNQ-UHFFFAOYSA-N

> <PUBCHEM_SUBSTANCE_SYNONYM>
SCHEMBL16111580

> <PUBCHEM_XREF_EXT_ID>
SCHEMBL16111580

> <PUBCHEM_EXT_DATASOURCE_URL>
https://www.surechembl.org/

> <PUBCHEM_EXT_SUBSTANCE_URL>
https://www.surechembl.org/chemical/SCHEMBL16111580

> <PUBCHEM_CID_ASSOCIATIONS>
117602410  1

> <PUBCHEM_COORDINATE_TYPE>
1
3

$$$$
