310949181
  -OEChem-07211613022D

 25 26  0     0  0  0  0  0  0999 V2000
    1.1665   -0.0102    0.0000 S   0  0  0  0  0  0  0  0  0  0  0  0
    2.6400   -0.7674    0.0000 O   0  0  0  0  0  0  0  0  0  0  0  0
    2.1488   -0.0102    0.0000 O   0  0  0  0  0  0  0  0  0  0  0  0
    0.0818   -0.0102    0.0000 O   0  0  0  0  0  0  0  0  0  0  0  0
    1.2075   -3.2437    0.0000 O   0  0  0  0  0  0  0  0  0  0  0  0
   -0.4297   -3.3461    0.0000 O   0  0  0  0  0  0  0  0  0  0  0  0
    1.5963    3.3461    0.0000 O   0  0  0  0  0  0  0  0  0  0  0  0
    1.1665    1.1767    0.0000 N   0  0  0  0  0  0  0  0  0  0  0  0
    1.1870   -0.8084    0.0000 C   0  0  0  0  0  0  0  0  0  0  0  0
    0.4911   -2.0567    0.0000 C   0  0  0  0  0  0  0  0  0  0  0  0
    1.9442   -1.1972    0.0000 C   0  0  0  0  0  0  0  0  0  0  0  0
    0.4911   -1.2381    0.0000 C   0  0  0  0  0  0  0  0  0  0  0  0
    1.2279   -2.4661    0.0000 C   0  0  0  0  0  0  0  0  0  0  0  0
   -0.4503   -2.4865    0.0000 C   0  0  0  0  0  0  0  0  0  0  0  0
    1.9237   -2.0363    0.0000 C   0  0  0  0  0  0  0  0  0  0  0  0
   -1.1870   -2.0977    0.0000 C   0  0  0  0  0  0  0  0  0  0  0  0
   -1.2075   -1.2791    0.0000 C   0  0  0  0  0  0  0  0  0  0  0  0
   -1.8828   -2.5274    0.0000 C   0  0  0  0  0  0  0  0  0  0  0  0
    1.5963    1.9135    0.0000 C   0  0  0  0  0  0  0  0  0  0  0  0
   -1.9237   -0.8902    0.0000 C   0  0  0  0  0  0  0  0  0  0  0  0
   -2.5990   -2.1386    0.0000 C   0  0  0  0  0  0  0  0  0  0  0  0
   -2.6400   -1.2995    0.0000 C   0  0  0  0  0  0  0  0  0  0  0  0
    3.3972   -1.1563    0.0000 C   0  0  0  0  0  0  0  0  0  0  0  0
    1.1870    2.6093    0.0000 C   0  0  0  0  0  0  0  0  0  0  0  0
   -3.3972   -0.9107    0.0000 C   0  0  0  0  0  0  0  0  0  0  0  0
  1  3  2  0  0  0  0
  1  4  2  0  0  0  0
  1  8  1  0  0  0  0
  1  9  1  0  0  0  0
  2 11  1  0  0  0  0
  2 23  1  0  0  0  0
  5 13  1  0  0  0  0
  6 14  2  0  0  0  0
  7 24  1  0  0  0  0
  8 19  1  0  0  0  0
  9 11  2  0  0  0  0
  9 12  1  0  0  0  0
 10 12  2  0  0  0  0
 10 13  1  0  0  0  0
 10 14  1  0  0  0  0
 11 15  1  0  0  0  0
 13 15  2  0  0  0  0
 14 16  1  0  0  0  0
 16 17  2  0  0  0  0
 16 18  1  0  0  0  0
 17 20  1  0  0  0  0
 18 21  2  0  0  0  0
 19 24  1  0  0  0  0
 20 22  2  0  0  0  0
 21 22  1  0  0  0  0
 22 25  1  0  0  0  0
M  END
> <PUBCHEM_COMPOUND_ID_TYPE>
0

> <PUBCHEM_TOTAL_CHARGE>
0

> <PUBCHEM_SUBSTANCE_ID>
310949181

> <PUBCHEM_SUBSTANCE_VERSION>
1

> <PUBCHEM_EXT_DATASOURCE_NAME>
4488

> <PUBCHEM_EXT_DATASOURCE_REGID>
SCHEMBL16127371

> <PUBCHEM_SUBSTANCE_COMMENT>
InChI=1S/C17H19NO6S/c1-11-3-5-12(6-4-11)17(21)13-9-16(15(24-2)10-14(13)20)25(22,23)18-7-8-19/h3-6,9-10,18-20H,7-8H2,1-2H3
InChIKey=YATMBNAMTSWCCR-UHFFFAOYSA-N

> <PUBCHEM_SUBSTANCE_SYNONYM>
SCHEMBL16127371

> <PUBCHEM_XREF_EXT_ID>
SCHEMBL16127371

> <PUBCHEM_EXT_DATASOURCE_URL>
https://www.surechembl.org/

> <PUBCHEM_EXT_SUBSTANCE_URL>
https://www.surechembl.org/chemical/SCHEMBL16127371

> <PUBCHEM_CID_ASSOCIATIONS>
86273294  1

> <PUBCHEM_COORDINATE_TYPE>
1
3

$$$$
