310931453
  -OEChem-07211613022D

 27 30  0     0  0  0  0  0  0999 V2000
    0.0000   -6.4397    0.0000 Cl  0  0  0  0  0  0  0  0  0  0  0  0
    3.4211   -6.7081    0.0000 Cl  0  0  0  0  0  0  0  0  0  0  0  0
    0.9056   -2.7168    0.0000 O   0  0  0  0  0  0  0  0  0  0  0  0
    2.3478   -2.4820    0.0000 N   0  0  0  0  0  0  0  0  0  0  0  0
    2.7838   -3.7565    0.0000 N   0  0  0  0  0  0  0  0  0  0  0  0
    3.7901   -2.7168    0.0000 N   0  0  0  0  0  0  0  0  0  0  0  0
    1.9453   -3.7565    0.0000 C   0  0  0  0  0  0  0  0  0  0  0  0
    1.7106   -2.9851    0.0000 C   0  0  0  0  0  0  0  0  0  0  0  0
    1.4758   -4.4273    0.0000 C   0  0  0  0  0  0  0  0  0  0  0  0
    2.3143   -4.4944    0.0000 C   0  0  0  0  0  0  0  0  0  0  0  0
    3.0186   -2.9851    0.0000 C   0  0  0  0  0  0  0  0  0  0  0  0
    2.3478   -1.6770    0.0000 C   0  0  0  0  0  0  0  0  0  0  0  0
    1.8112   -5.1987    0.0000 C   0  0  0  0  0  0  0  0  0  0  0  0
    3.1528   -4.5615    0.0000 C   0  0  0  0  0  0  0  0  0  0  0  0
    0.6373   -4.3602    0.0000 C   0  0  0  0  0  0  0  0  0  0  0  0
    2.0459   -5.3665    0.0000 C   0  0  0  0  0  0  0  0  0  0  0  0
    1.6435   -1.2410    0.0000 C   0  0  0  0  0  0  0  0  0  0  0  0
    3.0522   -1.2410    0.0000 C   0  0  0  0  0  0  0  0  0  0  0  0
    1.3080   -5.8696    0.0000 C   0  0  0  0  0  0  0  0  0  0  0  0
    3.5217   -5.2658    0.0000 C   0  0  0  0  0  0  0  0  0  0  0  0
    0.1677   -5.0311    0.0000 C   0  0  0  0  0  0  0  0  0  0  0  0
    2.2472   -5.9366    0.0000 C   0  0  0  0  0  0  0  0  0  0  0  0
    0.5031   -5.7689    0.0000 C   0  0  0  0  0  0  0  0  0  0  0  0
    3.0522   -5.9702    0.0000 C   0  0  0  0  0  0  0  0  0  0  0  0
    1.6435   -0.4360    0.0000 C   0  0  0  0  0  0  0  0  0  0  0  0
    3.0522   -0.4360    0.0000 C   0  0  0  0  0  0  0  0  0  0  0  0
    2.3478    0.0000    0.0000 C   0  0  0  0  0  0  0  0  0  0  0  0
  1 23  1  0  0  0  0
  2 24  1  0  0  0  0
  3  8  2  0  0  0  0
  4  8  1  0  0  0  0
  4 11  1  0  0  0  0
  4 12  1  0  0  0  0
  5  7  1  0  0  0  0
  5 11  1  0  0  0  0
  6 11  2  3  0  0  0
  7  8  1  0  0  0  0
  7  9  1  0  0  0  0
  7 10  1  0  0  0  0
  9 13  2  0  0  0  0
  9 15  1  0  0  0  0
 10 14  2  0  0  0  0
 10 16  1  0  0  0  0
 12 17  1  0  0  0  0
 12 18  1  0  0  0  0
 13 19  1  0  0  0  0
 14 20  1  0  0  0  0
 15 21  2  0  0  0  0
 16 22  2  0  0  0  0
 17 25  1  0  0  0  0
 18 26  1  0  0  0  0
 19 23  2  0  0  0  0
 20 24  2  0  0  0  0
 21 23  1  0  0  0  0
 22 24  1  0  0  0  0
 25 27  1  0  0  0  0
 26 27  1  0  0  0  0
M  END
> <PUBCHEM_COMPOUND_ID_TYPE>
0

> <PUBCHEM_TOTAL_CHARGE>
0

> <PUBCHEM_SUBSTANCE_ID>
310931453

> <PUBCHEM_SUBSTANCE_VERSION>
1

> <PUBCHEM_EXT_DATASOURCE_NAME>
4488

> <PUBCHEM_EXT_DATASOURCE_REGID>
SCHEMBL16108778

> <PUBCHEM_SUBSTANCE_COMMENT>
InChI=1S/C21H21Cl2N3O/c22-16-10-6-14(7-11-16)21(15-8-12-17(23)13-9-15)19(27)26(20(24)25-21)18-4-2-1-3-5-18/h6-13,18H,1-5H2,(H2,24,25)
InChIKey=PTVNPWFICHFZSN-UHFFFAOYSA-N

> <PUBCHEM_SUBSTANCE_SYNONYM>
SCHEMBL16108778

> <PUBCHEM_XREF_EXT_ID>
SCHEMBL16108778

> <PUBCHEM_EXT_DATASOURCE_URL>
https://www.surechembl.org/

> <PUBCHEM_EXT_SUBSTANCE_URL>
https://www.surechembl.org/chemical/SCHEMBL16108778

> <PUBCHEM_CID_ASSOCIATIONS>
76332092  1

> <PUBCHEM_COORDINATE_TYPE>
1
3

$$$$
