310936621
  -OEChem-07211613022D

 25 27  0     0  0  0  0  0  0999 V2000
    0.9247   -6.9357    0.0000 Cl  0  0  0  0  0  0  0  0  0  0  0  0
    4.0903   -4.8372    0.0000 O   0  0  0  0  0  0  0  0  0  0  0  0
    0.0000    0.0000    0.0000 O   0  0  0  0  0  0  0  0  0  0  0  0
    1.5294   -2.0273    0.0000 N   0  0  0  0  0  0  0  0  0  0  0  0
    2.0273   -4.1614    0.0000 N   0  0  0  0  0  0  0  0  0  0  0  0
    3.5212   -3.5212    0.0000 N   0  0  0  0  0  0  0  0  0  0  0  0
    2.0985   -0.8181    0.0000 N   0  0  0  0  0  0  0  0  0  0  0  0
    2.6675   -4.6594    0.0000 C   0  0  0  0  0  0  0  0  0  0  0  0
    2.0985   -3.3434    0.0000 C   0  0  0  0  0  0  0  0  0  0  0  0
    3.4500   -4.3748    0.0000 C   0  0  0  0  0  0  0  0  0  0  0  0
    2.5609   -5.4774    0.0000 C   0  0  0  0  0  0  0  0  0  0  0  0
    1.4227   -2.8454    0.0000 C   0  0  0  0  0  0  0  0  0  0  0  0
    2.2407   -1.6006    0.0000 C   0  0  0  0  0  0  0  0  0  0  0  0
    2.8810   -3.0232    0.0000 C   0  0  0  0  0  0  0  0  0  0  0  0
    1.2449   -0.7113    0.0000 C   0  0  0  0  0  0  0  0  0  0  0  0
    0.9247   -1.4583    0.0000 C   0  0  0  0  0  0  0  0  0  0  0  0
    1.8140   -5.7975    0.0000 C   0  0  0  0  0  0  0  0  0  0  0  0
    3.2366   -6.0109    0.0000 C   0  0  0  0  0  0  0  0  0  0  0  0
    1.7072   -6.6156    0.0000 C   0  0  0  0  0  0  0  0  0  0  0  0
    3.1300   -6.7934    0.0000 C   0  0  0  0  0  0  0  0  0  0  0  0
    2.3475   -7.1135    0.0000 C   0  0  0  0  0  0  0  0  0  0  0  0
    0.8536    0.0000    0.0000 C   0  0  0  0  0  0  0  0  0  0  0  0
    2.9877   -1.9562    0.0000 C   0  0  0  0  0  0  0  0  0  0  0  0
    4.8728   -4.5171    0.0000 C   0  0  0  0  0  0  0  0  0  0  0  0
    4.9439   -3.6990    0.0000 C   0  0  0  0  0  0  0  0  0  0  0  0
  1 19  1  0  0  0  0
  2 10  1  0  0  0  0
  2 24  1  0  0  0  0
  3 22  1  0  0  0  0
  4 12  1  0  0  0  0
  4 13  1  0  0  0  0
  4 16  1  0  0  0  0
  5  8  1  0  0  0  0
  5  9  2  0  0  0  0
  6 10  1  0  0  0  0
  6 14  2  0  0  0  0
  7 13  2  0  0  0  0
  7 15  1  0  0  0  0
  8 10  2  0  0  0  0
  8 11  1  0  0  0  0
  9 12  1  0  0  0  0
  9 14  1  0  0  0  0
 11 17  1  0  0  0  0
 11 18  2  0  0  0  0
 13 23  1  0  0  0  0
 15 16  2  0  0  0  0
 15 22  1  0  0  0  0
 17 19  2  0  0  0  0
 18 20  1  0  0  0  0
 19 21  1  0  0  0  0
 20 21  2  0  0  0  0
 24 25  1  0  0  0  0
M  END
> <PUBCHEM_COMPOUND_ID_TYPE>
0

> <PUBCHEM_TOTAL_CHARGE>
0

> <PUBCHEM_SUBSTANCE_ID>
310936621

> <PUBCHEM_SUBSTANCE_VERSION>
1

> <PUBCHEM_EXT_DATASOURCE_NAME>
4488

> <PUBCHEM_EXT_DATASOURCE_REGID>
SCHEMBL16114281

> <PUBCHEM_SUBSTANCE_COMMENT>
InChI=1S/C18H19ClN4O2/c1-3-25-18-17(13-5-4-6-14(19)7-13)22-15(8-20-18)9-23-10-16(11-24)21-12(23)2/h4-8,10,24H,3,9,11H2,1-2H3
InChIKey=OWYRDYUUPQXVHL-UHFFFAOYSA-N

> <PUBCHEM_SUBSTANCE_SYNONYM>
SCHEMBL16114281

> <PUBCHEM_XREF_EXT_ID>
SCHEMBL16114281

> <PUBCHEM_EXT_DATASOURCE_URL>
https://www.surechembl.org/

> <PUBCHEM_EXT_SUBSTANCE_URL>
https://www.surechembl.org/chemical/SCHEMBL16114281

> <PUBCHEM_CID_ASSOCIATIONS>
117604538  1

> <PUBCHEM_COORDINATE_TYPE>
1
3

$$$$
