310943893
  -OEChem-07211613022D

 32 36  0     1  0  0  0  0  0999 V2000
    2.3831    0.7925    0.0000 O   0  0  0  0  0  0  0  0  0  0  0  0
    5.3551    0.6384    0.0000 O   0  0  0  0  0  0  0  0  0  0  0  0
    5.1350    2.0804    0.0000 O   0  0  0  0  0  0  0  0  0  0  0  0
   -0.3797   -2.0804    0.0000 O   0  0  0  0  0  0  0  0  0  0  0  0
    3.4178   -0.2532    0.0000 N   0  0  0  0  0  0  0  0  0  0  0  0
    0.5008   -0.6495    0.0000 N   0  0  0  0  0  0  0  0  0  0  0  0
   -4.0892   -1.3759    0.0000 N   0  0  0  0  0  0  0  0  0  0  0  0
   -2.0199   -0.6605    0.0000 N   0  0  0  0  0  0  0  0  0  0  0  0
   -2.8454   -0.6605    0.0000 N   0  0  0  0  0  0  0  0  0  0  0  0
   -4.5736   -0.7045    0.0000 N   0  0  0  0  0  0  0  0  0  0  0  0
   -5.3551   -0.9577    0.0000 N   0  0  0  0  0  0  0  0  0  0  0  0
   -5.3551   -1.7832    0.0000 N   0  0  0  0  0  0  0  0  0  0  0  0
    2.1520   -0.6384    0.0000 C   0  0  0  0  0  0  0  0  0  0  0  0
    2.6362    0.0000    0.0000 C   0  0  0  0  0  0  0  0  0  0  0  0
    4.0892    0.2421    0.0000 C   0  0  0  0  0  0  0  0  0  0  0  0
    2.6362   -1.3098    0.0000 C   0  0  0  0  0  0  0  0  0  0  0  0
    3.4178   -1.0677    0.0000 C   0  0  0  0  0  0  0  0  0  0  0  0
    1.7336   -1.3539    0.0000 C   0  0  0  0  0  0  0  0  0  0  0  0
    1.7447    0.0660    0.0000 C   0  0  0  0  0  0  0  0  0  0  0  0
    4.1003    1.0677    0.0000 C   0  0  0  0  0  0  0  0  0  0  0  0
    4.8708   -0.0220    0.0000 C   0  0  0  0  0  0  0  0  0  0  0  0
    4.8597    1.2989    0.0000 C   0  0  0  0  0  0  0  0  0  0  0  0
    0.9081   -1.3539    0.0000 C   0  0  0  0  0  0  0  0  0  0  0  0
    0.9191    0.0770    0.0000 C   0  0  0  0  0  0  0  0  0  0  0  0
   -0.3797   -0.6605    0.0000 C   0  0  0  0  0  0  0  0  0  0  0  0
   -0.7980   -1.3649    0.0000 C   0  0  3  0  0  0  0  0  0  0  0  0
   -1.6126   -1.3649    0.0000 C   0  0  0  0  0  0  0  0  0  0  0  0
    3.4178    1.5630    0.0000 C   0  0  0  0  0  0  0  0  0  0  0  0
   -3.2637   -1.3759    0.0000 C   0  0  0  0  0  0  0  0  0  0  0  0
   -2.0308   -2.0694    0.0000 C   0  0  0  0  0  0  0  0  0  0  0  0
   -2.8564   -2.0694    0.0000 C   0  0  0  0  0  0  0  0  0  0  0  0
   -4.5626   -2.0254    0.0000 C   0  0  0  0  0  0  0  0  0  0  0  0
  1 14  2  0  0  0  0
  2 21  1  0  0  0  0
  2 22  1  0  0  0  0
  3 22  2  0  0  0  0
 26  4  1  1  0  0  0
  5 14  1  0  0  0  0
  5 15  1  0  0  0  0
  5 17  1  0  0  0  0
  6 23  1  0  0  0  0
  6 24  1  0  0  0  0
  6 25  1  0  0  0  0
  7 10  1  0  0  0  0
  7 29  1  0  0  0  0
  7 32  1  0  0  0  0
  8  9  2  0  0  0  0
  8 27  1  0  0  0  0
  9 29  1  0  0  0  0
 10 11  2  0  0  0  0
 11 12  1  0  0  0  0
 12 32  2  0  0  0  0
 13 14  1  0  0  0  0
 13 16  1  0  0  0  0
 13 18  1  0  0  0  0
 13 19  1  0  0  0  0
 15 20  2  0  0  0  0
 15 21  1  0  0  0  0
 16 17  1  0  0  0  0
 18 23  1  0  0  0  0
 19 24  1  0  0  0  0
 20 22  1  0  0  0  0
 20 28  1  0  0  0  0
 25 26  1  0  0  0  0
 26 27  1  0  0  0  0
 27 30  2  0  0  0  0
 29 31  2  0  0  0  0
 30 31  1  0  0  0  0
M  END
> <PUBCHEM_COMPOUND_ID_TYPE>
0

> <PUBCHEM_TOTAL_CHARGE>
0

> <PUBCHEM_SUBSTANCE_ID>
310943893

> <PUBCHEM_SUBSTANCE_VERSION>
1

> <PUBCHEM_EXT_DATASOURCE_NAME>
4488

> <PUBCHEM_EXT_DATASOURCE_REGID>
SCHEMBL16121964

> <PUBCHEM_SUBSTANCE_COMMENT>
InChI=1S/C20H24N8O4/c1-13-15(11-32-18(13)30)27-9-6-20(19(27)31)4-7-26(8-5-20)10-16(29)14-2-3-17(23-22-14)28-12-21-24-25-28/h2-3,12,16,29H,4-11H2,1H3/t16-/m1/s1
InChIKey=YLOSSAUMNXTFGU-MRXNPFEDSA-N

> <PUBCHEM_SUBSTANCE_SYNONYM>
SCHEMBL16121964

> <PUBCHEM_XREF_EXT_ID>
SCHEMBL16121964

> <PUBCHEM_EXT_DATASOURCE_URL>
https://www.surechembl.org/

> <PUBCHEM_EXT_SUBSTANCE_URL>
https://www.surechembl.org/chemical/SCHEMBL16121964

> <PUBCHEM_CID_ASSOCIATIONS>
86271367  1

> <PUBCHEM_COORDINATE_TYPE>
1
3

> <PUBCHEM_BONDANNOTATIONS>
26  4  5

$$$$
