310933345
  -OEChem-07211613022D

 29 33  0     0  0  0  0  0  0999 V2000
    0.0000   -4.0714    0.0000 O   0  0  0  0  0  0  0  0  0  0  0  0
    5.5660   -2.9376    0.0000 O   0  0  0  0  0  0  0  0  0  0  0  0
    3.3757   -0.7988    0.0000 N   0  0  0  0  0  0  0  0  0  0  0  0
    4.2518   -2.2676    0.0000 N   0  0  0  0  0  0  0  0  0  0  0  0
    4.2518   -3.6076    0.0000 N   0  0  0  0  0  0  0  0  0  0  0  0
    3.1438    0.0000    0.0000 N   0  0  0  0  0  0  0  0  0  0  0  0
    0.4123   -4.7929    0.0000 N   0  0  0  0  0  0  0  0  0  0  0  0
    2.7314   -2.1130    0.0000 C   0  0  0  0  0  0  0  0  0  0  0  0
    3.4530   -2.4996    0.0000 C   0  0  0  0  0  0  0  0  0  0  0  0
    2.7057   -1.2884    0.0000 C   0  0  0  0  0  0  0  0  0  0  0  0
    3.4530   -3.3757    0.0000 C   0  0  0  0  0  0  0  0  0  0  0  0
    2.0357   -3.3757    0.0000 C   0  0  0  0  0  0  0  0  0  0  0  0
    2.0357   -2.4996    0.0000 C   0  0  0  0  0  0  0  0  0  0  0  0
    1.3142   -3.7880    0.0000 C   0  0  0  0  0  0  0  0  0  0  0  0
    2.7314   -3.7622    0.0000 C   0  0  0  0  0  0  0  0  0  0  0  0
    2.0357   -0.7988    0.0000 C   0  0  0  0  0  0  0  0  0  0  0  0
    4.7414   -2.9376    0.0000 C   0  0  0  0  0  0  0  0  0  0  0  0
    4.1745   -1.0565    0.0000 C   0  0  0  0  0  0  0  0  0  0  0  0
    0.5669   -3.4530    0.0000 C   0  0  0  0  0  0  0  0  0  0  0  0
    1.2369   -4.5868    0.0000 C   0  0  0  0  0  0  0  0  0  0  0  0
    2.2934   -0.0258    0.0000 C   0  0  0  0  0  0  0  0  0  0  0  0
    1.2627   -1.0565    0.0000 C   0  0  0  0  0  0  0  0  0  0  0  0
    4.7929   -0.4896    0.0000 C   0  0  0  0  0  0  0  0  0  0  0  0
    4.3291   -1.8553    0.0000 C   0  0  0  0  0  0  0  0  0  0  0  0
    0.3607   -2.6542    0.0000 C   0  0  0  0  0  0  0  0  0  0  0  0
    1.8553   -5.1537    0.0000 C   0  0  0  0  0  0  0  0  0  0  0  0
    5.5660   -0.7473    0.0000 C   0  0  0  0  0  0  0  0  0  0  0  0
    5.1279   -2.1130    0.0000 C   0  0  0  0  0  0  0  0  0  0  0  0
    5.7464   -1.5719    0.0000 C   0  0  0  0  0  0  0  0  0  0  0  0
  1  7  1  0  0  0  0
  1 19  1  0  0  0  0
  2 17  2  0  0  0  0
  3  6  1  0  0  0  0
  3 10  1  0  0  0  0
  3 18  1  0  0  0  0
  4  9  1  0  0  0  0
  4 17  1  0  0  0  0
  5 11  1  0  0  0  0
  5 17  1  0  0  0  0
  6 21  2  0  0  0  0
  7 20  2  0  0  0  0
  8  9  1  0  0  0  0
  8 10  1  0  0  0  0
  8 13  2  0  0  0  0
  9 11  2  0  0  0  0
 10 16  2  0  0  0  0
 11 15  1  0  0  0  0
 12 13  1  0  0  0  0
 12 14  1  0  0  0  0
 12 15  2  0  0  0  0
 14 19  2  0  0  0  0
 14 20  1  0  0  0  0
 16 21  1  0  0  0  0
 16 22  1  0  0  0  0
 18 23  2  0  0  0  0
 18 24  1  0  0  0  0
 19 25  1  0  0  0  0
 20 26  1  0  0  0  0
 23 27  1  0  0  0  0
 24 28  2  0  0  0  0
 27 29  2  0  0  0  0
 28 29  1  0  0  0  0
M  END
> <PUBCHEM_COMPOUND_ID_TYPE>
0

> <PUBCHEM_TOTAL_CHARGE>
0

> <PUBCHEM_SUBSTANCE_ID>
310933345

> <PUBCHEM_SUBSTANCE_VERSION>
1

> <PUBCHEM_EXT_DATASOURCE_NAME>
4488

> <PUBCHEM_EXT_DATASOURCE_REGID>
SCHEMBL16110758

> <PUBCHEM_SUBSTANCE_COMMENT>
InChI=1S/C22H19N5O2/c1-12-11-23-27(16-7-5-4-6-8-16)21(12)17-9-15(19-13(2)26-29-14(19)3)10-18-20(17)25-22(28)24-18/h4-11H,1-3H3,(H2,24,25,28)
InChIKey=FXXYDEZUDMHVRN-UHFFFAOYSA-N

> <PUBCHEM_SUBSTANCE_SYNONYM>
SCHEMBL16110758

> <PUBCHEM_XREF_EXT_ID>
SCHEMBL16110758

> <PUBCHEM_EXT_DATASOURCE_URL>
https://www.surechembl.org/

> <PUBCHEM_EXT_SUBSTANCE_URL>
https://www.surechembl.org/chemical/SCHEMBL16110758

> <PUBCHEM_CID_ASSOCIATIONS>
117601756  1

> <PUBCHEM_COORDINATE_TYPE>
1
3

$$$$
