310945580
  -OEChem-07211613022D

 34 38  0     0  0  0  0  0  0999 V2000
   -4.0886   -1.4647    0.0000 Cl  0  0  0  0  0  0  0  0  0  0  0  0
   -0.8888    1.0240    0.0000 N   0  0  0  0  0  0  0  0  0  0  0  0
   -0.8888    3.5126    0.0000 N   0  0  0  0  0  0  0  0  0  0  0  0
   -0.9315    0.1991    0.0000 C   0  0  0  0  0  0  0  0  0  0  0  0
   -1.6567   -0.1991    0.0000 C   0  0  0  0  0  0  0  0  0  0  0  0
   -1.6567   -1.0382    0.0000 C   0  0  0  0  0  0  0  0  0  0  0  0
   -0.2204   -1.0382    0.0000 C   0  0  0  0  0  0  0  0  0  0  0  0
   -0.2204   -0.2275    0.0000 C   0  0  0  0  0  0  0  0  0  0  0  0
   -0.9172   -1.4505    0.0000 C   0  0  0  0  0  0  0  0  0  0  0  0
    0.5049   -1.4505    0.0000 C   0  0  0  0  0  0  0  0  0  0  0  0
   -2.3820    0.1849    0.0000 C   0  0  0  0  0  0  0  0  0  0  0  0
   -2.3678   -1.4505    0.0000 C   0  0  0  0  0  0  0  0  0  0  0  0
   -3.0931   -1.0382    0.0000 C   0  0  0  0  0  0  0  0  0  0  0  0
   -1.6567    1.4505    0.0000 C   0  0  0  0  0  0  0  0  0  0  0  0
   -0.2204    1.4363    0.0000 C   0  0  0  0  0  0  0  0  0  0  0  0
   -3.0646   -0.2133    0.0000 C   0  0  0  0  0  0  0  0  0  0  0  0
    0.5049   -2.2896    0.0000 C   0  0  0  0  0  0  0  0  0  0  0  0
    1.2301   -1.0524    0.0000 C   0  0  0  0  0  0  0  0  0  0  0  0
   -0.9457    2.7020    0.0000 C   0  0  0  0  0  0  0  0  0  0  0  0
    1.9270   -2.2754    0.0000 C   0  0  0  0  0  0  0  0  0  0  0  0
   -1.6425    2.2754    0.0000 C   0  0  0  0  0  0  0  0  0  0  0  0
   -0.2062    2.2612    0.0000 C   0  0  0  0  0  0  0  0  0  0  0  0
    1.2301   -2.6878    0.0000 C   0  0  0  0  0  0  0  0  0  0  0  0
    1.9412   -1.4647    0.0000 C   0  0  0  0  0  0  0  0  0  0  0  0
    2.6665   -2.7020    0.0000 C   0  0  0  0  0  0  0  0  0  0  0  0
    2.6665   -3.5411    0.0000 C   0  0  0  0  0  0  0  0  0  0  0  0
    3.3775   -2.3038    0.0000 C   0  0  0  0  0  0  0  0  0  0  0  0
   -0.2204    3.9250    0.0000 C   0  0  0  0  0  0  0  0  0  0  0  0
   -1.6710    3.9392    0.0000 C   0  0  0  0  0  0  0  0  0  0  0  0
    3.3917   -3.9392    0.0000 C   0  0  0  0  0  0  0  0  0  0  0  0
    4.0886   -2.7163    0.0000 C   0  0  0  0  0  0  0  0  0  0  0  0
    4.0886   -3.5411    0.0000 C   0  0  0  0  0  0  0  0  0  0  0  0
    0.5333    3.4984    0.0000 C   0  0  0  0  0  0  0  0  0  0  0  0
   -2.3678    3.5126    0.0000 C   0  0  0  0  0  0  0  0  0  0  0  0
  1 13  1  0  0  0  0
  2  4  1  0  0  0  0
  2 14  1  0  0  0  0
  2 15  1  0  0  0  0
  3 19  1  0  0  0  0
  3 28  1  0  0  0  0
  3 29  1  0  0  0  0
  4  5  1  0  0  0  0
  4  8  2  0  0  0  0
  5  6  1  0  0  0  0
  5 11  2  0  0  0  0
  6  9  1  0  0  0  0
  6 12  2  0  0  0  0
  7  8  1  0  0  0  0
  7  9  2  0  0  0  0
  7 10  1  0  0  0  0
 10 17  2  0  0  0  0
 10 18  1  0  0  0  0
 11 16  1  0  0  0  0
 12 13  1  0  0  0  0
 13 16  2  0  0  0  0
 14 21  1  0  0  0  0
 15 22  1  0  0  0  0
 17 23  1  0  0  0  0
 18 24  2  0  0  0  0
 19 21  1  0  0  0  0
 19 22  1  0  0  0  0
 20 23  2  0  0  0  0
 20 24  1  0  0  0  0
 20 25  1  0  0  0  0
 25 26  2  0  0  0  0
 25 27  1  0  0  0  0
 26 30  1  0  0  0  0
 27 31  2  0  0  0  0
 28 33  1  0  0  0  0
 29 34  1  0  0  0  0
 30 32  2  0  0  0  0
 31 32  1  0  0  0  0
M  END
> <PUBCHEM_COMPOUND_ID_TYPE>
0

> <PUBCHEM_TOTAL_CHARGE>
0

> <PUBCHEM_SUBSTANCE_ID>
310945580

> <PUBCHEM_SUBSTANCE_VERSION>
1

> <PUBCHEM_EXT_DATASOURCE_NAME>
4488

> <PUBCHEM_EXT_DATASOURCE_REGID>
SCHEMBL16123679

> <PUBCHEM_SUBSTANCE_COMMENT>
InChI=1S/C31H33ClN2/c1-3-33(4-2)29-16-18-34(19-17-29)31-22-26(20-27-21-28(32)14-15-30(27)31)25-12-10-24(11-13-25)23-8-6-5-7-9-23/h5-15,20-22,29H,3-4,16-19H2,1-2H3
InChIKey=KOVYNMIGDXDZSV-UHFFFAOYSA-N

> <PUBCHEM_SUBSTANCE_SYNONYM>
SCHEMBL16123679

> <PUBCHEM_XREF_EXT_ID>
SCHEMBL16123679

> <PUBCHEM_EXT_DATASOURCE_URL>
https://www.surechembl.org/

> <PUBCHEM_EXT_SUBSTANCE_URL>
https://www.surechembl.org/chemical/SCHEMBL16123679

> <PUBCHEM_CID_ASSOCIATIONS>
117611608  1

> <PUBCHEM_COORDINATE_TYPE>
1
3

$$$$
