310947051
  -OEChem-07211613022D

 37 41  0     0  0  0  0  0  0999 V2000
   -4.0157    1.0152    0.0000 F   0  0  0  0  0  0  0  0  0  0  0  0
   -5.4446    0.1902    0.0000 O   0  0  0  0  0  0  0  0  0  0  0  0
   -4.0157   -2.2848    0.0000 O   0  0  0  0  0  0  0  0  0  0  0  0
   -2.5867    0.1902    0.0000 N   0  0  0  0  0  0  0  0  0  0  0  0
   -1.1578    0.1902    0.0000 N   0  0  0  0  0  0  0  0  0  0  0  0
    0.2712    0.1902    0.0000 N   0  0  0  0  0  0  0  0  0  0  0  0
    0.2712   -1.4598    0.0000 N   0  0  0  0  0  0  0  0  0  0  0  0
    2.9696    0.6027    0.0000 N   0  0  0  0  0  0  0  0  0  0  0  0
    2.4848    1.2701    0.0000 N   0  0  0  0  0  0  0  0  0  0  0  0
   -1.0473    1.4277    0.0000 N   0  0  0  0  0  0  0  0  0  0  0  0
   -2.1272    2.2123    0.0000 N   0  0  0  0  0  0  0  0  0  0  0  0
    5.4446    2.0316    0.0000 N   0  0  0  0  0  0  0  0  0  0  0  0
   -3.3012   -0.2223    0.0000 C   0  0  0  0  0  0  0  0  0  0  0  0
   -1.8723   -0.2223    0.0000 C   0  0  0  0  0  0  0  0  0  0  0  0
   -0.4434   -0.2223    0.0000 C   0  0  0  0  0  0  0  0  0  0  0  0
   -4.0157    0.1902    0.0000 C   0  0  0  0  0  0  0  0  0  0  0  0
   -0.4434   -1.0473    0.0000 C   0  0  0  0  0  0  0  0  0  0  0  0
    0.9856   -0.2223    0.0000 C   0  0  0  0  0  0  0  0  0  0  0  0
   -4.7302   -0.2223    0.0000 C   0  0  0  0  0  0  0  0  0  0  0  0
   -3.3012   -1.0473    0.0000 C   0  0  0  0  0  0  0  0  0  0  0  0
   -1.8723   -1.0473    0.0000 C   0  0  0  0  0  0  0  0  0  0  0  0
   -2.5867    1.0152    0.0000 C   0  0  0  0  0  0  0  0  0  0  0  0
   -1.1578   -1.4598    0.0000 C   0  0  0  0  0  0  0  0  0  0  0  0
   -4.0157   -1.4598    0.0000 C   0  0  0  0  0  0  0  0  0  0  0  0
    1.7001    0.1902    0.0000 C   0  0  0  0  0  0  0  0  0  0  0  0
   -4.7302   -1.0473    0.0000 C   0  0  0  0  0  0  0  0  0  0  0  0
    0.9856   -1.0473    0.0000 C   0  0  0  0  0  0  0  0  0  0  0  0
   -1.8723    1.4277    0.0000 C   0  0  0  0  0  0  0  0  0  0  0  0
    2.4848   -0.0647    0.0000 C   0  0  0  0  0  0  0  0  0  0  0  0
    1.7001    1.0152    0.0000 C   0  0  0  0  0  0  0  0  0  0  0  0
   -0.7923    2.2123    0.0000 C   0  0  0  0  0  0  0  0  0  0  0  0
   -1.4598    2.6973    0.0000 C   0  0  0  0  0  0  0  0  0  0  0  0
    3.7946    0.6027    0.0000 C   0  0  0  0  0  0  0  0  0  0  0  0
   -5.4446    1.0152    0.0000 C   0  0  0  0  0  0  0  0  0  0  0  0
   -4.7302   -2.6973    0.0000 C   0  0  0  0  0  0  0  0  0  0  0  0
    4.2072    1.3172    0.0000 C   0  0  0  0  0  0  0  0  0  0  0  0
    5.0322    1.3172    0.0000 C   0  0  0  0  0  0  0  0  0  0  0  0
  1 16  1  0  0  0  0
  2 19  1  0  0  0  0
  2 34  1  0  0  0  0
  3 24  1  0  0  0  0
  3 35  1  0  0  0  0
  4 13  1  0  0  0  0
  4 14  1  0  0  0  0
  4 22  1  0  0  0  0
  5 14  1  0  0  0  0
  5 15  2  0  0  0  0
  6 15  1  0  0  0  0
  6 18  2  0  0  0  0
  7 17  1  0  0  0  0
  7 27  2  0  0  0  0
  8  9  1  0  0  0  0
  8 29  1  0  0  0  0
  8 33  1  0  0  0  0
  9 30  2  0  0  0  0
 10 28  2  0  0  0  0
 10 31  1  0  0  0  0
 11 28  1  0  0  0  0
 11 32  1  0  0  0  0
 12 37  1  0  0  0  0
 13 16  2  0  0  0  0
 13 20  1  0  0  0  0
 14 21  2  0  0  0  0
 15 17  1  0  0  0  0
 16 19  1  0  0  0  0
 17 23  2  0  0  0  0
 18 25  1  0  0  0  0
 18 27  1  0  0  0  0
 19 26  2  0  0  0  0
 20 24  2  0  0  0  0
 21 23  1  0  0  0  0
 22 28  1  0  0  0  0
 24 26  1  0  0  0  0
 25 29  2  0  0  0  0
 25 30  1  0  0  0  0
 31 32  2  0  0  0  0
 33 36  1  0  0  0  0
 36 37  1  0  0  0  0
M  END
> <PUBCHEM_COMPOUND_ID_TYPE>
0

> <PUBCHEM_TOTAL_CHARGE>
0

> <PUBCHEM_SUBSTANCE_ID>
310947051

> <PUBCHEM_SUBSTANCE_VERSION>
1

> <PUBCHEM_EXT_DATASOURCE_NAME>
4488

> <PUBCHEM_EXT_DATASOURCE_REGID>
SCHEMBL16125204

> <PUBCHEM_SUBSTANCE_COMMENT>
InChI=1S/C25H26FN9O2/c1-36-17-10-20(24(26)21(11-17)37-2)35(15-22-28-7-8-29-22)23-5-4-18-25(33-23)32-19(13-30-18)16-12-31-34(14-16)9-3-6-27/h4-5,7-8,10-14H,3,6,9,15,27H2,1-2H3,(H,28,29)
InChIKey=NTSJVCJCNLORNS-UHFFFAOYSA-N

> <PUBCHEM_SUBSTANCE_SYNONYM>
SCHEMBL16125204

> <PUBCHEM_XREF_EXT_ID>
SCHEMBL16125204

> <PUBCHEM_EXT_DATASOURCE_URL>
https://www.surechembl.org/

> <PUBCHEM_EXT_SUBSTANCE_URL>
https://www.surechembl.org/chemical/SCHEMBL16125204

> <PUBCHEM_CID_ASSOCIATIONS>
117612902  1

> <PUBCHEM_COORDINATE_TYPE>
1
3

$$$$
