310941009
  -OEChem-07211613022D

 29 32  0     0  0  0  0  0  0999 V2000
   -0.3051    2.3973    0.0000 O   0  0  0  0  0  0  0  0  0  0  0  0
    3.6800   -0.1556    0.0000 O   0  0  0  0  0  0  0  0  0  0  0  0
    1.6501   -2.1855    0.0000 O   0  0  0  0  0  0  0  0  0  0  0  0
    0.9278    0.5915    0.0000 N   0  0  0  0  0  0  0  0  0  0  0  0
   -1.6750    0.3300    0.0000 N   0  0  0  0  0  0  0  0  0  0  0  0
   -1.6875    1.6750    0.0000 N   0  0  0  0  0  0  0  0  0  0  0  0
   -0.2802   -0.3799    0.0000 N   0  0  0  0  0  0  0  0  0  0  0  0
    2.6837   -1.1644    0.0000 N   0  0  0  0  0  0  0  0  0  0  0  0
    0.9153    1.4259    0.0000 C   0  0  0  0  0  0  0  0  0  0  0  0
   -0.3674    1.0025    0.0000 C   0  0  0  0  0  0  0  0  0  0  0  0
    0.1307    0.3425    0.0000 C   0  0  0  0  0  0  0  0  0  0  0  0
    0.1307    1.6750    0.0000 C   0  0  0  0  0  0  0  0  0  0  0  0
   -1.2017    1.0149    0.0000 C   0  0  0  0  0  0  0  0  0  0  0  0
    1.5006    0.0062    0.0000 C   0  0  0  0  0  0  0  0  0  0  0  0
    0.9153    2.2353    0.0000 C   0  0  0  0  0  0  0  0  0  0  0  0
    1.6252    1.8368    0.0000 C   0  0  0  0  0  0  0  0  0  0  0  0
   -2.4845    0.6040    0.0000 C   0  0  0  0  0  0  0  0  0  0  0  0
   -2.4720    1.4259    0.0000 C   0  0  0  0  0  0  0  0  0  0  0  0
    2.3225    0.2055    0.0000 C   0  0  0  0  0  0  0  0  0  0  0  0
    1.2890   -0.8032    0.0000 C   0  0  0  0  0  0  0  0  0  0  0  0
    2.8953   -0.3674    0.0000 C   0  0  0  0  0  0  0  0  0  0  0  0
    1.8866   -1.3886    0.0000 C   0  0  0  0  0  0  0  0  0  0  0  0
   -3.1818    0.1806    0.0000 C   0  0  0  0  0  0  0  0  0  0  0  0
   -3.1943    1.8244    0.0000 C   0  0  0  0  0  0  0  0  0  0  0  0
    0.1307   -1.1021    0.0000 C   0  0  0  0  0  0  0  0  0  0  0  0
   -3.9042    0.5915    0.0000 C   0  0  0  0  0  0  0  0  0  0  0  0
   -3.9042    1.4135    0.0000 C   0  0  0  0  0  0  0  0  0  0  0  0
    3.9042    0.6413    0.0000 C   0  0  0  0  0  0  0  0  0  0  0  0
    0.8654   -2.3973    0.0000 C   0  0  0  0  0  0  0  0  0  0  0  0
  1 12  2  0  0  0  0
  2 21  1  0  0  0  0
  2 28  1  0  0  0  0
  3 22  1  0  0  0  0
  3 29  1  0  0  0  0
  4  9  1  0  0  0  0
  4 11  1  0  0  0  0
  4 14  1  0  0  0  0
  5 13  2  0  0  0  0
  5 17  1  0  0  0  0
  6 13  1  0  0  0  0
  6 18  1  0  0  0  0
  7 11  1  0  0  0  0
  7 25  1  0  0  0  0
  8 21  2  0  0  0  0
  8 22  1  0  0  0  0
  9 12  1  0  0  0  0
  9 15  1  0  0  0  0
  9 16  1  0  0  0  0
 10 11  2  0  0  0  0
 10 12  1  0  0  0  0
 10 13  1  0  0  0  0
 14 19  2  0  0  0  0
 14 20  1  0  0  0  0
 17 18  1  0  0  0  0
 17 23  2  0  0  0  0
 18 24  2  0  0  0  0
 19 21  1  0  0  0  0
 20 22  2  0  0  0  0
 23 26  1  0  0  0  0
 24 27  1  0  0  0  0
 26 27  2  0  0  0  0
M  END
> <PUBCHEM_COMPOUND_ID_TYPE>
0

> <PUBCHEM_TOTAL_CHARGE>
0

> <PUBCHEM_SUBSTANCE_ID>
310941009

> <PUBCHEM_SUBSTANCE_VERSION>
1

> <PUBCHEM_EXT_DATASOURCE_NAME>
4488

> <PUBCHEM_EXT_DATASOURCE_REGID>
SCHEMBL16118968

> <PUBCHEM_SUBSTANCE_COMMENT>
InChI=1S/C21H23N5O3/c1-21(2)18(27)17(19-23-13-8-6-7-9-14(13)24-19)20(22-3)26(21)12-10-15(28-4)25-16(11-12)29-5/h6-11,22H,1-5H3,(H,23,24)
InChIKey=LNZVLQSOFIPOBW-UHFFFAOYSA-N

> <PUBCHEM_SUBSTANCE_SYNONYM>
SCHEMBL16118968

> <PUBCHEM_XREF_EXT_ID>
SCHEMBL16118968

> <PUBCHEM_EXT_DATASOURCE_URL>
https://www.surechembl.org/

> <PUBCHEM_EXT_SUBSTANCE_URL>
https://www.surechembl.org/chemical/SCHEMBL16118968

> <PUBCHEM_CID_ASSOCIATIONS>
117607913  1

> <PUBCHEM_COORDINATE_TYPE>
1
3

$$$$
