310942266
  -OEChem-07211613022D

 30 32  0     1  0  0  0  0  0999 V2000
    1.7809    0.4936    0.0000 Cl  0  0  0  0  0  0  0  0  0  0  0  0
    0.3312   -1.9934    0.0000 F   0  0  0  0  0  0  0  0  0  0  0  0
    1.7684   -1.1685    0.0000 O   0  0  0  0  0  0  0  0  0  0  0  0
   -0.3937    1.7434    0.0000 O   0  0  0  0  0  0  0  0  0  0  0  0
   -1.8184   -0.7436    0.0000 N   0  0  0  0  0  0  0  0  0  0  0  0
   -1.8309    1.7559    0.0000 N   0  0  0  0  0  0  0  0  0  0  0  0
   -3.9431    2.1684    0.0000 N   0  0  0  0  0  0  0  0  0  0  0  0
   -0.3812   -0.7436    0.0000 C   0  0  0  0  0  0  0  0  0  0  0  0
    0.3312   -1.1560    0.0000 C   0  0  0  0  0  0  0  0  0  0  0  0
    1.0435   -0.7436    0.0000 C   0  0  0  0  0  0  0  0  0  0  0  0
    1.0561    0.0937    0.0000 C   0  0  0  0  0  0  0  0  0  0  0  0
   -1.1061   -1.1560    0.0000 C   0  0  3  0  0  0  0  0  0  0  0  0
   -0.3687    0.0813    0.0000 C   0  0  0  0  0  0  0  0  0  0  0  0
    0.3437    0.4936    0.0000 C   0  0  0  0  0  0  0  0  0  0  0  0
    2.5058   -0.7436    0.0000 C   0  0  0  0  0  0  0  0  0  0  0  0
   -1.1061   -1.9934    0.0000 C   0  0  0  0  0  0  0  0  0  0  0  0
   -1.8309    0.0937    0.0000 C   0  0  3  0  0  0  0  0  0  0  0  0
    2.5182    0.0813    0.0000 C   0  0  0  0  0  0  0  0  0  0  0  0
    3.2181   -1.1560    0.0000 C   0  0  0  0  0  0  0  0  0  0  0  0
   -1.1061    0.4936    0.0000 C   0  0  0  0  0  0  0  0  0  0  0  0
   -1.1185    1.3309    0.0000 C   0  0  0  0  0  0  0  0  0  0  0  0
   -2.6683    1.7684    0.0000 C   0  0  3  0  0  0  0  0  0  0  0  0
    3.2306    0.4936    0.0000 C   0  0  0  0  0  0  0  0  0  0  0  0
    3.9431   -0.7436    0.0000 C   0  0  0  0  0  0  0  0  0  0  0  0
   -1.8059   -2.4183    0.0000 C   0  0  0  0  0  0  0  0  0  0  0  0
   -2.5433    0.4936    0.0000 C   0  0  0  0  0  0  0  0  0  0  0  0
    3.9431    0.0813    0.0000 C   0  0  0  0  0  0  0  0  0  0  0  0
   -3.1556    2.4183    0.0000 C   0  0  0  0  0  0  0  0  0  0  0  0
   -3.1556    1.0810    0.0000 C   0  0  0  0  0  0  0  0  0  0  0  0
   -3.9431    1.3435    0.0000 C   0  0  0  0  0  0  0  0  0  0  0  0
  1 11  1  0  0  0  0
  2  9  1  0  0  0  0
  3 10  1  0  0  0  0
  3 15  1  0  0  0  0
  4 21  2  0  0  0  0
 12  5  1  1  0  0  0
  5 17  1  0  0  0  0
  6 21  1  0  0  0  0
 22  6  1  1  0  0  0
  7 28  1  0  0  0  0
  7 30  1  0  0  0  0
  8  9  2  0  0  0  0
  8 12  1  0  0  0  0
  8 13  1  0  0  0  0
  9 10  1  0  0  0  0
 10 11  2  0  0  0  0
 11 14  1  0  0  0  0
 12 16  1  0  0  0  0
 13 14  2  0  0  0  0
 15 18  2  0  0  0  0
 15 19  1  0  0  0  0
 16 25  1  0  0  0  0
 17 20  1  0  0  0  0
 17 26  1  1  0  0  0
 18 23  1  0  0  0  0
 19 24  2  0  0  0  0
 20 21  1  0  0  0  0
 22 28  1  0  0  0  0
 22 29  1  0  0  0  0
 23 27  2  0  0  0  0
 24 27  1  0  0  0  0
 29 30  1  0  0  0  0
M  END
> <PUBCHEM_COMPOUND_ID_TYPE>
0

> <PUBCHEM_TOTAL_CHARGE>
0

> <PUBCHEM_SUBSTANCE_ID>
310942266

> <PUBCHEM_SUBSTANCE_VERSION>
1

> <PUBCHEM_EXT_DATASOURCE_NAME>
4488

> <PUBCHEM_EXT_DATASOURCE_REGID>
SCHEMBL16120301

> <PUBCHEM_SUBSTANCE_COMMENT>
InChI=1S/C23H29ClFN3O2/c1-3-20(27-15(2)13-21(29)28-16-11-12-26-14-16)18-9-10-19(24)23(22(18)25)30-17-7-5-4-6-8-17/h4-10,15-16,20,26-27H,3,11-14H2,1-2H3,(H,28,29)/t15-,16-,20+/m0/s1
InChIKey=CWRFIULRHUUPKQ-TWOQFEAHSA-N

> <PUBCHEM_SUBSTANCE_SYNONYM>
SCHEMBL16120301

> <PUBCHEM_XREF_EXT_ID>
SCHEMBL16120301

> <PUBCHEM_EXT_DATASOURCE_URL>
https://www.surechembl.org/

> <PUBCHEM_EXT_SUBSTANCE_URL>
https://www.surechembl.org/chemical/SCHEMBL16120301

> <PUBCHEM_CID_ASSOCIATIONS>
117608916  1

> <PUBCHEM_COORDINATE_TYPE>
1
3

> <PUBCHEM_BONDANNOTATIONS>
17  26  5
12  5  5
22  6  5

$$$$
