310945802
  -OEChem-07211613022D

 39 42  0     1  0  0  0  0  0999 V2000
    4.0365    0.6832    0.0000 O   0  0  0  0  0  0  0  0  0  0  0  0
    2.9071   -1.2967    0.0000 O   0  0  0  0  0  0  0  0  0  0  0  0
    0.7320    0.7947    0.0000 O   0  0  0  0  0  0  0  0  0  0  0  0
   -1.4431   -1.2967    0.0000 O   0  0  0  0  0  0  0  0  0  0  0  0
    2.9071   -2.9698    0.0000 O   0  0  0  0  0  0  0  0  0  0  0  0
   -2.1681   -2.5516    0.0000 O   0  0  0  0  0  0  0  0  0  0  0  0
    1.4570   -0.4462    0.0000 N   0  0  0  0  0  0  0  0  0  0  0  0
   -0.7181   -0.0279    0.0000 N   0  0  0  0  0  0  0  0  0  0  0  0
   -2.8932   -0.4462    0.0000 N   0  0  3  0  0  0  0  0  0  0  0  0
    3.6182   -0.0139    0.0000 C   0  0  3  0  0  0  0  0  0  0  0  0
    2.9071   -0.4322    0.0000 C   0  0  0  0  0  0  0  0  0  0  0  0
    3.2417    0.6832    0.0000 C   0  0  0  0  0  0  0  0  0  0  0  0
    2.1681   -0.0279    0.0000 C   0  0  3  0  0  0  0  0  0  0  0  0
    4.3292   -0.4322    0.0000 C   0  0  0  0  0  0  0  0  0  0  0  0
    2.1821    1.3106    0.0000 C   0  0  0  0  0  0  0  0  0  0  0  0
    0.7320   -0.0558    0.0000 C   0  0  0  0  0  0  0  0  0  0  0  0
    0.0209   -0.4462    0.0000 C   0  0  3  0  0  0  0  0  0  0  0  0
    1.4431    1.7289    0.0000 C   0  0  0  0  0  0  0  0  0  0  0  0
   -0.0070   -1.2967    0.0000 C   0  0  0  0  0  0  0  0  0  0  0  0
    0.7459   -1.7010    0.0000 C   0  0  0  0  0  0  0  0  0  0  0  0
   -1.4431   -0.4183    0.0000 C   0  0  0  0  0  0  0  0  0  0  0  0
    1.4570    2.5516    0.0000 C   0  0  0  0  0  0  0  0  0  0  0  0
    0.7320    1.3106    0.0000 C   0  0  0  0  0  0  0  0  0  0  0  0
   -2.1821   -0.0418    0.0000 C   0  0  0  0  0  0  0  0  0  0  0  0
   -2.8932   -1.2827    0.0000 C   0  0  3  0  0  0  0  0  0  0  0  0
    0.7459   -2.5376    0.0000 C   0  0  0  0  0  0  0  0  0  0  0  0
    1.4710   -1.2967    0.0000 C   0  0  0  0  0  0  0  0  0  0  0  0
    0.7459    2.9698    0.0000 C   0  0  0  0  0  0  0  0  0  0  0  0
    0.0209    1.7289    0.0000 C   0  0  0  0  0  0  0  0  0  0  0  0
    2.1681   -2.5237    0.0000 C   0  0  0  0  0  0  0  0  0  0  0  0
   -3.6182   -0.0279    0.0000 C   0  0  0  0  0  0  0  0  0  0  0  0
    1.4431   -2.9420    0.0000 C   0  0  0  0  0  0  0  0  0  0  0  0
    2.1821   -1.7150    0.0000 C   0  0  0  0  0  0  0  0  0  0  0  0
   -3.6042   -1.7010    0.0000 C   0  0  0  0  0  0  0  0  0  0  0  0
    0.0209    2.5516    0.0000 C   0  0  0  0  0  0  0  0  0  0  0  0
   -2.1542   -1.7150    0.0000 C   0  0  0  0  0  0  0  0  0  0  0  0
   -4.3292   -0.4462    0.0000 C   0  0  0  0  0  0  0  0  0  0  0  0
   -4.3292   -1.2827    0.0000 C   0  0  0  0  0  0  0  0  0  0  0  0
    3.6461   -2.5516    0.0000 C   0  0  0  0  0  0  0  0  0  0  0  0
  1 10  1  0  0  0  0
  1 12  1  0  0  0  0
  2 11  2  0  0  0  0
  3 16  2  0  0  0  0
  4 21  2  0  0  0  0
  5 30  1  0  0  0  0
  5 39  1  0  0  0  0
  6 36  1  0  0  0  0
 13  7  1  1  0  0  0
  7 16  1  0  0  0  0
 17  8  1  6  0  0  0
  8 21  1  0  0  0  0
  9 24  1  0  0  0  0
  9 25  1  0  0  0  0
  9 31  1  0  0  0  0
 10 11  1  1  0  0  0
 10 12  1  0  0  0  0
 10 14  1  6  0  0  0
 11 13  1  0  0  0  0
 13 15  1  0  0  0  0
 15 18  1  0  0  0  0
 16 17  1  0  0  0  0
 17 19  1  0  0  0  0
 18 22  2  0  0  0  0
 18 23  1  0  0  0  0
 19 20  1  0  0  0  0
 20 26  2  0  0  0  0
 20 27  1  0  0  0  0
 21 24  1  0  0  0  0
 22 28  1  0  0  0  0
 23 29  2  0  0  0  0
 25 34  1  0  0  0  0
 25 36  1  1  0  0  0
 26 32  1  0  0  0  0
 27 33  2  0  0  0  0
 28 35  2  0  0  0  0
 29 35  1  0  0  0  0
 30 32  2  0  0  0  0
 30 33  1  0  0  0  0
 31 37  1  0  0  0  0
 34 38  1  0  0  0  0
 37 38  1  0  0  0  0
M  END
> <PUBCHEM_COMPOUND_ID_TYPE>
0

> <PUBCHEM_TOTAL_CHARGE>
0

> <PUBCHEM_SUBSTANCE_ID>
310945802

> <PUBCHEM_SUBSTANCE_VERSION>
1

> <PUBCHEM_EXT_DATASOURCE_NAME>
4488

> <PUBCHEM_EXT_DATASOURCE_REGID>
SCHEMBL16123906

> <PUBCHEM_SUBSTANCE_COMMENT>
InChI=1S/C30H39N3O6/c1-30(20-39-30)28(36)25(16-21-8-4-3-5-9-21)32-29(37)26(17-22-11-13-24(38-2)14-12-22)31-27(35)18-33-15-7-6-10-23(33)19-34/h3-5,8-9,11-14,23,25-26,34H,6-7,10,15-20H2,1-2H3,(H,31,35)(H,32,37)/t23-,25+,26+,30-/m1/s1
InChIKey=AQDOWGLUUVYWNJ-MVTRJSSCSA-N

> <PUBCHEM_SUBSTANCE_SYNONYM>
SCHEMBL16123906

> <PUBCHEM_XREF_EXT_ID>
SCHEMBL16123906

> <PUBCHEM_EXT_DATASOURCE_URL>
https://www.surechembl.org/

> <PUBCHEM_EXT_SUBSTANCE_URL>
https://www.surechembl.org/chemical/SCHEMBL16123906

> <PUBCHEM_CID_ASSOCIATIONS>
117611789  1

> <PUBCHEM_COORDINATE_TYPE>
1
3

> <PUBCHEM_BONDANNOTATIONS>
10  11  5
10  14  6
25  36  5
13  7  5
17  8  6

$$$$
