310933026
  -OEChem-07211613022D

 19 21  0     0  0  0  0  0  0999 V2000
    0.7223    0.0000    0.0000 O   0  0  0  0  0  0  0  0  0  0  0  0
    0.0000   -2.0673    0.0000 N   0  0  0  0  0  0  0  0  0  0  0  0
    0.0000   -1.2454    0.0000 N   0  0  0  0  0  0  0  0  0  0  0  0
    2.8893   -3.7610    0.0000 N   0  0  0  0  0  0  0  0  0  0  0  0
    1.4446   -2.0673    0.0000 C   0  0  0  0  0  0  0  0  0  0  0  0
    1.4446   -1.2454    0.0000 C   0  0  0  0  0  0  0  0  0  0  0  0
    0.7223   -2.4907    0.0000 C   0  0  0  0  0  0  0  0  0  0  0  0
    0.7223   -0.8219    0.0000 C   0  0  0  0  0  0  0  0  0  0  0  0
    2.1421   -2.4907    0.0000 C   0  0  0  0  0  0  0  0  0  0  0  0
    2.1421   -0.8219    0.0000 C   0  0  0  0  0  0  0  0  0  0  0  0
    0.7223   -3.3127    0.0000 C   0  0  0  0  0  0  0  0  0  0  0  0
    2.8643   -2.0673    0.0000 C   0  0  0  0  0  0  0  0  0  0  0  0
    2.8643   -1.2454    0.0000 C   0  0  0  0  0  0  0  0  0  0  0  0
    1.4446   -3.7361    0.0000 C   0  0  0  0  0  0  0  0  0  0  0  0
    2.1670   -3.3376    0.0000 C   0  0  0  0  0  0  0  0  0  0  0  0
    1.4446   -4.5830    0.0000 C   0  0  0  0  0  0  0  0  0  0  0  0
    3.5867   -2.4907    0.0000 C   0  0  0  0  0  0  0  0  0  0  0  0
    2.1670   -4.9815    0.0000 C   0  0  0  0  0  0  0  0  0  0  0  0
    2.8893   -4.5830    0.0000 C   0  0  0  0  0  0  0  0  0  0  0  0
  1  8  1  0  0  0  0
  2  3  1  0  0  0  0
  2  7  1  0  0  0  0
  3  8  1  0  0  0  0
  4 15  1  0  0  0  0
  4 19  2  0  0  0  0
  5  6  1  0  0  0  0
  5  7  2  0  0  0  0
  5  9  1  0  0  0  0
  6  8  2  0  0  0  0
  6 10  1  0  0  0  0
  7 11  1  0  0  0  0
  9 12  2  0  0  0  0
 10 13  2  0  0  0  0
 11 14  1  0  0  0  0
 12 13  1  0  0  0  0
 12 17  1  0  0  0  0
 14 15  2  0  0  0  0
 14 16  1  0  0  0  0
 16 18  2  0  0  0  0
 18 19  1  0  0  0  0
M  END
> <PUBCHEM_COMPOUND_ID_TYPE>
0

> <PUBCHEM_TOTAL_CHARGE>
0

> <PUBCHEM_SUBSTANCE_ID>
310933026

> <PUBCHEM_SUBSTANCE_VERSION>
1

> <PUBCHEM_EXT_DATASOURCE_NAME>
4488

> <PUBCHEM_EXT_DATASOURCE_REGID>
SCHEMBL16110426

> <PUBCHEM_SUBSTANCE_COMMENT>
InChI=1S/C15H15N3O/c1-10-4-5-12-13(7-10)14(17-18-15(12)19)8-11-3-2-6-16-9-11/h2-7,9,17-19H,8H2,1H3
InChIKey=VWVFRNIGFJRKBB-UHFFFAOYSA-N

> <PUBCHEM_SUBSTANCE_SYNONYM>
SCHEMBL16110426

> <PUBCHEM_XREF_EXT_ID>
SCHEMBL16110426

> <PUBCHEM_EXT_DATASOURCE_URL>
https://www.surechembl.org/

> <PUBCHEM_EXT_SUBSTANCE_URL>
https://www.surechembl.org/chemical/SCHEMBL16110426

> <PUBCHEM_CID_ASSOCIATIONS>
117601491  1

> <PUBCHEM_COORDINATE_TYPE>
1
3

$$$$
