310947547
  -OEChem-07211613022D

 45 49  0     1  0  0  0  0  0999 V2000
    0.3461   -7.3274    0.0000 P   0  0  3  0  0  0  0  0  0  0  0  0
    2.0095  -10.1246    0.0000 F   0  0  0  0  0  0  0  0  0  0  0  0
    2.8346   -8.1404    0.0000 O   0  0  0  0  0  0  0  0  0  0  0  0
    3.6597  -10.1246    0.0000 O   0  0  0  0  0  0  0  0  0  0  0  0
    0.9296   -7.9109    0.0000 O   0  0  0  0  0  0  0  0  0  0  0  0
    5.0013   -5.4827    0.0000 O   0  0  0  0  0  0  0  0  0  0  0  0
   -0.2373   -6.7440    0.0000 O   0  0  0  0  0  0  0  0  0  0  0  0
    0.9296   -6.7440    0.0000 O   0  0  0  0  0  0  0  0  0  0  0  0
   -0.9518   -9.9735    0.0000 O   0  0  0  0  0  0  0  0  0  0  0  0
   -1.6663   -8.7360    0.0000 O   0  0  0  0  0  0  0  0  0  0  0  0
    3.5021   -7.8003    0.0000 N   0  0  0  0  0  0  0  0  0  0  0  0
    3.5021   -6.4654    0.0000 N   0  0  0  0  0  0  0  0  0  0  0  0
    5.0013   -7.9579    0.0000 N   0  0  0  0  0  0  0  0  0  0  0  0
    5.7158   -6.7203    0.0000 N   0  0  0  0  0  0  0  0  0  0  0  0
   -0.2373   -7.9109    0.0000 N   0  0  0  0  0  0  0  0  0  0  0  0
    6.4304   -7.9579    0.0000 N   0  0  0  0  0  0  0  0  0  0  0  0
    3.5021   -8.6253    0.0000 C   0  0  3  0  0  0  0  0  0  0  0  0
    3.2471   -9.4101    0.0000 C   0  0  3  0  0  0  0  0  0  0  0  0
    2.4221   -9.4101    0.0000 C   0  0  3  0  0  0  0  0  0  0  0  0
    4.2868   -7.5454    0.0000 C   0  0  0  0  0  0  0  0  0  0  0  0
    2.1672   -8.6253    0.0000 C   0  0  3  0  0  0  0  0  0  0  0  0
    4.2868   -6.7203    0.0000 C   0  0  0  0  0  0  0  0  0  0  0  0
    3.0171   -7.1328    0.0000 C   0  0  0  0  0  0  0  0  0  0  0  0
    5.0013   -6.3078    0.0000 C   0  0  0  0  0  0  0  0  0  0  0  0
    3.9617   -8.9976    0.0000 C   0  0  0  0  0  0  0  0  0  0  0  0
    1.7546   -7.9109    0.0000 C   0  0  0  0  0  0  0  0  0  0  0  0
    5.7158   -7.5454    0.0000 C   0  0  0  0  0  0  0  0  0  0  0  0
   -0.2373   -5.9189    0.0000 C   0  0  0  0  0  0  0  0  0  0  0  0
   -0.9518   -5.5064    0.0000 C   0  0  0  0  0  0  0  0  0  0  0  0
   -0.9518   -4.6813    0.0000 C   0  0  0  0  0  0  0  0  0  0  0  0
   -0.2373   -8.7360    0.0000 C   0  0  3  0  0  0  0  0  0  0  0  0
    0.4772   -5.5064    0.0000 C   0  0  0  0  0  0  0  0  0  0  0  0
   -1.6663   -5.9189    0.0000 C   0  0  0  0  0  0  0  0  0  0  0  0
    5.7158   -5.0702    0.0000 C   0  0  0  0  0  0  0  0  0  0  0  0
   -0.2373   -4.2688    0.0000 C   0  0  0  0  0  0  0  0  0  0  0  0
    0.4772   -4.6813    0.0000 C   0  0  0  0  0  0  0  0  0  0  0  0
   -1.6663   -4.2688    0.0000 C   0  0  0  0  0  0  0  0  0  0  0  0
   -0.9518   -9.1485    0.0000 C   0  0  0  0  0  0  0  0  0  0  0  0
   -2.3809   -5.5064    0.0000 C   0  0  0  0  0  0  0  0  0  0  0  0
   -2.3809   -4.6813    0.0000 C   0  0  0  0  0  0  0  0  0  0  0  0
    0.4772   -9.1485    0.0000 C   0  0  0  0  0  0  0  0  0  0  0  0
   -1.6663  -10.3861    0.0000 C   0  0  0  0  0  0  0  0  0  0  0  0
   -1.6663  -11.2111    0.0000 C   0  0  0  0  0  0  0  0  0  0  0  0
   -2.3809  -11.6237    0.0000 C   0  0  0  0  0  0  0  0  0  0  0  0
   -2.3809  -12.4487    0.0000 C   0  0  0  0  0  0  0  0  0  0  0  0
  1  5  1  0  0  0  0
  1  7  1  0  0  0  0
  1  8  2  0  0  0  0
  1 15  1  0  0  0  0
 19  2  1  6  0  0  0
  3 17  1  0  0  0  0
  3 21  1  0  0  0  0
 18  4  1  6  0  0  0
  5 26  1  0  0  0  0
  6 24  1  0  0  0  0
  6 34  1  0  0  0  0
  7 28  1  0  0  0  0
  9 38  1  0  0  0  0
  9 42  1  0  0  0  0
 10 38  2  0  0  0  0
 11 17  1  0  0  0  0
 11 20  1  0  0  0  0
 11 23  1  0  0  0  0
 12 22  1  0  0  0  0
 12 23  2  0  0  0  0
 13 20  1  0  0  0  0
 13 27  2  0  0  0  0
 14 24  2  0  0  0  0
 14 27  1  0  0  0  0
 15 31  1  0  0  0  0
 16 27  1  0  0  0  0
 17 18  1  0  0  0  0
 18 19  1  0  0  0  0
 18 25  1  1  0  0  0
 19 21  1  0  0  0  0
 20 22  2  0  0  0  0
 21 26  1  1  0  0  0
 22 24  1  0  0  0  0
 28 29  1  0  0  0  0
 28 32  2  0  0  0  0
 29 30  2  0  0  0  0
 29 33  1  0  0  0  0
 30 35  1  0  0  0  0
 30 37  1  0  0  0  0
 31 38  1  0  0  0  0
 31 41  1  1  0  0  0
 32 36  1  0  0  0  0
 33 39  2  0  0  0  0
 35 36  2  0  0  0  0
 37 40  2  0  0  0  0
 39 40  1  0  0  0  0
 42 43  1  0  0  0  0
 43 44  1  0  0  0  0
 44 45  1  0  0  0  0
M  END
> <PUBCHEM_COMPOUND_ID_TYPE>
0

> <PUBCHEM_TOTAL_CHARGE>
0

> <PUBCHEM_SUBSTANCE_ID>
310947547

> <PUBCHEM_SUBSTANCE_VERSION>
1

> <PUBCHEM_EXT_DATASOURCE_NAME>
4488

> <PUBCHEM_EXT_DATASOURCE_REGID>
SCHEMBL16125710

> <PUBCHEM_SUBSTANCE_COMMENT>
InChI=1S/C29H36FN6O8P/c1-5-6-14-41-26(37)17(2)35-45(39,44-20-13-9-11-18-10-7-8-12-19(18)20)42-15-21-23(30)29(3,38)27(43-21)36-16-32-22-24(36)33-28(31)34-25(22)40-4/h7-13,16-17,21,23,27,38H,5-6,14-15H2,1-4H3,(H,35,39)(H2,31,33,34)/t17-,21+,23+,27?,29+,45?/m0/s1
InChIKey=JDRCMTJLERRBCL-FFJHZSSRSA-N

> <PUBCHEM_SUBSTANCE_SYNONYM>
SCHEMBL16125710

> <PUBCHEM_XREF_EXT_ID>
SCHEMBL16125710

> <PUBCHEM_EXT_DATASOURCE_URL>
https://www.surechembl.org/

> <PUBCHEM_EXT_SUBSTANCE_URL>
https://www.surechembl.org/chemical/SCHEMBL16125710

> <PUBCHEM_CID_ASSOCIATIONS>
117613269  1

> <PUBCHEM_COORDINATE_TYPE>
1
3

> <PUBCHEM_BONDANNOTATIONS>
18  25  5
19  2  6
21  26  5
31  41  5
18  4  6

$$$$
