310941416
  -OEChem-07211613022D

 22 23  0     1  0  0  0  0  0999 V2000
    1.4365    0.6005    0.0000 O   0  0  0  0  0  0  0  0  0  0  0  0
    0.0156   -1.0546    0.0000 O   0  0  0  0  0  0  0  0  0  0  0  0
    0.5795   -2.0337    0.0000 O   0  0  0  0  0  0  0  0  0  0  0  0
    0.0837   -2.8489    0.0000 O   0  0  0  0  0  0  0  0  0  0  0  0
   -0.5152    2.8489    0.0000 O   0  0  0  0  0  0  0  0  0  0  0  0
    0.0156    1.4436    0.0000 N   0  0  0  0  0  0  0  0  0  0  0  0
   -1.4365   -0.2271    0.0000 N   0  0  0  0  0  0  0  0  0  0  0  0
    0.7495    0.2101    0.0000 C   0  0  3  0  0  0  0  0  0  0  0  0
    0.0156   -0.1959    0.0000 C   0  0  0  0  0  0  0  0  0  0  0  0
    1.4365   -0.1959    0.0000 C   0  0  0  0  0  0  0  0  0  0  0  0
   -0.7026    0.2101    0.0000 C   0  0  3  0  0  0  0  0  0  0  0  0
   -0.6870    1.0377    0.0000 C   0  0  0  0  0  0  0  0  0  0  0  0
    0.3279    0.9284    0.0000 C   0  0  0  0  0  0  0  0  0  0  0  0
    0.0837   -2.3201    0.0000 C   0  0  0  0  0  0  0  0  0  0  0  0
    0.1250    2.2712    0.0000 C   0  0  0  0  0  0  0  0  0  0  0  0
    0.7807    1.1157    0.0000 C   0  0  0  0  0  0  0  0  0  0  0  0
    0.9368    2.4429    0.0000 C   0  0  0  0  0  0  0  0  0  0  0  0
    0.5905   -1.4829    0.0000 C   0  0  0  0  0  0  0  0  0  0  0  0
    1.3428    1.7403    0.0000 C   0  0  0  0  0  0  0  0  0  0  0  0
    1.0862   -1.4609    0.0000 C   0  0  0  0  0  0  0  0  0  0  0  0
    0.0837   -1.4829    0.0000 C   0  0  0  0  0  0  0  0  0  0  0  0
    0.5795   -0.9431    0.0000 C   0  0  0  0  0  0  0  0  0  0  0  0
  1  8  1  0  0  0  0
  1 10  1  0  0  0  0
  2  9  2  0  0  0  0
  3 14  1  0  0  0  0
  3 18  1  0  0  0  0
  4 14  2  0  0  0  0
  5 15  2  0  0  0  0
  6 12  1  0  0  0  0
  6 15  1  0  0  0  0
  6 16  1  0  0  0  0
 11  7  1  1  0  0  0
  7 14  1  0  0  0  0
  8  9  1  6  0  0  0
  8 10  1  0  0  0  0
  8 13  1  1  0  0  0
  9 11  1  0  0  0  0
 11 12  1  0  0  0  0
 15 17  1  0  0  0  0
 16 19  1  0  0  0  0
 17 19  1  0  0  0  0
 18 20  1  0  0  0  0
 18 21  1  0  0  0  0
 18 22  1  0  0  0  0
M  END
> <PUBCHEM_COMPOUND_ID_TYPE>
0

> <PUBCHEM_TOTAL_CHARGE>
0

> <PUBCHEM_SUBSTANCE_ID>
310941416

> <PUBCHEM_SUBSTANCE_VERSION>
1

> <PUBCHEM_EXT_DATASOURCE_NAME>
4488

> <PUBCHEM_EXT_DATASOURCE_REGID>
SCHEMBL16119376

> <PUBCHEM_SUBSTANCE_COMMENT>
InChI=1S/C15H24N2O5/c1-14(2,3)22-13(20)16-10(12(19)15(4)9-21-15)8-17-7-5-6-11(17)18/h10H,5-9H2,1-4H3,(H,16,20)/t10-,15+/m0/s1
InChIKey=OLUVCROTDBACFH-ZUZCIYMTSA-N

> <PUBCHEM_SUBSTANCE_SYNONYM>
SCHEMBL16119376

> <PUBCHEM_XREF_EXT_ID>
SCHEMBL16119376

> <PUBCHEM_EXT_DATASOURCE_URL>
https://www.surechembl.org/

> <PUBCHEM_EXT_SUBSTANCE_URL>
https://www.surechembl.org/chemical/SCHEMBL16119376

> <PUBCHEM_CID_ASSOCIATIONS>
117608241  1

> <PUBCHEM_COORDINATE_TYPE>
1
3

> <PUBCHEM_BONDANNOTATIONS>
11  7  5
8  13  5
8  9  6

$$$$
