310945130
  -OEChem-07211613022D

 33 38  0     1  0  0  0  0  0999 V2000
    2.1155    0.9955    0.0000 S   0  0  0  0  0  0  0  0  0  0  0  0
    3.7332    0.8158    0.0000 O   0  0  0  0  0  0  0  0  0  0  0  0
   -1.9358    2.0049    0.0000 O   0  0  0  0  0  0  0  0  0  0  0  0
   -1.0923    0.3456    0.0000 N   0  0  0  0  0  0  0  0  0  0  0  0
   -2.6547    0.7605    0.0000 N   0  0  0  0  0  0  0  0  0  0  0  0
    1.9219   -1.1476    0.0000 N   0  0  0  0  0  0  0  0  0  0  0  0
    3.7194   -0.6222    0.0000 N   0  0  0  0  0  0  0  0  0  0  0  0
    1.1061    0.1106    0.0000 C   0  0  0  0  0  0  0  0  0  0  0  0
    0.2903   -0.0415    0.0000 C   0  0  0  0  0  0  0  0  0  0  0  0
    1.8390   -0.3318    0.0000 C   0  0  0  0  0  0  0  0  0  0  0  0
    1.2997    0.9126    0.0000 C   0  0  0  0  0  0  0  0  0  0  0  0
    2.4473    0.2489    0.0000 C   0  0  0  0  0  0  0  0  0  0  0  0
   -0.3042    0.5530    0.0000 C   0  0  0  0  0  0  0  0  0  0  0  0
   -1.3412   -0.4562    0.0000 C   0  0  0  0  0  0  0  0  0  0  0  0
   -2.1293   -0.6499    0.0000 C   0  0  0  0  0  0  0  0  0  0  0  0
   -2.7100   -0.0691    0.0000 C   0  0  0  0  0  0  0  0  0  0  0  0
    0.7467    1.5071    0.0000 C   0  0  0  0  0  0  0  0  0  0  0  0
    0.0553   -0.8573    0.0000 C   0  0  0  0  0  0  0  0  0  0  0  0
    3.3046    0.0830    0.0000 C   0  0  0  0  0  0  0  0  0  0  0  0
   -0.0691    1.3550    0.0000 C   0  0  0  0  0  0  0  0  0  0  0  0
   -3.4982   -0.2765    0.0000 C   0  0  0  0  0  0  0  0  0  0  0  0
   -0.7328   -1.0508    0.0000 C   0  0  0  0  0  0  0  0  0  0  0  0
   -2.3505   -1.4656    0.0000 C   0  0  0  0  0  0  0  0  0  0  0  0
   -3.4152    1.0647    0.0000 C   0  0  0  0  0  0  0  0  0  0  0  0
   -3.9406    0.4148    0.0000 C   0  0  0  0  0  0  0  0  0  0  0  0
    2.6132   -1.6315    0.0000 C   0  0  0  0  0  0  0  0  0  0  0  0
   -1.9496    1.1614    0.0000 C   0  0  0  0  0  0  0  0  0  0  0  0
   -3.7194   -1.0647    0.0000 C   0  0  0  0  0  0  0  0  0  0  0  0
    3.4014   -1.3965    0.0000 C   0  0  3  0  0  0  0  0  0  0  0  0
   -3.1525   -1.6592    0.0000 C   0  0  0  0  0  0  0  0  0  0  0  0
   -1.2167    0.7743    0.0000 C   0  0  0  0  0  0  0  0  0  0  0  0
    3.9406   -2.0049    0.0000 C   0  0  0  0  0  0  0  0  0  0  0  0
   -0.5392    1.2444    0.0000 C   0  0  0  0  0  0  0  0  0  0  0  0
  1 11  1  0  0  0  0
  1 12  1  0  0  0  0
  2 19  2  0  0  0  0
  3 27  2  0  0  0  0
  4 13  1  0  0  0  0
  4 14  2  0  0  0  0
  5 16  1  0  0  0  0
  5 24  1  0  0  0  0
  5 27  1  0  0  0  0
  6 10  1  0  0  0  0
  6 26  1  0  0  0  0
  7 19  1  0  0  0  0
  7 29  1  0  0  0  0
  8  9  1  0  0  0  0
  8 10  1  0  0  0  0
  8 11  2  0  0  0  0
  9 13  2  0  0  0  0
  9 18  1  0  0  0  0
 10 12  2  0  0  0  0
 11 17  1  0  0  0  0
 12 19  1  0  0  0  0
 13 20  1  0  0  0  0
 14 15  1  0  0  0  0
 14 22  1  0  0  0  0
 15 16  1  0  0  0  0
 15 23  2  0  0  0  0
 16 21  2  0  0  0  0
 17 20  2  0  0  0  0
 18 22  2  0  0  0  0
 21 25  1  0  0  0  0
 21 28  1  0  0  0  0
 23 30  1  0  0  0  0
 24 25  1  0  0  0  0
 26 29  1  0  0  0  0
 27 31  1  0  0  0  0
 28 30  2  0  0  0  0
 29 32  1  6  0  0  0
 31 33  2  0  0  0  0
M  END
> <PUBCHEM_COMPOUND_ID_TYPE>
0

> <PUBCHEM_TOTAL_CHARGE>
0

> <PUBCHEM_SUBSTANCE_ID>
310945130

> <PUBCHEM_SUBSTANCE_VERSION>
1

> <PUBCHEM_EXT_DATASOURCE_NAME>
4488

> <PUBCHEM_EXT_DATASOURCE_REGID>
SCHEMBL16123220

> <PUBCHEM_SUBSTANCE_COMMENT>
InChI=1S/C26H22N4O2S/c1-3-21(31)30-12-11-15-5-4-6-17(24(15)30)19-8-7-16-18(29-19)9-10-20-22(16)23-25(33-20)26(32)28-14(2)13-27-23/h3-10,14,27H,1,11-13H2,2H3,(H,28,32)/t14-/m1/s1
InChIKey=XVVBQMKHYZDNHI-CQSZACIVSA-N

> <PUBCHEM_SUBSTANCE_SYNONYM>
SCHEMBL16123220

> <PUBCHEM_XREF_EXT_ID>
SCHEMBL16123220

> <PUBCHEM_EXT_DATASOURCE_URL>
https://www.surechembl.org/

> <PUBCHEM_EXT_SUBSTANCE_URL>
https://www.surechembl.org/chemical/SCHEMBL16123220

> <PUBCHEM_CID_ASSOCIATIONS>
117611225  1

> <PUBCHEM_COORDINATE_TYPE>
1
3

> <PUBCHEM_BONDANNOTATIONS>
29  32  6

$$$$
