310947562
  -OEChem-07211613022D

 45 49  0     1  0  0  0  0  0999 V2000
   -1.5581   12.7083    0.0000 P   0  0  3  0  0  0  0  0  0  0  0  0
    0.2479   10.2560    0.0000 F   0  0  0  0  0  0  0  0  0  0  0  0
    1.0729   12.2400    0.0000 O   0  0  0  0  0  0  0  0  0  0  0  0
    1.8979   10.2560    0.0000 O   0  0  0  0  0  0  0  0  0  0  0  0
   -0.9747   12.1249    0.0000 O   0  0  0  0  0  0  0  0  0  0  0  0
    3.2395   14.8975    0.0000 O   0  0  0  0  0  0  0  0  0  0  0  0
   -2.1415   13.2916    0.0000 O   0  0  0  0  0  0  0  0  0  0  0  0
   -0.9747   13.2916    0.0000 O   0  0  0  0  0  0  0  0  0  0  0  0
   -2.8559   10.0624    0.0000 O   0  0  0  0  0  0  0  0  0  0  0  0
   -3.5704   11.2999    0.0000 O   0  0  0  0  0  0  0  0  0  0  0  0
    1.7404   12.5801    0.0000 N   0  0  0  0  0  0  0  0  0  0  0  0
    1.7404   13.9150    0.0000 N   0  0  0  0  0  0  0  0  0  0  0  0
    3.2395   12.4225    0.0000 N   0  0  0  0  0  0  0  0  0  0  0  0
    3.9539   13.6600    0.0000 N   0  0  0  0  0  0  0  0  0  0  0  0
   -2.1415   12.1249    0.0000 N   0  0  0  0  0  0  0  0  0  0  0  0
    1.7404   11.7551    0.0000 C   0  0  3  0  0  0  0  0  0  0  0  0
    1.4854   10.9705    0.0000 C   0  0  3  0  0  0  0  0  0  0  0  0
    0.6604   10.9705    0.0000 C   0  0  3  0  0  0  0  0  0  0  0  0
    2.5250   12.8350    0.0000 C   0  0  0  0  0  0  0  0  0  0  0  0
    0.4055   11.7551    0.0000 C   0  0  3  0  0  0  0  0  0  0  0  0
    2.5250   13.6600    0.0000 C   0  0  0  0  0  0  0  0  0  0  0  0
    1.2555   13.2475    0.0000 C   0  0  0  0  0  0  0  0  0  0  0  0
    3.2395   14.0725    0.0000 C   0  0  0  0  0  0  0  0  0  0  0  0
    2.2823   11.1840    0.0000 C   0  0  0  0  0  0  0  0  0  0  0  0
   -0.1779   12.3384    0.0000 C   0  0  0  0  0  0  0  0  0  0  0  0
    3.9539   12.8350    0.0000 C   0  0  0  0  0  0  0  0  0  0  0  0
   -2.1415   14.1166    0.0000 C   0  0  0  0  0  0  0  0  0  0  0  0
   -2.8559   14.5291    0.0000 C   0  0  0  0  0  0  0  0  0  0  0  0
    4.6684   12.4225    0.0000 C   0  0  0  0  0  0  0  0  0  0  0  0
   -2.8559   15.3541    0.0000 C   0  0  0  0  0  0  0  0  0  0  0  0
   -2.1415   11.2999    0.0000 C   0  0  3  0  0  0  0  0  0  0  0  0
   -1.4270   14.5291    0.0000 C   0  0  0  0  0  0  0  0  0  0  0  0
   -3.5704   14.1166    0.0000 C   0  0  0  0  0  0  0  0  0  0  0  0
    3.9539   15.3100    0.0000 C   0  0  0  0  0  0  0  0  0  0  0  0
   -2.1415   15.7666    0.0000 C   0  0  0  0  0  0  0  0  0  0  0  0
   -1.4270   15.3541    0.0000 C   0  0  0  0  0  0  0  0  0  0  0  0
   -3.5704   15.7666    0.0000 C   0  0  0  0  0  0  0  0  0  0  0  0
   -2.8559   10.8874    0.0000 C   0  0  0  0  0  0  0  0  0  0  0  0
   -4.2849   14.5291    0.0000 C   0  0  0  0  0  0  0  0  0  0  0  0
   -4.2849   15.3541    0.0000 C   0  0  0  0  0  0  0  0  0  0  0  0
   -1.4270   10.8874    0.0000 C   0  0  0  0  0  0  0  0  0  0  0  0
   -3.5704    9.6499    0.0000 C   0  0  0  0  0  0  0  0  0  0  0  0
   -3.5704    8.8249    0.0000 C   0  0  0  0  0  0  0  0  0  0  0  0
   -4.2849    8.4124    0.0000 C   0  0  0  0  0  0  0  0  0  0  0  0
   -4.2849    7.5874    0.0000 C   0  0  0  0  0  0  0  0  0  0  0  0
  1  5  1  0  0  0  0
  1  7  1  0  0  0  0
  1  8  2  0  0  0  0
  1 15  1  0  0  0  0
 18  2  1  6  0  0  0
 16  3  1  6  0  0  0
  3 20  1  0  0  0  0
 17  4  1  6  0  0  0
  5 25  1  0  0  0  0
  6 23  1  0  0  0  0
  6 34  1  0  0  0  0
  7 27  1  0  0  0  0
  9 38  1  0  0  0  0
  9 42  1  0  0  0  0
 10 38  2  0  0  0  0
 11 16  1  0  0  0  0
 11 19  1  0  0  0  0
 11 22  1  0  0  0  0
 12 21  1  0  0  0  0
 12 22  2  0  0  0  0
 13 19  1  0  0  0  0
 13 26  2  0  0  0  0
 14 23  2  0  0  0  0
 14 26  1  0  0  0  0
 15 31  1  0  0  0  0
 16 17  1  0  0  0  0
 17 18  1  0  0  0  0
 17 24  1  1  0  0  0
 18 20  1  0  0  0  0
 19 21  2  0  0  0  0
 20 25  1  1  0  0  0
 21 23  1  0  0  0  0
 26 29  1  0  0  0  0
 27 28  1  0  0  0  0
 27 32  2  0  0  0  0
 28 30  2  0  0  0  0
 28 33  1  0  0  0  0
 30 35  1  0  0  0  0
 30 37  1  0  0  0  0
 31 38  1  0  0  0  0
 31 41  1  1  0  0  0
 32 36  1  0  0  0  0
 33 39  2  0  0  0  0
 35 36  2  0  0  0  0
 37 40  2  0  0  0  0
 39 40  1  0  0  0  0
 42 43  1  0  0  0  0
 43 44  1  0  0  0  0
 44 45  1  0  0  0  0
M  END
> <PUBCHEM_COMPOUND_ID_TYPE>
0

> <PUBCHEM_TOTAL_CHARGE>
0

> <PUBCHEM_SUBSTANCE_ID>
310947562

> <PUBCHEM_SUBSTANCE_VERSION>
1

> <PUBCHEM_EXT_DATASOURCE_NAME>
4488

> <PUBCHEM_EXT_DATASOURCE_REGID>
SCHEMBL16125725

> <PUBCHEM_SUBSTANCE_COMMENT>
InChI=1S/C30H37FN5O8P/c1-6-7-15-41-28(37)18(2)35-45(39,44-22-14-10-12-20-11-8-9-13-21(20)22)42-16-23-25(31)30(4,38)29(43-23)36-17-32-24-26(36)33-19(3)34-27(24)40-5/h8-14,17-18,23,25,29,38H,6-7,15-16H2,1-5H3,(H,35,39)/t18-,23+,25+,29+,30+,45?/m0/s1
InChIKey=TVAMHCBJBBVELE-AXJVLMCFSA-N

> <PUBCHEM_SUBSTANCE_SYNONYM>
SCHEMBL16125725

> <PUBCHEM_XREF_EXT_ID>
SCHEMBL16125725

> <PUBCHEM_EXT_DATASOURCE_URL>
https://www.surechembl.org/

> <PUBCHEM_EXT_SUBSTANCE_URL>
https://www.surechembl.org/chemical/SCHEMBL16125725

> <PUBCHEM_CID_ASSOCIATIONS>
117613284  1

> <PUBCHEM_COORDINATE_TYPE>
1
3

> <PUBCHEM_BONDANNOTATIONS>
17  24  5
18  2  6
20  25  5
16  3  6
31  41  5
17  4  6

$$$$
