310948238
  -OEChem-07211613022D

 38 42  0     1  0  0  0  0  0999 V2000
   -1.8246   -1.4610    0.0000 S   0  0  0  0  0  0  0  0  0  0  0  0
   -2.0304   -2.2566    0.0000 O   0  0  0  0  0  0  0  0  0  0  0  0
   -2.6476   -1.4610    0.0000 O   0  0  0  0  0  0  0  0  0  0  0  0
   -2.3321    3.7108    0.0000 O   0  0  0  0  0  0  0  0  0  0  0  0
   -0.2743   -3.6011    0.0000 O   0  0  0  0  0  0  0  0  0  0  0  0
    0.4389   -2.3664    0.0000 O   0  0  0  0  0  0  0  0  0  0  0  0
   -0.9877   -1.5296    0.0000 N   0  0  3  0  0  0  0  0  0  0  0  0
    0.2469    2.7368    0.0000 N   0  0  0  0  0  0  0  0  0  0  0  0
   -0.3018    2.1195    0.0000 N   0  0  0  0  0  0  0  0  0  0  0  0
   -1.9892    1.8314    0.0000 N   0  0  0  0  0  0  0  0  0  0  0  0
   -1.2758    4.6711    0.0000 N   0  0  0  0  0  0  0  0  0  0  0  0
    0.4252    0.5693    0.0000 N   0  0  0  0  0  0  0  0  0  0  0  0
   -1.9892   -0.6380    0.0000 C   0  0  0  0  0  0  0  0  0  0  0  0
   -1.2758   -0.2126    0.0000 C   0  0  0  0  0  0  0  0  0  0  0  0
   -0.9603    3.2856    0.0000 C   0  0  0  0  0  0  0  0  0  0  0  0
   -0.1646    3.4365    0.0000 C   0  0  0  0  0  0  0  0  0  0  0  0
   -1.1112    2.4350    0.0000 C   0  0  0  0  0  0  0  0  0  0  0  0
   -0.6585   -0.7889    0.0000 C   0  0  0  0  0  0  0  0  0  0  0  0
   -1.9892    1.0083    0.0000 C   0  0  0  0  0  0  0  0  0  0  0  0
   -1.2758    0.5968    0.0000 C   0  0  0  0  0  0  0  0  0  0  0  0
    1.0700    2.6545    0.0000 C   0  0  3  0  0  0  0  0  0  0  0  0
   -2.7025   -0.2264    0.0000 C   0  0  0  0  0  0  0  0  0  0  0  0
   -1.5227    3.8891    0.0000 C   0  0  0  0  0  0  0  0  0  0  0  0
   -2.7025    0.5968    0.0000 C   0  0  0  0  0  0  0  0  0  0  0  0
    0.0823    4.2321    0.0000 C   0  0  0  0  0  0  0  0  0  0  0  0
   -0.9877   -2.3664    0.0000 C   0  0  0  0  0  0  0  0  0  0  0  0
    1.3993    1.9137    0.0000 C   0  0  3  0  0  0  0  0  0  0  0  0
   -0.4664    4.8494    0.0000 C   0  0  0  0  0  0  0  0  0  0  0  0
    1.5502    3.3130    0.0000 C   0  0  0  0  0  0  0  0  0  0  0  0
   -0.2881   -2.7780    0.0000 C   0  0  0  0  0  0  0  0  0  0  0  0
    2.2224    1.8177    0.0000 C   0  0  0  0  0  0  0  0  0  0  0  0
    0.9054    1.2415    0.0000 C   0  0  0  0  0  0  0  0  0  0  0  0
    2.3596    3.2307    0.0000 C   0  0  0  0  0  0  0  0  0  0  0  0
    2.7025    2.4762    0.0000 C   0  0  0  0  0  0  0  0  0  0  0  0
    0.4527   -4.0127    0.0000 C   0  0  0  0  0  0  0  0  0  0  0  0
    1.1660   -3.5873    0.0000 C   0  0  0  0  0  0  0  0  0  0  0  0
    1.1660   -4.4105    0.0000 C   0  0  0  0  0  0  0  0  0  0  0  0
    0.4527   -4.8494    0.0000 C   0  0  0  0  0  0  0  0  0  0  0  0
  1  2  2  0  0  0  0
  1  3  2  0  0  0  0
  1  7  1  0  0  0  0
  1 13  1  0  0  0  0
  4 23  2  0  0  0  0
  5 30  1  0  0  0  0
  5 35  1  0  0  0  0
  6 30  2  0  0  0  0
  7 18  1  0  0  0  0
  7 26  1  0  0  0  0
  8  9  1  0  0  0  0
  8 16  1  0  0  0  0
 21  8  1  1  0  0  0
  9 17  2  0  0  0  0
 10 17  1  0  0  0  0
 10 19  1  0  0  0  0
 11 23  1  0  0  0  0
 11 28  1  0  0  0  0
 12 32  3  0  0  0  0
 13 14  1  0  0  0  0
 13 22  2  0  0  0  0
 14 18  1  0  0  0  0
 14 20  2  0  0  0  0
 15 16  2  0  0  0  0
 15 17  1  0  0  0  0
 15 23  1  0  0  0  0
 16 25  1  0  0  0  0
 19 20  1  0  0  0  0
 19 24  2  0  0  0  0
 21 27  1  0  0  0  0
 21 29  1  0  0  0  0
 22 24  1  0  0  0  0
 25 28  2  0  0  0  0
 26 30  1  0  0  0  0
 27 31  1  0  0  0  0
 27 32  1  6  0  0  0
 29 33  1  0  0  0  0
 31 34  1  0  0  0  0
 33 34  1  0  0  0  0
 35 36  1  0  0  0  0
 35 37  1  0  0  0  0
 35 38  1  0  0  0  0
M  END
> <PUBCHEM_COMPOUND_ID_TYPE>
0

> <PUBCHEM_TOTAL_CHARGE>
0

> <PUBCHEM_SUBSTANCE_ID>
310948238

> <PUBCHEM_SUBSTANCE_VERSION>
1

> <PUBCHEM_EXT_DATASOURCE_NAME>
4488

> <PUBCHEM_EXT_DATASOURCE_REGID>
SCHEMBL16126415

> <PUBCHEM_SUBSTANCE_COMMENT>
InChI=1S/C26H30N6O5S/c1-26(2,3)37-22(33)15-31-14-17-12-18(8-9-21(17)38(31,35)36)29-24-23-20(10-11-28-25(23)34)32(30-24)19-7-5-4-6-16(19)13-27/h8-12,16,19H,4-7,14-15H2,1-3H3,(H,28,34)(H,29,30)/t16-,19+/m1/s1
InChIKey=PAIAJDRQUDXIAM-APWZRJJASA-N

> <PUBCHEM_SUBSTANCE_SYNONYM>
SCHEMBL16126415

> <PUBCHEM_XREF_EXT_ID>
SCHEMBL16126415

> <PUBCHEM_EXT_DATASOURCE_URL>
https://www.surechembl.org/

> <PUBCHEM_EXT_SUBSTANCE_URL>
https://www.surechembl.org/chemical/SCHEMBL16126415

> <PUBCHEM_CID_ASSOCIATIONS>
117613818  1

> <PUBCHEM_COORDINATE_TYPE>
1
3

> <PUBCHEM_BONDANNOTATIONS>
27  32  6
21  8  5

$$$$
