310944141
  -OEChem-07211613022D

 34 39  0     1  0  0  0  0  0999 V2000
    2.5849    1.4547    0.0000 O   0  0  0  0  0  0  0  0  0  0  0  0
    5.3901    0.4695    0.0000 O   0  0  0  0  0  0  0  0  0  0  0  0
    5.5524    1.9416    0.0000 O   0  0  0  0  0  0  0  0  0  0  0  0
   -0.8694   -0.4811    0.0000 O   0  0  0  0  0  0  0  0  0  0  0  0
    3.2689    0.1449    0.0000 N   0  0  0  0  0  0  0  0  0  0  0  0
    0.3478    0.6433    0.0000 N   0  0  0  0  0  0  0  0  0  0  0  0
   -4.2078    1.3388    0.0000 N   0  0  0  0  0  0  0  0  0  0  0  0
   -2.4458    0.0174    0.0000 N   0  0  0  0  0  0  0  0  0  0  0  0
   -2.8051    1.6518    0.0000 N   0  0  0  0  0  0  0  0  0  0  0  0
   -4.4628    2.1270    0.0000 N   0  0  0  0  0  0  0  0  0  0  0  0
   -5.2974    2.1155    0.0000 N   0  0  0  0  0  0  0  0  0  0  0  0
   -5.5524    1.3273    0.0000 N   0  0  0  0  0  0  0  0  0  0  0  0
    1.9358    0.1565    0.0000 C   0  0  0  0  0  0  0  0  0  0  0  0
    3.0254   -0.6433    0.0000 C   0  0  3  0  0  0  0  0  0  0  0  0
    2.5965    0.6202    0.0000 C   0  0  0  0  0  0  0  0  0  0  0  0
    2.1908   -0.6317    0.0000 C   0  0  0  0  0  0  0  0  0  0  0  0
    3.5239   -1.3156    0.0000 C   0  0  0  0  0  0  0  0  0  0  0  0
    4.0455    0.4231    0.0000 C   0  0  0  0  0  0  0  0  0  0  0  0
    1.3214   -0.4231    0.0000 C   0  0  0  0  0  0  0  0  0  0  0  0
    1.7504    0.9563    0.0000 C   0  0  0  0  0  0  0  0  0  0  0  0
    4.2541   -1.6518    0.0000 C   0  0  0  0  0  0  0  0  0  0  0  0
    3.6166   -2.1270    0.0000 C   0  0  0  0  0  0  0  0  0  0  0  0
    0.5216   -0.1565    0.0000 C   0  0  0  0  0  0  0  0  0  0  0  0
    0.9621    1.1997    0.0000 C   0  0  0  0  0  0  0  0  0  0  0  0
    4.2773    1.2113    0.0000 C   0  0  0  0  0  0  0  0  0  0  0  0
    4.7642   -0.0405    0.0000 C   0  0  0  0  0  0  0  0  0  0  0  0
    5.0887    1.2345    0.0000 C   0  0  0  0  0  0  0  0  0  0  0  0
   -0.4405    0.8868    0.0000 C   0  0  0  0  0  0  0  0  0  0  0  0
   -1.0433    0.3419    0.0000 C   0  0  3  0  0  0  0  0  0  0  0  0
   -1.8430    0.5854    0.0000 C   0  0  0  0  0  0  0  0  0  0  0  0
   -3.4196    1.0838    0.0000 C   0  0  0  0  0  0  0  0  0  0  0  0
   -2.0170    1.3968    0.0000 C   0  0  0  0  0  0  0  0  0  0  0  0
   -3.2341    0.2840    0.0000 C   0  0  0  0  0  0  0  0  0  0  0  0
   -4.8569    0.8520    0.0000 C   0  0  0  0  0  0  0  0  0  0  0  0
  1 15  2  0  0  0  0
  2 26  1  0  0  0  0
  2 27  1  0  0  0  0
  3 27  2  0  0  0  0
 29  4  1  6  0  0  0
  5 14  1  0  0  0  0
  5 15  1  0  0  0  0
  5 18  1  0  0  0  0
  6 23  1  0  0  0  0
  6 24  1  0  0  0  0
  6 28  1  0  0  0  0
  7 10  1  0  0  0  0
  7 31  1  0  0  0  0
  7 34  1  0  0  0  0
  8 30  1  0  0  0  0
  8 33  2  0  0  0  0
  9 31  2  0  0  0  0
  9 32  1  0  0  0  0
 10 11  2  0  0  0  0
 11 12  1  0  0  0  0
 12 34  2  0  0  0  0
 13 15  1  0  0  0  0
 13 16  1  0  0  0  0
 13 19  1  0  0  0  0
 13 20  1  0  0  0  0
 14 16  1  0  0  0  0
 14 17  1  0  0  0  0
 17 21  1  0  0  0  0
 17 22  1  0  0  0  0
 18 25  2  0  0  0  0
 18 26  1  0  0  0  0
 19 23  1  0  0  0  0
 20 24  1  0  0  0  0
 21 22  1  0  0  0  0
 25 27  1  0  0  0  0
 28 29  1  0  0  0  0
 29 30  1  0  0  0  0
 30 32  2  0  0  0  0
 31 33  1  0  0  0  0
M  END
> <PUBCHEM_COMPOUND_ID_TYPE>
0

> <PUBCHEM_TOTAL_CHARGE>
0

> <PUBCHEM_SUBSTANCE_ID>
310944141

> <PUBCHEM_SUBSTANCE_VERSION>
1

> <PUBCHEM_EXT_DATASOURCE_NAME>
4488

> <PUBCHEM_EXT_DATASOURCE_REGID>
SCHEMBL16122216

> <PUBCHEM_SUBSTANCE_COMMENT>
InChI=1S/C22H26N8O4/c31-18(16-9-24-19(10-23-16)29-13-25-26-27-29)11-28-5-3-22(4-6-28)8-17(14-1-2-14)30(21(22)33)15-7-20(32)34-12-15/h7,9-10,13-14,17-18,31H,1-6,8,11-12H2/t17?,18-/m0/s1
InChIKey=BQYMHMSENJITAV-ZVAWYAOSSA-N

> <PUBCHEM_SUBSTANCE_SYNONYM>
SCHEMBL16122216

> <PUBCHEM_XREF_EXT_ID>
SCHEMBL16122216

> <PUBCHEM_EXT_DATASOURCE_URL>
https://www.surechembl.org/

> <PUBCHEM_EXT_SUBSTANCE_URL>
https://www.surechembl.org/chemical/SCHEMBL16122216

> <PUBCHEM_CID_ASSOCIATIONS>
117610422  1

> <PUBCHEM_COORDINATE_TYPE>
1
3

> <PUBCHEM_BONDANNOTATIONS>
29  4  6

$$$$
