310941021
  -OEChem-07211613022D

 41 44  0     1  0  0  0  0  0999 V2000
    5.1993   -1.0186    0.0000 O   0  0  0  0  0  0  0  0  0  0  0  0
    4.0675    0.9621    0.0000 O   0  0  0  0  0  0  0  0  0  0  0  0
    1.6907   -1.0045    0.0000 O   0  0  0  0  0  0  0  0  0  0  0  0
   -0.4740    1.0752    0.0000 O   0  0  0  0  0  0  0  0  0  0  0  0
    3.8553    2.7447    0.0000 O   0  0  0  0  0  0  0  0  0  0  0  0
   -2.6386   -1.0045    0.0000 O   0  0  0  0  0  0  0  0  0  0  0  0
   -5.5106   -1.0045    0.0000 O   0  0  0  0  0  0  0  0  0  0  0  0
    2.4123    0.2547    0.0000 N   0  0  0  0  0  0  0  0  0  0  0  0
    0.2476   -0.1697    0.0000 N   0  0  0  0  0  0  0  0  0  0  0  0
   -1.9029    0.2547    0.0000 N   0  0  0  0  0  0  0  0  0  0  0  0
    4.7891   -0.2830    0.0000 C   0  0  3  0  0  0  0  0  0  0  0  0
    4.0110    0.1273    0.0000 C   0  0  0  0  0  0  0  0  0  0  0  0
    4.3930   -0.9904    0.0000 C   0  0  0  0  0  0  0  0  0  0  0  0
    3.3743   -0.2547    0.0000 C   0  0  3  0  0  0  0  0  0  0  0  0
    5.5106    0.1415    0.0000 C   0  0  0  0  0  0  0  0  0  0  0  0
    3.3460   -1.3441    0.0000 C   0  0  0  0  0  0  0  0  0  0  0  0
    1.7048   -0.1132    0.0000 C   0  0  0  0  0  0  0  0  0  0  0  0
    0.9692    0.2830    0.0000 C   0  0  3  0  0  0  0  0  0  0  0  0
    2.6386   -1.7544    0.0000 C   0  0  0  0  0  0  0  0  0  0  0  0
    0.9833    1.1035    0.0000 C   0  0  0  0  0  0  0  0  0  0  0  0
    1.7048    1.5280    0.0000 C   0  0  0  0  0  0  0  0  0  0  0  0
    1.8746   -1.4431    0.0000 C   0  0  0  0  0  0  0  0  0  0  0  0
    2.5396   -2.5749    0.0000 C   0  0  0  0  0  0  0  0  0  0  0  0
   -0.4740    0.2688    0.0000 C   0  0  0  0  0  0  0  0  0  0  0  0
   -1.1672   -0.1415    0.0000 C   0  0  3  0  0  0  0  0  0  0  0  0
    1.3370   -2.0656    0.0000 C   0  0  0  0  0  0  0  0  0  0  0  0
    1.7331   -2.7447    0.0000 C   0  0  0  0  0  0  0  0  0  0  0  0
    2.4264    1.1177    0.0000 C   0  0  0  0  0  0  0  0  0  0  0  0
    1.7190    2.3627    0.0000 C   0  0  0  0  0  0  0  0  0  0  0  0
    3.1338    2.3627    0.0000 C   0  0  0  0  0  0  0  0  0  0  0  0
    3.1338    1.5280    0.0000 C   0  0  0  0  0  0  0  0  0  0  0  0
    2.4123    2.7447    0.0000 C   0  0  0  0  0  0  0  0  0  0  0  0
   -2.6103   -0.1132    0.0000 C   0  0  0  0  0  0  0  0  0  0  0  0
   -1.1814   -0.9762    0.0000 C   0  0  0  0  0  0  0  0  0  0  0  0
   -3.3743    0.2688    0.0000 C   0  0  0  0  0  0  0  0  0  0  0  0
   -4.0534   -0.1273    0.0000 C   0  0  0  0  0  0  0  0  0  0  0  0
   -4.0675   -0.9762    0.0000 C   0  0  0  0  0  0  0  0  0  0  0  0
   -4.8174    0.2688    0.0000 C   0  0  0  0  0  0  0  0  0  0  0  0
   -4.7891   -1.3724    0.0000 C   0  0  0  0  0  0  0  0  0  0  0  0
   -5.4965   -0.1415    0.0000 C   0  0  0  0  0  0  0  0  0  0  0  0
    4.6051    2.3344    0.0000 C   0  0  0  0  0  0  0  0  0  0  0  0
  1 11  1  0  0  0  0
  1 13  1  0  0  0  0
  2 12  2  0  0  0  0
  3 17  2  0  0  0  0
  4 24  2  0  0  0  0
  5 30  1  0  0  0  0
  5 41  1  0  0  0  0
  6 33  2  0  0  0  0
  7 39  1  0  0  0  0
  7 40  1  0  0  0  0
 14  8  1  6  0  0  0
  8 17  1  0  0  0  0
 18  9  1  1  0  0  0
  9 24  1  0  0  0  0
 10 25  1  0  0  0  0
 10 33  1  0  0  0  0
 11 12  1  6  0  0  0
 11 13  1  0  0  0  0
 11 15  1  1  0  0  0
 12 14  1  0  0  0  0
 14 16  1  0  0  0  0
 16 19  1  0  0  0  0
 17 18  1  0  0  0  0
 18 20  1  0  0  0  0
 19 22  1  0  0  0  0
 19 23  1  0  0  0  0
 20 21  1  0  0  0  0
 21 28  2  0  0  0  0
 21 29  1  0  0  0  0
 22 26  1  0  0  0  0
 23 27  1  0  0  0  0
 24 25  1  0  0  0  0
 25 34  1  1  0  0  0
 26 27  1  0  0  0  0
 28 31  1  0  0  0  0
 29 32  2  0  0  0  0
 30 31  2  0  0  0  0
 30 32  1  0  0  0  0
 33 35  1  0  0  0  0
 35 36  1  0  0  0  0
 36 37  1  0  0  0  0
 36 38  1  0  0  0  0
 37 39  1  0  0  0  0
 38 40  1  0  0  0  0
M  END
> <PUBCHEM_COMPOUND_ID_TYPE>
0

> <PUBCHEM_TOTAL_CHARGE>
0

> <PUBCHEM_SUBSTANCE_ID>
310941021

> <PUBCHEM_SUBSTANCE_VERSION>
1

> <PUBCHEM_EXT_DATASOURCE_NAME>
4488

> <PUBCHEM_EXT_DATASOURCE_REGID>
SCHEMBL16118980

> <PUBCHEM_SUBSTANCE_COMMENT>
InChI=1S/C31H45N3O7/c1-20(32-27(35)18-23-12-14-40-15-13-23)29(37)34-26(17-22-8-10-24(39-3)11-9-22)30(38)33-25(16-21-6-4-5-7-21)28(36)31(2)19-41-31/h8-11,20-21,23,25-26H,4-7,12-19H2,1-3H3,(H,32,35)(H,33,38)(H,34,37)/t20-,25+,26+,31-/m1/s1
InChIKey=DMQJGMOFKQABEL-OTXFKJLGSA-N

> <PUBCHEM_SUBSTANCE_SYNONYM>
SCHEMBL16118980

> <PUBCHEM_XREF_EXT_ID>
SCHEMBL16118980

> <PUBCHEM_EXT_DATASOURCE_URL>
https://www.surechembl.org/

> <PUBCHEM_EXT_SUBSTANCE_URL>
https://www.surechembl.org/chemical/SCHEMBL16118980

> <PUBCHEM_CID_ASSOCIATIONS>
117607920  1

> <PUBCHEM_COORDINATE_TYPE>
1
3

> <PUBCHEM_BONDANNOTATIONS>
11  12  6
11  15  5
25  34  5
14  8  6
18  9  5

$$$$
