310943476
  -OEChem-07211613022D

 36 41  0     0  0  0  0  0  0999 V2000
   -4.2113    2.7526    0.0000 O   0  0  0  0  0  0  0  0  0  0  0  0
    4.1766   -2.3705    0.0000 O   0  0  0  0  0  0  0  0  0  0  0  0
    1.3111    0.2518    0.0000 O   0  0  0  0  0  0  0  0  0  0  0  0
   -1.4327    1.9537    0.0000 N   0  0  0  0  0  0  0  0  0  0  0  0
   -2.8221    1.9537    0.0000 N   0  0  0  0  0  0  0  0  0  0  0  0
   -2.7178    0.1824    0.0000 N   0  0  0  0  0  0  0  0  0  0  0  0
   -1.5890   -0.4776    0.0000 N   0  0  0  0  0  0  0  0  0  0  0  0
    0.6512    3.1694    0.0000 N   0  0  0  0  0  0  0  0  0  0  0  0
    2.0405    1.5369    0.0000 N   0  0  0  0  0  0  0  0  0  0  0  0
    2.8221   -2.3705    0.0000 N   0  0  0  0  0  0  0  0  0  0  0  0
    3.0825   -3.1694    0.0000 N   0  0  0  0  0  0  0  0  0  0  0  0
   -2.1447    0.7380    0.0000 C   0  0  0  0  0  0  0  0  0  0  0  0
   -2.1100    1.5369    0.0000 C   0  0  0  0  0  0  0  0  0  0  0  0
   -0.7207    1.5369    0.0000 C   0  0  0  0  0  0  0  0  0  0  0  0
   -1.4327    0.3213    0.0000 C   0  0  0  0  0  0  0  0  0  0  0  0
   -0.0608    1.9537    0.0000 C   0  0  0  0  0  0  0  0  0  0  0  0
   -0.7380    0.7207    0.0000 C   0  0  0  0  0  0  0  0  0  0  0  0
   -0.0261    2.7699    0.0000 C   0  0  0  0  0  0  0  0  0  0  0  0
    0.6860    1.5543    0.0000 C   0  0  0  0  0  0  0  0  0  0  0  0
    1.3286    1.9537    0.0000 C   0  0  0  0  0  0  0  0  0  0  0  0
   -2.3879   -0.5644    0.0000 C   0  0  0  0  0  0  0  0  0  0  0  0
   -2.8046    2.7526    0.0000 C   0  0  0  0  0  0  0  0  0  0  0  0
   -3.4819    1.5543    0.0000 C   0  0  0  0  0  0  0  0  0  0  0  0
    1.3632    2.7526    0.0000 C   0  0  0  0  0  0  0  0  0  0  0  0
    2.0579    0.7207    0.0000 C   0  0  0  0  0  0  0  0  0  0  0  0
    2.7699    0.2692    0.0000 C   0  0  0  0  0  0  0  0  0  0  0  0
    3.4993   -0.9986    0.0000 C   0  0  0  0  0  0  0  0  0  0  0  0
    2.7873   -0.5818    0.0000 C   0  0  0  0  0  0  0  0  0  0  0  0
   -0.7380    3.1346    0.0000 C   0  0  0  0  0  0  0  0  0  0  0  0
    3.4819   -1.8669    0.0000 C   0  0  0  0  0  0  0  0  0  0  0  0
   -3.5167    3.1694    0.0000 C   0  0  0  0  0  0  0  0  0  0  0  0
   -4.2113    1.9537    0.0000 C   0  0  0  0  0  0  0  0  0  0  0  0
    3.4819    0.6860    0.0000 C   0  0  0  0  0  0  0  0  0  0  0  0
    4.2113   -0.5818    0.0000 C   0  0  0  0  0  0  0  0  0  0  0  0
    4.2113    0.2692    0.0000 C   0  0  0  0  0  0  0  0  0  0  0  0
    3.9161   -3.1694    0.0000 C   0  0  0  0  0  0  0  0  0  0  0  0
  1 31  1  0  0  0  0
  1 32  1  0  0  0  0
  2 30  1  0  0  0  0
  2 36  1  0  0  0  0
  3 25  2  0  0  0  0
  4 13  2  0  0  0  0
  4 14  1  0  0  0  0
  5 13  1  0  0  0  0
  5 22  1  0  0  0  0
  5 23  1  0  0  0  0
  6 12  1  0  0  0  0
  6 21  2  0  0  0  0
  7 15  1  0  0  0  0
  7 21  1  0  0  0  0
  8 18  1  0  0  0  0
  8 24  2  0  0  0  0
  9 20  1  0  0  0  0
  9 25  1  0  0  0  0
 10 11  1  0  0  0  0
 10 30  2  0  0  0  0
 11 36  2  0  0  0  0
 12 13  1  0  0  0  0
 12 15  2  0  0  0  0
 14 16  1  0  0  0  0
 14 17  2  0  0  0  0
 15 17  1  0  0  0  0
 16 18  2  0  0  0  0
 16 19  1  0  0  0  0
 18 29  1  0  0  0  0
 19 20  2  0  0  0  0
 20 24  1  0  0  0  0
 22 31  1  0  0  0  0
 23 32  1  0  0  0  0
 25 26  1  0  0  0  0
 26 28  2  0  0  0  0
 26 33  1  0  0  0  0
 27 28  1  0  0  0  0
 27 30  1  0  0  0  0
 27 34  2  0  0  0  0
 33 35  2  0  0  0  0
 34 35  1  0  0  0  0
M  END
> <PUBCHEM_COMPOUND_ID_TYPE>
0

> <PUBCHEM_TOTAL_CHARGE>
0

> <PUBCHEM_SUBSTANCE_ID>
310943476

> <PUBCHEM_SUBSTANCE_VERSION>
1

> <PUBCHEM_EXT_DATASOURCE_NAME>
4488

> <PUBCHEM_EXT_DATASOURCE_REGID>
SCHEMBL16121541

> <PUBCHEM_SUBSTANCE_COMMENT>
InChI=1S/C25H22N8O3/c1-15-19(20-11-21-22(28-13-27-21)23(31-20)33-5-7-35-8-6-33)10-18(12-26-15)30-24(34)16-3-2-4-17(9-16)25-32-29-14-36-25/h2-4,9-14H,5-8H2,1H3,(H,27,28)(H,30,34)
InChIKey=HHQQHTGOQZEGEJ-UHFFFAOYSA-N

> <PUBCHEM_SUBSTANCE_SYNONYM>
SCHEMBL16121541

> <PUBCHEM_XREF_EXT_ID>
SCHEMBL16121541

> <PUBCHEM_EXT_DATASOURCE_URL>
https://www.surechembl.org/

> <PUBCHEM_EXT_SUBSTANCE_URL>
https://www.surechembl.org/chemical/SCHEMBL16121541

> <PUBCHEM_CID_ASSOCIATIONS>
117609898  1

> <PUBCHEM_COORDINATE_TYPE>
1
3

$$$$
