310940225
  -OEChem-07211613022D

 21 24  0     0  0  0  0  0  0999 V2000
    2.5867   -0.7108    0.0000 F   0  0  0  0  0  0  0  0  0  0  0  0
   -1.1578    1.1306    0.0000 N   0  0  0  0  0  0  0  0  0  0  0  0
   -0.3732    1.3855    0.0000 N   0  0  0  0  0  0  0  0  0  0  0  0
    2.1742    1.4326    0.0000 N   0  0  0  0  0  0  0  0  0  0  0  0
   -0.3732    0.0507    0.0000 C   0  0  0  0  0  0  0  0  0  0  0  0
    0.1117    0.7181    0.0000 C   0  0  0  0  0  0  0  0  0  0  0  0
   -1.1578    0.3056    0.0000 C   0  0  0  0  0  0  0  0  0  0  0  0
   -0.1597   -0.7462    0.0000 C   0  0  0  0  0  0  0  0  0  0  0  0
    0.9367    0.7181    0.0000 C   0  0  0  0  0  0  0  0  0  0  0  0
    1.3492    0.0036    0.0000 C   0  0  0  0  0  0  0  0  0  0  0  0
   -0.3732   -1.5431    0.0000 C   0  0  0  0  0  0  0  0  0  0  0  0
    0.4237   -1.3296    0.0000 C   0  0  0  0  0  0  0  0  0  0  0  0
   -1.8723   -0.1069    0.0000 C   0  0  0  0  0  0  0  0  0  0  0  0
    1.3492    1.4326    0.0000 C   0  0  0  0  0  0  0  0  0  0  0  0
   -1.8723    1.5431    0.0000 C   0  0  0  0  0  0  0  0  0  0  0  0
    2.1742    0.0036    0.0000 C   0  0  0  0  0  0  0  0  0  0  0  0
   -2.5867    0.3056    0.0000 C   0  0  0  0  0  0  0  0  0  0  0  0
   -2.5867    1.1306    0.0000 C   0  0  0  0  0  0  0  0  0  0  0  0
    0.9367   -0.7108    0.0000 C   0  0  0  0  0  0  0  0  0  0  0  0
    2.5867    0.7181    0.0000 C   0  0  0  0  0  0  0  0  0  0  0  0
    1.3492   -1.4253    0.0000 C   0  0  0  0  0  0  0  0  0  0  0  0
  1 16  1  0  0  0  0
  2  3  1  0  0  0  0
  2  7  1  0  0  0  0
  2 15  1  0  0  0  0
  3  6  2  0  0  0  0
  4 14  2  0  0  0  0
  4 20  1  0  0  0  0
  5  6  1  0  0  0  0
  5  7  2  0  0  0  0
  5  8  1  0  0  0  0
  6  9  1  0  0  0  0
  7 13  1  0  0  0  0
  8 11  1  0  0  0  0
  8 12  1  0  0  0  0
  9 10  2  0  0  0  0
  9 14  1  0  0  0  0
 10 16  1  0  0  0  0
 10 19  1  0  0  0  0
 11 12  1  0  0  0  0
 13 17  2  0  0  0  0
 15 18  2  0  0  0  0
 16 20  2  0  0  0  0
 17 18  1  0  0  0  0
 19 21  1  0  0  0  0
M  END
> <PUBCHEM_COMPOUND_ID_TYPE>
0

> <PUBCHEM_TOTAL_CHARGE>
0

> <PUBCHEM_SUBSTANCE_ID>
310940225

> <PUBCHEM_SUBSTANCE_VERSION>
1

> <PUBCHEM_EXT_DATASOURCE_NAME>
4488

> <PUBCHEM_EXT_DATASOURCE_REGID>
SCHEMBL16118159

> <PUBCHEM_SUBSTANCE_COMMENT>
InChI=1S/C17H16FN3/c1-2-12-13(9-19-10-14(12)18)17-16(11-6-7-11)15-5-3-4-8-21(15)20-17/h3-5,8-11H,2,6-7H2,1H3
InChIKey=JALFSWPFNUNRJK-UHFFFAOYSA-N

> <PUBCHEM_SUBSTANCE_SYNONYM>
SCHEMBL16118159

> <PUBCHEM_XREF_EXT_ID>
SCHEMBL16118159

> <PUBCHEM_EXT_DATASOURCE_URL>
https://www.surechembl.org/

> <PUBCHEM_EXT_SUBSTANCE_URL>
https://www.surechembl.org/chemical/SCHEMBL16118159

> <PUBCHEM_CID_ASSOCIATIONS>
117607318  1

> <PUBCHEM_COORDINATE_TYPE>
1
3

$$$$
