310944671
  -OEChem-07211613022D

 34 38  0     0  0  0  0  0  0999 V2000
   -1.2243    2.3155    0.0000 F   0  0  0  0  0  0  0  0  0  0  0  0
    0.2129   -0.1650    0.0000 F   0  0  0  0  0  0  0  0  0  0  0  0
    1.6182    2.3155    0.0000 O   0  0  0  0  0  0  0  0  0  0  0  0
   -1.2563   -0.1544    0.0000 N   0  0  0  0  0  0  0  0  0  0  0  0
   -0.5856   -0.6548    0.0000 N   0  0  0  0  0  0  0  0  0  0  0  0
   -0.8517   -2.8692    0.0000 N   0  0  0  0  0  0  0  0  0  0  0  0
    1.6289   -2.8692    0.0000 N   0  0  0  0  0  0  0  0  0  0  0  0
    1.6289   -1.4319    0.0000 N   0  0  0  0  0  0  0  0  0  0  0  0
    2.8745   -0.7186    0.0000 N   0  0  0  0  0  0  0  0  0  0  0  0
   -1.6821   -1.4106    0.0000 C   0  0  0  0  0  0  0  0  0  0  0  0
   -0.8517   -1.4106    0.0000 C   0  0  0  0  0  0  0  0  0  0  0  0
   -1.9270   -0.6228    0.0000 C   0  0  0  0  0  0  0  0  0  0  0  0
   -0.4472   -2.1240    0.0000 C   0  0  0  0  0  0  0  0  0  0  0  0
   -1.2456    0.6867    0.0000 C   0  0  0  0  0  0  0  0  0  0  0  0
   -0.5536    1.1019    0.0000 C   0  0  0  0  0  0  0  0  0  0  0  0
   -2.2357   -2.0175    0.0000 C   0  0  0  0  0  0  0  0  0  0  0  0
   -2.7361   -0.4525    0.0000 C   0  0  0  0  0  0  0  0  0  0  0  0
   -0.5323    1.9323    0.0000 C   0  0  0  0  0  0  0  0  0  0  0  0
    0.1810    0.6867    0.0000 C   0  0  0  0  0  0  0  0  0  0  0  0
    0.3939   -2.1452    0.0000 C   0  0  0  0  0  0  0  0  0  0  0  0
    0.7984   -2.8479    0.0000 C   0  0  0  0  0  0  0  0  0  0  0  0
   -3.0342   -1.8365    0.0000 C   0  0  0  0  0  0  0  0  0  0  0  0
   -3.2790   -1.0380    0.0000 C   0  0  0  0  0  0  0  0  0  0  0  0
    0.8943    1.9216    0.0000 C   0  0  0  0  0  0  0  0  0  0  0  0
    0.1810    2.3262    0.0000 C   0  0  0  0  0  0  0  0  0  0  0  0
    0.8943    1.1125    0.0000 C   0  0  0  0  0  0  0  0  0  0  0  0
   -0.4365   -3.5612    0.0000 C   0  0  0  0  0  0  0  0  0  0  0  0
    0.3832   -3.5612    0.0000 C   0  0  0  0  0  0  0  0  0  0  0  0
    2.0334   -2.1240    0.0000 C   0  0  0  0  0  0  0  0  0  0  0  0
    2.8638   -2.1346    0.0000 C   0  0  0  0  0  0  0  0  0  0  0  0
    1.6289    3.1673    0.0000 C   0  0  0  0  0  0  0  0  0  0  0  0
    2.0441   -0.6973    0.0000 C   0  0  0  0  0  0  0  0  0  0  0  0
    3.2790   -1.4106    0.0000 C   0  0  0  0  0  0  0  0  0  0  0  0
    2.3316    3.5612    0.0000 C   0  0  0  0  0  0  0  0  0  0  0  0
  1 18  1  0  0  0  0
  2 19  1  0  0  0  0
  3 24  1  0  0  0  0
  3 31  1  0  0  0  0
  4  5  1  0  0  0  0
  4 12  1  0  0  0  0
  4 14  1  0  0  0  0
  5 11  2  0  0  0  0
  6 13  1  0  0  0  0
  6 27  2  0  0  0  0
  7 21  1  0  0  0  0
  7 29  1  0  0  0  0
  8 29  2  0  0  0  0
  8 32  1  0  0  0  0
  9 32  2  0  0  0  0
  9 33  1  0  0  0  0
 10 11  1  0  0  0  0
 10 12  2  0  0  0  0
 10 16  1  0  0  0  0
 11 13  1  0  0  0  0
 12 17  1  0  0  0  0
 13 20  2  0  0  0  0
 14 15  1  0  0  0  0
 15 18  2  0  0  0  0
 15 19  1  0  0  0  0
 16 22  2  0  0  0  0
 17 23  2  0  0  0  0
 18 25  1  0  0  0  0
 19 26  2  0  0  0  0
 20 21  1  0  0  0  0
 21 28  2  0  0  0  0
 22 23  1  0  0  0  0
 24 25  2  0  0  0  0
 24 26  1  0  0  0  0
 27 28  1  0  0  0  0
 29 30  1  0  0  0  0
 30 33  2  0  0  0  0
 31 34  1  0  0  0  0
M  END
> <PUBCHEM_COMPOUND_ID_TYPE>
0

> <PUBCHEM_TOTAL_CHARGE>
0

> <PUBCHEM_SUBSTANCE_ID>
310944671

> <PUBCHEM_SUBSTANCE_VERSION>
1

> <PUBCHEM_EXT_DATASOURCE_NAME>
4488

> <PUBCHEM_EXT_DATASOURCE_REGID>
SCHEMBL16122750

> <PUBCHEM_SUBSTANCE_COMMENT>
InChI=1S/C25H20F2N6O/c1-2-34-17-12-20(26)19(21(27)13-17)14-33-23-6-4-3-5-18(23)25(32-33)22-11-16(7-10-29-22)31-24-8-9-28-15-30-24/h3-13,15H,2,14H2,1H3,(H,28,29,30,31)
InChIKey=DGDNIGOIGKEMHE-UHFFFAOYSA-N

> <PUBCHEM_SUBSTANCE_SYNONYM>
SCHEMBL16122750

> <PUBCHEM_XREF_EXT_ID>
SCHEMBL16122750

> <PUBCHEM_EXT_DATASOURCE_URL>
https://www.surechembl.org/

> <PUBCHEM_EXT_SUBSTANCE_URL>
https://www.surechembl.org/chemical/SCHEMBL16122750

> <PUBCHEM_CID_ASSOCIATIONS>
86268307  1

> <PUBCHEM_COORDINATE_TYPE>
1
3

$$$$
