310944271
  -OEChem-07211613022D

 14 14  0     0  0  0  0  0  0999 V2000
    0.7328   -0.6039    0.0000 Br  0  0  0  0  0  0  0  0  0  0  0  0
   -0.7129    1.8416    0.0000 F   0  0  0  0  0  0  0  0  0  0  0  0
    0.7328    1.8416    0.0000 O   0  0  0  0  0  0  0  0  0  0  0  0
    0.0000   -1.8020    0.0000 O   0  0  0  0  0  0  0  0  0  0  0  0
    1.4456    0.5842    0.0000 N   0  0  0  0  0  0  0  0  0  0  0  0
   -1.4456   -1.8416    0.0000 N   0  0  0  0  0  0  0  0  0  0  0  0
    0.0099    0.6535    0.0000 C   0  0  0  0  0  0  0  0  0  0  0  0
    0.0000   -0.1584    0.0000 C   0  0  0  0  0  0  0  0  0  0  0  0
   -0.7129   -0.5842    0.0000 C   0  0  0  0  0  0  0  0  0  0  0  0
   -0.7228    1.0397    0.0000 C   0  0  0  0  0  0  0  0  0  0  0  0
    0.7328    1.0397    0.0000 C   0  0  0  0  0  0  0  0  0  0  0  0
   -1.4456   -0.1782    0.0000 C   0  0  0  0  0  0  0  0  0  0  0  0
   -1.4357    0.6435    0.0000 C   0  0  0  0  0  0  0  0  0  0  0  0
   -0.7228   -1.4258    0.0000 C   0  0  0  0  0  0  0  0  0  0  0  0
  1  8  1  0  0  0  0
  2 10  1  0  0  0  0
  3 11  2  0  0  0  0
  4 14  2  0  0  0  0
  5 11  1  0  0  0  0
  6 14  1  0  0  0  0
  7  8  1  0  0  0  0
  7 10  2  0  0  0  0
  7 11  1  0  0  0  0
  8  9  2  0  0  0  0
  9 12  1  0  0  0  0
  9 14  1  0  0  0  0
 10 13  1  0  0  0  0
 12 13  2  0  0  0  0
M  END
> <PUBCHEM_COMPOUND_ID_TYPE>
0

> <PUBCHEM_TOTAL_CHARGE>
0

> <PUBCHEM_SUBSTANCE_ID>
310944271

> <PUBCHEM_SUBSTANCE_VERSION>
1

> <PUBCHEM_EXT_DATASOURCE_NAME>
4488

> <PUBCHEM_EXT_DATASOURCE_REGID>
SCHEMBL16122346

> <PUBCHEM_SUBSTANCE_COMMENT>
InChI=1S/C8H6BrFN2O2/c9-6-3(7(11)13)1-2-4(10)5(6)8(12)14/h1-2H,(H2,11,13)(H2,12,14)
InChIKey=SKFNZUWIAPQLHB-UHFFFAOYSA-N

> <PUBCHEM_SUBSTANCE_SYNONYM>
SCHEMBL16122346

> <PUBCHEM_XREF_EXT_ID>
SCHEMBL16122346

> <PUBCHEM_EXT_DATASOURCE_URL>
https://www.surechembl.org/

> <PUBCHEM_EXT_SUBSTANCE_URL>
https://www.surechembl.org/chemical/SCHEMBL16122346

> <PUBCHEM_CID_ASSOCIATIONS>
117610540  1

> <PUBCHEM_COORDINATE_TYPE>
1
3

$$$$
