310947635
  -OEChem-07211613022D

128136  0     0  0  0  0  0  0999 V2000
    0.2929    0.2992    0.0000 S   0  0  0  0  0  0  0  0  0  0  0  0
    0.1975   -7.1395    0.0000 S   0  0  0  0  0  0  0  0  0  0  0  0
   -7.2413   -7.3535    0.0000 S   0  0  0  0  0  0  0  0  0  0  0  0
   -7.3006    0.2399    0.0000 S   0  0  0  0  0  0  0  0  0  0  0  0
    0.4402    5.1357    0.0000 F   0  0  0  0  0  0  0  0  0  0  0  0
    0.4402    4.0357    0.0000 F   0  0  0  0  0  0  0  0  0  0  0  0
    4.6496   -5.9528    0.0000 F   0  0  0  0  0  0  0  0  0  0  0  0
    3.5871   -6.2375    0.0000 F   0  0  0  0  0  0  0  0  0  0  0  0
    2.8954    4.9884    0.0000 F   0  0  0  0  0  0  0  0  0  0  0  0
    2.8954    6.0883    0.0000 F   0  0  0  0  0  0  0  0  0  0  0  0
    5.1426   -8.3624    0.0000 F   0  0  0  0  0  0  0  0  0  0  0  0
    6.2051   -8.0778    0.0000 F   0  0  0  0  0  0  0  0  0  0  0  0
    2.8954    3.0833    0.0000 F   0  0  0  0  0  0  0  0  0  0  0  0
    2.8954    4.1832    0.0000 F   0  0  0  0  0  0  0  0  0  0  0  0
    3.3025   -8.8554    0.0000 F   0  0  0  0  0  0  0  0  0  0  0  0
    4.3649   -8.5708    0.0000 F   0  0  0  0  0  0  0  0  0  0  0  0
    0.4402    7.0409    0.0000 F   0  0  0  0  0  0  0  0  0  0  0  0
    0.4402    5.9410    0.0000 F   0  0  0  0  0  0  0  0  0  0  0  0
    6.4899   -5.4598    0.0000 F   0  0  0  0  0  0  0  0  0  0  0  0
    5.4274   -5.7444    0.0000 F   0  0  0  0  0  0  0  0  0  0  0  0
    0.4402    3.2306    0.0000 F   0  0  0  0  0  0  0  0  0  0  0  0
    0.4402    2.1307    0.0000 F   0  0  0  0  0  0  0  0  0  0  0  0
    2.8093   -6.4459    0.0000 F   0  0  0  0  0  0  0  0  0  0  0  0
    1.7470   -6.7306    0.0000 F   0  0  0  0  0  0  0  0  0  0  0  0
    2.8954    6.8934    0.0000 F   0  0  0  0  0  0  0  0  0  0  0  0
    2.8954    7.9934    0.0000 F   0  0  0  0  0  0  0  0  0  0  0  0
    6.9829   -7.8694    0.0000 F   0  0  0  0  0  0  0  0  0  0  0  0
    8.0454   -7.5846    0.0000 F   0  0  0  0  0  0  0  0  0  0  0  0
    2.8954    1.1781    0.0000 F   0  0  0  0  0  0  0  0  0  0  0  0
    2.8954    2.2780    0.0000 F   0  0  0  0  0  0  0  0  0  0  0  0
    1.4622   -9.3486    0.0000 F   0  0  0  0  0  0  0  0  0  0  0  0
    2.5246   -9.0640    0.0000 F   0  0  0  0  0  0  0  0  0  0  0  0
    0.8429    9.3486    0.0000 F   0  0  0  0  0  0  0  0  0  0  0  0
    0.2929    8.3960    0.0000 F   0  0  0  0  0  0  0  0  0  0  0  0
    1.9428    9.3486    0.0000 F   0  0  0  0  0  0  0  0  0  0  0  0
    8.8230   -5.2514    0.0000 F   0  0  0  0  0  0  0  0  0  0  0  0
    7.7607   -4.9666    0.0000 F   0  0  0  0  0  0  0  0  0  0  0  0
    9.1078   -6.3137    0.0000 F   0  0  0  0  0  0  0  0  0  0  0  0
    0.7200   -1.2945    0.0000 F   0  0  0  0  0  0  0  0  0  0  0  0
   -1.3962   -7.5666    0.0000 F   0  0  0  0  0  0  0  0  0  0  0  0
   -1.3009    0.7262    0.0000 F   0  0  0  0  0  0  0  0  0  0  0  0
    0.6245   -5.5459    0.0000 F   0  0  0  0  0  0  0  0  0  0  0  0
   -0.4468   -2.4612    0.0000 F   0  0  0  0  0  0  0  0  0  0  0  0
   -2.5628   -6.4000    0.0000 F   0  0  0  0  0  0  0  0  0  0  0  0
   -2.4674   -0.4404    0.0000 F   0  0  0  0  0  0  0  0  0  0  0  0
   -0.5421   -4.3793    0.0000 F   0  0  0  0  0  0  0  0  0  0  0  0
   -6.5017   -4.5933    0.0000 F   0  0  0  0  0  0  0  0  0  0  0  0
   -4.5402   -0.4997    0.0000 F   0  0  0  0  0  0  0  0  0  0  0  0
   -4.4809   -6.6140    0.0000 F   0  0  0  0  0  0  0  0  0  0  0  0
   -6.5609   -2.5204    0.0000 F   0  0  0  0  0  0  0  0  0  0  0  0
   -5.6476   -7.7806    0.0000 F   0  0  0  0  0  0  0  0  0  0  0  0
   -7.7276   -1.3538    0.0000 F   0  0  0  0  0  0  0  0  0  0  0  0
   -7.6683   -5.7599    0.0000 F   0  0  0  0  0  0  0  0  0  0  0  0
   -5.7070    0.6669    0.0000 F   0  0  0  0  0  0  0  0  0  0  0  0
   -2.2824   -3.4842    0.0000 N   0  0  0  0  0  0  0  0  0  0  0  0
   -3.4311   -4.7190    0.0000 N   0  0  0  0  0  0  0  0  0  0  0  0
   -3.5172   -2.3353    0.0000 N   0  0  0  0  0  0  0  0  0  0  0  0
   -4.6661   -3.5703    0.0000 N   0  0  0  0  0  0  0  0  0  0  0  0
    1.3928    4.5857    0.0000 C   0  0  0  0  0  0  0  0  0  0  0  0
    4.3649   -7.0153    0.0000 C   0  0  0  0  0  0  0  0  0  0  0  0
    1.9428    5.5383    0.0000 C   0  0  0  0  0  0  0  0  0  0  0  0
    5.4274   -7.2999    0.0000 C   0  0  0  0  0  0  0  0  0  0  0  0
    1.9428    3.6332    0.0000 C   0  0  0  0  0  0  0  0  0  0  0  0
    3.5871   -7.7931    0.0000 C   0  0  0  0  0  0  0  0  0  0  0  0
    1.3928    6.4909    0.0000 C   0  0  0  0  0  0  0  0  0  0  0  0
    6.2051   -6.5223    0.0000 C   0  0  0  0  0  0  0  0  0  0  0  0
    1.3928    2.6806    0.0000 C   0  0  0  0  0  0  0  0  0  0  0  0
    2.5246   -7.5083    0.0000 C   0  0  0  0  0  0  0  0  0  0  0  0
    1.9428    7.4434    0.0000 C   0  0  0  0  0  0  0  0  0  0  0  0
    7.2675   -6.8069    0.0000 C   0  0  0  0  0  0  0  0  0  0  0  0
    1.9428    1.7280    0.0000 C   0  0  0  0  0  0  0  0  0  0  0  0
    1.7470   -8.2861    0.0000 C   0  0  0  0  0  0  0  0  0  0  0  0
    1.3928    8.3960    0.0000 C   0  0  0  0  0  0  0  0  0  0  0  0
    8.0454   -6.0291    0.0000 C   0  0  0  0  0  0  0  0  0  0  0  0
    1.5303    1.0137    0.0000 C   0  0  0  0  0  0  0  0  0  0  0  0
    0.9501   -8.0726    0.0000 C   0  0  0  0  0  0  0  0  0  0  0  0
    0.7054    1.0137    0.0000 C   0  0  0  0  0  0  0  0  0  0  0  0
    0.7624   -7.3531    0.0000 C   0  0  0  0  0  0  0  0  0  0  0  0
   -0.2904   -0.2841    0.0000 C   0  0  0  0  0  0  0  0  0  0  0  0
   -0.3858   -6.5563    0.0000 C   0  0  0  0  0  0  0  0  0  0  0  0
   -1.4571   -1.4508    0.0000 C   0  0  0  0  0  0  0  0  0  0  0  0
   -1.5524   -5.3897    0.0000 C   0  0  0  0  0  0  0  0  0  0  0  0
   -2.0404   -2.0341    0.0000 C   0  0  0  0  0  0  0  0  0  0  0  0
   -1.9811   -4.9610    0.0000 C   0  0  0  0  0  0  0  0  0  0  0  0
   -0.0769   -1.0810    0.0000 C   0  0  0  0  0  0  0  0  0  0  0  0
   -1.1826   -6.7698    0.0000 C   0  0  0  0  0  0  0  0  0  0  0  0
   -1.0873   -0.0707    0.0000 C   0  0  0  0  0  0  0  0  0  0  0  0
   -0.1723   -5.7595    0.0000 C   0  0  0  0  0  0  0  0  0  0  0  0
   -0.6602   -1.6643    0.0000 C   0  0  0  0  0  0  0  0  0  0  0  0
   -1.7660   -6.1864    0.0000 C   0  0  0  0  0  0  0  0  0  0  0  0
   -1.6706   -0.6540    0.0000 C   0  0  0  0  0  0  0  0  0  0  0  0
   -0.7557   -5.1761    0.0000 C   0  0  0  0  0  0  0  0  0  0  0  0
   -1.7920   -2.8208    0.0000 C   0  0  0  0  0  0  0  0  0  0  0  0
   -1.8030   -4.1555    0.0000 C   0  0  0  0  0  0  0  0  0  0  0  0
   -2.8460   -1.8560    0.0000 C   0  0  0  0  0  0  0  0  0  0  0  0
   -2.7678   -5.2094    0.0000 C   0  0  0  0  0  0  0  0  0  0  0  0
   -4.9080   -5.0202    0.0000 C   0  0  0  0  0  0  0  0  0  0  0  0
   -4.9673   -2.0935    0.0000 C   0  0  0  0  0  0  0  0  0  0  0  0
   -4.1025   -5.1985    0.0000 C   0  0  0  0  0  0  0  0  0  0  0  0
   -4.1807   -1.8449    0.0000 C   0  0  0  0  0  0  0  0  0  0  0  0
   -5.4913   -5.6036    0.0000 C   0  0  0  0  0  0  0  0  0  0  0  0
   -5.5506   -1.5100    0.0000 C   0  0  0  0  0  0  0  0  0  0  0  0
   -5.1565   -4.2336    0.0000 C   0  0  0  0  0  0  0  0  0  0  0  0
   -5.1454   -2.8989    0.0000 C   0  0  0  0  0  0  0  0  0  0  0  0
   -1.0163   -3.9071    0.0000 C   0  0  0  0  0  0  0  0  0  0  0  0
   -1.0095   -3.0821    0.0000 C   0  0  0  0  0  0  0  0  0  0  0  0
   -3.0291   -5.9919    0.0000 C   0  0  0  0  0  0  0  0  0  0  0  0
   -3.0943   -1.0693    0.0000 C   0  0  0  0  0  0  0  0  0  0  0  0
   -3.8540   -5.9851    0.0000 C   0  0  0  0  0  0  0  0  0  0  0  0
   -3.9192   -1.0625    0.0000 C   0  0  0  0  0  0  0  0  0  0  0  0
   -6.2881   -5.3901    0.0000 C   0  0  0  0  0  0  0  0  0  0  0  0
   -5.3371   -0.7133    0.0000 C   0  0  0  0  0  0  0  0  0  0  0  0
   -5.2778   -6.4004    0.0000 C   0  0  0  0  0  0  0  0  0  0  0  0
   -6.3475   -1.7236    0.0000 C   0  0  0  0  0  0  0  0  0  0  0  0
   -5.9320   -3.1474    0.0000 C   0  0  0  0  0  0  0  0  0  0  0  0
   -5.9388   -3.9723    0.0000 C   0  0  0  0  0  0  0  0  0  0  0  0
   -5.8611   -6.9838    0.0000 C   0  0  0  0  0  0  0  0  0  0  0  0
   -6.9308   -1.1403    0.0000 C   0  0  0  0  0  0  0  0  0  0  0  0
   -6.8714   -5.9734    0.0000 C   0  0  0  0  0  0  0  0  0  0  0  0
   -5.9204   -0.1299    0.0000 C   0  0  0  0  0  0  0  0  0  0  0  0
   -6.6580   -6.7702    0.0000 C   0  0  0  0  0  0  0  0  0  0  0  0
   -6.7173   -0.3434    0.0000 C   0  0  0  0  0  0  0  0  0  0  0  0
   -8.0382   -7.5671    0.0000 C   0  0  0  0  0  0  0  0  0  0  0  0
   -8.0975    0.4534    0.0000 C   0  0  0  0  0  0  0  0  0  0  0  0
   -8.2516   -8.3639    0.0000 C   0  0  0  0  0  0  0  0  0  0  0  0
   -8.3109    1.2502    0.0000 C   0  0  0  0  0  0  0  0  0  0  0  0
   -9.0485   -8.5775    0.0000 C   0  0  0  0  0  0  0  0  0  0  0  0
   -9.1078    1.4638    0.0000 C   0  0  0  0  0  0  0  0  0  0  0  0
  1 77  1  0  0  0  0
  1 79  1  0  0  0  0
  2 78  1  0  0  0  0
  2 80  1  0  0  0  0
  3121  1  0  0  0  0
  3123  1  0  0  0  0
  4122  1  0  0  0  0
  4124  1  0  0  0  0
  5 59  1  0  0  0  0
  6 59  1  0  0  0  0
  7 60  1  0  0  0  0
  8 60  1  0  0  0  0
  9 61  1  0  0  0  0
 10 61  1  0  0  0  0
 11 62  1  0  0  0  0
 12 62  1  0  0  0  0
 13 63  1  0  0  0  0
 14 63  1  0  0  0  0
 15 64  1  0  0  0  0
 16 64  1  0  0  0  0
 17 65  1  0  0  0  0
 18 65  1  0  0  0  0
 19 66  1  0  0  0  0
 20 66  1  0  0  0  0
 21 67  1  0  0  0  0
 22 67  1  0  0  0  0
 23 68  1  0  0  0  0
 24 68  1  0  0  0  0
 25 69  1  0  0  0  0
 26 69  1  0  0  0  0
 27 70  1  0  0  0  0
 28 70  1  0  0  0  0
 29 71  1  0  0  0  0
 30 71  1  0  0  0  0
 31 72  1  0  0  0  0
 32 72  1  0  0  0  0
 33 73  1  0  0  0  0
 34 73  1  0  0  0  0
 35 73  1  0  0  0  0
 36 74  1  0  0  0  0
 37 74  1  0  0  0  0
 38 74  1  0  0  0  0
 39 85  1  0  0  0  0
 40 86  1  0  0  0  0
 41 87  1  0  0  0  0
 42 88  1  0  0  0  0
 43 89  1  0  0  0  0
 44 90  1  0  0  0  0
 45 91  1  0  0  0  0
 46 92  1  0  0  0  0
 47111  1  0  0  0  0
 48112  1  0  0  0  0
 49113  1  0  0  0  0
 50114  1  0  0  0  0
 51117  1  0  0  0  0
 52118  1  0  0  0  0
 53119  1  0  0  0  0
 54120  1  0  0  0  0
 55 93  1  0  0  0  0
 55 94  1  0  0  0  0
 56 96  2  0  0  0  0
 56 99  1  0  0  0  0
 57 95  2  0  0  0  0
 57100  1  0  0  0  0
 58103  1  0  0  0  0
 58104  1  0  0  0  0
 59 61  1  0  0  0  0
 59 63  1  0  0  0  0
 60 62  1  0  0  0  0
 60 64  1  0  0  0  0
 61 65  1  0  0  0  0
 62 66  1  0  0  0  0
 63 67  1  0  0  0  0
 64 68  1  0  0  0  0
 65 69  1  0  0  0  0
 66 70  1  0  0  0  0
 67 71  1  0  0  0  0
 68 72  1  0  0  0  0
 69 73  1  0  0  0  0
 70 74  1  0  0  0  0
 71 75  1  0  0  0  0
 72 76  1  0  0  0  0
 75 77  1  0  0  0  0
 76 78  1  0  0  0  0
 79 85  2  0  0  0  0
 79 87  1  0  0  0  0
 80 86  2  0  0  0  0
 80 88  1  0  0  0  0
 81 83  1  0  0  0  0
 81 89  2  0  0  0  0
 81 91  1  0  0  0  0
 82 84  1  0  0  0  0
 82 90  2  0  0  0  0
 82 92  1  0  0  0  0
 83 93  2  0  0  0  0
 83 95  1  0  0  0  0
 84 94  2  0  0  0  0
 84 96  1  0  0  0  0
 85 89  1  0  0  0  0
 86 90  1  0  0  0  0
 87 91  2  0  0  0  0
 88 92  2  0  0  0  0
 93106  1  0  0  0  0
 94105  1  0  0  0  0
 95108  1  0  0  0  0
 96107  1  0  0  0  0
 97 99  2  0  0  0  0
 97101  1  0  0  0  0
 97103  1  0  0  0  0
 98100  2  0  0  0  0
 98102  1  0  0  0  0
 98104  1  0  0  0  0
 99109  1  0  0  0  0
100110  1  0  0  0  0
101111  2  0  0  0  0
101113  1  0  0  0  0
102112  2  0  0  0  0
102114  1  0  0  0  0
103116  2  0  0  0  0
104115  2  0  0  0  0
105106  2  0  0  0  0
107109  2  0  0  0  0
108110  2  0  0  0  0
111119  1  0  0  0  0
112120  1  0  0  0  0
113117  2  0  0  0  0
114118  2  0  0  0  0
115116  1  0  0  0  0
117121  1  0  0  0  0
118122  1  0  0  0  0
119121  2  0  0  0  0
120122  2  0  0  0  0
123125  1  0  0  0  0
124126  1  0  0  0  0
125127  1  0  0  0  0
126128  1  0  0  0  0
M  END
> <PUBCHEM_COMPOUND_ID_TYPE>
0

> <PUBCHEM_TOTAL_CHARGE>
0

> <PUBCHEM_SUBSTANCE_ID>
310947635

> <PUBCHEM_SUBSTANCE_VERSION>
1

> <PUBCHEM_EXT_DATASOURCE_NAME>
4488

> <PUBCHEM_EXT_DATASOURCE_REGID>
SCHEMBL16125801

> <PUBCHEM_SUBSTANCE_COMMENT>
InChI=1S/C70H32F50N4S4/c1-3-15-125-51-43(79)35(71)31(36(72)44(51)80)27-19-5-6-20(121-19)28(32-37(73)45(81)52(126-16-4-2)46(82)38(32)74)22-8-10-24(123-22)30(34-41(77)49(85)54(50(86)42(34)78)128-18-14-56(89,90)58(93,94)60(97,98)62(101,102)64(105,106)66(109,110)68(113,114)70(118,119)120)26-12-11-25(124-26)29(23-9-7-21(27)122-23)33-39(75)47(83)53(48(84)40(33)76)127-17-13-55(87,88)57(91,92)59(95,96)61(99,100)63(103,104)65(107,108)67(111,112)69(115,116)117/h5-12,121,124H,3-4,13-18H2,1-2H3/b27-19+,27-21+,28-20+,28-22+,29-23+,29-25+,30-24+,30-26+
InChIKey=WBQZRGOAKUPRAT-LBXJYJGISA-N

> <PUBCHEM_SUBSTANCE_SYNONYM>
SCHEMBL16125801

> <PUBCHEM_XREF_EXT_ID>
SCHEMBL16125801

> <PUBCHEM_EXT_DATASOURCE_URL>
https://www.surechembl.org/

> <PUBCHEM_EXT_SUBSTANCE_URL>
https://www.surechembl.org/chemical/SCHEMBL16125801

> <PUBCHEM_CID_ASSOCIATIONS>
117613351  1

> <PUBCHEM_COORDINATE_TYPE>
1
3

$$$$
