310941025
  -OEChem-07211613022D

 32 35  0     1  0  0  0  0  0999 V2000
   -0.4965    2.5753    0.0000 O   0  0  0  0  0  0  0  0  0  0  0  0
    2.1224    2.1907    0.0000 O   0  0  0  0  0  0  0  0  0  0  0  0
    3.4751    0.0310    0.0000 O   0  0  0  0  0  0  0  0  0  0  0  0
    1.4521   -1.9920    0.0000 O   0  0  0  0  0  0  0  0  0  0  0  0
    0.7323    0.7757    0.0000 N   0  0  0  0  0  0  0  0  0  0  0  0
   -0.2731   -0.2793    0.0000 N   0  0  0  0  0  0  0  0  0  0  0  0
   -1.8617    0.5275    0.0000 N   0  0  0  0  0  0  0  0  0  0  0  0
   -1.8617    1.8555    0.0000 N   0  0  0  0  0  0  0  0  0  0  0  0
    0.7323    1.6073    0.0000 C   0  0  3  0  0  0  0  0  0  0  0  0
   -0.5585    1.1977    0.0000 C   0  0  0  0  0  0  0  0  0  0  0  0
   -0.0621    1.8431    0.0000 C   0  0  0  0  0  0  0  0  0  0  0  0
   -0.0621    0.5275    0.0000 C   0  0  0  0  0  0  0  0  0  0  0  0
   -1.3900    1.2101    0.0000 C   0  0  0  0  0  0  0  0  0  0  0  0
    1.3032    0.1924    0.0000 C   0  0  0  0  0  0  0  0  0  0  0  0
    1.5638    1.6073    0.0000 C   0  0  0  0  0  0  0  0  0  0  0  0
    0.9308    2.3891    0.0000 C   0  0  0  0  0  0  0  0  0  0  0  0
   -2.6684    0.7881    0.0000 C   0  0  0  0  0  0  0  0  0  0  0  0
   -2.6560    1.6073    0.0000 C   0  0  0  0  0  0  0  0  0  0  0  0
    1.1045   -0.6020    0.0000 C   0  0  0  0  0  0  0  0  0  0  0  0
    2.1100    0.4034    0.0000 C   0  0  0  0  0  0  0  0  0  0  0  0
    2.6808   -0.1675    0.0000 C   0  0  0  0  0  0  0  0  0  0  0  0
    1.6755   -1.1852    0.0000 C   0  0  0  0  0  0  0  0  0  0  0  0
    2.4698   -0.9743    0.0000 C   0  0  0  0  0  0  0  0  0  0  0  0
   -3.3635    0.3662    0.0000 C   0  0  0  0  0  0  0  0  0  0  0  0
   -3.3759    2.0168    0.0000 C   0  0  0  0  0  0  0  0  0  0  0  0
    0.3103   -0.8625    0.0000 C   0  0  0  0  0  0  0  0  0  0  0  0
   -4.0708    0.7757    0.0000 C   0  0  0  0  0  0  0  0  0  0  0  0
   -4.0708    1.6073    0.0000 C   0  0  0  0  0  0  0  0  0  0  0  0
    2.9290    1.9796    0.0000 C   0  0  0  0  0  0  0  0  0  0  0  0
    4.0708   -0.5399    0.0000 C   0  0  0  0  0  0  0  0  0  0  0  0
    2.0479   -2.5753    0.0000 C   0  0  0  0  0  0  0  0  0  0  0  0
    3.5124    2.5629    0.0000 C   0  0  0  0  0  0  0  0  0  0  0  0
  1 11  2  0  0  0  0
  2 15  1  0  0  0  0
  2 29  1  0  0  0  0
  3 21  1  0  0  0  0
  3 30  1  0  0  0  0
  4 22  1  0  0  0  0
  4 31  1  0  0  0  0
  5  9  1  0  0  0  0
  5 12  1  0  0  0  0
  5 14  1  0  0  0  0
  6 12  1  0  0  0  0
  6 26  1  0  0  0  0
  7 13  2  0  0  0  0
  7 17  1  0  0  0  0
  8 13  1  0  0  0  0
  8 18  1  0  0  0  0
  9 11  1  0  0  0  0
  9 15  1  1  0  0  0
  9 16  1  6  0  0  0
 10 11  1  0  0  0  0
 10 12  2  0  0  0  0
 10 13  1  0  0  0  0
 14 19  2  0  0  0  0
 14 20  1  0  0  0  0
 17 18  2  0  0  0  0
 17 24  1  0  0  0  0
 18 25  1  0  0  0  0
 19 22  1  0  0  0  0
 20 21  2  0  0  0  0
 21 23  1  0  0  0  0
 22 23  2  0  0  0  0
 24 27  2  0  0  0  0
 25 28  2  0  0  0  0
 27 28  1  0  0  0  0
 29 32  1  0  0  0  0
M  END
> <PUBCHEM_COMPOUND_ID_TYPE>
0

> <PUBCHEM_TOTAL_CHARGE>
0

> <PUBCHEM_SUBSTANCE_ID>
310941025

> <PUBCHEM_SUBSTANCE_VERSION>
1

> <PUBCHEM_EXT_DATASOURCE_NAME>
4488

> <PUBCHEM_EXT_DATASOURCE_REGID>
SCHEMBL16118984

> <PUBCHEM_SUBSTANCE_COMMENT>
InChI=1S/C24H28N4O4/c1-6-32-14-24(2)21(29)20(22-26-18-9-7-8-10-19(18)27-22)23(25-3)28(24)15-11-16(30-4)13-17(12-15)31-5/h7-13,25H,6,14H2,1-5H3,(H,26,27)/t24-/m1/s1
InChIKey=IAWQJQJUVWDGIM-XMMPIXPASA-N

> <PUBCHEM_SUBSTANCE_SYNONYM>
SCHEMBL16118984

> <PUBCHEM_XREF_EXT_ID>
SCHEMBL16118984

> <PUBCHEM_EXT_DATASOURCE_URL>
https://www.surechembl.org/

> <PUBCHEM_EXT_SUBSTANCE_URL>
https://www.surechembl.org/chemical/SCHEMBL16118984

> <PUBCHEM_CID_ASSOCIATIONS>
117607923  1

> <PUBCHEM_COORDINATE_TYPE>
1
3

> <PUBCHEM_BONDANNOTATIONS>
9  15  5
9  16  6

$$$$
