310945995
  -OEChem-07211613022D

 38 41  0     1  0  0  0  0  0999 V2000
    4.3613    0.6773    0.0000 O   0  0  0  0  0  0  0  0  0  0  0  0
    3.2279   -1.2856    0.0000 O   0  0  0  0  0  0  0  0  0  0  0  0
    1.0713    0.7879    0.0000 O   0  0  0  0  0  0  0  0  0  0  0  0
   -3.9467   -0.4561    0.0000 O   0  0  0  0  0  0  0  0  0  0  0  0
   -3.2279    0.7879    0.0000 O   0  0  0  0  0  0  0  0  0  0  0  0
    3.2279   -2.9444    0.0000 O   0  0  0  0  0  0  0  0  0  0  0  0
    1.8040   -0.4423    0.0000 N   0  0  0  0  0  0  0  0  0  0  0  0
   -0.3525   -0.0276    0.0000 N   0  0  0  0  0  0  0  0  0  0  0  0
   -1.0713   -1.2717    0.0000 N   0  0  0  0  0  0  0  0  0  0  0  0
    3.9605   -0.0138    0.0000 C   0  0  3  0  0  0  0  0  0  0  0  0
    3.1864   -0.4285    0.0000 C   0  0  0  0  0  0  0  0  0  0  0  0
    3.5596    0.6773    0.0000 C   0  0  0  0  0  0  0  0  0  0  0  0
    2.5090   -0.0276    0.0000 C   0  0  3  0  0  0  0  0  0  0  0  0
    4.6793   -0.4423    0.0000 C   0  0  0  0  0  0  0  0  0  0  0  0
    2.5366    1.2856    0.0000 C   0  0  0  0  0  0  0  0  0  0  0  0
    1.0713   -0.0415    0.0000 C   0  0  0  0  0  0  0  0  0  0  0  0
    0.3801   -0.4423    0.0000 C   0  0  3  0  0  0  0  0  0  0  0  0
    1.7901    1.7280    0.0000 C   0  0  0  0  0  0  0  0  0  0  0  0
   -1.0713   -0.4423    0.0000 C   0  0  0  0  0  0  0  0  0  0  0  0
    0.3663   -1.2717    0.0000 C   0  0  0  0  0  0  0  0  0  0  0  0
    1.0851   -1.6865    0.0000 C   0  0  0  0  0  0  0  0  0  0  0  0
   -2.5090   -0.4423    0.0000 C   0  0  0  0  0  0  0  0  0  0  0  0
   -1.8040   -0.0415    0.0000 C   0  0  0  0  0  0  0  0  0  0  0  0
    1.7901    2.5436    0.0000 C   0  0  0  0  0  0  0  0  0  0  0  0
    1.0990    1.2994    0.0000 C   0  0  0  0  0  0  0  0  0  0  0  0
   -3.2279   -0.0553    0.0000 C   0  0  0  0  0  0  0  0  0  0  0  0
   -2.5090   -1.2579    0.0000 C   0  0  0  0  0  0  0  0  0  0  0  0
    1.0851   -2.5159    0.0000 C   0  0  0  0  0  0  0  0  0  0  0  0
    1.7901   -1.2856    0.0000 C   0  0  0  0  0  0  0  0  0  0  0  0
   -1.7763   -1.6865    0.0000 C   0  0  0  0  0  0  0  0  0  0  0  0
    2.5090   -2.5021    0.0000 C   0  0  0  0  0  0  0  0  0  0  0  0
    1.0851    2.9444    0.0000 C   0  0  0  0  0  0  0  0  0  0  0  0
    0.3663    1.7141    0.0000 C   0  0  0  0  0  0  0  0  0  0  0  0
    1.8040   -2.9306    0.0000 C   0  0  0  0  0  0  0  0  0  0  0  0
    2.5090   -1.6865    0.0000 C   0  0  0  0  0  0  0  0  0  0  0  0
    0.3663    2.5436    0.0000 C   0  0  0  0  0  0  0  0  0  0  0  0
   -4.6793   -0.0415    0.0000 C   0  0  0  0  0  0  0  0  0  0  0  0
    3.9743   -2.5297    0.0000 C   0  0  0  0  0  0  0  0  0  0  0  0
  1 10  1  0  0  0  0
  1 12  1  0  0  0  0
  2 11  2  0  0  0  0
  3 16  2  0  0  0  0
  4 26  1  0  0  0  0
  4 37  1  0  0  0  0
  5 26  2  0  0  0  0
  6 31  1  0  0  0  0
  6 38  1  0  0  0  0
 13  7  1  6  0  0  0
  7 16  1  0  0  0  0
 17  8  1  1  0  0  0
  8 19  1  0  0  0  0
  9 19  1  0  0  0  0
  9 30  2  0  0  0  0
 10 11  1  6  0  0  0
 10 12  1  0  0  0  0
 10 14  1  1  0  0  0
 11 13  1  0  0  0  0
 13 15  1  0  0  0  0
 15 18  1  0  0  0  0
 16 17  1  0  0  0  0
 17 20  1  0  0  0  0
 18 24  2  0  0  0  0
 18 25  1  0  0  0  0
 19 23  2  0  0  0  0
 20 21  1  0  0  0  0
 21 28  2  0  0  0  0
 21 29  1  0  0  0  0
 22 23  1  0  0  0  0
 22 26  1  0  0  0  0
 22 27  2  0  0  0  0
 24 32  1  0  0  0  0
 25 33  2  0  0  0  0
 27 30  1  0  0  0  0
 28 34  1  0  0  0  0
 29 35  2  0  0  0  0
 31 34  2  0  0  0  0
 31 35  1  0  0  0  0
 32 36  2  0  0  0  0
 33 36  1  0  0  0  0
M  END
> <PUBCHEM_COMPOUND_ID_TYPE>
0

> <PUBCHEM_TOTAL_CHARGE>
0

> <PUBCHEM_SUBSTANCE_ID>
310945995

> <PUBCHEM_SUBSTANCE_VERSION>
1

> <PUBCHEM_EXT_DATASOURCE_NAME>
4488

> <PUBCHEM_EXT_DATASOURCE_REGID>
SCHEMBL16124101

> <PUBCHEM_SUBSTANCE_COMMENT>
InChI=1S/C29H31N3O6/c1-29(18-38-29)26(33)23(15-19-7-5-4-6-8-19)32-27(34)24(16-20-9-11-22(36-2)12-10-20)31-25-17-21(13-14-30-25)28(35)37-3/h4-14,17,23-24H,15-16,18H2,1-3H3,(H,30,31)(H,32,34)/t23-,24-,29+/m1/s1
InChIKey=FVBHEMHGFRAFMK-CWHUZLPRSA-N

> <PUBCHEM_SUBSTANCE_SYNONYM>
SCHEMBL16124101

> <PUBCHEM_XREF_EXT_ID>
SCHEMBL16124101

> <PUBCHEM_EXT_DATASOURCE_URL>
https://www.surechembl.org/

> <PUBCHEM_EXT_SUBSTANCE_URL>
https://www.surechembl.org/chemical/SCHEMBL16124101

> <PUBCHEM_CID_ASSOCIATIONS>
117611966  1

> <PUBCHEM_COORDINATE_TYPE>
1
3

> <PUBCHEM_BONDANNOTATIONS>
10  11  6
10  14  5
13  7  6
17  8  5

$$$$
