310929367
  -OEChem-07211613022D

 70 74  0     0  0  0  0  0  0999 V2000
    4.2850  -14.9538    0.0000 S   0  0  0  0  0  0  0  0  0  0  0  0
    6.8211  -10.5814    0.0000 O   0  0  0  0  0  0  0  0  0  0  0  0
    4.2850  -13.4672    0.0000 O   0  0  0  0  0  0  0  0  0  0  0  0
    2.1862  -11.1935    0.0000 O   0  0  0  0  0  0  0  0  0  0  0  0
    4.2850  -13.9919    0.0000 O   0  0  0  0  0  0  0  0  0  0  0  0
    4.2850  -15.7409    0.0000 O   0  0  0  0  0  0  0  0  0  0  0  0
   12.0680   -7.7830    0.0000 O   0  0  0  0  0  0  0  0  0  0  0  0
    9.5320   -6.2089    0.0000 O   0  0  0  0  0  0  0  0  0  0  0  0
   13.8170   -6.3838    0.0000 O   0  0  0  0  0  0  0  0  0  0  0  0
   15.9158   -5.6842    0.0000 O   0  0  0  0  0  0  0  0  0  0  0  0
   17.6648   -4.1976    0.0000 O   0  0  0  0  0  0  0  0  0  0  0  0
   19.7635   -3.4979    0.0000 O   0  0  0  0  0  0  0  0  0  0  0  0
   21.5125   -2.0988    0.0000 O   0  0  0  0  0  0  0  0  0  0  0  0
   23.6987   -1.3992    0.0000 O   0  0  0  0  0  0  0  0  0  0  0  0
   25.4477    0.0000    0.0000 O   0  0  0  0  0  0  0  0  0  0  0  0
    3.4105  -11.9806    0.0000 N   0  0  0  0  0  0  0  0  0  0  0  0
    3.4105  -10.4939    0.0000 N   0  0  0  0  0  0  0  0  0  0  0  0
    3.4105  -14.9538    0.0000 N   0  0  0  0  0  0  0  0  0  0  0  0
    8.1328   -9.8817    0.0000 N   0  0  0  0  0  0  0  0  0  0  0  0
    9.4445   -9.1821    0.0000 N   0  0  0  0  0  0  0  0  0  0  0  0
    8.1328   -8.3951    0.0000 N   0  0  0  0  0  0  0  0  0  0  0  0
    4.7222  -11.1935    0.0000 C   0  0  0  0  0  0  0  0  0  0  0  0
    2.9733  -12.6801    0.0000 C   0  0  0  0  0  0  0  0  0  0  0  0
    3.4105  -13.4672    0.0000 C   0  0  0  0  0  0  0  0  0  0  0  0
    5.5968  -11.1935    0.0000 C   0  0  0  0  0  0  0  0  0  0  0  0
    2.9733  -14.1668    0.0000 C   0  0  0  0  0  0  0  0  0  0  0  0
    1.7490  -13.4672    0.0000 C   0  0  0  0  0  0  0  0  0  0  0  0
    4.2850  -10.4939    0.0000 C   0  0  0  0  0  0  0  0  0  0  0  0
    6.0340  -10.4939    0.0000 C   0  0  0  0  0  0  0  0  0  0  0  0
    2.1862  -12.6801    0.0000 C   0  0  0  0  0  0  0  0  0  0  0  0
    2.1862  -14.1668    0.0000 C   0  0  0  0  0  0  0  0  0  0  0  0
    0.8745  -13.4672    0.0000 C   0  0  0  0  0  0  0  0  0  0  0  0
    3.0607  -11.1935    0.0000 C   0  0  0  0  0  0  0  0  0  0  0  0
    4.7222   -9.7943    0.0000 C   0  0  0  0  0  0  0  0  0  0  0  0
    5.5968   -9.7943    0.0000 C   0  0  0  0  0  0  0  0  0  0  0  0
    4.2850  -11.9806    0.0000 C   0  0  0  0  0  0  0  0  0  0  0  0
    5.9465  -11.9806    0.0000 C   0  0  0  0  0  0  0  0  0  0  0  0
    7.2583   -9.7943    0.0000 C   0  0  0  0  0  0  0  0  0  0  0  0
    4.7222  -12.6801    0.0000 C   0  0  0  0  0  0  0  0  0  0  0  0
    5.5093  -12.6801    0.0000 C   0  0  0  0  0  0  0  0  0  0  0  0
    0.8745  -12.5927    0.0000 C   0  0  0  0  0  0  0  0  0  0  0  0
    0.0000  -13.4672    0.0000 C   0  0  0  0  0  0  0  0  0  0  0  0
    0.8745  -14.2542    0.0000 C   0  0  0  0  0  0  0  0  0  0  0  0
    8.5700   -9.0947    0.0000 C   0  0  0  0  0  0  0  0  0  0  0  0
    6.9085   -9.0947    0.0000 C   0  0  0  0  0  0  0  0  0  0  0  0
    4.8972  -12.8550    0.0000 C   0  0  0  0  0  0  0  0  0  0  0  0
    9.8817   -8.4826    0.0000 C   0  0  0  0  0  0  0  0  0  0  0  0
    5.0721  -14.9538    0.0000 C   0  0  0  0  0  0  0  0  0  0  0  0
    7.3457   -8.3951    0.0000 C   0  0  0  0  0  0  0  0  0  0  0  0
   10.7563   -8.4826    0.0000 C   0  0  0  0  0  0  0  0  0  0  0  0
    9.4445   -7.6955    0.0000 C   0  0  0  0  0  0  0  0  0  0  0  0
   11.1935   -7.7830    0.0000 C   0  0  0  0  0  0  0  0  0  0  0  0
    9.9692   -6.9959    0.0000 C   0  0  0  0  0  0  0  0  0  0  0  0
   10.7563   -6.9959    0.0000 C   0  0  0  0  0  0  0  0  0  0  0  0
   12.5053   -7.0834    0.0000 C   0  0  0  0  0  0  0  0  0  0  0  0
    8.6575   -6.2089    0.0000 C   0  0  0  0  0  0  0  0  0  0  0  0
   13.2923   -7.0834    0.0000 C   0  0  0  0  0  0  0  0  0  0  0  0
   14.6040   -6.3838    0.0000 C   0  0  0  0  0  0  0  0  0  0  0  0
   15.0413   -5.6842    0.0000 C   0  0  0  0  0  0  0  0  0  0  0  0
   16.3530   -4.8972    0.0000 C   0  0  0  0  0  0  0  0  0  0  0  0
   17.2275   -4.8972    0.0000 C   0  0  0  0  0  0  0  0  0  0  0  0
   18.5392   -4.1976    0.0000 C   0  0  0  0  0  0  0  0  0  0  0  0
   18.9765   -3.4979    0.0000 C   0  0  0  0  0  0  0  0  0  0  0  0
   20.2882   -2.7984    0.0000 C   0  0  0  0  0  0  0  0  0  0  0  0
   21.0753   -2.7984    0.0000 C   0  0  0  0  0  0  0  0  0  0  0  0
   22.3870   -2.0988    0.0000 C   0  0  0  0  0  0  0  0  0  0  0  0
   22.8243   -1.3992    0.0000 C   0  0  0  0  0  0  0  0  0  0  0  0
   24.1360   -0.6996    0.0000 C   0  0  0  0  0  0  0  0  0  0  0  0
   25.0105   -0.6996    0.0000 C   0  0  0  0  0  0  0  0  0  0  0  0
   26.2348    0.0000    0.0000 C   0  0  0  0  0  0  0  0  0  0  0  0
  1  5  2  0  0  0  0
  1  6  2  0  0  0  0
  1 18  1  0  0  0  0
  1 48  1  0  0  0  0
  2 29  1  0  0  0  0
  2 38  1  0  0  0  0
  3 24  1  0  0  0  0
  3 46  1  0  0  0  0
  4 33  2  0  0  0  0
  7 52  1  0  0  0  0
  7 55  1  0  0  0  0
  8 53  1  0  0  0  0
  8 56  1  0  0  0  0
  9 57  1  0  0  0  0
  9 58  1  0  0  0  0
 10 59  1  0  0  0  0
 10 60  1  0  0  0  0
 11 61  1  0  0  0  0
 11 62  1  0  0  0  0
 12 63  1  0  0  0  0
 12 64  1  0  0  0  0
 13 65  1  0  0  0  0
 13 66  1  0  0  0  0
 14 67  1  0  0  0  0
 14 68  1  0  0  0  0
 15 69  1  0  0  0  0
 15 70  1  0  0  0  0
 16 23  1  0  0  0  0
 16 33  1  0  0  0  0
 17 28  1  0  0  0  0
 17 33  1  0  0  0  0
 18 26  1  0  0  0  0
 19 38  2  0  0  0  0
 19 44  1  0  0  0  0
 20 44  1  0  0  0  0
 20 47  1  0  0  0  0
 21 44  2  0  0  0  0
 21 49  1  0  0  0  0
 22 25  2  0  0  0  0
 22 28  1  0  0  0  0
 22 36  1  0  0  0  0
 23 24  2  0  0  0  0
 23 30  1  0  0  0  0
 24 26  1  0  0  0  0
 25 29  1  0  0  0  0
 25 37  1  0  0  0  0
 26 31  2  0  0  0  0
 27 30  2  0  0  0  0
 27 31  1  0  0  0  0
 27 32  1  0  0  0  0
 28 34  2  0  0  0  0
 29 35  2  0  0  0  0
 32 41  1  0  0  0  0
 32 42  1  0  0  0  0
 32 43  1  0  0  0  0
 34 35  1  0  0  0  0
 36 39  2  0  0  0  0
 37 40  2  0  0  0  0
 38 45  1  0  0  0  0
 39 40  1  0  0  0  0
 45 49  2  0  0  0  0
 47 50  1  0  0  0  0
 47 51  2  0  0  0  0
 50 52  2  0  0  0  0
 51 53  1  0  0  0  0
 52 54  1  0  0  0  0
 53 54  2  0  0  0  0
 55 57  1  0  0  0  0
 58 59  1  0  0  0  0
 60 61  1  0  0  0  0
 62 63  1  0  0  0  0
 64 65  1  0  0  0  0
 66 67  1  0  0  0  0
 68 69  1  0  0  0  0
M  END
> <PUBCHEM_COMPOUND_ID_TYPE>
0

> <PUBCHEM_TOTAL_CHARGE>
0

> <PUBCHEM_SUBSTANCE_ID>
310929367

> <PUBCHEM_SUBSTANCE_VERSION>
1

> <PUBCHEM_EXT_DATASOURCE_NAME>
4488

> <PUBCHEM_EXT_DATASOURCE_REGID>
SCHEMBL16106539

> <PUBCHEM_SUBSTANCE_COMMENT>
InChI=1S/C49H66N6O14S/c1-49(2,3)35-30-42(46(61-6)43(31-35)55-70(7,57)58)53-48(56)52-41-12-13-44(40-11-9-8-10-39(40)41)69-45-14-15-50-47(54-45)51-36-32-37(60-5)34-38(33-36)68-29-28-67-27-26-66-25-24-65-23-22-64-21-20-63-19-18-62-17-16-59-4/h8-15,30-34,55H,16-29H2,1-7H3,(H,50,51,54)(H2,52,53,56)
InChIKey=KWEVSNRXKHUTLB-UHFFFAOYSA-N

> <PUBCHEM_SUBSTANCE_SYNONYM>
SCHEMBL16106539

> <PUBCHEM_XREF_EXT_ID>
SCHEMBL16106539

> <PUBCHEM_EXT_DATASOURCE_URL>
https://www.surechembl.org/

> <PUBCHEM_EXT_SUBSTANCE_URL>
https://www.surechembl.org/chemical/SCHEMBL16106539

> <PUBCHEM_CID_ASSOCIATIONS>
86275697  1

> <PUBCHEM_COORDINATE_TYPE>
1
3

$$$$
