310948631
  -OEChem-07211613022D

 34 38  0     1  0  0  0  0  0999 V2000
   -2.5802    1.9374    0.0000 O   0  0  0  0  0  0  0  0  0  0  0  0
   -1.2579   -3.2596    0.0000 O   0  0  0  0  0  0  0  0  0  0  0  0
    1.7537   -2.8924    0.0000 O   0  0  0  0  0  0  0  0  0  0  0  0
    0.1744    1.8089    0.0000 N   0  0  0  0  0  0  0  0  0  0  0  0
   -0.1561    1.0376    0.0000 N   0  0  0  0  0  0  0  0  0  0  0  0
   -1.5334    0.5234    0.0000 N   0  0  0  0  0  0  0  0  0  0  0  0
   -1.8639    3.1862    0.0000 N   0  0  0  0  0  0  0  0  0  0  0  0
    0.1194   -2.8924    0.0000 N   0  0  0  0  0  0  0  0  0  0  0  0
    1.0192   -0.2112    0.0000 N   0  0  0  0  0  0  0  0  0  0  0  0
   -1.1294    1.9558    0.0000 C   0  0  0  0  0  0  0  0  0  0  0  0
   -0.4499    2.3598    0.0000 C   0  0  0  0  0  0  0  0  0  0  0  0
   -0.9825    1.1661    0.0000 C   0  0  0  0  0  0  0  0  0  0  0  0
    0.9641    1.9741    0.0000 C   0  0  3  0  0  0  0  0  0  0  0  0
   -1.8639    2.3598    0.0000 C   0  0  0  0  0  0  0  0  0  0  0  0
   -0.4316    3.1862    0.0000 C   0  0  0  0  0  0  0  0  0  0  0  0
    1.5517    1.3681    0.0000 C   0  0  3  0  0  0  0  0  0  0  0  0
   -1.3131   -0.2662    0.0000 C   0  0  0  0  0  0  0  0  0  0  0  0
   -1.1478    3.6086    0.0000 C   0  0  0  0  0  0  0  0  0  0  0  0
    1.2396    2.7638    0.0000 C   0  0  0  0  0  0  0  0  0  0  0  0
   -0.8907   -1.8823    0.0000 C   0  0  0  0  0  0  0  0  0  0  0  0
   -0.3214   -1.2947    0.0000 C   0  0  0  0  0  0  0  0  0  0  0  0
   -0.5234   -0.5050    0.0000 C   0  0  0  0  0  0  0  0  0  0  0  0
   -1.8823   -0.8539    0.0000 C   0  0  0  0  0  0  0  0  0  0  0  0
    2.3231    1.5517    0.0000 C   0  0  0  0  0  0  0  0  0  0  0  0
   -0.6887   -2.6353    0.0000 C   0  0  0  0  0  0  0  0  0  0  0  0
   -1.6803   -1.6436    0.0000 C   0  0  0  0  0  0  0  0  0  0  0  0
    1.2579    0.5968    0.0000 C   0  0  0  0  0  0  0  0  0  0  0  0
    2.0293    2.9291    0.0000 C   0  0  0  0  0  0  0  0  0  0  0  0
    2.5802    2.3414    0.0000 C   0  0  0  0  0  0  0  0  0  0  0  0
    0.5050   -1.5334    0.0000 C   0  0  0  0  0  0  0  0  0  0  0  0
    0.5418   -2.1578    0.0000 C   0  0  0  0  0  0  0  0  0  0  0  0
    0.5234   -3.5902    0.0000 C   0  0  0  0  0  0  0  0  0  0  0  0
    1.3681   -2.1761    0.0000 C   0  0  0  0  0  0  0  0  0  0  0  0
    1.3497   -3.6086    0.0000 C   0  0  0  0  0  0  0  0  0  0  0  0
  1 14  2  0  0  0  0
  2 25  2  0  0  0  0
  3 33  1  0  0  0  0
  3 34  1  0  0  0  0
  4  5  1  0  0  0  0
  4 11  1  0  0  0  0
 13  4  1  1  0  0  0
  5 12  2  0  0  0  0
  6 12  1  0  0  0  0
  6 17  1  0  0  0  0
  7 14  1  0  0  0  0
  7 18  1  0  0  0  0
  8 25  1  0  0  0  0
  8 31  1  0  0  0  0
  8 32  1  0  0  0  0
  9 27  3  0  0  0  0
 10 11  2  0  0  0  0
 10 12  1  0  0  0  0
 10 14  1  0  0  0  0
 11 15  1  0  0  0  0
 13 16  1  0  0  0  0
 13 19  1  0  0  0  0
 15 18  2  0  0  0  0
 16 24  1  0  0  0  0
 16 27  1  6  0  0  0
 17 22  1  0  0  0  0
 17 23  2  0  0  0  0
 19 28  1  0  0  0  0
 20 21  1  0  0  0  0
 20 25  1  0  0  0  0
 20 26  2  0  0  0  0
 21 22  2  0  0  0  0
 21 30  1  0  0  0  0
 23 26  1  0  0  0  0
 24 29  1  0  0  0  0
 28 29  1  0  0  0  0
 31 33  1  0  0  0  0
 32 34  1  0  0  0  0
M  END
> <PUBCHEM_COMPOUND_ID_TYPE>
0

> <PUBCHEM_TOTAL_CHARGE>
0

> <PUBCHEM_SUBSTANCE_ID>
310948631

> <PUBCHEM_SUBSTANCE_VERSION>
1

> <PUBCHEM_EXT_DATASOURCE_NAME>
4488

> <PUBCHEM_EXT_DATASOURCE_REGID>
SCHEMBL16126815

> <PUBCHEM_SUBSTANCE_COMMENT>
InChI=1S/C25H28N6O3/c1-16-14-18(6-7-19(16)25(33)30-10-12-34-13-11-30)28-23-22-21(8-9-27-24(22)32)31(29-23)20-5-3-2-4-17(20)15-26/h6-9,14,17,20H,2-5,10-13H2,1H3,(H,27,32)(H,28,29)/t17-,20+/m1/s1
InChIKey=AWPSAAQGCJQFHE-XLIONFOSSA-N

> <PUBCHEM_SUBSTANCE_SYNONYM>
SCHEMBL16126815

> <PUBCHEM_XREF_EXT_ID>
SCHEMBL16126815

> <PUBCHEM_EXT_DATASOURCE_URL>
https://www.surechembl.org/

> <PUBCHEM_EXT_SUBSTANCE_URL>
https://www.surechembl.org/chemical/SCHEMBL16126815

> <PUBCHEM_CID_ASSOCIATIONS>
117614175  1

> <PUBCHEM_COORDINATE_TYPE>
1
3

> <PUBCHEM_BONDANNOTATIONS>
16  27  6
13  4  5

$$$$
