310949694
  -OEChem-07211613022D

 14 14  0     0  0  0  0  0  0999 V2000
    2.0124   -0.0131    0.0000 O   0  0  0  0  0  0  0  0  0  0  0  0
    1.2937    1.2545    0.0000 O   0  0  0  0  0  0  0  0  0  0  0  0
    0.5750   -0.0131    0.0000 N   0  0  0  0  0  0  0  0  0  0  0  0
   -0.8625   -0.0131    0.0000 C   0  0  0  0  0  0  0  0  0  0  0  0
   -0.1568    0.4051    0.0000 C   0  0  0  0  0  0  0  0  0  0  0  0
    1.2806    0.3920    0.0000 C   0  0  0  0  0  0  0  0  0  0  0  0
   -1.5812    0.3920    0.0000 C   0  0  0  0  0  0  0  0  0  0  0  0
   -2.2738   -0.0131    0.0000 C   0  0  0  0  0  0  0  0  0  0  0  0
   -0.8625   -0.8494    0.0000 C   0  0  0  0  0  0  0  0  0  0  0  0
   -2.2738   -0.8494    0.0000 C   0  0  0  0  0  0  0  0  0  0  0  0
   -1.5550   -1.2545    0.0000 C   0  0  0  0  0  0  0  0  0  0  0  0
    0.5750   -0.8886    0.0000 C   0  0  0  0  0  0  0  0  0  0  0  0
   -2.7573    0.2613    0.0000 C   0  0  0  0  0  0  0  0  0  0  0  0
    2.7573    0.4181    0.0000 C   0  0  0  0  0  0  0  0  0  0  0  0
  1  6  1  0  0  0  0
  1 14  1  0  0  0  0
  2  6  2  0  0  0  0
  3  5  1  0  0  0  0
  3  6  1  0  0  0  0
  3 12  1  0  0  0  0
  4  5  1  0  0  0  0
  4  7  1  0  0  0  0
  4  9  2  0  0  0  0
  7  8  2  0  0  0  0
  8 10  1  0  0  0  0
  8 13  1  0  0  0  0
  9 11  1  0  0  0  0
 10 11  2  0  0  0  0
M  END
> <PUBCHEM_COMPOUND_ID_TYPE>
0

> <PUBCHEM_TOTAL_CHARGE>
0

> <PUBCHEM_SUBSTANCE_ID>
310949694

> <PUBCHEM_SUBSTANCE_VERSION>
1

> <PUBCHEM_EXT_DATASOURCE_NAME>
4488

> <PUBCHEM_EXT_DATASOURCE_REGID>
SCHEMBL16127892

> <PUBCHEM_SUBSTANCE_COMMENT>
InChI=1S/C11H15NO2/c1-9-5-4-6-10(7-9)8-12(2)11(13)14-3/h4-7H,8H2,1-3H3
InChIKey=QBAWJEZRAXJMDL-UHFFFAOYSA-N

> <PUBCHEM_SUBSTANCE_SYNONYM>
SCHEMBL16127892

> <PUBCHEM_XREF_EXT_ID>
SCHEMBL16127892

> <PUBCHEM_EXT_DATASOURCE_URL>
https://www.surechembl.org/

> <PUBCHEM_EXT_SUBSTANCE_URL>
https://www.surechembl.org/chemical/SCHEMBL16127892

> <PUBCHEM_CID_ASSOCIATIONS>
115579871  1

> <PUBCHEM_COORDINATE_TYPE>
1
3

$$$$
