310929751
  -OEChem-07211613022D

 61 68  0     1  0  0  0  0  0999 V2000
    1.5366   -1.3719    0.0000 S   0  0  0  0  0  0  0  0  0  0  0  0
    2.9634   -0.5487    0.0000 O   0  0  0  0  0  0  0  0  0  0  0  0
    4.9938   -2.7438    0.0000 O   0  0  0  0  0  0  0  0  0  0  0  0
    6.0913   -5.1585    0.0000 O   0  0  0  0  0  0  0  0  0  0  0  0
    1.9207   -0.6585    0.0000 O   0  0  0  0  0  0  0  0  0  0  0  0
    1.0975   -2.0853    0.0000 O   0  0  0  0  0  0  0  0  0  0  0  0
    1.9756   -3.6219    0.0000 O   0  0  0  0  0  0  0  0  0  0  0  0
    7.0243   -8.0120    0.0000 O   0  0  0  0  0  0  0  0  0  0  0  0
    1.4817   -7.1889    0.0000 O   0  0  0  0  0  0  0  0  0  0  0  0
    0.6036   -6.3109    0.0000 O   0  0  0  0  0  0  0  0  0  0  0  0
    4.9938  -10.9754    0.0000 O   0  0  0  0  0  0  0  0  0  0  0  0
    3.5670   -2.5792    0.0000 N   0  0  0  0  0  0  0  0  0  0  0  0
    2.2500   -1.8109    0.0000 N   0  0  0  0  0  0  0  0  0  0  0  0
    3.2377   -3.8963    0.0000 N   0  0  0  0  0  0  0  0  0  0  0  0
    7.0243   -5.5426    0.0000 N   0  0  0  0  0  0  0  0  0  0  0  0
    1.4817   -5.5426    0.0000 N   0  0  0  0  0  0  0  0  0  0  0  0
    3.6768   -1.8109    0.0000 C   0  0  3  0  0  0  0  0  0  0  0  0
    3.8963   -0.9878    0.0000 C   0  0  3  0  0  0  0  0  0  0  0  0
    4.4999   -1.5366    0.0000 C   0  0  0  0  0  0  0  0  0  0  0  0
    2.9634   -1.3719    0.0000 C   0  0  0  0  0  0  0  0  0  0  0  0
    4.2255   -3.0731    0.0000 C   0  0  0  0  0  0  0  0  0  0  0  0
    3.6768   -0.2195    0.0000 C   0  0  0  0  0  0  0  0  0  0  0  0
    4.1158   -3.8963    0.0000 C   0  0  3  0  0  0  0  0  0  0  0  0
    0.8232   -0.9878    0.0000 C   0  0  0  0  0  0  0  0  0  0  0  0
    4.8841   -4.1158    0.0000 C   0  0  0  0  0  0  0  0  0  0  0  0
    5.5975   -4.4999    0.0000 C   0  0  3  0  0  0  0  0  0  0  0  0
    2.4695   -4.2804    0.0000 C   0  0  0  0  0  0  0  0  0  0  0  0
    4.5548   -3.5121    0.0000 C   0  0  0  0  0  0  0  0  0  0  0  0
    0.0000   -0.9329    0.0000 C   0  0  0  0  0  0  0  0  0  0  0  0
    0.3841   -0.2195    0.0000 C   0  0  0  0  0  0  0  0  0  0  0  0
    1.8658   -4.8841    0.0000 C   0  0  3  0  0  0  0  0  0  0  0  0
    6.3657   -5.9267    0.0000 C   0  0  0  0  0  0  0  0  0  0  0  0
    2.8536    0.0000    0.0000 C   0  0  0  0  0  0  0  0  0  0  0  0
    6.3657   -6.8047    0.0000 C   0  0  0  0  0  0  0  0  0  0  0  0
    7.0243   -7.1889    0.0000 C   0  0  0  0  0  0  0  0  0  0  0  0
    7.7377   -6.8047    0.0000 C   0  0  0  0  0  0  0  0  0  0  0  0
    7.7377   -5.9267    0.0000 C   0  0  0  0  0  0  0  0  0  0  0  0
    1.2622   -4.3902    0.0000 C   0  0  0  0  0  0  0  0  0  0  0  0
    6.0913   -7.5730    0.0000 C   0  0  0  0  0  0  0  0  0  0  0  0
    8.5060   -7.1889    0.0000 C   0  0  0  0  0  0  0  0  0  0  0  0
    8.5060   -5.5426    0.0000 C   0  0  0  0  0  0  0  0  0  0  0  0
    0.4390   -4.6097    0.0000 C   0  0  0  0  0  0  0  0  0  0  0  0
    1.2622   -3.5670    0.0000 C   0  0  0  0  0  0  0  0  0  0  0  0
    1.4268   -6.3109    0.0000 C   0  0  0  0  0  0  0  0  0  0  0  0
    9.1645   -6.8047    0.0000 C   0  0  0  0  0  0  0  0  0  0  0  0
    9.1645   -5.9267    0.0000 C   0  0  0  0  0  0  0  0  0  0  0  0
    0.0000   -3.9511    0.0000 C   0  0  0  0  0  0  0  0  0  0  0  0
    0.4939   -3.2926    0.0000 C   0  0  0  0  0  0  0  0  0  0  0  0
    5.5975   -8.1766    0.0000 C   0  0  0  0  0  0  0  0  0  0  0  0
    6.3109   -8.4511    0.0000 C   0  0  0  0  0  0  0  0  0  0  0  0
    1.8658   -7.9023    0.0000 C   0  0  3  0  0  0  0  0  0  0  0  0
    2.4695   -8.4511    0.0000 C   0  0  3  0  0  0  0  0  0  0  0  0
    4.7743   -8.3962    0.0000 C   0  0  0  0  0  0  0  0  0  0  0  0
    1.2073   -8.2864    0.0000 C   0  0  0  0  0  0  0  0  0  0  0  0
    6.3109   -9.2742    0.0000 C   0  0  0  0  0  0  0  0  0  0  0  0
    3.2377   -8.7803    0.0000 C   0  0  0  0  0  0  0  0  0  0  0  0
    2.1951   -9.2742    0.0000 C   0  0  0  0  0  0  0  0  0  0  0  0
    4.1158   -8.8901    0.0000 C   0  0  0  0  0  0  0  0  0  0  0  0
    1.3170   -9.1645    0.0000 C   0  0  0  0  0  0  0  0  0  0  0  0
    5.5975   -9.7132    0.0000 C   0  0  0  0  0  0  0  0  0  0  0  0
    5.7072  -10.5364    0.0000 C   0  0  0  0  0  0  0  0  0  0  0  0
  1  5  2  0  0  0  0
  1  6  2  0  0  0  0
  1 13  1  0  0  0  0
  1 24  1  0  0  0  0
  2 20  2  0  0  0  0
  3 21  2  0  0  0  0
  4 26  1  0  0  0  0
  4 32  1  0  0  0  0
  7 27  2  0  0  0  0
  8 35  1  0  0  0  0
  8 50  1  0  0  0  0
  9 44  1  0  0  0  0
  9 51  1  0  0  0  0
 10 44  2  0  0  0  0
 11 61  1  0  0  0  0
 17 12  1  1  0  0  0
 12 21  1  0  0  0  0
 13 20  1  0  0  0  0
 14 23  1  0  0  0  0
 14 27  1  0  0  0  0
 14 28  1  0  0  0  0
 15 32  1  0  0  0  0
 15 37  2  0  0  0  0
 16 31  1  0  0  0  0
 16 44  1  0  0  0  0
 17 18  1  0  0  0  0
 17 19  1  0  0  0  0
 17 20  1  6  0  0  0
 18 19  1  0  0  0  0
 18 22  1  6  0  0  0
 23 21  1  6  0  0  0
 22 33  2  0  0  0  0
 23 25  1  0  0  0  0
 24 29  1  0  0  0  0
 24 30  1  0  0  0  0
 26 25  1  1  0  0  0
 26 28  1  0  0  0  0
 31 27  1  1  0  0  0
 29 30  1  0  0  0  0
 31 38  1  0  0  0  0
 32 34  2  0  0  0  0
 34 35  1  0  0  0  0
 34 39  1  0  0  0  0
 35 36  2  0  0  0  0
 36 37  1  0  0  0  0
 36 40  1  0  0  0  0
 37 41  1  0  0  0  0
 38 42  1  0  0  0  0
 38 43  1  0  0  0  0
 39 49  1  0  0  0  0
 40 45  2  0  0  0  0
 41 46  2  0  0  0  0
 42 47  1  0  0  0  0
 43 48  1  0  0  0  0
 45 46  1  0  0  0  0
 47 48  1  0  0  0  0
 49 53  2  0  0  0  0
 50 55  1  0  0  0  0
 51 52  1  0  0  0  0
 51 54  1  1  0  0  0
 52 56  1  0  0  0  0
 52 57  1  6  0  0  0
 53 58  1  0  0  0  0
 54 59  1  0  0  0  0
 55 60  1  0  0  0  0
 56 58  1  0  0  0  0
 57 59  1  0  0  0  0
 60 61  1  0  0  0  0
M  END
> <PUBCHEM_COMPOUND_ID_TYPE>
0

> <PUBCHEM_TOTAL_CHARGE>
0

> <PUBCHEM_SUBSTANCE_ID>
310929751

> <PUBCHEM_SUBSTANCE_VERSION>
1

> <PUBCHEM_EXT_DATASOURCE_NAME>
4488

> <PUBCHEM_EXT_DATASOURCE_REGID>
SCHEMBL16106949

> <PUBCHEM_SUBSTANCE_COMMENT>
InChI=1S/C45H59N5O10S/c1-2-30-26-45(30,43(54)49-61(56,57)32-21-22-32)48-40(52)36-25-31-27-50(36)42(53)38(29-14-6-7-15-29)47-44(55)60-37-20-12-16-28(37)13-4-3-5-18-34-39(58-24-11-10-23-51)33-17-8-9-19-35(33)46-41(34)59-31/h2-3,5,8-9,17,19,28-32,36-38,51H,1,4,6-7,10-16,18,20-27H2,(H,47,55)(H,48,52)(H,49,54)/b5-3+/t28-,30-,31-,36+,37-,38+,45-/m1/s1
InChIKey=OKXGPIDHRGQCOG-DRPAUMIQSA-N

> <PUBCHEM_SUBSTANCE_SYNONYM>
SCHEMBL16106949

> <PUBCHEM_XREF_EXT_ID>
SCHEMBL16106949

> <PUBCHEM_EXT_DATASOURCE_URL>
https://www.surechembl.org/

> <PUBCHEM_EXT_SUBSTANCE_URL>
https://www.surechembl.org/chemical/SCHEMBL16106949

> <PUBCHEM_CID_ASSOCIATIONS>
117599042  1

> <PUBCHEM_COORDINATE_TYPE>
1
3

> <PUBCHEM_BONDANNOTATIONS>
17  12  5
17  20  6
18  22  6
23  21  6
26  25  5
31  27  5
51  54  5
52  57  6

$$$$
