310936992
  -OEChem-07211613022D

 24 26  0     0  0  0  0  0  0999 V2000
    0.0000   -5.5656    0.0000 F   0  0  0  0  0  0  0  0  0  0  0  0
    1.1002   -6.4717    0.0000 F   0  0  0  0  0  0  0  0  0  0  0  0
    0.2912   -6.3423    0.0000 F   0  0  0  0  0  0  0  0  0  0  0  0
    3.2035   -1.7474    0.0000 O   0  0  0  0  0  0  0  0  0  0  0  0
    2.1680   -5.2097    0.0000 O   0  0  0  0  0  0  0  0  0  0  0  0
    1.9415   -2.1680    0.0000 N   0  0  0  0  0  0  0  0  0  0  0  0
    3.7859   -3.3653    0.0000 N   0  0  0  0  0  0  0  0  0  0  0  0
    2.7181   -2.4269    0.0000 C   0  0  0  0  0  0  0  0  0  0  0  0
    1.9415   -1.3267    0.0000 C   0  0  0  0  0  0  0  0  0  0  0  0
    2.9770   -3.2035    0.0000 C   0  0  0  0  0  0  0  0  0  0  0  0
    3.4947   -4.7567    0.0000 C   0  0  0  0  0  0  0  0  0  0  0  0
    2.7181   -4.5949    0.0000 C   0  0  0  0  0  0  0  0  0  0  0  0
    3.7535   -5.5333    0.0000 C   0  0  0  0  0  0  0  0  0  0  0  0
    2.4269   -3.8183    0.0000 C   0  0  0  0  0  0  0  0  0  0  0  0
    2.7181   -1.0678    0.0000 C   0  0  0  0  0  0  0  0  0  0  0  0
    4.0772   -4.1419    0.0000 C   0  0  0  0  0  0  0  0  0  0  0  0
    4.3684   -6.0834    0.0000 C   0  0  0  0  0  0  0  0  0  0  0  0
    3.5918   -6.3746    0.0000 C   0  0  0  0  0  0  0  0  0  0  0  0
    1.2620   -0.8413    0.0000 C   0  0  0  0  0  0  0  0  0  0  0  0
    2.0709   -0.5177    0.0000 C   0  0  0  0  0  0  0  0  0  0  0  0
    1.3591   -5.0803    0.0000 C   0  0  0  0  0  0  0  0  0  0  0  0
    0.8090   -5.6951    0.0000 C   0  0  0  0  0  0  0  0  0  0  0  0
    0.5177   -1.1973    0.0000 C   0  0  0  0  0  0  0  0  0  0  0  0
    1.4238    0.0000    0.0000 C   0  0  0  0  0  0  0  0  0  0  0  0
  1 22  1  0  0  0  0
  2 22  1  0  0  0  0
  3 22  1  0  0  0  0
  4  8  1  0  0  0  0
  4 15  1  0  0  0  0
  5 12  1  0  0  0  0
  5 21  1  0  0  0  0
  6  8  2  0  0  0  0
  6  9  1  0  0  0  0
  7 10  1  0  0  0  0
  7 16  2  0  0  0  0
  8 10  1  0  0  0  0
  9 15  1  0  0  0  0
  9 19  1  0  0  0  0
  9 20  1  0  0  0  0
 10 14  2  0  0  0  0
 11 12  2  0  0  0  0
 11 13  1  0  0  0  0
 11 16  1  0  0  0  0
 12 14  1  0  0  0  0
 13 17  1  0  0  0  0
 13 18  1  0  0  0  0
 17 18  1  0  0  0  0
 19 23  1  0  0  0  0
 20 24  1  0  0  0  0
 21 22  1  0  0  0  0
M  END
> <PUBCHEM_COMPOUND_ID_TYPE>
0

> <PUBCHEM_TOTAL_CHARGE>
0

> <PUBCHEM_SUBSTANCE_ID>
310936992

> <PUBCHEM_SUBSTANCE_VERSION>
1

> <PUBCHEM_EXT_DATASOURCE_NAME>
4488

> <PUBCHEM_EXT_DATASOURCE_REGID>
SCHEMBL16114698

> <PUBCHEM_SUBSTANCE_COMMENT>
InChI=1S/C17H21F3N2O2/c1-3-16(4-2)9-24-15(22-16)13-7-14(23-10-17(18,19)20)12(8-21-13)11-5-6-11/h7-8,11H,3-6,9-10H2,1-2H3
InChIKey=YTRYLIDQOLNHSK-UHFFFAOYSA-N

> <PUBCHEM_SUBSTANCE_SYNONYM>
SCHEMBL16114698

> <PUBCHEM_XREF_EXT_ID>
SCHEMBL16114698

> <PUBCHEM_EXT_DATASOURCE_URL>
https://www.surechembl.org/

> <PUBCHEM_EXT_SUBSTANCE_URL>
https://www.surechembl.org/chemical/SCHEMBL16114698

> <PUBCHEM_CID_ASSOCIATIONS>
86275912  1

> <PUBCHEM_COORDINATE_TYPE>
1
3

$$$$
