310930985
  -OEChem-07211613022D

 42 42  0     1  0  0  0  0  0999 V2000
  -10.4974   -1.7599    0.0000 O   0  0  0  0  0  0  0  0  0  0  0  0
  -11.8952   -0.9529    0.0000 O   0  0  0  0  0  0  0  0  0  0  0  0
  -12.4815   -1.7599    0.0000 O   0  0  0  0  0  0  0  0  0  0  0  0
  -12.4815   -2.5849    0.0000 O   0  0  0  0  0  0  0  0  0  0  0  0
  -10.8970    0.0989    0.0000 O   0  0  0  0  0  0  0  0  0  0  0  0
  -10.3136   -0.9115    0.0000 O   0  0  0  0  0  0  0  0  0  0  0  0
  -11.5370   -3.6245    0.0000 O   0  0  0  0  0  0  0  0  0  0  0  0
  -11.4804    0.6823    0.0000 O   0  0  0  0  0  0  0  0  0  0  0  0
  -12.1209    0.3124    0.0000 O   0  0  0  0  0  0  0  0  0  0  0  0
  -13.1959   -2.9974    0.0000 O   0  0  0  0  0  0  0  0  0  0  0  0
  -11.2821   -1.5050    0.0000 C   0  0  3  0  0  0  0  0  0  0  0  0
  -11.7670   -2.1724    0.0000 C   0  0  3  0  0  0  0  0  0  0  0  0
  -11.1105   -0.6980    0.0000 C   0  0  3  0  0  0  0  0  0  0  0  0
  -11.2821   -2.8399    0.0000 C   0  0  3  0  0  0  0  0  0  0  0  0
  -10.4974   -2.5849    0.0000 C   0  0  0  0  0  0  0  0  0  0  0  0
  -11.9074   -0.4845    0.0000 C   0  0  0  0  0  0  0  0  0  0  0  0
  -13.1959   -2.1724    0.0000 C   0  0  0  0  0  0  0  0  0  0  0  0
  -12.6798   -1.2079    0.0000 C   0  0  0  0  0  0  0  0  0  0  0  0
  -12.4815   -3.4099    0.0000 C   0  0  0  0  0  0  0  0  0  0  0  0
   -9.7302   -0.3282    0.0000 C   0  0  0  0  0  0  0  0  0  0  0  0
  -13.9105   -1.7599    0.0000 C   0  0  0  0  0  0  0  0  0  0  0  0
  -13.2929   -0.6559    0.0000 C   0  0  0  0  0  0  0  0  0  0  0  0
  -11.2668    1.4792    0.0000 C   0  0  0  0  0  0  0  0  0  0  0  0
  -13.1959   -3.8225    0.0000 C   0  0  0  0  0  0  0  0  0  0  0  0
   -8.9333   -0.5417    0.0000 C   0  0  0  0  0  0  0  0  0  0  0  0
  -14.6249   -2.1724    0.0000 C   0  0  0  0  0  0  0  0  0  0  0  0
  -11.8502    2.0625    0.0000 C   0  0  0  0  0  0  0  0  0  0  0  0
  -15.3394   -1.7599    0.0000 C   0  0  0  0  0  0  0  0  0  0  0  0
  -16.0539   -2.1724    0.0000 C   0  0  0  0  0  0  0  0  0  0  0  0
  -16.7684   -1.7599    0.0000 C   0  0  0  0  0  0  0  0  0  0  0  0
  -17.4829   -2.1724    0.0000 C   0  0  0  0  0  0  0  0  0  0  0  0
  -18.1973   -1.7599    0.0000 C   0  0  0  0  0  0  0  0  0  0  0  0
  -18.9118   -2.1724    0.0000 C   0  0  0  0  0  0  0  0  0  0  0  0
  -19.6263   -1.7599    0.0000 C   0  0  0  0  0  0  0  0  0  0  0  0
  -20.3408   -2.1724    0.0000 C   0  0  0  0  0  0  0  0  0  0  0  0
  -21.0552   -1.7599    0.0000 C   0  0  0  0  0  0  0  0  0  0  0  0
  -21.7697   -2.1724    0.0000 C   0  0  0  0  0  0  0  0  0  0  0  0
  -22.4842   -1.7599    0.0000 C   0  0  0  0  0  0  0  0  0  0  0  0
  -23.1987   -2.1724    0.0000 C   0  0  0  0  0  0  0  0  0  0  0  0
  -23.9132   -1.7599    0.0000 C   0  0  0  0  0  0  0  0  0  0  0  0
  -24.6276   -2.1724    0.0000 C   0  0  0  0  0  0  0  0  0  0  0  0
  -25.3421   -1.7599    0.0000 C   0  0  0  0  0  0  0  0  0  0  0  0
  1 11  1  0  0  0  0
  1 15  1  0  0  0  0
 11  2  1  6  0  0  0
  2 18  1  0  0  0  0
 12  3  1  1  0  0  0
  3 17  1  0  0  0  0
 12  4  1  6  0  0  0
  4 19  1  0  0  0  0
  5  8  1  0  0  0  0
 13  5  1  1  0  0  0
 13  6  1  6  0  0  0
  6 20  1  0  0  0  0
 14  7  1  6  0  0  0
  8 23  1  0  0  0  0
  9 16  1  0  0  0  0
 10 17  2  0  0  0  0
 11 12  1  0  0  0  0
 11 13  1  1  0  0  0
 12 14  1  0  0  0  0
 13 16  1  0  0  0  0
 14 15  1  0  0  0  0
 17 21  1  0  0  0  0
 18 22  1  0  0  0  0
 19 24  1  0  0  0  0
 20 25  1  0  0  0  0
 21 26  1  0  0  0  0
 23 27  1  0  0  0  0
 26 28  1  0  0  0  0
 28 29  1  0  0  0  0
 29 30  1  0  0  0  0
 30 31  1  0  0  0  0
 31 32  1  0  0  0  0
 32 33  1  0  0  0  0
 33 34  1  0  0  0  0
 34 35  1  0  0  0  0
 35 36  1  0  0  0  0
 36 37  1  0  0  0  0
 37 38  1  0  0  0  0
 38 39  1  0  0  0  0
 39 40  1  0  0  0  0
 40 41  1  0  0  0  0
 41 42  1  0  0  0  0
M  END
> <PUBCHEM_COMPOUND_ID_TYPE>
0

> <PUBCHEM_TOTAL_CHARGE>
0

> <PUBCHEM_SUBSTANCE_ID>
310930985

> <PUBCHEM_SUBSTANCE_VERSION>
1

> <PUBCHEM_EXT_DATASOURCE_NAME>
4488

> <PUBCHEM_EXT_DATASOURCE_REGID>
SCHEMBL16108285

> <PUBCHEM_SUBSTANCE_COMMENT>
InChI=1S/C32H62O10/c1-6-11-12-13-14-15-16-17-18-19-20-21-22-23-24-25-29(35)41-31(37-8-3)28(34)26-39-32(31,38-9-4)30(27-33,36-7-2)42-40-10-5/h28,33-34H,6-27H2,1-5H3/t28-,30+,31+,32+/m0/s1
InChIKey=QYDSYUDTBQBFJE-NLSYYIHOSA-N

> <PUBCHEM_SUBSTANCE_SYNONYM>
SCHEMBL16108285

> <PUBCHEM_XREF_EXT_ID>
SCHEMBL16108285

> <PUBCHEM_EXT_DATASOURCE_URL>
https://www.surechembl.org/

> <PUBCHEM_EXT_SUBSTANCE_URL>
https://www.surechembl.org/chemical/SCHEMBL16108285

> <PUBCHEM_CID_ASSOCIATIONS>
117599921  1

> <PUBCHEM_COORDINATE_TYPE>
1
3

> <PUBCHEM_BONDANNOTATIONS>
11  13  5
11  2  6
12  3  5
12  4  6
13  5  5
13  6  6
14  7  6

$$$$
