310941491
  -OEChem-07211613022D

 14 16  0     1  0  0  0  0  0999 V2000
    0.0997   -0.8309    0.0000 N   0  3  0  0  0  0  0  0  0  0  0  0
    0.0831    0.0000    0.0000 C   0  0  3  0  0  0  0  0  0  0  0  0
    0.0831    0.8309    0.0000 C   0  0  3  0  0  0  0  0  0  0  0  0
   -0.6149   -0.3822    0.0000 C   0  0  3  0  0  0  0  0  0  0  0  0
   -0.6149    1.2131    0.0000 C   0  0  3  0  0  0  0  0  0  0  0  0
   -0.3988    0.4321    0.0000 C   0  0  0  0  0  0  0  0  0  0  0  0
    0.8807   -0.2492    0.0000 C   0  0  0  0  0  0  0  0  0  0  0  0
   -1.3460    0.0000    0.0000 C   0  0  0  0  0  0  0  0  0  0  0  0
    0.8807    1.0801    0.0000 C   0  0  0  0  0  0  0  0  0  0  0  0
   -1.3460    0.8142    0.0000 C   0  0  0  0  0  0  0  0  0  0  0  0
    1.3460    0.4154    0.0000 C   0  0  0  0  0  0  0  0  0  0  0  0
    0.7976   -1.2463    0.0000 C   0  0  0  0  0  0  0  0  0  0  0  0
    0.0997   -1.6617    0.0000 C   0  0  0  0  0  0  0  0  0  0  0  0
   -0.6149   -1.2630    0.0000 C   0  0  0  0  0  0  0  0  0  0  0  0
  2  1  1  6  0  0  0
  1 12  1  0  0  0  0
  1 13  1  0  0  0  0
  1 14  1  0  0  0  0
  2  3  1  0  0  0  0
  2  4  1  0  0  0  0
  2  7  1  0  0  0  0
  3  5  1  0  0  0  0
  3  9  1  1  0  0  0
  4  6  1  1  0  0  0
  4  8  1  0  0  0  0
  5  6  1  1  0  0  0
  5 10  1  0  0  0  0
  7 11  1  0  0  0  0
  8 10  1  0  0  0  0
  9 11  1  0  0  0  0
M  CHG  1   1   1
M  END
> <PUBCHEM_COMPOUND_ID_TYPE>
0

> <PUBCHEM_TOTAL_CHARGE>
1

> <PUBCHEM_SUBSTANCE_ID>
310941491

> <PUBCHEM_SUBSTANCE_VERSION>
1

> <PUBCHEM_EXT_DATASOURCE_NAME>
4488

> <PUBCHEM_EXT_DATASOURCE_REGID>
SCHEMBL16119522

> <PUBCHEM_SUBSTANCE_COMMENT>
InChI=1S/C13H24N/c1-14(2,3)13-8-4-5-12(13)10-6-7-11(13)9-10/h10-12H,4-9H2,1-3H3/q+1/t10-,11+,12+,13+/m0/s1
InChIKey=RHWRHXGKVHNLJI-UMSGYPCISA-N

> <PUBCHEM_SUBSTANCE_SYNONYM>
SCHEMBL16119522

> <PUBCHEM_XREF_EXT_ID>
SCHEMBL16119522

> <PUBCHEM_EXT_DATASOURCE_URL>
https://www.surechembl.org/

> <PUBCHEM_EXT_SUBSTANCE_URL>
https://www.surechembl.org/chemical/SCHEMBL16119522

> <PUBCHEM_CID_ASSOCIATIONS>
117608311  1

> <PUBCHEM_COORDINATE_TYPE>
1
3

> <PUBCHEM_BONDANNOTATIONS>
2  1  6
3  9  5
4  6  5
5  6  5

$$$$
