310948527
  -OEChem-07211613022D

 42 47  0     1  0  0  0  0  0999 V2000
   -1.6887   -1.4635    0.0000 S   0  0  0  0  0  0  0  0  0  0  0  0
   -1.6887   -2.2948    0.0000 O   0  0  0  0  0  0  0  0  0  0  0  0
   -2.4853   -1.6714    0.0000 O   0  0  0  0  0  0  0  0  0  0  0  0
   -3.9922    3.0223    0.0000 O   0  0  0  0  0  0  0  0  0  0  0  0
    2.4508   -3.4379    0.0000 O   0  0  0  0  0  0  0  0  0  0  0  0
    1.4116   -4.2693    0.0000 O   0  0  0  0  0  0  0  0  0  0  0  0
   -0.8746   -1.2730    0.0000 N   0  0  3  0  0  0  0  0  0  0  0  0
   -1.2211    2.9184    0.0000 N   0  0  0  0  0  0  0  0  0  0  0  0
   -1.5328    2.1563    0.0000 N   0  0  0  0  0  0  0  0  0  0  0  0
   -2.9184    1.6194    0.0000 N   0  0  0  0  0  0  0  0  0  0  0  0
   -3.2821    4.2693    0.0000 N   0  0  0  0  0  0  0  0  0  0  0  0
   -0.3378    0.9093    0.0000 N   0  0  0  0  0  0  0  0  0  0  0  0
   -2.1217   -0.7361    0.0000 C   0  0  0  0  0  0  0  0  0  0  0  0
   -1.5847   -0.0953    0.0000 C   0  0  0  0  0  0  0  0  0  0  0  0
   -2.5373    3.0569    0.0000 C   0  0  0  0  0  0  0  0  0  0  0  0
   -0.8054   -0.4416    0.0000 C   0  0  0  0  0  0  0  0  0  0  0  0
   -1.8619    3.4553    0.0000 C   0  0  0  0  0  0  0  0  0  0  0  0
   -2.3641    2.2429    0.0000 C   0  0  0  0  0  0  0  0  0  0  0  0
   -0.2511   -1.8272    0.0000 C   0  0  0  0  0  0  0  0  0  0  0  0
   -2.6586    0.8400    0.0000 C   0  0  0  0  0  0  0  0  0  0  0  0
   -1.8445    0.6495    0.0000 C   0  0  0  0  0  0  0  0  0  0  0  0
   -2.9184   -0.5802    0.0000 C   0  0  0  0  0  0  0  0  0  0  0  0
   -0.4070    3.1089    0.0000 C   0  0  3  0  0  0  0  0  0  0  0  0
   -3.2821    3.4553    0.0000 C   0  0  0  0  0  0  0  0  0  0  0  0
   -3.1782    0.1992    0.0000 C   0  0  0  0  0  0  0  0  0  0  0  0
   -1.8445    4.2867    0.0000 C   0  0  0  0  0  0  0  0  0  0  0  0
   -0.4070   -2.6413    0.0000 C   0  0  0  0  0  0  0  0  0  0  0  0
    0.5456   -1.5674    0.0000 C   0  0  0  0  0  0  0  0  0  0  0  0
    0.1645    2.5027    0.0000 C   0  0  0  0  0  0  0  0  0  0  0  0
   -2.5893    4.6850    0.0000 C   0  0  0  0  0  0  0  0  0  0  0  0
   -0.1472    3.8883    0.0000 C   0  0  0  0  0  0  0  0  0  0  0  0
    0.9786   -2.9011    0.0000 C   0  0  0  0  0  0  0  0  0  0  0  0
    0.1992   -3.1609    0.0000 C   0  0  0  0  0  0  0  0  0  0  0  0
    1.1518   -2.1043    0.0000 C   0  0  0  0  0  0  0  0  0  0  0  0
    0.9613    2.6932    0.0000 C   0  0  0  0  0  0  0  0  0  0  0  0
    1.6714   -3.4553    0.0000 C   0  0  0  0  0  0  0  0  0  0  0  0
    0.6495    4.0615    0.0000 C   0  0  0  0  0  0  0  0  0  0  0  0
    1.2037    3.4726    0.0000 C   0  0  0  0  0  0  0  0  0  0  0  0
    3.1954   -3.8537    0.0000 C   0  0  0  0  0  0  0  0  0  0  0  0
    3.9922   -3.6112    0.0000 C   0  0  0  0  0  0  0  0  0  0  0  0
    3.9056   -4.2520    0.0000 C   0  0  0  0  0  0  0  0  0  0  0  0
    3.1954   -4.6850    0.0000 C   0  0  0  0  0  0  0  0  0  0  0  0
  1  2  2  0  0  0  0
  1  3  2  0  0  0  0
  1  7  1  0  0  0  0
  1 13  1  0  0  0  0
  4 24  2  0  0  0  0
  5 36  1  0  0  0  0
  5 39  1  0  0  0  0
  6 36  2  0  0  0  0
  7 16  1  0  0  0  0
 19  7  1  1  0  0  0
  8  9  1  0  0  0  0
  8 17  1  0  0  0  0
 23  8  1  1  0  0  0
  9 18  2  0  0  0  0
 10 18  1  0  0  0  0
 10 20  1  0  0  0  0
 11 24  1  0  0  0  0
 11 30  1  0  0  0  0
 12 29  2  3  0  0  0
 13 14  1  0  0  0  0
 13 22  2  0  0  0  0
 14 16  1  0  0  0  0
 14 21  2  0  0  0  0
 15 17  2  0  0  0  0
 15 18  1  0  0  0  0
 15 24  1  0  0  0  0
 17 26  1  0  0  0  0
 19 27  1  0  0  0  0
 19 28  1  0  0  0  0
 20 21  1  0  0  0  0
 20 25  2  0  0  0  0
 22 25  1  0  0  0  0
 23 29  1  0  0  0  0
 23 31  1  0  0  0  0
 26 30  2  0  0  0  0
 27 33  1  0  0  0  0
 28 34  1  0  0  0  0
 29 35  1  0  0  0  0
 31 37  1  0  0  0  0
 32 33  1  0  0  0  0
 32 34  1  0  0  0  0
 32 36  1  1  0  0  0
 35 38  1  0  0  0  0
 37 38  1  0  0  0  0
 39 40  1  0  0  0  0
 39 41  1  0  0  0  0
 39 42  1  0  0  0  0
M  END
> <PUBCHEM_COMPOUND_ID_TYPE>
0

> <PUBCHEM_TOTAL_CHARGE>
0

> <PUBCHEM_SUBSTANCE_ID>
310948527

> <PUBCHEM_SUBSTANCE_VERSION>
1

> <PUBCHEM_EXT_DATASOURCE_NAME>
4488

> <PUBCHEM_EXT_DATASOURCE_REGID>
SCHEMBL16126709

> <PUBCHEM_SUBSTANCE_COMMENT>
InChI=1S/C30H38N6O5S/c1-30(2,3)41-29(38)18-8-11-21(12-9-18)35-17-19-16-20(10-13-25(19)42(35,39)40)33-27-26-24(14-15-32-28(26)37)36(34-27)23-7-5-4-6-22(23)31/h10,13-16,18,21,23,31H,4-9,11-12,17H2,1-3H3,(H,32,37)(H,33,34)/t18-,21+,23-/m0/s1
InChIKey=PNGVBTMYCGNRSD-ZEYPLWLESA-N

> <PUBCHEM_SUBSTANCE_SYNONYM>
SCHEMBL16126709

> <PUBCHEM_XREF_EXT_ID>
SCHEMBL16126709

> <PUBCHEM_EXT_DATASOURCE_URL>
https://www.surechembl.org/

> <PUBCHEM_EXT_SUBSTANCE_URL>
https://www.surechembl.org/chemical/SCHEMBL16126709

> <PUBCHEM_CID_ASSOCIATIONS>
117614084  1

> <PUBCHEM_COORDINATE_TYPE>
1
3

> <PUBCHEM_BONDANNOTATIONS>
32  36  5
19  7  5
23  8  5

$$$$
