310948653
  -OEChem-07211613022D

 35 38  0     1  0  0  0  0  0999 V2000
   -0.5299   -2.5604    0.0000 S   0  0  0  0  0  0  0  0  0  0  0  0
   -2.7049    1.9547    0.0000 O   0  0  0  0  0  0  0  0  0  0  0  0
   -0.2547   -3.3312    0.0000 O   0  0  0  0  0  0  0  0  0  0  0  0
   -1.3008   -2.8219    0.0000 O   0  0  0  0  0  0  0  0  0  0  0  0
    0.0619    1.8859    0.0000 N   0  0  0  0  0  0  0  0  0  0  0  0
   -0.2547    1.1287    0.0000 N   0  0  0  0  0  0  0  0  0  0  0  0
   -1.6174    0.5644    0.0000 N   0  0  0  0  0  0  0  0  0  0  0  0
    0.2546   -2.2713    0.0000 N   0  0  3  0  0  0  0  0  0  0  0  0
   -2.0029    3.2211    0.0000 N   0  0  0  0  0  0  0  0  0  0  0  0
    0.6125    0.0275    0.0000 N   0  0  0  0  0  0  0  0  0  0  0  0
   -1.2595    1.9960    0.0000 C   0  0  0  0  0  0  0  0  0  0  0  0
   -0.5712    2.4365    0.0000 C   0  0  0  0  0  0  0  0  0  0  0  0
   -1.0805    1.1975    0.0000 C   0  0  0  0  0  0  0  0  0  0  0  0
    0.8465    2.0786    0.0000 C   0  0  3  0  0  0  0  0  0  0  0  0
   -1.9891    2.4089    0.0000 C   0  0  0  0  0  0  0  0  0  0  0  0
   -0.5575    3.2486    0.0000 C   0  0  0  0  0  0  0  0  0  0  0  0
   -0.8052   -1.7620    0.0000 C   0  0  0  0  0  0  0  0  0  0  0  0
   -1.3558   -0.1927    0.0000 C   0  0  0  0  0  0  0  0  0  0  0  0
    1.3558    1.4316    0.0000 C   0  0  3  0  0  0  0  0  0  0  0  0
   -1.3283    3.6478    0.0000 C   0  0  0  0  0  0  0  0  0  0  0  0
    0.8741   -2.8081    0.0000 C   0  0  0  0  0  0  0  0  0  0  0  0
    1.0668    2.8769    0.0000 C   0  0  0  0  0  0  0  0  0  0  0  0
   -1.6036   -1.6105    0.0000 C   0  0  0  0  0  0  0  0  0  0  0  0
   -0.2684   -1.1425    0.0000 C   0  0  0  0  0  0  0  0  0  0  0  0
   -1.8652   -0.8259    0.0000 C   0  0  0  0  0  0  0  0  0  0  0  0
   -0.5437   -0.3717    0.0000 C   0  0  0  0  0  0  0  0  0  0  0  0
    2.1956    1.4316    0.0000 C   0  0  0  0  0  0  0  0  0  0  0  0
    0.9704    0.7020    0.0000 C   0  0  0  0  0  0  0  0  0  0  0  0
    1.7964    3.2073    0.0000 C   0  0  0  0  0  0  0  0  0  0  0  0
    0.5988   -1.5142    0.0000 C   0  0  0  0  0  0  0  0  0  0  0  0
    1.2870   -2.0924    0.0000 C   0  0  0  0  0  0  0  0  0  0  0  0
    1.6587   -3.0972    0.0000 C   0  0  0  0  0  0  0  0  0  0  0  0
    0.7364   -3.6478    0.0000 C   0  0  0  0  0  0  0  0  0  0  0  0
    2.7049    2.0235    0.0000 C   0  0  0  0  0  0  0  0  0  0  0  0
    2.5397    2.8494    0.0000 C   0  0  0  0  0  0  0  0  0  0  0  0
  1  3  2  0  0  0  0
  1  4  2  0  0  0  0
  1  8  1  0  0  0  0
  1 17  1  0  0  0  0
  2 15  2  0  0  0  0
  5  6  1  0  0  0  0
  5 12  1  0  0  0  0
 14  5  1  1  0  0  0
  6 13  2  0  0  0  0
  7 13  1  0  0  0  0
  7 18  1  0  0  0  0
  8 21  1  0  0  0  0
  8 30  1  0  0  0  0
  9 15  1  0  0  0  0
  9 20  1  0  0  0  0
 10 28  3  0  0  0  0
 11 12  2  0  0  0  0
 11 13  1  0  0  0  0
 11 15  1  0  0  0  0
 12 16  1  0  0  0  0
 14 19  1  0  0  0  0
 14 22  1  0  0  0  0
 16 20  2  0  0  0  0
 17 23  2  0  0  0  0
 17 24  1  0  0  0  0
 18 25  2  0  0  0  0
 18 26  1  0  0  0  0
 19 27  1  0  0  0  0
 19 28  1  6  0  0  0
 21 31  1  0  0  0  0
 21 32  1  0  0  0  0
 21 33  1  0  0  0  0
 22 29  1  0  0  0  0
 23 25  1  0  0  0  0
 24 26  2  0  0  0  0
 27 34  1  0  0  0  0
 29 35  1  0  0  0  0
 34 35  1  0  0  0  0
M  END
> <PUBCHEM_COMPOUND_ID_TYPE>
0

> <PUBCHEM_TOTAL_CHARGE>
0

> <PUBCHEM_SUBSTANCE_ID>
310948653

> <PUBCHEM_SUBSTANCE_VERSION>
1

> <PUBCHEM_EXT_DATASOURCE_NAME>
4488

> <PUBCHEM_EXT_DATASOURCE_REGID>
SCHEMBL16126837

> <PUBCHEM_SUBSTANCE_COMMENT>
InChI=1S/C25H32N6O3S/c1-25(2,3)30(4)35(33,34)19-12-10-18(11-13-19)28-23-22-21(14-15-27-24(22)32)31(29-23)20-9-7-5-6-8-17(20)16-26/h10-15,17,20H,5-9H2,1-4H3,(H,27,32)(H,28,29)/t17-,20+/m1/s1
InChIKey=YGIVJNKHBGEKKY-XLIONFOSSA-N

> <PUBCHEM_SUBSTANCE_SYNONYM>
SCHEMBL16126837

> <PUBCHEM_XREF_EXT_ID>
SCHEMBL16126837

> <PUBCHEM_EXT_DATASOURCE_URL>
https://www.surechembl.org/

> <PUBCHEM_EXT_SUBSTANCE_URL>
https://www.surechembl.org/chemical/SCHEMBL16126837

> <PUBCHEM_CID_ASSOCIATIONS>
117614197  1

> <PUBCHEM_COORDINATE_TYPE>
1
3

> <PUBCHEM_BONDANNOTATIONS>
19  28  6
14  5  5

$$$$
