310937830
  -OEChem-07211613022D

 26 29  0     1  0  0  0  0  0999 V2000
    1.6572   -1.7422    0.0000 S   0  0  0  0  0  0  0  0  0  0  0  0
    0.0000   -7.0537    0.0000 F   0  0  0  0  0  0  0  0  0  0  0  0
    2.4645   -8.4984    0.0000 F   0  0  0  0  0  0  0  0  0  0  0  0
    0.0000   -5.6514    0.0000 O   0  0  0  0  0  0  0  0  0  0  0  0
    2.0396   -3.4843    0.0000 N   0  0  0  0  0  0  0  0  0  0  0  0
    1.2323   -4.9291    0.0000 N   0  0  0  0  0  0  0  0  0  0  0  0
    3.2294   -4.0367    0.0000 N   0  0  0  0  0  0  0  0  0  0  0  0
    3.3569   -3.1869    0.0000 N   0  0  0  0  0  0  0  0  0  0  0  0
    2.9745   -1.4447    0.0000 N   0  0  0  0  0  0  0  0  0  0  0  0
    1.7422   -0.8923    0.0000 N   0  0  0  0  0  0  0  0  0  0  0  0
    2.4645   -4.2067    0.0000 C   0  0  0  0  0  0  0  0  0  0  0  0
    2.5920   -2.8894    0.0000 C   0  0  0  0  0  0  0  0  0  0  0  0
    2.0396   -4.9291    0.0000 C   0  0  3  0  0  0  0  0  0  0  0  0
    2.4221   -2.0821    0.0000 C   0  0  0  0  0  0  0  0  0  0  0  0
    0.8074   -5.6514    0.0000 C   0  0  0  0  0  0  0  0  0  0  0  0
    1.1898   -3.4843    0.0000 C   0  0  0  0  0  0  0  0  0  0  0  0
    0.8074   -4.1642    0.0000 C   0  0  0  0  0  0  0  0  0  0  0  0
    1.2323   -6.3313    0.0000 C   0  0  0  0  0  0  0  0  0  0  0  0
    0.8074   -7.0537    0.0000 C   0  0  0  0  0  0  0  0  0  0  0  0
    2.4221   -5.6514    0.0000 C   0  0  0  0  0  0  0  0  0  0  0  0
    2.5495   -0.7648    0.0000 C   0  0  0  0  0  0  0  0  0  0  0  0
    2.0396   -6.3738    0.0000 C   0  0  0  0  0  0  0  0  0  0  0  0
    1.2323   -7.7760    0.0000 C   0  0  0  0  0  0  0  0  0  0  0  0
    2.0396   -7.7760    0.0000 C   0  0  0  0  0  0  0  0  0  0  0  0
    2.4645   -7.0537    0.0000 C   0  0  0  0  0  0  0  0  0  0  0  0
    2.8894    0.0000    0.0000 C   0  0  0  0  0  0  0  0  0  0  0  0
  1 10  1  0  0  0  0
  1 14  1  0  0  0  0
  2 19  1  0  0  0  0
  3 24  1  0  0  0  0
  4 15  2  0  0  0  0
  5 11  1  0  0  0  0
  5 12  1  0  0  0  0
  5 16  1  0  0  0  0
  6 13  1  0  0  0  0
  6 15  1  0  0  0  0
  6 17  1  0  0  0  0
  7  8  1  0  0  0  0
  7 11  2  0  0  0  0
  8 12  2  0  0  0  0
  9 14  2  0  0  0  0
  9 21  1  0  0  0  0
 10 21  2  0  0  0  0
 11 13  1  0  0  0  0
 12 14  1  0  0  0  0
 13 20  1  1  0  0  0
 15 18  1  0  0  0  0
 16 17  1  0  0  0  0
 18 19  1  0  0  0  0
 18 22  2  0  0  0  0
 19 23  2  0  0  0  0
 21 26  1  0  0  0  0
 22 25  1  0  0  0  0
 23 24  1  0  0  0  0
 24 25  2  0  0  0  0
M  END
> <PUBCHEM_COMPOUND_ID_TYPE>
0

> <PUBCHEM_TOTAL_CHARGE>
0

> <PUBCHEM_SUBSTANCE_ID>
310937830

> <PUBCHEM_SUBSTANCE_VERSION>
1

> <PUBCHEM_EXT_DATASOURCE_NAME>
4488

> <PUBCHEM_EXT_DATASOURCE_REGID>
SCHEMBL16115652

> <PUBCHEM_SUBSTANCE_COMMENT>
InChI=1S/C16H14F2N6OS/c1-8-13-20-21-14(15-19-9(2)22-26-15)24(13)6-5-23(8)16(25)11-4-3-10(17)7-12(11)18/h3-4,7-8H,5-6H2,1-2H3/t8-/m1/s1
InChIKey=OZEMPZBRQPJERB-MRVPVSSYSA-N

> <PUBCHEM_SUBSTANCE_SYNONYM>
SCHEMBL16115652

> <PUBCHEM_XREF_EXT_ID>
SCHEMBL16115652

> <PUBCHEM_EXT_DATASOURCE_URL>
https://www.surechembl.org/

> <PUBCHEM_EXT_SUBSTANCE_URL>
https://www.surechembl.org/chemical/SCHEMBL16115652

> <PUBCHEM_CID_ASSOCIATIONS>
86274966  1

> <PUBCHEM_COORDINATE_TYPE>
1
3

> <PUBCHEM_BONDANNOTATIONS>
13  20  5

$$$$
