310948787
  -OEChem-07211613022D

 35 39  0     1  0  0  0  0  0999 V2000
   -2.5880    3.0641    0.0000 O   0  0  0  0  0  0  0  0  0  0  0  0
   -2.2843   -1.4216    0.0000 O   0  0  0  0  0  0  0  0  0  0  0  0
   -0.8627   -4.7204    0.0000 O   0  0  0  0  0  0  0  0  0  0  0  0
   -2.2843   -4.7204    0.0000 O   0  0  0  0  0  0  0  0  0  0  0  0
    0.1726    2.9260    0.0000 N   0  0  0  0  0  0  0  0  0  0  0  0
   -0.1587    2.1808    0.0000 N   0  0  0  0  0  0  0  0  0  0  0  0
   -1.5803    1.4906    0.0000 N   0  0  0  0  0  0  0  0  0  0  0  0
   -1.8702    4.3201    0.0000 N   0  0  0  0  0  0  0  0  0  0  0  0
    1.0145    0.9110    0.0000 N   0  0  0  0  0  0  0  0  0  0  0  0
   -1.1663    3.0779    0.0000 C   0  0  0  0  0  0  0  0  0  0  0  0
   -0.4623    3.4920    0.0000 C   0  0  0  0  0  0  0  0  0  0  0  0
   -0.9869    2.2773    0.0000 C   0  0  0  0  0  0  0  0  0  0  0  0
    0.9731    3.1055    0.0000 C   0  0  3  0  0  0  0  0  0  0  0  0
   -1.8702    3.4920    0.0000 C   0  0  0  0  0  0  0  0  0  0  0  0
   -0.4485    4.3063    0.0000 C   0  0  0  0  0  0  0  0  0  0  0  0
    1.5251    2.4982    0.0000 C   0  0  3  0  0  0  0  0  0  0  0  0
   -1.5803    0.6625    0.0000 C   0  0  0  0  0  0  0  0  0  0  0  0
   -1.5803   -1.8219    0.0000 C   0  0  0  0  0  0  0  0  0  0  0  0
   -1.5665   -0.9937    0.0000 C   0  0  0  0  0  0  0  0  0  0  0  0
   -1.1663    4.7204    0.0000 C   0  0  0  0  0  0  0  0  0  0  0  0
    1.2353    3.8922    0.0000 C   0  0  0  0  0  0  0  0  0  0  0  0
   -2.2843    0.2485    0.0000 C   0  0  0  0  0  0  0  0  0  0  0  0
   -0.8627    0.2346    0.0000 C   0  0  0  0  0  0  0  0  0  0  0  0
   -2.2843   -0.5797    0.0000 C   0  0  0  0  0  0  0  0  0  0  0  0
   -0.8627   -0.5797    0.0000 C   0  0  0  0  0  0  0  0  0  0  0  0
    2.3395    2.6639    0.0000 C   0  0  0  0  0  0  0  0  0  0  0  0
   -0.8627   -2.2498    0.0000 C   0  0  0  0  0  0  0  0  0  0  0  0
   -2.2843   -2.2360    0.0000 C   0  0  0  0  0  0  0  0  0  0  0  0
    1.2629    1.7115    0.0000 C   0  0  0  0  0  0  0  0  0  0  0  0
    2.0358    4.0578    0.0000 C   0  0  0  0  0  0  0  0  0  0  0  0
   -1.5665   -3.4782    0.0000 C   0  0  0  0  0  0  0  0  0  0  0  0
    2.5880    3.4506    0.0000 C   0  0  0  0  0  0  0  0  0  0  0  0
   -0.8627   -3.0641    0.0000 C   0  0  0  0  0  0  0  0  0  0  0  0
   -2.2843   -3.0641    0.0000 C   0  0  0  0  0  0  0  0  0  0  0  0
   -1.6080   -4.3339    0.0000 C   0  0  0  0  0  0  0  0  0  0  0  0
  1 14  2  0  0  0  0
 18  2  1  6  0  0  0
  3 35  2  0  0  0  0
  4 35  1  0  0  0  0
  5  6  1  0  0  0  0
  5 11  1  0  0  0  0
 13  5  1  1  0  0  0
  6 12  2  0  0  0  0
  7 12  1  0  0  0  0
  7 17  1  0  0  0  0
  8 14  1  0  0  0  0
  8 20  1  0  0  0  0
  9 29  3  0  0  0  0
 10 11  2  0  0  0  0
 10 12  1  0  0  0  0
 10 14  1  0  0  0  0
 11 15  1  0  0  0  0
 13 16  1  0  0  0  0
 13 21  1  0  0  0  0
 15 20  2  0  0  0  0
 16 26  1  0  0  0  0
 16 29  1  6  0  0  0
 17 22  2  0  0  0  0
 17 23  1  0  0  0  0
 18 19  1  0  0  0  0
 18 27  1  0  0  0  0
 18 28  1  0  0  0  0
 19 24  2  0  0  0  0
 19 25  1  0  0  0  0
 21 30  1  0  0  0  0
 22 24  1  0  0  0  0
 23 25  2  0  0  0  0
 26 32  1  0  0  0  0
 27 33  1  0  0  0  0
 28 34  1  0  0  0  0
 30 32  1  0  0  0  0
 31 33  1  0  0  0  0
 31 34  1  0  0  0  0
 31 35  1  1  0  0  0
M  END
> <PUBCHEM_COMPOUND_ID_TYPE>
0

> <PUBCHEM_TOTAL_CHARGE>
0

> <PUBCHEM_SUBSTANCE_ID>
310948787

> <PUBCHEM_SUBSTANCE_VERSION>
1

> <PUBCHEM_EXT_DATASOURCE_NAME>
4488

> <PUBCHEM_EXT_DATASOURCE_REGID>
SCHEMBL16126971

> <PUBCHEM_SUBSTANCE_COMMENT>
InChI=1S/C26H29N5O4/c27-15-17-3-1-2-4-20(17)31-21-11-14-28-24(32)22(21)23(30-31)29-19-7-5-18(6-8-19)26(35)12-9-16(10-13-26)25(33)34/h5-8,11,14,16-17,20,35H,1-4,9-10,12-13H2,(H,28,32)(H,29,30)(H,33,34)/t16-,17-,20+,26-/m1/s1
InChIKey=IHZHRJVOUQAPPG-YOJJYXTJSA-N

> <PUBCHEM_SUBSTANCE_SYNONYM>
SCHEMBL16126971

> <PUBCHEM_XREF_EXT_ID>
SCHEMBL16126971

> <PUBCHEM_EXT_DATASOURCE_URL>
https://www.surechembl.org/

> <PUBCHEM_EXT_SUBSTANCE_URL>
https://www.surechembl.org/chemical/SCHEMBL16126971

> <PUBCHEM_CID_ASSOCIATIONS>
117614057  1

> <PUBCHEM_COORDINATE_TYPE>
1
3

> <PUBCHEM_BONDANNOTATIONS>
16  29  6
18  2  6
31  35  5
13  5  5

$$$$
