310940203
  -OEChem-07211613022D

 39 43  0     1  0  0  0  0  0999 V2000
   -2.4416   -3.8414    0.0000 S   0  0  0  0  0  0  0  0  0  0  0  0
    2.0727    1.8881    0.0000 O   0  0  0  0  0  0  0  0  0  0  0  0
   -3.0493   -3.2989    0.0000 O   0  0  0  0  0  0  0  0  0  0  0  0
   -3.2229   -4.1018    0.0000 O   0  0  0  0  0  0  0  0  0  0  0  0
   -1.4215   -1.6928    0.0000 O   0  0  0  0  0  0  0  0  0  0  0  0
    0.8356    3.6895    0.0000 O   0  0  0  0  0  0  0  0  0  0  0  0
    2.2462    3.5376    0.0000 O   0  0  0  0  0  0  0  0  0  0  0  0
    0.7488    0.0651    0.0000 N   0  0  0  0  0  0  0  0  0  0  0  0
    1.0091   -0.7379    0.0000 N   0  0  0  0  0  0  0  0  0  0  0  0
    0.3364   -2.0400    0.0000 N   0  0  0  0  0  0  0  0  0  0  0  0
   -2.0943   -4.6010    0.0000 N   0  0  3  0  0  0  0  0  0  0  0  0
   -1.7037   -0.2821    0.0000 N   0  0  0  0  0  0  0  0  0  0  0  0
    3.2229   -0.1953    0.0000 N   0  0  0  0  0  0  0  0  0  0  0  0
    1.2696    0.7596    0.0000 C   0  0  3  0  0  0  0  0  0  0  0  0
   -0.0977    0.0651    0.0000 C   0  0  0  0  0  0  0  0  0  0  0  0
   -0.3581   -0.7162    0.0000 C   0  0  0  0  0  0  0  0  0  0  0  0
    0.3364   -1.2153    0.0000 C   0  0  0  0  0  0  0  0  0  0  0  0
   -1.8122   -3.2771    0.0000 C   0  0  0  0  0  0  0  0  0  0  0  0
   -1.1394   -0.8898    0.0000 C   0  0  0  0  0  0  0  0  0  0  0  0
   -1.0960   -3.6895    0.0000 C   0  0  0  0  0  0  0  0  0  0  0  0
    1.9858    1.0634    0.0000 C   0  0  0  0  0  0  0  0  0  0  0  0
    0.5751    1.2153    0.0000 C   0  0  0  0  0  0  0  0  0  0  0  0
   -0.3798   -2.4524    0.0000 C   0  0  0  0  0  0  0  0  0  0  0  0
   -0.6619    0.6728    0.0000 C   0  0  0  0  0  0  0  0  0  0  0  0
    1.5951   -0.0217    0.0000 C   0  0  0  0  0  0  0  0  0  0  0  0
   -0.3798   -3.2771    0.0000 C   0  0  0  0  0  0  0  0  0  0  0  0
   -1.2696   -4.5142    0.0000 C   0  0  0  0  0  0  0  0  0  0  0  0
   -1.7905   -2.4524    0.0000 C   0  0  0  0  0  0  0  0  0  0  0  0
   -1.0960   -2.0618    0.0000 C   0  0  0  0  0  0  0  0  0  0  0  0
    1.3782    2.3873    0.0000 C   0  0  3  0  0  0  0  0  0  0  0  0
    0.6619    2.0618    0.0000 C   0  0  0  0  0  0  0  0  0  0  0  0
   -1.4432    0.4992    0.0000 C   0  0  0  0  0  0  0  0  0  0  0  0
    1.4867    3.2337    0.0000 C   0  0  0  0  0  0  0  0  0  0  0  0
    2.3764   -0.1085    0.0000 C   0  0  0  0  0  0  0  0  0  0  0  0
   -2.4850   -5.3389    0.0000 C   0  0  0  0  0  0  0  0  0  0  0  0
    0.9224    4.5359    0.0000 C   0  0  0  0  0  0  0  0  0  0  0  0
    0.9875    5.3389    0.0000 C   0  0  0  0  0  0  0  0  0  0  0  0
    0.2713    5.0134    0.0000 C   0  0  0  0  0  0  0  0  0  0  0  0
    1.7037    4.8397    0.0000 C   0  0  0  0  0  0  0  0  0  0  0  0
  1  3  2  0  0  0  0
  1  4  2  0  0  0  0
  1 11  1  0  0  0  0
  1 18  1  0  0  0  0
  2 21  1  0  0  0  0
  2 30  1  0  0  0  0
  5 19  2  0  0  0  0
  6 33  1  0  0  0  0
  6 36  1  0  0  0  0
  7 33  2  0  0  0  0
  8  9  1  0  0  0  0
  8 14  1  0  0  0  0
  8 15  1  0  0  0  0
  9 17  2  0  0  0  0
 10 17  1  0  0  0  0
 10 23  1  0  0  0  0
 11 27  1  0  0  0  0
 11 35  1  0  0  0  0
 12 19  1  0  0  0  0
 12 32  1  0  0  0  0
 13 34  3  0  0  0  0
 14 21  1  0  0  0  0
 14 22  1  0  0  0  0
 14 25  1  1  0  0  0
 15 16  2  0  0  0  0
 15 24  1  0  0  0  0
 16 17  1  0  0  0  0
 16 19  1  0  0  0  0
 18 20  2  0  0  0  0
 18 28  1  0  0  0  0
 20 26  1  0  0  0  0
 20 27  1  0  0  0  0
 22 31  1  0  0  0  0
 23 26  2  0  0  0  0
 23 29  1  0  0  0  0
 24 32  2  0  0  0  0
 25 34  1  0  0  0  0
 28 29  2  0  0  0  0
 30 31  1  0  0  0  0
 30 33  1  1  0  0  0
 36 37  1  0  0  0  0
 36 38  1  0  0  0  0
 36 39  1  0  0  0  0
M  END
> <PUBCHEM_COMPOUND_ID_TYPE>
0

> <PUBCHEM_TOTAL_CHARGE>
0

> <PUBCHEM_SUBSTANCE_ID>
310940203

> <PUBCHEM_SUBSTANCE_VERSION>
1

> <PUBCHEM_EXT_DATASOURCE_NAME>
4488

> <PUBCHEM_EXT_DATASOURCE_REGID>
SCHEMBL16118137

> <PUBCHEM_SUBSTANCE_COMMENT>
InChI=1S/C26H30N6O6S/c1-25(2,3)38-24(34)19-7-9-26(10-11-27,15-37-19)32-18-8-12-28-23(33)21(18)22(30-32)29-17-5-6-20-16(13-17)14-31(4)39(20,35)36/h5-6,8,12-13,19H,7,9-10,14-15H2,1-4H3,(H,28,33)(H,29,30)/t19-,26-/m0/s1
InChIKey=VOEVWNYDAOBKRA-SIBVEZHUSA-N

> <PUBCHEM_SUBSTANCE_SYNONYM>
SCHEMBL16118137

> <PUBCHEM_XREF_EXT_ID>
SCHEMBL16118137

> <PUBCHEM_EXT_DATASOURCE_URL>
https://www.surechembl.org/

> <PUBCHEM_EXT_SUBSTANCE_URL>
https://www.surechembl.org/chemical/SCHEMBL16118137

> <PUBCHEM_CID_ASSOCIATIONS>
117607307  1

> <PUBCHEM_COORDINATE_TYPE>
1
3

> <PUBCHEM_BONDANNOTATIONS>
14  25  5
30  33  5

$$$$
