310948282
  -OEChem-07211613022D

 27 29  0     0  0  0  0  0  0999 V2000
   -0.6333   -2.1079    0.0000 F   0  0  0  0  0  0  0  0  0  0  0  0
   -1.4449   -2.8996    0.0000 F   0  0  0  0  0  0  0  0  0  0  0  0
   -2.2167   -2.0881    0.0000 F   0  0  0  0  0  0  0  0  0  0  0  0
   -3.2657   -0.3068    0.0000 F   0  0  0  0  0  0  0  0  0  0  0  0
   -3.6022    0.7817    0.0000 F   0  0  0  0  0  0  0  0  0  0  0  0
   -2.4939    1.1183    0.0000 F   0  0  0  0  0  0  0  0  0  0  0  0
    2.2365    0.6828    0.0000 O   0  0  0  0  0  0  0  0  0  0  0  0
    0.0792    1.2568    0.0000 N   0  0  0  0  0  0  0  0  0  0  0  0
    0.9104    1.4350    0.0000 N   0  0  0  0  0  0  0  0  0  0  0  0
    0.7718    0.0891    0.0000 N   0  0  0  0  0  0  0  0  0  0  0  0
    3.4439    1.3558    0.0000 N   0  0  0  0  0  0  0  0  0  0  0  0
    3.6022    0.5246    0.0000 N   0  0  0  0  0  0  0  0  0  0  0  0
   -0.7323    0.0297    0.0000 C   0  0  0  0  0  0  0  0  0  0  0  0
   -1.4251   -1.2172    0.0000 C   0  0  0  0  0  0  0  0  0  0  0  0
   -2.1771    0.0099    0.0000 C   0  0  0  0  0  0  0  0  0  0  0  0
   -0.0198    0.4256    0.0000 C   0  0  0  0  0  0  0  0  0  0  0  0
   -1.4647    0.4256    0.0000 C   0  0  0  0  0  0  0  0  0  0  0  0
   -0.7323   -0.8411    0.0000 C   0  0  0  0  0  0  0  0  0  0  0  0
   -2.1573   -0.8411    0.0000 C   0  0  0  0  0  0  0  0  0  0  0  0
   -1.4449   -2.0881    0.0000 C   0  0  0  0  0  0  0  0  0  0  0  0
   -2.8897    0.4256    0.0000 C   0  0  0  0  0  0  0  0  0  0  0  0
    1.3063    0.7026    0.0000 C   0  0  0  0  0  0  0  0  0  0  0  0
    1.3261    2.1672    0.0000 C   0  0  0  0  0  0  0  0  0  0  0  0
    2.1375    2.1474    0.0000 C   0  0  0  0  0  0  0  0  0  0  0  0
    2.5731    1.4548    0.0000 C   0  0  0  0  0  0  0  0  0  0  0  0
    2.5731    2.8996    0.0000 C   0  0  0  0  0  0  0  0  0  0  0  0
    2.8699    0.1089    0.0000 C   0  0  0  0  0  0  0  0  0  0  0  0
  1 20  1  0  0  0  0
  2 20  1  0  0  0  0
  3 20  1  0  0  0  0
  4 21  1  0  0  0  0
  5 21  1  0  0  0  0
  6 21  1  0  0  0  0
  7 25  1  0  0  0  0
  7 27  1  0  0  0  0
  8  9  1  0  0  0  0
  8 16  2  0  0  0  0
  9 22  1  0  0  0  0
  9 23  1  0  0  0  0
 10 16  1  0  0  0  0
 10 22  2  0  0  0  0
 11 12  1  0  0  0  0
 11 25  2  0  0  0  0
 12 27  2  0  0  0  0
 13 16  1  0  0  0  0
 13 17  2  0  0  0  0
 13 18  1  0  0  0  0
 14 18  2  0  0  0  0
 14 19  1  0  0  0  0
 14 20  1  0  0  0  0
 15 17  1  0  0  0  0
 15 19  2  0  0  0  0
 15 21  1  0  0  0  0
 23 24  1  0  0  0  0
 24 25  1  0  0  0  0
 24 26  2  0  0  0  0
M  END
> <PUBCHEM_COMPOUND_ID_TYPE>
0

> <PUBCHEM_TOTAL_CHARGE>
0

> <PUBCHEM_SUBSTANCE_ID>
310948282

> <PUBCHEM_SUBSTANCE_VERSION>
1

> <PUBCHEM_EXT_DATASOURCE_NAME>
4488

> <PUBCHEM_EXT_DATASOURCE_REGID>
SCHEMBL16126459

> <PUBCHEM_SUBSTANCE_COMMENT>
InChI=1S/C15H9F6N5O/c1-8(13-24-23-7-27-13)5-26-6-22-12(25-26)9-2-10(14(16,17)18)4-11(3-9)15(19,20)21/h2-4,6-7H,1,5H2
InChIKey=BOOOHJVQKQQDNR-UHFFFAOYSA-N

> <PUBCHEM_SUBSTANCE_SYNONYM>
SCHEMBL16126459

> <PUBCHEM_XREF_EXT_ID>
SCHEMBL16126459

> <PUBCHEM_EXT_DATASOURCE_URL>
https://www.surechembl.org/

> <PUBCHEM_EXT_SUBSTANCE_URL>
https://www.surechembl.org/chemical/SCHEMBL16126459

> <PUBCHEM_CID_ASSOCIATIONS>
78425812  1

> <PUBCHEM_COORDINATE_TYPE>
1
3

$$$$
