310947902
  -OEChem-07211613022D

 12 13  0     0  0  0  0  0  0999 V2000
    1.9686    1.7085    0.0000 N   0  0  0  0  0  0  0  0  0  0  0  0
    1.9686    0.0585    0.0000 N   0  0  0  0  0  0  0  0  0  0  0  0
    3.3975    1.7085    0.0000 N   0  0  0  0  0  0  0  0  0  0  0  0
    1.2541    0.4710    0.0000 C   0  0  0  0  0  0  0  0  0  0  0  0
    1.2541    1.2960    0.0000 C   0  0  0  0  0  0  0  0  0  0  0  0
    0.5396    0.0585    0.0000 C   0  0  0  0  0  0  0  0  0  0  0  0
    2.6830    1.2960    0.0000 C   0  0  0  0  0  0  0  0  0  0  0  0
    0.5396    1.7085    0.0000 C   0  0  0  0  0  0  0  0  0  0  0  0
    2.6830    0.4710    0.0000 C   0  0  0  0  0  0  0  0  0  0  0  0
   -0.1749    0.4710    0.0000 C   0  0  0  0  0  0  0  0  0  0  0  0
   -0.1749    1.2960    0.0000 C   0  0  0  0  0  0  0  0  0  0  0  0
    0.5396   -0.7665    0.0000 C   0  0  0  0  0  0  0  0  0  0  0  0
  1  5  1  0  0  0  0
  1  7  2  0  0  0  0
  2  4  1  0  0  0  0
  2  9  2  0  0  0  0
  3  7  1  0  0  0  0
  4  5  1  0  0  0  0
  4  6  2  0  0  0  0
  5  8  2  0  0  0  0
  6 10  1  0  0  0  0
  6 12  1  0  0  0  0
  7  9  1  0  0  0  0
  8 11  1  0  0  0  0
 10 11  2  0  0  0  0
M  END
> <PUBCHEM_COMPOUND_ID_TYPE>
0

> <PUBCHEM_TOTAL_CHARGE>
0

> <PUBCHEM_SUBSTANCE_ID>
310947902

> <PUBCHEM_SUBSTANCE_VERSION>
1

> <PUBCHEM_EXT_DATASOURCE_NAME>
4488

> <PUBCHEM_EXT_DATASOURCE_REGID>
SCHEMBL16126076

> <PUBCHEM_SUBSTANCE_COMMENT>
InChI=1S/C9H9N3/c1-6-3-2-4-7-9(6)11-5-8(10)12-7/h2-5H,1H3,(H2,10,12)
InChIKey=AKARWUFKICDPGJ-UHFFFAOYSA-N

> <PUBCHEM_SUBSTANCE_SYNONYM>
SCHEMBL16126076

> <PUBCHEM_XREF_EXT_ID>
SCHEMBL16126076

> <PUBCHEM_EXT_DATASOURCE_URL>
https://www.surechembl.org/

> <PUBCHEM_EXT_SUBSTANCE_URL>
https://www.surechembl.org/chemical/SCHEMBL16126076

> <PUBCHEM_CID_ASSOCIATIONS>
71440087  1

> <PUBCHEM_COORDINATE_TYPE>
1
3

$$$$
