310944110
  -OEChem-07211613022D

 32 36  0     1  0  0  0  0  0999 V2000
    2.6151    1.0360    0.0000 O   0  0  0  0  0  0  0  0  0  0  0  0
    5.4518    0.1939    0.0000 O   0  0  0  0  0  0  0  0  0  0  0  0
    5.5183    1.6566    0.0000 O   0  0  0  0  0  0  0  0  0  0  0  0
   -0.7757   -1.0139    0.0000 O   0  0  0  0  0  0  0  0  0  0  0  0
    3.3464   -0.2382    0.0000 N   0  0  0  0  0  0  0  0  0  0  0  0
    0.3989    0.1385    0.0000 N   0  0  0  0  0  0  0  0  0  0  0  0
   -4.1775    0.6593    0.0000 N   0  0  0  0  0  0  0  0  0  0  0  0
   -1.9945    0.7923    0.0000 N   0  0  0  0  0  0  0  0  0  0  0  0
   -3.1691   -0.3601    0.0000 N   0  0  0  0  0  0  0  0  0  0  0  0
   -4.4766    1.4239    0.0000 N   0  0  0  0  0  0  0  0  0  0  0  0
   -5.3077    1.3907    0.0000 N   0  0  0  0  0  0  0  0  0  0  0  0
   -5.5183    0.5928    0.0000 N   0  0  0  0  0  0  0  0  0  0  0  0
    2.0056   -0.2826    0.0000 C   0  0  0  0  0  0  0  0  0  0  0  0
    2.6483    0.2050    0.0000 C   0  0  0  0  0  0  0  0  0  0  0  0
    3.1137   -1.0250    0.0000 C   0  0  3  0  0  0  0  0  0  0  0  0
    2.2938   -1.0583    0.0000 C   0  0  0  0  0  0  0  0  0  0  0  0
    4.1109    0.0720    0.0000 C   0  0  0  0  0  0  0  0  0  0  0  0
    1.4183   -0.8699    0.0000 C   0  0  0  0  0  0  0  0  0  0  0  0
    1.7951    0.5041    0.0000 C   0  0  0  0  0  0  0  0  0  0  0  0
    0.6094   -0.6482    0.0000 C   0  0  0  0  0  0  0  0  0  0  0  0
    0.9862    0.7257    0.0000 C   0  0  0  0  0  0  0  0  0  0  0  0
    4.2882    0.8699    0.0000 C   0  0  0  0  0  0  0  0  0  0  0  0
    4.8422   -0.3490    0.0000 C   0  0  0  0  0  0  0  0  0  0  0  0
    3.6345   -1.6566    0.0000 C   0  0  0  0  0  0  0  0  0  0  0  0
    5.0972    0.9364    0.0000 C   0  0  0  0  0  0  0  0  0  0  0  0
   -0.3989    0.3601    0.0000 C   0  0  0  0  0  0  0  0  0  0  0  0
   -0.9862   -0.2160    0.0000 C   0  0  3  0  0  0  0  0  0  0  0  0
   -1.7951    0.0056    0.0000 C   0  0  0  0  0  0  0  0  0  0  0  0
   -3.3907    0.4376    0.0000 C   0  0  0  0  0  0  0  0  0  0  0  0
   -2.3713   -0.5706    0.0000 C   0  0  0  0  0  0  0  0  0  0  0  0
   -2.7924    1.0250    0.0000 C   0  0  0  0  0  0  0  0  0  0  0  0
   -4.8201    0.1496    0.0000 C   0  0  0  0  0  0  0  0  0  0  0  0
  1 14  2  0  0  0  0
  2 23  1  0  0  0  0
  2 25  1  0  0  0  0
  3 25  2  0  0  0  0
 27  4  1  1  0  0  0
  5 14  1  0  0  0  0
  5 15  1  0  0  0  0
  5 17  1  0  0  0  0
  6 20  1  0  0  0  0
  6 21  1  0  0  0  0
  6 26  1  0  0  0  0
  7 10  1  0  0  0  0
  7 29  1  0  0  0  0
  7 32  1  0  0  0  0
  8 28  2  0  0  0  0
  8 31  1  0  0  0  0
  9 29  1  0  0  0  0
  9 30  2  0  0  0  0
 10 11  2  0  0  0  0
 11 12  1  0  0  0  0
 12 32  2  0  0  0  0
 13 14  1  0  0  0  0
 13 16  1  0  0  0  0
 13 18  1  0  0  0  0
 13 19  1  0  0  0  0
 15 16  1  0  0  0  0
 15 24  1  6  0  0  0
 17 22  2  0  0  0  0
 17 23  1  0  0  0  0
 18 20  1  0  0  0  0
 19 21  1  0  0  0  0
 22 25  1  0  0  0  0
 26 27  1  0  0  0  0
 27 28  1  0  0  0  0
 28 30  1  0  0  0  0
 29 31  2  0  0  0  0
M  END
> <PUBCHEM_COMPOUND_ID_TYPE>
0

> <PUBCHEM_TOTAL_CHARGE>
0

> <PUBCHEM_SUBSTANCE_ID>
310944110

> <PUBCHEM_SUBSTANCE_VERSION>
1

> <PUBCHEM_EXT_DATASOURCE_NAME>
4488

> <PUBCHEM_EXT_DATASOURCE_REGID>
SCHEMBL16122185

> <PUBCHEM_SUBSTANCE_COMMENT>
InChI=1S/C20H24N8O4/c1-13-7-20(19(31)28(13)14-6-18(30)32-11-14)2-4-26(5-3-20)10-16(29)15-8-22-17(9-21-15)27-12-23-24-25-27/h6,8-9,12-13,16,29H,2-5,7,10-11H2,1H3/t13-,16-/m1/s1
InChIKey=NMVKTRIQUJQFTP-CZUORRHYSA-N

> <PUBCHEM_SUBSTANCE_SYNONYM>
SCHEMBL16122185

> <PUBCHEM_XREF_EXT_ID>
SCHEMBL16122185

> <PUBCHEM_EXT_DATASOURCE_URL>
https://www.surechembl.org/

> <PUBCHEM_EXT_SUBSTANCE_URL>
https://www.surechembl.org/chemical/SCHEMBL16122185

> <PUBCHEM_CID_ASSOCIATIONS>
86271824  1

> <PUBCHEM_COORDINATE_TYPE>
1
3

> <PUBCHEM_BONDANNOTATIONS>
15  24  6
27  4  5

$$$$
