310936134
  -OEChem-07211613022D

 29 31  0     0  0  0  0  0  0999 V2000
    3.5555   -2.9490    0.0000 S   0  0  0  0  0  0  0  0  0  0  0  0
    4.2666   -4.1830    0.0000 F   0  0  0  0  0  0  0  0  0  0  0  0
    4.9777   -2.9280    0.0000 F   0  0  0  0  0  0  0  0  0  0  0  0
    3.5555   -3.7647    0.0000 F   0  0  0  0  0  0  0  0  0  0  0  0
    2.8444   -2.5307    0.0000 O   0  0  0  0  0  0  0  0  0  0  0  0
    1.4222   -2.4889    0.0000 O   0  0  0  0  0  0  0  0  0  0  0  0
    3.1582   -3.6601    0.0000 O   0  0  0  0  0  0  0  0  0  0  0  0
    3.9738   -2.2169    0.0000 O   0  0  0  0  0  0  0  0  0  0  0  0
    0.7320   -1.2549    0.0000 O   0  0  0  0  0  0  0  0  0  0  0  0
    3.5973   -0.4392    0.0000 N   0  0  0  0  0  0  0  0  0  0  0  0
    4.3502   -0.1882    0.0000 N   0  0  0  0  0  0  0  0  0  0  0  0
    3.5973   -1.2758    0.0000 C   0  0  0  0  0  0  0  0  0  0  0  0
    2.8444   -1.6941    0.0000 C   0  0  0  0  0  0  0  0  0  0  0  0
    2.1542   -1.2758    0.0000 C   0  0  0  0  0  0  0  0  0  0  0  0
    4.3502   -1.5058    0.0000 C   0  0  0  0  0  0  0  0  0  0  0  0
    4.8731   -0.8575    0.0000 C   0  0  0  0  0  0  0  0  0  0  0  0
    2.1542   -0.4392    0.0000 C   0  0  0  0  0  0  0  0  0  0  0  0
    2.8444    0.0000    0.0000 C   0  0  0  0  0  0  0  0  0  0  0  0
    1.4222   -1.6732    0.0000 C   0  0  0  0  0  0  0  0  0  0  0  0
    4.2666   -3.3464    0.0000 C   0  0  0  0  0  0  0  0  0  0  0  0
    4.7477   -2.2588    0.0000 C   0  0  0  0  0  0  0  0  0  0  0  0
    5.6888   -0.9412    0.0000 C   0  0  0  0  0  0  0  0  0  0  0  0
    1.4222   -0.0209    0.0000 C   0  0  0  0  0  0  0  0  0  0  0  0
    5.5215   -2.3634    0.0000 C   0  0  0  0  0  0  0  0  0  0  0  0
    6.0026   -1.6941    0.0000 C   0  0  0  0  0  0  0  0  0  0  0  0
    0.7111   -2.9072    0.0000 C   0  0  0  0  0  0  0  0  0  0  0  0
    0.2928   -2.1751    0.0000 C   0  0  0  0  0  0  0  0  0  0  0  0
    0.0000   -3.3045    0.0000 C   0  0  0  0  0  0  0  0  0  0  0  0
    1.1085   -3.6391    0.0000 C   0  0  0  0  0  0  0  0  0  0  0  0
  1  5  1  0  0  0  0
  1  7  2  0  0  0  0
  1  8  2  0  0  0  0
  1 20  1  0  0  0  0
  2 20  1  0  0  0  0
  3 20  1  0  0  0  0
  4 20  1  0  0  0  0
  5 13  1  0  0  0  0
  6 19  1  0  0  0  0
  6 26  1  0  0  0  0
  9 19  2  0  0  0  0
 10 11  1  0  0  0  0
 10 12  1  0  0  0  0
 10 18  1  0  0  0  0
 11 16  2  0  0  0  0
 12 13  1  0  0  0  0
 12 15  2  0  0  0  0
 13 14  2  0  0  0  0
 14 17  1  0  0  0  0
 14 19  1  0  0  0  0
 15 16  1  0  0  0  0
 15 21  1  0  0  0  0
 16 22  1  0  0  0  0
 17 18  2  0  0  0  0
 17 23  1  0  0  0  0
 21 24  2  0  0  0  0
 22 25  2  0  0  0  0
 24 25  1  0  0  0  0
 26 27  1  0  0  0  0
 26 28  1  0  0  0  0
 26 29  1  0  0  0  0
M  END
> <PUBCHEM_COMPOUND_ID_TYPE>
0

> <PUBCHEM_TOTAL_CHARGE>
0

> <PUBCHEM_SUBSTANCE_ID>
310936134

> <PUBCHEM_SUBSTANCE_VERSION>
1

> <PUBCHEM_EXT_DATASOURCE_NAME>
4488

> <PUBCHEM_EXT_DATASOURCE_REGID>
SCHEMBL16113744

> <PUBCHEM_SUBSTANCE_COMMENT>
InChI=1S/C18H17F3N2O5S/c1-10-9-23-14(11-7-5-6-8-12(11)22-23)15(28-29(25,26)18(19,20)21)13(10)16(24)27-17(2,3)4/h5-9H,1-4H3
InChIKey=IEGTYRXEIZXQNS-UHFFFAOYSA-N

> <PUBCHEM_SUBSTANCE_SYNONYM>
SCHEMBL16113744

> <PUBCHEM_XREF_EXT_ID>
SCHEMBL16113744

> <PUBCHEM_EXT_DATASOURCE_URL>
https://www.surechembl.org/

> <PUBCHEM_EXT_SUBSTANCE_URL>
https://www.surechembl.org/chemical/SCHEMBL16113744

> <PUBCHEM_CID_ASSOCIATIONS>
117604098  1

> <PUBCHEM_COORDINATE_TYPE>
1
3

$$$$
