310949109
  -OEChem-07211613022D

 29 32  0     1  0  0  0  0  0999 V2000
   -1.2989    0.4639    0.0000 I   0  0  0  0  0  0  0  0  0  0  0  0
    1.5875    3.2266    0.0000 F   0  0  0  0  0  0  0  0  0  0  0  0
    1.8968    2.1545    0.0000 F   0  0  0  0  0  0  0  0  0  0  0  0
    0.8453    1.8659    0.0000 F   0  0  0  0  0  0  0  0  0  0  0  0
    1.6906   -3.0204    0.0000 O   0  0  0  0  0  0  0  0  0  0  0  0
    1.0927   -4.2369    0.0000 O   0  0  0  0  0  0  0  0  0  0  0  0
   -0.3711   -0.8556    0.0000 N   0  0  0  0  0  0  0  0  0  0  0  0
   -1.1339   -2.0927    0.0000 N   0  0  0  0  0  0  0  0  0  0  0  0
   -0.7629    0.4845    0.0000 C   0  0  3  0  0  0  0  0  0  0  0  0
    0.1031    0.4021    0.0000 C   0  0  3  0  0  0  0  0  0  0  0  0
   -0.2887    1.7215    0.0000 C   0  0  3  0  0  0  0  0  0  0  0  0
   -0.9484    1.2679    0.0000 C   0  0  0  0  0  0  0  0  0  0  0  0
   -1.0103   -0.3608    0.0000 C   0  0  0  0  0  0  0  0  0  0  0  0
    0.3711    1.2267    0.0000 C   0  0  0  0  0  0  0  0  0  0  0  0
    0.3505   -0.3608    0.0000 C   0  0  0  0  0  0  0  0  0  0  0  0
   -0.2887    2.6081    0.0000 C   0  0  0  0  0  0  0  0  0  0  0  0
   -0.4123   -1.6803    0.0000 C   0  0  0  0  0  0  0  0  0  0  0  0
    0.4742    2.9792    0.0000 C   0  0  0  0  0  0  0  0  0  0  0  0
    1.1958    2.5462    0.0000 C   0  0  0  0  0  0  0  0  0  0  0  0
   -0.9690    3.0204    0.0000 C   0  0  0  0  0  0  0  0  0  0  0  0
    0.3505   -2.1751    0.0000 C   0  0  0  0  0  0  0  0  0  0  0  0
    0.3299   -2.9998    0.0000 C   0  0  0  0  0  0  0  0  0  0  0  0
    0.4948    3.7833    0.0000 C   0  0  0  0  0  0  0  0  0  0  0  0
   -1.1958   -2.9379    0.0000 C   0  0  0  0  0  0  0  0  0  0  0  0
   -0.3917   -3.3709    0.0000 C   0  0  0  0  0  0  0  0  0  0  0  0
   -0.9484    3.8451    0.0000 C   0  0  0  0  0  0  0  0  0  0  0  0
   -0.2474    4.2369    0.0000 C   0  0  0  0  0  0  0  0  0  0  0  0
    1.0515   -3.4121    0.0000 C   0  0  0  0  0  0  0  0  0  0  0  0
   -1.8968   -3.3709    0.0000 C   0  0  0  0  0  0  0  0  0  0  0  0
  9  1  1  6  0  0  0
  2 19  1  0  0  0  0
  3 19  1  0  0  0  0
  4 19  1  0  0  0  0
  5 28  2  0  0  0  0
  6 28  1  0  0  0  0
  7 13  1  0  0  0  0
  7 15  1  0  0  0  0
  7 17  1  0  0  0  0
  8 17  2  0  0  0  0
  8 24  1  0  0  0  0
  9 10  1  0  0  0  0
  9 12  1  0  0  0  0
  9 13  1  0  0  0  0
 10 14  1  1  0  0  0
 10 15  1  0  0  0  0
 11 12  1  1  0  0  0
 11 14  1  0  0  0  0
 11 16  1  0  0  0  0
 16 18  2  0  0  0  0
 16 20  1  0  0  0  0
 17 21  1  0  0  0  0
 18 19  1  0  0  0  0
 18 23  1  0  0  0  0
 20 26  2  0  0  0  0
 21 22  2  0  0  0  0
 22 25  1  0  0  0  0
 22 28  1  0  0  0  0
 23 27  2  0  0  0  0
 24 25  2  0  0  0  0
 24 29  1  0  0  0  0
 26 27  1  0  0  0  0
M  END
> <PUBCHEM_COMPOUND_ID_TYPE>
0

> <PUBCHEM_TOTAL_CHARGE>
0

> <PUBCHEM_SUBSTANCE_ID>
310949109

> <PUBCHEM_SUBSTANCE_VERSION>
1

> <PUBCHEM_EXT_DATASOURCE_NAME>
4488

> <PUBCHEM_EXT_DATASOURCE_REGID>
SCHEMBL16127299

> <PUBCHEM_SUBSTANCE_COMMENT>
InChI=1S/C21H20F3IN2O2/c1-12-6-13(19(28)29)8-18(26-12)27-10-15-7-14(9-20(15,25)11-27)16-4-2-3-5-17(16)21(22,23)24/h2-6,8,14-15H,7,9-11H2,1H3,(H,28,29)/t14-,15-,20-/m0/s1
InChIKey=YXEOKNOJJOIHLT-AVYPCKFXSA-N

> <PUBCHEM_SUBSTANCE_SYNONYM>
SCHEMBL16127299

> <PUBCHEM_XREF_EXT_ID>
SCHEMBL16127299

> <PUBCHEM_EXT_DATASOURCE_URL>
https://www.surechembl.org/

> <PUBCHEM_EXT_SUBSTANCE_URL>
https://www.surechembl.org/chemical/SCHEMBL16127299

> <PUBCHEM_CID_ASSOCIATIONS>
117614607  1

> <PUBCHEM_COORDINATE_TYPE>
1
3

> <PUBCHEM_BONDANNOTATIONS>
9  1  6
10  14  5
11  12  5

$$$$
