310930424
  -OEChem-07211613022D

 32 36  0     0  0  0  0  0  0999 V2000
    2.8651   -2.4760    0.0000 S   0  0  0  0  0  0  0  0  0  0  0  0
    3.3249   -3.2896    0.0000 O   0  0  0  0  0  0  0  0  0  0  0  0
    2.4760   -1.7686    0.0000 O   0  0  0  0  0  0  0  0  0  0  0  0
    7.1805    0.0000    0.0000 O   0  0  0  0  0  0  0  0  0  0  0  0
    0.1061   -4.2446    0.0000 N   0  0  0  0  0  0  0  0  0  0  0  0
    0.4245   -5.0228    0.0000 N   0  0  0  0  0  0  0  0  0  0  0  0
    9.3381   -1.2380    0.0000 N   0  0  0  0  0  0  0  0  0  0  0  0
    8.5953   -2.5114    0.0000 N   0  0  0  0  0  0  0  0  0  0  0  0
   10.1163   -2.3345    0.0000 N   0  0  0  0  0  0  0  0  0  0  0  0
    6.4731   -1.2380    0.0000 N   0  0  0  0  0  0  0  0  0  0  0  0
    2.1577   -2.9005    0.0000 C   0  0  0  0  0  0  0  0  0  0  0  0
    3.5726   -2.0515    0.0000 C   0  0  0  0  0  0  0  0  0  0  0  0
    1.4149   -4.1385    0.0000 C   0  0  0  0  0  0  0  0  0  0  0  0
    0.6721   -3.6786    0.0000 C   0  0  0  0  0  0  0  0  0  0  0  0
    2.1577   -3.6786    0.0000 C   0  0  0  0  0  0  0  0  0  0  0  0
    1.4149   -2.4407    0.0000 C   0  0  0  0  0  0  0  0  0  0  0  0
    0.7074   -2.8651    0.0000 C   0  0  0  0  0  0  0  0  0  0  0  0
    1.2380   -4.9167    0.0000 C   0  0  0  0  0  0  0  0  0  0  0  0
    4.3154   -2.4760    0.0000 C   0  0  0  0  0  0  0  0  0  0  0  0
    3.6079   -1.2380    0.0000 C   0  0  0  0  0  0  0  0  0  0  0  0
    9.3381   -2.1223    0.0000 C   0  0  0  0  0  0  0  0  0  0  0  0
    7.8879   -1.2380    0.0000 C   0  0  0  0  0  0  0  0  0  0  0  0
    5.0228   -1.2380    0.0000 C   0  0  0  0  0  0  0  0  0  0  0  0
    8.5953   -0.8489    0.0000 C   0  0  0  0  0  0  0  0  0  0  0  0
    5.0228   -2.0869    0.0000 C   0  0  0  0  0  0  0  0  0  0  0  0
    4.3154   -0.8136    0.0000 C   0  0  0  0  0  0  0  0  0  0  0  0
    7.1805   -0.8136    0.0000 C   0  0  0  0  0  0  0  0  0  0  0  0
    7.8879   -2.1223    0.0000 C   0  0  0  0  0  0  0  0  0  0  0  0
   10.1163   -1.0258    0.0000 C   0  0  0  0  0  0  0  0  0  0  0  0
    5.7656   -0.8136    0.0000 C   0  0  0  0  0  0  0  0  0  0  0  0
   10.6115   -1.6625    0.0000 C   0  0  0  0  0  0  0  0  0  0  0  0
    0.0000   -5.7302    0.0000 C   0  0  0  0  0  0  0  0  0  0  0  0
  1  2  2  0  0  0  0
  1  3  2  0  0  0  0
  1 11  1  0  0  0  0
  1 12  1  0  0  0  0
  4 27  2  0  0  0  0
  5  6  1  0  0  0  0
  5 14  2  0  0  0  0
  6 18  1  0  0  0  0
  6 32  1  0  0  0  0
  7 21  1  0  0  0  0
  7 24  1  0  0  0  0
  7 29  1  0  0  0  0
  8 21  1  0  0  0  0
  8 28  2  0  0  0  0
  9 21  2  0  0  0  0
  9 31  1  0  0  0  0
 10 27  1  0  0  0  0
 10 30  1  0  0  0  0
 11 15  2  0  0  0  0
 11 16  1  0  0  0  0
 12 19  2  0  0  0  0
 12 20  1  0  0  0  0
 13 14  1  0  0  0  0
 13 15  1  0  0  0  0
 13 18  2  0  0  0  0
 14 17  1  0  0  0  0
 16 17  2  0  0  0  0
 19 25  1  0  0  0  0
 20 26  2  0  0  0  0
 22 24  2  0  0  0  0
 22 27  1  0  0  0  0
 22 28  1  0  0  0  0
 23 25  2  0  0  0  0
 23 26  1  0  0  0  0
 23 30  1  0  0  0  0
 29 31  2  0  0  0  0
M  END
> <PUBCHEM_COMPOUND_ID_TYPE>
0

> <PUBCHEM_TOTAL_CHARGE>
0

> <PUBCHEM_SUBSTANCE_ID>
310930424

> <PUBCHEM_SUBSTANCE_VERSION>
1

> <PUBCHEM_EXT_DATASOURCE_NAME>
4488

> <PUBCHEM_EXT_DATASOURCE_REGID>
SCHEMBL16107714

> <PUBCHEM_SUBSTANCE_COMMENT>
InChI=1S/C22H18N6O3S/c1-27-13-16-10-19(6-7-20(16)26-27)32(30,31)18-4-2-15(3-5-18)11-24-21(29)17-12-25-22-23-8-9-28(22)14-17/h2-10,12-14H,11H2,1H3,(H,24,29)
InChIKey=QTMFDFOOMLNGMR-UHFFFAOYSA-N

> <PUBCHEM_SUBSTANCE_SYNONYM>
SCHEMBL16107714

> <PUBCHEM_XREF_EXT_ID>
SCHEMBL16107714

> <PUBCHEM_EXT_DATASOURCE_URL>
https://www.surechembl.org/

> <PUBCHEM_EXT_SUBSTANCE_URL>
https://www.surechembl.org/chemical/SCHEMBL16107714

> <PUBCHEM_CID_ASSOCIATIONS>
90012378  1

> <PUBCHEM_COORDINATE_TYPE>
1
3

$$$$
