310946119
  -OEChem-07211613022D

  9  8  0     0  0  0  0  0  0999 V2000
    2.1071   -0.4680    0.0000 Br  0  0  0  0  0  0  0  0  0  0  0  0
   -1.3230   -0.0154    0.0000 P   0  0  0  0  0  0  0  0  0  0  0  0
   -1.3230    0.8901    0.0000 O   0  0  0  0  0  0  0  0  0  0  0  0
   -0.6331   -0.4680    0.0000 C   0  0  0  0  0  0  0  0  0  0  0  0
    0.0566   -0.0154    0.0000 C   0  0  0  0  0  0  0  0  0  0  0  0
   -2.1071   -0.4680    0.0000 C   0  0  0  0  0  0  0  0  0  0  0  0
   -1.5574   -0.8901    0.0000 C   0  0  0  0  0  0  0  0  0  0  0  0
    0.7465   -0.4680    0.0000 C   0  0  0  0  0  0  0  0  0  0  0  0
    1.4362   -0.0154    0.0000 C   0  0  0  0  0  0  0  0  0  0  0  0
  1  9  1  0  0  0  0
  2  3  2  0  0  0  0
  2  4  1  0  0  0  0
  2  6  1  0  0  0  0
  2  7  1  0  0  0  0
  4  5  2  0  0  0  0
  5  8  1  0  0  0  0
  8  9  1  0  0  0  0
M  END
> <PUBCHEM_COMPOUND_ID_TYPE>
0

> <PUBCHEM_TOTAL_CHARGE>
0

> <PUBCHEM_SUBSTANCE_ID>
310946119

> <PUBCHEM_SUBSTANCE_VERSION>
1

> <PUBCHEM_EXT_DATASOURCE_NAME>
4488

> <PUBCHEM_EXT_DATASOURCE_REGID>
SCHEMBL16124228

> <PUBCHEM_SUBSTANCE_COMMENT>
InChI=1S/C6H12BrOP/c1-9(2,8)6-4-3-5-7/h4,6H,3,5H2,1-2H3/b6-4+
InChIKey=VYCSHKSQVDYBFV-GQCTYLIASA-N

> <PUBCHEM_SUBSTANCE_SYNONYM>
SCHEMBL16124228

> <PUBCHEM_XREF_EXT_ID>
SCHEMBL16124228

> <PUBCHEM_EXT_DATASOURCE_URL>
https://www.surechembl.org/

> <PUBCHEM_EXT_SUBSTANCE_URL>
https://www.surechembl.org/chemical/SCHEMBL16124228

> <PUBCHEM_CID_ASSOCIATIONS>
59068852  1

> <PUBCHEM_COORDINATE_TYPE>
1
3

$$$$
