310932725
  -OEChem-07211613022D

 31 34  0     0  0  0  0  0  0999 V2000
    3.9834   -2.1044    0.0000 O   0  0  0  0  0  0  0  0  0  0  0  0
    8.4176   -2.1796    0.0000 O   0  0  0  0  0  0  0  0  0  0  0  0
   11.2736   -4.6221    0.0000 O   0  0  0  0  0  0  0  0  0  0  0  0
    4.8852   -0.9770    0.0000 N   0  0  0  0  0  0  0  0  0  0  0  0
    4.8101   -0.1503    0.0000 N   0  0  0  0  0  0  0  0  0  0  0  0
    6.3132   -0.9770    0.0000 N   0  0  0  0  0  0  0  0  0  0  0  0
    7.7412   -3.4197    0.0000 N   0  0  0  0  0  0  0  0  0  0  0  0
    0.0000   -1.8038    0.0000 N   0  0  0  0  0  0  0  0  0  0  0  0
    3.5700   -0.7140    0.0000 C   0  0  0  0  0  0  0  0  0  0  0  0
    4.1337   -1.2777    0.0000 C   0  0  0  0  0  0  0  0  0  0  0  0
    5.5992   -1.3528    0.0000 C   0  0  0  0  0  0  0  0  0  0  0  0
    2.7808   -0.7891    0.0000 C   0  0  0  0  0  0  0  0  0  0  0  0
    3.9834    0.0000    0.0000 C   0  0  0  0  0  0  0  0  0  0  0  0
    5.5992   -2.1796    0.0000 C   0  0  0  0  0  0  0  0  0  0  0  0
    6.9896   -2.1796    0.0000 C   0  0  0  0  0  0  0  0  0  0  0  0
    2.4426   -1.5407    0.0000 C   0  0  0  0  0  0  0  0  0  0  0  0
    2.2923   -0.1503    0.0000 C   0  0  0  0  0  0  0  0  0  0  0  0
    6.9896   -1.3528    0.0000 C   0  0  0  0  0  0  0  0  0  0  0  0
    6.3132   -2.5929    0.0000 C   0  0  0  0  0  0  0  0  0  0  0  0
    7.7412   -2.5929    0.0000 C   0  0  0  0  0  0  0  0  0  0  0  0
    1.1650   -0.9770    0.0000 C   0  0  0  0  0  0  0  0  0  0  0  0
    1.6534   -1.6159    0.0000 C   0  0  0  0  0  0  0  0  0  0  0  0
    1.4656   -0.2255    0.0000 C   0  0  0  0  0  0  0  0  0  0  0  0
    0.3382   -1.0522    0.0000 C   0  0  0  0  0  0  0  0  0  0  0  0
    8.4176   -3.8330    0.0000 C   0  0  0  0  0  0  0  0  0  0  0  0
    9.8456   -3.7954    0.0000 C   0  0  0  0  0  0  0  0  0  0  0  0
    9.1316   -3.3821    0.0000 C   0  0  0  0  0  0  0  0  0  0  0  0
    9.8832   -4.6221    0.0000 C   0  0  0  0  0  0  0  0  0  0  0  0
   10.5596   -3.4197    0.0000 C   0  0  0  0  0  0  0  0  0  0  0  0
   10.5596   -5.0355    0.0000 C   0  0  0  0  0  0  0  0  0  0  0  0
   11.2736   -3.8330    0.0000 C   0  0  0  0  0  0  0  0  0  0  0  0
  1 10  1  0  0  0  0
  2 20  2  0  0  0  0
  3 30  1  0  0  0  0
  3 31  1  0  0  0  0
  4  5  1  0  0  0  0
  4 10  1  0  0  0  0
  4 11  1  0  0  0  0
  5 13  2  0  0  0  0
  6 11  2  0  0  0  0
  6 18  1  0  0  0  0
  7 20  1  0  0  0  0
  7 25  1  0  0  0  0
  8 24  3  0  0  0  0
  9 10  2  0  0  0  0
  9 12  1  0  0  0  0
  9 13  1  0  0  0  0
 11 14  1  0  0  0  0
 12 16  2  0  0  0  0
 12 17  1  0  0  0  0
 14 19  2  0  0  0  0
 15 18  2  0  0  0  0
 15 19  1  0  0  0  0
 15 20  1  0  0  0  0
 16 22  1  0  0  0  0
 17 23  2  0  0  0  0
 21 22  2  0  0  0  0
 21 23  1  0  0  0  0
 21 24  1  0  0  0  0
 25 27  1  0  0  0  0
 26 27  1  0  0  0  0
 26 28  1  0  0  0  0
 26 29  1  0  0  0  0
 28 30  1  0  0  0  0
 29 31  1  0  0  0  0
M  END
> <PUBCHEM_COMPOUND_ID_TYPE>
0

> <PUBCHEM_TOTAL_CHARGE>
0

> <PUBCHEM_SUBSTANCE_ID>
310932725

> <PUBCHEM_SUBSTANCE_VERSION>
1

> <PUBCHEM_EXT_DATASOURCE_NAME>
4488

> <PUBCHEM_EXT_DATASOURCE_REGID>
SCHEMBL16110109

> <PUBCHEM_SUBSTANCE_COMMENT>
InChI=1S/C23H23N5O3/c24-13-17-1-3-18(4-2-17)20-15-27-28(23(20)30)21-6-5-19(14-26-21)22(29)25-10-7-16-8-11-31-12-9-16/h1-6,14-16,30H,7-12H2,(H,25,29)
InChIKey=WLFUBUXTCWZHNM-UHFFFAOYSA-N

> <PUBCHEM_SUBSTANCE_SYNONYM>
SCHEMBL16110109

> <PUBCHEM_XREF_EXT_ID>
SCHEMBL16110109

> <PUBCHEM_EXT_DATASOURCE_URL>
https://www.surechembl.org/

> <PUBCHEM_EXT_SUBSTANCE_URL>
https://www.surechembl.org/chemical/SCHEMBL16110109

> <PUBCHEM_CID_ASSOCIATIONS>
117601232  1

> <PUBCHEM_COORDINATE_TYPE>
1
3

$$$$
