310941097
  -OEChem-07211613022D

 45 48  0     1  0  0  0  0  0999 V2000
    3.9400    2.5745    0.0000 S   0  0  0  0  0  0  0  0  0  0  0  0
    5.0636   -1.0383    0.0000 O   0  0  0  0  0  0  0  0  0  0  0  0
    3.9258    0.9103    0.0000 O   0  0  0  0  0  0  0  0  0  0  0  0
    1.7780   -1.1521    0.0000 O   0  0  0  0  0  0  0  0  0  0  0  0
   -0.3698    0.9103    0.0000 O   0  0  0  0  0  0  0  0  0  0  0  0
    3.5132    3.2857    0.0000 O   0  0  0  0  0  0  0  0  0  0  0  0
    4.3382    1.8633    0.0000 O   0  0  0  0  0  0  0  0  0  0  0  0
   -2.5176   -1.1521    0.0000 O   0  0  0  0  0  0  0  0  0  0  0  0
   -1.8064   -1.5646    0.0000 O   0  0  0  0  0  0  0  0  0  0  0  0
   -5.3766   -1.1521    0.0000 O   0  0  0  0  0  0  0  0  0  0  0  0
    2.5034    0.0853    0.0000 N   0  0  0  0  0  0  0  0  0  0  0  0
    0.3556   -0.3271    0.0000 N   0  0  0  0  0  0  0  0  0  0  0  0
   -1.7922    0.0853    0.0000 N   0  0  0  0  0  0  0  0  0  0  0  0
   -3.9400   -0.3271    0.0000 N   0  0  0  0  0  0  0  0  0  0  0  0
    4.6654   -0.3129    0.0000 C   0  0  3  0  0  0  0  0  0  0  0  0
    3.8831    0.0995    0.0000 C   0  0  0  0  0  0  0  0  0  0  0  0
    4.2529   -1.0241    0.0000 C   0  0  0  0  0  0  0  0  0  0  0  0
    3.2288   -0.2987    0.0000 C   0  0  3  0  0  0  0  0  0  0  0  0
    5.3766    0.1138    0.0000 C   0  0  0  0  0  0  0  0  0  0  0  0
    3.2430   -1.6499    0.0000 C   0  0  0  0  0  0  0  0  0  0  0  0
    1.7922   -0.2845    0.0000 C   0  0  0  0  0  0  0  0  0  0  0  0
    1.0526    0.1138    0.0000 C   0  0  3  0  0  0  0  0  0  0  0  0
    2.5034   -2.0340    0.0000 C   0  0  0  0  0  0  0  0  0  0  0  0
    1.0810    0.9388    0.0000 C   0  0  0  0  0  0  0  0  0  0  0  0
    1.7922    1.3513    0.0000 C   0  0  0  0  0  0  0  0  0  0  0  0
    3.2288    2.1763    0.0000 C   0  0  0  0  0  0  0  0  0  0  0  0
   -0.3698    0.0853    0.0000 C   0  0  0  0  0  0  0  0  0  0  0  0
    2.5034   -2.8732    0.0000 C   0  0  0  0  0  0  0  0  0  0  0  0
    1.7780   -1.6499    0.0000 C   0  0  0  0  0  0  0  0  0  0  0  0
    2.5034    0.9530    0.0000 C   0  0  0  0  0  0  0  0  0  0  0  0
    1.8064    2.1904    0.0000 C   0  0  0  0  0  0  0  0  0  0  0  0
   -1.0668   -0.2987    0.0000 C   0  0  3  0  0  0  0  0  0  0  0  0
    3.2288    1.3513    0.0000 C   0  0  0  0  0  0  0  0  0  0  0  0
    2.5034    2.5745    0.0000 C   0  0  0  0  0  0  0  0  0  0  0  0
    1.7922   -3.2857    0.0000 C   0  0  0  0  0  0  0  0  0  0  0  0
    1.0810   -2.0482    0.0000 C   0  0  0  0  0  0  0  0  0  0  0  0
   -2.5034   -0.2845    0.0000 C   0  0  0  0  0  0  0  0  0  0  0  0
   -1.0526   -1.1237    0.0000 C   0  0  0  0  0  0  0  0  0  0  0  0
    1.0810   -2.8732    0.0000 C   0  0  0  0  0  0  0  0  0  0  0  0
    4.6796    3.0154    0.0000 C   0  0  0  0  0  0  0  0  0  0  0  0
   -3.2572    0.0995    0.0000 C   0  0  0  0  0  0  0  0  0  0  0  0
   -3.9400   -1.1379    0.0000 C   0  0  0  0  0  0  0  0  0  0  0  0
   -4.6938    0.0995    0.0000 C   0  0  0  0  0  0  0  0  0  0  0  0
   -4.6369   -1.5361    0.0000 C   0  0  0  0  0  0  0  0  0  0  0  0
   -5.3624   -0.2987    0.0000 C   0  0  0  0  0  0  0  0  0  0  0  0
  1  6  2  0  0  0  0
  1  7  2  0  0  0  0
  1 26  1  0  0  0  0
  1 40  1  0  0  0  0
  2 15  1  0  0  0  0
  2 17  1  0  0  0  0
  3 16  2  0  0  0  0
  4 21  2  0  0  0  0
  5 27  2  0  0  0  0
  8 37  2  0  0  0  0
  9 38  1  0  0  0  0
 10 44  1  0  0  0  0
 10 45  1  0  0  0  0
 18 11  1  6  0  0  0
 11 21  1  0  0  0  0
 22 12  1  1  0  0  0
 12 27  1  0  0  0  0
 32 13  1  6  0  0  0
 13 37  1  0  0  0  0
 14 41  1  0  0  0  0
 14 42  1  0  0  0  0
 14 43  1  0  0  0  0
 15 16  1  6  0  0  0
 15 17  1  0  0  0  0
 15 19  1  1  0  0  0
 16 18  1  0  0  0  0
 18 20  1  0  0  0  0
 20 23  1  0  0  0  0
 21 22  1  0  0  0  0
 22 24  1  0  0  0  0
 23 28  2  0  0  0  0
 23 29  1  0  0  0  0
 24 25  1  0  0  0  0
 25 30  2  0  0  0  0
 25 31  1  0  0  0  0
 26 33  2  0  0  0  0
 26 34  1  0  0  0  0
 27 32  1  0  0  0  0
 28 35  1  0  0  0  0
 29 36  1  0  0  0  0
 30 33  1  0  0  0  0
 31 34  2  0  0  0  0
 32 38  1  0  0  0  0
 35 39  1  0  0  0  0
 36 39  1  0  0  0  0
 37 41  1  0  0  0  0
 42 44  1  0  0  0  0
 43 45  1  0  0  0  0
M  END
> <PUBCHEM_COMPOUND_ID_TYPE>
0

> <PUBCHEM_TOTAL_CHARGE>
0

> <PUBCHEM_SUBSTANCE_ID>
310941097

> <PUBCHEM_SUBSTANCE_VERSION>
1

> <PUBCHEM_EXT_DATASOURCE_NAME>
4488

> <PUBCHEM_EXT_DATASOURCE_REGID>
SCHEMBL16119057

> <PUBCHEM_SUBSTANCE_COMMENT>
InChI=1S/C31H44N4O9S/c1-31(20-44-31)28(38)24(16-21-6-4-3-5-7-21)33-29(39)25(17-22-8-10-23(11-9-22)45(2,41)42)34-30(40)26(19-36)32-27(37)18-35-12-14-43-15-13-35/h6,8-11,24-26,36H,3-5,7,12-20H2,1-2H3,(H,32,37)(H,33,39)(H,34,40)/t24-,25-,26-,31+/m0/s1
InChIKey=UHRMMOTYIHEXNI-WJQRCLFPSA-N

> <PUBCHEM_SUBSTANCE_SYNONYM>
SCHEMBL16119057

> <PUBCHEM_XREF_EXT_ID>
SCHEMBL16119057

> <PUBCHEM_EXT_DATASOURCE_URL>
https://www.surechembl.org/

> <PUBCHEM_EXT_SUBSTANCE_URL>
https://www.surechembl.org/chemical/SCHEMBL16119057

> <PUBCHEM_CID_ASSOCIATIONS>
117607982  1

> <PUBCHEM_COORDINATE_TYPE>
1
3

> <PUBCHEM_BONDANNOTATIONS>
18  11  6
22  12  5
32  13  6
15  16  6
15  19  5

$$$$
