310943817
  -OEChem-07211613022D

 33 37  0     1  0  0  0  0  0999 V2000
    2.4762    0.0938    0.0000 O   0  0  0  0  0  0  0  0  0  0  0  0
    5.0021   -1.4614    0.0000 O   0  0  0  0  0  0  0  0  0  0  0  0
    5.4763   -0.0717    0.0000 O   0  0  0  0  0  0  0  0  0  0  0  0
   -1.3180   -1.0423    0.0000 O   0  0  0  0  0  0  0  0  0  0  0  0
    2.8623   -1.3291    0.0000 N   0  0  0  0  0  0  0  0  0  0  0  0
    0.1158   -0.2261    0.0000 N   0  0  0  0  0  0  0  0  0  0  0  0
   -4.1748    1.4174    0.0000 N   0  0  0  0  0  0  0  0  0  0  0  0
   -2.0240    1.0092    0.0000 N   0  0  0  0  0  0  0  0  0  0  0  0
   -2.7409    1.4174    0.0000 N   0  0  0  0  0  0  0  0  0  0  0  0
   -4.2521    2.2446    0.0000 N   0  0  0  0  0  0  0  0  0  0  0  0
   -5.0682    2.4100    0.0000 N   0  0  0  0  0  0  0  0  0  0  0  0
   -5.4763    1.6931    0.0000 N   0  0  0  0  0  0  0  0  0  0  0  0
    1.5497   -1.0313    0.0000 C   0  0  0  0  0  0  0  0  0  0  0  0
    2.2887   -0.7335    0.0000 C   0  0  0  0  0  0  0  0  0  0  0  0
    1.6379   -1.8364    0.0000 C   0  0  0  0  0  0  0  0  0  0  0  0
    3.6895   -1.2298    0.0000 C   0  0  0  0  0  0  0  0  0  0  0  0
    2.4542   -2.0240    0.0000 C   0  0  0  0  0  0  0  0  0  0  0  0
    0.8438   -1.4505    0.0000 C   0  0  0  0  0  0  0  0  0  0  0  0
    1.5497   -0.2151    0.0000 C   0  0  0  0  0  0  0  0  0  0  0  0
    4.0645   -0.5019    0.0000 C   0  0  0  0  0  0  0  0  0  0  0  0
    0.1158   -1.0313    0.0000 C   0  0  0  0  0  0  0  0  0  0  0  0
    0.8327    0.1930    0.0000 C   0  0  0  0  0  0  0  0  0  0  0  0
    4.2851   -1.8144    0.0000 C   0  0  0  0  0  0  0  0  0  0  0  0
    4.8697   -0.6563    0.0000 C   0  0  0  0  0  0  0  0  0  0  0  0
    1.0313   -2.4100    0.0000 C   0  0  0  0  0  0  0  0  0  0  0  0
   -0.6011    0.1930    0.0000 C   0  0  0  0  0  0  0  0  0  0  0  0
   -1.2960   -0.2151    0.0000 C   0  0  3  0  0  0  0  0  0  0  0  0
    3.6895    0.2372    0.0000 C   0  0  0  0  0  0  0  0  0  0  0  0
   -2.0240    0.2041    0.0000 C   0  0  0  0  0  0  0  0  0  0  0  0
   -3.4468    1.0203    0.0000 C   0  0  0  0  0  0  0  0  0  0  0  0
   -2.7299   -0.2151    0.0000 C   0  0  0  0  0  0  0  0  0  0  0  0
   -3.4579    0.1930    0.0000 C   0  0  0  0  0  0  0  0  0  0  0  0
   -4.9138    1.0975    0.0000 C   0  0  0  0  0  0  0  0  0  0  0  0
  1 14  2  0  0  0  0
  2 23  1  0  0  0  0
  2 24  1  0  0  0  0
  3 24  2  0  0  0  0
 27  4  1  6  0  0  0
  5 14  1  0  0  0  0
  5 16  1  0  0  0  0
  5 17  1  0  0  0  0
  6 21  1  0  0  0  0
  6 22  1  0  0  0  0
  6 26  1  0  0  0  0
  7 10  1  0  0  0  0
  7 30  1  0  0  0  0
  7 33  1  0  0  0  0
  8  9  1  0  0  0  0
  8 29  2  0  0  0  0
  9 30  2  0  0  0  0
 10 11  2  0  0  0  0
 11 12  1  0  0  0  0
 12 33  2  0  0  0  0
 13 14  1  0  0  0  0
 13 15  1  0  0  0  0
 13 18  1  0  0  0  0
 13 19  1  0  0  0  0
 15 17  2  0  0  0  0
 15 25  1  0  0  0  0
 16 20  2  0  0  0  0
 16 23  1  0  0  0  0
 18 21  1  0  0  0  0
 19 22  1  0  0  0  0
 20 24  1  0  0  0  0
 20 28  1  0  0  0  0
 26 27  1  0  0  0  0
 27 29  1  0  0  0  0
 29 31  1  0  0  0  0
 30 32  1  0  0  0  0
 31 32  2  0  0  0  0
M  END
> <PUBCHEM_COMPOUND_ID_TYPE>
0

> <PUBCHEM_TOTAL_CHARGE>
0

> <PUBCHEM_SUBSTANCE_ID>
310943817

> <PUBCHEM_SUBSTANCE_VERSION>
1

> <PUBCHEM_EXT_DATASOURCE_NAME>
4488

> <PUBCHEM_EXT_DATASOURCE_REGID>
SCHEMBL16121888

> <PUBCHEM_SUBSTANCE_COMMENT>
InChI=1S/C21H24N8O4/c1-13-9-28(16-11-33-19(31)14(16)2)20(32)21(13)5-7-27(8-6-21)10-17(30)15-3-4-18(24-23-15)29-12-22-25-26-29/h3-4,9,12,17,30H,5-8,10-11H2,1-2H3/t17-/m0/s1
InChIKey=HKBCIQOHLBNBEC-KRWDZBQOSA-N

> <PUBCHEM_SUBSTANCE_SYNONYM>
SCHEMBL16121888

> <PUBCHEM_XREF_EXT_ID>
SCHEMBL16121888

> <PUBCHEM_EXT_DATASOURCE_URL>
https://www.surechembl.org/

> <PUBCHEM_EXT_SUBSTANCE_URL>
https://www.surechembl.org/chemical/SCHEMBL16121888

> <PUBCHEM_CID_ASSOCIATIONS>
86270695  1

> <PUBCHEM_COORDINATE_TYPE>
1
3

> <PUBCHEM_BONDANNOTATIONS>
27  4  6

$$$$
