310948743
  -OEChem-07211613022D

 30 33  0     1  0  0  0  0  0999 V2000
    2.4970   -0.6658    0.0000 F   0  0  0  0  0  0  0  0  0  0  0  0
    3.3109   -0.8323    0.0000 F   0  0  0  0  0  0  0  0  0  0  0  0
    3.5514   -1.6277    0.0000 F   0  0  0  0  0  0  0  0  0  0  0  0
   -2.8300   -1.5908    0.0000 O   0  0  0  0  0  0  0  0  0  0  0  0
    2.4416   -2.8670    0.0000 O   0  0  0  0  0  0  0  0  0  0  0  0
   -1.3133    0.7399    0.0000 N   0  0  0  0  0  0  0  0  0  0  0  0
   -0.8323    0.0740    0.0000 N   0  0  0  0  0  0  0  0  0  0  0  0
   -1.0543   -1.3873    0.0000 N   0  0  0  0  0  0  0  0  0  0  0  0
   -3.5514   -0.3329    0.0000 N   0  0  0  0  0  0  0  0  0  0  0  0
    1.0543    0.8138    0.0000 N   0  0  0  0  0  0  0  0  0  0  0  0
   -2.1086   -0.3329    0.0000 C   0  0  0  0  0  0  0  0  0  0  0  0
   -2.0901    0.4995    0.0000 C   0  0  0  0  0  0  0  0  0  0  0  0
   -1.3133   -0.5919    0.0000 C   0  0  0  0  0  0  0  0  0  0  0  0
   -1.0543    1.5538    0.0000 C   0  0  3  0  0  0  0  0  0  0  0  0
   -2.8300   -0.7399    0.0000 C   0  0  0  0  0  0  0  0  0  0  0  0
   -2.8485    0.9063    0.0000 C   0  0  0  0  0  0  0  0  0  0  0  0
   -0.2775    1.8127    0.0000 C   0  0  3  0  0  0  0  0  0  0  0  0
   -0.2405   -1.5538    0.0000 C   0  0  0  0  0  0  0  0  0  0  0  0
   -1.5352    2.2011    0.0000 C   0  0  0  0  0  0  0  0  0  0  0  0
   -3.5329    0.4995    0.0000 C   0  0  0  0  0  0  0  0  0  0  0  0
   -0.2775    2.6265    0.0000 C   0  0  0  0  0  0  0  0  0  0  0  0
    1.3688   -1.8866    0.0000 C   0  0  0  0  0  0  0  0  0  0  0  0
   -1.0543    2.8670    0.0000 C   0  0  0  0  0  0  0  0  0  0  0  0
    2.1826   -2.0901    0.0000 C   0  0  3  0  0  0  0  0  0  0  0  0
    0.3145   -0.9433    0.0000 C   0  0  0  0  0  0  0  0  0  0  0  0
    0.0185   -2.3305    0.0000 C   0  0  0  0  0  0  0  0  0  0  0  0
    0.4069    1.2948    0.0000 C   0  0  0  0  0  0  0  0  0  0  0  0
    2.7560   -1.4242    0.0000 C   0  0  0  0  0  0  0  0  0  0  0  0
    1.1283   -1.1098    0.0000 C   0  0  0  0  0  0  0  0  0  0  0  0
    0.8323   -2.4970    0.0000 C   0  0  0  0  0  0  0  0  0  0  0  0
  1 28  1  0  0  0  0
  2 28  1  0  0  0  0
  3 28  1  0  0  0  0
  4 15  2  0  0  0  0
  5 24  1  0  0  0  0
  6  7  1  0  0  0  0
  6 12  1  0  0  0  0
 14  6  1  1  0  0  0
  7 13  2  0  0  0  0
  8 13  1  0  0  0  0
  8 18  1  0  0  0  0
  9 15  1  0  0  0  0
  9 20  1  0  0  0  0
 10 27  3  0  0  0  0
 11 12  2  0  0  0  0
 11 13  1  0  0  0  0
 11 15  1  0  0  0  0
 12 16  1  0  0  0  0
 14 17  1  0  0  0  0
 14 19  1  0  0  0  0
 16 20  2  0  0  0  0
 17 21  1  0  0  0  0
 17 27  1  6  0  0  0
 18 25  2  0  0  0  0
 18 26  1  0  0  0  0
 19 23  1  0  0  0  0
 21 23  1  0  0  0  0
 22 24  1  0  0  0  0
 22 29  2  0  0  0  0
 22 30  1  0  0  0  0
 24 28  1  0  0  0  0
 25 29  1  0  0  0  0
 26 30  2  0  0  0  0
M  END
> <PUBCHEM_COMPOUND_ID_TYPE>
0

> <PUBCHEM_TOTAL_CHARGE>
0

> <PUBCHEM_SUBSTANCE_ID>
310948743

> <PUBCHEM_SUBSTANCE_VERSION>
1

> <PUBCHEM_EXT_DATASOURCE_NAME>
4488

> <PUBCHEM_EXT_DATASOURCE_REGID>
SCHEMBL16126927

> <PUBCHEM_SUBSTANCE_COMMENT>
InChI=1S/C20H18F3N5O2/c21-20(22,23)17(29)11-4-6-13(7-5-11)26-18-16-15(8-9-25-19(16)30)28(27-18)14-3-1-2-12(14)10-24/h4-9,12,14,17,29H,1-3H2,(H,25,30)(H,26,27)/t12-,14+,17?/m1/s1
InChIKey=ZOEMNNRFBUPXST-KMMYHCRNSA-N

> <PUBCHEM_SUBSTANCE_SYNONYM>
SCHEMBL16126927

> <PUBCHEM_XREF_EXT_ID>
SCHEMBL16126927

> <PUBCHEM_EXT_DATASOURCE_URL>
https://www.surechembl.org/

> <PUBCHEM_EXT_SUBSTANCE_URL>
https://www.surechembl.org/chemical/SCHEMBL16126927

> <PUBCHEM_CID_ASSOCIATIONS>
117614285  1

> <PUBCHEM_COORDINATE_TYPE>
1
3

> <PUBCHEM_BONDANNOTATIONS>
17  27  6
14  6  5

$$$$
