310944891
  -OEChem-07211613022D

 32 35  0     0  0  0  0  0  0999 V2000
   -3.3963   -2.4046    0.0000 S   0  0  0  0  0  0  0  0  0  0  0  0
    3.8877   -2.4046    0.0000 O   0  0  0  0  0  0  0  0  0  0  0  0
    4.6073   -1.1584    0.0000 O   0  0  0  0  0  0  0  0  0  0  0  0
   -4.0632   -1.2111    0.0000 N   0  0  0  0  0  0  0  0  0  0  0  0
   -0.4300    0.0877    0.0000 C   0  0  0  0  0  0  0  0  0  0  0  0
   -1.1321   -0.3160    0.0000 C   0  0  0  0  0  0  0  0  0  0  0  0
   -0.4124    0.9302    0.0000 C   0  0  0  0  0  0  0  0  0  0  0  0
    0.3071   -0.3160    0.0000 C   0  0  0  0  0  0  0  0  0  0  0  0
    0.3071    1.3515    0.0000 C   0  0  0  0  0  0  0  0  0  0  0  0
   -2.5713   -1.1584    0.0000 C   0  0  0  0  0  0  0  0  0  0  0  0
   -1.8517    0.0702    0.0000 C   0  0  0  0  0  0  0  0  0  0  0  0
   -1.1497   -1.1584    0.0000 C   0  0  0  0  0  0  0  0  0  0  0  0
   -3.2910   -1.5797    0.0000 C   0  0  0  0  0  0  0  0  0  0  0  0
    0.3071   -1.1760    0.0000 C   0  0  0  0  0  0  0  0  0  0  0  0
    1.0268    0.0702    0.0000 C   0  0  0  0  0  0  0  0  0  0  0  0
   -2.5537   -0.3160    0.0000 C   0  0  0  0  0  0  0  0  0  0  0  0
   -1.8342   -1.5621    0.0000 C   0  0  0  0  0  0  0  0  0  0  0  0
   -1.1321    1.3339    0.0000 C   0  0  0  0  0  0  0  0  0  0  0  0
    1.7289   -1.1584    0.0000 C   0  0  0  0  0  0  0  0  0  0  0  0
    1.0444   -1.5621    0.0000 C   0  0  0  0  0  0  0  0  0  0  0  0
    1.7289   -0.3335    0.0000 C   0  0  0  0  0  0  0  0  0  0  0  0
    1.0092    0.9302    0.0000 C   0  0  0  0  0  0  0  0  0  0  0  0
    0.3247    2.1764    0.0000 C   0  0  0  0  0  0  0  0  0  0  0  0
    1.7289    1.3515    0.0000 C   0  0  0  0  0  0  0  0  0  0  0  0
    1.0268    2.5801    0.0000 C   0  0  0  0  0  0  0  0  0  0  0  0
   -4.1860   -2.5801    0.0000 C   0  0  0  0  0  0  0  0  0  0  0  0
   -4.6073   -1.8781    0.0000 C   0  0  0  0  0  0  0  0  0  0  0  0
    2.4836   -1.5797    0.0000 C   0  0  0  0  0  0  0  0  0  0  0  0
   -1.1321    2.1939    0.0000 C   0  0  0  0  0  0  0  0  0  0  0  0
    1.7289    2.1764    0.0000 C   0  0  0  0  0  0  0  0  0  0  0  0
    3.1681   -1.1760    0.0000 C   0  0  0  0  0  0  0  0  0  0  0  0
    3.8877   -1.5621    0.0000 C   0  0  0  0  0  0  0  0  0  0  0  0
  1 13  1  0  0  0  0
  1 26  1  0  0  0  0
  2 32  2  0  0  0  0
  3 32  1  0  0  0  0
  4 13  2  0  0  0  0
  4 27  1  0  0  0  0
  5  6  1  0  0  0  0
  5  7  2  0  0  0  0
  5  8  1  0  0  0  0
  6 11  2  0  0  0  0
  6 12  1  0  0  0  0
  7  9  1  0  0  0  0
  7 18  1  0  0  0  0
  8 14  2  0  0  0  0
  8 15  1  0  0  0  0
  9 22  2  0  0  0  0
  9 23  1  0  0  0  0
 10 13  1  0  0  0  0
 10 16  2  0  0  0  0
 10 17  1  0  0  0  0
 11 16  1  0  0  0  0
 12 17  2  0  0  0  0
 14 20  1  0  0  0  0
 15 21  2  0  0  0  0
 18 29  1  0  0  0  0
 19 20  2  0  0  0  0
 19 21  1  0  0  0  0
 19 28  1  0  0  0  0
 22 24  1  0  0  0  0
 23 25  2  0  0  0  0
 24 30  2  0  0  0  0
 25 30  1  0  0  0  0
 26 27  2  0  0  0  0
 28 31  2  0  0  0  0
 31 32  1  0  0  0  0
M  END
> <PUBCHEM_COMPOUND_ID_TYPE>
0

> <PUBCHEM_TOTAL_CHARGE>
0

> <PUBCHEM_SUBSTANCE_ID>
310944891

> <PUBCHEM_SUBSTANCE_VERSION>
1

> <PUBCHEM_EXT_DATASOURCE_NAME>
4488

> <PUBCHEM_EXT_DATASOURCE_REGID>
SCHEMBL16122975

> <PUBCHEM_SUBSTANCE_COMMENT>
InChI=1S/C28H23NO2S/c1-2-25(21-6-4-3-5-7-21)27(22-11-8-20(9-12-22)10-17-26(30)31)23-13-15-24(16-14-23)28-29-18-19-32-28/h3-19H,2H2,1H3,(H,30,31)/b17-10+,27-25+
InChIKey=CUTDFTPTQYLIFU-PISUNBGMSA-N

> <PUBCHEM_SUBSTANCE_SYNONYM>
SCHEMBL16122975

> <PUBCHEM_XREF_EXT_ID>
SCHEMBL16122975

> <PUBCHEM_EXT_DATASOURCE_URL>
https://www.surechembl.org/

> <PUBCHEM_EXT_SUBSTANCE_URL>
https://www.surechembl.org/chemical/SCHEMBL16122975

> <PUBCHEM_CID_ASSOCIATIONS>
86270987  1

> <PUBCHEM_COORDINATE_TYPE>
1
3

$$$$
