310932974
  -OEChem-07211613022D

 30 32  0     0  0  0  0  0  0999 V2000
    1.2841   -3.0194    0.0000 F   0  0  0  0  0  0  0  0  0  0  0  0
    3.9911   -2.7417    0.0000 O   0  0  0  0  0  0  0  0  0  0  0  0
    8.4682   -2.8112    0.0000 O   0  0  0  0  0  0  0  0  0  0  0  0
    9.2317   -6.5246    0.0000 O   0  0  0  0  0  0  0  0  0  0  0  0
    4.8935   -1.5965    0.0000 N   0  0  0  0  0  0  0  0  0  0  0  0
    4.8241   -0.7635    0.0000 N   0  0  0  0  0  0  0  0  0  0  0  0
    6.3511   -1.5965    0.0000 N   0  0  0  0  0  0  0  0  0  0  0  0
    7.7741   -4.0606    0.0000 N   0  0  0  0  0  0  0  0  0  0  0  0
    0.0000   -2.4641    0.0000 N   0  0  0  0  0  0  0  0  0  0  0  0
    3.6094   -1.3188    0.0000 C   0  0  0  0  0  0  0  0  0  0  0  0
    4.1647   -1.9435    0.0000 C   0  0  0  0  0  0  0  0  0  0  0  0
    2.7765   -1.4229    0.0000 C   0  0  0  0  0  0  0  0  0  0  0  0
    5.6223   -2.0129    0.0000 C   0  0  0  0  0  0  0  0  0  0  0  0
    3.9911   -0.6247    0.0000 C   0  0  0  0  0  0  0  0  0  0  0  0
    2.2906   -0.7635    0.0000 C   0  0  0  0  0  0  0  0  0  0  0  0
    2.4641   -2.1865    0.0000 C   0  0  0  0  0  0  0  0  0  0  0  0
    1.6312   -2.2559    0.0000 C   0  0  0  0  0  0  0  0  0  0  0  0
    1.1453   -1.5965    0.0000 C   0  0  0  0  0  0  0  0  0  0  0  0
    1.4577   -0.8677    0.0000 C   0  0  0  0  0  0  0  0  0  0  0  0
    5.6223   -2.8112    0.0000 C   0  0  0  0  0  0  0  0  0  0  0  0
    7.0452   -2.8112    0.0000 C   0  0  0  0  0  0  0  0  0  0  0  0
    7.0452   -2.0129    0.0000 C   0  0  0  0  0  0  0  0  0  0  0  0
    6.3511   -3.2276    0.0000 C   0  0  0  0  0  0  0  0  0  0  0  0
    2.6029    0.0000    0.0000 C   0  0  0  0  0  0  0  0  0  0  0  0
    7.7741   -3.2276    0.0000 C   0  0  0  0  0  0  0  0  0  0  0  0
    0.3123   -1.7006    0.0000 C   0  0  0  0  0  0  0  0  0  0  0  0
    8.5029   -4.4771    0.0000 C   0  0  0  0  0  0  0  0  0  0  0  0
    8.5029   -5.3100    0.0000 C   0  0  0  0  0  0  0  0  0  0  0  0
    9.1970   -5.6917    0.0000 C   0  0  0  0  0  0  0  0  0  0  0  0
    9.9258   -6.9411    0.0000 C   0  0  0  0  0  0  0  0  0  0  0  0
  1 17  1  0  0  0  0
  2 11  1  0  0  0  0
  3 25  2  0  0  0  0
  4 29  1  0  0  0  0
  4 30  1  0  0  0  0
  5  6  1  0  0  0  0
  5 11  1  0  0  0  0
  5 13  1  0  0  0  0
  6 14  2  0  0  0  0
  7 13  2  0  0  0  0
  7 22  1  0  0  0  0
  8 25  1  0  0  0  0
  8 27  1  0  0  0  0
  9 26  3  0  0  0  0
 10 11  2  0  0  0  0
 10 12  1  0  0  0  0
 10 14  1  0  0  0  0
 12 15  1  0  0  0  0
 12 16  2  0  0  0  0
 13 20  1  0  0  0  0
 15 19  2  0  0  0  0
 15 24  1  0  0  0  0
 16 17  1  0  0  0  0
 17 18  2  0  0  0  0
 18 19  1  0  0  0  0
 18 26  1  0  0  0  0
 20 23  2  0  0  0  0
 21 22  2  0  0  0  0
 21 23  1  0  0  0  0
 21 25  1  0  0  0  0
 27 28  1  0  0  0  0
 28 29  1  0  0  0  0
M  END
> <PUBCHEM_COMPOUND_ID_TYPE>
0

> <PUBCHEM_TOTAL_CHARGE>
0

> <PUBCHEM_SUBSTANCE_ID>
310932974

> <PUBCHEM_SUBSTANCE_VERSION>
1

> <PUBCHEM_EXT_DATASOURCE_NAME>
4488

> <PUBCHEM_EXT_DATASOURCE_REGID>
SCHEMBL16110371

> <PUBCHEM_SUBSTANCE_COMMENT>
InChI=1S/C21H20FN5O3/c1-13-8-15(10-23)18(22)9-16(13)17-12-26-27(21(17)29)19-5-4-14(11-25-19)20(28)24-6-3-7-30-2/h4-5,8-9,11-12,29H,3,6-7H2,1-2H3,(H,24,28)
InChIKey=UQGIIPHLOVOSBR-UHFFFAOYSA-N

> <PUBCHEM_SUBSTANCE_SYNONYM>
SCHEMBL16110371

> <PUBCHEM_XREF_EXT_ID>
SCHEMBL16110371

> <PUBCHEM_EXT_DATASOURCE_URL>
https://www.surechembl.org/

> <PUBCHEM_EXT_SUBSTANCE_URL>
https://www.surechembl.org/chemical/SCHEMBL16110371

> <PUBCHEM_CID_ASSOCIATIONS>
117601451  1

> <PUBCHEM_COORDINATE_TYPE>
1
3

$$$$
