310941093
  -OEChem-07211613022D

 40 43  0     1  0  0  0  0  0999 V2000
    5.0798   -1.1683    0.0000 O   0  0  0  0  0  0  0  0  0  0  0  0
    3.9559    0.7838    0.0000 O   0  0  0  0  0  0  0  0  0  0  0  0
    1.7968   -1.0795    0.0000 O   0  0  0  0  0  0  0  0  0  0  0  0
   -0.3623    0.7838    0.0000 O   0  0  0  0  0  0  0  0  0  0  0  0
   -2.5066   -1.2866    0.0000 O   0  0  0  0  0  0  0  0  0  0  0  0
    3.9559    2.4401    0.0000 O   0  0  0  0  0  0  0  0  0  0  0  0
   -5.3904    1.1978    0.0000 O   0  0  0  0  0  0  0  0  0  0  0  0
    2.5066   -0.0296    0.0000 N   0  0  0  0  0  0  0  0  0  0  0  0
    0.3476   -0.4436    0.0000 N   0  0  0  0  0  0  0  0  0  0  0  0
   -1.7968   -0.0296    0.0000 N   0  0  0  0  0  0  0  0  0  0  0  0
    4.6657   -0.4436    0.0000 C   0  0  3  0  0  0  0  0  0  0  0  0
    3.8967   -0.0591    0.0000 C   0  0  0  0  0  0  0  0  0  0  0  0
    4.2664   -1.1239    0.0000 C   0  0  0  0  0  0  0  0  0  0  0  0
    3.2312   -0.4140    0.0000 C   0  0  3  0  0  0  0  0  0  0  0  0
    5.3904   -0.0148    0.0000 C   0  0  0  0  0  0  0  0  0  0  0  0
    3.2608   -1.2718    0.0000 C   0  0  0  0  0  0  0  0  0  0  0  0
    1.8116   -0.4140    0.0000 C   0  0  0  0  0  0  0  0  0  0  0  0
    2.5066   -1.6563    0.0000 C   0  0  0  0  0  0  0  0  0  0  0  0
    1.0722   -0.0148    0.0000 C   0  0  3  0  0  0  0  0  0  0  0  0
    1.1018    0.8134    0.0000 C   0  0  0  0  0  0  0  0  0  0  0  0
    1.7228   -1.4788    0.0000 C   0  0  0  0  0  0  0  0  0  0  0  0
    2.2996   -2.4549    0.0000 C   0  0  0  0  0  0  0  0  0  0  0  0
   -0.3476   -0.0296    0.0000 C   0  0  0  0  0  0  0  0  0  0  0  0
    1.7820    1.2274    0.0000 C   0  0  0  0  0  0  0  0  0  0  0  0
    1.5158   -2.2479    0.0000 C   0  0  0  0  0  0  0  0  0  0  0  0
   -1.0574   -0.4289    0.0000 C   0  0  3  0  0  0  0  0  0  0  0  0
   -2.4475   -0.4140    0.0000 C   0  0  0  0  0  0  0  0  0  0  0  0
   -3.2312   -0.0148    0.0000 C   0  0  0  0  0  0  0  0  0  0  0  0
    1.8116    2.0556    0.0000 C   0  0  0  0  0  0  0  0  0  0  0  0
    2.5214    0.8134    0.0000 C   0  0  0  0  0  0  0  0  0  0  0  0
    3.2312    2.0556    0.0000 C   0  0  0  0  0  0  0  0  0  0  0  0
    2.5066    2.4549    0.0000 C   0  0  0  0  0  0  0  0  0  0  0  0
    3.2312    1.2274    0.0000 C   0  0  0  0  0  0  0  0  0  0  0  0
   -3.2312    0.7986    0.0000 C   0  0  0  0  0  0  0  0  0  0  0  0
   -3.9411   -0.4140    0.0000 C   0  0  0  0  0  0  0  0  0  0  0  0
   -1.0722   -1.2570    0.0000 C   0  0  0  0  0  0  0  0  0  0  0  0
   -4.6509    0.8134    0.0000 C   0  0  0  0  0  0  0  0  0  0  0  0
   -4.6509   -0.0148    0.0000 C   0  0  0  0  0  0  0  0  0  0  0  0
   -3.9559    1.2127    0.0000 C   0  0  0  0  0  0  0  0  0  0  0  0
    4.6805    2.0260    0.0000 C   0  0  0  0  0  0  0  0  0  0  0  0
  1 11  1  0  0  0  0
  1 13  1  0  0  0  0
  2 12  2  0  0  0  0
  3 17  2  0  0  0  0
  4 23  2  0  0  0  0
  5 27  2  0  0  0  0
  6 31  1  0  0  0  0
  6 40  1  0  0  0  0
 37  7  1  1  0  0  0
 14  8  1  6  0  0  0
  8 17  1  0  0  0  0
 19  9  1  1  0  0  0
  9 23  1  0  0  0  0
 10 26  1  0  0  0  0
 10 27  1  0  0  0  0
 11 12  1  6  0  0  0
 11 13  1  0  0  0  0
 11 15  1  1  0  0  0
 12 14  1  0  0  0  0
 14 16  1  0  0  0  0
 16 18  1  0  0  0  0
 17 19  1  0  0  0  0
 18 21  1  0  0  0  0
 18 22  1  0  0  0  0
 19 20  1  0  0  0  0
 20 24  1  0  0  0  0
 21 25  1  0  0  0  0
 22 25  1  0  0  0  0
 23 26  1  0  0  0  0
 24 29  2  0  0  0  0
 24 30  1  0  0  0  0
 26 36  1  1  0  0  0
 28 27  1  6  0  0  0
 28 34  1  0  0  0  0
 28 35  1  0  0  0  0
 29 32  1  0  0  0  0
 30 33  2  0  0  0  0
 31 32  2  0  0  0  0
 31 33  1  0  0  0  0
 34 39  1  0  0  0  0
 35 38  1  0  0  0  0
 37 38  1  0  0  0  0
 37 39  1  0  0  0  0
M  END
> <PUBCHEM_COMPOUND_ID_TYPE>
0

> <PUBCHEM_TOTAL_CHARGE>
0

> <PUBCHEM_SUBSTANCE_ID>
310941093

> <PUBCHEM_SUBSTANCE_VERSION>
1

> <PUBCHEM_EXT_DATASOURCE_NAME>
4488

> <PUBCHEM_EXT_DATASOURCE_REGID>
SCHEMBL16119053

> <PUBCHEM_SUBSTANCE_COMMENT>
InChI=1S/C30H43N3O7/c1-18(31-28(37)21-9-11-22(34)12-10-21)27(36)33-25(16-20-7-13-23(39-3)14-8-20)29(38)32-24(15-19-5-4-6-19)26(35)30(2)17-40-30/h7-8,13-14,18-19,21-22,24-25,34H,4-6,9-12,15-17H2,1-3H3,(H,31,37)(H,32,38)(H,33,36)/t18-,21-,22-,24+,25+,30-/m1/s1
InChIKey=VYPOZQXGEZGSAJ-MPEFJUCNSA-N

> <PUBCHEM_SUBSTANCE_SYNONYM>
SCHEMBL16119053

> <PUBCHEM_XREF_EXT_ID>
SCHEMBL16119053

> <PUBCHEM_EXT_DATASOURCE_URL>
https://www.surechembl.org/

> <PUBCHEM_EXT_SUBSTANCE_URL>
https://www.surechembl.org/chemical/SCHEMBL16119053

> <PUBCHEM_CID_ASSOCIATIONS>
117607978  1

> <PUBCHEM_COORDINATE_TYPE>
1
3

> <PUBCHEM_BONDANNOTATIONS>
11  12  6
11  15  5
26  36  5
28  27  6
37  7  5
14  8  6
19  9  5

$$$$
