310947900
  -OEChem-07211613022D

 12 13  0     0  0  0  0  0  0999 V2000
    0.2532  -16.2854    0.0000 N   0  0  0  0  0  0  0  0  0  0  0  0
    0.2532  -14.6354    0.0000 N   0  0  0  0  0  0  0  0  0  0  0  0
   -0.4612  -15.8729    0.0000 C   0  0  0  0  0  0  0  0  0  0  0  0
   -0.4612  -15.0479    0.0000 C   0  0  0  0  0  0  0  0  0  0  0  0
   -1.1757  -16.2854    0.0000 C   0  0  0  0  0  0  0  0  0  0  0  0
    0.9677  -15.8729    0.0000 C   0  0  0  0  0  0  0  0  0  0  0  0
   -1.1757  -14.6354    0.0000 C   0  0  0  0  0  0  0  0  0  0  0  0
    0.9677  -15.0479    0.0000 C   0  0  0  0  0  0  0  0  0  0  0  0
   -1.8902  -15.8729    0.0000 C   0  0  0  0  0  0  0  0  0  0  0  0
   -1.8902  -15.0479    0.0000 C   0  0  0  0  0  0  0  0  0  0  0  0
   -1.1757  -17.1104    0.0000 C   0  0  0  0  0  0  0  0  0  0  0  0
    1.6822  -16.2854    0.0000 C   0  0  0  0  0  0  0  0  0  0  0  0
  1  3  1  0  0  0  0
  1  6  1  0  0  0  0
  2  4  1  0  0  0  0
  2  8  2  0  0  0  0
  3  4  1  0  0  0  0
  3  5  2  0  0  0  0
  4  7  2  0  0  0  0
  5  9  1  0  0  0  0
  5 11  1  0  0  0  0
  6  8  1  0  0  0  0
  6 12  2  0  0  0  0
  7 10  1  0  0  0  0
  9 10  2  0  0  0  0
M  END
> <PUBCHEM_COMPOUND_ID_TYPE>
0

> <PUBCHEM_TOTAL_CHARGE>
0

> <PUBCHEM_SUBSTANCE_ID>
310947900

> <PUBCHEM_SUBSTANCE_VERSION>
1

> <PUBCHEM_EXT_DATASOURCE_NAME>
4488

> <PUBCHEM_EXT_DATASOURCE_REGID>
SCHEMBL16126074

> <PUBCHEM_SUBSTANCE_COMMENT>
InChI=1S/C10H10N2/c1-7-4-3-5-9-10(7)12-8(2)6-11-9/h3-6,12H,2H2,1H3
InChIKey=OZAYMFRJTLZOFQ-UHFFFAOYSA-N

> <PUBCHEM_SUBSTANCE_SYNONYM>
SCHEMBL16126074

> <PUBCHEM_XREF_EXT_ID>
SCHEMBL16126074

> <PUBCHEM_EXT_DATASOURCE_URL>
https://www.surechembl.org/

> <PUBCHEM_EXT_SUBSTANCE_URL>
https://www.surechembl.org/chemical/SCHEMBL16126074

> <PUBCHEM_CID_ASSOCIATIONS>
117613564  1

> <PUBCHEM_COORDINATE_TYPE>
1
3

$$$$
