310943631
  -OEChem-07211613022D

 40 45  0     0  0  0  0  0  0999 V2000
   -3.2132   -0.0172    0.0000 O   0  0  0  0  0  0  0  0  0  0  0  0
    1.0654   -0.0172    0.0000 O   0  0  0  0  0  0  0  0  0  0  0  0
   -4.6395    2.4744    0.0000 O   0  0  0  0  0  0  0  0  0  0  0  0
   -3.2132   -2.5088    0.0000 O   0  0  0  0  0  0  0  0  0  0  0  0
    3.9350   -0.8420    0.0000 N   0  0  0  0  0  0  0  0  0  0  0  0
   -3.2132    1.6496    0.0000 N   0  0  0  0  0  0  0  0  0  0  0  0
   -1.7870    0.0000    0.0000 N   0  0  0  0  0  0  0  0  0  0  0  0
    1.7870    1.2372    0.0000 N   0  0  0  0  0  0  0  0  0  0  0  0
    0.3609    2.9039    0.0000 N   0  0  0  0  0  0  0  0  0  0  0  0
    4.6395   -2.9039    0.0000 N   0  0  0  0  0  0  0  0  0  0  0  0
    3.1961   -2.0792    0.0000 C   0  0  0  0  0  0  0  0  0  0  0  0
    3.2132   -1.2372    0.0000 C   0  0  0  0  0  0  0  0  0  0  0  0
    2.4056   -2.0963    0.0000 C   0  0  0  0  0  0  0  0  0  0  0  0
    2.8009   -2.7665    0.0000 C   0  0  0  0  0  0  0  0  0  0  0  0
    3.9350   -2.5088    0.0000 C   0  0  0  0  0  0  0  0  0  0  0  0
    2.5088   -0.8420    0.0000 C   0  0  0  0  0  0  0  0  0  0  0  0
   -1.0654    1.2544    0.0000 C   0  0  0  0  0  0  0  0  0  0  0  0
   -2.4916    1.2372    0.0000 C   0  0  0  0  0  0  0  0  0  0  0  0
   -0.3781    1.6496    0.0000 C   0  0  0  0  0  0  0  0  0  0  0  0
    2.5088    0.0000    0.0000 C   0  0  0  0  0  0  0  0  0  0  0  0
   -2.5088    0.4124    0.0000 C   0  0  0  0  0  0  0  0  0  0  0  0
   -1.7870    1.6496    0.0000 C   0  0  0  0  0  0  0  0  0  0  0  0
    1.7870    0.4296    0.0000 C   0  0  0  0  0  0  0  0  0  0  0  0
   -0.3609    2.4916    0.0000 C   0  0  0  0  0  0  0  0  0  0  0  0
    1.0654    1.6496    0.0000 C   0  0  0  0  0  0  0  0  0  0  0  0
    0.3781    1.2372    0.0000 C   0  0  0  0  0  0  0  0  0  0  0  0
   -1.0825    0.3952    0.0000 C   0  0  0  0  0  0  0  0  0  0  0  0
    3.2132    0.4124    0.0000 C   0  0  0  0  0  0  0  0  0  0  0  0
    3.9178    0.0000    0.0000 C   0  0  0  0  0  0  0  0  0  0  0  0
    1.0825    2.4744    0.0000 C   0  0  0  0  0  0  0  0  0  0  0  0
   -3.2132    2.4744    0.0000 C   0  0  0  0  0  0  0  0  0  0  0  0
   -3.9006    1.2544    0.0000 C   0  0  0  0  0  0  0  0  0  0  0  0
   -3.2132   -0.8248    0.0000 C   0  0  0  0  0  0  0  0  0  0  0  0
   -1.0825    2.8868    0.0000 C   0  0  0  0  0  0  0  0  0  0  0  0
   -3.9521    2.8868    0.0000 C   0  0  0  0  0  0  0  0  0  0  0  0
   -4.6395    1.6496    0.0000 C   0  0  0  0  0  0  0  0  0  0  0  0
   -2.4916   -1.2544    0.0000 C   0  0  0  0  0  0  0  0  0  0  0  0
   -3.9178   -1.2544    0.0000 C   0  0  0  0  0  0  0  0  0  0  0  0
   -2.5088   -2.0792    0.0000 C   0  0  0  0  0  0  0  0  0  0  0  0
   -3.9350   -2.0792    0.0000 C   0  0  0  0  0  0  0  0  0  0  0  0
  1 21  1  0  0  0  0
  1 33  1  0  0  0  0
  2 23  2  0  0  0  0
  3 35  1  0  0  0  0
  3 36  1  0  0  0  0
  4 39  1  0  0  0  0
  4 40  1  0  0  0  0
  5 12  1  0  0  0  0
  5 29  2  0  0  0  0
  6 18  1  0  0  0  0
  6 31  1  0  0  0  0
  6 32  1  0  0  0  0
  7 21  2  0  0  0  0
  7 27  1  0  0  0  0
  8 23  1  0  0  0  0
  8 25  1  0  0  0  0
  9 24  1  0  0  0  0
  9 30  2  0  0  0  0
 10 15  3  0  0  0  0
 11 12  1  0  0  0  0
 11 13  1  0  0  0  0
 11 14  1  0  0  0  0
 11 15  1  0  0  0  0
 12 16  2  0  0  0  0
 13 14  1  0  0  0  0
 16 20  1  0  0  0  0
 17 19  1  0  0  0  0
 17 22  1  0  0  0  0
 17 27  2  0  0  0  0
 18 21  1  0  0  0  0
 18 22  2  0  0  0  0
 19 24  2  0  0  0  0
 19 26  1  0  0  0  0
 20 23  1  0  0  0  0
 20 28  2  0  0  0  0
 24 34  1  0  0  0  0
 25 26  2  0  0  0  0
 25 30  1  0  0  0  0
 28 29  1  0  0  0  0
 31 35  1  0  0  0  0
 32 36  1  0  0  0  0
 33 37  1  0  0  0  0
 33 38  1  0  0  0  0
 37 39  1  0  0  0  0
 38 40  1  0  0  0  0
M  END
> <PUBCHEM_COMPOUND_ID_TYPE>
0

> <PUBCHEM_TOTAL_CHARGE>
0

> <PUBCHEM_SUBSTANCE_ID>
310943631

> <PUBCHEM_SUBSTANCE_VERSION>
1

> <PUBCHEM_EXT_DATASOURCE_NAME>
4488

> <PUBCHEM_EXT_DATASOURCE_REGID>
SCHEMBL16121699

> <PUBCHEM_SUBSTANCE_COMMENT>
InChI=1S/C30H32N6O4/c1-20-25(16-23(18-33-20)35-28(37)21-2-7-32-27(15-21)30(19-31)5-6-30)22-14-26(36-8-12-39-13-9-36)29(34-17-22)40-24-3-10-38-11-4-24/h2,7,14-18,24H,3-6,8-13H2,1H3,(H,35,37)
InChIKey=ZOHHDEYKNWIOEM-UHFFFAOYSA-N

> <PUBCHEM_SUBSTANCE_SYNONYM>
SCHEMBL16121699

> <PUBCHEM_XREF_EXT_ID>
SCHEMBL16121699

> <PUBCHEM_EXT_DATASOURCE_URL>
https://www.surechembl.org/

> <PUBCHEM_EXT_SUBSTANCE_URL>
https://www.surechembl.org/chemical/SCHEMBL16121699

> <PUBCHEM_CID_ASSOCIATIONS>
117610022  1

> <PUBCHEM_COORDINATE_TYPE>
1
3

$$$$
