310935443
  -OEChem-07211613022D

 32 37  0     0  0  0  0  0  0999 V2000
   -1.4290    2.0625    0.0000 Cl  0  0  0  0  0  0  0  0  0  0  0  0
    3.7576    0.5690    0.0000 F   0  0  0  0  0  0  0  0  0  0  0  0
   -4.2868    0.4125    0.0000 N   0  0  0  0  0  0  0  0  0  0  0  0
    0.7846    0.6674    0.0000 N   0  0  0  0  0  0  0  0  0  0  0  0
   -3.5724    1.6500    0.0000 N   0  0  0  0  0  0  0  0  0  0  0  0
    0.7846   -0.6674    0.0000 N   0  0  0  0  0  0  0  0  0  0  0  0
   -5.5926    0.1349    0.0000 C   0  0  0  0  0  0  0  0  0  0  0  0
    0.0000    0.4125    0.0000 C   0  0  0  0  0  0  0  0  0  0  0  0
   -2.1434    0.8250    0.0000 C   0  0  0  0  0  0  0  0  0  0  0  0
   -1.4290    0.4125    0.0000 C   0  0  0  0  0  0  0  0  0  0  0  0
   -3.5724    0.8250    0.0000 C   0  0  0  0  0  0  0  0  0  0  0  0
   -5.0405    0.7480    0.0000 C   0  0  0  0  0  0  0  0  0  0  0  0
    0.0000   -0.4125    0.0000 C   0  0  0  0  0  0  0  0  0  0  0  0
   -0.7145    0.8250    0.0000 C   0  0  0  0  0  0  0  0  0  0  0  0
   -5.1801   -0.5795    0.0000 C   0  0  0  0  0  0  0  0  0  0  0  0
   -2.8579    0.4125    0.0000 C   0  0  0  0  0  0  0  0  0  0  0  0
   -6.2337   -0.3842    0.0000 C   0  0  0  0  0  0  0  0  0  0  0  0
   -6.1117    0.7761    0.0000 C   0  0  0  0  0  0  0  0  0  0  0  0
   -2.1434    1.6500    0.0000 C   0  0  0  0  0  0  0  0  0  0  0  0
   -4.3731   -0.4080    0.0000 C   0  0  0  0  0  0  0  0  0  0  0  0
   -1.4290   -0.4125    0.0000 C   0  0  0  0  0  0  0  0  0  0  0  0
   -0.7145   -0.8250    0.0000 C   0  0  0  0  0  0  0  0  0  0  0  0
   -6.7529    0.2569    0.0000 C   0  0  0  0  0  0  0  0  0  0  0  0
    1.2696    0.0000    0.0000 C   0  0  0  0  0  0  0  0  0  0  0  0
   -2.8579    2.0625    0.0000 C   0  0  0  0  0  0  0  0  0  0  0  0
    1.0396    1.4521    0.0000 C   0  0  0  0  0  0  0  0  0  0  0  0
    1.8465    1.6236    0.0000 C   0  0  0  0  0  0  0  0  0  0  0  0
    2.3986    1.0105    0.0000 C   0  0  0  0  0  0  0  0  0  0  0  0
    2.1015    2.4082    0.0000 C   0  0  0  0  0  0  0  0  0  0  0  0
    3.2055    1.1820    0.0000 C   0  0  0  0  0  0  0  0  0  0  0  0
    2.9084    2.5797    0.0000 C   0  0  0  0  0  0  0  0  0  0  0  0
    3.4605    1.9666    0.0000 C   0  0  0  0  0  0  0  0  0  0  0  0
  1 19  1  0  0  0  0
  2 30  1  0  0  0  0
  3 11  1  0  0  0  0
  3 12  1  0  0  0  0
  3 20  1  0  0  0  0
  4  8  1  0  0  0  0
  4 24  1  0  0  0  0
  4 26  1  0  0  0  0
  5 11  2  0  0  0  0
  5 25  1  0  0  0  0
  6 13  1  0  0  0  0
  6 24  2  0  0  0  0
  7 12  1  0  0  0  0
  7 15  1  0  0  0  0
  7 17  1  0  0  0  0
  7 18  1  0  0  0  0
  8 13  1  0  0  0  0
  8 14  2  0  0  0  0
  9 10  1  0  0  0  0
  9 16  2  0  0  0  0
  9 19  1  0  0  0  0
 10 14  1  0  0  0  0
 10 21  2  0  0  0  0
 11 16  1  0  0  0  0
 13 22  2  0  0  0  0
 15 20  1  0  0  0  0
 17 23  1  0  0  0  0
 18 23  1  0  0  0  0
 19 25  2  0  0  0  0
 21 22  1  0  0  0  0
 26 27  1  0  0  0  0
 27 28  1  0  0  0  0
 27 29  2  0  0  0  0
 28 30  2  0  0  0  0
 29 31  1  0  0  0  0
 30 32  1  0  0  0  0
 31 32  2  0  0  0  0
M  END
> <PUBCHEM_COMPOUND_ID_TYPE>
0

> <PUBCHEM_TOTAL_CHARGE>
0

> <PUBCHEM_SUBSTANCE_ID>
310935443

> <PUBCHEM_SUBSTANCE_VERSION>
1

> <PUBCHEM_EXT_DATASOURCE_NAME>
4488

> <PUBCHEM_EXT_DATASOURCE_REGID>
SCHEMBL16112987

> <PUBCHEM_SUBSTANCE_COMMENT>
InChI=1S/C26H24ClFN4/c27-22-14-29-25(31-10-9-26(16-31)7-2-8-26)13-21(22)19-5-6-23-24(12-19)32(17-30-23)15-18-3-1-4-20(28)11-18/h1,3-6,11-14,17H,2,7-10,15-16H2
InChIKey=QTUIMLJMUWOPCU-UHFFFAOYSA-N

> <PUBCHEM_SUBSTANCE_SYNONYM>
SCHEMBL16112987

> <PUBCHEM_XREF_EXT_ID>
SCHEMBL16112987

> <PUBCHEM_EXT_DATASOURCE_URL>
https://www.surechembl.org/

> <PUBCHEM_EXT_SUBSTANCE_URL>
https://www.surechembl.org/chemical/SCHEMBL16112987

> <PUBCHEM_CID_ASSOCIATIONS>
117603484  1

> <PUBCHEM_COORDINATE_TYPE>
1
3

$$$$
