310947529
  -OEChem-07211613022D

 12 12  0     1  0  0  0  0  0999 V2000
   -2.9236   -3.0984    0.0000 F   0  0  0  0  0  0  0  0  0  0  0  0
   -2.0986   -1.1144    0.0000 O   0  0  0  0  0  0  0  0  0  0  0  0
   -1.2736   -3.0984    0.0000 O   0  0  0  0  0  0  0  0  0  0  0  0
   -0.7166   -1.1868    0.0000 O   0  0  0  0  0  0  0  0  0  0  0  0
   -1.6861   -2.3839    0.0000 C   0  0  3  0  0  0  0  0  0  0  0  0
   -2.5111   -2.3839    0.0000 C   0  0  3  0  0  0  0  0  0  0  0  0
   -1.4311   -1.5993    0.0000 C   0  0  3  0  0  0  0  0  0  0  0  0
   -2.7660   -1.5993    0.0000 C   0  0  3  0  0  0  0  0  0  0  0  0
   -0.8611   -2.3839    0.0000 C   0  0  0  0  0  0  0  0  0  0  0  0
   -3.1785   -0.8848    0.0000 C   0  0  0  0  0  0  0  0  0  0  0  0
   -0.0022   -1.5993    0.0000 C   0  0  0  0  0  0  0  0  0  0  0  0
   -4.0035   -0.8848    0.0000 C   0  0  0  0  0  0  0  0  0  0  0  0
  6  1  1  6  0  0  0
  2  7  1  0  0  0  0
  2  8  1  0  0  0  0
  5  3  1  6  0  0  0
  7  4  1  1  0  0  0
  4 11  1  0  0  0  0
  5  6  1  0  0  0  0
  5  7  1  0  0  0  0
  5  9  1  1  0  0  0
  6  8  1  0  0  0  0
  8 10  1  1  0  0  0
 10 12  1  0  0  0  0
M  END
> <PUBCHEM_COMPOUND_ID_TYPE>
0

> <PUBCHEM_TOTAL_CHARGE>
0

> <PUBCHEM_SUBSTANCE_ID>
310947529

> <PUBCHEM_SUBSTANCE_VERSION>
1

> <PUBCHEM_EXT_DATASOURCE_NAME>
4488

> <PUBCHEM_EXT_DATASOURCE_REGID>
SCHEMBL16125692

> <PUBCHEM_SUBSTANCE_COMMENT>
InChI=1S/C8H15FO3/c1-4-5-6(9)8(2,10)7(11-3)12-5/h5-7,10H,4H2,1-3H3/t5-,6-,7-,8-/m1/s1
InChIKey=AQWIFTMKVFZCBO-WCTZXXKLSA-N

> <PUBCHEM_SUBSTANCE_SYNONYM>
SCHEMBL16125692

> <PUBCHEM_XREF_EXT_ID>
SCHEMBL16125692

> <PUBCHEM_EXT_DATASOURCE_URL>
https://www.surechembl.org/

> <PUBCHEM_EXT_SUBSTANCE_URL>
https://www.surechembl.org/chemical/SCHEMBL16125692

> <PUBCHEM_CID_ASSOCIATIONS>
117613251  1

> <PUBCHEM_COORDINATE_TYPE>
1
3

> <PUBCHEM_BONDANNOTATIONS>
6  1  6
5  3  6
7  4  5
5  9  5
8  10  5

$$$$
