310944244
  -OEChem-07211613022D

 18 19  0     0  0  0  0  0  0999 V2000
    0.3816    1.8363    0.0000 F   0  0  0  0  0  0  0  0  0  0  0  0
    2.5597    1.4070    0.0000 N   0  0  0  0  0  0  0  0  0  0  0  0
    0.3657   -2.2496    0.0000 N   0  0  0  0  0  0  0  0  0  0  0  0
   -0.3498    0.6280    0.0000 C   0  0  0  0  0  0  0  0  0  0  0  0
   -1.1288    1.0573    0.0000 C   0  0  0  0  0  0  0  0  0  0  0  0
    0.3816    1.0255    0.0000 C   0  0  0  0  0  0  0  0  0  0  0  0
    1.1130    0.6438    0.0000 C   0  0  0  0  0  0  0  0  0  0  0  0
   -0.3339   -0.1829    0.0000 C   0  0  0  0  0  0  0  0  0  0  0  0
    0.3816   -0.5802    0.0000 C   0  0  0  0  0  0  0  0  0  0  0  0
    1.0970   -0.1829    0.0000 C   0  0  0  0  0  0  0  0  0  0  0  0
   -1.8283    0.6438    0.0000 C   0  0  0  0  0  0  0  0  0  0  0  0
   -1.0970    1.8522    0.0000 C   0  0  0  0  0  0  0  0  0  0  0  0
   -1.9397    1.2481    0.0000 C   0  0  0  0  0  0  0  0  0  0  0  0
    1.8443    1.0413    0.0000 C   0  0  0  0  0  0  0  0  0  0  0  0
   -2.5438    1.0413    0.0000 C   0  0  0  0  0  0  0  0  0  0  0  0
   -1.8283    2.2496    0.0000 C   0  0  0  0  0  0  0  0  0  0  0  0
    0.3657   -1.4388    0.0000 C   0  0  0  0  0  0  0  0  0  0  0  0
   -2.5597    1.8363    0.0000 C   0  0  0  0  0  0  0  0  0  0  0  0
  1  6  1  0  0  0  0
  2 14  3  0  0  0  0
  3 17  3  0  0  0  0
  4  5  1  0  0  0  0
  4  6  1  0  0  0  0
  4  8  2  0  0  0  0
  5 11  1  0  0  0  0
  5 12  1  0  0  0  0
  5 13  1  0  0  0  0
  6  7  2  0  0  0  0
  7 10  1  0  0  0  0
  7 14  1  0  0  0  0
  8  9  1  0  0  0  0
  9 10  2  0  0  0  0
  9 17  1  0  0  0  0
 11 15  1  0  0  0  0
 12 16  1  0  0  0  0
 15 18  1  0  0  0  0
 16 18  1  0  0  0  0
M  END
> <PUBCHEM_COMPOUND_ID_TYPE>
0

> <PUBCHEM_TOTAL_CHARGE>
0

> <PUBCHEM_SUBSTANCE_ID>
310944244

> <PUBCHEM_SUBSTANCE_VERSION>
1

> <PUBCHEM_EXT_DATASOURCE_NAME>
4488

> <PUBCHEM_EXT_DATASOURCE_REGID>
SCHEMBL16122319

> <PUBCHEM_SUBSTANCE_COMMENT>
InChI=1S/C15H15FN2/c1-15(5-3-2-4-6-15)13-8-11(9-17)7-12(10-18)14(13)16/h7-8H,2-6H2,1H3
InChIKey=DTPPXFYWGONFNL-UHFFFAOYSA-N

> <PUBCHEM_SUBSTANCE_SYNONYM>
SCHEMBL16122319

> <PUBCHEM_XREF_EXT_ID>
SCHEMBL16122319

> <PUBCHEM_EXT_DATASOURCE_URL>
https://www.surechembl.org/

> <PUBCHEM_EXT_SUBSTANCE_URL>
https://www.surechembl.org/chemical/SCHEMBL16122319

> <PUBCHEM_CID_ASSOCIATIONS>
117610515  1

> <PUBCHEM_COORDINATE_TYPE>
1
3

$$$$
