310942433
  -OEChem-07211613022D

 39 43  0     0  0  0  0  0  0999 V2000
    2.8823    1.6407    0.0000 S   0  0  0  0  0  0  0  0  0  0  0  0
    4.3368    2.4655    0.0000 F   0  0  0  0  0  0  0  0  0  0  0  0
    5.7824   -0.0089    0.0000 F   0  0  0  0  0  0  0  0  0  0  0  0
    3.3080    2.3591    0.0000 O   0  0  0  0  0  0  0  0  0  0  0  0
    2.4743    2.3591    0.0000 O   0  0  0  0  0  0  0  0  0  0  0  0
   -5.7824    2.4655    0.0000 O   0  0  0  0  0  0  0  0  0  0  0  0
    0.0000   -0.0089    0.0000 N   0  0  0  0  0  0  0  0  0  0  0  0
    1.4456   -0.0089    0.0000 N   0  0  0  0  0  0  0  0  0  0  0  0
   -0.7272    1.2238    0.0000 N   0  0  0  0  0  0  0  0  0  0  0  0
   -1.4456   -0.0089    0.0000 N   0  0  0  0  0  0  0  0  0  0  0  0
    2.1196   -1.4190    0.0000 N   0  0  0  0  0  0  0  0  0  0  0  0
   -4.3368    1.6407    0.0000 N   0  0  0  0  0  0  0  0  0  0  0  0
    1.8890   -2.1994    0.0000 N   0  0  0  0  0  0  0  0  0  0  0  0
    3.6273    1.2328    0.0000 C   0  0  0  0  0  0  0  0  0  0  0  0
    0.7361    1.2328    0.0000 C   0  0  0  0  0  0  0  0  0  0  0  0
    0.7183    0.4080    0.0000 C   0  0  0  0  0  0  0  0  0  0  0  0
    4.3368    1.6407    0.0000 C   0  0  0  0  0  0  0  0  0  0  0  0
    2.1906    1.2328    0.0000 C   0  0  0  0  0  0  0  0  0  0  0  0
   -0.7272    0.4080    0.0000 C   0  0  0  0  0  0  0  0  0  0  0  0
    1.4456    1.6407    0.0000 C   0  0  0  0  0  0  0  0  0  0  0  0
    3.6273    0.4080    0.0000 C   0  0  0  0  0  0  0  0  0  0  0  0
    0.0000    1.6407    0.0000 C   0  0  0  0  0  0  0  0  0  0  0  0
    5.0640    1.2238    0.0000 C   0  0  0  0  0  0  0  0  0  0  0  0
    1.4278   -0.9135    0.0000 C   0  0  0  0  0  0  0  0  0  0  0  0
    5.0552    0.4080    0.0000 C   0  0  0  0  0  0  0  0  0  0  0  0
    4.3545    0.0000    0.0000 C   0  0  0  0  0  0  0  0  0  0  0  0
   -2.1728    0.4080    0.0000 C   0  0  0  0  0  0  0  0  0  0  0  0
   -3.6007    1.2328    0.0000 C   0  0  0  0  0  0  0  0  0  0  0  0
    0.7804   -1.4278    0.0000 C   0  0  0  0  0  0  0  0  0  0  0  0
   -2.8735    0.0000    0.0000 C   0  0  0  0  0  0  0  0  0  0  0  0
   -2.1640    1.2238    0.0000 C   0  0  0  0  0  0  0  0  0  0  0  0
   -3.6007    0.4080    0.0000 C   0  0  0  0  0  0  0  0  0  0  0  0
   -2.8912    1.6318    0.0000 C   0  0  0  0  0  0  0  0  0  0  0  0
    1.0642   -2.1906    0.0000 C   0  0  0  0  0  0  0  0  0  0  0  0
   -4.3368    2.4655    0.0000 C   0  0  0  0  0  0  0  0  0  0  0  0
   -5.0374    1.2328    0.0000 C   0  0  0  0  0  0  0  0  0  0  0  0
    2.4034   -2.8735    0.0000 C   0  0  0  0  0  0  0  0  0  0  0  0
   -5.0552    2.8735    0.0000 C   0  0  0  0  0  0  0  0  0  0  0  0
   -5.7824    1.6496    0.0000 C   0  0  0  0  0  0  0  0  0  0  0  0
  1  4  2  0  0  0  0
  1  5  2  0  0  0  0
  1 14  1  0  0  0  0
  1 18  1  0  0  0  0
  2 17  1  0  0  0  0
  3 25  1  0  0  0  0
  6 38  1  0  0  0  0
  6 39  1  0  0  0  0
  7 16  2  0  0  0  0
  7 19  1  0  0  0  0
  8 16  1  0  0  0  0
  8 24  1  0  0  0  0
  9 19  2  0  0  0  0
  9 22  1  0  0  0  0
 10 19  1  0  0  0  0
 10 27  1  0  0  0  0
 11 13  1  0  0  0  0
 11 24  2  0  0  0  0
 12 28  1  0  0  0  0
 12 35  1  0  0  0  0
 12 36  1  0  0  0  0
 13 34  1  0  0  0  0
 13 37  1  0  0  0  0
 14 17  1  0  0  0  0
 14 21  2  0  0  0  0
 15 16  1  0  0  0  0
 15 20  1  0  0  0  0
 15 22  2  0  0  0  0
 17 23  2  0  0  0  0
 18 20  2  0  0  0  0
 21 26  1  0  0  0  0
 23 25  1  0  0  0  0
 24 29  1  0  0  0  0
 25 26  2  0  0  0  0
 27 30  2  0  0  0  0
 27 31  1  0  0  0  0
 28 32  2  0  0  0  0
 28 33  1  0  0  0  0
 29 34  2  0  0  0  0
 30 32  1  0  0  0  0
 31 33  2  0  0  0  0
 35 38  1  0  0  0  0
 36 39  1  0  0  0  0
M  END
> <PUBCHEM_COMPOUND_ID_TYPE>
0

> <PUBCHEM_TOTAL_CHARGE>
0

> <PUBCHEM_SUBSTANCE_ID>
310942433

> <PUBCHEM_SUBSTANCE_VERSION>
1

> <PUBCHEM_EXT_DATASOURCE_NAME>
4488

> <PUBCHEM_EXT_DATASOURCE_REGID>
SCHEMBL16120469

> <PUBCHEM_SUBSTANCE_COMMENT>
InChI=1S/C26H25F2N7O3S/c1-34-10-8-24(33-34)31-25-18(9-15-39(36,37)23-7-2-19(27)16-22(23)28)17-29-26(32-25)30-20-3-5-21(6-4-20)35-11-13-38-14-12-35/h2-10,15-17H,11-14H2,1H3,(H2,29,30,31,32,33)/b15-9+
InChIKey=PHHQKKCOWDKBDW-OQLLNIDSSA-N

> <PUBCHEM_SUBSTANCE_SYNONYM>
SCHEMBL16120469

> <PUBCHEM_XREF_EXT_ID>
SCHEMBL16120469

> <PUBCHEM_EXT_DATASOURCE_URL>
https://www.surechembl.org/

> <PUBCHEM_EXT_SUBSTANCE_URL>
https://www.surechembl.org/chemical/SCHEMBL16120469

> <PUBCHEM_CID_ASSOCIATIONS>
117609029  1

> <PUBCHEM_COORDINATE_TYPE>
1
3

$$$$
