310941778
  -OEChem-07211613022D

 23 27  0     1  0  0  0  0  0999 V2000
   -0.1666    0.5971    0.0000 O   0  0  0  0  0  0  0  0  0  0  0  0
    2.3191    0.3750    0.0000 N   0  0  0  0  0  0  0  0  0  0  0  0
    2.5830    1.7220    0.0000 N   0  0  0  0  0  0  0  0  0  0  0  0
    3.3052    1.3054    0.0000 N   0  0  0  0  0  0  0  0  0  0  0  0
   -2.5553   -0.0833    0.0000 C   0  0  0  0  0  0  0  0  0  0  0  0
   -1.9581   -0.6805    0.0000 C   0  0  3  0  0  0  0  0  0  0  0  0
   -3.0829    0.1388    0.0000 C   0  0  3  0  0  0  0  0  0  0  0  0
   -1.4720   -0.0139    0.0000 C   0  0  3  0  0  0  0  0  0  0  0  0
   -2.7774   -0.6249    0.0000 C   0  0  0  0  0  0  0  0  0  0  0  0
    1.0138   -0.2222    0.0000 C   0  0  0  0  0  0  0  0  0  0  0  0
    0.6666    0.5277    0.0000 C   0  0  0  0  0  0  0  0  0  0  0  0
    0.5416   -0.9304    0.0000 C   0  0  0  0  0  0  0  0  0  0  0  0
    1.9720    1.1249    0.0000 C   0  0  0  0  0  0  0  0  0  0  0  0
   -2.6386    0.8054    0.0000 C   0  0  0  0  0  0  0  0  0  0  0  0
    1.8470   -0.3055    0.0000 C   0  0  0  0  0  0  0  0  0  0  0  0
   -1.8192    0.7361    0.0000 C   0  0  0  0  0  0  0  0  0  0  0  0
    1.1526    1.2221    0.0000 C   0  0  0  0  0  0  0  0  0  0  0  0
   -0.6249   -0.1111    0.0000 C   0  0  0  0  0  0  0  0  0  0  0  0
   -3.1107   -0.6111    0.0000 C   0  0  0  0  0  0  0  0  0  0  0  0
   -3.3052   -0.2222    0.0000 C   0  0  0  0  0  0  0  0  0  0  0  0
    0.4583   -1.7220    0.0000 C   0  0  0  0  0  0  0  0  0  0  0  0
   -0.1805   -1.2776    0.0000 C   0  0  0  0  0  0  0  0  0  0  0  0
    3.1385    0.4999    0.0000 C   0  0  0  0  0  0  0  0  0  0  0  0
  1 11  1  0  0  0  0
  1 18  1  0  0  0  0
  2 13  1  0  0  0  0
  2 15  1  0  0  0  0
  2 23  1  0  0  0  0
  3  4  1  0  0  0  0
  3 13  2  0  0  0  0
  4 23  2  0  0  0  0
  5  6  1  0  0  0  0
  5  7  1  0  0  0  0
  5 19  1  0  0  0  0
  5 20  1  0  0  0  0
  6  8  1  0  0  0  0
  6  9  1  6  0  0  0
  7  9  1  6  0  0  0
  7 14  1  0  0  0  0
  8 16  1  0  0  0  0
  8 18  1  6  0  0  0
 10 11  1  0  0  0  0
 10 12  1  0  0  0  0
 10 15  2  0  0  0  0
 11 17  2  0  0  0  0
 12 21  1  0  0  0  0
 12 22  1  0  0  0  0
 13 17  1  0  0  0  0
 14 16  1  0  0  0  0
 21 22  1  0  0  0  0
M  END
> <PUBCHEM_COMPOUND_ID_TYPE>
0

> <PUBCHEM_TOTAL_CHARGE>
0

> <PUBCHEM_SUBSTANCE_ID>
310941778

> <PUBCHEM_SUBSTANCE_VERSION>
1

> <PUBCHEM_EXT_DATASOURCE_NAME>
4488

> <PUBCHEM_EXT_DATASOURCE_REGID>
SCHEMBL16119809

> <PUBCHEM_SUBSTANCE_COMMENT>
InChI=1S/C19H25N3O/c1-19(2)14-6-5-13(16(19)7-14)10-23-17-8-18-21-20-11-22(18)9-15(17)12-3-4-12/h8-9,11-14,16H,3-7,10H2,1-2H3/t13-,14+,16+/m1/s1
InChIKey=HTRWFYRPDBLXGL-YCPHGPKFSA-N

> <PUBCHEM_SUBSTANCE_SYNONYM>
SCHEMBL16119809

> <PUBCHEM_XREF_EXT_ID>
SCHEMBL16119809

> <PUBCHEM_EXT_DATASOURCE_URL>
https://www.surechembl.org/

> <PUBCHEM_EXT_SUBSTANCE_URL>
https://www.surechembl.org/chemical/SCHEMBL16119809

> <PUBCHEM_CID_ASSOCIATIONS>
117608530  1

> <PUBCHEM_COORDINATE_TYPE>
1
3

> <PUBCHEM_BONDANNOTATIONS>
6  9  6
7  9  6
8  18  6

$$$$
