310941678
  -OEChem-07211613022D

 17 16  0     1  0  0  0  0  0999 V2000
    0.7572    0.2392    0.0000 O   0  0  0  0  0  0  0  0  0  0  0  0
   -2.3138   -1.8250    0.0000 O   0  0  0  0  0  0  0  0  0  0  0  0
   -2.3240   -0.4217    0.0000 O   0  0  0  0  0  0  0  0  0  0  0  0
   -0.8393    1.7036    0.0000 O   0  0  0  0  0  0  0  0  0  0  0  0
    2.6385   -0.2794    0.0000 O   0  0  0  0  0  0  0  0  0  0  0  0
    2.6588    1.0325    0.0000 O   0  0  0  0  0  0  0  0  0  0  0  0
   -0.1072    0.3613    0.0000 N   0  0  0  0  0  0  0  0  0  0  0  0
   -1.0122    0.3613    0.0000 N   0  0  0  0  0  0  0  0  0  0  0  0
    0.3403   -0.4522    0.0000 C   0  0  0  0  0  0  0  0  0  0  0  0
   -0.5647   -0.4217    0.0000 C   0  0  3  0  0  0  0  0  0  0  0  0
    0.3097    1.0528    0.0000 C   0  0  3  0  0  0  0  0  0  0  0  0
   -0.9919   -1.1538    0.0000 C   0  0  0  0  0  0  0  0  0  0  0  0
    1.0826    1.0732    0.0000 C   0  0  0  0  0  0  0  0  0  0  0  0
   -1.9071   -1.1336    0.0000 C   0  0  0  0  0  0  0  0  0  0  0  0
   -0.1072    1.7239    0.0000 C   0  0  0  0  0  0  0  0  0  0  0  0
    1.4894    0.3511    0.0000 C   0  0  0  0  0  0  0  0  0  0  0  0
    2.2622    0.3613    0.0000 C   0  0  0  0  0  0  0  0  0  0  0  0
  1  9  2  0  0  0  0
  2 14  2  0  0  0  0
  3 14  1  0  0  0  0
  4 15  2  0  0  0  0
  5 17  2  0  0  0  0
  6 17  1  0  0  0  0
  7  9  1  0  0  0  0
 11  7  1  6  0  0  0
 10  8  1  6  0  0  0
  9 10  1  0  0  0  0
 10 12  1  0  0  0  0
 11 13  1  0  0  0  0
 11 15  1  0  0  0  0
 12 14  1  0  0  0  0
 13 16  1  0  0  0  0
 16 17  1  0  0  0  0
M  END
> <PUBCHEM_COMPOUND_ID_TYPE>
0

> <PUBCHEM_TOTAL_CHARGE>
0

> <PUBCHEM_SUBSTANCE_ID>
310941678

> <PUBCHEM_SUBSTANCE_VERSION>
1

> <PUBCHEM_EXT_DATASOURCE_NAME>
4488

> <PUBCHEM_EXT_DATASOURCE_REGID>
SCHEMBL16119709

> <PUBCHEM_SUBSTANCE_COMMENT>
InChI=1S/C9H14N2O6/c10-6(3-8(15)16)9(17)11-5(4-12)1-2-7(13)14/h4-6H,1-3,10H2,(H,11,17)(H,13,14)(H,15,16)/t5-,6-/m0/s1
InChIKey=IPZGOLSPGGRBNS-WDSKDSINSA-N

> <PUBCHEM_SUBSTANCE_SYNONYM>
SCHEMBL16119709

> <PUBCHEM_XREF_EXT_ID>
SCHEMBL16119709

> <PUBCHEM_EXT_DATASOURCE_URL>
https://www.surechembl.org/

> <PUBCHEM_EXT_SUBSTANCE_URL>
https://www.surechembl.org/chemical/SCHEMBL16119709

> <PUBCHEM_CID_ASSOCIATIONS>
22887899  1

> <PUBCHEM_COORDINATE_TYPE>
1
3

> <PUBCHEM_BONDANNOTATIONS>
11  7  6
10  8  6

$$$$
