310938180
  -OEChem-07211613022D

 41 43  0     1  0  0  0  0  0999 V2000
    2.8579   -0.8250    0.0000 O   0  0  0  0  0  0  0  0  0  0  0  0
    3.2170    2.5920    0.0000 O   0  0  0  0  0  0  0  0  0  0  0  0
    2.2609    1.5301    0.0000 O   0  0  0  0  0  0  0  0  0  0  0  0
    8.1060    0.0039    0.0000 O   0  0  0  0  0  0  0  0  0  0  0  0
    7.0440    0.9601    0.0000 O   0  0  0  0  0  0  0  0  0  0  0  0
    0.7145    1.2375    0.0000 O   0  0  0  0  0  0  0  0  0  0  0  0
   -1.4290   -0.8250    0.0000 O   0  0  0  0  0  0  0  0  0  0  0  0
    3.5724    0.4125    0.0000 N   0  0  0  0  0  0  0  0  0  0  0  0
    6.7470   -0.4377    0.0000 N   0  0  0  0  0  0  0  0  0  0  0  0
    1.4290    0.0000    0.0000 N   0  0  0  0  0  0  0  0  0  0  0  0
   -0.7145    0.4125    0.0000 N   0  0  0  0  0  0  0  0  0  0  0  0
    4.3260    0.0770    0.0000 C   0  0  0  0  0  0  0  0  0  0  0  0
    4.8781    0.6901    0.0000 C   0  0  0  0  0  0  0  0  0  0  0  0
    3.6586    1.2330    0.0000 C   0  0  3  0  0  0  0  0  0  0  0  0
    4.4656    1.4045    0.0000 C   0  0  0  0  0  0  0  0  0  0  0  0
    2.8579    0.0000    0.0000 C   0  0  0  0  0  0  0  0  0  0  0  0
    4.5810   -0.7077    0.0000 C   0  0  0  0  0  0  0  0  0  0  0  0
    5.6850    0.5185    0.0000 C   0  0  0  0  0  0  0  0  0  0  0  0
    3.0455    1.7850    0.0000 C   0  0  0  0  0  0  0  0  0  0  0  0
    5.9400   -0.2661    0.0000 C   0  0  0  0  0  0  0  0  0  0  0  0
    5.3880   -0.8792    0.0000 C   0  0  0  0  0  0  0  0  0  0  0  0
    2.1434    0.4125    0.0000 C   0  0  0  0  0  0  0  0  0  0  0  0
    7.2990    0.1754    0.0000 C   0  0  0  0  0  0  0  0  0  0  0  0
    0.7145    0.4125    0.0000 C   0  0  0  0  0  0  0  0  0  0  0  0
    0.0000    0.0000    0.0000 C   0  0  3  0  0  0  0  0  0  0  0  0
    0.0000   -0.8250    0.0000 C   0  0  3  0  0  0  0  0  0  0  0  0
    8.6580    0.6170    0.0000 C   0  0  0  0  0  0  0  0  0  0  0  0
   -1.4290    0.0000    0.0000 C   0  0  0  0  0  0  0  0  0  0  0  0
   -0.7145   -1.2375    0.0000 C   0  0  0  0  0  0  0  0  0  0  0  0
   -2.1434    0.4125    0.0000 C   0  0  0  0  0  0  0  0  0  0  0  0
   -2.8579    0.0000    0.0000 C   0  0  0  0  0  0  0  0  0  0  0  0
    0.7145   -1.2375    0.0000 C   0  0  0  0  0  0  0  0  0  0  0  0
    9.4649    0.4455    0.0000 C   0  0  0  0  0  0  0  0  0  0  0  0
    8.4030    1.4016    0.0000 C   0  0  0  0  0  0  0  0  0  0  0  0
    9.2100    1.2301    0.0000 C   0  0  0  0  0  0  0  0  0  0  0  0
   -3.5724    0.4125    0.0000 C   0  0  0  0  0  0  0  0  0  0  0  0
   -2.8579   -0.8250    0.0000 C   0  0  0  0  0  0  0  0  0  0  0  0
   -0.7145   -2.0625    0.0000 C   0  0  0  0  0  0  0  0  0  0  0  0
   -4.2868    0.0000    0.0000 C   0  0  0  0  0  0  0  0  0  0  0  0
   -3.5724   -1.2375    0.0000 C   0  0  0  0  0  0  0  0  0  0  0  0
   -4.2868   -0.8250    0.0000 C   0  0  0  0  0  0  0  0  0  0  0  0
  1 16  2  0  0  0  0
  2 19  2  0  0  0  0
  3 19  1  0  0  0  0
  4 23  1  0  0  0  0
  4 27  1  0  0  0  0
  5 23  2  0  0  0  0
  6 24  2  0  0  0  0
  7 28  2  0  0  0  0
  8 12  1  0  0  0  0
  8 14  1  0  0  0  0
  8 16  1  0  0  0  0
  9 20  1  0  0  0  0
  9 23  1  0  0  0  0
 10 22  1  0  0  0  0
 10 24  1  0  0  0  0
 25 11  1  6  0  0  0
 11 28  1  0  0  0  0
 12 13  2  0  0  0  0
 12 17  1  0  0  0  0
 13 15  1  0  0  0  0
 13 18  1  0  0  0  0
 14 15  1  0  0  0  0
 14 19  1  6  0  0  0
 16 22  1  0  0  0  0
 17 21  2  0  0  0  0
 18 20  2  0  0  0  0
 20 21  1  0  0  0  0
 24 25  1  0  0  0  0
 25 26  1  0  0  0  0
 26 29  1  0  0  0  0
 26 32  1  1  0  0  0
 27 33  1  0  0  0  0
 27 34  1  0  0  0  0
 27 35  1  0  0  0  0
 28 30  1  0  0  0  0
 29 38  1  0  0  0  0
 30 31  1  0  0  0  0
 31 36  2  0  0  0  0
 31 37  1  0  0  0  0
 36 39  1  0  0  0  0
 37 40  2  0  0  0  0
 39 41  2  0  0  0  0
 40 41  1  0  0  0  0
M  END
> <PUBCHEM_COMPOUND_ID_TYPE>
0

> <PUBCHEM_TOTAL_CHARGE>
0

> <PUBCHEM_SUBSTANCE_ID>
310938180

> <PUBCHEM_SUBSTANCE_VERSION>
1

> <PUBCHEM_EXT_DATASOURCE_NAME>
4488

> <PUBCHEM_EXT_DATASOURCE_REGID>
SCHEMBL16116034

> <PUBCHEM_SUBSTANCE_COMMENT>
InChI=1S/C30H38N4O7/c1-6-18(2)26(33-24(35)14-19-10-8-7-9-11-19)27(37)31-17-25(36)34-22-13-12-21(32-29(40)41-30(3,4)5)15-20(22)16-23(34)28(38)39/h7-13,15,18,23,26H,6,14,16-17H2,1-5H3,(H,31,37)(H,32,40)(H,33,35)(H,38,39)/t18-,23-,26-/m0/s1
InChIKey=IDYFCZAHAKXEEX-WMDMVVLCSA-N

> <PUBCHEM_SUBSTANCE_SYNONYM>
SCHEMBL16116034

> <PUBCHEM_XREF_EXT_ID>
SCHEMBL16116034

> <PUBCHEM_EXT_DATASOURCE_URL>
https://www.surechembl.org/

> <PUBCHEM_EXT_SUBSTANCE_URL>
https://www.surechembl.org/chemical/SCHEMBL16116034

> <PUBCHEM_CID_ASSOCIATIONS>
117605720  1

> <PUBCHEM_COORDINATE_TYPE>
1
3

> <PUBCHEM_BONDANNOTATIONS>
25  11  6
14  19  6
26  32  5

$$$$
