310939813
  -OEChem-07211613022D

 25 26  0     0  0  0  0  0  0999 V2000
    0.7145    0.7697    0.0000 Cl  0  0  0  0  0  0  0  0  0  0  0  0
    2.1434    3.2447    0.0000 Cl  0  0  0  0  0  0  0  0  0  0  0  0
   -2.1434   -2.5303    0.0000 S   0  0  0  0  0  0  0  0  0  0  0  0
    3.5724    0.7697    0.0000 O   0  0  0  0  0  0  0  0  0  0  0  0
    2.1434   -1.7053    0.0000 O   0  0  0  0  0  0  0  0  0  0  0  0
   -1.7309   -1.8158    0.0000 O   0  0  0  0  0  0  0  0  0  0  0  0
   -2.5559   -3.2447    0.0000 O   0  0  0  0  0  0  0  0  0  0  0  0
    0.7145   -1.7053    0.0000 N   0  0  0  0  0  0  0  0  0  0  0  0
    2.1434   -0.0553    0.0000 N   0  0  0  0  0  0  0  0  0  0  0  0
   -1.4289   -2.9428    0.0000 N   0  0  0  0  0  0  0  0  0  0  0  0
    2.1434    0.7697    0.0000 C   0  0  0  0  0  0  0  0  0  0  0  0
    1.4289    1.1822    0.0000 C   0  0  0  0  0  0  0  0  0  0  0  0
    2.8579    1.1822    0.0000 C   0  0  0  0  0  0  0  0  0  0  0  0
   -0.7145   -2.5303    0.0000 C   0  0  0  0  0  0  0  0  0  0  0  0
    1.4289   -1.2928    0.0000 C   0  0  0  0  0  0  0  0  0  0  0  0
    2.1434    2.4197    0.0000 C   0  0  0  0  0  0  0  0  0  0  0  0
    1.4289    2.0072    0.0000 C   0  0  0  0  0  0  0  0  0  0  0  0
    2.8579    2.0072    0.0000 C   0  0  0  0  0  0  0  0  0  0  0  0
    1.4289   -0.4678    0.0000 C   0  0  0  0  0  0  0  0  0  0  0  0
    0.0000   -1.2928    0.0000 C   0  0  0  0  0  0  0  0  0  0  0  0
    0.7145   -2.5303    0.0000 C   0  0  0  0  0  0  0  0  0  0  0  0
   -0.7145   -1.7053    0.0000 C   0  0  0  0  0  0  0  0  0  0  0  0
    0.0000   -2.9428    0.0000 C   0  0  0  0  0  0  0  0  0  0  0  0
   -2.8579   -2.1178    0.0000 C   0  0  0  0  0  0  0  0  0  0  0  0
   -3.5724   -2.5303    0.0000 C   0  0  0  0  0  0  0  0  0  0  0  0
  1 12  1  0  0  0  0
  2 16  1  0  0  0  0
  3  6  2  0  0  0  0
  3  7  2  0  0  0  0
  3 10  1  0  0  0  0
  3 24  1  0  0  0  0
  4 13  1  0  0  0  0
  5 15  2  0  0  0  0
  8 15  1  0  0  0  0
  8 20  1  0  0  0  0
  8 21  1  0  0  0  0
  9 11  1  0  0  0  0
  9 19  1  0  0  0  0
 10 14  1  0  0  0  0
 11 12  1  0  0  0  0
 11 13  2  0  0  0  0
 12 17  2  0  0  0  0
 13 18  1  0  0  0  0
 14 22  1  0  0  0  0
 14 23  1  0  0  0  0
 15 19  1  0  0  0  0
 16 17  1  0  0  0  0
 16 18  2  0  0  0  0
 20 22  1  0  0  0  0
 21 23  1  0  0  0  0
 24 25  2  0  0  0  0
M  END
> <PUBCHEM_COMPOUND_ID_TYPE>
0

> <PUBCHEM_TOTAL_CHARGE>
0

> <PUBCHEM_SUBSTANCE_ID>
310939813

> <PUBCHEM_SUBSTANCE_VERSION>
1

> <PUBCHEM_EXT_DATASOURCE_NAME>
4488

> <PUBCHEM_EXT_DATASOURCE_REGID>
SCHEMBL16117743

> <PUBCHEM_SUBSTANCE_COMMENT>
InChI=1S/C15H19Cl2N3O4S/c1-2-25(23,24)19-11-3-5-20(6-4-11)14(22)9-18-15-12(17)7-10(16)8-13(15)21/h2,7-8,11,18-19,21H,1,3-6,9H2
InChIKey=RPQRMXWZKBJCHJ-UHFFFAOYSA-N

> <PUBCHEM_SUBSTANCE_SYNONYM>
SCHEMBL16117743

> <PUBCHEM_XREF_EXT_ID>
SCHEMBL16117743

> <PUBCHEM_EXT_DATASOURCE_URL>
https://www.surechembl.org/

> <PUBCHEM_EXT_SUBSTANCE_URL>
https://www.surechembl.org/chemical/SCHEMBL16117743

> <PUBCHEM_CID_ASSOCIATIONS>
117607031  1

> <PUBCHEM_COORDINATE_TYPE>
1
3

$$$$
