310939838
  -OEChem-07211613022D

 27 29  0     0  0  0  0  0  0999 V2000
    1.1270   -4.1250    0.0000 Cl  0  0  0  0  0  0  0  0  0  0  0  0
   -2.4454    2.8875    0.0000 S   0  0  0  0  0  0  0  0  0  0  0  0
    1.1270    0.8250    0.0000 O   0  0  0  0  0  0  0  0  0  0  0  0
   -3.2704    2.8875    0.0000 O   0  0  0  0  0  0  0  0  0  0  0  0
   -1.6204    2.8875    0.0000 O   0  0  0  0  0  0  0  0  0  0  0  0
   -0.3020    0.8250    0.0000 N   0  0  0  0  0  0  0  0  0  0  0  0
    1.1270   -0.8250    0.0000 N   0  0  0  0  0  0  0  0  0  0  0  0
   -2.4454    2.0625    0.0000 N   0  0  0  0  0  0  0  0  0  0  0  0
    1.8414   -2.0625    0.0000 C   0  0  0  0  0  0  0  0  0  0  0  0
    1.8414   -2.8875    0.0000 C   0  0  0  0  0  0  0  0  0  0  0  0
    1.1270   -1.6500    0.0000 C   0  0  0  0  0  0  0  0  0  0  0  0
    1.1270   -3.3000    0.0000 C   0  0  0  0  0  0  0  0  0  0  0  0
    0.4125   -2.0625    0.0000 C   0  0  0  0  0  0  0  0  0  0  0  0
    2.5559   -1.6500    0.0000 C   0  0  0  0  0  0  0  0  0  0  0  0
    0.4125   -2.8875    0.0000 C   0  0  0  0  0  0  0  0  0  0  0  0
    2.5559   -3.3000    0.0000 C   0  0  0  0  0  0  0  0  0  0  0  0
   -1.7309    1.6500    0.0000 C   0  0  0  0  0  0  0  0  0  0  0  0
    0.4125    0.4125    0.0000 C   0  0  0  0  0  0  0  0  0  0  0  0
    0.4125   -0.4125    0.0000 C   0  0  0  0  0  0  0  0  0  0  0  0
   -0.3020    1.6500    0.0000 C   0  0  0  0  0  0  0  0  0  0  0  0
   -1.0164    0.4125    0.0000 C   0  0  0  0  0  0  0  0  0  0  0  0
   -1.0164    2.0625    0.0000 C   0  0  0  0  0  0  0  0  0  0  0  0
   -1.7309    0.8250    0.0000 C   0  0  0  0  0  0  0  0  0  0  0  0
    3.2704   -2.0625    0.0000 C   0  0  0  0  0  0  0  0  0  0  0  0
    3.2704   -2.8875    0.0000 C   0  0  0  0  0  0  0  0  0  0  0  0
   -2.4454    3.7125    0.0000 C   0  0  0  0  0  0  0  0  0  0  0  0
   -3.1599    4.1250    0.0000 C   0  0  0  0  0  0  0  0  0  0  0  0
  1 12  1  0  0  0  0
  2  4  2  0  0  0  0
  2  5  2  0  0  0  0
  2  8  1  0  0  0  0
  2 26  1  0  0  0  0
  3 18  2  0  0  0  0
  6 18  1  0  0  0  0
  6 20  1  0  0  0  0
  6 21  1  0  0  0  0
  7 11  1  0  0  0  0
  7 19  1  0  0  0  0
  8 17  1  0  0  0  0
  9 10  1  0  0  0  0
  9 11  1  0  0  0  0
  9 14  2  0  0  0  0
 10 12  1  0  0  0  0
 10 16  2  0  0  0  0
 11 13  2  0  0  0  0
 12 15  2  0  0  0  0
 13 15  1  0  0  0  0
 14 24  1  0  0  0  0
 16 25  1  0  0  0  0
 17 22  1  0  0  0  0
 17 23  1  0  0  0  0
 18 19  1  0  0  0  0
 20 22  1  0  0  0  0
 21 23  1  0  0  0  0
 24 25  2  0  0  0  0
 26 27  2  0  0  0  0
M  END
> <PUBCHEM_COMPOUND_ID_TYPE>
0

> <PUBCHEM_TOTAL_CHARGE>
0

> <PUBCHEM_SUBSTANCE_ID>
310939838

> <PUBCHEM_SUBSTANCE_VERSION>
1

> <PUBCHEM_EXT_DATASOURCE_NAME>
4488

> <PUBCHEM_EXT_DATASOURCE_REGID>
SCHEMBL16117768

> <PUBCHEM_SUBSTANCE_COMMENT>
InChI=1S/C19H22ClN3O3S/c1-2-27(25,26)22-14-9-11-23(12-10-14)19(24)13-21-18-8-7-17(20)15-5-3-4-6-16(15)18/h2-8,14,21-22H,1,9-13H2
InChIKey=VAHBHVRAIGCQJH-UHFFFAOYSA-N

> <PUBCHEM_SUBSTANCE_SYNONYM>
SCHEMBL16117768

> <PUBCHEM_XREF_EXT_ID>
SCHEMBL16117768

> <PUBCHEM_EXT_DATASOURCE_URL>
https://www.surechembl.org/

> <PUBCHEM_EXT_SUBSTANCE_URL>
https://www.surechembl.org/chemical/SCHEMBL16117768

> <PUBCHEM_CID_ASSOCIATIONS>
117607055  1

> <PUBCHEM_COORDINATE_TYPE>
1
3

$$$$
