310947450
  -OEChem-07211613022D

 28 29  0     0  0  0  0  0  0999 V2000
    0.9344  -16.6088    0.0000 O   0  0  0  0  0  0  0  0  0  0  0  0
    3.7923  -14.9587    0.0000 O   0  0  0  0  0  0  0  0  0  0  0  0
   -1.2091  -16.1962    0.0000 O   0  0  0  0  0  0  0  0  0  0  0  0
    6.6306  -14.1337    0.0000 O   0  0  0  0  0  0  0  0  0  0  0  0
    4.9733  -12.3632    0.0000 O   0  0  0  0  0  0  0  0  0  0  0  0
    0.2199  -17.8463    0.0000 N   0  0  0  0  0  0  0  0  0  0  0  0
    4.5068  -16.1962    0.0000 N   0  0  0  0  0  0  0  0  0  0  0  0
    5.9259  -12.9132    0.0000 N   0  0  0  0  0  0  0  0  0  0  0  0
    0.9344  -17.4338    0.0000 C   0  0  0  0  0  0  0  0  0  0  0  0
    0.2199  -18.6713    0.0000 C   0  0  0  0  0  0  0  0  0  0  0  0
    2.3633  -17.4338    0.0000 C   0  0  0  0  0  0  0  0  0  0  0  0
    1.6489  -17.8463    0.0000 C   0  0  0  0  0  0  0  0  0  0  0  0
    3.7923  -16.6088    0.0000 C   0  0  0  0  0  0  0  0  0  0  0  0
    2.3633  -16.6088    0.0000 C   0  0  0  0  0  0  0  0  0  0  0  0
    3.0779  -17.8463    0.0000 C   0  0  0  0  0  0  0  0  0  0  0  0
   -0.4946  -17.4338    0.0000 C   0  0  0  0  0  0  0  0  0  0  0  0
    3.0779  -16.1962    0.0000 C   0  0  0  0  0  0  0  0  0  0  0  0
    3.7923  -17.4338    0.0000 C   0  0  0  0  0  0  0  0  0  0  0  0
   -0.4946  -19.0838    0.0000 C   0  0  0  0  0  0  0  0  0  0  0  0
    0.9344  -19.0838    0.0000 C   0  0  0  0  0  0  0  0  0  0  0  0
    4.5068  -15.3712    0.0000 C   0  0  0  0  0  0  0  0  0  0  0  0
   -0.4946  -19.9088    0.0000 C   0  0  0  0  0  0  0  0  0  0  0  0
    0.9344  -19.9088    0.0000 C   0  0  0  0  0  0  0  0  0  0  0  0
    0.2199  -20.3213    0.0000 C   0  0  0  0  0  0  0  0  0  0  0  0
   -0.4946  -16.6088    0.0000 C   0  0  0  0  0  0  0  0  0  0  0  0
    5.2214  -14.9587    0.0000 C   0  0  0  0  0  0  0  0  0  0  0  0
    5.2214  -14.1337    0.0000 C   0  0  0  0  0  0  0  0  0  0  0  0
    5.9259  -13.7268    0.0000 C   0  0  0  0  0  0  0  0  0  0  0  0
  1  9  2  0  0  0  0
  2 21  2  0  0  0  0
  3 25  1  0  0  0  0
  4 28  2  0  0  0  0
  5  8  1  0  0  0  0
  6  9  1  0  0  0  0
  6 10  1  0  0  0  0
  6 16  1  0  0  0  0
  7 13  1  0  0  0  0
  7 21  1  0  0  0  0
  8 28  1  0  0  0  0
  9 12  1  0  0  0  0
 10 19  2  0  0  0  0
 10 20  1  0  0  0  0
 11 12  1  0  0  0  0
 11 14  2  0  0  0  0
 11 15  1  0  0  0  0
 13 17  2  0  0  0  0
 13 18  1  0  0  0  0
 14 17  1  0  0  0  0
 15 18  2  0  0  0  0
 16 25  1  0  0  0  0
 19 22  1  0  0  0  0
 20 23  2  0  0  0  0
 21 26  1  0  0  0  0
 22 24  2  0  0  0  0
 23 24  1  0  0  0  0
 26 27  2  0  0  0  0
 27 28  1  0  0  0  0
M  END
> <PUBCHEM_COMPOUND_ID_TYPE>
0

> <PUBCHEM_TOTAL_CHARGE>
0

> <PUBCHEM_SUBSTANCE_ID>
310947450

> <PUBCHEM_SUBSTANCE_VERSION>
1

> <PUBCHEM_EXT_DATASOURCE_NAME>
4488

> <PUBCHEM_EXT_DATASOURCE_REGID>
SCHEMBL16125611

> <PUBCHEM_SUBSTANCE_COMMENT>
InChI=1S/C20H21N3O5/c24-13-12-23(17-4-2-1-3-5-17)20(27)14-15-6-8-16(9-7-15)21-18(25)10-11-19(26)22-28/h1-11,24,28H,12-14H2,(H,21,25)(H,22,26)/b11-10+
InChIKey=JMAVYNWVNIVVNV-ZHACJKMWSA-N

> <PUBCHEM_SUBSTANCE_SYNONYM>
SCHEMBL16125611

> <PUBCHEM_XREF_EXT_ID>
SCHEMBL16125611

> <PUBCHEM_EXT_DATASOURCE_URL>
https://www.surechembl.org/

> <PUBCHEM_EXT_SUBSTANCE_URL>
https://www.surechembl.org/chemical/SCHEMBL16125611

> <PUBCHEM_CID_ASSOCIATIONS>
71523398  1

> <PUBCHEM_COORDINATE_TYPE>
1
3

$$$$
