310946901
  -OEChem-07211613022D

 43 46  0     1  0  0  0  0  0999 V2000
   -2.7554   -4.3829    0.0000 F   0  0  0  0  0  0  0  0  0  0  0  0
   -2.9971   -3.6094    0.0000 F   0  0  0  0  0  0  0  0  0  0  0  0
   -2.4493   -2.9971    0.0000 F   0  0  0  0  0  0  0  0  0  0  0  0
   -0.1128    2.4653    0.0000 O   0  0  0  0  0  0  0  0  0  0  0  0
   -0.9345   -1.7080    0.0000 O   0  0  0  0  0  0  0  0  0  0  0  0
   -0.4512    4.0928    0.0000 O   0  0  0  0  0  0  0  0  0  0  0  0
    0.9507    4.3829    0.0000 O   0  0  0  0  0  0  0  0  0  0  0  0
    0.5802    0.6284    0.0000 N   0  0  0  0  0  0  0  0  0  0  0  0
    1.0635   -0.0484    0.0000 N   0  0  0  0  0  0  0  0  0  0  0  0
    0.8218   -1.4986    0.0000 N   0  0  0  0  0  0  0  0  0  0  0  0
   -1.6436   -0.4512    0.0000 N   0  0  0  0  0  0  0  0  0  0  0  0
   -1.1440   -4.7373    0.0000 N   0  0  0  0  0  0  0  0  0  0  0  0
    2.9971    1.1279    0.0000 N   0  0  0  0  0  0  0  0  0  0  0  0
    0.8379    1.4180    0.0000 C   0  0  3  0  0  0  0  0  0  0  0  0
   -0.1934    0.3706    0.0000 C   0  0  0  0  0  0  0  0  0  0  0  0
   -0.2095   -0.4512    0.0000 C   0  0  0  0  0  0  0  0  0  0  0  0
    0.5802   -0.7251    0.0000 C   0  0  0  0  0  0  0  0  0  0  0  0
   -0.9345   -0.8540    0.0000 C   0  0  0  0  0  0  0  0  0  0  0  0
    0.0645    1.6758    0.0000 C   0  0  0  0  0  0  0  0  0  0  0  0
    1.4663    1.9496    0.0000 C   0  0  0  0  0  0  0  0  0  0  0  0
   -0.9184    0.7895    0.0000 C   0  0  0  0  0  0  0  0  0  0  0  0
    1.3858    0.7734    0.0000 C   0  0  0  0  0  0  0  0  0  0  0  0
    0.5157    3.0293    0.0000 C   0  0  3  0  0  0  0  0  0  0  0  0
    1.3052    2.7554    0.0000 C   0  0  0  0  0  0  0  0  0  0  0  0
   -1.6275    0.3867    0.0000 C   0  0  0  0  0  0  0  0  0  0  0  0
    0.2740   -2.1108    0.0000 C   0  0  0  0  0  0  0  0  0  0  0  0
    0.3223    3.8350    0.0000 C   0  0  0  0  0  0  0  0  0  0  0  0
    2.1913    0.9507    0.0000 C   0  0  0  0  0  0  0  0  0  0  0  0
   -0.8379   -3.3354    0.0000 C   0  0  0  0  0  0  0  0  0  0  0  0
   -0.5318   -1.9496    0.0000 C   0  0  0  0  0  0  0  0  0  0  0  0
    0.5157   -2.9004    0.0000 C   0  0  0  0  0  0  0  0  0  0  0  0
   -1.4018   -3.9639    0.0000 C   0  0  3  0  0  0  0  0  0  0  0  0
   -1.0635   -2.5459    0.0000 C   0  0  0  0  0  0  0  0  0  0  0  0
   -0.0322   -3.5127    0.0000 C   0  0  0  0  0  0  0  0  0  0  0  0
   -2.2075   -3.7544    0.0000 C   0  0  0  0  0  0  0  0  0  0  0  0
   -0.3223   -4.9145    0.0000 C   0  0  0  0  0  0  0  0  0  0  0  0
   -0.6123    4.9145    0.0000 C   0  0  0  0  0  0  0  0  0  0  0  0
    0.2256   -4.2862    0.0000 C   0  0  0  0  0  0  0  0  0  0  0  0
    0.4834   -5.0757    0.0000 C   0  0  0  0  0  0  0  0  0  0  0  0
   -0.0645   -5.7203    0.0000 C   0  0  0  0  0  0  0  0  0  0  0  0
   -0.7895    5.7203    0.0000 C   0  0  0  0  0  0  0  0  0  0  0  0
   -1.4018    5.1401    0.0000 C   0  0  0  0  0  0  0  0  0  0  0  0
    0.0161    5.4302    0.0000 C   0  0  0  0  0  0  0  0  0  0  0  0
  1 35  1  0  0  0  0
  2 35  1  0  0  0  0
  3 35  1  0  0  0  0
  4 19  1  0  0  0  0
  4 23  1  0  0  0  0
  5 18  2  0  0  0  0
  6 27  1  0  0  0  0
  6 37  1  0  0  0  0
  7 27  2  0  0  0  0
  8  9  1  0  0  0  0
  8 14  1  0  0  0  0
  8 15  1  0  0  0  0
  9 17  2  0  0  0  0
 10 17  1  0  0  0  0
 10 26  1  0  0  0  0
 11 18  1  0  0  0  0
 11 25  1  0  0  0  0
 12 32  1  0  0  0  0
 12 36  1  0  0  0  0
 13 28  3  0  0  0  0
 14 19  1  0  0  0  0
 14 20  1  0  0  0  0
 14 22  1  6  0  0  0
 15 16  2  0  0  0  0
 15 21  1  0  0  0  0
 16 17  1  0  0  0  0
 16 18  1  0  0  0  0
 20 24  1  0  0  0  0
 21 25  2  0  0  0  0
 22 28  1  0  0  0  0
 23 24  1  0  0  0  0
 23 27  1  6  0  0  0
 26 30  2  0  0  0  0
 26 31  1  0  0  0  0
 29 32  1  0  0  0  0
 29 33  2  0  0  0  0
 29 34  1  0  0  0  0
 30 33  1  0  0  0  0
 31 34  2  0  0  0  0
 32 35  1  0  0  0  0
 36 38  1  0  0  0  0
 36 39  1  0  0  0  0
 36 40  1  0  0  0  0
 37 41  1  0  0  0  0
 37 42  1  0  0  0  0
 37 43  1  0  0  0  0
M  END
> <PUBCHEM_COMPOUND_ID_TYPE>
0

> <PUBCHEM_TOTAL_CHARGE>
0

> <PUBCHEM_SUBSTANCE_ID>
310946901

> <PUBCHEM_SUBSTANCE_VERSION>
1

> <PUBCHEM_EXT_DATASOURCE_NAME>
4488

> <PUBCHEM_EXT_DATASOURCE_REGID>
SCHEMBL16125025

> <PUBCHEM_SUBSTANCE_COMMENT>
InChI=1S/C30H37F3N6O4/c1-27(2,3)37-23(30(31,32)33)18-7-9-19(10-8-18)36-24-22-20(12-16-35-25(22)40)39(38-24)29(14-15-34)13-11-21(42-17-29)26(41)43-28(4,5)6/h7-10,12,16,21,23,37H,11,13-14,17H2,1-6H3,(H,35,40)(H,36,38)/t21-,23?,29-/m0/s1
InChIKey=PJKWNJWMGOGRSQ-OQVCPGITSA-N

> <PUBCHEM_SUBSTANCE_SYNONYM>
SCHEMBL16125025

> <PUBCHEM_XREF_EXT_ID>
SCHEMBL16125025

> <PUBCHEM_EXT_DATASOURCE_URL>
https://www.surechembl.org/

> <PUBCHEM_EXT_SUBSTANCE_URL>
https://www.surechembl.org/chemical/SCHEMBL16125025

> <PUBCHEM_CID_ASSOCIATIONS>
117612759  1

> <PUBCHEM_COORDINATE_TYPE>
1
3

> <PUBCHEM_BONDANNOTATIONS>
14  22  6
23  27  6

$$$$
