310948640
  -OEChem-07211613022D

 33 36  0     1  0  0  0  0  0999 V2000
   -1.4797   -2.5603    0.0000 S   0  0  0  0  0  0  0  0  0  0  0  0
   -2.7049    2.1473    0.0000 O   0  0  0  0  0  0  0  0  0  0  0  0
   -1.6862   -3.3587    0.0000 O   0  0  0  0  0  0  0  0  0  0  0  0
   -2.2919   -2.5603    0.0000 O   0  0  0  0  0  0  0  0  0  0  0  0
    0.0482    2.0373    0.0000 N   0  0  0  0  0  0  0  0  0  0  0  0
   -0.2685    1.2802    0.0000 N   0  0  0  0  0  0  0  0  0  0  0  0
   -1.6449    0.7433    0.0000 N   0  0  0  0  0  0  0  0  0  0  0  0
   -2.0028    3.4000    0.0000 N   0  0  0  0  0  0  0  0  0  0  0  0
    0.5712    0.0688    0.0000 N   0  0  0  0  0  0  0  0  0  0  0  0
   -1.2595    2.1611    0.0000 C   0  0  0  0  0  0  0  0  0  0  0  0
   -0.5712    2.5879    0.0000 C   0  0  0  0  0  0  0  0  0  0  0  0
   -1.0943    1.3627    0.0000 C   0  0  0  0  0  0  0  0  0  0  0  0
    0.8603    2.2162    0.0000 C   0  0  3  0  0  0  0  0  0  0  0  0
   -2.0028    2.5741    0.0000 C   0  0  0  0  0  0  0  0  0  0  0  0
   -0.5712    3.4137    0.0000 C   0  0  0  0  0  0  0  0  0  0  0  0
   -1.6449   -1.7344    0.0000 C   0  0  0  0  0  0  0  0  0  0  0  0
   -1.6449   -0.0964    0.0000 C   0  0  0  0  0  0  0  0  0  0  0  0
   -0.7364   -2.9732    0.0000 C   0  0  0  0  0  0  0  0  0  0  0  0
    1.3696    1.5830    0.0000 C   0  0  3  0  0  0  0  0  0  0  0  0
   -1.3146    3.8129    0.0000 C   0  0  0  0  0  0  0  0  0  0  0  0
    1.0530    3.0284    0.0000 C   0  0  0  0  0  0  0  0  0  0  0  0
   -2.3470   -1.3214    0.0000 C   0  0  0  0  0  0  0  0  0  0  0  0
   -0.9291   -1.3352    0.0000 C   0  0  0  0  0  0  0  0  0  0  0  0
   -2.3470   -0.5093    0.0000 C   0  0  0  0  0  0  0  0  0  0  0  0
   -0.9291   -0.5093    0.0000 C   0  0  0  0  0  0  0  0  0  0  0  0
    2.1818    1.5830    0.0000 C   0  0  0  0  0  0  0  0  0  0  0  0
    0.9980    0.8535    0.0000 C   0  0  0  0  0  0  0  0  0  0  0  0
    1.7826    3.3725    0.0000 C   0  0  0  0  0  0  0  0  0  0  0  0
   -0.0344   -2.5328    0.0000 C   0  0  0  0  0  0  0  0  0  0  0  0
   -0.0206   -3.4000    0.0000 C   0  0  0  0  0  0  0  0  0  0  0  0
   -0.7364   -3.8129    0.0000 C   0  0  0  0  0  0  0  0  0  0  0  0
    2.7049    2.2299    0.0000 C   0  0  0  0  0  0  0  0  0  0  0  0
    2.5259    3.0146    0.0000 C   0  0  0  0  0  0  0  0  0  0  0  0
  1  3  2  0  0  0  0
  1  4  2  0  0  0  0
  1 16  1  0  0  0  0
  1 18  1  0  0  0  0
  2 14  2  0  0  0  0
  5  6  1  0  0  0  0
  5 11  1  0  0  0  0
 13  5  1  6  0  0  0
  6 12  2  0  0  0  0
  7 12  1  0  0  0  0
  7 17  1  0  0  0  0
  8 14  1  0  0  0  0
  8 20  1  0  0  0  0
  9 27  3  0  0  0  0
 10 11  2  0  0  0  0
 10 12  1  0  0  0  0
 10 14  1  0  0  0  0
 11 15  1  0  0  0  0
 13 19  1  0  0  0  0
 13 21  1  0  0  0  0
 15 20  2  0  0  0  0
 16 22  2  0  0  0  0
 16 23  1  0  0  0  0
 17 24  2  0  0  0  0
 17 25  1  0  0  0  0
 18 29  1  0  0  0  0
 18 30  1  0  0  0  0
 18 31  1  0  0  0  0
 19 26  1  0  0  0  0
 19 27  1  6  0  0  0
 21 28  1  0  0  0  0
 22 24  1  0  0  0  0
 23 25  2  0  0  0  0
 26 32  1  0  0  0  0
 28 33  1  0  0  0  0
 32 33  1  0  0  0  0
M  END
> <PUBCHEM_COMPOUND_ID_TYPE>
0

> <PUBCHEM_TOTAL_CHARGE>
0

> <PUBCHEM_SUBSTANCE_ID>
310948640

> <PUBCHEM_SUBSTANCE_VERSION>
1

> <PUBCHEM_EXT_DATASOURCE_NAME>
4488

> <PUBCHEM_EXT_DATASOURCE_REGID>
SCHEMBL16126824

> <PUBCHEM_SUBSTANCE_COMMENT>
InChI=1S/C24H29N5O3S/c1-24(2,3)33(31,32)18-11-9-17(10-12-18)27-22-21-20(13-14-26-23(21)30)29(28-22)19-8-6-4-5-7-16(19)15-25/h9-14,16,19H,4-8H2,1-3H3,(H,26,30)(H,27,28)/t16-,19-/m1/s1
InChIKey=GZAHUQDDMULFOK-VQIMIIECSA-N

> <PUBCHEM_SUBSTANCE_SYNONYM>
SCHEMBL16126824

> <PUBCHEM_XREF_EXT_ID>
SCHEMBL16126824

> <PUBCHEM_EXT_DATASOURCE_URL>
https://www.surechembl.org/

> <PUBCHEM_EXT_SUBSTANCE_URL>
https://www.surechembl.org/chemical/SCHEMBL16126824

> <PUBCHEM_CID_ASSOCIATIONS>
117614184  1

> <PUBCHEM_COORDINATE_TYPE>
1
3

> <PUBCHEM_BONDANNOTATIONS>
19  27  6
13  5  6

$$$$
