310947375
  -OEChem-07211613022D

 31 34  0     1  0  0  0  0  0999 V2000
   -1.4565    1.9629    0.0000 O   0  0  0  0  0  0  0  0  0  0  0  0
    1.4715   -0.3546    0.0000 N   0  0  0  0  0  0  0  0  0  0  0  0
    1.9564    0.3129    0.0000 N   0  0  0  0  0  0  0  0  0  0  0  0
   -2.1710    0.7254    0.0000 N   0  0  0  0  0  0  0  0  0  0  0  0
    5.0289    0.1716    0.0000 N   0  0  0  0  0  0  0  0  0  0  0  0
    0.6869   -0.0996    0.0000 C   0  0  0  0  0  0  0  0  0  0  0  0
    0.6869    0.7254    0.0000 C   0  0  0  0  0  0  0  0  0  0  0  0
    1.4715    0.9803    0.0000 C   0  0  0  0  0  0  0  0  0  0  0  0
   -0.0276    1.1379    0.0000 C   0  0  0  0  0  0  0  0  0  0  0  0
   -0.7421    0.7254    0.0000 C   0  0  0  0  0  0  0  0  0  0  0  0
   -0.0276   -0.5121    0.0000 C   0  0  0  0  0  0  0  0  0  0  0  0
    1.6850   -1.1514    0.0000 C   0  0  0  0  0  0  0  0  0  0  0  0
   -0.7421   -0.0996    0.0000 C   0  0  0  0  0  0  0  0  0  0  0  0
   -1.4565    1.1379    0.0000 C   0  0  0  0  0  0  0  0  0  0  0  0
    2.4819   -1.3650    0.0000 C   0  0  0  0  0  0  0  0  0  0  0  0
    1.8840    1.6948    0.0000 C   0  0  0  0  0  0  0  0  0  0  0  0
   -2.8855    1.1379    0.0000 C   0  0  3  0  0  0  0  0  0  0  0  0
    3.0653   -0.7816    0.0000 C   0  0  0  0  0  0  0  0  0  0  0  0
    2.6954   -2.1619    0.0000 C   0  0  0  0  0  0  0  0  0  0  0  0
   -3.5999    0.7254    0.0000 C   0  0  0  0  0  0  0  0  0  0  0  0
    3.8622   -0.9951    0.0000 C   0  0  0  0  0  0  0  0  0  0  0  0
    3.4923   -2.3754    0.0000 C   0  0  0  0  0  0  0  0  0  0  0  0
    4.0757   -1.7920    0.0000 C   0  0  0  0  0  0  0  0  0  0  0  0
   -2.8855    1.9629    0.0000 C   0  0  0  0  0  0  0  0  0  0  0  0
   -4.3144    1.1379    0.0000 C   0  0  0  0  0  0  0  0  0  0  0  0
   -3.5999   -0.0996    0.0000 C   0  0  0  0  0  0  0  0  0  0  0  0
    4.4455   -0.4118    0.0000 C   0  0  0  0  0  0  0  0  0  0  0  0
   -5.0289    0.7254    0.0000 C   0  0  0  0  0  0  0  0  0  0  0  0
   -4.3144   -0.5121    0.0000 C   0  0  0  0  0  0  0  0  0  0  0  0
   -5.0289   -0.0996    0.0000 C   0  0  0  0  0  0  0  0  0  0  0  0
   -2.1710    2.3754    0.0000 C   0  0  0  0  0  0  0  0  0  0  0  0
  1 14  2  0  0  0  0
  2  3  1  0  0  0  0
  2  6  1  0  0  0  0
  2 12  1  0  0  0  0
  3  8  2  0  0  0  0
  4 14  1  0  0  0  0
 17  4  1  6  0  0  0
  5 27  3  0  0  0  0
  6  7  1  0  0  0  0
  6 11  2  0  0  0  0
  7  8  1  0  0  0  0
  7  9  2  0  0  0  0
  8 16  1  0  0  0  0
  9 10  1  0  0  0  0
 10 13  2  0  0  0  0
 10 14  1  0  0  0  0
 11 13  1  0  0  0  0
 12 15  1  0  0  0  0
 15 18  1  0  0  0  0
 15 19  2  0  0  0  0
 17 20  1  0  0  0  0
 17 24  1  0  0  0  0
 18 21  2  0  0  0  0
 19 22  1  0  0  0  0
 20 25  2  0  0  0  0
 20 26  1  0  0  0  0
 21 23  1  0  0  0  0
 21 27  1  0  0  0  0
 22 23  2  0  0  0  0
 24 31  1  0  0  0  0
 25 28  1  0  0  0  0
 26 29  2  0  0  0  0
 28 30  2  0  0  0  0
 29 30  1  0  0  0  0
M  END
> <PUBCHEM_COMPOUND_ID_TYPE>
0

> <PUBCHEM_TOTAL_CHARGE>
0

> <PUBCHEM_SUBSTANCE_ID>
310947375

> <PUBCHEM_SUBSTANCE_VERSION>
1

> <PUBCHEM_EXT_DATASOURCE_NAME>
4488

> <PUBCHEM_EXT_DATASOURCE_REGID>
SCHEMBL16125531

> <PUBCHEM_SUBSTANCE_COMMENT>
InChI=1S/C26H24N4O/c1-3-24(21-10-5-4-6-11-21)28-26(31)22-12-13-25-23(15-22)18(2)29-30(25)17-20-9-7-8-19(14-20)16-27/h4-15,24H,3,17H2,1-2H3,(H,28,31)/t24-/m0/s1
InChIKey=MQGNWSPEGXCRBK-DEOSSOPVSA-N

> <PUBCHEM_SUBSTANCE_SYNONYM>
SCHEMBL16125531

> <PUBCHEM_XREF_EXT_ID>
SCHEMBL16125531

> <PUBCHEM_EXT_DATASOURCE_URL>
https://www.surechembl.org/

> <PUBCHEM_EXT_SUBSTANCE_URL>
https://www.surechembl.org/chemical/SCHEMBL16125531

> <PUBCHEM_CID_ASSOCIATIONS>
117613119  1

> <PUBCHEM_COORDINATE_TYPE>
1
3

> <PUBCHEM_BONDANNOTATIONS>
17  4  6

$$$$
