310943976
  -OEChem-07211613022D

 30 34  0     0  0  0  0  0  0999 V2000
   -2.0264    1.4698    0.0000 F   0  0  0  0  0  0  0  0  0  0  0  0
    0.2870    0.2000    0.0000 N   0  0  0  0  0  0  0  0  0  0  0  0
    0.1130    1.0350    0.0000 N   0  0  0  0  0  0  0  0  0  0  0  0
   -2.0439   -2.7048    0.0000 N   0  0  0  0  0  0  0  0  0  0  0  0
    0.1305   -0.6000    0.0000 C   0  0  0  0  0  0  0  0  0  0  0  0
    0.8436   -1.0002    0.0000 C   0  0  0  0  0  0  0  0  0  0  0  0
    1.1219    0.3044    0.0000 C   0  0  0  0  0  0  0  0  0  0  0  0
   -0.5827   -1.0176    0.0000 C   0  0  0  0  0  0  0  0  0  0  0  0
    1.4524   -0.4435    0.0000 C   0  0  0  0  0  0  0  0  0  0  0  0
   -1.3481   -0.6000    0.0000 C   0  0  0  0  0  0  0  0  0  0  0  0
    0.3044    1.0524    0.0000 C   0  0  0  0  0  0  0  0  0  0  0  0
    0.8436   -1.8525    0.0000 C   0  0  0  0  0  0  0  0  0  0  0  0
   -1.3133    0.2522    0.0000 C   0  0  0  0  0  0  0  0  0  0  0  0
   -0.5827   -1.8525    0.0000 C   0  0  0  0  0  0  0  0  0  0  0  0
   -2.0439   -1.0176    0.0000 C   0  0  0  0  0  0  0  0  0  0  0  0
    1.5916    0.9654    0.0000 C   0  0  0  0  0  0  0  0  0  0  0  0
    2.2874   -0.5305    0.0000 C   0  0  0  0  0  0  0  0  0  0  0  0
    0.1130   -2.2526    0.0000 C   0  0  0  0  0  0  0  0  0  0  0  0
   -2.0439    0.6522    0.0000 C   0  0  0  0  0  0  0  0  0  0  0  0
    1.0002    1.4698    0.0000 C   0  0  0  0  0  0  0  0  0  0  0  0
   -0.4261    1.4524    0.0000 C   0  0  0  0  0  0  0  0  0  0  0  0
    2.4091    0.8958    0.0000 C   0  0  0  0  0  0  0  0  0  0  0  0
    2.7569    0.1478    0.0000 C   0  0  0  0  0  0  0  0  0  0  0  0
   -2.7569   -0.5827    0.0000 C   0  0  0  0  0  0  0  0  0  0  0  0
   -2.7396    0.2522    0.0000 C   0  0  0  0  0  0  0  0  0  0  0  0
   -0.6000    0.6522    0.0000 C   0  0  0  0  0  0  0  0  0  0  0  0
   -2.0439   -1.8873    0.0000 C   0  0  0  0  0  0  0  0  0  0  0  0
    1.0002    2.3048    0.0000 C   0  0  0  0  0  0  0  0  0  0  0  0
   -0.4261    2.3048    0.0000 C   0  0  0  0  0  0  0  0  0  0  0  0
    0.2870    2.7048    0.0000 C   0  0  0  0  0  0  0  0  0  0  0  0
  1 19  1  0  0  0  0
  2  5  1  0  0  0  0
  2  7  1  0  0  0  0
  2 11  1  0  0  0  0
  3 26  3  0  0  0  0
  4 27  3  0  0  0  0
  5  6  2  0  0  0  0
  5  8  1  0  0  0  0
  6  9  1  0  0  0  0
  6 12  1  0  0  0  0
  7  9  2  0  0  0  0
  7 16  1  0  0  0  0
  8 10  1  0  0  0  0
  8 14  2  0  0  0  0
  9 17  1  0  0  0  0
 10 13  1  0  0  0  0
 10 15  2  0  0  0  0
 11 20  2  0  0  0  0
 11 21  1  0  0  0  0
 12 18  2  0  0  0  0
 13 19  2  0  0  0  0
 13 26  1  0  0  0  0
 14 18  1  0  0  0  0
 15 24  1  0  0  0  0
 15 27  1  0  0  0  0
 16 22  2  0  0  0  0
 17 23  2  0  0  0  0
 19 25  1  0  0  0  0
 20 28  1  0  0  0  0
 21 29  2  0  0  0  0
 22 23  1  0  0  0  0
 24 25  2  0  0  0  0
 28 30  2  0  0  0  0
 29 30  1  0  0  0  0
M  END
> <PUBCHEM_COMPOUND_ID_TYPE>
0

> <PUBCHEM_TOTAL_CHARGE>
0

> <PUBCHEM_SUBSTANCE_ID>
310943976

> <PUBCHEM_SUBSTANCE_VERSION>
1

> <PUBCHEM_EXT_DATASOURCE_NAME>
4488

> <PUBCHEM_EXT_DATASOURCE_REGID>
SCHEMBL16122047

> <PUBCHEM_SUBSTANCE_COMMENT>
InChI=1S/C26H14FN3/c27-23-14-13-17(15-28)25(22(23)16-29)21-11-6-10-20-19-9-4-5-12-24(19)30(26(20)21)18-7-2-1-3-8-18/h1-14H
InChIKey=KGGXUNRUSOMKSL-UHFFFAOYSA-N

> <PUBCHEM_SUBSTANCE_SYNONYM>
SCHEMBL16122047

> <PUBCHEM_XREF_EXT_ID>
SCHEMBL16122047

> <PUBCHEM_EXT_DATASOURCE_URL>
https://www.surechembl.org/

> <PUBCHEM_EXT_SUBSTANCE_URL>
https://www.surechembl.org/chemical/SCHEMBL16122047

> <PUBCHEM_CID_ASSOCIATIONS>
117610283  1

> <PUBCHEM_COORDINATE_TYPE>
1
3

$$$$
