310942497
  -OEChem-07211613022D

 76 80  0     1  0  0  0  0  0999 V2000
    9.7181    0.9464    0.0000 F   0  0  0  0  0  0  0  0  0  0  0  0
    4.4253   -2.5062    0.0000 F   0  0  0  0  0  0  0  0  0  0  0  0
   10.0161   -3.5052    0.0000 F   0  0  0  0  0  0  0  0  0  0  0  0
    4.3727    0.0526    0.0000 O   0  0  0  0  0  0  0  0  0  0  0  0
    4.4253    1.6124    0.0000 O   0  0  0  0  0  0  0  0  0  0  0  0
    2.4624    0.4732    0.0000 O   0  0  0  0  0  0  0  0  0  0  0  0
    1.7438   -0.7712    0.0000 O   0  0  0  0  0  0  0  0  0  0  0  0
   -1.8490    0.4732    0.0000 O   0  0  0  0  0  0  0  0  0  0  0  0
   -4.0047   -1.5948    0.0000 O   0  0  0  0  0  0  0  0  0  0  0  0
   -6.1428    0.4732    0.0000 O   0  0  0  0  0  0  0  0  0  0  0  0
   -4.7232   -2.0154    0.0000 O   0  0  0  0  0  0  0  0  0  0  0  0
    7.9305   -0.5608    0.0000 N   0  0  0  0  0  0  0  0  0  0  0  0
    5.7397   -0.2278    0.0000 N   0  0  0  0  0  0  0  0  0  0  0  0
    7.2644    0.6134    0.0000 N   0  0  0  0  0  0  0  0  0  0  0  0
    3.1985   -0.7536    0.0000 N   0  0  0  0  0  0  0  0  0  0  0  0
   -1.1129   -0.7712    0.0000 N   0  0  0  0  0  0  0  0  0  0  0  0
   -3.2686   -0.3505    0.0000 N   0  0  0  0  0  0  0  0  0  0  0  0
   -5.4242   -0.7712    0.0000 N   0  0  0  0  0  0  0  0  0  0  0  0
   -3.9871   -3.2598    0.0000 N   0  0  0  0  0  0  0  0  0  0  0  0
   -5.4242   -3.2598    0.0000 N   0  0  0  0  0  0  0  0  0  0  0  0
  -10.4542   -0.3505    0.0000 N   0  0  0  0  0  0  0  0  0  0  0  0
    6.4758   -0.6309    0.0000 C   0  0  3  0  0  0  0  0  0  0  0  0
    7.1768   -0.2103    0.0000 C   0  0  0  0  0  0  0  0  0  0  0  0
    6.4583   -1.4721    0.0000 C   0  0  0  0  0  0  0  0  0  0  0  0
    8.0707    0.7712    0.0000 C   0  0  0  0  0  0  0  0  0  0  0  0
    8.4913    0.0526    0.0000 C   0  0  0  0  0  0  0  0  0  0  0  0
    8.4036    1.5598    0.0000 C   0  0  0  0  0  0  0  0  0  0  0  0
    5.1439    0.3856    0.0000 C   0  0  0  0  0  0  0  0  0  0  0  0
    5.3367   -0.9289    0.0000 C   0  0  0  0  0  0  0  0  0  0  0  0
    8.1057   -1.3495    0.0000 C   0  0  0  0  0  0  0  0  0  0  0  0
    4.5129   -1.0165    0.0000 C   0  0  3  0  0  0  0  0  0  0  0  0
    9.2449    1.6124    0.0000 C   0  0  0  0  0  0  0  0  0  0  0  0
    7.9480    2.2258    0.0000 C   0  0  0  0  0  0  0  0  0  0  0  0
    4.0923   -1.7351    0.0000 C   0  0  3  0  0  0  0  0  0  0  0  0
    8.8944   -1.6124    0.0000 C   0  0  0  0  0  0  0  0  0  0  0  0
    5.7397   -1.8927    0.0000 C   0  0  0  0  0  0  0  0  0  0  0  0
    7.1943   -1.8577    0.0000 C   0  0  0  0  0  0  0  0  0  0  0  0
    6.4758   -2.2959    0.0000 C   0  0  0  0  0  0  0  0  0  0  0  0
    5.1439    1.1918    0.0000 C   0  0  3  0  0  0  0  0  0  0  0  0
    3.9521   -0.4206    0.0000 C   0  0  0  0  0  0  0  0  0  0  0  0
    3.2861   -1.5598    0.0000 C   0  0  0  0  0  0  0  0  0  0  0  0
    8.2635    2.9619    0.0000 C   0  0  0  0  0  0  0  0  0  0  0  0
    9.5604    2.3835    0.0000 C   0  0  0  0  0  0  0  0  0  0  0  0
    9.0872    3.0495    0.0000 C   0  0  0  0  0  0  0  0  0  0  0  0
    9.0697   -2.4186    0.0000 C   0  0  0  0  0  0  0  0  0  0  0  0
    2.4799   -0.3329    0.0000 C   0  0  0  0  0  0  0  0  0  0  0  0
    9.5078   -1.0691    0.0000 C   0  0  0  0  0  0  0  0  0  0  0  0
    9.8583   -2.6815    0.0000 C   0  0  0  0  0  0  0  0  0  0  0  0
    5.8624    1.6124    0.0000 C   0  0  0  0  0  0  0  0  0  0  0  0
   10.2789   -1.3320    0.0000 C   0  0  0  0  0  0  0  0  0  0  0  0
    7.8429    3.5052    0.0000 C   0  0  0  0  0  0  0  0  0  0  0  0
   10.4542   -2.1207    0.0000 C   0  0  0  0  0  0  0  0  0  0  0  0
    1.7438    0.8939    0.0000 C   0  0  0  0  0  0  0  0  0  0  0  0
    1.0428    0.4907    0.0000 C   0  0  0  0  0  0  0  0  0  0  0  0
    0.2892    0.8763    0.0000 C   0  0  0  0  0  0  0  0  0  0  0  0
    1.0253   -0.3505    0.0000 C   0  0  0  0  0  0  0  0  0  0  0  0
   -0.4118   -0.3505    0.0000 C   0  0  0  0  0  0  0  0  0  0  0  0
   -0.3768    0.4732    0.0000 C   0  0  0  0  0  0  0  0  0  0  0  0
    0.3242   -0.7536    0.0000 C   0  0  0  0  0  0  0  0  0  0  0  0
   -1.8490   -0.3680    0.0000 C   0  0  0  0  0  0  0  0  0  0  0  0
   -2.5501   -0.7712    0.0000 C   0  0  3  0  0  0  0  0  0  0  0  0
   -3.9871   -0.7361    0.0000 C   0  0  0  0  0  0  0  0  0  0  0  0
   -4.7232   -0.3505    0.0000 C   0  0  3  0  0  0  0  0  0  0  0  0
   -2.5325   -1.5773    0.0000 C   0  0  0  0  0  0  0  0  0  0  0  0
   -4.7056    0.5082    0.0000 C   0  0  0  0  0  0  0  0  0  0  0  0
   -6.1603   -0.3680    0.0000 C   0  0  0  0  0  0  0  0  0  0  0  0
   -3.2510   -1.9979    0.0000 C   0  0  0  0  0  0  0  0  0  0  0  0
   -5.4067    0.9114    0.0000 C   0  0  0  0  0  0  0  0  0  0  0  0
   -3.9696    0.8763    0.0000 C   0  0  0  0  0  0  0  0  0  0  0  0
   -6.8439   -0.7536    0.0000 C   0  0  0  0  0  0  0  0  0  0  0  0
   -3.2861   -2.8567    0.0000 C   0  0  0  0  0  0  0  0  0  0  0  0
   -7.5799   -0.3505    0.0000 C   0  0  0  0  0  0  0  0  0  0  0  0
   -4.7056   -2.8567    0.0000 C   0  0  0  0  0  0  0  0  0  0  0  0
   -8.2810   -0.7536    0.0000 C   0  0  0  0  0  0  0  0  0  0  0  0
   -9.0170   -0.3505    0.0000 C   0  0  0  0  0  0  0  0  0  0  0  0
   -9.7181   -0.7536    0.0000 C   0  0  0  0  0  0  0  0  0  0  0  0
  1 32  1  0  0  0  0
 34  2  1  1  0  0  0
  3 48  1  0  0  0  0
  4 28  2  0  0  0  0
 39  5  1  6  0  0  0
  6 46  1  0  0  0  0
  6 53  1  0  0  0  0
  7 46  2  0  0  0  0
  8 60  2  0  0  0  0
  9 62  2  0  0  0  0
 10 66  2  0  0  0  0
 11 73  2  0  0  0  0
 12 23  1  0  0  0  0
 12 26  1  0  0  0  0
 12 30  1  0  0  0  0
 22 13  1  1  0  0  0
 13 28  1  0  0  0  0
 13 29  1  0  0  0  0
 14 23  2  0  0  0  0
 14 25  1  0  0  0  0
 15 40  1  0  0  0  0
 15 41  1  0  0  0  0
 15 46  1  0  0  0  0
 16 57  1  0  0  0  0
 16 60  1  0  0  0  0
 61 17  1  6  0  0  0
 17 62  1  0  0  0  0
 63 18  1  1  0  0  0
 18 66  1  0  0  0  0
 19 71  1  0  0  0  0
 19 73  1  0  0  0  0
 20 73  1  0  0  0  0
 21 76  1  0  0  0  0
 22 23  1  0  0  0  0
 22 24  1  0  0  0  0
 24 36  1  0  0  0  0
 24 37  1  0  0  0  0
 24 38  1  0  0  0  0
 25 26  2  0  0  0  0
 25 27  1  0  0  0  0
 27 32  2  0  0  0  0
 27 33  1  0  0  0  0
 28 39  1  0  0  0  0
 31 29  1  1  0  0  0
 30 35  1  0  0  0  0
 31 34  1  0  0  0  0
 31 40  1  0  0  0  0
 32 43  1  0  0  0  0
 33 42  2  0  0  0  0
 34 41  1  0  0  0  0
 35 45  2  0  0  0  0
 35 47  1  0  0  0  0
 39 49  1  0  0  0  0
 42 44  1  0  0  0  0
 42 51  1  0  0  0  0
 43 44  2  0  0  0  0
 45 48  1  0  0  0  0
 47 50  2  0  0  0  0
 48 52  2  0  0  0  0
 50 52  1  0  0  0  0
 53 54  1  0  0  0  0
 54 55  2  0  0  0  0
 54 56  1  0  0  0  0
 55 58  1  0  0  0  0
 56 59  2  0  0  0  0
 57 58  2  0  0  0  0
 57 59  1  0  0  0  0
 60 61  1  0  0  0  0
 61 64  1  0  0  0  0
 62 63  1  0  0  0  0
 63 65  1  0  0  0  0
 64 67  1  0  0  0  0
 65 68  1  0  0  0  0
 65 69  1  0  0  0  0
 66 70  1  0  0  0  0
 67 71  1  0  0  0  0
 70 72  1  0  0  0  0
 72 74  1  0  0  0  0
 74 75  1  0  0  0  0
 75 76  1  0  0  0  0
M  END
> <PUBCHEM_COMPOUND_ID_TYPE>
0

> <PUBCHEM_TOTAL_CHARGE>
0

> <PUBCHEM_SUBSTANCE_ID>
310942497

> <PUBCHEM_SUBSTANCE_VERSION>
1

> <PUBCHEM_EXT_DATASOURCE_NAME>
4488

> <PUBCHEM_EXT_DATASOURCE_REGID>
SCHEMBL16120533

> <PUBCHEM_SUBSTANCE_COMMENT>
InChI=1S/C55H75F3N10O8/c1-33(2)47(65-46(70)16-9-8-10-23-59)51(72)64-44(15-12-24-61-53(60)74)50(71)62-40-20-18-36(19-21-40)32-76-54(75)67-28-38(43(58)30-67)29-68(52(73)35(4)69)48(55(5,6)7)49-63-45(41-25-34(3)17-22-42(41)57)31-66(49)27-37-13-11-14-39(56)26-37/h11,13-14,17-22,25-26,31,33,35,38,43-44,47-48,69H,8-10,12,15-16,23-24,27-30,32,59H2,1-7H3,(H,62,71)(H,64,72)(H,65,70)(H3,60,61,74)/t35-,38+,43+,44+,47+,48+/m1/s1
InChIKey=ZZTWUXAIBSNXBA-VHUOUPDNSA-N

> <PUBCHEM_SUBSTANCE_SYNONYM>
SCHEMBL16120533

> <PUBCHEM_XREF_EXT_ID>
SCHEMBL16120533

> <PUBCHEM_EXT_DATASOURCE_URL>
https://www.surechembl.org/

> <PUBCHEM_EXT_SUBSTANCE_URL>
https://www.surechembl.org/chemical/SCHEMBL16120533

> <PUBCHEM_CID_ASSOCIATIONS>
117609067  1

> <PUBCHEM_COORDINATE_TYPE>
1
3

> <PUBCHEM_BONDANNOTATIONS>
22  13  5
61  17  6
63  18  5
34  2  5
31  29  5
39  5  6

$$$$
