310948896
  -OEChem-07211613022D

 52 53  0     1  0  0  0  0  0999 V2000
    5.3793    0.0000    0.0000 P   0  0  3  0  0  0  0  0  0  0  0  0
    9.0275   -1.9110    0.0000 F   0  0  0  0  0  0  0  0  0  0  0  0
    8.1961    0.0745    0.0000 O   0  0  0  0  0  0  0  0  0  0  0  0
    7.3647   -1.9234    0.0000 O   0  0  0  0  0  0  0  0  0  0  0  0
    6.0866   -0.4095    0.0000 O   0  0  0  0  0  0  0  0  0  0  0  0
   10.4669   -0.8438    0.0000 O   0  0  0  0  0  0  0  0  0  0  0  0
   11.1990    1.9234    0.0000 O   0  0  0  0  0  0  0  0  0  0  0  0
    4.9574   -0.7197    0.0000 O   0  0  0  0  0  0  0  0  0  0  0  0
    5.3793    0.8314    0.0000 O   0  0  0  0  0  0  0  0  0  0  0  0
   -0.4653   -1.2409    0.0000 O   0  0  0  0  0  0  0  0  0  0  0  0
    9.4742    0.1737    0.0000 N   0  0  0  0  0  0  0  0  0  0  0  0
   10.8516    0.5460    0.0000 N   0  0  0  0  0  0  0  0  0  0  0  0
    4.5603    0.0000    0.0000 N   0  0  0  0  0  0  0  0  0  0  0  0
    2.4136   -0.4095    0.0000 N   0  0  0  0  0  0  0  0  0  0  0  0
    0.2668    0.0000    0.0000 N   0  0  0  0  0  0  0  0  0  0  0  0
    8.6304   -1.1913    0.0000 C   0  0  3  0  0  0  0  0  0  0  0  0
    8.8661   -0.4095    0.0000 C   0  0  3  0  0  0  0  0  0  0  0  0
    7.7865   -1.1913    0.0000 C   0  0  3  0  0  0  0  0  0  0  0  0
    7.5384   -0.4095    0.0000 C   0  0  3  0  0  0  0  0  0  0  0  0
   10.2559   -0.0372    0.0000 C   0  0  0  0  0  0  0  0  0  0  0  0
    9.4494   -1.2037    0.0000 C   0  0  0  0  0  0  0  0  0  0  0  0
    6.8187    0.0000    0.0000 C   0  0  0  0  0  0  0  0  0  0  0  0
    9.2633    0.9679    0.0000 C   0  0  0  0  0  0  0  0  0  0  0  0
   10.6282    1.3402    0.0000 C   0  0  0  0  0  0  0  0  0  0  0  0
    9.8340    1.5511    0.0000 C   0  0  0  0  0  0  0  0  0  0  0  0
    3.8529   -0.4095    0.0000 C   0  0  0  0  0  0  0  0  0  0  0  0
    5.3793   -1.4270    0.0000 C   0  0  0  0  0  0  0  0  0  0  0  0
    3.1209    0.0000    0.0000 C   0  0  0  0  0  0  0  0  0  0  0  0
    1.6814    0.0000    0.0000 C   0  0  0  0  0  0  0  0  0  0  0  0
    0.9865   -0.4095    0.0000 C   0  0  0  0  0  0  0  0  0  0  0  0
   -0.4529   -0.3971    0.0000 C   0  0  0  0  0  0  0  0  0  0  0  0
   -1.1850    0.0000    0.0000 C   0  0  0  0  0  0  0  0  0  0  0  0
   -1.8799   -0.4095    0.0000 C   0  0  0  0  0  0  0  0  0  0  0  0
   -2.6121    0.0000    0.0000 C   0  0  0  0  0  0  0  0  0  0  0  0
   -3.3070   -0.3971    0.0000 C   0  0  0  0  0  0  0  0  0  0  0  0
   -3.3194   -1.2409    0.0000 C   0  0  0  0  0  0  0  0  0  0  0  0
   -4.0266   -1.6504    0.0000 C   0  0  0  0  0  0  0  0  0  0  0  0
   -4.7588   -1.2284    0.0000 C   0  0  0  0  0  0  0  0  0  0  0  0
   -4.7588   -0.4095    0.0000 C   0  0  0  0  0  0  0  0  0  0  0  0
   -5.4785    0.0000    0.0000 C   0  0  0  0  0  0  0  0  0  0  0  0
   -6.1734   -0.3971    0.0000 C   0  0  0  0  0  0  0  0  0  0  0  0
   -6.1858   -1.2409    0.0000 C   0  0  0  0  0  0  0  0  0  0  0  0
   -6.9055   -1.6504    0.0000 C   0  0  0  0  0  0  0  0  0  0  0  0
   -7.6128   -1.2409    0.0000 C   0  0  0  0  0  0  0  0  0  0  0  0
   -7.6128   -0.4095    0.0000 C   0  0  0  0  0  0  0  0  0  0  0  0
   -8.3450    0.0000    0.0000 C   0  0  0  0  0  0  0  0  0  0  0  0
   -9.0398   -0.4095    0.0000 C   0  0  0  0  0  0  0  0  0  0  0  0
   -9.0523   -1.2409    0.0000 C   0  0  0  0  0  0  0  0  0  0  0  0
   -9.7720   -1.6504    0.0000 C   0  0  0  0  0  0  0  0  0  0  0  0
  -10.4793   -1.2409    0.0000 C   0  0  0  0  0  0  0  0  0  0  0  0
  -10.4793   -0.4095    0.0000 C   0  0  0  0  0  0  0  0  0  0  0  0
  -11.1990   -0.0124    0.0000 C   0  0  0  0  0  0  0  0  0  0  0  0
  1  5  1  0  0  0  0
  1  8  1  0  0  0  0
  1  9  2  0  0  0  0
  1 13  1  0  0  0  0
 16  2  1  6  0  0  0
  3 17  1  0  0  0  0
  3 19  1  0  0  0  0
 18  4  1  6  0  0  0
  5 22  1  0  0  0  0
  6 20  2  0  0  0  0
  7 24  2  0  0  0  0
  8 27  1  0  0  0  0
 10 31  2  0  0  0  0
 11 17  1  0  0  0  0
 11 20  1  0  0  0  0
 11 23  1  0  0  0  0
 12 20  1  0  0  0  0
 12 24  1  0  0  0  0
 13 26  1  0  0  0  0
 14 28  1  0  0  0  0
 14 29  1  0  0  0  0
 15 30  1  0  0  0  0
 15 31  1  0  0  0  0
 16 17  1  0  0  0  0
 16 18  1  0  0  0  0
 16 21  1  1  0  0  0
 18 19  1  0  0  0  0
 19 22  1  1  0  0  0
 23 25  2  0  0  0  0
 24 25  1  0  0  0  0
 26 28  1  0  0  0  0
 29 30  1  0  0  0  0
 31 32  1  0  0  0  0
 32 33  1  0  0  0  0
 33 34  1  0  0  0  0
 34 35  2  0  0  0  0
 35 36  1  0  0  0  0
 36 37  1  0  0  0  0
 37 38  2  0  0  0  0
 38 39  1  0  0  0  0
 39 40  1  0  0  0  0
 40 41  2  0  0  0  0
 41 42  1  0  0  0  0
 42 43  1  0  0  0  0
 43 44  2  0  0  0  0
 44 45  1  0  0  0  0
 45 46  1  0  0  0  0
 46 47  2  0  0  0  0
 47 48  1  0  0  0  0
 48 49  1  0  0  0  0
 49 50  2  0  0  0  0
 50 51  1  0  0  0  0
 51 52  1  0  0  0  0
M  END
> <PUBCHEM_COMPOUND_ID_TYPE>
0

> <PUBCHEM_TOTAL_CHARGE>
0

> <PUBCHEM_SUBSTANCE_ID>
310948896

> <PUBCHEM_SUBSTANCE_VERSION>
1

> <PUBCHEM_EXT_DATASOURCE_NAME>
4488

> <PUBCHEM_EXT_DATASOURCE_REGID>
SCHEMBL16127081

> <PUBCHEM_SUBSTANCE_COMMENT>
InChI=1S/C37H57FN5O8P/c1-4-5-6-7-8-9-10-11-12-13-14-15-16-17-18-19-20-21-22-23-32(44)40-27-25-39-26-28-41-52(48,49-3)50-30-31-34(46)37(2,38)35(51-31)43-29-24-33(45)42-36(43)47/h5-6,8-9,11-12,14-15,17-18,20-21,24,29,31,34-35,39,46H,4,7,10,13,16,19,22-23,25-28,30H2,1-3H3,(H,40,44)(H,41,48)(H,42,45,47)/b6-5-,9-8-,12-11-,15-14-,18-17-,21-20-/t31-,34-,35?,37-,52?/m1/s1
InChIKey=UIYHDILXWVTKCO-VIRFCZPPSA-N

> <PUBCHEM_SUBSTANCE_SYNONYM>
SCHEMBL16127081

> <PUBCHEM_XREF_EXT_ID>
SCHEMBL16127081

> <PUBCHEM_EXT_DATASOURCE_URL>
https://www.surechembl.org/

> <PUBCHEM_EXT_SUBSTANCE_URL>
https://www.surechembl.org/chemical/SCHEMBL16127081

> <PUBCHEM_CID_ASSOCIATIONS>
117614423  1

> <PUBCHEM_COORDINATE_TYPE>
1
3

> <PUBCHEM_BONDANNOTATIONS>
16  21  5
19  22  5
16  2  6
18  4  6

$$$$
