310948920
  -OEChem-07211613022D

 56 59  0     1  0  0  0  0  0999 V2000
    3.0889    1.2455    0.0000 P   0  0  3  0  0  0  0  0  0  0  0  0
    5.8291   -1.0587    0.0000 F   0  0  0  0  0  0  0  0  0  0  0  0
    6.0284    1.0836    0.0000 O   0  0  0  0  0  0  0  0  0  0  0  0
    4.8202   -0.7224    0.0000 O   0  0  0  0  0  0  0  0  0  0  0  0
    3.7989    0.8220    0.0000 O   0  0  0  0  0  0  0  0  0  0  0  0
    3.0765    0.4110    0.0000 O   0  0  0  0  0  0  0  0  0  0  0  0
    7.3486    1.8434    0.0000 O   0  0  0  0  0  0  0  0  0  0  0  0
    3.0765    2.0676    0.0000 O   0  0  0  0  0  0  0  0  0  0  0  0
    9.8397    0.4110    0.0000 O   0  0  0  0  0  0  0  0  0  0  0  0
   -0.5107   -0.0125    0.0000 O   0  0  0  0  0  0  0  0  0  0  0  0
    7.3611    0.4110    0.0000 N   0  0  0  0  0  0  0  0  0  0  0  0
    8.7312    1.1334    0.0000 N   0  0  0  0  0  0  0  0  0  0  0  0
    2.3790    0.8220    0.0000 N   0  0  0  0  0  0  0  0  0  0  0  0
    0.2117    1.2455    0.0000 N   0  0  0  0  0  0  0  0  0  0  0  0
    6.0658   -0.2616    0.0000 C   0  0  3  0  0  0  0  0  0  0  0  0
    6.5266    0.4110    0.0000 C   0  0  3  0  0  0  0  0  0  0  0  0
    5.2437    0.0000    0.0000 C   0  0  3  0  0  0  0  0  0  0  0  0
    5.2561    0.8345    0.0000 C   0  0  3  0  0  0  0  0  0  0  0  0
    7.7721    1.1210    0.0000 C   0  0  0  0  0  0  0  0  0  0  0  0
    4.5213    1.2331    0.0000 C   0  0  0  0  0  0  0  0  0  0  0  0
    6.7508   -0.6726    0.0000 C   0  0  0  0  0  0  0  0  0  0  0  0
    7.7721   -0.2989    0.0000 C   0  0  0  0  0  0  0  0  0  0  0  0
    8.6066   -0.3114    0.0000 C   0  0  0  0  0  0  0  0  0  0  0  0
    9.0052    0.4110    0.0000 C   0  0  0  0  0  0  0  0  0  0  0  0
    3.0889   -0.4235    0.0000 C   0  0  0  0  0  0  0  0  0  0  0  0
    2.3665   -0.8345    0.0000 C   0  0  0  0  0  0  0  0  0  0  0  0
    2.3665   -1.6566    0.0000 C   0  0  0  0  0  0  0  0  0  0  0  0
    3.8113   -0.8345    0.0000 C   0  0  0  0  0  0  0  0  0  0  0  0
    1.6566   -0.4235    0.0000 C   0  0  0  0  0  0  0  0  0  0  0  0
    3.1014   -2.0676    0.0000 C   0  0  0  0  0  0  0  0  0  0  0  0
    3.8113   -1.6566    0.0000 C   0  0  0  0  0  0  0  0  0  0  0  0
    1.6441   -2.0676    0.0000 C   0  0  0  0  0  0  0  0  0  0  0  0
    1.6566    1.2455    0.0000 C   0  0  0  0  0  0  0  0  0  0  0  0
    0.9466   -0.8345    0.0000 C   0  0  0  0  0  0  0  0  0  0  0  0
    0.9466   -1.6566    0.0000 C   0  0  0  0  0  0  0  0  0  0  0  0
    0.9466    0.8345    0.0000 C   0  0  0  0  0  0  0  0  0  0  0  0
   -0.4982    0.8470    0.0000 C   0  0  0  0  0  0  0  0  0  0  0  0
   -1.2206    1.2455    0.0000 C   0  0  0  0  0  0  0  0  0  0  0  0
   -1.9306    0.8345    0.0000 C   0  0  0  0  0  0  0  0  0  0  0  0
   -1.9431   -0.0125    0.0000 C   0  0  0  0  0  0  0  0  0  0  0  0
   -2.6530   -0.4235    0.0000 C   0  0  0  0  0  0  0  0  0  0  0  0
   -3.3754    0.0000    0.0000 C   0  0  0  0  0  0  0  0  0  0  0  0
   -3.3754    0.8220    0.0000 C   0  0  0  0  0  0  0  0  0  0  0  0
   -4.0978    1.2331    0.0000 C   0  0  0  0  0  0  0  0  0  0  0  0
   -4.8078    0.8345    0.0000 C   0  0  0  0  0  0  0  0  0  0  0  0
   -4.8202   -0.0125    0.0000 C   0  0  0  0  0  0  0  0  0  0  0  0
   -5.5301   -0.4235    0.0000 C   0  0  0  0  0  0  0  0  0  0  0  0
   -6.2526    0.0000    0.0000 C   0  0  0  0  0  0  0  0  0  0  0  0
   -6.2526    0.8220    0.0000 C   0  0  0  0  0  0  0  0  0  0  0  0
   -6.9750    1.2331    0.0000 C   0  0  0  0  0  0  0  0  0  0  0  0
   -7.6850    0.8345    0.0000 C   0  0  0  0  0  0  0  0  0  0  0  0
   -7.6974   -0.0125    0.0000 C   0  0  0  0  0  0  0  0  0  0  0  0
   -8.4073   -0.4235    0.0000 C   0  0  0  0  0  0  0  0  0  0  0  0
   -9.1298    0.0000    0.0000 C   0  0  0  0  0  0  0  0  0  0  0  0
   -9.1298    0.8220    0.0000 C   0  0  0  0  0  0  0  0  0  0  0  0
   -9.8397    1.2206    0.0000 C   0  0  0  0  0  0  0  0  0  0  0  0
  1  5  1  0  0  0  0
  1  6  1  0  0  0  0
  1  8  2  0  0  0  0
  1 13  1  0  0  0  0
 15  2  1  6  0  0  0
 16  3  1  1  0  0  0
  3 18  1  0  0  0  0
 17  4  1  6  0  0  0
  5 20  1  0  0  0  0
  6 25  1  0  0  0  0
  7 19  2  0  0  0  0
  9 24  2  0  0  0  0
 10 37  2  0  0  0  0
 11 16  1  0  0  0  0
 11 19  1  0  0  0  0
 11 22  1  0  0  0  0
 12 19  1  0  0  0  0
 12 24  1  0  0  0  0
 13 33  1  0  0  0  0
 14 36  1  0  0  0  0
 14 37  1  0  0  0  0
 15 16  1  0  0  0  0
 15 17  1  0  0  0  0
 15 21  1  1  0  0  0
 17 18  1  0  0  0  0
 18 20  1  1  0  0  0
 22 23  2  0  0  0  0
 23 24  1  0  0  0  0
 25 26  2  0  0  0  0
 25 28  1  0  0  0  0
 26 27  1  0  0  0  0
 26 29  1  0  0  0  0
 27 30  2  0  0  0  0
 27 32  1  0  0  0  0
 28 31  2  0  0  0  0
 29 34  2  0  0  0  0
 30 31  1  0  0  0  0
 32 35  2  0  0  0  0
 33 36  1  0  0  0  0
 34 35  1  0  0  0  0
 37 38  1  0  0  0  0
 38 39  1  0  0  0  0
 39 40  1  0  0  0  0
 40 41  1  0  0  0  0
 41 42  2  0  0  0  0
 42 43  1  0  0  0  0
 43 44  1  0  0  0  0
 44 45  2  0  0  0  0
 45 46  1  0  0  0  0
 46 47  1  0  0  0  0
 47 48  2  0  0  0  0
 48 49  1  0  0  0  0
 49 50  1  0  0  0  0
 50 51  2  0  0  0  0
 51 52  1  0  0  0  0
 52 53  1  0  0  0  0
 53 54  2  0  0  0  0
 54 55  1  0  0  0  0
 55 56  1  0  0  0  0
M  END
> <PUBCHEM_COMPOUND_ID_TYPE>
0

> <PUBCHEM_TOTAL_CHARGE>
0

> <PUBCHEM_SUBSTANCE_ID>
310948920

> <PUBCHEM_SUBSTANCE_VERSION>
1

> <PUBCHEM_EXT_DATASOURCE_NAME>
4488

> <PUBCHEM_EXT_DATASOURCE_REGID>
SCHEMBL16127106

> <PUBCHEM_SUBSTANCE_COMMENT>
InChI=1S/C42H54FN4O8P/c1-3-4-5-6-7-8-9-10-11-12-13-14-15-16-17-18-19-27-37(48)44-29-30-45-56(52,55-35-26-22-24-33-23-20-21-25-34(33)35)53-32-36-39(50)42(2,43)40(54-36)47-31-28-38(49)46-41(47)51/h4-5,7-8,10-11,13-14,16-17,20-26,28,31,36,39-40,50H,3,6,9,12,15,18-19,27,29-30,32H2,1-2H3,(H,44,48)(H,45,52)(H,46,49,51)/b5-4-,8-7-,11-10-,14-13-,17-16-/t36-,39-,40-,42-,56?/m1/s1
InChIKey=QPLXAPITMMUIAN-JZFAAEFLSA-N

> <PUBCHEM_SUBSTANCE_SYNONYM>
SCHEMBL16127106

> <PUBCHEM_XREF_EXT_ID>
SCHEMBL16127106

> <PUBCHEM_EXT_DATASOURCE_URL>
https://www.surechembl.org/

> <PUBCHEM_EXT_SUBSTANCE_URL>
https://www.surechembl.org/chemical/SCHEMBL16127106

> <PUBCHEM_CID_ASSOCIATIONS>
86271912  1

> <PUBCHEM_COORDINATE_TYPE>
1
3

> <PUBCHEM_BONDANNOTATIONS>
15  21  5
18  20  5
15  2  6
16  3  5
17  4  6

$$$$
