310949155
  -OEChem-07211613022D

 22 25  0     0  0  0  0  0  0999 V2000
    0.0607    0.2912    0.0000 N   0  0  0  0  0  0  0  0  0  0  0  0
   -2.0746   -0.1699    0.0000 N   0  0  0  0  0  0  0  0  0  0  0  0
   -0.6430    0.8008    0.0000 C   0  0  0  0  0  0  0  0  0  0  0  0
    0.7158    0.8128    0.0000 C   0  0  0  0  0  0  0  0  0  0  0  0
   -0.3639    1.6014    0.0000 C   0  0  0  0  0  0  0  0  0  0  0  0
    0.4731    1.5893    0.0000 C   0  0  0  0  0  0  0  0  0  0  0  0
    0.0607   -0.5338    0.0000 C   0  0  0  0  0  0  0  0  0  0  0  0
   -0.6430   -0.9342    0.0000 C   0  0  0  0  0  0  0  0  0  0  0  0
    0.7765   -0.9463    0.0000 C   0  0  0  0  0  0  0  0  0  0  0  0
   -1.4074    0.6309    0.0000 C   0  0  0  0  0  0  0  0  0  0  0  0
    1.5408    0.6309    0.0000 C   0  0  0  0  0  0  0  0  0  0  0  0
   -0.8978    2.1838    0.0000 C   0  0  0  0  0  0  0  0  0  0  0  0
    1.0070    2.1838    0.0000 C   0  0  0  0  0  0  0  0  0  0  0  0
   -1.9533    1.2497    0.0000 C   0  0  0  0  0  0  0  0  0  0  0  0
    2.0746    1.2254    0.0000 C   0  0  0  0  0  0  0  0  0  0  0  0
   -0.6551   -1.7834    0.0000 C   0  0  0  0  0  0  0  0  0  0  0  0
   -1.6986    2.0382    0.0000 C   0  0  0  0  0  0  0  0  0  0  0  0
    1.8198    2.0261    0.0000 C   0  0  0  0  0  0  0  0  0  0  0  0
    0.7643   -1.7592    0.0000 C   0  0  0  0  0  0  0  0  0  0  0  0
   -1.3709   -0.5459    0.0000 C   0  0  0  0  0  0  0  0  0  0  0  0
    0.0607   -2.1838    0.0000 C   0  0  0  0  0  0  0  0  0  0  0  0
    1.5044   -0.5459    0.0000 C   0  0  0  0  0  0  0  0  0  0  0  0
  1  3  1  0  0  0  0
  1  4  1  0  0  0  0
  1  7  1  0  0  0  0
  2 20  3  0  0  0  0
  3  5  2  0  0  0  0
  3 10  1  0  0  0  0
  4  6  2  0  0  0  0
  4 11  1  0  0  0  0
  5  6  1  0  0  0  0
  5 12  1  0  0  0  0
  6 13  1  0  0  0  0
  7  8  1  0  0  0  0
  7  9  2  0  0  0  0
  8 16  2  0  0  0  0
  8 20  1  0  0  0  0
  9 19  1  0  0  0  0
  9 22  1  0  0  0  0
 10 14  2  0  0  0  0
 11 15  2  0  0  0  0
 12 17  2  0  0  0  0
 13 18  2  0  0  0  0
 14 17  1  0  0  0  0
 15 18  1  0  0  0  0
 16 21  1  0  0  0  0
 19 21  2  0  0  0  0
M  END
> <PUBCHEM_COMPOUND_ID_TYPE>
0

> <PUBCHEM_TOTAL_CHARGE>
0

> <PUBCHEM_SUBSTANCE_ID>
310949155

> <PUBCHEM_SUBSTANCE_VERSION>
1

> <PUBCHEM_EXT_DATASOURCE_NAME>
4488

> <PUBCHEM_EXT_DATASOURCE_REGID>
SCHEMBL16127345

> <PUBCHEM_SUBSTANCE_COMMENT>
InChI=1S/C20H14N2/c1-14-7-6-8-15(13-21)20(14)22-18-11-4-2-9-16(18)17-10-3-5-12-19(17)22/h2-12H,1H3
InChIKey=MXOHONCNSBRHOT-UHFFFAOYSA-N

> <PUBCHEM_SUBSTANCE_SYNONYM>
SCHEMBL16127345

> <PUBCHEM_XREF_EXT_ID>
SCHEMBL16127345

> <PUBCHEM_EXT_DATASOURCE_URL>
https://www.surechembl.org/

> <PUBCHEM_EXT_SUBSTANCE_URL>
https://www.surechembl.org/chemical/SCHEMBL16127345

> <PUBCHEM_CID_ASSOCIATIONS>
117614649  1

> <PUBCHEM_COORDINATE_TYPE>
1
3

$$$$
