310949747
  -OEChem-07211613022D

 23 24  0     0  0  0  0  0  0999 V2000
   -4.4764   -0.7290    0.0000 Cl  0  0  0  0  0  0  0  0  0  0  0  0
   -0.4974   -1.4376    0.0000 O   0  0  0  0  0  0  0  0  0  0  0  0
   -2.1463    1.4376    0.0000 O   0  0  0  0  0  0  0  0  0  0  0  0
   -0.9062    0.7154    0.0000 O   0  0  0  0  0  0  0  0  0  0  0  0
    4.4764    1.4376    0.0000 O   0  0  0  0  0  0  0  0  0  0  0  0
   -0.4974   -0.0068    0.0000 N   0  0  0  0  0  0  0  0  0  0  0  0
   -1.7374   -0.7154    0.0000 C   0  0  0  0  0  0  0  0  0  0  0  0
   -2.1599   -0.0068    0.0000 C   0  0  0  0  0  0  0  0  0  0  0  0
   -0.9199   -0.7154    0.0000 C   0  0  0  0  0  0  0  0  0  0  0  0
   -2.9775   -0.0205    0.0000 C   0  0  0  0  0  0  0  0  0  0  0  0
   -2.1463   -1.4376    0.0000 C   0  0  0  0  0  0  0  0  0  0  0  0
   -1.7374    0.7018    0.0000 C   0  0  0  0  0  0  0  0  0  0  0  0
   -3.4000   -0.7290    0.0000 C   0  0  0  0  0  0  0  0  0  0  0  0
   -2.9775   -1.4376    0.0000 C   0  0  0  0  0  0  0  0  0  0  0  0
    0.3338   -0.0068    0.0000 C   0  0  0  0  0  0  0  0  0  0  0  0
    0.7563   -0.7154    0.0000 C   0  0  0  0  0  0  0  0  0  0  0  0
    0.7563    0.7018    0.0000 C   0  0  0  0  0  0  0  0  0  0  0  0
    1.9827    0.0068    0.0000 C   0  0  0  0  0  0  0  0  0  0  0  0
    1.5739   -0.7154    0.0000 C   0  0  0  0  0  0  0  0  0  0  0  0
    1.5603    0.7018    0.0000 C   0  0  0  0  0  0  0  0  0  0  0  0
    2.8140   -0.0068    0.0000 C   0  0  0  0  0  0  0  0  0  0  0  0
    3.2364    0.7018    0.0000 C   0  0  0  0  0  0  0  0  0  0  0  0
    4.0540    0.7154    0.0000 C   0  0  0  0  0  0  0  0  0  0  0  0
  1 13  1  0  0  0  0
  2  9  2  0  0  0  0
  3 12  2  0  0  0  0
  4 12  1  0  0  0  0
  5 23  1  0  0  0  0
  6  9  1  0  0  0  0
  6 15  1  0  0  0  0
  7  8  1  0  0  0  0
  7  9  1  0  0  0  0
  7 11  2  0  0  0  0
  8 10  2  0  0  0  0
  8 12  1  0  0  0  0
 10 13  1  0  0  0  0
 11 14  1  0  0  0  0
 13 14  2  0  0  0  0
 15 16  2  0  0  0  0
 15 17  1  0  0  0  0
 16 19  1  0  0  0  0
 17 20  2  0  0  0  0
 18 19  2  0  0  0  0
 18 20  1  0  0  0  0
 18 21  1  0  0  0  0
 21 22  1  0  0  0  0
 22 23  1  0  0  0  0
M  END
> <PUBCHEM_COMPOUND_ID_TYPE>
0

> <PUBCHEM_TOTAL_CHARGE>
0

> <PUBCHEM_SUBSTANCE_ID>
310949747

> <PUBCHEM_SUBSTANCE_VERSION>
1

> <PUBCHEM_EXT_DATASOURCE_NAME>
4488

> <PUBCHEM_EXT_DATASOURCE_REGID>
SCHEMBL16127945

> <PUBCHEM_SUBSTANCE_COMMENT>
InChI=1S/C17H16ClNO4/c18-12-5-8-14(15(10-12)17(22)23)16(21)19-13-6-3-11(4-7-13)2-1-9-20/h3-8,10,20H,1-2,9H2,(H,19,21)(H,22,23)
InChIKey=KKVCVTNVTWZVPH-UHFFFAOYSA-N

> <PUBCHEM_SUBSTANCE_SYNONYM>
SCHEMBL16127945

> <PUBCHEM_XREF_EXT_ID>
SCHEMBL16127945

> <PUBCHEM_EXT_DATASOURCE_URL>
https://www.surechembl.org/

> <PUBCHEM_EXT_SUBSTANCE_URL>
https://www.surechembl.org/chemical/SCHEMBL16127945

> <PUBCHEM_CID_ASSOCIATIONS>
85471678  1

> <PUBCHEM_COORDINATE_TYPE>
1
3

$$$$
