310940889
  -OEChem-07211613022D

 33 34  0     1  0  0  0  0  0999 V2000
    3.2256   -1.2375    0.0000 O   0  0  0  0  0  0  0  0  0  0  0  0
    3.2256    2.0760    0.0000 O   0  0  0  0  0  0  0  0  0  0  0  0
    0.3448    1.2510    0.0000 O   0  0  0  0  0  0  0  0  0  0  0  0
    2.5088    3.3203    0.0000 O   0  0  0  0  0  0  0  0  0  0  0  0
   -1.8190    3.3203    0.0000 O   0  0  0  0  0  0  0  0  0  0  0  0
   -4.6862    3.3203    0.0000 O   0  0  0  0  0  0  0  0  0  0  0  0
    1.0616    2.4953    0.0000 N   0  0  0  0  0  0  0  0  0  0  0  0
   -1.1022    2.0760    0.0000 N   0  0  0  0  0  0  0  0  0  0  0  0
   -3.2526    2.4953    0.0000 N   0  0  0  0  0  0  0  0  0  0  0  0
    1.7785    2.0895    0.0000 C   0  0  3  0  0  0  0  0  0  0  0  0
    2.5088    0.8318    0.0000 C   0  0  0  0  0  0  0  0  0  0  0  0
    3.2391   -0.3990    0.0000 C   0  0  0  0  0  0  0  0  0  0  0  0
    1.7785    1.2375    0.0000 C   0  0  0  0  0  0  0  0  0  0  0  0
    2.5088    0.0068    0.0000 C   0  0  0  0  0  0  0  0  0  0  0  0
    3.9423    0.0203    0.0000 C   0  0  0  0  0  0  0  0  0  0  0  0
    0.3448    2.1030    0.0000 C   0  0  0  0  0  0  0  0  0  0  0  0
    2.4953    2.4817    0.0000 C   0  0  0  0  0  0  0  0  0  0  0  0
    3.2121    1.2375    0.0000 C   0  0  0  0  0  0  0  0  0  0  0  0
   -0.3720    2.4953    0.0000 C   0  0  3  0  0  0  0  0  0  0  0  0
    3.9423    0.8318    0.0000 C   0  0  0  0  0  0  0  0  0  0  0  0
   -1.8190    2.4817    0.0000 C   0  0  0  0  0  0  0  0  0  0  0  0
   -2.5358    2.0895    0.0000 C   0  0  0  0  0  0  0  0  0  0  0  0
    4.6862   -0.3990    0.0000 C   0  0  0  0  0  0  0  0  0  0  0  0
   -0.3720    3.3203    0.0000 C   0  0  0  0  0  0  0  0  0  0  0  0
    3.9018   -1.6568    0.0000 C   0  0  0  0  0  0  0  0  0  0  0  0
   -3.9423    2.0895    0.0000 C   0  0  0  0  0  0  0  0  0  0  0  0
   -3.2526    3.3203    0.0000 C   0  0  0  0  0  0  0  0  0  0  0  0
   -4.6862    2.4953    0.0000 C   0  0  0  0  0  0  0  0  0  0  0  0
   -3.9829    3.7395    0.0000 C   0  0  0  0  0  0  0  0  0  0  0  0
    3.9153    2.4953    0.0000 C   0  0  0  0  0  0  0  0  0  0  0  0
    3.8612   -2.4817    0.0000 C   0  0  0  0  0  0  0  0  0  0  0  0
    4.5780   -2.9280    0.0000 C   0  0  0  0  0  0  0  0  0  0  0  0
    4.5375   -3.7395    0.0000 C   0  0  0  0  0  0  0  0  0  0  0  0
  1 12  1  0  0  0  0
  1 25  1  0  0  0  0
  2 17  1  0  0  0  0
  2 30  1  0  0  0  0
  3 16  2  0  0  0  0
  4 17  2  0  0  0  0
  5 21  2  0  0  0  0
  6 28  1  0  0  0  0
  6 29  1  0  0  0  0
 10  7  1  6  0  0  0
  7 16  1  0  0  0  0
  8 19  1  0  0  0  0
  8 21  1  0  0  0  0
  9 22  1  0  0  0  0
  9 26  1  0  0  0  0
  9 27  1  0  0  0  0
 10 13  1  0  0  0  0
 10 17  1  0  0  0  0
 11 13  1  0  0  0  0
 11 14  2  0  0  0  0
 11 18  1  0  0  0  0
 12 14  1  0  0  0  0
 12 15  2  0  0  0  0
 15 20  1  0  0  0  0
 15 23  1  0  0  0  0
 16 19  1  0  0  0  0
 18 20  2  0  0  0  0
 19 24  1  1  0  0  0
 21 22  1  0  0  0  0
 25 31  1  0  0  0  0
 26 28  1  0  0  0  0
 27 29  1  0  0  0  0
 31 32  1  0  0  0  0
 32 33  1  0  0  0  0
M  END
> <PUBCHEM_COMPOUND_ID_TYPE>
0

> <PUBCHEM_TOTAL_CHARGE>
0

> <PUBCHEM_SUBSTANCE_ID>
310940889

> <PUBCHEM_SUBSTANCE_VERSION>
1

> <PUBCHEM_EXT_DATASOURCE_NAME>
4488

> <PUBCHEM_EXT_DATASOURCE_REGID>
SCHEMBL16118848

> <PUBCHEM_SUBSTANCE_COMMENT>
InChI=1S/C24H37N3O6/c1-5-6-11-33-21-15-19(8-7-17(21)2)14-20(24(30)31-4)26-23(29)18(3)25-22(28)16-27-9-12-32-13-10-27/h7-8,15,18,20H,5-6,9-14,16H2,1-4H3,(H,25,28)(H,26,29)/t18-,20-/m0/s1
InChIKey=UHDMQGZDGQGXHC-ICSRJNTNSA-N

> <PUBCHEM_SUBSTANCE_SYNONYM>
SCHEMBL16118848

> <PUBCHEM_XREF_EXT_ID>
SCHEMBL16118848

> <PUBCHEM_EXT_DATASOURCE_URL>
https://www.surechembl.org/

> <PUBCHEM_EXT_SUBSTANCE_URL>
https://www.surechembl.org/chemical/SCHEMBL16118848

> <PUBCHEM_CID_ASSOCIATIONS>
117607806  1

> <PUBCHEM_COORDINATE_TYPE>
1
3

> <PUBCHEM_BONDANNOTATIONS>
19  24  5
10  7  6

$$$$
