310934413
  -OEChem-07211613022D

 29 32  0     0  0  0  0  0  0999 V2000
    1.5263   -5.3212    0.0000 O   0  0  0  0  0  0  0  0  0  0  0  0
    0.8250   -1.6500    0.0000 O   0  0  0  0  0  0  0  0  0  0  0  0
    2.2275   -1.6500    0.0000 O   0  0  0  0  0  0  0  0  0  0  0  0
    5.8574   -6.9712    0.0000 N   0  0  0  0  0  0  0  0  0  0  0  0
    5.1149   -8.2499    0.0000 N   0  0  0  0  0  0  0  0  0  0  0  0
    6.6412   -6.7649    0.0000 N   0  0  0  0  0  0  0  0  0  0  0  0
    3.6712   -5.7337    0.0000 N   0  0  0  0  0  0  0  0  0  0  0  0
    1.5263   -2.8875    0.0000 N   0  0  0  0  0  0  0  0  0  0  0  0
    4.4137   -7.0124    0.0000 C   0  0  0  0  0  0  0  0  0  0  0  0
    5.8574   -7.8374    0.0000 C   0  0  0  0  0  0  0  0  0  0  0  0
    3.7125   -6.5999    0.0000 C   0  0  0  0  0  0  0  0  0  0  0  0
    5.1149   -6.5999    0.0000 C   0  0  0  0  0  0  0  0  0  0  0  0
    4.4137   -7.8374    0.0000 C   0  0  0  0  0  0  0  0  0  0  0  0
    2.2275   -5.7337    0.0000 C   0  0  0  0  0  0  0  0  0  0  0  0
    6.6412   -8.0436    0.0000 C   0  0  0  0  0  0  0  0  0  0  0  0
    2.9700   -6.9712    0.0000 C   0  0  0  0  0  0  0  0  0  0  0  0
    1.5263   -4.4962    0.0000 C   0  0  0  0  0  0  0  0  0  0  0  0
    2.9700   -5.3624    0.0000 C   0  0  0  0  0  0  0  0  0  0  0  0
    2.2687   -6.5999    0.0000 C   0  0  0  0  0  0  0  0  0  0  0  0
    7.1361   -7.4249    0.0000 C   0  0  0  0  0  0  0  0  0  0  0  0
    1.5263   -2.0625    0.0000 C   0  0  0  0  0  0  0  0  0  0  0  0
    2.2687   -3.2587    0.0000 C   0  0  0  0  0  0  0  0  0  0  0  0
    0.8250   -3.2587    0.0000 C   0  0  0  0  0  0  0  0  0  0  0  0
    2.2687   -4.0837    0.0000 C   0  0  0  0  0  0  0  0  0  0  0  0
    0.8250   -4.0837    0.0000 C   0  0  0  0  0  0  0  0  0  0  0  0
    0.8250   -0.8250    0.0000 C   0  0  0  0  0  0  0  0  0  0  0  0
    1.6500   -0.8250    0.0000 C   0  0  0  0  0  0  0  0  0  0  0  0
    0.8250    0.0000    0.0000 C   0  0  0  0  0  0  0  0  0  0  0  0
    0.0000   -0.8250    0.0000 C   0  0  0  0  0  0  0  0  0  0  0  0
  1 14  1  0  0  0  0
  1 17  1  0  0  0  0
  2 21  1  0  0  0  0
  2 26  1  0  0  0  0
  3 21  2  0  0  0  0
  4  6  1  0  0  0  0
  4 10  1  0  0  0  0
  4 12  1  0  0  0  0
  5 10  1  0  0  0  0
  5 13  2  0  0  0  0
  6 20  2  0  0  0  0
  7 11  2  0  0  0  0
  7 18  1  0  0  0  0
  8 21  1  0  0  0  0
  8 22  1  0  0  0  0
  8 23  1  0  0  0  0
  9 11  1  0  0  0  0
  9 12  2  0  0  0  0
  9 13  1  0  0  0  0
 10 15  2  0  0  0  0
 11 16  1  0  0  0  0
 14 18  2  0  0  0  0
 14 19  1  0  0  0  0
 15 20  1  0  0  0  0
 16 19  2  0  0  0  0
 17 24  1  0  0  0  0
 17 25  1  0  0  0  0
 22 24  1  0  0  0  0
 23 25  1  0  0  0  0
 26 27  1  0  0  0  0
 26 28  1  0  0  0  0
 26 29  1  0  0  0  0
M  END
> <PUBCHEM_COMPOUND_ID_TYPE>
0

> <PUBCHEM_TOTAL_CHARGE>
0

> <PUBCHEM_SUBSTANCE_ID>
310934413

> <PUBCHEM_SUBSTANCE_VERSION>
1

> <PUBCHEM_EXT_DATASOURCE_NAME>
4488

> <PUBCHEM_EXT_DATASOURCE_REGID>
SCHEMBL16111887

> <PUBCHEM_SUBSTANCE_COMMENT>
InChI=1S/C21H25N5O3/c1-21(2,3)29-20(27)25-10-7-16(8-11-25)28-17-4-5-18(22-13-17)15-12-23-19-6-9-24-26(19)14-15/h4-6,9,12-14,16H,7-8,10-11H2,1-3H3
InChIKey=XFRTWIQGFMLHJF-UHFFFAOYSA-N

> <PUBCHEM_SUBSTANCE_SYNONYM>
SCHEMBL16111887

> <PUBCHEM_XREF_EXT_ID>
SCHEMBL16111887

> <PUBCHEM_EXT_DATASOURCE_URL>
https://www.surechembl.org/

> <PUBCHEM_EXT_SUBSTANCE_URL>
https://www.surechembl.org/chemical/SCHEMBL16111887

> <PUBCHEM_CID_ASSOCIATIONS>
117602630  1

> <PUBCHEM_COORDINATE_TYPE>
1
3

$$$$
