310934418
  -OEChem-07211613022D

 29 32  0     1  0  0  0  0  0999 V2000
   -0.9962    1.5229    0.0000 F   0  0  0  0  0  0  0  0  0  0  0  0
   -0.1712    2.3479    0.0000 F   0  0  0  0  0  0  0  0  0  0  0  0
   -0.1712    0.6979    0.0000 F   0  0  0  0  0  0  0  0  0  0  0  0
    2.8361    5.2522    0.0000 F   0  0  0  0  0  0  0  0  0  0  0  0
    5.7999    4.4960    0.0000 O   0  0  0  0  0  0  0  0  0  0  0  0
    6.3811    3.1906    0.0000 O   0  0  0  0  0  0  0  0  0  0  0  0
    1.1387    2.1904    0.0000 N   0  0  0  0  0  0  0  0  0  0  0  0
    1.1387    0.8555    0.0000 N   0  0  0  0  0  0  0  0  0  0  0  0
    4.9600    3.3400    0.0000 C   0  0  3  0  0  0  0  0  0  0  0  0
    4.7050    4.1246    0.0000 C   0  0  0  0  0  0  0  0  0  0  0  0
    4.0668    2.3479    0.0000 C   0  0  3  0  0  0  0  0  0  0  0  0
    4.1530    3.1684    0.0000 C   0  0  0  0  0  0  0  0  0  0  0  0
    3.3523    1.9354    0.0000 C   0  0  0  0  0  0  0  0  0  0  0  0
    5.3725    2.6255    0.0000 C   0  0  0  0  0  0  0  0  0  0  0  0
    1.9233    1.9354    0.0000 C   0  0  0  0  0  0  0  0  0  0  0  0
    5.7136    3.6755    0.0000 C   0  0  0  0  0  0  0  0  0  0  0  0
    1.9233    1.1104    0.0000 C   0  0  0  0  0  0  0  0  0  0  0  0
    0.6538    1.5229    0.0000 C   0  0  0  0  0  0  0  0  0  0  0  0
    4.8204    2.0124    0.0000 C   0  0  0  0  0  0  0  0  0  0  0  0
    3.8981    4.2961    0.0000 C   0  0  0  0  0  0  0  0  0  0  0  0
    2.6378    2.3479    0.0000 C   0  0  0  0  0  0  0  0  0  0  0  0
   -0.1712    1.5229    0.0000 C   0  0  0  0  0  0  0  0  0  0  0  0
    3.3523    1.1104    0.0000 C   0  0  0  0  0  0  0  0  0  0  0  0
    5.2571    4.7377    0.0000 C   0  0  0  0  0  0  0  0  0  0  0  0
    2.6378    0.6979    0.0000 C   0  0  0  0  0  0  0  0  0  0  0  0
    3.6431    5.0807    0.0000 C   0  0  0  0  0  0  0  0  0  0  0  0
    5.0021    5.5223    0.0000 C   0  0  0  0  0  0  0  0  0  0  0  0
    4.1951    5.6938    0.0000 C   0  0  0  0  0  0  0  0  0  0  0  0
    3.3460    3.6830    0.0000 C   0  0  0  0  0  0  0  0  0  0  0  0
  1 22  1  0  0  0  0
  2 22  1  0  0  0  0
  3 22  1  0  0  0  0
  4 26  1  0  0  0  0
  5 16  2  0  0  0  0
  6 16  1  0  0  0  0
  7 15  1  0  0  0  0
  7 18  1  0  0  0  0
  8 17  1  0  0  0  0
  8 18  2  0  0  0  0
  9 10  1  0  0  0  0
  9 12  1  0  0  0  0
  9 14  1  0  0  0  0
  9 16  1  1  0  0  0
 10 20  2  0  0  0  0
 10 24  1  0  0  0  0
 11 12  1  0  0  0  0
 11 13  1  0  0  0  0
 11 19  1  0  0  0  0
 13 21  1  0  0  0  0
 13 23  2  0  0  0  0
 14 19  1  0  0  0  0
 15 17  1  0  0  0  0
 15 21  2  0  0  0  0
 17 25  2  0  0  0  0
 18 22  1  0  0  0  0
 20 26  1  0  0  0  0
 20 29  1  0  0  0  0
 23 25  1  0  0  0  0
 24 27  2  0  0  0  0
 26 28  2  0  0  0  0
 27 28  1  0  0  0  0
M  END
> <PUBCHEM_COMPOUND_ID_TYPE>
0

> <PUBCHEM_TOTAL_CHARGE>
0

> <PUBCHEM_SUBSTANCE_ID>
310934418

> <PUBCHEM_SUBSTANCE_VERSION>
1

> <PUBCHEM_EXT_DATASOURCE_NAME>
4488

> <PUBCHEM_EXT_DATASOURCE_REGID>
SCHEMBL16111893

> <PUBCHEM_SUBSTANCE_COMMENT>
InChI=1S/C21H18F4N2O2/c1-11-14(3-2-4-15(11)22)20(19(28)29)8-7-13(10-20)12-5-6-16-17(9-12)27-18(26-16)21(23,24)25/h2-6,9,13H,7-8,10H2,1H3,(H,26,27)(H,28,29)/t13?,20-/m0/s1
InChIKey=GEUMSNDXTNEGLH-JDOQCHFPSA-N

> <PUBCHEM_SUBSTANCE_SYNONYM>
SCHEMBL16111893

> <PUBCHEM_XREF_EXT_ID>
SCHEMBL16111893

> <PUBCHEM_EXT_DATASOURCE_URL>
https://www.surechembl.org/

> <PUBCHEM_EXT_SUBSTANCE_URL>
https://www.surechembl.org/chemical/SCHEMBL16111893

> <PUBCHEM_CID_ASSOCIATIONS>
117602634  1

> <PUBCHEM_COORDINATE_TYPE>
1
3

> <PUBCHEM_BONDANNOTATIONS>
9  16  5

$$$$
