310941758
  -OEChem-07211613022D

 31 37  0     1  0  0  0  0  0999 V2000
    3.6599   -1.5527    0.0000 S   0  0  0  0  0  0  0  0  0  0  0  0
   -0.3466    0.9150    0.0000 O   0  0  0  0  0  0  0  0  0  0  0  0
    4.4779   -1.3448    0.0000 O   0  0  0  0  0  0  0  0  0  0  0  0
    3.6738   -0.7209    0.0000 O   0  0  0  0  0  0  0  0  0  0  0  0
    1.8161   -0.3188    0.0000 N   0  0  0  0  0  0  0  0  0  0  0  0
    2.8559   -1.3864    0.0000 N   0  0  0  0  0  0  0  0  0  0  0  0
    3.0915    0.0970    0.0000 N   0  0  0  0  0  0  0  0  0  0  0  0
    2.6064    0.7625    0.0000 N   0  0  0  0  0  0  0  0  0  0  0  0
    0.3604   -0.3188    0.0000 C   0  0  0  0  0  0  0  0  0  0  0  0
    2.6064   -0.5822    0.0000 C   0  0  0  0  0  0  0  0  0  0  0  0
    1.8161    0.5129    0.0000 C   0  0  0  0  0  0  0  0  0  0  0  0
   -3.1054    1.2061    0.0000 C   0  0  3  0  0  0  0  0  0  0  0  0
   -2.7034    1.8993    0.0000 C   0  0  3  0  0  0  0  0  0  0  0  0
    0.3881    0.5129    0.0000 C   0  0  0  0  0  0  0  0  0  0  0  0
    1.0952   -0.7347    0.0000 C   0  0  0  0  0  0  0  0  0  0  0  0
   -3.8402    1.5804    0.0000 C   0  0  3  0  0  0  0  0  0  0  0  0
   -3.4243    2.3568    0.0000 C   0  0  3  0  0  0  0  0  0  0  0  0
   -0.3743   -0.7347    0.0000 C   0  0  0  0  0  0  0  0  0  0  0  0
    1.0813    0.9288    0.0000 C   0  0  0  0  0  0  0  0  0  0  0  0
    3.9233   -2.3568    0.0000 C   0  0  0  0  0  0  0  0  0  0  0  0
   -1.8022    0.9288    0.0000 C   0  0  0  0  0  0  0  0  0  0  0  0
   -3.8818    3.1331    0.0000 C   0  0  0  0  0  0  0  0  0  0  0  0
   -2.5509    0.5822    0.0000 C   0  0  0  0  0  0  0  0  0  0  0  0
   -1.8855    1.7329    0.0000 C   0  0  0  0  0  0  0  0  0  0  0  0
   -0.7487   -1.4279    0.0000 C   0  0  0  0  0  0  0  0  0  0  0  0
   -1.1645   -0.7487    0.0000 C   0  0  0  0  0  0  0  0  0  0  0  0
   -4.5195    1.1784    0.0000 C   0  0  0  0  0  0  0  0  0  0  0  0
   -4.1174    1.9547    0.0000 C   0  0  0  0  0  0  0  0  0  0  0  0
    3.7847   -3.1331    0.0000 C   0  0  0  0  0  0  0  0  0  0  0  0
    4.5195   -2.8975    0.0000 C   0  0  0  0  0  0  0  0  0  0  0  0
   -1.0398    0.5268    0.0000 C   0  0  0  0  0  0  0  0  0  0  0  0
  1  3  2  0  0  0  0
  1  4  2  0  0  0  0
  1  6  1  0  0  0  0
  1 20  1  0  0  0  0
  2 14  1  0  0  0  0
  2 31  1  0  0  0  0
  5 10  1  0  0  0  0
  5 11  1  0  0  0  0
  5 15  1  0  0  0  0
  6 10  1  0  0  0  0
  7  8  1  0  0  0  0
  7 10  2  0  0  0  0
  8 11  2  0  0  0  0
  9 14  1  0  0  0  0
  9 15  2  0  0  0  0
  9 18  1  0  0  0  0
 11 19  1  0  0  0  0
 12 13  1  0  0  0  0
 12 16  1  0  0  0  0
 12 23  1  0  0  0  0
 13 17  1  0  0  0  0
 13 24  1  0  0  0  0
 14 19  2  0  0  0  0
 16 22  1  0  0  0  0
 16 27  1  0  0  0  0
 17 22  1  0  0  0  0
 17 28  1  0  0  0  0
 18 25  1  0  0  0  0
 18 26  1  0  0  0  0
 20 29  1  0  0  0  0
 20 30  1  0  0  0  0
 21 23  1  0  0  0  0
 21 24  1  0  0  0  0
 21 31  1  1  0  0  0
 25 26  1  0  0  0  0
 27 28  1  0  0  0  0
 29 30  1  0  0  0  0
M  END
> <PUBCHEM_COMPOUND_ID_TYPE>
0

> <PUBCHEM_TOTAL_CHARGE>
0

> <PUBCHEM_SUBSTANCE_ID>
310941758

> <PUBCHEM_SUBSTANCE_VERSION>
1

> <PUBCHEM_EXT_DATASOURCE_NAME>
4488

> <PUBCHEM_EXT_DATASOURCE_REGID>
SCHEMBL16119789

> <PUBCHEM_SUBSTANCE_COMMENT>
InChI=1S/C23H30N4O3S/c28-31(29,17-5-6-17)26-23-25-24-22-10-21(20(11-27(22)23)14-1-2-14)30-12-13-7-18-15-3-4-16(9-15)19(18)8-13/h10-11,13-19H,1-9,12H2,(H,25,26)
InChIKey=FGGANSUSGJTQLR-UHFFFAOYSA-N

> <PUBCHEM_SUBSTANCE_SYNONYM>
SCHEMBL16119789

> <PUBCHEM_XREF_EXT_ID>
SCHEMBL16119789

> <PUBCHEM_EXT_DATASOURCE_URL>
https://www.surechembl.org/

> <PUBCHEM_EXT_SUBSTANCE_URL>
https://www.surechembl.org/chemical/SCHEMBL16119789

> <PUBCHEM_CID_ASSOCIATIONS>
117608516  1

> <PUBCHEM_COORDINATE_TYPE>
1
3

> <PUBCHEM_BONDANNOTATIONS>
21  31  5

$$$$
