310945402
  -OEChem-07211613022D

 24 27  0     0  0  0  0  0  0999 V2000
   -2.1411    1.6678    0.0000 O   0  0  0  0  0  0  0  0  0  0  0  0
    0.6845    0.9249    0.0000 N   0  0  0  0  0  0  0  0  0  0  0  0
    2.7092    1.8426    0.0000 N   0  0  0  0  0  0  0  0  0  0  0  0
   -0.0728   -1.1579    0.0000 N   0  0  0  0  0  0  0  0  0  0  0  0
   -0.0728   -2.8039    0.0000 N   0  0  0  0  0  0  0  0  0  0  0  0
    1.3401    1.4201    0.0000 C   0  0  0  0  0  0  0  0  0  0  0  0
    1.0924    2.1921    0.0000 C   0  0  0  0  0  0  0  0  0  0  0  0
   -0.0146    1.4201    0.0000 C   0  0  0  0  0  0  0  0  0  0  0  0
    0.2768    2.2066    0.0000 C   0  0  0  0  0  0  0  0  0  0  0  0
    2.1557    1.2308    0.0000 C   0  0  0  0  0  0  0  0  0  0  0  0
   -0.7865    1.2453    0.0000 C   0  0  0  0  0  0  0  0  0  0  0  0
   -0.2768    2.7893    0.0000 C   0  0  0  0  0  0  0  0  0  0  0  0
    1.6459    2.8039    0.0000 C   0  0  0  0  0  0  0  0  0  0  0  0
    0.6700    0.0655    0.0000 C   0  0  0  0  0  0  0  0  0  0  0  0
   -1.3401    1.8571    0.0000 C   0  0  0  0  0  0  0  0  0  0  0  0
   -1.0779    2.6291    0.0000 C   0  0  0  0  0  0  0  0  0  0  0  0
    2.4616    2.6291    0.0000 C   0  0  0  0  0  0  0  0  0  0  0  0
   -0.0583   -0.3277    0.0000 C   0  0  0  0  0  0  0  0  0  0  0  0
    2.4761    0.3860    0.0000 C   0  0  0  0  0  0  0  0  0  0  0  0
    0.6408   -1.5658    0.0000 C   0  0  0  0  0  0  0  0  0  0  0  0
   -0.7865   -1.5658    0.0000 C   0  0  0  0  0  0  0  0  0  0  0  0
   -2.7092    2.2940    0.0000 C   0  0  0  0  0  0  0  0  0  0  0  0
    0.6263   -2.3960    0.0000 C   0  0  0  0  0  0  0  0  0  0  0  0
   -0.7865   -2.3815    0.0000 C   0  0  0  0  0  0  0  0  0  0  0  0
  1 15  1  0  0  0  0
  1 22  1  0  0  0  0
  2  6  1  0  0  0  0
  2  8  1  0  0  0  0
  2 14  1  0  0  0  0
  3 10  2  0  0  0  0
  3 17  1  0  0  0  0
  4 18  1  0  0  0  0
  4 20  1  0  0  0  0
  4 21  1  0  0  0  0
  5 23  1  0  0  0  0
  5 24  1  0  0  0  0
  6  7  2  0  0  0  0
  6 10  1  0  0  0  0
  7  9  1  0  0  0  0
  7 13  1  0  0  0  0
  8  9  2  0  0  0  0
  8 11  1  0  0  0  0
  9 12  1  0  0  0  0
 10 19  1  0  0  0  0
 11 15  2  0  0  0  0
 12 16  2  0  0  0  0
 13 17  2  0  0  0  0
 14 18  1  0  0  0  0
 15 16  1  0  0  0  0
 20 23  1  0  0  0  0
 21 24  1  0  0  0  0
M  END
> <PUBCHEM_COMPOUND_ID_TYPE>
0

> <PUBCHEM_TOTAL_CHARGE>
0

> <PUBCHEM_SUBSTANCE_ID>
310945402

> <PUBCHEM_SUBSTANCE_VERSION>
1

> <PUBCHEM_EXT_DATASOURCE_NAME>
4488

> <PUBCHEM_EXT_DATASOURCE_REGID>
SCHEMBL16123500

> <PUBCHEM_SUBSTANCE_COMMENT>
InChI=1S/C19H24N4O/c1-14-19-17(5-6-21-14)16-4-3-15(24-2)13-18(16)23(19)12-11-22-9-7-20-8-10-22/h3-6,13,20H,7-12H2,1-2H3
InChIKey=NHKUUSNNGFVBDB-UHFFFAOYSA-N

> <PUBCHEM_SUBSTANCE_SYNONYM>
SCHEMBL16123500

> <PUBCHEM_XREF_EXT_ID>
SCHEMBL16123500

> <PUBCHEM_EXT_DATASOURCE_URL>
https://www.surechembl.org/

> <PUBCHEM_EXT_SUBSTANCE_URL>
https://www.surechembl.org/chemical/SCHEMBL16123500

> <PUBCHEM_CID_ASSOCIATIONS>
86298689  1

> <PUBCHEM_COORDINATE_TYPE>
1
3

$$$$
