310943127
  -OEChem-07211613022D

 38 41  0     0  0  0  0  0  0999 V2000
    3.8473    1.3331    0.0000 F   0  0  0  0  0  0  0  0  0  0  0  0
    4.6733    1.3331    0.0000 F   0  0  0  0  0  0  0  0  0  0  0  0
    4.9631    0.2174    0.0000 F   0  0  0  0  0  0  0  0  0  0  0  0
    0.7173    0.2028    0.0000 O   0  0  0  0  0  0  0  0  0  0  0  0
   -4.9631    2.6808    0.0000 O   0  0  0  0  0  0  0  0  0  0  0  0
   -3.5430    1.8548    0.0000 N   0  0  0  0  0  0  0  0  0  0  0  0
   -2.1229    0.2174    0.0000 N   0  0  0  0  0  0  0  0  0  0  0  0
    1.4128    1.4491    0.0000 N   0  0  0  0  0  0  0  0  0  0  0  0
    0.0073    3.1010    0.0000 N   0  0  0  0  0  0  0  0  0  0  0  0
    3.5430   -2.2606    0.0000 N   0  0  0  0  0  0  0  0  0  0  0  0
   -4.2530   -0.2028    0.0000 N   0  0  0  0  0  0  0  0  0  0  0  0
   -0.7173    1.8693    0.0000 C   0  0  0  0  0  0  0  0  0  0  0  0
   -1.4128    1.4491    0.0000 C   0  0  0  0  0  0  0  0  0  0  0  0
   -2.8329    1.4491    0.0000 C   0  0  0  0  0  0  0  0  0  0  0  0
   -2.1374    1.8548    0.0000 C   0  0  0  0  0  0  0  0  0  0  0  0
   -2.8474    0.6231    0.0000 C   0  0  0  0  0  0  0  0  0  0  0  0
    2.1374    0.2174    0.0000 C   0  0  0  0  0  0  0  0  0  0  0  0
    3.5430    0.2174    0.0000 C   0  0  0  0  0  0  0  0  0  0  0  0
   -0.7029    2.6953    0.0000 C   0  0  0  0  0  0  0  0  0  0  0  0
    0.7029    1.8693    0.0000 C   0  0  0  0  0  0  0  0  0  0  0  0
    0.0217    1.4491    0.0000 C   0  0  0  0  0  0  0  0  0  0  0  0
    1.4274    0.6376    0.0000 C   0  0  0  0  0  0  0  0  0  0  0  0
   -1.4274    0.6231    0.0000 C   0  0  0  0  0  0  0  0  0  0  0  0
    4.2530    0.6520    0.0000 C   0  0  0  0  0  0  0  0  0  0  0  0
    2.8329    0.6085    0.0000 C   0  0  0  0  0  0  0  0  0  0  0  0
    2.8474   -1.0144    0.0000 C   0  0  0  0  0  0  0  0  0  0  0  0
    2.1374   -0.6085    0.0000 C   0  0  0  0  0  0  0  0  0  0  0  0
    3.5430   -0.6085    0.0000 C   0  0  0  0  0  0  0  0  0  0  0  0
    0.7173    2.6808    0.0000 C   0  0  0  0  0  0  0  0  0  0  0  0
   -3.5430    2.6808    0.0000 C   0  0  0  0  0  0  0  0  0  0  0  0
   -4.2530    1.4636    0.0000 C   0  0  0  0  0  0  0  0  0  0  0  0
   -3.5286    0.2174    0.0000 C   0  0  0  0  0  0  0  0  0  0  0  0
    2.8474   -1.8548    0.0000 C   0  0  0  0  0  0  0  0  0  0  0  0
   -1.4274    3.0865    0.0000 C   0  0  0  0  0  0  0  0  0  0  0  0
   -4.2530    3.1010    0.0000 C   0  0  0  0  0  0  0  0  0  0  0  0
   -4.9631    1.8693    0.0000 C   0  0  0  0  0  0  0  0  0  0  0  0
    3.5575   -3.1010    0.0000 C   0  0  0  0  0  0  0  0  0  0  0  0
    4.2675   -1.8403    0.0000 C   0  0  0  0  0  0  0  0  0  0  0  0
  1 24  1  0  0  0  0
  2 24  1  0  0  0  0
  3 24  1  0  0  0  0
  4 22  2  0  0  0  0
  5 35  1  0  0  0  0
  5 36  1  0  0  0  0
  6 14  1  0  0  0  0
  6 30  1  0  0  0  0
  6 31  1  0  0  0  0
  7 16  2  0  0  0  0
  7 23  1  0  0  0  0
  8 20  1  0  0  0  0
  8 22  1  0  0  0  0
  9 19  1  0  0  0  0
  9 29  2  0  0  0  0
 10 33  1  0  0  0  0
 10 37  1  0  0  0  0
 10 38  1  0  0  0  0
 11 32  3  0  0  0  0
 12 13  1  0  0  0  0
 12 19  2  0  0  0  0
 12 21  1  0  0  0  0
 13 15  1  0  0  0  0
 13 23  2  0  0  0  0
 14 15  2  0  0  0  0
 14 16  1  0  0  0  0
 16 32  1  0  0  0  0
 17 22  1  0  0  0  0
 17 25  1  0  0  0  0
 17 27  2  0  0  0  0
 18 24  1  0  0  0  0
 18 25  2  0  0  0  0
 18 28  1  0  0  0  0
 19 34  1  0  0  0  0
 20 21  2  0  0  0  0
 20 29  1  0  0  0  0
 26 27  1  0  0  0  0
 26 28  2  0  0  0  0
 26 33  1  0  0  0  0
 30 35  1  0  0  0  0
 31 36  1  0  0  0  0
M  END
> <PUBCHEM_COMPOUND_ID_TYPE>
0

> <PUBCHEM_TOTAL_CHARGE>
0

> <PUBCHEM_SUBSTANCE_ID>
310943127

> <PUBCHEM_SUBSTANCE_VERSION>
1

> <PUBCHEM_EXT_DATASOURCE_NAME>
4488

> <PUBCHEM_EXT_DATASOURCE_REGID>
SCHEMBL16121187

> <PUBCHEM_SUBSTANCE_COMMENT>
InChI=1S/C27H27F3N6O2/c1-17-23(20-11-25(24(13-31)33-14-20)36-4-6-38-7-5-36)12-22(15-32-17)34-26(37)19-8-18(16-35(2)3)9-21(10-19)27(28,29)30/h8-12,14-15H,4-7,16H2,1-3H3,(H,34,37)
InChIKey=VGCFGAKJDCTXHH-UHFFFAOYSA-N

> <PUBCHEM_SUBSTANCE_SYNONYM>
SCHEMBL16121187

> <PUBCHEM_XREF_EXT_ID>
SCHEMBL16121187

> <PUBCHEM_EXT_DATASOURCE_URL>
https://www.surechembl.org/

> <PUBCHEM_EXT_SUBSTANCE_URL>
https://www.surechembl.org/chemical/SCHEMBL16121187

> <PUBCHEM_CID_ASSOCIATIONS>
117609557  1

> <PUBCHEM_COORDINATE_TYPE>
1
3

$$$$
