310945315
  -OEChem-07211613022D

 34 40  0     0  0  0  0  0  0999 V2000
   -0.5560    0.6547    0.0000 O   0  0  0  0  0  0  0  0  0  0  0  0
    4.2509    2.8967    0.0000 O   0  0  0  0  0  0  0  0  0  0  0  0
    2.4752    1.6411    0.0000 N   0  0  0  0  0  0  0  0  0  0  0  0
    4.1253    1.4618    0.0000 N   0  0  0  0  0  0  0  0  0  0  0  0
   -1.2196    1.8205    0.0000 N   0  0  0  0  0  0  0  0  0  0  0  0
   -3.0132    1.9102    0.0000 N   0  0  0  0  0  0  0  0  0  0  0  0
   -3.8383   -2.3945    0.0000 N   0  0  0  0  0  0  0  0  0  0  0  0
    2.7981    0.8879    0.0000 C   0  0  0  0  0  0  0  0  0  0  0  0
    1.6681    1.9102    0.0000 C   0  0  0  0  0  0  0  0  0  0  0  0
    2.9415    2.3227    0.0000 C   0  0  0  0  0  0  0  0  0  0  0  0
    1.6860    2.7353    0.0000 C   0  0  0  0  0  0  0  0  0  0  0  0
    2.4752    2.9684    0.0000 C   0  0  0  0  0  0  0  0  0  0  0  0
    3.7666    2.1972    0.0000 C   0  0  0  0  0  0  0  0  0  0  0  0
    3.6231    0.7981    0.0000 C   0  0  0  0  0  0  0  0  0  0  0  0
    2.0088    0.7443    0.0000 C   0  0  0  0  0  0  0  0  0  0  0  0
    2.9236    0.0628    0.0000 C   0  0  0  0  0  0  0  0  0  0  0  0
    0.9864    1.4977    0.0000 C   0  0  0  0  0  0  0  0  0  0  0  0
    0.2332    1.8923    0.0000 C   0  0  0  0  0  0  0  0  0  0  0  0
   -0.4664    1.4798    0.0000 C   0  0  0  0  0  0  0  0  0  0  0  0
    2.1164   -0.0449    0.0000 C   0  0  0  0  0  0  0  0  0  0  0  0
    0.9506    3.1298    0.0000 C   0  0  0  0  0  0  0  0  0  0  0  0
   -1.7936    1.1928    0.0000 C   0  0  0  0  0  0  0  0  0  0  0  0
   -1.3632    0.4932    0.0000 C   0  0  0  0  0  0  0  0  0  0  0  0
    0.2690    2.7353    0.0000 C   0  0  0  0  0  0  0  0  0  0  0  0
   -2.6187    1.1928    0.0000 C   0  0  0  0  0  0  0  0  0  0  0  0
   -2.6007   -0.2242    0.0000 C   0  0  0  0  0  0  0  0  0  0  0  0
   -1.7757   -0.2242    0.0000 C   0  0  0  0  0  0  0  0  0  0  0  0
   -3.0132    0.4753    0.0000 C   0  0  0  0  0  0  0  0  0  0  0  0
   -3.0312   -0.9596    0.0000 C   0  0  0  0  0  0  0  0  0  0  0  0
   -2.6007   -1.6591    0.0000 C   0  0  0  0  0  0  0  0  0  0  0  0
   -3.8383   -0.9596    0.0000 C   0  0  0  0  0  0  0  0  0  0  0  0
   -4.2509   -1.6949    0.0000 C   0  0  0  0  0  0  0  0  0  0  0  0
   -3.0132   -2.3945    0.0000 C   0  0  0  0  0  0  0  0  0  0  0  0
   -4.2329   -3.1298    0.0000 C   0  0  0  0  0  0  0  0  0  0  0  0
  1 19  1  0  0  0  0
  1 23  1  0  0  0  0
  2 13  2  0  0  0  0
  3  8  1  0  0  0  0
  3  9  1  0  0  0  0
  3 10  1  0  0  0  0
  4 13  1  0  0  0  0
  4 14  1  0  0  0  0
  5 19  2  0  0  0  0
  5 22  1  0  0  0  0
  6 25  1  0  0  0  0
  7 32  1  0  0  0  0
  7 33  1  0  0  0  0
  7 34  1  0  0  0  0
  8 14  1  0  0  0  0
  8 15  1  0  0  0  0
  8 16  1  0  0  0  0
  9 11  1  0  0  0  0
  9 17  2  0  0  0  0
 10 12  2  0  0  0  0
 10 13  1  0  0  0  0
 11 12  1  0  0  0  0
 11 21  2  0  0  0  0
 15 20  1  0  0  0  0
 16 20  1  0  0  0  0
 17 18  1  0  0  0  0
 18 19  1  0  0  0  0
 18 24  2  0  0  0  0
 21 24  1  0  0  0  0
 22 23  2  0  0  0  0
 22 25  1  0  0  0  0
 23 27  1  0  0  0  0
 25 28  2  0  0  0  0
 26 27  2  0  0  0  0
 26 28  1  0  0  0  0
 26 29  1  0  0  0  0
 29 30  1  0  0  0  0
 29 31  1  0  0  0  0
 30 33  1  0  0  0  0
 31 32  1  0  0  0  0
M  END
> <PUBCHEM_COMPOUND_ID_TYPE>
0

> <PUBCHEM_TOTAL_CHARGE>
0

> <PUBCHEM_SUBSTANCE_ID>
310945315

> <PUBCHEM_SUBSTANCE_VERSION>
1

> <PUBCHEM_EXT_DATASOURCE_NAME>
4488

> <PUBCHEM_EXT_DATASOURCE_REGID>
SCHEMBL16123413

> <PUBCHEM_SUBSTANCE_COMMENT>
InChI=1S/C27H29N5O2/c1-31-9-5-16(6-10-31)19-11-20(28)24-23(14-19)34-26(30-24)18-4-3-17-12-22-25(33)29-15-27(7-2-8-27)32(22)21(17)13-18/h3-4,11-14,16H,2,5-10,15,28H2,1H3,(H,29,33)
InChIKey=WAURNNOWWTYKMF-UHFFFAOYSA-N

> <PUBCHEM_SUBSTANCE_SYNONYM>
SCHEMBL16123413

> <PUBCHEM_XREF_EXT_ID>
SCHEMBL16123413

> <PUBCHEM_EXT_DATASOURCE_URL>
https://www.surechembl.org/

> <PUBCHEM_EXT_SUBSTANCE_URL>
https://www.surechembl.org/chemical/SCHEMBL16123413

> <PUBCHEM_CID_ASSOCIATIONS>
117611373  1

> <PUBCHEM_COORDINATE_TYPE>
1
3

$$$$
