310945757
  -OEChem-07211613022D

 26 29  0     1  0  0  0  0  0999 V2000
    1.3835    2.7858    0.0000 F   0  0  0  0  0  0  0  0  0  0  0  0
    1.7035    1.7317    0.0000 F   0  0  0  0  0  0  0  0  0  0  0  0
    0.6117    1.4118    0.0000 F   0  0  0  0  0  0  0  0  0  0  0  0
   -1.2141   -2.5223    0.0000 O   0  0  0  0  0  0  0  0  0  0  0  0
   -0.4423    1.2800    0.0000 N   0  0  0  0  0  0  0  0  0  0  0  0
   -0.4800   -1.2424    0.0000 N   0  0  0  0  0  0  0  0  0  0  0  0
    0.9506   -2.0706    0.0000 N   0  0  0  0  0  0  0  0  0  0  0  0
    0.9506   -3.7458    0.0000 N   0  0  0  0  0  0  0  0  0  0  0  0
   -0.0659    0.0377    0.0000 C   0  0  3  0  0  0  0  0  0  0  0  0
   -0.8941    0.0377    0.0000 C   0  0  3  0  0  0  0  0  0  0  0  0
   -0.4423    2.1270    0.0000 C   0  0  0  0  0  0  0  0  0  0  0  0
   -1.1200    0.8094    0.0000 C   0  0  0  0  0  0  0  0  0  0  0  0
    0.1977    0.8282    0.0000 C   0  0  0  0  0  0  0  0  0  0  0  0
    0.2353    2.5411    0.0000 C   0  0  0  0  0  0  0  0  0  0  0  0
    0.1788   -0.7529    0.0000 C   0  0  0  0  0  0  0  0  0  0  0  0
   -1.1576   -0.7718    0.0000 C   0  0  0  0  0  0  0  0  0  0  0  0
   -0.4800   -2.0706    0.0000 C   0  0  0  0  0  0  0  0  0  0  0  0
    0.9882    2.1082    0.0000 C   0  0  0  0  0  0  0  0  0  0  0  0
   -1.1576    2.5411    0.0000 C   0  0  0  0  0  0  0  0  0  0  0  0
    0.2353   -2.4658    0.0000 C   0  0  0  0  0  0  0  0  0  0  0  0
    0.2353    3.3506    0.0000 C   0  0  0  0  0  0  0  0  0  0  0  0
   -1.1764    3.3506    0.0000 C   0  0  0  0  0  0  0  0  0  0  0  0
   -0.4612    3.7458    0.0000 C   0  0  0  0  0  0  0  0  0  0  0  0
    0.2541   -3.3506    0.0000 C   0  0  0  0  0  0  0  0  0  0  0  0
    1.6847   -2.5035    0.0000 C   0  0  0  0  0  0  0  0  0  0  0  0
    1.6659   -3.3694    0.0000 C   0  0  0  0  0  0  0  0  0  0  0  0
  1 18  1  0  0  0  0
  2 18  1  0  0  0  0
  3 18  1  0  0  0  0
  4 17  2  0  0  0  0
  5 11  1  0  0  0  0
  5 12  1  0  0  0  0
  5 13  1  0  0  0  0
  6 15  1  0  0  0  0
  6 16  1  0  0  0  0
  6 17  1  0  0  0  0
  7 20  1  0  0  0  0
  7 25  2  0  0  0  0
  8 24  1  0  0  0  0
  8 26  2  0  0  0  0
  9 10  1  0  0  0  0
  9 13  1  0  0  0  0
  9 15  1  1  0  0  0
 10 12  1  0  0  0  0
 10 16  1  1  0  0  0
 11 14  2  0  0  0  0
 11 19  1  0  0  0  0
 14 18  1  0  0  0  0
 14 21  1  0  0  0  0
 17 20  1  0  0  0  0
 19 22  2  0  0  0  0
 20 24  2  0  0  0  0
 21 23  2  0  0  0  0
 22 23  1  0  0  0  0
 25 26  1  0  0  0  0
M  END
> <PUBCHEM_COMPOUND_ID_TYPE>
0

> <PUBCHEM_TOTAL_CHARGE>
0

> <PUBCHEM_SUBSTANCE_ID>
310945757

> <PUBCHEM_SUBSTANCE_VERSION>
1

> <PUBCHEM_EXT_DATASOURCE_NAME>
4488

> <PUBCHEM_EXT_DATASOURCE_REGID>
SCHEMBL16123861

> <PUBCHEM_SUBSTANCE_COMMENT>
InChI=1S/C18H17F3N4O/c19-18(20,21)14-3-1-2-4-16(14)24-8-12-10-25(11-13(12)9-24)17(26)15-7-22-5-6-23-15/h1-7,12-13H,8-11H2/t12-,13+
InChIKey=BATACWHRAVSIEK-BETUJISGSA-N

> <PUBCHEM_SUBSTANCE_SYNONYM>
SCHEMBL16123861

> <PUBCHEM_XREF_EXT_ID>
SCHEMBL16123861

> <PUBCHEM_EXT_DATASOURCE_URL>
https://www.surechembl.org/

> <PUBCHEM_EXT_SUBSTANCE_URL>
https://www.surechembl.org/chemical/SCHEMBL16123861

> <PUBCHEM_CID_ASSOCIATIONS>
86297621  1

> <PUBCHEM_COORDINATE_TYPE>
1
3

> <PUBCHEM_BONDANNOTATIONS>
10  16  5
9  15  5

$$$$
