310937669
  -OEChem-07211613022D

 25 28  0     0  0  0  0  0  0999 V2000
    1.3176   -2.2927    0.0000 F   0  0  0  0  0  0  0  0  0  0  0  0
    2.5826   -2.9252    0.0000 O   0  0  0  0  0  0  0  0  0  0  0  0
    6.6409   -2.2136    0.0000 O   0  0  0  0  0  0  0  0  0  0  0  0
    0.0000   -3.2941    0.0000 O   0  0  0  0  0  0  0  0  0  0  0  0
    5.4023   -1.8183    0.0000 N   0  0  0  0  0  0  0  0  0  0  0  0
    4.8226   -3.9002    0.0000 N   0  0  0  0  0  0  0  0  0  0  0  0
    6.1666   -2.8988    0.0000 N   0  0  0  0  0  0  0  0  0  0  0  0
    3.4259   -4.0583    0.0000 C   0  0  0  0  0  0  0  0  0  0  0  0
    3.3204   -3.2678    0.0000 C   0  0  0  0  0  0  0  0  0  0  0  0
    4.7172   -3.1097    0.0000 C   0  0  0  0  0  0  0  0  0  0  0  0
    5.4023   -2.6353    0.0000 C   0  0  0  0  0  0  0  0  0  0  0  0
    2.7407   -4.5327    0.0000 C   0  0  0  0  0  0  0  0  0  0  0  0
    6.1666   -1.5548    0.0000 C   0  0  0  0  0  0  0  0  0  0  0  0
    3.9793   -2.7407    0.0000 C   0  0  0  0  0  0  0  0  0  0  0  0
    1.1595   -3.1097    0.0000 C   0  0  0  0  0  0  0  0  0  0  0  0
    4.1638   -4.4009    0.0000 C   0  0  0  0  0  0  0  0  0  0  0  0
    6.4301   -0.7642    0.0000 C   0  0  0  0  0  0  0  0  0  0  0  0
    2.3981   -5.2706    0.0000 C   0  0  0  0  0  0  0  0  0  0  0  0
    1.9237   -4.6118    0.0000 C   0  0  0  0  0  0  0  0  0  0  0  0
    1.9237   -3.4259    0.0000 C   0  0  0  0  0  0  0  0  0  0  0  0
    0.4744   -2.6353    0.0000 C   0  0  0  0  0  0  0  0  0  0  0  0
    0.6852   -3.7948    0.0000 C   0  0  0  0  0  0  0  0  0  0  0  0
    7.2207   -1.0277    0.0000 C   0  0  0  0  0  0  0  0  0  0  0  0
    6.6936    0.0000    0.0000 C   0  0  0  0  0  0  0  0  0  0  0  0
    5.6659   -0.5271    0.0000 C   0  0  0  0  0  0  0  0  0  0  0  0
  1 15  1  0  0  0  0
  2  9  1  0  0  0  0
  2 20  1  0  0  0  0
  3  7  1  0  0  0  0
  3 13  1  0  0  0  0
  4 21  1  0  0  0  0
  4 22  1  0  0  0  0
  5 11  1  0  0  0  0
  5 13  2  0  0  0  0
  6 10  1  0  0  0  0
  6 16  2  0  0  0  0
  7 11  2  0  0  0  0
  8  9  2  0  0  0  0
  8 12  1  0  0  0  0
  8 16  1  0  0  0  0
  9 14  1  0  0  0  0
 10 11  1  0  0  0  0
 10 14  2  0  0  0  0
 12 18  1  0  0  0  0
 12 19  1  0  0  0  0
 13 17  1  0  0  0  0
 15 20  1  0  0  0  0
 15 21  1  0  0  0  0
 15 22  1  0  0  0  0
 17 23  1  0  0  0  0
 17 24  1  0  0  0  0
 17 25  1  0  0  0  0
 18 19  1  0  0  0  0
M  END
> <PUBCHEM_COMPOUND_ID_TYPE>
0

> <PUBCHEM_TOTAL_CHARGE>
0

> <PUBCHEM_SUBSTANCE_ID>
310937669

> <PUBCHEM_SUBSTANCE_VERSION>
1

> <PUBCHEM_EXT_DATASOURCE_NAME>
4488

> <PUBCHEM_EXT_DATASOURCE_REGID>
SCHEMBL16115461

> <PUBCHEM_SUBSTANCE_COMMENT>
InChI=1S/C18H22FN3O3/c1-17(2,3)16-21-15(22-25-16)13-6-14(12(7-20-13)11-4-5-11)24-10-18(19)8-23-9-18/h6-7,11H,4-5,8-10H2,1-3H3
InChIKey=YYTFUINYIFJHFR-UHFFFAOYSA-N

> <PUBCHEM_SUBSTANCE_SYNONYM>
SCHEMBL16115461

> <PUBCHEM_XREF_EXT_ID>
SCHEMBL16115461

> <PUBCHEM_EXT_DATASOURCE_URL>
https://www.surechembl.org/

> <PUBCHEM_EXT_SUBSTANCE_URL>
https://www.surechembl.org/chemical/SCHEMBL16115461

> <PUBCHEM_CID_ASSOCIATIONS>
117605355  1

> <PUBCHEM_COORDINATE_TYPE>
1
3

$$$$
