310928894
  -OEChem-07211613022D

 12 13  0     0  0  0  0  0  0999 V2000
    2.1348    0.5203    0.0000 I   0  0  0  0  0  0  0  0  0  0  0  0
    0.0086    0.3290    0.0000 N   0  0  0  0  0  0  0  0  0  0  0  0
    0.0948    1.1495    0.0000 N   0  0  0  0  0  0  0  0  0  0  0  0
   -0.7059   -0.0835    0.0000 C   0  0  0  0  0  0  0  0  0  0  0  0
    0.7623   -0.0066    0.0000 C   0  0  0  0  0  0  0  0  0  0  0  0
    1.3143    0.6065    0.0000 C   0  0  0  0  0  0  0  0  0  0  0  0
    0.9018    1.3210    0.0000 C   0  0  0  0  0  0  0  0  0  0  0  0
   -0.7059   -0.9085    0.0000 C   0  0  0  0  0  0  0  0  0  0  0  0
   -1.4203    0.3290    0.0000 C   0  0  0  0  0  0  0  0  0  0  0  0
   -1.4203   -1.3210    0.0000 C   0  0  0  0  0  0  0  0  0  0  0  0
   -2.1348   -0.0835    0.0000 C   0  0  0  0  0  0  0  0  0  0  0  0
   -2.1348   -0.9085    0.0000 C   0  0  0  0  0  0  0  0  0  0  0  0
  1  6  1  0  0  0  0
  2  3  1  0  0  0  0
  2  4  1  0  0  0  0
  2  5  1  0  0  0  0
  3  7  2  0  0  0  0
  4  8  2  0  0  0  0
  4  9  1  0  0  0  0
  5  6  2  0  0  0  0
  6  7  1  0  0  0  0
  8 10  1  0  0  0  0
  9 11  2  0  0  0  0
 10 12  2  0  0  0  0
 11 12  1  0  0  0  0
M  END
> <PUBCHEM_COMPOUND_ID_TYPE>
0

> <PUBCHEM_TOTAL_CHARGE>
0

> <PUBCHEM_SUBSTANCE_ID>
310928894

> <PUBCHEM_SUBSTANCE_VERSION>
1

> <PUBCHEM_EXT_DATASOURCE_NAME>
11752

> <PUBCHEM_EXT_DATASOURCE_REGID>
BD315491

> <PUBCHEM_SUBSTANCE_SYNONYM>
23889-85-2
4-Iodo-1-phenyl-1H-pyrazole

> <PUBCHEM_GENERIC_REGISTRY_NAME>
23889-85-2

> <PUBCHEM_XREF_EXT_ID>
BD315491

> <PUBCHEM_EXT_DATASOURCE_URL>
http://www.bidepharmatech.com/en/index.html

> <PUBCHEM_EXT_SUBSTANCE_URL>
http://www.bidepharmatech.com/en/goodsview_goodscode_BD315491.html

> <PUBCHEM_CID_ASSOCIATIONS>
14972076  1

> <PUBCHEM_COORDINATE_TYPE>
1
3

$$$$
