310941137
  -OEChem-07211613022D

 42 46  0     1  0  0  0  0  0999 V2000
    5.2396   -1.4729    0.0000 O   0  0  0  0  0  0  0  0  0  0  0  0
    4.0965    0.4909    0.0000 O   0  0  0  0  0  0  0  0  0  0  0  0
    3.7740    2.4256    0.0000 O   0  0  0  0  0  0  0  0  0  0  0  0
    1.7074   -1.4583    0.0000 O   0  0  0  0  0  0  0  0  0  0  0  0
   -0.4763    0.6228    0.0000 O   0  0  0  0  0  0  0  0  0  0  0  0
   -2.6455   -1.4583    0.0000 O   0  0  0  0  0  0  0  0  0  0  0  0
   -5.5327   -1.4583    0.0000 O   0  0  0  0  0  0  0  0  0  0  0  0
    2.4256   -0.2125    0.0000 N   0  0  0  0  0  0  0  0  0  0  0  0
    0.2564   -0.6375    0.0000 N   0  0  0  0  0  0  0  0  0  0  0  0
   -1.9126   -0.2125    0.0000 N   0  0  0  0  0  0  0  0  0  0  0  0
   -4.0818   -0.6375    0.0000 N   0  0  0  0  0  0  0  0  0  0  0  0
    4.8293   -0.7401    0.0000 C   0  0  3  0  0  0  0  0  0  0  0  0
    4.0378   -0.3151    0.0000 C   0  0  0  0  0  0  0  0  0  0  0  0
    4.4189   -1.4290    0.0000 C   0  0  0  0  0  0  0  0  0  0  0  0
    3.3929   -0.7108    0.0000 C   0  0  3  0  0  0  0  0  0  0  0  0
    5.5327   -0.3151    0.0000 C   0  0  0  0  0  0  0  0  0  0  0  0
    3.3636   -1.8101    0.0000 C   0  0  0  0  0  0  0  0  0  0  0  0
    1.7074   -0.5789    0.0000 C   0  0  0  0  0  0  0  0  0  0  0  0
    0.9894   -0.1832    0.0000 C   0  0  3  0  0  0  0  0  0  0  0  0
    2.6602   -2.2204    0.0000 C   0  0  0  0  0  0  0  0  0  0  0  0
    1.6928    1.0773    0.0000 C   0  0  0  0  0  0  0  0  0  0  0  0
    2.4403    2.3230    0.0000 C   0  0  0  0  0  0  0  0  0  0  0  0
    1.0040    0.6521    0.0000 C   0  0  0  0  0  0  0  0  0  0  0  0
    3.1584    1.9126    0.0000 C   0  0  0  0  0  0  0  0  0  0  0  0
    1.7221    1.8980    0.0000 C   0  0  0  0  0  0  0  0  0  0  0  0
    2.4403    0.6668    0.0000 C   0  0  0  0  0  0  0  0  0  0  0  0
    3.1584    1.0773    0.0000 C   0  0  0  0  0  0  0  0  0  0  0  0
   -0.4763   -0.1979    0.0000 C   0  0  0  0  0  0  0  0  0  0  0  0
    2.6162    3.1291    0.0000 C   0  0  0  0  0  0  0  0  0  0  0  0
    1.8833   -1.8980    0.0000 C   0  0  0  0  0  0  0  0  0  0  0  0
    2.5576   -3.0559    0.0000 C   0  0  0  0  0  0  0  0  0  0  0  0
    3.4369    3.2171    0.0000 C   0  0  0  0  0  0  0  0  0  0  0  0
   -1.1799   -0.5936    0.0000 C   0  0  3  0  0  0  0  0  0  0  0  0
    1.3411   -2.5136    0.0000 C   0  0  0  0  0  0  0  0  0  0  0  0
    1.7514   -3.2171    0.0000 C   0  0  0  0  0  0  0  0  0  0  0  0
   -2.6309   -0.5789    0.0000 C   0  0  0  0  0  0  0  0  0  0  0  0
   -1.1799   -1.4144    0.0000 C   0  0  0  0  0  0  0  0  0  0  0  0
   -3.3783   -0.1832    0.0000 C   0  0  0  0  0  0  0  0  0  0  0  0
   -4.0818   -1.4290    0.0000 C   0  0  0  0  0  0  0  0  0  0  0  0
   -4.8146   -0.1832    0.0000 C   0  0  0  0  0  0  0  0  0  0  0  0
   -4.7853   -1.8394    0.0000 C   0  0  0  0  0  0  0  0  0  0  0  0
   -5.5181   -0.5936    0.0000 C   0  0  0  0  0  0  0  0  0  0  0  0
  1 12  1  0  0  0  0
  1 14  1  0  0  0  0
  2 13  2  0  0  0  0
  3 24  1  0  0  0  0
  3 32  1  0  0  0  0
  4 18  2  0  0  0  0
  5 28  2  0  0  0  0
  6 36  2  0  0  0  0
  7 41  1  0  0  0  0
  7 42  1  0  0  0  0
 15  8  1  6  0  0  0
  8 18  1  0  0  0  0
 19  9  1  1  0  0  0
  9 28  1  0  0  0  0
 10 33  1  0  0  0  0
 10 36  1  0  0  0  0
 11 38  1  0  0  0  0
 11 39  1  0  0  0  0
 11 40  1  0  0  0  0
 12 13  1  6  0  0  0
 12 14  1  0  0  0  0
 12 16  1  1  0  0  0
 13 15  1  0  0  0  0
 15 17  1  0  0  0  0
 17 20  1  0  0  0  0
 18 19  1  0  0  0  0
 19 23  1  0  0  0  0
 20 30  1  0  0  0  0
 20 31  1  0  0  0  0
 21 23  1  0  0  0  0
 21 25  1  0  0  0  0
 21 26  2  0  0  0  0
 22 24  1  0  0  0  0
 22 25  2  0  0  0  0
 22 29  1  0  0  0  0
 24 27  2  0  0  0  0
 26 27  1  0  0  0  0
 28 33  1  0  0  0  0
 29 32  2  0  0  0  0
 30 34  1  0  0  0  0
 31 35  1  0  0  0  0
 33 37  1  6  0  0  0
 34 35  1  0  0  0  0
 36 38  1  0  0  0  0
 39 41  1  0  0  0  0
 40 42  1  0  0  0  0
M  END
> <PUBCHEM_COMPOUND_ID_TYPE>
0

> <PUBCHEM_TOTAL_CHARGE>
0

> <PUBCHEM_SUBSTANCE_ID>
310941137

> <PUBCHEM_SUBSTANCE_VERSION>
1

> <PUBCHEM_EXT_DATASOURCE_NAME>
4488

> <PUBCHEM_EXT_DATASOURCE_REGID>
SCHEMBL16119097

> <PUBCHEM_SUBSTANCE_COMMENT>
InChI=1S/C31H42N4O7/c1-20(32-27(36)18-35-10-13-40-14-11-35)29(38)34-25(17-22-7-8-26-23(15-22)9-12-41-26)30(39)33-24(16-21-5-3-4-6-21)28(37)31(2)19-42-31/h7-9,12,15,20-21,24-25H,3-6,10-11,13-14,16-19H2,1-2H3,(H,32,36)(H,33,39)(H,34,38)/t20-,24-,25-,31+/m0/s1
InChIKey=XLCDGHWXSXNXHQ-QXLKWZLXSA-N

> <PUBCHEM_SUBSTANCE_SYNONYM>
SCHEMBL16119097

> <PUBCHEM_XREF_EXT_ID>
SCHEMBL16119097

> <PUBCHEM_EXT_DATASOURCE_URL>
https://www.surechembl.org/

> <PUBCHEM_EXT_SUBSTANCE_URL>
https://www.surechembl.org/chemical/SCHEMBL16119097

> <PUBCHEM_CID_ASSOCIATIONS>
117608020  1

> <PUBCHEM_COORDINATE_TYPE>
1
3

> <PUBCHEM_BONDANNOTATIONS>
12  13  6
12  16  5
33  37  6
15  8  6
19  9  5

$$$$
