310932333
  -OEChem-07211613022D

 28 32  0     1  0  0  0  0  0999 V2000
    4.2918    0.0000    0.0000 F   0  0  0  0  0  0  0  0  0  0  0  0
    2.8298   -0.8254    0.0000 O   0  0  0  0  0  0  0  0  0  0  0  0
    2.8298   -4.1503    0.0000 O   0  0  0  0  0  0  0  0  0  0  0  0
    7.0744   -2.4053    0.0000 O   0  0  0  0  0  0  0  0  0  0  0  0
    2.1224   -2.9005    0.0000 N   0  0  0  0  0  0  0  0  0  0  0  0
    4.9285   -1.2498    0.0000 N   0  0  0  0  0  0  0  0  0  0  0  0
    1.4149   -4.1032    0.0000 N   0  0  0  0  0  0  0  0  0  0  0  0
    0.0000   -2.4525    0.0000 N   0  0  0  0  0  0  0  0  0  0  0  0
    2.8298   -2.4760    0.0000 C   0  0  3  0  0  0  0  0  0  0  0  0
    3.5608   -2.0516    0.0000 C   0  0  0  0  0  0  0  0  0  0  0  0
    2.0987   -2.0516    0.0000 C   0  0  0  0  0  0  0  0  0  0  0  0
    3.5608   -1.2498    0.0000 C   0  0  0  0  0  0  0  0  0  0  0  0
    2.0987   -1.2498    0.0000 C   0  0  0  0  0  0  0  0  0  0  0  0
    3.5372   -2.9005    0.0000 C   0  0  0  0  0  0  0  0  0  0  0  0
    4.2683   -2.4760    0.0000 C   0  0  0  0  0  0  0  0  0  0  0  0
    4.2683   -0.8254    0.0000 C   0  0  0  0  0  0  0  0  0  0  0  0
    4.9285   -2.0516    0.0000 C   0  0  0  0  0  0  0  0  0  0  0  0
    1.3913   -2.4760    0.0000 C   0  0  0  0  0  0  0  0  0  0  0  0
    2.1224   -3.7023    0.0000 C   0  0  0  0  0  0  0  0  0  0  0  0
    1.3913   -0.8254    0.0000 C   0  0  0  0  0  0  0  0  0  0  0  0
    0.7310   -2.0516    0.0000 C   0  0  0  0  0  0  0  0  0  0  0  0
    3.5372   -3.7023    0.0000 C   0  0  0  0  0  0  0  0  0  0  0  0
    5.6596   -2.4525    0.0000 C   0  0  0  0  0  0  0  0  0  0  0  0
    0.7310   -1.2498    0.0000 C   0  0  0  0  0  0  0  0  0  0  0  0
    6.3434   -2.0280    0.0000 C   0  0  0  0  0  0  0  0  0  0  0  0
    5.6596   -3.2778    0.0000 C   0  0  0  0  0  0  0  0  0  0  0  0
    6.4142   -3.6552    0.0000 C   0  0  0  0  0  0  0  0  0  0  0  0
    7.0744   -3.2306    0.0000 C   0  0  0  0  0  0  0  0  0  0  0  0
  1 16  1  0  0  0  0
  2 12  1  0  0  0  0
  2 13  1  0  0  0  0
  3 19  1  0  0  0  0
  3 22  1  0  0  0  0
  4 25  1  0  0  0  0
  4 28  1  0  0  0  0
  9  5  1  1  0  0  0
  5 19  2  0  0  0  0
  6 16  1  0  0  0  0
  6 17  2  0  0  0  0
  7 19  1  0  0  0  0
  8 21  1  0  0  0  0
  9 10  1  0  0  0  0
  9 11  1  0  0  0  0
  9 14  1  0  0  0  0
 10 12  1  0  0  0  0
 10 15  2  0  0  0  0
 11 13  2  0  0  0  0
 11 18  1  0  0  0  0
 12 16  2  0  0  0  0
 13 20  1  0  0  0  0
 14 22  1  0  0  0  0
 15 17  1  0  0  0  0
 17 23  1  0  0  0  0
 18 21  2  0  0  0  0
 20 24  2  0  0  0  0
 21 24  1  0  0  0  0
 23 25  1  0  0  0  0
 23 26  2  0  0  0  0
 26 27  1  0  0  0  0
 27 28  1  0  0  0  0
M  END
> <PUBCHEM_COMPOUND_ID_TYPE>
0

> <PUBCHEM_TOTAL_CHARGE>
0

> <PUBCHEM_SUBSTANCE_ID>
310932333

> <PUBCHEM_SUBSTANCE_VERSION>
1

> <PUBCHEM_EXT_DATASOURCE_NAME>
4488

> <PUBCHEM_EXT_DATASOURCE_REGID>
SCHEMBL16109699

> <PUBCHEM_SUBSTANCE_COMMENT>
InChI=1S/C20H19FN4O3/c21-18-17-14(9-15(24-18)11-2-1-6-26-10-11)20(5-7-27-19(23)25-20)13-8-12(22)3-4-16(13)28-17/h2-4,8-9H,1,5-7,10,22H2,(H2,23,25)/t20-/m0/s1
InChIKey=DPBVBVPYEAFSLQ-FQEVSTJZSA-N

> <PUBCHEM_SUBSTANCE_SYNONYM>
SCHEMBL16109699

> <PUBCHEM_XREF_EXT_ID>
SCHEMBL16109699

> <PUBCHEM_EXT_DATASOURCE_URL>
https://www.surechembl.org/

> <PUBCHEM_EXT_SUBSTANCE_URL>
https://www.surechembl.org/chemical/SCHEMBL16109699

> <PUBCHEM_CID_ASSOCIATIONS>
117600889  1

> <PUBCHEM_COORDINATE_TYPE>
1
3

> <PUBCHEM_BONDANNOTATIONS>
9  5  5

$$$$
