310948593
  -OEChem-07211613022D

 31 33  0     1  0  0  0  0  0999 V2000
   -3.7396    0.0206    0.0000 O   0  0  0  0  0  0  0  0  0  0  0  0
   -2.5160   -0.6118    0.0000 O   0  0  0  0  0  0  0  0  0  0  0  0
    3.2035    2.3992    0.0000 O   0  0  0  0  0  0  0  0  0  0  0  0
    0.3299    2.4816    0.0000 O   0  0  0  0  0  0  0  0  0  0  0  0
    1.0312   -0.4056    0.0000 N   0  0  0  0  0  0  0  0  0  0  0  0
    1.0312    1.2443    0.0000 N   0  0  0  0  0  0  0  0  0  0  0  0
    1.7324    2.4954    0.0000 N   0  0  0  0  0  0  0  0  0  0  0  0
    3.7396    1.7943    0.0000 N   0  0  0  0  0  0  0  0  0  0  0  0
   -1.8424    1.2443    0.0000 C   0  0  3  0  0  0  0  0  0  0  0  0
   -2.5160    0.8456    0.0000 C   0  0  3  0  0  0  0  0  0  0  0  0
   -1.0862    0.8043    0.0000 C   0  0  0  0  0  0  0  0  0  0  0  0
   -2.5160    1.6430    0.0000 C   0  0  0  0  0  0  0  0  0  0  0  0
    0.3162    0.8318    0.0000 C   0  0  0  0  0  0  0  0  0  0  0  0
    0.3162    0.0069    0.0000 C   0  0  0  0  0  0  0  0  0  0  0  0
   -0.3987    1.2305    0.0000 C   0  0  0  0  0  0  0  0  0  0  0  0
   -1.0999    0.0069    0.0000 C   0  0  0  0  0  0  0  0  0  0  0  0
   -2.9423    0.0894    0.0000 C   0  0  0  0  0  0  0  0  0  0  0  0
   -0.3849   -0.4056    0.0000 C   0  0  0  0  0  0  0  0  0  0  0  0
    1.0449    2.0692    0.0000 C   0  0  0  0  0  0  0  0  0  0  0  0
    1.7186   -0.0069    0.0000 C   0  0  0  0  0  0  0  0  0  0  0  0
    1.0174   -1.2443    0.0000 C   0  0  0  0  0  0  0  0  0  0  0  0
    2.4610    2.0830    0.0000 C   0  0  0  0  0  0  0  0  0  0  0  0
    2.5298    1.2580    0.0000 C   0  0  0  0  0  0  0  0  0  0  0  0
    2.4473   -0.4056    0.0000 C   0  0  0  0  0  0  0  0  0  0  0  0
    0.3299   -1.6567    0.0000 C   0  0  0  0  0  0  0  0  0  0  0  0
    3.3272    1.0793    0.0000 C   0  0  0  0  0  0  0  0  0  0  0  0
    3.6847    0.2956    0.0000 C   0  0  0  0  0  0  0  0  0  0  0  0
    3.1760    0.0069    0.0000 C   0  0  0  0  0  0  0  0  0  0  0  0
    2.4610   -1.2580    0.0000 C   0  0  0  0  0  0  0  0  0  0  0  0
   -0.3987   -1.2305    0.0000 C   0  0  0  0  0  0  0  0  0  0  0  0
    0.3299   -2.4954    0.0000 C   0  0  0  0  0  0  0  0  0  0  0  0
  1 17  2  0  0  0  0
  2 17  1  0  0  0  0
  3  8  1  0  0  0  0
  3 22  1  0  0  0  0
  4 19  2  0  0  0  0
  5 14  1  0  0  0  0
  5 20  1  0  0  0  0
  5 21  1  0  0  0  0
  6 13  1  0  0  0  0
  6 19  1  0  0  0  0
  7 19  1  0  0  0  0
  7 22  1  0  0  0  0
  8 26  2  0  0  0  0
  9 10  1  0  0  0  0
  9 11  1  0  0  0  0
  9 12  1  1  0  0  0
 10 12  1  0  0  0  0
 10 17  1  1  0  0  0
 11 15  1  0  0  0  0
 11 16  2  0  0  0  0
 13 14  1  0  0  0  0
 13 15  2  0  0  0  0
 14 18  2  0  0  0  0
 16 18  1  0  0  0  0
 20 24  1  0  0  0  0
 21 25  1  0  0  0  0
 22 23  2  0  0  0  0
 23 26  1  0  0  0  0
 24 28  1  0  0  0  0
 24 29  1  0  0  0  0
 25 30  1  0  0  0  0
 25 31  1  0  0  0  0
 26 27  1  0  0  0  0
M  END
> <PUBCHEM_COMPOUND_ID_TYPE>
0

> <PUBCHEM_TOTAL_CHARGE>
0

> <PUBCHEM_SUBSTANCE_ID>
310948593

> <PUBCHEM_SUBSTANCE_VERSION>
1

> <PUBCHEM_EXT_DATASOURCE_NAME>
4488

> <PUBCHEM_EXT_DATASOURCE_REGID>
SCHEMBL16126776

> <PUBCHEM_SUBSTANCE_COMMENT>
InChI=1S/C23H32N4O4/c1-13(2)11-27(12-14(3)4)20-7-6-16(17-10-18(17)22(28)29)9-19(20)24-23(30)25-21-8-15(5)26-31-21/h6-9,13-14,17-18H,10-12H2,1-5H3,(H,28,29)(H2,24,25,30)/t17-,18-/m0/s1
InChIKey=FZVICXDZBJIKNM-ROUUACIJSA-N

> <PUBCHEM_SUBSTANCE_SYNONYM>
SCHEMBL16126776

> <PUBCHEM_XREF_EXT_ID>
SCHEMBL16126776

> <PUBCHEM_EXT_DATASOURCE_URL>
https://www.surechembl.org/

> <PUBCHEM_EXT_SUBSTANCE_URL>
https://www.surechembl.org/chemical/SCHEMBL16126776

> <PUBCHEM_CID_ASSOCIATIONS>
117614142  1

> <PUBCHEM_COORDINATE_TYPE>
1
3

> <PUBCHEM_BONDANNOTATIONS>
10  17  5
9  12  5

$$$$
