310931874
  -OEChem-07211613022D

 32 35  0     0  0  0  0  0  0999 V2000
    4.0121   -2.0964    0.0000 O   0  0  0  0  0  0  0  0  0  0  0  0
    8.4941   -2.2048    0.0000 O   0  0  0  0  0  0  0  0  0  0  0  0
   10.5182   -4.0482    0.0000 O   0  0  0  0  0  0  0  0  0  0  0  0
    4.9157   -0.9759    0.0000 N   0  0  0  0  0  0  0  0  0  0  0  0
    4.8434   -0.1446    0.0000 N   0  0  0  0  0  0  0  0  0  0  0  0
    6.3615   -0.9759    0.0000 N   0  0  0  0  0  0  0  0  0  0  0  0
    7.7711   -3.4338    0.0000 N   0  0  0  0  0  0  0  0  0  0  0  0
    0.0000   -1.8073    0.0000 N   0  0  0  0  0  0  0  0  0  0  0  0
    4.1928   -1.3012    0.0000 C   0  0  0  0  0  0  0  0  0  0  0  0
    3.6145   -0.6867    0.0000 C   0  0  0  0  0  0  0  0  0  0  0  0
    5.6386   -1.3735    0.0000 C   0  0  0  0  0  0  0  0  0  0  0  0
    2.8193   -0.7952    0.0000 C   0  0  0  0  0  0  0  0  0  0  0  0
    4.0121    0.0000    0.0000 C   0  0  0  0  0  0  0  0  0  0  0  0
    7.0482   -2.2048    0.0000 C   0  0  0  0  0  0  0  0  0  0  0  0
    5.6386   -2.2048    0.0000 C   0  0  0  0  0  0  0  0  0  0  0  0
    9.2169   -3.4338    0.0000 C   0  0  0  0  0  0  0  0  0  0  0  0
    7.0482   -1.3735    0.0000 C   0  0  0  0  0  0  0  0  0  0  0  0
    6.3615   -2.6024    0.0000 C   0  0  0  0  0  0  0  0  0  0  0  0
    2.4579   -1.5542    0.0000 C   0  0  0  0  0  0  0  0  0  0  0  0
    2.3133   -0.1446    0.0000 C   0  0  0  0  0  0  0  0  0  0  0  0
    7.7711   -2.6024    0.0000 C   0  0  0  0  0  0  0  0  0  0  0  0
    8.4941   -3.8314    0.0000 C   0  0  0  0  0  0  0  0  0  0  0  0
    1.1567   -0.9759    0.0000 C   0  0  0  0  0  0  0  0  0  0  0  0
    8.8555   -2.7109    0.0000 C   0  0  0  0  0  0  0  0  0  0  0  0
   10.0483   -3.3253    0.0000 C   0  0  0  0  0  0  0  0  0  0  0  0
    1.6627   -1.6265    0.0000 C   0  0  0  0  0  0  0  0  0  0  0  0
    1.4820   -0.2530    0.0000 C   0  0  0  0  0  0  0  0  0  0  0  0
    9.6868   -4.1205    0.0000 C   0  0  0  0  0  0  0  0  0  0  0  0
    9.4700   -2.1326    0.0000 C   0  0  0  0  0  0  0  0  0  0  0  0
   10.1567   -2.5301    0.0000 C   0  0  0  0  0  0  0  0  0  0  0  0
    0.3614   -1.0843    0.0000 C   0  0  0  0  0  0  0  0  0  0  0  0
   10.8435   -3.3253    0.0000 C   0  0  0  0  0  0  0  0  0  0  0  0
  1  9  1  0  0  0  0
  2 21  2  0  0  0  0
  3 28  1  0  0  0  0
  3 32  1  0  0  0  0
  4  5  1  0  0  0  0
  4  9  1  0  0  0  0
  4 11  1  0  0  0  0
  5 13  2  0  0  0  0
  6 11  2  0  0  0  0
  6 17  1  0  0  0  0
  7 21  1  0  0  0  0
  7 22  1  0  0  0  0
  8 31  3  0  0  0  0
  9 10  2  0  0  0  0
 10 12  1  0  0  0  0
 10 13  1  0  0  0  0
 11 15  1  0  0  0  0
 12 19  2  0  0  0  0
 12 20  1  0  0  0  0
 14 17  2  0  0  0  0
 14 18  1  0  0  0  0
 14 21  1  0  0  0  0
 15 18  2  0  0  0  0
 16 22  1  0  0  0  0
 16 24  1  0  0  0  0
 16 25  1  0  0  0  0
 16 28  1  0  0  0  0
 19 26  1  0  0  0  0
 20 27  2  0  0  0  0
 23 26  2  0  0  0  0
 23 27  1  0  0  0  0
 23 31  1  0  0  0  0
 24 29  1  0  0  0  0
 25 30  1  0  0  0  0
 29 30  1  0  0  0  0
M  END
> <PUBCHEM_COMPOUND_ID_TYPE>
0

> <PUBCHEM_TOTAL_CHARGE>
0

> <PUBCHEM_SUBSTANCE_ID>
310931874

> <PUBCHEM_SUBSTANCE_VERSION>
1

> <PUBCHEM_EXT_DATASOURCE_NAME>
4488

> <PUBCHEM_EXT_DATASOURCE_REGID>
SCHEMBL16109209

> <PUBCHEM_SUBSTANCE_COMMENT>
InChI=1S/C24H25N5O3/c1-32-16-24(10-2-3-11-24)15-27-22(30)19-8-9-21(26-13-19)29-23(31)20(14-28-29)18-6-4-17(12-25)5-7-18/h4-9,13-14,31H,2-3,10-11,15-16H2,1H3,(H,27,30)
InChIKey=IIYRVGHOTYYOFY-UHFFFAOYSA-N

> <PUBCHEM_SUBSTANCE_SYNONYM>
SCHEMBL16109209

> <PUBCHEM_XREF_EXT_ID>
SCHEMBL16109209

> <PUBCHEM_EXT_DATASOURCE_URL>
https://www.surechembl.org/

> <PUBCHEM_EXT_SUBSTANCE_URL>
https://www.surechembl.org/chemical/SCHEMBL16109209

> <PUBCHEM_CID_ASSOCIATIONS>
117600538  1

> <PUBCHEM_COORDINATE_TYPE>
1
3

$$$$
