310943326
  -OEChem-07211613022D

 34 37  0     0  0  0  0  0  0999 V2000
   -1.4794    2.0682    0.0000 F   0  0  0  0  0  0  0  0  0  0  0  0
    4.2911    0.4195    0.0000 F   0  0  0  0  0  0  0  0  0  0  0  0
    5.1007   -0.1987    0.0000 F   0  0  0  0  0  0  0  0  0  0  0  0
    5.0124   -0.8317    0.0000 F   0  0  0  0  0  0  0  0  0  0  0  0
   -3.6581   -0.8317    0.0000 O   0  0  0  0  0  0  0  0  0  0  0  0
    0.6845   -0.8317    0.0000 O   0  0  0  0  0  0  0  0  0  0  0  0
   -5.1007    1.6561    0.0000 O   0  0  0  0  0  0  0  0  0  0  0  0
   -2.2155   -0.8317    0.0000 N   0  0  0  0  0  0  0  0  0  0  0  0
   -3.6581    0.8317    0.0000 N   0  0  0  0  0  0  0  0  0  0  0  0
    1.3911    0.4195    0.0000 N   0  0  0  0  0  0  0  0  0  0  0  0
   -1.4794    0.4195    0.0000 C   0  0  0  0  0  0  0  0  0  0  0  0
   -0.7581    0.8317    0.0000 C   0  0  0  0  0  0  0  0  0  0  0  0
   -2.9221    0.4195    0.0000 C   0  0  0  0  0  0  0  0  0  0  0  0
   -2.9221   -0.4048    0.0000 C   0  0  0  0  0  0  0  0  0  0  0  0
   -2.2008    0.8317    0.0000 C   0  0  0  0  0  0  0  0  0  0  0  0
   -1.4942   -0.4195    0.0000 C   0  0  0  0  0  0  0  0  0  0  0  0
   -0.7434    1.6561    0.0000 C   0  0  0  0  0  0  0  0  0  0  0  0
   -0.0221    0.4195    0.0000 C   0  0  0  0  0  0  0  0  0  0  0  0
    0.6698    0.8464    0.0000 C   0  0  0  0  0  0  0  0  0  0  0  0
    2.1272   -0.8317    0.0000 C   0  0  0  0  0  0  0  0  0  0  0  0
    1.4058   -0.4048    0.0000 C   0  0  0  0  0  0  0  0  0  0  0  0
    3.5698   -0.8317    0.0000 C   0  0  0  0  0  0  0  0  0  0  0  0
   -0.0368    2.0535    0.0000 C   0  0  0  0  0  0  0  0  0  0  0  0
    0.6698    1.6561    0.0000 C   0  0  0  0  0  0  0  0  0  0  0  0
    4.2911   -0.4048    0.0000 C   0  0  0  0  0  0  0  0  0  0  0  0
    2.8485   -0.4343    0.0000 C   0  0  0  0  0  0  0  0  0  0  0  0
   -3.6581    1.6561    0.0000 C   0  0  0  0  0  0  0  0  0  0  0  0
   -4.3647    0.4195    0.0000 C   0  0  0  0  0  0  0  0  0  0  0  0
   -2.2008   -1.6708    0.0000 C   0  0  0  0  0  0  0  0  0  0  0  0
    2.1272   -1.6561    0.0000 C   0  0  0  0  0  0  0  0  0  0  0  0
    3.5551   -1.6561    0.0000 C   0  0  0  0  0  0  0  0  0  0  0  0
    2.8632   -2.0682    0.0000 C   0  0  0  0  0  0  0  0  0  0  0  0
   -4.3942    2.0682    0.0000 C   0  0  0  0  0  0  0  0  0  0  0  0
   -5.0861    0.8317    0.0000 C   0  0  0  0  0  0  0  0  0  0  0  0
  1 17  1  0  0  0  0
  2 25  1  0  0  0  0
  3 25  1  0  0  0  0
  4 25  1  0  0  0  0
  5 14  2  0  0  0  0
  6 21  2  0  0  0  0
  7 33  1  0  0  0  0
  7 34  1  0  0  0  0
  8 14  1  0  0  0  0
  8 16  1  0  0  0  0
  8 29  1  0  0  0  0
  9 13  1  0  0  0  0
  9 27  1  0  0  0  0
  9 28  1  0  0  0  0
 10 19  1  0  0  0  0
 10 21  1  0  0  0  0
 11 12  1  0  0  0  0
 11 15  1  0  0  0  0
 11 16  2  0  0  0  0
 12 17  2  0  0  0  0
 12 18  1  0  0  0  0
 13 14  1  0  0  0  0
 13 15  2  0  0  0  0
 17 23  1  0  0  0  0
 18 19  2  0  0  0  0
 19 24  1  0  0  0  0
 20 21  1  0  0  0  0
 20 26  1  0  0  0  0
 20 30  2  0  0  0  0
 22 25  1  0  0  0  0
 22 26  2  0  0  0  0
 22 31  1  0  0  0  0
 23 24  2  0  0  0  0
 27 33  1  0  0  0  0
 28 34  1  0  0  0  0
 30 32  1  0  0  0  0
 31 32  2  0  0  0  0
M  END
> <PUBCHEM_COMPOUND_ID_TYPE>
0

> <PUBCHEM_TOTAL_CHARGE>
0

> <PUBCHEM_SUBSTANCE_ID>
310943326

> <PUBCHEM_SUBSTANCE_VERSION>
1

> <PUBCHEM_EXT_DATASOURCE_NAME>
4488

> <PUBCHEM_EXT_DATASOURCE_REGID>
SCHEMBL16121388

> <PUBCHEM_SUBSTANCE_COMMENT>
InChI=1S/C24H21F4N3O3/c1-30-14-16(12-21(23(30)33)31-7-9-34-10-8-31)19-13-18(5-6-20(19)25)29-22(32)15-3-2-4-17(11-15)24(26,27)28/h2-6,11-14H,7-10H2,1H3,(H,29,32)
InChIKey=GCVLGXWDFGPGDP-UHFFFAOYSA-N

> <PUBCHEM_SUBSTANCE_SYNONYM>
SCHEMBL16121388

> <PUBCHEM_XREF_EXT_ID>
SCHEMBL16121388

> <PUBCHEM_EXT_DATASOURCE_URL>
https://www.surechembl.org/

> <PUBCHEM_EXT_SUBSTANCE_URL>
https://www.surechembl.org/chemical/SCHEMBL16121388

> <PUBCHEM_CID_ASSOCIATIONS>
117609751  1

> <PUBCHEM_COORDINATE_TYPE>
1
3

$$$$
