310949325
  -OEChem-07211613022D

 25 28  0     0  0  0  0  0  0999 V2000
    1.8185    3.6183    0.0000 S   0  0  0  0  0  0  0  0  0  0  0  0
   -2.3059    2.9246    0.0000 F   0  0  0  0  0  0  0  0  0  0  0  0
    1.1249   -2.3810    0.0000 O   0  0  0  0  0  0  0  0  0  0  0  0
    0.0000   -3.6183    0.0000 O   0  0  0  0  0  0  0  0  0  0  0  0
    0.6374    1.4249    0.0000 N   0  0  0  0  0  0  0  0  0  0  0  0
   -0.2624   -2.8122    0.0000 N   0  0  0  0  0  0  0  0  0  0  0  0
   -0.1499    1.7061    0.0000 C   0  0  0  0  0  0  0  0  0  0  0  0
   -0.1312    2.5309    0.0000 C   0  0  0  0  0  0  0  0  0  0  0  0
    1.1623    2.1185    0.0000 C   0  0  0  0  0  0  0  0  0  0  0  0
    0.6374    2.7746    0.0000 C   0  0  0  0  0  0  0  0  0  0  0  0
   -0.8812    2.9246    0.0000 C   0  0  0  0  0  0  0  0  0  0  0  0
    0.8999    0.6562    0.0000 C   0  0  0  0  0  0  0  0  0  0  0  0
   -0.8812    1.2936    0.0000 C   0  0  0  0  0  0  0  0  0  0  0  0
    1.9685    2.1934    0.0000 C   0  0  0  0  0  0  0  0  0  0  0  0
    1.0124    3.5433    0.0000 C   0  0  0  0  0  0  0  0  0  0  0  0
   -1.5936    2.5309    0.0000 C   0  0  0  0  0  0  0  0  0  0  0  0
    0.3374    0.0188    0.0000 C   0  0  0  0  0  0  0  0  0  0  0  0
   -1.5936    1.6873    0.0000 C   0  0  0  0  0  0  0  0  0  0  0  0
    2.3059    2.9621    0.0000 C   0  0  0  0  0  0  0  0  0  0  0  0
    0.6000   -0.7874    0.0000 C   0  0  0  0  0  0  0  0  0  0  0  0
    0.0375   -1.3873    0.0000 C   0  0  0  0  0  0  0  0  0  0  0  0
   -0.4686    0.1875    0.0000 C   0  0  0  0  0  0  0  0  0  0  0  0
   -0.7687   -1.2186    0.0000 C   0  0  0  0  0  0  0  0  0  0  0  0
   -0.9936   -0.3936    0.0000 C   0  0  0  0  0  0  0  0  0  0  0  0
    0.2812   -2.1559    0.0000 C   0  0  0  0  0  0  0  0  0  0  0  0
  1 15  1  0  0  0  0
  1 19  1  0  0  0  0
  2 16  1  0  0  0  0
  3 25  2  0  0  0  0
  4  6  1  0  0  0  0
  5  7  1  0  0  0  0
  5  9  1  0  0  0  0
  5 12  1  0  0  0  0
  6 25  1  0  0  0  0
  7  8  1  0  0  0  0
  7 13  2  0  0  0  0
  8 10  1  0  0  0  0
  8 11  2  0  0  0  0
  9 10  2  0  0  0  0
  9 14  1  0  0  0  0
 10 15  1  0  0  0  0
 11 16  1  0  0  0  0
 12 17  1  0  0  0  0
 13 18  1  0  0  0  0
 14 19  1  0  0  0  0
 16 18  2  0  0  0  0
 17 20  1  0  0  0  0
 17 22  2  0  0  0  0
 20 21  2  0  0  0  0
 21 23  1  0  0  0  0
 21 25  1  0  0  0  0
 22 24  1  0  0  0  0
 23 24  2  0  0  0  0
M  END
> <PUBCHEM_COMPOUND_ID_TYPE>
0

> <PUBCHEM_TOTAL_CHARGE>
0

> <PUBCHEM_SUBSTANCE_ID>
310949325

> <PUBCHEM_SUBSTANCE_VERSION>
1

> <PUBCHEM_EXT_DATASOURCE_NAME>
4488

> <PUBCHEM_EXT_DATASOURCE_REGID>
SCHEMBL16127515

> <PUBCHEM_SUBSTANCE_COMMENT>
InChI=1S/C19H17FN2O2S/c20-14-4-5-17-15(9-14)16-11-25-7-6-18(16)22(17)10-12-2-1-3-13(8-12)19(23)21-24/h1-5,8-9,24H,6-7,10-11H2,(H,21,23)
InChIKey=IHYYIVWKYKDYCV-UHFFFAOYSA-N

> <PUBCHEM_SUBSTANCE_SYNONYM>
SCHEMBL16127515

> <PUBCHEM_XREF_EXT_ID>
SCHEMBL16127515

> <PUBCHEM_EXT_DATASOURCE_URL>
https://www.surechembl.org/

> <PUBCHEM_EXT_SUBSTANCE_URL>
https://www.surechembl.org/chemical/SCHEMBL16127515

> <PUBCHEM_CID_ASSOCIATIONS>
117614803  1

> <PUBCHEM_COORDINATE_TYPE>
1
3

$$$$
