310948165
  -OEChem-07211613022D

 19 21  0     1  0  0  0  0  0999 V2000
   -2.5910    0.7620    0.0000 O   0  0  0  0  0  0  0  0  0  0  0  0
    0.0970    0.0554    0.0000 N   0  0  0  0  0  0  0  0  0  0  0  0
   -0.3879   -0.6096    0.0000 N   0  0  0  0  0  0  0  0  0  0  0  0
   -1.6211    1.8427    0.0000 N   0  0  0  0  0  0  0  0  0  0  0  0
   -1.8982   -0.7620    0.0000 N   0  0  0  0  0  0  0  0  0  0  0  0
    0.5265   -2.0922    0.0000 N   0  0  0  0  0  0  0  0  0  0  0  0
   -0.4018    0.7205    0.0000 C   0  0  0  0  0  0  0  0  0  0  0  0
   -1.1777    0.4711    0.0000 C   0  0  0  0  0  0  0  0  0  0  0  0
   -1.1916   -0.3603    0.0000 C   0  0  0  0  0  0  0  0  0  0  0  0
    0.9421    0.0554    0.0000 C   0  0  3  0  0  0  0  0  0  0  0  0
   -1.7873    1.0391    0.0000 C   0  0  0  0  0  0  0  0  0  0  0  0
   -0.2217    1.5380    0.0000 C   0  0  0  0  0  0  0  0  0  0  0  0
    1.3578   -0.6512    0.0000 C   0  0  3  0  0  0  0  0  0  0  0  0
    1.3578    0.7620    0.0000 C   0  0  0  0  0  0  0  0  0  0  0  0
   -0.8313    2.0922    0.0000 C   0  0  0  0  0  0  0  0  0  0  0  0
    2.1753   -0.6512    0.0000 C   0  0  0  0  0  0  0  0  0  0  0  0
    0.9283   -1.3855    0.0000 C   0  0  0  0  0  0  0  0  0  0  0  0
    2.1891    0.7620    0.0000 C   0  0  0  0  0  0  0  0  0  0  0  0
    2.5910    0.0415    0.0000 C   0  0  0  0  0  0  0  0  0  0  0  0
  1 11  2  0  0  0  0
  2  3  1  0  0  0  0
  2  7  1  0  0  0  0
 10  2  1  1  0  0  0
  3  9  2  0  0  0  0
  4 11  1  0  0  0  0
  4 15  1  0  0  0  0
  5  9  1  0  0  0  0
  6 17  3  0  0  0  0
  7  8  2  0  0  0  0
  7 12  1  0  0  0  0
  8  9  1  0  0  0  0
  8 11  1  0  0  0  0
 10 13  1  0  0  0  0
 10 14  1  0  0  0  0
 12 15  2  0  0  0  0
 13 16  1  0  0  0  0
 13 17  1  6  0  0  0
 14 18  1  0  0  0  0
 16 19  1  0  0  0  0
 18 19  1  0  0  0  0
M  END
> <PUBCHEM_COMPOUND_ID_TYPE>
0

> <PUBCHEM_TOTAL_CHARGE>
0

> <PUBCHEM_SUBSTANCE_ID>
310948165

> <PUBCHEM_SUBSTANCE_VERSION>
1

> <PUBCHEM_EXT_DATASOURCE_NAME>
4488

> <PUBCHEM_EXT_DATASOURCE_REGID>
SCHEMBL16126342

> <PUBCHEM_SUBSTANCE_COMMENT>
InChI=1S/C13H15N5O/c14-7-8-3-1-2-4-9(8)18-10-5-6-16-13(19)11(10)12(15)17-18/h5-6,8-9H,1-4H2,(H2,15,17)(H,16,19)/t8-,9+/m1/s1
InChIKey=ZEPJIJNMLROOAJ-BDAKNGLRSA-N

> <PUBCHEM_SUBSTANCE_SYNONYM>
SCHEMBL16126342

> <PUBCHEM_XREF_EXT_ID>
SCHEMBL16126342

> <PUBCHEM_EXT_DATASOURCE_URL>
https://www.surechembl.org/

> <PUBCHEM_EXT_SUBSTANCE_URL>
https://www.surechembl.org/chemical/SCHEMBL16126342

> <PUBCHEM_CID_ASSOCIATIONS>
117613763  1

> <PUBCHEM_COORDINATE_TYPE>
1
3

> <PUBCHEM_BONDANNOTATIONS>
13  17  6
10  2  5

$$$$
