310931871
  -OEChem-07211613022D

 34 38  0     1  0  0  0  0  0999 V2000
   -8.9180   -2.2650    0.0000 F   0  0  0  0  0  0  0  0  0  0  0  0
   -5.9266    0.3175    0.0000 O   0  0  0  0  0  0  0  0  0  0  0  0
   -2.1434    1.6500    0.0000 O   0  0  0  0  0  0  0  0  0  0  0  0
   -5.0013   -0.8250    0.0000 N   0  0  0  0  0  0  0  0  0  0  0  0
    0.0000   -0.4125    0.0000 N   0  0  3  0  0  0  0  0  0  0  0  0
   -1.4290    0.4125    0.0000 N   0  0  0  0  0  0  0  0  0  0  0  0
   -5.0876   -1.6455    0.0000 N   0  0  0  0  0  0  0  0  0  0  0  0
   -3.5724   -0.8250    0.0000 N   0  0  0  0  0  0  0  0  0  0  0  0
  -10.4095   -0.6714    0.0000 N   0  0  0  0  0  0  0  0  0  0  0  0
    0.0000    0.4125    0.0000 C   0  0  3  0  0  0  0  0  0  0  0  0
   -6.3071   -1.1026    0.0000 C   0  0  0  0  0  0  0  0  0  0  0  0
   -5.7550   -0.4895    0.0000 C   0  0  0  0  0  0  0  0  0  0  0  0
   -7.1276   -1.0163    0.0000 C   0  0  0  0  0  0  0  0  0  0  0  0
   -4.2869   -0.4125    0.0000 C   0  0  0  0  0  0  0  0  0  0  0  0
   -0.7145    0.8250    0.0000 C   0  0  0  0  0  0  0  0  0  0  0  0
   -7.6125   -1.6838    0.0000 C   0  0  0  0  0  0  0  0  0  0  0  0
   -2.1434    0.8250    0.0000 C   0  0  0  0  0  0  0  0  0  0  0  0
   -5.8946   -1.8170    0.0000 C   0  0  0  0  0  0  0  0  0  0  0  0
   -2.8579    0.4125    0.0000 C   0  0  0  0  0  0  0  0  0  0  0  0
    0.7846    0.6674    0.0000 C   0  0  0  0  0  0  0  0  0  0  0  0
   -8.4330   -1.5975    0.0000 C   0  0  0  0  0  0  0  0  0  0  0  0
   -0.7145   -0.8250    0.0000 C   0  0  0  0  0  0  0  0  0  0  0  0
   -1.4290   -0.4125    0.0000 C   0  0  0  0  0  0  0  0  0  0  0  0
   -7.4632   -0.2626    0.0000 C   0  0  0  0  0  0  0  0  0  0  0  0
    0.7846   -0.6674    0.0000 C   0  0  0  0  0  0  0  0  0  0  0  0
   -4.2869    0.4125    0.0000 C   0  0  0  0  0  0  0  0  0  0  0  0
   -8.7686   -0.8439    0.0000 C   0  0  0  0  0  0  0  0  0  0  0  0
   -2.8579   -0.4125    0.0000 C   0  0  0  0  0  0  0  0  0  0  0  0
   -3.5724    0.8250    0.0000 C   0  0  0  0  0  0  0  0  0  0  0  0
    1.2696    0.0000    0.0000 C   0  0  0  0  0  0  0  0  0  0  0  0
   -8.2836   -0.1764    0.0000 C   0  0  0  0  0  0  0  0  0  0  0  0
   -7.2770   -2.4374    0.0000 C   0  0  0  0  0  0  0  0  0  0  0  0
   -9.5890   -0.7576    0.0000 C   0  0  0  0  0  0  0  0  0  0  0  0
    0.0862    1.2330    0.0000 H   0  0  0  0  0  0  0  0  0  0  0  0
  1 21  1  0  0  0  0
  2 12  1  0  0  0  0
  3 17  2  0  0  0  0
  4  7  1  0  0  0  0
  4 12  1  0  0  0  0
  4 14  1  0  0  0  0
  5 10  1  0  0  0  0
  5 22  1  0  0  0  0
  5 25  1  0  0  0  0
  6 15  1  0  0  0  0
  6 17  1  0  0  0  0
  6 23  1  0  0  0  0
  7 18  2  0  0  0  0
  8 14  2  0  0  0  0
  8 28  1  0  0  0  0
  9 33  3  0  0  0  0
 10 15  1  0  0  0  0
 10 20  1  0  0  0  0
 10 34  1  6  0  0  0
 11 12  2  0  0  0  0
 11 13  1  0  0  0  0
 11 18  1  0  0  0  0
 13 16  1  0  0  0  0
 13 24  2  0  0  0  0
 14 26  1  0  0  0  0
 16 21  2  0  0  0  0
 16 32  1  0  0  0  0
 17 19  1  0  0  0  0
 19 28  2  0  0  0  0
 19 29  1  0  0  0  0
 20 30  1  0  0  0  0
 21 27  1  0  0  0  0
 22 23  1  0  0  0  0
 24 31  1  0  0  0  0
 25 30  1  0  0  0  0
 26 29  2  0  0  0  0
 27 31  2  0  0  0  0
 27 33  1  0  0  0  0
M  END
> <PUBCHEM_COMPOUND_ID_TYPE>
0

> <PUBCHEM_TOTAL_CHARGE>
0

> <PUBCHEM_SUBSTANCE_ID>
310931871

> <PUBCHEM_SUBSTANCE_VERSION>
1

> <PUBCHEM_EXT_DATASOURCE_NAME>
4488

> <PUBCHEM_EXT_DATASOURCE_REGID>
SCHEMBL16109206

> <PUBCHEM_SUBSTANCE_COMMENT>
InChI=1S/C24H23FN6O2/c1-15-19(6-4-16(11-26)22(15)25)20-13-28-31(24(20)33)21-7-5-17(12-27-21)23(32)30-10-9-29-8-2-3-18(29)14-30/h4-7,12-13,18,33H,2-3,8-10,14H2,1H3/t18-/m1/s1
InChIKey=XCCJFAIABOVJJP-GOSISDBHSA-N

> <PUBCHEM_SUBSTANCE_SYNONYM>
SCHEMBL16109206

> <PUBCHEM_XREF_EXT_ID>
SCHEMBL16109206

> <PUBCHEM_EXT_DATASOURCE_URL>
https://www.surechembl.org/

> <PUBCHEM_EXT_SUBSTANCE_URL>
https://www.surechembl.org/chemical/SCHEMBL16109206

> <PUBCHEM_CID_ASSOCIATIONS>
117600536  1

> <PUBCHEM_COORDINATE_TYPE>
1
3

> <PUBCHEM_BONDANNOTATIONS>
10  34  6

$$$$
