310934456
  -OEChem-07211613022D

 26 28  0     0  0  0  0  0  0999 V2000
    0.0000   -2.8211    0.0000 Cl  0  0  0  0  0  0  0  0  0  0  0  0
    7.1591   -0.7186    0.0000 S   0  0  0  0  0  0  0  0  0  0  0  0
    3.5662   -3.4864    0.0000 O   0  0  0  0  0  0  0  0  0  0  0  0
    4.2315    0.0000    0.0000 O   0  0  0  0  0  0  0  0  0  0  0  0
    7.9841   -0.7186    0.0000 O   0  0  0  0  0  0  0  0  0  0  0  0
    7.5583    0.0000    0.0000 O   0  0  0  0  0  0  0  0  0  0  0  0
    3.4065   -1.4371    0.0000 O   0  0  0  0  0  0  0  0  0  0  0  0
    5.0566   -1.4371    0.0000 N   0  0  0  0  0  0  0  0  0  0  0  0
    4.2315   -1.4371    0.0000 N   0  0  0  0  0  0  0  0  0  0  0  0
    4.1783   -2.9275    0.0000 N   0  0  0  0  0  0  0  0  0  0  0  0
    5.4824   -0.7186    0.0000 C   0  0  0  0  0  0  0  0  0  0  0  0
    4.6574   -0.7186    0.0000 C   0  0  0  0  0  0  0  0  0  0  0  0
    5.9082   -1.4371    0.0000 C   0  0  0  0  0  0  0  0  0  0  0  0
    5.9082    0.0000    0.0000 C   0  0  0  0  0  0  0  0  0  0  0  0
    6.7333   -1.4371    0.0000 C   0  0  0  0  0  0  0  0  0  0  0  0
    6.7333    0.0000    0.0000 C   0  0  0  0  0  0  0  0  0  0  0  0
    3.8323   -2.1557    0.0000 C   0  0  0  0  0  0  0  0  0  0  0  0
    4.4179   -1.6234    0.0000 C   0  0  0  0  0  0  0  0  0  0  0  0
    2.8477   -3.0605    0.0000 C   0  0  0  0  0  0  0  0  0  0  0  0
    3.0073   -2.2621    0.0000 C   0  0  0  0  0  0  0  0  0  0  0  0
    2.1025   -3.4065    0.0000 C   0  0  0  0  0  0  0  0  0  0  0  0
    1.4371   -2.9541    0.0000 C   0  0  0  0  0  0  0  0  0  0  0  0
    2.0226   -4.2582    0.0000 C   0  0  0  0  0  0  0  0  0  0  0  0
    0.6919   -3.3001    0.0000 C   0  0  0  0  0  0  0  0  0  0  0  0
    1.2775   -4.5775    0.0000 C   0  0  0  0  0  0  0  0  0  0  0  0
    0.6121   -4.0985    0.0000 C   0  0  0  0  0  0  0  0  0  0  0  0
  1 24  1  0  0  0  0
  2  5  2  0  0  0  0
  2  6  2  0  0  0  0
  2 15  1  0  0  0  0
  2 16  1  0  0  0  0
  3 10  1  0  0  0  0
  3 19  1  0  0  0  0
  4 12  2  0  0  0  0
  7  9  1  0  0  0  0
  8 11  1  0  0  0  0
  8 18  1  0  0  0  0
  9 12  1  0  0  0  0
 10 17  2  0  0  0  0
 11 12  1  0  0  0  0
 11 13  1  0  0  0  0
 11 14  1  0  0  0  0
 13 15  1  0  0  0  0
 14 16  1  0  0  0  0
 17 18  1  0  0  0  0
 17 20  1  0  0  0  0
 19 20  2  0  0  0  0
 19 21  1  0  0  0  0
 21 22  1  0  0  0  0
 21 23  2  0  0  0  0
 22 24  2  0  0  0  0
 23 25  1  0  0  0  0
 24 26  1  0  0  0  0
 25 26  2  0  0  0  0
M  END
> <PUBCHEM_COMPOUND_ID_TYPE>
0

> <PUBCHEM_TOTAL_CHARGE>
0

> <PUBCHEM_SUBSTANCE_ID>
310934456

> <PUBCHEM_SUBSTANCE_VERSION>
1

> <PUBCHEM_EXT_DATASOURCE_NAME>
4488

> <PUBCHEM_EXT_DATASOURCE_REGID>
SCHEMBL16111936

> <PUBCHEM_SUBSTANCE_COMMENT>
InChI=1S/C16H18ClN3O5S/c17-12-3-1-2-11(8-12)14-9-13(20-25-14)10-18-16(15(21)19-22)4-6-26(23,24)7-5-16/h1-3,8-9,18,22H,4-7,10H2,(H,19,21)
InChIKey=RNARVQDPWAGOCR-UHFFFAOYSA-N

> <PUBCHEM_SUBSTANCE_SYNONYM>
SCHEMBL16111936

> <PUBCHEM_XREF_EXT_ID>
SCHEMBL16111936

> <PUBCHEM_EXT_DATASOURCE_URL>
https://www.surechembl.org/

> <PUBCHEM_EXT_SUBSTANCE_URL>
https://www.surechembl.org/chemical/SCHEMBL16111936

> <PUBCHEM_CID_ASSOCIATIONS>
117602662  1

> <PUBCHEM_COORDINATE_TYPE>
1
3

$$$$
