310931248
  -OEChem-07211613022D

 33 36  0     0  0  0  0  0  0999 V2000
    6.3978   -2.8555    0.0000 S   0  0  0  0  0  0  0  0  0  0  0  0
    7.0845   -3.2893    0.0000 O   0  0  0  0  0  0  0  0  0  0  0  0
    6.7954   -2.1687    0.0000 O   0  0  0  0  0  0  0  0  0  0  0  0
    7.1206   -1.6266    0.0000 O   0  0  0  0  0  0  0  0  0  0  0  0
    3.9037   -7.1206    0.0000 O   0  0  0  0  0  0  0  0  0  0  0  0
    7.7713   -3.6869    0.0000 O   0  0  0  0  0  0  0  0  0  0  0  0
    5.6748   -2.4579    0.0000 N   0  0  0  0  0  0  0  0  0  0  0  0
    2.2049   -5.7471    0.0000 N   0  0  0  0  0  0  0  0  0  0  0  0
    3.9037   -5.7110    0.0000 N   0  0  0  0  0  0  0  0  0  0  0  0
    0.0000   -6.8315    0.0000 N   0  0  0  0  0  0  0  0  0  0  0  0
    5.9640   -3.5784    0.0000 C   0  0  0  0  0  0  0  0  0  0  0  0
    2.6748   -6.3978    0.0000 C   0  0  0  0  0  0  0  0  0  0  0  0
    1.4097   -5.9640    0.0000 C   0  0  0  0  0  0  0  0  0  0  0  0
    1.4097   -6.8315    0.0000 C   0  0  0  0  0  0  0  0  0  0  0  0
    5.6748   -1.6266    0.0000 C   0  0  0  0  0  0  0  0  0  0  0  0
    2.2049   -7.0484    0.0000 C   0  0  0  0  0  0  0  0  0  0  0  0
    3.5061   -6.3978    0.0000 C   0  0  0  0  0  0  0  0  0  0  0  0
    6.3978   -1.2290    0.0000 C   0  0  0  0  0  0  0  0  0  0  0  0
    5.1688   -3.5784    0.0000 C   0  0  0  0  0  0  0  0  0  0  0  0
    6.3616   -4.3013    0.0000 C   0  0  0  0  0  0  0  0  0  0  0  0
    5.1688   -4.9881    0.0000 C   0  0  0  0  0  0  0  0  0  0  0  0
    0.6868   -5.6025    0.0000 C   0  0  0  0  0  0  0  0  0  0  0  0
    0.6868   -7.2291    0.0000 C   0  0  0  0  0  0  0  0  0  0  0  0
    4.7351   -4.2651    0.0000 C   0  0  0  0  0  0  0  0  0  0  0  0
    5.9640   -4.9881    0.0000 C   0  0  0  0  0  0  0  0  0  0  0  0
    4.9881   -1.1928    0.0000 C   0  0  0  0  0  0  0  0  0  0  0  0
    4.7351   -5.7110    0.0000 C   0  0  0  0  0  0  0  0  0  0  0  0
    6.4339   -0.3976    0.0000 C   0  0  0  0  0  0  0  0  0  0  0  0
    0.0000   -5.9640    0.0000 C   0  0  0  0  0  0  0  0  0  0  0  0
    4.9881   -0.3976    0.0000 C   0  0  0  0  0  0  0  0  0  0  0  0
    5.7110    0.0000    0.0000 C   0  0  0  0  0  0  0  0  0  0  0  0
    7.0845   -2.4579    0.0000 C   0  0  0  0  0  0  0  0  0  0  0  0
    7.8074   -2.8917    0.0000 C   0  0  0  0  0  0  0  0  0  0  0  0
  1  2  2  0  0  0  0
  1  3  2  0  0  0  0
  1  7  1  0  0  0  0
  1 11  1  0  0  0  0
  4 18  1  0  0  0  0
  4 32  1  0  0  0  0
  5 17  2  0  0  0  0
  6 33  1  0  0  0  0
  7 15  1  0  0  0  0
  8 12  1  0  0  0  0
  8 13  1  0  0  0  0
  9 17  1  0  0  0  0
  9 27  1  0  0  0  0
 10 23  1  0  0  0  0
 10 29  2  0  0  0  0
 11 19  2  0  0  0  0
 11 20  1  0  0  0  0
 12 16  2  0  0  0  0
 12 17  1  0  0  0  0
 13 14  1  0  0  0  0
 13 22  2  0  0  0  0
 14 16  1  0  0  0  0
 14 23  2  0  0  0  0
 15 18  1  0  0  0  0
 15 26  2  0  0  0  0
 18 28  2  0  0  0  0
 19 24  1  0  0  0  0
 20 25  2  0  0  0  0
 21 24  2  0  0  0  0
 21 25  1  0  0  0  0
 21 27  1  0  0  0  0
 22 29  1  0  0  0  0
 26 30  1  0  0  0  0
 28 31  1  0  0  0  0
 30 31  2  0  0  0  0
 32 33  1  0  0  0  0
M  END
> <PUBCHEM_COMPOUND_ID_TYPE>
0

> <PUBCHEM_TOTAL_CHARGE>
0

> <PUBCHEM_SUBSTANCE_ID>
310931248

> <PUBCHEM_SUBSTANCE_VERSION>
1

> <PUBCHEM_EXT_DATASOURCE_NAME>
4488

> <PUBCHEM_EXT_DATASOURCE_REGID>
SCHEMBL16108562

> <PUBCHEM_SUBSTANCE_COMMENT>
InChI=1S/C23H22N4O5S/c28-11-12-32-22-4-2-1-3-20(22)27-33(30,31)18-7-5-16(6-8-18)14-25-23(29)21-13-17-15-24-10-9-19(17)26-21/h1-10,13,15,26-28H,11-12,14H2,(H,25,29)
InChIKey=RNQLWTQOJJTNEE-UHFFFAOYSA-N

> <PUBCHEM_SUBSTANCE_SYNONYM>
SCHEMBL16108562

> <PUBCHEM_XREF_EXT_ID>
SCHEMBL16108562

> <PUBCHEM_EXT_DATASOURCE_URL>
https://www.surechembl.org/

> <PUBCHEM_EXT_SUBSTANCE_URL>
https://www.surechembl.org/chemical/SCHEMBL16108562

> <PUBCHEM_CID_ASSOCIATIONS>
117600085  1

> <PUBCHEM_COORDINATE_TYPE>
1
3

$$$$
