310942099
  -OEChem-07211613022D

 29 31  0     1  0  0  0  0  0999 V2000
    1.0748    1.2186    0.0000 Cl  0  0  0  0  0  0  0  0  0  0  0  0
   -0.3624   -1.2810    0.0000 F   0  0  0  0  0  0  0  0  0  0  0  0
    1.0748   -0.4562    0.0000 O   0  0  0  0  0  0  0  0  0  0  0  0
    3.9494    1.9934    0.0000 O   0  0  0  0  0  0  0  0  0  0  0  0
   -3.9244   -0.0063    0.0000 O   0  0  0  0  0  0  0  0  0  0  0  0
   -2.5246   -0.0313    0.0000 N   0  0  0  0  0  0  0  0  0  0  0  0
    2.5371    1.2186    0.0000 N   0  0  0  0  0  0  0  0  0  0  0  0
    4.6743    0.7936    0.0000 N   0  0  0  0  0  0  0  0  0  0  0  0
   -4.6743    1.1810    0.0000 N   0  0  0  0  0  0  0  0  0  0  0  0
   -1.0873   -0.0313    0.0000 C   0  0  0  0  0  0  0  0  0  0  0  0
   -1.7997   -0.4437    0.0000 C   0  0  3  0  0  0  0  0  0  0  0  0
   -0.3624   -0.4437    0.0000 C   0  0  0  0  0  0  0  0  0  0  0  0
    0.3499   -0.0188    0.0000 C   0  0  0  0  0  0  0  0  0  0  0  0
   -1.8122   -1.3810    0.0000 C   0  0  0  0  0  0  0  0  0  0  0  0
    0.3624    0.8061    0.0000 C   0  0  0  0  0  0  0  0  0  0  0  0
   -1.0748    0.7936    0.0000 C   0  0  0  0  0  0  0  0  0  0  0  0
   -2.2122   -1.9934    0.0000 C   0  0  0  0  0  0  0  0  0  0  0  0
   -1.3873   -1.9934    0.0000 C   0  0  0  0  0  0  0  0  0  0  0  0
   -0.3624    1.2061    0.0000 C   0  0  0  0  0  0  0  0  0  0  0  0
    1.7872   -0.0313    0.0000 C   0  0  0  0  0  0  0  0  0  0  0  0
   -2.5246    0.8061    0.0000 C   0  0  3  0  0  0  0  0  0  0  0  0
    1.8122    0.8061    0.0000 C   0  0  0  0  0  0  0  0  0  0  0  0
    2.5371   -0.4437    0.0000 C   0  0  0  0  0  0  0  0  0  0  0  0
    3.2495    0.8061    0.0000 C   0  0  0  0  0  0  0  0  0  0  0  0
    3.2495   -0.0313    0.0000 C   0  0  0  0  0  0  0  0  0  0  0  0
    3.9619    1.2186    0.0000 C   0  0  0  0  0  0  0  0  0  0  0  0
   -3.2370    1.2186    0.0000 C   0  0  0  0  0  0  0  0  0  0  0  0
   -1.8122    1.2186    0.0000 C   0  0  0  0  0  0  0  0  0  0  0  0
   -3.9619    0.7936    0.0000 C   0  0  0  0  0  0  0  0  0  0  0  0
  1 15  1  0  0  0  0
  2 12  1  0  0  0  0
  3 13  1  0  0  0  0
  3 20  1  0  0  0  0
  4 26  2  0  0  0  0
  5 29  2  0  0  0  0
 11  6  1  1  0  0  0
  6 21  1  0  0  0  0
  7 22  2  0  0  0  0
  7 24  1  0  0  0  0
  8 26  1  0  0  0  0
  9 29  1  0  0  0  0
 10 11  1  0  0  0  0
 10 12  1  0  0  0  0
 10 16  2  0  0  0  0
 11 14  1  0  0  0  0
 12 13  2  0  0  0  0
 13 15  1  0  0  0  0
 14 17  1  0  0  0  0
 14 18  1  0  0  0  0
 15 19  2  0  0  0  0
 16 19  1  0  0  0  0
 17 18  1  0  0  0  0
 20 22  1  0  0  0  0
 20 23  2  0  0  0  0
 21 27  1  0  0  0  0
 21 28  1  1  0  0  0
 23 25  1  0  0  0  0
 24 25  2  0  0  0  0
 24 26  1  0  0  0  0
 27 29  1  0  0  0  0
M  END
> <PUBCHEM_COMPOUND_ID_TYPE>
0

> <PUBCHEM_TOTAL_CHARGE>
0

> <PUBCHEM_SUBSTANCE_ID>
310942099

> <PUBCHEM_SUBSTANCE_VERSION>
1

> <PUBCHEM_EXT_DATASOURCE_NAME>
4488

> <PUBCHEM_EXT_DATASOURCE_REGID>
SCHEMBL16120134

> <PUBCHEM_SUBSTANCE_COMMENT>
InChI=1S/C20H22ClFN4O3/c1-10(8-16(23)27)26-18(11-2-3-11)13-5-6-14(21)19(17(13)22)29-12-4-7-15(20(24)28)25-9-12/h4-7,9-11,18,26H,2-3,8H2,1H3,(H2,23,27)(H2,24,28)/t10-,18-/m1/s1
InChIKey=FUZDQBMUKVRMAE-MLCYQJTMSA-N

> <PUBCHEM_SUBSTANCE_SYNONYM>
SCHEMBL16120134

> <PUBCHEM_XREF_EXT_ID>
SCHEMBL16120134

> <PUBCHEM_EXT_DATASOURCE_URL>
https://www.surechembl.org/

> <PUBCHEM_EXT_SUBSTANCE_URL>
https://www.surechembl.org/chemical/SCHEMBL16120134

> <PUBCHEM_CID_ASSOCIATIONS>
117608761  1

> <PUBCHEM_COORDINATE_TYPE>
1
3

> <PUBCHEM_BONDANNOTATIONS>
21  28  5
11  6  5

$$$$
