310938041
  -OEChem-07211613022D

 20 20  0     0  0  0  0  0  0999 V2000
    0.7572    0.0000    0.0000 Br  0  0  0  0  0  0  0  0  0  0  0  0
    3.2950   -2.5378    0.0000 O   0  0  0  0  0  0  0  0  0  0  0  0
    1.9238   -2.9675    0.0000 O   0  0  0  0  0  0  0  0  0  0  0  0
    3.9500   -0.1842    0.0000 O   0  0  0  0  0  0  0  0  0  0  0  0
    3.9500   -1.6168    0.0000 O   0  0  0  0  0  0  0  0  0  0  0  0
    0.8596   -2.6196    0.0000 O   0  0  0  0  0  0  0  0  0  0  0  0
    2.2308   -1.5758    0.0000 N   0  0  0  0  0  0  0  0  0  0  0  0
    1.4326   -1.3098    0.0000 C   0  0  0  0  0  0  0  0  0  0  0  0
    2.7015   -0.9005    0.0000 C   0  0  0  0  0  0  0  0  0  0  0  0
    1.4326   -0.4912    0.0000 C   0  0  0  0  0  0  0  0  0  0  0  0
    2.4764   -2.3536    0.0000 C   0  0  0  0  0  0  0  0  0  0  0  0
    2.2308   -0.2251    0.0000 C   0  0  0  0  0  0  0  0  0  0  0  0
    3.5406   -0.9005    0.0000 C   0  0  0  0  0  0  0  0  0  0  0  0
    0.7572   -1.7805    0.0000 C   0  0  0  0  0  0  0  0  0  0  0  0
    3.5611   -3.3155    0.0000 C   0  0  0  0  0  0  0  0  0  0  0  0
    0.0000   -1.4531    0.0000 C   0  0  0  0  0  0  0  0  0  0  0  0
    2.7424   -3.5815    0.0000 C   0  0  0  0  0  0  0  0  0  0  0  0
    3.8067   -4.0932    0.0000 C   0  0  0  0  0  0  0  0  0  0  0  0
    4.3387   -3.0494    0.0000 C   0  0  0  0  0  0  0  0  0  0  0  0
    4.7890   -0.1842    0.0000 C   0  0  0  0  0  0  0  0  0  0  0  0
  1 10  1  0  0  0  0
  2 11  1  0  0  0  0
  2 15  1  0  0  0  0
  3 11  2  0  0  0  0
  4 13  1  0  0  0  0
  4 20  1  0  0  0  0
  5 13  2  0  0  0  0
  6 14  2  0  0  0  0
  7  8  1  0  0  0  0
  7  9  1  0  0  0  0
  7 11  1  0  0  0  0
  8 10  2  0  0  0  0
  8 14  1  0  0  0  0
  9 12  2  0  0  0  0
  9 13  1  0  0  0  0
 10 12  1  0  0  0  0
 14 16  1  0  0  0  0
 15 17  1  0  0  0  0
 15 18  1  0  0  0  0
 15 19  1  0  0  0  0
M  END
> <PUBCHEM_COMPOUND_ID_TYPE>
0

> <PUBCHEM_TOTAL_CHARGE>
0

> <PUBCHEM_SUBSTANCE_ID>
310938041

> <PUBCHEM_SUBSTANCE_VERSION>
1

> <PUBCHEM_EXT_DATASOURCE_NAME>
4488

> <PUBCHEM_EXT_DATASOURCE_REGID>
SCHEMBL16115882

> <PUBCHEM_SUBSTANCE_COMMENT>
InChI=1S/C13H16BrNO5/c1-7(16)10-8(14)6-9(11(17)19-5)15(10)12(18)20-13(2,3)4/h6H,1-5H3
InChIKey=OJQPOWOSQOXMST-UHFFFAOYSA-N

> <PUBCHEM_SUBSTANCE_SYNONYM>
SCHEMBL16115882

> <PUBCHEM_XREF_EXT_ID>
SCHEMBL16115882

> <PUBCHEM_EXT_DATASOURCE_URL>
https://www.surechembl.org/

> <PUBCHEM_EXT_SUBSTANCE_URL>
https://www.surechembl.org/chemical/SCHEMBL16115882

> <PUBCHEM_CID_ASSOCIATIONS>
117605622  1

> <PUBCHEM_COORDINATE_TYPE>
1
3

$$$$
