310938671
  -OEChem-07211613022D

 10 10  0     0  0  0  0  0  0999 V2000
   -1.7183    1.4045    0.0000 Br  0  0  0  0  0  0  0  0  0  0  0  0
   -2.5433   -0.5795    0.0000 N   0  0  0  0  0  0  0  0  0  0  0  0
   -1.8758   -0.0946    0.0000 N   0  0  0  0  0  0  0  0  0  0  0  0
   -3.3683    1.4045    0.0000 N   0  0  0  0  0  0  0  0  0  0  0  0
   -3.2107   -0.0946    0.0000 C   0  0  0  0  0  0  0  0  0  0  0  0
   -2.9558    0.6900    0.0000 C   0  0  0  0  0  0  0  0  0  0  0  0
   -2.1308    0.6900    0.0000 C   0  0  0  0  0  0  0  0  0  0  0  0
   -4.0076   -0.3081    0.0000 C   0  0  0  0  0  0  0  0  0  0  0  0
   -2.5433   -1.4045    0.0000 C   0  0  0  0  0  0  0  0  0  0  0  0
   -4.5910    0.2753    0.0000 C   0  0  0  0  0  0  0  0  0  0  0  0
  1  7  1  0  0  0  0
  2  3  1  0  0  0  0
  2  5  1  0  0  0  0
  2  9  1  0  0  0  0
  3  7  2  0  0  0  0
  4  6  1  0  0  0  0
  5  6  2  0  0  0  0
  5  8  1  0  0  0  0
  6  7  1  0  0  0  0
  8 10  1  0  0  0  0
M  END
> <PUBCHEM_COMPOUND_ID_TYPE>
0

> <PUBCHEM_TOTAL_CHARGE>
0

> <PUBCHEM_SUBSTANCE_ID>
310938671

> <PUBCHEM_SUBSTANCE_VERSION>
1

> <PUBCHEM_EXT_DATASOURCE_NAME>
4488

> <PUBCHEM_EXT_DATASOURCE_REGID>
SCHEMBL16116585

> <PUBCHEM_SUBSTANCE_COMMENT>
InChI=1S/C6H10BrN3/c1-3-4-5(8)6(7)9-10(4)2/h3,8H2,1-2H3
InChIKey=TUFBKXKNOBOYGA-UHFFFAOYSA-N

> <PUBCHEM_SUBSTANCE_SYNONYM>
SCHEMBL16116585

> <PUBCHEM_XREF_EXT_ID>
SCHEMBL16116585

> <PUBCHEM_EXT_DATASOURCE_URL>
https://www.surechembl.org/

> <PUBCHEM_EXT_SUBSTANCE_URL>
https://www.surechembl.org/chemical/SCHEMBL16116585

> <PUBCHEM_CID_ASSOCIATIONS>
117606103  1

> <PUBCHEM_COORDINATE_TYPE>
1
3

$$$$
