310933237
  -OEChem-07211613022D

 24 26  0     1  0  0  0  0  0999 V2000
    1.0396   -1.4521    0.0000 Cl  0  0  0  0  0  0  0  0  0  0  0  0
   -0.7144    1.6500    0.0000 F   0  0  0  0  0  0  0  0  0  0  0  0
   -2.8579   -0.4125    0.0000 O   0  0  0  0  0  0  0  0  0  0  0  0
   -0.7144    0.8250    0.0000 N   0  0  3  0  0  0  0  0  0  0  0  0
    0.7846    0.6674    0.0000 N   0  0  0  0  0  0  0  0  0  0  0  0
    1.2696    0.0000    0.0000 N   0  0  0  0  0  0  0  0  0  0  0  0
   -2.1434    0.8250    0.0000 N   0  0  0  0  0  0  0  0  0  0  0  0
   -3.5724    0.8250    0.0000 N   0  0  0  0  0  0  0  0  0  0  0  0
    0.0000    0.4125    0.0000 C   0  0  3  0  0  0  0  0  0  0  0  0
    0.0000   -0.4125    0.0000 C   0  0  0  0  0  0  0  0  0  0  0  0
    0.7846   -0.6674    0.0000 C   0  0  0  0  0  0  0  0  0  0  0  0
   -1.4290    0.4125    0.0000 C   0  0  0  0  0  0  0  0  0  0  0  0
   -0.7144   -0.8250    0.0000 C   0  0  0  0  0  0  0  0  0  0  0  0
   -1.4290   -0.4125    0.0000 C   0  0  0  0  0  0  0  0  0  0  0  0
   -2.8579    0.4125    0.0000 C   0  0  0  0  0  0  0  0  0  0  0  0
   -4.2868    0.4125    0.0000 C   0  0  3  0  0  0  0  0  0  0  0  0
   -5.0013    0.8250    0.0000 C   0  0  0  0  0  0  0  0  0  0  0  0
   -5.0013    1.6500    0.0000 C   0  0  0  0  0  0  0  0  0  0  0  0
   -5.7158    0.4125    0.0000 C   0  0  0  0  0  0  0  0  0  0  0  0
   -4.2868   -0.4125    0.0000 C   0  0  0  0  0  0  0  0  0  0  0  0
   -5.7158    2.0625    0.0000 C   0  0  0  0  0  0  0  0  0  0  0  0
   -6.4302    0.8250    0.0000 C   0  0  0  0  0  0  0  0  0  0  0  0
   -6.4302    1.6500    0.0000 C   0  0  0  0  0  0  0  0  0  0  0  0
    0.0862    1.2330    0.0000 H   0  0  0  0  0  0  0  0  0  0  0  0
  1 11  1  0  0  0  0
  2  4  1  0  0  0  0
  3 15  2  0  0  0  0
  4  9  1  0  0  0  0
  4 12  1  0  0  0  0
  5  6  1  0  0  0  0
  5  9  1  0  0  0  0
  6 11  2  0  0  0  0
  7 12  1  0  0  0  0
  7 15  1  0  0  0  0
  8 15  1  0  0  0  0
  8 16  1  0  0  0  0
  9 10  1  0  0  0  0
  9 24  1  6  0  0  0
 10 11  1  0  0  0  0
 10 13  2  0  0  0  0
 12 14  2  0  0  0  0
 13 14  1  0  0  0  0
 16 17  1  0  0  0  0
 16 20  1  0  0  0  0
 17 18  2  0  0  0  0
 17 19  1  0  0  0  0
 18 21  1  0  0  0  0
 19 22  2  0  0  0  0
 21 23  2  0  0  0  0
 22 23  1  0  0  0  0
M  END
> <PUBCHEM_COMPOUND_ID_TYPE>
0

> <PUBCHEM_TOTAL_CHARGE>
0

> <PUBCHEM_SUBSTANCE_ID>
310933237

> <PUBCHEM_SUBSTANCE_VERSION>
1

> <PUBCHEM_EXT_DATASOURCE_NAME>
4488

> <PUBCHEM_EXT_DATASOURCE_REGID>
SCHEMBL16110646

> <PUBCHEM_SUBSTANCE_COMMENT>
InChI=1S/C15H15ClFN5O/c1-9(10-5-3-2-4-6-10)18-15(23)19-12-8-7-11-13(16)20-21-14(11)22(12)17/h2-9,14,21H,1H3,(H2,18,19,23)/t9?,14-/m1/s1
InChIKey=ZODRDEBETGUGON-IWSPRGBSSA-N

> <PUBCHEM_SUBSTANCE_SYNONYM>
SCHEMBL16110646

> <PUBCHEM_XREF_EXT_ID>
SCHEMBL16110646

> <PUBCHEM_EXT_DATASOURCE_URL>
https://www.surechembl.org/

> <PUBCHEM_EXT_SUBSTANCE_URL>
https://www.surechembl.org/chemical/SCHEMBL16110646

> <PUBCHEM_CID_ASSOCIATIONS>
117601671  1

> <PUBCHEM_COORDINATE_TYPE>
1
3

> <PUBCHEM_BONDANNOTATIONS>
9  24  6

$$$$
