310939511
  -OEChem-07211613022D

 13 13  0     0  0  0  0  0  0999 V2000
   -1.2780  -15.7730    0.0000 S   0  0  0  0  0  0  0  0  0  0  0  0
   -1.9924  -16.1855    0.0000 C   0  0  0  0  0  0  0  0  0  0  0  0
   -0.5635  -16.1855    0.0000 C   0  0  0  0  0  0  0  0  0  0  0  0
   -1.9924  -17.0105    0.0000 C   0  0  0  0  0  0  0  0  0  0  0  0
   -2.7069  -15.7730    0.0000 C   0  0  0  0  0  0  0  0  0  0  0  0
   -2.7069  -17.4230    0.0000 C   0  0  0  0  0  0  0  0  0  0  0  0
   -3.4214  -16.1855    0.0000 C   0  0  0  0  0  0  0  0  0  0  0  0
   -0.5635  -17.0105    0.0000 C   0  0  0  0  0  0  0  0  0  0  0  0
    0.1510  -15.7730    0.0000 C   0  0  0  0  0  0  0  0  0  0  0  0
   -3.4214  -17.0105    0.0000 C   0  0  0  0  0  0  0  0  0  0  0  0
    0.1510  -17.4230    0.0000 C   0  0  0  0  0  0  0  0  0  0  0  0
    0.8655  -16.1855    0.0000 C   0  0  0  0  0  0  0  0  0  0  0  0
    0.8655  -17.0105    0.0000 C   0  0  0  0  0  0  0  0  0  0  0  0
  1  2  1  0  0  0  0
  1  3  1  0  0  0  0
  2  4  2  0  0  0  0
  2  5  1  0  0  0  0
  3  8  2  0  0  0  0
  3  9  1  0  0  0  0
  4  6  1  0  0  0  0
  5  7  2  0  0  0  0
  6 10  2  0  0  0  0
  7 10  1  0  0  0  0
  8 11  1  0  0  0  0
  9 12  2  0  0  0  0
 11 13  2  0  0  0  0
M  END
> <PUBCHEM_COMPOUND_ID_TYPE>
0

> <PUBCHEM_TOTAL_CHARGE>
0

> <PUBCHEM_SUBSTANCE_ID>
310939511

> <PUBCHEM_SUBSTANCE_VERSION>
1

> <PUBCHEM_EXT_DATASOURCE_NAME>
4488

> <PUBCHEM_EXT_DATASOURCE_REGID>
SCHEMBL16117440

> <PUBCHEM_SUBSTANCE_COMMENT>
InChI=1S/C12H12S/c1-3-8-11(4-2)13-12-9-6-5-7-10-12/h3-10H,1-2H2/b11-8+
InChIKey=KMYGNBGBQJCTTC-DHZHZOJOSA-N

> <PUBCHEM_SUBSTANCE_SYNONYM>
SCHEMBL16117440

> <PUBCHEM_XREF_EXT_ID>
SCHEMBL16117440

> <PUBCHEM_EXT_DATASOURCE_URL>
https://www.surechembl.org/

> <PUBCHEM_EXT_SUBSTANCE_URL>
https://www.surechembl.org/chemical/SCHEMBL16117440

> <PUBCHEM_CID_ASSOCIATIONS>
117606811  1

> <PUBCHEM_COORDINATE_TYPE>
1
3

$$$$
