310941712
  -OEChem-07211613022D

 29 31  0     0  0  0  0  0  0999 V2000
    3.7873    0.0151    0.0000 Cl  0  0  0  0  0  0  0  0  0  0  0  0
   -1.3328    1.2423    0.0000 S   0  0  0  0  0  0  0  0  0  0  0  0
   -1.2121   -1.2524    0.0000 F   0  0  0  0  0  0  0  0  0  0  0  0
   -0.5080   -2.4897    0.0000 F   0  0  0  0  0  0  0  0  0  0  0  0
    0.1962   -1.2524    0.0000 O   0  0  0  0  0  0  0  0  0  0  0  0
    0.9204    2.4897    0.0000 O   0  0  0  0  0  0  0  0  0  0  0  0
    2.3488    0.8299    0.0000 O   0  0  0  0  0  0  0  0  0  0  0  0
   -0.5181    2.4897    0.0000 N   0  0  0  0  0  0  0  0  0  0  0  0
   -2.0068    2.4192    0.0000 N   0  0  0  0  0  0  0  0  0  0  0  0
   -2.5501    1.7956    0.0000 N   0  0  0  0  0  0  0  0  0  0  0  0
    1.6347   -0.4175    0.0000 N   0  0  0  0  0  0  0  0  0  0  0  0
    0.1962    1.2624    0.0000 C   0  0  0  0  0  0  0  0  0  0  0  0
    0.9204    0.0251    0.0000 C   0  0  0  0  0  0  0  0  0  0  0  0
   -1.2423    2.0974    0.0000 C   0  0  0  0  0  0  0  0  0  0  0  0
    0.2062   -0.3973    0.0000 C   0  0  0  0  0  0  0  0  0  0  0  0
    0.1861    2.0873    0.0000 C   0  0  0  0  0  0  0  0  0  0  0  0
   -2.1376    1.0914    0.0000 C   0  0  0  0  0  0  0  0  0  0  0  0
    0.9204    0.8299    0.0000 C   0  0  0  0  0  0  0  0  0  0  0  0
   -2.5702    0.3571    0.0000 C   0  0  0  0  0  0  0  0  0  0  0  0
   -0.5080    0.8399    0.0000 C   0  0  0  0  0  0  0  0  0  0  0  0
   -0.5080    0.0050    0.0000 C   0  0  0  0  0  0  0  0  0  0  0  0
   -2.1476   -0.3672    0.0000 C   0  0  0  0  0  0  0  0  0  0  0  0
   -3.3849    0.3571    0.0000 C   0  0  0  0  0  0  0  0  0  0  0  0
    2.3388   -0.0050    0.0000 C   0  0  0  0  0  0  0  0  0  0  0  0
   -0.5080   -1.6447    0.0000 C   0  0  0  0  0  0  0  0  0  0  0  0
   -2.5601   -1.0713    0.0000 C   0  0  0  0  0  0  0  0  0  0  0  0
   -3.7873   -0.3773    0.0000 C   0  0  0  0  0  0  0  0  0  0  0  0
   -3.3748   -1.0713    0.0000 C   0  0  0  0  0  0  0  0  0  0  0  0
    3.0832   -0.3873    0.0000 C   0  0  0  0  0  0  0  0  0  0  0  0
  1 29  1  0  0  0  0
  2 14  1  0  0  0  0
  2 17  1  0  0  0  0
  3 25  1  0  0  0  0
  4 25  1  0  0  0  0
  5 15  1  0  0  0  0
  5 25  1  0  0  0  0
  6 16  2  0  0  0  0
  7 24  2  0  0  0  0
  8 14  1  0  0  0  0
  8 16  1  0  0  0  0
  9 10  1  0  0  0  0
  9 14  2  0  0  0  0
 10 17  2  0  0  0  0
 11 13  1  0  0  0  0
 11 24  1  0  0  0  0
 12 16  1  0  0  0  0
 12 18  1  0  0  0  0
 12 20  2  0  0  0  0
 13 15  1  0  0  0  0
 13 18  2  0  0  0  0
 15 21  2  0  0  0  0
 17 19  1  0  0  0  0
 19 22  2  0  0  0  0
 19 23  1  0  0  0  0
 20 21  1  0  0  0  0
 22 26  1  0  0  0  0
 23 27  2  0  0  0  0
 24 29  1  0  0  0  0
 26 28  2  0  0  0  0
 27 28  1  0  0  0  0
M  END
> <PUBCHEM_COMPOUND_ID_TYPE>
0

> <PUBCHEM_TOTAL_CHARGE>
0

> <PUBCHEM_SUBSTANCE_ID>
310941712

> <PUBCHEM_SUBSTANCE_VERSION>
1

> <PUBCHEM_EXT_DATASOURCE_NAME>
4488

> <PUBCHEM_EXT_DATASOURCE_REGID>
SCHEMBL16119743

> <PUBCHEM_SUBSTANCE_COMMENT>
InChI=1S/C18H13ClF2N4O3S/c19-9-14(26)22-12-8-11(6-7-13(12)28-17(20)21)15(27)23-18-25-24-16(29-18)10-4-2-1-3-5-10/h1-8,17H,9H2,(H,22,26)(H,23,25,27)
InChIKey=FSCIDTBZYNXEJS-UHFFFAOYSA-N

> <PUBCHEM_SUBSTANCE_SYNONYM>
SCHEMBL16119743

> <PUBCHEM_XREF_EXT_ID>
SCHEMBL16119743

> <PUBCHEM_EXT_DATASOURCE_URL>
https://www.surechembl.org/

> <PUBCHEM_EXT_SUBSTANCE_URL>
https://www.surechembl.org/chemical/SCHEMBL16119743

> <PUBCHEM_CID_ASSOCIATIONS>
117608484  1

> <PUBCHEM_COORDINATE_TYPE>
1
3

$$$$
