310942667
  -OEChem-07211613022D

 27 28  0     1  0  0  0  0  0999 V2000
    0.8924    2.7214    0.0000 F   0  0  0  0  0  0  0  0  0  0  0  0
   -2.3027    2.3467    0.0000 F   0  0  0  0  0  0  0  0  0  0  0  0
    2.0162   -1.9721    0.0000 O   0  0  0  0  0  0  0  0  0  0  0  0
   -2.0823   -1.6417    0.0000 O   0  0  0  0  0  0  0  0  0  0  0  0
   -1.5095   -0.2754    0.0000 O   0  0  0  0  0  0  0  0  0  0  0  0
   -0.0110    0.2974    0.0000 N   0  0  0  0  0  0  0  0  0  0  0  0
    1.2670    0.2974    0.0000 N   0  0  0  0  0  0  0  0  0  0  0  0
   -0.0550   -1.5315    0.0000 N   0  0  0  0  0  0  0  0  0  0  0  0
    0.6060   -1.0908    0.0000 C   0  0  3  0  0  0  0  0  0  0  0  0
    0.6500   -0.2093    0.0000 C   0  0  0  0  0  0  0  0  0  0  0  0
    0.2313    1.1348    0.0000 C   0  0  0  0  0  0  0  0  0  0  0  0
    1.3331   -1.5315    0.0000 C   0  0  0  0  0  0  0  0  0  0  0  0
   -0.2313    1.8179    0.0000 C   0  0  0  0  0  0  0  0  0  0  0  0
    1.0467    1.1128    0.0000 C   0  0  0  0  0  0  0  0  0  0  0  0
    0.0991    2.6332    0.0000 C   0  0  0  0  0  0  0  0  0  0  0  0
   -1.0247    1.7519    0.0000 C   0  0  0  0  0  0  0  0  0  0  0  0
   -1.3992   -1.0908    0.0000 C   0  0  0  0  0  0  0  0  0  0  0  0
   -1.4873    2.4348    0.0000 C   0  0  0  0  0  0  0  0  0  0  0  0
    2.0382   -1.1128    0.0000 C   0  0  0  0  0  0  0  0  0  0  0  0
    1.3331   -2.4128    0.0000 C   0  0  0  0  0  0  0  0  0  0  0  0
   -0.3856    3.3383    0.0000 C   0  0  0  0  0  0  0  0  0  0  0  0
   -1.1569    3.2281    0.0000 C   0  0  0  0  0  0  0  0  0  0  0  0
   -1.9721   -2.5010    0.0000 C   0  0  0  0  0  0  0  0  0  0  0  0
    2.7434   -1.5756    0.0000 C   0  0  0  0  0  0  0  0  0  0  0  0
   -2.7434   -2.6553    0.0000 C   0  0  0  0  0  0  0  0  0  0  0  0
   -1.2009   -2.3688    0.0000 C   0  0  0  0  0  0  0  0  0  0  0  0
   -1.8179   -3.3383    0.0000 C   0  0  0  0  0  0  0  0  0  0  0  0
  1 15  1  0  0  0  0
  2 18  1  0  0  0  0
  3 12  1  0  0  0  0
  3 24  1  0  0  0  0
  4 17  1  0  0  0  0
  4 23  1  0  0  0  0
  5 17  2  0  0  0  0
  6 10  2  0  0  0  0
  6 11  1  0  0  0  0
  7 10  1  0  0  0  0
  7 14  1  0  0  0  0
  9  8  1  1  0  0  0
  8 17  1  0  0  0  0
  9 10  1  0  0  0  0
  9 12  1  0  0  0  0
 11 13  1  0  0  0  0
 11 14  2  0  0  0  0
 12 19  1  0  0  0  0
 12 20  1  0  0  0  0
 13 15  2  0  0  0  0
 13 16  1  0  0  0  0
 15 21  1  0  0  0  0
 16 18  2  0  0  0  0
 18 22  1  0  0  0  0
 21 22  2  0  0  0  0
 23 25  1  0  0  0  0
 23 26  1  0  0  0  0
 23 27  1  0  0  0  0
M  END
> <PUBCHEM_COMPOUND_ID_TYPE>
0

> <PUBCHEM_TOTAL_CHARGE>
0

> <PUBCHEM_SUBSTANCE_ID>
310942667

> <PUBCHEM_SUBSTANCE_VERSION>
1

> <PUBCHEM_EXT_DATASOURCE_NAME>
4488

> <PUBCHEM_EXT_DATASOURCE_REGID>
SCHEMBL16120713

> <PUBCHEM_SUBSTANCE_COMMENT>
InChI=1S/C19H25F2N3O3/c1-18(2,3)27-17(25)24-15(19(4,5)26-6)16-22-10-14(23-16)12-9-11(20)7-8-13(12)21/h7-10,15H,1-6H3,(H,22,23)(H,24,25)/t15-/m0/s1
InChIKey=QSMYVIZVWOSWGF-HNNXBMFYSA-N

> <PUBCHEM_SUBSTANCE_SYNONYM>
SCHEMBL16120713

> <PUBCHEM_XREF_EXT_ID>
SCHEMBL16120713

> <PUBCHEM_EXT_DATASOURCE_URL>
https://www.surechembl.org/

> <PUBCHEM_EXT_SUBSTANCE_URL>
https://www.surechembl.org/chemical/SCHEMBL16120713

> <PUBCHEM_CID_ASSOCIATIONS>
117609196  1

> <PUBCHEM_COORDINATE_TYPE>
1
3

> <PUBCHEM_BONDANNOTATIONS>
9  8  5

$$$$
