310949710
  -OEChem-07211613022D

 25 26  0     0  0  0  0  0  0999 V2000
    1.6638    0.3496    0.0000 O   0  0  0  0  0  0  0  0  0  0  0  0
   -1.2304    2.5167    0.0000 O   0  0  0  0  0  0  0  0  0  0  0  0
    2.4888    0.3496    0.0000 O   0  0  0  0  0  0  0  0  0  0  0  0
    3.7051   -0.3775    0.0000 O   0  0  0  0  0  0  0  0  0  0  0  0
   -3.6911    1.0905    0.0000 O   0  0  0  0  0  0  0  0  0  0  0  0
   -3.7051   -0.3496    0.0000 O   0  0  0  0  0  0  0  0  0  0  0  0
    0.4055   -0.3635    0.0000 N   0  0  0  0  0  0  0  0  0  0  0  0
    0.0140    1.7897    0.0000 N   0  0  0  0  0  0  0  0  0  0  0  0
   -1.2304    1.0905    0.0000 C   0  0  0  0  0  0  0  0  0  0  0  0
   -0.8249    0.3775    0.0000 C   0  0  0  0  0  0  0  0  0  0  0  0
    1.6359   -1.0766    0.0000 C   0  0  0  0  0  0  0  0  0  0  0  0
    2.4608   -1.0905    0.0000 C   0  0  0  0  0  0  0  0  0  0  0  0
    1.2164   -0.3775    0.0000 C   0  0  0  0  0  0  0  0  0  0  0  0
   -2.4747    0.3635    0.0000 C   0  0  0  0  0  0  0  0  0  0  0  0
   -2.0553    1.0766    0.0000 C   0  0  0  0  0  0  0  0  0  0  0  0
    0.0140    0.3355    0.0000 C   0  0  0  0  0  0  0  0  0  0  0  0
   -1.2443   -0.3355    0.0000 C   0  0  0  0  0  0  0  0  0  0  0  0
   -0.8109    1.8036    0.0000 C   0  0  0  0  0  0  0  0  0  0  0  0
   -2.0693   -0.3355    0.0000 C   0  0  0  0  0  0  0  0  0  0  0  0
    1.2443   -1.8176    0.0000 C   0  0  0  0  0  0  0  0  0  0  0  0
    2.8802   -0.3635    0.0000 C   0  0  0  0  0  0  0  0  0  0  0  0
    2.8802   -1.7897    0.0000 C   0  0  0  0  0  0  0  0  0  0  0  0
   -3.2857    0.3635    0.0000 C   0  0  0  0  0  0  0  0  0  0  0  0
    1.6638   -2.5167    0.0000 C   0  0  0  0  0  0  0  0  0  0  0  0
    2.4608   -2.5167    0.0000 C   0  0  0  0  0  0  0  0  0  0  0  0
  1 13  2  0  0  0  0
  2 18  2  0  0  0  0
  3 21  2  0  0  0  0
  4 21  1  0  0  0  0
  5 23  2  0  0  0  0
  6 23  1  0  0  0  0
  7 13  1  0  0  0  0
  7 16  1  0  0  0  0
  8 18  1  0  0  0  0
  9 10  2  0  0  0  0
  9 15  1  0  0  0  0
  9 18  1  0  0  0  0
 10 16  1  0  0  0  0
 10 17  1  0  0  0  0
 11 12  2  0  0  0  0
 11 13  1  0  0  0  0
 11 20  1  0  0  0  0
 12 21  1  0  0  0  0
 12 22  1  0  0  0  0
 14 15  2  0  0  0  0
 14 19  1  0  0  0  0
 14 23  1  0  0  0  0
 17 19  2  0  0  0  0
 20 24  2  0  0  0  0
 22 25  2  0  0  0  0
 24 25  1  0  0  0  0
M  END
> <PUBCHEM_COMPOUND_ID_TYPE>
0

> <PUBCHEM_TOTAL_CHARGE>
0

> <PUBCHEM_SUBSTANCE_ID>
310949710

> <PUBCHEM_SUBSTANCE_VERSION>
1

> <PUBCHEM_EXT_DATASOURCE_NAME>
4488

> <PUBCHEM_EXT_DATASOURCE_REGID>
SCHEMBL16127908

> <PUBCHEM_SUBSTANCE_COMMENT>
InChI=1S/C17H14N2O6/c18-14(20)13-7-9(16(22)23)5-6-10(13)8-19-15(21)11-3-1-2-4-12(11)17(24)25/h1-7H,8H2,(H2,18,20)(H,19,21)(H,22,23)(H,24,25)
InChIKey=TWLPCWVUVJJYJG-UHFFFAOYSA-N

> <PUBCHEM_SUBSTANCE_SYNONYM>
SCHEMBL16127908

> <PUBCHEM_XREF_EXT_ID>
SCHEMBL16127908

> <PUBCHEM_EXT_DATASOURCE_URL>
https://www.surechembl.org/

> <PUBCHEM_EXT_SUBSTANCE_URL>
https://www.surechembl.org/chemical/SCHEMBL16127908

> <PUBCHEM_CID_ASSOCIATIONS>
117615063  1

> <PUBCHEM_COORDINATE_TYPE>
1
3

$$$$
