310949168
  -OEChem-07211613022D

 20 21  0     0  0  0  0  0  0999 V2000
    1.4809   -0.3747    0.0000 F   0  0  0  0  0  0  0  0  0  0  0  0
   -1.4691   -0.4104    0.0000 F   0  0  0  0  0  0  0  0  0  0  0  0
   -1.4691   -2.0044    0.0000 F   0  0  0  0  0  0  0  0  0  0  0  0
    1.4929   -1.9687    0.0000 F   0  0  0  0  0  0  0  0  0  0  0  0
   -0.0060   -2.7895    0.0000 F   0  0  0  0  0  0  0  0  0  0  0  0
    1.4809    2.0162    0.0000 F   0  0  0  0  0  0  0  0  0  0  0  0
   -1.4929    1.9687    0.0000 F   0  0  0  0  0  0  0  0  0  0  0  0
   -0.0178    2.7895    0.0000 N   0  0  0  0  0  0  0  0  0  0  0  0
   -0.0060   -0.3866    0.0000 C   0  0  0  0  0  0  0  0  0  0  0  0
    0.7197   -0.7791    0.0000 C   0  0  0  0  0  0  0  0  0  0  0  0
   -0.7316   -0.7791    0.0000 C   0  0  0  0  0  0  0  0  0  0  0  0
   -0.0060    0.4223    0.0000 C   0  0  0  0  0  0  0  0  0  0  0  0
   -0.7435   -1.5762    0.0000 C   0  0  0  0  0  0  0  0  0  0  0  0
    0.7078   -1.5642    0.0000 C   0  0  0  0  0  0  0  0  0  0  0  0
   -0.0178   -1.9687    0.0000 C   0  0  0  0  0  0  0  0  0  0  0  0
    0.7078    0.8267    0.0000 C   0  0  0  0  0  0  0  0  0  0  0  0
   -0.7553    0.8029    0.0000 C   0  0  0  0  0  0  0  0  0  0  0  0
    0.7197    1.6237    0.0000 C   0  0  0  0  0  0  0  0  0  0  0  0
   -0.7553    1.6000    0.0000 C   0  0  0  0  0  0  0  0  0  0  0  0
   -0.0178    2.0162    0.0000 C   0  0  0  0  0  0  0  0  0  0  0  0
  1 10  1  0  0  0  0
  2 11  1  0  0  0  0
  3 13  1  0  0  0  0
  4 14  1  0  0  0  0
  5 15  1  0  0  0  0
  6 18  1  0  0  0  0
  7 19  1  0  0  0  0
  8 20  1  0  0  0  0
  9 10  2  0  0  0  0
  9 11  1  0  0  0  0
  9 12  1  0  0  0  0
 10 14  1  0  0  0  0
 11 13  2  0  0  0  0
 12 16  2  0  0  0  0
 12 17  1  0  0  0  0
 13 15  1  0  0  0  0
 14 15  2  0  0  0  0
 16 18  1  0  0  0  0
 17 19  2  0  0  0  0
 18 20  2  0  0  0  0
 19 20  1  0  0  0  0
M  END
> <PUBCHEM_COMPOUND_ID_TYPE>
0

> <PUBCHEM_TOTAL_CHARGE>
0

> <PUBCHEM_SUBSTANCE_ID>
310949168

> <PUBCHEM_SUBSTANCE_VERSION>
1

> <PUBCHEM_EXT_DATASOURCE_NAME>
4488

> <PUBCHEM_EXT_DATASOURCE_REGID>
SCHEMBL16127358

> <PUBCHEM_SUBSTANCE_COMMENT>
InChI=1S/C12H4F7N/c13-4-1-3(2-5(14)12(4)20)6-7(15)9(17)11(19)10(18)8(6)16/h1-2H,20H2
InChIKey=SGSBKZWJSFFVGQ-UHFFFAOYSA-N

> <PUBCHEM_SUBSTANCE_SYNONYM>
SCHEMBL16127358

> <PUBCHEM_XREF_EXT_ID>
SCHEMBL16127358

> <PUBCHEM_EXT_DATASOURCE_URL>
https://www.surechembl.org/

> <PUBCHEM_EXT_SUBSTANCE_URL>
https://www.surechembl.org/chemical/SCHEMBL16127358

> <PUBCHEM_CID_ASSOCIATIONS>
117614661  1

> <PUBCHEM_COORDINATE_TYPE>
1
3

$$$$
