310936683
  -OEChem-07211613022D

 23 26  0     0  0  0  0  0  0999 V2000
    3.7293   -1.4323    0.0000 O   0  0  0  0  0  0  0  0  0  0  0  0
    3.7023    0.0000    0.0000 O   0  0  0  0  0  0  0  0  0  0  0  0
    5.2427   -0.0540    0.0000 O   0  0  0  0  0  0  0  0  0  0  0  0
    5.2427   -1.4593    0.0000 O   0  0  0  0  0  0  0  0  0  0  0  0
    0.4324   -1.4053    0.0000 N   0  0  0  0  0  0  0  0  0  0  0  0
    8.1072   -0.7567    0.0000 N   0  0  0  0  0  0  0  0  0  0  0  0
    4.1347   -0.7567    0.0000 C   0  0  0  0  0  0  0  0  0  0  0  0
    4.4049    0.0000    0.0000 C   0  0  0  0  0  0  0  0  0  0  0  0
    4.4320   -1.4593    0.0000 C   0  0  0  0  0  0  0  0  0  0  0  0
    5.6481   -0.7296    0.0000 C   0  0  0  0  0  0  0  0  0  0  0  0
    2.4862   -0.7026    0.0000 C   0  0  0  0  0  0  0  0  0  0  0  0
    2.8916   -1.4593    0.0000 C   0  0  0  0  0  0  0  0  0  0  0  0
    2.8916    0.0000    0.0000 C   0  0  0  0  0  0  0  0  0  0  0  0
    6.4858   -0.7296    0.0000 C   0  0  0  0  0  0  0  0  0  0  0  0
    1.6485   -0.7026    0.0000 C   0  0  0  0  0  0  0  0  0  0  0  0
    6.8641   -1.4323    0.0000 C   0  0  0  0  0  0  0  0  0  0  0  0
    6.8641   -0.0270    0.0000 C   0  0  0  0  0  0  0  0  0  0  0  0
    1.2161   -1.4053    0.0000 C   0  0  0  0  0  0  0  0  0  0  0  0
    1.2161    0.0000    0.0000 C   0  0  0  0  0  0  0  0  0  0  0  0
    7.7019   -1.4863    0.0000 C   0  0  0  0  0  0  0  0  0  0  0  0
    7.7019   -0.0540    0.0000 C   0  0  0  0  0  0  0  0  0  0  0  0
    0.4324    0.0000    0.0000 C   0  0  0  0  0  0  0  0  0  0  0  0
    0.0000   -0.7026    0.0000 C   0  0  0  0  0  0  0  0  0  0  0  0
  1  7  1  0  0  0  0
  1 12  1  0  0  0  0
  2  7  1  0  0  0  0
  2 13  1  0  0  0  0
  3  8  1  0  0  0  0
  3 10  1  0  0  0  0
  4  9  1  0  0  0  0
  4 10  1  0  0  0  0
  5 18  1  0  0  0  0
  5 23  2  0  0  0  0
  6 20  2  0  0  0  0
  6 21  1  0  0  0  0
  7  8  1  0  0  0  0
  7  9  1  0  0  0  0
 10 14  1  0  0  0  0
 11 12  1  0  0  0  0
 11 13  1  0  0  0  0
 11 15  1  0  0  0  0
 14 16  2  0  0  0  0
 14 17  1  0  0  0  0
 15 18  2  0  0  0  0
 15 19  1  0  0  0  0
 16 20  1  0  0  0  0
 17 21  2  0  0  0  0
 19 22  2  0  0  0  0
 22 23  1  0  0  0  0
M  END
> <PUBCHEM_COMPOUND_ID_TYPE>
0

> <PUBCHEM_TOTAL_CHARGE>
0

> <PUBCHEM_SUBSTANCE_ID>
310936683

> <PUBCHEM_SUBSTANCE_VERSION>
1

> <PUBCHEM_EXT_DATASOURCE_NAME>
4488

> <PUBCHEM_EXT_DATASOURCE_REGID>
SCHEMBL16114357

> <PUBCHEM_SUBSTANCE_COMMENT>
InChI=1S/C17H18N2O4/c1-2-14(8-19-5-1)15-9-22-17(23-10-15)11-20-16(21-12-17)13-3-6-18-7-4-13/h1-8,15-16H,9-12H2
InChIKey=UIHHYDPTJQMPNR-UHFFFAOYSA-N

> <PUBCHEM_SUBSTANCE_SYNONYM>
SCHEMBL16114357

> <PUBCHEM_XREF_EXT_ID>
SCHEMBL16114357

> <PUBCHEM_EXT_DATASOURCE_URL>
https://www.surechembl.org/

> <PUBCHEM_EXT_SUBSTANCE_URL>
https://www.surechembl.org/chemical/SCHEMBL16114357

> <PUBCHEM_CID_ASSOCIATIONS>
117604589  1

> <PUBCHEM_COORDINATE_TYPE>
1
3

$$$$
