310947014
  -OEChem-07211613022D

 45 50  0     0  0  0  0  0  0999 V2000
   -2.7782    0.0823    0.0000 F   0  0  0  0  0  0  0  0  0  0  0  0
   -4.2071   -0.7427    0.0000 O   0  0  0  0  0  0  0  0  0  0  0  0
   -2.7782   -3.2177    0.0000 O   0  0  0  0  0  0  0  0  0  0  0  0
    2.7334    2.9157    0.0000 O   0  0  0  0  0  0  0  0  0  0  0  0
    1.4959    3.6302    0.0000 O   0  0  0  0  0  0  0  0  0  0  0  0
   -1.3492   -0.7427    0.0000 N   0  0  0  0  0  0  0  0  0  0  0  0
    0.0797   -0.7427    0.0000 N   0  0  0  0  0  0  0  0  0  0  0  0
   -0.5485    1.3153    0.0000 N   0  0  0  0  0  0  0  0  0  0  0  0
    0.1189    0.1592    0.0000 N   0  0  0  0  0  0  0  0  0  0  0  0
    1.5086   -0.7427    0.0000 N   0  0  0  0  0  0  0  0  0  0  0  0
    1.4959    2.2013    0.0000 N   0  0  0  0  0  0  0  0  0  0  0  0
    1.5086   -2.3927    0.0000 N   0  0  0  0  0  0  0  0  0  0  0  0
    3.7222    0.3372    0.0000 N   0  0  0  0  0  0  0  0  0  0  0  0
    4.2071   -0.3302    0.0000 N   0  0  0  0  0  0  0  0  0  0  0  0
   -2.0637   -1.1552    0.0000 C   0  0  0  0  0  0  0  0  0  0  0  0
   -0.6348   -1.1552    0.0000 C   0  0  0  0  0  0  0  0  0  0  0  0
   -0.6348    0.4948    0.0000 C   0  0  0  0  0  0  0  0  0  0  0  0
    0.7942   -1.1552    0.0000 C   0  0  0  0  0  0  0  0  0  0  0  0
   -2.7782   -0.7427    0.0000 C   0  0  0  0  0  0  0  0  0  0  0  0
   -1.3492    0.0823    0.0000 C   0  0  0  0  0  0  0  0  0  0  0  0
    0.2584    1.4868    0.0000 C   0  0  0  0  0  0  0  0  0  0  0  0
    0.6709    0.7723    0.0000 C   0  0  0  0  0  0  0  0  0  0  0  0
    0.7942   -1.9802    0.0000 C   0  0  0  0  0  0  0  0  0  0  0  0
   -2.0637   -1.9802    0.0000 C   0  0  0  0  0  0  0  0  0  0  0  0
   -3.4927   -1.1552    0.0000 C   0  0  0  0  0  0  0  0  0  0  0  0
   -0.6348   -1.9802    0.0000 C   0  0  0  0  0  0  0  0  0  0  0  0
    2.2231   -1.1552    0.0000 C   0  0  0  0  0  0  0  0  0  0  0  0
   -2.7782   -2.3927    0.0000 C   0  0  0  0  0  0  0  0  0  0  0  0
    0.0797   -2.3927    0.0000 C   0  0  0  0  0  0  0  0  0  0  0  0
    0.6709    2.2013    0.0000 C   0  0  0  0  0  0  0  0  0  0  0  0
   -3.4927   -1.9802    0.0000 C   0  0  0  0  0  0  0  0  0  0  0  0
    1.4959    0.7723    0.0000 C   0  0  0  0  0  0  0  0  0  0  0  0
    2.9376   -0.7427    0.0000 C   0  0  0  0  0  0  0  0  0  0  0  0
    2.2231   -1.9802    0.0000 C   0  0  0  0  0  0  0  0  0  0  0  0
    1.9084    1.4868    0.0000 C   0  0  0  0  0  0  0  0  0  0  0  0
    1.9084    2.9157    0.0000 C   0  0  0  0  0  0  0  0  0  0  0  0
    2.9376    0.0823    0.0000 C   0  0  0  0  0  0  0  0  0  0  0  0
    3.7222   -0.9976    0.0000 C   0  0  0  0  0  0  0  0  0  0  0  0
    3.1459    2.2013    0.0000 C   0  0  0  0  0  0  0  0  0  0  0  0
   -4.2071    0.0823    0.0000 C   0  0  0  0  0  0  0  0  0  0  0  0
   -3.4927   -3.6302    0.0000 C   0  0  0  0  0  0  0  0  0  0  0  0
    4.1347    1.0517    0.0000 C   0  0  0  0  0  0  0  0  0  0  0  0
    3.9709    2.2013    0.0000 C   0  0  0  0  0  0  0  0  0  0  0  0
    2.7334    1.4868    0.0000 C   0  0  0  0  0  0  0  0  0  0  0  0
    3.5584    1.4868    0.0000 C   0  0  0  0  0  0  0  0  0  0  0  0
  1 19  1  0  0  0  0
  2 25  1  0  0  0  0
  2 40  1  0  0  0  0
  3 28  1  0  0  0  0
  3 41  1  0  0  0  0
  4 36  1  0  0  0  0
  4 39  1  0  0  0  0
  5 36  2  0  0  0  0
  6 15  1  0  0  0  0
  6 16  1  0  0  0  0
  6 20  1  0  0  0  0
  7 16  2  0  0  0  0
  7 18  1  0  0  0  0
  8 17  2  0  0  0  0
  8 21  1  0  0  0  0
  9 17  1  0  0  0  0
  9 22  1  0  0  0  0
 10 18  1  0  0  0  0
 10 27  2  0  0  0  0
 11 30  1  0  0  0  0
 11 35  1  0  0  0  0
 11 36  1  0  0  0  0
 12 23  1  0  0  0  0
 12 34  2  0  0  0  0
 13 14  1  0  0  0  0
 13 37  1  0  0  0  0
 13 42  1  0  0  0  0
 14 38  2  0  0  0  0
 15 19  2  0  0  0  0
 15 24  1  0  0  0  0
 16 26  1  0  0  0  0
 17 20  1  0  0  0  0
 18 23  2  0  0  0  0
 19 25  1  0  0  0  0
 21 22  2  0  0  0  0
 21 30  1  0  0  0  0
 22 32  1  0  0  0  0
 23 29  1  0  0  0  0
 24 28  2  0  0  0  0
 25 31  2  0  0  0  0
 26 29  2  0  0  0  0
 27 33  1  0  0  0  0
 27 34  1  0  0  0  0
 28 31  1  0  0  0  0
 32 35  1  0  0  0  0
 33 37  2  0  0  0  0
 33 38  1  0  0  0  0
 39 43  1  0  0  0  0
 39 44  1  0  0  0  0
 39 45  1  0  0  0  0
M  END
> <PUBCHEM_COMPOUND_ID_TYPE>
0

> <PUBCHEM_TOTAL_CHARGE>
0

> <PUBCHEM_SUBSTANCE_ID>
310947014

> <PUBCHEM_SUBSTANCE_VERSION>
1

> <PUBCHEM_EXT_DATASOURCE_NAME>
4488

> <PUBCHEM_EXT_DATASOURCE_REGID>
SCHEMBL16125166

> <PUBCHEM_SUBSTANCE_COMMENT>
InChI=1S/C31H34FN9O4/c1-31(2,3)45-30(42)40-10-9-20-23(16-40)36-26(35-20)17-41(24-11-19(43-5)12-25(44-6)28(24)32)27-8-7-21-29(38-27)37-22(14-33-21)18-13-34-39(4)15-18/h7-8,11-15H,9-10,16-17H2,1-6H3,(H,35,36)
InChIKey=AHIGYMIYVOMQDA-UHFFFAOYSA-N

> <PUBCHEM_SUBSTANCE_SYNONYM>
SCHEMBL16125166

> <PUBCHEM_XREF_EXT_ID>
SCHEMBL16125166

> <PUBCHEM_EXT_DATASOURCE_URL>
https://www.surechembl.org/

> <PUBCHEM_EXT_SUBSTANCE_URL>
https://www.surechembl.org/chemical/SCHEMBL16125166

> <PUBCHEM_CID_ASSOCIATIONS>
117612866  1

> <PUBCHEM_COORDINATE_TYPE>
1
3

$$$$
