310949130
  -OEChem-07211613022D

 63 75  0     0  0  0  0  0  0999 V2000
   -1.5640   -1.6764    0.0000 N   0  0  0  0  0  0  0  0  0  0  0  0
    1.3580   -1.6952    0.0000 N   0  0  0  0  0  0  0  0  0  0  0  0
   -0.1218    0.7960    0.0000 N   0  0  0  0  0  0  0  0  0  0  0  0
   -0.1592   -3.3247    0.0000 N   0  0  0  0  0  0  0  0  0  0  0  0
    2.0698    0.3091    0.0000 N   0  0  0  0  0  0  0  0  0  0  0  0
   -2.2570    0.3278    0.0000 N   0  0  0  0  0  0  0  0  0  0  0  0
   -0.8522   -1.2643    0.0000 C   0  0  0  0  0  0  0  0  0  0  0  0
    0.6275   -1.2643    0.0000 C   0  0  0  0  0  0  0  0  0  0  0  0
   -0.1218   -0.0094    0.0000 C   0  0  0  0  0  0  0  0  0  0  0  0
   -0.1031   -1.6764    0.0000 C   0  0  0  0  0  0  0  0  0  0  0  0
   -0.8147   -0.4402    0.0000 C   0  0  0  0  0  0  0  0  0  0  0  0
    0.6462   -0.4402    0.0000 C   0  0  0  0  0  0  0  0  0  0  0  0
   -2.3881   -1.3018    0.0000 C   0  0  0  0  0  0  0  0  0  0  0  0
    2.1447   -1.3392    0.0000 C   0  0  0  0  0  0  0  0  0  0  0  0
    0.5713    1.2830    0.0000 C   0  0  0  0  0  0  0  0  0  0  0  0
   -1.6764   -2.4818    0.0000 C   0  0  0  0  0  0  0  0  0  0  0  0
    1.4329   -2.5005    0.0000 C   0  0  0  0  0  0  0  0  0  0  0  0
   -0.8147    1.3018    0.0000 C   0  0  0  0  0  0  0  0  0  0  0  0
   -2.8752   -1.9386    0.0000 C   0  0  0  0  0  0  0  0  0  0  0  0
    2.7066   -1.9574    0.0000 C   0  0  0  0  0  0  0  0  0  0  0  0
    0.3091    2.0510    0.0000 C   0  0  0  0  0  0  0  0  0  0  0  0
   -2.4818   -2.6691    0.0000 C   0  0  0  0  0  0  0  0  0  0  0  0
    2.2758   -2.7066    0.0000 C   0  0  0  0  0  0  0  0  0  0  0  0
   -0.5339    2.0697    0.0000 C   0  0  0  0  0  0  0  0  0  0  0  0
   -3.6619   -1.7700    0.0000 C   0  0  0  0  0  0  0  0  0  0  0  0
    3.5495   -1.7888    0.0000 C   0  0  0  0  0  0  0  0  0  0  0  0
    0.9084    2.6878    0.0000 C   0  0  0  0  0  0  0  0  0  0  0  0
   -0.1405   -2.5192    0.0000 C   0  0  0  0  0  0  0  0  0  0  0  0
    1.3580   -0.0468    0.0000 C   0  0  0  0  0  0  0  0  0  0  0  0
   -1.5640   -0.0281    0.0000 C   0  0  0  0  0  0  0  0  0  0  0  0
   -2.5941   -0.5713    0.0000 C   0  0  0  0  0  0  0  0  0  0  0  0
    2.4255   -0.5900    0.0000 C   0  0  0  0  0  0  0  0  0  0  0  0
    1.4141    1.1332    0.0000 C   0  0  0  0  0  0  0  0  0  0  0  0
   -1.0957   -3.1374    0.0000 C   0  0  0  0  0  0  0  0  0  0  0  0
    0.9084   -3.1374    0.0000 C   0  0  0  0  0  0  0  0  0  0  0  0
   -1.6202    1.1519    0.0000 C   0  0  0  0  0  0  0  0  0  0  0  0
   -3.9240   -0.9833    0.0000 C   0  0  0  0  0  0  0  0  0  0  0  0
    3.8304   -1.0020    0.0000 C   0  0  0  0  0  0  0  0  0  0  0  0
    1.7139    2.5192    0.0000 C   0  0  0  0  0  0  0  0  0  0  0  0
   -2.7253   -3.4370    0.0000 C   0  0  0  0  0  0  0  0  0  0  0  0
    2.5567   -3.4746    0.0000 C   0  0  0  0  0  0  0  0  0  0  0  0
   -1.0582    2.6316    0.0000 C   0  0  0  0  0  0  0  0  0  0  0  0
   -3.3621   -0.3840    0.0000 C   0  0  0  0  0  0  0  0  0  0  0  0
    3.2310   -0.4027    0.0000 C   0  0  0  0  0  0  0  0  0  0  0  0
    1.9574    1.6952    0.0000 C   0  0  0  0  0  0  0  0  0  0  0  0
   -4.2049   -2.3694    0.0000 C   0  0  0  0  0  0  0  0  0  0  0  0
    4.1113   -2.3881    0.0000 C   0  0  0  0  0  0  0  0  0  0  0  0
    0.6462    3.4746    0.0000 C   0  0  0  0  0  0  0  0  0  0  0  0
   -1.3580   -3.8867    0.0000 C   0  0  0  0  0  0  0  0  0  0  0  0
    1.1706   -3.8679    0.0000 C   0  0  0  0  0  0  0  0  0  0  0  0
   -2.1634    1.7139    0.0000 C   0  0  0  0  0  0  0  0  0  0  0  0
   -2.1821   -4.0552    0.0000 C   0  0  0  0  0  0  0  0  0  0  0  0
    2.0135   -4.0552    0.0000 C   0  0  0  0  0  0  0  0  0  0  0  0
   -1.9012    2.5005    0.0000 C   0  0  0  0  0  0  0  0  0  0  0  0
   -4.7482   -0.8522    0.0000 C   0  0  0  0  0  0  0  0  0  0  0  0
    4.6733   -0.8709    0.0000 C   0  0  0  0  0  0  0  0  0  0  0  0
    2.2570    3.0999    0.0000 C   0  0  0  0  0  0  0  0  0  0  0  0
   -4.9917   -2.2009    0.0000 C   0  0  0  0  0  0  0  0  0  0  0  0
    4.9730   -2.2383    0.0000 C   0  0  0  0  0  0  0  0  0  0  0  0
    1.1519    4.0552    0.0000 C   0  0  0  0  0  0  0  0  0  0  0  0
   -5.2540   -1.4329    0.0000 C   0  0  0  0  0  0  0  0  0  0  0  0
    5.2540   -1.4703    0.0000 C   0  0  0  0  0  0  0  0  0  0  0  0
    2.0135    3.8679    0.0000 C   0  0  0  0  0  0  0  0  0  0  0  0
  1  7  1  0  0  0  0
  1 13  1  0  0  0  0
  1 16  1  0  0  0  0
  2  8  1  0  0  0  0
  2 14  1  0  0  0  0
  2 17  1  0  0  0  0
  3  9  1  0  0  0  0
  3 15  1  0  0  0  0
  3 18  1  0  0  0  0
  4 28  3  0  0  0  0
  5 29  3  0  0  0  0
  6 30  3  0  0  0  0
  7 10  2  0  0  0  0
  7 11  1  0  0  0  0
  8 10  1  0  0  0  0
  8 12  2  0  0  0  0
  9 11  2  0  0  0  0
  9 12  1  0  0  0  0
 10 28  1  0  0  0  0
 11 30  1  0  0  0  0
 12 29  1  0  0  0  0
 13 19  2  0  0  0  0
 13 31  1  0  0  0  0
 14 20  2  0  0  0  0
 14 32  1  0  0  0  0
 15 21  2  0  0  0  0
 15 33  1  0  0  0  0
 16 22  2  0  0  0  0
 16 34  1  0  0  0  0
 17 23  2  0  0  0  0
 17 35  1  0  0  0  0
 18 24  2  0  0  0  0
 18 36  1  0  0  0  0
 19 22  1  0  0  0  0
 19 25  1  0  0  0  0
 20 23  1  0  0  0  0
 20 26  1  0  0  0  0
 21 24  1  0  0  0  0
 21 27  1  0  0  0  0
 22 40  1  0  0  0  0
 23 41  1  0  0  0  0
 24 42  1  0  0  0  0
 25 37  1  0  0  0  0
 25 46  2  0  0  0  0
 26 38  1  0  0  0  0
 26 47  2  0  0  0  0
 27 39  1  0  0  0  0
 27 48  2  0  0  0  0
 31 43  2  0  0  0  0
 32 44  2  0  0  0  0
 33 45  2  0  0  0  0
 34 49  2  0  0  0  0
 35 50  2  0  0  0  0
 36 51  1  0  0  0  0
 37 43  1  0  0  0  0
 37 55  2  0  0  0  0
 38 44  1  0  0  0  0
 38 56  2  0  0  0  0
 39 45  1  0  0  0  0
 39 57  2  0  0  0  0
 40 52  2  0  0  0  0
 41 53  2  0  0  0  0
 42 54  2  0  0  0  0
 46 58  1  0  0  0  0
 47 59  1  0  0  0  0
 48 60  1  0  0  0  0
 49 52  1  0  0  0  0
 50 53  1  0  0  0  0
 51 54  1  0  0  0  0
 55 61  1  0  0  0  0
 56 62  1  0  0  0  0
 57 63  1  0  0  0  0
 58 61  2  0  0  0  0
 59 62  2  0  0  0  0
 60 63  2  0  0  0  0
M  END
> <PUBCHEM_COMPOUND_ID_TYPE>
0

> <PUBCHEM_TOTAL_CHARGE>
0

> <PUBCHEM_SUBSTANCE_ID>
310949130

> <PUBCHEM_SUBSTANCE_VERSION>
1

> <PUBCHEM_EXT_DATASOURCE_NAME>
4488

> <PUBCHEM_EXT_DATASOURCE_REGID>
SCHEMBL16127320

> <PUBCHEM_SUBSTANCE_COMMENT>
InChI=1S/C57H32N6/c58-31-43-55(61-46-22-10-7-19-40(46)52-37-16-4-1-13-34(37)25-28-49(52)61)44(32-59)57(63-48-24-12-9-21-42(48)54-39-18-6-3-15-36(39)27-30-51(54)63)45(33-60)56(43)62-47-23-11-8-20-41(47)53-38-17-5-2-14-35(38)26-29-50(53)62/h1-11,13-23,25-30H,12,24H2
InChIKey=GGGLZGPJNXYPJB-UHFFFAOYSA-N

> <PUBCHEM_SUBSTANCE_SYNONYM>
SCHEMBL16127320

> <PUBCHEM_XREF_EXT_ID>
SCHEMBL16127320

> <PUBCHEM_EXT_DATASOURCE_URL>
https://www.surechembl.org/

> <PUBCHEM_EXT_SUBSTANCE_URL>
https://www.surechembl.org/chemical/SCHEMBL16127320

> <PUBCHEM_CID_ASSOCIATIONS>
117614627  1

> <PUBCHEM_COORDINATE_TYPE>
1
3

$$$$
