310946943
  -OEChem-07211613022D

 28 31  0     1  0  0  0  0  0999 V2000
   -2.6814    0.6647    0.0000 F   0  0  0  0  0  0  0  0  0  0  0  0
   -1.9195    3.0249    0.0000 O   0  0  0  0  0  0  0  0  0  0  0  0
    0.2017   -1.4714    0.0000 O   0  0  0  0  0  0  0  0  0  0  0  0
   -1.0681    1.0083    0.0000 N   0  0  0  0  0  0  0  0  0  0  0  0
   -0.2315    1.0979    0.0000 N   0  0  0  0  0  0  0  0  0  0  0  0
   -1.2324   -1.4565    0.0000 N   0  0  0  0  0  0  0  0  0  0  0  0
    0.9037    0.1718    0.0000 N   0  0  0  0  0  0  0  0  0  0  0  0
    0.0224    3.2191    0.0000 N   0  0  0  0  0  0  0  0  0  0  0  0
   -1.6208    1.6208    0.0000 C   0  0  3  0  0  0  0  0  0  0  0  0
   -1.2324    0.2017    0.0000 C   0  0  0  0  0  0  0  0  0  0  0  0
   -0.5153   -0.2166    0.0000 C   0  0  0  0  0  0  0  0  0  0  0  0
    0.0971    0.3511    0.0000 C   0  0  0  0  0  0  0  0  0  0  0  0
   -2.4274    1.4714    0.0000 C   0  0  3  0  0  0  0  0  0  0  0  0
   -0.5303   -1.0531    0.0000 C   0  0  0  0  0  0  0  0  0  0  0  0
   -1.3668    2.4124    0.0000 C   0  0  0  0  0  0  0  0  0  0  0  0
   -0.8291    1.8299    0.0000 C   0  0  0  0  0  0  0  0  0  0  0  0
   -1.9494   -0.2166    0.0000 C   0  0  0  0  0  0  0  0  0  0  0  0
   -2.9801    2.0689    0.0000 C   0  0  0  0  0  0  0  0  0  0  0  0
   -1.9494   -1.0382    0.0000 C   0  0  0  0  0  0  0  0  0  0  0  0
   -2.7262    2.8456    0.0000 C   0  0  0  0  0  0  0  0  0  0  0  0
   -0.3959    2.5469    0.0000 C   0  0  0  0  0  0  0  0  0  0  0  0
    0.9934   -1.2473    0.0000 C   0  0  0  0  0  0  0  0  0  0  0  0
    1.5908   -1.8299    0.0000 C   0  0  0  0  0  0  0  0  0  0  0  0
    1.3967   -2.6365    0.0000 C   0  0  0  0  0  0  0  0  0  0  0  0
    2.3975   -1.6357    0.0000 C   0  0  0  0  0  0  0  0  0  0  0  0
    1.9792   -3.2191    0.0000 C   0  0  0  0  0  0  0  0  0  0  0  0
    2.9801   -2.2033    0.0000 C   0  0  0  0  0  0  0  0  0  0  0  0
    2.7560   -2.9950    0.0000 C   0  0  0  0  0  0  0  0  0  0  0  0
 13  1  1  1  0  0  0
  2 15  1  0  0  0  0
  2 20  1  0  0  0  0
  3 14  1  0  0  0  0
  3 22  1  0  0  0  0
  4  5  1  0  0  0  0
  4  9  1  0  0  0  0
  4 10  1  0  0  0  0
  5 12  2  0  0  0  0
  6 14  2  0  0  0  0
  6 19  1  0  0  0  0
  7 12  1  0  0  0  0
  8 21  3  0  0  0  0
  9 13  1  0  0  0  0
  9 15  1  0  0  0  0
  9 16  1  6  0  0  0
 10 11  2  0  0  0  0
 10 17  1  0  0  0  0
 11 12  1  0  0  0  0
 11 14  1  0  0  0  0
 13 18  1  0  0  0  0
 16 21  1  0  0  0  0
 17 19  2  0  0  0  0
 18 20  1  0  0  0  0
 22 23  1  0  0  0  0
 23 24  2  0  0  0  0
 23 25  1  0  0  0  0
 24 26  1  0  0  0  0
 25 27  2  0  0  0  0
 26 28  2  0  0  0  0
 27 28  1  0  0  0  0
M  END
> <PUBCHEM_COMPOUND_ID_TYPE>
0

> <PUBCHEM_TOTAL_CHARGE>
0

> <PUBCHEM_SUBSTANCE_ID>
310946943

> <PUBCHEM_SUBSTANCE_VERSION>
1

> <PUBCHEM_EXT_DATASOURCE_NAME>
4488

> <PUBCHEM_EXT_DATASOURCE_REGID>
SCHEMBL16125068

> <PUBCHEM_SUBSTANCE_COMMENT>
InChI=1S/C20H20FN5O2/c21-16-7-11-27-13-20(16,8-9-22)26-15-6-10-24-19(17(15)18(23)25-26)28-12-14-4-2-1-3-5-14/h1-6,10,16H,7-8,11-13H2,(H2,23,25)/t16-,20+/m0/s1
InChIKey=OKLBIDPCRUTCRS-OXJNMPFZSA-N

> <PUBCHEM_SUBSTANCE_SYNONYM>
SCHEMBL16125068

> <PUBCHEM_XREF_EXT_ID>
SCHEMBL16125068

> <PUBCHEM_EXT_DATASOURCE_URL>
https://www.surechembl.org/

> <PUBCHEM_EXT_SUBSTANCE_URL>
https://www.surechembl.org/chemical/SCHEMBL16125068

> <PUBCHEM_CID_ASSOCIATIONS>
117612799  1

> <PUBCHEM_COORDINATE_TYPE>
1
3

> <PUBCHEM_BONDANNOTATIONS>
13  1  5
9  16  6

$$$$
