310940559
  -OEChem-07211613022D

 33 37  0     1  0  0  0  0  0999 V2000
    2.6813   -0.8097    0.0000 O   0  0  0  0  0  0  0  0  0  0  0  0
   -1.4896   -0.9320    0.0000 O   0  0  0  0  0  0  0  0  0  0  0  0
    2.7730    0.6722    0.0000 O   0  0  0  0  0  0  0  0  0  0  0  0
   -2.7730   -3.0251    0.0000 O   0  0  0  0  0  0  0  0  0  0  0  0
    1.5508   -0.1375    0.0000 N   0  0  0  0  0  0  0  0  0  0  0  0
    1.3826   -2.5972    0.0000 N   0  0  0  0  0  0  0  0  0  0  0  0
   -2.2841   -3.7126    0.0000 N   0  0  0  0  0  0  0  0  0  0  0  0
   -0.3132    3.7889    0.0000 N   0  0  0  0  0  0  0  0  0  0  0  0
    1.3674   -0.8862    0.0000 C   0  0  0  0  0  0  0  0  0  0  0  0
    0.6493   -1.2680    0.0000 C   0  0  0  0  0  0  0  0  0  0  0  0
    2.1008   -1.2987    0.0000 C   0  0  0  0  0  0  0  0  0  0  0  0
    0.6493   -2.1389    0.0000 C   0  0  0  0  0  0  0  0  0  0  0  0
    2.3451   -0.0153    0.0000 C   0  0  0  0  0  0  0  0  0  0  0  0
   -0.7716   -2.1237    0.0000 C   0  0  0  0  0  0  0  0  0  0  0  0
   -0.0534   -0.9014    0.0000 C   0  0  0  0  0  0  0  0  0  0  0  0
   -0.7716   -1.2987    0.0000 C   0  0  0  0  0  0  0  0  0  0  0  0
    0.9854    0.5042    0.0000 C   0  0  3  0  0  0  0  0  0  0  0  0
   -0.0382   -2.5209    0.0000 C   0  0  0  0  0  0  0  0  0  0  0  0
   -1.4896   -2.5362    0.0000 C   0  0  0  0  0  0  0  0  0  0  0  0
    2.0855   -2.1237    0.0000 C   0  0  0  0  0  0  0  0  0  0  0  0
    1.1841    1.3292    0.0000 C   0  0  0  0  0  0  0  0  0  0  0  0
   -2.2841   -2.2764    0.0000 C   0  0  0  0  0  0  0  0  0  0  0  0
   -1.5049   -3.3612    0.0000 C   0  0  0  0  0  0  0  0  0  0  0  0
    0.1909    0.3055    0.0000 C   0  0  0  0  0  0  0  0  0  0  0  0
    0.6188    1.8792    0.0000 C   0  0  0  0  0  0  0  0  0  0  0  0
    1.9785    1.5430    0.0000 C   0  0  0  0  0  0  0  0  0  0  0  0
    0.8174    2.6889    0.0000 C   0  0  0  0  0  0  0  0  0  0  0  0
   -2.5285   -1.4667    0.0000 C   0  0  0  0  0  0  0  0  0  0  0  0
   -0.7563   -3.7889    0.0000 C   0  0  0  0  0  0  0  0  0  0  0  0
    2.1771    2.3222    0.0000 C   0  0  0  0  0  0  0  0  0  0  0  0
   -1.4896   -0.0458    0.0000 C   0  0  0  0  0  0  0  0  0  0  0  0
    1.6118    2.8875    0.0000 C   0  0  0  0  0  0  0  0  0  0  0  0
    0.2368    3.2542    0.0000 C   0  0  0  0  0  0  0  0  0  0  0  0
  1 11  1  0  0  0  0
  1 13  1  0  0  0  0
  2 16  1  0  0  0  0
  2 31  1  0  0  0  0
  3 13  2  0  0  0  0
  4  7  1  0  0  0  0
  4 22  1  0  0  0  0
  5  9  1  0  0  0  0
  5 13  1  0  0  0  0
  5 17  1  0  0  0  0
  6 12  1  0  0  0  0
  6 20  2  0  0  0  0
  7 23  2  0  0  0  0
  8 33  3  0  0  0  0
  9 10  1  0  0  0  0
  9 11  2  0  0  0  0
 10 12  2  0  0  0  0
 10 15  1  0  0  0  0
 11 20  1  0  0  0  0
 12 18  1  0  0  0  0
 14 16  1  0  0  0  0
 14 18  2  0  0  0  0
 14 19  1  0  0  0  0
 15 16  2  0  0  0  0
 17 21  1  0  0  0  0
 17 24  1  6  0  0  0
 19 22  2  0  0  0  0
 19 23  1  0  0  0  0
 21 25  2  0  0  0  0
 21 26  1  0  0  0  0
 22 28  1  0  0  0  0
 23 29  1  0  0  0  0
 25 27  1  0  0  0  0
 26 30  2  0  0  0  0
 27 32  2  0  0  0  0
 27 33  1  0  0  0  0
 30 32  1  0  0  0  0
M  END
> <PUBCHEM_COMPOUND_ID_TYPE>
0

> <PUBCHEM_TOTAL_CHARGE>
0

> <PUBCHEM_SUBSTANCE_ID>
310940559

> <PUBCHEM_SUBSTANCE_VERSION>
1

> <PUBCHEM_EXT_DATASOURCE_NAME>
4488

> <PUBCHEM_EXT_DATASOURCE_REGID>
SCHEMBL16118513

> <PUBCHEM_SUBSTANCE_COMMENT>
InChI=1S/C25H20N4O4/c1-13-23(15(3)33-28-13)19-9-20-18(10-21(19)31-4)24-22(12-27-20)32-25(30)29(24)14(2)17-7-5-6-16(8-17)11-26/h5-10,12,14H,1-4H3/t14-/m1/s1
InChIKey=RFOWKDBVTYEWKS-CQSZACIVSA-N

> <PUBCHEM_SUBSTANCE_SYNONYM>
SCHEMBL16118513

> <PUBCHEM_XREF_EXT_ID>
SCHEMBL16118513

> <PUBCHEM_EXT_DATASOURCE_URL>
https://www.surechembl.org/

> <PUBCHEM_EXT_SUBSTANCE_URL>
https://www.surechembl.org/chemical/SCHEMBL16118513

> <PUBCHEM_CID_ASSOCIATIONS>
117607557  1

> <PUBCHEM_COORDINATE_TYPE>
1
3

> <PUBCHEM_BONDANNOTATIONS>
17  24  6

$$$$
