310942180
  -OEChem-07211613022D

 30 31  0     1  0  0  0  0  0999 V2000
   -0.0124    0.8158    0.0000 Cl  0  0  0  0  0  0  0  0  0  0  0  0
   -1.4447   -1.6627    0.0000 F   0  0  0  0  0  0  0  0  0  0  0  0
   -0.0124   -0.8407    0.0000 O   0  0  0  0  0  0  0  0  0  0  0  0
    3.5745   -0.4173    0.0000 O   0  0  0  0  0  0  0  0  0  0  0  0
   -2.1796    2.0737    0.0000 O   0  0  0  0  0  0  0  0  0  0  0  0
   -3.5995   -0.4173    0.0000 N   0  0  0  0  0  0  0  0  0  0  0  0
    2.8646    0.8282    0.0000 N   0  0  0  0  0  0  0  0  0  0  0  0
   -3.5995    2.0737    0.0000 N   0  0  0  0  0  0  0  0  0  0  0  0
   -0.7348   -0.4173    0.0000 C   0  0  0  0  0  0  0  0  0  0  0  0
   -1.4447   -0.8282    0.0000 C   0  0  0  0  0  0  0  0  0  0  0  0
   -2.1671   -0.4173    0.0000 C   0  0  0  0  0  0  0  0  0  0  0  0
   -0.7224    0.4173    0.0000 C   0  0  0  0  0  0  0  0  0  0  0  0
   -2.8771   -0.8282    0.0000 C   0  0  3  0  0  0  0  0  0  0  0  0
    0.7099   -0.4173    0.0000 C   0  0  0  0  0  0  0  0  0  0  0  0
   -2.1547    0.4048    0.0000 C   0  0  0  0  0  0  0  0  0  0  0  0
   -1.4323    0.8158    0.0000 C   0  0  0  0  0  0  0  0  0  0  0  0
    1.4447   -0.8282    0.0000 C   0  0  0  0  0  0  0  0  0  0  0  0
    2.1422   -0.4173    0.0000 C   0  0  0  0  0  0  0  0  0  0  0  0
    2.1547    0.4173    0.0000 C   0  0  0  0  0  0  0  0  0  0  0  0
    0.7224    0.4048    0.0000 C   0  0  0  0  0  0  0  0  0  0  0  0
    1.4323    0.8158    0.0000 C   0  0  0  0  0  0  0  0  0  0  0  0
   -2.8895   -1.6752    0.0000 C   0  0  0  0  0  0  0  0  0  0  0  0
   -3.5995    0.4173    0.0000 C   0  0  3  0  0  0  0  0  0  0  0  0
    2.8646   -0.8282    0.0000 C   0  0  0  0  0  0  0  0  0  0  0  0
    3.5870    0.4297    0.0000 C   0  0  0  0  0  0  0  0  0  0  0  0
   -2.8771    0.8282    0.0000 C   0  0  0  0  0  0  0  0  0  0  0  0
   -3.5870   -2.0737    0.0000 C   0  0  0  0  0  0  0  0  0  0  0  0
   -4.3094    0.8158    0.0000 C   0  0  0  0  0  0  0  0  0  0  0  0
   -2.8895    1.6503    0.0000 C   0  0  0  0  0  0  0  0  0  0  0  0
    4.3094    0.8282    0.0000 C   0  0  0  0  0  0  0  0  0  0  0  0
  1 12  1  0  0  0  0
  2 10  1  0  0  0  0
  3  9  1  0  0  0  0
  3 14  1  0  0  0  0
  4 25  2  0  0  0  0
  5 29  2  0  0  0  0
 13  6  1  1  0  0  0
  6 23  1  0  0  0  0
  7 19  1  0  0  0  0
  7 25  1  0  0  0  0
  8 29  1  0  0  0  0
  9 10  1  0  0  0  0
  9 12  2  0  0  0  0
 10 11  2  0  0  0  0
 11 13  1  0  0  0  0
 11 15  1  0  0  0  0
 12 16  1  0  0  0  0
 13 22  1  0  0  0  0
 14 17  1  0  0  0  0
 14 20  2  0  0  0  0
 15 16  2  0  0  0  0
 17 18  2  0  0  0  0
 18 19  1  0  0  0  0
 18 24  1  0  0  0  0
 19 21  2  0  0  0  0
 20 21  1  0  0  0  0
 22 27  1  0  0  0  0
 23 26  1  0  0  0  0
 23 28  1  1  0  0  0
 25 30  1  0  0  0  0
 26 29  1  0  0  0  0
M  END
> <PUBCHEM_COMPOUND_ID_TYPE>
0

> <PUBCHEM_TOTAL_CHARGE>
0

> <PUBCHEM_SUBSTANCE_ID>
310942180

> <PUBCHEM_SUBSTANCE_VERSION>
1

> <PUBCHEM_EXT_DATASOURCE_NAME>
4488

> <PUBCHEM_EXT_DATASOURCE_REGID>
SCHEMBL16120215

> <PUBCHEM_SUBSTANCE_COMMENT>
InChI=1S/C22H27ClFN3O3/c1-5-18(26-13(3)11-20(25)29)16-7-8-17(23)22(21(16)24)30-15-6-9-19(12(2)10-15)27-14(4)28/h6-10,13,18,26H,5,11H2,1-4H3,(H2,25,29)(H,27,28)/t13-,18+/m0/s1
InChIKey=IJBLYJXWUWPITO-SCLBCKFNSA-N

> <PUBCHEM_SUBSTANCE_SYNONYM>
SCHEMBL16120215

> <PUBCHEM_XREF_EXT_ID>
SCHEMBL16120215

> <PUBCHEM_EXT_DATASOURCE_URL>
https://www.surechembl.org/

> <PUBCHEM_EXT_SUBSTANCE_URL>
https://www.surechembl.org/chemical/SCHEMBL16120215

> <PUBCHEM_CID_ASSOCIATIONS>
117608831  1

> <PUBCHEM_COORDINATE_TYPE>
1
3

> <PUBCHEM_BONDANNOTATIONS>
23  28  5
13  6  5

$$$$
