310930662
  -OEChem-07211613022D

 31 35  0     0  0  0  0  0  0999 V2000
    2.4235   -6.9610    0.0000 S   0  0  0  0  0  0  0  0  0  0  0  0
    2.5266   -9.7969    0.0000 O   0  0  0  0  0  0  0  0  0  0  0  0
    3.1969   -6.4969    0.0000 O   0  0  0  0  0  0  0  0  0  0  0  0
    1.7016   -7.3219    0.0000 O   0  0  0  0  0  0  0  0  0  0  0  0
    3.8672   -9.8485    0.0000 O   0  0  0  0  0  0  0  0  0  0  0  0
    0.0000   -2.7328    0.0000 O   0  0  0  0  0  0  0  0  0  0  0  0
    2.3719   -1.3406    0.0000 N   0  0  0  0  0  0  0  0  0  0  0  0
    2.5266    0.0000    0.0000 N   0  0  0  0  0  0  0  0  0  0  0  0
    1.1860   -3.4031    0.0000 N   0  0  0  0  0  0  0  0  0  0  0  0
    2.7844   -7.6313    0.0000 C   0  0  0  0  0  0  0  0  0  0  0  0
    2.0110   -6.2391    0.0000 C   0  0  0  0  0  0  0  0  0  0  0  0
    2.7844   -9.0235    0.0000 C   0  0  0  0  0  0  0  0  0  0  0  0
    2.4235   -8.3532    0.0000 C   0  0  0  0  0  0  0  0  0  0  0  0
    3.6094   -9.0751    0.0000 C   0  0  0  0  0  0  0  0  0  0  0  0
    3.6610   -7.6829    0.0000 C   0  0  0  0  0  0  0  0  0  0  0  0
    4.0219   -8.3532    0.0000 C   0  0  0  0  0  0  0  0  0  0  0  0
    2.4235   -5.5688    0.0000 C   0  0  0  0  0  0  0  0  0  0  0  0
    1.1860   -6.2391    0.0000 C   0  0  0  0  0  0  0  0  0  0  0  0
    1.1860   -4.8469    0.0000 C   0  0  0  0  0  0  0  0  0  0  0  0
    2.0110   -0.6188    0.0000 C   0  0  0  0  0  0  0  0  0  0  0  0
    1.1860   -2.0110    0.0000 C   0  0  0  0  0  0  0  0  0  0  0  0
    2.0110   -4.8469    0.0000 C   0  0  0  0  0  0  0  0  0  0  0  0
    0.7735   -5.5688    0.0000 C   0  0  0  0  0  0  0  0  0  0  0  0
    3.1969  -10.3126    0.0000 C   0  0  0  0  0  0  0  0  0  0  0  0
    2.0110   -2.0110    0.0000 C   0  0  0  0  0  0  0  0  0  0  0  0
    0.7735   -2.7328    0.0000 C   0  0  0  0  0  0  0  0  0  0  0  0
    1.1860   -0.6188    0.0000 C   0  0  0  0  0  0  0  0  0  0  0  0
    0.7735   -1.3406    0.0000 C   0  0  0  0  0  0  0  0  0  0  0  0
    3.1969   -1.1344    0.0000 C   0  0  0  0  0  0  0  0  0  0  0  0
    0.7735   -4.1250    0.0000 C   0  0  0  0  0  0  0  0  0  0  0  0
    3.3000   -0.3610    0.0000 C   0  0  0  0  0  0  0  0  0  0  0  0
  1  3  2  0  0  0  0
  1  4  2  0  0  0  0
  1 10  1  0  0  0  0
  1 11  1  0  0  0  0
  2 12  1  0  0  0  0
  2 24  1  0  0  0  0
  5 14  1  0  0  0  0
  5 24  1  0  0  0  0
  6 26  2  0  0  0  0
  7 20  1  0  0  0  0
  7 25  1  0  0  0  0
  7 29  1  0  0  0  0
  8 20  2  0  0  0  0
  8 31  1  0  0  0  0
  9 26  1  0  0  0  0
  9 30  1  0  0  0  0
 10 13  2  0  0  0  0
 10 15  1  0  0  0  0
 11 17  2  0  0  0  0
 11 18  1  0  0  0  0
 12 13  1  0  0  0  0
 12 14  2  0  0  0  0
 14 16  1  0  0  0  0
 15 16  2  0  0  0  0
 17 22  1  0  0  0  0
 18 23  2  0  0  0  0
 19 22  2  0  0  0  0
 19 23  1  0  0  0  0
 19 30  1  0  0  0  0
 20 27  1  0  0  0  0
 21 25  2  0  0  0  0
 21 26  1  0  0  0  0
 21 28  1  0  0  0  0
 27 28  2  0  0  0  0
 29 31  2  0  0  0  0
M  END
> <PUBCHEM_COMPOUND_ID_TYPE>
0

> <PUBCHEM_TOTAL_CHARGE>
0

> <PUBCHEM_SUBSTANCE_ID>
310930662

> <PUBCHEM_SUBSTANCE_VERSION>
1

> <PUBCHEM_EXT_DATASOURCE_NAME>
4488

> <PUBCHEM_EXT_DATASOURCE_REGID>
SCHEMBL16107959

> <PUBCHEM_SUBSTANCE_COMMENT>
InChI=1S/C22H17N3O5S/c26-22(16-3-8-21-23-9-10-25(21)13-16)24-12-15-1-4-17(5-2-15)31(27,28)18-6-7-19-20(11-18)30-14-29-19/h1-11,13H,12,14H2,(H,24,26)
InChIKey=BVLZTFGVFCYQDA-UHFFFAOYSA-N

> <PUBCHEM_SUBSTANCE_SYNONYM>
SCHEMBL16107959

> <PUBCHEM_XREF_EXT_ID>
SCHEMBL16107959

> <PUBCHEM_EXT_DATASOURCE_URL>
https://www.surechembl.org/

> <PUBCHEM_EXT_SUBSTANCE_URL>
https://www.surechembl.org/chemical/SCHEMBL16107959

> <PUBCHEM_CID_ASSOCIATIONS>
117599717  1

> <PUBCHEM_COORDINATE_TYPE>
1
3

$$$$
