310940944
  -OEChem-07211613022D

 43 46  0     1  0  0  0  0  0999 V2000
    5.1600   -1.0132    0.0000 O   0  0  0  0  0  0  0  0  0  0  0  0
    4.0310    0.9408    0.0000 O   0  0  0  0  0  0  0  0  0  0  0  0
    1.6717   -0.9987    0.0000 O   0  0  0  0  0  0  0  0  0  0  0  0
   -0.4704    1.0566    0.0000 O   0  0  0  0  0  0  0  0  0  0  0  0
    3.8139    2.7066    0.0000 O   0  0  0  0  0  0  0  0  0  0  0  0
   -2.6126   -0.9987    0.0000 O   0  0  0  0  0  0  0  0  0  0  0  0
   -5.4784   -0.9987    0.0000 O   0  0  0  0  0  0  0  0  0  0  0  0
    2.3955    0.2316    0.0000 N   0  0  0  0  0  0  0  0  0  0  0  0
    0.2533   -0.1737    0.0000 N   0  0  0  0  0  0  0  0  0  0  0  0
   -1.9033    0.2316    0.0000 N   0  0  0  0  0  0  0  0  0  0  0  0
   -4.0455   -0.1737    0.0000 N   0  0  0  0  0  0  0  0  0  0  0  0
   -2.6126   -1.8237    0.0000 N   0  0  0  0  0  0  0  0  0  0  0  0
    4.7547   -0.2895    0.0000 C   0  0  3  0  0  0  0  0  0  0  0  0
    3.9876    0.1303    0.0000 C   0  0  0  0  0  0  0  0  0  0  0  0
    4.3639   -0.9842    0.0000 C   0  0  0  0  0  0  0  0  0  0  0  0
    3.3507   -0.2605    0.0000 C   0  0  3  0  0  0  0  0  0  0  0  0
    5.4784    0.1447    0.0000 C   0  0  0  0  0  0  0  0  0  0  0  0
    3.3507   -1.3316    0.0000 C   0  0  0  0  0  0  0  0  0  0  0  0
    1.6862   -0.1303    0.0000 C   0  0  0  0  0  0  0  0  0  0  0  0
    0.9625    0.2605    0.0000 C   0  0  3  0  0  0  0  0  0  0  0  0
    2.6126   -1.7513    0.0000 C   0  0  0  0  0  0  0  0  0  0  0  0
    0.9770    1.0855    0.0000 C   0  0  0  0  0  0  0  0  0  0  0  0
   -0.4704    0.2460    0.0000 C   0  0  0  0  0  0  0  0  0  0  0  0
    1.6862    1.5053    0.0000 C   0  0  0  0  0  0  0  0  0  0  0  0
    1.8599   -1.4329    0.0000 C   0  0  0  0  0  0  0  0  0  0  0  0
    2.5112   -2.5764    0.0000 C   0  0  0  0  0  0  0  0  0  0  0  0
   -1.1797   -0.1303    0.0000 C   0  0  3  0  0  0  0  0  0  0  0  0
    1.3244   -2.0408    0.0000 C   0  0  0  0  0  0  0  0  0  0  0  0
    1.7152   -2.7211    0.0000 C   0  0  0  0  0  0  0  0  0  0  0  0
    2.3955    1.1001    0.0000 C   0  0  0  0  0  0  0  0  0  0  0  0
    1.7007    2.3303    0.0000 C   0  0  0  0  0  0  0  0  0  0  0  0
   -2.5981   -0.1158    0.0000 C   0  0  0  0  0  0  0  0  0  0  0  0
   -1.1651   -0.9698    0.0000 C   0  0  0  0  0  0  0  0  0  0  0  0
    3.1191    2.3303    0.0000 C   0  0  0  0  0  0  0  0  0  0  0  0
    3.1191    1.5053    0.0000 C   0  0  0  0  0  0  0  0  0  0  0  0
    2.3810    2.7211    0.0000 C   0  0  0  0  0  0  0  0  0  0  0  0
   -3.3362    0.2605    0.0000 C   0  0  0  0  0  0  0  0  0  0  0  0
   -1.9033   -1.3750    0.0000 C   0  0  0  0  0  0  0  0  0  0  0  0
   -4.0310   -0.9698    0.0000 C   0  0  0  0  0  0  0  0  0  0  0  0
   -4.7692    0.2605    0.0000 C   0  0  0  0  0  0  0  0  0  0  0  0
   -4.7402   -1.3750    0.0000 C   0  0  0  0  0  0  0  0  0  0  0  0
   -5.4494   -0.1303    0.0000 C   0  0  0  0  0  0  0  0  0  0  0  0
    4.5520    2.3159    0.0000 C   0  0  0  0  0  0  0  0  0  0  0  0
  1 13  1  0  0  0  0
  1 15  1  0  0  0  0
  2 14  2  0  0  0  0
  3 19  2  0  0  0  0
  4 23  2  0  0  0  0
  5 34  1  0  0  0  0
  5 43  1  0  0  0  0
  6 32  2  0  0  0  0
  7 41  1  0  0  0  0
  7 42  1  0  0  0  0
 16  8  1  6  0  0  0
  8 19  1  0  0  0  0
 20  9  1  1  0  0  0
  9 23  1  0  0  0  0
 27 10  1  6  0  0  0
 10 32  1  0  0  0  0
 11 37  1  0  0  0  0
 11 39  1  0  0  0  0
 11 40  1  0  0  0  0
 12 38  3  0  0  0  0
 13 14  1  6  0  0  0
 13 15  1  0  0  0  0
 13 17  1  1  0  0  0
 14 16  1  0  0  0  0
 16 18  1  0  0  0  0
 18 21  1  0  0  0  0
 19 20  1  0  0  0  0
 20 22  1  0  0  0  0
 21 25  2  0  0  0  0
 21 26  1  0  0  0  0
 22 24  1  0  0  0  0
 23 27  1  0  0  0  0
 24 30  2  0  0  0  0
 24 31  1  0  0  0  0
 25 28  1  0  0  0  0
 26 29  1  0  0  0  0
 27 33  1  0  0  0  0
 28 29  1  0  0  0  0
 30 35  1  0  0  0  0
 31 36  2  0  0  0  0
 32 37  1  0  0  0  0
 33 38  1  0  0  0  0
 34 35  2  0  0  0  0
 34 36  1  0  0  0  0
 39 41  1  0  0  0  0
 40 42  1  0  0  0  0
M  END
> <PUBCHEM_COMPOUND_ID_TYPE>
0

> <PUBCHEM_TOTAL_CHARGE>
0

> <PUBCHEM_SUBSTANCE_ID>
310940944

> <PUBCHEM_SUBSTANCE_VERSION>
1

> <PUBCHEM_EXT_DATASOURCE_NAME>
4488

> <PUBCHEM_EXT_DATASOURCE_REGID>
SCHEMBL16118903

> <PUBCHEM_SUBSTANCE_COMMENT>
InChI=1S/C31H41N5O7/c1-31(20-43-31)28(38)25(17-21-5-3-4-6-21)34-30(40)26(18-22-7-9-23(41-2)10-8-22)35-29(39)24(11-12-32)33-27(37)19-36-13-15-42-16-14-36/h5,7-10,24-26H,3-4,6,11,13-20H2,1-2H3,(H,33,37)(H,34,40)(H,35,39)/t24-,25-,26-,31+/m0/s1
InChIKey=LHOXZFKCPDJYHD-WJQRCLFPSA-N

> <PUBCHEM_SUBSTANCE_SYNONYM>
SCHEMBL16118903

> <PUBCHEM_XREF_EXT_ID>
SCHEMBL16118903

> <PUBCHEM_EXT_DATASOURCE_URL>
https://www.surechembl.org/

> <PUBCHEM_EXT_SUBSTANCE_URL>
https://www.surechembl.org/chemical/SCHEMBL16118903

> <PUBCHEM_CID_ASSOCIATIONS>
117607852  1

> <PUBCHEM_COORDINATE_TYPE>
1
3

> <PUBCHEM_BONDANNOTATIONS>
27  10  6
13  14  6
13  17  5
16  8  6
20  9  5

$$$$
