310938676
  -OEChem-07211613022D

 25 26  0     0  0  0  0  0  0999 V2000
   -1.2984   -1.0860    0.0000 Cl  0  0  0  0  0  0  0  0  0  0  0  0
    2.9884   -1.0860    0.0000 S   0  0  0  0  0  0  0  0  0  0  0  0
    1.5594   -3.5610    0.0000 O   0  0  0  0  0  0  0  0  0  0  0  0
    3.7029   -4.7985    0.0000 O   0  0  0  0  0  0  0  0  0  0  0  0
    2.2739   -4.7985    0.0000 O   0  0  0  0  0  0  0  0  0  0  0  0
   -3.4419   -2.3235    0.0000 O   0  0  0  0  0  0  0  0  0  0  0  0
    2.2739   -2.3235    0.0000 N   0  0  0  0  0  0  0  0  0  0  0  0
    3.7029   -2.3235    0.0000 N   0  0  0  0  0  0  0  0  0  0  0  0
    2.9884   -3.5610    0.0000 C   0  0  0  0  0  0  0  0  0  0  0  0
    2.2739   -3.1485    0.0000 C   0  0  0  0  0  0  0  0  0  0  0  0
    2.9884   -4.3860    0.0000 C   0  0  0  0  0  0  0  0  0  0  0  0
    2.9884   -1.9110    0.0000 C   0  0  0  0  0  0  0  0  0  0  0  0
    3.7029   -3.1485    0.0000 C   0  0  0  0  0  0  0  0  0  0  0  0
   -0.5840   -3.1485    0.0000 C   0  0  0  0  0  0  0  0  0  0  0  0
   -1.2984   -1.9110    0.0000 C   0  0  0  0  0  0  0  0  0  0  0  0
   -2.0129   -2.3235    0.0000 C   0  0  0  0  0  0  0  0  0  0  0  0
    0.8450   -3.1485    0.0000 C   0  0  0  0  0  0  0  0  0  0  0  0
   -0.5840   -2.3235    0.0000 C   0  0  0  0  0  0  0  0  0  0  0  0
    0.1305   -3.5610    0.0000 C   0  0  0  0  0  0  0  0  0  0  0  0
   -1.2984   -3.5610    0.0000 C   0  0  0  0  0  0  0  0  0  0  0  0
   -2.0129   -3.1485    0.0000 C   0  0  0  0  0  0  0  0  0  0  0  0
   -2.7274   -1.9110    0.0000 C   0  0  0  0  0  0  0  0  0  0  0  0
    4.4173   -4.3860    0.0000 C   0  0  0  0  0  0  0  0  0  0  0  0
    3.7029   -0.6735    0.0000 C   0  0  0  0  0  0  0  0  0  0  0  0
    5.1318   -4.7985    0.0000 C   0  0  0  0  0  0  0  0  0  0  0  0
  1 15  1  0  0  0  0
  2 12  1  0  0  0  0
  2 24  1  0  0  0  0
  3 10  1  0  0  0  0
  3 17  1  0  0  0  0
  4 11  1  0  0  0  0
  4 23  1  0  0  0  0
  5 11  2  0  0  0  0
  6 22  1  0  0  0  0
  7 10  2  0  0  0  0
  7 12  1  0  0  0  0
  8 12  2  0  0  0  0
  8 13  1  0  0  0  0
  9 10  1  0  0  0  0
  9 11  1  0  0  0  0
  9 13  2  0  0  0  0
 14 18  2  0  0  0  0
 14 19  1  0  0  0  0
 14 20  1  0  0  0  0
 15 16  2  0  0  0  0
 15 18  1  0  0  0  0
 16 21  1  0  0  0  0
 16 22  1  0  0  0  0
 17 19  1  0  0  0  0
 20 21  2  0  0  0  0
 23 25  1  0  0  0  0
M  END
> <PUBCHEM_COMPOUND_ID_TYPE>
0

> <PUBCHEM_TOTAL_CHARGE>
0

> <PUBCHEM_SUBSTANCE_ID>
310938676

> <PUBCHEM_SUBSTANCE_VERSION>
1

> <PUBCHEM_EXT_DATASOURCE_NAME>
4488

> <PUBCHEM_EXT_DATASOURCE_REGID>
SCHEMBL16116590

> <PUBCHEM_SUBSTANCE_COMMENT>
InChI=1S/C17H19ClN2O4S/c1-3-23-16(22)13-9-19-17(25-2)20-15(13)24-7-6-11-4-5-12(10-21)14(18)8-11/h4-5,8-9,21H,3,6-7,10H2,1-2H3
InChIKey=OITNFCHPIVVXIL-UHFFFAOYSA-N

> <PUBCHEM_SUBSTANCE_SYNONYM>
SCHEMBL16116590

> <PUBCHEM_XREF_EXT_ID>
SCHEMBL16116590

> <PUBCHEM_EXT_DATASOURCE_URL>
https://www.surechembl.org/

> <PUBCHEM_EXT_SUBSTANCE_URL>
https://www.surechembl.org/chemical/SCHEMBL16116590

> <PUBCHEM_CID_ASSOCIATIONS>
117606108  1

> <PUBCHEM_COORDINATE_TYPE>
1
3

$$$$
