310941325
  -OEChem-07211613022D

 22 22  0     1  0  0  0  0  0999 V2000
    1.8490   -2.2994    0.0000 O   0  0  0  0  0  0  0  0  0  0  0  0
   -1.6261    1.1893    0.0000 O   0  0  0  0  0  0  0  0  0  0  0  0
   -1.5856   -1.2832    0.0000 O   0  0  0  0  0  0  0  0  0  0  0  0
   -2.3557   -0.1685    0.0000 O   0  0  0  0  0  0  0  0  0  0  0  0
    1.3532   -3.1146    0.0000 O   0  0  0  0  0  0  0  0  0  0  0  0
    2.0826    2.3242    0.0000 O   0  0  0  0  0  0  0  0  0  0  0  0
   -0.1670   -0.4928    0.0000 N   0  0  0  0  0  0  0  0  0  0  0  0
   -0.8965   -0.0470    0.0000 C   0  0  3  0  0  0  0  0  0  0  0  0
   -0.8560    0.8245    0.0000 C   0  0  3  0  0  0  0  0  0  0  0  0
   -0.1670    1.1893    0.0000 C   0  0  0  0  0  0  0  0  0  0  0  0
   -1.6261   -0.4928    0.0000 C   0  0  0  0  0  0  0  0  0  0  0  0
    1.3532   -2.5858    0.0000 C   0  0  0  0  0  0  0  0  0  0  0  0
    0.6032    0.7637    0.0000 C   0  0  0  0  0  0  0  0  0  0  0  0
   -0.0859    2.0202    0.0000 C   0  0  0  0  0  0  0  0  0  0  0  0
    1.8600   -1.7486    0.0000 C   0  0  0  0  0  0  0  0  0  0  0  0
    1.3531    1.9797    0.0000 C   0  0  0  0  0  0  0  0  0  0  0  0
    1.2922    1.1083    0.0000 C   0  0  0  0  0  0  0  0  0  0  0  0
    0.6437    2.4053    0.0000 C   0  0  0  0  0  0  0  0  0  0  0  0
    2.3557   -1.7266    0.0000 C   0  0  0  0  0  0  0  0  0  0  0  0
    1.3532   -1.7486    0.0000 C   0  0  0  0  0  0  0  0  0  0  0  0
    1.8490   -1.2089    0.0000 C   0  0  0  0  0  0  0  0  0  0  0  0
    2.1840    3.1146    0.0000 C   0  0  0  0  0  0  0  0  0  0  0  0
  1 12  1  0  0  0  0
  1 15  1  0  0  0  0
  9  2  1  6  0  0  0
  3 11  2  0  0  0  0
  4 11  1  0  0  0  0
  5 12  2  0  0  0  0
  6 16  1  0  0  0  0
  6 22  1  0  0  0  0
  8  7  1  6  0  0  0
  7 12  1  0  0  0  0
  8  9  1  0  0  0  0
  8 11  1  0  0  0  0
  9 10  1  0  0  0  0
 10 13  2  0  0  0  0
 10 14  1  0  0  0  0
 13 17  1  0  0  0  0
 14 18  2  0  0  0  0
 15 19  1  0  0  0  0
 15 20  1  0  0  0  0
 15 21  1  0  0  0  0
 16 17  2  0  0  0  0
 16 18  1  0  0  0  0
M  END
> <PUBCHEM_COMPOUND_ID_TYPE>
0

> <PUBCHEM_TOTAL_CHARGE>
0

> <PUBCHEM_SUBSTANCE_ID>
310941325

> <PUBCHEM_SUBSTANCE_VERSION>
1

> <PUBCHEM_EXT_DATASOURCE_NAME>
4488

> <PUBCHEM_EXT_DATASOURCE_REGID>
SCHEMBL16119285

> <PUBCHEM_SUBSTANCE_COMMENT>
InChI=1S/C15H21NO6/c1-15(2,3)22-14(20)16-11(13(18)19)12(17)9-5-7-10(21-4)8-6-9/h5-8,11-12,17H,1-4H3,(H,16,20)(H,18,19)/t11-,12+/m0/s1
InChIKey=DKLAHKISZYXPOL-NWDGAFQWSA-N

> <PUBCHEM_SUBSTANCE_SYNONYM>
SCHEMBL16119285

> <PUBCHEM_XREF_EXT_ID>
SCHEMBL16119285

> <PUBCHEM_EXT_DATASOURCE_URL>
https://www.surechembl.org/

> <PUBCHEM_EXT_SUBSTANCE_URL>
https://www.surechembl.org/chemical/SCHEMBL16119285

> <PUBCHEM_CID_ASSOCIATIONS>
14110515  1

> <PUBCHEM_COORDINATE_TYPE>
1
3

> <PUBCHEM_BONDANNOTATIONS>
9  2  6
8  7  6

$$$$
