310944147
  -OEChem-07211613022D

 31 35  0     1  0  0  0  0  0999 V2000
    2.5944    0.9812    0.0000 O   0  0  0  0  0  0  0  0  0  0  0  0
    5.4659    0.2162    0.0000 O   0  0  0  0  0  0  0  0  0  0  0  0
    5.5103    1.7019    0.0000 O   0  0  0  0  0  0  0  0  0  0  0  0
    3.3815   -0.2717    0.0000 N   0  0  0  0  0  0  0  0  0  0  0  0
    0.4324   -0.0166    0.0000 N   0  0  0  0  0  0  0  0  0  0  0  0
   -4.1687    0.3160    0.0000 N   0  0  0  0  0  0  0  0  0  0  0  0
   -2.7939    0.7373    0.0000 N   0  0  0  0  0  0  0  0  0  0  0  0
   -1.9846    0.5488    0.0000 N   0  0  0  0  0  0  0  0  0  0  0  0
   -4.4903    1.0810    0.0000 N   0  0  0  0  0  0  0  0  0  0  0  0
   -5.3217    1.0145    0.0000 N   0  0  0  0  0  0  0  0  0  0  0  0
   -5.5103    0.2051    0.0000 N   0  0  0  0  0  0  0  0  0  0  0  0
    2.0400   -0.3714    0.0000 C   0  0  0  0  0  0  0  0  0  0  0  0
    2.6720    0.1386    0.0000 C   0  0  0  0  0  0  0  0  0  0  0  0
    3.1931   -1.0810    0.0000 C   0  0  3  0  0  0  0  0  0  0  0  0
    2.3727   -1.1475    0.0000 C   0  0  0  0  0  0  0  0  0  0  0  0
    4.1355    0.0610    0.0000 C   0  0  0  0  0  0  0  0  0  0  0  0
    1.4857   -0.9812    0.0000 C   0  0  0  0  0  0  0  0  0  0  0  0
    1.8072    0.4047    0.0000 C   0  0  0  0  0  0  0  0  0  0  0  0
    0.6653   -0.7927    0.0000 C   0  0  0  0  0  0  0  0  0  0  0  0
    0.9867    0.5931    0.0000 C   0  0  0  0  0  0  0  0  0  0  0  0
    4.3017    0.8814    0.0000 C   0  0  0  0  0  0  0  0  0  0  0  0
    4.8783   -0.3382    0.0000 C   0  0  0  0  0  0  0  0  0  0  0  0
    3.7363   -1.7019    0.0000 C   0  0  0  0  0  0  0  0  0  0  0  0
    5.1000    0.9590    0.0000 C   0  0  0  0  0  0  0  0  0  0  0  0
   -0.3770    0.1829    0.0000 C   0  0  0  0  0  0  0  0  0  0  0  0
   -3.3704    0.1386    0.0000 C   0  0  0  0  0  0  0  0  0  0  0  0
   -1.7518   -0.2273    0.0000 C   0  0  0  0  0  0  0  0  0  0  0  0
   -0.9313   -0.4157    0.0000 C   0  0  0  0  0  0  0  0  0  0  0  0
   -3.1265   -0.6486    0.0000 C   0  0  0  0  0  0  0  0  0  0  0  0
   -2.3061   -0.8371    0.0000 C   0  0  0  0  0  0  0  0  0  0  0  0
   -4.7896   -0.2162    0.0000 C   0  0  0  0  0  0  0  0  0  0  0  0
  1 13  2  0  0  0  0
  2 22  1  0  0  0  0
  2 24  1  0  0  0  0
  3 24  2  0  0  0  0
  4 13  1  0  0  0  0
  4 14  1  0  0  0  0
  4 16  1  0  0  0  0
  5 19  1  0  0  0  0
  5 20  1  0  0  0  0
  5 25  1  0  0  0  0
  6  9  1  0  0  0  0
  6 26  1  0  0  0  0
  6 31  1  0  0  0  0
  7  8  1  0  0  0  0
  7 26  2  0  0  0  0
  8 27  2  0  0  0  0
  9 10  2  0  0  0  0
 10 11  1  0  0  0  0
 11 31  2  0  0  0  0
 12 13  1  0  0  0  0
 12 15  1  0  0  0  0
 12 17  1  0  0  0  0
 12 18  1  0  0  0  0
 14 15  1  0  0  0  0
 14 23  1  1  0  0  0
 16 21  2  0  0  0  0
 16 22  1  0  0  0  0
 17 19  1  0  0  0  0
 18 20  1  0  0  0  0
 21 24  1  0  0  0  0
 25 28  1  0  0  0  0
 26 29  1  0  0  0  0
 27 28  1  0  0  0  0
 27 30  1  0  0  0  0
 29 30  2  0  0  0  0
M  END
> <PUBCHEM_COMPOUND_ID_TYPE>
0

> <PUBCHEM_TOTAL_CHARGE>
0

> <PUBCHEM_SUBSTANCE_ID>
310944147

> <PUBCHEM_SUBSTANCE_VERSION>
1

> <PUBCHEM_EXT_DATASOURCE_NAME>
4488

> <PUBCHEM_EXT_DATASOURCE_REGID>
SCHEMBL16122222

> <PUBCHEM_SUBSTANCE_COMMENT>
InChI=1S/C20H24N8O3/c1-14-11-20(19(30)28(14)16-10-18(29)31-12-16)5-8-26(9-6-20)7-4-15-2-3-17(23-22-15)27-13-21-24-25-27/h2-3,10,13-14H,4-9,11-12H2,1H3/t14-/m0/s1
InChIKey=HBWMGIXZEIFPIN-AWEZNQCLSA-N

> <PUBCHEM_SUBSTANCE_SYNONYM>
SCHEMBL16122222

> <PUBCHEM_XREF_EXT_ID>
SCHEMBL16122222

> <PUBCHEM_EXT_DATASOURCE_URL>
https://www.surechembl.org/

> <PUBCHEM_EXT_SUBSTANCE_URL>
https://www.surechembl.org/chemical/SCHEMBL16122222

> <PUBCHEM_CID_ASSOCIATIONS>
117610428  1

> <PUBCHEM_COORDINATE_TYPE>
1
3

> <PUBCHEM_BONDANNOTATIONS>
14  23  5

$$$$
