310946993
  -OEChem-07211613022D

 13 13  0     0  0  0  0  0  0999 V2000
   -0.3674   -2.0131    0.0000 Br  0  0  0  0  0  0  0  0  0  0  0  0
   -0.2363    0.6328    0.0000 S   0  0  0  0  0  0  0  0  0  0  0  0
    0.3470    1.2162    0.0000 O   0  0  0  0  0  0  0  0  0  0  0  0
   -0.8197    0.0494    0.0000 O   0  0  0  0  0  0  0  0  0  0  0  0
    0.3470    0.0494    0.0000 N   0  0  0  0  0  0  0  0  0  0  0  0
   -0.8197    1.2162    0.0000 N   0  0  0  0  0  0  0  0  0  0  0  0
    1.1317   -1.0305    0.0000 N   0  0  0  0  0  0  0  0  0  0  0  0
    0.3470   -0.7756    0.0000 C   0  0  0  0  0  0  0  0  0  0  0  0
    1.1317    0.3044    0.0000 C   0  0  0  0  0  0  0  0  0  0  0  0
    1.6166   -0.3631    0.0000 C   0  0  0  0  0  0  0  0  0  0  0  0
   -0.3674   -1.1881    0.0000 C   0  0  0  0  0  0  0  0  0  0  0  0
   -0.6062    2.0131    0.0000 C   0  0  0  0  0  0  0  0  0  0  0  0
   -1.6166    1.0026    0.0000 C   0  0  0  0  0  0  0  0  0  0  0  0
  1 11  1  0  0  0  0
  2  3  2  0  0  0  0
  2  4  2  0  0  0  0
  2  5  1  0  0  0  0
  2  6  1  0  0  0  0
  5  8  1  0  0  0  0
  5  9  1  0  0  0  0
  6 12  1  0  0  0  0
  6 13  1  0  0  0  0
  7  8  2  0  0  0  0
  7 10  1  0  0  0  0
  8 11  1  0  0  0  0
  9 10  2  0  0  0  0
M  END
> <PUBCHEM_COMPOUND_ID_TYPE>
0

> <PUBCHEM_TOTAL_CHARGE>
0

> <PUBCHEM_SUBSTANCE_ID>
310946993

> <PUBCHEM_SUBSTANCE_VERSION>
1

> <PUBCHEM_EXT_DATASOURCE_NAME>
4488

> <PUBCHEM_EXT_DATASOURCE_REGID>
SCHEMBL16125136

> <PUBCHEM_SUBSTANCE_COMMENT>
InChI=1S/C6H10BrN3O2S/c1-9(2)13(11,12)10-4-3-8-6(10)5-7/h3-4H,5H2,1-2H3
InChIKey=BYHVIVAZIKMJAT-UHFFFAOYSA-N

> <PUBCHEM_SUBSTANCE_SYNONYM>
SCHEMBL16125136

> <PUBCHEM_XREF_EXT_ID>
SCHEMBL16125136

> <PUBCHEM_EXT_DATASOURCE_URL>
https://www.surechembl.org/

> <PUBCHEM_EXT_SUBSTANCE_URL>
https://www.surechembl.org/chemical/SCHEMBL16125136

> <PUBCHEM_CID_ASSOCIATIONS>
117612846  1

> <PUBCHEM_COORDINATE_TYPE>
1
3

$$$$
