310936208
  -OEChem-07211613022D

 26 28  0     0  0  0  0  0  0999 V2000
    0.0000    0.0000    0.0000 F   0  0  0  0  0  0  0  0  0  0  0  0
    1.3500   -3.6375    0.0000 O   0  0  0  0  0  0  0  0  0  0  0  0
    3.8624   -2.5125    0.0000 O   0  0  0  0  0  0  0  0  0  0  0  0
    4.1249   -5.3999    0.0000 O   0  0  0  0  0  0  0  0  0  0  0  0
    4.0875   -6.2624    0.0000 O   0  0  0  0  0  0  0  0  0  0  0  0
    3.3749   -7.4999    0.0000 O   0  0  0  0  0  0  0  0  0  0  0  0
    2.8125   -1.5750    0.0000 N   0  0  0  0  0  0  0  0  0  0  0  0
    2.5125   -2.9625    0.0000 C   0  0  0  0  0  0  0  0  0  0  0  0
    2.7000   -3.7499    0.0000 C   0  0  0  0  0  0  0  0  0  0  0  0
    1.6875   -2.8499    0.0000 C   0  0  0  0  0  0  0  0  0  0  0  0
    1.9500   -4.1999    0.0000 C   0  0  0  0  0  0  0  0  0  0  0  0
    1.2375   -2.1375    0.0000 C   0  0  0  0  0  0  0  0  0  0  0  0
    3.4124   -4.1999    0.0000 C   0  0  0  0  0  0  0  0  0  0  0  0
    3.0374   -2.3250    0.0000 C   0  0  0  0  0  0  0  0  0  0  0  0
    1.9500   -5.0249    0.0000 C   0  0  0  0  0  0  0  0  0  0  0  0
    2.6624   -5.4374    0.0000 C   0  0  0  0  0  0  0  0  0  0  0  0
    3.4124   -4.9874    0.0000 C   0  0  0  0  0  0  0  0  0  0  0  0
    0.4125   -2.1375    0.0000 C   0  0  0  0  0  0  0  0  0  0  0  0
    1.6500   -1.4250    0.0000 C   0  0  0  0  0  0  0  0  0  0  0  0
    2.6624   -6.2624    0.0000 C   0  0  0  0  0  0  0  0  0  0  0  0
    0.0000   -1.4250    0.0000 C   0  0  0  0  0  0  0  0  0  0  0  0
    1.2375   -0.7125    0.0000 C   0  0  0  0  0  0  0  0  0  0  0  0
    0.4125   -0.7125    0.0000 C   0  0  0  0  0  0  0  0  0  0  0  0
    3.3749   -6.6749    0.0000 C   0  0  0  0  0  0  0  0  0  0  0  0
    3.3375   -0.9375    0.0000 C   0  0  0  0  0  0  0  0  0  0  0  0
    4.7999   -6.6749    0.0000 C   0  0  0  0  0  0  0  0  0  0  0  0
  1 23  1  0  0  0  0
  2 10  1  0  0  0  0
  2 11  1  0  0  0  0
  3 14  2  0  0  0  0
  4 17  1  0  0  0  0
  5 24  1  0  0  0  0
  5 26  1  0  0  0  0
  6 24  2  0  0  0  0
  7 14  1  0  0  0  0
  7 25  1  0  0  0  0
  8  9  1  0  0  0  0
  8 10  2  0  0  0  0
  8 14  1  0  0  0  0
  9 11  2  0  0  0  0
  9 13  1  0  0  0  0
 10 12  1  0  0  0  0
 11 15  1  0  0  0  0
 12 18  2  0  0  0  0
 12 19  1  0  0  0  0
 13 17  2  0  0  0  0
 15 16  2  0  0  0  0
 16 17  1  0  0  0  0
 16 20  1  0  0  0  0
 18 21  1  0  0  0  0
 19 22  2  0  0  0  0
 20 24  1  0  0  0  0
 21 23  2  0  0  0  0
 22 23  1  0  0  0  0
M  END
> <PUBCHEM_COMPOUND_ID_TYPE>
0

> <PUBCHEM_TOTAL_CHARGE>
0

> <PUBCHEM_SUBSTANCE_ID>
310936208

> <PUBCHEM_SUBSTANCE_VERSION>
1

> <PUBCHEM_EXT_DATASOURCE_NAME>
4488

> <PUBCHEM_EXT_DATASOURCE_REGID>
SCHEMBL16113820

> <PUBCHEM_SUBSTANCE_COMMENT>
InChI=1S/C19H16FNO5/c1-21-19(24)17-13-9-14(22)11(8-16(23)25-2)7-15(13)26-18(17)10-3-5-12(20)6-4-10/h3-7,9,22H,8H2,1-2H3,(H,21,24)
InChIKey=GJNKHJROOMNULE-UHFFFAOYSA-N

> <PUBCHEM_SUBSTANCE_SYNONYM>
SCHEMBL16113820

> <PUBCHEM_XREF_EXT_ID>
SCHEMBL16113820

> <PUBCHEM_EXT_DATASOURCE_URL>
https://www.surechembl.org/

> <PUBCHEM_EXT_SUBSTANCE_URL>
https://www.surechembl.org/chemical/SCHEMBL16113820

> <PUBCHEM_CID_ASSOCIATIONS>
117604161  1

> <PUBCHEM_COORDINATE_TYPE>
1
3

$$$$
