310931676
  -OEChem-07211613022D

 32 35  0     0  0  0  0  0  0999 V2000
    2.8183   -2.1043    0.0000 O   0  0  0  0  0  0  0  0  0  0  0  0
    0.1127   -2.3674    0.0000 O   0  0  0  0  0  0  0  0  0  0  0  0
    7.2900   -2.2171    0.0000 O   0  0  0  0  0  0  0  0  0  0  0  0
    3.7202   -0.9770    0.0000 N   0  0  0  0  0  0  0  0  0  0  0  0
    3.6450   -0.1503    0.0000 N   0  0  0  0  0  0  0  0  0  0  0  0
    5.1481   -0.9770    0.0000 N   0  0  0  0  0  0  0  0  0  0  0  0
    0.0000   -0.9770    0.0000 N   0  0  0  0  0  0  0  0  0  0  0  0
    6.5761   -3.4195    0.0000 N   0  0  0  0  0  0  0  0  0  0  0  0
    8.0040   -5.8997    0.0000 N   0  0  0  0  0  0  0  0  0  0  0  0
    2.4049   -0.7140    0.0000 C   0  0  0  0  0  0  0  0  0  0  0  0
    2.9686   -1.3152    0.0000 C   0  0  0  0  0  0  0  0  0  0  0  0
    4.4341   -1.3904    0.0000 C   0  0  0  0  0  0  0  0  0  0  0  0
    1.6158   -0.7891    0.0000 C   0  0  0  0  0  0  0  0  0  0  0  0
    2.8183    0.0000    0.0000 C   0  0  0  0  0  0  0  0  0  0  0  0
    4.4341   -2.2171    0.0000 C   0  0  0  0  0  0  0  0  0  0  0  0
    1.2776   -1.5782    0.0000 C   0  0  0  0  0  0  0  0  0  0  0  0
    1.1273   -0.1503    0.0000 C   0  0  0  0  0  0  0  0  0  0  0  0
    5.8621   -2.2171    0.0000 C   0  0  0  0  0  0  0  0  0  0  0  0
    0.4510   -1.6158    0.0000 C   0  0  0  0  0  0  0  0  0  0  0  0
    5.8621   -1.3904    0.0000 C   0  0  0  0  0  0  0  0  0  0  0  0
    5.1481   -2.5928    0.0000 C   0  0  0  0  0  0  0  0  0  0  0  0
    6.5761   -2.5928    0.0000 C   0  0  0  0  0  0  0  0  0  0  0  0
    0.3006   -0.2255    0.0000 C   0  0  0  0  0  0  0  0  0  0  0  0
    7.2900   -3.8329    0.0000 C   0  0  0  0  0  0  0  0  0  0  0  0
    0.6012   -3.0438    0.0000 C   0  0  0  0  0  0  0  0  0  0  0  0
    7.2900   -4.6596    0.0000 C   0  0  0  0  0  0  0  0  0  0  0  0
    8.0040   -5.0730    0.0000 C   0  0  0  0  0  0  0  0  0  0  0  0
    8.7180   -6.2754    0.0000 C   0  0  0  0  0  0  0  0  0  0  0  0
    7.2900   -6.3130    0.0000 C   0  0  0  0  0  0  0  0  0  0  0  0
    8.7180   -7.1022    0.0000 C   0  0  0  0  0  0  0  0  0  0  0  0
    7.2900   -7.1022    0.0000 C   0  0  0  0  0  0  0  0  0  0  0  0
    8.0040   -7.5155    0.0000 C   0  0  0  0  0  0  0  0  0  0  0  0
  1 11  1  0  0  0  0
  2 19  1  0  0  0  0
  2 25  1  0  0  0  0
  3 22  2  0  0  0  0
  4  5  1  0  0  0  0
  4 11  1  0  0  0  0
  4 12  1  0  0  0  0
  5 14  2  0  0  0  0
  6 12  2  0  0  0  0
  6 20  1  0  0  0  0
  7 19  1  0  0  0  0
  7 23  2  0  0  0  0
  8 22  1  0  0  0  0
  8 24  1  0  0  0  0
  9 27  1  0  0  0  0
  9 28  1  0  0  0  0
  9 29  1  0  0  0  0
 10 11  2  0  0  0  0
 10 13  1  0  0  0  0
 10 14  1  0  0  0  0
 12 15  1  0  0  0  0
 13 16  1  0  0  0  0
 13 17  2  0  0  0  0
 15 21  2  0  0  0  0
 16 19  2  0  0  0  0
 17 23  1  0  0  0  0
 18 20  2  0  0  0  0
 18 21  1  0  0  0  0
 18 22  1  0  0  0  0
 24 26  1  0  0  0  0
 26 27  1  0  0  0  0
 28 30  1  0  0  0  0
 29 31  1  0  0  0  0
 30 32  1  0  0  0  0
 31 32  1  0  0  0  0
M  END
> <PUBCHEM_COMPOUND_ID_TYPE>
0

> <PUBCHEM_TOTAL_CHARGE>
0

> <PUBCHEM_SUBSTANCE_ID>
310931676

> <PUBCHEM_SUBSTANCE_VERSION>
1

> <PUBCHEM_EXT_DATASOURCE_NAME>
4488

> <PUBCHEM_EXT_DATASOURCE_REGID>
SCHEMBL16109002

> <PUBCHEM_SUBSTANCE_COMMENT>
InChI=1S/C23H28N6O3/c1-32-21-14-17(8-10-24-21)19-16-27-29(23(19)31)20-7-6-18(15-26-20)22(30)25-9-5-13-28-11-3-2-4-12-28/h6-8,10,14-16,31H,2-5,9,11-13H2,1H3,(H,25,30)
InChIKey=OPKUSABQQFDARD-UHFFFAOYSA-N

> <PUBCHEM_SUBSTANCE_SYNONYM>
SCHEMBL16109002

> <PUBCHEM_XREF_EXT_ID>
SCHEMBL16109002

> <PUBCHEM_EXT_DATASOURCE_URL>
https://www.surechembl.org/

> <PUBCHEM_EXT_SUBSTANCE_URL>
https://www.surechembl.org/chemical/SCHEMBL16109002

> <PUBCHEM_CID_ASSOCIATIONS>
117600383  1

> <PUBCHEM_COORDINATE_TYPE>
1
3

$$$$
