310937243
  -OEChem-07211613022D

 17 18  0     0  0  0  0  0  0999 V2000
    0.0000   -2.4978    0.0000 Cl  0  0  0  0  0  0  0  0  0  0  0  0
    3.5712   -2.8900    0.0000 O   0  0  0  0  0  0  0  0  0  0  0  0
    2.8488   -1.6721    0.0000 O   0  0  0  0  0  0  0  0  0  0  0  0
    2.1469   -1.2386    0.0000 N   0  0  0  0  0  0  0  0  0  0  0  0
    0.7225   -1.2386    0.0000 N   0  0  0  0  0  0  0  0  0  0  0  0
    1.4244   -2.4978    0.0000 C   0  0  0  0  0  0  0  0  0  0  0  0
    2.1469   -2.8900    0.0000 C   0  0  0  0  0  0  0  0  0  0  0  0
    1.4244   -1.6721    0.0000 C   0  0  0  0  0  0  0  0  0  0  0  0
    0.7225   -2.8900    0.0000 C   0  0  0  0  0  0  0  0  0  0  0  0
    2.8488   -2.4978    0.0000 C   0  0  0  0  0  0  0  0  0  0  0  0
    2.1469   -3.7158    0.0000 C   0  0  0  0  0  0  0  0  0  0  0  0
    0.7225   -3.7158    0.0000 C   0  0  0  0  0  0  0  0  0  0  0  0
    1.4244   -4.1286    0.0000 C   0  0  0  0  0  0  0  0  0  0  0  0
    2.1469   -0.4335    0.0000 C   0  0  0  0  0  0  0  0  0  0  0  0
    0.7225   -0.4335    0.0000 C   0  0  0  0  0  0  0  0  0  0  0  0
    1.4244    0.0000    0.0000 C   0  0  0  0  0  0  0  0  0  0  0  0
    3.5712   -3.7158    0.0000 C   0  0  0  0  0  0  0  0  0  0  0  0
  1  9  1  0  0  0  0
  2 10  1  0  0  0  0
  2 17  1  0  0  0  0
  3 10  2  0  0  0  0
  4  8  2  0  0  0  0
  4 14  1  0  0  0  0
  5  8  1  0  0  0  0
  5 15  2  0  0  0  0
  6  7  2  0  0  0  0
  6  8  1  0  0  0  0
  6  9  1  0  0  0  0
  7 10  1  0  0  0  0
  7 11  1  0  0  0  0
  9 12  2  0  0  0  0
 11 13  2  0  0  0  0
 12 13  1  0  0  0  0
 14 16  2  0  0  0  0
 15 16  1  0  0  0  0
M  END
> <PUBCHEM_COMPOUND_ID_TYPE>
0

> <PUBCHEM_TOTAL_CHARGE>
0

> <PUBCHEM_SUBSTANCE_ID>
310937243

> <PUBCHEM_SUBSTANCE_VERSION>
1

> <PUBCHEM_EXT_DATASOURCE_NAME>
4488

> <PUBCHEM_EXT_DATASOURCE_REGID>
SCHEMBL16114981

> <PUBCHEM_SUBSTANCE_COMMENT>
InChI=1S/C12H9ClN2O2/c1-17-12(16)8-4-2-5-9(13)10(8)11-14-6-3-7-15-11/h2-7H,1H3
InChIKey=AGPQDOVZXPXZQX-UHFFFAOYSA-N

> <PUBCHEM_SUBSTANCE_SYNONYM>
SCHEMBL16114981

> <PUBCHEM_XREF_EXT_ID>
SCHEMBL16114981

> <PUBCHEM_EXT_DATASOURCE_URL>
https://www.surechembl.org/

> <PUBCHEM_EXT_SUBSTANCE_URL>
https://www.surechembl.org/chemical/SCHEMBL16114981

> <PUBCHEM_CID_ASSOCIATIONS>
117605043  1

> <PUBCHEM_COORDINATE_TYPE>
1
3

$$$$
