310931589
  -OEChem-07211613022D

 39 44  0     1  0  0  0  0  0999 V2000
    1.3062   -1.3062    0.0000 F   0  0  0  0  0  0  0  0  0  0  0  0
    1.5812   -6.2562    0.0000 F   0  0  0  0  0  0  0  0  0  0  0  0
    2.9562   -1.3406    0.0000 O   0  0  0  0  0  0  0  0  0  0  0  0
    4.5718   -4.2624    0.0000 O   0  0  0  0  0  0  0  0  0  0  0  0
    6.2218    0.0000    0.0000 O   0  0  0  0  0  0  0  0  0  0  0  0
    9.9342   -0.7218    0.0000 O   0  0  0  0  0  0  0  0  0  0  0  0
    3.3687   -3.5062    0.0000 N   0  0  0  0  0  0  0  0  0  0  0  0
    6.2218   -1.4093    0.0000 N   0  0  0  0  0  0  0  0  0  0  0  0
    3.2999   -4.9156    0.0000 N   0  0  0  0  0  0  0  0  0  0  0  0
    0.4125   -5.4999    0.0000 N   0  0  0  0  0  0  0  0  0  0  0  0
    7.8717   -1.4093    0.0000 N   0  0  0  0  0  0  0  0  0  0  0  0
    8.6624    0.0000    0.0000 N   0  0  0  0  0  0  0  0  0  0  0  0
    3.7468   -2.7843    0.0000 C   0  0  3  0  0  0  0  0  0  0  0  0
    2.9218   -2.7843    0.0000 C   0  0  0  0  0  0  0  0  0  0  0  0
    4.1937   -2.0625    0.0000 C   0  0  0  0  0  0  0  0  0  0  0  0
    2.5437   -2.0625    0.0000 C   0  0  0  0  0  0  0  0  0  0  0  0
    3.8156   -1.3750    0.0000 C   0  0  0  0  0  0  0  0  0  0  0  0
    4.5718   -2.8187    0.0000 C   0  0  0  0  0  0  0  0  0  0  0  0
    2.5093   -3.4718    0.0000 C   0  0  0  0  0  0  0  0  0  0  0  0
    1.7187   -2.0281    0.0000 C   0  0  0  0  0  0  0  0  0  0  0  0
    5.0187   -2.0968    0.0000 C   0  0  0  0  0  0  0  0  0  0  0  0
    1.7187   -3.4375    0.0000 C   0  0  0  0  0  0  0  0  0  0  0  0
    4.2281   -0.6531    0.0000 C   0  0  0  0  0  0  0  0  0  0  0  0
    3.7468   -4.1937    0.0000 C   0  0  0  0  0  0  0  0  0  0  0  0
    1.3062   -2.7156    0.0000 C   0  0  0  0  0  0  0  0  0  0  0  0
    5.3968   -1.4093    0.0000 C   0  0  0  0  0  0  0  0  0  0  0  0
    4.9843   -3.5406    0.0000 C   0  0  0  0  0  0  0  0  0  0  0  0
    1.2719   -4.1250    0.0000 C   0  0  0  0  0  0  0  0  0  0  0  0
    5.0187   -0.6875    0.0000 C   0  0  0  0  0  0  0  0  0  0  0  0
    1.6844   -4.8468    0.0000 C   0  0  0  0  0  0  0  0  0  0  0  0
    0.4813   -4.0906    0.0000 C   0  0  0  0  0  0  0  0  0  0  0  0
    6.6343   -0.7218    0.0000 C   0  0  0  0  0  0  0  0  0  0  0  0
    1.2031   -5.5343    0.0000 C   0  0  0  0  0  0  0  0  0  0  0  0
    7.4249   -0.7218    0.0000 C   0  0  0  0  0  0  0  0  0  0  0  0
    0.0000   -4.7780    0.0000 C   0  0  0  0  0  0  0  0  0  0  0  0
    7.8717    0.0000    0.0000 C   0  0  0  0  0  0  0  0  0  0  0  0
    9.1093   -0.7218    0.0000 C   0  0  0  0  0  0  0  0  0  0  0  0
    8.6624   -1.4093    0.0000 C   0  0  0  0  0  0  0  0  0  0  0  0
   10.3124    0.0000    0.0000 C   0  0  0  0  0  0  0  0  0  0  0  0
  1 20  1  0  0  0  0
  2 33  1  0  0  0  0
  3 16  1  0  0  0  0
  3 17  1  0  0  0  0
  4 24  1  0  0  0  0
  4 27  1  0  0  0  0
  5 32  2  0  0  0  0
  6 37  1  0  0  0  0
  6 39  1  0  0  0  0
 13  7  1  6  0  0  0
  7 24  2  0  0  0  0
  8 26  1  0  0  0  0
  8 32  1  0  0  0  0
  9 24  1  0  0  0  0
 10 33  1  0  0  0  0
 10 35  2  0  0  0  0
 11 34  2  0  0  0  0
 11 38  1  0  0  0  0
 12 36  2  0  0  0  0
 12 37  1  0  0  0  0
 13 14  1  0  0  0  0
 13 15  1  0  0  0  0
 13 18  1  0  0  0  0
 14 16  2  0  0  0  0
 14 19  1  0  0  0  0
 15 17  2  0  0  0  0
 15 21  1  0  0  0  0
 16 20  1  0  0  0  0
 17 23  1  0  0  0  0
 18 27  1  0  0  0  0
 19 22  2  0  0  0  0
 20 25  2  0  0  0  0
 21 26  2  0  0  0  0
 22 25  1  0  0  0  0
 22 28  1  0  0  0  0
 23 29  2  0  0  0  0
 26 29  1  0  0  0  0
 28 30  1  0  0  0  0
 28 31  2  0  0  0  0
 30 33  2  0  0  0  0
 31 35  1  0  0  0  0
 32 34  1  0  0  0  0
 34 36  1  0  0  0  0
 37 38  2  0  0  0  0
M  END
> <PUBCHEM_COMPOUND_ID_TYPE>
0

> <PUBCHEM_TOTAL_CHARGE>
0

> <PUBCHEM_SUBSTANCE_ID>
310931589

> <PUBCHEM_SUBSTANCE_VERSION>
1

> <PUBCHEM_EXT_DATASOURCE_NAME>
4488

> <PUBCHEM_EXT_DATASOURCE_REGID>
SCHEMBL16108915

> <PUBCHEM_SUBSTANCE_COMMENT>
InChI=1S/C27H20F2N6O4/c1-37-23-13-32-20(12-33-23)25(36)34-16-2-3-21-17(11-16)27(5-7-38-26(30)35-27)18-8-15(9-19(28)24(18)39-21)14-4-6-31-22(29)10-14/h2-4,6,8-13H,5,7H2,1H3,(H2,30,35)(H,34,36)/t27-/m0/s1
InChIKey=ATQYSHBAXFRAKD-MHZLTWQESA-N

> <PUBCHEM_SUBSTANCE_SYNONYM>
SCHEMBL16108915

> <PUBCHEM_XREF_EXT_ID>
SCHEMBL16108915

> <PUBCHEM_EXT_DATASOURCE_URL>
https://www.surechembl.org/

> <PUBCHEM_EXT_SUBSTANCE_URL>
https://www.surechembl.org/chemical/SCHEMBL16108915

> <PUBCHEM_CID_ASSOCIATIONS>
117600324  1

> <PUBCHEM_COORDINATE_TYPE>
1
3

> <PUBCHEM_BONDANNOTATIONS>
13  7  6

$$$$
