310948726
  -OEChem-07211613022D

 27 30  0     0  0  0  0  0  0999 V2000
   -2.7756   -1.9225    0.0000 O   0  0  0  0  0  0  0  0  0  0  0  0
   -4.2097    0.5502    0.0000 O   0  0  0  0  0  0  0  0  0  0  0  0
    1.5268    0.5502    0.0000 N   0  0  0  0  0  0  0  0  0  0  0  0
    0.0927    0.5502    0.0000 N   0  0  0  0  0  0  0  0  0  0  0  0
    1.5268   -1.1065    0.0000 N   0  0  0  0  0  0  0  0  0  0  0  0
   -1.3414    0.5502    0.0000 N   0  0  0  0  0  0  0  0  0  0  0  0
    3.7399    1.6258    0.0000 N   0  0  0  0  0  0  0  0  0  0  0  0
    0.7974    0.1422    0.0000 C   0  0  0  0  0  0  0  0  0  0  0  0
    0.7974   -0.6862    0.0000 C   0  0  0  0  0  0  0  0  0  0  0  0
    2.2316    0.1422    0.0000 C   0  0  0  0  0  0  0  0  0  0  0  0
   -0.6243    0.1422    0.0000 C   0  0  0  0  0  0  0  0  0  0  0  0
    2.9363    0.5502    0.0000 C   0  0  0  0  0  0  0  0  0  0  0  0
    2.2316   -0.6986    0.0000 C   0  0  0  0  0  0  0  0  0  0  0  0
    0.1051   -1.0942    0.0000 C   0  0  0  0  0  0  0  0  0  0  0  0
   -2.0585    0.1422    0.0000 C   0  0  0  0  0  0  0  0  0  0  0  0
   -0.6243   -0.6862    0.0000 C   0  0  0  0  0  0  0  0  0  0  0  0
    2.9610    1.3785    0.0000 C   0  0  0  0  0  0  0  0  0  0  0  0
    3.7276    0.2906    0.0000 C   0  0  0  0  0  0  0  0  0  0  0  0
   -2.7632    0.5378    0.0000 C   0  0  0  0  0  0  0  0  0  0  0  0
   -2.0585   -0.6862    0.0000 C   0  0  0  0  0  0  0  0  0  0  0  0
   -2.7632   -1.0818    0.0000 C   0  0  0  0  0  0  0  0  0  0  0  0
   -3.4802    0.1298    0.0000 C   0  0  0  0  0  0  0  0  0  0  0  0
    4.2097    0.9706    0.0000 C   0  0  0  0  0  0  0  0  0  0  0  0
   -3.4679   -0.6862    0.0000 C   0  0  0  0  0  0  0  0  0  0  0  0
    4.1355    2.3305    0.0000 C   0  0  0  0  0  0  0  0  0  0  0  0
   -2.0585   -2.3305    0.0000 C   0  0  0  0  0  0  0  0  0  0  0  0
   -4.1973    1.3662    0.0000 C   0  0  0  0  0  0  0  0  0  0  0  0
  1 21  1  0  0  0  0
  1 26  1  0  0  0  0
  2 22  1  0  0  0  0
  2 27  1  0  0  0  0
  3  8  1  0  0  0  0
  3 10  2  0  0  0  0
  4  8  1  0  0  0  0
  4 11  2  0  0  0  0
  5  9  1  0  0  0  0
  5 13  2  0  0  0  0
  6 11  1  0  0  0  0
  6 15  1  0  0  0  0
  7 17  1  0  0  0  0
  7 23  1  0  0  0  0
  7 25  1  0  0  0  0
  8  9  2  0  0  0  0
  9 14  1  0  0  0  0
 10 12  1  0  0  0  0
 10 13  1  0  0  0  0
 11 16  1  0  0  0  0
 12 17  2  0  0  0  0
 12 18  1  0  0  0  0
 14 16  2  0  0  0  0
 15 19  2  0  0  0  0
 15 20  1  0  0  0  0
 18 23  2  0  0  0  0
 19 22  1  0  0  0  0
 20 21  2  0  0  0  0
 21 24  1  0  0  0  0
 22 24  2  0  0  0  0
M  END
> <PUBCHEM_COMPOUND_ID_TYPE>
0

> <PUBCHEM_TOTAL_CHARGE>
0

> <PUBCHEM_SUBSTANCE_ID>
310948726

> <PUBCHEM_SUBSTANCE_VERSION>
1

> <PUBCHEM_EXT_DATASOURCE_NAME>
4488

> <PUBCHEM_EXT_DATASOURCE_REGID>
SCHEMBL16126910

> <PUBCHEM_SUBSTANCE_COMMENT>
InChI=1S/C20H19N5O2/c1-25-7-6-13(12-25)18-11-21-17-4-5-19(24-20(17)23-18)22-14-8-15(26-2)10-16(9-14)27-3/h4-12H,1-3H3,(H,22,23,24)
InChIKey=UFTZCGAACVOBHY-UHFFFAOYSA-N

> <PUBCHEM_SUBSTANCE_SYNONYM>
SCHEMBL16126910

> <PUBCHEM_XREF_EXT_ID>
SCHEMBL16126910

> <PUBCHEM_EXT_DATASOURCE_URL>
https://www.surechembl.org/

> <PUBCHEM_EXT_SUBSTANCE_URL>
https://www.surechembl.org/chemical/SCHEMBL16126910

> <PUBCHEM_CID_ASSOCIATIONS>
117614267  1

> <PUBCHEM_COORDINATE_TYPE>
1
3

$$$$
