310929075
  -OEChem-07211613022D

 57 62  0     0  0  0  0  0  0999 V2000
    0.8013   -9.2950    0.0000 O   0  0  0  0  0  0  0  0  0  0  0  0
    3.6860  -11.7790    0.0000 O   0  0  0  0  0  0  0  0  0  0  0  0
    5.1283  -11.7790    0.0000 O   0  0  0  0  0  0  0  0  0  0  0  0
    1.4423  -13.9425    0.0000 O   0  0  0  0  0  0  0  0  0  0  0  0
    4.6475   -3.9263    0.0000 O   0  0  0  0  0  0  0  0  0  0  0  0
    2.5642    0.0000    0.0000 O   0  0  0  0  0  0  0  0  0  0  0  0
    2.1635  -12.6605    0.0000 N   0  0  0  0  0  0  0  0  0  0  0  0
    0.7212  -12.6605    0.0000 N   0  0  0  0  0  0  0  0  0  0  0  0
    5.8494  -13.0611    0.0000 N   0  0  0  0  0  0  0  0  0  0  0  0
    2.3237   -6.7309    0.0000 N   0  0  0  0  0  0  0  0  0  0  0  0
    2.9648   -8.0931    0.0000 N   0  0  0  0  0  0  0  0  0  0  0  0
    3.1251   -3.8462    0.0000 N   0  0  0  0  0  0  0  0  0  0  0  0
    2.4840   -1.6827    0.0000 N   0  0  0  0  0  0  0  0  0  0  0  0
    3.6860  -12.6605    0.0000 C   0  0  0  0  0  0  0  0  0  0  0  0
    2.9648  -13.0611    0.0000 C   0  0  0  0  0  0  0  0  0  0  0  0
    4.4071  -13.0611    0.0000 C   0  0  0  0  0  0  0  0  0  0  0  0
    1.4423  -11.3784    0.0000 C   0  0  0  0  0  0  0  0  0  0  0  0
    1.4423  -10.5771    0.0000 C   0  0  0  0  0  0  0  0  0  0  0  0
    3.6860  -14.3432    0.0000 C   0  0  0  0  0  0  0  0  0  0  0  0
    0.7212  -11.7790    0.0000 C   0  0  0  0  0  0  0  0  0  0  0  0
    0.7212  -10.0964    0.0000 C   0  0  0  0  0  0  0  0  0  0  0  0
    2.9648  -13.9425    0.0000 C   0  0  0  0  0  0  0  0  0  0  0  0
    4.4071  -13.9425    0.0000 C   0  0  0  0  0  0  0  0  0  0  0  0
    3.6860  -15.1445    0.0000 C   0  0  0  0  0  0  0  0  0  0  0  0
    5.1283  -12.6605    0.0000 C   0  0  0  0  0  0  0  0  0  0  0  0
    1.4423  -13.0611    0.0000 C   0  0  0  0  0  0  0  0  0  0  0  0
    0.0000  -11.3784    0.0000 C   0  0  0  0  0  0  0  0  0  0  0  0
    0.0000  -10.4970    0.0000 C   0  0  0  0  0  0  0  0  0  0  0  0
    2.1635  -11.7790    0.0000 C   0  0  0  0  0  0  0  0  0  0  0  0
    2.1635  -10.0964    0.0000 C   0  0  0  0  0  0  0  0  0  0  0  0
    1.5225   -8.8142    0.0000 C   0  0  0  0  0  0  0  0  0  0  0  0
    2.9648  -11.3784    0.0000 C   0  0  0  0  0  0  0  0  0  0  0  0
    2.9648  -10.5771    0.0000 C   0  0  0  0  0  0  0  0  0  0  0  0
    2.2436   -7.6123    0.0000 C   0  0  0  0  0  0  0  0  0  0  0  0
    1.5225   -8.0130    0.0000 C   0  0  0  0  0  0  0  0  0  0  0  0
    2.8045  -15.1445    0.0000 C   0  0  0  0  0  0  0  0  0  0  0  0
    3.6860  -16.0259    0.0000 C   0  0  0  0  0  0  0  0  0  0  0  0
    4.4873  -15.1445    0.0000 C   0  0  0  0  0  0  0  0  0  0  0  0
    3.0449   -6.4104    0.0000 C   0  0  0  0  0  0  0  0  0  0  0  0
    2.2436   -9.2950    0.0000 C   0  0  0  0  0  0  0  0  0  0  0  0
    3.8462   -5.1283    0.0000 C   0  0  0  0  0  0  0  0  0  0  0  0
    3.0449   -5.5290    0.0000 C   0  0  0  0  0  0  0  0  0  0  0  0
    4.4873   -6.4104    0.0000 C   0  0  0  0  0  0  0  0  0  0  0  0
    2.9648   -8.8944    0.0000 C   0  0  0  0  0  0  0  0  0  0  0  0
    3.7661   -6.8110    0.0000 C   0  0  0  0  0  0  0  0  0  0  0  0
    3.1251  -11.5387    0.0000 C   0  0  0  0  0  0  0  0  0  0  0  0
    4.5674   -5.6091    0.0000 C   0  0  0  0  0  0  0  0  0  0  0  0
    3.8462   -4.2469    0.0000 C   0  0  0  0  0  0  0  0  0  0  0  0
    5.8494  -13.9425    0.0000 C   0  0  0  0  0  0  0  0  0  0  0  0
    5.2084   -6.8911    0.0000 C   0  0  0  0  0  0  0  0  0  0  0  0
    3.2052   -2.9648    0.0000 C   0  0  0  0  0  0  0  0  0  0  0  0
    6.0097   -6.4905    0.0000 C   0  0  0  0  0  0  0  0  0  0  0  0
    2.4840   -2.5642    0.0000 C   0  0  0  0  0  0  0  0  0  0  0  0
    1.7628   -1.2020    0.0000 C   0  0  0  0  0  0  0  0  0  0  0  0
    3.2052   -1.2821    0.0000 C   0  0  0  0  0  0  0  0  0  0  0  0
    1.8430   -0.4006    0.0000 C   0  0  0  0  0  0  0  0  0  0  0  0
    3.2853   -0.4808    0.0000 C   0  0  0  0  0  0  0  0  0  0  0  0
  1 21  1  0  0  0  0
  1 31  1  0  0  0  0
  2 14  1  0  0  0  0
  2 46  1  0  0  0  0
  3 25  2  0  0  0  0
  4 26  2  0  0  0  0
  5 48  2  0  0  0  0
  6 56  1  0  0  0  0
  6 57  1  0  0  0  0
  7 15  1  0  0  0  0
  7 26  1  0  0  0  0
  8 20  1  0  0  0  0
  8 26  1  0  0  0  0
  9 25  1  0  0  0  0
  9 49  1  0  0  0  0
 10 34  1  0  0  0  0
 10 39  1  0  0  0  0
 11 34  1  0  0  0  0
 11 44  2  0  0  0  0
 12 48  1  0  0  0  0
 12 51  1  0  0  0  0
 13 53  1  0  0  0  0
 13 54  1  0  0  0  0
 13 55  1  0  0  0  0
 14 15  1  0  0  0  0
 14 16  2  0  0  0  0
 15 22  2  0  0  0  0
 16 23  1  0  0  0  0
 16 25  1  0  0  0  0
 17 18  2  0  0  0  0
 17 20  1  0  0  0  0
 17 29  1  0  0  0  0
 18 21  1  0  0  0  0
 18 30  1  0  0  0  0
 19 22  1  0  0  0  0
 19 23  2  0  0  0  0
 19 24  1  0  0  0  0
 20 27  2  0  0  0  0
 21 28  2  0  0  0  0
 24 36  1  0  0  0  0
 24 37  1  0  0  0  0
 24 38  1  0  0  0  0
 27 28  1  0  0  0  0
 29 32  2  0  0  0  0
 30 33  2  0  0  0  0
 31 35  1  0  0  0  0
 31 40  2  0  0  0  0
 32 33  1  0  0  0  0
 34 35  2  0  0  0  0
 39 42  2  0  0  0  0
 39 45  1  0  0  0  0
 40 44  1  0  0  0  0
 41 42  1  0  0  0  0
 41 47  2  0  0  0  0
 41 48  1  0  0  0  0
 43 45  2  0  0  0  0
 43 47  1  0  0  0  0
 43 50  1  0  0  0  0
 50 52  3  0  0  0  0
 51 53  1  0  0  0  0
 54 56  1  0  0  0  0
 55 57  1  0  0  0  0
M  END
> <PUBCHEM_COMPOUND_ID_TYPE>
0

> <PUBCHEM_TOTAL_CHARGE>
0

> <PUBCHEM_SUBSTANCE_ID>
310929075

> <PUBCHEM_SUBSTANCE_VERSION>
1

> <PUBCHEM_EXT_DATASOURCE_NAME>
4488

> <PUBCHEM_EXT_DATASOURCE_REGID>
SCHEMBL16106237

> <PUBCHEM_SUBSTANCE_COMMENT>
InChI=1S/C44H47N7O6/c1-7-28-22-29(41(52)47-16-17-51-18-20-56-21-19-51)24-31(23-28)48-39-27-32(14-15-46-39)57-38-13-12-36(33-10-8-9-11-34(33)38)49-43(54)50-37-26-30(44(2,3)4)25-35(40(37)55-6)42(53)45-5/h1,8-15,22-27H,16-21H2,2-6H3,(H,45,53)(H,46,48)(H,47,52)(H2,49,50,54)
InChIKey=KZSAULBVLYTWGY-UHFFFAOYSA-N

> <PUBCHEM_SUBSTANCE_SYNONYM>
SCHEMBL16106237

> <PUBCHEM_XREF_EXT_ID>
SCHEMBL16106237

> <PUBCHEM_EXT_DATASOURCE_URL>
https://www.surechembl.org/

> <PUBCHEM_EXT_SUBSTANCE_URL>
https://www.surechembl.org/chemical/SCHEMBL16106237

> <PUBCHEM_CID_ASSOCIATIONS>
86272593  1

> <PUBCHEM_COORDINATE_TYPE>
1
3

$$$$
