310938869
  -OEChem-07211613022D

 24 27  0     0  0  0  0  0  0999 V2000
    0.9100    2.5892    0.0000 O   0  0  0  0  0  0  0  0  0  0  0  0
    1.7144    0.9191    0.0000 N   0  0  0  0  0  0  0  0  0  0  0  0
    0.8361   -0.0862    0.0000 N   0  0  0  0  0  0  0  0  0  0  0  0
    1.3233   -1.8748    0.0000 N   0  0  0  0  0  0  0  0  0  0  0  0
    2.5929   -1.4623    0.0000 N   0  0  0  0  0  0  0  0  0  0  0  0
    1.8082   -2.5422    0.0000 N   0  0  0  0  0  0  0  0  0  0  0  0
   -2.5929    2.0749    0.0000 N   0  0  0  0  0  0  0  0  0  0  0  0
    0.9100    0.7355    0.0000 C   0  0  0  0  0  0  0  0  0  0  0  0
    1.5947   -0.4104    0.0000 C   0  0  0  0  0  0  0  0  0  0  0  0
    0.2650    1.2499    0.0000 C   0  0  0  0  0  0  0  0  0  0  0  0
    1.8082   -1.2073    0.0000 C   0  0  0  0  0  0  0  0  0  0  0  0
    2.1375    0.2108    0.0000 C   0  0  0  0  0  0  0  0  0  0  0  0
    0.2650    2.0749    0.0000 C   0  0  0  0  0  0  0  0  0  0  0  0
    2.0723    1.6624    0.0000 C   0  0  0  0  0  0  0  0  0  0  0  0
   -0.4494    0.8374    0.0000 C   0  0  0  0  0  0  0  0  0  0  0  0
   -0.4494    2.4874    0.0000 C   0  0  0  0  0  0  0  0  0  0  0  0
    0.4983   -1.8748    0.0000 C   0  0  0  0  0  0  0  0  0  0  0  0
   -1.1639    2.0749    0.0000 C   0  0  0  0  0  0  0  0  0  0  0  0
    1.7144    2.4057    0.0000 C   0  0  0  0  0  0  0  0  0  0  0  0
    2.5929   -2.2873    0.0000 C   0  0  0  0  0  0  0  0  0  0  0  0
   -1.1639    1.2499    0.0000 C   0  0  0  0  0  0  0  0  0  0  0  0
   -1.8784    2.4874    0.0000 C   0  0  0  0  0  0  0  0  0  0  0  0
    0.0858   -2.5892    0.0000 C   0  0  0  0  0  0  0  0  0  0  0  0
    0.0858   -1.1603    0.0000 C   0  0  0  0  0  0  0  0  0  0  0  0
  1 13  1  0  0  0  0
  1 19  1  0  0  0  0
  2  8  1  0  0  0  0
  2 12  1  0  0  0  0
  2 14  1  0  0  0  0
  3  8  2  0  0  0  0
  3  9  1  0  0  0  0
  4  6  1  0  0  0  0
  4 11  1  0  0  0  0
  4 17  1  0  0  0  0
  5 11  2  0  0  0  0
  5 20  1  0  0  0  0
  6 20  2  0  0  0  0
  7 22  1  0  0  0  0
  8 10  1  0  0  0  0
  9 11  1  0  0  0  0
  9 12  2  0  0  0  0
 10 13  1  0  0  0  0
 10 15  2  0  0  0  0
 13 16  2  0  0  0  0
 14 19  1  0  0  0  0
 15 21  1  0  0  0  0
 16 18  1  0  0  0  0
 17 23  1  0  0  0  0
 17 24  1  0  0  0  0
 18 21  2  0  0  0  0
 18 22  1  0  0  0  0
M  END
> <PUBCHEM_COMPOUND_ID_TYPE>
0

> <PUBCHEM_TOTAL_CHARGE>
0

> <PUBCHEM_SUBSTANCE_ID>
310938869

> <PUBCHEM_SUBSTANCE_VERSION>
1

> <PUBCHEM_EXT_DATASOURCE_NAME>
4488

> <PUBCHEM_EXT_DATASOURCE_REGID>
SCHEMBL16116788

> <PUBCHEM_SUBSTANCE_COMMENT>
InChI=1S/C17H20N6O/c1-11(2)23-17(19-10-20-23)14-9-22-5-6-24-15-7-12(8-18)3-4-13(15)16(22)21-14/h3-4,7,9-11H,5-6,8,18H2,1-2H3
InChIKey=FNWUACSUHHJJBG-UHFFFAOYSA-N

> <PUBCHEM_SUBSTANCE_SYNONYM>
SCHEMBL16116788

> <PUBCHEM_XREF_EXT_ID>
SCHEMBL16116788

> <PUBCHEM_EXT_DATASOURCE_URL>
https://www.surechembl.org/

> <PUBCHEM_EXT_SUBSTANCE_URL>
https://www.surechembl.org/chemical/SCHEMBL16116788

> <PUBCHEM_CID_ASSOCIATIONS>
117606266  1

> <PUBCHEM_COORDINATE_TYPE>
1
3

$$$$
