310949943
  -OEChem-07211613022D

 30 34  0     1  0  0  0  0  0999 V2000
   -0.8715    1.5494    0.0000 N   0  0  0  0  0  0  0  0  0  0  0  0
   -0.8715    2.8913    0.0000 N   0  0  0  0  0  0  0  0  0  0  0  0
   -0.0968   -0.8162    0.0000 N   0  0  0  0  0  0  0  0  0  0  0  0
    1.7154    1.8123    0.0000 N   0  0  0  0  0  0  0  0  0  0  0  0
   -0.3873    2.2272    0.0000 C   0  0  0  0  0  0  0  0  0  0  0  0
   -1.6601    1.8261    0.0000 C   0  0  0  0  0  0  0  0  0  0  0  0
   -1.6601    2.6423    0.0000 C   0  0  0  0  0  0  0  0  0  0  0  0
   -0.6225    0.7885    0.0000 C   0  0  0  0  0  0  0  0  0  0  0  0
    0.4565    2.2134    0.0000 C   0  0  3  0  0  0  0  0  0  0  0  0
   -2.3656    1.4111    0.0000 C   0  0  0  0  0  0  0  0  0  0  0  0
   -2.3794    3.0435    0.0000 C   0  0  0  0  0  0  0  0  0  0  0  0
   -1.1620    0.1245    0.0000 C   0  0  0  0  0  0  0  0  0  0  0  0
    0.2075    0.5949    0.0000 C   0  0  0  0  0  0  0  0  0  0  0  0
    0.9684    1.5632    0.0000 C   0  0  0  0  0  0  0  0  0  0  0  0
    0.9269    2.8775    0.0000 C   0  0  0  0  0  0  0  0  0  0  0  0
   -0.9130   -0.6225    0.0000 C   0  0  0  0  0  0  0  0  0  0  0  0
    0.4565   -0.1660    0.0000 C   0  0  0  0  0  0  0  0  0  0  0  0
   -3.0850    1.8123    0.0000 C   0  0  0  0  0  0  0  0  0  0  0  0
   -3.0850    2.6284    0.0000 C   0  0  0  0  0  0  0  0  0  0  0  0
    0.1522   -1.5771    0.0000 C   0  0  3  0  0  0  0  0  0  0  0  0
    1.7293    2.6423    0.0000 C   0  0  0  0  0  0  0  0  0  0  0  0
    0.9684   -1.7707    0.0000 C   0  0  0  0  0  0  0  0  0  0  0  0
   -0.3735   -2.2272    0.0000 C   0  0  0  0  0  0  0  0  0  0  0  0
    1.1206   -2.5870    0.0000 C   0  0  0  0  0  0  0  0  0  0  0  0
    1.4387   -1.0929    0.0000 C   0  0  0  0  0  0  0  0  0  0  0  0
    1.7984   -3.0435    0.0000 C   0  0  0  0  0  0  0  0  0  0  0  0
    2.2411   -0.9407    0.0000 C   0  0  0  0  0  0  0  0  0  0  0  0
    2.9328   -1.4111    0.0000 C   0  0  0  0  0  0  0  0  0  0  0  0
    2.6146   -2.8913    0.0000 C   0  0  0  0  0  0  0  0  0  0  0  0
    3.0850   -2.2134    0.0000 C   0  0  0  0  0  0  0  0  0  0  0  0
  1  5  1  0  0  0  0
  1  6  1  0  0  0  0
  1  8  1  0  0  0  0
  2  5  2  0  0  0  0
  2  7  1  0  0  0  0
  3 16  1  0  0  0  0
  3 17  1  0  0  0  0
  3 20  1  0  0  0  0
  4 14  1  0  0  0  0
  4 21  1  0  0  0  0
  9  5  1  6  0  0  0
  6  7  1  0  0  0  0
  6 10  2  0  0  0  0
  7 11  2  0  0  0  0
  8 12  1  0  0  0  0
  8 13  1  0  0  0  0
  9 14  1  0  0  0  0
  9 15  1  0  0  0  0
 10 18  1  0  0  0  0
 11 19  1  0  0  0  0
 12 16  1  0  0  0  0
 13 17  1  0  0  0  0
 15 21  1  0  0  0  0
 18 19  2  0  0  0  0
 20 22  1  0  0  0  0
 20 23  1  0  0  0  0
 22 24  1  0  0  0  0
 22 25  1  0  0  0  0
 24 26  1  0  0  0  0
 25 27  1  0  0  0  0
 26 29  1  0  0  0  0
 27 28  1  0  0  0  0
 28 30  1  0  0  0  0
 29 30  1  0  0  0  0
M  END
> <PUBCHEM_COMPOUND_ID_TYPE>
0

> <PUBCHEM_TOTAL_CHARGE>
0

> <PUBCHEM_SUBSTANCE_ID>
310949943

> <PUBCHEM_SUBSTANCE_VERSION>
1

> <PUBCHEM_EXT_DATASOURCE_NAME>
4488

> <PUBCHEM_EXT_DATASOURCE_REGID>
SCHEMBL16128170

> <PUBCHEM_SUBSTANCE_COMMENT>
InChI=1S/C26H40N4/c1-20(21-9-5-3-2-4-6-10-21)29-17-14-23(15-18-29)30-25-12-8-7-11-24(25)28-26(30)22-13-16-27-19-22/h7-8,11-12,20-23,27H,2-6,9-10,13-19H2,1H3/t20?,22-/m1/s1
InChIKey=SMGRNKIUDNGCSM-LWMIZPGFSA-N

> <PUBCHEM_SUBSTANCE_SYNONYM>
SCHEMBL16128170

> <PUBCHEM_XREF_EXT_ID>
SCHEMBL16128170

> <PUBCHEM_EXT_DATASOURCE_URL>
https://www.surechembl.org/

> <PUBCHEM_EXT_SUBSTANCE_URL>
https://www.surechembl.org/chemical/SCHEMBL16128170

> <PUBCHEM_CID_ASSOCIATIONS>
78319118  1

> <PUBCHEM_COORDINATE_TYPE>
1
3

> <PUBCHEM_BONDANNOTATIONS>
9  5  6

$$$$
