310943678
  -OEChem-07211613022D

 31 34  0     0  0  0  0  0  0999 V2000
    4.7479    1.0963    0.0000 F   0  0  0  0  0  0  0  0  0  0  0  0
    5.4593   -0.1379    0.0000 F   0  0  0  0  0  0  0  0  0  0  0  0
   -1.8440    1.4302    0.0000 O   0  0  0  0  0  0  0  0  0  0  0  0
    1.9021    1.0963    0.0000 O   0  0  0  0  0  0  0  0  0  0  0  0
   -5.4593    1.0527    0.0000 O   0  0  0  0  0  0  0  0  0  0  0  0
   -4.0219    0.2396    0.0000 N   0  0  0  0  0  0  0  0  0  0  0  0
   -0.4066    1.4302    0.0000 N   0  0  0  0  0  0  0  0  0  0  0  0
    1.0164   -0.2105    0.0000 N   0  0  0  0  0  0  0  0  0  0  0  0
   -3.2960   -1.0817    0.0000 N   0  0  0  0  0  0  0  0  0  0  0  0
   -1.1471    0.1960    0.0000 C   0  0  0  0  0  0  0  0  0  0  0  0
   -1.8730   -0.2396    0.0000 C   0  0  0  0  0  0  0  0  0  0  0  0
   -1.1180    1.0237    0.0000 C   0  0  0  0  0  0  0  0  0  0  0  0
    0.2758    0.1960    0.0000 C   0  0  0  0  0  0  0  0  0  0  0  0
   -3.3105   -0.2396    0.0000 C   0  0  0  0  0  0  0  0  0  0  0  0
   -0.4210   -0.2105    0.0000 C   0  0  0  0  0  0  0  0  0  0  0  0
   -2.5990    0.1670    0.0000 C   0  0  0  0  0  0  0  0  0  0  0  0
   -1.8875   -1.0672    0.0000 C   0  0  0  0  0  0  0  0  0  0  0  0
    1.8875    0.2686    0.0000 C   0  0  0  0  0  0  0  0  0  0  0  0
    0.2904    1.0091    0.0000 C   0  0  0  0  0  0  0  0  0  0  0  0
    2.5990   -0.1234    0.0000 C   0  0  0  0  0  0  0  0  0  0  0  0
   -2.5845   -1.4738    0.0000 C   0  0  0  0  0  0  0  0  0  0  0  0
    3.3105    0.2686    0.0000 C   0  0  0  0  0  0  0  0  0  0  0  0
    4.0364   -0.1234    0.0000 C   0  0  0  0  0  0  0  0  0  0  0  0
   -4.0364    1.0672    0.0000 C   0  0  0  0  0  0  0  0  0  0  0  0
   -4.7479   -0.1670    0.0000 C   0  0  0  0  0  0  0  0  0  0  0  0
    2.5990   -0.9511    0.0000 C   0  0  0  0  0  0  0  0  0  0  0  0
    4.0219   -0.9511    0.0000 C   0  0  0  0  0  0  0  0  0  0  0  0
    4.7334    0.2976    0.0000 C   0  0  0  0  0  0  0  0  0  0  0  0
    3.3250   -1.3576    0.0000 C   0  0  0  0  0  0  0  0  0  0  0  0
   -4.7769    1.4738    0.0000 C   0  0  0  0  0  0  0  0  0  0  0  0
   -5.4593    0.2396    0.0000 C   0  0  0  0  0  0  0  0  0  0  0  0
  1 28  1  0  0  0  0
  2 28  1  0  0  0  0
  3 12  2  0  0  0  0
  4 18  2  0  0  0  0
  5 30  1  0  0  0  0
  5 31  1  0  0  0  0
  6 14  1  0  0  0  0
  6 24  1  0  0  0  0
  6 25  1  0  0  0  0
  7 12  1  0  0  0  0
  7 19  1  0  0  0  0
  8 13  1  0  0  0  0
  8 18  1  0  0  0  0
  9 14  2  0  0  0  0
  9 21  1  0  0  0  0
 10 11  1  0  0  0  0
 10 12  1  0  0  0  0
 10 15  2  0  0  0  0
 11 16  2  0  0  0  0
 11 17  1  0  0  0  0
 13 15  1  0  0  0  0
 13 19  2  0  0  0  0
 14 16  1  0  0  0  0
 17 21  2  0  0  0  0
 18 20  1  0  0  0  0
 20 22  1  0  0  0  0
 20 26  2  0  0  0  0
 22 23  2  0  0  0  0
 23 27  1  0  0  0  0
 23 28  1  0  0  0  0
 24 30  1  0  0  0  0
 25 31  1  0  0  0  0
 26 29  1  0  0  0  0
 27 29  2  0  0  0  0
M  END
> <PUBCHEM_COMPOUND_ID_TYPE>
0

> <PUBCHEM_TOTAL_CHARGE>
0

> <PUBCHEM_SUBSTANCE_ID>
310943678

> <PUBCHEM_SUBSTANCE_VERSION>
1

> <PUBCHEM_EXT_DATASOURCE_NAME>
4488

> <PUBCHEM_EXT_DATASOURCE_REGID>
SCHEMBL16121746

> <PUBCHEM_SUBSTANCE_COMMENT>
InChI=1S/C22H20F2N4O3/c23-20(24)15-2-1-3-16(10-15)21(29)27-17-12-18(22(30)26-13-17)14-4-5-25-19(11-14)28-6-8-31-9-7-28/h1-5,10-13,20H,6-9H2,(H,26,30)(H,27,29)
InChIKey=AEZZFHCKFJGJGP-UHFFFAOYSA-N

> <PUBCHEM_SUBSTANCE_SYNONYM>
SCHEMBL16121746

> <PUBCHEM_XREF_EXT_ID>
SCHEMBL16121746

> <PUBCHEM_EXT_DATASOURCE_URL>
https://www.surechembl.org/

> <PUBCHEM_EXT_SUBSTANCE_URL>
https://www.surechembl.org/chemical/SCHEMBL16121746

> <PUBCHEM_CID_ASSOCIATIONS>
117610067  1

> <PUBCHEM_COORDINATE_TYPE>
1
3

$$$$
