310936454
  -OEChem-07211613022D

 28 30  0     0  0  0  0  0  0999 V2000
    6.5007   -1.6910    0.0000 Cl  0  0  0  0  0  0  0  0  0  0  0  0
    2.8934   -0.4134    0.0000 O   0  0  0  0  0  0  0  0  0  0  0  0
    0.0000   -5.4486    0.0000 O   0  0  0  0  0  0  0  0  0  0  0  0
    1.4279   -6.2753    0.0000 O   0  0  0  0  0  0  0  0  0  0  0  0
    0.7140   -7.5153    0.0000 O   0  0  0  0  0  0  0  0  0  0  0  0
    2.1794   -1.6534    0.0000 N   0  0  0  0  0  0  0  0  0  0  0  0
    1.4655   -5.4110    0.0000 N   0  0  0  0  0  0  0  0  0  0  0  0
    0.7516   -4.1710    0.0000 N   0  0  0  0  0  0  0  0  0  0  0  0
    3.6073   -1.6910    0.0000 C   0  0  0  0  0  0  0  0  0  0  0  0
    4.3213   -1.2776    0.0000 C   0  0  0  0  0  0  0  0  0  0  0  0
    2.8934   -1.2400    0.0000 C   0  0  0  0  0  0  0  0  0  0  0  0
    2.8934   -2.9310    0.0000 C   0  0  0  0  0  0  0  0  0  0  0  0
    3.6073   -2.4800    0.0000 C   0  0  0  0  0  0  0  0  0  0  0  0
    2.1794   -2.4800    0.0000 C   0  0  0  0  0  0  0  0  0  0  0  0
    2.8934   -3.7577    0.0000 C   0  0  0  0  0  0  0  0  0  0  0  0
    2.1794   -4.1710    0.0000 C   0  0  0  0  0  0  0  0  0  0  0  0
    5.0353   -1.6910    0.0000 C   0  0  0  0  0  0  0  0  0  0  0  0
    4.3589   -0.4134    0.0000 C   0  0  0  0  0  0  0  0  0  0  0  0
    5.7492   -1.2776    0.0000 C   0  0  0  0  0  0  0  0  0  0  0  0
    0.7140   -5.0353    0.0000 C   0  0  0  0  0  0  0  0  0  0  0  0
    2.1794   -5.0353    0.0000 C   0  0  0  0  0  0  0  0  0  0  0  0
    1.4655   -3.7952    0.0000 C   0  0  0  0  0  0  0  0  0  0  0  0
    5.0729   -0.0376    0.0000 C   0  0  0  0  0  0  0  0  0  0  0  0
    5.7868   -0.4509    0.0000 C   0  0  0  0  0  0  0  0  0  0  0  0
    2.1794    0.0000    0.0000 C   0  0  0  0  0  0  0  0  0  0  0  0
    0.0000   -6.2753    0.0000 C   0  0  0  0  0  0  0  0  0  0  0  0
    0.7140   -6.6887    0.0000 C   0  0  0  0  0  0  0  0  0  0  0  0
    2.1794   -6.6887    0.0000 C   0  0  0  0  0  0  0  0  0  0  0  0
  1 19  1  0  0  0  0
  2 11  1  0  0  0  0
  2 25  1  0  0  0  0
  3 20  1  0  0  0  0
  3 26  1  0  0  0  0
  4 27  1  0  0  0  0
  4 28  1  0  0  0  0
  5 27  2  0  0  0  0
  6 11  2  0  0  0  0
  6 14  1  0  0  0  0
  7 20  2  0  0  0  0
  7 21  1  0  0  0  0
  8 20  1  0  0  0  0
  8 22  2  0  0  0  0
  9 10  1  0  0  0  0
  9 11  1  0  0  0  0
  9 13  2  0  0  0  0
 10 17  1  0  0  0  0
 10 18  2  0  0  0  0
 12 13  1  0  0  0  0
 12 14  2  0  0  0  0
 12 15  1  0  0  0  0
 15 16  1  0  0  0  0
 16 21  2  0  0  0  0
 16 22  1  0  0  0  0
 17 19  2  0  0  0  0
 18 23  1  0  0  0  0
 19 24  1  0  0  0  0
 23 24  2  0  0  0  0
 26 27  1  0  0  0  0
M  END
> <PUBCHEM_COMPOUND_ID_TYPE>
0

> <PUBCHEM_TOTAL_CHARGE>
0

> <PUBCHEM_SUBSTANCE_ID>
310936454

> <PUBCHEM_SUBSTANCE_VERSION>
1

> <PUBCHEM_EXT_DATASOURCE_NAME>
4488

> <PUBCHEM_EXT_DATASOURCE_REGID>
SCHEMBL16114096

> <PUBCHEM_SUBSTANCE_COMMENT>
InChI=1S/C20H18ClN3O4/c1-26-18(25)12-28-20-23-10-14(11-24-20)6-13-7-17(19(27-2)22-9-13)15-4-3-5-16(21)8-15/h3-5,7-11H,6,12H2,1-2H3
InChIKey=NTRCIWJYJNLSAF-UHFFFAOYSA-N

> <PUBCHEM_SUBSTANCE_SYNONYM>
SCHEMBL16114096

> <PUBCHEM_XREF_EXT_ID>
SCHEMBL16114096

> <PUBCHEM_EXT_DATASOURCE_URL>
https://www.surechembl.org/

> <PUBCHEM_EXT_SUBSTANCE_URL>
https://www.surechembl.org/chemical/SCHEMBL16114096

> <PUBCHEM_CID_ASSOCIATIONS>
117604386  1

> <PUBCHEM_COORDINATE_TYPE>
1
3

$$$$
