310942623
  -OEChem-07211613022D

 31 34  0     0  0  0  0  0  0999 V2000
    1.4468   -0.0088    0.0000 N   0  0  0  0  0  0  0  0  0  0  0  0
    2.8891   -0.0088    0.0000 N   0  0  0  0  0  0  0  0  0  0  0  0
    0.0044   -0.0088    0.0000 N   0  0  0  0  0  0  0  0  0  0  0  0
   -2.8803    1.6370    0.0000 N   0  0  0  0  0  0  0  0  0  0  0  0
    0.7300    1.2212    0.0000 N   0  0  0  0  0  0  0  0  0  0  0  0
    3.5705   -1.4158    0.0000 N   0  0  0  0  0  0  0  0  0  0  0  0
    3.3405   -2.1945    0.0000 N   0  0  0  0  0  0  0  0  0  0  0  0
   -4.3226    2.4600    0.0000 N   0  0  0  0  0  0  0  0  0  0  0  0
    5.0483    2.0353    0.0000 N   0  0  0  0  0  0  0  0  0  0  0  0
    2.1724    0.4070    0.0000 C   0  0  0  0  0  0  0  0  0  0  0  0
    2.1812    1.2300    0.0000 C   0  0  0  0  0  0  0  0  0  0  0  0
    0.7300    0.4070    0.0000 C   0  0  0  0  0  0  0  0  0  0  0  0
   -0.7123    0.4070    0.0000 C   0  0  0  0  0  0  0  0  0  0  0  0
   -2.1458    1.2300    0.0000 C   0  0  0  0  0  0  0  0  0  0  0  0
    2.8803   -0.9114    0.0000 C   0  0  0  0  0  0  0  0  0  0  0  0
    1.4468    1.6370    0.0000 C   0  0  0  0  0  0  0  0  0  0  0  0
   -1.4202    0.0000    0.0000 C   0  0  0  0  0  0  0  0  0  0  0  0
   -0.7123    1.2212    0.0000 C   0  0  0  0  0  0  0  0  0  0  0  0
   -2.1458    0.4070    0.0000 C   0  0  0  0  0  0  0  0  0  0  0  0
   -1.4379    1.6282    0.0000 C   0  0  0  0  0  0  0  0  0  0  0  0
    2.8891    1.6370    0.0000 C   0  0  0  0  0  0  0  0  0  0  0  0
    2.2344   -1.4247    0.0000 C   0  0  0  0  0  0  0  0  0  0  0  0
   -3.5793    1.2300    0.0000 C   0  0  0  0  0  0  0  0  0  0  0  0
   -2.8714    2.4600    0.0000 C   0  0  0  0  0  0  0  0  0  0  0  0
    2.5086   -2.1856    0.0000 C   0  0  0  0  0  0  0  0  0  0  0  0
   -4.3138    1.6370    0.0000 C   0  0  0  0  0  0  0  0  0  0  0  0
   -3.5970    2.8670    0.0000 C   0  0  0  0  0  0  0  0  0  0  0  0
    3.6325    1.2300    0.0000 C   0  0  0  0  0  0  0  0  0  0  0  0
    3.8449   -2.8670    0.0000 C   0  0  0  0  0  0  0  0  0  0  0  0
   -5.0483    2.8670    0.0000 C   0  0  0  0  0  0  0  0  0  0  0  0
    4.3315    1.6370    0.0000 C   0  0  0  0  0  0  0  0  0  0  0  0
  1 10  2  0  0  0  0
  1 12  1  0  0  0  0
  2 10  1  0  0  0  0
  2 15  1  0  0  0  0
  3 12  1  0  0  0  0
  3 13  1  0  0  0  0
  4 14  1  0  0  0  0
  4 23  1  0  0  0  0
  4 24  1  0  0  0  0
  5 12  2  0  0  0  0
  5 16  1  0  0  0  0
  6  7  1  0  0  0  0
  6 15  2  0  0  0  0
  7 25  1  0  0  0  0
  7 29  1  0  0  0  0
  8 26  1  0  0  0  0
  8 27  1  0  0  0  0
  8 30  1  0  0  0  0
  9 31  3  0  0  0  0
 10 11  1  0  0  0  0
 11 16  2  0  0  0  0
 11 21  1  0  0  0  0
 13 17  2  0  0  0  0
 13 18  1  0  0  0  0
 14 19  2  0  0  0  0
 14 20  1  0  0  0  0
 15 22  1  0  0  0  0
 17 19  1  0  0  0  0
 18 20  2  0  0  0  0
 21 28  2  0  0  0  0
 22 25  2  0  0  0  0
 23 26  1  0  0  0  0
 24 27  1  0  0  0  0
 28 31  1  0  0  0  0
M  END
> <PUBCHEM_COMPOUND_ID_TYPE>
0

> <PUBCHEM_TOTAL_CHARGE>
0

> <PUBCHEM_SUBSTANCE_ID>
310942623

> <PUBCHEM_SUBSTANCE_VERSION>
1

> <PUBCHEM_EXT_DATASOURCE_NAME>
4488

> <PUBCHEM_EXT_DATASOURCE_REGID>
SCHEMBL16120669

> <PUBCHEM_SUBSTANCE_COMMENT>
InChI=1S/C22H25N9/c1-29-12-14-31(15-13-29)19-7-5-18(6-8-19)25-22-24-16-17(4-3-10-23)21(27-22)26-20-9-11-30(2)28-20/h3-9,11,16H,12-15H2,1-2H3,(H2,24,25,26,27,28)/b4-3+
InChIKey=YECJZJIYEFCZPP-ONEGZZNKSA-N

> <PUBCHEM_SUBSTANCE_SYNONYM>
SCHEMBL16120669

> <PUBCHEM_XREF_EXT_ID>
SCHEMBL16120669

> <PUBCHEM_EXT_DATASOURCE_URL>
https://www.surechembl.org/

> <PUBCHEM_EXT_SUBSTANCE_URL>
https://www.surechembl.org/chemical/SCHEMBL16120669

> <PUBCHEM_CID_ASSOCIATIONS>
117609155  1

> <PUBCHEM_COORDINATE_TYPE>
1
3

$$$$
