310930851
  -OEChem-07211613022D

 27 29  0     1  0  0  0  0  0999 V2000
    6.4599   -3.3256    0.0000 F   0  0  0  0  0  0  0  0  0  0  0  0
    0.7178    0.0000    0.0000 F   0  0  0  0  0  0  0  0  0  0  0  0
    0.0239   -1.2681    0.0000 F   0  0  0  0  0  0  0  0  0  0  0  0
    0.0000   -0.4307    0.0000 F   0  0  0  0  0  0  0  0  0  0  0  0
    5.0483   -3.3256    0.0000 O   0  0  0  0  0  0  0  0  0  0  0  0
    1.4594   -2.0815    0.0000 O   0  0  0  0  0  0  0  0  0  0  0  0
    4.3065   -2.0815    0.0000 N   0  0  0  0  0  0  0  0  0  0  0  0
    5.0483   -0.8374    0.0000 N   0  0  0  0  0  0  0  0  0  0  0  0
    3.6127    0.0000    0.0000 N   0  0  0  0  0  0  0  0  0  0  0  0
    5.7660   -2.0815    0.0000 C   0  0  0  0  0  0  0  0  0  0  0  0
    5.0483   -2.4883    0.0000 C   0  0  0  0  0  0  0  0  0  0  0  0
    4.3065   -1.2441    0.0000 C   0  0  0  0  0  0  0  0  0  0  0  0
    5.7660   -1.2441    0.0000 C   0  0  0  0  0  0  0  0  0  0  0  0
    3.6127   -2.4883    0.0000 C   0  0  0  0  0  0  0  0  0  0  0  0
    6.4599   -2.4883    0.0000 C   0  0  0  0  0  0  0  0  0  0  0  0
    3.6127   -0.8374    0.0000 C   0  0  3  0  0  0  0  0  0  0  0  0
    6.4599   -0.8374    0.0000 C   0  0  0  0  0  0  0  0  0  0  0  0
    2.8710   -2.0815    0.0000 C   0  0  0  0  0  0  0  0  0  0  0  0
    3.6127   -3.3256    0.0000 C   0  0  0  0  0  0  0  0  0  0  0  0
    7.1776   -2.0815    0.0000 C   0  0  0  0  0  0  0  0  0  0  0  0
    2.1772   -2.4883    0.0000 C   0  0  0  0  0  0  0  0  0  0  0  0
    7.1776   -1.2441    0.0000 C   0  0  0  0  0  0  0  0  0  0  0  0
    2.8950   -3.7324    0.0000 C   0  0  0  0  0  0  0  0  0  0  0  0
    2.1772   -3.3256    0.0000 C   0  0  0  0  0  0  0  0  0  0  0  0
    2.8710   -1.2441    0.0000 C   0  0  0  0  0  0  0  0  0  0  0  0
    1.4594   -1.2681    0.0000 C   0  0  0  0  0  0  0  0  0  0  0  0
    0.7178   -0.8374    0.0000 C   0  0  0  0  0  0  0  0  0  0  0  0
  1 15  1  0  0  0  0
  2 27  1  0  0  0  0
  3 27  1  0  0  0  0
  4 27  1  0  0  0  0
  5 11  2  0  0  0  0
  6 21  1  0  0  0  0
  6 26  1  0  0  0  0
  7 11  1  0  0  0  0
  7 12  1  0  0  0  0
  7 14  1  0  0  0  0
  8 12  2  0  0  0  0
  8 13  1  0  0  0  0
 16  9  1  6  0  0  0
 10 11  1  0  0  0  0
 10 13  2  0  0  0  0
 10 15  1  0  0  0  0
 12 16  1  0  0  0  0
 13 17  1  0  0  0  0
 14 18  1  0  0  0  0
 14 19  2  0  0  0  0
 15 20  2  0  0  0  0
 16 25  1  0  0  0  0
 17 22  2  0  0  0  0
 18 21  2  0  0  0  0
 19 23  1  0  0  0  0
 20 22  1  0  0  0  0
 21 24  1  0  0  0  0
 23 24  2  0  0  0  0
 26 27  1  0  0  0  0
M  END
> <PUBCHEM_COMPOUND_ID_TYPE>
0

> <PUBCHEM_TOTAL_CHARGE>
0

> <PUBCHEM_SUBSTANCE_ID>
310930851

> <PUBCHEM_SUBSTANCE_VERSION>
1

> <PUBCHEM_EXT_DATASOURCE_NAME>
4488

> <PUBCHEM_EXT_DATASOURCE_REGID>
SCHEMBL16108149

> <PUBCHEM_SUBSTANCE_COMMENT>
InChI=1S/C18H15F4N3O2/c1-10(23)16-24-14-7-3-6-13(19)15(14)17(26)25(16)11-4-2-5-12(8-11)27-9-18(20,21)22/h2-8,10H,9,23H2,1H3/t10-/m0/s1
InChIKey=LDIPEZIGWLQSAV-JTQLQIEISA-N

> <PUBCHEM_SUBSTANCE_SYNONYM>
SCHEMBL16108149

> <PUBCHEM_XREF_EXT_ID>
SCHEMBL16108149

> <PUBCHEM_EXT_DATASOURCE_URL>
https://www.surechembl.org/

> <PUBCHEM_EXT_SUBSTANCE_URL>
https://www.surechembl.org/chemical/SCHEMBL16108149

> <PUBCHEM_CID_ASSOCIATIONS>
117599841  1

> <PUBCHEM_COORDINATE_TYPE>
1
3

> <PUBCHEM_BONDANNOTATIONS>
16  9  6

$$$$
