310928844
  -OEChem-07211613022D

 13 14  0     0  0  0  0  0  0999 V2000
    0.0797    1.6500    0.0000 Br  0  0  0  0  0  0  0  0  0  0  0  0
   -2.0637   -0.4125    0.0000 O   0  5  0  0  0  0  0  0  0  0  0  0
   -1.3492   -1.6500    0.0000 O   0  0  0  0  0  0  0  0  0  0  0  0
    1.5788    0.6674    0.0000 N   0  0  0  0  0  0  0  0  0  0  0  0
   -1.3492   -0.8250    0.0000 N   0  3  0  0  0  0  0  0  0  0  0  0
    2.0637   -0.0000    0.0000 N   0  0  0  0  0  0  0  0  0  0  0  0
    0.7942    0.4125    0.0000 C   0  0  0  0  0  0  0  0  0  0  0  0
    0.7942   -0.4125    0.0000 C   0  0  0  0  0  0  0  0  0  0  0  0
   -0.6348   -0.4125    0.0000 C   0  0  0  0  0  0  0  0  0  0  0  0
    0.0797    0.8250    0.0000 C   0  0  0  0  0  0  0  0  0  0  0  0
    0.0797   -0.8250    0.0000 C   0  0  0  0  0  0  0  0  0  0  0  0
   -0.6348    0.4125    0.0000 C   0  0  0  0  0  0  0  0  0  0  0  0
    1.5788   -0.6674    0.0000 C   0  0  0  0  0  0  0  0  0  0  0  0
  1 10  1  0  0  0  0
  2  5  1  0  0  0  0
  3  5  2  0  0  0  0
  4  6  1  0  0  0  0
  4  7  1  0  0  0  0
  5  9  1  0  0  0  0
  6 13  2  0  0  0  0
  7  8  1  0  0  0  0
  7 10  2  0  0  0  0
  8 11  2  0  0  0  0
  8 13  1  0  0  0  0
  9 11  1  0  0  0  0
  9 12  2  0  0  0  0
 10 12  1  0  0  0  0
M  CHG  2   2  -1   5   1
M  END
> <PUBCHEM_COMPOUND_ID_TYPE>
0

> <PUBCHEM_TOTAL_CHARGE>
0

> <PUBCHEM_SUBSTANCE_ID>
310928844

> <PUBCHEM_SUBSTANCE_VERSION>
1

> <PUBCHEM_EXT_DATASOURCE_NAME>
11752

> <PUBCHEM_EXT_DATASOURCE_REGID>
BD199464

> <PUBCHEM_SUBSTANCE_SYNONYM>
685109-10-8
7-Bromo-5-nitro-1H-indazole

> <PUBCHEM_GENERIC_REGISTRY_NAME>
685109-10-8

> <PUBCHEM_XREF_EXT_ID>
BD199464

> <PUBCHEM_EXT_DATASOURCE_URL>
http://www.bidepharmatech.com/en/index.html

> <PUBCHEM_EXT_SUBSTANCE_URL>
http://www.bidepharmatech.com/en/goodsview_goodscode_BD199464.html

> <PUBCHEM_CID_ASSOCIATIONS>
1481968  1

> <PUBCHEM_COORDINATE_TYPE>
1
3

$$$$
