310943153
  -OEChem-07211613022D

 34 37  0     0  0  0  0  0  0999 V2000
    4.5612   -1.6154    0.0000 F   0  0  0  0  0  0  0  0  0  0  0  0
    4.1811   -2.6680    0.0000 F   0  0  0  0  0  0  0  0  0  0  0  0
    3.1285   -2.2733    0.0000 F   0  0  0  0  0  0  0  0  0  0  0  0
    1.1695   -0.2120    0.0000 O   0  0  0  0  0  0  0  0  0  0  0  0
   -3.1285   -0.2120    0.0000 O   0  0  0  0  0  0  0  0  0  0  0  0
   -4.5612    2.2587    0.0000 O   0  0  0  0  0  0  0  0  0  0  0  0
    3.3478    0.1389    0.0000 N   0  0  0  0  0  0  0  0  0  0  0  0
    3.9034   -0.4751    0.0000 N   0  0  0  0  0  0  0  0  0  0  0  0
   -1.6959   -0.1974    0.0000 N   0  0  0  0  0  0  0  0  0  0  0  0
   -3.1285    1.4400    0.0000 N   0  0  0  0  0  0  0  0  0  0  0  0
    1.8859    1.0306    0.0000 N   0  0  0  0  0  0  0  0  0  0  0  0
    0.4532    2.6680    0.0000 N   0  0  0  0  0  0  0  0  0  0  0  0
    2.6168   -0.1974    0.0000 C   0  0  0  0  0  0  0  0  0  0  0  0
   -0.9795    1.0306    0.0000 C   0  0  0  0  0  0  0  0  0  0  0  0
    3.4940   -1.1915    0.0000 C   0  0  0  0  0  0  0  0  0  0  0  0
   -0.2777    1.4400    0.0000 C   0  0  0  0  0  0  0  0  0  0  0  0
   -2.4122    1.0306    0.0000 C   0  0  0  0  0  0  0  0  0  0  0  0
    2.6900   -1.0014    0.0000 C   0  0  0  0  0  0  0  0  0  0  0  0
    1.8859    0.2266    0.0000 C   0  0  0  0  0  0  0  0  0  0  0  0
    3.8302   -1.9370    0.0000 C   0  0  0  0  0  0  0  0  0  0  0  0
   -2.4122    0.2266    0.0000 C   0  0  0  0  0  0  0  0  0  0  0  0
   -1.6959    1.4400    0.0000 C   0  0  0  0  0  0  0  0  0  0  0  0
    1.1550    1.4400    0.0000 C   0  0  0  0  0  0  0  0  0  0  0  0
   -0.2632    2.2587    0.0000 C   0  0  0  0  0  0  0  0  0  0  0  0
   -0.9795    0.2120    0.0000 C   0  0  0  0  0  0  0  0  0  0  0  0
    0.4532    1.0306    0.0000 C   0  0  0  0  0  0  0  0  0  0  0  0
    1.1695    2.2587    0.0000 C   0  0  0  0  0  0  0  0  0  0  0  0
   -3.1285    2.2587    0.0000 C   0  0  0  0  0  0  0  0  0  0  0  0
   -3.8302    1.0306    0.0000 C   0  0  0  0  0  0  0  0  0  0  0  0
    3.5232    0.9429    0.0000 C   0  0  0  0  0  0  0  0  0  0  0  0
   -1.6959   -1.0306    0.0000 C   0  0  0  0  0  0  0  0  0  0  0  0
   -0.9941    2.6533    0.0000 C   0  0  0  0  0  0  0  0  0  0  0  0
   -3.8595    2.6680    0.0000 C   0  0  0  0  0  0  0  0  0  0  0  0
   -4.5612    1.4400    0.0000 C   0  0  0  0  0  0  0  0  0  0  0  0
  1 20  1  0  0  0  0
  2 20  1  0  0  0  0
  3 20  1  0  0  0  0
  4 19  2  0  0  0  0
  5 21  2  0  0  0  0
  6 33  1  0  0  0  0
  6 34  1  0  0  0  0
  7  8  1  0  0  0  0
  7 13  1  0  0  0  0
  7 30  1  0  0  0  0
  8 15  2  0  0  0  0
  9 21  1  0  0  0  0
  9 25  1  0  0  0  0
  9 31  1  0  0  0  0
 10 17  1  0  0  0  0
 10 28  1  0  0  0  0
 10 29  1  0  0  0  0
 11 19  1  0  0  0  0
 11 23  1  0  0  0  0
 12 24  1  0  0  0  0
 12 27  2  0  0  0  0
 13 18  2  0  0  0  0
 13 19  1  0  0  0  0
 14 16  1  0  0  0  0
 14 22  1  0  0  0  0
 14 25  2  0  0  0  0
 15 18  1  0  0  0  0
 15 20  1  0  0  0  0
 16 24  2  0  0  0  0
 16 26  1  0  0  0  0
 17 21  1  0  0  0  0
 17 22  2  0  0  0  0
 23 26  2  0  0  0  0
 23 27  1  0  0  0  0
 24 32  1  0  0  0  0
 28 33  1  0  0  0  0
 29 34  1  0  0  0  0
M  END
> <PUBCHEM_COMPOUND_ID_TYPE>
0

> <PUBCHEM_TOTAL_CHARGE>
0

> <PUBCHEM_SUBSTANCE_ID>
310943153

> <PUBCHEM_SUBSTANCE_VERSION>
1

> <PUBCHEM_EXT_DATASOURCE_NAME>
4488

> <PUBCHEM_EXT_DATASOURCE_REGID>
SCHEMBL16121213

> <PUBCHEM_SUBSTANCE_COMMENT>
InChI=1S/C22H23F3N6O3/c1-13-16(14-8-18(21(33)29(2)12-14)31-4-6-34-7-5-31)9-15(11-26-13)27-20(32)17-10-19(22(23,24)25)28-30(17)3/h8-12H,4-7H2,1-3H3,(H,27,32)
InChIKey=UKLZDUBISMZLGY-UHFFFAOYSA-N

> <PUBCHEM_SUBSTANCE_SYNONYM>
SCHEMBL16121213

> <PUBCHEM_XREF_EXT_ID>
SCHEMBL16121213

> <PUBCHEM_EXT_DATASOURCE_URL>
https://www.surechembl.org/

> <PUBCHEM_EXT_SUBSTANCE_URL>
https://www.surechembl.org/chemical/SCHEMBL16121213

> <PUBCHEM_CID_ASSOCIATIONS>
117609583  1

> <PUBCHEM_COORDINATE_TYPE>
1
3

$$$$
