310949140
  -OEChem-07211613022D

 18 19  0     0  0  0  0  0  0999 V2000
    0.3650    0.1200    0.0000 O   0  0  0  0  0  0  0  0  0  0  0  0
   -0.9352   -0.0100    0.0000 O   0  0  0  0  0  0  0  0  0  0  0  0
   -2.4455   -0.7602    0.0000 N   0  0  0  0  0  0  0  0  0  0  0  0
   -0.3051   -1.0903    0.0000 C   0  0  0  0  0  0  0  0  0  0  0  0
   -1.0152   -1.5103    0.0000 C   0  0  0  0  0  0  0  0  0  0  0  0
   -0.2950   -0.2900    0.0000 C   0  0  0  0  0  0  0  0  0  0  0  0
    0.4251   -1.5303    0.0000 C   0  0  0  0  0  0  0  0  0  0  0  0
   -1.0152   -2.3305    0.0000 C   0  0  0  0  0  0  0  0  0  0  0  0
    1.0052    1.4402    0.0000 C   0  0  0  0  0  0  0  0  0  0  0  0
   -1.7354   -1.1202    0.0000 C   0  0  0  0  0  0  0  0  0  0  0  0
    0.4050   -2.3405    0.0000 C   0  0  0  0  0  0  0  0  0  0  0  0
    0.3150    1.0002    0.0000 C   0  0  0  0  0  0  0  0  0  0  0  0
   -0.3051   -2.7507    0.0000 C   0  0  0  0  0  0  0  0  0  0  0  0
    1.7654    1.0802    0.0000 C   0  0  0  0  0  0  0  0  0  0  0  0
    0.9352    2.2605    0.0000 C   0  0  0  0  0  0  0  0  0  0  0  0
    2.4455    1.5503    0.0000 C   0  0  0  0  0  0  0  0  0  0  0  0
    1.6153    2.7507    0.0000 C   0  0  0  0  0  0  0  0  0  0  0  0
    2.3755    2.3905    0.0000 C   0  0  0  0  0  0  0  0  0  0  0  0
  1  6  1  0  0  0  0
  1 12  1  0  0  0  0
  2  6  2  0  0  0  0
  3 10  3  0  0  0  0
  4  5  1  0  0  0  0
  4  6  1  0  0  0  0
  4  7  2  0  0  0  0
  5  8  2  0  0  0  0
  5 10  1  0  0  0  0
  7 11  1  0  0  0  0
  8 13  1  0  0  0  0
  9 12  1  0  0  0  0
  9 14  2  0  0  0  0
  9 15  1  0  0  0  0
 11 13  2  0  0  0  0
 14 16  1  0  0  0  0
 15 17  2  0  0  0  0
 16 18  2  0  0  0  0
 17 18  1  0  0  0  0
M  END
> <PUBCHEM_COMPOUND_ID_TYPE>
0

> <PUBCHEM_TOTAL_CHARGE>
0

> <PUBCHEM_SUBSTANCE_ID>
310949140

> <PUBCHEM_SUBSTANCE_VERSION>
1

> <PUBCHEM_EXT_DATASOURCE_NAME>
4488

> <PUBCHEM_EXT_DATASOURCE_REGID>
SCHEMBL16127330

> <PUBCHEM_SUBSTANCE_COMMENT>
InChI=1S/C15H11NO2/c16-10-13-8-4-5-9-14(13)15(17)18-11-12-6-2-1-3-7-12/h1-9H,11H2
InChIKey=ILEXARKWTOTKSO-UHFFFAOYSA-N

> <PUBCHEM_SUBSTANCE_SYNONYM>
SCHEMBL16127330

> <PUBCHEM_XREF_EXT_ID>
SCHEMBL16127330

> <PUBCHEM_EXT_DATASOURCE_URL>
https://www.surechembl.org/

> <PUBCHEM_EXT_SUBSTANCE_URL>
https://www.surechembl.org/chemical/SCHEMBL16127330

> <PUBCHEM_CID_ASSOCIATIONS>
101878789  1

> <PUBCHEM_COORDINATE_TYPE>
1
3

$$$$
