310937827
  -OEChem-07211613022D

 25 28  0     1  0  0  0  0  0999 V2000
    2.5737   -4.5652    0.0000 O   0  0  0  0  0  0  0  0  0  0  0  0
    4.1975   -1.9915    0.0000 O   0  0  0  0  0  0  0  0  0  0  0  0
    1.3174   -4.1669    0.0000 N   0  0  0  0  0  0  0  0  0  0  0  0
    1.8077   -2.5430    0.0000 N   0  0  0  0  0  0  0  0  0  0  0  0
    2.0834   -5.2392    0.0000 N   0  0  0  0  0  0  0  0  0  0  0  0
    5.8520   -1.5319    0.0000 N   0  0  0  0  0  0  0  0  0  0  0  0
    2.8494   -1.5932    0.0000 C   0  0  0  0  0  0  0  0  0  0  0  0
    2.3592   -3.1251    0.0000 C   0  0  0  0  0  0  0  0  0  0  0  0
    2.0834   -3.9218    0.0000 C   0  0  0  0  0  0  0  0  0  0  0  0
    3.4009   -2.1753    0.0000 C   0  0  0  0  0  0  0  0  0  0  0  0
    3.0945   -0.7966    0.0000 C   0  0  0  0  0  0  0  0  0  0  0  0
    1.3174   -4.9941    0.0000 C   0  0  0  0  0  0  0  0  0  0  0  0
    3.1558   -2.9720    0.0000 C   0  0  0  0  0  0  0  0  0  0  0  0
    0.6434   -5.4537    0.0000 C   0  0  0  0  0  0  0  0  0  0  0  0
    2.0221   -1.7464    0.0000 C   0  0  0  0  0  0  0  0  0  0  0  0
    2.9413    0.0000    0.0000 C   0  0  0  0  0  0  0  0  0  0  0  0
    3.7379   -0.2451    0.0000 C   0  0  0  0  0  0  0  0  0  0  0  0
    4.4426   -1.1949    0.0000 C   0  0  0  0  0  0  0  0  0  0  0  0
    0.1532   -4.7796    0.0000 C   0  0  0  0  0  0  0  0  0  0  0  0
    0.0000   -5.9439    0.0000 C   0  0  0  0  0  0  0  0  0  0  0  0
    1.1336   -6.1277    0.0000 C   0  0  0  0  0  0  0  0  0  0  0  0
    5.2392   -1.0111    0.0000 C   0  0  3  0  0  0  0  0  0  0  0  0
    5.5456   -0.2451    0.0000 C   0  0  0  0  0  0  0  0  0  0  0  0
    6.5567   -1.1336    0.0000 C   0  0  0  0  0  0  0  0  0  0  0  0
    6.3728   -0.3371    0.0000 C   0  0  0  0  0  0  0  0  0  0  0  0
  1  5  1  0  0  0  0
  1  9  1  0  0  0  0
  2 10  1  0  0  0  0
  2 18  1  0  0  0  0
  3  9  2  0  0  0  0
  3 12  1  0  0  0  0
  4  8  1  0  0  0  0
  4 15  2  0  0  0  0
  5 12  2  0  0  0  0
  6 22  1  0  0  0  0
  6 24  1  0  0  0  0
  7 10  2  0  0  0  0
  7 11  1  0  0  0  0
  7 15  1  0  0  0  0
  8  9  1  0  0  0  0
  8 13  2  0  0  0  0
 10 13  1  0  0  0  0
 11 16  1  0  0  0  0
 11 17  1  0  0  0  0
 12 14  1  0  0  0  0
 14 19  1  0  0  0  0
 14 20  1  0  0  0  0
 14 21  1  0  0  0  0
 16 17  1  0  0  0  0
 22 18  1  6  0  0  0
 22 23  1  0  0  0  0
 23 25  1  0  0  0  0
 24 25  1  0  0  0  0
M  END
> <PUBCHEM_COMPOUND_ID_TYPE>
0

> <PUBCHEM_TOTAL_CHARGE>
0

> <PUBCHEM_SUBSTANCE_ID>
310937827

> <PUBCHEM_SUBSTANCE_VERSION>
1

> <PUBCHEM_EXT_DATASOURCE_NAME>
4488

> <PUBCHEM_EXT_DATASOURCE_REGID>
SCHEMBL16115646

> <PUBCHEM_SUBSTANCE_COMMENT>
InChI=1S/C19H26N4O2/c1-19(2,3)18-22-17(25-23-18)15-9-16(14(10-21-15)12-6-7-12)24-11-13-5-4-8-20-13/h9-10,12-13,20H,4-8,11H2,1-3H3/t13-/m0/s1
InChIKey=MNNSFSSDGBUESQ-ZDUSSCGKSA-N

> <PUBCHEM_SUBSTANCE_SYNONYM>
SCHEMBL16115646

> <PUBCHEM_XREF_EXT_ID>
SCHEMBL16115646

> <PUBCHEM_EXT_DATASOURCE_URL>
https://www.surechembl.org/

> <PUBCHEM_EXT_SUBSTANCE_URL>
https://www.surechembl.org/chemical/SCHEMBL16115646

> <PUBCHEM_CID_ASSOCIATIONS>
117605469  1

> <PUBCHEM_COORDINATE_TYPE>
1
3

> <PUBCHEM_BONDANNOTATIONS>
22  18  6

$$$$
