310943377
  -OEChem-07211613022D

 34 37  0     0  0  0  0  0  0999 V2000
   -2.4854   -1.8713    0.0000 O   0  0  0  0  0  0  0  0  0  0  0  0
    1.0672   -0.6286    0.0000 O   0  0  0  0  0  0  0  0  0  0  0  0
   -5.3362    1.4620    0.0000 O   0  0  0  0  0  0  0  0  0  0  0  0
    5.3362    0.2047    0.0000 O   0  0  0  0  0  0  0  0  0  0  0  0
   -3.2164   -0.6286    0.0000 N   0  0  0  0  0  0  0  0  0  0  0  0
   -3.9180    0.6286    0.0000 N   0  0  0  0  0  0  0  0  0  0  0  0
    1.7690    0.6286    0.0000 N   0  0  0  0  0  0  0  0  0  0  0  0
   -1.7690    0.2047    0.0000 C   0  0  0  0  0  0  0  0  0  0  0  0
   -1.0672    0.6286    0.0000 C   0  0  0  0  0  0  0  0  0  0  0  0
   -3.2017    0.2193    0.0000 C   0  0  0  0  0  0  0  0  0  0  0  0
   -2.4854    0.6286    0.0000 C   0  0  0  0  0  0  0  0  0  0  0  0
   -2.4854   -1.0088    0.0000 C   0  0  0  0  0  0  0  0  0  0  0  0
   -1.7836   -0.6286    0.0000 C   0  0  0  0  0  0  0  0  0  0  0  0
   -1.0672    1.4620    0.0000 C   0  0  0  0  0  0  0  0  0  0  0  0
    0.3509    0.6433    0.0000 C   0  0  0  0  0  0  0  0  0  0  0  0
   -0.3509    0.2193    0.0000 C   0  0  0  0  0  0  0  0  0  0  0  0
    1.0672    0.2339    0.0000 C   0  0  0  0  0  0  0  0  0  0  0  0
   -0.3509    1.8567    0.0000 C   0  0  0  0  0  0  0  0  0  0  0  0
    0.3509    1.4474    0.0000 C   0  0  0  0  0  0  0  0  0  0  0  0
    2.5000    0.2193    0.0000 C   0  0  0  0  0  0  0  0  0  0  0  0
   -3.9180    1.4620    0.0000 C   0  0  0  0  0  0  0  0  0  0  0  0
   -4.6052    0.2193    0.0000 C   0  0  0  0  0  0  0  0  0  0  0  0
    3.9180    0.2047    0.0000 C   0  0  0  0  0  0  0  0  0  0  0  0
   -3.9034   -1.0672    0.0000 C   0  0  0  0  0  0  0  0  0  0  0  0
    4.6198    0.6579    0.0000 C   0  0  0  0  0  0  0  0  0  0  0  0
    3.2017    0.6140    0.0000 C   0  0  0  0  0  0  0  0  0  0  0  0
   -1.7836    1.8713    0.0000 C   0  0  0  0  0  0  0  0  0  0  0  0
    2.5000   -0.6140    0.0000 C   0  0  0  0  0  0  0  0  0  0  0  0
    3.9034   -0.6140    0.0000 C   0  0  0  0  0  0  0  0  0  0  0  0
   -4.6490    1.8713    0.0000 C   0  0  0  0  0  0  0  0  0  0  0  0
   -5.3362    0.6140    0.0000 C   0  0  0  0  0  0  0  0  0  0  0  0
    3.2017   -1.0380    0.0000 C   0  0  0  0  0  0  0  0  0  0  0  0
    4.6198    1.4620    0.0000 C   0  0  0  0  0  0  0  0  0  0  0  0
    5.0292    1.3596    0.0000 C   0  0  0  0  0  0  0  0  0  0  0  0
  1 12  2  0  0  0  0
  2 17  2  0  0  0  0
  3 30  1  0  0  0  0
  3 31  1  0  0  0  0
  4 25  1  0  0  0  0
  5 10  1  0  0  0  0
  5 12  1  0  0  0  0
  5 24  1  0  0  0  0
  6 10  1  0  0  0  0
  6 21  1  0  0  0  0
  6 22  1  0  0  0  0
  7 17  1  0  0  0  0
  7 20  1  0  0  0  0
  8  9  1  0  0  0  0
  8 11  1  0  0  0  0
  8 13  2  0  0  0  0
  9 14  2  0  0  0  0
  9 16  1  0  0  0  0
 10 11  2  0  0  0  0
 12 13  1  0  0  0  0
 14 18  1  0  0  0  0
 14 27  1  0  0  0  0
 15 16  2  0  0  0  0
 15 17  1  0  0  0  0
 15 19  1  0  0  0  0
 18 19  2  0  0  0  0
 20 26  1  0  0  0  0
 20 28  2  0  0  0  0
 21 30  1  0  0  0  0
 22 31  1  0  0  0  0
 23 25  1  0  0  0  0
 23 26  2  0  0  0  0
 23 29  1  0  0  0  0
 25 33  1  0  0  0  0
 25 34  1  0  0  0  0
 28 32  1  0  0  0  0
 29 32  2  0  0  0  0
M  END
> <PUBCHEM_COMPOUND_ID_TYPE>
0

> <PUBCHEM_TOTAL_CHARGE>
0

> <PUBCHEM_SUBSTANCE_ID>
310943377

> <PUBCHEM_SUBSTANCE_VERSION>
1

> <PUBCHEM_EXT_DATASOURCE_NAME>
4488

> <PUBCHEM_EXT_DATASOURCE_REGID>
SCHEMBL16121440

> <PUBCHEM_SUBSTANCE_COMMENT>
InChI=1S/C27H31N3O4/c1-18-8-9-19(26(32)28-22-7-5-6-21(17-22)27(2,3)33)14-23(18)20-15-24(29(4)25(31)16-20)30-10-12-34-13-11-30/h5-9,14-17,33H,10-13H2,1-4H3,(H,28,32)
InChIKey=JOFFPKFVUXJPEK-UHFFFAOYSA-N

> <PUBCHEM_SUBSTANCE_SYNONYM>
SCHEMBL16121440

> <PUBCHEM_XREF_EXT_ID>
SCHEMBL16121440

> <PUBCHEM_EXT_DATASOURCE_URL>
https://www.surechembl.org/

> <PUBCHEM_EXT_SUBSTANCE_URL>
https://www.surechembl.org/chemical/SCHEMBL16121440

> <PUBCHEM_CID_ASSOCIATIONS>
117609801  1

> <PUBCHEM_COORDINATE_TYPE>
1
3

$$$$
