310946660
  -OEChem-07211613022D

 16 17  0     0  0  0  0  0  0999 V2000
    1.0575   11.1421    0.0000 O   0  0  0  0  0  0  0  0  0  0  0  0
   -0.3714   10.3171    0.0000 O   0  0  0  0  0  0  0  0  0  0  0  0
   -1.8004   10.3171    0.0000 O   0  0  0  0  0  0  0  0  0  0  0  0
   -2.5149   12.3796    0.0000 O   0  0  0  0  0  0  0  0  0  0  0  0
    0.3430   11.5546    0.0000 C   0  0  0  0  0  0  0  0  0  0  0  0
   -0.3714   11.1421    0.0000 C   0  0  0  0  0  0  0  0  0  0  0  0
    0.3430   12.3796    0.0000 C   0  0  0  0  0  0  0  0  0  0  0  0
   -1.0859   11.5546    0.0000 C   0  0  0  0  0  0  0  0  0  0  0  0
   -1.0859   12.3796    0.0000 C   0  0  0  0  0  0  0  0  0  0  0  0
   -0.3714   12.7921    0.0000 C   0  0  0  0  0  0  0  0  0  0  0  0
    1.0575   12.7921    0.0000 C   0  0  0  0  0  0  0  0  0  0  0  0
    1.7720   11.5546    0.0000 C   0  0  0  0  0  0  0  0  0  0  0  0
    1.7720   12.3796    0.0000 C   0  0  0  0  0  0  0  0  0  0  0  0
   -1.8004   11.1421    0.0000 C   0  0  0  0  0  0  0  0  0  0  0  0
   -1.8004   12.7921    0.0000 C   0  0  0  0  0  0  0  0  0  0  0  0
    2.4864   11.1421    0.0000 C   0  0  0  0  0  0  0  0  0  0  0  0
  1  5  1  0  0  0  0
  1 12  1  0  0  0  0
  2  6  1  0  0  0  0
  3 14  1  0  0  0  0
  4 15  1  0  0  0  0
  5  6  2  0  0  0  0
  5  7  1  0  0  0  0
  6  8  1  0  0  0  0
  7 10  2  0  0  0  0
  7 11  1  0  0  0  0
  8  9  2  0  0  0  0
  8 14  1  0  0  0  0
  9 10  1  0  0  0  0
  9 15  1  0  0  0  0
 11 13  2  0  0  0  0
 12 13  1  0  0  0  0
 12 16  2  0  0  0  0
M  END
> <PUBCHEM_COMPOUND_ID_TYPE>
0

> <PUBCHEM_TOTAL_CHARGE>
0

> <PUBCHEM_SUBSTANCE_ID>
310946660

> <PUBCHEM_SUBSTANCE_VERSION>
1

> <PUBCHEM_EXT_DATASOURCE_NAME>
4488

> <PUBCHEM_EXT_DATASOURCE_REGID>
SCHEMBL16124781

> <PUBCHEM_SUBSTANCE_COMMENT>
InChI=1S/C12H12O4/c1-7-2-3-8-4-9(5-13)10(6-14)11(15)12(8)16-7/h2-4,13-15H,1,5-6H2
InChIKey=STALICFKXUOFHM-UHFFFAOYSA-N

> <PUBCHEM_SUBSTANCE_SYNONYM>
SCHEMBL16124781

> <PUBCHEM_XREF_EXT_ID>
SCHEMBL16124781

> <PUBCHEM_EXT_DATASOURCE_URL>
https://www.surechembl.org/

> <PUBCHEM_EXT_SUBSTANCE_URL>
https://www.surechembl.org/chemical/SCHEMBL16124781

> <PUBCHEM_CID_ASSOCIATIONS>
117612560  1

> <PUBCHEM_COORDINATE_TYPE>
1
3

$$$$
