310931623
  -OEChem-07211613022D

 34 38  0     1  0  0  0  0  0999 V2000
    4.9902   -5.8690    0.0000 F   0  0  0  0  0  0  0  0  0  0  0  0
    0.7219   -5.0216    0.0000 F   0  0  0  0  0  0  0  0  0  0  0  0
    2.1341   -5.0216    0.0000 F   0  0  0  0  0  0  0  0  0  0  0  0
    1.4437   -5.4295    0.0000 F   0  0  0  0  0  0  0  0  0  0  0  0
    3.5779   -5.8690    0.0000 O   0  0  0  0  0  0  0  0  0  0  0  0
    2.8560   -4.6136    0.0000 N   0  0  0  0  0  0  0  0  0  0  0  0
    3.5779   -3.3896    0.0000 N   0  0  0  0  0  0  0  0  0  0  0  0
    2.1656   -2.5735    0.0000 N   0  0  0  0  0  0  0  0  0  0  0  0
    0.7532   -2.5735    0.0000 N   0  0  0  0  0  0  0  0  0  0  0  0
    2.0714   -0.7532    0.0000 N   0  0  0  0  0  0  0  0  0  0  0  0
    0.0314   -1.3182    0.0000 N   0  0  0  0  0  0  0  0  0  0  0  0
    0.9102   -0.0942    0.0000 N   0  0  0  0  0  0  0  0  0  0  0  0
    2.8560   -3.7976    0.0000 C   0  0  0  0  0  0  0  0  0  0  0  0
    4.2997   -4.6136    0.0000 C   0  0  0  0  0  0  0  0  0  0  0  0
    3.5779   -5.0216    0.0000 C   0  0  0  0  0  0  0  0  0  0  0  0
    4.2997   -3.7976    0.0000 C   0  0  0  0  0  0  0  0  0  0  0  0
    2.1341   -3.3896    0.0000 C   0  0  3  0  0  0  0  0  0  0  0  0
    2.3224   -5.2099    0.0000 C   0  0  0  0  0  0  0  0  0  0  0  0
    4.9902   -5.0216    0.0000 C   0  0  0  0  0  0  0  0  0  0  0  0
    1.4437   -2.1656    0.0000 C   0  0  0  0  0  0  0  0  0  0  0  0
    1.4751   -1.3182    0.0000 C   0  0  0  0  0  0  0  0  0  0  0  0
    4.9902   -3.3896    0.0000 C   0  0  0  0  0  0  0  0  0  0  0  0
    1.4437   -3.7976    0.0000 C   0  0  0  0  0  0  0  0  0  0  0  0
    0.7219   -0.9102    0.0000 C   0  0  0  0  0  0  0  0  0  0  0  0
    5.7120   -4.6136    0.0000 C   0  0  0  0  0  0  0  0  0  0  0  0
    2.1341   -5.8690    0.0000 C   0  0  0  0  0  0  0  0  0  0  0  0
    1.6006   -4.8019    0.0000 C   0  0  0  0  0  0  0  0  0  0  0  0
    1.4437   -4.6136    0.0000 C   0  0  0  0  0  0  0  0  0  0  0  0
    5.7120   -3.7976    0.0000 C   0  0  0  0  0  0  0  0  0  0  0  0
    0.0000   -2.1341    0.0000 C   0  0  0  0  0  0  0  0  0  0  0  0
    1.7261    0.0000    0.0000 C   0  0  0  0  0  0  0  0  0  0  0  0
    1.4437   -6.2769    0.0000 C   0  0  0  0  0  0  0  0  0  0  0  0
    0.8788   -5.2099    0.0000 C   0  0  0  0  0  0  0  0  0  0  0  0
    0.7219   -5.8690    0.0000 C   0  0  0  0  0  0  0  0  0  0  0  0
  1 19  1  0  0  0  0
  2 28  1  0  0  0  0
  3 28  1  0  0  0  0
  4 28  1  0  0  0  0
  5 15  2  0  0  0  0
  6 13  1  0  0  0  0
  6 15  1  0  0  0  0
  6 18  1  0  0  0  0
  7 13  2  0  0  0  0
  7 16  1  0  0  0  0
 17  8  1  6  0  0  0
  8 20  1  0  0  0  0
  9 20  2  0  0  0  0
  9 30  1  0  0  0  0
 10 21  1  0  0  0  0
 10 31  2  0  0  0  0
 11 24  1  0  0  0  0
 11 30  2  0  0  0  0
 12 24  1  0  0  0  0
 12 31  1  0  0  0  0
 13 17  1  0  0  0  0
 14 15  1  0  0  0  0
 14 16  2  0  0  0  0
 14 19  1  0  0  0  0
 16 22  1  0  0  0  0
 17 23  1  0  0  0  0
 18 26  2  0  0  0  0
 18 27  1  0  0  0  0
 19 25  2  0  0  0  0
 20 21  1  0  0  0  0
 21 24  2  0  0  0  0
 22 29  2  0  0  0  0
 23 28  1  0  0  0  0
 25 29  1  0  0  0  0
 26 32  1  0  0  0  0
 27 33  2  0  0  0  0
 32 34  2  0  0  0  0
 33 34  1  0  0  0  0
M  END
> <PUBCHEM_COMPOUND_ID_TYPE>
0

> <PUBCHEM_TOTAL_CHARGE>
0

> <PUBCHEM_SUBSTANCE_ID>
310931623

> <PUBCHEM_SUBSTANCE_VERSION>
1

> <PUBCHEM_EXT_DATASOURCE_NAME>
4488

> <PUBCHEM_EXT_DATASOURCE_REGID>
SCHEMBL16108949

> <PUBCHEM_SUBSTANCE_COMMENT>
InChI=1S/C22H15F4N7O/c23-13-7-4-8-14-16(13)21(34)33(12-5-2-1-3-6-12)20(32-14)15(9-22(24,25)26)31-19-17-18(28-10-27-17)29-11-30-19/h1-8,10-11,15H,9H2,(H2,27,28,29,30,31)/t15-/m0/s1
InChIKey=IVSMCBIKTGTBSI-HNNXBMFYSA-N

> <PUBCHEM_SUBSTANCE_SYNONYM>
SCHEMBL16108949

> <PUBCHEM_XREF_EXT_ID>
SCHEMBL16108949

> <PUBCHEM_EXT_DATASOURCE_URL>
https://www.surechembl.org/

> <PUBCHEM_EXT_SUBSTANCE_URL>
https://www.surechembl.org/chemical/SCHEMBL16108949

> <PUBCHEM_CID_ASSOCIATIONS>
86272144  1

> <PUBCHEM_COORDINATE_TYPE>
1
3

> <PUBCHEM_BONDANNOTATIONS>
17  8  6

$$$$
