310932926
  -OEChem-07211613022D

 33 36  0     0  0  0  0  0  0999 V2000
    4.0837   -2.7637    0.0000 O   0  0  0  0  0  0  0  0  0  0  0  0
    8.5801   -2.8462    0.0000 O   0  0  0  0  0  0  0  0  0  0  0  0
    4.9912   -1.6087    0.0000 N   0  0  0  0  0  0  0  0  0  0  0  0
    4.9087   -0.7837    0.0000 N   0  0  0  0  0  0  0  0  0  0  0  0
    6.4351   -1.6087    0.0000 N   0  0  0  0  0  0  0  0  0  0  0  0
    7.8788   -4.0837    0.0000 N   0  0  0  0  0  0  0  0  0  0  0  0
    0.0000   -2.4750    0.0000 N   0  0  0  0  0  0  0  0  0  0  0  0
    9.3226   -6.6001    0.0000 N   0  0  0  0  0  0  0  0  0  0  0  0
    3.6712   -1.3200    0.0000 C   0  0  0  0  0  0  0  0  0  0  0  0
    4.2487   -1.9387    0.0000 C   0  0  0  0  0  0  0  0  0  0  0  0
    2.8462   -1.4437    0.0000 C   0  0  0  0  0  0  0  0  0  0  0  0
    5.6926   -2.0212    0.0000 C   0  0  0  0  0  0  0  0  0  0  0  0
    4.0837   -0.6187    0.0000 C   0  0  0  0  0  0  0  0  0  0  0  0
    2.3512   -0.7837    0.0000 C   0  0  0  0  0  0  0  0  0  0  0  0
    2.5162   -2.1862    0.0000 C   0  0  0  0  0  0  0  0  0  0  0  0
    5.6926   -2.8462    0.0000 C   0  0  0  0  0  0  0  0  0  0  0  0
    7.1363   -2.8462    0.0000 C   0  0  0  0  0  0  0  0  0  0  0  0
    1.5262   -0.8662    0.0000 C   0  0  0  0  0  0  0  0  0  0  0  0
    1.1962   -1.6087    0.0000 C   0  0  0  0  0  0  0  0  0  0  0  0
    7.1363   -2.0212    0.0000 C   0  0  0  0  0  0  0  0  0  0  0  0
    6.4351   -3.2587    0.0000 C   0  0  0  0  0  0  0  0  0  0  0  0
    1.6500   -2.2687    0.0000 C   0  0  0  0  0  0  0  0  0  0  0  0
    7.8788   -3.2587    0.0000 C   0  0  0  0  0  0  0  0  0  0  0  0
    2.6812    0.0000    0.0000 C   0  0  0  0  0  0  0  0  0  0  0  0
    0.3300   -1.7325    0.0000 C   0  0  0  0  0  0  0  0  0  0  0  0
    8.5801   -4.4962    0.0000 C   0  0  0  0  0  0  0  0  0  0  0  0
    8.6213   -5.3626    0.0000 C   0  0  0  0  0  0  0  0  0  0  0  0
    9.3226   -5.7751    0.0000 C   0  0  0  0  0  0  0  0  0  0  0  0
   10.0651   -7.0126    0.0000 C   0  0  0  0  0  0  0  0  0  0  0  0
    8.6213   -7.0126    0.0000 C   0  0  0  0  0  0  0  0  0  0  0  0
   10.0651   -7.8376    0.0000 C   0  0  0  0  0  0  0  0  0  0  0  0
    8.6213   -7.8376    0.0000 C   0  0  0  0  0  0  0  0  0  0  0  0
    9.3226   -8.2501    0.0000 C   0  0  0  0  0  0  0  0  0  0  0  0
  1 10  1  0  0  0  0
  2 23  2  0  0  0  0
  3  4  1  0  0  0  0
  3 10  1  0  0  0  0
  3 12  1  0  0  0  0
  4 13  2  0  0  0  0
  5 12  2  0  0  0  0
  5 20  1  0  0  0  0
  6 23  1  0  0  0  0
  6 26  1  0  0  0  0
  7 25  3  0  0  0  0
  8 28  1  0  0  0  0
  8 29  1  0  0  0  0
  8 30  1  0  0  0  0
  9 10  2  0  0  0  0
  9 11  1  0  0  0  0
  9 13  1  0  0  0  0
 11 14  1  0  0  0  0
 11 15  2  0  0  0  0
 12 16  1  0  0  0  0
 14 18  2  0  0  0  0
 14 24  1  0  0  0  0
 15 22  1  0  0  0  0
 16 21  2  0  0  0  0
 17 20  2  0  0  0  0
 17 21  1  0  0  0  0
 17 23  1  0  0  0  0
 18 19  1  0  0  0  0
 19 22  2  0  0  0  0
 19 25  1  0  0  0  0
 26 27  1  0  0  0  0
 27 28  1  0  0  0  0
 29 31  1  0  0  0  0
 30 32  1  0  0  0  0
 31 33  1  0  0  0  0
 32 33  1  0  0  0  0
M  END
> <PUBCHEM_COMPOUND_ID_TYPE>
0

> <PUBCHEM_TOTAL_CHARGE>
0

> <PUBCHEM_SUBSTANCE_ID>
310932926

> <PUBCHEM_SUBSTANCE_VERSION>
1

> <PUBCHEM_EXT_DATASOURCE_NAME>
4488

> <PUBCHEM_EXT_DATASOURCE_REGID>
SCHEMBL16110321

> <PUBCHEM_SUBSTANCE_COMMENT>
InChI=1S/C25H28N6O2/c1-18-14-19(15-26)6-8-21(18)22-17-29-31(25(22)33)23-9-7-20(16-28-23)24(32)27-10-5-13-30-11-3-2-4-12-30/h6-9,14,16-17,33H,2-5,10-13H2,1H3,(H,27,32)
InChIKey=ISFJGQFFLAQCLE-UHFFFAOYSA-N

> <PUBCHEM_SUBSTANCE_SYNONYM>
SCHEMBL16110321

> <PUBCHEM_XREF_EXT_ID>
SCHEMBL16110321

> <PUBCHEM_EXT_DATASOURCE_URL>
https://www.surechembl.org/

> <PUBCHEM_EXT_SUBSTANCE_URL>
https://www.surechembl.org/chemical/SCHEMBL16110321

> <PUBCHEM_CID_ASSOCIATIONS>
117601408  1

> <PUBCHEM_COORDINATE_TYPE>
1
3

$$$$
