310930599
  -OEChem-07211613022D

 35 38  0     0  0  0  0  0  0999 V2000
    4.9821   -3.5724    0.0000 S   0  0  0  0  0  0  0  0  0  0  0  0
    7.4571   -5.0013    0.0000 F   0  0  0  0  0  0  0  0  0  0  0  0
    7.4571   -7.8592    0.0000 F   0  0  0  0  0  0  0  0  0  0  0  0
    8.2821   -7.8592    0.0000 F   0  0  0  0  0  0  0  0  0  0  0  0
    8.6946   -7.1447    0.0000 F   0  0  0  0  0  0  0  0  0  0  0  0
    4.2675   -3.9849    0.0000 O   0  0  0  0  0  0  0  0  0  0  0  0
    5.6965   -3.1599    0.0000 O   0  0  0  0  0  0  0  0  0  0  0  0
    0.7846    0.6674    0.0000 O   0  0  0  0  0  0  0  0  0  0  0  0
    6.6321   -6.4302    0.0000 O   0  0  0  0  0  0  0  0  0  0  0  0
    2.5071    0.7145    0.0000 O   0  0  0  0  0  0  0  0  0  0  0  0
    2.5071   -0.7145    0.0000 N   0  0  0  0  0  0  0  0  0  0  0  0
   -1.4290    0.4125    0.0000 N   0  0  0  0  0  0  0  0  0  0  0  0
    5.3946   -4.2868    0.0000 C   0  0  0  0  0  0  0  0  0  0  0  0
    4.5696   -2.8579    0.0000 C   0  0  0  0  0  0  0  0  0  0  0  0
    6.2196   -4.2868    0.0000 C   0  0  0  0  0  0  0  0  0  0  0  0
    6.6321   -5.0013    0.0000 C   0  0  0  0  0  0  0  0  0  0  0  0
    4.9821   -5.0013    0.0000 C   0  0  0  0  0  0  0  0  0  0  0  0
    6.2196   -5.7158    0.0000 C   0  0  0  0  0  0  0  0  0  0  0  0
    1.2696    0.0000    0.0000 C   0  0  0  0  0  0  0  0  0  0  0  0
    0.0000    0.4125    0.0000 C   0  0  0  0  0  0  0  0  0  0  0  0
    0.0000   -0.4125    0.0000 C   0  0  0  0  0  0  0  0  0  0  0  0
    3.7446   -2.8579    0.0000 C   0  0  0  0  0  0  0  0  0  0  0  0
    4.9821   -2.1434    0.0000 C   0  0  0  0  0  0  0  0  0  0  0  0
    5.3946   -5.7158    0.0000 C   0  0  0  0  0  0  0  0  0  0  0  0
    3.7446   -1.4290    0.0000 C   0  0  0  0  0  0  0  0  0  0  0  0
    0.7846   -0.6674    0.0000 C   0  0  0  0  0  0  0  0  0  0  0  0
    2.0946    0.0000    0.0000 C   0  0  0  0  0  0  0  0  0  0  0  0
    3.3321   -2.1434    0.0000 C   0  0  0  0  0  0  0  0  0  0  0  0
    4.5696   -1.4290    0.0000 C   0  0  0  0  0  0  0  0  0  0  0  0
   -0.7145    0.8250    0.0000 C   0  0  0  0  0  0  0  0  0  0  0  0
   -0.7145   -0.8250    0.0000 C   0  0  0  0  0  0  0  0  0  0  0  0
    3.3321   -0.7145    0.0000 C   0  0  0  0  0  0  0  0  0  0  0  0
   -1.4290   -0.4125    0.0000 C   0  0  0  0  0  0  0  0  0  0  0  0
    7.4571   -6.4302    0.0000 C   0  0  0  0  0  0  0  0  0  0  0  0
    7.8696   -7.1447    0.0000 C   0  0  0  0  0  0  0  0  0  0  0  0
  1  6  2  0  0  0  0
  1  7  2  0  0  0  0
  1 13  1  0  0  0  0
  1 14  1  0  0  0  0
  2 16  1  0  0  0  0
  3 35  1  0  0  0  0
  4 35  1  0  0  0  0
  5 35  1  0  0  0  0
  8 19  1  0  0  0  0
  8 20  1  0  0  0  0
  9 18  1  0  0  0  0
  9 34  1  0  0  0  0
 10 27  2  0  0  0  0
 11 27  1  0  0  0  0
 11 32  1  0  0  0  0
 12 30  2  0  0  0  0
 12 33  1  0  0  0  0
 13 15  1  0  0  0  0
 13 17  2  0  0  0  0
 14 22  2  0  0  0  0
 14 23  1  0  0  0  0
 15 16  2  0  0  0  0
 16 18  1  0  0  0  0
 17 24  1  0  0  0  0
 18 24  2  0  0  0  0
 19 26  2  0  0  0  0
 19 27  1  0  0  0  0
 20 21  2  0  0  0  0
 20 30  1  0  0  0  0
 21 26  1  0  0  0  0
 21 31  1  0  0  0  0
 22 28  1  0  0  0  0
 23 29  2  0  0  0  0
 25 28  2  0  0  0  0
 25 29  1  0  0  0  0
 25 32  1  0  0  0  0
 31 33  2  0  0  0  0
 34 35  1  0  0  0  0
M  END
> <PUBCHEM_COMPOUND_ID_TYPE>
0

> <PUBCHEM_TOTAL_CHARGE>
0

> <PUBCHEM_SUBSTANCE_ID>
310930599

> <PUBCHEM_SUBSTANCE_VERSION>
1

> <PUBCHEM_EXT_DATASOURCE_NAME>
4488

> <PUBCHEM_EXT_DATASOURCE_REGID>
SCHEMBL16107895

> <PUBCHEM_SUBSTANCE_COMMENT>
InChI=1S/C23H16F4N2O5S/c24-18-10-17(5-6-19(18)33-13-23(25,26)27)35(31,32)16-3-1-14(2-4-16)11-29-22(30)20-9-15-7-8-28-12-21(15)34-20/h1-10,12H,11,13H2,(H,29,30)
InChIKey=YLUGOEHLYWQXJS-UHFFFAOYSA-N

> <PUBCHEM_SUBSTANCE_SYNONYM>
SCHEMBL16107895

> <PUBCHEM_XREF_EXT_ID>
SCHEMBL16107895

> <PUBCHEM_EXT_DATASOURCE_URL>
https://www.surechembl.org/

> <PUBCHEM_EXT_SUBSTANCE_URL>
https://www.surechembl.org/chemical/SCHEMBL16107895

> <PUBCHEM_CID_ASSOCIATIONS>
90013099  1

> <PUBCHEM_COORDINATE_TYPE>
1
3

$$$$
