310945909
  -OEChem-07211613022D

 44 48  0     1  0  0  0  0  0999 V2000
    5.3834    0.9770    0.0000 O   0  0  0  0  0  0  0  0  0  0  0  0
    4.2610   -0.9770    0.0000 O   0  0  0  0  0  0  0  0  0  0  0  0
   -2.4319    0.9630    0.0000 O   0  0  0  0  0  0  0  0  0  0  0  0
    1.8777    0.9630    0.0000 O   0  0  0  0  0  0  0  0  0  0  0  0
   -0.2702   -1.1017    0.0000 O   0  0  0  0  0  0  0  0  0  0  0  0
    4.0394   -2.7644    0.0000 O   0  0  0  0  0  0  0  0  0  0  0  0
    2.5982   -0.2702    0.0000 N   0  0  0  0  0  0  0  0  0  0  0  0
   -1.7113   -0.2702    0.0000 N   0  0  0  0  0  0  0  0  0  0  0  0
    0.4504    0.1455    0.0000 N   0  0  0  0  0  0  0  0  0  0  0  0
    4.9678    0.2980    0.0000 C   0  0  3  0  0  0  0  0  0  0  0  0
    4.2471   -0.1178    0.0000 C   0  0  0  0  0  0  0  0  0  0  0  0
    4.5797    0.9908    0.0000 C   0  0  0  0  0  0  0  0  0  0  0  0
    3.5405    0.2840    0.0000 C   0  0  3  0  0  0  0  0  0  0  0  0
   -3.1386   -0.2425    0.0000 C   0  0  0  0  0  0  0  0  0  0  0  0
   -4.0532   -1.2402    0.0000 C   0  0  0  0  0  0  0  0  0  0  0  0
   -3.2633   -1.0600    0.0000 C   0  0  0  0  0  0  0  0  0  0  0  0
   -4.4550   -0.5335    0.0000 C   0  0  0  0  0  0  0  0  0  0  0  0
    5.6883   -0.1178    0.0000 C   0  0  0  0  0  0  0  0  0  0  0  0
   -3.9007    0.0624    0.0000 C   0  0  0  0  0  0  0  0  0  0  0  0
    3.5405    1.3649    0.0000 C   0  0  0  0  0  0  0  0  0  0  0  0
   -2.4319    0.1455    0.0000 C   0  0  0  0  0  0  0  0  0  0  0  0
    1.8777    0.1455    0.0000 C   0  0  0  0  0  0  0  0  0  0  0  0
    1.1709   -0.2425    0.0000 C   0  0  3  0  0  0  0  0  0  0  0  0
   -4.4550   -1.9607    0.0000 C   0  0  0  0  0  0  0  0  0  0  0  0
    2.8061    1.7807    0.0000 C   0  0  0  0  0  0  0  0  0  0  0  0
   -5.2864   -0.5335    0.0000 C   0  0  0  0  0  0  0  0  0  0  0  0
   -0.9908    0.1593    0.0000 C   0  0  3  0  0  0  0  0  0  0  0  0
   -0.2563   -0.2286    0.0000 C   0  0  0  0  0  0  0  0  0  0  0  0
   -2.6259   -1.6282    0.0000 C   0  0  0  0  0  0  0  0  0  0  0  0
   -5.2864   -1.9607    0.0000 C   0  0  0  0  0  0  0  0  0  0  0  0
    1.1570   -1.1017    0.0000 C   0  0  0  0  0  0  0  0  0  0  0  0
   -5.6883   -1.2541    0.0000 C   0  0  0  0  0  0  0  0  0  0  0  0
    1.9054   -1.4896    0.0000 C   0  0  0  0  0  0  0  0  0  0  0  0
    2.0855    1.4481    0.0000 C   0  0  0  0  0  0  0  0  0  0  0  0
    2.7229    2.5982    0.0000 C   0  0  0  0  0  0  0  0  0  0  0  0
    1.5173    2.0578    0.0000 C   0  0  0  0  0  0  0  0  0  0  0  0
    1.9331    2.7644    0.0000 C   0  0  0  0  0  0  0  0  0  0  0  0
    1.9054   -2.3210    0.0000 C   0  0  0  0  0  0  0  0  0  0  0  0
    2.5982   -1.0878    0.0000 C   0  0  0  0  0  0  0  0  0  0  0  0
   -0.9908    0.9770    0.0000 C   0  0  0  0  0  0  0  0  0  0  0  0
    3.3326   -2.3072    0.0000 C   0  0  0  0  0  0  0  0  0  0  0  0
    2.6120   -2.7229    0.0000 C   0  0  0  0  0  0  0  0  0  0  0  0
    3.3326   -1.5035    0.0000 C   0  0  0  0  0  0  0  0  0  0  0  0
    4.7876   -2.3349    0.0000 C   0  0  0  0  0  0  0  0  0  0  0  0
  1 10  1  0  0  0  0
  1 12  1  0  0  0  0
  2 11  2  0  0  0  0
  3 21  2  0  0  0  0
  4 22  2  0  0  0  0
  5 28  2  0  0  0  0
  6 41  1  0  0  0  0
  6 44  1  0  0  0  0
 13  7  1  1  0  0  0
  7 22  1  0  0  0  0
  8 21  1  0  0  0  0
  8 27  1  0  0  0  0
 23  9  1  6  0  0  0
  9 28  1  0  0  0  0
 10 11  1  1  0  0  0
 10 12  1  0  0  0  0
 10 18  1  6  0  0  0
 11 13  1  0  0  0  0
 13 20  1  0  0  0  0
 14 16  2  0  0  0  0
 14 19  1  0  0  0  0
 14 21  1  0  0  0  0
 15 16  1  0  0  0  0
 15 17  1  0  0  0  0
 15 24  2  0  0  0  0
 16 29  1  0  0  0  0
 17 19  1  0  0  0  0
 17 26  2  0  0  0  0
 20 25  1  0  0  0  0
 22 23  1  0  0  0  0
 23 31  1  0  0  0  0
 24 30  1  0  0  0  0
 25 34  1  0  0  0  0
 25 35  1  0  0  0  0
 26 32  1  0  0  0  0
 27 28  1  0  0  0  0
 27 40  1  6  0  0  0
 30 32  2  0  0  0  0
 31 33  1  0  0  0  0
 33 38  2  0  0  0  0
 33 39  1  0  0  0  0
 34 36  1  0  0  0  0
 35 37  1  0  0  0  0
 36 37  1  0  0  0  0
 38 42  1  0  0  0  0
 39 43  2  0  0  0  0
 41 42  2  0  0  0  0
 41 43  1  0  0  0  0
M  END
> <PUBCHEM_COMPOUND_ID_TYPE>
0

> <PUBCHEM_TOTAL_CHARGE>
0

> <PUBCHEM_SUBSTANCE_ID>
310945909

> <PUBCHEM_SUBSTANCE_VERSION>
1

> <PUBCHEM_EXT_DATASOURCE_NAME>
4488

> <PUBCHEM_EXT_DATASOURCE_REGID>
SCHEMBL16124014

> <PUBCHEM_SUBSTANCE_COMMENT>
InChI=1S/C35H43N3O6/c1-21-27-12-8-7-11-25(27)19-28(21)33(41)36-22(2)32(40)38-30(18-24-13-15-26(43-4)16-14-24)34(42)37-29(17-23-9-5-6-10-23)31(39)35(3)20-44-35/h7-8,11-16,22-23,29-30H,5-6,9-10,17-20H2,1-4H3,(H,36,41)(H,37,42)(H,38,40)/t22-,29+,30+,35-/m1/s1
InChIKey=ATFBKXYEIFHKQL-HWALQWPBSA-N

> <PUBCHEM_SUBSTANCE_SYNONYM>
SCHEMBL16124014

> <PUBCHEM_XREF_EXT_ID>
SCHEMBL16124014

> <PUBCHEM_EXT_DATASOURCE_URL>
https://www.surechembl.org/

> <PUBCHEM_EXT_SUBSTANCE_URL>
https://www.surechembl.org/chemical/SCHEMBL16124014

> <PUBCHEM_CID_ASSOCIATIONS>
117611893  1

> <PUBCHEM_COORDINATE_TYPE>
1
3

> <PUBCHEM_BONDANNOTATIONS>
10  11  5
10  18  6
27  40  6
13  7  5
23  9  6

$$$$
