310949812
  -OEChem-07211613022D

 22 23  0     0  0  0  0  0  0999 V2000
    2.5611   -1.8536    0.0000 F   0  0  0  0  0  0  0  0  0  0  0  0
   -1.0613   -1.4858    0.0000 O   0  0  0  0  0  0  0  0  0  0  0  0
   -1.1038    1.8677    0.0000 O   0  0  0  0  0  0  0  0  0  0  0  0
   -0.3679    0.6225    0.0000 O   0  0  0  0  0  0  0  0  0  0  0  0
    2.5329    0.6509    0.0000 O   0  0  0  0  0  0  0  0  0  0  0  0
   -0.3537   -0.2123    0.0000 N   0  0  0  0  0  0  0  0  0  0  0  0
   -1.8112   -0.2123    0.0000 C   0  0  0  0  0  0  0  0  0  0  0  0
   -1.8112    0.6084    0.0000 C   0  0  0  0  0  0  0  0  0  0  0  0
   -1.0754   -0.6225    0.0000 C   0  0  0  0  0  0  0  0  0  0  0  0
    0.3679   -0.6367    0.0000 C   0  0  0  0  0  0  0  0  0  0  0  0
    1.8112   -0.6084    0.0000 C   0  0  0  0  0  0  0  0  0  0  0  0
    1.0754   -0.2123    0.0000 C   0  0  0  0  0  0  0  0  0  0  0  0
    1.8253   -1.4291    0.0000 C   0  0  0  0  0  0  0  0  0  0  0  0
    0.3962   -1.4716    0.0000 C   0  0  0  0  0  0  0  0  0  0  0  0
   -2.5329   -0.6509    0.0000 C   0  0  0  0  0  0  0  0  0  0  0  0
   -1.1038    1.0188    0.0000 C   0  0  0  0  0  0  0  0  0  0  0  0
    1.0896   -1.8677    0.0000 C   0  0  0  0  0  0  0  0  0  0  0  0
    2.5187   -0.1981    0.0000 C   0  0  0  0  0  0  0  0  0  0  0  0
   -2.5611    1.0047    0.0000 C   0  0  0  0  0  0  0  0  0  0  0  0
   -3.2403   -0.2405    0.0000 C   0  0  0  0  0  0  0  0  0  0  0  0
   -3.2544    0.5660    0.0000 C   0  0  0  0  0  0  0  0  0  0  0  0
    3.2544   -0.5942    0.0000 C   0  0  0  0  0  0  0  0  0  0  0  0
  1 13  1  0  0  0  0
  2  9  2  0  0  0  0
  3 16  2  0  0  0  0
  4 16  1  0  0  0  0
  5 18  2  0  0  0  0
  6  9  1  0  0  0  0
  6 10  1  0  0  0  0
  7  8  1  0  0  0  0
  7  9  1  0  0  0  0
  7 15  2  0  0  0  0
  8 16  1  0  0  0  0
  8 19  2  0  0  0  0
 10 12  1  0  0  0  0
 10 14  2  0  0  0  0
 11 12  2  0  0  0  0
 11 13  1  0  0  0  0
 11 18  1  0  0  0  0
 13 17  2  0  0  0  0
 14 17  1  0  0  0  0
 15 20  1  0  0  0  0
 18 22  1  0  0  0  0
 19 21  1  0  0  0  0
 20 21  2  0  0  0  0
M  END
> <PUBCHEM_COMPOUND_ID_TYPE>
0

> <PUBCHEM_TOTAL_CHARGE>
0

> <PUBCHEM_SUBSTANCE_ID>
310949812

> <PUBCHEM_SUBSTANCE_VERSION>
1

> <PUBCHEM_EXT_DATASOURCE_NAME>
4488

> <PUBCHEM_EXT_DATASOURCE_REGID>
SCHEMBL16128012

> <PUBCHEM_SUBSTANCE_COMMENT>
InChI=1S/C16H12FNO4/c1-9(19)13-8-10(6-7-14(13)17)18-15(20)11-4-2-3-5-12(11)16(21)22/h2-8H,1H3,(H,18,20)(H,21,22)
InChIKey=APJXPXOVERHBJP-UHFFFAOYSA-N

> <PUBCHEM_SUBSTANCE_SYNONYM>
SCHEMBL16128012

> <PUBCHEM_XREF_EXT_ID>
SCHEMBL16128012

> <PUBCHEM_EXT_DATASOURCE_URL>
https://www.surechembl.org/

> <PUBCHEM_EXT_SUBSTANCE_URL>
https://www.surechembl.org/chemical/SCHEMBL16128012

> <PUBCHEM_CID_ASSOCIATIONS>
85472957  1

> <PUBCHEM_COORDINATE_TYPE>
1
3

$$$$
