310935108
  -OEChem-07211613022D

 35 40  0     1  0  0  0  0  0999 V2000
    6.4401   -3.9167    0.0000 O   0  0  0  0  0  0  0  0  0  0  0  0
    2.1555   -3.8904    0.0000 N   0  0  3  0  0  0  0  0  0  0  0  0
    0.7097   -3.9167    0.0000 N   0  0  0  0  0  0  0  0  0  0  0  0
    0.0000   -2.6549    0.0000 N   0  0  0  0  0  0  0  0  0  0  0  0
    3.7852    0.0000    0.0000 N   0  0  0  0  0  0  0  0  0  0  0  0
    4.1795   -0.7360    0.0000 N   0  0  0  0  0  0  0  0  0  0  0  0
    5.7304   -2.6549    0.0000 N   0  0  0  0  0  0  0  0  0  0  0  0
    7.8859   -2.2343    0.0000 N   0  0  0  0  0  0  0  0  0  0  0  0
    1.4457   -2.6549    0.0000 C   0  0  0  0  0  0  0  0  0  0  0  0
    1.4457   -3.4961    0.0000 C   0  0  0  0  0  0  0  0  0  0  0  0
    0.7360   -2.2343    0.0000 C   0  0  0  0  0  0  0  0  0  0  0  0
    2.1555   -1.4457    0.0000 C   0  0  0  0  0  0  0  0  0  0  0  0
    0.7097   -1.4457    0.0000 C   0  0  0  0  0  0  0  0  0  0  0  0
    2.1555   -2.2606    0.0000 C   0  0  0  0  0  0  0  0  0  0  0  0
    3.6012   -3.8904    0.0000 C   0  0  0  0  0  0  0  0  0  0  0  0
    2.8915   -3.4961    0.0000 C   0  0  0  0  0  0  0  0  0  0  0  0
    3.6012   -4.7315    0.0000 C   0  0  0  0  0  0  0  0  0  0  0  0
    1.4457   -1.0252    0.0000 C   0  0  0  0  0  0  0  0  0  0  0  0
    2.1555   -4.7315    0.0000 C   0  0  0  0  0  0  0  0  0  0  0  0
    2.8652   -1.0252    0.0000 C   0  0  0  0  0  0  0  0  0  0  0  0
    0.0000   -3.4961    0.0000 C   0  0  0  0  0  0  0  0  0  0  0  0
    2.8915   -5.1522    0.0000 C   0  0  0  0  0  0  0  0  0  0  0  0
    4.2847   -3.4961    0.0000 C   0  0  0  0  0  0  0  0  0  0  0  0
    5.0207   -3.8904    0.0000 C   0  0  0  0  0  0  0  0  0  0  0  0
    4.2847   -5.1522    0.0000 C   0  0  0  0  0  0  0  0  0  0  0  0
    5.0207   -4.7315    0.0000 C   0  0  0  0  0  0  0  0  0  0  0  0
    5.7304   -3.4961    0.0000 C   0  0  0  0  0  0  0  0  0  0  0  0
    0.0000   -1.0252    0.0000 C   0  0  0  0  0  0  0  0  0  0  0  0
    2.9703   -0.2103    0.0000 C   0  0  0  0  0  0  0  0  0  0  0  0
    3.6276   -1.3406    0.0000 C   0  0  0  0  0  0  0  0  0  0  0  0
    6.4401   -2.2606    0.0000 C   0  0  3  0  0  0  0  0  0  0  0  0
    7.1762   -2.6549    0.0000 C   0  0  0  0  0  0  0  0  0  0  0  0
    6.4665   -1.4195    0.0000 C   0  0  0  0  0  0  0  0  0  0  0  0
    7.1762   -0.9989    0.0000 C   0  0  0  0  0  0  0  0  0  0  0  0
    7.8859   -1.4195    0.0000 C   0  0  0  0  0  0  0  0  0  0  0  0
  1 27  2  0  0  0  0
  2 10  1  0  0  0  0
  2 16  1  0  0  0  0
  2 19  1  0  0  0  0
  3 10  1  0  0  0  0
  3 21  2  0  0  0  0
  4 11  2  0  0  0  0
  4 21  1  0  0  0  0
  5  6  1  0  0  0  0
  5 29  2  0  0  0  0
  6 30  1  0  0  0  0
  7 27  1  0  0  0  0
 31  7  1  1  0  0  0
  8 32  1  0  0  0  0
  8 35  1  0  0  0  0
  9 10  2  0  0  0  0
  9 11  1  0  0  0  0
  9 14  1  0  0  0  0
 11 13  1  0  0  0  0
 12 14  2  0  0  0  0
 12 18  1  0  0  0  0
 12 20  1  0  0  0  0
 13 18  2  0  0  0  0
 13 28  1  0  0  0  0
 15 16  1  0  0  0  0
 15 17  2  0  0  0  0
 15 23  1  0  0  0  0
 17 22  1  0  0  0  0
 17 25  1  0  0  0  0
 19 22  1  0  0  0  0
 20 29  1  0  0  0  0
 20 30  2  0  0  0  0
 23 24  2  0  0  0  0
 24 26  1  0  0  0  0
 24 27  1  0  0  0  0
 25 26  2  0  0  0  0
 31 32  1  0  0  0  0
 31 33  1  0  0  0  0
 33 34  1  0  0  0  0
 34 35  1  0  0  0  0
M  END
> <PUBCHEM_COMPOUND_ID_TYPE>
0

> <PUBCHEM_TOTAL_CHARGE>
0

> <PUBCHEM_SUBSTANCE_ID>
310935108

> <PUBCHEM_SUBSTANCE_VERSION>
1

> <PUBCHEM_EXT_DATASOURCE_NAME>
4488

> <PUBCHEM_EXT_DATASOURCE_REGID>
SCHEMBL16112635

> <PUBCHEM_SUBSTANCE_COMMENT>
InChI=1S/C27H29N7O/c1-17-9-20(22-12-31-32-13-22)11-24-25(17)29-16-30-26(24)34-8-6-18-4-5-19(10-21(18)15-34)27(35)33-23-3-2-7-28-14-23/h4-5,9-13,16,23,28H,2-3,6-8,14-15H2,1H3,(H,31,32)(H,33,35)/t23-/m0/s1
InChIKey=DBHFNXVFCWJAQD-QHCPKHFHSA-N

> <PUBCHEM_SUBSTANCE_SYNONYM>
SCHEMBL16112635

> <PUBCHEM_XREF_EXT_ID>
SCHEMBL16112635

> <PUBCHEM_EXT_DATASOURCE_URL>
https://www.surechembl.org/

> <PUBCHEM_EXT_SUBSTANCE_URL>
https://www.surechembl.org/chemical/SCHEMBL16112635

> <PUBCHEM_CID_ASSOCIATIONS>
117603199  1

> <PUBCHEM_COORDINATE_TYPE>
1
3

> <PUBCHEM_BONDANNOTATIONS>
31  7  5

$$$$
