310929484
  -OEChem-07211613022D

 27 29  0     0  0  0  0  0  0999 V2000
    5.6054    0.0000    0.0000 O   0  0  0  0  0  0  0  0  0  0  0  0
   -5.8264    0.0000    0.0000 O   0  0  0  0  0  0  0  0  0  0  0  0
    4.1764   -0.8250    0.0000 N   0  0  0  0  0  0  0  0  0  0  0  0
    4.1764    0.0000    0.0000 C   0  0  0  0  0  0  0  0  0  0  0  0
    3.4619    0.4125    0.0000 C   0  0  0  0  0  0  0  0  0  0  0  0
    4.8909    0.4125    0.0000 C   0  0  0  0  0  0  0  0  0  0  0  0
    2.7474    0.0000    0.0000 C   0  0  0  0  0  0  0  0  0  0  0  0
    3.4619    1.2375    0.0000 C   0  0  0  0  0  0  0  0  0  0  0  0
    4.8909    1.2375    0.0000 C   0  0  0  0  0  0  0  0  0  0  0  0
    2.7474   -0.8250    0.0000 C   0  0  0  0  0  0  0  0  0  0  0  0
    4.1764    1.6500    0.0000 C   0  0  0  0  0  0  0  0  0  0  0  0
    3.4619   -1.2375    0.0000 C   0  0  0  0  0  0  0  0  0  0  0  0
    2.0329    0.4125    0.0000 C   0  0  0  0  0  0  0  0  0  0  0  0
    7.0343    0.0000    0.0000 C   0  0  0  0  0  0  0  0  0  0  0  0
    6.3199    0.4125    0.0000 C   0  0  0  0  0  0  0  0  0  0  0  0
    7.8594    0.0000    0.0000 C   0  0  0  0  0  0  0  0  0  0  0  0
    7.4468   -0.7145    0.0000 C   0  0  0  0  0  0  0  0  0  0  0  0
    1.3184    0.0000    0.0000 C   0  0  0  0  0  0  0  0  0  0  0  0
    0.6040    0.4125    0.0000 C   0  0  0  0  0  0  0  0  0  0  0  0
   -0.1106    0.0000    0.0000 C   0  0  0  0  0  0  0  0  0  0  0  0
   -0.8250    0.4125    0.0000 C   0  0  0  0  0  0  0  0  0  0  0  0
   -1.5395    0.0000    0.0000 C   0  0  0  0  0  0  0  0  0  0  0  0
   -2.2540    0.4125    0.0000 C   0  0  0  0  0  0  0  0  0  0  0  0
   -2.9685    0.0000    0.0000 C   0  0  0  0  0  0  0  0  0  0  0  0
   -3.6829    0.4125    0.0000 C   0  0  0  0  0  0  0  0  0  0  0  0
   -4.3975    0.0000    0.0000 C   0  0  0  0  0  0  0  0  0  0  0  0
   -5.1119    0.4125    0.0000 C   0  0  0  0  0  0  0  0  0  0  0  0
  1  6  1  0  0  0  0
  1 15  1  0  0  0  0
  2 27  1  0  0  0  0
  3  4  1  0  0  0  0
  3 12  2  0  0  0  0
  4  5  1  0  0  0  0
  4  6  2  0  0  0  0
  5  7  1  0  0  0  0
  5  8  2  0  0  0  0
  6  9  1  0  0  0  0
  7 10  2  0  0  0  0
  7 13  1  0  0  0  0
  8 11  1  0  0  0  0
  9 11  2  0  0  0  0
 10 12  1  0  0  0  0
 13 18  1  0  0  0  0
 14 15  1  0  0  0  0
 14 16  1  0  0  0  0
 14 17  1  0  0  0  0
 16 17  1  0  0  0  0
 18 19  1  0  0  0  0
 19 20  1  0  0  0  0
 20 21  1  0  0  0  0
 21 22  1  0  0  0  0
 22 23  1  0  0  0  0
 23 24  1  0  0  0  0
 24 25  1  0  0  0  0
 25 26  1  0  0  0  0
 26 27  1  0  0  0  0
M  END
> <PUBCHEM_COMPOUND_ID_TYPE>
0

> <PUBCHEM_TOTAL_CHARGE>
0

> <PUBCHEM_SUBSTANCE_ID>
310929484

> <PUBCHEM_SUBSTANCE_VERSION>
1

> <PUBCHEM_EXT_DATASOURCE_NAME>
4488

> <PUBCHEM_EXT_DATASOURCE_REGID>
SCHEMBL16106660

> <PUBCHEM_SUBSTANCE_COMMENT>
InChI=1S/C24H35NO2/c26-18-9-7-5-3-1-2-4-6-8-11-21-16-17-25-24-22(21)12-10-13-23(24)27-19-20-14-15-20/h10,12-13,16-17,20,26H,1-9,11,14-15,18-19H2
InChIKey=BDJCRSMDASAXLH-UHFFFAOYSA-N

> <PUBCHEM_SUBSTANCE_SYNONYM>
SCHEMBL16106660

> <PUBCHEM_XREF_EXT_ID>
SCHEMBL16106660

> <PUBCHEM_EXT_DATASOURCE_URL>
https://www.surechembl.org/

> <PUBCHEM_EXT_SUBSTANCE_URL>
https://www.surechembl.org/chemical/SCHEMBL16106660

> <PUBCHEM_CID_ASSOCIATIONS>
117598817  1

> <PUBCHEM_COORDINATE_TYPE>
1
3

$$$$
