310946141
  -OEChem-07211613022D

 36 42  0     0  0  0  0  0  0999 V2000
    2.9051  -11.5152    0.0000 O   0  0  0  0  0  0  0  0  0  0  0  0
   -0.3768  -11.3437    0.0000 N   0  0  0  0  0  0  0  0  0  0  0  0
   -2.8338  -12.9441    0.0000 C   0  0  0  0  0  0  0  0  0  0  0  0
   -2.0268  -12.7726    0.0000 C   0  0  0  0  0  0  0  0  0  0  0  0
   -1.6143  -13.4871    0.0000 C   0  0  0  0  0  0  0  0  0  0  0  0
   -2.9200  -13.7646    0.0000 C   0  0  0  0  0  0  0  0  0  0  0  0
   -2.1664  -14.1002    0.0000 C   0  0  0  0  0  0  0  0  0  0  0  0
   -0.7893  -12.0581    0.0000 C   0  0  0  0  0  0  0  0  0  0  0  0
   -1.6143  -12.0581    0.0000 C   0  0  0  0  0  0  0  0  0  0  0  0
    0.4482  -11.3437    0.0000 C   0  0  0  0  0  0  0  0  0  0  0  0
   -0.7893  -13.4871    0.0000 C   0  0  0  0  0  0  0  0  0  0  0  0
    1.6857  -12.0581    0.0000 C   0  0  0  0  0  0  0  0  0  0  0  0
    2.0982  -11.3437    0.0000 C   0  0  0  0  0  0  0  0  0  0  0  0
   -0.3768  -12.7726    0.0000 C   0  0  0  0  0  0  0  0  0  0  0  0
    2.2377  -12.6712    0.0000 C   0  0  0  0  0  0  0  0  0  0  0  0
   -3.5875  -14.2495    0.0000 C   0  0  0  0  0  0  0  0  0  0  0  0
   -2.0801  -14.9207    0.0000 C   0  0  0  0  0  0  0  0  0  0  0  0
    0.8607  -12.0581    0.0000 C   0  0  0  0  0  0  0  0  0  0  0  0
   -0.7893  -10.6292    0.0000 C   0  0  0  0  0  0  0  0  0  0  0  0
    2.9914  -12.3357    0.0000 C   0  0  0  0  0  0  0  0  0  0  0  0
   -2.8338  -12.1191    0.0000 C   0  0  0  0  0  0  0  0  0  0  0  0
   -3.6588  -12.9441    0.0000 C   0  0  0  0  0  0  0  0  0  0  0  0
    0.8607  -10.6292    0.0000 C   0  0  0  0  0  0  0  0  0  0  0  0
    1.6857  -10.6292    0.0000 C   0  0  0  0  0  0  0  0  0  0  0  0
   -3.5012  -15.0700    0.0000 C   0  0  0  0  0  0  0  0  0  0  0  0
   -2.7476  -15.4056    0.0000 C   0  0  0  0  0  0  0  0  0  0  0  0
    2.1515  -13.4917    0.0000 C   0  0  0  0  0  0  0  0  0  0  0  0
    3.6588  -12.8206    0.0000 C   0  0  0  0  0  0  0  0  0  0  0  0
   -0.3768   -9.9147    0.0000 C   0  0  0  0  0  0  0  0  0  0  0  0
   -1.6143  -10.6292    0.0000 C   0  0  0  0  0  0  0  0  0  0  0  0
    2.8189  -13.9766    0.0000 C   0  0  0  0  0  0  0  0  0  0  0  0
    3.5726  -13.6411    0.0000 C   0  0  0  0  0  0  0  0  0  0  0  0
   -0.7893   -9.2003    0.0000 C   0  0  0  0  0  0  0  0  0  0  0  0
   -2.0268   -9.9147    0.0000 C   0  0  0  0  0  0  0  0  0  0  0  0
   -1.6143   -9.2003    0.0000 C   0  0  0  0  0  0  0  0  0  0  0  0
   -2.0268   -8.4858    0.0000 C   0  0  0  0  0  0  0  0  0  0  0  0
  1 13  1  0  0  0  0
  1 20  1  0  0  0  0
  2  8  1  0  0  0  0
  2 10  1  0  0  0  0
  2 19  1  0  0  0  0
  3  4  1  0  0  0  0
  3  6  1  0  0  0  0
  3 21  1  0  0  0  0
  3 22  1  0  0  0  0
  4  5  2  0  0  0  0
  4  9  1  0  0  0  0
  5  7  1  0  0  0  0
  5 11  1  0  0  0  0
  6  7  2  0  0  0  0
  6 16  1  0  0  0  0
  7 17  1  0  0  0  0
  8  9  2  0  0  0  0
  8 14  1  0  0  0  0
 10 18  2  0  0  0  0
 10 23  1  0  0  0  0
 11 14  2  0  0  0  0
 12 13  2  0  0  0  0
 12 15  1  0  0  0  0
 12 18  1  0  0  0  0
 13 24  1  0  0  0  0
 15 20  2  0  0  0  0
 15 27  1  0  0  0  0
 16 25  2  0  0  0  0
 17 26  2  0  0  0  0
 19 29  2  0  0  0  0
 19 30  1  0  0  0  0
 20 28  1  0  0  0  0
 23 24  2  0  0  0  0
 25 26  1  0  0  0  0
 27 31  2  0  0  0  0
 28 32  2  0  0  0  0
 29 33  1  0  0  0  0
 30 34  2  0  0  0  0
 31 32  1  0  0  0  0
 33 35  2  0  0  0  0
 34 35  1  0  0  0  0
 35 36  1  0  0  0  0
M  END
> <PUBCHEM_COMPOUND_ID_TYPE>
0

> <PUBCHEM_TOTAL_CHARGE>
0

> <PUBCHEM_SUBSTANCE_ID>
310946141

> <PUBCHEM_SUBSTANCE_VERSION>
1

> <PUBCHEM_EXT_DATASOURCE_NAME>
4488

> <PUBCHEM_EXT_DATASOURCE_REGID>
SCHEMBL16124250

> <PUBCHEM_SUBSTANCE_COMMENT>
InChI=1S/C34H27NO/c1-22-12-14-23(15-13-22)35(24-17-19-33-29(20-24)28-9-5-7-11-32(28)36-33)25-16-18-27-26-8-4-6-10-30(26)34(2,3)31(27)21-25/h4-21H,1-3H3
InChIKey=ZGHLKHQRWTXPCF-UHFFFAOYSA-N

> <PUBCHEM_SUBSTANCE_SYNONYM>
SCHEMBL16124250

> <PUBCHEM_XREF_EXT_ID>
SCHEMBL16124250

> <PUBCHEM_EXT_DATASOURCE_URL>
https://www.surechembl.org/

> <PUBCHEM_EXT_SUBSTANCE_URL>
https://www.surechembl.org/chemical/SCHEMBL16124250

> <PUBCHEM_CID_ASSOCIATIONS>
117612098  1

> <PUBCHEM_COORDINATE_TYPE>
1
3

$$$$
