310942613
  -OEChem-07211613022D

 53 57  0     1  0  0  0  0  0999 V2000
   -4.4583    0.8424    0.0000 F   0  0  0  0  0  0  0  0  0  0  0  0
    2.4569   -1.3878    0.0000 F   0  0  0  0  0  0  0  0  0  0  0  0
   -4.4583   -2.4789    0.0000 F   0  0  0  0  0  0  0  0  0  0  0  0
   -1.1532   -1.8210    0.0000 O   0  0  0  0  0  0  0  0  0  0  0  0
    0.2749   -2.6394    0.0000 O   0  0  0  0  0  0  0  0  0  0  0  0
    4.6494   -1.0734    0.0000 O   0  0  0  0  0  0  0  0  0  0  0  0
    4.1458   -1.9015    0.0000 O   0  0  0  0  0  0  0  0  0  0  0  0
    1.2697    3.2972    0.0000 O   0  0  0  0  0  0  0  0  0  0  0  0
    1.0290   -3.8106    0.0000 O   0  0  0  0  0  0  0  0  0  0  0  0
   -0.4472   -0.5535    0.0000 N   0  0  0  0  0  0  0  0  0  0  0  0
   -2.0196    0.9225    0.0000 N   0  0  0  0  0  0  0  0  0  0  0  0
   -2.3083   -0.3931    0.0000 N   0  0  0  0  0  0  0  0  0  0  0  0
    2.6013    0.7621    0.0000 N   0  0  0  0  0  0  0  0  0  0  0  0
    0.9006    1.9173    0.0000 N   0  0  0  0  0  0  0  0  0  0  0  0
   -0.8643    0.1524    0.0000 C   0  0  3  0  0  0  0  0  0  0  0  0
   -1.6986    0.1845    0.0000 C   0  0  0  0  0  0  0  0  0  0  0  0
   -3.0303    0.0240    0.0000 C   0  0  0  0  0  0  0  0  0  0  0  0
   -0.2867    0.7461    0.0000 C   0  0  0  0  0  0  0  0  0  0  0  0
   -2.8378    0.8263    0.0000 C   0  0  0  0  0  0  0  0  0  0  0  0
   -3.7363   -0.3931    0.0000 C   0  0  0  0  0  0  0  0  0  0  0  0
   -0.4472   -1.3718    0.0000 C   0  0  0  0  0  0  0  0  0  0  0  0
    0.8204   -0.5535    0.0000 C   0  0  0  0  0  0  0  0  0  0  0  0
    1.6226   -0.1524    0.0000 C   0  0  3  0  0  0  0  0  0  0  0  0
   -1.6023    1.8531    0.0000 C   0  0  0  0  0  0  0  0  0  0  0  0
   -0.4793    1.5483    0.0000 C   0  0  0  0  0  0  0  0  0  0  0  0
    0.5316    0.5375    0.0000 C   0  0  0  0  0  0  0  0  0  0  0  0
   -4.4583    0.0080    0.0000 C   0  0  0  0  0  0  0  0  0  0  0  0
    2.3607   -0.5535    0.0000 C   0  0  3  0  0  0  0  0  0  0  0  0
    0.2588   -1.8050    0.0000 C   0  0  3  0  0  0  0  0  0  0  0  0
    1.7830    0.6498    0.0000 C   0  0  0  0  0  0  0  0  0  0  0  0
   -3.7524   -1.2274    0.0000 C   0  0  0  0  0  0  0  0  0  0  0  0
   -2.1800    2.4308    0.0000 C   0  0  0  0  0  0  0  0  0  0  0  0
    2.9383    0.0240    0.0000 C   0  0  0  0  0  0  0  0  0  0  0  0
    0.0984    2.1259    0.0000 C   0  0  0  0  0  0  0  0  0  0  0  0
    1.1092    1.1151    0.0000 C   0  0  0  0  0  0  0  0  0  0  0  0
   -4.4583   -1.6285    0.0000 C   0  0  0  0  0  0  0  0  0  0  0  0
   -5.1642   -0.4092    0.0000 C   0  0  0  0  0  0  0  0  0  0  0  0
    4.1458   -1.3644    0.0000 C   0  0  0  0  0  0  0  0  0  0  0  0
   -5.1482   -1.2435    0.0000 C   0  0  0  0  0  0  0  0  0  0  0  0
   -1.9714    3.2491    0.0000 C   0  0  0  0  0  0  0  0  0  0  0  0
   -2.9822    2.2382    0.0000 C   0  0  0  0  0  0  0  0  0  0  0  0
    1.4782    2.5110    0.0000 C   0  0  0  0  0  0  0  0  0  0  0  0
    0.9648   -1.4039    0.0000 C   0  0  0  0  0  0  0  0  0  0  0  0
    1.0290   -3.0405    0.0000 C   0  0  0  0  0  0  0  0  0  0  0  0
    4.6606   -0.5138    0.0000 C   0  0  0  0  0  0  0  0  0  0  0  0
   -2.5490    3.8106    0.0000 C   0  0  0  0  0  0  0  0  0  0  0  0
   -3.5598    2.7998    0.0000 C   0  0  0  0  0  0  0  0  0  0  0  0
   -3.3513    3.6020    0.0000 C   0  0  0  0  0  0  0  0  0  0  0  0
    2.2965    2.3024    0.0000 C   0  0  0  0  0  0  0  0  0  0  0  0
    1.7029   -2.6233    0.0000 C   0  0  0  0  0  0  0  0  0  0  0  0
    5.1642   -0.4914    0.0000 C   0  0  0  0  0  0  0  0  0  0  0  0
    4.1458   -0.5138    0.0000 C   0  0  0  0  0  0  0  0  0  0  0  0
    4.6494    0.0347    0.0000 C   0  0  0  0  0  0  0  0  0  0  0  0
  1 27  1  0  0  0  0
 28  2  1  6  0  0  0
  3 36  1  0  0  0  0
  4 21  2  0  0  0  0
  5 29  1  0  0  0  0
  5 44  1  0  0  0  0
  6 38  1  0  0  0  0
  6 45  1  0  0  0  0
  7 38  2  0  0  0  0
  8 42  2  0  0  0  0
  9 44  2  0  0  0  0
 15 10  1  1  0  0  0
 10 21  1  0  0  0  0
 10 22  1  0  0  0  0
 11 16  1  0  0  0  0
 11 19  1  0  0  0  0
 11 24  1  0  0  0  0
 12 16  2  0  0  0  0
 12 17  1  0  0  0  0
 13 30  1  0  0  0  0
 13 33  1  0  0  0  0
 13 38  1  0  0  0  0
 14 34  1  0  0  0  0
 14 35  1  0  0  0  0
 14 42  1  0  0  0  0
 15 16  1  0  0  0  0
 15 18  1  0  0  0  0
 17 19  2  0  0  0  0
 17 20  1  0  0  0  0
 18 25  1  0  0  0  0
 18 26  1  0  0  0  0
 20 27  2  0  0  0  0
 20 31  1  0  0  0  0
 21 29  1  0  0  0  0
 23 22  1  6  0  0  0
 23 28  1  0  0  0  0
 23 30  1  0  0  0  0
 24 32  1  0  0  0  0
 25 34  1  0  0  0  0
 26 35  1  0  0  0  0
 27 37  1  0  0  0  0
 28 33  1  0  0  0  0
 29 43  1  6  0  0  0
 31 36  2  0  0  0  0
 32 40  2  0  0  0  0
 32 41  1  0  0  0  0
 36 39  1  0  0  0  0
 37 39  2  0  0  0  0
 40 46  1  0  0  0  0
 41 47  2  0  0  0  0
 42 49  1  0  0  0  0
 44 50  1  0  0  0  0
 45 51  1  0  0  0  0
 45 52  1  0  0  0  0
 45 53  1  0  0  0  0
 46 48  2  0  0  0  0
 47 48  1  0  0  0  0
M  END
> <PUBCHEM_COMPOUND_ID_TYPE>
0

> <PUBCHEM_TOTAL_CHARGE>
0

> <PUBCHEM_SUBSTANCE_ID>
310942613

> <PUBCHEM_SUBSTANCE_VERSION>
1

> <PUBCHEM_EXT_DATASOURCE_NAME>
4488

> <PUBCHEM_EXT_DATASOURCE_REGID>
SCHEMBL16120659

> <PUBCHEM_SUBSTANCE_COMMENT>
InChI=1S/C39H48F3N5O6/c1-24(52-26(3)49)37(50)47(21-29-20-46(22-33(29)42)38(51)53-39(4,5)6)35(28-14-16-44(17-15-28)25(2)48)36-43-34(31-18-30(40)12-13-32(31)41)23-45(36)19-27-10-8-7-9-11-27/h7-13,18,23-24,28-29,33,35H,14-17,19-22H2,1-6H3/t24-,29-,33-,35+/m0/s1
InChIKey=MNLFRSJCHRZROG-XDAKWCAJSA-N

> <PUBCHEM_SUBSTANCE_SYNONYM>
SCHEMBL16120659

> <PUBCHEM_XREF_EXT_ID>
SCHEMBL16120659

> <PUBCHEM_EXT_DATASOURCE_URL>
https://www.surechembl.org/

> <PUBCHEM_EXT_SUBSTANCE_URL>
https://www.surechembl.org/chemical/SCHEMBL16120659

> <PUBCHEM_CID_ASSOCIATIONS>
117609145  1

> <PUBCHEM_COORDINATE_TYPE>
1
3

> <PUBCHEM_BONDANNOTATIONS>
15  10  5
28  2  6
23  22  6
29  43  6

$$$$
