310935772
  -OEChem-07211613022D

 22 24  0     0  0  0  0  0  0999 V2000
    5.1430   -2.0282    0.0000 S   0  0  0  0  0  0  0  0  0  0  0  0
    6.5434   -4.5876    0.0000 O   0  0  0  0  0  0  0  0  0  0  0  0
    4.1047   -0.6519    0.0000 N   0  0  0  0  0  0  0  0  0  0  0  0
    6.4951   -2.0282    0.0000 N   0  0  0  0  0  0  0  0  0  0  0  0
    5.4086   -1.2556    0.0000 C   0  0  0  0  0  0  0  0  0  0  0  0
    5.8190   -2.5111    0.0000 C   0  0  0  0  0  0  0  0  0  0  0  0
    2.4629   -0.8209    0.0000 C   0  0  0  0  0  0  0  0  0  0  0  0
    4.9257   -0.5795    0.0000 C   0  0  0  0  0  0  0  0  0  0  0  0
    1.6660   -0.8934    0.0000 C   0  0  0  0  0  0  0  0  0  0  0  0
    6.2295   -1.2556    0.0000 C   0  0  0  0  0  0  0  0  0  0  0  0
    3.7667   -1.4246    0.0000 C   0  0  0  0  0  0  0  0  0  0  0  0
    3.6218    0.0000    0.0000 C   0  0  0  0  0  0  0  0  0  0  0  0
    2.9457   -1.5212    0.0000 C   0  0  0  0  0  0  0  0  0  0  0  0
    2.8250   -0.0725    0.0000 C   0  0  0  0  0  0  0  0  0  0  0  0
    5.8190   -3.3321    0.0000 C   0  0  0  0  0  0  0  0  0  0  0  0
    1.3039   -1.6419    0.0000 C   0  0  0  0  0  0  0  0  0  0  0  0
    1.1590   -0.2415    0.0000 C   0  0  0  0  0  0  0  0  0  0  0  0
    6.5434   -3.7426    0.0000 C   0  0  0  0  0  0  0  0  0  0  0  0
    0.4829   -1.7143    0.0000 C   0  0  0  0  0  0  0  0  0  0  0  0
    0.3622   -0.3139    0.0000 C   0  0  0  0  0  0  0  0  0  0  0  0
    0.0000   -1.0382    0.0000 C   0  0  0  0  0  0  0  0  0  0  0  0
    7.2436   -3.3321    0.0000 C   0  0  0  0  0  0  0  0  0  0  0  0
  1  5  1  0  0  0  0
  1  6  1  0  0  0  0
  2 18  2  0  0  0  0
  3  8  1  0  0  0  0
  3 11  1  0  0  0  0
  3 12  1  0  0  0  0
  4  6  2  0  0  0  0
  4 10  1  0  0  0  0
  5  8  1  0  0  0  0
  5 10  2  0  0  0  0
  6 15  1  0  0  0  0
  7  9  1  0  0  0  0
  7 13  1  0  0  0  0
  7 14  1  0  0  0  0
  9 16  2  0  0  0  0
  9 17  1  0  0  0  0
 11 13  1  0  0  0  0
 12 14  1  0  0  0  0
 15 18  1  0  0  0  0
 16 19  1  0  0  0  0
 17 20  2  0  0  0  0
 18 22  1  0  0  0  0
 19 21  2  0  0  0  0
 20 21  1  0  0  0  0
M  END
> <PUBCHEM_COMPOUND_ID_TYPE>
0

> <PUBCHEM_TOTAL_CHARGE>
0

> <PUBCHEM_SUBSTANCE_ID>
310935772

> <PUBCHEM_SUBSTANCE_VERSION>
1

> <PUBCHEM_EXT_DATASOURCE_NAME>
4488

> <PUBCHEM_EXT_DATASOURCE_REGID>
SCHEMBL16113356

> <PUBCHEM_SUBSTANCE_COMMENT>
InChI=1S/C18H22N2OS/c1-14(21)11-18-19-12-17(22-18)13-20-9-7-16(8-10-20)15-5-3-2-4-6-15/h2-6,12,16H,7-11,13H2,1H3
InChIKey=PELWRZYOQMZYES-UHFFFAOYSA-N

> <PUBCHEM_SUBSTANCE_SYNONYM>
SCHEMBL16113356

> <PUBCHEM_XREF_EXT_ID>
SCHEMBL16113356

> <PUBCHEM_EXT_DATASOURCE_URL>
https://www.surechembl.org/

> <PUBCHEM_EXT_SUBSTANCE_URL>
https://www.surechembl.org/chemical/SCHEMBL16113356

> <PUBCHEM_CID_ASSOCIATIONS>
86274807  1

> <PUBCHEM_COORDINATE_TYPE>
1
3

$$$$
