310947290
  -OEChem-07211613022D

 32 35  0     1  0  0  0  0  0999 V2000
   -5.3861   -0.5121    0.0000 Br  0  0  0  0  0  0  0  0  0  0  0  0
   -1.0993    1.9629    0.0000 O   0  0  0  0  0  0  0  0  0  0  0  0
    1.8287   -0.3546    0.0000 N   0  0  0  0  0  0  0  0  0  0  0  0
    2.3137    0.3129    0.0000 N   0  0  0  0  0  0  0  0  0  0  0  0
   -1.8138    0.7254    0.0000 N   0  0  0  0  0  0  0  0  0  0  0  0
    5.3861    0.1716    0.0000 N   0  0  0  0  0  0  0  0  0  0  0  0
    1.0441   -0.0996    0.0000 C   0  0  0  0  0  0  0  0  0  0  0  0
    1.0441    0.7254    0.0000 C   0  0  0  0  0  0  0  0  0  0  0  0
    1.8287    0.9803    0.0000 C   0  0  0  0  0  0  0  0  0  0  0  0
   -0.3848    0.7254    0.0000 C   0  0  0  0  0  0  0  0  0  0  0  0
    0.3296    1.1379    0.0000 C   0  0  0  0  0  0  0  0  0  0  0  0
    0.3296   -0.5121    0.0000 C   0  0  0  0  0  0  0  0  0  0  0  0
   -0.3848   -0.0996    0.0000 C   0  0  0  0  0  0  0  0  0  0  0  0
    2.0423   -1.1514    0.0000 C   0  0  0  0  0  0  0  0  0  0  0  0
   -1.0993    1.1379    0.0000 C   0  0  0  0  0  0  0  0  0  0  0  0
    2.8391   -1.3650    0.0000 C   0  0  0  0  0  0  0  0  0  0  0  0
    2.2412    1.6948    0.0000 C   0  0  0  0  0  0  0  0  0  0  0  0
   -2.5282    1.1379    0.0000 C   0  0  3  0  0  0  0  0  0  0  0  0
   -3.2427    0.7254    0.0000 C   0  0  0  0  0  0  0  0  0  0  0  0
    3.4225   -0.7816    0.0000 C   0  0  0  0  0  0  0  0  0  0  0  0
    3.0527   -2.1619    0.0000 C   0  0  0  0  0  0  0  0  0  0  0  0
    4.2194   -0.9951    0.0000 C   0  0  0  0  0  0  0  0  0  0  0  0
   -3.9572    1.1379    0.0000 C   0  0  0  0  0  0  0  0  0  0  0  0
   -3.2427   -0.0996    0.0000 C   0  0  0  0  0  0  0  0  0  0  0  0
   -2.5282    1.9629    0.0000 C   0  0  0  0  0  0  0  0  0  0  0  0
    3.8496   -2.3754    0.0000 C   0  0  0  0  0  0  0  0  0  0  0  0
    4.4329   -1.7920    0.0000 C   0  0  0  0  0  0  0  0  0  0  0  0
   -4.6717   -0.0996    0.0000 C   0  0  0  0  0  0  0  0  0  0  0  0
   -4.6717    0.7254    0.0000 C   0  0  0  0  0  0  0  0  0  0  0  0
   -3.9572   -0.5121    0.0000 C   0  0  0  0  0  0  0  0  0  0  0  0
    4.8028   -0.4118    0.0000 C   0  0  0  0  0  0  0  0  0  0  0  0
   -3.2427    2.3754    0.0000 C   0  0  0  0  0  0  0  0  0  0  0  0
  1 28  1  0  0  0  0
  2 15  2  0  0  0  0
  3  4  1  0  0  0  0
  3  7  1  0  0  0  0
  3 14  1  0  0  0  0
  4  9  2  0  0  0  0
  5 15  1  0  0  0  0
 18  5  1  6  0  0  0
  6 31  3  0  0  0  0
  7  8  1  0  0  0  0
  7 12  2  0  0  0  0
  8  9  1  0  0  0  0
  8 11  2  0  0  0  0
  9 17  1  0  0  0  0
 10 11  1  0  0  0  0
 10 13  2  0  0  0  0
 10 15  1  0  0  0  0
 12 13  1  0  0  0  0
 14 16  1  0  0  0  0
 16 20  1  0  0  0  0
 16 21  2  0  0  0  0
 18 19  1  0  0  0  0
 18 25  1  0  0  0  0
 19 23  2  0  0  0  0
 19 24  1  0  0  0  0
 20 22  2  0  0  0  0
 21 26  1  0  0  0  0
 22 27  1  0  0  0  0
 22 31  1  0  0  0  0
 23 29  1  0  0  0  0
 24 30  2  0  0  0  0
 25 32  1  0  0  0  0
 26 27  2  0  0  0  0
 28 29  2  0  0  0  0
 28 30  1  0  0  0  0
M  END
> <PUBCHEM_COMPOUND_ID_TYPE>
0

> <PUBCHEM_TOTAL_CHARGE>
0

> <PUBCHEM_SUBSTANCE_ID>
310947290

> <PUBCHEM_SUBSTANCE_VERSION>
1

> <PUBCHEM_EXT_DATASOURCE_NAME>
4488

> <PUBCHEM_EXT_DATASOURCE_REGID>
SCHEMBL16125445

> <PUBCHEM_SUBSTANCE_COMMENT>
InChI=1S/C26H23BrN4O/c1-3-24(20-7-10-22(27)11-8-20)29-26(32)21-9-12-25-23(14-21)17(2)30-31(25)16-19-6-4-5-18(13-19)15-28/h4-14,24H,3,16H2,1-2H3,(H,29,32)/t24-/m0/s1
InChIKey=QHFHXBMNBDMPNH-DEOSSOPVSA-N

> <PUBCHEM_SUBSTANCE_SYNONYM>
SCHEMBL16125445

> <PUBCHEM_XREF_EXT_ID>
SCHEMBL16125445

> <PUBCHEM_EXT_DATASOURCE_URL>
https://www.surechembl.org/

> <PUBCHEM_EXT_SUBSTANCE_URL>
https://www.surechembl.org/chemical/SCHEMBL16125445

> <PUBCHEM_CID_ASSOCIATIONS>
71577316  1

> <PUBCHEM_COORDINATE_TYPE>
1
3

> <PUBCHEM_BONDANNOTATIONS>
18  5  6

$$$$
