310949272
  -OEChem-07211613022D

 73 84  0     0  0  0  0  0  0999 V2000
   -0.9001   -2.0529    0.0000 N   0  0  0  0  0  0  0  0  0  0  0  0
    1.9922    3.0237    0.0000 N   0  0  0  0  0  0  0  0  0  0  0  0
   -1.6079   -0.0303    0.0000 N   0  0  0  0  0  0  0  0  0  0  0  0
    4.1361    2.5585    0.0000 N   0  0  0  0  0  0  0  0  0  0  0  0
    0.4955   -3.6709    0.0000 N   0  0  0  0  0  0  0  0  0  0  0  0
   -0.1517    2.5383    0.0000 N   0  0  0  0  0  0  0  0  0  0  0  0
   -1.6686   -1.6686    0.0000 C   0  0  0  0  0  0  0  0  0  0  0  0
   -1.0012   -2.8619    0.0000 C   0  0  0  0  0  0  0  0  0  0  0  0
    2.6596    3.5495    0.0000 C   0  0  0  0  0  0  0  0  0  0  0  0
    1.2641    3.5495    0.0000 C   0  0  0  0  0  0  0  0  0  0  0  0
    1.9720    2.2147    0.0000 C   0  0  0  0  0  0  0  0  0  0  0  0
   -0.1719   -1.5877    0.0000 C   0  0  0  0  0  0  0  0  0  0  0  0
   -2.2147   -2.3158    0.0000 C   0  0  0  0  0  0  0  0  0  0  0  0
   -1.8102   -3.0237    0.0000 C   0  0  0  0  0  0  0  0  0  0  0  0
    1.5472    4.3384    0.0000 C   0  0  0  0  0  0  0  0  0  0  0  0
    2.3765    4.3181    0.0000 C   0  0  0  0  0  0  0  0  0  0  0  0
    1.9518   -0.3135    0.0000 C   0  0  0  0  0  0  0  0  0  0  0  0
    1.9922    0.5360    0.0000 C   0  0  0  0  0  0  0  0  0  0  0  0
    1.2236   -0.7585    0.0000 C   0  0  0  0  0  0  0  0  0  0  0  0
    2.7001    1.7697    0.0000 C   0  0  0  0  0  0  0  0  0  0  0  0
   -0.1719   -0.7383    0.0000 C   0  0  0  0  0  0  0  0  0  0  0  0
    1.2843    1.7697    0.0000 C   0  0  0  0  0  0  0  0  0  0  0  0
    0.5562   -1.9922    0.0000 C   0  0  0  0  0  0  0  0  0  0  0  0
   -2.9833   -2.1338    0.0000 C   0  0  0  0  0  0  0  0  0  0  0  0
   -2.0326   -3.8529    0.0000 C   0  0  0  0  0  0  0  0  0  0  0  0
    1.0214    4.9249    0.0000 C   0  0  0  0  0  0  0  0  0  0  0  0
    2.9630    4.9451    0.0000 C   0  0  0  0  0  0  0  0  0  0  0  0
   -1.9113   -0.9202    0.0000 C   0  0  0  0  0  0  0  0  0  0  0  0
   -0.4349   -3.4687    0.0000 C   0  0  0  0  0  0  0  0  0  0  0  0
    0.4955    3.3675    0.0000 C   0  0  0  0  0  0  0  0  0  0  0  0
    3.4889    3.4080    0.0000 C   0  0  0  0  0  0  0  0  0  0  0  0
    2.6799    0.9404    0.0000 C   0  0  0  0  0  0  0  0  0  0  0  0
    0.5562   -0.3539    0.0000 C   0  0  0  0  0  0  0  0  0  0  0  0
    1.2641    0.9404    0.0000 C   0  0  0  0  0  0  0  0  0  0  0  0
    1.2438   -1.5877    0.0000 C   0  0  0  0  0  0  0  0  0  0  0  0
   -3.2866   -1.3450    0.0000 C   0  0  0  0  0  0  0  0  0  0  0  0
   -1.4866   -4.3991    0.0000 C   0  0  0  0  0  0  0  0  0  0  0  0
    0.2124    4.7833    0.0000 C   0  0  0  0  0  0  0  0  0  0  0  0
    3.7923    4.8035    0.0000 C   0  0  0  0  0  0  0  0  0  0  0  0
   -2.7204   -0.7585    0.0000 C   0  0  0  0  0  0  0  0  0  0  0  0
   -0.6978   -4.2373    0.0000 C   0  0  0  0  0  0  0  0  0  0  0  0
   -0.0708    3.9541    0.0000 C   0  0  0  0  0  0  0  0  0  0  0  0
    4.0350    4.0147    0.0000 C   0  0  0  0  0  0  0  0  0  0  0  0
    3.4282    2.1944    0.0000 C   0  0  0  0  0  0  0  0  0  0  0  0
   -0.9001   -0.3742    0.0000 C   0  0  0  0  0  0  0  0  0  0  0  0
    0.5360    2.1742    0.0000 C   0  0  0  0  0  0  0  0  0  0  0  0
    0.5157   -2.8619    0.0000 C   0  0  0  0  0  0  0  0  0  0  0  0
    2.7001   -0.7585    0.0000 C   0  0  0  0  0  0  0  0  0  0  0  0
    1.1630   -0.1315    0.0000 C   0  0  0  0  0  0  0  0  0  0  0  0
   -4.1159   -1.1832    0.0000 C   0  0  0  0  0  0  0  0  0  0  0  0
   -1.7495   -5.2080    0.0000 C   0  0  0  0  0  0  0  0  0  0  0  0
   -0.3944    5.3901    0.0000 C   0  0  0  0  0  0  0  0  0  0  0  0
    4.3181    5.4508    0.0000 C   0  0  0  0  0  0  0  0  0  0  0  0
   -4.3586   -0.4349    0.0000 C   0  0  0  0  0  0  0  0  0  0  0  0
   -2.5383   -5.4305    0.0000 C   0  0  0  0  0  0  0  0  0  0  0  0
   -0.1113    6.1384    0.0000 C   0  0  0  0  0  0  0  0  0  0  0  0
    5.1474    5.2687    0.0000 C   0  0  0  0  0  0  0  0  0  0  0  0
   -4.6417   -1.8102    0.0000 C   0  0  0  0  0  0  0  0  0  0  0  0
   -1.2034   -5.8148    0.0000 C   0  0  0  0  0  0  0  0  0  0  0  0
   -1.1427    5.1878    0.0000 C   0  0  0  0  0  0  0  0  0  0  0  0
    4.0957    6.1991    0.0000 C   0  0  0  0  0  0  0  0  0  0  0  0
   -5.1474   -0.2528    0.0000 C   0  0  0  0  0  0  0  0  0  0  0  0
   -2.8012   -6.1789    0.0000 C   0  0  0  0  0  0  0  0  0  0  0  0
   -0.6775    6.7452    0.0000 C   0  0  0  0  0  0  0  0  0  0  0  0
    5.6934    5.8553    0.0000 C   0  0  0  0  0  0  0  0  0  0  0  0
   -5.4305   -1.6686    0.0000 C   0  0  0  0  0  0  0  0  0  0  0  0
   -1.4259   -6.6036    0.0000 C   0  0  0  0  0  0  0  0  0  0  0  0
   -1.7495    5.7946    0.0000 C   0  0  0  0  0  0  0  0  0  0  0  0
    4.6417    6.8059    0.0000 C   0  0  0  0  0  0  0  0  0  0  0  0
   -5.6934   -0.8596    0.0000 C   0  0  0  0  0  0  0  0  0  0  0  0
   -2.2349   -6.8059    0.0000 C   0  0  0  0  0  0  0  0  0  0  0  0
   -1.4866    6.5631    0.0000 C   0  0  0  0  0  0  0  0  0  0  0  0
    5.4508    6.6643    0.0000 C   0  0  0  0  0  0  0  0  0  0  0  0
  1  7  1  0  0  0  0
  1  8  1  0  0  0  0
  1 12  1  0  0  0  0
  2  9  1  0  0  0  0
  2 10  1  0  0  0  0
  2 11  1  0  0  0  0
  3 45  3  0  0  0  0
  4 44  3  0  0  0  0
  5 47  3  0  0  0  0
  6 46  3  0  0  0  0
  7 13  2  0  0  0  0
  7 28  1  0  0  0  0
  8 14  2  0  0  0  0
  8 29  1  0  0  0  0
  9 16  2  0  0  0  0
  9 31  1  0  0  0  0
 10 15  2  0  0  0  0
 10 30  1  0  0  0  0
 11 20  2  0  0  0  0
 11 22  1  0  0  0  0
 12 21  2  0  0  0  0
 12 23  1  0  0  0  0
 13 14  1  0  0  0  0
 13 24  1  0  0  0  0
 14 25  1  0  0  0  0
 15 16  1  0  0  0  0
 15 26  1  0  0  0  0
 16 27  1  0  0  0  0
 17 18  1  0  0  0  0
 17 19  1  0  0  0  0
 17 48  1  0  0  0  0
 17 49  1  0  0  0  0
 18 32  2  0  0  0  0
 18 34  1  0  0  0  0
 19 33  2  0  0  0  0
 19 35  1  0  0  0  0
 20 32  1  0  0  0  0
 20 44  1  0  0  0  0
 21 33  1  0  0  0  0
 21 45  1  0  0  0  0
 22 34  2  0  0  0  0
 22 46  1  0  0  0  0
 23 35  2  0  0  0  0
 23 47  1  0  0  0  0
 24 36  2  0  0  0  0
 25 37  2  0  0  0  0
 26 38  2  0  0  0  0
 27 39  2  0  0  0  0
 28 40  2  0  0  0  0
 29 41  2  0  0  0  0
 30 42  2  0  0  0  0
 31 43  2  0  0  0  0
 36 40  1  0  0  0  0
 36 50  1  0  0  0  0
 37 41  1  0  0  0  0
 37 51  1  0  0  0  0
 38 42  1  0  0  0  0
 38 52  1  0  0  0  0
 39 43  1  0  0  0  0
 39 53  1  0  0  0  0
 50 54  2  0  0  0  0
 50 58  1  0  0  0  0
 51 55  2  0  0  0  0
 51 59  1  0  0  0  0
 52 56  2  0  0  0  0
 52 60  1  0  0  0  0
 53 57  2  0  0  0  0
 53 61  1  0  0  0  0
 54 62  1  0  0  0  0
 55 63  1  0  0  0  0
 56 64  1  0  0  0  0
 57 65  1  0  0  0  0
 58 66  2  0  0  0  0
 59 67  2  0  0  0  0
 60 68  2  0  0  0  0
 61 69  2  0  0  0  0
 62 70  2  0  0  0  0
 63 71  2  0  0  0  0
 64 72  2  0  0  0  0
 65 73  2  0  0  0  0
 66 70  1  0  0  0  0
 67 71  1  0  0  0  0
 68 72  1  0  0  0  0
 69 73  1  0  0  0  0
M  END
> <PUBCHEM_COMPOUND_ID_TYPE>
0

> <PUBCHEM_TOTAL_CHARGE>
0

> <PUBCHEM_SUBSTANCE_ID>
310949272

> <PUBCHEM_SUBSTANCE_VERSION>
1

> <PUBCHEM_EXT_DATASOURCE_NAME>
4488

> <PUBCHEM_EXT_DATASOURCE_REGID>
SCHEMBL16127462

> <PUBCHEM_SUBSTANCE_COMMENT>
InChI=1S/C67H42N6/c1-67(2,55-31-51(39-68)65(52(32-55)40-69)72-61-27-23-47(43-15-7-3-8-16-43)35-57(61)58-36-48(24-28-62(58)72)44-17-9-4-10-18-44)56-33-53(41-70)66(54(34-56)42-71)73-63-29-25-49(45-19-11-5-12-20-45)37-59(63)60-38-50(26-30-64(60)73)46-21-13-6-14-22-46/h3-38H,1-2H3
InChIKey=OEOYXRODPXZWHK-UHFFFAOYSA-N

> <PUBCHEM_SUBSTANCE_SYNONYM>
SCHEMBL16127462

> <PUBCHEM_XREF_EXT_ID>
SCHEMBL16127462

> <PUBCHEM_EXT_DATASOURCE_URL>
https://www.surechembl.org/

> <PUBCHEM_EXT_SUBSTANCE_URL>
https://www.surechembl.org/chemical/SCHEMBL16127462

> <PUBCHEM_CID_ASSOCIATIONS>
117614758  1

> <PUBCHEM_COORDINATE_TYPE>
1
3

$$$$
