310934883
  -OEChem-07211613022D

 38 43  0     0  0  0  0  0  0999 V2000
    7.8716   -8.3062    0.0000 O   0  0  0  0  0  0  0  0  0  0  0  0
    6.8097   -9.2624    0.0000 O   0  0  0  0  0  0  0  0  0  0  0  0
    1.8414   -3.7445    0.0000 N   0  0  0  0  0  0  0  0  0  0  0  0
    1.0164   -3.7445    0.0000 N   0  0  0  0  0  0  0  0  0  0  0  0
    2.9034   -2.7884    0.0000 N   0  0  0  0  0  0  0  0  0  0  0  0
    1.4289    0.0000    0.0000 N   0  0  0  0  0  0  0  0  0  0  0  0
    5.4086   -6.6385    0.0000 N   0  0  0  0  0  0  0  0  0  0  0  0
    4.0496   -6.1969    0.0000 N   0  0  0  0  0  0  0  0  0  0  0  0
    6.5126   -7.8647    0.0000 N   0  0  0  0  0  0  0  0  0  0  0  0
    1.4289   -2.4750    0.0000 C   0  0  0  0  0  0  0  0  0  0  0  0
    2.0964   -2.9599    0.0000 C   0  0  0  0  0  0  0  0  0  0  0  0
    1.4289   -1.6500    0.0000 C   0  0  0  0  0  0  0  0  0  0  0  0
    2.1434   -1.2375    0.0000 C   0  0  0  0  0  0  0  0  0  0  0  0
    3.2004   -4.1861    0.0000 C   0  0  0  0  0  0  0  0  0  0  0  0
    0.7615   -2.9599    0.0000 C   0  0  0  0  0  0  0  0  0  0  0  0
    2.3935   -4.3576    0.0000 C   0  0  0  0  0  0  0  0  0  0  0  0
    2.1434   -0.4125    0.0000 C   0  0  0  0  0  0  0  0  0  0  0  0
    3.7525   -4.7992    0.0000 C   0  0  0  0  0  0  0  0  0  0  0  0
    3.4554   -3.4015    0.0000 C   0  0  0  0  0  0  0  0  0  0  0  0
    0.7145   -1.2375    0.0000 C   0  0  0  0  0  0  0  0  0  0  0  0
    2.8579   -1.6500    0.0000 C   0  0  0  0  0  0  0  0  0  0  0  0
    4.8565   -6.0254    0.0000 C   0  0  0  0  0  0  0  0  0  0  0  0
    0.7145   -0.4125    0.0000 C   0  0  0  0  0  0  0  0  0  0  0  0
    3.4975   -5.5838    0.0000 C   0  0  0  0  0  0  0  0  0  0  0  0
    4.5595   -4.6277    0.0000 C   0  0  0  0  0  0  0  0  0  0  0  0
    2.8579    0.0000    0.0000 C   0  0  0  0  0  0  0  0  0  0  0  0
    5.1115   -5.2408    0.0000 C   0  0  0  0  0  0  0  0  0  0  0  0
    3.5724   -1.2375    0.0000 C   0  0  0  0  0  0  0  0  0  0  0  0
    3.5724   -0.4125    0.0000 C   0  0  0  0  0  0  0  0  0  0  0  0
    5.1536   -7.4231    0.0000 C   0  0  0  0  0  0  0  0  0  0  0  0
    6.2155   -6.4670    0.0000 C   0  0  0  0  0  0  0  0  0  0  0  0
    5.7057   -8.0362    0.0000 C   0  0  0  0  0  0  0  0  0  0  0  0
    6.7676   -7.0801    0.0000 C   0  0  0  0  0  0  0  0  0  0  0  0
    7.0647   -8.4778    0.0000 C   0  0  0  0  0  0  0  0  0  0  0  0
    8.4237   -8.9193    0.0000 C   0  0  0  0  0  0  0  0  0  0  0  0
    8.9757   -9.5324    0.0000 C   0  0  0  0  0  0  0  0  0  0  0  0
    9.0368   -8.3673    0.0000 C   0  0  0  0  0  0  0  0  0  0  0  0
    7.8106   -9.4714    0.0000 C   0  0  0  0  0  0  0  0  0  0  0  0
  1 34  1  0  0  0  0
  1 35  1  0  0  0  0
  2 34  2  0  0  0  0
  3  4  1  0  0  0  0
  3 11  1  0  0  0  0
  3 16  1  0  0  0  0
  4 15  2  0  0  0  0
  5 11  1  0  0  0  0
  5 19  2  0  0  0  0
  6 17  1  0  0  0  0
  6 23  1  0  0  0  0
  7 22  1  0  0  0  0
  7 30  1  0  0  0  0
  7 31  1  0  0  0  0
  8 22  2  0  0  0  0
  8 24  1  0  0  0  0
  9 32  1  0  0  0  0
  9 33  1  0  0  0  0
  9 34  1  0  0  0  0
 10 11  2  0  0  0  0
 10 12  1  0  0  0  0
 10 15  1  0  0  0  0
 12 13  1  0  0  0  0
 12 20  2  0  0  0  0
 13 17  1  0  0  0  0
 13 21  2  0  0  0  0
 14 16  2  0  0  0  0
 14 18  1  0  0  0  0
 14 19  1  0  0  0  0
 17 26  2  0  0  0  0
 18 24  2  0  0  0  0
 18 25  1  0  0  0  0
 20 23  1  0  0  0  0
 21 28  1  0  0  0  0
 22 27  1  0  0  0  0
 25 27  2  0  0  0  0
 26 29  1  0  0  0  0
 28 29  2  0  0  0  0
 30 32  1  0  0  0  0
 31 33  1  0  0  0  0
 35 36  1  0  0  0  0
 35 37  1  0  0  0  0
 35 38  1  0  0  0  0
M  END
> <PUBCHEM_COMPOUND_ID_TYPE>
0

> <PUBCHEM_TOTAL_CHARGE>
0

> <PUBCHEM_SUBSTANCE_ID>
310934883

> <PUBCHEM_SUBSTANCE_VERSION>
1

> <PUBCHEM_EXT_DATASOURCE_NAME>
4488

> <PUBCHEM_EXT_DATASOURCE_REGID>
SCHEMBL16112396

> <PUBCHEM_SUBSTANCE_COMMENT>
InChI=1S/C29H31N7O2/c1-29(2,3)38-28(37)35-14-12-34(13-15-35)26-9-8-20(16-31-26)21-17-32-27-24(18-33-36(27)19-21)22-10-11-30-25-7-5-4-6-23(22)25/h4-10,16-19,30H,11-15H2,1-3H3
InChIKey=KIFQXFAVQKGFOY-UHFFFAOYSA-N

> <PUBCHEM_SUBSTANCE_SYNONYM>
SCHEMBL16112396

> <PUBCHEM_XREF_EXT_ID>
SCHEMBL16112396

> <PUBCHEM_EXT_DATASOURCE_URL>
https://www.surechembl.org/

> <PUBCHEM_EXT_SUBSTANCE_URL>
https://www.surechembl.org/chemical/SCHEMBL16112396

> <PUBCHEM_CID_ASSOCIATIONS>
117603015  1

> <PUBCHEM_COORDINATE_TYPE>
1
3

$$$$
