310943426
  -OEChem-07211613022D

 39 43  0     0  0  0  0  0  0999 V2000
    4.4545    2.0525    0.0000 F   0  0  0  0  0  0  0  0  0  0  0  0
    5.5254    1.7104    0.0000 F   0  0  0  0  0  0  0  0  0  0  0  0
    5.1685    0.6544    0.0000 F   0  0  0  0  0  0  0  0  0  0  0  0
   -4.0529   -0.1933    0.0000 O   0  0  0  0  0  0  0  0  0  0  0  0
   -5.5254    2.1566    0.0000 O   0  0  0  0  0  0  0  0  0  0  0  0
    1.8666    2.1418    0.0000 O   0  0  0  0  0  0  0  0  0  0  0  0
   -4.0529    1.3684    0.0000 N   0  0  0  0  0  0  0  0  0  0  0  0
   -2.5656   -0.1933    0.0000 N   0  0  0  0  0  0  0  0  0  0  0  0
   -0.3347    2.5284    0.0000 N   0  0  0  0  0  0  0  0  0  0  0  0
    1.1378    0.9667    0.0000 N   0  0  0  0  0  0  0  0  0  0  0  0
   -4.0529   -2.5433    0.0000 N   0  0  0  0  0  0  0  0  0  0  0  0
   -1.8220    0.9816    0.0000 C   0  0  0  0  0  0  0  0  0  0  0  0
   -3.3093    0.9965    0.0000 C   0  0  0  0  0  0  0  0  0  0  0  0
   -1.0931    1.3535    0.0000 C   0  0  0  0  0  0  0  0  0  0  0  0
   -3.3242    0.1933    0.0000 C   0  0  0  0  0  0  0  0  0  0  0  0
   -2.5805    1.3684    0.0000 C   0  0  0  0  0  0  0  0  0  0  0  0
   -1.0634    2.1418    0.0000 C   0  0  0  0  0  0  0  0  0  0  0  0
   -1.8368    0.2082    0.0000 C   0  0  0  0  0  0  0  0  0  0  0  0
   -0.3198    0.9667    0.0000 C   0  0  0  0  0  0  0  0  0  0  0  0
    0.3793    1.3535    0.0000 C   0  0  0  0  0  0  0  0  0  0  0  0
    2.6102    0.9667    0.0000 C   0  0  0  0  0  0  0  0  0  0  0  0
    1.8517    1.3386    0.0000 C   0  0  0  0  0  0  0  0  0  0  0  0
    0.4090    2.1269    0.0000 C   0  0  0  0  0  0  0  0  0  0  0  0
    4.0827    0.9667    0.0000 C   0  0  0  0  0  0  0  0  0  0  0  0
   -4.7669    0.9816    0.0000 C   0  0  0  0  0  0  0  0  0  0  0  0
   -4.0380    2.1566    0.0000 C   0  0  0  0  0  0  0  0  0  0  0  0
   -4.0529   -0.9667    0.0000 C   0  0  0  0  0  0  0  0  0  0  0  0
    4.8115    1.3535    0.0000 C   0  0  0  0  0  0  0  0  0  0  0  0
    3.3390    1.3535    0.0000 C   0  0  0  0  0  0  0  0  0  0  0  0
    2.6102    0.1785    0.0000 C   0  0  0  0  0  0  0  0  0  0  0  0
   -1.8220    2.5136    0.0000 C   0  0  0  0  0  0  0  0  0  0  0  0
    4.0827    0.1785    0.0000 C   0  0  0  0  0  0  0  0  0  0  0  0
   -5.5105    1.3684    0.0000 C   0  0  0  0  0  0  0  0  0  0  0  0
   -4.7966    2.5433    0.0000 C   0  0  0  0  0  0  0  0  0  0  0  0
    3.3539   -0.2082    0.0000 C   0  0  0  0  0  0  0  0  0  0  0  0
   -3.2944   -1.3832    0.0000 C   0  0  0  0  0  0  0  0  0  0  0  0
   -4.7817   -1.3684    0.0000 C   0  0  0  0  0  0  0  0  0  0  0  0
   -3.3242   -2.1715    0.0000 C   0  0  0  0  0  0  0  0  0  0  0  0
   -4.7817   -2.1566    0.0000 C   0  0  0  0  0  0  0  0  0  0  0  0
  1 28  1  0  0  0  0
  2 28  1  0  0  0  0
  3 28  1  0  0  0  0
  4 15  1  0  0  0  0
  4 27  1  0  0  0  0
  5 33  1  0  0  0  0
  5 34  1  0  0  0  0
  6 22  2  0  0  0  0
  7 13  1  0  0  0  0
  7 25  1  0  0  0  0
  7 26  1  0  0  0  0
  8 15  1  0  0  0  0
  8 18  2  0  0  0  0
  9 17  1  0  0  0  0
  9 23  2  0  0  0  0
 10 20  1  0  0  0  0
 10 22  1  0  0  0  0
 11 38  1  0  0  0  0
 11 39  1  0  0  0  0
 12 14  1  0  0  0  0
 12 16  2  0  0  0  0
 12 18  1  0  0  0  0
 13 15  2  0  0  0  0
 13 16  1  0  0  0  0
 14 17  2  0  0  0  0
 14 19  1  0  0  0  0
 17 31  1  0  0  0  0
 19 20  2  0  0  0  0
 20 23  1  0  0  0  0
 21 22  1  0  0  0  0
 21 29  1  0  0  0  0
 21 30  2  0  0  0  0
 24 28  1  0  0  0  0
 24 29  2  0  0  0  0
 24 32  1  0  0  0  0
 25 33  1  0  0  0  0
 26 34  1  0  0  0  0
 27 36  1  0  0  0  0
 27 37  1  0  0  0  0
 30 35  1  0  0  0  0
 32 35  2  0  0  0  0
 36 38  1  0  0  0  0
 37 39  1  0  0  0  0
M  END
> <PUBCHEM_COMPOUND_ID_TYPE>
0

> <PUBCHEM_TOTAL_CHARGE>
0

> <PUBCHEM_SUBSTANCE_ID>
310943426

> <PUBCHEM_SUBSTANCE_VERSION>
1

> <PUBCHEM_EXT_DATASOURCE_NAME>
4488

> <PUBCHEM_EXT_DATASOURCE_REGID>
SCHEMBL16121490

> <PUBCHEM_SUBSTANCE_COMMENT>
InChI=1S/C28H30F3N5O3/c1-18-24(15-22(17-33-18)35-26(37)19-3-2-4-21(13-19)28(29,30)31)20-14-25(36-9-11-38-12-10-36)27(34-16-20)39-23-5-7-32-8-6-23/h2-4,13-17,23,32H,5-12H2,1H3,(H,35,37)
InChIKey=GMFFYKGLEFDJHF-UHFFFAOYSA-N

> <PUBCHEM_SUBSTANCE_SYNONYM>
SCHEMBL16121490

> <PUBCHEM_XREF_EXT_ID>
SCHEMBL16121490

> <PUBCHEM_EXT_DATASOURCE_URL>
https://www.surechembl.org/

> <PUBCHEM_EXT_SUBSTANCE_URL>
https://www.surechembl.org/chemical/SCHEMBL16121490

> <PUBCHEM_CID_ASSOCIATIONS>
117609850  1

> <PUBCHEM_COORDINATE_TYPE>
1
3

$$$$
