310948236
  -OEChem-07211613022D

 40 44  0     1  0  0  0  0  0999 V2000
   -1.3888   -1.8838    0.0000 S   0  0  0  0  0  0  0  0  0  0  0  0
   -1.5950   -2.6813    0.0000 O   0  0  0  0  0  0  0  0  0  0  0  0
   -2.2139   -1.8838    0.0000 O   0  0  0  0  0  0  0  0  0  0  0  0
    1.2100   -3.0526    0.0000 O   0  0  0  0  0  0  0  0  0  0  0  0
    0.2063   -4.0564    0.0000 O   0  0  0  0  0  0  0  0  0  0  0  0
   -2.6126    2.8051    0.0000 O   0  0  0  0  0  0  0  0  0  0  0  0
   -0.5638   -1.9663    0.0000 N   0  0  3  0  0  0  0  0  0  0  0  0
    0.1237    2.7089    0.0000 N   0  0  0  0  0  0  0  0  0  0  0  0
   -0.1925    1.9526    0.0000 N   0  0  0  0  0  0  0  0  0  0  0  0
   -1.5538    1.4025    0.0000 N   0  0  0  0  0  0  0  0  0  0  0  0
   -1.9251    4.0564    0.0000 N   0  0  0  0  0  0  0  0  0  0  0  0
    0.9488    0.6600    0.0000 N   0  0  0  0  0  0  0  0  0  0  0  0
   -1.5538   -1.0588    0.0000 C   0  0  0  0  0  0  0  0  0  0  0  0
   -0.8526   -0.6463    0.0000 C   0  0  0  0  0  0  0  0  0  0  0  0
   -0.1513   -2.6813    0.0000 C   0  0  0  0  0  0  0  0  0  0  0  0
   -0.2475   -1.2100    0.0000 C   0  0  0  0  0  0  0  0  0  0  0  0
   -1.1825    2.8326    0.0000 C   0  0  0  0  0  0  0  0  0  0  0  0
   -1.0175    2.0351    0.0000 C   0  0  0  0  0  0  0  0  0  0  0  0
   -0.4950    3.2451    0.0000 C   0  0  0  0  0  0  0  0  0  0  0  0
   -0.8526    0.1650    0.0000 C   0  0  0  0  0  0  0  0  0  0  0  0
   -1.5676    0.5775    0.0000 C   0  0  0  0  0  0  0  0  0  0  0  0
   -2.2688   -0.6600    0.0000 C   0  0  0  0  0  0  0  0  0  0  0  0
    0.4262   -3.2451    0.0000 C   0  0  0  0  0  0  0  0  0  0  0  0
   -2.2688    0.1650    0.0000 C   0  0  0  0  0  0  0  0  0  0  0  0
    0.9351    2.8876    0.0000 C   0  0  3  0  0  0  0  0  0  0  0  0
   -1.9113    3.2451    0.0000 C   0  0  0  0  0  0  0  0  0  0  0  0
   -0.5501   -3.4102    0.0000 C   0  0  0  0  0  0  0  0  0  0  0  0
    0.5775   -2.2688    0.0000 C   0  0  0  0  0  0  0  0  0  0  0  0
   -0.4950    4.0701    0.0000 C   0  0  0  0  0  0  0  0  0  0  0  0
    1.4988    2.2826    0.0000 C   0  0  3  0  0  0  0  0  0  0  0  0
   -1.2238    4.4690    0.0000 C   0  0  0  0  0  0  0  0  0  0  0  0
    1.1825    3.6714    0.0000 C   0  0  0  0  0  0  0  0  0  0  0  0
    1.8151   -3.6439    0.0000 C   0  0  0  0  0  0  0  0  0  0  0  0
    2.2826    2.4613    0.0000 C   0  0  0  0  0  0  0  0  0  0  0  0
    1.2238    1.5125    0.0000 C   0  0  0  0  0  0  0  0  0  0  0  0
    1.9801    3.8364    0.0000 C   0  0  0  0  0  0  0  0  0  0  0  0
    2.5301    3.2451    0.0000 C   0  0  0  0  0  0  0  0  0  0  0  0
    2.6126   -3.4239    0.0000 C   0  0  0  0  0  0  0  0  0  0  0  0
    2.3926   -4.2352    0.0000 C   0  0  0  0  0  0  0  0  0  0  0  0
    1.8151   -4.4690    0.0000 C   0  0  0  0  0  0  0  0  0  0  0  0
  1  2  2  0  0  0  0
  1  3  2  0  0  0  0
  1  7  1  0  0  0  0
  1 13  1  0  0  0  0
  4 23  1  0  0  0  0
  4 33  1  0  0  0  0
  5 23  2  0  0  0  0
  6 26  2  0  0  0  0
  7 15  1  0  0  0  0
  7 16  1  0  0  0  0
  8  9  1  0  0  0  0
  8 19  1  0  0  0  0
 25  8  1  1  0  0  0
  9 18  2  0  0  0  0
 10 18  1  0  0  0  0
 10 21  1  0  0  0  0
 11 26  1  0  0  0  0
 11 31  1  0  0  0  0
 12 35  3  0  0  0  0
 13 14  1  0  0  0  0
 13 22  2  0  0  0  0
 14 16  1  0  0  0  0
 14 20  2  0  0  0  0
 15 23  1  0  0  0  0
 15 27  1  0  0  0  0
 15 28  1  0  0  0  0
 17 18  1  0  0  0  0
 17 19  2  0  0  0  0
 17 26  1  0  0  0  0
 19 29  1  0  0  0  0
 20 21  1  0  0  0  0
 21 24  2  0  0  0  0
 22 24  1  0  0  0  0
 25 30  1  0  0  0  0
 25 32  1  0  0  0  0
 29 31  2  0  0  0  0
 30 34  1  0  0  0  0
 30 35  1  6  0  0  0
 32 36  1  0  0  0  0
 33 38  1  0  0  0  0
 33 39  1  0  0  0  0
 33 40  1  0  0  0  0
 34 37  1  0  0  0  0
 36 37  1  0  0  0  0
M  END
> <PUBCHEM_COMPOUND_ID_TYPE>
0

> <PUBCHEM_TOTAL_CHARGE>
0

> <PUBCHEM_SUBSTANCE_ID>
310948236

> <PUBCHEM_SUBSTANCE_VERSION>
1

> <PUBCHEM_EXT_DATASOURCE_NAME>
4488

> <PUBCHEM_EXT_DATASOURCE_REGID>
SCHEMBL16126413

> <PUBCHEM_SUBSTANCE_COMMENT>
InChI=1S/C28H34N6O5S/c1-27(2,3)39-26(36)28(4,5)33-16-18-14-19(10-11-22(18)40(33,37)38)31-24-23-21(12-13-30-25(23)35)34(32-24)20-9-7-6-8-17(20)15-29/h10-14,17,20H,6-9,16H2,1-5H3,(H,30,35)(H,31,32)/t17-,20+/m1/s1
InChIKey=MEQYIBUXKPBLTC-XLIONFOSSA-N

> <PUBCHEM_SUBSTANCE_SYNONYM>
SCHEMBL16126413

> <PUBCHEM_XREF_EXT_ID>
SCHEMBL16126413

> <PUBCHEM_EXT_DATASOURCE_URL>
https://www.surechembl.org/

> <PUBCHEM_EXT_SUBSTANCE_URL>
https://www.surechembl.org/chemical/SCHEMBL16126413

> <PUBCHEM_CID_ASSOCIATIONS>
117613816  1

> <PUBCHEM_COORDINATE_TYPE>
1
3

> <PUBCHEM_BONDANNOTATIONS>
30  35  6
25  8  5

$$$$
