310945217
  -OEChem-07211613022D

 33 37  0     1  0  0  0  0  0999 V2000
    2.0694   -3.1382    0.0000 S   0  0  0  0  0  0  0  0  0  0  0  0
    3.7522   -3.2292    0.0000 O   0  0  0  0  0  0  0  0  0  0  0  0
   -3.7636    0.8414    0.0000 O   0  0  0  0  0  0  0  0  0  0  0  0
   -0.8756    1.6715    0.0000 O   0  0  0  0  0  0  0  0  0  0  0  0
    2.2969   -0.9665    0.0000 N   0  0  0  0  0  0  0  0  0  0  0  0
   -0.8756   -1.6259    0.0000 N   0  0  0  0  0  0  0  0  0  0  0  0
    3.9683   -1.8420    0.0000 N   0  0  0  0  0  0  0  0  0  0  0  0
   -2.3082    1.6828    0.0000 N   0  0  0  0  0  0  0  0  0  0  0  0
    1.2848   -2.0467    0.0000 C   0  0  0  0  0  0  0  0  0  0  0  0
    2.0694   -1.7965    0.0000 C   0  0  0  0  0  0  0  0  0  0  0  0
    0.5571   -1.6373    0.0000 C   0  0  0  0  0  0  0  0  0  0  0  0
    1.2735   -2.8654    0.0000 C   0  0  0  0  0  0  0  0  0  0  0  0
    2.5583   -2.4560    0.0000 C   0  0  0  0  0  0  0  0  0  0  0  0
   -0.1592   -2.0467    0.0000 C   0  0  0  0  0  0  0  0  0  0  0  0
    0.5571   -3.2746    0.0000 C   0  0  0  0  0  0  0  0  0  0  0  0
    3.3997   -2.4674    0.0000 C   0  0  0  0  0  0  0  0  0  0  0  0
    0.5685   -0.8187    0.0000 C   0  0  0  0  0  0  0  0  0  0  0  0
   -0.1592   -2.8654    0.0000 C   0  0  0  0  0  0  0  0  0  0  0  0
   -0.8756   -0.7959    0.0000 C   0  0  0  0  0  0  0  0  0  0  0  0
   -0.1592   -0.3980    0.0000 C   0  0  0  0  0  0  0  0  0  0  0  0
   -1.6146   -0.3866    0.0000 C   0  0  0  0  0  0  0  0  0  0  0  0
    3.0586   -0.6368    0.0000 C   0  0  0  0  0  0  0  0  0  0  0  0
    3.8205   -1.0233    0.0000 C   0  0  3  0  0  0  0  0  0  0  0  0
   -1.5919    0.4320    0.0000 C   0  0  0  0  0  0  0  0  0  0  0  0
   -2.3195    0.8528    0.0000 C   0  0  0  0  0  0  0  0  0  0  0  0
   -2.3195   -0.7959    0.0000 C   0  0  0  0  0  0  0  0  0  0  0  0
   -3.0359    0.4320    0.0000 C   0  0  0  0  0  0  0  0  0  0  0  0
   -3.0359   -0.3752    0.0000 C   0  0  0  0  0  0  0  0  0  0  0  0
    4.4799   -0.5457    0.0000 C   0  0  0  0  0  0  0  0  0  0  0  0
   -1.6146    2.1035    0.0000 C   0  0  0  0  0  0  0  0  0  0  0  0
   -1.5805    2.9222    0.0000 C   0  0  0  0  0  0  0  0  0  0  0  0
   -4.4799    0.4207    0.0000 C   0  0  0  0  0  0  0  0  0  0  0  0
   -0.8414    3.2746    0.0000 C   0  0  0  0  0  0  0  0  0  0  0  0
  1 12  1  0  0  0  0
  1 13  1  0  0  0  0
  2 16  2  0  0  0  0
  3 27  1  0  0  0  0
  3 32  1  0  0  0  0
  4 30  2  0  0  0  0
  5 10  1  0  0  0  0
  5 22  1  0  0  0  0
  6 14  2  0  0  0  0
  6 19  1  0  0  0  0
  7 16  1  0  0  0  0
  7 23  1  0  0  0  0
  8 25  1  0  0  0  0
  8 30  1  0  0  0  0
  9 10  1  0  0  0  0
  9 11  1  0  0  0  0
  9 12  2  0  0  0  0
 10 13  2  0  0  0  0
 11 14  1  0  0  0  0
 11 17  2  0  0  0  0
 12 15  1  0  0  0  0
 13 16  1  0  0  0  0
 14 18  1  0  0  0  0
 15 18  2  0  0  0  0
 17 20  1  0  0  0  0
 19 20  2  0  0  0  0
 19 21  1  0  0  0  0
 21 24  2  0  0  0  0
 21 26  1  0  0  0  0
 22 23  1  0  0  0  0
 23 29  1  1  0  0  0
 24 25  1  0  0  0  0
 25 27  2  0  0  0  0
 26 28  2  0  0  0  0
 27 28  1  0  0  0  0
 30 31  1  0  0  0  0
 31 33  2  0  0  0  0
M  END
> <PUBCHEM_COMPOUND_ID_TYPE>
0

> <PUBCHEM_TOTAL_CHARGE>
0

> <PUBCHEM_SUBSTANCE_ID>
310945217

> <PUBCHEM_SUBSTANCE_VERSION>
1

> <PUBCHEM_EXT_DATASOURCE_NAME>
4488

> <PUBCHEM_EXT_DATASOURCE_REGID>
SCHEMBL16123307

> <PUBCHEM_SUBSTANCE_COMMENT>
InChI=1S/C25H22N4O3S/c1-4-21(30)29-18-11-14(5-9-19(18)32-3)16-7-6-15-17(28-16)8-10-20-22(15)23-24(33-20)25(31)27-13(2)12-26-23/h4-11,13,26H,1,12H2,2-3H3,(H,27,31)(H,29,30)/t13-/m1/s1
InChIKey=YAAVJTPCWLXQED-CYBMUJFWSA-N

> <PUBCHEM_SUBSTANCE_SYNONYM>
SCHEMBL16123307

> <PUBCHEM_XREF_EXT_ID>
SCHEMBL16123307

> <PUBCHEM_EXT_DATASOURCE_URL>
https://www.surechembl.org/

> <PUBCHEM_EXT_SUBSTANCE_URL>
https://www.surechembl.org/chemical/SCHEMBL16123307

> <PUBCHEM_CID_ASSOCIATIONS>
117611292  1

> <PUBCHEM_COORDINATE_TYPE>
1
3

> <PUBCHEM_BONDANNOTATIONS>
23  29  5

$$$$
