310935901
  -OEChem-07211613022D

 14 14  0     0  0  0  0  0  0999 V2000
    2.2073   -2.1181    0.0000 S   0  0  0  0  0  0  0  0  0  0  0  0
    0.8250   -3.1438    0.0000 O   0  0  0  0  0  0  0  0  0  0  0  0
    0.0000   -1.9844    0.0000 O   0  0  0  0  0  0  0  0  0  0  0  0
    4.7715   -0.7135    0.0000 O   0  0  0  0  0  0  0  0  0  0  0  0
    2.2073   -0.7581    0.0000 N   0  0  0  0  0  0  0  0  0  0  0  0
    3.5228   -1.4270    0.0000 N   0  0  0  0  0  0  0  0  0  0  0  0
    1.4270   -1.8506    0.0000 C   0  0  0  0  0  0  0  0  0  0  0  0
    2.6756   -1.4270    0.0000 C   0  0  0  0  0  0  0  0  0  0  0  0
    0.7581   -2.3188    0.0000 C   0  0  0  0  0  0  0  0  0  0  0  0
    1.4270   -1.0256    0.0000 C   0  0  0  0  0  0  0  0  0  0  0  0
    3.9242   -0.7135    0.0000 C   0  0  0  0  0  0  0  0  0  0  0  0
    0.1560   -3.6343    0.0000 C   0  0  0  0  0  0  0  0  0  0  0  0
    3.5228    0.0000    0.0000 C   0  0  0  0  0  0  0  0  0  0  0  0
    0.2452   -4.4593    0.0000 C   0  0  0  0  0  0  0  0  0  0  0  0
  1  7  1  0  0  0  0
  1  8  1  0  0  0  0
  2  9  1  0  0  0  0
  2 12  1  0  0  0  0
  3  9  2  0  0  0  0
  4 11  2  0  0  0  0
  5  8  2  0  0  0  0
  5 10  1  0  0  0  0
  6  8  1  0  0  0  0
  6 11  1  0  0  0  0
  7  9  1  0  0  0  0
  7 10  2  0  0  0  0
 11 13  1  0  0  0  0
 12 14  1  0  0  0  0
M  END
> <PUBCHEM_COMPOUND_ID_TYPE>
0

> <PUBCHEM_TOTAL_CHARGE>
0

> <PUBCHEM_SUBSTANCE_ID>
310935901

> <PUBCHEM_SUBSTANCE_VERSION>
1

> <PUBCHEM_EXT_DATASOURCE_NAME>
4488

> <PUBCHEM_EXT_DATASOURCE_REGID>
SCHEMBL16113496

> <PUBCHEM_SUBSTANCE_COMMENT>
InChI=1S/C8H10N2O3S/c1-3-13-7(12)6-4-9-8(14-6)10-5(2)11/h4H,3H2,1-2H3,(H,9,10,11)
InChIKey=SBDHKMXKGFVKBN-UHFFFAOYSA-N

> <PUBCHEM_SUBSTANCE_SYNONYM>
SCHEMBL16113496

> <PUBCHEM_XREF_EXT_ID>
SCHEMBL16113496

> <PUBCHEM_EXT_DATASOURCE_URL>
https://www.surechembl.org/

> <PUBCHEM_EXT_SUBSTANCE_URL>
https://www.surechembl.org/chemical/SCHEMBL16113496

> <PUBCHEM_CID_ASSOCIATIONS>
44118320  1

> <PUBCHEM_COORDINATE_TYPE>
1
3

$$$$
