310940045
  -OEChem-07211613022D

 14 14  0     0  0  0  0  0  0999 V2000
   -2.1620   -3.7997    0.0000 Cl  0  0  0  0  0  0  0  0  0  0  0  0
    0.6959   -3.7997    0.0000 O   0  0  0  0  0  0  0  0  0  0  0  0
    0.6959   -1.3247    0.0000 O   0  5  0  0  0  0  0  0  0  0  0  0
    1.4104   -2.5622    0.0000 O   0  0  0  0  0  0  0  0  0  0  0  0
    0.6959   -2.1497    0.0000 N   0  3  0  0  0  0  0  0  0  0  0  0
   -0.0186   -2.5622    0.0000 C   0  0  0  0  0  0  0  0  0  0  0  0
   -0.0186   -3.3872    0.0000 C   0  0  0  0  0  0  0  0  0  0  0  0
   -1.4475   -2.5622    0.0000 C   0  0  0  0  0  0  0  0  0  0  0  0
   -1.4475   -3.3872    0.0000 C   0  0  0  0  0  0  0  0  0  0  0  0
   -0.7330   -2.1497    0.0000 C   0  0  0  0  0  0  0  0  0  0  0  0
   -0.7330   -3.7997    0.0000 C   0  0  0  0  0  0  0  0  0  0  0  0
   -2.1620   -2.1497    0.0000 C   0  0  0  0  0  0  0  0  0  0  0  0
    1.4104   -3.3872    0.0000 C   0  0  0  0  0  0  0  0  0  0  0  0
   -2.8764   -2.5622    0.0000 C   0  0  0  0  0  0  0  0  0  0  0  0
  1  9  1  0  0  0  0
  2  7  1  0  0  0  0
  2 13  1  0  0  0  0
  3  5  1  0  0  0  0
  4  5  2  0  0  0  0
  5  6  1  0  0  0  0
  6  7  1  0  0  0  0
  6 10  2  0  0  0  0
  7 11  2  0  0  0  0
  8  9  2  0  0  0  0
  8 10  1  0  0  0  0
  8 12  1  0  0  0  0
  9 11  1  0  0  0  0
 12 14  1  0  0  0  0
M  CHG  2   3  -1   5   1
M  END
> <PUBCHEM_COMPOUND_ID_TYPE>
0

> <PUBCHEM_TOTAL_CHARGE>
0

> <PUBCHEM_SUBSTANCE_ID>
310940045

> <PUBCHEM_SUBSTANCE_VERSION>
1

> <PUBCHEM_EXT_DATASOURCE_NAME>
4488

> <PUBCHEM_EXT_DATASOURCE_REGID>
SCHEMBL16117975

> <PUBCHEM_SUBSTANCE_COMMENT>
InChI=1S/C9H10ClNO3/c1-3-6-4-8(11(12)13)9(14-2)5-7(6)10/h4-5H,3H2,1-2H3
InChIKey=DPPLRKRZRVWSKH-UHFFFAOYSA-N

> <PUBCHEM_SUBSTANCE_SYNONYM>
SCHEMBL16117975

> <PUBCHEM_XREF_EXT_ID>
SCHEMBL16117975

> <PUBCHEM_EXT_DATASOURCE_URL>
https://www.surechembl.org/

> <PUBCHEM_EXT_SUBSTANCE_URL>
https://www.surechembl.org/chemical/SCHEMBL16117975

> <PUBCHEM_CID_ASSOCIATIONS>
117607195  1

> <PUBCHEM_COORDINATE_TYPE>
1
3

$$$$
