310946723
  -OEChem-07211613022D

 34 37  0     1  0  0  0  0  0999 V2000
    3.3086    2.0769    0.0000 S   0  0  0  0  0  0  0  0  0  0  0  0
   -2.2477    0.9620    0.0000 O   0  0  0  0  0  0  0  0  0  0  0  0
    1.3126   -2.4905    0.0000 O   0  0  0  0  0  0  0  0  0  0  0  0
   -4.0458   -0.2787    0.0000 O   0  0  0  0  0  0  0  0  0  0  0  0
   -3.8841    1.1418    0.0000 O   0  0  0  0  0  0  0  0  0  0  0  0
    3.7222    2.7962    0.0000 O   0  0  0  0  0  0  0  0  0  0  0  0
    2.5894    2.4905    0.0000 O   0  0  0  0  0  0  0  0  0  0  0  0
   -0.4315   -0.3506    0.0000 N   0  0  0  0  0  0  0  0  0  0  0  0
    0.3596   -0.0989    0.0000 N   0  0  0  0  0  0  0  0  0  0  0  0
    1.6543   -0.7642    0.0000 N   0  0  0  0  0  0  0  0  0  0  0  0
   -0.0899   -2.7962    0.0000 N   0  0  0  0  0  0  0  0  0  0  0  0
   -0.1798    2.0949    0.0000 N   0  0  0  0  0  0  0  0  0  0  0  0
   -1.1149    0.1168    0.0000 C   0  0  3  0  0  0  0  0  0  0  0  0
   -0.4315   -1.1598    0.0000 C   0  0  0  0  0  0  0  0  0  0  0  0
    0.3417   -1.4475    0.0000 C   0  0  0  0  0  0  0  0  0  0  0  0
    0.8272   -0.7462    0.0000 C   0  0  0  0  0  0  0  0  0  0  0  0
    0.5035   -2.2387    0.0000 C   0  0  0  0  0  0  0  0  0  0  0  0
   -1.4205    0.8721    0.0000 C   0  0  0  0  0  0  0  0  0  0  0  0
   -1.5644   -0.5304    0.0000 C   0  0  0  0  0  0  0  0  0  0  0  0
   -1.0249   -1.7352    0.0000 C   0  0  0  0  0  0  0  0  0  0  0  0
   -0.3236    0.4406    0.0000 C   0  0  0  0  0  0  0  0  0  0  0  0
   -2.7332    0.2967    0.0000 C   0  0  3  0  0  0  0  0  0  0  0  0
   -2.3915   -0.4406    0.0000 C   0  0  0  0  0  0  0  0  0  0  0  0
   -0.8631   -2.5264    0.0000 C   0  0  0  0  0  0  0  0  0  0  0  0
    2.0679   -0.0270    0.0000 C   0  0  0  0  0  0  0  0  0  0  0  0
   -0.2517    1.2677    0.0000 C   0  0  0  0  0  0  0  0  0  0  0  0
   -3.5603    0.3866    0.0000 C   0  0  0  0  0  0  0  0  0  0  0  0
    2.8950   -0.0449    0.0000 C   0  0  0  0  0  0  0  0  0  0  0  0
    1.6723    0.6564    0.0000 C   0  0  0  0  0  0  0  0  0  0  0  0
    2.8771    1.3756    0.0000 C   0  0  0  0  0  0  0  0  0  0  0  0
    3.2907    0.6383    0.0000 C   0  0  0  0  0  0  0  0  0  0  0  0
    2.0679    1.3576    0.0000 C   0  0  0  0  0  0  0  0  0  0  0  0
    4.0458    1.6633    0.0000 C   0  0  0  0  0  0  0  0  0  0  0  0
   -3.6862   -1.0339    0.0000 C   0  0  0  0  0  0  0  0  0  0  0  0
  1  6  2  0  0  0  0
  1  7  2  0  0  0  0
  1 30  1  0  0  0  0
  1 33  1  0  0  0  0
  2 18  1  0  0  0  0
  2 22  1  0  0  0  0
  3 17  2  0  0  0  0
  4 27  1  0  0  0  0
  4 34  1  0  0  0  0
  5 27  2  0  0  0  0
  8  9  1  0  0  0  0
  8 13  1  0  0  0  0
  8 14  1  0  0  0  0
  9 16  2  0  0  0  0
 10 16  1  0  0  0  0
 10 25  1  0  0  0  0
 11 17  1  0  0  0  0
 11 24  1  0  0  0  0
 12 26  3  0  0  0  0
 13 18  1  0  0  0  0
 13 19  1  0  0  0  0
 13 21  1  6  0  0  0
 14 15  2  0  0  0  0
 14 20  1  0  0  0  0
 15 16  1  0  0  0  0
 15 17  1  0  0  0  0
 19 23  1  0  0  0  0
 20 24  2  0  0  0  0
 21 26  1  0  0  0  0
 22 23  1  0  0  0  0
 22 27  1  6  0  0  0
 25 28  2  0  0  0  0
 25 29  1  0  0  0  0
 28 31  1  0  0  0  0
 29 32  2  0  0  0  0
 30 31  2  0  0  0  0
 30 32  1  0  0  0  0
M  END
> <PUBCHEM_COMPOUND_ID_TYPE>
0

> <PUBCHEM_TOTAL_CHARGE>
0

> <PUBCHEM_SUBSTANCE_ID>
310946723

> <PUBCHEM_SUBSTANCE_VERSION>
1

> <PUBCHEM_EXT_DATASOURCE_NAME>
4488

> <PUBCHEM_EXT_DATASOURCE_REGID>
SCHEMBL16124847

> <PUBCHEM_SUBSTANCE_COMMENT>
InChI=1S/C22H23N5O6S/c1-32-21(29)17-7-9-22(10-11-23,13-33-17)27-16-8-12-24-20(28)18(16)19(26-27)25-14-3-5-15(6-4-14)34(2,30)31/h3-6,8,12,17H,7,9-10,13H2,1-2H3,(H,24,28)(H,25,26)/t17-,22-/m1/s1
InChIKey=CUBORHOSMCXRBB-VGOFRKELSA-N

> <PUBCHEM_SUBSTANCE_SYNONYM>
SCHEMBL16124847

> <PUBCHEM_XREF_EXT_ID>
SCHEMBL16124847

> <PUBCHEM_EXT_DATASOURCE_URL>
https://www.surechembl.org/

> <PUBCHEM_EXT_SUBSTANCE_URL>
https://www.surechembl.org/chemical/SCHEMBL16124847

> <PUBCHEM_CID_ASSOCIATIONS>
117612613  1

> <PUBCHEM_COORDINATE_TYPE>
1
3

> <PUBCHEM_BONDANNOTATIONS>
13  21  6
22  27  6

$$$$
