310942694
  -OEChem-07211613022D

 18 18  0     0  0  0  0  0  0999 V2000
   -2.6760    3.3107    0.0000 Cl  0  0  0  0  0  0  0  0  0  0  0  0
    0.4548    1.6606    0.0000 O   0  0  0  0  0  0  0  0  0  0  0  0
    1.8721   -3.3318    0.0000 O   0  0  0  0  0  0  0  0  0  0  0  0
    0.4125   -3.3318    0.0000 O   0  0  0  0  0  0  0  0  0  0  0  0
    0.4548   -0.8144    0.0000 N   0  0  0  0  0  0  0  0  0  0  0  0
   -0.9837    1.7029    0.0000 C   0  0  0  0  0  0  0  0  0  0  0  0
   -0.2856    2.1260    0.0000 C   0  0  0  0  0  0  0  0  0  0  0  0
   -1.6606    2.1048    0.0000 C   0  0  0  0  0  0  0  0  0  0  0  0
   -1.6818    2.9510    0.0000 C   0  0  0  0  0  0  0  0  0  0  0  0
   -0.2645    2.9088    0.0000 C   0  0  0  0  0  0  0  0  0  0  0  0
   -0.9625    3.3318    0.0000 C   0  0  0  0  0  0  0  0  0  0  0  0
   -0.9837    0.8568    0.0000 C   0  0  0  0  0  0  0  0  0  0  0  0
   -0.2645    0.4337    0.0000 C   0  0  0  0  0  0  0  0  0  0  0  0
   -0.2645   -0.3913    0.0000 C   0  0  0  0  0  0  0  0  0  0  0  0
    1.1529   -2.8664    0.0000 C   0  0  0  0  0  0  0  0  0  0  0  0
    1.1529   -2.0414    0.0000 C   0  0  0  0  0  0  0  0  0  0  0  0
    0.4337   -1.6183    0.0000 C   0  0  0  0  0  0  0  0  0  0  0  0
    2.6760   -3.1415    0.0000 C   0  0  0  0  0  0  0  0  0  0  0  0
  1  9  1  0  0  0  0
  2  7  1  0  0  0  0
  3 15  1  0  0  0  0
  3 18  1  0  0  0  0
  4 15  2  0  0  0  0
  5 14  1  0  0  0  0
  5 17  1  0  0  0  0
  6  7  2  0  0  0  0
  6  8  1  0  0  0  0
  6 12  1  0  0  0  0
  7 10  1  0  0  0  0
  8  9  2  0  0  0  0
  9 11  1  0  0  0  0
 10 11  2  0  0  0  0
 12 13  2  0  0  0  0
 13 14  1  0  0  0  0
 15 16  1  0  0  0  0
 16 17  1  0  0  0  0
M  END
> <PUBCHEM_COMPOUND_ID_TYPE>
0

> <PUBCHEM_TOTAL_CHARGE>
0

> <PUBCHEM_SUBSTANCE_ID>
310942694

> <PUBCHEM_SUBSTANCE_VERSION>
1

> <PUBCHEM_EXT_DATASOURCE_NAME>
4488

> <PUBCHEM_EXT_DATASOURCE_REGID>
SCHEMBL16120740

> <PUBCHEM_SUBSTANCE_COMMENT>
InChI=1S/C13H16ClNO3/c1-18-13(17)6-8-15-7-2-3-10-9-11(14)4-5-12(10)16/h2-5,9,15-16H,6-8H2,1H3/b3-2+
InChIKey=SSYYYJUIUZGMQJ-NSCUHMNNSA-N

> <PUBCHEM_SUBSTANCE_SYNONYM>
SCHEMBL16120740

> <PUBCHEM_XREF_EXT_ID>
SCHEMBL16120740

> <PUBCHEM_EXT_DATASOURCE_URL>
https://www.surechembl.org/

> <PUBCHEM_EXT_SUBSTANCE_URL>
https://www.surechembl.org/chemical/SCHEMBL16120740

> <PUBCHEM_CID_ASSOCIATIONS>
117609222  1

> <PUBCHEM_COORDINATE_TYPE>
1
3

$$$$
