310929035
  -OEChem-07211613022D

 58 62  0     0  0  0  0  0  0999 V2000
    4.1251   -5.0051    0.0000 S   0  0  0  0  0  0  0  0  0  0  0  0
    6.6001   -0.7150    0.0000 O   0  0  0  0  0  0  0  0  0  0  0  0
    4.1251   -3.5751    0.0000 O   0  0  0  0  0  0  0  0  0  0  0  0
    2.0900   -1.3750    0.0000 O   0  0  0  0  0  0  0  0  0  0  0  0
    4.1251   -4.0701    0.0000 O   0  0  0  0  0  0  0  0  0  0  0  0
    4.1251   -5.7751    0.0000 O   0  0  0  0  0  0  0  0  0  0  0  0
   11.4952   -3.7951    0.0000 O   0  0  0  0  0  0  0  0  0  0  0  0
    8.9102   -5.1151    0.0000 O   0  0  0  0  0  0  0  0  0  0  0  0
   11.9902   -1.6500    0.0000 O   0  0  0  0  0  0  0  0  0  0  0  0
   14.0803   -1.0450    0.0000 O   0  0  0  0  0  0  0  0  0  0  0  0
   15.6753   -2.5300    0.0000 O   0  0  0  0  0  0  0  0  0  0  0  0
    3.3001   -2.1450    0.0000 N   0  0  0  0  0  0  0  0  0  0  0  0
    3.3001   -0.7150    0.0000 N   0  0  0  0  0  0  0  0  0  0  0  0
    3.3001   -5.0051    0.0000 N   0  0  0  0  0  0  0  0  0  0  0  0
    9.0202   -2.2551    0.0000 N   0  0  0  0  0  0  0  0  0  0  0  0
    7.8101   -2.9150    0.0000 N   0  0  0  0  0  0  0  0  0  0  0  0
    2.9150   -2.8601    0.0000 C   0  0  0  0  0  0  0  0  0  0  0  0
    3.3001   -3.5751    0.0000 C   0  0  0  0  0  0  0  0  0  0  0  0
    4.5651   -1.3750    0.0000 C   0  0  0  0  0  0  0  0  0  0  0  0
    5.3901   -1.3750    0.0000 C   0  0  0  0  0  0  0  0  0  0  0  0
    2.9150   -4.2901    0.0000 C   0  0  0  0  0  0  0  0  0  0  0  0
    1.6500   -3.5751    0.0000 C   0  0  0  0  0  0  0  0  0  0  0  0
    4.1251   -0.7150    0.0000 C   0  0  0  0  0  0  0  0  0  0  0  0
    5.7751   -0.7150    0.0000 C   0  0  0  0  0  0  0  0  0  0  0  0
    2.0900   -2.8050    0.0000 C   0  0  0  0  0  0  0  0  0  0  0  0
    2.0350   -4.2351    0.0000 C   0  0  0  0  0  0  0  0  0  0  0  0
    0.8250   -3.5751    0.0000 C   0  0  0  0  0  0  0  0  0  0  0  0
    2.9150   -1.4300    0.0000 C   0  0  0  0  0  0  0  0  0  0  0  0
    4.5651    0.0000    0.0000 C   0  0  0  0  0  0  0  0  0  0  0  0
    5.3901    0.0000    0.0000 C   0  0  0  0  0  0  0  0  0  0  0  0
    4.1251   -2.0900    0.0000 C   0  0  0  0  0  0  0  0  0  0  0  0
    5.7751   -2.1450    0.0000 C   0  0  0  0  0  0  0  0  0  0  0  0
    7.0401   -1.4850    0.0000 C   0  0  0  0  0  0  0  0  0  0  0  0
    4.6751   -3.0250    0.0000 C   0  0  0  0  0  0  0  0  0  0  0  0
    5.3351   -2.8601    0.0000 C   0  0  0  0  0  0  0  0  0  0  0  0
    0.8250   -2.6951    0.0000 C   0  0  0  0  0  0  0  0  0  0  0  0
    0.0000   -3.5201    0.0000 C   0  0  0  0  0  0  0  0  0  0  0  0
    0.8250   -4.3451    0.0000 C   0  0  0  0  0  0  0  0  0  0  0  0
    7.8652   -1.4850    0.0000 C   0  0  0  0  0  0  0  0  0  0  0  0
    8.1952   -2.2000    0.0000 C   0  0  0  0  0  0  0  0  0  0  0  0
    6.6001   -2.1450    0.0000 C   0  0  0  0  0  0  0  0  0  0  0  0
    9.4602   -2.9701    0.0000 C   0  0  0  0  0  0  0  0  0  0  0  0
    4.5101   -2.8050    0.0000 C   0  0  0  0  0  0  0  0  0  0  0  0
    4.9501   -5.0051    0.0000 C   0  0  0  0  0  0  0  0  0  0  0  0
    6.9851   -2.9150    0.0000 C   0  0  0  0  0  0  0  0  0  0  0  0
   10.2852   -3.0250    0.0000 C   0  0  0  0  0  0  0  0  0  0  0  0
   10.6152   -3.7400    0.0000 C   0  0  0  0  0  0  0  0  0  0  0  0
    8.9652   -3.6851    0.0000 C   0  0  0  0  0  0  0  0  0  0  0  0
    9.4052   -4.4001    0.0000 C   0  0  0  0  0  0  0  0  0  0  0  0
   10.2302   -4.4551    0.0000 C   0  0  0  0  0  0  0  0  0  0  0  0
   11.9352   -3.0801    0.0000 C   0  0  0  0  0  0  0  0  0  0  0  0
    9.2952   -5.8301    0.0000 C   0  0  0  0  0  0  0  0  0  0  0  0
   11.5502   -2.3651    0.0000 C   0  0  0  0  0  0  0  0  0  0  0  0
   12.8152   -1.7050    0.0000 C   0  0  0  0  0  0  0  0  0  0  0  0
   13.2552   -0.9900    0.0000 C   0  0  0  0  0  0  0  0  0  0  0  0
   14.4653   -1.7601    0.0000 C   0  0  0  0  0  0  0  0  0  0  0  0
   15.2903   -1.7601    0.0000 C   0  0  0  0  0  0  0  0  0  0  0  0
   16.5003   -2.5300    0.0000 C   0  0  0  0  0  0  0  0  0  0  0  0
  1  5  2  0  0  0  0
  1  6  2  0  0  0  0
  1 14  1  0  0  0  0
  1 44  1  0  0  0  0
  2 24  1  0  0  0  0
  2 33  1  0  0  0  0
  3 18  1  0  0  0  0
  3 43  1  0  0  0  0
  4 28  2  0  0  0  0
  7 47  1  0  0  0  0
  7 51  1  0  0  0  0
  8 49  1  0  0  0  0
  8 52  1  0  0  0  0
  9 53  1  0  0  0  0
  9 54  1  0  0  0  0
 10 55  1  0  0  0  0
 10 56  1  0  0  0  0
 11 57  1  0  0  0  0
 11 58  1  0  0  0  0
 12 17  1  0  0  0  0
 12 28  1  0  0  0  0
 13 23  1  0  0  0  0
 13 28  1  0  0  0  0
 14 21  1  0  0  0  0
 15 40  1  0  0  0  0
 15 42  1  0  0  0  0
 16 40  1  0  0  0  0
 16 45  2  0  0  0  0
 17 18  2  0  0  0  0
 17 25  1  0  0  0  0
 18 21  1  0  0  0  0
 19 20  2  0  0  0  0
 19 23  1  0  0  0  0
 19 31  1  0  0  0  0
 20 24  1  0  0  0  0
 20 32  1  0  0  0  0
 21 26  2  0  0  0  0
 22 25  2  0  0  0  0
 22 26  1  0  0  0  0
 22 27  1  0  0  0  0
 23 29  2  0  0  0  0
 24 30  2  0  0  0  0
 27 36  1  0  0  0  0
 27 37  1  0  0  0  0
 27 38  1  0  0  0  0
 29 30  1  0  0  0  0
 31 34  2  0  0  0  0
 32 35  2  0  0  0  0
 33 39  1  0  0  0  0
 33 41  2  0  0  0  0
 34 35  1  0  0  0  0
 39 40  2  0  0  0  0
 41 45  1  0  0  0  0
 42 46  2  0  0  0  0
 42 48  1  0  0  0  0
 46 47  1  0  0  0  0
 47 50  2  0  0  0  0
 48 49  2  0  0  0  0
 49 50  1  0  0  0  0
 51 53  1  0  0  0  0
 54 55  1  0  0  0  0
 56 57  1  0  0  0  0
M  END
> <PUBCHEM_COMPOUND_ID_TYPE>
0

> <PUBCHEM_TOTAL_CHARGE>
0

> <PUBCHEM_SUBSTANCE_ID>
310929035

> <PUBCHEM_SUBSTANCE_VERSION>
1

> <PUBCHEM_EXT_DATASOURCE_NAME>
4488

> <PUBCHEM_EXT_DATASOURCE_REGID>
SCHEMBL16106197

> <PUBCHEM_SUBSTANCE_COMMENT>
InChI=1S/C42H51N5O10S/c1-42(2,3)28-22-36(40(53-6)37(23-28)47-58(7,49)50)46-41(48)45-35-12-13-38(34-11-9-8-10-33(34)35)57-30-14-15-43-39(27-30)44-29-24-31(52-5)26-32(25-29)56-21-20-55-19-18-54-17-16-51-4/h8-15,22-27,47H,16-21H2,1-7H3,(H,43,44)(H2,45,46,48)
InChIKey=MYLRWMCTBKFTSO-UHFFFAOYSA-N

> <PUBCHEM_SUBSTANCE_SYNONYM>
SCHEMBL16106197

> <PUBCHEM_XREF_EXT_ID>
SCHEMBL16106197

> <PUBCHEM_EXT_DATASOURCE_URL>
https://www.surechembl.org/

> <PUBCHEM_EXT_SUBSTANCE_URL>
https://www.surechembl.org/chemical/SCHEMBL16106197

> <PUBCHEM_CID_ASSOCIATIONS>
86274497  1

> <PUBCHEM_COORDINATE_TYPE>
1
3

$$$$
