310939116
  -OEChem-07211613022D

 30 32  0     1  0  0  0  0  0999 V2000
    2.5006   -2.0625    0.0000 Cl  0  0  0  0  0  0  0  0  0  0  0  0
   -0.3572   -2.0625    0.0000 F   0  0  0  0  0  0  0  0  0  0  0  0
    1.0717   -2.8875    0.0000 O   0  0  0  0  0  0  0  0  0  0  0  0
   -3.2151    4.5375    0.0000 O   0  0  0  0  0  0  0  0  0  0  0  0
   -2.5006    1.6500    0.0000 O   0  0  0  0  0  0  0  0  0  0  0  0
   -1.7862    2.8875    0.0000 N   0  0  0  0  0  0  0  0  0  0  0  0
   -0.3572    0.4125    0.0000 N   0  0  0  0  0  0  0  0  0  0  0  0
   -2.5006    3.3000    0.0000 C   0  0  0  0  0  0  0  0  0  0  0  0
    0.3572   -0.8250    0.0000 C   0  0  0  0  0  0  0  0  0  0  0  0
    0.3572   -1.6500    0.0000 C   0  0  0  0  0  0  0  0  0  0  0  0
   -3.2151    3.7125    0.0000 C   0  0  0  0  0  0  0  0  0  0  0  0
   -3.2151    2.8875    0.0000 C   0  0  0  0  0  0  0  0  0  0  0  0
    1.0717   -2.0625    0.0000 C   0  0  0  0  0  0  0  0  0  0  0  0
   -0.3572   -0.4125    0.0000 C   0  0  3  0  0  0  0  0  0  0  0  0
    1.7862   -1.6500    0.0000 C   0  0  0  0  0  0  0  0  0  0  0  0
   -2.5006    4.1250    0.0000 C   0  0  0  0  0  0  0  0  0  0  0  0
    1.0717   -0.4125    0.0000 C   0  0  0  0  0  0  0  0  0  0  0  0
   -1.7862    2.0625    0.0000 C   0  0  0  0  0  0  0  0  0  0  0  0
    1.7862   -0.8250    0.0000 C   0  0  0  0  0  0  0  0  0  0  0  0
   -1.0717    0.8250    0.0000 C   0  0  3  0  0  0  0  0  0  0  0  0
    1.7862   -3.3000    0.0000 C   0  0  0  0  0  0  0  0  0  0  0  0
   -1.0717    1.6500    0.0000 C   0  0  0  0  0  0  0  0  0  0  0  0
   -1.0717   -0.8250    0.0000 C   0  0  0  0  0  0  0  0  0  0  0  0
    1.7862   -4.1250    0.0000 C   0  0  0  0  0  0  0  0  0  0  0  0
    2.5006   -2.8875    0.0000 C   0  0  0  0  0  0  0  0  0  0  0  0
   -1.7862    0.4125    0.0000 C   0  0  0  0  0  0  0  0  0  0  0  0
    2.5006   -4.5375    0.0000 C   0  0  0  0  0  0  0  0  0  0  0  0
    3.2151   -3.3000    0.0000 C   0  0  0  0  0  0  0  0  0  0  0  0
   -1.7862   -0.4125    0.0000 C   0  0  0  0  0  0  0  0  0  0  0  0
    3.2151   -4.1250    0.0000 C   0  0  0  0  0  0  0  0  0  0  0  0
  1 15  1  0  0  0  0
  2 10  1  0  0  0  0
  3 13  1  0  0  0  0
  3 21  1  0  0  0  0
  4 16  1  0  0  0  0
  5 18  2  0  0  0  0
  6  8  1  0  0  0  0
  6 18  1  0  0  0  0
 14  7  1  1  0  0  0
  7 20  1  0  0  0  0
  8 11  1  0  0  0  0
  8 12  1  0  0  0  0
  8 16  1  0  0  0  0
  9 10  1  0  0  0  0
  9 14  1  0  0  0  0
  9 17  2  0  0  0  0
 10 13  2  0  0  0  0
 11 12  1  0  0  0  0
 13 15  1  0  0  0  0
 14 23  1  0  0  0  0
 15 19  2  0  0  0  0
 17 19  1  0  0  0  0
 18 22  1  0  0  0  0
 20 22  1  0  0  0  0
 20 26  1  1  0  0  0
 21 24  2  0  0  0  0
 21 25  1  0  0  0  0
 23 29  1  0  0  0  0
 24 27  1  0  0  0  0
 25 28  2  0  0  0  0
 27 30  2  0  0  0  0
 28 30  1  0  0  0  0
M  END
> <PUBCHEM_COMPOUND_ID_TYPE>
0

> <PUBCHEM_TOTAL_CHARGE>
0

> <PUBCHEM_SUBSTANCE_ID>
310939116

> <PUBCHEM_SUBSTANCE_VERSION>
1

> <PUBCHEM_EXT_DATASOURCE_NAME>
4488

> <PUBCHEM_EXT_DATASOURCE_REGID>
SCHEMBL16117037

> <PUBCHEM_SUBSTANCE_COMMENT>
InChI=1S/C23H28ClFN2O3/c1-3-19(26-15(2)13-20(29)27-23(14-28)11-12-23)17-9-10-18(24)22(21(17)25)30-16-7-5-4-6-8-16/h4-10,15,19,26,28H,3,11-14H2,1-2H3,(H,27,29)/t15-,19+/m0/s1
InChIKey=GNHOFFOQHMPYSH-HNAYVOBHSA-N

> <PUBCHEM_SUBSTANCE_SYNONYM>
SCHEMBL16117037

> <PUBCHEM_XREF_EXT_ID>
SCHEMBL16117037

> <PUBCHEM_EXT_DATASOURCE_URL>
https://www.surechembl.org/

> <PUBCHEM_EXT_SUBSTANCE_URL>
https://www.surechembl.org/chemical/SCHEMBL16117037

> <PUBCHEM_CID_ASSOCIATIONS>
117606472  1

> <PUBCHEM_COORDINATE_TYPE>
1
3

> <PUBCHEM_BONDANNOTATIONS>
20  26  5
14  7  5

$$$$
