310947486
  -OEChem-07211613022D

 15 15  0     1  0  0  0  0  0999 V2000
    1.9154   -1.3921    0.0000 O   0  0  0  0  0  0  0  0  0  0  0  0
    1.4007   -2.2384    0.0000 O   0  0  0  0  0  0  0  0  0  0  0  0
   -0.1775    0.4834    0.0000 N   0  0  0  0  0  0  0  0  0  0  0  0
   -0.1775    2.2384    0.0000 N   0  0  0  0  0  0  0  0  0  0  0  0
   -0.9673    0.9573    0.0000 C   0  0  3  0  0  0  0  0  0  0  0  0
   -0.9673    1.8348    0.0000 C   0  0  3  0  0  0  0  0  0  0  0  0
    1.4007   -1.6895    0.0000 C   0  0  0  0  0  0  0  0  0  0  0  0
    1.9268   -0.8203    0.0000 C   0  0  0  0  0  0  0  0  0  0  0  0
   -1.7219    0.5186    0.0000 C   0  0  0  0  0  0  0  0  0  0  0  0
   -1.7219    2.2384    0.0000 C   0  0  0  0  0  0  0  0  0  0  0  0
   -2.4239    0.9397    0.0000 C   0  0  0  0  0  0  0  0  0  0  0  0
   -2.4414    1.8348    0.0000 C   0  0  0  0  0  0  0  0  0  0  0  0
    2.4414   -0.7974    0.0000 C   0  0  0  0  0  0  0  0  0  0  0  0
    1.4007   -0.8203    0.0000 C   0  0  0  0  0  0  0  0  0  0  0  0
    1.9154   -0.2599    0.0000 C   0  0  0  0  0  0  0  0  0  0  0  0
  1  7  1  0  0  0  0
  1  8  1  0  0  0  0
  2  7  2  0  0  0  0
  5  3  1  6  0  0  0
  3  7  1  0  0  0  0
  4  6  1  0  0  0  0
  5  6  1  0  0  0  0
  5  9  1  0  0  0  0
  6 10  1  0  0  0  0
  8 13  1  0  0  0  0
  8 14  1  0  0  0  0
  8 15  1  0  0  0  0
  9 11  1  0  0  0  0
 10 12  1  0  0  0  0
 11 12  1  0  0  0  0
M  END
> <PUBCHEM_COMPOUND_ID_TYPE>
0

> <PUBCHEM_TOTAL_CHARGE>
0

> <PUBCHEM_SUBSTANCE_ID>
310947486

> <PUBCHEM_SUBSTANCE_VERSION>
1

> <PUBCHEM_EXT_DATASOURCE_NAME>
4488

> <PUBCHEM_EXT_DATASOURCE_REGID>
SCHEMBL16125648

> <PUBCHEM_SUBSTANCE_COMMENT>
InChI=1S/C11H22N2O2/c1-11(2,3)15-10(14)13-9-7-5-4-6-8(9)12/h8-9H,4-7,12H2,1-3H3,(H,13,14)/t8?,9-/m1/s1
InChIKey=AKVIZYGPJIWKOS-YGPZHTELSA-N

> <PUBCHEM_SUBSTANCE_SYNONYM>
SCHEMBL16125648

> <PUBCHEM_XREF_EXT_ID>
SCHEMBL16125648

> <PUBCHEM_EXT_DATASOURCE_URL>
https://www.surechembl.org/

> <PUBCHEM_EXT_SUBSTANCE_URL>
https://www.surechembl.org/chemical/SCHEMBL16125648

> <PUBCHEM_CID_ASSOCIATIONS>
117613216  1

> <PUBCHEM_COORDINATE_TYPE>
1
3

> <PUBCHEM_BONDANNOTATIONS>
5  3  6

$$$$
