310933971
  -OEChem-07211613022D

 28 31  0     0  0  0  0  0  0999 V2000
    0.4673   -0.2199    0.0000 Cl  0  0  0  0  0  0  0  0  0  0  0  0
    2.5563   -2.5563    0.0000 O   0  0  0  0  0  0  0  0  0  0  0  0
    6.9541    0.0000    0.0000 O   0  0  0  0  0  0  0  0  0  0  0  0
    7.6688   -1.2369    0.0000 O   0  0  0  0  0  0  0  0  0  0  0  0
    1.0995   -3.4358    0.0000 N   0  0  0  0  0  0  0  0  0  0  0  0
    0.5223   -4.0405    0.0000 N   0  0  0  0  0  0  0  0  0  0  0  0
    3.2434   -2.1439    0.0000 C   0  0  0  0  0  0  0  0  0  0  0  0
    4.8377   -1.2369    0.0000 C   0  0  0  0  0  0  0  0  0  0  0  0
    4.0405   -2.5837    0.0000 C   0  0  0  0  0  0  0  0  0  0  0  0
    3.2709   -1.2369    0.0000 C   0  0  0  0  0  0  0  0  0  0  0  0
    3.9581   -2.1439    0.0000 C   0  0  0  0  0  0  0  0  0  0  0  0
    4.8377   -2.1439    0.0000 C   0  0  0  0  0  0  0  0  0  0  0  0
    4.0405   -0.7971    0.0000 C   0  0  0  0  0  0  0  0  0  0  0  0
    4.4528   -1.8416    0.0000 C   0  0  0  0  0  0  0  0  0  0  0  0
    1.8416   -3.7931    0.0000 C   0  0  0  0  0  0  0  0  0  0  0  0
    5.5523   -0.8246    0.0000 C   0  0  0  0  0  0  0  0  0  0  0  0
    2.5563   -3.3809    0.0000 C   0  0  0  0  0  0  0  0  0  0  0  0
    0.9345   -2.6387    0.0000 C   0  0  0  0  0  0  0  0  0  0  0  0
    1.7317   -4.5903    0.0000 C   0  0  0  0  0  0  0  0  0  0  0  0
    0.9345   -4.7552    0.0000 C   0  0  0  0  0  0  0  0  0  0  0  0
    6.2395   -1.2369    0.0000 C   0  0  0  0  0  0  0  0  0  0  0  0
    0.1374   -2.3639    0.0000 C   0  0  0  0  0  0  0  0  0  0  0  0
    1.5667   -2.1165    0.0000 C   0  0  0  0  0  0  0  0  0  0  0  0
    0.0000   -1.5667    0.0000 C   0  0  0  0  0  0  0  0  0  0  0  0
    1.4018   -1.2919    0.0000 C   0  0  0  0  0  0  0  0  0  0  0  0
    0.6322   -1.0170    0.0000 C   0  0  0  0  0  0  0  0  0  0  0  0
    0.6047   -5.4973    0.0000 C   0  0  0  0  0  0  0  0  0  0  0  0
    6.9541   -0.8246    0.0000 C   0  0  0  0  0  0  0  0  0  0  0  0
  1 26  1  0  0  0  0
  2  7  1  0  0  0  0
  2 17  1  0  0  0  0
  3 28  2  0  0  0  0
  4 28  1  0  0  0  0
  5  6  1  0  0  0  0
  5 15  1  0  0  0  0
  5 18  1  0  0  0  0
  6 20  2  0  0  0  0
  7  9  1  0  0  0  0
  7 10  1  0  0  0  0
  7 11  1  0  0  0  0
  8 12  1  0  0  0  0
  8 13  1  0  0  0  0
  8 14  1  0  0  0  0
  8 16  1  0  0  0  0
  9 12  1  0  0  0  0
 10 13  1  0  0  0  0
 11 14  1  0  0  0  0
 15 17  1  0  0  0  0
 15 19  2  0  0  0  0
 16 21  1  0  0  0  0
 18 22  2  0  0  0  0
 18 23  1  0  0  0  0
 19 20  1  0  0  0  0
 20 27  1  0  0  0  0
 21 28  1  0  0  0  0
 22 24  1  0  0  0  0
 23 25  2  0  0  0  0
 24 26  2  0  0  0  0
 25 26  1  0  0  0  0
M  END
> <PUBCHEM_COMPOUND_ID_TYPE>
0

> <PUBCHEM_TOTAL_CHARGE>
0

> <PUBCHEM_SUBSTANCE_ID>
310933971

> <PUBCHEM_SUBSTANCE_VERSION>
1

> <PUBCHEM_EXT_DATASOURCE_NAME>
4488

> <PUBCHEM_EXT_DATASOURCE_REGID>
SCHEMBL16111411

> <PUBCHEM_SUBSTANCE_COMMENT>
InChI=1S/C22H27ClN2O3/c1-16-14-19(25(24-16)18-4-2-17(23)3-5-18)15-28-22-11-8-21(9-12-22,10-13-22)7-6-20(26)27/h2-5,14H,6-13,15H2,1H3,(H,26,27)
InChIKey=HZVOBLCELVRMRD-UHFFFAOYSA-N

> <PUBCHEM_SUBSTANCE_SYNONYM>
SCHEMBL16111411

> <PUBCHEM_XREF_EXT_ID>
SCHEMBL16111411

> <PUBCHEM_EXT_DATASOURCE_URL>
https://www.surechembl.org/

> <PUBCHEM_EXT_SUBSTANCE_URL>
https://www.surechembl.org/chemical/SCHEMBL16111411

> <PUBCHEM_CID_ASSOCIATIONS>
86288659  1

> <PUBCHEM_COORDINATE_TYPE>
1
3

$$$$
