310929948
  -OEChem-07211613022D

 46 45  0     0  0  0  0  0  0999 V2000
    7.5622   -5.7748    0.0000 O   0  0  0  0  0  0  0  0  0  0  0  0
    6.3248   -5.0873    0.0000 O   0  0  0  0  0  0  0  0  0  0  0  0
    6.3248   -6.5310    0.0000 N   0  0  0  0  0  0  0  0  0  0  0  0
   10.0371   -4.3311    0.0000 N   0  0  0  0  0  0  0  0  0  0  0  0
    6.7372   -5.7748    0.0000 C   0  0  0  0  0  0  0  0  0  0  0  0
    5.4310   -6.5310    0.0000 C   0  0  0  0  0  0  0  0  0  0  0  0
    6.7372   -7.2185    0.0000 C   0  0  0  0  0  0  0  0  0  0  0  0
    5.0186   -5.7748    0.0000 C   0  0  0  0  0  0  0  0  0  0  0  0
    6.3248   -7.9747    0.0000 C   0  0  0  0  0  0  0  0  0  0  0  0
    7.9747   -5.0873    0.0000 C   0  0  0  0  0  0  0  0  0  0  0  0
    4.1936   -5.7748    0.0000 C   0  0  0  0  0  0  0  0  0  0  0  0
    6.7372   -8.6622    0.0000 C   0  0  0  0  0  0  0  0  0  0  0  0
    8.7997   -5.0186    0.0000 C   0  0  0  0  0  0  0  0  0  0  0  0
    9.2122   -4.3311    0.0000 C   0  0  0  0  0  0  0  0  0  0  0  0
    3.7811   -5.0873    0.0000 C   0  0  0  0  0  0  0  0  0  0  0  0
    6.3248   -9.4184    0.0000 C   0  0  0  0  0  0  0  0  0  0  0  0
    2.9562   -5.0873    0.0000 C   0  0  0  0  0  0  0  0  0  0  0  0
    6.7372  -10.1059    0.0000 C   0  0  0  0  0  0  0  0  0  0  0  0
    2.5437   -4.3311    0.0000 C   0  0  0  0  0  0  0  0  0  0  0  0
    6.3248  -10.8621    0.0000 C   0  0  0  0  0  0  0  0  0  0  0  0
   10.4496   -5.0186    0.0000 C   0  0  0  0  0  0  0  0  0  0  0  0
   10.4496   -3.5749    0.0000 C   0  0  0  0  0  0  0  0  0  0  0  0
    1.7187   -4.3311    0.0000 C   0  0  0  0  0  0  0  0  0  0  0  0
    6.7372  -11.5496    0.0000 C   0  0  0  0  0  0  0  0  0  0  0  0
    1.3062   -3.6436    0.0000 C   0  0  0  0  0  0  0  0  0  0  0  0
    6.3248  -12.3058    0.0000 C   0  0  0  0  0  0  0  0  0  0  0  0
    0.4125   -3.6436    0.0000 C   0  0  0  0  0  0  0  0  0  0  0  0
    6.7372  -13.0621    0.0000 C   0  0  0  0  0  0  0  0  0  0  0  0
    0.0000   -2.8874    0.0000 C   0  0  0  0  0  0  0  0  0  0  0  0
    6.3248  -13.7495    0.0000 C   0  0  0  0  0  0  0  0  0  0  0  0
    0.4812   -2.1999    0.0000 C   0  0  0  0  0  0  0  0  0  0  0  0
    5.4310  -13.7495    0.0000 C   0  0  0  0  0  0  0  0  0  0  0  0
    1.3062   -2.1999    0.0000 C   0  0  0  0  0  0  0  0  0  0  0  0
    5.0186  -12.9933    0.0000 C   0  0  0  0  0  0  0  0  0  0  0  0
    1.7187   -1.4437    0.0000 C   0  0  0  0  0  0  0  0  0  0  0  0
    4.1936  -12.9933    0.0000 C   0  0  0  0  0  0  0  0  0  0  0  0
    2.5437   -1.4437    0.0000 C   0  0  0  0  0  0  0  0  0  0  0  0
    3.7811  -12.3058    0.0000 C   0  0  0  0  0  0  0  0  0  0  0  0
    2.9562   -0.6875    0.0000 C   0  0  0  0  0  0  0  0  0  0  0  0
    2.9562  -12.3058    0.0000 C   0  0  0  0  0  0  0  0  0  0  0  0
    3.7811   -0.7562    0.0000 C   0  0  0  0  0  0  0  0  0  0  0  0
    2.5437  -11.5496    0.0000 C   0  0  0  0  0  0  0  0  0  0  0  0
    4.1936    0.0000    0.0000 C   0  0  0  0  0  0  0  0  0  0  0  0
    1.7187  -11.5496    0.0000 C   0  0  0  0  0  0  0  0  0  0  0  0
    5.0186    0.0000    0.0000 C   0  0  0  0  0  0  0  0  0  0  0  0
    1.3062  -10.8621    0.0000 C   0  0  0  0  0  0  0  0  0  0  0  0
  1  5  1  0  0  0  0
  1 10  1  0  0  0  0
  2  5  2  0  0  0  0
  3  5  1  0  0  0  0
  3  6  1  0  0  0  0
  3  7  1  0  0  0  0
  4 14  1  0  0  0  0
  4 21  1  0  0  0  0
  4 22  1  0  0  0  0
  6  8  1  0  0  0  0
  7  9  1  0  0  0  0
  8 11  1  0  0  0  0
  9 12  1  0  0  0  0
 10 13  1  0  0  0  0
 11 15  1  0  0  0  0
 12 16  1  0  0  0  0
 13 14  1  0  0  0  0
 15 17  1  0  0  0  0
 16 18  1  0  0  0  0
 17 19  1  0  0  0  0
 18 20  1  0  0  0  0
 19 23  1  0  0  0  0
 20 24  1  0  0  0  0
 23 25  1  0  0  0  0
 24 26  1  0  0  0  0
 25 27  1  0  0  0  0
 26 28  1  0  0  0  0
 27 29  2  0  0  0  0
 28 30  2  0  0  0  0
 29 31  1  0  0  0  0
 30 32  1  0  0  0  0
 31 33  1  0  0  0  0
 32 34  1  0  0  0  0
 33 35  1  0  0  0  0
 34 36  1  0  0  0  0
 35 37  1  0  0  0  0
 36 38  1  0  0  0  0
 37 39  1  0  0  0  0
 38 40  1  0  0  0  0
 39 41  1  0  0  0  0
 40 42  1  0  0  0  0
 41 43  1  0  0  0  0
 42 44  1  0  0  0  0
 43 45  1  0  0  0  0
 44 46  1  0  0  0  0
M  END
> <PUBCHEM_COMPOUND_ID_TYPE>
0

> <PUBCHEM_TOTAL_CHARGE>
0

> <PUBCHEM_SUBSTANCE_ID>
310929948

> <PUBCHEM_SUBSTANCE_VERSION>
1

> <PUBCHEM_EXT_DATASOURCE_NAME>
4488

> <PUBCHEM_EXT_DATASOURCE_REGID>
SCHEMBL16107172

> <PUBCHEM_SUBSTANCE_COMMENT>
InChI=1S/C42H82N2O2/c1-5-7-9-11-13-15-17-19-21-23-25-27-29-31-33-35-39-44(42(45)46-41-37-38-43(3)4)40-36-34-32-30-28-26-24-22-20-18-16-14-12-10-8-6-2/h19-22H,5-18,23-41H2,1-4H3/b21-19-,22-20-
InChIKey=UUZBALLXPWIBDK-WRBBJXAJSA-N

> <PUBCHEM_SUBSTANCE_SYNONYM>
SCHEMBL16107172

> <PUBCHEM_XREF_EXT_ID>
SCHEMBL16107172

> <PUBCHEM_EXT_DATASOURCE_URL>
https://www.surechembl.org/

> <PUBCHEM_EXT_SUBSTANCE_URL>
https://www.surechembl.org/chemical/SCHEMBL16107172

> <PUBCHEM_CID_ASSOCIATIONS>
117599209  1

> <PUBCHEM_COORDINATE_TYPE>
1
3

$$$$
