310945592
  -OEChem-07211613022D

 26 29  0     0  0  0  0  0  0999 V2000
   -1.0349   -1.2704    0.0000 N   0  0  0  0  0  0  0  0  0  0  0  0
   -1.0777    1.2276    0.0000 N   0  0  0  0  0  0  0  0  0  0  0  0
    1.1063    1.6416    0.0000 N   0  0  0  0  0  0  0  0  0  0  0  0
   -0.3640   -0.8423    0.0000 C   0  0  0  0  0  0  0  0  0  0  0  0
   -1.7771   -0.0142    0.0000 C   0  0  0  0  0  0  0  0  0  0  0  0
   -1.7915   -0.8423    0.0000 C   0  0  0  0  0  0  0  0  0  0  0  0
   -1.0920    0.3997    0.0000 C   0  0  0  0  0  0  0  0  0  0  0  0
    0.3640   -1.2562    0.0000 C   0  0  0  0  0  0  0  0  0  0  0  0
   -0.3640   -0.0142    0.0000 C   0  0  0  0  0  0  0  0  0  0  0  0
    1.7771   -1.2704    0.0000 C   0  0  0  0  0  0  0  0  0  0  0  0
    1.0777   -0.8423    0.0000 C   0  0  0  0  0  0  0  0  0  0  0  0
    1.7771   -2.0840    0.0000 C   0  0  0  0  0  0  0  0  0  0  0  0
    0.3640   -2.0840    0.0000 C   0  0  0  0  0  0  0  0  0  0  0  0
   -2.5052    0.3997    0.0000 C   0  0  0  0  0  0  0  0  0  0  0  0
   -2.5052   -1.2419    0.0000 C   0  0  0  0  0  0  0  0  0  0  0  0
    1.0777   -2.4980    0.0000 C   0  0  0  0  0  0  0  0  0  0  0  0
   -3.2046   -0.0142    0.0000 C   0  0  0  0  0  0  0  0  0  0  0  0
   -3.2046   -0.8423    0.0000 C   0  0  0  0  0  0  0  0  0  0  0  0
    2.5052   -0.8423    0.0000 C   0  0  0  0  0  0  0  0  0  0  0  0
    2.5052   -2.4980    0.0000 C   0  0  0  0  0  0  0  0  0  0  0  0
   -0.3640    1.6558    0.0000 C   0  0  0  0  0  0  0  0  0  0  0  0
    3.2046   -1.2704    0.0000 C   0  0  0  0  0  0  0  0  0  0  0  0
    3.2046   -2.0840    0.0000 C   0  0  0  0  0  0  0  0  0  0  0  0
    0.3782    1.2419    0.0000 C   0  0  0  0  0  0  0  0  0  0  0  0
    1.0777    2.4980    0.0000 C   0  0  0  0  0  0  0  0  0  0  0  0
    1.7915    1.2276    0.0000 C   0  0  0  0  0  0  0  0  0  0  0  0
  1  4  2  0  0  0  0
  1  6  1  0  0  0  0
  2  7  1  0  0  0  0
  2 21  1  0  0  0  0
  3 24  1  0  0  0  0
  3 25  1  0  0  0  0
  3 26  1  0  0  0  0
  4  8  1  0  0  0  0
  4  9  1  0  0  0  0
  5  6  1  0  0  0  0
  5  7  1  0  0  0  0
  5 14  2  0  0  0  0
  6 15  2  0  0  0  0
  7  9  2  0  0  0  0
  8 11  1  0  0  0  0
  8 13  2  0  0  0  0
 10 11  2  0  0  0  0
 10 12  1  0  0  0  0
 10 19  1  0  0  0  0
 12 16  2  0  0  0  0
 12 20  1  0  0  0  0
 13 16  1  0  0  0  0
 14 17  1  0  0  0  0
 15 18  1  0  0  0  0
 17 18  2  0  0  0  0
 19 22  2  0  0  0  0
 20 23  2  0  0  0  0
 21 24  1  0  0  0  0
 22 23  1  0  0  0  0
M  END
> <PUBCHEM_COMPOUND_ID_TYPE>
0

> <PUBCHEM_TOTAL_CHARGE>
0

> <PUBCHEM_SUBSTANCE_ID>
310945592

> <PUBCHEM_SUBSTANCE_VERSION>
1

> <PUBCHEM_EXT_DATASOURCE_NAME>
4488

> <PUBCHEM_EXT_DATASOURCE_REGID>
SCHEMBL16123691

> <PUBCHEM_SUBSTANCE_COMMENT>
InChI=1S/C23H23N3/c1-26(2)14-13-24-23-16-22(25-21-10-6-5-9-20(21)23)19-12-11-17-7-3-4-8-18(17)15-19/h3-12,15-16H,13-14H2,1-2H3,(H,24,25)
InChIKey=BMEXFKHUJAIVFD-UHFFFAOYSA-N

> <PUBCHEM_SUBSTANCE_SYNONYM>
SCHEMBL16123691

> <PUBCHEM_XREF_EXT_ID>
SCHEMBL16123691

> <PUBCHEM_EXT_DATASOURCE_URL>
https://www.surechembl.org/

> <PUBCHEM_EXT_SUBSTANCE_URL>
https://www.surechembl.org/chemical/SCHEMBL16123691

> <PUBCHEM_CID_ASSOCIATIONS>
454715  1

> <PUBCHEM_COORDINATE_TYPE>
1
3

$$$$
