310937354
  -OEChem-07211613022D

 34 37  0     1  0  0  0  0  0999 V2000
    3.6762   -1.4705    0.0000 S   0  0  0  0  0  0  0  0  0  0  0  0
    2.1737   -3.8040    0.0000 O   0  0  0  0  0  0  0  0  0  0  0  0
    0.0000   -2.7171    0.0000 O   0  0  0  0  0  0  0  0  0  0  0  0
    5.0507   -4.5073    0.0000 O   0  0  0  0  0  0  0  0  0  0  0  0
    5.8818   -1.6622    0.0000 O   0  0  0  0  0  0  0  0  0  0  0  0
    7.1285   -2.3655    0.0000 O   0  0  0  0  0  0  0  0  0  0  0  0
    2.1737   -2.3655    0.0000 N   0  0  0  0  0  0  0  0  0  0  0  0
    1.0869   -3.6762    0.0000 N   0  0  0  0  0  0  0  0  0  0  0  0
    3.8360   -3.8040    0.0000 N   0  0  0  0  0  0  0  0  0  0  0  0
    5.8818   -3.0688    0.0000 N   0  0  0  0  0  0  0  0  0  0  0  0
    0.2877   -5.7540    0.0000 N   0  0  0  0  0  0  0  0  0  0  0  0
    1.5664   -5.3384    0.0000 N   0  0  0  0  0  0  0  0  0  0  0  0
    0.7672   -6.3933    0.0000 N   0  0  0  0  0  0  0  0  0  0  0  0
    1.5664   -6.1695    0.0000 N   0  0  0  0  0  0  0  0  0  0  0  0
    2.4934   -1.6303    0.0000 C   0  0  0  0  0  0  0  0  0  0  0  0
    1.3746   -2.2696    0.0000 C   0  0  3  0  0  0  0  0  0  0  0  0
    1.9180   -1.0869    0.0000 C   0  0  0  0  0  0  0  0  0  0  0  0
    1.1828   -1.4705    0.0000 C   0  0  0  0  0  0  0  0  0  0  0  0
    2.5893   -3.0688    0.0000 C   0  0  0  0  0  0  0  0  0  0  0  0
    0.8311   -2.8770    0.0000 C   0  0  0  0  0  0  0  0  0  0  0  0
    3.2925   -1.3746    0.0000 C   0  0  0  0  0  0  0  0  0  0  0  0
    2.0778   -0.2558    0.0000 C   0  0  0  0  0  0  0  0  0  0  0  0
    3.4204   -3.0688    0.0000 C   0  0  0  0  0  0  0  0  0  0  0  0
    3.4524   -0.5434    0.0000 C   0  0  0  0  0  0  0  0  0  0  0  0
    2.8450    0.0000    0.0000 C   0  0  0  0  0  0  0  0  0  0  0  0
    5.0507   -3.0688    0.0000 C   0  0  3  0  0  0  0  0  0  0  0  0
    4.6352   -3.8040    0.0000 C   0  0  0  0  0  0  0  0  0  0  0  0
    4.6352   -2.3655    0.0000 C   0  0  0  0  0  0  0  0  0  0  0  0
    0.5115   -4.2835    0.0000 C   0  0  0  0  0  0  0  0  0  0  0  0
    0.7672   -5.0826    0.0000 C   0  0  0  0  0  0  0  0  0  0  0  0
    3.8360   -2.2696    0.0000 C   0  0  0  0  0  0  0  0  0  0  0  0
    4.9867   -1.6303    0.0000 C   0  0  0  0  0  0  0  0  0  0  0  0
    4.3794   -1.0549    0.0000 C   0  0  0  0  0  0  0  0  0  0  0  0
    6.2974   -2.3655    0.0000 C   0  0  0  0  0  0  0  0  0  0  0  0
  1 31  1  0  0  0  0
  1 33  1  0  0  0  0
  2 19  2  0  0  0  0
  3 20  2  0  0  0  0
  4 27  2  0  0  0  0
  5 34  2  0  0  0  0
  6 34  1  0  0  0  0
  7 15  1  0  0  0  0
  7 16  1  0  0  0  0
  7 19  1  0  0  0  0
  8 20  1  0  0  0  0
  8 29  1  0  0  0  0
  9 23  1  0  0  0  0
  9 27  1  0  0  0  0
 26 10  1  6  0  0  0
 10 34  1  0  0  0  0
 11 13  2  0  0  0  0
 11 30  1  0  0  0  0
 12 14  1  0  0  0  0
 12 30  2  0  0  0  0
 13 14  1  0  0  0  0
 15 17  2  0  0  0  0
 15 21  1  0  0  0  0
 16 18  1  0  0  0  0
 16 20  1  6  0  0  0
 17 18  1  0  0  0  0
 17 22  1  0  0  0  0
 19 23  1  0  0  0  0
 21 24  2  0  0  0  0
 22 25  2  0  0  0  0
 24 25  1  0  0  0  0
 26 27  1  0  0  0  0
 26 28  1  0  0  0  0
 28 31  2  0  0  0  0
 28 32  1  0  0  0  0
 29 30  1  0  0  0  0
 32 33  2  0  0  0  0
M  END
> <PUBCHEM_COMPOUND_ID_TYPE>
0

> <PUBCHEM_TOTAL_CHARGE>
0

> <PUBCHEM_SUBSTANCE_ID>
310937354

> <PUBCHEM_SUBSTANCE_VERSION>
1

> <PUBCHEM_EXT_DATASOURCE_NAME>
4488

> <PUBCHEM_EXT_DATASOURCE_REGID>
SCHEMBL16115110

> <PUBCHEM_SUBSTANCE_COMMENT>
InChI=1S/C20H20N8O5S/c29-16(9-22-19(31)17(23-20(32)33)12-5-6-34-10-12)28-13-4-2-1-3-11(13)7-14(28)18(30)21-8-15-24-26-27-25-15/h1-6,10,14,17,23H,7-9H2,(H,21,30)(H,22,31)(H,32,33)(H,24,25,26,27)/t14-,17-/m0/s1
InChIKey=BDLKYBKRVYGTGB-YOEHRIQHSA-N

> <PUBCHEM_SUBSTANCE_SYNONYM>
SCHEMBL16115110

> <PUBCHEM_XREF_EXT_ID>
SCHEMBL16115110

> <PUBCHEM_EXT_DATASOURCE_URL>
https://www.surechembl.org/

> <PUBCHEM_EXT_SUBSTANCE_URL>
https://www.surechembl.org/chemical/SCHEMBL16115110

> <PUBCHEM_CID_ASSOCIATIONS>
117605127  1

> <PUBCHEM_COORDINATE_TYPE>
1
3

> <PUBCHEM_BONDANNOTATIONS>
26  10  6
16  20  6

$$$$
