310934607
  -OEChem-07211613022D

 16 17  0     0  0  0  0  0  0999 V2000
    5.8666   -0.7235    0.0000 F   0  0  0  0  0  0  0  0  0  0  0  0
    4.6150    0.0000    0.0000 F   0  0  0  0  0  0  0  0  0  0  0  0
    4.2044   -0.7040    0.0000 F   0  0  0  0  0  0  0  0  0  0  0  0
    4.6150   -1.4471    0.0000 O   0  0  0  0  0  0  0  0  0  0  0  0
    1.2711   -1.4471    0.0000 N   0  0  0  0  0  0  0  0  0  0  0  0
    0.8017   -2.1315    0.0000 N   0  0  0  0  0  0  0  0  0  0  0  0
    0.0000   -1.0364    0.0000 N   0  0  0  0  0  0  0  0  0  0  0  0
    2.1120   -1.4471    0.0000 C   0  0  0  0  0  0  0  0  0  0  0  0
    3.7741   -1.4471    0.0000 C   0  0  0  0  0  0  0  0  0  0  0  0
    5.0452   -0.7235    0.0000 C   0  0  0  0  0  0  0  0  0  0  0  0
    2.5422   -0.7235    0.0000 C   0  0  0  0  0  0  0  0  0  0  0  0
    2.5422   -2.1511    0.0000 C   0  0  0  0  0  0  0  0  0  0  0  0
    3.3635   -0.7235    0.0000 C   0  0  0  0  0  0  0  0  0  0  0  0
    3.3635   -2.1511    0.0000 C   0  0  0  0  0  0  0  0  0  0  0  0
    0.8017   -0.7627    0.0000 C   0  0  0  0  0  0  0  0  0  0  0  0
    0.0000   -1.8577    0.0000 C   0  0  0  0  0  0  0  0  0  0  0  0
  1 10  1  0  0  0  0
  2 10  1  0  0  0  0
  3 10  1  0  0  0  0
  4  9  1  0  0  0  0
  4 10  1  0  0  0  0
  5  6  1  0  0  0  0
  5  8  1  0  0  0  0
  5 15  1  0  0  0  0
  6 16  2  0  0  0  0
  7 15  2  0  0  0  0
  7 16  1  0  0  0  0
  8 11  2  0  0  0  0
  8 12  1  0  0  0  0
  9 13  2  0  0  0  0
  9 14  1  0  0  0  0
 11 13  1  0  0  0  0
 12 14  2  0  0  0  0
M  END
> <PUBCHEM_COMPOUND_ID_TYPE>
0

> <PUBCHEM_TOTAL_CHARGE>
0

> <PUBCHEM_SUBSTANCE_ID>
310934607

> <PUBCHEM_SUBSTANCE_VERSION>
1

> <PUBCHEM_EXT_DATASOURCE_NAME>
4488

> <PUBCHEM_EXT_DATASOURCE_REGID>
SCHEMBL16112102

> <PUBCHEM_SUBSTANCE_COMMENT>
InChI=1S/C9H6F3N3O/c10-9(11,12)16-8-3-1-7(2-4-8)15-6-13-5-14-15/h1-6H
InChIKey=DLRNVWLQCPHABE-UHFFFAOYSA-N

> <PUBCHEM_SUBSTANCE_SYNONYM>
SCHEMBL16112102

> <PUBCHEM_XREF_EXT_ID>
SCHEMBL16112102

> <PUBCHEM_EXT_DATASOURCE_URL>
https://www.surechembl.org/

> <PUBCHEM_EXT_SUBSTANCE_URL>
https://www.surechembl.org/chemical/SCHEMBL16112102

> <PUBCHEM_CID_ASSOCIATIONS>
78210281  1

> <PUBCHEM_COORDINATE_TYPE>
1
3

$$$$
