310948790
  -OEChem-07211613022D

 31 35  0     1  0  0  0  0  0999 V2000
    2.8385   -3.7847    0.0000 Cl  0  0  0  0  0  0  0  0  0  0  0  0
   -2.1220   -3.2519    0.0000 O   0  0  0  0  0  0  0  0  0  0  0  0
    0.8727    4.1521    0.0000 O   0  0  0  0  0  0  0  0  0  0  0  0
   -0.6339   -0.9370    0.0000 N   0  0  0  0  0  0  0  0  0  0  0  0
   -0.1378   -1.5983    0.0000 N   0  0  0  0  0  0  0  0  0  0  0  0
   -0.3766   -3.0499    0.0000 N   0  0  0  0  0  0  0  0  0  0  0  0
    0.3399    2.2230    0.0000 N   0  0  0  0  0  0  0  0  0  0  0  0
   -2.8385   -2.0026    0.0000 N   0  0  0  0  0  0  0  0  0  0  0  0
    1.5157   -1.1942    0.0000 N   0  0  0  0  0  0  0  0  0  0  0  0
   -1.4055   -1.1758    0.0000 C   0  0  0  0  0  0  0  0  0  0  0  0
   -1.4238   -2.0026    0.0000 C   0  0  0  0  0  0  0  0  0  0  0  0
   -0.6339   -2.2598    0.0000 C   0  0  0  0  0  0  0  0  0  0  0  0
   -0.3766   -0.1286    0.0000 C   0  0  3  0  0  0  0  0  0  0  0  0
   -2.1220   -2.3884    0.0000 C   0  0  0  0  0  0  0  0  0  0  0  0
    0.4317    0.0367    0.0000 C   0  0  3  0  0  0  0  0  0  0  0  0
   -2.1404   -0.7717    0.0000 C   0  0  0  0  0  0  0  0  0  0  0  0
    0.1378    1.4330    0.0000 C   0  0  3  0  0  0  0  0  0  0  0  0
   -0.9095    0.4776    0.0000 C   0  0  0  0  0  0  0  0  0  0  0  0
    0.6706    0.8268    0.0000 C   0  0  0  0  0  0  0  0  0  0  0  0
   -0.6522    1.2677    0.0000 C   0  0  0  0  0  0  0  0  0  0  0  0
   -2.8201   -1.1758    0.0000 C   0  0  0  0  0  0  0  0  0  0  0  0
    0.4317   -3.2152    0.0000 C   0  0  0  0  0  0  0  0  0  0  0  0
    0.9830   -0.5879    0.0000 C   0  0  0  0  0  0  0  0  0  0  0  0
    1.0565    2.6456    0.0000 C   0  0  0  0  0  0  0  0  0  0  0  0
   -0.0459    2.9395    0.0000 C   0  0  0  0  0  0  0  0  0  0  0  0
    0.6339    3.3621    0.0000 C   0  0  0  0  0  0  0  0  0  0  0  0
    0.6890   -3.9867    0.0000 C   0  0  0  0  0  0  0  0  0  0  0  0
    0.9830   -2.6089    0.0000 C   0  0  0  0  0  0  0  0  0  0  0  0
    1.5157   -4.1521    0.0000 C   0  0  0  0  0  0  0  0  0  0  0  0
    1.7912   -2.7742    0.0000 C   0  0  0  0  0  0  0  0  0  0  0  0
    2.0302   -3.5459    0.0000 C   0  0  0  0  0  0  0  0  0  0  0  0
  1 31  1  0  0  0  0
  2 14  2  0  0  0  0
  3 26  1  0  0  0  0
  4  5  1  0  0  0  0
  4 10  1  0  0  0  0
 13  4  1  1  0  0  0
  5 12  2  0  0  0  0
  6 12  1  0  0  0  0
  6 22  1  0  0  0  0
  7 17  1  0  0  0  0
  7 24  1  0  0  0  0
  7 25  1  0  0  0  0
  8 14  1  0  0  0  0
  8 21  1  0  0  0  0
  9 23  3  0  0  0  0
 10 11  2  0  0  0  0
 10 16  1  0  0  0  0
 11 12  1  0  0  0  0
 11 14  1  0  0  0  0
 13 15  1  0  0  0  0
 13 18  1  0  0  0  0
 15 19  1  0  0  0  0
 15 23  1  6  0  0  0
 16 21  2  0  0  0  0
 17 19  1  1  0  0  0
 17 20  1  0  0  0  0
 18 20  1  0  0  0  0
 22 27  2  0  0  0  0
 22 28  1  0  0  0  0
 24 26  1  0  0  0  0
 25 26  1  0  0  0  0
 27 29  1  0  0  0  0
 28 30  2  0  0  0  0
 29 31  2  0  0  0  0
 30 31  1  0  0  0  0
M  END
> <PUBCHEM_COMPOUND_ID_TYPE>
0

> <PUBCHEM_TOTAL_CHARGE>
0

> <PUBCHEM_SUBSTANCE_ID>
310948790

> <PUBCHEM_SUBSTANCE_VERSION>
1

> <PUBCHEM_EXT_DATASOURCE_NAME>
4488

> <PUBCHEM_EXT_DATASOURCE_REGID>
SCHEMBL16126974

> <PUBCHEM_SUBSTANCE_COMMENT>
InChI=1S/C22H23ClN6O2/c23-14-1-3-15(4-2-14)26-21-20-19(7-8-25-22(20)31)29(27-21)18-6-5-16(9-13(18)10-24)28-11-17(30)12-28/h1-4,7-8,13,16-18,30H,5-6,9,11-12H2,(H,25,31)(H,26,27)/t13-,16-,18+/m1/s1
InChIKey=DZMPLXBTLJHOAP-QBIMZIAESA-N

> <PUBCHEM_SUBSTANCE_SYNONYM>
SCHEMBL16126974

> <PUBCHEM_XREF_EXT_ID>
SCHEMBL16126974

> <PUBCHEM_EXT_DATASOURCE_URL>
https://www.surechembl.org/

> <PUBCHEM_EXT_SUBSTANCE_URL>
https://www.surechembl.org/chemical/SCHEMBL16126974

> <PUBCHEM_CID_ASSOCIATIONS>
117614329  1

> <PUBCHEM_COORDINATE_TYPE>
1
3

> <PUBCHEM_BONDANNOTATIONS>
15  23  6
17  19  5
13  4  5

$$$$
