310949201
  -OEChem-07211613022D

 31 32  0     1  0  0  0  0  0999 V2000
    0.3509    2.4706    0.0000 O   0  0  0  0  0  0  0  0  0  0  0  0
   -3.2015    2.0466    0.0000 O   0  0  0  0  0  0  0  0  0  0  0  0
   -3.9033    0.8187    0.0000 O   0  0  0  0  0  0  0  0  0  0  0  0
    1.0672   -0.4093    0.0000 N   0  0  0  0  0  0  0  0  0  0  0  0
    1.0672    1.2426    0.0000 N   0  0  0  0  0  0  0  0  0  0  0  0
    1.7689    2.4852    0.0000 N   0  0  0  0  0  0  0  0  0  0  0  0
    3.9033    2.0613    0.0000 N   0  0  0  0  0  0  0  0  0  0  0  0
    3.2015    0.8187    0.0000 N   0  0  0  0  0  0  0  0  0  0  0  0
    0.3509    0.0146    0.0000 C   0  0  0  0  0  0  0  0  0  0  0  0
    0.3654    0.8187    0.0000 C   0  0  0  0  0  0  0  0  0  0  0  0
   -1.0672    0.8187    0.0000 C   0  0  0  0  0  0  0  0  0  0  0  0
   -0.3509    1.2280    0.0000 C   0  0  0  0  0  0  0  0  0  0  0  0
   -0.3509   -0.4093    0.0000 C   0  0  0  0  0  0  0  0  0  0  0  0
   -1.0672    0.0000    0.0000 C   0  0  0  0  0  0  0  0  0  0  0  0
   -1.7981    1.2280    0.0000 C   0  0  3  0  0  0  0  0  0  0  0  0
    1.0818    2.0613    0.0000 C   0  0  0  0  0  0  0  0  0  0  0  0
    1.0525   -1.2426    0.0000 C   0  0  0  0  0  0  0  0  0  0  0  0
    1.7835    0.0000    0.0000 C   0  0  0  0  0  0  0  0  0  0  0  0
   -2.4706    0.8333    0.0000 C   0  0  0  0  0  0  0  0  0  0  0  0
    2.4852    2.0613    0.0000 C   0  0  0  0  0  0  0  0  0  0  0  0
    0.3654   -1.6520    0.0000 C   0  0  0  0  0  0  0  0  0  0  0  0
    2.4852   -0.4093    0.0000 C   0  0  0  0  0  0  0  0  0  0  0  0
   -1.7835    2.0613    0.0000 C   0  0  0  0  0  0  0  0  0  0  0  0
   -3.2015    1.2133    0.0000 C   0  0  0  0  0  0  0  0  0  0  0  0
    3.1869    2.4706    0.0000 C   0  0  0  0  0  0  0  0  0  0  0  0
    2.4852    1.2426    0.0000 C   0  0  0  0  0  0  0  0  0  0  0  0
   -0.3654   -1.2572    0.0000 C   0  0  0  0  0  0  0  0  0  0  0  0
    0.3654   -2.4852    0.0000 C   0  0  0  0  0  0  0  0  0  0  0  0
    3.2015    0.0000    0.0000 C   0  0  0  0  0  0  0  0  0  0  0  0
    2.4998   -1.2572    0.0000 C   0  0  0  0  0  0  0  0  0  0  0  0
    3.9033    1.2280    0.0000 C   0  0  0  0  0  0  0  0  0  0  0  0
  1 16  2  0  0  0  0
  2 24  2  0  0  0  0
  3 24  1  0  0  0  0
  4  9  1  0  0  0  0
  4 17  1  0  0  0  0
  4 18  1  0  0  0  0
  5 10  1  0  0  0  0
  5 16  1  0  0  0  0
  6 16  1  0  0  0  0
  6 20  1  0  0  0  0
  7 25  2  0  0  0  0
  7 31  1  0  0  0  0
  8 26  1  0  0  0  0
  8 31  2  0  0  0  0
  9 10  1  0  0  0  0
  9 13  2  0  0  0  0
 10 12  2  0  0  0  0
 11 12  1  0  0  0  0
 11 14  2  0  0  0  0
 11 15  1  0  0  0  0
 13 14  1  0  0  0  0
 15 19  1  0  0  0  0
 15 23  1  1  0  0  0
 17 21  1  0  0  0  0
 18 22  1  0  0  0  0
 19 24  1  0  0  0  0
 20 25  1  0  0  0  0
 20 26  2  0  0  0  0
 21 27  1  0  0  0  0
 21 28  1  0  0  0  0
 22 29  1  0  0  0  0
 22 30  1  0  0  0  0
M  END
> <PUBCHEM_COMPOUND_ID_TYPE>
0

> <PUBCHEM_TOTAL_CHARGE>
0

> <PUBCHEM_SUBSTANCE_ID>
310949201

> <PUBCHEM_SUBSTANCE_VERSION>
1

> <PUBCHEM_EXT_DATASOURCE_NAME>
4488

> <PUBCHEM_EXT_DATASOURCE_REGID>
SCHEMBL16127391

> <PUBCHEM_SUBSTANCE_COMMENT>
InChI=1S/C23H33N5O3/c1-15(2)12-28(13-16(3)4)21-7-6-18(17(5)8-22(29)30)9-20(21)27-23(31)26-19-10-24-14-25-11-19/h6-7,9-11,14-17H,8,12-13H2,1-5H3,(H,29,30)(H2,26,27,31)/t17-/m1/s1
InChIKey=LJCAFMSKDUEZRV-QGZVFWFLSA-N

> <PUBCHEM_SUBSTANCE_SYNONYM>
SCHEMBL16127391

> <PUBCHEM_XREF_EXT_ID>
SCHEMBL16127391

> <PUBCHEM_EXT_DATASOURCE_URL>
https://www.surechembl.org/

> <PUBCHEM_EXT_SUBSTANCE_URL>
https://www.surechembl.org/chemical/SCHEMBL16127391

> <PUBCHEM_CID_ASSOCIATIONS>
117614689  1

> <PUBCHEM_COORDINATE_TYPE>
1
3

> <PUBCHEM_BONDANNOTATIONS>
15  23  5

$$$$
