310939726
  -OEChem-07211613022D

 12 11  0     0  0  0  0  0  0999 V2000
   -4.1512   -9.7356    0.0000 O   0  0  0  0  0  0  0  0  0  0  0  0
   -2.7223   -9.7356    0.0000 N   0  0  0  0  0  0  0  0  0  0  0  0
   -2.7223   -8.9106    0.0000 C   0  0  0  0  0  0  0  0  0  0  0  0
   -3.4367  -10.1481    0.0000 C   0  0  0  0  0  0  0  0  0  0  0  0
   -2.0078  -10.1481    0.0000 C   0  0  0  0  0  0  0  0  0  0  0  0
   -1.8973   -8.9106    0.0000 C   0  0  0  0  0  0  0  0  0  0  0  0
   -3.5473   -8.9106    0.0000 C   0  0  0  0  0  0  0  0  0  0  0  0
   -2.7223   -8.0856    0.0000 C   0  0  0  0  0  0  0  0  0  0  0  0
   -3.4367  -10.9731    0.0000 C   0  0  0  0  0  0  0  0  0  0  0  0
   -2.0078  -10.9731    0.0000 C   0  0  0  0  0  0  0  0  0  0  0  0
   -4.1512  -11.3856    0.0000 C   0  0  0  0  0  0  0  0  0  0  0  0
   -1.2933  -11.3856    0.0000 C   0  0  0  0  0  0  0  0  0  0  0  0
  1  4  2  0  0  0  0
  2  3  1  0  0  0  0
  2  4  1  0  0  0  0
  2  5  1  0  0  0  0
  3  6  1  0  0  0  0
  3  7  1  0  0  0  0
  3  8  1  0  0  0  0
  4  9  1  0  0  0  0
  5 10  1  0  0  0  0
  9 11  2  0  0  0  0
 10 12  1  0  0  0  0
M  END
> <PUBCHEM_COMPOUND_ID_TYPE>
0

> <PUBCHEM_TOTAL_CHARGE>
0

> <PUBCHEM_SUBSTANCE_ID>
310939726

> <PUBCHEM_SUBSTANCE_VERSION>
1

> <PUBCHEM_EXT_DATASOURCE_NAME>
4488

> <PUBCHEM_EXT_DATASOURCE_REGID>
SCHEMBL16117656

> <PUBCHEM_SUBSTANCE_COMMENT>
InChI=1S/C10H19NO/c1-6-8-11(9(12)7-2)10(3,4)5/h7H,2,6,8H2,1,3-5H3
InChIKey=OKEXKQIUYJPVNQ-UHFFFAOYSA-N

> <PUBCHEM_SUBSTANCE_SYNONYM>
SCHEMBL16117656

> <PUBCHEM_XREF_EXT_ID>
SCHEMBL16117656

> <PUBCHEM_EXT_DATASOURCE_URL>
https://www.surechembl.org/

> <PUBCHEM_EXT_SUBSTANCE_URL>
https://www.surechembl.org/chemical/SCHEMBL16117656

> <PUBCHEM_CID_ASSOCIATIONS>
71339102  1

> <PUBCHEM_COORDINATE_TYPE>
1
3

> <PUBCHEM_BONDANNOTATIONS>
3  6  3
3  7  3

$$$$
