310945028
  -OEChem-07211613022D

 27 30  0     0  0  0  0  0  0999 V2000
   -3.1151   -1.6146    0.0000 Br  0  0  0  0  0  0  0  0  0  0  0  0
    3.1151   -2.4394    0.0000 O   0  0  0  0  0  0  0  0  0  0  0  0
    0.1317    0.0000    0.0000 C   0  0  0  0  0  0  0  0  0  0  0  0
    0.1492    0.8249    0.0000 C   0  0  0  0  0  0  0  0  0  0  0  0
   -0.5880    1.2461    0.0000 C   0  0  0  0  0  0  0  0  0  0  0  0
    0.8863   -0.4036    0.0000 C   0  0  0  0  0  0  0  0  0  0  0  0
   -0.5704   -0.4036    0.0000 C   0  0  0  0  0  0  0  0  0  0  0  0
    0.8687    1.2285    0.0000 C   0  0  0  0  0  0  0  0  0  0  0  0
   -1.3952    1.0354    0.0000 C   0  0  0  0  0  0  0  0  0  0  0  0
   -0.7985    2.0183    0.0000 C   0  0  0  0  0  0  0  0  0  0  0  0
    0.8863   -1.2285    0.0000 C   0  0  0  0  0  0  0  0  0  0  0  0
    1.6058   -0.0176    0.0000 C   0  0  0  0  0  0  0  0  0  0  0  0
   -1.3250    0.0000    0.0000 C   0  0  0  0  0  0  0  0  0  0  0  0
   -0.5880   -1.2285    0.0000 C   0  0  0  0  0  0  0  0  0  0  0  0
    1.6234    0.8424    0.0000 C   0  0  0  0  0  0  0  0  0  0  0  0
    0.9039    2.0534    0.0000 C   0  0  0  0  0  0  0  0  0  0  0  0
   -1.6058    1.8076    0.0000 C   0  0  0  0  0  0  0  0  0  0  0  0
    2.3253   -1.2109    0.0000 C   0  0  0  0  0  0  0  0  0  0  0  0
    1.6234   -1.6146    0.0000 C   0  0  0  0  0  0  0  0  0  0  0  0
    2.3253   -0.4036    0.0000 C   0  0  0  0  0  0  0  0  0  0  0  0
   -2.0270   -0.4036    0.0000 C   0  0  0  0  0  0  0  0  0  0  0  0
   -1.2899   -1.6146    0.0000 C   0  0  0  0  0  0  0  0  0  0  0  0
   -2.0621   -1.2285    0.0000 C   0  0  0  0  0  0  0  0  0  0  0  0
    2.3253    1.2285    0.0000 C   0  0  0  0  0  0  0  0  0  0  0  0
    1.6058    2.4394    0.0000 C   0  0  0  0  0  0  0  0  0  0  0  0
    2.3253    2.0534    0.0000 C   0  0  0  0  0  0  0  0  0  0  0  0
    3.0625   -1.6146    0.0000 C   0  0  0  0  0  0  0  0  0  0  0  0
  1 23  1  0  0  0  0
  2 27  2  0  0  0  0
  3  4  2  0  0  0  0
  3  6  1  0  0  0  0
  3  7  1  0  0  0  0
  4  5  1  0  0  0  0
  4  8  1  0  0  0  0
  5  9  1  0  0  0  0
  5 10  1  0  0  0  0
  6 11  2  0  0  0  0
  6 12  1  0  0  0  0
  7 13  2  0  0  0  0
  7 14  1  0  0  0  0
  8 15  2  0  0  0  0
  8 16  1  0  0  0  0
  9 17  1  0  0  0  0
 10 17  1  0  0  0  0
 11 19  1  0  0  0  0
 12 20  2  0  0  0  0
 13 21  1  0  0  0  0
 14 22  2  0  0  0  0
 15 24  1  0  0  0  0
 16 25  2  0  0  0  0
 18 19  2  0  0  0  0
 18 20  1  0  0  0  0
 18 27  1  0  0  0  0
 21 23  2  0  0  0  0
 22 23  1  0  0  0  0
 24 26  2  0  0  0  0
 25 26  1  0  0  0  0
M  END
> <PUBCHEM_COMPOUND_ID_TYPE>
0

> <PUBCHEM_TOTAL_CHARGE>
0

> <PUBCHEM_SUBSTANCE_ID>
310945028

> <PUBCHEM_SUBSTANCE_VERSION>
1

> <PUBCHEM_EXT_DATASOURCE_NAME>
4488

> <PUBCHEM_EXT_DATASOURCE_REGID>
SCHEMBL16123116

> <PUBCHEM_SUBSTANCE_COMMENT>
InChI=1S/C25H21BrO/c26-23-15-13-22(14-16-23)25(21-11-9-18(17-27)10-12-21)24(20-7-4-8-20)19-5-2-1-3-6-19/h1-3,5-6,9-17,20H,4,7-8H2/b25-24-
InChIKey=SQPBEOZYSVTIEU-IZHYLOQSSA-N

> <PUBCHEM_SUBSTANCE_SYNONYM>
SCHEMBL16123116

> <PUBCHEM_XREF_EXT_ID>
SCHEMBL16123116

> <PUBCHEM_EXT_DATASOURCE_URL>
https://www.surechembl.org/

> <PUBCHEM_EXT_SUBSTANCE_URL>
https://www.surechembl.org/chemical/SCHEMBL16123116

> <PUBCHEM_CID_ASSOCIATIONS>
117611157  1

> <PUBCHEM_COORDINATE_TYPE>
1
3

$$$$
