310947571
  -OEChem-07211613022D

 23 25  0     1  0  0  0  0  0999 V2000
   -1.7629    0.8324    0.0000 I   0  0  0  0  0  0  0  0  0  0  0  0
   -2.3645   -2.0420    0.0000 F   0  0  0  0  0  0  0  0  0  0  0  0
   -0.3805   -1.2170    0.0000 O   0  0  0  0  0  0  0  0  0  0  0  0
   -2.0626   -0.0900    0.0000 O   0  0  0  0  0  0  0  0  0  0  0  0
    1.0461    2.4824    0.0000 O   0  0  0  0  0  0  0  0  0  0  0  0
    0.1450   -2.8949    0.0000 O   0  0  0  0  0  0  0  0  0  0  0  0
   -0.4530    0.1649    0.0000 N   0  0  0  0  0  0  0  0  0  0  0  0
   -0.4530    1.4998    0.0000 N   0  0  0  0  0  0  0  0  0  0  0  0
    1.0461    0.0074    0.0000 N   0  0  0  0  0  0  0  0  0  0  0  0
    1.7606    1.2449    0.0000 N   0  0  0  0  0  0  0  0  0  0  0  0
    2.4751    0.0074    0.0000 N   0  0  0  0  0  0  0  0  0  0  0  0
   -0.8655   -0.5496    0.0000 C   0  0  3  0  0  0  0  0  0  0  0  0
   -1.6501   -0.8045    0.0000 C   0  0  3  0  0  0  0  0  0  0  0  0
    0.3317    0.4199    0.0000 C   0  0  0  0  0  0  0  0  0  0  0  0
    0.3317    1.2449    0.0000 C   0  0  0  0  0  0  0  0  0  0  0  0
   -1.6501   -1.6295    0.0000 C   0  0  3  0  0  0  0  0  0  0  0  0
   -0.9379    0.8324    0.0000 C   0  0  0  0  0  0  0  0  0  0  0  0
   -0.8655   -1.8844    0.0000 C   0  0  3  0  0  0  0  0  0  0  0  0
    1.0461    1.6574    0.0000 C   0  0  0  0  0  0  0  0  0  0  0  0
    1.7606    0.4199    0.0000 C   0  0  0  0  0  0  0  0  0  0  0  0
   -2.4751   -0.8045    0.0000 C   0  0  0  0  0  0  0  0  0  0  0  0
   -0.6519   -2.6813    0.0000 C   0  0  0  0  0  0  0  0  0  0  0  0
    1.7606    2.8949    0.0000 C   0  0  0  0  0  0  0  0  0  0  0  0
  1 17  1  0  0  0  0
 16  2  1  1  0  0  0
 12  3  1  6  0  0  0
  3 18  1  0  0  0  0
 13  4  1  1  0  0  0
  5 19  1  0  0  0  0
  5 23  1  0  0  0  0
  6 22  1  0  0  0  0
  7 12  1  0  0  0  0
  7 14  1  0  0  0  0
  7 17  1  0  0  0  0
  8 15  1  0  0  0  0
  8 17  2  0  0  0  0
  9 14  1  0  0  0  0
  9 20  2  0  0  0  0
 10 19  2  0  0  0  0
 10 20  1  0  0  0  0
 11 20  1  0  0  0  0
 12 13  1  0  0  0  0
 13 16  1  0  0  0  0
 13 21  1  6  0  0  0
 14 15  2  0  0  0  0
 15 19  1  0  0  0  0
 16 18  1  0  0  0  0
 18 22  1  6  0  0  0
M  END
> <PUBCHEM_COMPOUND_ID_TYPE>
0

> <PUBCHEM_TOTAL_CHARGE>
0

> <PUBCHEM_SUBSTANCE_ID>
310947571

> <PUBCHEM_SUBSTANCE_VERSION>
1

> <PUBCHEM_EXT_DATASOURCE_NAME>
4488

> <PUBCHEM_EXT_DATASOURCE_REGID>
SCHEMBL16125734

> <PUBCHEM_SUBSTANCE_COMMENT>
InChI=1S/C12H15FIN5O4/c1-12(21)6(13)4(3-20)23-9(12)19-7-5(16-10(19)14)8(22-2)18-11(15)17-7/h4,6,9,20-21H,3H2,1-2H3,(H2,15,17,18)/t4-,6-,9-,12-/m1/s1
InChIKey=WKQMFRLWBCHSSL-KRJVETADSA-N

> <PUBCHEM_SUBSTANCE_SYNONYM>
SCHEMBL16125734

> <PUBCHEM_XREF_EXT_ID>
SCHEMBL16125734

> <PUBCHEM_EXT_DATASOURCE_URL>
https://www.surechembl.org/

> <PUBCHEM_EXT_SUBSTANCE_URL>
https://www.surechembl.org/chemical/SCHEMBL16125734

> <PUBCHEM_CID_ASSOCIATIONS>
117613293  1

> <PUBCHEM_COORDINATE_TYPE>
1
3

> <PUBCHEM_BONDANNOTATIONS>
13  21  6
18  22  6
16  2  5
12  3  6
13  4  5

$$$$
