310947172
  -OEChem-07211613022D

 24 25  0     0  0  0  0  0  0999 V2000
    0.6770   -6.3431    0.0000 S   0  0  0  0  0  0  0  0  0  0  0  0
   -2.1809   -4.6931    0.0000 O   0  0  0  0  0  0  0  0  0  0  0  0
    3.5349   -3.8681    0.0000 O   0  0  0  0  0  0  0  0  0  0  0  0
   -2.8953   -5.9306    0.0000 O   0  0  0  0  0  0  0  0  0  0  0  0
    4.9639   -6.3431    0.0000 O   0  0  0  0  0  0  0  0  0  0  0  0
    4.2494   -5.9306    0.0000 N   0  0  0  0  0  0  0  0  0  0  0  0
    2.8204   -5.1056    0.0000 C   0  0  0  0  0  0  0  0  0  0  0  0
    1.3915   -5.9306    0.0000 C   0  0  0  0  0  0  0  0  0  0  0  0
   -0.0374   -5.9306    0.0000 C   0  0  0  0  0  0  0  0  0  0  0  0
    3.5349   -4.6931    0.0000 C   0  0  0  0  0  0  0  0  0  0  0  0
    2.1060   -4.6931    0.0000 C   0  0  0  0  0  0  0  0  0  0  0  0
    2.8204   -5.9306    0.0000 C   0  0  0  0  0  0  0  0  0  0  0  0
    1.3915   -5.1056    0.0000 C   0  0  0  0  0  0  0  0  0  0  0  0
    2.1060   -6.3431    0.0000 C   0  0  0  0  0  0  0  0  0  0  0  0
   -1.4664   -5.1056    0.0000 C   0  0  0  0  0  0  0  0  0  0  0  0
   -0.0374   -5.1056    0.0000 C   0  0  0  0  0  0  0  0  0  0  0  0
   -0.7519   -6.3431    0.0000 C   0  0  0  0  0  0  0  0  0  0  0  0
    4.2494   -5.1056    0.0000 C   0  0  0  0  0  0  0  0  0  0  0  0
   -0.7519   -4.6931    0.0000 C   0  0  0  0  0  0  0  0  0  0  0  0
   -1.4664   -5.9306    0.0000 C   0  0  0  0  0  0  0  0  0  0  0  0
   -2.8953   -5.1056    0.0000 C   0  0  0  0  0  0  0  0  0  0  0  0
    4.9639   -4.6931    0.0000 C   0  0  0  0  0  0  0  0  0  0  0  0
   -3.6098   -4.6931    0.0000 C   0  0  0  0  0  0  0  0  0  0  0  0
   -4.3243   -5.1056    0.0000 C   0  0  0  0  0  0  0  0  0  0  0  0
  1  8  1  0  0  0  0
  1  9  1  0  0  0  0
  2 15  1  0  0  0  0
  2 21  1  0  0  0  0
  3 10  2  0  0  0  0
  4 21  2  0  0  0  0
  5  6  1  0  0  0  0
  6 18  2  0  0  0  0
  7 10  1  0  0  0  0
  7 11  2  0  0  0  0
  7 12  1  0  0  0  0
  8 13  2  0  0  0  0
  8 14  1  0  0  0  0
  9 16  2  0  0  0  0
  9 17  1  0  0  0  0
 10 18  1  0  0  0  0
 11 13  1  0  0  0  0
 12 14  2  0  0  0  0
 15 19  2  0  0  0  0
 15 20  1  0  0  0  0
 16 19  1  0  0  0  0
 17 20  2  0  0  0  0
 18 22  1  0  0  0  0
 21 23  1  0  0  0  0
 23 24  2  0  0  0  0
M  END
> <PUBCHEM_COMPOUND_ID_TYPE>
0

> <PUBCHEM_TOTAL_CHARGE>
0

> <PUBCHEM_SUBSTANCE_ID>
310947172

> <PUBCHEM_SUBSTANCE_VERSION>
1

> <PUBCHEM_EXT_DATASOURCE_NAME>
4488

> <PUBCHEM_EXT_DATASOURCE_REGID>
SCHEMBL16125326

> <PUBCHEM_SUBSTANCE_COMMENT>
InChI=1S/C18H15NO4S/c1-3-17(20)23-14-6-10-16(11-7-14)24-15-8-4-13(5-9-15)18(21)12(2)19-22/h3-11,22H,1H2,2H3/b19-12+
InChIKey=RAFSXPPEOKAXFD-XDHOZWIPSA-N

> <PUBCHEM_SUBSTANCE_SYNONYM>
SCHEMBL16125326

> <PUBCHEM_XREF_EXT_ID>
SCHEMBL16125326

> <PUBCHEM_EXT_DATASOURCE_URL>
https://www.surechembl.org/

> <PUBCHEM_EXT_SUBSTANCE_URL>
https://www.surechembl.org/chemical/SCHEMBL16125326

> <PUBCHEM_CID_ASSOCIATIONS>
117612998  1

> <PUBCHEM_COORDINATE_TYPE>
1
3

$$$$
