310940894
  -OEChem-07211613022D

 21 21  0     1  0  0  0  0  0999 V2000
    1.2480    2.8198    0.0000 F   0  0  0  0  0  0  0  0  0  0  0  0
    1.6671    2.0910    0.0000 F   0  0  0  0  0  0  0  0  0  0  0  0
    0.3718   -1.9953    0.0000 O   0  0  0  0  0  0  0  0  0  0  0  0
    0.5193    0.2509    0.0000 O   0  0  0  0  0  0  0  0  0  0  0  0
   -0.1296   -2.8198    0.0000 O   0  0  0  0  0  0  0  0  0  0  0  0
   -1.6671   -0.1682    0.0000 N   0  0  0  0  0  0  0  0  0  0  0  0
    0.8108    2.1457    0.0000 C   0  0  0  0  0  0  0  0  0  0  0  0
   -0.2095    1.5445    0.0000 C   0  0  0  0  0  0  0  0  0  0  0  0
    0.0091    2.3279    0.0000 C   0  0  0  0  0  0  0  0  0  0  0  0
    0.5922    1.3259    0.0000 C   0  0  0  0  0  0  0  0  0  0  0  0
   -0.9383    0.2873    0.0000 C   0  0  3  0  0  0  0  0  0  0  0  0
   -0.9201    1.1254    0.0000 C   0  0  0  0  0  0  0  0  0  0  0  0
   -0.2278   -0.1500    0.0000 C   0  0  0  0  0  0  0  0  0  0  0  0
   -0.1296   -2.2850    0.0000 C   0  0  0  0  0  0  0  0  0  0  0  0
   -0.2460   -0.9516    0.0000 C   0  0  0  0  0  0  0  0  0  0  0  0
    0.3829   -1.4384    0.0000 C   0  0  0  0  0  0  0  0  0  0  0  0
    0.5375   -1.3890    0.0000 C   0  0  0  0  0  0  0  0  0  0  0  0
   -0.9383   -1.4254    0.0000 C   0  0  0  0  0  0  0  0  0  0  0  0
    0.8842   -1.4160    0.0000 C   0  0  0  0  0  0  0  0  0  0  0  0
   -0.1296   -1.4384    0.0000 C   0  0  0  0  0  0  0  0  0  0  0  0
    0.3718   -0.8923    0.0000 C   0  0  0  0  0  0  0  0  0  0  0  0
  1  7  1  0  0  0  0
  2  7  1  0  0  0  0
  3 14  1  0  0  0  0
  3 16  1  0  0  0  0
  4 13  2  0  0  0  0
  5 14  2  0  0  0  0
 11  6  1  1  0  0  0
  6 14  1  0  0  0  0
  7  9  1  0  0  0  0
  7 10  1  0  0  0  0
  8  9  1  0  0  0  0
  8 10  1  0  0  0  0
  8 12  1  0  0  0  0
 11 12  1  0  0  0  0
 11 13  1  0  0  0  0
 13 15  1  0  0  0  0
 15 17  2  0  0  0  0
 15 18  1  0  0  0  0
 16 19  1  0  0  0  0
 16 20  1  0  0  0  0
 16 21  1  0  0  0  0
M  END
> <PUBCHEM_COMPOUND_ID_TYPE>
0

> <PUBCHEM_TOTAL_CHARGE>
0

> <PUBCHEM_SUBSTANCE_ID>
310940894

> <PUBCHEM_SUBSTANCE_VERSION>
1

> <PUBCHEM_EXT_DATASOURCE_NAME>
4488

> <PUBCHEM_EXT_DATASOURCE_REGID>
SCHEMBL16118853

> <PUBCHEM_SUBSTANCE_COMMENT>
InChI=1S/C15H23F2NO3/c1-9(2)12(19)11(6-10-7-15(16,17)8-10)18-13(20)21-14(3,4)5/h10-11H,1,6-8H2,2-5H3,(H,18,20)/t11-/m0/s1
InChIKey=KBLAPKRVFIHXKU-NSHDSACASA-N

> <PUBCHEM_SUBSTANCE_SYNONYM>
SCHEMBL16118853

> <PUBCHEM_XREF_EXT_ID>
SCHEMBL16118853

> <PUBCHEM_EXT_DATASOURCE_URL>
https://www.surechembl.org/

> <PUBCHEM_EXT_SUBSTANCE_URL>
https://www.surechembl.org/chemical/SCHEMBL16118853

> <PUBCHEM_CID_ASSOCIATIONS>
117607811  1

> <PUBCHEM_COORDINATE_TYPE>
1
3

> <PUBCHEM_BONDANNOTATIONS>
11  6  5

$$$$
