310934845
  -OEChem-07211613022D

 20 22  0     0  0  0  0  0  0999 V2000
    1.4990    0.0000    0.0000 O   0  0  0  0  0  0  0  0  0  0  0  0
    0.0000   -0.6814    0.0000 O   0  0  0  0  0  0  0  0  0  0  0  0
    2.0830   -2.1220    0.0000 N   0  0  0  0  0  0  0  0  0  0  0  0
    2.8618   -2.3751    0.0000 N   0  0  0  0  0  0  0  0  0  0  0  0
    0.6619   -1.1681    0.0000 N   0  0  0  0  0  0  0  0  0  0  0  0
    2.0830   -1.3044    0.0000 C   0  0  0  0  0  0  0  0  0  0  0  0
    3.3290   -1.7131    0.0000 C   0  0  0  0  0  0  0  0  0  0  0  0
    2.8618   -1.0318    0.0000 C   0  0  0  0  0  0  0  0  0  0  0  0
    1.4017   -2.5892    0.0000 C   0  0  0  0  0  0  0  0  0  0  0  0
    4.1661   -1.7131    0.0000 C   0  0  0  0  0  0  0  0  0  0  0  0
    1.4017   -0.8176    0.0000 C   0  0  0  0  0  0  0  0  0  0  0  0
    1.4990   -3.4264    0.0000 C   0  0  0  0  0  0  0  0  0  0  0  0
    0.6619   -2.2582    0.0000 C   0  0  0  0  0  0  0  0  0  0  0  0
    4.6334   -1.0318    0.0000 C   0  0  0  0  0  0  0  0  0  0  0  0
    4.6334   -2.3751    0.0000 C   0  0  0  0  0  0  0  0  0  0  0  0
    0.8176   -3.8936    0.0000 C   0  0  0  0  0  0  0  0  0  0  0  0
    0.0000   -2.7450    0.0000 C   0  0  0  0  0  0  0  0  0  0  0  0
    5.4120   -1.3044    0.0000 C   0  0  0  0  0  0  0  0  0  0  0  0
    5.4120   -2.1025    0.0000 C   0  0  0  0  0  0  0  0  0  0  0  0
    0.0584   -3.5626    0.0000 C   0  0  0  0  0  0  0  0  0  0  0  0
  1 11  2  0  0  0  0
  2  5  1  0  0  0  0
  3  4  1  0  0  0  0
  3  6  1  0  0  0  0
  3  9  1  0  0  0  0
  4  7  2  0  0  0  0
  5 11  1  0  0  0  0
  6  8  2  0  0  0  0
  6 11  1  0  0  0  0
  7  8  1  0  0  0  0
  7 10  1  0  0  0  0
  9 12  2  0  0  0  0
  9 13  1  0  0  0  0
 10 14  1  0  0  0  0
 10 15  1  0  0  0  0
 12 16  1  0  0  0  0
 13 17  2  0  0  0  0
 14 18  1  0  0  0  0
 15 19  1  0  0  0  0
 16 20  2  0  0  0  0
 17 20  1  0  0  0  0
 18 19  1  0  0  0  0
M  END
> <PUBCHEM_COMPOUND_ID_TYPE>
0

> <PUBCHEM_TOTAL_CHARGE>
0

> <PUBCHEM_SUBSTANCE_ID>
310934845

> <PUBCHEM_SUBSTANCE_VERSION>
1

> <PUBCHEM_EXT_DATASOURCE_NAME>
4488

> <PUBCHEM_EXT_DATASOURCE_REGID>
SCHEMBL16112354

> <PUBCHEM_SUBSTANCE_COMMENT>
InChI=1S/C15H17N3O2/c19-15(17-20)14-10-13(11-6-4-5-7-11)16-18(14)12-8-2-1-3-9-12/h1-3,8-11,20H,4-7H2,(H,17,19)
InChIKey=FNUGQWIXCJLZOH-UHFFFAOYSA-N

> <PUBCHEM_SUBSTANCE_SYNONYM>
SCHEMBL16112354

> <PUBCHEM_XREF_EXT_ID>
SCHEMBL16112354

> <PUBCHEM_EXT_DATASOURCE_URL>
https://www.surechembl.org/

> <PUBCHEM_EXT_SUBSTANCE_URL>
https://www.surechembl.org/chemical/SCHEMBL16112354

> <PUBCHEM_CID_ASSOCIATIONS>
86291642  1

> <PUBCHEM_COORDINATE_TYPE>
1
3

$$$$
