310944605
  -OEChem-07211613022D

 19 20  0     0  0  0  0  0  0999 V2000
   -0.0066    2.4530    0.0000 F   0  0  0  0  0  0  0  0  0  0  0  0
    2.1651    1.9820    0.0000 N   0  0  0  0  0  0  0  0  0  0  0  0
   -2.1651    1.9820    0.0000 N   0  0  0  0  0  0  0  0  0  0  0  0
   -0.0196    0.0196    0.0000 C   0  0  0  0  0  0  0  0  0  0  0  0
   -0.0196    1.6549    0.0000 C   0  0  0  0  0  0  0  0  0  0  0  0
    0.7130    1.2494    0.0000 C   0  0  0  0  0  0  0  0  0  0  0  0
   -0.7261    1.2494    0.0000 C   0  0  0  0  0  0  0  0  0  0  0  0
   -0.0196   -0.8177    0.0000 C   0  0  0  0  0  0  0  0  0  0  0  0
    0.7130    0.4252    0.0000 C   0  0  0  0  0  0  0  0  0  0  0  0
   -0.7130    0.4121    0.0000 C   0  0  0  0  0  0  0  0  0  0  0  0
   -0.7261   -1.2232    0.0000 C   0  0  0  0  0  0  0  0  0  0  0  0
    0.6999   -1.2363    0.0000 C   0  0  0  0  0  0  0  0  0  0  0  0
    1.4456    1.6288    0.0000 C   0  0  0  0  0  0  0  0  0  0  0  0
   -1.4587    1.6288    0.0000 C   0  0  0  0  0  0  0  0  0  0  0  0
   -0.7523   -2.0474    0.0000 C   0  0  0  0  0  0  0  0  0  0  0  0
    0.6869   -2.0605    0.0000 C   0  0  0  0  0  0  0  0  0  0  0  0
   -0.0196   -2.4530    0.0000 C   0  0  0  0  0  0  0  0  0  0  0  0
   -1.4587   -2.4530    0.0000 C   0  0  0  0  0  0  0  0  0  0  0  0
   -2.1521   -1.9951    0.0000 C   0  0  0  0  0  0  0  0  0  0  0  0
  1  5  1  0  0  0  0
  2 13  3  0  0  0  0
  3 14  3  0  0  0  0
  4  8  1  0  0  0  0
  4  9  2  0  0  0  0
  4 10  1  0  0  0  0
  5  6  2  0  0  0  0
  5  7  1  0  0  0  0
  6  9  1  0  0  0  0
  6 13  1  0  0  0  0
  7 10  2  0  0  0  0
  7 14  1  0  0  0  0
  8 11  2  0  0  0  0
  8 12  1  0  0  0  0
 11 15  1  0  0  0  0
 12 16  2  0  0  0  0
 15 17  2  0  0  0  0
 15 18  1  0  0  0  0
 16 17  1  0  0  0  0
 18 19  2  0  0  0  0
M  END
> <PUBCHEM_COMPOUND_ID_TYPE>
0

> <PUBCHEM_TOTAL_CHARGE>
0

> <PUBCHEM_SUBSTANCE_ID>
310944605

> <PUBCHEM_SUBSTANCE_VERSION>
1

> <PUBCHEM_EXT_DATASOURCE_NAME>
4488

> <PUBCHEM_EXT_DATASOURCE_REGID>
SCHEMBL16122683

> <PUBCHEM_SUBSTANCE_COMMENT>
InChI=1S/C16H9FN2/c1-2-11-4-3-5-12(6-11)13-7-14(9-18)16(17)15(8-13)10-19/h2-8H,1H2
InChIKey=ZUTZYGWQJZZRKK-UHFFFAOYSA-N

> <PUBCHEM_SUBSTANCE_SYNONYM>
SCHEMBL16122683

> <PUBCHEM_XREF_EXT_ID>
SCHEMBL16122683

> <PUBCHEM_EXT_DATASOURCE_URL>
https://www.surechembl.org/

> <PUBCHEM_EXT_SUBSTANCE_URL>
https://www.surechembl.org/chemical/SCHEMBL16122683

> <PUBCHEM_CID_ASSOCIATIONS>
117610835  1

> <PUBCHEM_COORDINATE_TYPE>
1
3

$$$$
