310945470
  -OEChem-07211613022D

 27 30  0     0  0  0  0  0  0999 V2000
    1.0682    1.2232    0.0000 F   0  0  0  0  0  0  0  0  0  0  0  0
    1.8951    2.0674    0.0000 F   0  0  0  0  0  0  0  0  0  0  0  0
    2.6876    1.2232    0.0000 F   0  0  0  0  0  0  0  0  0  0  0  0
   -0.8614    0.9992    0.0000 F   0  0  0  0  0  0  0  0  0  0  0  0
   -3.2561   -1.3266    0.0000 F   0  0  0  0  0  0  0  0  0  0  0  0
   -4.0486   -0.4824    0.0000 F   0  0  0  0  0  0  0  0  0  0  0  0
   -3.2561    0.3790    0.0000 F   0  0  0  0  0  0  0  0  0  0  0  0
    0.3962    0.2068    0.0000 N   0  0  0  0  0  0  0  0  0  0  0  0
    0.3962   -1.1543    0.0000 N   0  0  0  0  0  0  0  0  0  0  0  0
    2.5670   -0.0517    0.0000 N   0  0  0  0  0  0  0  0  0  0  0  0
    1.8779   -1.3266    0.0000 N   0  0  0  0  0  0  0  0  0  0  0  0
    1.1715   -0.0689    0.0000 C   0  0  0  0  0  0  0  0  0  0  0  0
    1.8607    0.3446    0.0000 C   0  0  0  0  0  0  0  0  0  0  0  0
    1.1371   -0.9131    0.0000 C   0  0  0  0  0  0  0  0  0  0  0  0
   -0.0517   -0.4996    0.0000 C   0  0  0  0  0  0  0  0  0  0  0  0
    2.5497   -0.9303    0.0000 C   0  0  0  0  0  0  0  0  0  0  0  0
    1.8779    1.1888    0.0000 C   0  0  0  0  0  0  0  0  0  0  0  0
   -0.8786   -0.4996    0.0000 C   0  0  0  0  0  0  0  0  0  0  0  0
    3.2561   -1.3610    0.0000 C   0  0  0  0  0  0  0  0  0  0  0  0
   -1.2749    0.2240    0.0000 C   0  0  0  0  0  0  0  0  0  0  0  0
   -2.4637   -0.4996    0.0000 C   0  0  0  0  0  0  0  0  0  0  0  0
   -1.2749   -1.2404    0.0000 C   0  0  0  0  0  0  0  0  0  0  0  0
    4.0486   -1.3783    0.0000 C   0  0  0  0  0  0  0  0  0  0  0  0
    3.6696   -2.0674    0.0000 C   0  0  0  0  0  0  0  0  0  0  0  0
   -2.0329    0.2240    0.0000 C   0  0  0  0  0  0  0  0  0  0  0  0
   -3.2561   -0.4996    0.0000 C   0  0  0  0  0  0  0  0  0  0  0  0
   -2.0501   -1.2404    0.0000 C   0  0  0  0  0  0  0  0  0  0  0  0
  1 17  1  0  0  0  0
  2 17  1  0  0  0  0
  3 17  1  0  0  0  0
  4 20  1  0  0  0  0
  5 26  1  0  0  0  0
  6 26  1  0  0  0  0
  7 26  1  0  0  0  0
  8 12  1  0  0  0  0
  8 15  2  0  0  0  0
  9 14  1  0  0  0  0
  9 15  1  0  0  0  0
 10 13  2  0  0  0  0
 10 16  1  0  0  0  0
 11 14  1  0  0  0  0
 11 16  2  0  0  0  0
 12 13  1  0  0  0  0
 12 14  2  0  0  0  0
 13 17  1  0  0  0  0
 15 18  1  0  0  0  0
 16 19  1  0  0  0  0
 18 20  2  0  0  0  0
 18 22  1  0  0  0  0
 19 23  1  0  0  0  0
 19 24  1  0  0  0  0
 20 25  1  0  0  0  0
 21 25  2  0  0  0  0
 21 26  1  0  0  0  0
 21 27  1  0  0  0  0
 22 27  2  0  0  0  0
 23 24  1  0  0  0  0
M  END
> <PUBCHEM_COMPOUND_ID_TYPE>
0

> <PUBCHEM_TOTAL_CHARGE>
0

> <PUBCHEM_SUBSTANCE_ID>
310945470

> <PUBCHEM_SUBSTANCE_VERSION>
1

> <PUBCHEM_EXT_DATASOURCE_NAME>
4488

> <PUBCHEM_EXT_DATASOURCE_REGID>
SCHEMBL16123568

> <PUBCHEM_SUBSTANCE_COMMENT>
InChI=1S/C16H9F7N4/c17-9-5-7(15(18,19)20)3-4-8(9)13-24-10-11(16(21,22)23)25-12(6-1-2-6)26-14(10)27-13/h3-6H,1-2H2,(H,24,25,26,27)
InChIKey=UZDNBFLPDRZZCW-UHFFFAOYSA-N

> <PUBCHEM_SUBSTANCE_SYNONYM>
SCHEMBL16123568

> <PUBCHEM_XREF_EXT_ID>
SCHEMBL16123568

> <PUBCHEM_EXT_DATASOURCE_URL>
https://www.surechembl.org/

> <PUBCHEM_EXT_SUBSTANCE_URL>
https://www.surechembl.org/chemical/SCHEMBL16123568

> <PUBCHEM_CID_ASSOCIATIONS>
117611515  1

> <PUBCHEM_COORDINATE_TYPE>
1
3

$$$$
