310932597
  -OEChem-07211613022D

 32 36  0     0  0  0  0  0  0999 V2000
    4.0215   -2.1065    0.0000 O   0  0  0  0  0  0  0  0  0  0  0  0
    8.5409   -2.2214    0.0000 O   0  0  0  0  0  0  0  0  0  0  0  0
    4.9407   -0.9575    0.0000 N   0  0  0  0  0  0  0  0  0  0  0  0
    4.8641   -0.1532    0.0000 N   0  0  0  0  0  0  0  0  0  0  0  0
    6.3961   -0.9575    0.0000 N   0  0  0  0  0  0  0  0  0  0  0  0
    9.9580   -4.6726    0.0000 N   0  0  0  0  0  0  0  0  0  0  0  0
    7.8132   -3.4470    0.0000 N   0  0  0  0  0  0  0  0  0  0  0  0
    0.0000   -1.8384    0.0000 N   0  0  0  0  0  0  0  0  0  0  0  0
    4.2130   -1.3022    0.0000 C   0  0  0  0  0  0  0  0  0  0  0  0
    3.6385   -0.6894    0.0000 C   0  0  0  0  0  0  0  0  0  0  0  0
    5.6684   -1.3788    0.0000 C   0  0  0  0  0  0  0  0  0  0  0  0
    2.7959   -0.8043    0.0000 C   0  0  0  0  0  0  0  0  0  0  0  0
    4.0215    0.0000    0.0000 C   0  0  0  0  0  0  0  0  0  0  0  0
    7.0855   -2.2214    0.0000 C   0  0  0  0  0  0  0  0  0  0  0  0
    5.6684   -2.2214    0.0000 C   0  0  0  0  0  0  0  0  0  0  0  0
    7.0855   -1.3788    0.0000 C   0  0  0  0  0  0  0  0  0  0  0  0
    6.3961   -2.6044    0.0000 C   0  0  0  0  0  0  0  0  0  0  0  0
    2.4895   -1.5703    0.0000 C   0  0  0  0  0  0  0  0  0  0  0  0
    2.2980   -0.1149    0.0000 C   0  0  0  0  0  0  0  0  0  0  0  0
    7.8132   -2.6044    0.0000 C   0  0  0  0  0  0  0  0  0  0  0  0
   10.6857   -5.0939    0.0000 C   0  0  0  0  0  0  0  0  0  0  0  0
    8.5409   -3.8683    0.0000 C   0  0  0  0  0  0  0  0  0  0  0  0
    1.1490   -0.9958    0.0000 C   0  0  0  0  0  0  0  0  0  0  0  0
    1.6469   -1.6469    0.0000 C   0  0  0  0  0  0  0  0  0  0  0  0
    1.4937   -0.2298    0.0000 C   0  0  0  0  0  0  0  0  0  0  0  0
   11.4900   -5.0939    0.0000 C   0  0  0  0  0  0  0  0  0  0  0  0
   11.1070   -5.8216    0.0000 C   0  0  0  0  0  0  0  0  0  0  0  0
    9.2303   -5.0939    0.0000 C   0  0  0  0  0  0  0  0  0  0  0  0
    9.9580   -3.8683    0.0000 C   0  0  0  0  0  0  0  0  0  0  0  0
    8.5409   -4.7109    0.0000 C   0  0  0  0  0  0  0  0  0  0  0  0
    9.2303   -3.4470    0.0000 C   0  0  0  0  0  0  0  0  0  0  0  0
    0.3447   -1.0724    0.0000 C   0  0  0  0  0  0  0  0  0  0  0  0
  1  9  1  0  0  0  0
  2 20  2  0  0  0  0
  3  4  1  0  0  0  0
  3  9  1  0  0  0  0
  3 11  1  0  0  0  0
  4 13  2  0  0  0  0
  5 11  2  0  0  0  0
  5 16  1  0  0  0  0
  6 21  1  0  0  0  0
  6 28  1  0  0  0  0
  6 29  1  0  0  0  0
  7 20  1  0  0  0  0
  7 22  1  0  0  0  0
  8 32  3  0  0  0  0
  9 10  2  0  0  0  0
 10 12  1  0  0  0  0
 10 13  1  0  0  0  0
 11 15  1  0  0  0  0
 12 18  2  0  0  0  0
 12 19  1  0  0  0  0
 14 16  2  0  0  0  0
 14 17  1  0  0  0  0
 14 20  1  0  0  0  0
 15 17  2  0  0  0  0
 18 24  1  0  0  0  0
 19 25  2  0  0  0  0
 21 26  1  0  0  0  0
 21 27  1  0  0  0  0
 22 30  1  0  0  0  0
 22 31  1  0  0  0  0
 23 24  2  0  0  0  0
 23 25  1  0  0  0  0
 23 32  1  0  0  0  0
 26 27  1  0  0  0  0
 28 30  1  0  0  0  0
 29 31  1  0  0  0  0
M  END
> <PUBCHEM_COMPOUND_ID_TYPE>
0

> <PUBCHEM_TOTAL_CHARGE>
0

> <PUBCHEM_SUBSTANCE_ID>
310932597

> <PUBCHEM_SUBSTANCE_VERSION>
1

> <PUBCHEM_EXT_DATASOURCE_NAME>
4488

> <PUBCHEM_EXT_DATASOURCE_REGID>
SCHEMBL16109975

> <PUBCHEM_SUBSTANCE_COMMENT>
InChI=1S/C24H24N6O2/c25-13-16-1-3-17(4-2-16)21-15-27-30(24(21)32)22-8-5-18(14-26-22)23(31)28-19-9-11-29(12-10-19)20-6-7-20/h1-5,8,14-15,19-20,32H,6-7,9-12H2,(H,28,31)
InChIKey=JOLQWFNIXYITSR-UHFFFAOYSA-N

> <PUBCHEM_SUBSTANCE_SYNONYM>
SCHEMBL16109975

> <PUBCHEM_XREF_EXT_ID>
SCHEMBL16109975

> <PUBCHEM_EXT_DATASOURCE_URL>
https://www.surechembl.org/

> <PUBCHEM_EXT_SUBSTANCE_URL>
https://www.surechembl.org/chemical/SCHEMBL16109975

> <PUBCHEM_CID_ASSOCIATIONS>
117601119  1

> <PUBCHEM_COORDINATE_TYPE>
1
3

$$$$
