310948867
  -OEChem-07211613022D

 58 62  0     1  0  0  0  0  0999 V2000
   -3.1021    0.9904    0.0000 P   0  0  3  0  0  0  0  0  0  0  0  0
   -3.8247    0.5668    0.0000 O   0  0  0  0  0  0  0  0  0  0  0  0
   -5.3446   -0.8160    0.0000 O   0  0  0  0  0  0  0  0  0  0  0  0
   -9.9541    2.3235    0.0000 O   0  0  0  0  0  0  0  0  0  0  0  0
   -2.6910    0.2678    0.0000 O   0  0  0  0  0  0  0  0  0  0  0  0
   -3.1146    1.8127    0.0000 O   0  0  0  0  0  0  0  0  0  0  0  0
    0.5980    1.8127    0.0000 O   0  0  0  0  0  0  0  0  0  0  0  0
   -7.2507    1.4016    0.0000 N   0  0  0  0  0  0  0  0  0  0  0  0
   -8.0356    2.4979    0.0000 N   0  0  0  0  0  0  0  0  0  0  0  0
   -8.2474    0.3924    0.0000 N   0  0  0  0  0  0  0  0  0  0  0  0
   -9.6925    0.9780    0.0000 N   0  0  0  0  0  0  0  0  0  0  0  0
   -9.4184   -0.5046    0.0000 N   0  0  0  0  0  0  0  0  0  0  0  0
   -2.2674    0.9904    0.0000 N   0  0  0  0  0  0  0  0  0  0  0  0
   -0.0996    0.5793    0.0000 N   0  0  0  0  0  0  0  0  0  0  0  0
   -6.5281    0.9904    0.0000 C   0  0  3  0  0  0  0  0  0  0  0  0
   -8.0356    1.1524    0.0000 C   0  0  0  0  0  0  0  0  0  0  0  0
   -8.5339    1.8251    0.0000 C   0  0  0  0  0  0  0  0  0  0  0  0
   -5.7557    1.2272    0.0000 C   0  0  0  0  0  0  0  0  0  0  0  0
   -5.2574    0.5668    0.0000 C   0  0  3  0  0  0  0  0  0  0  0  0
   -5.7432   -0.0934    0.0000 C   0  0  3  0  0  0  0  0  0  0  0  0
   -6.5281    0.1682    0.0000 C   0  0  0  0  0  0  0  0  0  0  0  0
   -7.2507    2.2362    0.0000 C   0  0  0  0  0  0  0  0  0  0  0  0
   -9.3437    1.7255    0.0000 C   0  0  0  0  0  0  0  0  0  0  0  0
   -9.1941    0.3052    0.0000 C   0  0  0  0  0  0  0  0  0  0  0  0
   -4.5348    0.9780    0.0000 C   0  0  0  0  0  0  0  0  0  0  0  0
   -5.3322    1.9622    0.0000 C   0  0  0  0  0  0  0  0  0  0  0  0
   -2.9028   -0.5295    0.0000 C   0  0  0  0  0  0  0  0  0  0  0  0
   -2.3047   -1.1150    0.0000 C   0  0  0  0  0  0  0  0  0  0  0  0
   -2.5041   -1.9248    0.0000 C   0  0  0  0  0  0  0  0  0  0  0  0
   -3.6877   -0.7537    0.0000 C   0  0  0  0  0  0  0  0  0  0  0  0
   -1.5075   -0.9157    0.0000 C   0  0  0  0  0  0  0  0  0  0  0  0
   -3.3264   -2.1366    0.0000 C   0  0  0  0  0  0  0  0  0  0  0  0
   -3.8994   -1.5511    0.0000 C   0  0  0  0  0  0  0  0  0  0  0  0
   -1.9310   -2.4979    0.0000 C   0  0  0  0  0  0  0  0  0  0  0  0
   -1.5324    0.5793    0.0000 C   0  0  0  0  0  0  0  0  0  0  0  0
   -0.9219   -1.4887    0.0000 C   0  0  0  0  0  0  0  0  0  0  0  0
   -1.1337   -2.2861    0.0000 C   0  0  0  0  0  0  0  0  0  0  0  0
   -0.8347    0.9904    0.0000 C   0  0  0  0  0  0  0  0  0  0  0  0
    0.5980    0.9780    0.0000 C   0  0  0  0  0  0  0  0  0  0  0  0
    1.3455    0.5793    0.0000 C   0  0  0  0  0  0  0  0  0  0  0  0
    2.0432    0.9780    0.0000 C   0  0  0  0  0  0  0  0  0  0  0  0
    2.0556    1.8251    0.0000 C   0  0  0  0  0  0  0  0  0  0  0  0
    2.7657    2.2362    0.0000 C   0  0  0  0  0  0  0  0  0  0  0  0
    3.4883    1.8127    0.0000 C   0  0  0  0  0  0  0  0  0  0  0  0
    3.4883    0.9904    0.0000 C   0  0  0  0  0  0  0  0  0  0  0  0
    4.2109    0.5793    0.0000 C   0  0  0  0  0  0  0  0  0  0  0  0
    4.9210    0.9780    0.0000 C   0  0  0  0  0  0  0  0  0  0  0  0
    4.9335    1.8251    0.0000 C   0  0  0  0  0  0  0  0  0  0  0  0
    5.6436    2.2362    0.0000 C   0  0  0  0  0  0  0  0  0  0  0  0
    6.3662    1.8127    0.0000 C   0  0  0  0  0  0  0  0  0  0  0  0
    6.3662    0.9904    0.0000 C   0  0  0  0  0  0  0  0  0  0  0  0
    7.0887    0.5793    0.0000 C   0  0  0  0  0  0  0  0  0  0  0  0
    7.7988    0.9780    0.0000 C   0  0  0  0  0  0  0  0  0  0  0  0
    7.8113    1.8251    0.0000 C   0  0  0  0  0  0  0  0  0  0  0  0
    8.5090    2.2362    0.0000 C   0  0  0  0  0  0  0  0  0  0  0  0
    9.2440    1.8127    0.0000 C   0  0  0  0  0  0  0  0  0  0  0  0
    9.2440    0.9904    0.0000 C   0  0  0  0  0  0  0  0  0  0  0  0
    9.9541    0.5793    0.0000 C   0  0  0  0  0  0  0  0  0  0  0  0
  1  2  1  0  0  0  0
  1  5  1  0  0  0  0
  1  6  2  0  0  0  0
  1 13  1  0  0  0  0
  2 25  1  0  0  0  0
 20  3  1  1  0  0  0
  4 23  2  0  0  0  0
  5 27  1  0  0  0  0
  7 39  2  0  0  0  0
  8 15  1  0  0  0  0
  8 16  1  0  0  0  0
  8 22  1  0  0  0  0
  9 17  1  0  0  0  0
  9 22  2  0  0  0  0
 10 16  1  0  0  0  0
 10 24  1  0  0  0  0
 11 23  1  0  0  0  0
 11 24  2  0  0  0  0
 12 24  1  0  0  0  0
 13 35  1  0  0  0  0
 14 38  1  0  0  0  0
 14 39  1  0  0  0  0
 15 18  1  0  0  0  0
 15 21  1  0  0  0  0
 16 17  2  0  0  0  0
 17 23  1  0  0  0  0
 18 19  1  0  0  0  0
 18 26  2  0  0  0  0
 19 20  1  0  0  0  0
 19 25  1  6  0  0  0
 20 21  1  0  0  0  0
 27 28  1  0  0  0  0
 27 30  2  0  0  0  0
 28 29  2  0  0  0  0
 28 31  1  0  0  0  0
 29 32  1  0  0  0  0
 29 34  1  0  0  0  0
 30 33  1  0  0  0  0
 31 36  2  0  0  0  0
 32 33  2  0  0  0  0
 34 37  2  0  0  0  0
 35 38  1  0  0  0  0
 36 37  1  0  0  0  0
 39 40  1  0  0  0  0
 40 41  1  0  0  0  0
 41 42  1  0  0  0  0
 42 43  1  0  0  0  0
 43 44  2  0  0  0  0
 44 45  1  0  0  0  0
 45 46  1  0  0  0  0
 46 47  2  0  0  0  0
 47 48  1  0  0  0  0
 48 49  1  0  0  0  0
 49 50  2  0  0  0  0
 50 51  1  0  0  0  0
 51 52  1  0  0  0  0
 52 53  2  0  0  0  0
 53 54  1  0  0  0  0
 54 55  1  0  0  0  0
 55 56  2  0  0  0  0
 56 57  1  0  0  0  0
 57 58  1  0  0  0  0
M  END
> <PUBCHEM_COMPOUND_ID_TYPE>
0

> <PUBCHEM_TOTAL_CHARGE>
0

> <PUBCHEM_SUBSTANCE_ID>
310948867

> <PUBCHEM_SUBSTANCE_VERSION>
1

> <PUBCHEM_EXT_DATASOURCE_NAME>
4488

> <PUBCHEM_EXT_DATASOURCE_REGID>
SCHEMBL16127052

> <PUBCHEM_SUBSTANCE_COMMENT>
InChI=1S/C44H56N7O6P/c1-3-4-5-6-7-8-9-10-11-12-13-14-15-16-17-18-19-27-40(53)46-28-29-48-58(55,57-39-26-22-24-34-23-20-21-25-35(34)39)56-31-36-33(2)37(30-38(36)52)51-32-47-41-42(51)49-44(45)50-43(41)54/h4-5,7-8,10-11,13-14,16-17,20-26,32,36-38,52H,2-3,6,9,12,15,18-19,27-31H2,1H3,(H,46,53)(H,48,55)(H3,45,49,50,54)/b5-4-,8-7-,11-10-,14-13-,17-16-/t36-,37?,38-,58?/m0/s1
InChIKey=BJOWPYOODDYGLK-GIKBEZLCSA-N

> <PUBCHEM_SUBSTANCE_SYNONYM>
SCHEMBL16127052

> <PUBCHEM_XREF_EXT_ID>
SCHEMBL16127052

> <PUBCHEM_EXT_DATASOURCE_URL>
https://www.surechembl.org/

> <PUBCHEM_EXT_SUBSTANCE_URL>
https://www.surechembl.org/chemical/SCHEMBL16127052

> <PUBCHEM_CID_ASSOCIATIONS>
117614400  1

> <PUBCHEM_COORDINATE_TYPE>
1
3

> <PUBCHEM_BONDANNOTATIONS>
19  25  6
20  3  5

$$$$
