310933448
  -OEChem-07211613022D

 33 36  0     0  0  0  0  0  0999 V2000
    5.1102   -5.4484    0.0000 O   0  0  0  0  0  0  0  0  0  0  0  0
    5.8241   -4.9975    0.0000 O   0  0  0  0  0  0  0  0  0  0  0  0
    4.3963   -4.1708    0.0000 N   0  0  0  0  0  0  0  0  0  0  0  0
    3.6448   -3.7575    0.0000 N   0  0  0  0  0  0  0  0  0  0  0  0
    6.5381   -3.7575    0.0000 N   0  0  0  0  0  0  0  0  0  0  0  0
    0.7515   -5.4484    0.0000 N   0  0  0  0  0  0  0  0  0  0  0  0
    3.6448   -5.4484    0.0000 C   0  0  0  0  0  0  0  0  0  0  0  0
    2.9308   -5.0350    0.0000 C   0  0  0  0  0  0  0  0  0  0  0  0
    4.3587   -5.0350    0.0000 C   0  0  0  0  0  0  0  0  0  0  0  0
    2.9308   -4.1708    0.0000 C   0  0  0  0  0  0  0  0  0  0  0  0
    3.6824   -6.2374    0.0000 C   0  0  0  0  0  0  0  0  0  0  0  0
    2.2169   -5.4108    0.0000 C   0  0  0  0  0  0  0  0  0  0  0  0
    5.1102   -3.7575    0.0000 C   0  0  0  0  0  0  0  0  0  0  0  0
    2.2169   -3.7575    0.0000 C   0  0  0  0  0  0  0  0  0  0  0  0
    2.9308   -6.6884    0.0000 C   0  0  0  0  0  0  0  0  0  0  0  0
    5.8241   -4.1708    0.0000 C   0  0  0  0  0  0  0  0  0  0  0  0
    2.2169   -6.2750    0.0000 C   0  0  0  0  0  0  0  0  0  0  0  0
    1.4654   -4.1708    0.0000 C   0  0  0  0  0  0  0  0  0  0  0  0
    6.5381   -2.9308    0.0000 C   0  0  0  0  0  0  0  0  0  0  0  0
    7.2895   -4.1708    0.0000 C   0  0  0  0  0  0  0  0  0  0  0  0
    5.8241   -2.4800    0.0000 C   0  0  0  0  0  0  0  0  0  0  0  0
    7.2895   -2.4800    0.0000 C   0  0  0  0  0  0  0  0  0  0  0  0
    2.9308   -7.5150    0.0000 C   0  0  0  0  0  0  0  0  0  0  0  0
    1.4654   -5.0350    0.0000 C   0  0  0  0  0  0  0  0  0  0  0  0
    0.7515   -3.7951    0.0000 C   0  0  0  0  0  0  0  0  0  0  0  0
    6.5381   -1.2400    0.0000 C   0  0  0  0  0  0  0  0  0  0  0  0
    5.8241   -1.6908    0.0000 C   0  0  0  0  0  0  0  0  0  0  0  0
    7.2895   -1.6908    0.0000 C   0  0  0  0  0  0  0  0  0  0  0  0
    0.0376   -4.2084    0.0000 C   0  0  0  0  0  0  0  0  0  0  0  0
    0.0000   -5.0350    0.0000 C   0  0  0  0  0  0  0  0  0  0  0  0
    8.0035   -3.7575    0.0000 C   0  0  0  0  0  0  0  0  0  0  0  0
    6.5381   -0.4133    0.0000 C   0  0  0  0  0  0  0  0  0  0  0  0
    5.8241    0.0000    0.0000 C   0  0  0  0  0  0  0  0  0  0  0  0
  1  9  2  0  0  0  0
  2 16  2  0  0  0  0
  3  4  1  0  0  0  0
  3  9  1  0  0  0  0
  3 13  1  0  0  0  0
  4 10  2  0  0  0  0
  5 16  1  0  0  0  0
  5 19  1  0  0  0  0
  5 20  1  0  0  0  0
  6 24  1  0  0  0  0
  6 30  2  0  0  0  0
  7  8  2  0  0  0  0
  7  9  1  0  0  0  0
  7 11  1  0  0  0  0
  8 10  1  0  0  0  0
  8 12  1  0  0  0  0
 10 14  1  0  0  0  0
 11 15  2  0  0  0  0
 12 17  2  0  0  0  0
 13 16  1  0  0  0  0
 14 18  1  0  0  0  0
 15 17  1  0  0  0  0
 15 23  1  0  0  0  0
 18 24  2  0  0  0  0
 18 25  1  0  0  0  0
 19 21  2  0  0  0  0
 19 22  1  0  0  0  0
 20 31  1  0  0  0  0
 21 27  1  0  0  0  0
 22 28  2  0  0  0  0
 25 29  2  0  0  0  0
 26 27  2  0  0  0  0
 26 28  1  0  0  0  0
 26 32  1  0  0  0  0
 29 30  1  0  0  0  0
 32 33  1  0  0  0  0
M  END
> <PUBCHEM_COMPOUND_ID_TYPE>
0

> <PUBCHEM_TOTAL_CHARGE>
0

> <PUBCHEM_SUBSTANCE_ID>
310933448

> <PUBCHEM_SUBSTANCE_VERSION>
1

> <PUBCHEM_EXT_DATASOURCE_NAME>
4488

> <PUBCHEM_EXT_DATASOURCE_REGID>
SCHEMBL16110866

> <PUBCHEM_SUBSTANCE_COMMENT>
InChI=1S/C27H28N4O2/c1-4-20-9-11-22(12-10-20)30(5-2)26(32)18-31-27(33)24-15-19(3)8-13-23(24)25(29-31)16-21-7-6-14-28-17-21/h6-15,17H,4-5,16,18H2,1-3H3
InChIKey=FRXORJVDQUVAMA-UHFFFAOYSA-N

> <PUBCHEM_SUBSTANCE_SYNONYM>
SCHEMBL16110866

> <PUBCHEM_XREF_EXT_ID>
SCHEMBL16110866

> <PUBCHEM_EXT_DATASOURCE_URL>
https://www.surechembl.org/

> <PUBCHEM_EXT_SUBSTANCE_URL>
https://www.surechembl.org/chemical/SCHEMBL16110866

> <PUBCHEM_CID_ASSOCIATIONS>
117601848  1

> <PUBCHEM_COORDINATE_TYPE>
1
3

$$$$
