310948977
  -OEChem-07211613022D

 28 31  0     1  0  0  0  0  0999 V2000
    1.5806    3.1613    0.0000 F   0  0  0  0  0  0  0  0  0  0  0  0
    1.8644    2.0873    0.0000 F   0  0  0  0  0  0  0  0  0  0  0  0
    0.7700    1.8238    0.0000 F   0  0  0  0  0  0  0  0  0  0  0  0
    1.6617   -2.9790    0.0000 O   0  0  0  0  0  0  0  0  0  0  0  0
    1.0335   -4.1746    0.0000 O   0  0  0  0  0  0  0  0  0  0  0  0
   -0.3851   -0.8308    0.0000 N   0  0  0  0  0  0  0  0  0  0  0  0
   -1.1349   -2.0671    0.0000 N   0  0  0  0  0  0  0  0  0  0  0  0
   -0.7700    0.4661    0.0000 C   0  0  3  0  0  0  0  0  0  0  0  0
    0.0608    0.4459    0.0000 C   0  0  3  0  0  0  0  0  0  0  0  0
   -0.3040    1.7023    0.0000 C   0  0  0  0  0  0  0  0  0  0  0  0
   -0.3040    2.5736    0.0000 C   0  0  0  0  0  0  0  0  0  0  0  0
   -0.9930    1.2159    0.0000 C   0  0  0  0  0  0  0  0  0  0  0  0
    0.3243    1.1956    0.0000 C   0  0  0  0  0  0  0  0  0  0  0  0
   -1.0133   -0.3648    0.0000 C   0  0  0  0  0  0  0  0  0  0  0  0
    0.3040   -0.3445    0.0000 C   0  0  0  0  0  0  0  0  0  0  0  0
    0.4256    2.9384    0.0000 C   0  0  0  0  0  0  0  0  0  0  0  0
   -0.4256   -1.6617    0.0000 C   0  0  0  0  0  0  0  0  0  0  0  0
    1.1551    2.4926    0.0000 C   0  0  0  0  0  0  0  0  0  0  0  0
   -0.9728    2.9384    0.0000 C   0  0  0  0  0  0  0  0  0  0  0  0
    0.3243   -2.0671    0.0000 C   0  0  0  0  0  0  0  0  0  0  0  0
    0.3040   -2.8979    0.0000 C   0  0  0  0  0  0  0  0  0  0  0  0
    0.4459    3.7490    0.0000 C   0  0  0  0  0  0  0  0  0  0  0  0
   -1.1551   -2.8979    0.0000 C   0  0  0  0  0  0  0  0  0  0  0  0
   -0.4661   -3.3032    0.0000 C   0  0  0  0  0  0  0  0  0  0  0  0
   -0.9728    3.7895    0.0000 C   0  0  0  0  0  0  0  0  0  0  0  0
   -0.2432    4.1746    0.0000 C   0  0  0  0  0  0  0  0  0  0  0  0
    0.9930   -3.3438    0.0000 C   0  0  0  0  0  0  0  0  0  0  0  0
   -1.8644   -3.3032    0.0000 C   0  0  0  0  0  0  0  0  0  0  0  0
  1 18  1  0  0  0  0
  2 18  1  0  0  0  0
  3 18  1  0  0  0  0
  4 27  2  0  0  0  0
  5 27  1  0  0  0  0
  6 14  1  0  0  0  0
  6 15  1  0  0  0  0
  6 17  1  0  0  0  0
  7 17  2  0  0  0  0
  7 23  1  0  0  0  0
  8  9  1  0  0  0  0
  8 12  1  1  0  0  0
  8 14  1  0  0  0  0
  9 13  1  1  0  0  0
  9 15  1  0  0  0  0
 10 11  1  0  0  0  0
 10 12  1  1  0  0  0
 10 13  1  0  0  0  0
 11 16  2  0  0  0  0
 11 19  1  0  0  0  0
 16 18  1  0  0  0  0
 16 22  1  0  0  0  0
 17 20  1  0  0  0  0
 19 25  2  0  0  0  0
 20 21  2  0  0  0  0
 21 24  1  0  0  0  0
 21 27  1  0  0  0  0
 22 26  2  0  0  0  0
 23 24  2  0  0  0  0
 23 28  1  0  0  0  0
 25 26  1  0  0  0  0
M  END
> <PUBCHEM_COMPOUND_ID_TYPE>
0

> <PUBCHEM_TOTAL_CHARGE>
0

> <PUBCHEM_SUBSTANCE_ID>
310948977

> <PUBCHEM_SUBSTANCE_VERSION>
1

> <PUBCHEM_EXT_DATASOURCE_NAME>
4488

> <PUBCHEM_EXT_DATASOURCE_REGID>
SCHEMBL16127165

> <PUBCHEM_SUBSTANCE_COMMENT>
InChI=1S/C21H21F3N2O2/c1-12-6-14(20(27)28)9-19(25-12)26-10-15-7-13(8-16(15)11-26)17-4-2-3-5-18(17)21(22,23)24/h2-6,9,13,15-16H,7-8,10-11H2,1H3,(H,27,28)/t13-,15-,16+
InChIKey=ZCTCYPHNCAGBGR-MKZZRHPPSA-N

> <PUBCHEM_SUBSTANCE_SYNONYM>
SCHEMBL16127165

> <PUBCHEM_XREF_EXT_ID>
SCHEMBL16127165

> <PUBCHEM_EXT_DATASOURCE_URL>
https://www.surechembl.org/

> <PUBCHEM_EXT_SUBSTANCE_URL>
https://www.surechembl.org/chemical/SCHEMBL16127165

> <PUBCHEM_CID_ASSOCIATIONS>
117614486  1

> <PUBCHEM_COORDINATE_TYPE>
1
3

> <PUBCHEM_BONDANNOTATIONS>
10  12  5
8  12  5
9  13  5

$$$$
