310947469
  -OEChem-07211613022D

 13 14  0     0  0  0  0  0  0999 V2000
    2.7234    4.6315    0.0000 O   0  0  0  0  0  0  0  0  0  0  0  0
    3.1358    2.4883    0.0000 O   0  0  0  0  0  0  0  0  0  0  0  0
    5.4532    5.4162    0.0000 N   0  0  0  0  0  0  0  0  0  0  0  0
    4.3733    4.6315    0.0000 C   0  0  0  0  0  0  0  0  0  0  0  0
    3.9608    3.9172    0.0000 C   0  0  0  0  0  0  0  0  0  0  0  0
    5.1983    4.6315    0.0000 C   0  0  0  0  0  0  0  0  0  0  0  0
    3.1358    3.9172    0.0000 C   0  0  0  0  0  0  0  0  0  0  0  0
    4.1184    5.4162    0.0000 C   0  0  0  0  0  0  0  0  0  0  0  0
    4.3733    3.2027    0.0000 C   0  0  0  0  0  0  0  0  0  0  0  0
    5.6107    3.9172    0.0000 C   0  0  0  0  0  0  0  0  0  0  0  0
    4.7858    5.9011    0.0000 C   0  0  0  0  0  0  0  0  0  0  0  0
    5.1983    3.2027    0.0000 C   0  0  0  0  0  0  0  0  0  0  0  0
    2.7234    3.2027    0.0000 C   0  0  0  0  0  0  0  0  0  0  0  0
  1  7  2  0  0  0  0
  2 13  1  0  0  0  0
  3  6  1  0  0  0  0
  3 11  1  0  0  0  0
  4  5  1  0  0  0  0
  4  6  2  0  0  0  0
  4  8  1  0  0  0  0
  5  7  1  0  0  0  0
  5  9  2  0  0  0  0
  6 10  1  0  0  0  0
  7 13  1  0  0  0  0
  8 11  2  0  0  0  0
  9 12  1  0  0  0  0
 10 12  2  0  0  0  0
M  END
> <PUBCHEM_COMPOUND_ID_TYPE>
0

> <PUBCHEM_TOTAL_CHARGE>
0

> <PUBCHEM_SUBSTANCE_ID>
310947469

> <PUBCHEM_SUBSTANCE_VERSION>
1

> <PUBCHEM_EXT_DATASOURCE_NAME>
4488

> <PUBCHEM_EXT_DATASOURCE_REGID>
SCHEMBL16125630

> <PUBCHEM_SUBSTANCE_COMMENT>
InChI=1S/C10H9NO2/c12-6-10(13)8-2-1-3-9-7(8)4-5-11-9/h1-5,11-12H,6H2
InChIKey=QHXYJITVCDRQMM-UHFFFAOYSA-N

> <PUBCHEM_SUBSTANCE_SYNONYM>
SCHEMBL16125630

> <PUBCHEM_XREF_EXT_ID>
SCHEMBL16125630

> <PUBCHEM_EXT_DATASOURCE_URL>
https://www.surechembl.org/

> <PUBCHEM_EXT_SUBSTANCE_URL>
https://www.surechembl.org/chemical/SCHEMBL16125630

> <PUBCHEM_CID_ASSOCIATIONS>
117613200  1

> <PUBCHEM_COORDINATE_TYPE>
1
3

$$$$
