310941668
  -OEChem-07211613022D

 36 40  0     0  0  0  0  0  0999 V2000
   -3.7149   -0.9629    0.0000 F   0  0  0  0  0  0  0  0  0  0  0  0
    3.7149   -1.5365    0.0000 O   0  0  0  0  0  0  0  0  0  0  0  0
    0.2185   -2.8066    0.0000 O   0  0  0  0  0  0  0  0  0  0  0  0
    1.4067    0.1980    0.0000 O   0  0  0  0  0  0  0  0  0  0  0  0
    2.6086   -0.2800    0.0000 N   0  0  0  0  0  0  0  0  0  0  0  0
   -0.1092   -1.5638    0.0000 N   0  0  0  0  0  0  0  0  0  0  0  0
   -2.0213   -2.6700    0.0000 N   0  0  0  0  0  0  0  0  0  0  0  0
    0.9424    1.5638    0.0000 N   0  0  0  0  0  0  0  0  0  0  0  0
    2.3491   -1.0721    0.0000 C   0  0  0  0  0  0  0  0  0  0  0  0
    2.8954   -1.6730    0.0000 C   0  0  0  0  0  0  0  0  0  0  0  0
    1.2702   -2.0008    0.0000 C   0  0  0  0  0  0  0  0  0  0  0  0
    1.5433   -1.2360    0.0000 C   0  0  0  0  0  0  0  0  0  0  0  0
    0.4507   -2.1647    0.0000 C   0  0  0  0  0  0  0  0  0  0  0  0
    4.2748   -2.1511    0.0000 C   0  0  0  0  0  0  0  0  0  0  0  0
    2.6223   -2.4379    0.0000 C   0  0  0  0  0  0  0  0  0  0  0  0
    1.8164   -2.6291    0.0000 C   0  0  0  0  0  0  0  0  0  0  0  0
   -2.5812   -2.0282    0.0000 C   0  0  0  0  0  0  0  0  0  0  0  0
   -3.3870   -2.1920    0.0000 C   0  0  0  0  0  0  0  0  0  0  0  0
   -0.9287   -1.7140    0.0000 C   0  0  0  0  0  0  0  0  0  0  0  0
    4.3978   -2.8885    0.0000 C   0  0  0  0  0  0  0  0  0  0  0  0
    4.9987   -2.3696    0.0000 C   0  0  0  0  0  0  0  0  0  0  0  0
    2.0759    0.3620    0.0000 C   0  0  0  0  0  0  0  0  0  0  0  0
   -3.9470   -1.5911    0.0000 C   0  0  0  0  0  0  0  0  0  0  0  0
   -2.2808   -1.2497    0.0000 C   0  0  0  0  0  0  0  0  0  0  0  0
   -1.2018   -2.4925    0.0000 C   0  0  0  0  0  0  0  0  0  0  0  0
   -1.4750   -1.0858    0.0000 C   0  0  0  0  0  0  0  0  0  0  0  0
   -3.6466   -2.9841    0.0000 C   0  0  0  0  0  0  0  0  0  0  0  0
    2.3218    1.1541    0.0000 C   0  0  0  0  0  0  0  0  0  0  0  0
   -4.7528   -1.7550    0.0000 C   0  0  0  0  0  0  0  0  0  0  0  0
    1.7618    1.7550    0.0000 C   0  0  0  0  0  0  0  0  0  0  0  0
   -4.4660   -3.1481    0.0000 C   0  0  0  0  0  0  0  0  0  0  0  0
   -4.9987   -2.5608    0.0000 C   0  0  0  0  0  0  0  0  0  0  0  0
    2.0350    2.5471    0.0000 C   0  0  0  0  0  0  0  0  0  0  0  0
    0.3961    2.1920    0.0000 C   0  0  0  0  0  0  0  0  0  0  0  0
    1.4887    3.1481    0.0000 C   0  0  0  0  0  0  0  0  0  0  0  0
    0.6556    2.9841    0.0000 C   0  0  0  0  0  0  0  0  0  0  0  0
  1 23  1  0  0  0  0
  2 10  1  0  0  0  0
  2 14  1  0  0  0  0
  3 13  2  0  0  0  0
  4 22  2  0  0  0  0
  5  9  1  0  0  0  0
  5 22  1  0  0  0  0
  6 13  1  0  0  0  0
  6 19  1  0  0  0  0
  7 17  1  0  0  0  0
  7 25  2  0  0  0  0
  8 30  1  0  0  0  0
  8 34  2  0  0  0  0
  9 10  1  0  0  0  0
  9 12  2  0  0  0  0
 10 15  2  0  0  0  0
 11 12  1  0  0  0  0
 11 13  1  0  0  0  0
 11 16  2  0  0  0  0
 14 20  1  0  0  0  0
 14 21  1  0  0  0  0
 15 16  1  0  0  0  0
 17 18  1  0  0  0  0
 17 24  2  0  0  0  0
 18 23  2  0  0  0  0
 18 27  1  0  0  0  0
 19 25  1  0  0  0  0
 19 26  2  0  0  0  0
 20 21  1  0  0  0  0
 22 28  1  0  0  0  0
 23 29  1  0  0  0  0
 24 26  1  0  0  0  0
 27 31  2  0  0  0  0
 28 30  1  0  0  0  0
 29 32  2  0  0  0  0
 30 33  2  0  0  0  0
 31 32  1  0  0  0  0
 33 35  1  0  0  0  0
 34 36  1  0  0  0  0
 35 36  2  0  0  0  0
M  END
> <PUBCHEM_COMPOUND_ID_TYPE>
0

> <PUBCHEM_TOTAL_CHARGE>
0

> <PUBCHEM_SUBSTANCE_ID>
310941668

> <PUBCHEM_SUBSTANCE_VERSION>
1

> <PUBCHEM_EXT_DATASOURCE_NAME>
4488

> <PUBCHEM_EXT_DATASOURCE_REGID>
SCHEMBL16119699

> <PUBCHEM_SUBSTANCE_COMMENT>
InChI=1S/C28H23FN4O3/c29-23-7-2-1-6-22(23)24-12-9-20(17-31-24)32-28(35)18-8-13-26(36-21-10-11-21)25(15-18)33-27(34)16-19-5-3-4-14-30-19/h1-9,12-15,17,21H,10-11,16H2,(H,32,35)(H,33,34)
InChIKey=DUZAUOIWOXFULL-UHFFFAOYSA-N

> <PUBCHEM_SUBSTANCE_SYNONYM>
SCHEMBL16119699

> <PUBCHEM_XREF_EXT_ID>
SCHEMBL16119699

> <PUBCHEM_EXT_DATASOURCE_URL>
https://www.surechembl.org/

> <PUBCHEM_EXT_SUBSTANCE_URL>
https://www.surechembl.org/chemical/SCHEMBL16119699

> <PUBCHEM_CID_ASSOCIATIONS>
90460272  1

> <PUBCHEM_COORDINATE_TYPE>
1
3

$$$$
