310944238
  -OEChem-07211613022D

 12 12  0     0  0  0  0  0  0999 V2000
   -0.3445    2.0249    0.0000 F   0  0  0  0  0  0  0  0  0  0  0  0
    1.8351    1.5468    0.0000 N   0  0  0  0  0  0  0  0  0  0  0  0
   -0.3867   -2.0249    0.0000 N   0  0  0  0  0  0  0  0  0  0  0  0
    0.3586    0.8156    0.0000 C   0  0  0  0  0  0  0  0  0  0  0  0
   -0.3726   -0.3796    0.0000 C   0  0  0  0  0  0  0  0  0  0  0  0
   -0.3867    1.2234    0.0000 C   0  0  0  0  0  0  0  0  0  0  0  0
   -1.1179    0.0281    0.0000 C   0  0  0  0  0  0  0  0  0  0  0  0
    0.3445    0.0141    0.0000 C   0  0  0  0  0  0  0  0  0  0  0  0
   -1.0758    0.8297    0.0000 C   0  0  0  0  0  0  0  0  0  0  0  0
    1.1039    1.2093    0.0000 C   0  0  0  0  0  0  0  0  0  0  0  0
   -0.3867   -1.2093    0.0000 C   0  0  0  0  0  0  0  0  0  0  0  0
   -1.8351   -0.3796    0.0000 C   0  0  0  0  0  0  0  0  0  0  0  0
  1  6  1  0  0  0  0
  2 10  3  0  0  0  0
  3 11  3  0  0  0  0
  4  6  2  0  0  0  0
  4  8  1  0  0  0  0
  4 10  1  0  0  0  0
  5  7  1  0  0  0  0
  5  8  2  0  0  0  0
  5 11  1  0  0  0  0
  6  9  1  0  0  0  0
  7  9  2  0  0  0  0
  7 12  1  0  0  0  0
M  END
> <PUBCHEM_COMPOUND_ID_TYPE>
0

> <PUBCHEM_TOTAL_CHARGE>
0

> <PUBCHEM_SUBSTANCE_ID>
310944238

> <PUBCHEM_SUBSTANCE_VERSION>
1

> <PUBCHEM_EXT_DATASOURCE_NAME>
4488

> <PUBCHEM_EXT_DATASOURCE_REGID>
SCHEMBL16122313

> <PUBCHEM_SUBSTANCE_COMMENT>
InChI=1S/C9H5FN2/c1-6-2-9(10)8(5-12)3-7(6)4-11/h2-3H,1H3
InChIKey=MLVGBYVBYCSUJN-UHFFFAOYSA-N

> <PUBCHEM_SUBSTANCE_SYNONYM>
SCHEMBL16122313

> <PUBCHEM_XREF_EXT_ID>
SCHEMBL16122313

> <PUBCHEM_EXT_DATASOURCE_URL>
https://www.surechembl.org/

> <PUBCHEM_EXT_SUBSTANCE_URL>
https://www.surechembl.org/chemical/SCHEMBL16122313

> <PUBCHEM_CID_ASSOCIATIONS>
117610509  1

> <PUBCHEM_COORDINATE_TYPE>
1
3

$$$$
