310943690
  -OEChem-07211613022D

 36 40  0     0  0  0  0  0  0999 V2000
   -5.7148    1.4756    0.0000 O   0  0  0  0  0  0  0  0  0  0  0  0
    1.3615    1.4756    0.0000 O   0  0  0  0  0  0  0  0  0  0  0  0
   -2.8778   -0.9864    0.0000 N   0  0  0  0  0  0  0  0  0  0  0  0
   -4.2964    0.6603    0.0000 N   0  0  0  0  0  0  0  0  0  0  0  0
   -4.1986   -1.1332    0.0000 N   0  0  0  0  0  0  0  0  0  0  0  0
   -0.7581    1.8833    0.0000 N   0  0  0  0  0  0  0  0  0  0  0  0
    0.6604    0.2364    0.0000 N   0  0  0  0  0  0  0  0  0  0  0  0
    3.4812   -0.5788    0.0000 N   0  0  0  0  0  0  0  0  0  0  0  0
    5.7148   -0.1875    0.0000 N   0  0  0  0  0  0  0  0  0  0  0  0
   -3.5952   -0.5626    0.0000 C   0  0  0  0  0  0  0  0  0  0  0  0
   -3.5789    0.2527    0.0000 C   0  0  0  0  0  0  0  0  0  0  0  0
   -2.1767    0.2527    0.0000 C   0  0  0  0  0  0  0  0  0  0  0  0
   -1.4756    0.6603    0.0000 C   0  0  0  0  0  0  0  0  0  0  0  0
   -2.8778    0.6603    0.0000 C   0  0  0  0  0  0  0  0  0  0  0  0
   -2.1930   -0.5788    0.0000 C   0  0  0  0  0  0  0  0  0  0  0  0
   -1.4593    1.4756    0.0000 C   0  0  0  0  0  0  0  0  0  0  0  0
   -3.0572   -1.8017    0.0000 C   0  0  0  0  0  0  0  0  0  0  0  0
   -0.7419    0.2527    0.0000 C   0  0  0  0  0  0  0  0  0  0  0  0
   -0.0407    0.6603    0.0000 C   0  0  0  0  0  0  0  0  0  0  0  0
   -3.8561   -1.8833    0.0000 C   0  0  0  0  0  0  0  0  0  0  0  0
   -4.2964    1.4756    0.0000 C   0  0  0  0  0  0  0  0  0  0  0  0
   -4.9975    0.2527    0.0000 C   0  0  0  0  0  0  0  0  0  0  0  0
   -0.0407    1.4593    0.0000 C   0  0  0  0  0  0  0  0  0  0  0  0
    2.0789    0.2527    0.0000 C   0  0  0  0  0  0  0  0  0  0  0  0
    1.3615    0.6441    0.0000 C   0  0  0  0  0  0  0  0  0  0  0  0
    3.4974    0.2527    0.0000 C   0  0  0  0  0  0  0  0  0  0  0  0
    4.2311    0.6767    0.0000 C   0  0  0  0  0  0  0  0  0  0  0  0
    2.7800    0.6603    0.0000 C   0  0  0  0  0  0  0  0  0  0  0  0
   -2.1930    1.8833    0.0000 C   0  0  0  0  0  0  0  0  0  0  0  0
   -5.0301    1.8833    0.0000 C   0  0  0  0  0  0  0  0  0  0  0  0
   -5.7148    0.6603    0.0000 C   0  0  0  0  0  0  0  0  0  0  0  0
    2.0789   -0.5788    0.0000 C   0  0  0  0  0  0  0  0  0  0  0  0
    2.8289   -1.0027    0.0000 C   0  0  0  0  0  0  0  0  0  0  0  0
    4.9485    0.2364    0.0000 C   0  0  0  0  0  0  0  0  0  0  0  0
    4.2148    1.5408    0.0000 C   0  0  0  0  0  0  0  0  0  0  0  0
    4.9812    1.0843    0.0000 C   0  0  0  0  0  0  0  0  0  0  0  0
  1 30  1  0  0  0  0
  1 31  1  0  0  0  0
  2 25  2  0  0  0  0
  3 10  1  0  0  0  0
  3 15  1  0  0  0  0
  3 17  1  0  0  0  0
  4 11  1  0  0  0  0
  4 21  1  0  0  0  0
  4 22  1  0  0  0  0
  5 10  2  0  0  0  0
  5 20  1  0  0  0  0
  6 16  1  0  0  0  0
  6 23  2  0  0  0  0
  7 19  1  0  0  0  0
  7 25  1  0  0  0  0
  8 26  2  0  0  0  0
  8 33  1  0  0  0  0
  9 34  3  0  0  0  0
 10 11  1  0  0  0  0
 11 14  2  0  0  0  0
 12 13  1  0  0  0  0
 12 14  1  0  0  0  0
 12 15  2  0  0  0  0
 13 16  2  0  0  0  0
 13 18  1  0  0  0  0
 16 29  1  0  0  0  0
 17 20  2  0  0  0  0
 18 19  2  0  0  0  0
 19 23  1  0  0  0  0
 21 30  1  0  0  0  0
 22 31  1  0  0  0  0
 24 25  1  0  0  0  0
 24 28  2  0  0  0  0
 24 32  1  0  0  0  0
 26 27  1  0  0  0  0
 26 28  1  0  0  0  0
 27 34  1  0  0  0  0
 27 35  1  0  0  0  0
 27 36  1  0  0  0  0
 32 33  2  0  0  0  0
M  END
> <PUBCHEM_COMPOUND_ID_TYPE>
0

> <PUBCHEM_TOTAL_CHARGE>
0

> <PUBCHEM_SUBSTANCE_ID>
310943690

> <PUBCHEM_SUBSTANCE_VERSION>
1

> <PUBCHEM_EXT_DATASOURCE_NAME>
4488

> <PUBCHEM_EXT_DATASOURCE_REGID>
SCHEMBL16121758

> <PUBCHEM_SUBSTANCE_COMMENT>
InChI=1S/C27H27N7O2/c1-18-22(20-12-23(33-8-10-36-11-9-33)25-30-6-7-34(25)16-20)14-21(15-31-18)32-26(35)19-4-5-29-24(13-19)27(2,3)17-28/h4-7,12-16H,8-11H2,1-3H3,(H,32,35)
InChIKey=JZCQCFGBDILLDH-UHFFFAOYSA-N

> <PUBCHEM_SUBSTANCE_SYNONYM>
SCHEMBL16121758

> <PUBCHEM_XREF_EXT_ID>
SCHEMBL16121758

> <PUBCHEM_EXT_DATASOURCE_URL>
https://www.surechembl.org/

> <PUBCHEM_EXT_SUBSTANCE_URL>
https://www.surechembl.org/chemical/SCHEMBL16121758

> <PUBCHEM_CID_ASSOCIATIONS>
117610077  1

> <PUBCHEM_COORDINATE_TYPE>
1
3

$$$$
