310935143
  -OEChem-07211613022D

 13 14  0     0  0  0  0  0  0999 V2000
    3.9060   -3.1248    0.0000 Br  0  0  0  0  0  0  0  0  0  0  0  0
    0.7187    0.0000    0.0000 O   0  0  0  0  0  0  0  0  0  0  0  0
    0.0000   -1.2499    0.0000 O   0  0  0  0  0  0  0  0  0  0  0  0
    2.8591   -1.2499    0.0000 N   0  0  0  0  0  0  0  0  0  0  0  0
    2.1248   -2.4998    0.0000 N   0  0  0  0  0  0  0  0  0  0  0  0
    3.6403   -1.0155    0.0000 N   0  0  0  0  0  0  0  0  0  0  0  0
    2.8591   -2.1093    0.0000 C   0  0  0  0  0  0  0  0  0  0  0  0
    3.6403   -2.3435    0.0000 C   0  0  0  0  0  0  0  0  0  0  0  0
    1.4217   -1.2499    0.0000 C   0  0  0  0  0  0  0  0  0  0  0  0
    2.1248   -0.8437    0.0000 C   0  0  0  0  0  0  0  0  0  0  0  0
    4.1403   -1.6718    0.0000 C   0  0  0  0  0  0  0  0  0  0  0  0
    1.4217   -2.1093    0.0000 C   0  0  0  0  0  0  0  0  0  0  0  0
    0.7187   -0.8281    0.0000 C   0  0  0  0  0  0  0  0  0  0  0  0
  1  8  1  0  0  0  0
  2 13  2  0  0  0  0
  3 13  1  0  0  0  0
  4  6  1  0  0  0  0
  4  7  1  0  0  0  0
  4 10  1  0  0  0  0
  5  7  1  0  0  0  0
  5 12  2  0  0  0  0
  6 11  2  0  0  0  0
  7  8  2  0  0  0  0
  8 11  1  0  0  0  0
  9 10  2  0  0  0  0
  9 12  1  0  0  0  0
  9 13  1  0  0  0  0
M  END
> <PUBCHEM_COMPOUND_ID_TYPE>
0

> <PUBCHEM_TOTAL_CHARGE>
0

> <PUBCHEM_SUBSTANCE_ID>
310935143

> <PUBCHEM_SUBSTANCE_VERSION>
1

> <PUBCHEM_EXT_DATASOURCE_NAME>
4488

> <PUBCHEM_EXT_DATASOURCE_REGID>
SCHEMBL16112670

> <PUBCHEM_SUBSTANCE_COMMENT>
InChI=1S/C7H4BrN3O2/c8-5-2-10-11-3-4(7(12)13)1-9-6(5)11/h1-3H,(H,12,13)
InChIKey=GBQGTCYTOSPGPY-UHFFFAOYSA-N

> <PUBCHEM_SUBSTANCE_SYNONYM>
SCHEMBL16112670

> <PUBCHEM_XREF_EXT_ID>
SCHEMBL16112670

> <PUBCHEM_EXT_DATASOURCE_URL>
https://www.surechembl.org/

> <PUBCHEM_EXT_SUBSTANCE_URL>
https://www.surechembl.org/chemical/SCHEMBL16112670

> <PUBCHEM_CID_ASSOCIATIONS>
72207648  1

> <PUBCHEM_COORDINATE_TYPE>
1
3

$$$$
