310937547
  -OEChem-07211613022D

 28 31  0     1  0  0  0  0  0999 V2000
    3.7402   -1.6658    0.0000 O   0  0  0  0  0  0  0  0  0  0  0  0
    2.3258   -4.4002    0.0000 O   0  0  0  0  0  0  0  0  0  0  0  0
    1.4144   -3.7402    0.0000 O   0  0  0  0  0  0  0  0  0  0  0  0
    0.0000   -3.7402    0.0000 O   0  0  0  0  0  0  0  0  0  0  0  0
    5.0288   -1.9801    0.0000 N   0  0  0  0  0  0  0  0  0  0  0  0
    4.6831   -3.6459    0.0000 N   0  0  0  0  0  0  0  0  0  0  0  0
    4.1802   -0.9429    0.0000 N   0  0  0  0  0  0  0  0  0  0  0  0
    0.6914   -4.9974    0.0000 N   0  0  0  0  0  0  0  0  0  0  0  0
    3.7402   -4.6831    0.0000 C   0  0  0  0  0  0  0  0  0  0  0  0
    4.0859   -3.1116    0.0000 C   0  0  0  0  0  0  0  0  0  0  0  0
    3.1116   -4.1488    0.0000 C   0  0  0  0  0  0  0  0  0  0  0  0
    4.2745   -2.2944    0.0000 C   0  0  0  0  0  0  0  0  0  0  0  0
    3.5202   -5.5003    0.0000 C   0  0  0  0  0  0  0  0  0  0  0  0
    4.9660   -1.1315    0.0000 C   0  0  0  0  0  0  0  0  0  0  0  0
    3.2687   -3.3316    0.0000 C   0  0  0  0  0  0  0  0  0  0  0  0
    4.5259   -4.4631    0.0000 C   0  0  0  0  0  0  0  0  0  0  0  0
    5.5946   -0.6286    0.0000 C   0  0  0  0  0  0  0  0  0  0  0  0
    3.7716   -6.2860    0.0000 C   0  0  0  0  0  0  0  0  0  0  0  0
    2.9544   -6.1289    0.0000 C   0  0  0  0  0  0  0  0  0  0  0  0
    1.3829   -5.4689    0.0000 C   0  0  3  0  0  0  0  0  0  0  0  0
    2.1687   -5.2174    0.0000 C   0  0  0  0  0  0  0  0  0  0  0  0
    1.1001   -6.2546    0.0000 C   0  0  0  0  0  0  0  0  0  0  0  0
    0.0314   -5.4689    0.0000 C   0  0  0  0  0  0  0  0  0  0  0  0
    0.6914   -4.1488    0.0000 C   0  0  0  0  0  0  0  0  0  0  0  0
    0.2829   -6.2546    0.0000 C   0  0  0  0  0  0  0  0  0  0  0  0
    6.1289   -1.2572    0.0000 C   0  0  0  0  0  0  0  0  0  0  0  0
    6.2232   -0.0943    0.0000 C   0  0  0  0  0  0  0  0  0  0  0  0
    5.0603    0.0000    0.0000 C   0  0  0  0  0  0  0  0  0  0  0  0
  1  7  1  0  0  0  0
  1 12  1  0  0  0  0
  2 11  1  0  0  0  0
  2 21  1  0  0  0  0
  3 24  2  0  0  0  0
  4 24  1  0  0  0  0
  5 12  2  0  0  0  0
  5 14  1  0  0  0  0
  6 10  1  0  0  0  0
  6 16  2  0  0  0  0
  7 14  2  0  0  0  0
  8 20  1  0  0  0  0
  8 23  1  0  0  0  0
  8 24  1  0  0  0  0
  9 11  2  0  0  0  0
  9 13  1  0  0  0  0
  9 16  1  0  0  0  0
 10 12  1  0  0  0  0
 10 15  2  0  0  0  0
 11 15  1  0  0  0  0
 13 18  1  0  0  0  0
 13 19  1  0  0  0  0
 14 17  1  0  0  0  0
 17 26  1  0  0  0  0
 17 27  1  0  0  0  0
 17 28  1  0  0  0  0
 18 19  1  0  0  0  0
 20 21  1  6  0  0  0
 20 22  1  0  0  0  0
 22 25  1  0  0  0  0
 23 25  1  0  0  0  0
M  END
> <PUBCHEM_COMPOUND_ID_TYPE>
0

> <PUBCHEM_TOTAL_CHARGE>
0

> <PUBCHEM_SUBSTANCE_ID>
310937547

> <PUBCHEM_SUBSTANCE_VERSION>
1

> <PUBCHEM_EXT_DATASOURCE_NAME>
4488

> <PUBCHEM_EXT_DATASOURCE_REGID>
SCHEMBL16115324

> <PUBCHEM_SUBSTANCE_COMMENT>
InChI=1S/C20H26N4O4/c1-20(2,3)18-22-17(28-23-18)15-9-16(14(10-21-15)12-6-7-12)27-11-13-5-4-8-24(13)19(25)26/h9-10,12-13H,4-8,11H2,1-3H3,(H,25,26)/t13-/m0/s1
InChIKey=GVTHHYRFYVGICG-ZDUSSCGKSA-N

> <PUBCHEM_SUBSTANCE_SYNONYM>
SCHEMBL16115324

> <PUBCHEM_XREF_EXT_ID>
SCHEMBL16115324

> <PUBCHEM_EXT_DATASOURCE_URL>
https://www.surechembl.org/

> <PUBCHEM_EXT_SUBSTANCE_URL>
https://www.surechembl.org/chemical/SCHEMBL16115324

> <PUBCHEM_CID_ASSOCIATIONS>
117605266  1

> <PUBCHEM_COORDINATE_TYPE>
1
3

> <PUBCHEM_BONDANNOTATIONS>
20  21  6

$$$$
