310943853
  -OEChem-07211613022D

 19 20  0     0  0  0  0  0  0999 V2000
    0.0211    2.5775    0.0000 O   0  0  0  0  0  0  0  0  0  0  0  0
    1.4618    2.4786    0.0000 O   0  0  0  0  0  0  0  0  0  0  0  0
   -0.0495    1.0239    0.0000 N   0  0  0  0  0  0  0  0  0  0  0  0
    0.7415    1.2499    0.0000 N   0  0  0  0  0  0  0  0  0  0  0  0
   -0.0635   -1.5324    0.0000 C   0  0  0  0  0  0  0  0  0  0  0  0
    0.6285   -1.1087    0.0000 C   0  0  0  0  0  0  0  0  0  0  0  0
   -0.7697   -1.0945    0.0000 C   0  0  0  0  0  0  0  0  0  0  0  0
   -0.0495    0.1765    0.0000 C   0  0  0  0  0  0  0  0  0  0  0  0
    0.5861   -2.0266    0.0000 C   0  0  0  0  0  0  0  0  0  0  0  0
   -0.7132   -2.0408    0.0000 C   0  0  0  0  0  0  0  0  0  0  0  0
   -0.7697   -0.2472    0.0000 C   0  0  0  0  0  0  0  0  0  0  0  0
    0.6285   -0.2472    0.0000 C   0  0  0  0  0  0  0  0  0  0  0  0
    0.3319   -2.8458    0.0000 C   0  0  0  0  0  0  0  0  0  0  0  0
   -0.4590   -2.8458    0.0000 C   0  0  0  0  0  0  0  0  0  0  0  0
    0.7415    2.1114    0.0000 C   0  0  0  0  0  0  0  0  0  0  0  0
   -0.7556    2.1962    0.0000 C   0  0  0  0  0  0  0  0  0  0  0  0
   -1.1228    2.8458    0.0000 C   0  0  0  0  0  0  0  0  0  0  0  0
   -0.3742    1.5182    0.0000 C   0  0  0  0  0  0  0  0  0  0  0  0
   -1.4618    1.8148    0.0000 C   0  0  0  0  0  0  0  0  0  0  0  0
  1 15  1  0  0  0  0
  1 16  1  0  0  0  0
  2 15  2  0  0  0  0
  3  4  1  0  0  0  0
  3  8  2  0  0  0  0
  4 15  1  0  0  0  0
  5  6  1  0  0  0  0
  5  7  1  0  0  0  0
  5  9  1  0  0  0  0
  5 10  1  0  0  0  0
  6 12  1  0  0  0  0
  7 11  1  0  0  0  0
  8 11  1  0  0  0  0
  8 12  1  0  0  0  0
  9 13  1  0  0  0  0
 10 14  1  0  0  0  0
 13 14  1  0  0  0  0
 16 17  1  0  0  0  0
 16 18  1  0  0  0  0
 16 19  1  0  0  0  0
M  END
> <PUBCHEM_COMPOUND_ID_TYPE>
0

> <PUBCHEM_TOTAL_CHARGE>
0

> <PUBCHEM_SUBSTANCE_ID>
310943853

> <PUBCHEM_SUBSTANCE_VERSION>
1

> <PUBCHEM_EXT_DATASOURCE_NAME>
4488

> <PUBCHEM_EXT_DATASOURCE_REGID>
SCHEMBL16121924

> <PUBCHEM_SUBSTANCE_COMMENT>
InChI=1S/C15H26N2O2/c1-14(2,3)19-13(18)17-16-12-6-10-15(11-7-12)8-4-5-9-15/h4-11H2,1-3H3,(H,17,18)
InChIKey=ADMUTCVKMVMXJM-UHFFFAOYSA-N

> <PUBCHEM_SUBSTANCE_SYNONYM>
SCHEMBL16121924

> <PUBCHEM_XREF_EXT_ID>
SCHEMBL16121924

> <PUBCHEM_EXT_DATASOURCE_URL>
https://www.surechembl.org/

> <PUBCHEM_EXT_SUBSTANCE_URL>
https://www.surechembl.org/chemical/SCHEMBL16121924

> <PUBCHEM_CID_ASSOCIATIONS>
117610189  1

> <PUBCHEM_COORDINATE_TYPE>
1
3

$$$$
