310942520
  -OEChem-07211613022D

 50 54  0     1  0  0  0  0  0999 V2000
    0.8838    3.6897    0.0000 F   0  0  0  0  0  0  0  0  0  0  0  0
   -0.2946   -2.9533    0.0000 F   0  0  0  0  0  0  0  0  0  0  0  0
   -2.4304    3.3362    0.0000 F   0  0  0  0  0  0  0  0  0  0  0  0
   -0.8249    0.8911    0.0000 O   0  0  0  0  0  0  0  0  0  0  0  0
    2.7839   -1.1710    0.0000 O   0  0  0  0  0  0  0  0  0  0  0  0
   -3.9770   -2.8649    0.0000 O   0  0  0  0  0  0  0  0  0  0  0  0
   -4.0506   -1.4066    0.0000 O   0  0  0  0  0  0  0  0  0  0  0  0
   -1.5466    1.3036    0.0000 O   0  0  0  0  0  0  0  0  0  0  0  0
   -2.9754    2.1284    0.0000 O   0  0  0  0  0  0  0  0  0  0  0  0
    1.2815    1.3920    0.0000 N   0  0  0  0  0  0  0  0  0  0  0  0
   -0.1031   -0.3314    0.0000 N   0  0  0  0  0  0  0  0  0  0  0  0
   -0.0589    1.3920    0.0000 N   0  0  0  0  0  0  0  0  0  0  0  0
   -2.1505   -1.8486    0.0000 N   0  0  0  0  0  0  0  0  0  0  0  0
   -1.5466   -0.3314    0.0000 N   0  0  0  0  0  0  0  0  0  0  0  0
    0.6186    0.9059    0.0000 C   0  0  0  0  0  0  0  0  0  0  0  0
    0.6039    0.0810    0.0000 C   0  0  3  0  0  0  0  0  0  0  0  0
    0.2062    2.1873    0.0000 C   0  0  0  0  0  0  0  0  0  0  0  0
    1.3404   -0.3314    0.0000 C   0  0  0  0  0  0  0  0  0  0  0  0
    1.0458    2.1578    0.0000 C   0  0  0  0  0  0  0  0  0  0  0  0
   -0.2946    2.8502    0.0000 C   0  0  0  0  0  0  0  0  0  0  0  0
   -0.1178   -1.1710    0.0000 C   0  0  0  0  0  0  0  0  0  0  0  0
   -0.8249    0.0663    0.0000 C   0  0  0  0  0  0  0  0  0  0  0  0
   -0.8249   -1.5687    0.0000 C   0  0  3  0  0  0  0  0  0  0  0  0
    2.0768    1.1416    0.0000 C   0  0  0  0  0  0  0  0  0  0  0  0
    0.0442    3.6161    0.0000 C   0  0  0  0  0  0  0  0  0  0  0  0
   -0.9132   -2.3935    0.0000 C   0  0  3  0  0  0  0  0  0  0  0  0
    1.3404   -1.1563    0.0000 C   0  0  0  0  0  0  0  0  0  0  0  0
    2.0474    0.0810    0.0000 C   0  0  0  0  0  0  0  0  0  0  0  0
   -1.1195    2.7765    0.0000 C   0  0  0  0  0  0  0  0  0  0  0  0
   -1.5761   -1.2446    0.0000 C   0  0  0  0  0  0  0  0  0  0  0  0
    2.6955    1.6866    0.0000 C   0  0  0  0  0  0  0  0  0  0  0  0
   -1.7381   -2.5556    0.0000 C   0  0  0  0  0  0  0  0  0  0  0  0
   -1.6202    3.4393    0.0000 C   0  0  0  0  0  0  0  0  0  0  0  0
   -0.4419    4.2642    0.0000 C   0  0  0  0  0  0  0  0  0  0  0  0
   -3.6087   -2.0695    0.0000 C   0  0  0  0  0  0  0  0  0  0  0  0
    2.7691   -0.3314    0.0000 C   0  0  0  0  0  0  0  0  0  0  0  0
    2.0622   -1.5687    0.0000 C   0  0  0  0  0  0  0  0  0  0  0  0
   -1.2521    4.1759    0.0000 C   0  0  0  0  0  0  0  0  0  0  0  0
    3.4762    1.4361    0.0000 C   0  0  0  0  0  0  0  0  0  0  0  0
    2.5335    2.4819    0.0000 C   0  0  0  0  0  0  0  0  0  0  0  0
   -2.2536    0.0810    0.0000 C   0  0  0  0  0  0  0  0  0  0  0  0
   -3.5204   -3.5719    0.0000 C   0  0  0  0  0  0  0  0  0  0  0  0
    4.0948    1.9958    0.0000 C   0  0  0  0  0  0  0  0  0  0  0  0
    3.1374    3.0416    0.0000 C   0  0  0  0  0  0  0  0  0  0  0  0
   -2.2536    0.9059    0.0000 C   0  0  3  0  0  0  0  0  0  0  0  0
    3.9328    2.8060    0.0000 C   0  0  0  0  0  0  0  0  0  0  0  0
   -4.0948   -4.0433    0.0000 C   0  0  0  0  0  0  0  0  0  0  0  0
   -2.8723   -3.1153    0.0000 C   0  0  0  0  0  0  0  0  0  0  0  0
   -3.0196   -4.2642    0.0000 C   0  0  0  0  0  0  0  0  0  0  0  0
   -2.9754    1.3183    0.0000 C   0  0  0  0  0  0  0  0  0  0  0  0
  1 25  1  0  0  0  0
 26  2  1  1  0  0  0
  3 33  1  0  0  0  0
  4 22  2  0  0  0  0
  5 36  1  0  0  0  0
  5 37  1  0  0  0  0
  6 35  1  0  0  0  0
  6 42  1  0  0  0  0
  7 35  2  0  0  0  0
 45  8  1  6  0  0  0
  9 50  1  0  0  0  0
 10 15  1  0  0  0  0
 10 19  1  0  0  0  0
 10 24  1  0  0  0  0
 16 11  1  1  0  0  0
 11 21  1  0  0  0  0
 11 22  1  0  0  0  0
 12 15  2  0  0  0  0
 12 17  1  0  0  0  0
 13 30  1  0  0  0  0
 13 32  1  0  0  0  0
 13 35  1  0  0  0  0
 14 22  1  0  0  0  0
 14 41  1  0  0  0  0
 15 16  1  0  0  0  0
 16 18  1  0  0  0  0
 17 19  2  0  0  0  0
 17 20  1  0  0  0  0
 18 27  1  0  0  0  0
 18 28  1  0  0  0  0
 20 25  2  0  0  0  0
 20 29  1  0  0  0  0
 23 21  1  1  0  0  0
 23 26  1  0  0  0  0
 23 30  1  0  0  0  0
 24 31  1  0  0  0  0
 25 34  1  0  0  0  0
 26 32  1  0  0  0  0
 27 37  1  0  0  0  0
 28 36  1  0  0  0  0
 29 33  2  0  0  0  0
 31 39  2  0  0  0  0
 31 40  1  0  0  0  0
 33 38  1  0  0  0  0
 34 38  2  0  0  0  0
 39 43  1  0  0  0  0
 40 44  2  0  0  0  0
 41 45  1  0  0  0  0
 42 47  1  0  0  0  0
 42 48  1  0  0  0  0
 42 49  1  0  0  0  0
 43 46  2  0  0  0  0
 44 46  1  0  0  0  0
 45 50  1  0  0  0  0
M  END
> <PUBCHEM_COMPOUND_ID_TYPE>
0

> <PUBCHEM_TOTAL_CHARGE>
0

> <PUBCHEM_SUBSTANCE_ID>
310942520

> <PUBCHEM_SUBSTANCE_VERSION>
1

> <PUBCHEM_EXT_DATASOURCE_NAME>
4488

> <PUBCHEM_EXT_DATASOURCE_REGID>
SCHEMBL16120556

> <PUBCHEM_SUBSTANCE_COMMENT>
InChI=1S/C36H46F3N5O6/c1-36(2,3)50-35(48)43-18-25(30(39)20-43)19-44(34(47)40-16-27(46)22-45)32(24-11-13-49-14-12-24)33-41-31(28-15-26(37)9-10-29(28)38)21-42(33)17-23-7-5-4-6-8-23/h4-10,15,21,24-25,27,30,32,45-46H,11-14,16-20,22H2,1-3H3,(H,40,47)/t25-,27+,30-,32+/m0/s1
InChIKey=BAPMODHRYTUYJC-NMNPAGSMSA-N

> <PUBCHEM_SUBSTANCE_SYNONYM>
SCHEMBL16120556

> <PUBCHEM_XREF_EXT_ID>
SCHEMBL16120556

> <PUBCHEM_EXT_DATASOURCE_URL>
https://www.surechembl.org/

> <PUBCHEM_EXT_SUBSTANCE_URL>
https://www.surechembl.org/chemical/SCHEMBL16120556

> <PUBCHEM_CID_ASSOCIATIONS>
117609083  1

> <PUBCHEM_COORDINATE_TYPE>
1
3

> <PUBCHEM_BONDANNOTATIONS>
16  11  5
26  2  5
23  21  5
45  8  6

$$$$
