310944909
  -OEChem-07211613022D

 32 35  0     0  0  0  0  0  0999 V2000
    2.8913   -1.8407    0.0000 O   0  0  0  0  0  0  0  0  0  0  0  0
    3.6206   -0.5904    0.0000 O   0  0  0  0  0  0  0  0  0  0  0  0
   -2.2314   -2.3095    0.0000 N   0  0  0  0  0  0  0  0  0  0  0  0
   -2.4919   -3.1083    0.0000 N   0  0  0  0  0  0  0  0  0  0  0  0
   -1.4673    0.6599    0.0000 C   0  0  0  0  0  0  0  0  0  0  0  0
   -2.1793    0.2431    0.0000 C   0  0  0  0  0  0  0  0  0  0  0  0
   -1.4500    1.4934    0.0000 C   0  0  0  0  0  0  0  0  0  0  0  0
   -0.7206    0.2431    0.0000 C   0  0  0  0  0  0  0  0  0  0  0  0
   -2.9086   -1.0072    0.0000 C   0  0  0  0  0  0  0  0  0  0  0  0
   -2.1966   -0.6077    0.0000 C   0  0  0  0  0  0  0  0  0  0  0  0
   -0.7380    1.8928    0.0000 C   0  0  0  0  0  0  0  0  0  0  0  0
   -2.9086    0.6251    0.0000 C   0  0  0  0  0  0  0  0  0  0  0  0
   -2.9260   -1.8580    0.0000 C   0  0  0  0  0  0  0  0  0  0  0  0
   -0.7206   -0.6077    0.0000 C   0  0  0  0  0  0  0  0  0  0  0  0
   -0.0087    0.6251    0.0000 C   0  0  0  0  0  0  0  0  0  0  0  0
   -3.6206   -0.6077    0.0000 C   0  0  0  0  0  0  0  0  0  0  0  0
   -2.1793    1.8928    0.0000 C   0  0  0  0  0  0  0  0  0  0  0  0
   -3.6032    0.2431    0.0000 C   0  0  0  0  0  0  0  0  0  0  0  0
    0.7033   -0.5904    0.0000 C   0  0  0  0  0  0  0  0  0  0  0  0
    0.0260   -1.0072    0.0000 C   0  0  0  0  0  0  0  0  0  0  0  0
    0.7033    0.2257    0.0000 C   0  0  0  0  0  0  0  0  0  0  0  0
    0.0260    1.4934    0.0000 C   0  0  0  0  0  0  0  0  0  0  0  0
   -0.7033    2.7436    0.0000 C   0  0  0  0  0  0  0  0  0  0  0  0
   -3.5685   -2.3443    0.0000 C   0  0  0  0  0  0  0  0  0  0  0  0
   -3.3253   -3.1257    0.0000 C   0  0  0  0  0  0  0  0  0  0  0  0
    0.7033    1.8928    0.0000 C   0  0  0  0  0  0  0  0  0  0  0  0
   -0.0087    3.1257    0.0000 C   0  0  0  0  0  0  0  0  0  0  0  0
    1.4673   -1.0072    0.0000 C   0  0  0  0  0  0  0  0  0  0  0  0
   -2.1966    2.7436    0.0000 C   0  0  0  0  0  0  0  0  0  0  0  0
    0.7033    2.7263    0.0000 C   0  0  0  0  0  0  0  0  0  0  0  0
    2.1446   -0.6077    0.0000 C   0  0  0  0  0  0  0  0  0  0  0  0
    2.8913   -0.9898    0.0000 C   0  0  0  0  0  0  0  0  0  0  0  0
  1 32  2  0  0  0  0
  2 32  1  0  0  0  0
  3  4  1  0  0  0  0
  3 13  1  0  0  0  0
  4 25  2  0  0  0  0
  5  6  1  0  0  0  0
  5  7  2  0  0  0  0
  5  8  1  0  0  0  0
  6 10  1  0  0  0  0
  6 12  2  0  0  0  0
  7 11  1  0  0  0  0
  7 17  1  0  0  0  0
  8 14  2  0  0  0  0
  8 15  1  0  0  0  0
  9 10  2  0  0  0  0
  9 13  1  0  0  0  0
  9 16  1  0  0  0  0
 11 22  2  0  0  0  0
 11 23  1  0  0  0  0
 12 18  1  0  0  0  0
 13 24  2  0  0  0  0
 14 20  1  0  0  0  0
 15 21  2  0  0  0  0
 16 18  2  0  0  0  0
 17 29  1  0  0  0  0
 19 20  2  0  0  0  0
 19 21  1  0  0  0  0
 19 28  1  0  0  0  0
 22 26  1  0  0  0  0
 23 27  2  0  0  0  0
 24 25  1  0  0  0  0
 26 30  2  0  0  0  0
 27 30  1  0  0  0  0
 28 31  2  0  0  0  0
 31 32  1  0  0  0  0
M  END
> <PUBCHEM_COMPOUND_ID_TYPE>
0

> <PUBCHEM_TOTAL_CHARGE>
0

> <PUBCHEM_SUBSTANCE_ID>
310944909

> <PUBCHEM_SUBSTANCE_VERSION>
1

> <PUBCHEM_EXT_DATASOURCE_NAME>
4488

> <PUBCHEM_EXT_DATASOURCE_REGID>
SCHEMBL16122994

> <PUBCHEM_SUBSTANCE_COMMENT>
InChI=1S/C28H24N2O2/c1-2-25(21-7-4-3-5-8-21)28(22-14-11-20(12-15-22)13-16-27(31)32)24-10-6-9-23(19-24)26-17-18-29-30-26/h3-19H,2H2,1H3,(H,29,30)(H,31,32)/b16-13+,28-25+
InChIKey=QVJUKKCJDKSFKO-MYTHIZCESA-N

> <PUBCHEM_SUBSTANCE_SYNONYM>
SCHEMBL16122994

> <PUBCHEM_XREF_EXT_ID>
SCHEMBL16122994

> <PUBCHEM_EXT_DATASOURCE_URL>
https://www.surechembl.org/

> <PUBCHEM_EXT_SUBSTANCE_URL>
https://www.surechembl.org/chemical/SCHEMBL16122994

> <PUBCHEM_CID_ASSOCIATIONS>
86271088  1

> <PUBCHEM_COORDINATE_TYPE>
1
3

$$$$
