310943784
  -OEChem-07211613022D

 16 17  0     0  0  0  0  0  0999 V2000
    2.1847   -0.9290    0.0000 O   0  0  0  0  0  0  0  0  0  0  0  0
    2.3874   -0.2084    0.0000 O   0  0  0  0  0  0  0  0  0  0  0  0
   -1.3852    0.0057    0.0000 N   0  0  0  0  0  0  0  0  0  0  0  0
   -0.2590    0.8840    0.0000 N   0  0  0  0  0  0  0  0  0  0  0  0
   -1.9482    0.6025    0.0000 N   0  0  0  0  0  0  0  0  0  0  0  0
   -2.6915    0.2421    0.0000 N   0  0  0  0  0  0  0  0  0  0  0  0
   -2.5789   -0.5800    0.0000 N   0  0  0  0  0  0  0  0  0  0  0  0
   -0.5631    0.1070    0.0000 C   0  0  0  0  0  0  0  0  0  0  0  0
    0.7432   -0.4223    0.0000 C   0  0  0  0  0  0  0  0  0  0  0  0
    1.0585    0.3435    0.0000 C   0  0  0  0  0  0  0  0  0  0  0  0
   -0.0676   -0.5349    0.0000 C   0  0  0  0  0  0  0  0  0  0  0  0
    0.5631    0.9854    0.0000 C   0  0  0  0  0  0  0  0  0  0  0  0
   -1.7680   -0.7263    0.0000 C   0  0  0  0  0  0  0  0  0  0  0  0
    1.3513   -0.9854    0.0000 C   0  0  0  0  0  0  0  0  0  0  0  0
    2.1172    0.4786    0.0000 C   0  0  0  0  0  0  0  0  0  0  0  0
    2.6915    0.5461    0.0000 C   0  0  0  0  0  0  0  0  0  0  0  0
  1 14  1  0  0  0  0
  2 16  1  0  0  0  0
  3  5  1  0  0  0  0
  3  8  1  0  0  0  0
  3 13  1  0  0  0  0
  4  8  2  0  0  0  0
  4 12  1  0  0  0  0
  5  6  2  0  0  0  0
  6  7  1  0  0  0  0
  7 13  2  0  0  0  0
  8 11  1  0  0  0  0
  9 10  1  0  0  0  0
  9 11  2  0  0  0  0
  9 14  1  0  0  0  0
 10 12  2  0  0  0  0
 10 15  1  0  0  0  0
 15 16  1  0  0  0  0
M  END
> <PUBCHEM_COMPOUND_ID_TYPE>
0

> <PUBCHEM_TOTAL_CHARGE>
0

> <PUBCHEM_SUBSTANCE_ID>
310943784

> <PUBCHEM_SUBSTANCE_VERSION>
1

> <PUBCHEM_EXT_DATASOURCE_NAME>
4488

> <PUBCHEM_EXT_DATASOURCE_REGID>
SCHEMBL16121854

> <PUBCHEM_SUBSTANCE_COMMENT>
InChI=1S/C9H11N5O2/c15-2-1-7-4-10-9(3-8(7)5-16)14-6-11-12-13-14/h3-4,6,15-16H,1-2,5H2
InChIKey=BYJNJLKOYMGXHN-UHFFFAOYSA-N

> <PUBCHEM_SUBSTANCE_SYNONYM>
SCHEMBL16121854

> <PUBCHEM_XREF_EXT_ID>
SCHEMBL16121854

> <PUBCHEM_EXT_DATASOURCE_URL>
https://www.surechembl.org/

> <PUBCHEM_EXT_SUBSTANCE_URL>
https://www.surechembl.org/chemical/SCHEMBL16121854

> <PUBCHEM_CID_ASSOCIATIONS>
117610143  1

> <PUBCHEM_COORDINATE_TYPE>
1
3

$$$$
