310941740
  -OEChem-07211613022D

 32 38  0     0  0  0  0  0  0999 V2000
    3.1791   -1.3822    0.0000 S   0  0  0  0  0  0  0  0  0  0  0  0
   -1.0920    0.5529    0.0000 O   0  0  0  0  0  0  0  0  0  0  0  0
    3.8150   -1.9213    0.0000 O   0  0  0  0  0  0  0  0  0  0  0  0
    2.6400   -2.0181    0.0000 O   0  0  0  0  0  0  0  0  0  0  0  0
    1.0505   -0.7049    0.0000 N   0  0  0  0  0  0  0  0  0  0  0  0
    2.5295   -0.8432    0.0000 N   0  0  0  0  0  0  0  0  0  0  0  0
    0.3455   -1.9627    0.0000 N   0  0  0  0  0  0  0  0  0  0  0  0
    1.4237   -2.0871    0.0000 N   0  0  0  0  0  0  0  0  0  0  0  0
   -2.5433    0.5529    0.0000 C   0  0  0  0  0  0  0  0  0  0  0  0
    0.3318    0.5529    0.0000 C   0  0  0  0  0  0  0  0  0  0  0  0
    0.3318   -1.1058    0.0000 C   0  0  0  0  0  0  0  0  0  0  0  0
   -0.3732    0.1244    0.0000 C   0  0  0  0  0  0  0  0  0  0  0  0
    1.7693   -1.1196    0.0000 C   0  0  0  0  0  0  0  0  0  0  0  0
    1.0505    0.1244    0.0000 C   0  0  0  0  0  0  0  0  0  0  0  0
    0.3594    1.4099    0.0000 C   0  0  0  0  0  0  0  0  0  0  0  0
   -0.3732   -0.7049    0.0000 C   0  0  0  0  0  0  0  0  0  0  0  0
   -4.1191    0.5667    0.0000 C   0  0  0  0  0  0  0  0  0  0  0  0
   -3.4141    1.7830    0.0000 C   0  0  0  0  0  0  0  0  0  0  0  0
   -3.7734    0.0830    0.0000 C   0  0  0  0  0  0  0  0  0  0  0  0
   -2.5156    1.3822    0.0000 C   0  0  0  0  0  0  0  0  0  0  0  0
   -2.9303   -0.1382    0.0000 C   0  0  0  0  0  0  0  0  0  0  0  0
   -3.3588    0.3455    0.0000 C   0  0  0  0  0  0  0  0  0  0  0  0
   -1.7969    0.1520    0.0000 C   0  0  0  0  0  0  0  0  0  0  0  0
   -4.1052    1.3961    0.0000 C   0  0  0  0  0  0  0  0  0  0  0  0
   -4.5060   -0.1244    0.0000 C   0  0  0  0  0  0  0  0  0  0  0  0
   -3.7320    0.9123    0.0000 C   0  0  0  0  0  0  0  0  0  0  0  0
    3.7182   -0.7188    0.0000 C   0  0  0  0  0  0  0  0  0  0  0  0
   -0.0414    2.0871    0.0000 C   0  0  0  0  0  0  0  0  0  0  0  0
    0.7464    2.0871    0.0000 C   0  0  0  0  0  0  0  0  0  0  0  0
    3.5109    0.0553    0.0000 C   0  0  0  0  0  0  0  0  0  0  0  0
    4.5060   -0.5252    0.0000 C   0  0  0  0  0  0  0  0  0  0  0  0
    4.2988    0.2627    0.0000 C   0  0  0  0  0  0  0  0  0  0  0  0
  1  3  2  0  0  0  0
  1  4  2  0  0  0  0
  1  6  1  0  0  0  0
  1 27  1  0  0  0  0
  2 12  1  0  0  0  0
  2 23  1  0  0  0  0
  5 11  1  0  0  0  0
  5 13  1  0  0  0  0
  5 14  1  0  0  0  0
  6 13  1  0  0  0  0
  7  8  1  0  0  0  0
  7 11  2  0  0  0  0
  8 13  2  0  0  0  0
  9 20  1  0  0  0  0
  9 21  1  0  0  0  0
  9 22  1  0  0  0  0
  9 23  1  0  0  0  0
 10 12  1  0  0  0  0
 10 14  2  0  0  0  0
 10 15  1  0  0  0  0
 11 16  1  0  0  0  0
 12 16  2  0  0  0  0
 15 28  1  0  0  0  0
 15 29  1  0  0  0  0
 17 22  1  0  0  0  0
 17 24  1  0  0  0  0
 17 25  1  0  0  0  0
 18 20  1  0  0  0  0
 18 24  1  0  0  0  0
 18 26  1  0  0  0  0
 19 21  1  0  0  0  0
 19 25  1  0  0  0  0
 19 26  1  0  0  0  0
 27 30  1  0  0  0  0
 27 31  1  0  0  0  0
 28 29  1  0  0  0  0
 30 32  1  0  0  0  0
 31 32  1  0  0  0  0
M  END
> <PUBCHEM_COMPOUND_ID_TYPE>
0

> <PUBCHEM_TOTAL_CHARGE>
0

> <PUBCHEM_SUBSTANCE_ID>
310941740

> <PUBCHEM_SUBSTANCE_VERSION>
1

> <PUBCHEM_EXT_DATASOURCE_NAME>
4488

> <PUBCHEM_EXT_DATASOURCE_REGID>
SCHEMBL16119771

> <PUBCHEM_SUBSTANCE_COMMENT>
InChI=1S/C24H32N4O3S/c29-32(30,19-2-1-3-19)27-23-26-25-22-9-21(20(13-28(22)23)18-4-5-18)31-14-24-10-15-6-16(11-24)8-17(7-15)12-24/h9,13,15-19H,1-8,10-12,14H2,(H,26,27)
InChIKey=SVPCWDMKWCXQFX-UHFFFAOYSA-N

> <PUBCHEM_SUBSTANCE_SYNONYM>
SCHEMBL16119771

> <PUBCHEM_XREF_EXT_ID>
SCHEMBL16119771

> <PUBCHEM_EXT_DATASOURCE_URL>
https://www.surechembl.org/

> <PUBCHEM_EXT_SUBSTANCE_URL>
https://www.surechembl.org/chemical/SCHEMBL16119771

> <PUBCHEM_CID_ASSOCIATIONS>
86267492  1

> <PUBCHEM_COORDINATE_TYPE>
1
3

$$$$
