310943250
  -OEChem-07211613022D

 37 41  0     0  0  0  0  0  0999 V2000
    4.6328    1.6204    0.0000 S   0  0  0  0  0  0  0  0  0  0  0  0
   -2.5116   -2.8871    0.0000 O   0  0  0  0  0  0  0  0  0  0  0  0
   -5.3693    2.4600    0.0000 O   0  0  0  0  0  0  0  0  0  0  0  0
    1.7750    2.4600    0.0000 O   0  0  0  0  0  0  0  0  0  0  0  0
    4.2351    2.3569    0.0000 O   0  0  0  0  0  0  0  0  0  0  0  0
    5.0599    2.3569    0.0000 O   0  0  0  0  0  0  0  0  0  0  0  0
   -2.5116   -0.8691    0.0000 N   0  0  0  0  0  0  0  0  0  0  0  0
   -3.2334    0.3830    0.0000 N   0  0  0  0  0  0  0  0  0  0  0  0
   -3.9404    1.6351    0.0000 N   0  0  0  0  0  0  0  0  0  0  0  0
   -0.3609    2.8871    0.0000 N   0  0  0  0  0  0  0  0  0  0  0  0
    1.0679    1.2079    0.0000 N   0  0  0  0  0  0  0  0  0  0  0  0
   -1.7897    1.2227    0.0000 C   0  0  0  0  0  0  0  0  0  0  0  0
   -2.4969   -0.0295    0.0000 C   0  0  0  0  0  0  0  0  0  0  0  0
   -1.0827    1.6351    0.0000 C   0  0  0  0  0  0  0  0  0  0  0  0
   -3.2186    1.2227    0.0000 C   0  0  0  0  0  0  0  0  0  0  0  0
   -1.8046    0.3682    0.0000 C   0  0  0  0  0  0  0  0  0  0  0  0
   -2.5116    1.6351    0.0000 C   0  0  0  0  0  0  0  0  0  0  0  0
   -1.0679    2.4747    0.0000 C   0  0  0  0  0  0  0  0  0  0  0  0
   -0.3462    1.2227    0.0000 C   0  0  0  0  0  0  0  0  0  0  0  0
   -3.0861   -1.4730    0.0000 C   0  0  0  0  0  0  0  0  0  0  0  0
   -1.9371   -1.4583    0.0000 C   0  0  0  0  0  0  0  0  0  0  0  0
    0.3462    1.6351    0.0000 C   0  0  0  0  0  0  0  0  0  0  0  0
   -2.4969   -2.0329    0.0000 C   0  0  0  0  0  0  0  0  0  0  0  0
    0.3609    2.4600    0.0000 C   0  0  0  0  0  0  0  0  0  0  0  0
    2.4969    1.2227    0.0000 C   0  0  0  0  0  0  0  0  0  0  0  0
    1.7750    1.6204    0.0000 C   0  0  0  0  0  0  0  0  0  0  0  0
    3.9257    1.2227    0.0000 C   0  0  0  0  0  0  0  0  0  0  0  0
   -3.9404    2.4747    0.0000 C   0  0  0  0  0  0  0  0  0  0  0  0
   -4.6475    1.2227    0.0000 C   0  0  0  0  0  0  0  0  0  0  0  0
    3.2039    1.6204    0.0000 C   0  0  0  0  0  0  0  0  0  0  0  0
   -1.8046    2.8724    0.0000 C   0  0  0  0  0  0  0  0  0  0  0  0
    2.4969    0.3830    0.0000 C   0  0  0  0  0  0  0  0  0  0  0  0
    3.9257    0.3830    0.0000 C   0  0  0  0  0  0  0  0  0  0  0  0
    3.2186   -0.0295    0.0000 C   0  0  0  0  0  0  0  0  0  0  0  0
   -4.6475    2.8871    0.0000 C   0  0  0  0  0  0  0  0  0  0  0  0
   -5.3693    1.6351    0.0000 C   0  0  0  0  0  0  0  0  0  0  0  0
    5.3693    1.1932    0.0000 C   0  0  0  0  0  0  0  0  0  0  0  0
  1  5  2  0  0  0  0
  1  6  2  0  0  0  0
  1 27  1  0  0  0  0
  1 37  1  0  0  0  0
  2 23  1  0  0  0  0
  3 35  1  0  0  0  0
  3 36  1  0  0  0  0
  4 26  2  0  0  0  0
  7 13  1  0  0  0  0
  7 20  1  0  0  0  0
  7 21  1  0  0  0  0
  8 13  1  0  0  0  0
  8 15  2  0  0  0  0
  9 15  1  0  0  0  0
  9 28  1  0  0  0  0
  9 29  1  0  0  0  0
 10 18  2  0  0  0  0
 10 24  1  0  0  0  0
 11 22  1  0  0  0  0
 11 26  1  0  0  0  0
 12 14  1  0  0  0  0
 12 16  1  0  0  0  0
 12 17  2  0  0  0  0
 13 16  2  0  0  0  0
 14 18  1  0  0  0  0
 14 19  2  0  0  0  0
 15 17  1  0  0  0  0
 18 31  1  0  0  0  0
 19 22  1  0  0  0  0
 20 23  1  0  0  0  0
 21 23  1  0  0  0  0
 22 24  2  0  0  0  0
 25 26  1  0  0  0  0
 25 30  1  0  0  0  0
 25 32  2  0  0  0  0
 27 30  2  0  0  0  0
 27 33  1  0  0  0  0
 28 35  1  0  0  0  0
 29 36  1  0  0  0  0
 32 34  1  0  0  0  0
 33 34  2  0  0  0  0
M  END
> <PUBCHEM_COMPOUND_ID_TYPE>
0

> <PUBCHEM_TOTAL_CHARGE>
0

> <PUBCHEM_SUBSTANCE_ID>
310943250

> <PUBCHEM_SUBSTANCE_VERSION>
1

> <PUBCHEM_EXT_DATASOURCE_NAME>
4488

> <PUBCHEM_EXT_DATASOURCE_REGID>
SCHEMBL16121312

> <PUBCHEM_SUBSTANCE_COMMENT>
InChI=1S/C26H29N5O5S/c1-17-23(13-20(14-27-17)28-26(33)18-4-3-5-22(10-18)37(2,34)35)19-11-24(30-6-8-36-9-7-30)29-25(12-19)31-15-21(32)16-31/h3-5,10-14,21,32H,6-9,15-16H2,1-2H3,(H,28,33)
InChIKey=PSNAJFKTSOQKNR-UHFFFAOYSA-N

> <PUBCHEM_SUBSTANCE_SYNONYM>
SCHEMBL16121312

> <PUBCHEM_XREF_EXT_ID>
SCHEMBL16121312

> <PUBCHEM_EXT_DATASOURCE_URL>
https://www.surechembl.org/

> <PUBCHEM_EXT_SUBSTANCE_URL>
https://www.surechembl.org/chemical/SCHEMBL16121312

> <PUBCHEM_CID_ASSOCIATIONS>
117609675  1

> <PUBCHEM_COORDINATE_TYPE>
1
3

$$$$
