310929140
  -OEChem-07211613022D

 42 46  0     0  0  0  0  0  0999 V2000
    8.9430   -5.3029    0.0000 O   0  0  0  0  0  0  0  0  0  0  0  0
    6.6061   -0.9437    0.0000 O   0  0  0  0  0  0  0  0  0  0  0  0
    3.6851   -1.5280    0.0000 O   0  0  0  0  0  0  0  0  0  0  0  0
   12.2236   -3.9097    0.0000 O   0  0  0  0  0  0  0  0  0  0  0  0
   13.4819   -4.6288    0.0000 O   0  0  0  0  0  0  0  0  0  0  0  0
    0.4494    0.0000    0.0000 O   0  0  0  0  0  0  0  0  0  0  0  0
   12.2236   -5.3478    0.0000 N   0  0  0  0  0  0  0  0  0  0  0  0
    6.5163   -3.8199    0.0000 N   0  0  0  0  0  0  0  0  0  0  0  0
    7.7296   -3.1458    0.0000 N   0  0  0  0  0  0  0  0  0  0  0  0
    3.6401   -2.9660    0.0000 N   0  0  0  0  0  0  0  0  0  0  0  0
    1.2134   -1.4381    0.0000 N   0  0  0  0  0  0  0  0  0  0  0  0
   10.1564   -4.6288    0.0000 C   0  0  0  0  0  0  0  0  0  0  0  0
   11.0102   -4.6288    0.0000 C   0  0  0  0  0  0  0  0  0  0  0  0
    9.7519   -5.3029    0.0000 C   0  0  0  0  0  0  0  0  0  0  0  0
   11.4147   -5.3478    0.0000 C   0  0  0  0  0  0  0  0  0  0  0  0
   10.1564   -6.0219    0.0000 C   0  0  0  0  0  0  0  0  0  0  0  0
   10.9653   -6.0219    0.0000 C   0  0  0  0  0  0  0  0  0  0  0  0
    9.7519   -3.9097    0.0000 C   0  0  0  0  0  0  0  0  0  0  0  0
    8.5385   -4.5838    0.0000 C   0  0  0  0  0  0  0  0  0  0  0  0
   11.4147   -3.9097    0.0000 C   0  0  0  0  0  0  0  0  0  0  0  0
    7.3252   -3.8199    0.0000 C   0  0  0  0  0  0  0  0  0  0  0  0
    6.1118   -3.0559    0.0000 C   0  0  0  0  0  0  0  0  0  0  0  0
    7.6847   -4.5838    0.0000 C   0  0  0  0  0  0  0  0  0  0  0  0
    4.8984   -2.3368    0.0000 C   0  0  0  0  0  0  0  0  0  0  0  0
   10.2013   -3.1907    0.0000 C   0  0  0  0  0  0  0  0  0  0  0  0
   11.0102   -3.1907    0.0000 C   0  0  0  0  0  0  0  0  0  0  0  0
    5.2580   -3.0559    0.0000 C   0  0  0  0  0  0  0  0  0  0  0  0
    6.1567   -1.6627    0.0000 C   0  0  0  0  0  0  0  0  0  0  0  0
    8.9430   -3.8648    0.0000 C   0  0  0  0  0  0  0  0  0  0  0  0
    6.5612   -2.3818    0.0000 C   0  0  0  0  0  0  0  0  0  0  0  0
    5.3029   -1.6178    0.0000 C   0  0  0  0  0  0  0  0  0  0  0  0
    4.0446   -2.2919    0.0000 C   0  0  0  0  0  0  0  0  0  0  0  0
   12.6281   -4.6288    0.0000 C   0  0  0  0  0  0  0  0  0  0  0  0
    8.5835   -3.1458    0.0000 C   0  0  0  0  0  0  0  0  0  0  0  0
    2.7863   -2.9660    0.0000 C   0  0  0  0  0  0  0  0  0  0  0  0
    6.2017   -0.2247    0.0000 C   0  0  0  0  0  0  0  0  0  0  0  0
    2.3818   -2.2020    0.0000 C   0  0  0  0  0  0  0  0  0  0  0  0
    1.5729   -2.2020    0.0000 C   0  0  0  0  0  0  0  0  0  0  0  0
    0.4044   -1.4381    0.0000 C   0  0  0  0  0  0  0  0  0  0  0  0
    1.6178   -0.7640    0.0000 C   0  0  0  0  0  0  0  0  0  0  0  0
    0.0000   -0.6741    0.0000 C   0  0  0  0  0  0  0  0  0  0  0  0
    1.2583   -0.0449    0.0000 C   0  0  0  0  0  0  0  0  0  0  0  0
  1 14  1  0  0  0  0
  1 19  1  0  0  0  0
  2 28  1  0  0  0  0
  2 36  1  0  0  0  0
  3 32  2  0  0  0  0
  4 33  2  0  0  0  0
  5 33  1  0  0  0  0
  6 41  1  0  0  0  0
  6 42  1  0  0  0  0
  7 15  1  0  0  0  0
  7 33  1  0  0  0  0
  8 21  1  0  0  0  0
  8 22  1  0  0  0  0
  9 21  1  0  0  0  0
  9 34  2  0  0  0  0
 10 32  1  0  0  0  0
 10 35  1  0  0  0  0
 11 38  1  0  0  0  0
 11 39  1  0  0  0  0
 11 40  1  0  0  0  0
 12 13  2  0  0  0  0
 12 14  1  0  0  0  0
 12 18  1  0  0  0  0
 13 15  1  0  0  0  0
 13 20  1  0  0  0  0
 14 16  2  0  0  0  0
 15 17  2  0  0  0  0
 16 17  1  0  0  0  0
 18 25  2  0  0  0  0
 19 23  1  0  0  0  0
 19 29  2  0  0  0  0
 20 26  2  0  0  0  0
 21 23  2  0  0  0  0
 22 27  2  0  0  0  0
 22 30  1  0  0  0  0
 24 27  1  0  0  0  0
 24 31  2  0  0  0  0
 24 32  1  0  0  0  0
 25 26  1  0  0  0  0
 28 30  2  0  0  0  0
 28 31  1  0  0  0  0
 29 34  1  0  0  0  0
 35 37  1  0  0  0  0
 37 38  1  0  0  0  0
 39 41  1  0  0  0  0
 40 42  1  0  0  0  0
M  END
> <PUBCHEM_COMPOUND_ID_TYPE>
0

> <PUBCHEM_TOTAL_CHARGE>
0

> <PUBCHEM_SUBSTANCE_ID>
310929140

> <PUBCHEM_SUBSTANCE_VERSION>
1

> <PUBCHEM_EXT_DATASOURCE_NAME>
4488

> <PUBCHEM_EXT_DATASOURCE_REGID>
SCHEMBL16106303

> <PUBCHEM_SUBSTANCE_COMMENT>
InChI=1S/C31H33N5O6/c1-40-24-18-21(30(37)33-10-4-12-36-13-15-41-16-14-36)17-22(19-24)34-29-20-23(9-11-32-29)42-28-8-7-27(35-31(38)39)25-5-2-3-6-26(25)28/h2-3,5-9,11,17-20,35H,4,10,12-16H2,1H3,(H,32,34)(H,33,37)(H,38,39)
InChIKey=FTMDEVOSEWILSK-UHFFFAOYSA-N

> <PUBCHEM_SUBSTANCE_SYNONYM>
SCHEMBL16106303

> <PUBCHEM_XREF_EXT_ID>
SCHEMBL16106303

> <PUBCHEM_EXT_DATASOURCE_URL>
https://www.surechembl.org/

> <PUBCHEM_EXT_SUBSTANCE_URL>
https://www.surechembl.org/chemical/SCHEMBL16106303

> <PUBCHEM_CID_ASSOCIATIONS>
117598616  1

> <PUBCHEM_COORDINATE_TYPE>
1
3

$$$$
