310938179
  -OEChem-07211613022D

 43 46  0     1  0  0  0  0  0999 V2000
    9.7573   -0.1845    0.0000 O   0  0  0  0  0  0  0  0  0  0  0  0
   11.8544    1.0423    0.0000 O   0  0  0  0  0  0  0  0  0  0  0  0
    9.1628    0.3876    0.0000 O   0  0  0  0  0  0  0  0  0  0  0  0
   12.5315    2.1037    0.0000 O   0  0  0  0  0  0  0  0  0  0  0  0
   11.1444    2.4469    0.0000 O   0  0  0  0  0  0  0  0  0  0  0  0
    7.5776    2.9045    0.0000 O   0  0  0  0  0  0  0  0  0  0  0  0
   11.1444   -0.5277    0.0000 N   0  0  0  0  0  0  0  0  0  0  0  0
   10.1536    1.4172    0.0000 N   0  0  0  0  0  0  0  0  0  0  0  0
   13.1399    0.4182    0.0000 N   0  0  0  0  0  0  0  0  0  0  0  0
    7.9739    1.5316    0.0000 N   0  0  0  0  0  0  0  0  0  0  0  0
   14.8545    0.5883    0.0000 N   0  0  0  0  0  0  0  0  0  0  0  0
   14.7590    1.9198    0.0000 N   0  0  0  0  0  0  0  0  0  0  0  0
   15.6189    0.8987    0.0000 N   0  0  0  0  0  0  0  0  0  0  0  0
   15.5599    1.7216    0.0000 N   0  0  0  0  0  0  0  0  0  0  0  0
   11.0311   -1.3449    0.0000 C   0  0  0  0  0  0  0  0  0  0  0  0
   11.9566   -0.3830    0.0000 C   0  0  3  0  0  0  0  0  0  0  0  0
   11.7732   -1.7052    0.0000 C   0  0  0  0  0  0  0  0  0  0  0  0
   10.5499    0.0443    0.0000 C   0  0  0  0  0  0  0  0  0  0  0  0
   12.3452   -1.1107    0.0000 C   0  0  0  0  0  0  0  0  0  0  0  0
   12.3170    0.3592    0.0000 C   0  0  0  0  0  0  0  0  0  0  0  0
   10.7481    0.8452    0.0000 C   0  0  3  0  0  0  0  0  0  0  0  0
   10.3479   -1.8074    0.0000 C   0  0  0  0  0  0  0  0  0  0  0  0
   11.8322   -2.5281    0.0000 C   0  0  0  0  0  0  0  0  0  0  0  0
   10.4069   -2.6303    0.0000 C   0  0  0  0  0  0  0  0  0  0  0  0
   11.1491   -2.9906    0.0000 C   0  0  0  0  0  0  0  0  0  0  0  0
   11.5407    1.0740    0.0000 C   0  0  0  0  0  0  0  0  0  0  0  0
    9.3610    1.1884    0.0000 C   0  0  0  0  0  0  0  0  0  0  0  0
    8.7665    1.7604    0.0000 C   0  0  3  0  0  0  0  0  0  0  0  0
   13.5002    1.1603    0.0000 C   0  0  0  0  0  0  0  0  0  0  0  0
   11.7389    1.8748    0.0000 C   0  0  0  0  0  0  0  0  0  0  0  0
    8.9647    2.5613    0.0000 C   0  0  3  0  0  0  0  0  0  0  0  0
   14.3231    1.2193    0.0000 C   0  0  0  0  0  0  0  0  0  0  0  0
    7.3794    2.1037    0.0000 C   0  0  0  0  0  0  0  0  0  0  0  0
    8.3702    3.1333    0.0000 C   0  0  0  0  0  0  0  0  0  0  0  0
    6.5868    1.8748    0.0000 C   0  0  0  0  0  0  0  0  0  0  0  0
    9.7573    2.7901    0.0000 C   0  0  0  0  0  0  0  0  0  0  0  0
    5.9923    2.4469    0.0000 C   0  0  0  0  0  0  0  0  0  0  0  0
    8.5684    3.9342    0.0000 C   0  0  0  0  0  0  0  0  0  0  0  0
    5.1997    2.2181    0.0000 C   0  0  0  0  0  0  0  0  0  0  0  0
    6.1905    3.2477    0.0000 C   0  0  0  0  0  0  0  0  0  0  0  0
    4.6052    2.7901    0.0000 C   0  0  0  0  0  0  0  0  0  0  0  0
    5.5960    3.8198    0.0000 C   0  0  0  0  0  0  0  0  0  0  0  0
    4.8033    3.5909    0.0000 C   0  0  0  0  0  0  0  0  0  0  0  0
  1 18  2  0  0  0  0
  2 20  2  0  0  0  0
  3 27  2  0  0  0  0
  4 30  2  0  0  0  0
  5 30  1  0  0  0  0
  6 33  2  0  0  0  0
  7 15  1  0  0  0  0
  7 16  1  0  0  0  0
  7 18  1  0  0  0  0
  8 21  1  0  0  0  0
  8 27  1  0  0  0  0
  9 20  1  0  0  0  0
  9 29  1  0  0  0  0
 28 10  1  1  0  0  0
 10 33  1  0  0  0  0
 11 13  2  0  0  0  0
 11 32  1  0  0  0  0
 12 14  1  0  0  0  0
 12 32  2  0  0  0  0
 13 14  1  0  0  0  0
 15 17  1  0  0  0  0
 15 22  2  0  0  0  0
 16 19  1  0  0  0  0
 16 20  1  6  0  0  0
 17 19  1  0  0  0  0
 17 23  2  0  0  0  0
 18 21  1  0  0  0  0
 21 26  1  0  0  0  0
 22 24  1  0  0  0  0
 23 25  1  0  0  0  0
 24 25  2  0  0  0  0
 26 30  1  0  0  0  0
 27 28  1  0  0  0  0
 28 31  1  0  0  0  0
 29 32  1  0  0  0  0
 31 34  1  0  0  0  0
 31 36  1  6  0  0  0
 33 35  1  0  0  0  0
 34 38  1  0  0  0  0
 35 37  1  0  0  0  0
 37 39  2  0  0  0  0
 37 40  1  0  0  0  0
 39 41  1  0  0  0  0
 40 42  2  0  0  0  0
 41 43  2  0  0  0  0
 42 43  1  0  0  0  0
M  END
> <PUBCHEM_COMPOUND_ID_TYPE>
0

> <PUBCHEM_TOTAL_CHARGE>
0

> <PUBCHEM_SUBSTANCE_ID>
310938179

> <PUBCHEM_SUBSTANCE_VERSION>
1

> <PUBCHEM_EXT_DATASOURCE_NAME>
4488

> <PUBCHEM_EXT_DATASOURCE_REGID>
SCHEMBL16116033

> <PUBCHEM_SUBSTANCE_COMMENT>
InChI=1S/C29H34N8O6/c1-3-17(2)26(32-24(38)13-18-9-5-4-6-10-18)28(42)31-20(15-25(39)40)29(43)37-21-12-8-7-11-19(21)14-22(37)27(41)30-16-23-33-35-36-34-23/h4-12,17,20,22,26H,3,13-16H2,1-2H3,(H,30,41)(H,31,42)(H,32,38)(H,39,40)(H,33,34,35,36)/t17-,20?,22-,26-/m0/s1
InChIKey=MBOVSCKZERNZDB-KXYPCGIQSA-N

> <PUBCHEM_SUBSTANCE_SYNONYM>
SCHEMBL16116033

> <PUBCHEM_XREF_EXT_ID>
SCHEMBL16116033

> <PUBCHEM_EXT_DATASOURCE_URL>
https://www.surechembl.org/

> <PUBCHEM_EXT_SUBSTANCE_URL>
https://www.surechembl.org/chemical/SCHEMBL16116033

> <PUBCHEM_CID_ASSOCIATIONS>
117605719  1

> <PUBCHEM_COORDINATE_TYPE>
1
3

> <PUBCHEM_BONDANNOTATIONS>
28  10  5
16  20  6
31  36  6

$$$$
