310932814
  -OEChem-07211613022D

 30 33  0     0  0  0  0  0  0999 V2000
    2.8538   -2.1245    0.0000 O   0  0  0  0  0  0  0  0  0  0  0  0
    0.1268   -2.3782    0.0000 O   0  0  0  0  0  0  0  0  0  0  0  0
    7.3248   -2.2196    0.0000 O   0  0  0  0  0  0  0  0  0  0  0  0
    9.5127   -2.6001    0.0000 O   0  0  0  0  0  0  0  0  0  0  0  0
    3.7416   -0.9830    0.0000 N   0  0  0  0  0  0  0  0  0  0  0  0
    3.6782   -0.1585    0.0000 N   0  0  0  0  0  0  0  0  0  0  0  0
    5.2003   -0.9830    0.0000 N   0  0  0  0  0  0  0  0  0  0  0  0
    0.0000   -0.9830    0.0000 N   0  0  0  0  0  0  0  0  0  0  0  0
    6.6271   -3.4562    0.0000 N   0  0  0  0  0  0  0  0  0  0  0  0
    2.4416   -0.7293    0.0000 C   0  0  0  0  0  0  0  0  0  0  0  0
    3.0124   -1.3317    0.0000 C   0  0  0  0  0  0  0  0  0  0  0  0
    4.4709   -1.3952    0.0000 C   0  0  0  0  0  0  0  0  0  0  0  0
    1.6171   -0.7927    0.0000 C   0  0  0  0  0  0  0  0  0  0  0  0
    2.8538    0.0000    0.0000 C   0  0  0  0  0  0  0  0  0  0  0  0
    4.4709   -2.2196    0.0000 C   0  0  0  0  0  0  0  0  0  0  0  0
    1.3000   -1.5854    0.0000 C   0  0  0  0  0  0  0  0  0  0  0  0
    5.8978   -2.2196    0.0000 C   0  0  0  0  0  0  0  0  0  0  0  0
    1.1415   -0.1585    0.0000 C   0  0  0  0  0  0  0  0  0  0  0  0
    5.8978   -1.3952    0.0000 C   0  0  0  0  0  0  0  0  0  0  0  0
    5.2003   -2.6318    0.0000 C   0  0  0  0  0  0  0  0  0  0  0  0
    0.4756   -1.6488    0.0000 C   0  0  0  0  0  0  0  0  0  0  0  0
    6.6271   -2.6318    0.0000 C   0  0  0  0  0  0  0  0  0  0  0  0
    0.3171   -0.2220    0.0000 C   0  0  0  0  0  0  0  0  0  0  0  0
    7.3248   -3.8685    0.0000 C   0  0  0  0  0  0  0  0  0  0  0  0
    8.0540   -3.4562    0.0000 C   0  0  0  0  0  0  0  0  0  0  0  0
    0.6025   -3.0441    0.0000 C   0  0  0  0  0  0  0  0  0  0  0  0
    8.7833   -3.8368    0.0000 C   0  0  0  0  0  0  0  0  0  0  0  0
    8.0857   -2.6318    0.0000 C   0  0  0  0  0  0  0  0  0  0  0  0
    9.4810   -3.4562    0.0000 C   0  0  0  0  0  0  0  0  0  0  0  0
    8.7833   -2.2196    0.0000 C   0  0  0  0  0  0  0  0  0  0  0  0
  1 11  1  0  0  0  0
  2 21  1  0  0  0  0
  2 26  1  0  0  0  0
  3 22  2  0  0  0  0
  4 29  1  0  0  0  0
  4 30  1  0  0  0  0
  5  6  1  0  0  0  0
  5 11  1  0  0  0  0
  5 12  1  0  0  0  0
  6 14  2  0  0  0  0
  7 12  2  0  0  0  0
  7 19  1  0  0  0  0
  8 21  1  0  0  0  0
  8 23  2  0  0  0  0
  9 22  1  0  0  0  0
  9 24  1  0  0  0  0
 10 11  2  0  0  0  0
 10 13  1  0  0  0  0
 10 14  1  0  0  0  0
 12 15  1  0  0  0  0
 13 16  1  0  0  0  0
 13 18  2  0  0  0  0
 15 20  2  0  0  0  0
 16 21  2  0  0  0  0
 17 19  2  0  0  0  0
 17 20  1  0  0  0  0
 17 22  1  0  0  0  0
 18 23  1  0  0  0  0
 24 25  1  0  0  0  0
 25 27  1  0  0  0  0
 25 28  1  0  0  0  0
 27 29  1  0  0  0  0
 28 30  1  0  0  0  0
M  END
> <PUBCHEM_COMPOUND_ID_TYPE>
0

> <PUBCHEM_TOTAL_CHARGE>
0

> <PUBCHEM_SUBSTANCE_ID>
310932814

> <PUBCHEM_SUBSTANCE_VERSION>
1

> <PUBCHEM_EXT_DATASOURCE_NAME>
4488

> <PUBCHEM_EXT_DATASOURCE_REGID>
SCHEMBL16110202

> <PUBCHEM_SUBSTANCE_COMMENT>
InChI=1S/C21H23N5O4/c1-29-19-10-15(4-7-22-19)17-13-25-26(21(17)28)18-3-2-16(12-23-18)20(27)24-11-14-5-8-30-9-6-14/h2-4,7,10,12-14,28H,5-6,8-9,11H2,1H3,(H,24,27)
InChIKey=PZEXSHKEEHRWED-UHFFFAOYSA-N

> <PUBCHEM_SUBSTANCE_SYNONYM>
SCHEMBL16110202

> <PUBCHEM_XREF_EXT_ID>
SCHEMBL16110202

> <PUBCHEM_EXT_DATASOURCE_URL>
https://www.surechembl.org/

> <PUBCHEM_EXT_SUBSTANCE_URL>
https://www.surechembl.org/chemical/SCHEMBL16110202

> <PUBCHEM_CID_ASSOCIATIONS>
117601304  1

> <PUBCHEM_COORDINATE_TYPE>
1
3

$$$$
