310944521
  -OEChem-07211613022D

 30 33  0     0  0  0  0  0  0999 V2000
    0.0135    3.7252    0.0000 F   0  0  0  0  0  0  0  0  0  0  0  0
    0.0000   -2.0891    0.0000 N   0  0  0  0  0  0  0  0  0  0  0  0
    2.1905    3.2655    0.0000 N   0  0  0  0  0  0  0  0  0  0  0  0
   -2.1905    3.2655    0.0000 N   0  0  0  0  0  0  0  0  0  0  0  0
    0.0000    1.2643    0.0000 C   0  0  0  0  0  0  0  0  0  0  0  0
   -0.0135   -1.2372    0.0000 C   0  0  0  0  0  0  0  0  0  0  0  0
   -0.0270    0.4259    0.0000 C   0  0  0  0  0  0  0  0  0  0  0  0
   -0.7437   -2.5083    0.0000 C   0  0  0  0  0  0  0  0  0  0  0  0
    0.7437   -2.4947    0.0000 C   0  0  0  0  0  0  0  0  0  0  0  0
    0.7301    2.5083    0.0000 C   0  0  0  0  0  0  0  0  0  0  0  0
   -0.7301    2.5083    0.0000 C   0  0  0  0  0  0  0  0  0  0  0  0
   -0.0135    2.9139    0.0000 C   0  0  0  0  0  0  0  0  0  0  0  0
    0.7166    1.6834    0.0000 C   0  0  0  0  0  0  0  0  0  0  0  0
   -0.7301    1.6834    0.0000 C   0  0  0  0  0  0  0  0  0  0  0  0
   -0.7166   -0.8181    0.0000 C   0  0  0  0  0  0  0  0  0  0  0  0
    0.7301   -0.8046    0.0000 C   0  0  0  0  0  0  0  0  0  0  0  0
   -0.7301    0.0068    0.0000 C   0  0  0  0  0  0  0  0  0  0  0  0
    0.7301    0.0068    0.0000 C   0  0  0  0  0  0  0  0  0  0  0  0
   -1.4739   -2.0891    0.0000 C   0  0  0  0  0  0  0  0  0  0  0  0
    0.7437   -3.3196    0.0000 C   0  0  0  0  0  0  0  0  0  0  0  0
   -0.7437   -3.3331    0.0000 C   0  0  0  0  0  0  0  0  0  0  0  0
    1.4739   -2.0891    0.0000 C   0  0  0  0  0  0  0  0  0  0  0  0
    1.4604    2.9004    0.0000 C   0  0  0  0  0  0  0  0  0  0  0  0
   -1.4739    2.9004    0.0000 C   0  0  0  0  0  0  0  0  0  0  0  0
   -2.1770   -2.4947    0.0000 C   0  0  0  0  0  0  0  0  0  0  0  0
    1.5009   -3.7252    0.0000 C   0  0  0  0  0  0  0  0  0  0  0  0
   -1.4469   -3.7252    0.0000 C   0  0  0  0  0  0  0  0  0  0  0  0
    2.1770   -2.4947    0.0000 C   0  0  0  0  0  0  0  0  0  0  0  0
   -2.1770   -3.3331    0.0000 C   0  0  0  0  0  0  0  0  0  0  0  0
    2.1770   -3.3196    0.0000 C   0  0  0  0  0  0  0  0  0  0  0  0
  1 12  1  0  0  0  0
  2  6  1  0  0  0  0
  2  8  1  0  0  0  0
  2  9  1  0  0  0  0
  3 23  3  0  0  0  0
  4 24  3  0  0  0  0
  5  7  1  0  0  0  0
  5 13  2  0  0  0  0
  5 14  1  0  0  0  0
  6 15  2  0  0  0  0
  6 16  1  0  0  0  0
  7 17  2  0  0  0  0
  7 18  1  0  0  0  0
  8 19  2  0  0  0  0
  8 21  1  0  0  0  0
  9 20  2  0  0  0  0
  9 22  1  0  0  0  0
 10 12  2  0  0  0  0
 10 13  1  0  0  0  0
 10 23  1  0  0  0  0
 11 12  1  0  0  0  0
 11 14  2  0  0  0  0
 11 24  1  0  0  0  0
 15 17  1  0  0  0  0
 16 18  2  0  0  0  0
 19 25  1  0  0  0  0
 20 26  1  0  0  0  0
 21 27  2  0  0  0  0
 22 28  2  0  0  0  0
 25 29  2  0  0  0  0
 26 30  2  0  0  0  0
 27 29  1  0  0  0  0
 28 30  1  0  0  0  0
M  END
> <PUBCHEM_COMPOUND_ID_TYPE>
0

> <PUBCHEM_TOTAL_CHARGE>
0

> <PUBCHEM_SUBSTANCE_ID>
310944521

> <PUBCHEM_SUBSTANCE_VERSION>
1

> <PUBCHEM_EXT_DATASOURCE_NAME>
4488

> <PUBCHEM_EXT_DATASOURCE_REGID>
SCHEMBL16122596

> <PUBCHEM_SUBSTANCE_COMMENT>
InChI=1S/C26H16FN3/c27-26-21(17-28)15-20(16-22(26)18-29)19-11-13-25(14-12-19)30(23-7-3-1-4-8-23)24-9-5-2-6-10-24/h1-16H
InChIKey=HDIYRTNURADZPU-UHFFFAOYSA-N

> <PUBCHEM_SUBSTANCE_SYNONYM>
SCHEMBL16122596

> <PUBCHEM_XREF_EXT_ID>
SCHEMBL16122596

> <PUBCHEM_EXT_DATASOURCE_URL>
https://www.surechembl.org/

> <PUBCHEM_EXT_SUBSTANCE_URL>
https://www.surechembl.org/chemical/SCHEMBL16122596

> <PUBCHEM_CID_ASSOCIATIONS>
117610756  1

> <PUBCHEM_COORDINATE_TYPE>
1
3

$$$$
