310930914
  -OEChem-07211613022D

 36 39  0     0  0  0  0  0  0999 V2000
    2.9653   -5.5600    0.0000 O   0  0  0  0  0  0  0  0  0  0  0  0
    3.8456   -9.2666    0.0000 O   0  0  0  0  0  0  0  0  0  0  0  0
    5.1430   -6.1160    0.0000 O   0  0  0  0  0  0  0  0  0  0  0  0
    0.7876   -1.6217    0.0000 O   0  0  0  0  0  0  0  0  0  0  0  0
    2.2240   -1.6217    0.0000 O   0  0  0  0  0  0  0  0  0  0  0  0
    1.4827   -5.3283    0.0000 N   0  0  0  0  0  0  0  0  0  0  0  0
    1.1120   -6.5793    0.0000 N   0  0  0  0  0  0  0  0  0  0  0  0
    0.0463   -5.5600    0.0000 N   0  0  0  0  0  0  0  0  0  0  0  0
    1.4827   -2.8727    0.0000 N   0  0  0  0  0  0  0  0  0  0  0  0
    1.8996   -6.5793    0.0000 C   0  0  0  0  0  0  0  0  0  0  0  0
    2.1777   -5.7916    0.0000 C   0  0  0  0  0  0  0  0  0  0  0  0
    2.3630   -7.2743    0.0000 C   0  0  0  0  0  0  0  0  0  0  0  0
    2.6873   -6.4866    0.0000 C   0  0  0  0  0  0  0  0  0  0  0  0
    0.8340   -5.7916    0.0000 C   0  0  0  0  0  0  0  0  0  0  0  0
    1.4827   -4.4943    0.0000 C   0  0  0  0  0  0  0  0  0  0  0  0
    3.1970   -7.1816    0.0000 C   0  0  0  0  0  0  0  0  0  0  0  0
    3.0116   -5.6990    0.0000 C   0  0  0  0  0  0  0  0  0  0  0  0
    2.0387   -8.0156    0.0000 C   0  0  0  0  0  0  0  0  0  0  0  0
    3.3823   -7.2743    0.0000 C   0  0  0  0  0  0  0  0  0  0  0  0
    2.2240   -4.0773    0.0000 C   0  0  0  0  0  0  0  0  0  0  0  0
    0.7876   -4.0773    0.0000 C   0  0  0  0  0  0  0  0  0  0  0  0
    3.7067   -7.8303    0.0000 C   0  0  0  0  0  0  0  0  0  0  0  0
    3.8456   -5.5600    0.0000 C   0  0  0  0  0  0  0  0  0  0  0  0
    2.5483   -8.6643    0.0000 C   0  0  0  0  0  0  0  0  0  0  0  0
    4.0310   -6.9963    0.0000 C   0  0  0  0  0  0  0  0  0  0  0  0
    3.3360   -8.6179    0.0000 C   0  0  0  0  0  0  0  0  0  0  0  0
    4.3553   -6.2087    0.0000 C   0  0  0  0  0  0  0  0  0  0  0  0
    2.2240   -3.2897    0.0000 C   0  0  0  0  0  0  0  0  0  0  0  0
    0.7876   -3.2897    0.0000 C   0  0  0  0  0  0  0  0  0  0  0  0
    1.4827   -2.0387    0.0000 C   0  0  0  0  0  0  0  0  0  0  0  0
    0.7876   -0.8340    0.0000 C   0  0  0  0  0  0  0  0  0  0  0  0
    4.6333   -9.1740    0.0000 C   0  0  0  0  0  0  0  0  0  0  0  0
    5.4673   -5.3283    0.0000 C   0  0  0  0  0  0  0  0  0  0  0  0
    1.6217   -0.8340    0.0000 C   0  0  0  0  0  0  0  0  0  0  0  0
    0.7876    0.0000    0.0000 C   0  0  0  0  0  0  0  0  0  0  0  0
    0.0000   -0.8340    0.0000 C   0  0  0  0  0  0  0  0  0  0  0  0
  1 11  2  0  0  0  0
  2 26  1  0  0  0  0
  2 32  1  0  0  0  0
  3 27  1  0  0  0  0
  3 33  1  0  0  0  0
  4 30  1  0  0  0  0
  4 31  1  0  0  0  0
  5 30  2  0  0  0  0
  6 11  1  0  0  0  0
  6 14  1  0  0  0  0
  6 15  1  0  0  0  0
  7 10  1  0  0  0  0
  7 14  1  0  0  0  0
  8 14  2  3  0  0  0
  9 28  1  0  0  0  0
  9 29  1  0  0  0  0
  9 30  1  0  0  0  0
 10 11  1  0  0  0  0
 10 12  1  0  0  0  0
 10 13  1  0  0  0  0
 12 16  2  0  0  0  0
 12 18  1  0  0  0  0
 13 17  2  0  0  0  0
 13 19  1  0  0  0  0
 15 20  1  0  0  0  0
 15 21  1  0  0  0  0
 16 22  1  0  0  0  0
 17 23  1  0  0  0  0
 18 24  2  0  0  0  0
 19 25  2  0  0  0  0
 20 28  1  0  0  0  0
 21 29  1  0  0  0  0
 22 26  2  0  0  0  0
 23 27  2  0  0  0  0
 24 26  1  0  0  0  0
 25 27  1  0  0  0  0
 31 34  1  0  0  0  0
 31 35  1  0  0  0  0
 31 36  1  0  0  0  0
M  END
> <PUBCHEM_COMPOUND_ID_TYPE>
0

> <PUBCHEM_TOTAL_CHARGE>
0

> <PUBCHEM_SUBSTANCE_ID>
310930914

> <PUBCHEM_SUBSTANCE_VERSION>
1

> <PUBCHEM_EXT_DATASOURCE_NAME>
4488

> <PUBCHEM_EXT_DATASOURCE_REGID>
SCHEMBL16108212

> <PUBCHEM_SUBSTANCE_COMMENT>
InChI=1S/C27H34N4O5/c1-26(2,3)36-25(33)30-16-14-20(15-17-30)31-23(32)27(29-24(31)28,18-6-10-21(34-4)11-7-18)19-8-12-22(35-5)13-9-19/h6-13,20H,14-17H2,1-5H3,(H2,28,29)
InChIKey=QOGWENXQKQHNGY-UHFFFAOYSA-N

> <PUBCHEM_SUBSTANCE_SYNONYM>
SCHEMBL16108212

> <PUBCHEM_XREF_EXT_ID>
SCHEMBL16108212

> <PUBCHEM_EXT_DATASOURCE_URL>
https://www.surechembl.org/

> <PUBCHEM_EXT_SUBSTANCE_URL>
https://www.surechembl.org/chemical/SCHEMBL16108212

> <PUBCHEM_CID_ASSOCIATIONS>
76332089  1

> <PUBCHEM_COORDINATE_TYPE>
1
3

$$$$
