310947709
  -OEChem-07211613022D

 36 39  0     1  0  0  0  0  0999 V2000
   -3.3651   -2.2879    0.0000 Cl  0  0  0  0  0  0  0  0  0  0  0  0
    1.9456   -3.5405    0.0000 Cl  0  0  0  0  0  0  0  0  0  0  0  0
   -1.6617    1.8872    0.0000 S   0  0  0  0  0  0  0  0  0  0  0  0
   -3.0812   -0.6346    0.0000 F   0  0  0  0  0  0  0  0  0  0  0  0
    1.2275   -0.6179    0.0000 O   0  0  0  0  0  0  0  0  0  0  0  0
    0.5093    1.4697    0.0000 O   0  0  0  0  0  0  0  0  0  0  0  0
   -0.2087    0.2004    0.0000 N   0  0  0  0  0  0  0  0  0  0  0  0
   -0.2087   -0.6179    0.0000 C   0  0  3  0  0  0  0  0  0  0  0  0
    1.2275    0.2171    0.0000 C   0  0  3  0  0  0  0  0  0  0  0  0
    0.4926    0.6179    0.0000 C   0  0  0  0  0  0  0  0  0  0  0  0
    0.5093   -1.0354    0.0000 C   0  0  3  0  0  0  0  0  0  0  0  0
   -0.9269    0.6346    0.0000 C   0  0  3  0  0  0  0  0  0  0  0  0
   -0.9436   -1.0521    0.0000 C   0  0  0  0  0  0  0  0  0  0  0  0
   -1.7118    0.1837    0.0000 C   0  0  0  0  0  0  0  0  0  0  0  0
    0.5093   -1.8872    0.0000 C   0  0  0  0  0  0  0  0  0  0  0  0
    1.9456    0.6012    0.0000 C   0  0  0  0  0  0  0  0  0  0  0  0
   -0.9269    1.4697    0.0000 C   0  0  0  0  0  0  0  0  0  0  0  0
   -2.4633    0.2004    0.0000 C   0  0  0  0  0  0  0  0  0  0  0  0
   -2.0458   -0.4843    0.0000 C   0  0  0  0  0  0  0  0  0  0  0  0
   -1.6450   -0.6346    0.0000 C   0  0  0  0  0  0  0  0  0  0  0  0
    1.4446    1.0188    0.0000 C   0  0  0  0  0  0  0  0  0  0  0  0
   -0.9436   -1.8704    0.0000 C   0  0  0  0  0  0  0  0  0  0  0  0
    1.2275   -2.3046    0.0000 C   0  0  0  0  0  0  0  0  0  0  0  0
   -0.2087   -2.3046    0.0000 C   0  0  0  0  0  0  0  0  0  0  0  0
   -2.3631   -1.0354    0.0000 C   0  0  0  0  0  0  0  0  0  0  0  0
   -2.3631   -1.8704    0.0000 C   0  0  0  0  0  0  0  0  0  0  0  0
   -1.6283   -2.2879    0.0000 C   0  0  0  0  0  0  0  0  0  0  0  0
    1.2108   -3.1063    0.0000 C   0  0  0  0  0  0  0  0  0  0  0  0
    2.6972    0.2171    0.0000 C   0  0  0  0  0  0  0  0  0  0  0  0
   -0.1921   -3.1230    0.0000 C   0  0  0  0  0  0  0  0  0  0  0  0
   -1.6617    2.7389    0.0000 C   0  0  0  0  0  0  0  0  0  0  0  0
    0.5093   -3.5405    0.0000 C   0  0  0  0  0  0  0  0  0  0  0  0
    3.3651    0.7013    0.0000 C   0  0  0  0  0  0  0  0  0  0  0  0
   -1.8454    3.5405    0.0000 C   0  0  0  0  0  0  0  0  0  0  0  0
   -2.3798    3.1230    0.0000 C   0  0  0  0  0  0  0  0  0  0  0  0
   -0.9102    3.1397    0.0000 C   0  0  0  0  0  0  0  0  0  0  0  0
  1 26  1  0  0  0  0
  2 28  1  0  0  0  0
  3 17  1  0  0  0  0
  3 31  1  0  0  0  0
  4 25  1  0  0  0  0
  5  9  1  0  0  0  0
 11  5  1  6  0  0  0
  6 10  2  0  0  0  0
  8  7  1  1  0  0  0
  7 10  1  0  0  0  0
  7 12  1  0  0  0  0
  8 11  1  0  0  0  0
  8 13  1  0  0  0  0
  9 10  1  0  0  0  0
  9 16  1  6  0  0  0
  9 21  1  1  0  0  0
 11 15  1  0  0  0  0
 12 14  1  0  0  0  0
 12 17  1  1  0  0  0
 13 20  2  0  0  0  0
 13 22  1  0  0  0  0
 14 18  1  0  0  0  0
 14 19  1  0  0  0  0
 15 23  1  0  0  0  0
 15 24  2  0  0  0  0
 16 29  1  0  0  0  0
 18 19  1  0  0  0  0
 20 25  1  0  0  0  0
 22 27  2  0  0  0  0
 23 28  2  0  0  0  0
 24 30  1  0  0  0  0
 25 26  2  0  0  0  0
 26 27  1  0  0  0  0
 28 32  1  0  0  0  0
 29 33  2  0  0  0  0
 30 32  2  0  0  0  0
 31 34  1  0  0  0  0
 31 35  1  0  0  0  0
 31 36  1  0  0  0  0
M  END
> <PUBCHEM_COMPOUND_ID_TYPE>
0

> <PUBCHEM_TOTAL_CHARGE>
0

> <PUBCHEM_SUBSTANCE_ID>
310947709

> <PUBCHEM_SUBSTANCE_VERSION>
1

> <PUBCHEM_EXT_DATASOURCE_NAME>
4488

> <PUBCHEM_EXT_DATASOURCE_REGID>
SCHEMBL16125880

> <PUBCHEM_SUBSTANCE_COMMENT>
InChI=1S/C29H34Cl2FNO2S/c1-6-14-29(5)27(34)33(24(18-10-11-18)17-36-28(2,3)4)25(19-12-13-22(31)23(32)16-19)26(35-29)20-8-7-9-21(30)15-20/h6-9,12-13,15-16,18,24-26H,1,10-11,14,17H2,2-5H3/t24-,25-,26-,29+/m1/s1
InChIKey=VTWKPYGYMFSCRG-AQWTWLKTSA-N

> <PUBCHEM_SUBSTANCE_SYNONYM>
SCHEMBL16125880

> <PUBCHEM_XREF_EXT_ID>
SCHEMBL16125880

> <PUBCHEM_EXT_DATASOURCE_URL>
https://www.surechembl.org/

> <PUBCHEM_EXT_SUBSTANCE_URL>
https://www.surechembl.org/chemical/SCHEMBL16125880

> <PUBCHEM_CID_ASSOCIATIONS>
117613415  1

> <PUBCHEM_COORDINATE_TYPE>
1
3

> <PUBCHEM_BONDANNOTATIONS>
12  17  5
11  5  6
8  7  5
9  16  6
9  21  5

$$$$
