310945633
  -OEChem-07211613022D

 18 20  0     0  0  0  0  0  0999 V2000
    2.1347   -1.2509    0.0000 S   0  0  0  0  0  0  0  0  0  0  0  0
   -2.7406   -1.2509    0.0000 S   0  0  0  0  0  0  0  0  0  0  0  0
    1.9566    1.4219    0.0000 O   0  0  0  0  0  0  0  0  0  0  0  0
    1.4077   -0.0036    0.0000 N   0  0  0  0  0  0  0  0  0  0  0  0
    0.5666    1.0513    0.0000 N   0  0  0  0  0  0  0  0  0  0  0  0
   -2.0207   -0.0036    0.0000 N   0  0  0  0  0  0  0  0  0  0  0  0
   -1.1725    1.0513    0.0000 N   0  0  0  0  0  0  0  0  0  0  0  0
    0.4455   -1.1012    0.0000 N   0  0  0  0  0  0  0  0  0  0  0  0
   -1.0442   -1.1012    0.0000 N   0  0  0  0  0  0  0  0  0  0  0  0
    0.1034    0.3885    0.0000 C   0  0  0  0  0  0  0  0  0  0  0  0
   -0.7163    0.4027    0.0000 C   0  0  0  0  0  0  0  0  0  0  0  0
    0.6308   -0.2459    0.0000 C   0  0  0  0  0  0  0  0  0  0  0  0
   -1.2367   -0.2459    0.0000 C   0  0  0  0  0  0  0  0  0  0  0  0
    1.3578    0.8517    0.0000 C   0  0  0  0  0  0  0  0  0  0  0  0
   -1.9779    0.8589    0.0000 C   0  0  0  0  0  0  0  0  0  0  0  0
   -0.3029   -1.4219    0.0000 C   0  0  0  0  0  0  0  0  0  0  0  0
    2.1347   -0.3528    0.0000 C   0  0  0  0  0  0  0  0  0  0  0  0
   -2.7335   -0.3599    0.0000 C   0  0  0  0  0  0  0  0  0  0  0  0
  1 17  2  0  0  0  0
  2 18  2  0  0  0  0
  3 14  2  0  0  0  0
  4 12  1  0  0  0  0
  4 14  1  0  0  0  0
  4 17  1  0  0  0  0
  5 10  2  0  0  0  0
  5 14  1  0  0  0  0
  6 13  1  0  0  0  0
  6 15  1  0  0  0  0
  6 18  1  0  0  0  0
  7 11  1  0  0  0  0
  7 15  2  0  0  0  0
  8 12  2  0  0  0  0
  8 16  1  0  0  0  0
  9 13  1  0  0  0  0
  9 16  2  0  0  0  0
 10 11  1  0  0  0  0
 10 12  1  0  0  0  0
 11 13  2  0  0  0  0
M  END
> <PUBCHEM_COMPOUND_ID_TYPE>
0

> <PUBCHEM_TOTAL_CHARGE>
0

> <PUBCHEM_SUBSTANCE_ID>
310945633

> <PUBCHEM_SUBSTANCE_VERSION>
1

> <PUBCHEM_EXT_DATASOURCE_NAME>
4488

> <PUBCHEM_EXT_DATASOURCE_REGID>
SCHEMBL16123732

> <PUBCHEM_SUBSTANCE_COMMENT>
InChI=1S/C9H4N6OS2/c16-9-13-6-5-7(14(3-17)2-12-5)10-1-11-8(6)15(9)4-18/h1-4H
InChIKey=YDQRTZREWFCVIZ-UHFFFAOYSA-N

> <PUBCHEM_SUBSTANCE_SYNONYM>
SCHEMBL16123732

> <PUBCHEM_XREF_EXT_ID>
SCHEMBL16123732

> <PUBCHEM_EXT_DATASOURCE_URL>
https://www.surechembl.org/

> <PUBCHEM_EXT_SUBSTANCE_URL>
https://www.surechembl.org/chemical/SCHEMBL16123732

> <PUBCHEM_CID_ASSOCIATIONS>
117611647  1

> <PUBCHEM_COORDINATE_TYPE>
1
3

$$$$
