310949199
  -OEChem-07211613022D

 29 33  0     0  0  0  0  0  0999 V2000
    0.0450    1.4468    0.0000 N   0  0  0  0  0  0  0  0  0  0  0  0
    0.4198    0.2024    0.0000 C   0  0  0  0  0  0  0  0  0  0  0  0
   -0.4048    0.2174    0.0000 C   0  0  0  0  0  0  0  0  0  0  0  0
    0.7046    0.9820    0.0000 C   0  0  0  0  0  0  0  0  0  0  0  0
   -0.6597    0.9670    0.0000 C   0  0  0  0  0  0  0  0  0  0  0  0
    1.7691   -0.2324    0.0000 C   0  0  0  0  0  0  0  0  0  0  0  0
   -1.7691   -0.2324    0.0000 C   0  0  0  0  0  0  0  0  0  0  0  0
    1.0045   -0.3973    0.0000 C   0  0  0  0  0  0  0  0  0  0  0  0
   -0.9745   -0.4123    0.0000 C   0  0  0  0  0  0  0  0  0  0  0  0
    2.3238   -0.8620    0.0000 C   0  0  0  0  0  0  0  0  0  0  0  0
   -2.3388   -0.8920    0.0000 C   0  0  0  0  0  0  0  0  0  0  0  0
    1.5142    1.1319    0.0000 C   0  0  0  0  0  0  0  0  0  0  0  0
   -1.4543    1.1169    0.0000 C   0  0  0  0  0  0  0  0  0  0  0  0
    2.0539    0.5472    0.0000 C   0  0  0  0  0  0  0  0  0  0  0  0
   -1.9940    0.5173    0.0000 C   0  0  0  0  0  0  0  0  0  0  0  0
    2.0539   -1.6416    0.0000 C   0  0  0  0  0  0  0  0  0  0  0  0
   -3.1484   -0.7122    0.0000 C   0  0  0  0  0  0  0  0  0  0  0  0
    3.1334   -0.6972    0.0000 C   0  0  0  0  0  0  0  0  0  0  0  0
   -2.0539   -1.6566    0.0000 C   0  0  0  0  0  0  0  0  0  0  0  0
    2.5937   -2.2564    0.0000 C   0  0  0  0  0  0  0  0  0  0  0  0
   -3.6881   -1.3418    0.0000 C   0  0  0  0  0  0  0  0  0  0  0  0
    3.6881   -1.3268    0.0000 C   0  0  0  0  0  0  0  0  0  0  0  0
   -2.6237   -2.2714    0.0000 C   0  0  0  0  0  0  0  0  0  0  0  0
    3.4183   -2.0915    0.0000 C   0  0  0  0  0  0  0  0  0  0  0  0
   -3.4332   -2.1364    0.0000 C   0  0  0  0  0  0  0  0  0  0  0  0
   -3.4183    0.0674    0.0000 C   0  0  0  0  0  0  0  0  0  0  0  0
    1.2593   -1.8066    0.0000 C   0  0  0  0  0  0  0  0  0  0  0  0
    3.4183    0.0824    0.0000 C   0  0  0  0  0  0  0  0  0  0  0  0
   -1.2144   -1.8366    0.0000 C   0  0  0  0  0  0  0  0  0  0  0  0
  1  4  1  0  0  0  0
  1  5  1  0  0  0  0
  2  3  1  0  0  0  0
  2  4  2  0  0  0  0
  2  8  1  0  0  0  0
  3  5  2  0  0  0  0
  3  9  1  0  0  0  0
  4 12  1  0  0  0  0
  5 13  1  0  0  0  0
  6  8  2  0  0  0  0
  6 10  1  0  0  0  0
  6 14  1  0  0  0  0
  7  9  2  0  0  0  0
  7 11  1  0  0  0  0
  7 15  1  0  0  0  0
 10 16  2  0  0  0  0
 10 18  1  0  0  0  0
 11 17  2  0  0  0  0
 11 19  1  0  0  0  0
 12 14  2  0  0  0  0
 13 15  2  0  0  0  0
 16 20  1  0  0  0  0
 16 27  1  0  0  0  0
 17 21  1  0  0  0  0
 17 26  1  0  0  0  0
 18 22  2  0  0  0  0
 18 28  1  0  0  0  0
 19 23  2  0  0  0  0
 19 29  1  0  0  0  0
 20 24  2  0  0  0  0
 21 25  2  0  0  0  0
 22 24  1  0  0  0  0
 23 25  1  0  0  0  0
M  END
> <PUBCHEM_COMPOUND_ID_TYPE>
0

> <PUBCHEM_TOTAL_CHARGE>
0

> <PUBCHEM_SUBSTANCE_ID>
310949199

> <PUBCHEM_SUBSTANCE_VERSION>
1

> <PUBCHEM_EXT_DATASOURCE_NAME>
4488

> <PUBCHEM_EXT_DATASOURCE_REGID>
SCHEMBL16127389

> <PUBCHEM_SUBSTANCE_COMMENT>
InChI=1S/C28H25N/c1-17-7-5-8-18(2)27(17)21-11-13-25-23(15-21)24-16-22(12-14-26(24)29-25)28-19(3)9-6-10-20(28)4/h5-16,29H,1-4H3
InChIKey=GQZOSVSSELBNAB-UHFFFAOYSA-N

> <PUBCHEM_SUBSTANCE_SYNONYM>
SCHEMBL16127389

> <PUBCHEM_XREF_EXT_ID>
SCHEMBL16127389

> <PUBCHEM_EXT_DATASOURCE_URL>
https://www.surechembl.org/

> <PUBCHEM_EXT_SUBSTANCE_URL>
https://www.surechembl.org/chemical/SCHEMBL16127389

> <PUBCHEM_CID_ASSOCIATIONS>
117614687  1

> <PUBCHEM_COORDINATE_TYPE>
1
3

$$$$
