310943872
  -OEChem-07211613022D

  9  9  0     0  0  0  0  0  0999 V2000
    0.8791   -0.4720    0.0000 S   0  0  0  0  0  0  0  0  0  0  0  0
   -1.3394   -0.2242    0.0000 N   0  0  0  0  0  0  0  0  0  0  0  0
    0.1120   -0.1888    0.0000 C   0  0  0  0  0  0  0  0  0  0  0  0
    0.1003    0.6372    0.0000 C   0  0  0  0  0  0  0  0  0  0  0  0
    0.8909    0.8732    0.0000 C   0  0  0  0  0  0  0  0  0  0  0  0
    1.3512    0.2124    0.0000 C   0  0  0  0  0  0  0  0  0  0  0  0
   -0.6195   -0.6254    0.0000 C   0  0  0  0  0  0  0  0  0  0  0  0
   -0.6550    1.0385    0.0000 C   0  0  0  0  0  0  0  0  0  0  0  0
   -1.3512    0.6136    0.0000 C   0  0  0  0  0  0  0  0  0  0  0  0
  1  3  1  0  0  0  0
  1  6  1  0  0  0  0
  2  7  1  0  0  0  0
  3  4  1  0  0  0  0
  3  7  2  0  0  0  0
  4  5  1  0  0  0  0
  4  8  2  0  0  0  0
  5  6  2  0  0  0  0
  8  9  1  0  0  0  0
M  END
> <PUBCHEM_COMPOUND_ID_TYPE>
0

> <PUBCHEM_TOTAL_CHARGE>
0

> <PUBCHEM_SUBSTANCE_ID>
310943872

> <PUBCHEM_SUBSTANCE_VERSION>
1

> <PUBCHEM_EXT_DATASOURCE_NAME>
4488

> <PUBCHEM_EXT_DATASOURCE_REGID>
SCHEMBL16121943

> <PUBCHEM_SUBSTANCE_COMMENT>
InChI=1S/C7H9NS/c1-2-6-3-4-9-7(6)5-8/h2-5H,8H2,1H3/b6-2-,7-5+
InChIKey=PEJFCGNEYNVSBU-GKUHRYDTSA-N

> <PUBCHEM_SUBSTANCE_SYNONYM>
SCHEMBL16121943

> <PUBCHEM_XREF_EXT_ID>
SCHEMBL16121943

> <PUBCHEM_EXT_DATASOURCE_URL>
https://www.surechembl.org/

> <PUBCHEM_EXT_SUBSTANCE_URL>
https://www.surechembl.org/chemical/SCHEMBL16121943

> <PUBCHEM_CID_ASSOCIATIONS>
117610199  1

> <PUBCHEM_COORDINATE_TYPE>
1
3

$$$$
