310942557
  -OEChem-07211613022D

 27 29  0     0  0  0  0  0  0999 V2000
   -2.5852   -0.2453    0.0000 F   0  0  0  0  0  0  0  0  0  0  0  0
   -0.9147   -3.1222    0.0000 F   0  0  0  0  0  0  0  0  0  0  0  0
    3.1288    2.5256    0.0000 O   0  0  0  0  0  0  0  0  0  0  0  0
   -0.6497    1.0805    0.0000 N   0  0  0  0  0  0  0  0  0  0  0  0
   -0.0928   -0.1525    0.0000 N   0  0  0  0  0  0  0  0  0  0  0  0
   -0.9280   -0.2320    0.0000 C   0  0  0  0  0  0  0  0  0  0  0  0
    0.0795    0.6696    0.0000 C   0  0  0  0  0  0  0  0  0  0  0  0
   -1.3523   -0.9612    0.0000 C   0  0  0  0  0  0  0  0  0  0  0  0
   -1.2462    0.4972    0.0000 C   0  0  0  0  0  0  0  0  0  0  0  0
   -2.1743   -0.9612    0.0000 C   0  0  0  0  0  0  0  0  0  0  0  0
    0.8352    1.0142    0.0000 C   0  0  0  0  0  0  0  0  0  0  0  0
    1.0473    1.8230    0.0000 C   0  0  0  0  0  0  0  0  0  0  0  0
   -0.7292    1.9025    0.0000 C   0  0  0  0  0  0  0  0  0  0  0  0
   -0.9280   -1.6638    0.0000 C   0  0  0  0  0  0  0  0  0  0  0  0
   -1.3390   -2.3930    0.0000 C   0  0  0  0  0  0  0  0  0  0  0  0
   -1.5379    2.1279    0.0000 C   0  0  0  0  0  0  0  0  0  0  0  0
   -2.5720   -1.6771    0.0000 C   0  0  0  0  0  0  0  0  0  0  0  0
   -2.1743   -2.3797    0.0000 C   0  0  0  0  0  0  0  0  0  0  0  0
    1.8826    1.8097    0.0000 C   0  0  0  0  0  0  0  0  0  0  0  0
    0.3182    2.2074    0.0000 C   0  0  0  0  0  0  0  0  0  0  0  0
    0.9943    2.6184    0.0000 C   0  0  0  0  0  0  0  0  0  0  0  0
   -1.7501    2.9233    0.0000 C   0  0  0  0  0  0  0  0  0  0  0  0
   -2.1213    1.5445    0.0000 C   0  0  0  0  0  0  0  0  0  0  0  0
    2.3069    2.5256    0.0000 C   0  0  0  0  0  0  0  0  0  0  0  0
   -2.5587    3.1222    0.0000 C   0  0  0  0  0  0  0  0  0  0  0  0
   -2.9167    1.7567    0.0000 C   0  0  0  0  0  0  0  0  0  0  0  0
   -3.1288    2.5521    0.0000 C   0  0  0  0  0  0  0  0  0  0  0  0
  1 10  1  0  0  0  0
  2 15  1  0  0  0  0
  3 24  1  0  0  0  0
  4  7  1  0  0  0  0
  4  9  1  0  0  0  0
  4 13  1  0  0  0  0
  5  6  1  0  0  0  0
  5  7  2  0  0  0  0
  6  8  1  0  0  0  0
  6  9  2  0  0  0  0
  7 11  1  0  0  0  0
  8 10  2  0  0  0  0
  8 14  1  0  0  0  0
 10 17  1  0  0  0  0
 11 12  1  0  0  0  0
 12 19  1  0  0  0  0
 12 20  1  0  0  0  0
 12 21  1  0  0  0  0
 13 16  1  0  0  0  0
 14 15  2  0  0  0  0
 15 18  1  0  0  0  0
 16 22  2  0  0  0  0
 16 23  1  0  0  0  0
 17 18  2  0  0  0  0
 19 24  1  0  0  0  0
 22 25  1  0  0  0  0
 23 26  2  0  0  0  0
 25 27  2  0  0  0  0
 26 27  1  0  0  0  0
M  END
> <PUBCHEM_COMPOUND_ID_TYPE>
0

> <PUBCHEM_TOTAL_CHARGE>
0

> <PUBCHEM_SUBSTANCE_ID>
310942557

> <PUBCHEM_SUBSTANCE_VERSION>
1

> <PUBCHEM_EXT_DATASOURCE_NAME>
4488

> <PUBCHEM_EXT_DATASOURCE_REGID>
SCHEMBL16120598

> <PUBCHEM_SUBSTANCE_COMMENT>
InChI=1S/C22H24F2N2O/c1-22(2,10-11-27)13-21-25-20(18-12-17(23)8-9-19(18)24)15-26(21)14-16-6-4-3-5-7-16/h3-9,12,15,27H,10-11,13-14H2,1-2H3
InChIKey=WJGRJGVAYDJWOC-UHFFFAOYSA-N

> <PUBCHEM_SUBSTANCE_SYNONYM>
SCHEMBL16120598

> <PUBCHEM_XREF_EXT_ID>
SCHEMBL16120598

> <PUBCHEM_EXT_DATASOURCE_URL>
https://www.surechembl.org/

> <PUBCHEM_EXT_SUBSTANCE_URL>
https://www.surechembl.org/chemical/SCHEMBL16120598

> <PUBCHEM_CID_ASSOCIATIONS>
117609113  1

> <PUBCHEM_COORDINATE_TYPE>
1
3

$$$$
