310940463
  -OEChem-07211613022D

 31 34  0     0  0  0  0  0  0999 V2000
   -2.1689    1.1246    0.0000 F   0  0  0  0  0  0  0  0  0  0  0  0
    0.3910    2.2600    0.0000 F   0  0  0  0  0  0  0  0  0  0  0  0
    0.7230    1.1461    0.0000 F   0  0  0  0  0  0  0  0  0  0  0  0
   -0.3910    0.8354    0.0000 F   0  0  0  0  0  0  0  0  0  0  0  0
   -2.1582   -2.2064    0.0000 O   0  0  0  0  0  0  0  0  0  0  0  0
    0.7444    0.4927    0.0000 O   0  0  0  0  0  0  0  0  0  0  0  0
   -1.4299   -0.9533    0.0000 N   0  0  0  0  0  0  0  0  0  0  0  0
   -0.6266   -3.0205    0.0000 N   0  0  0  0  0  0  0  0  0  0  0  0
    0.1982   -3.1918    0.0000 N   0  0  0  0  0  0  0  0  0  0  0  0
    1.1193   -0.8890    0.0000 N   0  0  0  0  0  0  0  0  0  0  0  0
   -1.4620    0.7176    0.0000 C   0  0  0  0  0  0  0  0  0  0  0  0
   -1.4406    1.5423    0.0000 C   0  0  0  0  0  0  0  0  0  0  0  0
   -0.7122   -2.1957    0.0000 C   0  0  0  0  0  0  0  0  0  0  0  0
    0.0375   -1.8637    0.0000 C   0  0  0  0  0  0  0  0  0  0  0  0
   -0.7444    1.9601    0.0000 C   0  0  0  0  0  0  0  0  0  0  0  0
   -1.4406   -1.7780    0.0000 C   0  0  0  0  0  0  0  0  0  0  0  0
    0.6158   -2.4742    0.0000 C   0  0  0  0  0  0  0  0  0  0  0  0
   -0.7230    0.2785    0.0000 C   0  0  0  0  0  0  0  0  0  0  0  0
   -2.1475    0.2892    0.0000 C   0  0  0  0  0  0  0  0  0  0  0  0
   -0.0054    1.5423    0.0000 C   0  0  0  0  0  0  0  0  0  0  0  0
   -0.7230   -0.5355    0.0000 C   0  0  0  0  0  0  0  0  0  0  0  0
   -2.1475   -0.5462    0.0000 C   0  0  0  0  0  0  0  0  0  0  0  0
    0.3053   -1.0818    0.0000 C   0  0  0  0  0  0  0  0  0  0  0  0
   -2.1475    1.9601    0.0000 C   0  0  0  0  0  0  0  0  0  0  0  0
   -0.7337    2.7848    0.0000 C   0  0  0  0  0  0  0  0  0  0  0  0
    1.4299   -2.3028    0.0000 C   0  0  0  0  0  0  0  0  0  0  0  0
    1.6870   -1.4995    0.0000 C   0  0  0  0  0  0  0  0  0  0  0  0
   -2.1582    2.7527    0.0000 C   0  0  0  0  0  0  0  0  0  0  0  0
   -1.4513    3.1918    0.0000 C   0  0  0  0  0  0  0  0  0  0  0  0
    1.3442   -0.0964    0.0000 C   0  0  0  0  0  0  0  0  0  0  0  0
    2.1689   -0.0857    0.0000 C   0  0  0  0  0  0  0  0  0  0  0  0
  1 11  1  0  0  0  0
  2 20  1  0  0  0  0
  3 20  1  0  0  0  0
  4 20  1  0  0  0  0
  5 16  2  0  0  0  0
  6 30  2  0  0  0  0
  7 16  1  0  0  0  0
  7 21  1  0  0  0  0
  7 22  1  0  0  0  0
  8  9  1  0  0  0  0
  8 13  2  0  0  0  0
  9 17  1  0  0  0  0
 10 23  1  0  0  0  0
 10 27  1  0  0  0  0
 10 30  1  0  0  0  0
 11 12  1  0  0  0  0
 11 18  1  0  0  0  0
 11 19  1  0  0  0  0
 12 15  2  0  0  0  0
 12 24  1  0  0  0  0
 13 14  1  0  0  0  0
 13 16  1  0  0  0  0
 14 17  2  0  0  0  0
 14 23  1  0  0  0  0
 15 20  1  0  0  0  0
 15 25  1  0  0  0  0
 17 26  1  0  0  0  0
 18 21  1  0  0  0  0
 19 22  1  0  0  0  0
 24 28  2  0  0  0  0
 25 29  2  0  0  0  0
 26 27  1  0  0  0  0
 28 29  1  0  0  0  0
 30 31  1  0  0  0  0
M  END
> <PUBCHEM_COMPOUND_ID_TYPE>
0

> <PUBCHEM_TOTAL_CHARGE>
0

> <PUBCHEM_SUBSTANCE_ID>
310940463

> <PUBCHEM_SUBSTANCE_VERSION>
1

> <PUBCHEM_EXT_DATASOURCE_NAME>
4488

> <PUBCHEM_EXT_DATASOURCE_REGID>
SCHEMBL16118416

> <PUBCHEM_SUBSTANCE_COMMENT>
InChI=1S/C21H22F4N4O2/c1-13(30)29-9-6-17-14(12-29)18(27-26-17)19(31)28-10-7-20(22,8-11-28)15-4-2-3-5-16(15)21(23,24)25/h2-5H,6-12H2,1H3,(H,26,27)
InChIKey=ULZSPSZSJHOOQM-UHFFFAOYSA-N

> <PUBCHEM_SUBSTANCE_SYNONYM>
SCHEMBL16118416

> <PUBCHEM_XREF_EXT_ID>
SCHEMBL16118416

> <PUBCHEM_EXT_DATASOURCE_URL>
https://www.surechembl.org/

> <PUBCHEM_EXT_SUBSTANCE_URL>
https://www.surechembl.org/chemical/SCHEMBL16118416

> <PUBCHEM_CID_ASSOCIATIONS>
117607482  1

> <PUBCHEM_COORDINATE_TYPE>
1
3

$$$$
