310944400
  -OEChem-07211613022D

 12 12  0     0  0  0  0  0  0999 V2000
    1.4584   -1.2237    0.0000 Br  0  0  0  0  0  0  0  0  0  0  0  0
    0.0056    1.2237    0.0000 F   0  0  0  0  0  0  0  0  0  0  0  0
    2.1736    0.7878    0.0000 N   0  0  0  0  0  0  0  0  0  0  0  0
   -2.1736    0.7432    0.0000 N   0  0  0  0  0  0  0  0  0  0  0  0
    0.7208    0.0391    0.0000 C   0  0  0  0  0  0  0  0  0  0  0  0
   -0.0280    0.4191    0.0000 C   0  0  0  0  0  0  0  0  0  0  0  0
   -0.7208    0.0056    0.0000 C   0  0  0  0  0  0  0  0  0  0  0  0
    0.7096   -0.7990    0.0000 C   0  0  0  0  0  0  0  0  0  0  0  0
   -0.7096   -0.8214    0.0000 C   0  0  0  0  0  0  0  0  0  0  0  0
    0.0168   -1.2125    0.0000 C   0  0  0  0  0  0  0  0  0  0  0  0
    1.4472    0.4302    0.0000 C   0  0  0  0  0  0  0  0  0  0  0  0
   -1.4584    0.3855    0.0000 C   0  0  0  0  0  0  0  0  0  0  0  0
  1  8  1  0  0  0  0
  2  6  1  0  0  0  0
  3 11  3  0  0  0  0
  4 12  3  0  0  0  0
  5  6  2  0  0  0  0
  5  8  1  0  0  0  0
  5 11  1  0  0  0  0
  6  7  1  0  0  0  0
  7  9  2  0  0  0  0
  7 12  1  0  0  0  0
  8 10  2  0  0  0  0
  9 10  1  0  0  0  0
M  END
> <PUBCHEM_COMPOUND_ID_TYPE>
0

> <PUBCHEM_TOTAL_CHARGE>
0

> <PUBCHEM_SUBSTANCE_ID>
310944400

> <PUBCHEM_SUBSTANCE_VERSION>
1

> <PUBCHEM_EXT_DATASOURCE_NAME>
4488

> <PUBCHEM_EXT_DATASOURCE_REGID>
SCHEMBL16122475

> <PUBCHEM_SUBSTANCE_COMMENT>
InChI=1S/C8H2BrFN2/c9-7-2-1-5(3-11)8(10)6(7)4-12/h1-2H
InChIKey=RZXQGNPMLNGPBI-UHFFFAOYSA-N

> <PUBCHEM_SUBSTANCE_SYNONYM>
SCHEMBL16122475

> <PUBCHEM_XREF_EXT_ID>
SCHEMBL16122475

> <PUBCHEM_EXT_DATASOURCE_URL>
https://www.surechembl.org/

> <PUBCHEM_EXT_SUBSTANCE_URL>
https://www.surechembl.org/chemical/SCHEMBL16122475

> <PUBCHEM_CID_ASSOCIATIONS>
117610657  1

> <PUBCHEM_COORDINATE_TYPE>
1
3

$$$$
