310941046
  -OEChem-07211613022D

 44 48  0     1  0  0  0  0  0999 V2000
    5.3151    1.0393    0.0000 O   0  0  0  0  0  0  0  0  0  0  0  0
    4.1868   -0.9205    0.0000 O   0  0  0  0  0  0  0  0  0  0  0  0
    1.5886    0.9056    0.0000 O   0  0  0  0  0  0  0  0  0  0  0  0
    4.4688   -1.5886    0.0000 O   0  0  0  0  0  0  0  0  0  0  0  0
   -0.5790   -1.1729    0.0000 O   0  0  0  0  0  0  0  0  0  0  0  0
    5.1964   -2.8357    0.0000 O   0  0  0  0  0  0  0  0  0  0  0  0
   -2.7318    0.9056    0.0000 O   0  0  0  0  0  0  0  0  0  0  0  0
   -5.6120    0.9056    0.0000 O   0  0  0  0  0  0  0  0  0  0  0  0
    2.3012   -0.3266    0.0000 N   0  0  0  0  0  0  0  0  0  0  0  0
    0.1484    0.0743    0.0000 N   0  0  0  0  0  0  0  0  0  0  0  0
    3.7414   -2.8209    0.0000 N   0  0  0  0  0  0  0  0  0  0  0  0
   -2.0192   -0.3266    0.0000 N   0  0  0  0  0  0  0  0  0  0  0  0
   -4.1868    0.0743    0.0000 N   0  0  0  0  0  0  0  0  0  0  0  0
    4.8846    0.3711    0.0000 C   0  0  3  0  0  0  0  0  0  0  0  0
    4.1719   -0.0445    0.0000 C   0  0  0  0  0  0  0  0  0  0  0  0
    4.5134    1.0541    0.0000 C   0  0  0  0  0  0  0  0  0  0  0  0
    3.4592    0.3563    0.0000 C   0  0  3  0  0  0  0  0  0  0  0  0
    5.6120   -0.0594    0.0000 C   0  0  0  0  0  0  0  0  0  0  0  0
    3.4592    1.4253    0.0000 C   0  0  0  0  0  0  0  0  0  0  0  0
    1.5738    0.0743    0.0000 C   0  0  0  0  0  0  0  0  0  0  0  0
    0.8760   -0.3118    0.0000 C   0  0  3  0  0  0  0  0  0  0  0  0
    2.7318    1.8558    0.0000 C   0  0  0  0  0  0  0  0  0  0  0  0
    1.6034   -1.5441    0.0000 C   0  0  0  0  0  0  0  0  0  0  0  0
    3.0287   -1.5441    0.0000 C   0  0  0  0  0  0  0  0  0  0  0  0
    3.0287   -2.3755    0.0000 C   0  0  0  0  0  0  0  0  0  0  0  0
    0.8611   -1.1432    0.0000 C   0  0  0  0  0  0  0  0  0  0  0  0
    2.3012   -1.1580    0.0000 C   0  0  0  0  0  0  0  0  0  0  0  0
    1.6034   -2.3903    0.0000 C   0  0  0  0  0  0  0  0  0  0  0  0
    2.3160   -2.7912    0.0000 C   0  0  0  0  0  0  0  0  0  0  0  0
    3.7414   -1.1432    0.0000 C   0  0  0  0  0  0  0  0  0  0  0  0
   -0.5642   -0.2970    0.0000 C   0  0  0  0  0  0  0  0  0  0  0  0
    2.0043    1.5143    0.0000 C   0  0  0  0  0  0  0  0  0  0  0  0
    2.6575    2.6575    0.0000 C   0  0  0  0  0  0  0  0  0  0  0  0
    4.4540   -2.3755    0.0000 C   0  0  0  0  0  0  0  0  0  0  0  0
   -1.3065    0.1039    0.0000 C   0  0  3  0  0  0  0  0  0  0  0  0
    1.4402    2.1231    0.0000 C   0  0  0  0  0  0  0  0  0  0  0  0
    1.8558    2.8357    0.0000 C   0  0  0  0  0  0  0  0  0  0  0  0
   -2.7466    0.0743    0.0000 C   0  0  0  0  0  0  0  0  0  0  0  0
   -1.2916    0.9205    0.0000 C   0  0  0  0  0  0  0  0  0  0  0  0
   -3.4444   -0.3118    0.0000 C   0  0  0  0  0  0  0  0  0  0  0  0
   -4.1719    0.9205    0.0000 C   0  0  0  0  0  0  0  0  0  0  0  0
   -4.8846   -0.3118    0.0000 C   0  0  0  0  0  0  0  0  0  0  0  0
   -4.8846    1.3511    0.0000 C   0  0  0  0  0  0  0  0  0  0  0  0
   -5.5972    0.1039    0.0000 C   0  0  0  0  0  0  0  0  0  0  0  0
  1 14  1  0  0  0  0
  1 16  1  0  0  0  0
  2 15  2  0  0  0  0
  3 20  2  0  0  0  0
  4 30  1  0  0  0  0
  4 34  1  0  0  0  0
  5 31  2  0  0  0  0
  6 34  2  0  0  0  0
  7 38  2  0  0  0  0
  8 43  1  0  0  0  0
  8 44  1  0  0  0  0
 17  9  1  1  0  0  0
  9 20  1  0  0  0  0
 10 21  1  0  0  0  0
 10 31  1  0  0  0  0
 11 25  1  0  0  0  0
 11 34  1  0  0  0  0
 12 35  1  0  0  0  0
 12 38  1  0  0  0  0
 13 40  1  0  0  0  0
 13 41  1  0  0  0  0
 13 42  1  0  0  0  0
 14 15  1  1  0  0  0
 14 16  1  0  0  0  0
 14 18  1  6  0  0  0
 15 17  1  0  0  0  0
 17 19  1  0  0  0  0
 19 22  1  0  0  0  0
 20 21  1  0  0  0  0
 21 26  1  0  0  0  0
 22 32  1  0  0  0  0
 22 33  1  0  0  0  0
 23 26  1  0  0  0  0
 23 27  1  0  0  0  0
 23 28  2  0  0  0  0
 24 25  1  0  0  0  0
 24 27  2  0  0  0  0
 24 30  1  0  0  0  0
 25 29  2  0  0  0  0
 28 29  1  0  0  0  0
 31 35  1  0  0  0  0
 32 36  1  0  0  0  0
 33 37  1  0  0  0  0
 35 39  1  1  0  0  0
 36 37  1  0  0  0  0
 38 40  1  0  0  0  0
 41 43  1  0  0  0  0
 42 44  1  0  0  0  0
M  END
> <PUBCHEM_COMPOUND_ID_TYPE>
0

> <PUBCHEM_TOTAL_CHARGE>
0

> <PUBCHEM_SUBSTANCE_ID>
310941046

> <PUBCHEM_SUBSTANCE_VERSION>
1

> <PUBCHEM_EXT_DATASOURCE_NAME>
4488

> <PUBCHEM_EXT_DATASOURCE_REGID>
SCHEMBL16119005

> <PUBCHEM_SUBSTANCE_COMMENT>
InChI=1S/C31H43N5O8/c1-19(32-26(37)16-36-9-11-42-12-10-36)28(39)34-25(15-21-7-8-23-22(13-21)17-43-30(41)35-23)29(40)33-24(14-20-5-3-4-6-20)27(38)31(2)18-44-31/h7-8,13,19-20,24-25H,3-6,9-12,14-18H2,1-2H3,(H,32,37)(H,33,40)(H,34,39)(H,35,41)/t19-,24-,25?,31+/m0/s1
InChIKey=GBJTZWXFNUOORC-INCLWJALSA-N

> <PUBCHEM_SUBSTANCE_SYNONYM>
SCHEMBL16119005

> <PUBCHEM_XREF_EXT_ID>
SCHEMBL16119005

> <PUBCHEM_EXT_DATASOURCE_URL>
https://www.surechembl.org/

> <PUBCHEM_EXT_SUBSTANCE_URL>
https://www.surechembl.org/chemical/SCHEMBL16119005

> <PUBCHEM_CID_ASSOCIATIONS>
117607938  1

> <PUBCHEM_COORDINATE_TYPE>
1
3

> <PUBCHEM_BONDANNOTATIONS>
14  15  5
14  18  6
35  39  5
17  9  5

$$$$
