310938689
  -OEChem-07211613022D

 35 39  0     0  0  0  0  0  0999 V2000
   -4.4170  -12.8262    0.0000 Cl  0  0  0  0  0  0  0  0  0  0  0  0
   -0.8447  -13.2387    0.0000 O   0  0  0  0  0  0  0  0  0  0  0  0
   -0.1302  -14.4762    0.0000 O   0  0  0  0  0  0  0  0  0  0  0  0
   -4.4170  -15.3012    0.0000 O   0  0  0  0  0  0  0  0  0  0  0  0
    0.5830  -10.7637    0.0000 N   0  0  0  0  0  0  0  0  0  0  0  0
   -0.1302  -12.0012    0.0000 N   0  0  0  0  0  0  0  0  0  0  0  0
    1.2987  -12.0012    0.0000 N   0  0  0  0  0  0  0  0  0  0  0  0
    1.2987  -14.4762    0.0000 N   0  0  0  0  0  0  0  0  0  0  0  0
    0.5830   -9.1137    0.0000 C   0  0  0  0  0  0  0  0  0  0  0  0
    0.9955   -8.3992    0.0000 C   0  0  0  0  0  0  0  0  0  0  0  0
    0.1705   -8.3992    0.0000 C   0  0  0  0  0  0  0  0  0  0  0  0
    0.5843  -11.5887    0.0000 C   0  0  0  0  0  0  0  0  0  0  0  0
   -0.1315   -9.5262    0.0000 C   0  0  0  0  0  0  0  0  0  0  0  0
    1.2975   -9.5262    0.0000 C   0  0  0  0  0  0  0  0  0  0  0  0
   -0.1302  -12.8262    0.0000 C   0  0  0  0  0  0  0  0  0  0  0  0
    0.5843  -13.2387    0.0000 C   0  0  0  0  0  0  0  0  0  0  0  0
   -0.1315  -10.3512    0.0000 C   0  0  0  0  0  0  0  0  0  0  0  0
    1.2975  -10.3512    0.0000 C   0  0  0  0  0  0  0  0  0  0  0  0
    1.2987  -12.8262    0.0000 C   0  0  0  0  0  0  0  0  0  0  0  0
    0.5843  -14.0637    0.0000 C   0  0  0  0  0  0  0  0  0  0  0  0
   -1.5591  -12.8262    0.0000 C   0  0  0  0  0  0  0  0  0  0  0  0
   -2.2736  -13.2387    0.0000 C   0  0  0  0  0  0  0  0  0  0  0  0
    2.0132  -14.0637    0.0000 C   0  0  0  0  0  0  0  0  0  0  0  0
   -3.7026  -13.2387    0.0000 C   0  0  0  0  0  0  0  0  0  0  0  0
   -2.9881  -12.8262    0.0000 C   0  0  0  0  0  0  0  0  0  0  0  0
   -3.7026  -14.0637    0.0000 C   0  0  0  0  0  0  0  0  0  0  0  0
   -2.2736  -14.0637    0.0000 C   0  0  0  0  0  0  0  0  0  0  0  0
   -2.9881  -14.4762    0.0000 C   0  0  0  0  0  0  0  0  0  0  0  0
    2.7277  -14.4762    0.0000 C   0  0  0  0  0  0  0  0  0  0  0  0
    2.0132  -13.2387    0.0000 C   0  0  0  0  0  0  0  0  0  0  0  0
    3.4422  -13.2387    0.0000 C   0  0  0  0  0  0  0  0  0  0  0  0
    3.4422  -14.0637    0.0000 C   0  0  0  0  0  0  0  0  0  0  0  0
    2.7277  -12.8262    0.0000 C   0  0  0  0  0  0  0  0  0  0  0  0
   -4.4170  -14.4762    0.0000 C   0  0  0  0  0  0  0  0  0  0  0  0
    4.1566  -12.8262    0.0000 C   0  0  0  0  0  0  0  0  0  0  0  0
  1 24  1  0  0  0  0
  2 15  1  0  0  0  0
  2 21  1  0  0  0  0
  3 20  2  0  0  0  0
  4 34  1  0  0  0  0
  5 12  1  0  0  0  0
  5 17  1  0  0  0  0
  5 18  1  0  0  0  0
  6 12  1  0  0  0  0
  6 15  2  0  0  0  0
  7 12  2  0  0  0  0
  7 19  1  0  0  0  0
  8 20  1  0  0  0  0
 23  8  1  1  0  0  0
  9 10  1  0  0  0  0
  9 11  1  0  0  0  0
  9 13  1  0  0  0  0
  9 14  1  0  0  0  0
 10 11  1  0  0  0  0
 13 17  1  0  0  0  0
 14 18  1  0  0  0  0
 15 16  1  0  0  0  0
 16 19  2  0  0  0  0
 16 20  1  0  0  0  0
 21 22  1  0  0  0  0
 22 25  2  0  0  0  0
 22 27  1  0  0  0  0
 23 29  1  0  0  0  0
 23 30  1  0  0  0  0
 24 25  1  0  0  0  0
 24 26  2  0  0  0  0
 26 28  1  0  0  0  0
 26 34  1  0  0  0  0
 27 28  2  0  0  0  0
 29 32  1  0  0  0  0
 30 33  1  0  0  0  0
 31 32  1  0  0  0  0
 31 33  1  0  0  0  0
 31 35  1  6  0  0  0
M  END
> <PUBCHEM_COMPOUND_ID_TYPE>
0

> <PUBCHEM_TOTAL_CHARGE>
0

> <PUBCHEM_SUBSTANCE_ID>
310938689

> <PUBCHEM_SUBSTANCE_VERSION>
1

> <PUBCHEM_EXT_DATASOURCE_NAME>
4488

> <PUBCHEM_EXT_DATASOURCE_REGID>
SCHEMBL16116603

> <PUBCHEM_SUBSTANCE_COMMENT>
InChI=1S/C27H35ClN4O3/c1-18-2-6-21(7-3-18)30-24(34)22-15-29-26(32-12-10-27(8-9-27)11-13-32)31-25(22)35-17-19-4-5-20(16-33)23(28)14-19/h4-5,14-15,18,21,33H,2-3,6-13,16-17H2,1H3,(H,30,34)/t18-,21-
InChIKey=ZUKCJJLNWXDSHC-XGAFWQRZSA-N

> <PUBCHEM_SUBSTANCE_SYNONYM>
SCHEMBL16116603

> <PUBCHEM_XREF_EXT_ID>
SCHEMBL16116603

> <PUBCHEM_EXT_DATASOURCE_URL>
https://www.surechembl.org/

> <PUBCHEM_EXT_SUBSTANCE_URL>
https://www.surechembl.org/chemical/SCHEMBL16116603

> <PUBCHEM_CID_ASSOCIATIONS>
117606120  1

> <PUBCHEM_COORDINATE_TYPE>
1
3

> <PUBCHEM_BONDANNOTATIONS>
31  35  6
23  8  5

$$$$
