310947791
  -OEChem-07211613022D

 30 32  0     0  0  0  0  0  0999 V2000
   -0.3832    1.3568    0.0000 S   0  0  0  0  0  0  0  0  0  0  0  0
   -1.5102    0.2299    0.0000 F   0  0  0  0  0  0  0  0  0  0  0  0
   -0.6852    0.2299    0.0000 F   0  0  0  0  0  0  0  0  0  0  0  0
   -2.2247    2.0713    0.0000 F   0  0  0  0  0  0  0  0  0  0  0  0
   -1.3997    2.0713    0.0000 F   0  0  0  0  0  0  0  0  0  0  0  0
   -1.8122    3.9221    0.0000 O   0  0  0  0  0  0  0  0  0  0  0  0
   -2.5266    0.9443    0.0000 O   0  0  0  0  0  0  0  0  0  0  0  0
   -0.7957    2.0713    0.0000 O   0  0  0  0  0  0  0  0  0  0  0  0
    0.0293    0.6424    0.0000 O   0  0  0  0  0  0  0  0  0  0  0  0
    0.3313    1.7693    0.0000 O   0  0  0  0  0  0  0  0  0  0  0  0
   -2.5266    5.1596    0.0000 O   0  0  0  0  0  0  0  0  0  0  0  0
   -1.0977    4.3346    0.0000 C   0  0  0  0  0  0  0  0  0  0  0  0
   -1.0977    3.5096    0.0000 C   0  0  0  0  0  0  0  0  0  0  0  0
   -0.3833    4.7463    0.0000 C   0  0  0  0  0  0  0  0  0  0  0  0
   -1.0977    0.9443    0.0000 C   0  0  0  0  0  0  0  0  0  0  0  0
   -1.8122    1.3568    0.0000 C   0  0  0  0  0  0  0  0  0  0  0  0
    0.3282    3.5096    0.0000 C   0  0  0  0  0  0  0  0  0  0  0  0
   -0.7965    2.8360    0.0000 C   0  0  0  0  0  0  0  0  0  0  0  0
   -1.0977    5.1596    0.0000 C   0  0  0  0  0  0  0  0  0  0  0  0
    0.3282    4.3346    0.0000 C   0  0  0  0  0  0  0  0  0  0  0  0
   -1.5444    2.4911    0.0000 C   0  0  0  0  0  0  0  0  0  0  0  0
   -0.3833    3.0964    0.0000 C   0  0  0  0  0  0  0  0  0  0  0  0
   -0.7878    4.1221    0.0000 C   0  0  0  0  0  0  0  0  0  0  0  0
   -0.1520    2.4780    0.0000 C   0  0  0  0  0  0  0  0  0  0  0  0
   -2.5266    4.3346    0.0000 C   0  0  0  0  0  0  0  0  0  0  0  0
   -3.2411    3.9221    0.0000 C   0  0  0  0  0  0  0  0  0  0  0  0
   -3.2411    1.3568    0.0000 C   0  0  0  0  0  0  0  0  0  0  0  0
   -1.8122    5.5721    0.0000 C   0  0  0  0  0  0  0  0  0  0  0  0
   -0.3832    5.5721    0.0000 C   0  0  0  0  0  0  0  0  0  0  0  0
   -3.9556    4.3346    0.0000 C   0  0  0  0  0  0  0  0  0  0  0  0
  1  8  2  0  0  0  0
  1  9  2  0  0  0  0
  1 10  1  0  0  0  0
  1 15  1  0  0  0  0
  2 15  1  0  0  0  0
  3 15  1  0  0  0  0
  4 16  1  0  0  0  0
  5 16  1  0  0  0  0
  6 12  1  0  0  0  0
  6 25  1  0  0  0  0
  7 16  1  0  0  0  0
  7 27  1  0  0  0  0
 11 25  2  0  0  0  0
 12 13  1  0  0  0  0
 12 14  1  0  0  0  0
 12 19  1  0  0  0  0
 13 21  1  0  0  0  0
 13 22  1  0  0  0  0
 14 20  1  0  0  0  0
 14 23  1  0  0  0  0
 15 16  1  0  0  0  0
 17 20  1  0  0  0  0
 17 22  1  0  0  0  0
 17 24  1  0  0  0  0
 18 21  1  0  0  0  0
 18 23  1  0  0  0  0
 18 24  1  0  0  0  0
 19 28  1  0  0  0  0
 19 29  1  0  0  0  0
 25 26  1  0  0  0  0
 26 27  1  0  0  0  0
 26 30  2  0  0  0  0
M  END
> <PUBCHEM_COMPOUND_ID_TYPE>
0

> <PUBCHEM_TOTAL_CHARGE>
0

> <PUBCHEM_SUBSTANCE_ID>
310947791

> <PUBCHEM_SUBSTANCE_VERSION>
1

> <PUBCHEM_EXT_DATASOURCE_NAME>
4488

> <PUBCHEM_EXT_DATASOURCE_REGID>
SCHEMBL16125963

> <PUBCHEM_SUBSTANCE_COMMENT>
InChI=1S/C19H26F4O6S/c1-10(2)17(14-5-12-4-13(7-14)8-15(17)6-12)29-16(24)11(3)9-28-18(20,21)19(22,23)30(25,26)27/h10,12-15H,3-9H2,1-2H3,(H,25,26,27)
InChIKey=UJWRBLPDFOIZRD-UHFFFAOYSA-N

> <PUBCHEM_SUBSTANCE_SYNONYM>
SCHEMBL16125963

> <PUBCHEM_XREF_EXT_ID>
SCHEMBL16125963

> <PUBCHEM_EXT_DATASOURCE_URL>
https://www.surechembl.org/

> <PUBCHEM_EXT_SUBSTANCE_URL>
https://www.surechembl.org/chemical/SCHEMBL16125963

> <PUBCHEM_CID_ASSOCIATIONS>
117613460  1

> <PUBCHEM_COORDINATE_TYPE>
1
3

$$$$
