310940153
  -OEChem-07211613022D

 35 39  0     0  0  0  0  0  0999 V2000
    1.8657    4.8477    0.0000 F   0  0  0  0  0  0  0  0  0  0  0  0
   -0.0234   -3.8329    0.0000 F   0  0  0  0  0  0  0  0  0  0  0  0
   -0.5074   -4.8477    0.0000 F   0  0  0  0  0  0  0  0  0  0  0  0
   -1.5222   -4.3482    0.0000 F   0  0  0  0  0  0  0  0  0  0  0  0
   -2.8649    0.4918    0.0000 O   0  0  0  0  0  0  0  0  0  0  0  0
   -0.1014    0.3513    0.0000 N   0  0  0  0  0  0  0  0  0  0  0  0
   -0.4449   -0.3981    0.0000 N   0  0  0  0  0  0  0  0  0  0  0  0
   -1.8189   -0.9289    0.0000 N   0  0  0  0  0  0  0  0  0  0  0  0
   -2.1624    1.7408    0.0000 N   0  0  0  0  0  0  0  0  0  0  0  0
    1.3505    2.9117    0.0000 N   0  0  0  0  0  0  0  0  0  0  0  0
    2.8649    0.2264    0.0000 N   0  0  0  0  0  0  0  0  0  0  0  0
    0.6947    0.5231    0.0000 C   0  0  0  0  0  0  0  0  0  0  0  0
   -0.7416    0.9134    0.0000 C   0  0  0  0  0  0  0  0  0  0  0  0
   -1.4286    0.5074    0.0000 C   0  0  0  0  0  0  0  0  0  0  0  0
   -1.2724   -0.3044    0.0000 C   0  0  0  0  0  0  0  0  0  0  0  0
   -2.1467    0.9289    0.0000 C   0  0  0  0  0  0  0  0  0  0  0  0
    0.1327    1.1163    0.0000 C   0  0  0  0  0  0  0  0  0  0  0  0
    1.4910    0.7416    0.0000 C   0  0  0  0  0  0  0  0  0  0  0  0
   -0.7104    1.7252    0.0000 C   0  0  0  0  0  0  0  0  0  0  0  0
    1.2724   -0.0859    0.0000 C   0  0  0  0  0  0  0  0  0  0  0  0
    1.1476    2.0999    0.0000 C   0  0  0  0  0  0  0  0  0  0  0  0
    0.3357    1.8969    0.0000 C   0  0  0  0  0  0  0  0  0  0  0  0
    1.7096    1.5534    0.0000 C   0  0  0  0  0  0  0  0  0  0  0  0
   -1.4286    2.1467    0.0000 C   0  0  0  0  0  0  0  0  0  0  0  0
   -1.5691   -1.6940    0.0000 C   0  0  0  0  0  0  0  0  0  0  0  0
    2.0687    0.0859    0.0000 C   0  0  0  0  0  0  0  0  0  0  0  0
    2.0531    3.3333    0.0000 C   0  0  0  0  0  0  0  0  0  0  0  0
    0.9602    3.6455    0.0000 C   0  0  0  0  0  0  0  0  0  0  0  0
    1.6471    4.0515    0.0000 C   0  0  0  0  0  0  0  0  0  0  0  0
   -2.0999   -2.3185    0.0000 C   0  0  0  0  0  0  0  0  0  0  0  0
   -0.7572   -1.8969    0.0000 C   0  0  0  0  0  0  0  0  0  0  0  0
   -1.0539   -3.3020    0.0000 C   0  0  0  0  0  0  0  0  0  0  0  0
   -1.8657   -3.1147    0.0000 C   0  0  0  0  0  0  0  0  0  0  0  0
   -0.5074   -2.6776    0.0000 C   0  0  0  0  0  0  0  0  0  0  0  0
   -0.7884   -4.0827    0.0000 C   0  0  0  0  0  0  0  0  0  0  0  0
  1 29  1  0  0  0  0
  2 35  1  0  0  0  0
  3 35  1  0  0  0  0
  4 35  1  0  0  0  0
  5 16  2  0  0  0  0
  6  7  1  0  0  0  0
  6 12  1  0  0  0  0
  6 13  1  0  0  0  0
  7 15  2  0  0  0  0
  8 15  1  0  0  0  0
  8 25  1  0  0  0  0
  9 16  1  0  0  0  0
  9 24  1  0  0  0  0
 21 10  1  6  0  0  0
 10 27  1  0  0  0  0
 10 28  1  0  0  0  0
 11 26  3  0  0  0  0
 12 17  1  0  0  0  0
 12 18  1  0  0  0  0
 12 20  1  6  0  0  0
 13 14  2  0  0  0  0
 13 19  1  0  0  0  0
 14 15  1  0  0  0  0
 14 16  1  0  0  0  0
 17 22  1  0  0  0  0
 18 23  1  0  0  0  0
 19 24  2  0  0  0  0
 20 26  1  0  0  0  0
 21 22  1  0  0  0  0
 21 23  1  0  0  0  0
 25 30  2  0  0  0  0
 25 31  1  0  0  0  0
 27 29  1  0  0  0  0
 28 29  1  0  0  0  0
 30 33  1  0  0  0  0
 31 34  2  0  0  0  0
 32 33  2  0  0  0  0
 32 34  1  0  0  0  0
 32 35  1  0  0  0  0
M  END
> <PUBCHEM_COMPOUND_ID_TYPE>
0

> <PUBCHEM_TOTAL_CHARGE>
0

> <PUBCHEM_SUBSTANCE_ID>
310940153

> <PUBCHEM_SUBSTANCE_VERSION>
1

> <PUBCHEM_EXT_DATASOURCE_NAME>
4488

> <PUBCHEM_EXT_DATASOURCE_REGID>
SCHEMBL16118086

> <PUBCHEM_SUBSTANCE_COMMENT>
InChI=1S/C24H24F4N6O/c25-16-13-33(14-16)18-5-8-23(9-6-18,10-11-29)34-19-7-12-30-22(35)20(19)21(32-34)31-17-3-1-15(2-4-17)24(26,27)28/h1-4,7,12,16,18H,5-6,8-10,13-14H2,(H,30,35)(H,31,32)/t18-,23-
InChIKey=DBQKIMGOWUTYQI-RXAXNXDRSA-N

> <PUBCHEM_SUBSTANCE_SYNONYM>
SCHEMBL16118086

> <PUBCHEM_XREF_EXT_ID>
SCHEMBL16118086

> <PUBCHEM_EXT_DATASOURCE_URL>
https://www.surechembl.org/

> <PUBCHEM_EXT_SUBSTANCE_URL>
https://www.surechembl.org/chemical/SCHEMBL16118086

> <PUBCHEM_CID_ASSOCIATIONS>
90460110  1

> <PUBCHEM_COORDINATE_TYPE>
1
3

> <PUBCHEM_BONDANNOTATIONS>
21  10  6
12  20  6

$$$$
