310936602
  -OEChem-07211613022D

 46 49  0     1  0  0  0  0  0999 V2000
  -10.9922    0.8178    0.0000 F   0  0  0  0  0  0  0  0  0  0  0  0
  -11.8127    0.7316    0.0000 F   0  0  0  0  0  0  0  0  0  0  0  0
  -12.2976    1.3990    0.0000 F   0  0  0  0  0  0  0  0  0  0  0  0
  -12.2608    4.9950    0.0000 F   0  0  0  0  0  0  0  0  0  0  0  0
  -11.4403    5.0812    0.0000 F   0  0  0  0  0  0  0  0  0  0  0  0
  -12.5964    4.2413    0.0000 F   0  0  0  0  0  0  0  0  0  0  0  0
   -5.7159    5.7751    0.0000 F   0  0  0  0  0  0  0  0  0  0  0  0
   -5.0013    5.3626    0.0000 F   0  0  0  0  0  0  0  0  0  0  0  0
   -6.4303    5.3626    0.0000 F   0  0  0  0  0  0  0  0  0  0  0  0
   -8.7525    3.8796    0.0000 O   0  0  0  0  0  0  0  0  0  0  0  0
   -7.3324    4.2601    0.0000 O   0  0  0  0  0  0  0  0  0  0  0  0
   -1.4290    0.0000    0.0000 O   0  0  0  0  0  0  0  0  0  0  0  0
   -2.1434    1.2375    0.0000 O   0  0  0  0  0  0  0  0  0  0  0  0
   -7.8593    2.8875    0.0000 N   0  0  0  0  0  0  0  0  0  0  0  0
   -5.7159    1.6500    0.0000 N   0  0  0  0  0  0  0  0  0  0  0  0
   -5.0013    2.8875    0.0000 N   0  0  0  0  0  0  0  0  0  0  0  0
   -9.1650    3.1651    0.0000 C   0  0  3  0  0  0  0  0  0  0  0  0
   -8.6130    2.5520    0.0000 C   0  0  3  0  0  0  0  0  0  0  0  0
   -9.9855    3.0788    0.0000 C   0  0  0  0  0  0  0  0  0  0  0  0
   -7.9455    3.7080    0.0000 C   0  0  0  0  0  0  0  0  0  0  0  0
   -6.4303    2.8875    0.0000 C   0  0  0  0  0  0  0  0  0  0  0  0
  -11.1416    2.2389    0.0000 C   0  0  0  0  0  0  0  0  0  0  0  0
  -11.2910    3.6601    0.0000 C   0  0  0  0  0  0  0  0  0  0  0  0
   -7.1448    2.4750    0.0000 C   0  0  0  0  0  0  0  0  0  0  0  0
   -5.7159    2.4750    0.0000 C   0  0  0  0  0  0  0  0  0  0  0  0
  -10.4705    3.7463    0.0000 C   0  0  0  0  0  0  0  0  0  0  0  0
  -10.3211    2.3252    0.0000 C   0  0  0  0  0  0  0  0  0  0  0  0
  -11.6265    2.9064    0.0000 C   0  0  0  0  0  0  0  0  0  0  0  0
  -11.4772    1.4853    0.0000 C   0  0  0  0  0  0  0  0  0  0  0  0
  -11.7759    4.3275    0.0000 C   0  0  0  0  0  0  0  0  0  0  0  0
   -5.7159    4.1251    0.0000 C   0  0  0  0  0  0  0  0  0  0  0  0
   -6.4303    3.7126    0.0000 C   0  0  0  0  0  0  0  0  0  0  0  0
   -5.7159    4.9501    0.0000 C   0  0  0  0  0  0  0  0  0  0  0  0
   -8.7845    1.7450    0.0000 C   0  0  0  0  0  0  0  0  0  0  0  0
   -5.0013    1.2375    0.0000 C   0  0  0  0  0  0  0  0  0  0  0  0
   -5.0013    3.7126    0.0000 C   0  0  0  0  0  0  0  0  0  0  0  0
   -6.4303    1.2375    0.0000 C   0  0  0  0  0  0  0  0  0  0  0  0
   -5.0013    0.4125    0.0000 C   0  0  0  0  0  0  0  0  0  0  0  0
   -4.2869    1.6500    0.0000 C   0  0  0  0  0  0  0  0  0  0  0  0
   -3.5724    0.4125    0.0000 C   0  0  0  0  0  0  0  0  0  0  0  0
   -4.2869    0.0000    0.0000 C   0  0  0  0  0  0  0  0  0  0  0  0
   -3.5724    1.2375    0.0000 C   0  0  0  0  0  0  0  0  0  0  0  0
   -7.1448    1.6500    0.0000 C   0  0  0  0  0  0  0  0  0  0  0  0
   -2.8579    0.0000    0.0000 C   0  0  0  0  0  0  0  0  0  0  0  0
   -2.1434    0.4125    0.0000 C   0  0  0  0  0  0  0  0  0  0  0  0
   -0.7145    0.4125    0.0000 C   0  0  0  0  0  0  0  0  0  0  0  0
  1 29  1  0  0  0  0
  2 29  1  0  0  0  0
  3 29  1  0  0  0  0
  4 30  1  0  0  0  0
  5 30  1  0  0  0  0
  6 30  1  0  0  0  0
  7 33  1  0  0  0  0
  8 33  1  0  0  0  0
  9 33  1  0  0  0  0
 17 10  1  1  0  0  0
 10 20  1  0  0  0  0
 11 20  2  0  0  0  0
 12 45  1  0  0  0  0
 12 46  1  0  0  0  0
 13 45  2  0  0  0  0
 14 18  1  0  0  0  0
 14 20  1  0  0  0  0
 14 24  1  0  0  0  0
 15 25  1  0  0  0  0
 15 35  1  0  0  0  0
 15 37  1  0  0  0  0
 16 25  2  0  0  0  0
 16 36  1  0  0  0  0
 17 18  1  0  0  0  0
 17 19  1  0  0  0  0
 18 34  1  1  0  0  0
 19 26  2  0  0  0  0
 19 27  1  0  0  0  0
 21 24  1  0  0  0  0
 21 25  1  0  0  0  0
 21 32  2  0  0  0  0
 22 27  2  0  0  0  0
 22 28  1  0  0  0  0
 22 29  1  0  0  0  0
 23 26  1  0  0  0  0
 23 28  2  0  0  0  0
 23 30  1  0  0  0  0
 31 32  1  0  0  0  0
 31 33  1  0  0  0  0
 31 36  2  0  0  0  0
 35 38  1  0  0  0  0
 35 39  1  0  0  0  0
 37 43  1  0  0  0  0
 38 41  1  0  0  0  0
 39 42  1  0  0  0  0
 40 41  1  0  0  0  0
 40 42  1  0  0  0  0
 40 44  1  0  0  0  0
 44 45  1  0  0  0  0
M  END
> <PUBCHEM_COMPOUND_ID_TYPE>
0

> <PUBCHEM_TOTAL_CHARGE>
0

> <PUBCHEM_SUBSTANCE_ID>
310936602

> <PUBCHEM_SUBSTANCE_VERSION>
1

> <PUBCHEM_EXT_DATASOURCE_NAME>
4488

> <PUBCHEM_EXT_DATASOURCE_REGID>
SCHEMBL16114262

> <PUBCHEM_SUBSTANCE_COMMENT>
InChI=1S/C30H32F9N3O4/c1-4-41(23-7-5-17(6-8-23)9-24(43)45-3)26-19(12-22(14-40-26)30(37,38)39)15-42-16(2)25(46-27(42)44)18-10-20(28(31,32)33)13-21(11-18)29(34,35)36/h10-14,16-17,23,25H,4-9,15H2,1-3H3/t16-,17?,23?,25-/m0/s1
InChIKey=DWZCPTPPZUTBLL-DOWNRCOKSA-N

> <PUBCHEM_SUBSTANCE_SYNONYM>
SCHEMBL16114262

> <PUBCHEM_XREF_EXT_ID>
SCHEMBL16114262

> <PUBCHEM_EXT_DATASOURCE_URL>
https://www.surechembl.org/

> <PUBCHEM_EXT_SUBSTANCE_URL>
https://www.surechembl.org/chemical/SCHEMBL16114262

> <PUBCHEM_CID_ASSOCIATIONS>
117604521  1

> <PUBCHEM_COORDINATE_TYPE>
1
3

> <PUBCHEM_BONDANNOTATIONS>
17  10  5
18  34  5

$$$$
