310941999
  -OEChem-07211613022D

 34 37  0     0  0  0  0  0  0999 V2000
   -2.4188   -6.6207    0.0000 F   0  0  0  0  0  0  0  0  0  0  0  0
    2.1278   -1.9663    0.0000 O   0  0  0  0  0  0  0  0  0  0  0  0
    1.8908    0.9966    0.0000 O   0  0  0  0  0  0  0  0  0  0  0  0
    1.9124    3.1838    0.0000 O   0  0  0  0  0  0  0  0  0  0  0  0
    1.6754    6.1466    0.0000 O   0  0  0  0  0  0  0  0  0  0  0  0
   -1.0074   -4.1534    0.0000 N   0  0  0  0  0  0  0  0  0  0  0  0
    1.0613   -1.0182    0.0000 N   0  0  0  0  0  0  0  0  0  0  0  0
    2.7420    5.2092    0.0000 N   0  0  0  0  0  0  0  0  0  0  0  0
   -0.5764   -2.8821    0.0000 C   0  0  0  0  0  0  0  0  0  0  0  0
   -0.3286   -3.6578    0.0000 C   0  0  0  0  0  0  0  0  0  0  0  0
   -1.4384   -2.8605    0.0000 C   0  0  0  0  0  0  0  0  0  0  0  0
   -0.0377   -2.2464    0.0000 C   0  0  0  0  0  0  0  0  0  0  0  0
   -1.6861   -3.6578    0.0000 C   0  0  0  0  0  0  0  0  0  0  0  0
    0.7703   -2.4188    0.0000 C   0  0  0  0  0  0  0  0  0  0  0  0
    0.4686   -3.8301    0.0000 C   0  0  0  0  0  0  0  0  0  0  0  0
    1.3091   -1.7939    0.0000 C   0  0  0  0  0  0  0  0  0  0  0  0
    1.0289   -3.2269    0.0000 C   0  0  0  0  0  0  0  0  0  0  0  0
   -0.2963   -1.4815    0.0000 C   0  0  0  0  0  0  0  0  0  0  0  0
   -1.9663   -2.2680    0.0000 C   0  0  0  0  0  0  0  0  0  0  0  0
   -2.4726   -3.8301    0.0000 C   0  0  0  0  0  0  0  0  0  0  0  0
   -0.9966   -4.9830    0.0000 C   0  0  0  0  0  0  0  0  0  0  0  0
    0.2532   -0.8673    0.0000 C   0  0  0  0  0  0  0  0  0  0  0  0
   -2.7743   -2.4404    0.0000 C   0  0  0  0  0  0  0  0  0  0  0  0
   -3.0329   -3.2269    0.0000 C   0  0  0  0  0  0  0  0  0  0  0  0
    1.5999   -0.3933    0.0000 C   0  0  0  0  0  0  0  0  0  0  0  0
   -1.6969   -5.3816    0.0000 C   0  0  0  0  0  0  0  0  0  0  0  0
    1.3629    0.3933    0.0000 C   0  0  0  0  0  0  0  0  0  0  0  0
   -1.7185   -6.2112    0.0000 C   0  0  0  0  0  0  0  0  0  0  0  0
    1.6323    1.7831    0.0000 C   0  0  0  0  0  0  0  0  0  0  0  0
    2.1709    2.4080    0.0000 C   0  0  0  0  0  0  0  0  0  0  0  0
    2.4619    3.8086    0.0000 C   0  0  0  0  0  0  0  0  0  0  0  0
    2.2033    4.5844    0.0000 C   0  0  0  0  0  0  0  0  0  0  0  0
    2.4834    5.9850    0.0000 C   0  0  0  0  0  0  0  0  0  0  0  0
    3.0329    6.6207    0.0000 C   0  0  0  0  0  0  0  0  0  0  0  0
  1 28  1  0  0  0  0
  2 16  2  0  0  0  0
  3 27  1  0  0  0  0
  3 29  1  0  0  0  0
  4 30  1  0  0  0  0
  4 31  1  0  0  0  0
  5 33  2  0  0  0  0
  6 10  1  0  0  0  0
  6 13  1  0  0  0  0
  6 21  1  0  0  0  0
  7 16  1  0  0  0  0
  7 22  1  0  0  0  0
  7 25  1  0  0  0  0
  8 32  1  0  0  0  0
  8 33  1  0  0  0  0
  9 10  2  0  0  0  0
  9 11  1  0  0  0  0
  9 12  1  0  0  0  0
 10 15  1  0  0  0  0
 11 13  1  0  0  0  0
 11 19  2  0  0  0  0
 12 14  2  0  0  0  0
 12 18  1  0  0  0  0
 13 20  2  0  0  0  0
 14 16  1  0  0  0  0
 14 17  1  0  0  0  0
 15 17  2  0  0  0  0
 18 22  2  0  0  0  0
 19 23  1  0  0  0  0
 20 24  1  0  0  0  0
 21 26  1  0  0  0  0
 23 24  2  0  0  0  0
 25 27  1  0  0  0  0
 26 28  1  0  0  0  0
 29 30  1  0  0  0  0
 31 32  1  0  0  0  0
 33 34  1  0  0  0  0
M  END
> <PUBCHEM_COMPOUND_ID_TYPE>
0

> <PUBCHEM_TOTAL_CHARGE>
0

> <PUBCHEM_SUBSTANCE_ID>
310941999

> <PUBCHEM_SUBSTANCE_VERSION>
1

> <PUBCHEM_EXT_DATASOURCE_NAME>
4488

> <PUBCHEM_EXT_DATASOURCE_REGID>
SCHEMBL16120033

> <PUBCHEM_SUBSTANCE_COMMENT>
InChI=1S/C26H30FN3O4/c1-19(31)28-11-15-33-17-18-34-16-14-29-13-9-20-21(26(29)32)7-8-24-25(20)22-5-2-3-6-23(22)30(24)12-4-10-27/h2-3,5-9,13H,4,10-12,14-18H2,1H3,(H,28,31)
InChIKey=LNCYEECRVSIMPO-UHFFFAOYSA-N

> <PUBCHEM_SUBSTANCE_SYNONYM>
SCHEMBL16120033

> <PUBCHEM_XREF_EXT_ID>
SCHEMBL16120033

> <PUBCHEM_EXT_DATASOURCE_URL>
https://www.surechembl.org/

> <PUBCHEM_EXT_SUBSTANCE_URL>
https://www.surechembl.org/chemical/SCHEMBL16120033

> <PUBCHEM_CID_ASSOCIATIONS>
117608692  1

> <PUBCHEM_COORDINATE_TYPE>
1
3

$$$$
