310932115
  -OEChem-07211613022D

 15 16  0     1  0  0  0  0  0999 V2000
    0.9055   -4.2728    0.0000 O   0  0  0  0  0  0  0  0  0  0  0  0
    2.2071   -4.4426    0.0000 O   0  0  0  0  0  0  0  0  0  0  0  0
    0.8772   -1.3582    0.0000 O   0  0  0  0  0  0  0  0  0  0  0  0
    0.0000   -2.8296    0.0000 O   0  0  0  0  0  0  0  0  0  0  0  0
    1.2451   -3.5371    0.0000 C   0  0  3  0  0  0  0  0  0  0  0  0
    1.4997   -4.8387    0.0000 C   0  0  0  0  0  0  0  0  0  0  0  0
    0.8206   -2.8296    0.0000 C   0  0  3  0  0  0  0  0  0  0  0  0
    1.2451   -2.1222    0.0000 C   0  0  0  0  0  0  0  0  0  0  0  0
    2.0657   -3.6220    0.0000 C   0  0  0  0  0  0  0  0  0  0  0  0
    2.0374   -2.0374    0.0000 C   0  0  0  0  0  0  0  0  0  0  0  0
    1.4997   -0.8206    0.0000 C   0  0  0  0  0  0  0  0  0  0  0  0
    2.2071   -1.2168    0.0000 C   0  0  0  0  0  0  0  0  0  0  0  0
    1.4148   -5.6593    0.0000 C   0  0  0  0  0  0  0  0  0  0  0  0
    0.7357   -5.1217    0.0000 C   0  0  0  0  0  0  0  0  0  0  0  0
    1.4148    0.0000    0.0000 C   0  0  0  0  0  0  0  0  0  0  0  0
  1  5  1  0  0  0  0
  1  6  1  0  0  0  0
  2  6  1  0  0  0  0
  2  9  1  0  0  0  0
  3  8  1  0  0  0  0
  3 11  1  0  0  0  0
  4  7  1  0  0  0  0
  5  7  1  6  0  0  0
  5  9  1  0  0  0  0
  6 13  1  0  0  0  0
  6 14  1  0  0  0  0
  7  8  1  0  0  0  0
  8 10  2  0  0  0  0
 10 12  1  0  0  0  0
 11 12  2  0  0  0  0
 11 15  1  0  0  0  0
M  END
> <PUBCHEM_COMPOUND_ID_TYPE>
0

> <PUBCHEM_TOTAL_CHARGE>
0

> <PUBCHEM_SUBSTANCE_ID>
310932115

> <PUBCHEM_SUBSTANCE_VERSION>
1

> <PUBCHEM_EXT_DATASOURCE_NAME>
4488

> <PUBCHEM_EXT_DATASOURCE_REGID>
SCHEMBL16109466

> <PUBCHEM_SUBSTANCE_COMMENT>
InChI=1S/C11H16O4/c1-7-4-5-8(14-7)10(12)9-6-13-11(2,3)15-9/h4-5,9-10,12H,6H2,1-3H3/t9-,10?/m0/s1
InChIKey=KJLCXMDTFUVRJA-RGURZIINSA-N

> <PUBCHEM_SUBSTANCE_SYNONYM>
SCHEMBL16109466

> <PUBCHEM_XREF_EXT_ID>
SCHEMBL16109466

> <PUBCHEM_EXT_DATASOURCE_URL>
https://www.surechembl.org/

> <PUBCHEM_EXT_SUBSTANCE_URL>
https://www.surechembl.org/chemical/SCHEMBL16109466

> <PUBCHEM_CID_ASSOCIATIONS>
117600731  1

> <PUBCHEM_COORDINATE_TYPE>
1
3

> <PUBCHEM_BONDANNOTATIONS>
5  7  6

$$$$
