310943271
  -OEChem-07211613022D

 33 36  0     0  0  0  0  0  0999 V2000
   -3.0937   -0.0580    0.0000 Cl  0  0  0  0  0  0  0  0  0  0  0  0
    4.2529   -2.5068    0.0000 F   0  0  0  0  0  0  0  0  0  0  0  0
    1.4273   -0.0580    0.0000 O   0  0  0  0  0  0  0  0  0  0  0  0
   -4.2529    2.4053    0.0000 O   0  0  0  0  0  0  0  0  0  0  0  0
   -2.8328    1.5939    0.0000 N   0  0  0  0  0  0  0  0  0  0  0  0
   -1.4128   -0.0580    0.0000 N   0  0  0  0  0  0  0  0  0  0  0  0
    2.1373    1.1737    0.0000 N   0  0  0  0  0  0  0  0  0  0  0  0
    0.7172    2.8256    0.0000 N   0  0  0  0  0  0  0  0  0  0  0  0
    4.2674   -0.8694    0.0000 N   0  0  0  0  0  0  0  0  0  0  0  0
   -0.0217    1.5939    0.0000 C   0  0  0  0  0  0  0  0  0  0  0  0
   -0.7028    1.1882    0.0000 C   0  0  0  0  0  0  0  0  0  0  0  0
   -2.1228    1.1882    0.0000 C   0  0  0  0  0  0  0  0  0  0  0  0
   -1.4418    1.5939    0.0000 C   0  0  0  0  0  0  0  0  0  0  0  0
   -0.0072    2.4199    0.0000 C   0  0  0  0  0  0  0  0  0  0  0  0
   -2.1518    0.3622    0.0000 C   0  0  0  0  0  0  0  0  0  0  0  0
    1.3983    1.5939    0.0000 C   0  0  0  0  0  0  0  0  0  0  0  0
    0.7028    1.1882    0.0000 C   0  0  0  0  0  0  0  0  0  0  0  0
   -0.7172    0.3622    0.0000 C   0  0  0  0  0  0  0  0  0  0  0  0
    2.8328   -0.0434    0.0000 C   0  0  0  0  0  0  0  0  0  0  0  0
    2.1228    0.3767    0.0000 C   0  0  0  0  0  0  0  0  0  0  0  0
    3.5429   -1.2751    0.0000 C   0  0  0  0  0  0  0  0  0  0  0  0
    1.4128    2.4053    0.0000 C   0  0  0  0  0  0  0  0  0  0  0  0
    3.5283   -2.1011    0.0000 C   0  0  0  0  0  0  0  0  0  0  0  0
    2.8328   -0.8694    0.0000 C   0  0  0  0  0  0  0  0  0  0  0  0
   -2.8473    2.4053    0.0000 C   0  0  0  0  0  0  0  0  0  0  0  0
   -3.5428    1.1882    0.0000 C   0  0  0  0  0  0  0  0  0  0  0  0
    3.5429    0.3622    0.0000 C   0  0  0  0  0  0  0  0  0  0  0  0
   -0.7318    2.8111    0.0000 C   0  0  0  0  0  0  0  0  0  0  0  0
    4.2529   -0.0580    0.0000 C   0  0  0  0  0  0  0  0  0  0  0  0
   -3.5574    2.8256    0.0000 C   0  0  0  0  0  0  0  0  0  0  0  0
   -4.2674    1.5939    0.0000 C   0  0  0  0  0  0  0  0  0  0  0  0
    2.7169   -2.1156    0.0000 C   0  0  0  0  0  0  0  0  0  0  0  0
    3.1516   -2.8256    0.0000 C   0  0  0  0  0  0  0  0  0  0  0  0
  1 15  1  0  0  0  0
  2 23  1  0  0  0  0
  3 20  2  0  0  0  0
  4 30  1  0  0  0  0
  4 31  1  0  0  0  0
  5 12  1  0  0  0  0
  5 25  1  0  0  0  0
  5 26  1  0  0  0  0
  6 15  2  0  0  0  0
  6 18  1  0  0  0  0
  7 16  1  0  0  0  0
  7 20  1  0  0  0  0
  8 14  1  0  0  0  0
  8 22  2  0  0  0  0
  9 21  2  0  0  0  0
  9 29  1  0  0  0  0
 10 11  1  0  0  0  0
 10 14  2  0  0  0  0
 10 17  1  0  0  0  0
 11 13  1  0  0  0  0
 11 18  2  0  0  0  0
 12 13  2  0  0  0  0
 12 15  1  0  0  0  0
 14 28  1  0  0  0  0
 16 17  2  0  0  0  0
 16 22  1  0  0  0  0
 19 20  1  0  0  0  0
 19 24  2  0  0  0  0
 19 27  1  0  0  0  0
 21 23  1  0  0  0  0
 21 24  1  0  0  0  0
 23 32  1  0  0  0  0
 23 33  1  0  0  0  0
 25 30  1  0  0  0  0
 26 31  1  0  0  0  0
 27 29  2  0  0  0  0
M  END
> <PUBCHEM_COMPOUND_ID_TYPE>
0

> <PUBCHEM_TOTAL_CHARGE>
0

> <PUBCHEM_SUBSTANCE_ID>
310943271

> <PUBCHEM_SUBSTANCE_VERSION>
1

> <PUBCHEM_EXT_DATASOURCE_NAME>
4488

> <PUBCHEM_EXT_DATASOURCE_REGID>
SCHEMBL16121333

> <PUBCHEM_SUBSTANCE_COMMENT>
InChI=1S/C24H25ClFN5O2/c1-15-19(17-10-20(22(25)29-13-17)31-6-8-33-9-7-31)12-18(14-28-15)30-23(32)16-4-5-27-21(11-16)24(2,3)26/h4-5,10-14H,6-9H2,1-3H3,(H,30,32)
InChIKey=GLHNIUWAOYTVDL-UHFFFAOYSA-N

> <PUBCHEM_SUBSTANCE_SYNONYM>
SCHEMBL16121333

> <PUBCHEM_XREF_EXT_ID>
SCHEMBL16121333

> <PUBCHEM_EXT_DATASOURCE_URL>
https://www.surechembl.org/

> <PUBCHEM_EXT_SUBSTANCE_URL>
https://www.surechembl.org/chemical/SCHEMBL16121333

> <PUBCHEM_CID_ASSOCIATIONS>
117609696  1

> <PUBCHEM_COORDINATE_TYPE>
1
3

$$$$
