310941828
  -OEChem-07211613022D

 36 40  0     1  0  0  0  0  0999 V2000
   -5.8234   -1.8715    0.0000 Cl  0  0  0  0  0  0  0  0  0  0  0  0
   -4.0756    0.6342    0.0000 Cl  0  0  0  0  0  0  0  0  0  0  0  0
    5.0190    1.8870    0.0000 S   0  0  0  0  0  0  0  0  0  0  0  0
    0.9822   -0.6032    0.0000 O   0  0  0  0  0  0  0  0  0  0  0  0
    5.2665    2.6758    0.0000 O   0  0  0  0  0  0  0  0  0  0  0  0
    5.8234    2.0572    0.0000 O   0  0  0  0  0  0  0  0  0  0  0  0
    3.1475    0.6651    0.0000 N   0  0  0  0  0  0  0  0  0  0  0  0
    3.9518   -0.4330    0.0000 N   0  0  0  0  0  0  0  0  0  0  0  0
    4.4313    0.2475    0.0000 N   0  0  0  0  0  0  0  0  0  0  0  0
    3.9982    1.7168    0.0000 N   0  0  0  0  0  0  0  0  0  0  0  0
   -1.9102   -1.4385    0.0000 N   0  0  0  0  0  0  0  0  0  0  0  0
    1.7091    0.6496    0.0000 C   0  0  0  0  0  0  0  0  0  0  0  0
    3.1321   -0.1856    0.0000 C   0  0  0  0  0  0  0  0  0  0  0  0
    1.6782   -0.1856    0.0000 C   0  0  0  0  0  0  0  0  0  0  0  0
    0.9512    1.0827    0.0000 C   0  0  0  0  0  0  0  0  0  0  0  0
    3.9209    0.9126    0.0000 C   0  0  0  0  0  0  0  0  0  0  0  0
    2.4206    1.0672    0.0000 C   0  0  0  0  0  0  0  0  0  0  0  0
    2.4361   -0.6032    0.0000 C   0  0  0  0  0  0  0  0  0  0  0  0
    0.1624    1.0827    0.0000 C   0  0  0  0  0  0  0  0  0  0  0  0
    0.5491    1.7478    0.0000 C   0  0  0  0  0  0  0  0  0  0  0  0
   -0.4718   -0.6032    0.0000 C   0  0  0  0  0  0  0  0  0  0  0  0
    0.2243   -0.2011    0.0000 C   0  0  0  0  0  0  0  0  0  0  0  0
   -0.4872   -1.4539    0.0000 C   0  0  0  0  0  0  0  0  0  0  0  0
   -1.2142   -0.2011    0.0000 C   0  0  0  0  0  0  0  0  0  0  0  0
   -2.6216   -1.8561    0.0000 C   0  0  3  0  0  0  0  0  0  0  0  0
   -3.3641   -1.4385    0.0000 C   0  0  0  0  0  0  0  0  0  0  0  0
   -1.1833   -1.8561    0.0000 C   0  0  0  0  0  0  0  0  0  0  0  0
   -1.9102   -0.6032    0.0000 C   0  0  0  0  0  0  0  0  0  0  0  0
   -0.4563    0.2320    0.0000 C   0  0  0  0  0  0  0  0  0  0  0  0
   -3.3641   -0.6342    0.0000 C   0  0  0  0  0  0  0  0  0  0  0  0
   -4.0601   -1.8406    0.0000 C   0  0  0  0  0  0  0  0  0  0  0  0
    5.5759    1.2838    0.0000 C   0  0  0  0  0  0  0  0  0  0  0  0
   -4.8180   -1.4539    0.0000 C   0  0  0  0  0  0  0  0  0  0  0  0
   -4.0756   -0.2011    0.0000 C   0  0  0  0  0  0  0  0  0  0  0  0
   -4.7871   -0.6187    0.0000 C   0  0  0  0  0  0  0  0  0  0  0  0
   -2.6371   -2.6758    0.0000 C   0  0  0  0  0  0  0  0  0  0  0  0
  1 33  1  0  0  0  0
  2 34  1  0  0  0  0
  3  5  2  0  0  0  0
  3  6  2  0  0  0  0
  3 10  1  0  0  0  0
  3 32  1  0  0  0  0
  4 14  1  0  0  0  0
  4 22  1  0  0  0  0
  7 13  1  0  0  0  0
  7 16  1  0  0  0  0
  7 17  1  0  0  0  0
  8  9  1  0  0  0  0
  8 13  2  0  0  0  0
  9 16  2  0  0  0  0
 10 16  1  0  0  0  0
 11 25  1  0  0  0  0
 11 27  1  0  0  0  0
 11 28  1  0  0  0  0
 12 14  1  0  0  0  0
 12 15  1  0  0  0  0
 12 17  2  0  0  0  0
 13 18  1  0  0  0  0
 14 18  2  0  0  0  0
 15 19  1  0  0  0  0
 15 20  1  0  0  0  0
 19 20  1  0  0  0  0
 21 22  1  0  0  0  0
 21 23  1  0  0  0  0
 21 24  1  0  0  0  0
 21 29  1  0  0  0  0
 23 27  1  0  0  0  0
 24 28  1  0  0  0  0
 25 26  1  0  0  0  0
 25 36  1  6  0  0  0
 26 30  2  0  0  0  0
 26 31  1  0  0  0  0
 30 34  1  0  0  0  0
 31 33  2  0  0  0  0
 33 35  1  0  0  0  0
 34 35  2  0  0  0  0
M  END
> <PUBCHEM_COMPOUND_ID_TYPE>
0

> <PUBCHEM_TOTAL_CHARGE>
0

> <PUBCHEM_SUBSTANCE_ID>
310941828

> <PUBCHEM_SUBSTANCE_VERSION>
1

> <PUBCHEM_EXT_DATASOURCE_NAME>
4488

> <PUBCHEM_EXT_DATASOURCE_REGID>
SCHEMBL16119860

> <PUBCHEM_SUBSTANCE_COMMENT>
InChI=1S/C25H31Cl2N5O3S/c1-16(18-10-19(26)12-20(27)11-18)31-8-6-25(2,7-9-31)15-35-22-13-23-28-29-24(30-36(3,33)34)32(23)14-21(22)17-4-5-17/h10-14,16-17H,4-9,15H2,1-3H3,(H,29,30)/t16-/m1/s1
InChIKey=BJRCIEOPSMOJEG-MRXNPFEDSA-N

> <PUBCHEM_SUBSTANCE_SYNONYM>
SCHEMBL16119860

> <PUBCHEM_XREF_EXT_ID>
SCHEMBL16119860

> <PUBCHEM_EXT_DATASOURCE_URL>
https://www.surechembl.org/

> <PUBCHEM_EXT_SUBSTANCE_URL>
https://www.surechembl.org/chemical/SCHEMBL16119860

> <PUBCHEM_CID_ASSOCIATIONS>
117608572  1

> <PUBCHEM_COORDINATE_TYPE>
1
3

> <PUBCHEM_BONDANNOTATIONS>
25  36  6

$$$$
