310943347
  -OEChem-07211613022D

 37 40  0     0  0  0  0  0  0999 V2000
   -4.3832   -1.0574    0.0000 S   0  0  0  0  0  0  0  0  0  0  0  0
    4.3150    1.4838    0.0000 F   0  0  0  0  0  0  0  0  0  0  0  0
    5.0654    1.0574    0.0000 F   0  0  0  0  0  0  0  0  0  0  0  0
   -5.0996   -1.4668    0.0000 O   0  0  0  0  0  0  0  0  0  0  0  0
   -4.1615   -1.8590    0.0000 O   0  0  0  0  0  0  0  0  0  0  0  0
   -5.7989    1.4326    0.0000 O   0  0  0  0  0  0  0  0  0  0  0  0
    1.3985    1.4156    0.0000 O   0  0  0  0  0  0  0  0  0  0  0  0
   -4.3491    0.6140    0.0000 N   0  0  0  0  0  0  0  0  0  0  0  0
   -2.8994   -1.0404    0.0000 N   0  0  0  0  0  0  0  0  0  0  0  0
   -2.1831   -0.6140    0.0000 N   0  0  0  0  0  0  0  0  0  0  0  0
   -0.7504    1.8420    0.0000 N   0  0  0  0  0  0  0  0  0  0  0  0
    0.6993    0.2047    0.0000 N   0  0  0  0  0  0  0  0  0  0  0  0
    3.5645   -0.6140    0.0000 N   0  0  0  0  0  0  0  0  0  0  0  0
   -3.6328    0.2047    0.0000 C   0  0  0  0  0  0  0  0  0  0  0  0
   -3.6498   -0.6140    0.0000 C   0  0  0  0  0  0  0  0  0  0  0  0
   -2.1831    0.2047    0.0000 C   0  0  0  0  0  0  0  0  0  0  0  0
   -1.4838    0.6140    0.0000 C   0  0  0  0  0  0  0  0  0  0  0  0
   -2.9165    0.6140    0.0000 C   0  0  0  0  0  0  0  0  0  0  0  0
   -1.4668    1.4326    0.0000 C   0  0  0  0  0  0  0  0  0  0  0  0
   -0.7504    0.2047    0.0000 C   0  0  0  0  0  0  0  0  0  0  0  0
   -0.0341    0.6140    0.0000 C   0  0  0  0  0  0  0  0  0  0  0  0
   -4.3491    1.4326    0.0000 C   0  0  0  0  0  0  0  0  0  0  0  0
   -5.0484    0.2047    0.0000 C   0  0  0  0  0  0  0  0  0  0  0  0
    3.5645    0.2047    0.0000 C   0  0  0  0  0  0  0  0  0  0  0  0
    2.1319    0.2047    0.0000 C   0  0  0  0  0  0  0  0  0  0  0  0
   -0.0170    1.4156    0.0000 C   0  0  0  0  0  0  0  0  0  0  0  0
    1.3985    0.5969    0.0000 C   0  0  0  0  0  0  0  0  0  0  0  0
    4.3321    0.6310    0.0000 C   0  0  0  0  0  0  0  0  0  0  0  0
   -5.1507   -0.6310    0.0000 C   0  0  0  0  0  0  0  0  0  0  0  0
    2.8482    0.6140    0.0000 C   0  0  0  0  0  0  0  0  0  0  0  0
   -5.0654    1.8420    0.0000 C   0  0  0  0  0  0  0  0  0  0  0  0
   -5.7817    0.6140    0.0000 C   0  0  0  0  0  0  0  0  0  0  0  0
    2.1319   -0.6140    0.0000 C   0  0  0  0  0  0  0  0  0  0  0  0
   -2.1831    1.8590    0.0000 C   0  0  0  0  0  0  0  0  0  0  0  0
    2.8994   -1.0404    0.0000 C   0  0  0  0  0  0  0  0  0  0  0  0
    5.0996    0.2047    0.0000 C   0  0  0  0  0  0  0  0  0  0  0  0
    5.7989    0.6310    0.0000 C   0  0  0  0  0  0  0  0  0  0  0  0
  1  4  2  0  0  0  0
  1  5  2  0  0  0  0
  1 15  1  0  0  0  0
  1 29  1  0  0  0  0
  2 28  1  0  0  0  0
  3 28  1  0  0  0  0
  6 31  1  0  0  0  0
  6 32  1  0  0  0  0
  7 27  2  0  0  0  0
  8 14  1  0  0  0  0
  8 22  1  0  0  0  0
  8 23  1  0  0  0  0
  9 10  1  0  0  0  0
  9 15  2  0  0  0  0
 10 16  2  0  0  0  0
 11 19  1  0  0  0  0
 11 26  2  0  0  0  0
 12 21  1  0  0  0  0
 12 27  1  0  0  0  0
 13 24  2  0  0  0  0
 13 35  1  0  0  0  0
 14 15  1  0  0  0  0
 14 18  2  0  0  0  0
 16 17  1  0  0  0  0
 16 18  1  0  0  0  0
 17 19  2  0  0  0  0
 17 20  1  0  0  0  0
 19 34  1  0  0  0  0
 20 21  2  0  0  0  0
 21 26  1  0  0  0  0
 22 31  1  0  0  0  0
 23 32  1  0  0  0  0
 24 28  1  0  0  0  0
 24 30  1  0  0  0  0
 25 27  1  0  0  0  0
 25 30  2  0  0  0  0
 25 33  1  0  0  0  0
 28 36  1  0  0  0  0
 33 35  2  0  0  0  0
 36 37  1  0  0  0  0
M  END
> <PUBCHEM_COMPOUND_ID_TYPE>
0

> <PUBCHEM_TOTAL_CHARGE>
0

> <PUBCHEM_SUBSTANCE_ID>
310943347

> <PUBCHEM_SUBSTANCE_VERSION>
1

> <PUBCHEM_EXT_DATASOURCE_NAME>
4488

> <PUBCHEM_EXT_DATASOURCE_REGID>
SCHEMBL16121410

> <PUBCHEM_SUBSTANCE_COMMENT>
InChI=1S/C24H26F2N6O4S/c1-4-24(25,26)21-11-16(5-6-27-21)22(33)29-17-12-18(15(2)28-14-17)19-13-20(32-7-9-36-10-8-32)23(31-30-19)37(3,34)35/h5-6,11-14H,4,7-10H2,1-3H3,(H,29,33)
InChIKey=UTSVVJVAYOPFIE-UHFFFAOYSA-N

> <PUBCHEM_SUBSTANCE_SYNONYM>
SCHEMBL16121410

> <PUBCHEM_XREF_EXT_ID>
SCHEMBL16121410

> <PUBCHEM_EXT_DATASOURCE_URL>
https://www.surechembl.org/

> <PUBCHEM_EXT_SUBSTANCE_URL>
https://www.surechembl.org/chemical/SCHEMBL16121410

> <PUBCHEM_CID_ASSOCIATIONS>
117609771  1

> <PUBCHEM_COORDINATE_TYPE>
1
3

$$$$
