310941250
  -OEChem-07211613022D

 39 42  0     1  0  0  0  0  0999 V2000
    4.5379    0.6651    0.0000 O   0  0  0  0  0  0  0  0  0  0  0  0
    3.3879   -1.2887    0.0000 O   0  0  0  0  0  0  0  0  0  0  0  0
    1.2263    0.7759    0.0000 O   0  0  0  0  0  0  0  0  0  0  0  0
   -4.8289   -1.0531    0.0000 O   0  0  0  0  0  0  0  0  0  0  0  0
   -0.9353   -1.2887    0.0000 O   0  0  0  0  0  0  0  0  0  0  0  0
   -3.0969    0.7759    0.0000 O   0  0  0  0  0  0  0  0  0  0  0  0
    3.3879   -2.9514    0.0000 O   0  0  0  0  0  0  0  0  0  0  0  0
    1.9607   -0.4573    0.0000 N   0  0  0  0  0  0  0  0  0  0  0  0
   -0.2009   -0.0416    0.0000 N   0  0  0  0  0  0  0  0  0  0  0  0
   -2.3764   -0.4573    0.0000 N   0  0  0  0  0  0  0  0  0  0  0  0
    4.1222    0.0000    0.0000 C   0  0  3  0  0  0  0  0  0  0  0  0
    3.3879   -0.4295    0.0000 C   0  0  0  0  0  0  0  0  0  0  0  0
    3.7204    0.6789    0.0000 C   0  0  0  0  0  0  0  0  0  0  0  0
    2.6674   -0.0277    0.0000 C   0  0  3  0  0  0  0  0  0  0  0  0
    4.8289   -0.4295    0.0000 C   0  0  0  0  0  0  0  0  0  0  0  0
    2.6812    1.3025    0.0000 C   0  0  0  0  0  0  0  0  0  0  0  0
    1.2263   -0.0416    0.0000 C   0  0  0  0  0  0  0  0  0  0  0  0
    0.5335   -0.4295    0.0000 C   0  0  3  0  0  0  0  0  0  0  0  0
    1.9607    1.7320    0.0000 C   0  0  0  0  0  0  0  0  0  0  0  0
    0.5058   -1.2887    0.0000 C   0  0  0  0  0  0  0  0  0  0  0  0
   -0.9214   -0.4157    0.0000 C   0  0  0  0  0  0  0  0  0  0  0  0
    1.2401   -1.6766    0.0000 C   0  0  0  0  0  0  0  0  0  0  0  0
   -1.6558   -0.0277    0.0000 C   0  0  3  0  0  0  0  0  0  0  0  0
    1.9607    2.5357    0.0000 C   0  0  0  0  0  0  0  0  0  0  0  0
    1.2401    1.3163    0.0000 C   0  0  0  0  0  0  0  0  0  0  0  0
   -3.8174   -0.4434    0.0000 C   0  0  0  0  0  0  0  0  0  0  0  0
   -3.0969   -0.0416    0.0000 C   0  0  0  0  0  0  0  0  0  0  0  0
    1.2540   -2.5219    0.0000 C   0  0  0  0  0  0  0  0  0  0  0  0
    1.9468   -1.2748    0.0000 C   0  0  0  0  0  0  0  0  0  0  0  0
   -4.0252   -1.2332    0.0000 C   0  0  0  0  0  0  0  0  0  0  0  0
   -4.6072   -0.2356    0.0000 C   0  0  0  0  0  0  0  0  0  0  0  0
    1.2263    2.9514    0.0000 C   0  0  0  0  0  0  0  0  0  0  0  0
    0.5335    1.7182    0.0000 C   0  0  0  0  0  0  0  0  0  0  0  0
    2.6812   -2.5080    0.0000 C   0  0  0  0  0  0  0  0  0  0  0  0
    1.9607   -2.9098    0.0000 C   0  0  0  0  0  0  0  0  0  0  0  0
    2.6812   -1.6905    0.0000 C   0  0  0  0  0  0  0  0  0  0  0  0
    0.5335    2.5357    0.0000 C   0  0  0  0  0  0  0  0  0  0  0  0
   -1.6420    0.8037    0.0000 C   0  0  0  0  0  0  0  0  0  0  0  0
    4.1500   -2.5080    0.0000 C   0  0  0  0  0  0  0  0  0  0  0  0
  1 11  1  0  0  0  0
  1 13  1  0  0  0  0
  2 12  2  0  0  0  0
  3 17  2  0  0  0  0
  4 30  1  0  0  0  0
  4 31  1  0  0  0  0
  5 21  2  0  0  0  0
  6 27  2  0  0  0  0
  7 34  1  0  0  0  0
  7 39  1  0  0  0  0
 14  8  1  1  0  0  0
  8 17  1  0  0  0  0
 18  9  1  6  0  0  0
  9 21  1  0  0  0  0
 10 23  1  0  0  0  0
 10 27  1  0  0  0  0
 11 12  1  1  0  0  0
 11 13  1  0  0  0  0
 11 15  1  6  0  0  0
 12 14  1  0  0  0  0
 14 16  1  0  0  0  0
 16 19  1  0  0  0  0
 17 18  1  0  0  0  0
 18 20  1  0  0  0  0
 19 24  2  0  0  0  0
 19 25  1  0  0  0  0
 20 22  1  0  0  0  0
 21 23  1  0  0  0  0
 22 28  2  0  0  0  0
 22 29  1  0  0  0  0
 23 38  1  1  0  0  0
 24 32  1  0  0  0  0
 25 33  2  0  0  0  0
 26 27  1  0  0  0  0
 26 30  1  0  0  0  0
 26 31  1  0  0  0  0
 28 35  1  0  0  0  0
 29 36  2  0  0  0  0
 32 37  2  0  0  0  0
 33 37  1  0  0  0  0
 34 35  2  0  0  0  0
 34 36  1  0  0  0  0
M  END
> <PUBCHEM_COMPOUND_ID_TYPE>
0

> <PUBCHEM_TOTAL_CHARGE>
0

> <PUBCHEM_SUBSTANCE_ID>
310941250

> <PUBCHEM_SUBSTANCE_VERSION>
1

> <PUBCHEM_EXT_DATASOURCE_NAME>
4488

> <PUBCHEM_EXT_DATASOURCE_REGID>
SCHEMBL16119210

> <PUBCHEM_SUBSTANCE_COMMENT>
InChI=1S/C29H35N3O7/c1-18(30-27(35)21-15-38-16-21)26(34)32-24(14-20-9-11-22(37-3)12-10-20)28(36)31-23(25(33)29(2)17-39-29)13-19-7-5-4-6-8-19/h4-12,18,21,23-24H,13-17H2,1-3H3,(H,30,35)(H,31,36)(H,32,34)/t18-,23-,24-,29+/m0/s1
InChIKey=PHOKUODYTCOYQJ-HHEWOLITSA-N

> <PUBCHEM_SUBSTANCE_SYNONYM>
SCHEMBL16119210

> <PUBCHEM_XREF_EXT_ID>
SCHEMBL16119210

> <PUBCHEM_EXT_DATASOURCE_URL>
https://www.surechembl.org/

> <PUBCHEM_EXT_SUBSTANCE_URL>
https://www.surechembl.org/chemical/SCHEMBL16119210

> <PUBCHEM_CID_ASSOCIATIONS>
117608109  1

> <PUBCHEM_COORDINATE_TYPE>
1
3

> <PUBCHEM_BONDANNOTATIONS>
11  12  5
11  15  6
23  38  5
14  8  5
18  9  6

$$$$
