310946977
  -OEChem-07211613022D

 31 35  0     0  0  0  0  0  0999 V2000
    2.4503   -2.0955    0.0000 S   0  0  0  0  0  0  0  0  0  0  0  0
   -2.5493   -1.7325    0.0000 O   0  0  0  0  0  0  0  0  0  0  0  0
    2.4503   -2.9205    0.0000 O   0  0  0  0  0  0  0  0  0  0  0  0
    3.2588   -2.3100    0.0000 O   0  0  0  0  0  0  0  0  0  0  0  0
   -1.0478    0.5445    0.0000 N   0  0  0  0  0  0  0  0  0  0  0  0
   -0.5528   -0.1155    0.0000 N   0  0  0  0  0  0  0  0  0  0  0  0
   -0.8002   -1.5675    0.0000 N   0  0  0  0  0  0  0  0  0  0  0  0
   -3.2588   -0.5115    0.0000 N   0  0  0  0  0  0  0  0  0  0  0  0
    2.7308   -1.3200    0.0000 N   0  0  0  0  0  0  0  0  0  0  0  0
    1.3943    1.0395    0.0000 N   0  0  0  0  0  0  0  0  0  0  0  0
   -1.8232    0.3135    0.0000 C   0  0  0  0  0  0  0  0  0  0  0  0
   -1.8398   -0.5115    0.0000 C   0  0  0  0  0  0  0  0  0  0  0  0
   -0.7838    1.3200    0.0000 C   0  0  0  0  0  0  0  0  0  0  0  0
   -1.0478   -0.7755    0.0000 C   0  0  0  0  0  0  0  0  0  0  0  0
   -2.5493   -0.8910    0.0000 C   0  0  0  0  0  0  0  0  0  0  0  0
    1.6088   -2.0955    0.0000 C   0  0  0  0  0  0  0  0  0  0  0  0
    1.3778   -1.3035    0.0000 C   0  0  0  0  0  0  0  0  0  0  0  0
    0.0082   -1.7325    0.0000 C   0  0  0  0  0  0  0  0  0  0  0  0
   -2.5658    0.7095    0.0000 C   0  0  0  0  0  0  0  0  0  0  0  0
   -1.5758    1.6005    0.0000 C   0  0  0  0  0  0  0  0  0  0  0  0
   -0.1897    1.8315    0.0000 C   0  0  0  0  0  0  0  0  0  0  0  0
   -0.1897    0.7260    0.0000 C   0  0  0  0  0  0  0  0  0  0  0  0
    0.5692   -1.1385    0.0000 C   0  0  0  0  0  0  0  0  0  0  0  0
    1.0807   -2.6895    0.0000 C   0  0  0  0  0  0  0  0  0  0  0  0
    2.0543   -0.8250    0.0000 C   0  0  0  0  0  0  0  0  0  0  0  0
    0.2557   -2.5080    0.0000 C   0  0  0  0  0  0  0  0  0  0  0  0
   -3.2588    0.3135    0.0000 C   0  0  0  0  0  0  0  0  0  0  0  0
   -1.7243    2.3925    0.0000 C   0  0  0  0  0  0  0  0  0  0  0  0
   -0.3218    2.6565    0.0000 C   0  0  0  0  0  0  0  0  0  0  0  0
    0.5692    0.8910    0.0000 C   0  0  0  0  0  0  0  0  0  0  0  0
   -1.1138    2.9205    0.0000 C   0  0  0  0  0  0  0  0  0  0  0  0
  1  3  2  0  0  0  0
  1  4  2  0  0  0  0
  1  9  1  0  0  0  0
  1 16  1  0  0  0  0
  2 15  2  0  0  0  0
  5  6  1  0  0  0  0
  5 11  1  0  0  0  0
  5 13  1  0  0  0  0
  6 14  2  0  0  0  0
  7 14  1  0  0  0  0
  7 18  1  0  0  0  0
  8 15  1  0  0  0  0
  8 27  1  0  0  0  0
  9 25  1  0  0  0  0
 10 30  3  0  0  0  0
 11 12  2  0  0  0  0
 11 19  1  0  0  0  0
 12 14  1  0  0  0  0
 12 15  1  0  0  0  0
 13 20  1  0  0  0  0
 13 21  1  0  0  0  0
 13 22  1  0  0  0  0
 16 17  1  0  0  0  0
 16 24  2  0  0  0  0
 17 23  2  0  0  0  0
 17 25  1  0  0  0  0
 18 23  1  0  0  0  0
 18 26  2  0  0  0  0
 19 27  2  0  0  0  0
 20 28  1  0  0  0  0
 21 29  1  0  0  0  0
 22 30  1  0  0  0  0
 24 26  1  0  0  0  0
 28 31  1  0  0  0  0
 29 31  1  0  0  0  0
M  END
> <PUBCHEM_COMPOUND_ID_TYPE>
0

> <PUBCHEM_TOTAL_CHARGE>
0

> <PUBCHEM_SUBSTANCE_ID>
310946977

> <PUBCHEM_SUBSTANCE_VERSION>
1

> <PUBCHEM_EXT_DATASOURCE_NAME>
4488

> <PUBCHEM_EXT_DATASOURCE_REGID>
SCHEMBL16125115

> <PUBCHEM_SUBSTANCE_COMMENT>
InChI=1S/C21H22N6O3S/c22-10-9-21(7-2-1-3-8-21)27-16-6-11-23-20(28)18(16)19(26-27)25-15-4-5-17-14(12-15)13-24-31(17,29)30/h4-6,11-12,24H,1-3,7-9,13H2,(H,23,28)(H,25,26)
InChIKey=ZEHFEWRLDUPJBP-UHFFFAOYSA-N

> <PUBCHEM_SUBSTANCE_SYNONYM>
SCHEMBL16125115

> <PUBCHEM_XREF_EXT_ID>
SCHEMBL16125115

> <PUBCHEM_EXT_DATASOURCE_URL>
https://www.surechembl.org/

> <PUBCHEM_EXT_SUBSTANCE_URL>
https://www.surechembl.org/chemical/SCHEMBL16125115

> <PUBCHEM_CID_ASSOCIATIONS>
117612830  1

> <PUBCHEM_COORDINATE_TYPE>
1
3

$$$$
