310949514
  -OEChem-07211613022D

 26 28  0     0  0  0  0  0  0999 V2000
   -0.3635    1.7014    0.0000 S   0  0  0  0  0  0  0  0  0  0  0  0
   -0.7657    2.4284    0.0000 O   0  0  0  0  0  0  0  0  0  0  0  0
    0.0542    0.9745    0.0000 O   0  0  0  0  0  0  0  0  0  0  0  0
    1.7864    2.9542    0.0000 O   0  0  0  0  0  0  0  0  0  0  0  0
   -1.0749   -1.2373    0.0000 O   0  0  0  0  0  0  0  0  0  0  0  0
    2.4979   -2.5057    0.0000 O   0  0  0  0  0  0  0  0  0  0  0  0
    0.3480    2.1190    0.0000 N   0  0  0  0  0  0  0  0  0  0  0  0
   -0.3635    0.0155    0.0000 N   0  0  0  0  0  0  0  0  0  0  0  0
   -1.0749    1.2838    0.0000 C   0  0  0  0  0  0  0  0  0  0  0  0
   -1.0749    0.4485    0.0000 C   0  0  0  0  0  0  0  0  0  0  0  0
   -1.7864    1.6859    0.0000 C   0  0  0  0  0  0  0  0  0  0  0  0
   -1.8174    0.0309    0.0000 C   0  0  0  0  0  0  0  0  0  0  0  0
    0.3635    2.9542    0.0000 C   0  0  0  0  0  0  0  0  0  0  0  0
    1.0749    1.7014    0.0000 C   0  0  0  0  0  0  0  0  0  0  0  0
   -0.3635   -0.8043    0.0000 C   0  0  0  0  0  0  0  0  0  0  0  0
    0.3635   -1.2528    0.0000 C   0  0  0  0  0  0  0  0  0  0  0  0
   -2.4979    1.2683    0.0000 C   0  0  0  0  0  0  0  0  0  0  0  0
   -2.4979    0.4331    0.0000 C   0  0  0  0  0  0  0  0  0  0  0  0
    1.0440    3.3718    0.0000 C   0  0  0  0  0  0  0  0  0  0  0  0
    1.7864    2.1190    0.0000 C   0  0  0  0  0  0  0  0  0  0  0  0
    1.0440   -0.8352    0.0000 C   0  0  0  0  0  0  0  0  0  0  0  0
    0.3635   -2.0881    0.0000 C   0  0  0  0  0  0  0  0  0  0  0  0
    1.7864   -2.0726    0.0000 C   0  0  0  0  0  0  0  0  0  0  0  0
    1.7864   -1.2528    0.0000 C   0  0  0  0  0  0  0  0  0  0  0  0
    1.0749   -2.4902    0.0000 C   0  0  0  0  0  0  0  0  0  0  0  0
    2.4979   -3.3718    0.0000 C   0  0  0  0  0  0  0  0  0  0  0  0
  1  2  2  0  0  0  0
  1  3  2  0  0  0  0
  1  7  1  0  0  0  0
  1  9  1  0  0  0  0
  4 19  1  0  0  0  0
  4 20  1  0  0  0  0
  5 15  2  0  0  0  0
  6 23  1  0  0  0  0
  6 26  1  0  0  0  0
  7 13  1  0  0  0  0
  7 14  1  0  0  0  0
  8 10  1  0  0  0  0
  8 15  1  0  0  0  0
  9 10  1  0  0  0  0
  9 11  2  0  0  0  0
 10 12  2  0  0  0  0
 11 17  1  0  0  0  0
 12 18  1  0  0  0  0
 13 19  1  0  0  0  0
 14 20  1  0  0  0  0
 15 16  1  0  0  0  0
 16 21  2  0  0  0  0
 16 22  1  0  0  0  0
 17 18  2  0  0  0  0
 21 24  1  0  0  0  0
 22 25  2  0  0  0  0
 23 24  2  0  0  0  0
 23 25  1  0  0  0  0
M  END
> <PUBCHEM_COMPOUND_ID_TYPE>
0

> <PUBCHEM_TOTAL_CHARGE>
0

> <PUBCHEM_SUBSTANCE_ID>
310949514

> <PUBCHEM_SUBSTANCE_VERSION>
1

> <PUBCHEM_EXT_DATASOURCE_NAME>
4488

> <PUBCHEM_EXT_DATASOURCE_REGID>
SCHEMBL16127709

> <PUBCHEM_SUBSTANCE_COMMENT>
InChI=1S/C18H20N2O5S/c1-24-15-8-6-14(7-9-15)18(21)19-16-4-2-3-5-17(16)26(22,23)20-10-12-25-13-11-20/h2-9H,10-13H2,1H3,(H,19,21)
InChIKey=LYCSPTMWJFEYPR-UHFFFAOYSA-N

> <PUBCHEM_SUBSTANCE_SYNONYM>
SCHEMBL16127709

> <PUBCHEM_XREF_EXT_ID>
SCHEMBL16127709

> <PUBCHEM_EXT_DATASOURCE_URL>
https://www.surechembl.org/

> <PUBCHEM_EXT_SUBSTANCE_URL>
https://www.surechembl.org/chemical/SCHEMBL16127709

> <PUBCHEM_CID_ASSOCIATIONS>
117614950  1

> <PUBCHEM_COORDINATE_TYPE>
1
3

$$$$
