310929295
  -OEChem-07211613022D

 25 26  0     0  0  0  0  0  0999 V2000
    6.3672   -9.4328    0.0000 Cl  0  0  0  0  0  0  0  0  0  0  0  0
    7.7821   -6.9803    0.0000 Cl  0  0  0  0  0  0  0  0  0  0  0  0
    6.3672   -6.1785    0.0000 O   0  0  0  0  0  0  0  0  0  0  0  0
    0.0000    0.0000    0.0000 O   0  0  0  0  0  0  0  0  0  0  0  0
    4.9522   -6.9803    0.0000 N   0  0  0  0  0  0  0  0  0  0  0  0
    5.6597   -7.4048    0.0000 C   0  0  0  0  0  0  0  0  0  0  0  0
    5.6597   -8.2066    0.0000 C   0  0  0  0  0  0  0  0  0  0  0  0
    6.3672   -6.9803    0.0000 C   0  0  0  0  0  0  0  0  0  0  0  0
    6.3672   -8.6311    0.0000 C   0  0  0  0  0  0  0  0  0  0  0  0
    7.0746   -7.4048    0.0000 C   0  0  0  0  0  0  0  0  0  0  0  0
    7.0746   -8.2066    0.0000 C   0  0  0  0  0  0  0  0  0  0  0  0
    4.9522   -8.6311    0.0000 C   0  0  0  0  0  0  0  0  0  0  0  0
    4.2448   -7.4048    0.0000 C   0  0  0  0  0  0  0  0  0  0  0  0
    4.2448   -8.2066    0.0000 C   0  0  0  0  0  0  0  0  0  0  0  0
    3.5373   -6.9803    0.0000 C   0  0  0  0  0  0  0  0  0  0  0  0
    3.5373   -6.1785    0.0000 C   0  0  0  0  0  0  0  0  0  0  0  0
    2.8298   -5.7540    0.0000 C   0  0  0  0  0  0  0  0  0  0  0  0
    2.8298   -4.9522    0.0000 C   0  0  0  0  0  0  0  0  0  0  0  0
    2.1224   -4.5277    0.0000 C   0  0  0  0  0  0  0  0  0  0  0  0
    2.1224   -3.6788    0.0000 C   0  0  0  0  0  0  0  0  0  0  0  0
    1.4149   -3.3015    0.0000 C   0  0  0  0  0  0  0  0  0  0  0  0
    1.4149   -2.4525    0.0000 C   0  0  0  0  0  0  0  0  0  0  0  0
    0.7075   -2.0752    0.0000 C   0  0  0  0  0  0  0  0  0  0  0  0
    0.7075   -1.2263    0.0000 C   0  0  0  0  0  0  0  0  0  0  0  0
    0.0000   -0.8489    0.0000 C   0  0  0  0  0  0  0  0  0  0  0  0
  1  9  1  0  0  0  0
  2 10  1  0  0  0  0
  3  8  1  0  0  0  0
  4 25  1  0  0  0  0
  5  6  2  0  0  0  0
  5 13  1  0  0  0  0
  6  7  1  0  0  0  0
  6  8  1  0  0  0  0
  7  9  1  0  0  0  0
  7 12  2  0  0  0  0
  8 10  2  0  0  0  0
  9 11  2  0  0  0  0
 10 11  1  0  0  0  0
 12 14  1  0  0  0  0
 13 14  2  0  0  0  0
 13 15  1  0  0  0  0
 15 16  1  0  0  0  0
 16 17  1  0  0  0  0
 17 18  1  0  0  0  0
 18 19  1  0  0  0  0
 19 20  1  0  0  0  0
 20 21  1  0  0  0  0
 21 22  1  0  0  0  0
 22 23  1  0  0  0  0
 23 24  1  0  0  0  0
 24 25  1  0  0  0  0
M  END
> <PUBCHEM_COMPOUND_ID_TYPE>
0

> <PUBCHEM_TOTAL_CHARGE>
0

> <PUBCHEM_SUBSTANCE_ID>
310929295

> <PUBCHEM_SUBSTANCE_VERSION>
1

> <PUBCHEM_EXT_DATASOURCE_NAME>
4488

> <PUBCHEM_EXT_DATASOURCE_REGID>
SCHEMBL16106459

> <PUBCHEM_SUBSTANCE_COMMENT>
InChI=1S/C20H27Cl2NO2/c21-17-14-18(22)20(25)19-16(17)12-11-15(23-19)10-8-6-4-2-1-3-5-7-9-13-24/h11-12,14,24-25H,1-10,13H2
InChIKey=KLVIQTJSVMYWGS-UHFFFAOYSA-N

> <PUBCHEM_SUBSTANCE_SYNONYM>
SCHEMBL16106459

> <PUBCHEM_XREF_EXT_ID>
SCHEMBL16106459

> <PUBCHEM_EXT_DATASOURCE_URL>
https://www.surechembl.org/

> <PUBCHEM_EXT_SUBSTANCE_URL>
https://www.surechembl.org/chemical/SCHEMBL16106459

> <PUBCHEM_CID_ASSOCIATIONS>
85472703  1

> <PUBCHEM_COORDINATE_TYPE>
1
3

$$$$
