310934967
  -OEChem-07211613022D

 43 48  0     1  0  0  0  0  0999 V2000
    6.5082   -2.5208    0.0000 Cl  0  0  0  0  0  0  0  0  0  0  0  0
    3.1625   -5.9124    0.0000 S   0  0  0  0  0  0  0  0  0  0  0  0
    0.0000   -9.1666    0.0000 F   0  0  0  0  0  0  0  0  0  0  0  0
    5.6374   -1.1458    0.0000 O   0  0  0  0  0  0  0  0  0  0  0  0
    7.6999   -4.8124    0.0000 O   0  0  0  0  0  0  0  0  0  0  0  0
    6.3249   -3.1625    0.0000 O   0  0  0  0  0  0  0  0  0  0  0  0
    7.0582   -1.9250    0.0000 O   0  0  0  0  0  0  0  0  0  0  0  0
    3.4833   -3.1625    0.0000 N   0  0  0  0  0  0  0  0  0  0  0  0
    2.8875   -3.7125    0.0000 N   0  0  0  0  0  0  0  0  0  0  0  0
    2.0166   -5.2249    0.0000 N   0  0  0  0  0  0  0  0  0  0  0  0
    7.7457   -3.1625    0.0000 N   0  0  0  0  0  0  0  0  0  0  0  0
    4.9041   -3.1625    0.0000 C   0  0  0  0  0  0  0  0  0  0  0  0
    4.2166   -3.5749    0.0000 C   0  0  0  0  0  0  0  0  0  0  0  0
    4.9041   -2.3374    0.0000 C   0  0  0  0  0  0  0  0  0  0  0  0
    5.6374   -3.5749    0.0000 C   0  0  0  0  0  0  0  0  0  0  0  0
    4.2166   -1.9250    0.0000 C   0  0  0  0  0  0  0  0  0  0  0  0
    3.2541   -4.4458    0.0000 C   0  0  0  0  0  0  0  0  0  0  0  0
    4.0333   -4.4000    0.0000 C   0  0  0  0  0  0  0  0  0  0  0  0
    5.6374   -1.9250    0.0000 C   0  0  3  0  0  0  0  0  0  0  0  0
    3.5291   -2.3374    0.0000 C   0  0  0  0  0  0  0  0  0  0  0  0
    6.5082   -3.3458    0.0000 C   0  0  0  0  0  0  0  0  0  0  0  0
    7.0124   -3.5749    0.0000 C   0  0  0  0  0  0  0  0  0  0  0  0
    2.8416   -5.1791    0.0000 C   0  0  0  0  0  0  0  0  0  0  0  0
    5.6374   -4.4000    0.0000 C   0  0  0  0  0  0  0  0  0  0  0  0
    7.0124   -4.4000    0.0000 C   0  0  0  0  0  0  0  0  0  0  0  0
    6.3249   -2.3374    0.0000 C   0  0  0  0  0  0  0  0  0  0  0  0
    6.3249   -4.8124    0.0000 C   0  0  0  0  0  0  0  0  0  0  0  0
    4.2166   -1.1458    0.0000 C   0  0  0  0  0  0  0  0  0  0  0  0
    4.9041   -0.6875    0.0000 C   0  0  0  0  0  0  0  0  0  0  0  0
    2.5666   -6.4624    0.0000 C   0  0  0  0  0  0  0  0  0  0  0  0
    1.8791   -6.0499    0.0000 C   0  0  0  0  0  0  0  0  0  0  0  0
    8.4332   -3.5749    0.0000 C   0  0  0  0  0  0  0  0  0  0  0  0
    8.4332   -4.4000    0.0000 C   0  0  0  0  0  0  0  0  0  0  0  0
    2.6583   -7.2416    0.0000 C   0  0  0  0  0  0  0  0  0  0  0  0
    4.2166   -0.2750    0.0000 C   0  0  0  0  0  0  0  0  0  0  0  0
    5.3624    0.0000    0.0000 C   0  0  0  0  0  0  0  0  0  0  0  0
    4.4916   -1.4208    0.0000 C   0  0  0  0  0  0  0  0  0  0  0  0
    1.9708   -7.7457    0.0000 C   0  0  0  0  0  0  0  0  0  0  0  0
    1.2375   -7.3790    0.0000 C   0  0  0  0  0  0  0  0  0  0  0  0
    2.0625   -8.5707    0.0000 C   0  0  0  0  0  0  0  0  0  0  0  0
    0.5958   -7.8832    0.0000 C   0  0  0  0  0  0  0  0  0  0  0  0
    1.4208   -9.0290    0.0000 C   0  0  0  0  0  0  0  0  0  0  0  0
    0.6417   -8.7082    0.0000 C   0  0  0  0  0  0  0  0  0  0  0  0
  1 21  1  0  0  0  0
  2 23  1  0  0  0  0
  2 30  1  0  0  0  0
  3 43  1  0  0  0  0
 19  4  1  6  0  0  0
  4 29  1  0  0  0  0
  5 25  1  0  0  0  0
  5 33  1  0  0  0  0
  6 26  2  0  0  0  0
  7 26  1  0  0  0  0
  8  9  1  0  0  0  0
  8 13  1  0  0  0  0
  8 20  1  0  0  0  0
  9 17  2  0  0  0  0
 10 23  2  0  0  0  0
 10 31  1  0  0  0  0
 11 22  1  0  0  0  0
 11 32  1  0  0  0  0
 12 13  1  0  0  0  0
 12 14  2  0  0  0  0
 12 15  1  0  0  0  0
 13 18  2  0  0  0  0
 14 16  1  0  0  0  0
 14 19  1  0  0  0  0
 15 21  2  0  0  0  0
 15 24  1  0  0  0  0
 16 20  2  0  0  0  0
 16 28  1  0  0  0  0
 17 18  1  0  0  0  0
 17 23  1  0  0  0  0
 19 26  1  0  0  0  0
 21 22  1  0  0  0  0
 22 25  2  0  0  0  0
 24 27  2  0  0  0  0
 25 27  1  0  0  0  0
 29 35  1  0  0  0  0
 29 36  1  0  0  0  0
 29 37  1  0  0  0  0
 30 31  2  0  0  0  0
 30 34  1  0  0  0  0
 32 33  1  0  0  0  0
 34 38  1  0  0  0  0
 38 39  2  0  0  0  0
 38 40  1  0  0  0  0
 39 41  1  0  0  0  0
 40 42  2  0  0  0  0
 41 43  2  0  0  0  0
 42 43  1  0  0  0  0
M  END
> <PUBCHEM_COMPOUND_ID_TYPE>
0

> <PUBCHEM_TOTAL_CHARGE>
0

> <PUBCHEM_SUBSTANCE_ID>
310934967

> <PUBCHEM_SUBSTANCE_VERSION>
1

> <PUBCHEM_EXT_DATASOURCE_NAME>
4488

> <PUBCHEM_EXT_DATASOURCE_REGID>
SCHEMBL16112483

> <PUBCHEM_SUBSTANCE_COMMENT>
InChI=1S/C32H30ClFN4O4S/c1-17-16-38-23(14-22(37-38)30-36-15-20(43-30)13-18-5-7-19(34)8-6-18)26(25(17)29(31(39)40)42-32(2,3)4)21-9-10-24-28(27(21)33)35-11-12-41-24/h5-10,14-16,29,35H,11-13H2,1-4H3,(H,39,40)/t29-/m0/s1
InChIKey=WCCOFXGPMUKLIR-LJAQVGFWSA-N

> <PUBCHEM_SUBSTANCE_SYNONYM>
SCHEMBL16112483

> <PUBCHEM_XREF_EXT_ID>
SCHEMBL16112483

> <PUBCHEM_EXT_DATASOURCE_URL>
https://www.surechembl.org/

> <PUBCHEM_EXT_SUBSTANCE_URL>
https://www.surechembl.org/chemical/SCHEMBL16112483

> <PUBCHEM_CID_ASSOCIATIONS>
86301997  1

> <PUBCHEM_COORDINATE_TYPE>
1
3

> <PUBCHEM_BONDANNOTATIONS>
19  4  6

$$$$
