310947606
  -OEChem-07211613022D

 34 37  0     0  0  0  0  0  0999 V2000
    2.8726   -0.9393    0.0000 S   0  0  0  0  0  0  0  0  0  0  0  0
    0.4538   -1.3663    0.0000 F   0  0  0  0  0  0  0  0  0  0  0  0
   -0.2859    1.3942    0.0000 F   0  0  0  0  0  0  0  0  0  0  0  0
   -1.2963    0.3838    0.0000 O   0  0  0  0  0  0  0  0  0  0  0  0
    2.8726   -0.1143    0.0000 O   0  0  0  0  0  0  0  0  0  0  0  0
    2.8726   -1.7643    0.0000 O   0  0  0  0  0  0  0  0  0  0  0  0
   -0.9265   -2.3314    0.0000 N   0  0  0  0  0  0  0  0  0  0  0  0
   -2.4256   -2.4889    0.0000 N   0  0  0  0  0  0  0  0  0  0  0  0
   -3.1400   -1.2514    0.0000 N   0  0  0  0  0  0  0  0  0  0  0  0
   -2.4256   -0.0139    0.0000 N   0  0  0  0  0  0  0  0  0  0  0  0
    2.0476   -0.9393    0.0000 N   0  0  0  0  0  0  0  0  0  0  0  0
   -3.9247    1.4785    0.0000 N   0  0  0  0  0  0  0  0  0  0  0  0
   -1.7111   -1.2514    0.0000 C   0  0  0  0  0  0  0  0  0  0  0  0
   -0.9265   -0.9965    0.0000 C   0  0  0  0  0  0  0  0  0  0  0  0
   -0.7129   -0.1996    0.0000 C   0  0  0  0  0  0  0  0  0  0  0  0
    0.0839    0.0139    0.0000 C   0  0  0  0  0  0  0  0  0  0  0  0
   -1.7111   -2.0764    0.0000 C   0  0  0  0  0  0  0  0  0  0  0  0
   -2.4256   -0.8389    0.0000 C   0  0  0  0  0  0  0  0  0  0  0  0
    0.6673   -0.5694    0.0000 C   0  0  0  0  0  0  0  0  0  0  0  0
   -0.4415   -1.6639    0.0000 C   0  0  0  0  0  0  0  0  0  0  0  0
    0.2975    0.8108    0.0000 C   0  0  0  0  0  0  0  0  0  0  0  0
    1.4642   -0.3559    0.0000 C   0  0  0  0  0  0  0  0  0  0  0  0
    1.0944    1.0243    0.0000 C   0  0  0  0  0  0  0  0  0  0  0  0
    1.6777    0.4410    0.0000 C   0  0  0  0  0  0  0  0  0  0  0  0
   -3.1400   -2.0764    0.0000 C   0  0  0  0  0  0  0  0  0  0  0  0
   -3.1400    0.3986    0.0000 C   0  0  0  0  0  0  0  0  0  0  0  0
   -3.1400    1.2236    0.0000 C   0  0  0  0  0  0  0  0  0  0  0  0
   -3.9247    0.1436    0.0000 C   0  0  0  0  0  0  0  0  0  0  0  0
    3.6976   -0.9393    0.0000 C   0  0  0  0  0  0  0  0  0  0  0  0
   -4.4096    0.8111    0.0000 C   0  0  0  0  0  0  0  0  0  0  0  0
   -4.1382    2.2754    0.0000 C   0  0  0  0  0  0  0  0  0  0  0  0
    4.1101   -1.6537    0.0000 C   0  0  0  0  0  0  0  0  0  0  0  0
   -4.9351    2.4889    0.0000 C   0  0  0  0  0  0  0  0  0  0  0  0
    4.9351   -1.6537    0.0000 C   0  0  0  0  0  0  0  0  0  0  0  0
  1  5  2  0  0  0  0
  1  6  2  0  0  0  0
  1 11  1  0  0  0  0
  1 29  1  0  0  0  0
  2 19  1  0  0  0  0
  3 21  1  0  0  0  0
  4 15  2  0  0  0  0
  7 17  1  0  0  0  0
  7 20  1  0  0  0  0
  8 17  2  0  0  0  0
  8 25  1  0  0  0  0
  9 18  1  0  0  0  0
  9 25  2  0  0  0  0
 10 18  1  0  0  0  0
 10 26  1  0  0  0  0
 11 22  1  0  0  0  0
 12 27  1  0  0  0  0
 12 30  1  0  0  0  0
 12 31  1  0  0  0  0
 13 14  1  0  0  0  0
 13 17  1  0  0  0  0
 13 18  2  0  0  0  0
 14 15  1  0  0  0  0
 14 20  2  0  0  0  0
 15 16  1  0  0  0  0
 16 19  2  0  0  0  0
 16 21  1  0  0  0  0
 19 22  1  0  0  0  0
 21 23  2  0  0  0  0
 22 24  2  0  0  0  0
 23 24  1  0  0  0  0
 26 27  2  0  0  0  0
 26 28  1  0  0  0  0
 28 30  2  0  0  0  0
 29 32  1  0  0  0  0
 31 33  1  0  0  0  0
 32 34  1  0  0  0  0
M  END
> <PUBCHEM_COMPOUND_ID_TYPE>
0

> <PUBCHEM_TOTAL_CHARGE>
0

> <PUBCHEM_SUBSTANCE_ID>
310947606

> <PUBCHEM_SUBSTANCE_VERSION>
1

> <PUBCHEM_EXT_DATASOURCE_NAME>
4488

> <PUBCHEM_EXT_DATASOURCE_REGID>
SCHEMBL16125769

> <PUBCHEM_SUBSTANCE_COMMENT>
InChI=1S/C22H22F2N6O3S/c1-3-9-34(32,33)29-16-6-5-15(23)18(19(16)24)20(31)14-10-25-21-17(14)22(27-12-26-21)28-13-7-8-30(4-2)11-13/h5-8,10-12,29H,3-4,9H2,1-2H3,(H2,25,26,27,28)
InChIKey=ITWGTKWVYVBRAZ-UHFFFAOYSA-N

> <PUBCHEM_SUBSTANCE_SYNONYM>
SCHEMBL16125769

> <PUBCHEM_XREF_EXT_ID>
SCHEMBL16125769

> <PUBCHEM_EXT_DATASOURCE_URL>
https://www.surechembl.org/

> <PUBCHEM_EXT_SUBSTANCE_URL>
https://www.surechembl.org/chemical/SCHEMBL16125769

> <PUBCHEM_CID_ASSOCIATIONS>
117613327  1

> <PUBCHEM_COORDINATE_TYPE>
1
3

$$$$
