310940035
  -OEChem-07211613022D

 14 14  0     0  0  0  0  0  0999 V2000
   -4.7301    2.7377    0.0000 Br  0  0  0  0  0  0  0  0  0  0  0  0
   -4.7301    1.0877    0.0000 Cl  0  0  0  0  0  0  0  0  0  0  0  0
   -1.8722    1.0877    0.0000 O   0  0  0  0  0  0  0  0  0  0  0  0
    0.2711    2.3252    0.0000 O   0  0  0  0  0  0  0  0  0  0  0  0
   -2.5867    2.3252    0.0000 C   0  0  0  0  0  0  0  0  0  0  0  0
   -2.5867    1.5002    0.0000 C   0  0  0  0  0  0  0  0  0  0  0  0
   -4.0156    2.3252    0.0000 C   0  0  0  0  0  0  0  0  0  0  0  0
   -4.0156    1.5002    0.0000 C   0  0  0  0  0  0  0  0  0  0  0  0
   -3.3012    2.7377    0.0000 C   0  0  0  0  0  0  0  0  0  0  0  0
   -3.3012    1.0877    0.0000 C   0  0  0  0  0  0  0  0  0  0  0  0
   -1.8722    2.7377    0.0000 C   0  0  0  0  0  0  0  0  0  0  0  0
   -1.1578    2.3252    0.0000 C   0  0  0  0  0  0  0  0  0  0  0  0
   -1.0754    1.3012    0.0000 C   0  0  0  0  0  0  0  0  0  0  0  0
   -0.4433    2.7377    0.0000 C   0  0  0  0  0  0  0  0  0  0  0  0
  1  7  1  0  0  0  0
  2  8  1  0  0  0  0
  3  6  1  0  0  0  0
  3 13  1  0  0  0  0
  4 14  2  0  0  0  0
  5  6  1  0  0  0  0
  5  9  2  0  0  0  0
  5 11  1  0  0  0  0
  6 10  2  0  0  0  0
  7  8  2  0  0  0  0
  7  9  1  0  0  0  0
  8 10  1  0  0  0  0
 11 12  1  0  0  0  0
 12 14  1  0  0  0  0
M  END
> <PUBCHEM_COMPOUND_ID_TYPE>
0

> <PUBCHEM_TOTAL_CHARGE>
0

> <PUBCHEM_SUBSTANCE_ID>
310940035

> <PUBCHEM_SUBSTANCE_VERSION>
1

> <PUBCHEM_EXT_DATASOURCE_NAME>
4488

> <PUBCHEM_EXT_DATASOURCE_REGID>
SCHEMBL16117965

> <PUBCHEM_SUBSTANCE_COMMENT>
InChI=1S/C10H10BrClO2/c1-14-10-6-9(12)8(11)5-7(10)3-2-4-13/h4-6H,2-3H2,1H3
InChIKey=FPQXPYRZMUHZKA-UHFFFAOYSA-N

> <PUBCHEM_SUBSTANCE_SYNONYM>
SCHEMBL16117965

> <PUBCHEM_XREF_EXT_ID>
SCHEMBL16117965

> <PUBCHEM_EXT_DATASOURCE_URL>
https://www.surechembl.org/

> <PUBCHEM_EXT_SUBSTANCE_URL>
https://www.surechembl.org/chemical/SCHEMBL16117965

> <PUBCHEM_CID_ASSOCIATIONS>
117607187  1

> <PUBCHEM_COORDINATE_TYPE>
1
3

$$$$
