310931404
  -OEChem-07211613022D

 33 35  0     1  0  0  0  0  0999 V2000
    2.9056   -7.1743    0.0000 Cl  0  0  0  0  0  0  0  0  0  0  0  0
    6.2417   -2.8697    0.0000 S   0  0  0  0  0  0  0  0  0  0  0  0
    5.3808   -1.4349    0.0000 F   0  0  0  0  0  0  0  0  0  0  0  0
    3.7665   -4.3046    0.0000 F   0  0  0  0  0  0  0  0  0  0  0  0
    2.9056   -2.8697    0.0000 O   0  0  0  0  0  0  0  0  0  0  0  0
    6.2417   -3.7665    0.0000 O   0  0  0  0  0  0  0  0  0  0  0  0
    6.2417   -2.0806    0.0000 O   0  0  0  0  0  0  0  0  0  0  0  0
    8.2864   -2.1523    0.0000 O   0  0  0  0  0  0  0  0  0  0  0  0
    7.0667   -2.8697    0.0000 N   0  0  0  0  0  0  0  0  0  0  0  0
    7.0667   -1.4349    0.0000 N   0  0  0  0  0  0  0  0  0  0  0  0
    0.4304   -2.8697    0.0000 N   0  0  0  0  0  0  0  0  0  0  0  0
    5.4167   -2.8697    0.0000 C   0  0  0  0  0  0  0  0  0  0  0  0
    4.9861   -2.1523    0.0000 C   0  0  0  0  0  0  0  0  0  0  0  0
    3.7306   -2.8697    0.0000 C   0  0  0  0  0  0  0  0  0  0  0  0
    4.9861   -3.5872    0.0000 C   0  0  0  0  0  0  0  0  0  0  0  0
    4.1611   -3.5872    0.0000 C   0  0  0  0  0  0  0  0  0  0  0  0
    4.1611   -2.1523    0.0000 C   0  0  0  0  0  0  0  0  0  0  0  0
    1.6501   -3.5872    0.0000 C   0  0  3  0  0  0  0  0  0  0  0  0
    1.2555   -4.3046    0.0000 C   0  0  3  0  0  0  0  0  0  0  0  0
    7.4613   -2.1523    0.0000 C   0  0  0  0  0  0  0  0  0  0  0  0
    2.4751   -3.5872    0.0000 C   0  0  0  0  0  0  0  0  0  0  0  0
    1.6501   -5.0220    0.0000 C   0  0  0  0  0  0  0  0  0  0  0  0
    1.2555   -2.8697    0.0000 C   0  0  0  0  0  0  0  0  0  0  0  0
    0.4304   -4.3046    0.0000 C   0  0  0  0  0  0  0  0  0  0  0  0
    2.4751   -5.0220    0.0000 C   0  0  0  0  0  0  0  0  0  0  0  0
    1.2555   -5.7395    0.0000 C   0  0  0  0  0  0  0  0  0  0  0  0
    0.0000   -3.5872    0.0000 C   0  0  0  0  0  0  0  0  0  0  0  0
    2.4751   -6.4569    0.0000 C   0  0  0  0  0  0  0  0  0  0  0  0
    2.9056   -5.7395    0.0000 C   0  0  0  0  0  0  0  0  0  0  0  0
    1.6501   -6.4569    0.0000 C   0  0  0  0  0  0  0  0  0  0  0  0
    7.4613   -0.7174    0.0000 C   0  0  0  0  0  0  0  0  0  0  0  0
    7.0667    0.0000    0.0000 C   0  0  0  0  0  0  0  0  0  0  0  0
    8.2864   -0.7174    0.0000 C   0  0  0  0  0  0  0  0  0  0  0  0
  1 28  1  0  0  0  0
  2  6  2  0  0  0  0
  2  7  2  0  0  0  0
  2  9  1  0  0  0  0
  2 12  1  0  0  0  0
  3 13  1  0  0  0  0
  4 16  1  0  0  0  0
  5 14  1  0  0  0  0
  5 21  1  0  0  0  0
  8 20  2  0  0  0  0
  9 20  1  0  0  0  0
 10 20  1  0  0  0  0
 10 31  1  0  0  0  0
 11 23  1  0  0  0  0
 11 27  1  0  0  0  0
 12 13  1  0  0  0  0
 12 15  2  0  0  0  0
 13 17  2  0  0  0  0
 14 16  2  0  0  0  0
 14 17  1  0  0  0  0
 15 16  1  0  0  0  0
 18 19  1  0  0  0  0
 18 21  1  6  0  0  0
 18 23  1  0  0  0  0
 19 22  1  0  0  0  0
 19 24  1  1  0  0  0
 22 25  2  0  0  0  0
 22 26  1  0  0  0  0
 24 27  1  0  0  0  0
 25 29  1  0  0  0  0
 26 30  2  0  0  0  0
 28 29  2  0  0  0  0
 28 30  1  0  0  0  0
 31 32  1  0  0  0  0
 31 33  1  0  0  0  0
M  END
> <PUBCHEM_COMPOUND_ID_TYPE>
0

> <PUBCHEM_TOTAL_CHARGE>
0

> <PUBCHEM_SUBSTANCE_ID>
310931404

> <PUBCHEM_SUBSTANCE_VERSION>
1

> <PUBCHEM_EXT_DATASOURCE_NAME>
4488

> <PUBCHEM_EXT_DATASOURCE_REGID>
SCHEMBL16108728

> <PUBCHEM_SUBSTANCE_COMMENT>
InChI=1S/C22H26ClF2N3O4S/c1-13(2)27-22(29)28-33(30,31)21-10-18(24)20(9-19(21)25)32-12-15-11-26-8-7-17(15)14-3-5-16(23)6-4-14/h3-6,9-10,13,15,17,26H,7-8,11-12H2,1-2H3,(H2,27,28,29)/t15-,17-/m1/s1
InChIKey=ALTZYACGMJLFNX-NVXWUHKLSA-N

> <PUBCHEM_SUBSTANCE_SYNONYM>
SCHEMBL16108728

> <PUBCHEM_XREF_EXT_ID>
SCHEMBL16108728

> <PUBCHEM_EXT_DATASOURCE_URL>
https://www.surechembl.org/

> <PUBCHEM_EXT_SUBSTANCE_URL>
https://www.surechembl.org/chemical/SCHEMBL16108728

> <PUBCHEM_CID_ASSOCIATIONS>
71559185  1

> <PUBCHEM_COORDINATE_TYPE>
1
3

> <PUBCHEM_BONDANNOTATIONS>
18  21  6
19  24  5

$$$$
