310936518
  -OEChem-07211613022D

 29 32  0     1  0  0  0  0  0999 V2000
    1.9233    3.5854    0.0000 O   0  0  0  0  0  0  0  0  0  0  0  0
    6.6430    1.4453    0.0000 O   0  0  0  0  0  0  0  0  0  0  0  0
    3.1924    3.7472    0.0000 O   0  0  0  0  0  0  0  0  0  0  0  0
    6.5282    2.2623    0.0000 N   0  0  0  0  0  0  0  0  0  0  0  0
    3.3523    1.9354    0.0000 C   0  0  3  0  0  0  0  0  0  0  0  0
    2.6378    2.3479    0.0000 C   0  0  3  0  0  0  0  0  0  0  0  0
    1.9233    1.9354    0.0000 C   0  0  3  0  0  0  0  0  0  0  0  0
    4.0668    2.3479    0.0000 C   0  0  3  0  0  0  0  0  0  0  0  0
    1.9233    1.1104    0.0000 C   0  0  3  0  0  0  0  0  0  0  0  0
    4.4541    3.0764    0.0000 C   0  0  3  0  0  0  0  0  0  0  0  0
    3.3523    1.1104    0.0000 C   0  0  0  0  0  0  0  0  0  0  0  0
    2.6378    0.6979    0.0000 C   0  0  0  0  0  0  0  0  0  0  0  0
    1.1387    0.8555    0.0000 C   0  0  0  0  0  0  0  0  0  0  0  0
    1.1387    2.1904    0.0000 C   0  0  0  0  0  0  0  0  0  0  0  0
    4.5039    1.6483    0.0000 C   0  0  0  0  0  0  0  0  0  0  0  0
    2.6378    3.1729    0.0000 C   0  0  0  0  0  0  0  0  0  0  0  0
    5.2786    3.1052    0.0000 C   0  0  0  0  0  0  0  0  0  0  0  0
    5.3284    1.6771    0.0000 C   0  0  0  0  0  0  0  0  0  0  0  0
    0.6538    1.5229    0.0000 C   0  0  0  0  0  0  0  0  0  0  0  0
    3.3253    2.7096    0.0000 C   0  0  0  0  0  0  0  0  0  0  0  0
    5.7158    2.4055    0.0000 C   0  0  0  0  0  0  0  0  0  0  0  0
    1.8371    0.2900    0.0000 C   0  0  0  0  0  0  0  0  0  0  0  0
    4.0169    3.7760    0.0000 C   0  0  0  0  0  0  0  0  0  0  0  0
    0.8838    0.0709    0.0000 C   0  0  0  0  0  0  0  0  0  0  0  0
    5.9015    1.0836    0.0000 C   0  0  0  0  0  0  0  0  0  0  0  0
    4.0668    1.5229    0.0000 H   0  0  0  0  0  0  0  0  0  0  0  0
    3.1681    2.9799    0.0000 H   0  0  0  0  0  0  0  0  0  0  0  0
    1.8371    2.7559    0.0000 H   0  0  0  0  0  0  0  0  0  0  0  0
    4.8414    3.8048    0.0000 H   0  0  0  0  0  0  0  0  0  0  0  0
  1 16  1  0  0  0  0
  2  4  1  0  0  0  0
  2 25  1  0  0  0  0
  3 23  1  0  0  0  0
  4 21  2  0  0  0  0
  5  6  1  0  0  0  0
  5  8  1  0  0  0  0
  5 11  1  0  0  0  0
  5 26  1  6  0  0  0
  6  7  1  0  0  0  0
  6 16  1  0  0  0  0
  6 27  1  1  0  0  0
  7  9  1  0  0  0  0
  7 14  1  0  0  0  0
  7 28  1  6  0  0  0
  8 10  1  0  0  0  0
  8 15  1  0  0  0  0
  8 20  1  1  0  0  0
  9 12  1  0  0  0  0
  9 13  1  0  0  0  0
  9 22  1  1  0  0  0
 10 17  1  0  0  0  0
 10 23  1  0  0  0  0
 10 29  1  6  0  0  0
 11 12  1  0  0  0  0
 13 19  1  0  0  0  0
 13 24  2  0  0  0  0
 14 19  1  0  0  0  0
 15 18  1  0  0  0  0
 17 21  1  0  0  0  0
 18 21  1  0  0  0  0
 18 25  2  0  0  0  0
M  END
> <PUBCHEM_COMPOUND_ID_TYPE>
0

> <PUBCHEM_TOTAL_CHARGE>
0

> <PUBCHEM_SUBSTANCE_ID>
310936518

> <PUBCHEM_SUBSTANCE_VERSION>
1

> <PUBCHEM_EXT_DATASOURCE_NAME>
4488

> <PUBCHEM_EXT_DATASOURCE_REGID>
SCHEMBL16114169

> <PUBCHEM_SUBSTANCE_COMMENT>
InChI=1S/C21H31NO3/c1-13-4-5-17-16(11-24)18(6-7-20(13,17)2)21(3)9-14-12-25-22-19(14)8-15(21)10-23/h12,15-18,23-24H,1,4-11H2,2-3H3/t15-,16+,17+,18+,20-,21+/m1/s1
InChIKey=AWJUKAOTVTXQJP-QPNVGHEYSA-N

> <PUBCHEM_SUBSTANCE_SYNONYM>
SCHEMBL16114169

> <PUBCHEM_XREF_EXT_ID>
SCHEMBL16114169

> <PUBCHEM_EXT_DATASOURCE_URL>
https://www.surechembl.org/

> <PUBCHEM_EXT_SUBSTANCE_URL>
https://www.surechembl.org/chemical/SCHEMBL16114169

> <PUBCHEM_CID_ASSOCIATIONS>
117604445  1

> <PUBCHEM_COORDINATE_TYPE>
1
3

> <PUBCHEM_BONDANNOTATIONS>
10  29  6
5  26  6
6  27  5
7  28  6
8  20  5
9  22  5

$$$$
