310938600
  -OEChem-07211613022D

 15 15  0     0  0  0  0  0  0999 V2000
   -2.5006    3.1937    0.0000 Cl  0  0  0  0  0  0  0  0  0  0  0  0
   -2.5006    0.7187    0.0000 O   0  0  0  0  0  0  0  0  0  0  0  0
   -1.7862    1.9562    0.0000 C   0  0  0  0  0  0  0  0  0  0  0  0
   -1.7862    2.7812    0.0000 C   0  0  0  0  0  0  0  0  0  0  0  0
   -0.3572    2.7812    0.0000 C   0  0  0  0  0  0  0  0  0  0  0  0
   -1.0717    3.1937    0.0000 C   0  0  0  0  0  0  0  0  0  0  0  0
   -1.0717    1.5437    0.0000 C   0  0  0  0  0  0  0  0  0  0  0  0
   -0.3572    1.9562    0.0000 C   0  0  0  0  0  0  0  0  0  0  0  0
    0.3572    3.1937    0.0000 C   0  0  0  0  0  0  0  0  0  0  0  0
    1.7862    3.1937    0.0000 C   0  0  0  0  0  0  0  0  0  0  0  0
    1.0717    2.7812    0.0000 C   0  0  0  0  0  0  0  0  0  0  0  0
   -2.5006    1.5437    0.0000 C   0  0  0  0  0  0  0  0  0  0  0  0
    1.3737    3.9081    0.0000 C   0  0  0  0  0  0  0  0  0  0  0  0
    2.1987    2.4792    0.0000 C   0  0  0  0  0  0  0  0  0  0  0  0
    2.5006    3.6062    0.0000 C   0  0  0  0  0  0  0  0  0  0  0  0
  1  4  1  0  0  0  0
  2 12  1  0  0  0  0
  3  4  2  0  0  0  0
  3  7  1  0  0  0  0
  3 12  1  0  0  0  0
  4  6  1  0  0  0  0
  5  6  2  0  0  0  0
  5  8  1  0  0  0  0
  5  9  1  0  0  0  0
  7  8  2  0  0  0  0
  9 11  1  0  0  0  0
 10 11  1  0  0  0  0
 10 13  1  0  0  0  0
 10 14  1  0  0  0  0
 10 15  1  0  0  0  0
M  END
> <PUBCHEM_COMPOUND_ID_TYPE>
0

> <PUBCHEM_TOTAL_CHARGE>
0

> <PUBCHEM_SUBSTANCE_ID>
310938600

> <PUBCHEM_SUBSTANCE_VERSION>
1

> <PUBCHEM_EXT_DATASOURCE_NAME>
4488

> <PUBCHEM_EXT_DATASOURCE_REGID>
SCHEMBL16116514

> <PUBCHEM_SUBSTANCE_COMMENT>
InChI=1S/C13H19ClO/c1-13(2,3)7-6-10-4-5-11(9-15)12(14)8-10/h4-5,8,15H,6-7,9H2,1-3H3
InChIKey=UDPUXUOVUORKII-UHFFFAOYSA-N

> <PUBCHEM_SUBSTANCE_SYNONYM>
SCHEMBL16116514

> <PUBCHEM_XREF_EXT_ID>
SCHEMBL16116514

> <PUBCHEM_EXT_DATASOURCE_URL>
https://www.surechembl.org/

> <PUBCHEM_EXT_SUBSTANCE_URL>
https://www.surechembl.org/chemical/SCHEMBL16116514

> <PUBCHEM_CID_ASSOCIATIONS>
117606033  1

> <PUBCHEM_COORDINATE_TYPE>
1
3

> <PUBCHEM_BONDANNOTATIONS>
10  13  3
10  14  3

$$$$
