310949206
  -OEChem-07211613022D

 53 61  0     0  0  0  0  0  0999 V2000
    0.0159    2.1590    0.0000 N   0  0  0  0  0  0  0  0  0  0  0  0
    0.0159   -2.8257    0.0000 N   0  0  0  0  0  0  0  0  0  0  0  0
    2.1590    1.7145    0.0000 N   0  0  0  0  0  0  0  0  0  0  0  0
   -2.1431    1.6827    0.0000 N   0  0  0  0  0  0  0  0  0  0  0  0
    0.6826    2.6829    0.0000 C   0  0  0  0  0  0  0  0  0  0  0  0
   -0.7144    2.6669    0.0000 C   0  0  0  0  0  0  0  0  0  0  0  0
    0.3969    3.4607    0.0000 C   0  0  0  0  0  0  0  0  0  0  0  0
   -0.4445    3.4607    0.0000 C   0  0  0  0  0  0  0  0  0  0  0  0
    0.0000    1.3493    0.0000 C   0  0  0  0  0  0  0  0  0  0  0  0
    0.7303    0.9525    0.0000 C   0  0  0  0  0  0  0  0  0  0  0  0
   -0.7144    0.9207    0.0000 C   0  0  0  0  0  0  0  0  0  0  0  0
    1.4764    2.5400    0.0000 C   0  0  0  0  0  0  0  0  0  0  0  0
   -1.5240    2.5082    0.0000 C   0  0  0  0  0  0  0  0  0  0  0  0
    0.9525    4.0481    0.0000 C   0  0  0  0  0  0  0  0  0  0  0  0
   -0.9842    4.0164    0.0000 C   0  0  0  0  0  0  0  0  0  0  0  0
    2.0479    3.1432    0.0000 C   0  0  0  0  0  0  0  0  0  0  0  0
   -2.0637    3.0638    0.0000 C   0  0  0  0  0  0  0  0  0  0  0  0
    0.0159   -0.3017    0.0000 C   0  0  0  0  0  0  0  0  0  0  0  0
    0.7144    0.1270    0.0000 C   0  0  0  0  0  0  0  0  0  0  0  0
   -0.7144    0.1111    0.0000 C   0  0  0  0  0  0  0  0  0  0  0  0
    1.7621    3.9052    0.0000 C   0  0  0  0  0  0  0  0  0  0  0  0
   -1.8097    3.8576    0.0000 C   0  0  0  0  0  0  0  0  0  0  0  0
   -0.0159   -1.1271    0.0000 C   0  0  0  0  0  0  0  0  0  0  0  0
    2.9051    3.0003    0.0000 C   0  0  0  0  0  0  0  0  0  0  0  0
   -2.8734    2.9051    0.0000 C   0  0  0  0  0  0  0  0  0  0  0  0
    1.4446    1.3493    0.0000 C   0  0  0  0  0  0  0  0  0  0  0  0
   -1.4446    1.3176    0.0000 C   0  0  0  0  0  0  0  0  0  0  0  0
   -0.7144   -1.5716    0.0000 C   0  0  0  0  0  0  0  0  0  0  0  0
    0.7144   -1.5399    0.0000 C   0  0  0  0  0  0  0  0  0  0  0  0
   -0.7303   -2.3812    0.0000 C   0  0  0  0  0  0  0  0  0  0  0  0
    0.6985   -2.3654    0.0000 C   0  0  0  0  0  0  0  0  0  0  0  0
    3.1750    2.2225    0.0000 C   0  0  0  0  0  0  0  0  0  0  0  0
   -3.4290    3.4607    0.0000 C   0  0  0  0  0  0  0  0  0  0  0  0
    3.4607    3.5878    0.0000 C   0  0  0  0  0  0  0  0  0  0  0  0
   -3.1273    2.1114    0.0000 C   0  0  0  0  0  0  0  0  0  0  0  0
   -1.4446   -2.8098    0.0000 C   0  0  0  0  0  0  0  0  0  0  0  0
    1.4605   -2.7781    0.0000 C   0  0  0  0  0  0  0  0  0  0  0  0
    3.9687    2.0637    0.0000 C   0  0  0  0  0  0  0  0  0  0  0  0
   -4.2386    3.2861    0.0000 C   0  0  0  0  0  0  0  0  0  0  0  0
    4.2545    3.4131    0.0000 C   0  0  0  0  0  0  0  0  0  0  0  0
   -3.9370    1.9367    0.0000 C   0  0  0  0  0  0  0  0  0  0  0  0
    4.4926    2.6511    0.0000 C   0  0  0  0  0  0  0  0  0  0  0  0
   -4.4926    2.5082    0.0000 C   0  0  0  0  0  0  0  0  0  0  0  0
   -2.1590   -2.4129    0.0000 C   0  0  0  0  0  0  0  0  0  0  0  0
   -1.4605   -3.6512    0.0000 C   0  0  0  0  0  0  0  0  0  0  0  0
    1.4764   -3.6195    0.0000 C   0  0  0  0  0  0  0  0  0  0  0  0
    2.1748   -2.3812    0.0000 C   0  0  0  0  0  0  0  0  0  0  0  0
   -2.8416   -2.8257    0.0000 C   0  0  0  0  0  0  0  0  0  0  0  0
   -2.1431   -4.0481    0.0000 C   0  0  0  0  0  0  0  0  0  0  0  0
    2.1431   -4.0005    0.0000 C   0  0  0  0  0  0  0  0  0  0  0  0
    2.9369   -2.7622    0.0000 C   0  0  0  0  0  0  0  0  0  0  0  0
   -2.8575   -3.6512    0.0000 C   0  0  0  0  0  0  0  0  0  0  0  0
    2.9369   -3.5560    0.0000 C   0  0  0  0  0  0  0  0  0  0  0  0
  1  5  1  0  0  0  0
  1  6  1  0  0  0  0
  1  9  1  0  0  0  0
  2 30  2  0  0  0  0
  2 31  1  0  0  0  0
  3 26  3  0  0  0  0
  4 27  3  0  0  0  0
  5  7  2  0  0  0  0
  5 12  1  0  0  0  0
  6  8  2  0  0  0  0
  6 13  1  0  0  0  0
  7  8  1  0  0  0  0
  7 14  1  0  0  0  0
  8 15  1  0  0  0  0
  9 10  2  0  0  0  0
  9 11  1  0  0  0  0
 10 19  1  0  0  0  0
 10 26  1  0  0  0  0
 11 20  2  0  0  0  0
 11 27  1  0  0  0  0
 12 16  2  0  0  0  0
 13 17  2  0  0  0  0
 14 21  2  0  0  0  0
 15 22  2  0  0  0  0
 16 21  1  0  0  0  0
 16 24  1  0  0  0  0
 17 22  1  0  0  0  0
 17 25  1  0  0  0  0
 18 19  2  0  0  0  0
 18 20  1  0  0  0  0
 18 23  1  0  0  0  0
 23 28  2  0  0  0  0
 23 29  1  0  0  0  0
 24 32  2  0  0  0  0
 24 34  1  0  0  0  0
 25 33  2  0  0  0  0
 25 35  1  0  0  0  0
 28 30  1  0  0  0  0
 29 31  2  0  0  0  0
 30 36  1  0  0  0  0
 31 37  1  0  0  0  0
 32 38  1  0  0  0  0
 33 39  1  0  0  0  0
 34 40  2  0  0  0  0
 35 41  2  0  0  0  0
 36 44  2  0  0  0  0
 36 45  1  0  0  0  0
 37 46  2  0  0  0  0
 37 47  1  0  0  0  0
 38 42  2  0  0  0  0
 39 43  2  0  0  0  0
 40 42  1  0  0  0  0
 41 43  1  0  0  0  0
 44 48  1  0  0  0  0
 45 49  2  0  0  0  0
 46 50  1  0  0  0  0
 47 51  2  0  0  0  0
 48 52  2  0  0  0  0
 49 52  1  0  0  0  0
 50 53  2  0  0  0  0
 51 53  1  0  0  0  0
M  END
> <PUBCHEM_COMPOUND_ID_TYPE>
0

> <PUBCHEM_TOTAL_CHARGE>
0

> <PUBCHEM_SUBSTANCE_ID>
310949206

> <PUBCHEM_SUBSTANCE_VERSION>
1

> <PUBCHEM_EXT_DATASOURCE_NAME>
4488

> <PUBCHEM_EXT_DATASOURCE_REGID>
SCHEMBL16127396

> <PUBCHEM_SUBSTANCE_COMMENT>
InChI=1S/C49H30N4/c50-31-41-25-39(40-27-45(35-17-9-3-10-18-35)52-46(28-40)36-19-11-4-12-20-36)26-42(32-51)49(41)53-47-29-37(33-13-5-1-6-14-33)21-23-43(47)44-24-22-38(30-48(44)53)34-15-7-2-8-16-34/h1-30H
InChIKey=YHEOMMXAHBQTFF-UHFFFAOYSA-N

> <PUBCHEM_SUBSTANCE_SYNONYM>
SCHEMBL16127396

> <PUBCHEM_XREF_EXT_ID>
SCHEMBL16127396

> <PUBCHEM_EXT_DATASOURCE_URL>
https://www.surechembl.org/

> <PUBCHEM_EXT_SUBSTANCE_URL>
https://www.surechembl.org/chemical/SCHEMBL16127396

> <PUBCHEM_CID_ASSOCIATIONS>
117614694  1

> <PUBCHEM_COORDINATE_TYPE>
1
3

$$$$
