310937634
  -OEChem-07211613022D

 36 40  0     0  0  0  0  0  0999 V2000
   -0.7144    1.6500    0.0000 F   0  0  0  0  0  0  0  0  0  0  0  0
   -0.3194    1.8936    0.0000 F   0  0  0  0  0  0  0  0  0  0  0  0
    5.6264    1.6966    0.0000 O   0  0  0  0  0  0  0  0  0  0  0  0
    9.1935   -1.1974    0.0000 O   0  0  0  0  0  0  0  0  0  0  0  0
    0.7846    0.6674    0.0000 N   0  0  0  0  0  0  0  0  0  0  0  0
    0.7846   -0.6674    0.0000 N   0  0  0  0  0  0  0  0  0  0  0  0
    1.8465    1.6236    0.0000 N   0  0  0  0  0  0  0  0  0  0  0  0
    1.5495    3.0213    0.0000 N   0  0  0  0  0  0  0  0  0  0  0  0
    2.9084    2.5797    0.0000 N   0  0  0  0  0  0  0  0  0  0  0  0
    7.5374    0.6420    0.0000 N   0  0  0  0  0  0  0  0  0  0  0  0
    0.0000    0.4125    0.0000 C   0  0  0  0  0  0  0  0  0  0  0  0
    1.0396    1.4520    0.0000 C   0  0  0  0  0  0  0  0  0  0  0  0
    0.0000   -0.4125    0.0000 C   0  0  0  0  0  0  0  0  0  0  0  0
   -0.7144    0.8250    0.0000 C   0  0  0  0  0  0  0  0  0  0  0  0
    1.2695    0.0000    0.0000 C   0  0  0  0  0  0  0  0  0  0  0  0
    0.4875    2.0651    0.0000 C   0  0  0  0  0  0  0  0  0  0  0  0
    2.1014    2.4082    0.0000 C   0  0  0  0  0  0  0  0  0  0  0  0
   -0.7144   -0.8250    0.0000 C   0  0  0  0  0  0  0  0  0  0  0  0
   -1.4289    0.4125    0.0000 C   0  0  0  0  0  0  0  0  0  0  0  0
    0.7424    2.8498    0.0000 C   0  0  0  0  0  0  0  0  0  0  0  0
   -1.4289   -0.4125    0.0000 C   0  0  0  0  0  0  0  0  0  0  0  0
    3.4604    1.9666    0.0000 C   0  0  0  0  0  0  0  0  0  0  0  0
    4.2674    2.1381    0.0000 C   0  0  0  0  0  0  0  0  0  0  0  0
    3.2055    1.1820    0.0000 C   0  0  0  0  0  0  0  0  0  0  0  0
    4.8194    1.5251    0.0000 C   0  0  0  0  0  0  0  0  0  0  0  0
    3.7576    0.5690    0.0000 C   0  0  0  0  0  0  0  0  0  0  0  0
    4.5645    0.7404    0.0000 C   0  0  0  0  0  0  0  0  0  0  0  0
    3.5026   -0.2157    0.0000 C   0  0  0  0  0  0  0  0  0  0  0  0
    6.1784    1.0835    0.0000 C   0  0  0  0  0  0  0  0  0  0  0  0
    6.9854    1.2551    0.0000 C   0  0  0  0  0  0  0  0  0  0  0  0
    8.3444    0.8134    0.0000 C   0  0  0  0  0  0  0  0  0  0  0  0
    7.2825   -0.1427    0.0000 C   0  0  0  0  0  0  0  0  0  0  0  0
    8.6415   -0.5843    0.0000 C   0  0  0  0  0  0  0  0  0  0  0  0
    2.6957   -0.3872    0.0000 C   0  0  0  0  0  0  0  0  0  0  0  0
    8.8964    0.2004    0.0000 C   0  0  0  0  0  0  0  0  0  0  0  0
    7.8346   -0.7558    0.0000 C   0  0  0  0  0  0  0  0  0  0  0  0
  1 14  1  0  0  0  0
  2 16  1  0  0  0  0
  3 25  1  0  0  0  0
  3 29  1  0  0  0  0
  4 33  1  0  0  0  0
  5 11  1  0  0  0  0
  5 12  1  0  0  0  0
  5 15  1  0  0  0  0
  6 13  1  0  0  0  0
  6 15  2  0  0  0  0
  7 12  2  0  0  0  0
  7 17  1  0  0  0  0
  8 17  2  0  0  0  0
  8 20  1  0  0  0  0
  9 17  1  0  0  0  0
  9 22  1  0  0  0  0
 10 30  1  0  0  0  0
 10 31  1  0  0  0  0
 10 32  1  0  0  0  0
 11 13  1  0  0  0  0
 11 14  2  0  0  0  0
 12 16  1  0  0  0  0
 13 18  2  0  0  0  0
 14 19  1  0  0  0  0
 16 20  2  0  0  0  0
 18 21  1  0  0  0  0
 19 21  2  0  0  0  0
 22 23  1  0  0  0  0
 22 24  2  0  0  0  0
 23 25  2  0  0  0  0
 24 26  1  0  0  0  0
 25 27  1  0  0  0  0
 26 27  2  0  0  0  0
 26 28  1  0  0  0  0
 28 34  1  0  0  0  0
 29 30  1  0  0  0  0
 31 35  1  0  0  0  0
 32 36  1  0  0  0  0
 33 35  1  0  0  0  0
 33 36  1  0  0  0  0
M  END
> <PUBCHEM_COMPOUND_ID_TYPE>
0

> <PUBCHEM_TOTAL_CHARGE>
0

> <PUBCHEM_SUBSTANCE_ID>
310937634

> <PUBCHEM_SUBSTANCE_VERSION>
1

> <PUBCHEM_EXT_DATASOURCE_NAME>
4488

> <PUBCHEM_EXT_DATASOURCE_REGID>
SCHEMBL16115419

> <PUBCHEM_SUBSTANCE_COMMENT>
InChI=1S/C26H28F2N6O2/c1-2-17-12-18(14-20(13-17)36-11-10-33-8-6-19(35)7-9-33)31-26-29-15-22(28)25(32-26)34-16-30-23-5-3-4-21(27)24(23)34/h3-5,12-16,19,35H,2,6-11H2,1H3,(H,29,31,32)
InChIKey=GGFKOOIBKNQLNG-UHFFFAOYSA-N

> <PUBCHEM_SUBSTANCE_SYNONYM>
SCHEMBL16115419

> <PUBCHEM_XREF_EXT_ID>
SCHEMBL16115419

> <PUBCHEM_EXT_DATASOURCE_URL>
https://www.surechembl.org/

> <PUBCHEM_EXT_SUBSTANCE_URL>
https://www.surechembl.org/chemical/SCHEMBL16115419

> <PUBCHEM_CID_ASSOCIATIONS>
86300237  1

> <PUBCHEM_COORDINATE_TYPE>
1
3

$$$$
