310949237
  -OEChem-07211613022D

 44 51  0     0  0  0  0  0  0999 V2000
   -1.6115   -2.7364    0.0000 F   0  0  0  0  0  0  0  0  0  0  0  0
   -2.1061   -1.7312    0.0000 F   0  0  0  0  0  0  0  0  0  0  0  0
   -1.0850   -1.2366    0.0000 F   0  0  0  0  0  0  0  0  0  0  0  0
    0.3829   -1.1727    0.0000 N   0  0  0  0  0  0  0  0  0  0  0  0
   -2.0423    1.1408    0.0000 N   0  0  0  0  0  0  0  0  0  0  0  0
    2.5848   -1.6674    0.0000 N   0  0  0  0  0  0  0  0  0  0  0  0
   -0.3351   -0.6462    0.0000 C   0  0  0  0  0  0  0  0  0  0  0  0
   -0.0797    0.1357    0.0000 C   0  0  0  0  0  0  0  0  0  0  0  0
    1.0531   -0.6302    0.0000 C   0  0  0  0  0  0  0  0  0  0  0  0
    0.7978    0.1197    0.0000 C   0  0  0  0  0  0  0  0  0  0  0  0
    0.3670   -1.9545    0.0000 C   0  0  0  0  0  0  0  0  0  0  0  0
   -1.4839    0.5664    0.0000 C   0  0  0  0  0  0  0  0  0  0  0  0
   -0.6382    0.6940    0.0000 C   0  0  0  0  0  0  0  0  0  0  0  0
   -1.8668    1.9705    0.0000 C   0  0  0  0  0  0  0  0  0  0  0  0
   -2.8560    1.0770    0.0000 C   0  0  0  0  0  0  0  0  0  0  0  0
   -0.3510   -2.3694    0.0000 C   0  0  0  0  0  0  0  0  0  0  0  0
   -1.1328   -0.8217    0.0000 C   0  0  0  0  0  0  0  0  0  0  0  0
   -3.1911    1.8109    0.0000 C   0  0  0  0  0  0  0  0  0  0  0  0
   -2.5688    2.3853    0.0000 C   0  0  0  0  0  0  0  0  0  0  0  0
    1.3881    0.7259    0.0000 C   0  0  0  0  0  0  0  0  0  0  0  0
    1.1328   -2.3694    0.0000 C   0  0  0  0  0  0  0  0  0  0  0  0
    1.8828   -0.8217    0.0000 C   0  0  0  0  0  0  0  0  0  0  0  0
   -1.7391   -0.2313    0.0000 C   0  0  0  0  0  0  0  0  0  0  0  0
    2.1859    0.5664    0.0000 C   0  0  0  0  0  0  0  0  0  0  0  0
   -1.3562   -1.9705    0.0000 C   0  0  0  0  0  0  0  0  0  0  0  0
    2.4412   -0.2313    0.0000 C   0  0  0  0  0  0  0  0  0  0  0  0
   -0.3670   -3.1672    0.0000 C   0  0  0  0  0  0  0  0  0  0  0  0
   -1.1488    2.3694    0.0000 C   0  0  0  0  0  0  0  0  0  0  0  0
   -3.3346    0.4228    0.0000 C   0  0  0  0  0  0  0  0  0  0  0  0
   -4.0208    1.8907    0.0000 C   0  0  0  0  0  0  0  0  0  0  0  0
   -2.5369    3.1991    0.0000 C   0  0  0  0  0  0  0  0  0  0  0  0
    1.1009   -3.1991    0.0000 C   0  0  0  0  0  0  0  0  0  0  0  0
    2.8719    1.0451    0.0000 C   0  0  0  0  0  0  0  0  0  0  0  0
    1.8509   -2.0024    0.0000 C   0  0  0  0  0  0  0  0  0  0  0  0
    0.3989   -3.5820    0.0000 C   0  0  0  0  0  0  0  0  0  0  0  0
   -1.1328    3.1672    0.0000 C   0  0  0  0  0  0  0  0  0  0  0  0
   -4.1324    0.5026    0.0000 C   0  0  0  0  0  0  0  0  0  0  0  0
   -4.4835    1.2047    0.0000 C   0  0  0  0  0  0  0  0  0  0  0  0
   -1.9147    3.5820    0.0000 C   0  0  0  0  0  0  0  0  0  0  0  0
    3.5740    0.5824    0.0000 C   0  0  0  0  0  0  0  0  0  0  0  0
    2.9837    1.8269    0.0000 C   0  0  0  0  0  0  0  0  0  0  0  0
    4.3877    0.9015    0.0000 C   0  0  0  0  0  0  0  0  0  0  0  0
    3.7654    2.1620    0.0000 C   0  0  0  0  0  0  0  0  0  0  0  0
    4.4835    1.6674    0.0000 C   0  0  0  0  0  0  0  0  0  0  0  0
  1 25  1  0  0  0  0
  2 25  1  0  0  0  0
  3 25  1  0  0  0  0
  4  7  1  0  0  0  0
  4  9  1  0  0  0  0
  4 11  1  0  0  0  0
  5 12  1  0  0  0  0
  5 14  1  0  0  0  0
  5 15  1  0  0  0  0
  6 34  3  0  0  0  0
  7  8  2  0  0  0  0
  7 17  1  0  0  0  0
  8 10  1  0  0  0  0
  8 13  1  0  0  0  0
  9 10  2  0  0  0  0
  9 22  1  0  0  0  0
 10 20  1  0  0  0  0
 11 16  1  0  0  0  0
 11 21  2  0  0  0  0
 12 13  2  0  0  0  0
 12 23  1  0  0  0  0
 14 19  2  0  0  0  0
 14 28  1  0  0  0  0
 15 18  2  0  0  0  0
 15 29  1  0  0  0  0
 16 25  1  0  0  0  0
 16 27  2  0  0  0  0
 17 23  2  0  0  0  0
 18 19  1  0  0  0  0
 18 30  1  0  0  0  0
 19 31  1  0  0  0  0
 20 24  2  0  0  0  0
 21 32  1  0  0  0  0
 21 34  1  0  0  0  0
 22 26  2  0  0  0  0
 24 26  1  0  0  0  0
 24 33  1  0  0  0  0
 27 35  1  0  0  0  0
 28 36  2  0  0  0  0
 29 37  2  0  0  0  0
 30 38  2  0  0  0  0
 31 39  2  0  0  0  0
 32 35  2  0  0  0  0
 33 40  2  0  0  0  0
 33 41  1  0  0  0  0
 36 39  1  0  0  0  0
 37 38  1  0  0  0  0
 40 42  1  0  0  0  0
 41 43  2  0  0  0  0
 42 44  2  0  0  0  0
 43 44  1  0  0  0  0
M  END
> <PUBCHEM_COMPOUND_ID_TYPE>
0

> <PUBCHEM_TOTAL_CHARGE>
0

> <PUBCHEM_SUBSTANCE_ID>
310949237

> <PUBCHEM_SUBSTANCE_VERSION>
1

> <PUBCHEM_EXT_DATASOURCE_NAME>
4488

> <PUBCHEM_EXT_DATASOURCE_REGID>
SCHEMBL16127427

> <PUBCHEM_SUBSTANCE_COMMENT>
InChI=1S/C38H22F3N3/c39-38(40,41)32-14-8-11-26(23-42)37(32)44-35-19-17-25(24-9-2-1-3-10-24)21-30(35)31-22-27(18-20-36(31)44)43-33-15-6-4-12-28(33)29-13-5-7-16-34(29)43/h1-22H
InChIKey=ZZCLEJJBGCZYHA-UHFFFAOYSA-N

> <PUBCHEM_SUBSTANCE_SYNONYM>
SCHEMBL16127427

> <PUBCHEM_XREF_EXT_ID>
SCHEMBL16127427

> <PUBCHEM_EXT_DATASOURCE_URL>
https://www.surechembl.org/

> <PUBCHEM_EXT_SUBSTANCE_URL>
https://www.surechembl.org/chemical/SCHEMBL16127427

> <PUBCHEM_CID_ASSOCIATIONS>
117614725  1

> <PUBCHEM_COORDINATE_TYPE>
1
3

$$$$
