310934584
  -OEChem-07211613022D

 16 18  0     0  0  0  0  0  0999 V2000
    0.7219   -1.6500    0.0000 N   0  0  0  0  0  0  0  0  0  0  0  0
    0.0000   -2.8875    0.0000 N   0  0  0  0  0  0  0  0  0  0  0  0
    0.7219    0.0000    0.0000 N   0  0  0  0  0  0  0  0  0  0  0  0
    0.7219   -2.4750    0.0000 C   0  0  0  0  0  0  0  0  0  0  0  0
    1.4437   -2.8875    0.0000 C   0  0  0  0  0  0  0  0  0  0  0  0
    1.4437   -3.7125    0.0000 C   0  0  0  0  0  0  0  0  0  0  0  0
    2.1450   -2.4750    0.0000 C   0  0  0  0  0  0  0  0  0  0  0  0
    0.7219   -4.1250    0.0000 C   0  0  0  0  0  0  0  0  0  0  0  0
    1.4437   -1.2375    0.0000 C   0  0  0  0  0  0  0  0  0  0  0  0
    0.0206   -1.2375    0.0000 C   0  0  0  0  0  0  0  0  0  0  0  0
    0.0000   -3.7125    0.0000 C   0  0  0  0  0  0  0  0  0  0  0  0
    2.1450   -4.1250    0.0000 C   0  0  0  0  0  0  0  0  0  0  0  0
    2.8462   -2.8875    0.0000 C   0  0  0  0  0  0  0  0  0  0  0  0
    2.8462   -3.7125    0.0000 C   0  0  0  0  0  0  0  0  0  0  0  0
    0.0206   -0.4125    0.0000 C   0  0  0  0  0  0  0  0  0  0  0  0
    1.4437   -0.4125    0.0000 C   0  0  0  0  0  0  0  0  0  0  0  0
  1  4  1  0  0  0  0
  1  9  1  0  0  0  0
  1 10  1  0  0  0  0
  2  4  2  0  0  0  0
  2 11  1  0  0  0  0
  3 15  1  0  0  0  0
  3 16  1  0  0  0  0
  4  5  1  0  0  0  0
  5  6  2  0  0  0  0
  5  7  1  0  0  0  0
  6  8  1  0  0  0  0
  6 12  1  0  0  0  0
  7 13  2  0  0  0  0
  8 11  1  0  0  0  0
  9 16  1  0  0  0  0
 10 15  1  0  0  0  0
 12 14  2  0  0  0  0
 13 14  1  0  0  0  0
M  END
> <PUBCHEM_COMPOUND_ID_TYPE>
0

> <PUBCHEM_TOTAL_CHARGE>
0

> <PUBCHEM_SUBSTANCE_ID>
310934584

> <PUBCHEM_SUBSTANCE_VERSION>
1

> <PUBCHEM_EXT_DATASOURCE_NAME>
4488

> <PUBCHEM_EXT_DATASOURCE_REGID>
SCHEMBL16112076

> <PUBCHEM_SUBSTANCE_COMMENT>
InChI=1S/C13H17N3/c1-2-4-12-11(3-1)5-6-15-13(12)16-9-7-14-8-10-16/h1-4,14H,5-10H2
InChIKey=AGCNFQPVLWPODC-UHFFFAOYSA-N

> <PUBCHEM_SUBSTANCE_SYNONYM>
SCHEMBL16112076

> <PUBCHEM_XREF_EXT_ID>
SCHEMBL16112076

> <PUBCHEM_EXT_DATASOURCE_URL>
https://www.surechembl.org/

> <PUBCHEM_EXT_SUBSTANCE_URL>
https://www.surechembl.org/chemical/SCHEMBL16112076

> <PUBCHEM_CID_ASSOCIATIONS>
84008473  1

> <PUBCHEM_COORDINATE_TYPE>
1
3

$$$$
