310938190
  -OEChem-07211613022D

 21 23  0     1  0  0  0  0  0999 V2000
    3.2300   -3.9958    0.0000 Br  0  0  0  0  0  0  0  0  0  0  0  0
    0.4999   -0.1173    0.0000 N   0  0  0  0  0  0  0  0  0  0  0  0
    1.1564   -3.3139    0.0000 N   0  0  0  0  0  0  0  0  0  0  0  0
    3.6485   -1.9986    0.0000 N   0  0  0  0  0  0  0  0  0  0  0  0
    2.1275   -1.3591    0.0000 C   0  0  0  0  0  0  0  0  0  0  0  0
    1.0605   -0.5572    0.0000 C   0  0  3  0  0  0  0  0  0  0  0  0
    0.6396   -0.9304    0.0000 C   0  0  3  0  0  0  0  0  0  0  0  0
    1.9893   -0.5417    0.0000 C   0  0  0  0  0  0  0  0  0  0  0  0
    1.6113   -0.9304    0.0000 C   0  0  0  0  0  0  0  0  0  0  0  0
    2.0225   -2.1774    0.0000 C   0  0  0  0  0  0  0  0  0  0  0  0
    0.7400   -1.2658    0.0000 C   0  0  0  0  0  0  0  0  0  0  0  0
    0.1197   -1.6427    0.0000 C   0  0  0  0  0  0  0  0  0  0  0  0
    2.8880   -1.6789    0.0000 C   0  0  0  0  0  0  0  0  0  0  0  0
    0.0773    0.5912    0.0000 C   0  0  3  0  0  0  0  0  0  0  0  0
    2.6787   -2.6774    0.0000 C   0  0  0  0  0  0  0  0  0  0  0  0
    1.2614   -2.4957    0.0000 C   0  0  0  0  0  0  0  0  0  0  0  0
    2.5738   -3.4957    0.0000 C   0  0  0  0  0  0  0  0  0  0  0  0
   -0.7476    0.5795    0.0000 C   0  0  0  0  0  0  0  0  0  0  0  0
    1.8126   -3.8140    0.0000 C   0  0  0  0  0  0  0  0  0  0  0  0
    0.4796    1.3115    0.0000 C   0  0  0  0  0  0  0  0  0  0  0  0
   -1.5725    0.5678    0.0000 C   0  0  0  0  0  0  0  0  0  0  0  0
  1 17  1  0  0  0  0
  6  2  1  1  0  0  0
  2  7  1  0  0  0  0
  2 14  1  0  0  0  0
  3 16  2  0  0  0  0
  3 19  1  0  0  0  0
  4 13  3  0  0  0  0
  5  8  1  0  0  0  0
  5  9  1  0  0  0  0
  5 10  1  0  0  0  0
  5 13  1  0  0  0  0
  6  8  1  0  0  0  0
  6 11  1  0  0  0  0
  7  9  1  6  0  0  0
  7 12  1  0  0  0  0
 10 15  2  0  0  0  0
 10 16  1  0  0  0  0
 11 12  2  0  0  0  0
 14 18  1  0  0  0  0
 14 20  1  0  0  0  0
 15 17  1  0  0  0  0
 17 19  2  0  0  0  0
 18 21  3  0  0  0  0
M  END
> <PUBCHEM_COMPOUND_ID_TYPE>
0

> <PUBCHEM_TOTAL_CHARGE>
0

> <PUBCHEM_SUBSTANCE_ID>
310938190

> <PUBCHEM_SUBSTANCE_VERSION>
1

> <PUBCHEM_EXT_DATASOURCE_NAME>
4488

> <PUBCHEM_EXT_DATASOURCE_REGID>
SCHEMBL16116045

> <PUBCHEM_SUBSTANCE_COMMENT>
InChI=1S/C17H16BrN3/c1-3-12(2)21-15-4-5-16(21)8-17(7-15,11-19)13-6-14(18)10-20-9-13/h1,4-6,9-10,12,15-16H,7-8H2,2H3/t12?,15-,16+,17?
InChIKey=QTWPTJUOAYGRGQ-TWDRJXRQSA-N

> <PUBCHEM_SUBSTANCE_SYNONYM>
SCHEMBL16116045

> <PUBCHEM_XREF_EXT_ID>
SCHEMBL16116045

> <PUBCHEM_EXT_DATASOURCE_URL>
https://www.surechembl.org/

> <PUBCHEM_EXT_SUBSTANCE_URL>
https://www.surechembl.org/chemical/SCHEMBL16116045

> <PUBCHEM_CID_ASSOCIATIONS>
117605729  1

> <PUBCHEM_COORDINATE_TYPE>
1
3

> <PUBCHEM_BONDANNOTATIONS>
6  2  5
7  9  6

$$$$
