310944302
  -OEChem-07211613022D

 14 15  0     0  0  0  0  0  0999 V2000
    1.7478   -1.0684    0.0000 O   0  0  0  0  0  0  0  0  0  0  0  0
   -1.2218   -0.2904    0.0000 N   0  0  0  0  0  0  0  0  0  0  0  0
   -2.0108   -0.0932    0.0000 N   0  0  0  0  0  0  0  0  0  0  0  0
   -2.4492   -0.7945    0.0000 N   0  0  0  0  0  0  0  0  0  0  0  0
   -1.9231   -1.4301    0.0000 N   0  0  0  0  0  0  0  0  0  0  0  0
    1.0794    1.0136    0.0000 N   0  0  0  0  0  0  0  0  0  0  0  0
   -0.3561    0.2027    0.0000 C   0  0  0  0  0  0  0  0  0  0  0  0
    0.3561   -0.2137    0.0000 C   0  0  0  0  0  0  0  0  0  0  0  0
    1.0684    0.1808    0.0000 C   0  0  0  0  0  0  0  0  0  0  0  0
   -1.1780   -1.1232    0.0000 C   0  0  0  0  0  0  0  0  0  0  0  0
   -0.3233    1.0356    0.0000 C   0  0  0  0  0  0  0  0  0  0  0  0
    0.3671    1.4301    0.0000 C   0  0  0  0  0  0  0  0  0  0  0  0
    1.9122   -0.3342    0.0000 C   0  0  0  0  0  0  0  0  0  0  0  0
    2.4492   -0.6630    0.0000 C   0  0  0  0  0  0  0  0  0  0  0  0
  1 14  1  0  0  0  0
  2  3  1  0  0  0  0
  2  7  1  0  0  0  0
  2 10  1  0  0  0  0
  3  4  2  0  0  0  0
  4  5  1  0  0  0  0
  5 10  2  0  0  0  0
  6  9  2  0  0  0  0
  6 12  1  0  0  0  0
  7  8  2  0  0  0  0
  7 11  1  0  0  0  0
  8  9  1  0  0  0  0
  9 13  1  0  0  0  0
 11 12  2  0  0  0  0
 13 14  1  0  0  0  0
M  END
> <PUBCHEM_COMPOUND_ID_TYPE>
0

> <PUBCHEM_TOTAL_CHARGE>
0

> <PUBCHEM_SUBSTANCE_ID>
310944302

> <PUBCHEM_SUBSTANCE_VERSION>
1

> <PUBCHEM_EXT_DATASOURCE_NAME>
4488

> <PUBCHEM_EXT_DATASOURCE_REGID>
SCHEMBL16122377

> <PUBCHEM_SUBSTANCE_COMMENT>
InChI=1S/C8H9N5O/c14-4-2-7-5-8(1-3-9-7)13-6-10-11-12-13/h1,3,5-6,14H,2,4H2
InChIKey=ZCQFCWCDBGQMGF-UHFFFAOYSA-N

> <PUBCHEM_SUBSTANCE_SYNONYM>
SCHEMBL16122377

> <PUBCHEM_XREF_EXT_ID>
SCHEMBL16122377

> <PUBCHEM_EXT_DATASOURCE_URL>
https://www.surechembl.org/

> <PUBCHEM_EXT_SUBSTANCE_URL>
https://www.surechembl.org/chemical/SCHEMBL16122377

> <PUBCHEM_CID_ASSOCIATIONS>
117610567  1

> <PUBCHEM_COORDINATE_TYPE>
1
3

$$$$
