310929149
  -OEChem-07211613022D

 56 60  0     0  0  0  0  0  0999 V2000
    1.4850   -1.2100    0.0000 S   0  0  0  0  0  0  0  0  0  0  0  0
    7.1500   -1.2100    0.0000 O   0  0  0  0  0  0  0  0  0  0  0  0
    3.5750   -2.4750    0.0000 O   0  0  0  0  0  0  0  0  0  0  0  0
    5.0049   -4.1799    0.0000 O   0  0  0  0  0  0  0  0  0  0  0  0
    1.8700   -0.5500    0.0000 O   0  0  0  0  0  0  0  0  0  0  0  0
    1.0450   -1.9800    0.0000 O   0  0  0  0  0  0  0  0  0  0  0  0
   11.4949   -3.6850    0.0000 O   0  0  0  0  0  0  0  0  0  0  0  0
   10.0649   -6.1600    0.0000 O   0  0  0  0  0  0  0  0  0  0  0  0
   13.6399   -4.1249    0.0000 O   0  0  0  0  0  0  0  0  0  0  0  0
   15.7849   -2.8600    0.0000 O   0  0  0  0  0  0  0  0  0  0  0  0
   16.4999   -4.1249    0.0000 O   0  0  0  0  0  0  0  0  0  0  0  0
    3.5750   -4.1249    0.0000 N   0  0  0  0  0  0  0  0  0  0  0  0
    4.2900   -2.9150    0.0000 N   0  0  0  0  0  0  0  0  0  0  0  0
    2.1450   -1.6500    0.0000 N   0  0  0  0  0  0  0  0  0  0  0  0
    7.9199   -2.4200    0.0000 N   0  0  0  0  0  0  0  0  0  0  0  0
    8.6349   -3.6850    0.0000 N   0  0  0  0  0  0  0  0  0  0  0  0
    9.3499   -2.4200    0.0000 N   0  0  0  0  0  0  0  0  0  0  0  0
    2.8600   -3.7400    0.0000 C   0  0  0  0  0  0  0  0  0  0  0  0
    5.0599   -1.7050    0.0000 C   0  0  0  0  0  0  0  0  0  0  0  0
    2.8600   -2.9150    0.0000 C   0  0  0  0  0  0  0  0  0  0  0  0
    5.7749   -1.2650    0.0000 C   0  0  0  0  0  0  0  0  0  0  0  0
    2.2000   -2.4750    0.0000 C   0  0  0  0  0  0  0  0  0  0  0  0
    1.4300   -3.7400    0.0000 C   0  0  0  0  0  0  0  0  0  0  0  0
    5.0599   -2.4750    0.0000 C   0  0  0  0  0  0  0  0  0  0  0  0
    6.4899   -1.6500    0.0000 C   0  0  0  0  0  0  0  0  0  0  0  0
    2.1450   -4.1249    0.0000 C   0  0  0  0  0  0  0  0  0  0  0  0
    1.4300   -2.9150    0.0000 C   0  0  0  0  0  0  0  0  0  0  0  0
    0.7150   -4.1249    0.0000 C   0  0  0  0  0  0  0  0  0  0  0  0
    4.2900   -3.7400    0.0000 C   0  0  0  0  0  0  0  0  0  0  0  0
    5.7749   -2.9150    0.0000 C   0  0  0  0  0  0  0  0  0  0  0  0
    6.4899   -2.4750    0.0000 C   0  0  0  0  0  0  0  0  0  0  0  0
    4.2900   -1.2650    0.0000 C   0  0  0  0  0  0  0  0  0  0  0  0
    5.7749   -0.4400    0.0000 C   0  0  0  0  0  0  0  0  0  0  0  0
    7.9199   -1.6500    0.0000 C   0  0  0  0  0  0  0  0  0  0  0  0
    4.2900   -0.4400    0.0000 C   0  0  0  0  0  0  0  0  0  0  0  0
    5.0049    0.0000    0.0000 C   0  0  0  0  0  0  0  0  0  0  0  0
    8.6349   -2.8600    0.0000 C   0  0  0  0  0  0  0  0  0  0  0  0
    0.2750   -3.4100    0.0000 C   0  0  0  0  0  0  0  0  0  0  0  0
    0.0000   -4.5100    0.0000 C   0  0  0  0  0  0  0  0  0  0  0  0
    1.1000   -4.8399    0.0000 C   0  0  0  0  0  0  0  0  0  0  0  0
    8.6349   -1.2100    0.0000 C   0  0  0  0  0  0  0  0  0  0  0  0
    9.3499   -4.1249    0.0000 C   0  0  0  0  0  0  0  0  0  0  0  0
    9.2949   -1.6500    0.0000 C   0  0  0  0  0  0  0  0  0  0  0  0
    3.6300   -1.6500    0.0000 C   0  0  0  0  0  0  0  0  0  0  0  0
    0.7700   -0.8250    0.0000 C   0  0  0  0  0  0  0  0  0  0  0  0
   10.0099   -3.6850    0.0000 C   0  0  0  0  0  0  0  0  0  0  0  0
   10.7799   -4.1249    0.0000 C   0  0  0  0  0  0  0  0  0  0  0  0
    9.3499   -4.9499    0.0000 C   0  0  0  0  0  0  0  0  0  0  0  0
   10.0649   -5.3350    0.0000 C   0  0  0  0  0  0  0  0  0  0  0  0
   10.7799   -4.9499    0.0000 C   0  0  0  0  0  0  0  0  0  0  0  0
   12.2099   -4.1249    0.0000 C   0  0  0  0  0  0  0  0  0  0  0  0
   10.7799   -6.5999    0.0000 C   0  0  0  0  0  0  0  0  0  0  0  0
   12.9249   -3.6850    0.0000 C   0  0  0  0  0  0  0  0  0  0  0  0
   14.3549   -3.6850    0.0000 C   0  0  0  0  0  0  0  0  0  0  0  0
   15.0699   -4.1249    0.0000 C   0  0  0  0  0  0  0  0  0  0  0  0
   15.7849   -3.6850    0.0000 C   0  0  0  0  0  0  0  0  0  0  0  0
  1  5  2  0  0  0  0
  1  6  2  0  0  0  0
  1 14  1  0  0  0  0
  1 45  1  0  0  0  0
  2 25  1  0  0  0  0
  2 34  1  0  0  0  0
  3 20  1  0  0  0  0
  3 44  1  0  0  0  0
  4 29  2  0  0  0  0
  7 47  1  0  0  0  0
  7 51  1  0  0  0  0
  8 49  1  0  0  0  0
  8 52  1  0  0  0  0
  9 53  1  0  0  0  0
  9 54  1  0  0  0  0
 10 56  2  0  0  0  0
 11 56  1  0  0  0  0
 12 18  1  0  0  0  0
 12 29  1  0  0  0  0
 13 24  1  0  0  0  0
 13 29  1  0  0  0  0
 14 22  1  0  0  0  0
 15 34  2  0  0  0  0
 15 37  1  0  0  0  0
 16 37  1  0  0  0  0
 16 42  1  0  0  0  0
 17 37  2  0  0  0  0
 17 43  1  0  0  0  0
 18 20  1  0  0  0  0
 18 26  2  0  0  0  0
 19 21  2  0  0  0  0
 19 24  1  0  0  0  0
 19 32  1  0  0  0  0
 20 22  2  0  0  0  0
 21 25  1  0  0  0  0
 21 33  1  0  0  0  0
 22 27  1  0  0  0  0
 23 26  1  0  0  0  0
 23 27  2  0  0  0  0
 23 28  1  0  0  0  0
 24 30  2  0  0  0  0
 25 31  2  0  0  0  0
 28 38  1  0  0  0  0
 28 39  1  0  0  0  0
 28 40  1  0  0  0  0
 30 31  1  0  0  0  0
 32 35  2  0  0  0  0
 33 36  2  0  0  0  0
 34 41  1  0  0  0  0
 35 36  1  0  0  0  0
 41 43  2  0  0  0  0
 42 46  1  0  0  0  0
 42 48  2  0  0  0  0
 46 47  2  0  0  0  0
 47 50  1  0  0  0  0
 48 49  1  0  0  0  0
 49 50  2  0  0  0  0
 51 53  1  0  0  0  0
 54 55  1  0  0  0  0
 55 56  1  0  0  0  0
M  END
> <PUBCHEM_COMPOUND_ID_TYPE>
0

> <PUBCHEM_TOTAL_CHARGE>
0

> <PUBCHEM_SUBSTANCE_ID>
310929149

> <PUBCHEM_SUBSTANCE_VERSION>
1

> <PUBCHEM_EXT_DATASOURCE_NAME>
4488

> <PUBCHEM_EXT_DATASOURCE_REGID>
SCHEMBL16106312

> <PUBCHEM_SUBSTANCE_COMMENT>
InChI=1S/C39H44N6O10S/c1-39(2,3)24-19-31(36(52-5)32(20-24)45-56(6,49)50)43-38(48)42-30-11-12-33(29-10-8-7-9-28(29)30)55-34-13-15-40-37(44-34)41-25-21-26(51-4)23-27(22-25)54-18-17-53-16-14-35(46)47/h7-13,15,19-23,45H,14,16-18H2,1-6H3,(H,46,47)(H,40,41,44)(H2,42,43,48)
InChIKey=SQRLDKUDOONGKL-UHFFFAOYSA-N

> <PUBCHEM_SUBSTANCE_SYNONYM>
SCHEMBL16106312

> <PUBCHEM_XREF_EXT_ID>
SCHEMBL16106312

> <PUBCHEM_EXT_DATASOURCE_URL>
https://www.surechembl.org/

> <PUBCHEM_EXT_SUBSTANCE_URL>
https://www.surechembl.org/chemical/SCHEMBL16106312

> <PUBCHEM_CID_ASSOCIATIONS>
86273059  1

> <PUBCHEM_COORDINATE_TYPE>
1
3

$$$$
