310943608
  -OEChem-07211613022D

 33 36  0     0  0  0  0  0  0999 V2000
    3.9110    0.2946    0.0000 F   0  0  0  0  0  0  0  0  0  0  0  0
    4.7360    0.2946    0.0000 F   0  0  0  0  0  0  0  0  0  0  0  0
    5.0453   -0.8397    0.0000 F   0  0  0  0  0  0  0  0  0  0  0  0
   -5.0453    1.6351    0.0000 O   0  0  0  0  0  0  0  0  0  0  0  0
    0.7145   -0.8544    0.0000 O   0  0  0  0  0  0  0  0  0  0  0  0
   -4.3235   -0.4419    0.0000 O   0  0  0  0  0  0  0  0  0  0  0  0
   -3.6016    0.8102    0.0000 N   0  0  0  0  0  0  0  0  0  0  0  0
   -2.8798   -0.4271    0.0000 N   0  0  0  0  0  0  0  0  0  0  0  0
    1.4362    0.3977    0.0000 N   0  0  0  0  0  0  0  0  0  0  0  0
   -0.0073    2.0623    0.0000 N   0  0  0  0  0  0  0  0  0  0  0  0
   -0.7292    0.8250    0.0000 C   0  0  0  0  0  0  0  0  0  0  0  0
   -1.4362    0.4124    0.0000 C   0  0  0  0  0  0  0  0  0  0  0  0
   -2.8798    0.4124    0.0000 C   0  0  0  0  0  0  0  0  0  0  0  0
   -2.1728    0.8102    0.0000 C   0  0  0  0  0  0  0  0  0  0  0  0
   -0.7145    1.6498    0.0000 C   0  0  0  0  0  0  0  0  0  0  0  0
    0.7145    0.8250    0.0000 C   0  0  0  0  0  0  0  0  0  0  0  0
    0.0221    0.4124    0.0000 C   0  0  0  0  0  0  0  0  0  0  0  0
    2.1728   -0.8397    0.0000 C   0  0  0  0  0  0  0  0  0  0  0  0
    3.6016   -0.8397    0.0000 C   0  0  0  0  0  0  0  0  0  0  0  0
   -1.4510   -0.4271    0.0000 C   0  0  0  0  0  0  0  0  0  0  0  0
    1.4657   -0.4124    0.0000 C   0  0  0  0  0  0  0  0  0  0  0  0
   -4.3235    0.4271    0.0000 C   0  0  0  0  0  0  0  0  0  0  0  0
    4.3235   -0.4124    0.0000 C   0  0  0  0  0  0  0  0  0  0  0  0
    2.8798   -0.4419    0.0000 C   0  0  0  0  0  0  0  0  0  0  0  0
    0.7292    1.6351    0.0000 C   0  0  0  0  0  0  0  0  0  0  0  0
   -2.1581   -0.8397    0.0000 C   0  0  0  0  0  0  0  0  0  0  0  0
   -3.6016    1.6498    0.0000 C   0  0  0  0  0  0  0  0  0  0  0  0
    2.1728   -1.6793    0.0000 C   0  0  0  0  0  0  0  0  0  0  0  0
    3.5869   -1.6793    0.0000 C   0  0  0  0  0  0  0  0  0  0  0  0
   -5.0453    0.8250    0.0000 C   0  0  0  0  0  0  0  0  0  0  0  0
    2.8798   -2.0771    0.0000 C   0  0  0  0  0  0  0  0  0  0  0  0
   -1.4362    2.0771    0.0000 C   0  0  0  0  0  0  0  0  0  0  0  0
   -4.3235    2.0623    0.0000 C   0  0  0  0  0  0  0  0  0  0  0  0
  1 23  1  0  0  0  0
  2 23  1  0  0  0  0
  3 23  1  0  0  0  0
  4 30  1  0  0  0  0
  4 33  1  0  0  0  0
  5 21  2  0  0  0  0
  6 22  2  0  0  0  0
  7 13  1  0  0  0  0
  7 22  1  0  0  0  0
  7 27  1  0  0  0  0
  8 13  1  0  0  0  0
  8 26  2  0  0  0  0
  9 16  1  0  0  0  0
  9 21  1  0  0  0  0
 10 15  1  0  0  0  0
 10 25  2  0  0  0  0
 11 12  1  0  0  0  0
 11 15  2  0  0  0  0
 11 17  1  0  0  0  0
 12 14  1  0  0  0  0
 12 20  2  0  0  0  0
 13 14  2  0  0  0  0
 15 32  1  0  0  0  0
 16 17  2  0  0  0  0
 16 25  1  0  0  0  0
 18 21  1  0  0  0  0
 18 24  1  0  0  0  0
 18 28  2  0  0  0  0
 19 23  1  0  0  0  0
 19 24  2  0  0  0  0
 19 29  1  0  0  0  0
 20 26  1  0  0  0  0
 22 30  1  0  0  0  0
 27 33  1  0  0  0  0
 28 31  1  0  0  0  0
 29 31  2  0  0  0  0
M  END
> <PUBCHEM_COMPOUND_ID_TYPE>
0

> <PUBCHEM_TOTAL_CHARGE>
0

> <PUBCHEM_SUBSTANCE_ID>
310943608

> <PUBCHEM_SUBSTANCE_VERSION>
1

> <PUBCHEM_EXT_DATASOURCE_NAME>
4488

> <PUBCHEM_EXT_DATASOURCE_REGID>
SCHEMBL16121675

> <PUBCHEM_SUBSTANCE_COMMENT>
InChI=1S/C23H19F3N4O3/c1-14-19(15-5-6-27-20(10-15)30-7-8-33-13-21(30)31)11-18(12-28-14)29-22(32)16-3-2-4-17(9-16)23(24,25)26/h2-6,9-12H,7-8,13H2,1H3,(H,29,32)
InChIKey=RVFUBYUMMVMIMP-UHFFFAOYSA-N

> <PUBCHEM_SUBSTANCE_SYNONYM>
SCHEMBL16121675

> <PUBCHEM_XREF_EXT_ID>
SCHEMBL16121675

> <PUBCHEM_EXT_DATASOURCE_URL>
https://www.surechembl.org/

> <PUBCHEM_EXT_SUBSTANCE_URL>
https://www.surechembl.org/chemical/SCHEMBL16121675

> <PUBCHEM_CID_ASSOCIATIONS>
117609999  1

> <PUBCHEM_COORDINATE_TYPE>
1
3

$$$$
