310929743
  -OEChem-07211613022D

 66 73  0     1  0  0  0  0  0999 V2000
    2.3848   -3.7257    0.0000 S   0  0  0  0  0  0  0  0  0  0  0  0
    2.8579   -1.6500    0.0000 F   0  0  0  0  0  0  0  0  0  0  0  0
    3.5724   -1.2375    0.0000 F   0  0  0  0  0  0  0  0  0  0  0  0
    3.5724   -0.4125    0.0000 F   0  0  0  0  0  0  0  0  0  0  0  0
    1.5598   -2.2967    0.0000 O   0  0  0  0  0  0  0  0  0  0  0  0
   -1.3277   -4.4402    0.0000 O   0  0  0  0  0  0  0  0  0  0  0  0
    2.3848   -4.5507    0.0000 O   0  0  0  0  0  0  0  0  0  0  0  0
    2.3848   -2.9007    0.0000 O   0  0  0  0  0  0  0  0  0  0  0  0
   -1.4290   -0.8250    0.0000 O   0  0  0  0  0  0  0  0  0  0  0  0
   -2.8579   -4.1250    0.0000 O   0  0  0  0  0  0  0  0  0  0  0  0
    0.0000    1.6500    0.0000 O   0  0  0  0  0  0  0  0  0  0  0  0
   -4.2868   -0.8250    0.0000 O   0  0  0  0  0  0  0  0  0  0  0  0
   -5.0013   -2.0625    0.0000 O   0  0  0  0  0  0  0  0  0  0  0  0
    2.8579    4.1250    0.0000 O   0  0  0  0  0  0  0  0  0  0  0  0
   -0.0902   -3.7257    0.0000 N   0  0  0  0  0  0  0  0  0  0  0  0
    1.5598   -3.7257    0.0000 N   0  0  0  0  0  0  0  0  0  0  0  0
   -2.1434   -2.8875    0.0000 N   0  0  0  0  0  0  0  0  0  0  0  0
    0.0000   -0.8250    0.0000 N   0  0  0  0  0  0  0  0  0  0  0  0
   -3.5724   -2.0625    0.0000 N   0  0  0  0  0  0  0  0  0  0  0  0
    1.4290    3.3000    0.0000 N   0  0  0  0  0  0  0  0  0  0  0  0
    0.3223   -3.0112    0.0000 C   0  0  3  0  0  0  0  0  0  0  0  0
    0.3223   -2.1863    0.0000 C   0  0  3  0  0  0  0  0  0  0  0  0
   -0.3922   -2.5988    0.0000 C   0  0  0  0  0  0  0  0  0  0  0  0
    1.1473   -3.0112    0.0000 C   0  0  0  0  0  0  0  0  0  0  0  0
   -0.9152   -3.7257    0.0000 C   0  0  0  0  0  0  0  0  0  0  0  0
    3.2098   -3.7257    0.0000 C   0  0  0  0  0  0  0  0  0  0  0  0
    0.7348   -1.4717    0.0000 C   0  0  0  0  0  0  0  0  0  0  0  0
   -1.3277   -3.0112    0.0000 C   0  0  3  0  0  0  0  0  0  0  0  0
    0.3223   -4.4402    0.0000 C   0  0  0  0  0  0  0  0  0  0  0  0
    3.6223   -3.0112    0.0000 C   0  0  0  0  0  0  0  0  0  0  0  0
    4.0348   -3.7257    0.0000 C   0  0  0  0  0  0  0  0  0  0  0  0
   -0.9152   -2.2967    0.0000 C   0  0  0  0  0  0  0  0  0  0  0  0
   -1.4290   -1.6500    0.0000 C   0  0  3  0  0  0  0  0  0  0  0  0
    2.7973   -4.4402    0.0000 C   0  0  0  0  0  0  0  0  0  0  0  0
   -2.1434   -2.0625    0.0000 C   0  0  0  0  0  0  0  0  0  0  0  0
    1.1473   -4.4402    0.0000 C   0  0  0  0  0  0  0  0  0  0  0  0
    1.5598   -1.4717    0.0000 C   0  0  0  0  0  0  0  0  0  0  0  0
   -2.8579   -3.3000    0.0000 C   0  0  0  0  0  0  0  0  0  0  0  0
   -0.7144   -0.4125    0.0000 C   0  0  0  0  0  0  0  0  0  0  0  0
   -0.7144    0.4125    0.0000 C   0  0  0  0  0  0  0  0  0  0  0  0
    0.0000    0.8250    0.0000 C   0  0  0  0  0  0  0  0  0  0  0  0
    0.7144    0.4125    0.0000 C   0  0  0  0  0  0  0  0  0  0  0  0
    0.7144   -0.4125    0.0000 C   0  0  0  0  0  0  0  0  0  0  0  0
    1.5598   -5.1547    0.0000 C   0  0  0  0  0  0  0  0  0  0  0  0
   -3.5724   -2.8875    0.0000 C   0  0  0  0  0  0  0  0  0  0  0  0
    1.4290   -0.8250    0.0000 C   0  0  0  0  0  0  0  0  0  0  0  0
    2.1434   -0.4125    0.0000 C   0  0  0  0  0  0  0  0  0  0  0  0
    1.4290    0.8250    0.0000 C   0  0  0  0  0  0  0  0  0  0  0  0
   -1.4290    0.8250    0.0000 C   0  0  0  0  0  0  0  0  0  0  0  0
    2.1434    0.4125    0.0000 C   0  0  0  0  0  0  0  0  0  0  0  0
    2.8579   -0.8250    0.0000 C   0  0  0  0  0  0  0  0  0  0  0  0
    2.3848   -5.1547    0.0000 C   0  0  0  0  0  0  0  0  0  0  0  0
   -4.2868   -1.6500    0.0000 C   0  0  0  0  0  0  0  0  0  0  0  0
   -2.1434    0.4125    0.0000 C   0  0  0  0  0  0  0  0  0  0  0  0
    0.7144    2.0625    0.0000 C   0  0  0  0  0  0  0  0  0  0  0  0
   -5.0013   -0.4125    0.0000 C   0  0  3  0  0  0  0  0  0  0  0  0
   -5.0013    0.4125    0.0000 C   0  0  3  0  0  0  0  0  0  0  0  0
   -5.7158    0.0000    0.0000 C   0  0  0  0  0  0  0  0  0  0  0  0
   -2.8579    0.8250    0.0000 C   0  0  0  0  0  0  0  0  0  0  0  0
    0.7144    2.8875    0.0000 C   0  0  0  0  0  0  0  0  0  0  0  0
   -4.2868    0.8250    0.0000 C   0  0  0  0  0  0  0  0  0  0  0  0
   -3.5724    0.4125    0.0000 C   0  0  0  0  0  0  0  0  0  0  0  0
    1.4290    4.1250    0.0000 C   0  0  0  0  0  0  0  0  0  0  0  0
    2.1434    2.8875    0.0000 C   0  0  0  0  0  0  0  0  0  0  0  0
    2.1434    4.5375    0.0000 C   0  0  0  0  0  0  0  0  0  0  0  0
    2.8579    3.3000    0.0000 C   0  0  0  0  0  0  0  0  0  0  0  0
  1  7  2  0  0  0  0
  1  8  2  0  0  0  0
  1 16  1  0  0  0  0
  1 26  1  0  0  0  0
  2 51  1  0  0  0  0
  3 51  1  0  0  0  0
  4 51  1  0  0  0  0
  5 24  2  0  0  0  0
  6 25  2  0  0  0  0
  9 33  1  0  0  0  0
  9 39  1  0  0  0  0
 10 38  2  0  0  0  0
 11 41  1  0  0  0  0
 11 55  1  0  0  0  0
 12 53  1  0  0  0  0
 12 56  1  0  0  0  0
 13 53  2  0  0  0  0
 14 65  1  0  0  0  0
 14 66  1  0  0  0  0
 21 15  1  6  0  0  0
 15 25  1  0  0  0  0
 15 29  1  0  0  0  0
 16 24  1  0  0  0  0
 17 28  1  0  0  0  0
 17 35  1  0  0  0  0
 17 38  1  0  0  0  0
 18 39  2  0  0  0  0
 18 43  1  0  0  0  0
 19 45  1  0  0  0  0
 19 53  1  0  0  0  0
 20 60  1  0  0  0  0
 20 63  1  0  0  0  0
 20 64  1  0  0  0  0
 21 22  1  0  0  0  0
 21 23  1  0  0  0  0
 21 24  1  1  0  0  0
 22 23  1  0  0  0  0
 22 27  1  1  0  0  0
 25 28  1  0  0  0  0
 26 30  1  0  0  0  0
 26 31  1  0  0  0  0
 26 34  1  0  0  0  0
 27 37  2  0  0  0  0
 28 32  1  0  0  0  0
 29 36  1  0  0  0  0
 30 31  1  0  0  0  0
 32 33  1  0  0  0  0
 33 35  1  0  0  0  0
 36 44  1  0  0  0  0
 38 45  1  0  0  0  0
 39 40  1  0  0  0  0
 40 41  2  0  0  0  0
 40 49  1  0  0  0  0
 41 42  1  0  0  0  0
 42 43  1  0  0  0  0
 42 48  2  0  0  0  0
 43 46  2  0  0  0  0
 44 52  1  0  0  0  0
 46 47  1  0  0  0  0
 47 50  2  0  0  0  0
 47 51  1  0  0  0  0
 48 50  1  0  0  0  0
 49 54  1  0  0  0  0
 54 59  1  0  0  0  0
 55 60  1  0  0  0  0
 56 57  1  0  0  0  0
 56 58  1  0  0  0  0
 57 58  1  0  0  0  0
 57 61  1  0  0  0  0
 59 62  1  0  0  0  0
 61 62  1  0  0  0  0
 63 65  1  0  0  0  0
 64 66  1  0  0  0  0
M  END
> <PUBCHEM_COMPOUND_ID_TYPE>
0

> <PUBCHEM_TOTAL_CHARGE>
0

> <PUBCHEM_SUBSTANCE_ID>
310929743

> <PUBCHEM_SUBSTANCE_VERSION>
1

> <PUBCHEM_EXT_DATASOURCE_NAME>
4488

> <PUBCHEM_EXT_DATASOURCE_REGID>
SCHEMBL16106941

> <PUBCHEM_SUBSTANCE_COMMENT>
InChI=1S/C46H61F3N6O10S/c1-4-6-16-55(45(26-30(45)5-2)42(58)52-66(60,61)44(3)14-15-44)41(57)36-25-32-28-54(36)38(56)27-50-43(59)65-37-23-29(37)10-8-7-9-11-34-39(63-22-19-53-17-20-62-21-18-53)33-13-12-31(46(47,48)49)24-35(33)51-40(34)64-32/h5,12-13,24,29-30,32,36-37H,2,4,6-11,14-23,25-28H2,1,3H3,(H,50,59)(H,52,58)/t29?,30-,32?,36?,37?,45-/m1/s1
InChIKey=SZSKGRDHTJXFNC-MSIDAVNUSA-N

> <PUBCHEM_SUBSTANCE_SYNONYM>
SCHEMBL16106941

> <PUBCHEM_XREF_EXT_ID>
SCHEMBL16106941

> <PUBCHEM_EXT_DATASOURCE_URL>
https://www.surechembl.org/

> <PUBCHEM_EXT_SUBSTANCE_URL>
https://www.surechembl.org/chemical/SCHEMBL16106941

> <PUBCHEM_CID_ASSOCIATIONS>
117599034  1

> <PUBCHEM_COORDINATE_TYPE>
1
3

> <PUBCHEM_BONDANNOTATIONS>
21  15  6
21  24  5
22  27  5

$$$$
