310946098
  -OEChem-07211613022D

 15 15  0     0  0  0  0  0  0999 V2000
   -4.7949    7.2804    0.0000 O   0  0  0  0  0  0  0  0  0  0  0  0
    1.5883    5.9705    0.0000 O   0  0  0  0  0  0  0  0  0  0  0  0
    2.3028    7.2080    0.0000 O   0  0  0  0  0  0  0  0  0  0  0  0
   -4.1274    6.7955    0.0000 C   0  0  0  0  0  0  0  0  0  0  0  0
   -4.3824    6.0109    0.0000 C   0  0  0  0  0  0  0  0  0  0  0  0
   -3.4130    7.2080    0.0000 C   0  0  0  0  0  0  0  0  0  0  0  0
   -5.4623    6.7955    0.0000 C   0  0  0  0  0  0  0  0  0  0  0  0
   -5.2074    6.0109    0.0000 C   0  0  0  0  0  0  0  0  0  0  0  0
   -2.6985    6.7955    0.0000 C   0  0  0  0  0  0  0  0  0  0  0  0
   -1.9840    7.2080    0.0000 C   0  0  0  0  0  0  0  0  0  0  0  0
    1.5883    6.7955    0.0000 C   0  0  0  0  0  0  0  0  0  0  0  0
    0.8739    7.2080    0.0000 C   0  0  0  0  0  0  0  0  0  0  0  0
   -1.2696    6.7955    0.0000 C   0  0  0  0  0  0  0  0  0  0  0  0
    0.1594    6.7955    0.0000 C   0  0  0  0  0  0  0  0  0  0  0  0
   -0.5551    7.2080    0.0000 C   0  0  0  0  0  0  0  0  0  0  0  0
  1  4  1  0  0  0  0
  1  7  1  0  0  0  0
  2 11  2  0  0  0  0
  3 11  1  0  0  0  0
  4  5  2  0  0  0  0
  4  6  1  0  0  0  0
  5  8  1  0  0  0  0
  6  9  1  0  0  0  0
  7  8  2  0  0  0  0
  9 10  1  0  0  0  0
 10 13  1  0  0  0  0
 11 12  1  0  0  0  0
 12 14  1  0  0  0  0
 13 15  1  0  0  0  0
 14 15  1  0  0  0  0
M  END
> <PUBCHEM_COMPOUND_ID_TYPE>
0

> <PUBCHEM_TOTAL_CHARGE>
0

> <PUBCHEM_SUBSTANCE_ID>
310946098

> <PUBCHEM_SUBSTANCE_VERSION>
1

> <PUBCHEM_EXT_DATASOURCE_NAME>
4488

> <PUBCHEM_EXT_DATASOURCE_REGID>
SCHEMBL16124206

> <PUBCHEM_SUBSTANCE_COMMENT>
InChI=1S/C12H18O3/c13-12(14)9-5-3-1-2-4-7-11-8-6-10-15-11/h6,8,10H,1-5,7,9H2,(H,13,14)
InChIKey=SXQRVQKQTIWUKR-UHFFFAOYSA-N

> <PUBCHEM_SUBSTANCE_SYNONYM>
SCHEMBL16124206

> <PUBCHEM_XREF_EXT_ID>
SCHEMBL16124206

> <PUBCHEM_EXT_DATASOURCE_URL>
https://www.surechembl.org/

> <PUBCHEM_EXT_SUBSTANCE_URL>
https://www.surechembl.org/chemical/SCHEMBL16124206

> <PUBCHEM_CID_ASSOCIATIONS>
11790484  1

> <PUBCHEM_COORDINATE_TYPE>
1
3

$$$$
