310935478
  -OEChem-07211613022D

 36 39  0     0  0  0  0  0  0999 V2000
    2.0954   -3.6897    0.0000 F   0  0  0  0  0  0  0  0  0  0  0  0
    0.8200   -9.1105    0.0000 F   0  0  0  0  0  0  0  0  0  0  0  0
    3.3254   -6.1496    0.0000 O   0  0  0  0  0  0  0  0  0  0  0  0
    1.0932   -4.5552    0.0000 O   0  0  0  0  0  0  0  0  0  0  0  0
    4.9197   -2.9154    0.0000 O   0  0  0  0  0  0  0  0  0  0  0  0
    3.4620   -0.4100    0.0000 O   0  0  0  0  0  0  0  0  0  0  0  0
    4.9197   -0.4100    0.0000 O   0  0  0  0  0  0  0  0  0  0  0  0
    5.6030   -1.6399    0.0000 O   0  0  0  0  0  0  0  0  0  0  0  0
    0.8200   -5.9218    0.0000 N   0  0  0  0  0  0  0  0  0  0  0  0
    2.7787   -4.9652    0.0000 C   0  0  0  0  0  0  0  0  0  0  0  0
    2.1865   -5.5119    0.0000 C   0  0  0  0  0  0  0  0  0  0  0  0
    3.5076   -5.3752    0.0000 C   0  0  0  0  0  0  0  0  0  0  0  0
    2.7787   -4.0997    0.0000 C   0  0  0  0  0  0  0  0  0  0  0  0
    3.4620   -3.7353    0.0000 C   0  0  0  0  0  0  0  0  0  0  0  0
    2.5054   -6.2407    0.0000 C   0  0  0  0  0  0  0  0  0  0  0  0
    4.2364   -4.1453    0.0000 C   0  0  0  0  0  0  0  0  0  0  0  0
    3.4620   -2.8698    0.0000 C   0  0  0  0  0  0  0  0  0  0  0  0
    4.2364   -4.9652    0.0000 C   0  0  0  0  0  0  0  0  0  0  0  0
    1.3666   -5.3296    0.0000 C   0  0  0  0  0  0  0  0  0  0  0  0
    2.0954   -6.9696    0.0000 C   0  0  0  0  0  0  0  0  0  0  0  0
    2.7787   -2.4599    0.0000 C   0  0  0  0  0  0  0  0  0  0  0  0
    4.1909   -2.4599    0.0000 C   0  0  0  0  0  0  0  0  0  0  0  0
    4.1909   -1.6399    0.0000 C   0  0  0  0  0  0  0  0  0  0  0  0
    4.9197   -3.7353    0.0000 C   0  0  0  0  0  0  0  0  0  0  0  0
    3.4620   -1.2299    0.0000 C   0  0  0  0  0  0  0  0  0  0  0  0
    2.7787   -1.6399    0.0000 C   0  0  0  0  0  0  0  0  0  0  0  0
    2.5054   -7.6984    0.0000 C   0  0  0  0  0  0  0  0  0  0  0  0
    1.2755   -6.9696    0.0000 C   0  0  0  0  0  0  0  0  0  0  0  0
    4.9197   -1.2299    0.0000 C   0  0  0  0  0  0  0  0  0  0  0  0
    2.0499   -2.8698    0.0000 C   0  0  0  0  0  0  0  0  0  0  0  0
    2.0954   -8.4272    0.0000 C   0  0  0  0  0  0  0  0  0  0  0  0
    0.8655   -7.6984    0.0000 C   0  0  0  0  0  0  0  0  0  0  0  0
    1.2755   -8.3817    0.0000 C   0  0  0  0  0  0  0  0  0  0  0  0
    0.0000   -5.7396    0.0000 C   0  0  0  0  0  0  0  0  0  0  0  0
    4.3731   -2.6421    0.0000 C   0  0  0  0  0  0  0  0  0  0  0  0
    2.7787    0.0000    0.0000 C   0  0  0  0  0  0  0  0  0  0  0  0
  1 13  1  0  0  0  0
  2 33  1  0  0  0  0
  3 12  1  0  0  0  0
  3 15  1  0  0  0  0
  4 19  2  0  0  0  0
  5 24  1  0  0  0  0
  5 35  1  0  0  0  0
  6 25  1  0  0  0  0
  6 36  1  0  0  0  0
  7 29  2  0  0  0  0
  8 29  1  0  0  0  0
  9 19  1  0  0  0  0
  9 34  1  0  0  0  0
 10 11  1  0  0  0  0
 10 12  2  0  0  0  0
 10 13  1  0  0  0  0
 11 15  2  0  0  0  0
 11 19  1  0  0  0  0
 12 18  1  0  0  0  0
 13 14  2  0  0  0  0
 14 16  1  0  0  0  0
 14 17  1  0  0  0  0
 15 20  1  0  0  0  0
 16 18  2  0  0  0  0
 16 24  1  0  0  0  0
 17 21  1  0  0  0  0
 17 22  2  0  0  0  0
 20 27  2  0  0  0  0
 20 28  1  0  0  0  0
 21 26  2  0  0  0  0
 21 30  1  0  0  0  0
 22 23  1  0  0  0  0
 23 25  2  0  0  0  0
 23 29  1  0  0  0  0
 25 26  1  0  0  0  0
 27 31  1  0  0  0  0
 28 32  2  0  0  0  0
 31 33  2  0  0  0  0
 32 33  1  0  0  0  0
M  END
> <PUBCHEM_COMPOUND_ID_TYPE>
0

> <PUBCHEM_TOTAL_CHARGE>
0

> <PUBCHEM_SUBSTANCE_ID>
310935478

> <PUBCHEM_SUBSTANCE_VERSION>
1

> <PUBCHEM_EXT_DATASOURCE_NAME>
4488

> <PUBCHEM_EXT_DATASOURCE_REGID>
SCHEMBL16113036

> <PUBCHEM_SUBSTANCE_COMMENT>
InChI=1S/C27H23F2NO6/c1-13-9-19(35-4)18(27(32)33)11-17(13)21-15(12-34-3)10-20-22(24(21)29)23(26(31)30-2)25(36-20)14-5-7-16(28)8-6-14/h5-11H,12H2,1-4H3,(H,30,31)(H,32,33)
InChIKey=YVPMIUYKVHIPIO-UHFFFAOYSA-N

> <PUBCHEM_SUBSTANCE_SYNONYM>
SCHEMBL16113036

> <PUBCHEM_XREF_EXT_ID>
SCHEMBL16113036

> <PUBCHEM_EXT_DATASOURCE_URL>
https://www.surechembl.org/

> <PUBCHEM_EXT_SUBSTANCE_URL>
https://www.surechembl.org/chemical/SCHEMBL16113036

> <PUBCHEM_CID_ASSOCIATIONS>
117603515  1

> <PUBCHEM_COORDINATE_TYPE>
1
3

$$$$
