310936279
  -OEChem-07211613022D

 32 35  0     0  0  0  0  0  0999 V2000
    6.6637    0.0000    0.0000 Cl  0  0  0  0  0  0  0  0  0  0  0  0
    0.0000   -0.8885    0.0000 F   0  0  0  0  0  0  0  0  0  0  0  0
    3.7443   -0.1904    0.0000 O   0  0  0  0  0  0  0  0  0  0  0  0
    2.7289   -2.4751    0.0000 O   0  0  0  0  0  0  0  0  0  0  0  0
    5.9655   -2.9193    0.0000 O   0  0  0  0  0  0  0  0  0  0  0  0
    8.7897   -0.4442    0.0000 O   0  0  0  0  0  0  0  0  0  0  0  0
    9.5195   -1.6818    0.0000 O   0  0  0  0  0  0  0  0  0  0  0  0
    5.2675   -0.0317    0.0000 N   0  0  0  0  0  0  0  0  0  0  0  0
    4.0616   -2.8876    0.0000 N   0  0  0  0  0  0  0  0  0  0  0  0
    4.5376   -1.2692    0.0000 C   0  0  0  0  0  0  0  0  0  0  0  0
    3.7761   -1.5231    0.0000 C   0  0  0  0  0  0  0  0  0  0  0  0
    4.5376   -0.4442    0.0000 C   0  0  0  0  0  0  0  0  0  0  0  0
    3.2684   -0.8567    0.0000 C   0  0  0  0  0  0  0  0  0  0  0  0
    5.9655   -1.2692    0.0000 C   0  0  0  0  0  0  0  0  0  0  0  0
    5.2675   -1.6818    0.0000 C   0  0  0  0  0  0  0  0  0  0  0  0
    5.9338   -0.4125    0.0000 C   0  0  0  0  0  0  0  0  0  0  0  0
    6.6637   -1.6818    0.0000 C   0  0  0  0  0  0  0  0  0  0  0  0
    2.4433   -0.8567    0.0000 C   0  0  0  0  0  0  0  0  0  0  0  0
    3.5222   -2.2847    0.0000 C   0  0  0  0  0  0  0  0  0  0  0  0
    6.6637   -2.5068    0.0000 C   0  0  0  0  0  0  0  0  0  0  0  0
    7.3935   -1.2692    0.0000 C   0  0  0  0  0  0  0  0  0  0  0  0
    2.0308   -1.5866    0.0000 C   0  0  0  0  0  0  0  0  0  0  0  0
    2.0308   -0.1587    0.0000 C   0  0  0  0  0  0  0  0  0  0  0  0
    8.0916   -1.6818    0.0000 C   0  0  0  0  0  0  0  0  0  0  0  0
    7.3935   -2.9193    0.0000 C   0  0  0  0  0  0  0  0  0  0  0  0
    8.0916   -2.5068    0.0000 C   0  0  0  0  0  0  0  0  0  0  0  0
    1.2376   -1.5866    0.0000 C   0  0  0  0  0  0  0  0  0  0  0  0
    1.2058   -0.1587    0.0000 C   0  0  0  0  0  0  0  0  0  0  0  0
    0.8250   -0.8885    0.0000 C   0  0  0  0  0  0  0  0  0  0  0  0
    8.7897   -1.2692    0.0000 C   0  0  0  0  0  0  0  0  0  0  0  0
    3.8078   -3.6809    0.0000 C   0  0  0  0  0  0  0  0  0  0  0  0
    5.9655   -3.7443    0.0000 C   0  0  0  0  0  0  0  0  0  0  0  0
  1 16  1  0  0  0  0
  2 29  1  0  0  0  0
  3 12  1  0  0  0  0
  3 13  1  0  0  0  0
  4 19  2  0  0  0  0
  5 20  1  0  0  0  0
  5 32  1  0  0  0  0
  6 30  2  0  0  0  0
  7 30  1  0  0  0  0
  8 12  1  0  0  0  0
  8 16  2  0  0  0  0
  9 19  1  0  0  0  0
  9 31  1  0  0  0  0
 10 11  1  0  0  0  0
 10 12  2  0  0  0  0
 10 15  1  0  0  0  0
 11 13  2  0  0  0  0
 11 19  1  0  0  0  0
 13 18  1  0  0  0  0
 14 15  2  0  0  0  0
 14 16  1  0  0  0  0
 14 17  1  0  0  0  0
 17 20  2  0  0  0  0
 17 21  1  0  0  0  0
 18 22  2  0  0  0  0
 18 23  1  0  0  0  0
 20 25  1  0  0  0  0
 21 24  2  0  0  0  0
 22 27  1  0  0  0  0
 23 28  2  0  0  0  0
 24 26  1  0  0  0  0
 24 30  1  0  0  0  0
 25 26  2  0  0  0  0
 27 29  2  0  0  0  0
 28 29  1  0  0  0  0
M  END
> <PUBCHEM_COMPOUND_ID_TYPE>
0

> <PUBCHEM_TOTAL_CHARGE>
0

> <PUBCHEM_SUBSTANCE_ID>
310936279

> <PUBCHEM_SUBSTANCE_VERSION>
1

> <PUBCHEM_EXT_DATASOURCE_NAME>
4488

> <PUBCHEM_EXT_DATASOURCE_REGID>
SCHEMBL16113900

> <PUBCHEM_SUBSTANCE_COMMENT>
InChI=1S/C23H16ClFN2O5/c1-26-21(28)18-16-10-15(14-9-12(23(29)30)5-8-17(14)31-2)20(24)27-22(16)32-19(18)11-3-6-13(25)7-4-11/h3-10H,1-2H3,(H,26,28)(H,29,30)
InChIKey=CLXGVRHSBVUFKN-UHFFFAOYSA-N

> <PUBCHEM_SUBSTANCE_SYNONYM>
SCHEMBL16113900

> <PUBCHEM_XREF_EXT_ID>
SCHEMBL16113900

> <PUBCHEM_EXT_DATASOURCE_URL>
https://www.surechembl.org/

> <PUBCHEM_EXT_SUBSTANCE_URL>
https://www.surechembl.org/chemical/SCHEMBL16113900

> <PUBCHEM_CID_ASSOCIATIONS>
117604222  1

> <PUBCHEM_COORDINATE_TYPE>
1
3

$$$$
