310931930
  -OEChem-07211613022D

 29 31  0     0  0  0  0  0  0999 V2000
    4.0547   -2.1341    0.0000 O   0  0  0  0  0  0  0  0  0  0  0  0
    8.5718   -2.2407    0.0000 O   0  0  0  0  0  0  0  0  0  0  0  0
    9.8167   -4.6238    0.0000 O   0  0  0  0  0  0  0  0  0  0  0  0
    4.9439   -0.9959    0.0000 N   0  0  0  0  0  0  0  0  0  0  0  0
    4.8728   -0.1422    0.0000 N   0  0  0  0  0  0  0  0  0  0  0  0
    6.4022   -0.9959    0.0000 N   0  0  0  0  0  0  0  0  0  0  0  0
    7.8605   -3.4857    0.0000 N   0  0  0  0  0  0  0  0  0  0  0  0
    0.0000   -1.8495    0.0000 N   0  0  0  0  0  0  0  0  0  0  0  0
    4.1970   -1.3160    0.0000 C   0  0  0  0  0  0  0  0  0  0  0  0
    3.6279   -0.7113    0.0000 C   0  0  0  0  0  0  0  0  0  0  0  0
    5.6908   -1.4227    0.0000 C   0  0  0  0  0  0  0  0  0  0  0  0
    2.8098   -0.8181    0.0000 C   0  0  0  0  0  0  0  0  0  0  0  0
    4.0547    0.0000    0.0000 C   0  0  0  0  0  0  0  0  0  0  0  0
    7.1136   -2.2407    0.0000 C   0  0  0  0  0  0  0  0  0  0  0  0
    5.6908   -2.2407    0.0000 C   0  0  0  0  0  0  0  0  0  0  0  0
    7.1136   -1.4227    0.0000 C   0  0  0  0  0  0  0  0  0  0  0  0
    6.4022   -2.6320    0.0000 C   0  0  0  0  0  0  0  0  0  0  0  0
    7.8605   -2.6320    0.0000 C   0  0  0  0  0  0  0  0  0  0  0  0
    2.4897   -1.5650    0.0000 C   0  0  0  0  0  0  0  0  0  0  0  0
    2.3119   -0.1422    0.0000 C   0  0  0  0  0  0  0  0  0  0  0  0
    8.5718   -3.9125    0.0000 C   0  0  0  0  0  0  0  0  0  0  0  0
    1.1737   -0.9959    0.0000 C   0  0  0  0  0  0  0  0  0  0  0  0
    1.6361   -1.6717    0.0000 C   0  0  0  0  0  0  0  0  0  0  0  0
    1.4938   -0.2490    0.0000 C   0  0  0  0  0  0  0  0  0  0  0  0
    9.3899   -3.8769    0.0000 C   0  0  0  0  0  0  0  0  0  0  0  0
    0.3201   -1.1026    0.0000 C   0  0  0  0  0  0  0  0  0  0  0  0
    8.1805   -4.6238    0.0000 C   0  0  0  0  0  0  0  0  0  0  0  0
    8.9986   -3.1655    0.0000 C   0  0  0  0  0  0  0  0  0  0  0  0
   10.6703   -4.6238    0.0000 C   0  0  0  0  0  0  0  0  0  0  0  0
  1  9  1  0  0  0  0
  2 18  2  0  0  0  0
  3 25  1  0  0  0  0
  3 29  1  0  0  0  0
  4  5  1  0  0  0  0
  4  9  1  0  0  0  0
  4 11  1  0  0  0  0
  5 13  2  0  0  0  0
  6 11  2  0  0  0  0
  6 16  1  0  0  0  0
  7 18  1  0  0  0  0
  7 21  1  0  0  0  0
  8 26  3  0  0  0  0
  9 10  2  0  0  0  0
 10 12  1  0  0  0  0
 10 13  1  0  0  0  0
 11 15  1  0  0  0  0
 12 19  2  0  0  0  0
 12 20  1  0  0  0  0
 14 16  2  0  0  0  0
 14 17  1  0  0  0  0
 14 18  1  0  0  0  0
 15 17  2  0  0  0  0
 19 23  1  0  0  0  0
 20 24  2  0  0  0  0
 21 25  1  0  0  0  0
 21 27  1  0  0  0  0
 21 28  1  0  0  0  0
 22 23  2  0  0  0  0
 22 24  1  0  0  0  0
 22 26  1  0  0  0  0
M  END
> <PUBCHEM_COMPOUND_ID_TYPE>
0

> <PUBCHEM_TOTAL_CHARGE>
0

> <PUBCHEM_SUBSTANCE_ID>
310931930

> <PUBCHEM_SUBSTANCE_VERSION>
1

> <PUBCHEM_EXT_DATASOURCE_NAME>
4488

> <PUBCHEM_EXT_DATASOURCE_REGID>
SCHEMBL16109266

> <PUBCHEM_SUBSTANCE_COMMENT>
InChI=1S/C21H21N5O3/c1-21(2,13-29-3)25-19(27)16-8-9-18(23-11-16)26-20(28)17(12-24-26)15-6-4-14(10-22)5-7-15/h4-9,11-12,28H,13H2,1-3H3,(H,25,27)
InChIKey=RJZPRORVLJPVQR-UHFFFAOYSA-N

> <PUBCHEM_SUBSTANCE_SYNONYM>
SCHEMBL16109266

> <PUBCHEM_XREF_EXT_ID>
SCHEMBL16109266

> <PUBCHEM_EXT_DATASOURCE_URL>
https://www.surechembl.org/

> <PUBCHEM_EXT_SUBSTANCE_URL>
https://www.surechembl.org/chemical/SCHEMBL16109266

> <PUBCHEM_CID_ASSOCIATIONS>
117600581  1

> <PUBCHEM_COORDINATE_TYPE>
1
3

$$$$
