310949280
  -OEChem-07211613022D

 37 42  0     0  0  0  0  0  0999 V2000
    0.0000    0.1820    0.0000 N   0  0  0  0  0  0  0  0  0  0  0  0
    2.1653   -0.2912    0.0000 N   0  0  0  0  0  0  0  0  0  0  0  0
   -0.0364   -3.9666    0.0000 N   0  0  0  0  0  0  0  0  0  0  0  0
    0.6551    0.7097    0.0000 C   0  0  0  0  0  0  0  0  0  0  0  0
   -0.7097    0.7278    0.0000 C   0  0  0  0  0  0  0  0  0  0  0  0
   -0.4367    1.5102    0.0000 C   0  0  0  0  0  0  0  0  0  0  0  0
    0.4003    1.4738    0.0000 C   0  0  0  0  0  0  0  0  0  0  0  0
   -0.0182   -0.6368    0.0000 C   0  0  0  0  0  0  0  0  0  0  0  0
    0.7278   -1.0371    0.0000 C   0  0  0  0  0  0  0  0  0  0  0  0
   -0.7278   -1.0371    0.0000 C   0  0  0  0  0  0  0  0  0  0  0  0
   -1.0007    2.0924    0.0000 C   0  0  0  0  0  0  0  0  0  0  0  0
    0.9826    2.1107    0.0000 C   0  0  0  0  0  0  0  0  0  0  0  0
    1.5284    0.5459    0.0000 C   0  0  0  0  0  0  0  0  0  0  0  0
   -1.4920    0.5277    0.0000 C   0  0  0  0  0  0  0  0  0  0  0  0
   -1.8195    1.9469    0.0000 C   0  0  0  0  0  0  0  0  0  0  0  0
    1.7831    1.9287    0.0000 C   0  0  0  0  0  0  0  0  0  0  0  0
    0.6914   -1.8741    0.0000 C   0  0  0  0  0  0  0  0  0  0  0  0
    2.0561    1.1645    0.0000 C   0  0  0  0  0  0  0  0  0  0  0  0
   -2.0561    1.1463    0.0000 C   0  0  0  0  0  0  0  0  0  0  0  0
   -0.0182   -2.2744    0.0000 C   0  0  0  0  0  0  0  0  0  0  0  0
   -0.7278   -1.8741    0.0000 C   0  0  0  0  0  0  0  0  0  0  0  0
   -2.3836    2.5655    0.0000 C   0  0  0  0  0  0  0  0  0  0  0  0
    2.3290    2.6019    0.0000 C   0  0  0  0  0  0  0  0  0  0  0  0
    1.4375   -0.6551    0.0000 C   0  0  0  0  0  0  0  0  0  0  0  0
   -1.4375   -0.6187    0.0000 C   0  0  0  0  0  0  0  0  0  0  0  0
    1.4738   -2.3108    0.0000 C   0  0  0  0  0  0  0  0  0  0  0  0
   -0.0364   -3.1478    0.0000 C   0  0  0  0  0  0  0  0  0  0  0  0
   -2.1289    3.3662    0.0000 C   0  0  0  0  0  0  0  0  0  0  0  0
    3.1842    2.4018    0.0000 C   0  0  0  0  0  0  0  0  0  0  0  0
   -3.2024    2.4018    0.0000 C   0  0  0  0  0  0  0  0  0  0  0  0
    2.0924    3.3479    0.0000 C   0  0  0  0  0  0  0  0  0  0  0  0
   -2.6929    3.9666    0.0000 C   0  0  0  0  0  0  0  0  0  0  0  0
    3.7301    3.0204    0.0000 C   0  0  0  0  0  0  0  0  0  0  0  0
   -3.7301    3.0204    0.0000 C   0  0  0  0  0  0  0  0  0  0  0  0
    2.6201    3.9666    0.0000 C   0  0  0  0  0  0  0  0  0  0  0  0
   -3.4935    3.7847    0.0000 C   0  0  0  0  0  0  0  0  0  0  0  0
    3.4572    3.7847    0.0000 C   0  0  0  0  0  0  0  0  0  0  0  0
  1  4  1  0  0  0  0
  1  5  1  0  0  0  0
  1  8  1  0  0  0  0
  2 24  3  0  0  0  0
  3 27  3  0  0  0  0
  4  7  2  0  0  0  0
  4 13  1  0  0  0  0
  5  6  2  0  0  0  0
  5 14  1  0  0  0  0
  6  7  1  0  0  0  0
  6 11  1  0  0  0  0
  7 12  1  0  0  0  0
  8  9  2  0  0  0  0
  8 10  1  0  0  0  0
  9 17  1  0  0  0  0
  9 24  1  0  0  0  0
 10 21  2  0  0  0  0
 10 25  1  0  0  0  0
 11 15  2  0  0  0  0
 12 16  2  0  0  0  0
 13 18  2  0  0  0  0
 14 19  2  0  0  0  0
 15 19  1  0  0  0  0
 15 22  1  0  0  0  0
 16 18  1  0  0  0  0
 16 23  1  0  0  0  0
 17 20  2  0  0  0  0
 17 26  1  0  0  0  0
 20 21  1  0  0  0  0
 20 27  1  0  0  0  0
 22 28  2  0  0  0  0
 22 30  1  0  0  0  0
 23 29  2  0  0  0  0
 23 31  1  0  0  0  0
 28 32  1  0  0  0  0
 29 33  1  0  0  0  0
 30 34  2  0  0  0  0
 31 35  2  0  0  0  0
 32 36  2  0  0  0  0
 33 37  2  0  0  0  0
 34 36  1  0  0  0  0
 35 37  1  0  0  0  0
M  END
> <PUBCHEM_COMPOUND_ID_TYPE>
0

> <PUBCHEM_TOTAL_CHARGE>
0

> <PUBCHEM_SUBSTANCE_ID>
310949280

> <PUBCHEM_SUBSTANCE_VERSION>
1

> <PUBCHEM_EXT_DATASOURCE_NAME>
4488

> <PUBCHEM_EXT_DATASOURCE_REGID>
SCHEMBL16127470

> <PUBCHEM_SUBSTANCE_COMMENT>
InChI=1S/C34H23N3/c1-22-17-28(20-35)23(2)31(21-36)34(22)37-32-15-13-26(24-9-5-3-6-10-24)18-29(32)30-19-27(14-16-33(30)37)25-11-7-4-8-12-25/h3-19H,1-2H3
InChIKey=HYWAGIQEMPNSBU-UHFFFAOYSA-N

> <PUBCHEM_SUBSTANCE_SYNONYM>
SCHEMBL16127470

> <PUBCHEM_XREF_EXT_ID>
SCHEMBL16127470

> <PUBCHEM_EXT_DATASOURCE_URL>
https://www.surechembl.org/

> <PUBCHEM_EXT_SUBSTANCE_URL>
https://www.surechembl.org/chemical/SCHEMBL16127470

> <PUBCHEM_CID_ASSOCIATIONS>
117614766  1

> <PUBCHEM_COORDINATE_TYPE>
1
3

$$$$
