310949231
  -OEChem-07211613022D

 41 46  0     0  0  0  0  0  0999 V2000
   -2.5226   -0.5329    0.0000 F   0  0  0  0  0  0  0  0  0  0  0  0
   -2.9205    0.5329    0.0000 F   0  0  0  0  0  0  0  0  0  0  0  0
   -1.8405    0.9024    0.0000 F   0  0  0  0  0  0  0  0  0  0  0  0
    0.7035   -2.3094    0.0000 F   0  0  0  0  0  0  0  0  0  0  0  0
   -2.1531   -2.2952    0.0000 F   0  0  0  0  0  0  0  0  0  0  0  0
   -2.1816   -3.9722    0.0000 F   0  0  0  0  0  0  0  0  0  0  0  0
    0.7035   -3.9864    0.0000 F   0  0  0  0  0  0  0  0  0  0  0  0
   -0.7177   -4.8107    0.0000 F   0  0  0  0  0  0  0  0  0  0  0  0
   -0.7461    1.0445    0.0000 N   0  0  0  0  0  0  0  0  0  0  0  0
   -0.7461    0.2345    0.0000 C   0  0  0  0  0  0  0  0  0  0  0  0
   -0.0924    1.5704    0.0000 C   0  0  0  0  0  0  0  0  0  0  0  0
   -1.4567    1.5704    0.0000 C   0  0  0  0  0  0  0  0  0  0  0  0
   -0.3339    2.3378    0.0000 C   0  0  0  0  0  0  0  0  0  0  0  0
   -1.1725    2.3521    0.0000 C   0  0  0  0  0  0  0  0  0  0  0  0
   -1.4425   -0.1918    0.0000 C   0  0  0  0  0  0  0  0  0  0  0  0
   -0.0355   -0.1918    0.0000 C   0  0  0  0  0  0  0  0  0  0  0  0
   -0.7319   -1.4425    0.0000 C   0  0  0  0  0  0  0  0  0  0  0  0
   -0.7319   -2.2810    0.0000 C   0  0  0  0  0  0  0  0  0  0  0  0
   -2.1957    0.2061    0.0000 C   0  0  0  0  0  0  0  0  0  0  0  0
   -1.4567   -1.0161    0.0000 C   0  0  0  0  0  0  0  0  0  0  0  0
   -0.0355   -1.0304    0.0000 C   0  0  0  0  0  0  0  0  0  0  0  0
    0.2203    2.9489    0.0000 C   0  0  0  0  0  0  0  0  0  0  0  0
    0.7177    1.3999    0.0000 C   0  0  0  0  0  0  0  0  0  0  0  0
   -2.2383    1.3999    0.0000 C   0  0  0  0  0  0  0  0  0  0  0  0
   -0.0071   -2.7073    0.0000 C   0  0  0  0  0  0  0  0  0  0  0  0
   -1.4425   -2.6932    0.0000 C   0  0  0  0  0  0  0  0  0  0  0  0
   -1.6983    2.9348    0.0000 C   0  0  0  0  0  0  0  0  0  0  0  0
    1.0019    2.7784    0.0000 C   0  0  0  0  0  0  0  0  0  0  0  0
   -1.4567   -3.5316    0.0000 C   0  0  0  0  0  0  0  0  0  0  0  0
   -0.0355   -3.5459    0.0000 C   0  0  0  0  0  0  0  0  0  0  0  0
    1.2720    1.9967    0.0000 C   0  0  0  0  0  0  0  0  0  0  0  0
   -0.7319   -3.9580    0.0000 C   0  0  0  0  0  0  0  0  0  0  0  0
   -2.7784    1.9967    0.0000 C   0  0  0  0  0  0  0  0  0  0  0  0
   -2.5368    2.7784    0.0000 C   0  0  0  0  0  0  0  0  0  0  0  0
    0.7035    0.2203    0.0000 C   0  0  0  0  0  0  0  0  0  0  0  0
    1.5704    3.4322    0.0000 C   0  0  0  0  0  0  0  0  0  0  0  0
    2.3663    3.2474    0.0000 C   0  0  0  0  0  0  0  0  0  0  0  0
    1.3430    4.2138    0.0000 C   0  0  0  0  0  0  0  0  0  0  0  0
    2.9205    3.8585    0.0000 C   0  0  0  0  0  0  0  0  0  0  0  0
    1.8689    4.8107    0.0000 C   0  0  0  0  0  0  0  0  0  0  0  0
    2.6789    4.6402    0.0000 C   0  0  0  0  0  0  0  0  0  0  0  0
  1 19  1  0  0  0  0
  2 19  1  0  0  0  0
  3 19  1  0  0  0  0
  4 25  1  0  0  0  0
  5 26  1  0  0  0  0
  6 29  1  0  0  0  0
  7 30  1  0  0  0  0
  8 32  1  0  0  0  0
  9 10  1  0  0  0  0
  9 11  1  0  0  0  0
  9 12  1  0  0  0  0
 10 15  1  0  0  0  0
 10 16  2  0  0  0  0
 11 13  2  0  0  0  0
 11 23  1  0  0  0  0
 12 14  2  0  0  0  0
 12 24  1  0  0  0  0
 13 14  1  0  0  0  0
 13 22  1  0  0  0  0
 14 27  1  0  0  0  0
 15 19  1  0  0  0  0
 15 20  2  0  0  0  0
 16 21  1  0  0  0  0
 16 35  1  0  0  0  0
 17 18  1  0  0  0  0
 17 20  1  0  0  0  0
 17 21  2  0  0  0  0
 18 25  2  0  0  0  0
 18 26  1  0  0  0  0
 22 28  2  0  0  0  0
 23 31  2  0  0  0  0
 24 33  2  0  0  0  0
 25 30  1  0  0  0  0
 26 29  2  0  0  0  0
 27 34  2  0  0  0  0
 28 31  1  0  0  0  0
 28 36  1  0  0  0  0
 29 32  1  0  0  0  0
 30 32  2  0  0  0  0
 33 34  1  0  0  0  0
 36 37  2  0  0  0  0
 36 38  1  0  0  0  0
 37 39  1  0  0  0  0
 38 40  2  0  0  0  0
 39 41  2  0  0  0  0
 40 41  1  0  0  0  0
M  END
> <PUBCHEM_COMPOUND_ID_TYPE>
0

> <PUBCHEM_TOTAL_CHARGE>
0

> <PUBCHEM_SUBSTANCE_ID>
310949231

> <PUBCHEM_SUBSTANCE_VERSION>
1

> <PUBCHEM_EXT_DATASOURCE_NAME>
4488

> <PUBCHEM_EXT_DATASOURCE_REGID>
SCHEMBL16127421

> <PUBCHEM_SUBSTANCE_COMMENT>
InChI=1S/C32H17F8N/c1-16-13-19(25-26(33)28(35)30(37)29(36)27(25)34)15-22(32(38,39)40)31(16)41-23-10-6-5-9-20(23)21-14-18(11-12-24(21)41)17-7-3-2-4-8-17/h2-15H,1H3
InChIKey=KSOVGGJCBQMEAP-UHFFFAOYSA-N

> <PUBCHEM_SUBSTANCE_SYNONYM>
SCHEMBL16127421

> <PUBCHEM_XREF_EXT_ID>
SCHEMBL16127421

> <PUBCHEM_EXT_DATASOURCE_URL>
https://www.surechembl.org/

> <PUBCHEM_EXT_SUBSTANCE_URL>
https://www.surechembl.org/chemical/SCHEMBL16127421

> <PUBCHEM_CID_ASSOCIATIONS>
117614719  1

> <PUBCHEM_COORDINATE_TYPE>
1
3

$$$$
