310945271
  -OEChem-07211613022D

 34 38  0     0  0  0  0  0  0999 V2000
    3.9349    3.0269    0.0000 O   0  0  0  0  0  0  0  0  0  0  0  0
   -2.0087   -1.9078    0.0000 O   0  0  0  0  0  0  0  0  0  0  0  0
   -3.8799    0.4035    0.0000 O   0  0  0  0  0  0  0  0  0  0  0  0
   -4.1367   -2.3848    0.0000 O   0  0  0  0  0  0  0  0  0  0  0  0
    2.4673    0.6788    0.0000 N   0  0  0  0  0  0  0  0  0  0  0  0
    0.6696    0.7338    0.0000 N   0  0  0  0  0  0  0  0  0  0  0  0
   -0.5045    1.5409    0.0000 N   0  0  0  0  0  0  0  0  0  0  0  0
    4.6504    1.8161    0.0000 N   0  0  0  0  0  0  0  0  0  0  0  0
   -2.7241   -0.4035    0.0000 N   0  0  0  0  0  0  0  0  0  0  0  0
    1.9720    1.3575    0.0000 C   0  0  0  0  0  0  0  0  0  0  0  0
    2.4307    2.0362    0.0000 C   0  0  0  0  0  0  0  0  0  0  0  0
    3.2378    1.7977    0.0000 C   0  0  0  0  0  0  0  0  0  0  0  0
    1.1465    1.4309    0.0000 C   0  0  0  0  0  0  0  0  0  0  0  0
    3.2378    0.9722    0.0000 C   0  0  0  0  0  0  0  0  0  0  0  0
    0.7980    2.1647    0.0000 C   0  0  0  0  0  0  0  0  0  0  0  0
    3.9166    2.2014    0.0000 C   0  0  0  0  0  0  0  0  0  0  0  0
    2.0821    2.7700    0.0000 C   0  0  0  0  0  0  0  0  0  0  0  0
   -0.1559    0.8255    0.0000 C   0  0  0  0  0  0  0  0  0  0  0  0
    1.2750    2.8250    0.0000 C   0  0  0  0  0  0  0  0  0  0  0  0
    3.9899    0.5687    0.0000 C   0  0  0  0  0  0  0  0  0  0  0  0
   -0.0275    2.2197    0.0000 C   0  0  0  0  0  0  0  0  0  0  0  0
   -0.6329    0.1284    0.0000 C   0  0  0  0  0  0  0  0  0  0  0  0
    4.6687    0.9906    0.0000 C   0  0  0  0  0  0  0  0  0  0  0  0
   -1.4217    0.2018    0.0000 C   0  0  0  0  0  0  0  0  0  0  0  0
   -1.8986   -0.4770    0.0000 C   0  0  0  0  0  0  0  0  0  0  0  0
   -0.2660   -0.6237    0.0000 C   0  0  0  0  0  0  0  0  0  0  0  0
   -1.5501   -1.2107    0.0000 C   0  0  0  0  0  0  0  0  0  0  0  0
   -0.7246   -1.2658    0.0000 C   0  0  0  0  0  0  0  0  0  0  0  0
   -3.0544    0.3302    0.0000 C   0  0  0  0  0  0  0  0  0  0  0  0
   -2.8342   -1.8345    0.0000 C   0  0  0  0  0  0  0  0  0  0  0  0
   -2.5957    1.0090    0.0000 C   0  0  0  0  0  0  0  0  0  0  0  0
   -3.3296   -2.4765    0.0000 C   0  0  0  0  0  0  0  0  0  0  0  0
   -3.0177    1.7427    0.0000 C   0  0  0  0  0  0  0  0  0  0  0  0
   -4.6687   -3.0269    0.0000 C   0  0  0  0  0  0  0  0  0  0  0  0
  1 16  2  0  0  0  0
  2 27  1  0  0  0  0
  2 30  1  0  0  0  0
  3 29  2  0  0  0  0
  4 32  1  0  0  0  0
  4 34  1  0  0  0  0
  5 10  1  0  0  0  0
  5 14  1  0  0  0  0
  6 13  1  0  0  0  0
  6 18  2  0  0  0  0
  7 18  1  0  0  0  0
  7 21  2  0  0  0  0
  8 16  1  0  0  0  0
  8 23  1  0  0  0  0
  9 25  1  0  0  0  0
  9 29  1  0  0  0  0
 10 11  2  0  0  0  0
 10 13  1  0  0  0  0
 11 12  1  0  0  0  0
 11 17  1  0  0  0  0
 12 14  2  0  0  0  0
 12 16  1  0  0  0  0
 13 15  2  0  0  0  0
 14 20  1  0  0  0  0
 15 19  1  0  0  0  0
 15 21  1  0  0  0  0
 17 19  1  0  0  0  0
 18 22  1  0  0  0  0
 20 23  1  0  0  0  0
 22 24  2  0  0  0  0
 22 26  1  0  0  0  0
 24 25  1  0  0  0  0
 25 27  2  0  0  0  0
 26 28  2  0  0  0  0
 27 28  1  0  0  0  0
 29 31  1  0  0  0  0
 30 32  1  0  0  0  0
 31 33  2  0  0  0  0
M  END
> <PUBCHEM_COMPOUND_ID_TYPE>
0

> <PUBCHEM_TOTAL_CHARGE>
0

> <PUBCHEM_SUBSTANCE_ID>
310945271

> <PUBCHEM_SUBSTANCE_VERSION>
1

> <PUBCHEM_EXT_DATASOURCE_NAME>
4488

> <PUBCHEM_EXT_DATASOURCE_REGID>
SCHEMBL16123365

> <PUBCHEM_SUBSTANCE_COMMENT>
InChI=1S/C25H25N5O4/c1-3-20(31)28-18-12-14(5-7-19(18)34-11-10-33-2)24-27-13-15-4-6-16-21-17(8-9-26-25(21)32)29-23(16)22(15)30-24/h3,5,7,12-13,29H,1,4,6,8-11H2,2H3,(H,26,32)(H,28,31)
InChIKey=JYTVMTUFTPDSHB-UHFFFAOYSA-N

> <PUBCHEM_SUBSTANCE_SYNONYM>
SCHEMBL16123365

> <PUBCHEM_XREF_EXT_ID>
SCHEMBL16123365

> <PUBCHEM_EXT_DATASOURCE_URL>
https://www.surechembl.org/

> <PUBCHEM_EXT_SUBSTANCE_URL>
https://www.surechembl.org/chemical/SCHEMBL16123365

> <PUBCHEM_CID_ASSOCIATIONS>
86300315  1

> <PUBCHEM_COORDINATE_TYPE>
1
3

$$$$
