310934611
  -OEChem-07211613022D

 20 22  0     0  0  0  0  0  0999 V2000
    0.3065   -0.3647    0.0000 O   0  0  0  0  0  0  0  0  0  0  0  0
    0.9776    1.1426    0.0000 O   0  0  0  0  0  0  0  0  0  0  0  0
    2.4369   -0.9459    0.0000 N   0  0  0  0  0  0  0  0  0  0  0  0
    2.6918   -1.7305    0.0000 N   0  0  0  0  0  0  0  0  0  0  0  0
    1.4625    0.4752    0.0000 N   0  0  0  0  0  0  0  0  0  0  0  0
    1.6119   -0.9459    0.0000 C   0  0  0  0  0  0  0  0  0  0  0  0
    2.0244   -2.2155    0.0000 C   0  0  0  0  0  0  0  0  0  0  0  0
    1.3570   -1.7305    0.0000 C   0  0  0  0  0  0  0  0  0  0  0  0
    2.9218   -0.2785    0.0000 C   0  0  0  0  0  0  0  0  0  0  0  0
    2.0244   -3.0405    0.0000 C   0  0  0  0  0  0  0  0  0  0  0  0
    1.1270   -0.2785    0.0000 C   0  0  0  0  0  0  0  0  0  0  0  0
    2.5863    0.4752    0.0000 C   0  0  0  0  0  0  0  0  0  0  0  0
    3.7423   -0.3647    0.0000 C   0  0  0  0  0  0  0  0  0  0  0  0
    2.6918   -3.5254    0.0000 C   0  0  0  0  0  0  0  0  0  0  0  0
    1.3570   -3.5254    0.0000 C   0  0  0  0  0  0  0  0  0  0  0  0
    2.4369   -4.3100    0.0000 C   0  0  0  0  0  0  0  0  0  0  0  0
    1.6119   -4.3100    0.0000 C   0  0  0  0  0  0  0  0  0  0  0  0
    3.0712    1.1426    0.0000 C   0  0  0  0  0  0  0  0  0  0  0  0
    4.2272    0.3027    0.0000 C   0  0  0  0  0  0  0  0  0  0  0  0
    3.8917    1.0564    0.0000 C   0  0  0  0  0  0  0  0  0  0  0  0
  1 11  2  0  0  0  0
  2  5  1  0  0  0  0
  3  4  1  0  0  0  0
  3  6  1  0  0  0  0
  3  9  1  0  0  0  0
  4  7  2  0  0  0  0
  5 11  1  0  0  0  0
  6  8  2  0  0  0  0
  6 11  1  0  0  0  0
  7  8  1  0  0  0  0
  7 10  1  0  0  0  0
  9 12  2  0  0  0  0
  9 13  1  0  0  0  0
 10 14  1  0  0  0  0
 10 15  1  0  0  0  0
 12 18  1  0  0  0  0
 13 19  2  0  0  0  0
 14 16  1  0  0  0  0
 15 17  1  0  0  0  0
 16 17  2  0  0  0  0
 18 20  2  0  0  0  0
 19 20  1  0  0  0  0
M  END
> <PUBCHEM_COMPOUND_ID_TYPE>
0

> <PUBCHEM_TOTAL_CHARGE>
0

> <PUBCHEM_SUBSTANCE_ID>
310934611

> <PUBCHEM_SUBSTANCE_VERSION>
1

> <PUBCHEM_EXT_DATASOURCE_NAME>
4488

> <PUBCHEM_EXT_DATASOURCE_REGID>
SCHEMBL16112106

> <PUBCHEM_SUBSTANCE_COMMENT>
InChI=1S/C15H15N3O2/c19-15(17-20)14-10-13(11-6-4-5-7-11)16-18(14)12-8-2-1-3-9-12/h1-5,8-11,20H,6-7H2,(H,17,19)
InChIKey=KRHVJVXTEIHNRC-UHFFFAOYSA-N

> <PUBCHEM_SUBSTANCE_SYNONYM>
SCHEMBL16112106

> <PUBCHEM_XREF_EXT_ID>
SCHEMBL16112106

> <PUBCHEM_EXT_DATASOURCE_URL>
https://www.surechembl.org/

> <PUBCHEM_EXT_SUBSTANCE_URL>
https://www.surechembl.org/chemical/SCHEMBL16112106

> <PUBCHEM_CID_ASSOCIATIONS>
117602786  1

> <PUBCHEM_COORDINATE_TYPE>
1
3

$$$$
