310931603
  -OEChem-07211613022D

 18 19  0     0  0  0  0  0  0999 V2000
    1.4500   -1.3579    0.0000 S   0  0  0  0  0  0  0  0  0  0  0  0
    4.0046   -2.8308    0.0000 O   0  0  0  0  0  0  0  0  0  0  0  0
    6.4902   -1.4039    0.0000 O   0  0  0  0  0  0  0  0  0  0  0  0
    2.7618   -0.6674    0.0000 N   0  0  0  0  0  0  0  0  0  0  0  0
    1.4500    0.0000    0.0000 N   0  0  0  0  0  0  0  0  0  0  0  0
    4.0046   -1.4039    0.0000 C   0  0  0  0  0  0  0  0  0  0  0  0
    4.4189   -2.1174    0.0000 C   0  0  0  0  0  0  0  0  0  0  0  0
    1.9332   -0.6674    0.0000 C   0  0  0  0  0  0  0  0  0  0  0  0
    3.1761   -1.3809    0.0000 C   0  0  0  0  0  0  0  0  0  0  0  0
    5.6617   -1.4039    0.0000 C   0  0  0  0  0  0  0  0  0  0  0  0
    5.2474   -2.1174    0.0000 C   0  0  0  0  0  0  0  0  0  0  0  0
    4.4189   -0.6905    0.0000 C   0  0  0  0  0  0  0  0  0  0  0  0
    0.6674   -1.0817    0.0000 C   0  0  0  0  0  0  0  0  0  0  0  0
    5.2474   -0.6905    0.0000 C   0  0  0  0  0  0  0  0  0  0  0  0
    0.6674   -0.2761    0.0000 C   0  0  0  0  0  0  0  0  0  0  0  0
    0.0000   -1.5650    0.0000 C   0  0  0  0  0  0  0  0  0  0  0  0
    4.4189   -3.5443    0.0000 C   0  0  0  0  0  0  0  0  0  0  0  0
    6.9045   -0.6905    0.0000 C   0  0  0  0  0  0  0  0  0  0  0  0
  1  8  1  0  0  0  0
  1 13  1  0  0  0  0
  2  7  1  0  0  0  0
  2 17  1  0  0  0  0
  3 10  1  0  0  0  0
  3 18  1  0  0  0  0
  4  8  1  0  0  0  0
  4  9  1  0  0  0  0
  5  8  2  0  0  0  0
  5 15  1  0  0  0  0
  6  7  2  0  0  0  0
  6  9  1  0  0  0  0
  6 12  1  0  0  0  0
  7 11  1  0  0  0  0
 10 11  2  0  0  0  0
 10 14  1  0  0  0  0
 12 14  2  0  0  0  0
 13 15  2  0  0  0  0
 13 16  1  0  0  0  0
M  END
> <PUBCHEM_COMPOUND_ID_TYPE>
0

> <PUBCHEM_TOTAL_CHARGE>
0

> <PUBCHEM_SUBSTANCE_ID>
310931603

> <PUBCHEM_SUBSTANCE_VERSION>
1

> <PUBCHEM_EXT_DATASOURCE_NAME>
4488

> <PUBCHEM_EXT_DATASOURCE_REGID>
SCHEMBL16108929

> <PUBCHEM_SUBSTANCE_COMMENT>
InChI=1S/C13H16N2O2S/c1-9-7-14-13(18-9)15-8-10-4-5-11(16-2)6-12(10)17-3/h4-7H,8H2,1-3H3,(H,14,15)
InChIKey=ZIJRIRLRXABNFJ-UHFFFAOYSA-N

> <PUBCHEM_SUBSTANCE_SYNONYM>
SCHEMBL16108929

> <PUBCHEM_XREF_EXT_ID>
SCHEMBL16108929

> <PUBCHEM_EXT_DATASOURCE_URL>
https://www.surechembl.org/

> <PUBCHEM_EXT_SUBSTANCE_URL>
https://www.surechembl.org/chemical/SCHEMBL16108929

> <PUBCHEM_CID_ASSOCIATIONS>
83330220  1

> <PUBCHEM_COORDINATE_TYPE>
1
3

$$$$
