310941566
  -OEChem-07211613022D

 26 29  0     0  0  0  0  0  0999 V2000
    0.3070    1.7396    0.0000 S   0  0  0  0  0  0  0  0  0  0  0  0
   -0.5848   -0.9063    0.0000 O   0  0  0  0  0  0  0  0  0  0  0  0
    3.2016    0.7748    0.0000 O   0  0  0  0  0  0  0  0  0  0  0  0
   -2.0321   -0.9210    0.0000 N   0  0  0  0  0  0  0  0  0  0  0  0
   -3.5378   -0.7456    0.0000 N   0  0  0  0  0  0  0  0  0  0  0  0
    0.1608    0.4094    0.0000 N   0  0  0  0  0  0  0  0  0  0  0  0
    1.5496    0.9502    0.0000 N   0  0  0  0  0  0  0  0  0  0  0  0
   -2.7630   -0.4824    0.0000 C   0  0  0  0  0  0  0  0  0  0  0  0
   -1.3011    0.3362    0.0000 C   0  0  0  0  0  0  0  0  0  0  0  0
   -2.7338    0.3362    0.0000 C   0  0  0  0  0  0  0  0  0  0  0  0
   -1.3304   -0.4824    0.0000 C   0  0  0  0  0  0  0  0  0  0  0  0
   -0.5994    0.7602    0.0000 C   0  0  0  0  0  0  0  0  0  0  0  0
   -2.0321    0.7456    0.0000 C   0  0  0  0  0  0  0  0  0  0  0  0
   -3.5378    0.5848    0.0000 C   0  0  0  0  0  0  0  0  0  0  0  0
    0.7164    1.0379    0.0000 C   0  0  0  0  0  0  0  0  0  0  0  0
   -4.0202   -0.0877    0.0000 C   0  0  0  0  0  0  0  0  0  0  0  0
   -0.4971    1.5788    0.0000 C   0  0  0  0  0  0  0  0  0  0  0  0
   -2.0321   -1.7396    0.0000 C   0  0  0  0  0  0  0  0  0  0  0  0
    1.8712    0.1901    0.0000 C   0  0  0  0  0  0  0  0  0  0  0  0
   -3.8448   -1.4911    0.0000 C   0  0  0  0  0  0  0  0  0  0  0  0
    2.7045    0.0877    0.0000 C   0  0  0  0  0  0  0  0  0  0  0  0
    1.4181   -0.4971    0.0000 C   0  0  0  0  0  0  0  0  0  0  0  0
    3.0408   -0.6725    0.0000 C   0  0  0  0  0  0  0  0  0  0  0  0
    1.7396   -1.2280    0.0000 C   0  0  0  0  0  0  0  0  0  0  0  0
    2.5583   -1.3304    0.0000 C   0  0  0  0  0  0  0  0  0  0  0  0
    4.0202    0.6871    0.0000 C   0  0  0  0  0  0  0  0  0  0  0  0
  1 15  1  0  0  0  0
  1 17  1  0  0  0  0
  2 11  2  0  0  0  0
  3 21  1  0  0  0  0
  3 26  1  0  0  0  0
  4  8  1  0  0  0  0
  4 11  1  0  0  0  0
  4 18  1  0  0  0  0
  5  8  1  0  0  0  0
  5 16  1  0  0  0  0
  5 20  1  0  0  0  0
  6 12  1  0  0  0  0
  6 15  2  0  0  0  0
  7 15  1  0  0  0  0
  7 19  1  0  0  0  0
  8 10  2  0  0  0  0
  9 11  1  0  0  0  0
  9 12  1  0  0  0  0
  9 13  2  0  0  0  0
 10 13  1  0  0  0  0
 10 14  1  0  0  0  0
 12 17  2  0  0  0  0
 14 16  2  0  0  0  0
 19 21  1  0  0  0  0
 19 22  2  0  0  0  0
 21 23  2  0  0  0  0
 22 24  1  0  0  0  0
 23 25  1  0  0  0  0
 24 25  2  0  0  0  0
M  END
> <PUBCHEM_COMPOUND_ID_TYPE>
0

> <PUBCHEM_TOTAL_CHARGE>
0

> <PUBCHEM_SUBSTANCE_ID>
310941566

> <PUBCHEM_SUBSTANCE_VERSION>
1

> <PUBCHEM_EXT_DATASOURCE_NAME>
4488

> <PUBCHEM_EXT_DATASOURCE_REGID>
SCHEMBL16119597

> <PUBCHEM_SUBSTANCE_COMMENT>
InChI=1S/C19H18N4O2S/c1-22-9-8-12-10-13(18(24)23(2)17(12)22)15-11-26-19(21-15)20-14-6-4-5-7-16(14)25-3/h4-11H,1-3H3,(H,20,21)
InChIKey=UAQUEWHHJMDUNL-UHFFFAOYSA-N

> <PUBCHEM_SUBSTANCE_SYNONYM>
SCHEMBL16119597

> <PUBCHEM_XREF_EXT_ID>
SCHEMBL16119597

> <PUBCHEM_EXT_DATASOURCE_URL>
https://www.surechembl.org/

> <PUBCHEM_EXT_SUBSTANCE_URL>
https://www.surechembl.org/chemical/SCHEMBL16119597

> <PUBCHEM_CID_ASSOCIATIONS>
117608370  1

> <PUBCHEM_COORDINATE_TYPE>
1
3

$$$$
