310949761
  -OEChem-07211613022D

 23 24  0     0  0  0  0  0  0999 V2000
   -4.0641   -1.7789    0.0000 Cl  0  0  0  0  0  0  0  0  0  0  0  0
   -0.9061   -1.0726    0.0000 O   0  0  0  0  0  0  0  0  0  0  0  0
   -2.5584    1.7789    0.0000 O   0  0  0  0  0  0  0  0  0  0  0  0
   -1.3192    1.0726    0.0000 O   0  0  0  0  0  0  0  0  0  0  0  0
    4.0641    1.7789    0.0000 O   0  0  0  0  0  0  0  0  0  0  0  0
   -0.9061    0.3531    0.0000 N   0  0  0  0  0  0  0  0  0  0  0  0
   -2.1586   -0.3531    0.0000 C   0  0  0  0  0  0  0  0  0  0  0  0
   -2.5717    0.3531    0.0000 C   0  0  0  0  0  0  0  0  0  0  0  0
   -1.3325   -0.3531    0.0000 C   0  0  0  0  0  0  0  0  0  0  0  0
   -2.5584   -1.0594    0.0000 C   0  0  0  0  0  0  0  0  0  0  0  0
   -2.1454    1.0594    0.0000 C   0  0  0  0  0  0  0  0  0  0  0  0
   -3.3713    0.3531    0.0000 C   0  0  0  0  0  0  0  0  0  0  0  0
   -3.3713   -1.0594    0.0000 C   0  0  0  0  0  0  0  0  0  0  0  0
   -0.0800    0.3531    0.0000 C   0  0  0  0  0  0  0  0  0  0  0  0
   -3.7843   -0.3664    0.0000 C   0  0  0  0  0  0  0  0  0  0  0  0
    0.3331   -0.3531    0.0000 C   0  0  0  0  0  0  0  0  0  0  0  0
    0.3465    1.0594    0.0000 C   0  0  0  0  0  0  0  0  0  0  0  0
    1.5724    0.3664    0.0000 C   0  0  0  0  0  0  0  0  0  0  0  0
    1.1593   -0.3531    0.0000 C   0  0  0  0  0  0  0  0  0  0  0  0
    1.1593    1.0594    0.0000 C   0  0  0  0  0  0  0  0  0  0  0  0
    2.3985    0.3531    0.0000 C   0  0  0  0  0  0  0  0  0  0  0  0
    2.8249    1.0726    0.0000 C   0  0  0  0  0  0  0  0  0  0  0  0
    3.6511    1.0726    0.0000 C   0  0  0  0  0  0  0  0  0  0  0  0
  1 13  1  0  0  0  0
  2  9  2  0  0  0  0
  3 11  2  0  0  0  0
  4 11  1  0  0  0  0
  5 23  1  0  0  0  0
  6  9  1  0  0  0  0
  6 14  1  0  0  0  0
  7  8  1  0  0  0  0
  7  9  1  0  0  0  0
  7 10  2  0  0  0  0
  8 11  1  0  0  0  0
  8 12  2  0  0  0  0
 10 13  1  0  0  0  0
 12 15  1  0  0  0  0
 13 15  2  0  0  0  0
 14 16  2  0  0  0  0
 14 17  1  0  0  0  0
 16 19  1  0  0  0  0
 17 20  2  0  0  0  0
 18 19  2  0  0  0  0
 18 20  1  0  0  0  0
 18 21  1  0  0  0  0
 21 22  1  0  0  0  0
 22 23  1  0  0  0  0
M  END
> <PUBCHEM_COMPOUND_ID_TYPE>
0

> <PUBCHEM_TOTAL_CHARGE>
0

> <PUBCHEM_SUBSTANCE_ID>
310949761

> <PUBCHEM_SUBSTANCE_VERSION>
1

> <PUBCHEM_EXT_DATASOURCE_NAME>
4488

> <PUBCHEM_EXT_DATASOURCE_REGID>
SCHEMBL16127959

> <PUBCHEM_SUBSTANCE_COMMENT>
InChI=1S/C17H16ClNO4/c18-12-5-8-14(17(22)23)15(10-12)16(21)19-13-6-3-11(4-7-13)2-1-9-20/h3-8,10,20H,1-2,9H2,(H,19,21)(H,22,23)
InChIKey=RCUMDFXTUVSVCJ-UHFFFAOYSA-N

> <PUBCHEM_SUBSTANCE_SYNONYM>
SCHEMBL16127959

> <PUBCHEM_XREF_EXT_ID>
SCHEMBL16127959

> <PUBCHEM_EXT_DATASOURCE_URL>
https://www.surechembl.org/

> <PUBCHEM_EXT_SUBSTANCE_URL>
https://www.surechembl.org/chemical/SCHEMBL16127959

> <PUBCHEM_CID_ASSOCIATIONS>
85471676  1

> <PUBCHEM_COORDINATE_TYPE>
1
3

$$$$
