310942193
  -OEChem-07211613022D

 26 27  0     1  0  0  0  0  0999 V2000
    2.1561    1.8748    0.0000 Cl  0  0  0  0  0  0  0  0  0  0  0  0
    0.7187   -0.6250    0.0000 F   0  0  0  0  0  0  0  0  0  0  0  0
    2.1436    0.2125    0.0000 O   0  0  0  0  0  0  0  0  0  0  0  0
   -1.4561   -1.8748    0.0000 O   0  0  0  0  0  0  0  0  0  0  0  0
   -3.6185   -0.6250    0.0000 O   0  0  0  0  0  0  0  0  0  0  0  0
   -1.4436    0.6250    0.0000 N   0  0  0  0  0  0  0  0  0  0  0  0
   -4.3310    0.6250    0.0000 N   0  0  0  0  0  0  0  0  0  0  0  0
   -0.0062    0.6375    0.0000 C   0  0  0  0  0  0  0  0  0  0  0  0
    0.7062    0.2250    0.0000 C   0  0  0  0  0  0  0  0  0  0  0  0
    1.4311    0.6375    0.0000 C   0  0  0  0  0  0  0  0  0  0  0  0
    1.4436    1.4749    0.0000 C   0  0  0  0  0  0  0  0  0  0  0  0
   -0.7187    0.2250    0.0000 C   0  0  3  0  0  0  0  0  0  0  0  0
    0.0062    1.4624    0.0000 C   0  0  0  0  0  0  0  0  0  0  0  0
    0.7312    1.8748    0.0000 C   0  0  0  0  0  0  0  0  0  0  0  0
    2.8810    0.6375    0.0000 C   0  0  0  0  0  0  0  0  0  0  0  0
   -0.7312   -0.6250    0.0000 C   0  0  0  0  0  0  0  0  0  0  0  0
   -2.1561    0.2125    0.0000 C   0  0  3  0  0  0  0  0  0  0  0  0
    3.6185    0.2250    0.0000 C   0  0  0  0  0  0  0  0  0  0  0  0
    2.8935    1.4624    0.0000 C   0  0  0  0  0  0  0  0  0  0  0  0
   -1.4311   -1.0374    0.0000 C   0  0  0  0  0  0  0  0  0  0  0  0
   -2.8935    0.6250    0.0000 C   0  0  0  0  0  0  0  0  0  0  0  0
    4.3310    0.6375    0.0000 C   0  0  0  0  0  0  0  0  0  0  0  0
    3.6185    1.8748    0.0000 C   0  0  0  0  0  0  0  0  0  0  0  0
    4.3310    1.4624    0.0000 C   0  0  0  0  0  0  0  0  0  0  0  0
   -2.1686   -0.6000    0.0000 C   0  0  0  0  0  0  0  0  0  0  0  0
   -3.6060    0.2375    0.0000 C   0  0  0  0  0  0  0  0  0  0  0  0
  1 11  1  0  0  0  0
  2  9  1  0  0  0  0
  3 10  1  0  0  0  0
  3 15  1  0  0  0  0
  4 20  1  0  0  0  0
  5 26  2  0  0  0  0
 12  6  1  1  0  0  0
  6 17  1  0  0  0  0
  7 26  1  0  0  0  0
  8  9  1  0  0  0  0
  8 12  1  0  0  0  0
  8 13  2  0  0  0  0
  9 10  2  0  0  0  0
 10 11  1  0  0  0  0
 11 14  2  0  0  0  0
 12 16  1  0  0  0  0
 13 14  1  0  0  0  0
 15 18  2  0  0  0  0
 15 19  1  0  0  0  0
 16 20  1  0  0  0  0
 17 21  1  0  0  0  0
 17 25  1  6  0  0  0
 18 22  1  0  0  0  0
 19 23  2  0  0  0  0
 21 26  1  0  0  0  0
 22 24  2  0  0  0  0
 23 24  1  0  0  0  0
M  END
> <PUBCHEM_COMPOUND_ID_TYPE>
0

> <PUBCHEM_TOTAL_CHARGE>
0

> <PUBCHEM_SUBSTANCE_ID>
310942193

> <PUBCHEM_SUBSTANCE_VERSION>
1

> <PUBCHEM_EXT_DATASOURCE_NAME>
4488

> <PUBCHEM_EXT_DATASOURCE_REGID>
SCHEMBL16120228

> <PUBCHEM_SUBSTANCE_COMMENT>
InChI=1S/C19H22ClFN2O3/c1-12(11-17(22)25)23-16(9-10-24)14-7-8-15(20)19(18(14)21)26-13-5-3-2-4-6-13/h2-8,12,16,23-24H,9-11H2,1H3,(H2,22,25)/t12-,16-/m1/s1
InChIKey=RQDANHCISKDLDC-MLGOLLRUSA-N

> <PUBCHEM_SUBSTANCE_SYNONYM>
SCHEMBL16120228

> <PUBCHEM_XREF_EXT_ID>
SCHEMBL16120228

> <PUBCHEM_EXT_DATASOURCE_URL>
https://www.surechembl.org/

> <PUBCHEM_EXT_SUBSTANCE_URL>
https://www.surechembl.org/chemical/SCHEMBL16120228

> <PUBCHEM_CID_ASSOCIATIONS>
117608844  1

> <PUBCHEM_COORDINATE_TYPE>
1
3

> <PUBCHEM_BONDANNOTATIONS>
17  25  6
12  6  5

$$$$
