310939906
  -OEChem-07211613022D

 28 30  0     0  0  0  0  0  0999 V2000
   -1.7862    4.7084    0.0000 Cl  0  0  0  0  0  0  0  0  0  0  0  0
    1.0717    4.7084    0.0000 Cl  0  0  0  0  0  0  0  0  0  0  0  0
   -0.3572   -3.8834    0.0000 O   0  0  0  0  0  0  0  0  0  0  0  0
   -0.3572    2.2334    0.0000 O   0  0  0  0  0  0  0  0  0  0  0  0
   -1.0717   -0.6541    0.0000 N   0  0  0  0  0  0  0  0  0  0  0  0
   -1.0717   -2.6459    0.0000 N   0  0  0  0  0  0  0  0  0  0  0  0
   -1.0717    0.9959    0.0000 N   0  0  0  0  0  0  0  0  0  0  0  0
   -1.7862    3.0584    0.0000 N   0  0  0  0  0  0  0  0  0  0  0  0
    1.7862    2.6459    0.0000 N   0  0  0  0  0  0  0  0  0  0  0  0
   -1.0717   -1.4791    0.0000 C   0  0  0  0  0  0  0  0  0  0  0  0
   -1.6551   -2.0625    0.0000 C   0  0  0  0  0  0  0  0  0  0  0  0
   -0.4883   -2.0625    0.0000 C   0  0  0  0  0  0  0  0  0  0  0  0
   -1.0717   -3.4709    0.0000 C   0  0  0  0  0  0  0  0  0  0  0  0
   -1.7862   -0.2416    0.0000 C   0  0  0  0  0  0  0  0  0  0  0  0
   -0.3572   -0.2416    0.0000 C   0  0  0  0  0  0  0  0  0  0  0  0
   -1.0717    3.4709    0.0000 C   0  0  0  0  0  0  0  0  0  0  0  0
   -1.0717    1.8209    0.0000 C   0  0  0  0  0  0  0  0  0  0  0  0
   -1.7862    0.5834    0.0000 C   0  0  0  0  0  0  0  0  0  0  0  0
   -0.3572    0.5834    0.0000 C   0  0  0  0  0  0  0  0  0  0  0  0
   -1.0717    4.2959    0.0000 C   0  0  0  0  0  0  0  0  0  0  0  0
    0.3572    3.4709    0.0000 C   0  0  0  0  0  0  0  0  0  0  0  0
    0.3572    4.2959    0.0000 C   0  0  0  0  0  0  0  0  0  0  0  0
   -0.3572    3.0584    0.0000 C   0  0  0  0  0  0  0  0  0  0  0  0
   -0.3572    4.7084    0.0000 C   0  0  0  0  0  0  0  0  0  0  0  0
   -1.7862    2.2334    0.0000 C   0  0  0  0  0  0  0  0  0  0  0  0
   -1.7862   -3.8834    0.0000 C   0  0  0  0  0  0  0  0  0  0  0  0
    1.0717    3.0584    0.0000 C   0  0  0  0  0  0  0  0  0  0  0  0
   -1.7862   -4.7084    0.0000 C   0  0  0  0  0  0  0  0  0  0  0  0
  1 20  1  0  0  0  0
  2 22  1  0  0  0  0
  3 13  2  0  0  0  0
  4 17  2  0  0  0  0
  5 10  1  0  0  0  0
  5 14  1  0  0  0  0
  5 15  1  0  0  0  0
  6 11  1  0  0  0  0
  6 12  1  0  0  0  0
  6 13  1  0  0  0  0
  7 17  1  0  0  0  0
  7 18  1  0  0  0  0
  7 19  1  0  0  0  0
  8 16  1  0  0  0  0
  8 25  1  0  0  0  0
  9 27  3  0  0  0  0
 10 11  1  0  0  0  0
 10 12  1  0  0  0  0
 13 26  1  0  0  0  0
 14 18  1  0  0  0  0
 15 19  1  0  0  0  0
 16 20  1  0  0  0  0
 16 23  2  0  0  0  0
 17 25  1  0  0  0  0
 20 24  2  0  0  0  0
 21 22  2  0  0  0  0
 21 23  1  0  0  0  0
 21 27  1  0  0  0  0
 22 24  1  0  0  0  0
 26 28  2  0  0  0  0
M  END
> <PUBCHEM_COMPOUND_ID_TYPE>
0

> <PUBCHEM_TOTAL_CHARGE>
0

> <PUBCHEM_SUBSTANCE_ID>
310939906

> <PUBCHEM_SUBSTANCE_VERSION>
1

> <PUBCHEM_EXT_DATASOURCE_NAME>
4488

> <PUBCHEM_EXT_DATASOURCE_REGID>
SCHEMBL16117836

> <PUBCHEM_SUBSTANCE_COMMENT>
InChI=1S/C19H21Cl2N5O2/c1-2-18(27)26-11-14(12-26)24-3-5-25(6-4-24)19(28)10-23-17-7-13(9-22)15(20)8-16(17)21/h2,7-8,14,23H,1,3-6,10-12H2
InChIKey=ZNSUETSORWIJIW-UHFFFAOYSA-N

> <PUBCHEM_SUBSTANCE_SYNONYM>
SCHEMBL16117836

> <PUBCHEM_XREF_EXT_ID>
SCHEMBL16117836

> <PUBCHEM_EXT_DATASOURCE_URL>
https://www.surechembl.org/

> <PUBCHEM_EXT_SUBSTANCE_URL>
https://www.surechembl.org/chemical/SCHEMBL16117836

> <PUBCHEM_CID_ASSOCIATIONS>
86279690  1

> <PUBCHEM_COORDINATE_TYPE>
1
3

$$$$
