310934008
  -OEChem-07211613022D

 15 16  0     0  0  0  0  0  0999 V2000
    0.8591   -2.6176    0.0000 O   0  0  0  0  0  0  0  0  0  0  0  0
    2.8545   -2.7871    0.0000 O   0  0  0  0  0  0  0  0  0  0  0  0
    2.3825   -1.4851    0.0000 O   0  0  0  0  0  0  0  0  0  0  0  0
    0.8944   -0.9791    0.0000 C   0  0  0  0  0  0  0  0  0  0  0  0
    1.1126   -1.6244    0.0000 C   0  0  0  0  0  0  0  0  0  0  0  0
    1.6102   -1.3011    0.0000 C   0  0  0  0  0  0  0  0  0  0  0  0
    0.1153   -1.3201    0.0000 C   0  0  0  0  0  0  0  0  0  0  0  0
    0.9309   -0.1106    0.0000 C   0  0  0  0  0  0  0  0  0  0  0  0
    1.8380   -1.9606    0.0000 C   0  0  0  0  0  0  0  0  0  0  0  0
    0.2192   -2.0522    0.0000 C   0  0  0  0  0  0  0  0  0  0  0  0
    1.1681   -0.6978    0.0000 C   0  0  0  0  0  0  0  0  0  0  0  0
    0.7737   -1.9415    0.0000 C   0  0  0  0  0  0  0  0  0  0  0  0
    1.4910   -2.5449    0.0000 C   0  0  0  0  0  0  0  0  0  0  0  0
    2.2427   -2.2723    0.0000 C   0  0  0  0  0  0  0  0  0  0  0  0
    0.3692   -3.3538    0.0000 C   0  0  0  0  0  0  0  0  0  0  0  0
  1  5  1  0  0  0  0
  1 15  1  0  0  0  0
  2 14  2  0  0  0  0
  3 14  1  0  0  0  0
  4  6  1  0  0  0  0
  4  7  1  0  0  0  0
  4  8  1  0  0  0  0
  4 12  1  0  0  0  0
  5  9  1  0  0  0  0
  5 10  1  0  0  0  0
  5 11  1  0  0  0  0
  6  9  1  0  0  0  0
  7 10  1  0  0  0  0
  8 11  1  0  0  0  0
 12 13  2  0  0  0  0
 13 14  1  0  0  0  0
M  END
> <PUBCHEM_COMPOUND_ID_TYPE>
0

> <PUBCHEM_TOTAL_CHARGE>
0

> <PUBCHEM_SUBSTANCE_ID>
310934008

> <PUBCHEM_SUBSTANCE_VERSION>
1

> <PUBCHEM_EXT_DATASOURCE_NAME>
4488

> <PUBCHEM_EXT_DATASOURCE_REGID>
SCHEMBL16111452

> <PUBCHEM_SUBSTANCE_COMMENT>
InChI=1S/C12H18O3/c1-15-12-7-4-11(5-8-12,6-9-12)3-2-10(13)14/h2-3H,4-9H2,1H3,(H,13,14)/b3-2-
InChIKey=ZGWIVIUAMHRNBF-IHWYPQMZSA-N

> <PUBCHEM_SUBSTANCE_SYNONYM>
SCHEMBL16111452

> <PUBCHEM_XREF_EXT_ID>
SCHEMBL16111452

> <PUBCHEM_EXT_DATASOURCE_URL>
https://www.surechembl.org/

> <PUBCHEM_EXT_SUBSTANCE_URL>
https://www.surechembl.org/chemical/SCHEMBL16111452

> <PUBCHEM_CID_ASSOCIATIONS>
117602311  1

> <PUBCHEM_COORDINATE_TYPE>
1
3

> <PUBCHEM_BONDANNOTATIONS>
12  4  3

$$$$
