310946956
  -OEChem-07211613022D

  8  8  0     0  0  0  0  0  0999 V2000
   -1.2556    0.7813    0.0000 O   0  0  0  0  0  0  0  0  0  0  0  0
    1.7439   -0.1674    0.0000 N   0  0  0  0  0  0  0  0  0  0  0  0
   -0.4604   -0.2930    0.0000 C   0  0  0  0  0  0  0  0  0  0  0  0
   -0.4465    0.5301    0.0000 C   0  0  0  0  0  0  0  0  0  0  0  0
   -1.2417   -0.5580    0.0000 C   0  0  0  0  0  0  0  0  0  0  0  0
   -1.7439    0.1116    0.0000 C   0  0  0  0  0  0  0  0  0  0  0  0
    0.2372   -0.7813    0.0000 C   0  0  0  0  0  0  0  0  0  0  0  0
    0.9766   -0.4604    0.0000 C   0  0  0  0  0  0  0  0  0  0  0  0
  1  4  1  0  0  0  0
  1  6  1  0  0  0  0
  2  8  3  0  0  0  0
  3  4  1  0  0  0  0
  3  5  1  0  0  0  0
  3  7  2  0  0  0  0
  5  6  1  0  0  0  0
  7  8  1  0  0  0  0
M  END
> <PUBCHEM_COMPOUND_ID_TYPE>
0

> <PUBCHEM_TOTAL_CHARGE>
0

> <PUBCHEM_SUBSTANCE_ID>
310946956

> <PUBCHEM_SUBSTANCE_VERSION>
1

> <PUBCHEM_EXT_DATASOURCE_NAME>
4488

> <PUBCHEM_EXT_DATASOURCE_REGID>
SCHEMBL16125084

> <PUBCHEM_SUBSTANCE_COMMENT>
InChI=1S/C6H7NO/c7-3-1-6-2-4-8-5-6/h1H,2,4-5H2/b6-1-
InChIKey=RDWWMQDCKZIDJM-BHQIHCQQSA-N

> <PUBCHEM_SUBSTANCE_SYNONYM>
SCHEMBL16125084

> <PUBCHEM_XREF_EXT_ID>
SCHEMBL16125084

> <PUBCHEM_EXT_DATASOURCE_URL>
https://www.surechembl.org/

> <PUBCHEM_EXT_SUBSTANCE_URL>
https://www.surechembl.org/chemical/SCHEMBL16125084

> <PUBCHEM_CID_ASSOCIATIONS>
63333093  1

> <PUBCHEM_COORDINATE_TYPE>
1
3

$$$$
