310949401
  -OEChem-07211613022D

 42 49  0     0  0  0  0  0  0999 V2000
   -1.4845    0.0135    0.0000 N   0  0  0  0  0  0  0  0  0  0  0  0
    0.6882   -1.4440    0.0000 N   0  0  0  0  0  0  0  0  0  0  0  0
   -3.6843   -1.4440    0.0000 N   0  0  0  0  0  0  0  0  0  0  0  0
    1.3090    1.0662    0.0000 C   0  0  0  0  0  0  0  0  0  0  0  0
    0.4723    1.0662    0.0000 C   0  0  0  0  0  0  0  0  0  0  0  0
    1.5789    1.8624    0.0000 C   0  0  0  0  0  0  0  0  0  0  0  0
    0.2294    1.8624    0.0000 C   0  0  0  0  0  0  0  0  0  0  0  0
    0.9042    2.3347    0.0000 C   0  0  0  0  0  0  0  0  0  0  0  0
   -0.8907    0.6478    0.0000 C   0  0  0  0  0  0  0  0  0  0  0  0
   -1.1471    1.4170    0.0000 C   0  0  0  0  0  0  0  0  0  0  0  0
    2.1052    0.8367    0.0000 C   0  0  0  0  0  0  0  0  0  0  0  0
    1.0796    0.2564    0.0000 C   0  0  0  0  0  0  0  0  0  0  0  0
   -0.0810    0.4723    0.0000 C   0  0  0  0  0  0  0  0  0  0  0  0
   -0.5803    2.0108    0.0000 C   0  0  0  0  0  0  0  0  0  0  0  0
   -1.9973    1.4305    0.0000 C   0  0  0  0  0  0  0  0  0  0  0  0
   -2.2537    0.6478    0.0000 C   0  0  0  0  0  0  0  0  0  0  0  0
    2.3212    2.1997    0.0000 C   0  0  0  0  0  0  0  0  0  0  0  0
   -1.5115   -1.8084    0.0000 C   0  0  0  0  0  0  0  0  0  0  0  0
    0.9986    3.1444    0.0000 C   0  0  0  0  0  0  0  0  0  0  0  0
    2.3347    0.0404    0.0000 C   0  0  0  0  0  0  0  0  0  0  0  0
    0.2969    0.0540    0.0000 C   0  0  0  0  0  0  0  0  0  0  0  0
    2.6856    1.4170    0.0000 C   0  0  0  0  0  0  0  0  0  0  0  0
    1.6734   -0.3374    0.0000 C   0  0  0  0  0  0  0  0  0  0  0  0
   -2.5371    2.0243    0.0000 C   0  0  0  0  0  0  0  0  0  0  0  0
   -3.0634    0.4858    0.0000 C   0  0  0  0  0  0  0  0  0  0  0  0
    2.4291    2.9959    0.0000 C   0  0  0  0  0  0  0  0  0  0  0  0
   -0.7827   -2.2132    0.0000 C   0  0  0  0  0  0  0  0  0  0  0  0
   -2.2132   -2.2132    0.0000 C   0  0  0  0  0  0  0  0  0  0  0  0
    1.7544    3.4683    0.0000 C   0  0  0  0  0  0  0  0  0  0  0  0
   -3.3604    1.8489    0.0000 C   0  0  0  0  0  0  0  0  0  0  0  0
    3.1039   -0.1619    0.0000 C   0  0  0  0  0  0  0  0  0  0  0  0
    0.0540   -0.7423    0.0000 C   0  0  0  0  0  0  0  0  0  0  0  0
    3.4683    1.2011    0.0000 C   0  0  0  0  0  0  0  0  0  0  0  0
    1.4305   -1.1336    0.0000 C   0  0  0  0  0  0  0  0  0  0  0  0
   -3.6033    1.0527    0.0000 C   0  0  0  0  0  0  0  0  0  0  0  0
   -0.7962   -3.0634    0.0000 C   0  0  0  0  0  0  0  0  0  0  0  0
   -2.2267   -3.0634    0.0000 C   0  0  0  0  0  0  0  0  0  0  0  0
    3.6843    0.4049    0.0000 C   0  0  0  0  0  0  0  0  0  0  0  0
    0.6208   -1.3360    0.0000 C   0  0  0  0  0  0  0  0  0  0  0  0
   -0.0540   -1.8219    0.0000 C   0  0  0  0  0  0  0  0  0  0  0  0
   -2.9555   -1.8219    0.0000 C   0  0  0  0  0  0  0  0  0  0  0  0
   -1.4980   -3.4683    0.0000 C   0  0  0  0  0  0  0  0  0  0  0  0
  1  9  1  0  0  0  0
  1 16  1  0  0  0  0
  1 18  1  0  0  0  0
  2 40  3  0  0  0  0
  3 41  3  0  0  0  0
  4  5  1  0  0  0  0
  4  6  1  0  0  0  0
  4 11  1  0  0  0  0
  4 12  1  0  0  0  0
  5  7  1  0  0  0  0
  5 13  2  0  0  0  0
  6  8  2  0  0  0  0
  6 17  1  0  0  0  0
  7  8  1  0  0  0  0
  7 14  2  0  0  0  0
  8 19  1  0  0  0  0
  9 10  2  0  0  0  0
  9 13  1  0  0  0  0
 10 14  1  0  0  0  0
 10 15  1  0  0  0  0
 11 20  2  0  0  0  0
 11 22  1  0  0  0  0
 12 21  2  0  0  0  0
 12 23  1  0  0  0  0
 15 16  2  0  0  0  0
 15 24  1  0  0  0  0
 16 25  1  0  0  0  0
 17 26  2  0  0  0  0
 18 27  2  0  0  0  0
 18 28  1  0  0  0  0
 19 29  2  0  0  0  0
 20 31  1  0  0  0  0
 21 32  1  0  0  0  0
 22 33  2  0  0  0  0
 23 34  2  0  0  0  0
 24 30  2  0  0  0  0
 25 35  2  0  0  0  0
 26 29  1  0  0  0  0
 27 36  1  0  0  0  0
 27 40  1  0  0  0  0
 28 37  2  0  0  0  0
 28 41  1  0  0  0  0
 30 35  1  0  0  0  0
 31 38  2  0  0  0  0
 32 39  2  0  0  0  0
 33 38  1  0  0  0  0
 34 39  1  0  0  0  0
 36 42  2  0  0  0  0
 37 42  1  0  0  0  0
M  END
> <PUBCHEM_COMPOUND_ID_TYPE>
0

> <PUBCHEM_TOTAL_CHARGE>
0

> <PUBCHEM_SUBSTANCE_ID>
310949401

> <PUBCHEM_SUBSTANCE_VERSION>
1

> <PUBCHEM_EXT_DATASOURCE_NAME>
4488

> <PUBCHEM_EXT_DATASOURCE_REGID>
SCHEMBL16127594

> <PUBCHEM_SUBSTANCE_COMMENT>
InChI=1S/C39H23N3/c40-24-26-12-11-13-27(25-41)38(26)42-36-21-10-8-19-31(36)33-22-32-30-18-7-9-20-34(30)39(35(32)23-37(33)42,28-14-3-1-4-15-28)29-16-5-2-6-17-29/h1-23H
InChIKey=CQXPLUUUTBRDGC-UHFFFAOYSA-N

> <PUBCHEM_SUBSTANCE_SYNONYM>
SCHEMBL16127594

> <PUBCHEM_XREF_EXT_ID>
SCHEMBL16127594

> <PUBCHEM_EXT_DATASOURCE_URL>
https://www.surechembl.org/

> <PUBCHEM_EXT_SUBSTANCE_URL>
https://www.surechembl.org/chemical/SCHEMBL16127594

> <PUBCHEM_CID_ASSOCIATIONS>
117614853  1

> <PUBCHEM_COORDINATE_TYPE>
1
3

$$$$
