310932342
  -OEChem-07211613022D

 14 13  0     0  0  0  0  0  0999 V2000
    2.2750   -3.3250    0.0000 Br  0  0  0  0  0  0  0  0  0  0  0  0
    0.8500   -1.6750    0.0000 Br  0  0  0  0  0  0  0  0  0  0  0  0
    2.2750   -0.8500    0.0000 P   0  0  0  0  0  0  0  0  0  0  0  0
    0.8250   -4.1750    0.0000 P   0  0  0  0  0  0  0  0  0  0  0  0
    2.2750   -1.6750    0.0000 O   0  0  0  0  0  0  0  0  0  0  0  0
    0.8250   -3.3250    0.0000 O   0  0  0  0  0  0  0  0  0  0  0  0
    3.1250   -0.8250    0.0000 O   0  0  0  0  0  0  0  0  0  0  0  0
    0.0000   -4.1750    0.0000 O   0  0  0  0  0  0  0  0  0  0  0  0
    1.4500   -0.8500    0.0000 O   0  0  0  0  0  0  0  0  0  0  0  0
    2.2750    0.0000    0.0000 O   0  0  0  0  0  0  0  0  0  0  0  0
    1.6750   -4.1750    0.0000 O   0  0  0  0  0  0  0  0  0  0  0  0
    0.8250   -5.0000    0.0000 O   0  0  0  0  0  0  0  0  0  0  0  0
    1.5500   -2.9250    0.0000 C   0  0  0  0  0  0  0  0  0  0  0  0
    1.5500   -2.1000    0.0000 C   0  0  0  0  0  0  0  0  0  0  0  0
  1 13  1  0  0  0  0
  2 14  1  0  0  0  0
  3  5  1  0  0  0  0
  3  7  2  0  0  0  0
  3  9  1  0  0  0  0
  3 10  1  0  0  0  0
  4  6  1  0  0  0  0
  4  8  2  0  0  0  0
  4 11  1  0  0  0  0
  4 12  1  0  0  0  0
  5 14  1  0  0  0  0
  6 13  1  0  0  0  0
 13 14  2  0  0  0  0
M  END
> <PUBCHEM_COMPOUND_ID_TYPE>
0

> <PUBCHEM_TOTAL_CHARGE>
0

> <PUBCHEM_SUBSTANCE_ID>
310932342

> <PUBCHEM_SUBSTANCE_VERSION>
1

> <PUBCHEM_EXT_DATASOURCE_NAME>
4488

> <PUBCHEM_EXT_DATASOURCE_REGID>
SCHEMBL16109708

> <PUBCHEM_SUBSTANCE_COMMENT>
InChI=1S/C2H4Br2O8P2/c3-1(11-13(5,6)7)2(4)12-14(8,9)10/h(H2,5,6,7)(H2,8,9,10)/b2-1+
InChIKey=PUZDWDLPGBKKBC-OWOJBTEDSA-N

> <PUBCHEM_SUBSTANCE_SYNONYM>
SCHEMBL16109708

> <PUBCHEM_XREF_EXT_ID>
SCHEMBL16109708

> <PUBCHEM_EXT_DATASOURCE_URL>
https://www.surechembl.org/

> <PUBCHEM_EXT_SUBSTANCE_URL>
https://www.surechembl.org/chemical/SCHEMBL16109708

> <PUBCHEM_CID_ASSOCIATIONS>
117600897  1

> <PUBCHEM_COORDINATE_TYPE>
1
3

$$$$
