310941704
  -OEChem-07211613022D

 35 39  0     0  0  0  0  0  0999 V2000
    1.7932    0.1286    0.0000 O   0  0  0  0  0  0  0  0  0  0  0  0
    1.1030    2.9165    0.0000 O   0  0  0  0  0  0  0  0  0  0  0  0
    4.0668   -1.6308    0.0000 O   0  0  0  0  0  0  0  0  0  0  0  0
    0.4804   -0.9677    0.0000 O   0  0  0  0  0  0  0  0  0  0  0  0
    2.1857    1.6579    0.0000 N   0  0  0  0  0  0  0  0  0  0  0  0
    2.9977   -0.3722    0.0000 N   0  0  0  0  0  0  0  0  0  0  0  0
    0.7917   -2.2263    0.0000 N   0  0  0  0  0  0  0  0  0  0  0  0
   -1.9285   -1.2653    0.0000 N   0  0  0  0  0  0  0  0  0  0  0  0
    2.7406    1.0488    0.0000 C   0  0  0  0  0  0  0  0  0  0  0  0
    3.2954    1.5496    0.0000 C   0  0  0  0  0  0  0  0  0  0  0  0
    3.4308    0.7917    0.0000 C   0  0  0  0  0  0  0  0  0  0  0  0
    2.4564    0.2775    0.0000 C   0  0  0  0  0  0  0  0  0  0  0  0
    1.3601    1.5361    0.0000 C   0  0  0  0  0  0  0  0  0  0  0  0
    2.4564    2.4564    0.0000 C   0  0  0  0  0  0  0  0  0  0  0  0
    2.7134   -1.1300    0.0000 C   0  0  0  0  0  0  0  0  0  0  0  0
    3.2548   -1.7526    0.0000 C   0  0  0  0  0  0  0  0  0  0  0  0
    1.9015   -1.2925    0.0000 C   0  0  0  0  0  0  0  0  0  0  0  0
    0.8188    2.1450    0.0000 C   0  0  0  0  0  0  0  0  0  0  0  0
    1.9150    3.0924    0.0000 C   0  0  0  0  0  0  0  0  0  0  0  0
    1.6173   -2.0638    0.0000 C   0  0  0  0  0  0  0  0  0  0  0  0
    2.9706   -2.5240    0.0000 C   0  0  0  0  0  0  0  0  0  0  0  0
    2.1586   -2.6864    0.0000 C   0  0  0  0  0  0  0  0  0  0  0  0
    0.2368   -1.5767    0.0000 C   0  0  0  0  0  0  0  0  0  0  0  0
   -0.5752   -1.7255    0.0000 C   0  0  0  0  0  0  0  0  0  0  0  0
   -2.2127   -2.0097    0.0000 C   0  0  0  0  0  0  0  0  0  0  0  0
   -1.1165   -1.0894    0.0000 C   0  0  0  0  0  0  0  0  0  0  0  0
   -0.8458   -2.4969    0.0000 C   0  0  0  0  0  0  0  0  0  0  0  0
   -3.0247   -2.1721    0.0000 C   0  0  0  0  0  0  0  0  0  0  0  0
   -1.6714   -2.6458    0.0000 C   0  0  0  0  0  0  0  0  0  0  0  0
    4.6488   -2.2669    0.0000 C   0  0  0  0  0  0  0  0  0  0  0  0
   -3.3089   -2.9300    0.0000 C   0  0  0  0  0  0  0  0  0  0  0  0
   -3.5661   -1.5496    0.0000 C   0  0  0  0  0  0  0  0  0  0  0  0
   -4.1345   -3.0924    0.0000 C   0  0  0  0  0  0  0  0  0  0  0  0
   -4.3646   -1.6849    0.0000 C   0  0  0  0  0  0  0  0  0  0  0  0
   -4.6488   -2.4698    0.0000 C   0  0  0  0  0  0  0  0  0  0  0  0
  1 12  2  0  0  0  0
  2 18  1  0  0  0  0
  2 19  1  0  0  0  0
  3 16  1  0  0  0  0
  3 30  1  0  0  0  0
  4 23  2  0  0  0  0
  5  9  1  0  0  0  0
  5 13  1  0  0  0  0
  5 14  1  0  0  0  0
  6 12  1  0  0  0  0
  6 15  1  0  0  0  0
  7 20  1  0  0  0  0
  7 23  1  0  0  0  0
  8 25  2  0  0  0  0
  8 26  1  0  0  0  0
  9 10  1  0  0  0  0
  9 11  1  0  0  0  0
  9 12  1  0  0  0  0
 10 11  1  0  0  0  0
 13 18  1  0  0  0  0
 14 19  1  0  0  0  0
 15 16  2  0  0  0  0
 15 17  1  0  0  0  0
 16 21  1  0  0  0  0
 17 20  2  0  0  0  0
 20 22  1  0  0  0  0
 21 22  2  0  0  0  0
 23 24  1  0  0  0  0
 24 26  2  0  0  0  0
 24 27  1  0  0  0  0
 25 28  1  0  0  0  0
 25 29  1  0  0  0  0
 27 29  2  0  0  0  0
 28 31  2  0  0  0  0
 28 32  1  0  0  0  0
 31 33  1  0  0  0  0
 32 34  2  0  0  0  0
 33 35  2  0  0  0  0
 34 35  1  0  0  0  0
M  END
> <PUBCHEM_COMPOUND_ID_TYPE>
0

> <PUBCHEM_TOTAL_CHARGE>
0

> <PUBCHEM_SUBSTANCE_ID>
310941704

> <PUBCHEM_SUBSTANCE_VERSION>
1

> <PUBCHEM_EXT_DATASOURCE_NAME>
4488

> <PUBCHEM_EXT_DATASOURCE_REGID>
SCHEMBL16119735

> <PUBCHEM_SUBSTANCE_COMMENT>
InChI=1S/C27H28N4O4/c1-34-24-10-8-21(17-23(24)30-26(33)27(11-12-27)31-13-15-35-16-14-31)29-25(32)20-7-9-22(28-18-20)19-5-3-2-4-6-19/h2-10,17-18H,11-16H2,1H3,(H,29,32)(H,30,33)
InChIKey=WPBHNIQFIGOLKX-UHFFFAOYSA-N

> <PUBCHEM_SUBSTANCE_SYNONYM>
SCHEMBL16119735

> <PUBCHEM_XREF_EXT_ID>
SCHEMBL16119735

> <PUBCHEM_EXT_DATASOURCE_URL>
https://www.surechembl.org/

> <PUBCHEM_EXT_SUBSTANCE_URL>
https://www.surechembl.org/chemical/SCHEMBL16119735

> <PUBCHEM_CID_ASSOCIATIONS>
117608477  1

> <PUBCHEM_COORDINATE_TYPE>
1
3

$$$$
