310938700
  -OEChem-07211613022D

 67 79  0     0  0  0  0  0  0999 V2000
   -5.1022    5.0877    0.0000 N   0  0  0  0  0  0  0  0  0  0  0  0
    3.2874    5.3294    0.0000 N   0  0  0  0  0  0  0  0  0  0  0  0
    4.3673    1.6869    0.0000 N   0  0  0  0  0  0  0  0  0  0  0  0
    4.3673    4.5447    0.0000 N   0  0  0  0  0  0  0  0  0  0  0  0
    3.2874    0.9022    0.0000 N   0  0  0  0  0  0  0  0  0  0  0  0
   -4.2952    5.2592    0.0000 C   0  0  0  0  0  0  0  0  0  0  0  0
   -3.8827    4.5447    0.0000 C   0  0  0  0  0  0  0  0  0  0  0  0
   -5.1884    4.2672    0.0000 C   0  0  0  0  0  0  0  0  0  0  0  0
   -4.4347    3.9316    0.0000 C   0  0  0  0  0  0  0  0  0  0  0  0
    3.5423    4.5447    0.0000 C   0  0  0  0  0  0  0  0  0  0  0  0
    3.5423    1.6869    0.0000 C   0  0  0  0  0  0  0  0  0  0  0  0
    3.1298    3.8303    0.0000 C   0  0  0  0  0  0  0  0  0  0  0  0
    3.1298    2.4013    0.0000 C   0  0  0  0  0  0  0  0  0  0  0  0
    3.9548    5.8143    0.0000 C   0  0  0  0  0  0  0  0  0  0  0  0
    4.6222    0.9022    0.0000 C   0  0  0  0  0  0  0  0  0  0  0  0
    4.6222    5.3294    0.0000 C   0  0  0  0  0  0  0  0  0  0  0  0
    3.9548    0.4173    0.0000 C   0  0  0  0  0  0  0  0  0  0  0  0
   -5.6855    5.6710    0.0000 C   0  0  0  0  0  0  0  0  0  0  0  0
    3.5423    3.1158    0.0000 C   0  0  0  0  0  0  0  0  0  0  0  0
   -3.0577    4.5447    0.0000 C   0  0  0  0  0  0  0  0  0  0  0  0
    1.8923    3.1158    0.0000 C   0  0  0  0  0  0  0  0  0  0  0  0
   -2.6452    5.2592    0.0000 C   0  0  0  0  0  0  0  0  0  0  0  0
   -3.8827    5.9737    0.0000 C   0  0  0  0  0  0  0  0  0  0  0  0
    2.3048    3.8303    0.0000 C   0  0  0  0  0  0  0  0  0  0  0  0
    2.3048    2.4013    0.0000 C   0  0  0  0  0  0  0  0  0  0  0  0
    2.4905    5.5429    0.0000 C   0  0  0  0  0  0  0  0  0  0  0  0
    4.9507    2.2702    0.0000 C   0  0  0  0  0  0  0  0  0  0  0  0
   -5.8558    3.7823    0.0000 C   0  0  0  0  0  0  0  0  0  0  0  0
   -4.3485    3.1112    0.0000 C   0  0  0  0  0  0  0  0  0  0  0  0
   -3.0577    5.9737    0.0000 C   0  0  0  0  0  0  0  0  0  0  0  0
    1.0673    3.1158    0.0000 C   0  0  0  0  0  0  0  0  0  0  0  0
   -1.8202    5.2592    0.0000 C   0  0  0  0  0  0  0  0  0  0  0  0
    4.0410    6.6348    0.0000 C   0  0  0  0  0  0  0  0  0  0  0  0
    5.3759    0.5667    0.0000 C   0  0  0  0  0  0  0  0  0  0  0  0
    5.3759    5.6649    0.0000 C   0  0  0  0  0  0  0  0  0  0  0  0
    4.0410   -0.4032    0.0000 C   0  0  0  0  0  0  0  0  0  0  0  0
   -5.4720    6.4679    0.0000 C   0  0  0  0  0  0  0  0  0  0  0  0
   -6.4824    5.4575    0.0000 C   0  0  0  0  0  0  0  0  0  0  0  0
   -5.7696    2.9618    0.0000 C   0  0  0  0  0  0  0  0  0  0  0  0
   -5.0159    2.6262    0.0000 C   0  0  0  0  0  0  0  0  0  0  0  0
   -0.1702    3.8303    0.0000 C   0  0  0  0  0  0  0  0  0  0  0  0
   -0.5827    4.5447    0.0000 C   0  0  0  0  0  0  0  0  0  0  0  0
    0.6548    3.8303    0.0000 C   0  0  0  0  0  0  0  0  0  0  0  0
   -1.4077    4.5447    0.0000 C   0  0  0  0  0  0  0  0  0  0  0  0
    2.2769    6.3398    0.0000 C   0  0  0  0  0  0  0  0  0  0  0  0
    1.9071    4.9595    0.0000 C   0  0  0  0  0  0  0  0  0  0  0  0
    5.7476    2.0567    0.0000 C   0  0  0  0  0  0  0  0  0  0  0  0
    4.7371    3.0671    0.0000 C   0  0  0  0  0  0  0  0  0  0  0  0
    4.7947    6.9703    0.0000 C   0  0  0  0  0  0  0  0  0  0  0  0
    5.4622   -0.2538    0.0000 C   0  0  0  0  0  0  0  0  0  0  0  0
    0.6548    2.4013    0.0000 C   0  0  0  0  0  0  0  0  0  0  0  0
    5.4622    6.4854    0.0000 C   0  0  0  0  0  0  0  0  0  0  0  0
    4.7947   -0.7387    0.0000 C   0  0  0  0  0  0  0  0  0  0  0  0
   -1.4077    5.9737    0.0000 C   0  0  0  0  0  0  0  0  0  0  0  0
   -0.5827    3.1158    0.0000 C   0  0  0  0  0  0  0  0  0  0  0  0
   -6.0554    7.0513    0.0000 C   0  0  0  0  0  0  0  0  0  0  0  0
   -7.0658    6.0409    0.0000 C   0  0  0  0  0  0  0  0  0  0  0  0
   -0.1702    5.2592    0.0000 C   0  0  0  0  0  0  0  0  0  0  0  0
   -0.1702    2.4013    0.0000 C   0  0  0  0  0  0  0  0  0  0  0  0
   -0.5827    5.9737    0.0000 C   0  0  0  0  0  0  0  0  0  0  0  0
    1.4801    6.5533    0.0000 C   0  0  0  0  0  0  0  0  0  0  0  0
    1.1102    5.1730    0.0000 C   0  0  0  0  0  0  0  0  0  0  0  0
    6.3309    2.6401    0.0000 C   0  0  0  0  0  0  0  0  0  0  0  0
    5.3205    3.6505    0.0000 C   0  0  0  0  0  0  0  0  0  0  0  0
   -6.8523    6.8378    0.0000 C   0  0  0  0  0  0  0  0  0  0  0  0
    0.8967    5.9699    0.0000 C   0  0  0  0  0  0  0  0  0  0  0  0
    6.1174    3.4369    0.0000 C   0  0  0  0  0  0  0  0  0  0  0  0
  1  6  1  0  0  0  0
  1  8  1  0  0  0  0
  1 18  1  0  0  0  0
  2 10  1  0  0  0  0
  2 14  1  0  0  0  0
  2 26  1  0  0  0  0
  3 11  1  0  0  0  0
  3 15  1  0  0  0  0
  3 27  1  0  0  0  0
  4 10  2  0  0  0  0
  4 16  1  0  0  0  0
  5 11  2  0  0  0  0
  5 17  1  0  0  0  0
  6  7  2  0  0  0  0
  6 23  1  0  0  0  0
  7  9  1  0  0  0  0
  7 20  1  0  0  0  0
  8  9  2  0  0  0  0
  8 28  1  0  0  0  0
  9 29  1  0  0  0  0
 10 12  1  0  0  0  0
 11 13  1  0  0  0  0
 12 19  2  0  0  0  0
 12 24  1  0  0  0  0
 13 19  1  0  0  0  0
 13 25  2  0  0  0  0
 14 16  2  0  0  0  0
 14 33  1  0  0  0  0
 15 17  2  0  0  0  0
 15 34  1  0  0  0  0
 16 35  1  0  0  0  0
 17 36  1  0  0  0  0
 18 37  2  0  0  0  0
 18 38  1  0  0  0  0
 20 22  2  0  0  0  0
 21 24  2  0  0  0  0
 21 25  1  0  0  0  0
 21 31  1  0  0  0  0
 22 30  1  0  0  0  0
 22 32  1  0  0  0  0
 23 30  2  0  0  0  0
 26 45  2  0  0  0  0
 26 46  1  0  0  0  0
 27 47  2  0  0  0  0
 27 48  1  0  0  0  0
 28 39  2  0  0  0  0
 29 40  2  0  0  0  0
 31 43  2  0  0  0  0
 31 51  1  0  0  0  0
 32 44  1  0  0  0  0
 32 54  2  0  0  0  0
 33 49  2  0  0  0  0
 34 50  2  0  0  0  0
 35 52  2  0  0  0  0
 36 53  2  0  0  0  0
 37 56  1  0  0  0  0
 38 57  2  0  0  0  0
 39 40  1  0  0  0  0
 41 42  1  0  0  0  0
 41 43  1  0  0  0  0
 41 55  2  0  0  0  0
 42 44  2  0  0  0  0
 42 58  1  0  0  0  0
 45 61  1  0  0  0  0
 46 62  2  0  0  0  0
 47 63  1  0  0  0  0
 48 64  2  0  0  0  0
 49 52  1  0  0  0  0
 50 53  1  0  0  0  0
 51 59  2  0  0  0  0
 54 60  1  0  0  0  0
 55 59  1  0  0  0  0
 56 65  2  0  0  0  0
 57 65  1  0  0  0  0
 58 60  2  0  0  0  0
 61 66  2  0  0  0  0
 62 66  1  0  0  0  0
 63 67  2  0  0  0  0
 64 67  1  0  0  0  0
M  END
> <PUBCHEM_COMPOUND_ID_TYPE>
0

> <PUBCHEM_TOTAL_CHARGE>
0

> <PUBCHEM_SUBSTANCE_ID>
310938700

> <PUBCHEM_SUBSTANCE_VERSION>
1

> <PUBCHEM_EXT_DATASOURCE_NAME>
4488

> <PUBCHEM_EXT_DATASOURCE_REGID>
SCHEMBL16116614

> <PUBCHEM_SUBSTANCE_COMMENT>
InChI=1S/C62H41N5/c1-4-22-50(23-5-1)65-57-31-13-10-28-53(57)54-41-46(34-35-58(54)65)44-20-16-18-42(36-44)43-19-17-21-45(37-43)47-38-48(61-63-55-29-11-14-32-59(55)66(61)51-24-6-2-7-25-51)40-49(39-47)62-64-56-30-12-15-33-60(56)67(62)52-26-8-3-9-27-52/h1-41H
InChIKey=RFBVCPWZHLHBSF-UHFFFAOYSA-N

> <PUBCHEM_SUBSTANCE_SYNONYM>
SCHEMBL16116614

> <PUBCHEM_XREF_EXT_ID>
SCHEMBL16116614

> <PUBCHEM_EXT_DATASOURCE_URL>
https://www.surechembl.org/

> <PUBCHEM_EXT_SUBSTANCE_URL>
https://www.surechembl.org/chemical/SCHEMBL16116614

> <PUBCHEM_CID_ASSOCIATIONS>
117606130  1

> <PUBCHEM_COORDINATE_TYPE>
1
3

$$$$
