310943794
  -OEChem-07211613022D

 24 26  0     1  0  0  0  0  0999 V2000
   -1.9492    1.7227    0.0000 O   0  0  0  0  0  0  0  0  0  0  0  0
   -0.7687   -1.7913    0.0000 N   0  0  0  0  0  0  0  0  0  0  0  0
   -0.0824   -2.2305    0.0000 N   0  0  0  0  0  0  0  0  0  0  0  0
    1.5236   -0.2677    0.0000 N   0  0  3  0  0  0  0  0  0  0  0  0
    3.2257    1.0912    0.0000 N   0  0  0  0  0  0  0  0  0  0  0  0
   -2.1551    0.9266    0.0000 C   0  0  0  0  0  0  0  0  0  0  0  0
   -3.2806    1.6403    0.0000 C   0  0  0  0  0  0  0  0  0  0  0  0
   -1.0844   -0.3500    0.0000 C   0  0  0  0  0  0  0  0  0  0  0  0
   -2.9649    0.8716    0.0000 C   0  0  0  0  0  0  0  0  0  0  0  0
   -0.5490   -1.0088    0.0000 C   0  0  0  0  0  0  0  0  0  0  0  0
   -2.4158    0.1441    0.0000 C   0  0  0  0  0  0  0  0  0  0  0  0
   -1.3177    1.0500    0.0000 C   0  0  0  0  0  0  0  0  0  0  0  0
    0.2608   -0.9402    0.0000 C   0  0  0  0  0  0  0  0  0  0  0  0
   -2.6629    2.1619    0.0000 C   0  0  0  0  0  0  0  0  0  0  0  0
   -1.9080   -0.4736    0.0000 C   0  0  0  0  0  0  0  0  0  0  0  0
   -0.8099    0.4324    0.0000 C   0  0  0  0  0  0  0  0  0  0  0  0
    0.5490   -1.6952    0.0000 C   0  0  0  0  0  0  0  0  0  0  0  0
    0.7001   -0.2402    0.0000 C   0  0  0  0  0  0  0  0  0  0  0  0
   -4.0767    1.3932    0.0000 C   0  0  0  0  0  0  0  0  0  0  0  0
   -3.8570    2.2305    0.0000 C   0  0  0  0  0  0  0  0  0  0  0  0
    1.9766    0.4324    0.0000 C   0  0  0  0  0  0  0  0  0  0  0  0
    1.9216   -1.0226    0.0000 C   0  0  0  0  0  0  0  0  0  0  0  0
    2.7864    0.3912    0.0000 C   0  0  0  0  0  0  0  0  0  0  0  0
    4.0767    1.0500    0.0000 C   0  0  0  0  0  0  0  0  0  0  0  0
  6  1  1  1  0  0  0
  1 14  1  0  0  0  0
  2  3  1  0  0  0  0
  2 10  2  0  0  0  0
  3 17  1  0  0  0  0
  4 18  1  0  0  0  0
  4 21  1  0  0  0  0
  4 22  1  0  0  0  0
  5 23  1  0  0  0  0
  5 24  1  0  0  0  0
  6  9  1  0  0  0  0
  6 11  1  0  0  0  0
  6 12  1  0  0  0  0
  7  9  1  0  0  0  0
  7 14  1  0  0  0  0
  7 19  1  0  0  0  0
  7 20  1  0  0  0  0
  8 10  1  1  0  0  0
  8 15  1  0  0  0  0
  8 16  1  0  0  0  0
 10 13  1  0  0  0  0
 11 15  1  0  0  0  0
 12 16  1  0  0  0  0
 13 17  2  0  0  0  0
 13 18  1  0  0  0  0
 21 23  1  0  0  0  0
M  END
> <PUBCHEM_COMPOUND_ID_TYPE>
0

> <PUBCHEM_TOTAL_CHARGE>
0

> <PUBCHEM_SUBSTANCE_ID>
310943794

> <PUBCHEM_SUBSTANCE_VERSION>
1

> <PUBCHEM_EXT_DATASOURCE_NAME>
4488

> <PUBCHEM_EXT_DATASOURCE_REGID>
SCHEMBL16121864

> <PUBCHEM_SUBSTANCE_COMMENT>
InChI=1S/C19H34N4O/c1-18(2)13-19(24-14-18)7-5-15(6-8-19)17-16(11-21-22-17)12-23(4)10-9-20-3/h11,15,20H,5-10,12-14H2,1-4H3,(H,21,22)/t15-,19+
InChIKey=YHQXJYOLULPBBH-GLRZTSSQSA-N

> <PUBCHEM_SUBSTANCE_SYNONYM>
SCHEMBL16121864

> <PUBCHEM_XREF_EXT_ID>
SCHEMBL16121864

> <PUBCHEM_EXT_DATASOURCE_URL>
https://www.surechembl.org/

> <PUBCHEM_EXT_SUBSTANCE_URL>
https://www.surechembl.org/chemical/SCHEMBL16121864

> <PUBCHEM_CID_ASSOCIATIONS>
90460169  1

> <PUBCHEM_COORDINATE_TYPE>
1
3

> <PUBCHEM_BONDANNOTATIONS>
6  1  5
8  10  5

$$$$
