310938308
  -OEChem-07211613022D

 15 16  0     0  0  0  0  0  0999 V2000
    0.0000    0.0000    0.0000 Br  0  0  0  0  0  0  0  0  0  0  0  0
    2.0832   -2.8876    0.0000 O   0  0  0  0  0  0  0  0  0  0  0  0
    0.6600   -2.8670    0.0000 O   0  0  0  0  0  0  0  0  0  0  0  0
    0.7013   -1.2582    0.0000 N   0  0  0  0  0  0  0  0  0  0  0  0
    1.3819   -0.0206    0.0000 N   0  0  0  0  0  0  0  0  0  0  0  0
    2.1038   -1.2582    0.0000 C   0  0  0  0  0  0  0  0  0  0  0  0
    1.3819   -1.6501    0.0000 C   0  0  0  0  0  0  0  0  0  0  0  0
    2.1038   -0.4125    0.0000 C   0  0  0  0  0  0  0  0  0  0  0  0
    1.3819   -2.4751    0.0000 C   0  0  0  0  0  0  0  0  0  0  0  0
    0.7013   -0.4125    0.0000 C   0  0  0  0  0  0  0  0  0  0  0  0
    2.8876   -1.5057    0.0000 C   0  0  0  0  0  0  0  0  0  0  0  0
    2.8876   -0.1856    0.0000 C   0  0  0  0  0  0  0  0  0  0  0  0
    3.3826   -0.8457    0.0000 C   0  0  0  0  0  0  0  0  0  0  0  0
    2.0832   -3.7126    0.0000 C   0  0  0  0  0  0  0  0  0  0  0  0
    2.8051   -4.1251    0.0000 C   0  0  0  0  0  0  0  0  0  0  0  0
  1 10  1  0  0  0  0
  2  9  1  0  0  0  0
  2 14  1  0  0  0  0
  3  9  2  0  0  0  0
  4  7  1  0  0  0  0
  4 10  2  0  0  0  0
  5  8  2  0  0  0  0
  5 10  1  0  0  0  0
  6  7  2  0  0  0  0
  6  8  1  0  0  0  0
  6 11  1  0  0  0  0
  7  9  1  0  0  0  0
  8 12  1  0  0  0  0
 11 13  1  0  0  0  0
 12 13  1  0  0  0  0
 14 15  1  0  0  0  0
M  END
> <PUBCHEM_COMPOUND_ID_TYPE>
0

> <PUBCHEM_TOTAL_CHARGE>
0

> <PUBCHEM_SUBSTANCE_ID>
310938308

> <PUBCHEM_SUBSTANCE_VERSION>
1

> <PUBCHEM_EXT_DATASOURCE_NAME>
4488

> <PUBCHEM_EXT_DATASOURCE_REGID>
SCHEMBL16116183

> <PUBCHEM_SUBSTANCE_COMMENT>
InChI=1S/C10H11BrN2O2/c1-2-15-9(14)8-6-4-3-5-7(6)12-10(11)13-8/h2-5H2,1H3
InChIKey=HYSXAFKZXAORPT-UHFFFAOYSA-N

> <PUBCHEM_SUBSTANCE_SYNONYM>
SCHEMBL16116183

> <PUBCHEM_XREF_EXT_ID>
SCHEMBL16116183

> <PUBCHEM_EXT_DATASOURCE_URL>
https://www.surechembl.org/

> <PUBCHEM_EXT_SUBSTANCE_URL>
https://www.surechembl.org/chemical/SCHEMBL16116183

> <PUBCHEM_CID_ASSOCIATIONS>
117605808  1

> <PUBCHEM_COORDINATE_TYPE>
1
3

$$$$
