310940256
  -OEChem-07211613022D

 39 42  0     1  0  0  0  0  0999 V2000
    4.7313   -0.3548    0.0000 Cl  0  0  0  0  0  0  0  0  0  0  0  0
    2.1028   -1.7742    0.0000 Cl  0  0  0  0  0  0  0  0  0  0  0  0
    5.5987   -1.7480    0.0000 F   0  0  0  0  0  0  0  0  0  0  0  0
    3.4960    0.3548    0.0000 O   0  0  0  0  0  0  0  0  0  0  0  0
   -2.4708   -1.8531    0.0000 O   0  0  0  0  0  0  0  0  0  0  0  0
   -4.1793    1.5377    0.0000 O   0  0  0  0  0  0  0  0  0  0  0  0
   -0.3154    1.2748    0.0000 N   0  0  0  0  0  0  0  0  0  0  0  0
   -0.3943    2.0634    0.0000 N   0  0  0  0  0  0  0  0  0  0  0  0
    3.0754    2.4839    0.0000 N   0  0  0  0  0  0  0  0  0  0  0  0
   -2.1028   -0.4863    0.0000 N   0  0  0  0  0  0  0  0  0  0  0  0
    4.3107    1.7742    0.0000 N   0  0  0  0  0  0  0  0  0  0  0  0
   -4.1004   -1.4325    0.0000 N   0  0  0  0  0  0  0  0  0  0  0  0
   -5.5987    1.1697    0.0000 N   0  0  0  0  0  0  0  0  0  0  0  0
    0.9462    1.7742    0.0000 C   0  0  0  0  0  0  0  0  0  0  0  0
    3.4697   -1.0645    0.0000 C   0  0  0  0  0  0  0  0  0  0  0  0
    1.8137    1.7480    0.0000 C   0  0  0  0  0  0  0  0  0  0  0  0
    3.0491    1.0645    0.0000 C   0  0  0  0  0  0  0  0  0  0  0  0
    3.0491   -0.3548    0.0000 C   0  0  3  0  0  0  0  0  0  0  0  0
    4.3370   -1.0908    0.0000 C   0  0  0  0  0  0  0  0  0  0  0  0
    2.2079    1.0908    0.0000 C   0  0  0  0  0  0  0  0  0  0  0  0
    0.4994    1.0645    0.0000 C   0  0  0  0  0  0  0  0  0  0  0  0
   -0.8936    0.6703    0.0000 C   0  0  0  0  0  0  0  0  0  0  0  0
    3.0754   -1.7742    0.0000 C   0  0  0  0  0  0  0  0  0  0  0  0
    3.4697    1.8006    0.0000 C   0  0  0  0  0  0  0  0  0  0  0  0
    0.3943    2.3262    0.0000 C   0  0  0  0  0  0  0  0  0  0  0  0
    4.7050   -1.7742    0.0000 C   0  0  0  0  0  0  0  0  0  0  0  0
    2.2342    2.4576    0.0000 C   0  0  0  0  0  0  0  0  0  0  0  0
    3.4960   -2.4839    0.0000 C   0  0  0  0  0  0  0  0  0  0  0  0
   -0.7098   -0.1446    0.0000 C   0  0  0  0  0  0  0  0  0  0  0  0
   -1.7348    0.8805    0.0000 C   0  0  0  0  0  0  0  0  0  0  0  0
    4.3370   -2.4576    0.0000 C   0  0  0  0  0  0  0  0  0  0  0  0
   -1.2879   -0.6966    0.0000 C   0  0  0  0  0  0  0  0  0  0  0  0
   -2.3130    0.3023    0.0000 C   0  0  0  0  0  0  0  0  0  0  0  0
   -2.7073   -1.0382    0.0000 C   0  0  0  0  0  0  0  0  0  0  0  0
    2.2604   -0.3548    0.0000 C   0  0  0  0  0  0  0  0  0  0  0  0
   -3.5222   -0.8542    0.0000 C   0  0  3  0  0  0  0  0  0  0  0  0
   -3.7324   -0.0920    0.0000 C   0  0  0  0  0  0  0  0  0  0  0  0
   -4.5211    0.1446    0.0000 C   0  0  0  0  0  0  0  0  0  0  0  0
   -4.7839    0.9068    0.0000 C   0  0  0  0  0  0  0  0  0  0  0  0
  1 19  1  0  0  0  0
  2 23  1  0  0  0  0
  3 26  1  0  0  0  0
  4 17  1  0  0  0  0
  4 18  1  0  0  0  0
  5 34  2  0  0  0  0
  6 39  2  0  0  0  0
  7  8  1  0  0  0  0
  7 21  1  0  0  0  0
  7 22  1  0  0  0  0
  8 25  2  0  0  0  0
  9 24  1  0  0  0  0
  9 27  2  0  0  0  0
 10 32  1  0  0  0  0
 10 33  1  0  0  0  0
 10 34  1  0  0  0  0
 11 24  1  0  0  0  0
 36 12  1  1  0  0  0
 13 39  1  0  0  0  0
 14 16  1  0  0  0  0
 14 21  2  0  0  0  0
 14 25  1  0  0  0  0
 15 18  1  0  0  0  0
 15 19  2  0  0  0  0
 15 23  1  0  0  0  0
 16 20  2  0  0  0  0
 16 27  1  0  0  0  0
 17 20  1  0  0  0  0
 17 24  2  0  0  0  0
 18 35  1  1  0  0  0
 19 26  1  0  0  0  0
 22 29  1  0  0  0  0
 22 30  1  0  0  0  0
 23 28  2  0  0  0  0
 26 31  2  0  0  0  0
 28 31  1  0  0  0  0
 29 32  1  0  0  0  0
 30 33  1  0  0  0  0
 34 36  1  0  0  0  0
 36 37  1  0  0  0  0
 37 38  1  0  0  0  0
 38 39  1  0  0  0  0
M  END
> <PUBCHEM_COMPOUND_ID_TYPE>
0

> <PUBCHEM_TOTAL_CHARGE>
0

> <PUBCHEM_SUBSTANCE_ID>
310940256

> <PUBCHEM_SUBSTANCE_VERSION>
1

> <PUBCHEM_EXT_DATASOURCE_NAME>
4488

> <PUBCHEM_EXT_DATASOURCE_REGID>
SCHEMBL16118198

> <PUBCHEM_SUBSTANCE_COMMENT>
InChI=1S/C26H30Cl2FN7O3/c1-14(23-18(27)2-3-19(29)24(23)28)39-21-10-15(11-33-25(21)32)16-12-34-36(13-16)17-6-8-35(9-7-17)26(38)20(30)4-5-22(31)37/h2-3,10-14,17,20H,4-9,30H2,1H3,(H2,31,37)(H2,32,33)/t14-,20+/m1/s1
InChIKey=FRECKLOBGSAHPE-VLIAUNLRSA-N

> <PUBCHEM_SUBSTANCE_SYNONYM>
SCHEMBL16118198

> <PUBCHEM_XREF_EXT_ID>
SCHEMBL16118198

> <PUBCHEM_EXT_DATASOURCE_URL>
https://www.surechembl.org/

> <PUBCHEM_EXT_SUBSTANCE_URL>
https://www.surechembl.org/chemical/SCHEMBL16118198

> <PUBCHEM_CID_ASSOCIATIONS>
117607345  1

> <PUBCHEM_COORDINATE_TYPE>
1
3

> <PUBCHEM_BONDANNOTATIONS>
36  12  5
18  35  5

$$$$
