310947525
  -OEChem-07211613022D

 14 15  0     1  0  0  0  0  0999 V2000
   -7.3089    4.1598    0.0000 O   0  0  0  0  0  0  0  0  0  0  0  0
   -6.8964    5.4294    0.0000 O   0  0  0  0  0  0  0  0  0  0  0  0
   -8.3888    5.9143    0.0000 O   0  0  0  0  0  0  0  0  0  0  0  0
  -10.4365    5.0595    0.0000 O   0  0  0  0  0  0  0  0  0  0  0  0
   -7.9763    4.6448    0.0000 C   0  0  3  0  0  0  0  0  0  0  0  0
   -7.7214    5.4294    0.0000 C   0  0  3  0  0  0  0  0  0  0  0  0
   -8.8013    4.6448    0.0000 C   0  0  3  0  0  0  0  0  0  0  0  0
   -6.6414    4.6448    0.0000 C   0  0  0  0  0  0  0  0  0  0  0  0
   -9.0563    5.4294    0.0000 C   0  0  3  0  0  0  0  0  0  0  0  0
   -7.2619    5.0573    0.0000 C   0  0  0  0  0  0  0  0  0  0  0  0
   -9.2138    3.9303    0.0000 C   0  0  0  0  0  0  0  0  0  0  0  0
   -9.8532    5.6429    0.0000 C   0  0  0  0  0  0  0  0  0  0  0  0
   -6.2289    3.9303    0.0000 C   0  0  0  0  0  0  0  0  0  0  0  0
   -5.9270    5.0573    0.0000 C   0  0  0  0  0  0  0  0  0  0  0  0
  1  5  1  0  0  0  0
  1  8  1  0  0  0  0
  2  6  1  0  0  0  0
  2  8  1  0  0  0  0
  6  3  1  6  0  0  0
  3  9  1  0  0  0  0
  4 12  1  0  0  0  0
  5  6  1  0  0  0  0
  5  7  1  0  0  0  0
  5 10  1  1  0  0  0
  7  9  1  0  0  0  0
  7 11  1  6  0  0  0
  8 13  1  0  0  0  0
  8 14  1  0  0  0  0
  9 12  1  1  0  0  0
M  END
> <PUBCHEM_COMPOUND_ID_TYPE>
0

> <PUBCHEM_TOTAL_CHARGE>
0

> <PUBCHEM_SUBSTANCE_ID>
310947525

> <PUBCHEM_SUBSTANCE_VERSION>
1

> <PUBCHEM_EXT_DATASOURCE_NAME>
4488

> <PUBCHEM_EXT_DATASOURCE_REGID>
SCHEMBL16125687

> <PUBCHEM_SUBSTANCE_COMMENT>
InChI=1S/C10H18O4/c1-6-7(5-11)12-8-10(6,4)14-9(2,3)13-8/h6-8,11H,5H2,1-4H3/t6-,7-,8-,10-/m1/s1
InChIKey=NJQNDVRPZVSCPU-FDDDBJFASA-N

> <PUBCHEM_SUBSTANCE_SYNONYM>
SCHEMBL16125687

> <PUBCHEM_XREF_EXT_ID>
SCHEMBL16125687

> <PUBCHEM_EXT_DATASOURCE_URL>
https://www.surechembl.org/

> <PUBCHEM_EXT_SUBSTANCE_URL>
https://www.surechembl.org/chemical/SCHEMBL16125687

> <PUBCHEM_CID_ASSOCIATIONS>
117613247  1

> <PUBCHEM_COORDINATE_TYPE>
1
3

> <PUBCHEM_BONDANNOTATIONS>
6  3  6
5  10  5
7  11  6
9  12  5

$$$$
