310944426
  -OEChem-07211613022D

 18 20  0     1  0  0  0  0  0999 V2000
    1.4603    0.5823    0.0000 O   0  0  0  0  0  0  0  0  0  0  0  0
   -3.6820   -0.5465    0.0000 O   0  0  0  0  0  0  0  0  0  0  0  0
   -0.7974   -0.7077    0.0000 N   0  0  0  0  0  0  0  0  0  0  0  0
    0.0090   -1.0840    0.0000 C   0  0  3  0  0  0  0  0  0  0  0  0
   -0.7436    0.1881    0.0000 C   0  0  3  0  0  0  0  0  0  0  0  0
    0.7077    0.1702    0.0000 C   0  0  0  0  0  0  0  0  0  0  0  0
   -0.0448    0.5823    0.0000 C   0  0  0  0  0  0  0  0  0  0  0  0
    0.6898   -0.7077    0.0000 C   0  0  0  0  0  0  0  0  0  0  0  0
    0.3852   -0.3852    0.0000 C   0  0  0  0  0  0  0  0  0  0  0  0
    0.0806    0.1523    0.0000 C   0  0  0  0  0  0  0  0  0  0  0  0
   -1.5499   -1.1378    0.0000 C   0  0  0  0  0  0  0  0  0  0  0  0
    2.8399    0.4389    0.0000 C   0  0  0  0  0  0  0  0  0  0  0  0
   -2.3024   -0.7077    0.0000 C   0  0  3  0  0  0  0  0  0  0  0  0
    2.0874   -0.0090    0.0000 C   0  0  0  0  0  0  0  0  0  0  0  0
    3.2520    1.1378    0.0000 C   0  0  0  0  0  0  0  0  0  0  0  0
    3.6820    0.4389    0.0000 C   0  0  0  0  0  0  0  0  0  0  0  0
   -3.0549   -1.1378    0.0000 C   0  0  0  0  0  0  0  0  0  0  0  0
   -2.3203    0.1165    0.0000 C   0  0  0  0  0  0  0  0  0  0  0  0
  6  1  1  1  0  0  0
  1 14  1  0  0  0  0
  2 17  1  0  0  0  0
  4  3  1  6  0  0  0
  5  3  1  6  0  0  0
  3 11  1  0  0  0  0
  4  8  1  0  0  0  0
  4  9  1  0  0  0  0
  5  7  1  0  0  0  0
  5 10  1  0  0  0  0
  6  7  1  0  0  0  0
  6  8  1  0  0  0  0
  9 10  1  0  0  0  0
 11 13  1  0  0  0  0
 12 14  1  0  0  0  0
 12 15  1  0  0  0  0
 12 16  1  0  0  0  0
 13 17  1  0  0  0  0
 13 18  1  6  0  0  0
 15 16  1  0  0  0  0
M  END
> <PUBCHEM_COMPOUND_ID_TYPE>
0

> <PUBCHEM_TOTAL_CHARGE>
0

> <PUBCHEM_SUBSTANCE_ID>
310944426

> <PUBCHEM_SUBSTANCE_VERSION>
1

> <PUBCHEM_EXT_DATASOURCE_NAME>
4488

> <PUBCHEM_EXT_DATASOURCE_REGID>
SCHEMBL16122501

> <PUBCHEM_SUBSTANCE_COMMENT>
InChI=1S/C15H27NO2/c1-11(9-17)8-16-13-4-5-14(16)7-15(6-13)18-10-12-2-3-12/h11-15,17H,2-10H2,1H3/t11-,13-,14+,15+/m1/s1
InChIKey=VPPLGIYUYGYGDF-RZFFKMDDSA-N

> <PUBCHEM_SUBSTANCE_SYNONYM>
SCHEMBL16122501

> <PUBCHEM_XREF_EXT_ID>
SCHEMBL16122501

> <PUBCHEM_EXT_DATASOURCE_URL>
https://www.surechembl.org/

> <PUBCHEM_EXT_SUBSTANCE_URL>
https://www.surechembl.org/chemical/SCHEMBL16122501

> <PUBCHEM_CID_ASSOCIATIONS>
117610680  1

> <PUBCHEM_COORDINATE_TYPE>
1
3

> <PUBCHEM_BONDANNOTATIONS>
6  1  5
13  18  6
4  3  6
5  3  6

$$$$
