310933378
  -OEChem-07211613022D

 36 39  0     0  0  0  0  0  0999 V2000
    2.6798    0.0000    0.0000 F   0  0  0  0  0  0  0  0  0  0  0  0
    1.2914   -2.4860    0.0000 F   0  0  0  0  0  0  0  0  0  0  0  0
    5.5210   -3.2932    0.0000 O   0  0  0  0  0  0  0  0  0  0  0  0
    5.2626   -4.9075    0.0000 O   0  0  0  0  0  0  0  0  0  0  0  0
    3.3901   -1.2269    0.0000 O   0  0  0  0  0  0  0  0  0  0  0  0
    0.0000   -4.4232    0.0000 O   0  0  0  0  0  0  0  0  0  0  0  0
    3.9066   -5.3595    0.0000 O   0  0  0  0  0  0  0  0  0  0  0  0
    4.1972   -3.9389    0.0000 N   0  0  0  0  0  0  0  0  0  0  0  0
    4.1972   -2.6474    0.0000 N   0  0  0  0  0  0  0  0  0  0  0  0
    0.4197   -5.1335    0.0000 N   0  0  0  0  0  0  0  0  0  0  0  0
    3.4223   -3.7129    0.0000 C   0  0  0  0  0  0  0  0  0  0  0  0
    3.4223   -2.8734    0.0000 C   0  0  0  0  0  0  0  0  0  0  0  0
    2.7120   -2.4860    0.0000 C   0  0  0  0  0  0  0  0  0  0  0  0
    4.7138   -3.2932    0.0000 C   0  0  0  0  0  0  0  0  0  0  0  0
    2.0018   -3.7129    0.0000 C   0  0  0  0  0  0  0  0  0  0  0  0
    2.7120   -4.1326    0.0000 C   0  0  0  0  0  0  0  0  0  0  0  0
    2.0018   -2.8734    0.0000 C   0  0  0  0  0  0  0  0  0  0  0  0
    2.6798   -1.6466    0.0000 C   0  0  0  0  0  0  0  0  0  0  0  0
    1.2914   -4.1326    0.0000 C   0  0  0  0  0  0  0  0  0  0  0  0
    4.4555   -4.7461    0.0000 C   0  0  0  0  0  0  0  0  0  0  0  0
    1.9694   -1.2269    0.0000 C   0  0  0  0  0  0  0  0  0  0  0  0
    0.5489   -3.8098    0.0000 C   0  0  0  0  0  0  0  0  0  0  0  0
    1.2269   -4.9398    0.0000 C   0  0  0  0  0  0  0  0  0  0  0  0
    1.9694   -0.4197    0.0000 C   0  0  0  0  0  0  0  0  0  0  0  0
    1.2592   -1.6466    0.0000 C   0  0  0  0  0  0  0  0  0  0  0  0
    5.5210   -5.6824    0.0000 C   0  0  0  0  0  0  0  0  0  0  0  0
    1.2592    0.0000    0.0000 C   0  0  0  0  0  0  0  0  0  0  0  0
    0.5489   -1.2592    0.0000 C   0  0  0  0  0  0  0  0  0  0  0  0
    5.9406   -2.5829    0.0000 C   0  0  0  0  0  0  0  0  0  0  0  0
    0.3551   -3.0026    0.0000 C   0  0  0  0  0  0  0  0  0  0  0  0
    1.8403   -5.4886    0.0000 C   0  0  0  0  0  0  0  0  0  0  0  0
    0.5489   -0.4197    0.0000 C   0  0  0  0  0  0  0  0  0  0  0  0
    4.7138   -5.9406    0.0000 C   0  0  0  0  0  0  0  0  0  0  0  0
    5.7792   -6.4572    0.0000 C   0  0  0  0  0  0  0  0  0  0  0  0
    6.2958   -5.4241    0.0000 C   0  0  0  0  0  0  0  0  0  0  0  0
    5.5210   -1.8726    0.0000 C   0  0  0  0  0  0  0  0  0  0  0  0
  1 24  1  0  0  0  0
  2 25  1  0  0  0  0
  3 14  1  0  0  0  0
  3 29  1  0  0  0  0
  4 20  1  0  0  0  0
  4 26  1  0  0  0  0
  5 18  2  0  0  0  0
  6 10  1  0  0  0  0
  6 22  1  0  0  0  0
  7 20  2  0  0  0  0
  8 11  1  0  0  0  0
  8 14  1  0  0  0  0
  8 20  1  0  0  0  0
  9 12  1  0  0  0  0
  9 14  2  0  0  0  0
 10 23  2  0  0  0  0
 11 12  2  0  0  0  0
 11 16  1  0  0  0  0
 12 13  1  0  0  0  0
 13 17  2  0  0  0  0
 13 18  1  0  0  0  0
 15 16  2  0  0  0  0
 15 17  1  0  0  0  0
 15 19  1  0  0  0  0
 18 21  1  0  0  0  0
 19 22  2  0  0  0  0
 19 23  1  0  0  0  0
 21 24  2  0  0  0  0
 21 25  1  0  0  0  0
 22 30  1  0  0  0  0
 23 31  1  0  0  0  0
 24 27  1  0  0  0  0
 25 28  2  0  0  0  0
 26 33  1  0  0  0  0
 26 34  1  0  0  0  0
 26 35  1  0  0  0  0
 27 32  2  0  0  0  0
 28 32  1  0  0  0  0
 29 36  1  0  0  0  0
M  END
> <PUBCHEM_COMPOUND_ID_TYPE>
0

> <PUBCHEM_TOTAL_CHARGE>
0

> <PUBCHEM_SUBSTANCE_ID>
310933378

> <PUBCHEM_SUBSTANCE_VERSION>
1

> <PUBCHEM_EXT_DATASOURCE_NAME>
4488

> <PUBCHEM_EXT_DATASOURCE_REGID>
SCHEMBL16110794

> <PUBCHEM_SUBSTANCE_COMMENT>
InChI=1S/C26H25F2N3O5/c1-7-34-24-29-22-16(23(32)21-17(27)9-8-10-18(21)28)11-15(20-13(2)30-36-14(20)3)12-19(22)31(24)25(33)35-26(4,5)6/h8-12H,7H2,1-6H3
InChIKey=GCQUDOJDROTMSI-UHFFFAOYSA-N

> <PUBCHEM_SUBSTANCE_SYNONYM>
SCHEMBL16110794

> <PUBCHEM_XREF_EXT_ID>
SCHEMBL16110794

> <PUBCHEM_EXT_DATASOURCE_URL>
https://www.surechembl.org/

> <PUBCHEM_EXT_SUBSTANCE_URL>
https://www.surechembl.org/chemical/SCHEMBL16110794

> <PUBCHEM_CID_ASSOCIATIONS>
117601789  1

> <PUBCHEM_COORDINATE_TYPE>
1
3

$$$$
