310948059
  -OEChem-07211613022D

 22 23  0     0  0  0  0  0  0999 V2000
    3.7268   -0.1638    0.0000 Br  0  0  0  0  0  0  0  0  0  0  0  0
   -3.0224   -1.2123    0.0000 O   0  0  0  0  0  0  0  0  0  0  0  0
   -2.4327    0.0819    0.0000 O   0  0  0  0  0  0  0  0  0  0  0  0
    1.7938    1.8348    0.0000 O   0  0  0  0  0  0  0  0  0  0  0  0
   -0.1065    0.4914    0.0000 N   0  0  0  0  0  0  0  0  0  0  0  0
   -0.9091    0.2457    0.0000 N   0  0  0  0  0  0  0  0  0  0  0  0
   -0.9091   -0.5733    0.0000 C   0  0  0  0  0  0  0  0  0  0  0  0
    0.3850   -0.1474    0.0000 C   0  0  0  0  0  0  0  0  0  0  0  0
   -1.5644   -1.0648    0.0000 C   0  0  0  0  0  0  0  0  0  0  0  0
    1.2204   -0.1474    0.0000 C   0  0  0  0  0  0  0  0  0  0  0  0
   -0.1065   -0.8190    0.0000 C   0  0  0  0  0  0  0  0  0  0  0  0
    1.6300    0.5570    0.0000 C   0  0  0  0  0  0  0  0  0  0  0  0
   -2.3343   -0.7372    0.0000 C   0  0  0  0  0  0  0  0  0  0  0  0
    1.6463   -0.8682    0.0000 C   0  0  0  0  0  0  0  0  0  0  0  0
    2.4818    0.5406    0.0000 C   0  0  0  0  0  0  0  0  0  0  0  0
   -1.0730   -1.7037    0.0000 C   0  0  0  0  0  0  0  0  0  0  0  0
   -1.8920   -1.8348    0.0000 C   0  0  0  0  0  0  0  0  0  0  0  0
    2.8749   -0.1638    0.0000 C   0  0  0  0  0  0  0  0  0  0  0  0
    2.4654   -0.8682    0.0000 C   0  0  0  0  0  0  0  0  0  0  0  0
    0.1393    1.2941    0.0000 C   0  0  0  0  0  0  0  0  0  0  0  0
    1.2204    1.2614    0.0000 C   0  0  0  0  0  0  0  0  0  0  0  0
   -3.7268   -0.8846    0.0000 C   0  0  0  0  0  0  0  0  0  0  0  0
  1 18  1  0  0  0  0
  2 13  1  0  0  0  0
  2 22  1  0  0  0  0
  3 13  2  0  0  0  0
  4 21  1  0  0  0  0
  5  6  1  0  0  0  0
  5  8  1  0  0  0  0
  5 20  1  0  0  0  0
  6  7  2  0  0  0  0
  7  9  1  0  0  0  0
  7 11  1  0  0  0  0
  8 10  1  0  0  0  0
  8 11  2  0  0  0  0
  9 13  1  0  0  0  0
  9 16  1  0  0  0  0
  9 17  1  0  0  0  0
 10 12  1  0  0  0  0
 10 14  2  0  0  0  0
 12 15  2  0  0  0  0
 12 21  1  0  0  0  0
 14 19  1  0  0  0  0
 15 18  1  0  0  0  0
 18 19  2  0  0  0  0
M  END
> <PUBCHEM_COMPOUND_ID_TYPE>
0

> <PUBCHEM_TOTAL_CHARGE>
0

> <PUBCHEM_SUBSTANCE_ID>
310948059

> <PUBCHEM_SUBSTANCE_VERSION>
1

> <PUBCHEM_EXT_DATASOURCE_NAME>
4488

> <PUBCHEM_EXT_DATASOURCE_REGID>
SCHEMBL16126234

> <PUBCHEM_SUBSTANCE_COMMENT>
InChI=1S/C16H19BrN2O3/c1-16(2,15(21)22-4)14-8-13(19(3)18-14)12-6-5-11(17)7-10(12)9-20/h5-8,20H,9H2,1-4H3
InChIKey=DOVNFHTVBDIUQP-UHFFFAOYSA-N

> <PUBCHEM_SUBSTANCE_SYNONYM>
SCHEMBL16126234

> <PUBCHEM_XREF_EXT_ID>
SCHEMBL16126234

> <PUBCHEM_EXT_DATASOURCE_URL>
https://www.surechembl.org/

> <PUBCHEM_EXT_SUBSTANCE_URL>
https://www.surechembl.org/chemical/SCHEMBL16126234

> <PUBCHEM_CID_ASSOCIATIONS>
117613684  1

> <PUBCHEM_COORDINATE_TYPE>
1
3

$$$$
