310944712
  -OEChem-07211613022D

 27 29  0     0  0  0  0  0  0999 V2000
    3.7366   -2.2974    0.0000 F   0  0  0  0  0  0  0  0  0  0  0  0
    4.0227   -1.1532    0.0000 F   0  0  0  0  0  0  0  0  0  0  0  0
    2.6460   -1.9577    0.0000 F   0  0  0  0  0  0  0  0  0  0  0  0
    0.3576    0.5989    0.0000 O   0  0  0  0  0  0  0  0  0  0  0  0
   -2.5388    2.2974    0.0000 O   0  0  0  0  0  0  0  0  0  0  0  0
   -4.0227   -0.2593    0.0000 O   0  0  0  0  0  0  0  0  0  0  0  0
    2.9142   -0.8671    0.0000 O   0  0  0  0  0  0  0  0  0  0  0  0
   -2.5388   -0.2414    0.0000 N   0  0  0  0  0  0  0  0  0  0  0  0
   -3.2718    1.0280    0.0000 N   0  0  0  0  0  0  0  0  0  0  0  0
   -0.9833   -0.0805    0.0000 N   0  0  0  0  0  0  0  0  0  0  0  0
   -1.8058    0.2056    0.0000 C   0  0  0  0  0  0  0  0  0  0  0  0
   -1.7879    1.0280    0.0000 C   0  0  0  0  0  0  0  0  0  0  0  0
   -2.5566    1.4392    0.0000 C   0  0  0  0  0  0  0  0  0  0  0  0
   -3.2718    0.2056    0.0000 C   0  0  0  0  0  0  0  0  0  0  0  0
   -0.5006    0.6168    0.0000 C   0  0  0  0  0  0  0  0  0  0  0  0
   -1.2515    1.1889    0.0000 C   0  0  0  0  0  0  0  0  0  0  0  0
    0.7867   -0.1162    0.0000 C   0  0  0  0  0  0  0  0  0  0  0  0
   -0.8403    1.1174    0.0000 C   0  0  0  0  0  0  0  0  0  0  0  0
   -0.8582    1.7610    0.0000 C   0  0  0  0  0  0  0  0  0  0  0  0
   -2.5209   -1.0996    0.0000 C   0  0  0  0  0  0  0  0  0  0  0  0
    2.0560   -0.8492    0.0000 C   0  0  0  0  0  0  0  0  0  0  0  0
    1.6448   -0.1341    0.0000 C   0  0  0  0  0  0  0  0  0  0  0  0
   -4.0227    1.4392    0.0000 C   0  0  0  0  0  0  0  0  0  0  0  0
    0.3755   -0.8850    0.0000 C   0  0  0  0  0  0  0  0  0  0  0  0
    3.3254   -1.5822    0.0000 C   0  0  0  0  0  0  0  0  0  0  0  0
    1.6448   -1.5822    0.0000 C   0  0  0  0  0  0  0  0  0  0  0  0
    0.8045   -1.5822    0.0000 C   0  0  0  0  0  0  0  0  0  0  0  0
  1 25  1  0  0  0  0
  2 25  1  0  0  0  0
  3 25  1  0  0  0  0
  4 15  1  0  0  0  0
  4 17  1  0  0  0  0
  5 13  2  0  0  0  0
  6 14  2  0  0  0  0
  7 21  1  0  0  0  0
  7 25  1  0  0  0  0
  8 11  1  0  0  0  0
  8 14  1  0  0  0  0
  8 20  1  0  0  0  0
  9 13  1  0  0  0  0
  9 14  1  0  0  0  0
  9 23  1  0  0  0  0
 10 11  1  0  0  0  0
 10 15  2  0  0  0  0
 11 12  2  0  0  0  0
 12 13  1  0  0  0  0
 12 16  1  0  0  0  0
 15 18  1  0  0  0  0
 16 19  1  0  0  0  0
 17 22  1  0  0  0  0
 17 24  2  0  0  0  0
 18 19  1  0  0  0  0
 21 22  2  0  0  0  0
 21 26  1  0  0  0  0
 24 27  1  0  0  0  0
 26 27  2  0  0  0  0
M  END
> <PUBCHEM_COMPOUND_ID_TYPE>
0

> <PUBCHEM_TOTAL_CHARGE>
0

> <PUBCHEM_SUBSTANCE_ID>
310944712

> <PUBCHEM_SUBSTANCE_VERSION>
1

> <PUBCHEM_EXT_DATASOURCE_NAME>
4488

> <PUBCHEM_EXT_DATASOURCE_REGID>
SCHEMBL16122791

> <PUBCHEM_SUBSTANCE_COMMENT>
InChI=1S/C17H16F3N3O4/c1-22-14-12(15(24)23(2)16(22)25)7-4-8-13(21-14)26-10-5-3-6-11(9-10)27-17(18,19)20/h3,5-6,9H,4,7-8H2,1-2H3
InChIKey=NWQDGRXZOXRBGK-UHFFFAOYSA-N

> <PUBCHEM_SUBSTANCE_SYNONYM>
SCHEMBL16122791

> <PUBCHEM_XREF_EXT_ID>
SCHEMBL16122791

> <PUBCHEM_EXT_DATASOURCE_URL>
https://www.surechembl.org/

> <PUBCHEM_EXT_SUBSTANCE_URL>
https://www.surechembl.org/chemical/SCHEMBL16122791

> <PUBCHEM_CID_ASSOCIATIONS>
117610934  1

> <PUBCHEM_COORDINATE_TYPE>
1
3

> <PUBCHEM_BONDANNOTATIONS>
19  16  3

$$$$
