310930667
  -OEChem-07211613022D

 23 24  0     1  0  0  0  0  0999 V2000
    6.4998   -0.8450    0.0000 F   0  0  0  0  0  0  0  0  0  0  0  0
    5.7631   -2.0799    0.0000 F   0  0  0  0  0  0  0  0  0  0  0  0
    5.7631   -0.4117    0.0000 F   0  0  0  0  0  0  0  0  0  0  0  0
    5.0481    0.0000    0.0000 O   0  0  0  0  0  0  0  0  0  0  0  0
    3.5965    0.0000    0.0000 O   0  0  0  0  0  0  0  0  0  0  0  0
    5.0481   -0.8450    0.0000 C   0  0  3  0  0  0  0  0  0  0  0  0
    5.7631   -1.2566    0.0000 C   0  0  0  0  0  0  0  0  0  0  0  0
    5.0481   -1.6683    0.0000 C   0  0  0  0  0  0  0  0  0  0  0  0
    4.3332   -1.2566    0.0000 C   0  0  0  0  0  0  0  0  0  0  0  0
    5.9364   -2.2532    0.0000 C   0  0  0  0  0  0  0  0  0  0  0  0
    4.3332   -2.1016    0.0000 C   0  0  0  0  0  0  0  0  0  0  0  0
    3.5965   -0.8450    0.0000 C   0  0  0  0  0  0  0  0  0  0  0  0
    5.7631   -2.9249    0.0000 C   0  0  0  0  0  0  0  0  0  0  0  0
    4.3332   -2.9249    0.0000 C   0  0  0  0  0  0  0  0  0  0  0  0
    2.8815   -1.2566    0.0000 C   0  0  0  0  0  0  0  0  0  0  0  0
    5.0481   -3.3365    0.0000 C   0  0  0  0  0  0  0  0  0  0  0  0
    2.1666   -0.8450    0.0000 C   0  0  0  0  0  0  0  0  0  0  0  0
    1.4300   -1.2566    0.0000 C   0  0  0  0  0  0  0  0  0  0  0  0
    1.4300   -2.1016    0.0000 C   0  0  0  0  0  0  0  0  0  0  0  0
    0.7149   -0.8450    0.0000 C   0  0  0  0  0  0  0  0  0  0  0  0
    0.7149   -2.5132    0.0000 C   0  0  0  0  0  0  0  0  0  0  0  0
    0.0000   -1.2566    0.0000 C   0  0  0  0  0  0  0  0  0  0  0  0
    0.0000   -2.0799    0.0000 C   0  0  0  0  0  0  0  0  0  0  0  0
  1  7  1  0  0  0  0
  2  7  1  0  0  0  0
  3  7  1  0  0  0  0
  6  4  1  6  0  0  0
  5 12  2  0  0  0  0
  6  7  1  0  0  0  0
  6  8  1  0  0  0  0
  6  9  1  1  0  0  0
  8 10  2  0  0  0  0
  8 11  1  0  0  0  0
  9 12  1  0  0  0  0
 10 13  1  0  0  0  0
 11 14  2  0  0  0  0
 12 15  1  0  0  0  0
 13 16  2  0  0  0  0
 14 16  1  0  0  0  0
 15 17  2  0  0  0  0
 17 18  1  0  0  0  0
 18 19  2  0  0  0  0
 18 20  1  0  0  0  0
 19 21  1  0  0  0  0
 20 22  2  0  0  0  0
 21 23  2  0  0  0  0
 22 23  1  0  0  0  0
M  END
> <PUBCHEM_COMPOUND_ID_TYPE>
0

> <PUBCHEM_TOTAL_CHARGE>
0

> <PUBCHEM_SUBSTANCE_ID>
310930667

> <PUBCHEM_SUBSTANCE_VERSION>
1

> <PUBCHEM_EXT_DATASOURCE_NAME>
4488

> <PUBCHEM_EXT_DATASOURCE_REGID>
SCHEMBL16107964

> <PUBCHEM_SUBSTANCE_COMMENT>
InChI=1S/C18H15F3O2/c19-18(20,21)17(23,15-9-5-2-6-10-15)13-16(22)12-11-14-7-3-1-4-8-14/h1-12,23H,13H2/b12-11+/t17-/m0/s1
InChIKey=JHXCGMNQFVYVCX-FLVLSHQESA-N

> <PUBCHEM_SUBSTANCE_SYNONYM>
SCHEMBL16107964

> <PUBCHEM_XREF_EXT_ID>
SCHEMBL16107964

> <PUBCHEM_EXT_DATASOURCE_URL>
https://www.surechembl.org/

> <PUBCHEM_EXT_SUBSTANCE_URL>
https://www.surechembl.org/chemical/SCHEMBL16107964

> <PUBCHEM_CID_ASSOCIATIONS>
701341  1

> <PUBCHEM_COORDINATE_TYPE>
1
3

> <PUBCHEM_BONDANNOTATIONS>
6  4  6
6  9  5

$$$$
