310949320
  -OEChem-07211613022D

 13 14  0     0  0  0  0  0  0999 V2000
   -1.7565   -0.3177    0.0000 I   0  0  0  0  0  0  0  0  0  0  0  0
    1.7565    1.4015    0.0000 O   0  0  0  0  0  0  0  0  0  0  0  0
   -0.3924   -0.4859    0.0000 N   0  0  0  0  0  0  0  0  0  0  0  0
    0.6914    0.4485    0.0000 N   0  0  0  0  0  0  0  0  0  0  0  0
   -0.2429   -1.8313    0.0000 N   0  0  0  0  0  0  0  0  0  0  0  0
   -1.0465   -1.6444    0.0000 N   0  0  0  0  0  0  0  0  0  0  0  0
    0.1682   -1.1025    0.0000 C   0  0  0  0  0  0  0  0  0  0  0  0
   -1.1212   -0.8409    0.0000 C   0  0  0  0  0  0  0  0  0  0  0  0
   -0.1121    0.2803    0.0000 C   0  0  0  0  0  0  0  0  0  0  0  0
    0.9530   -0.9343    0.0000 C   0  0  0  0  0  0  0  0  0  0  0  0
    1.2334   -0.1495    0.0000 C   0  0  0  0  0  0  0  0  0  0  0  0
    0.9343    1.2147    0.0000 C   0  0  0  0  0  0  0  0  0  0  0  0
    0.3737    1.8313    0.0000 C   0  0  0  0  0  0  0  0  0  0  0  0
  1  8  1  0  0  0  0
  2 12  2  0  0  0  0
  3  7  1  0  0  0  0
  3  8  1  0  0  0  0
  3  9  1  0  0  0  0
  4  9  1  0  0  0  0
  4 11  1  0  0  0  0
  4 12  1  0  0  0  0
  5  6  1  0  0  0  0
  5  7  2  0  0  0  0
  6  8  2  0  0  0  0
  7 10  1  0  0  0  0
 10 11  1  0  0  0  0
 12 13  1  0  0  0  0
M  END
> <PUBCHEM_COMPOUND_ID_TYPE>
0

> <PUBCHEM_TOTAL_CHARGE>
0

> <PUBCHEM_SUBSTANCE_ID>
310949320

> <PUBCHEM_SUBSTANCE_VERSION>
1

> <PUBCHEM_EXT_DATASOURCE_NAME>
4488

> <PUBCHEM_EXT_DATASOURCE_REGID>
SCHEMBL16127510

> <PUBCHEM_SUBSTANCE_COMMENT>
InChI=1S/C7H9IN4O/c1-5(13)11-3-2-6-9-10-7(8)12(6)4-11/h2-4H2,1H3
InChIKey=UJPSSCGVPCZOOL-UHFFFAOYSA-N

> <PUBCHEM_SUBSTANCE_SYNONYM>
SCHEMBL16127510

> <PUBCHEM_XREF_EXT_ID>
SCHEMBL16127510

> <PUBCHEM_EXT_DATASOURCE_URL>
https://www.surechembl.org/

> <PUBCHEM_EXT_SUBSTANCE_URL>
https://www.surechembl.org/chemical/SCHEMBL16127510

> <PUBCHEM_CID_ASSOCIATIONS>
117614799  1

> <PUBCHEM_COORDINATE_TYPE>
1
3

$$$$
