310934591
  -OEChem-07211613022D

 25 27  0     0  0  0  0  0  0999 V2000
    3.9759   -0.7229    0.0000 S   0  0  0  0  0  0  0  0  0  0  0  0
    1.0843    0.0000    0.0000 O   0  0  0  0  0  0  0  0  0  0  0  0
    4.8072   -0.7229    0.0000 O   0  0  0  0  0  0  0  0  0  0  0  0
    4.3734    0.0000    0.0000 O   0  0  0  0  0  0  0  0  0  0  0  0
    0.2530   -1.4096    0.0000 O   0  0  0  0  0  0  0  0  0  0  0  0
    1.9157   -1.4096    0.0000 N   0  0  0  0  0  0  0  0  0  0  0  0
    1.0843   -1.4096    0.0000 N   0  0  0  0  0  0  0  0  0  0  0  0
    2.3132   -0.7229    0.0000 C   0  0  0  0  0  0  0  0  0  0  0  0
    1.4819   -0.7229    0.0000 C   0  0  0  0  0  0  0  0  0  0  0  0
    2.7470   -1.4096    0.0000 C   0  0  0  0  0  0  0  0  0  0  0  0
    2.7470    0.0000    0.0000 C   0  0  0  0  0  0  0  0  0  0  0  0
    3.5421   -1.4096    0.0000 C   0  0  0  0  0  0  0  0  0  0  0  0
    3.5421    0.0000    0.0000 C   0  0  0  0  0  0  0  0  0  0  0  0
    2.3493   -2.1325    0.0000 C   0  0  0  0  0  0  0  0  0  0  0  0
    1.9157   -2.8554    0.0000 C   0  0  0  0  0  0  0  0  0  0  0  0
    1.1205   -2.8554    0.0000 C   0  0  0  0  0  0  0  0  0  0  0  0
    2.3493   -3.5421    0.0000 C   0  0  0  0  0  0  0  0  0  0  0  0
    1.1205   -4.2650    0.0000 C   0  0  0  0  0  0  0  0  0  0  0  0
    0.7229   -3.5782    0.0000 C   0  0  0  0  0  0  0  0  0  0  0  0
    1.9518   -4.2650    0.0000 C   0  0  0  0  0  0  0  0  0  0  0  0
    0.7229   -6.3975    0.0000 C   0  0  0  0  0  0  0  0  0  0  0  0
    0.7229   -4.9879    0.0000 C   0  0  0  0  0  0  0  0  0  0  0  0
    1.1205   -5.6746    0.0000 C   0  0  0  0  0  0  0  0  0  0  0  0
    0.7590   -7.2288    0.0000 C   0  0  0  0  0  0  0  0  0  0  0  0
    0.0000   -6.8312    0.0000 C   0  0  0  0  0  0  0  0  0  0  0  0
  1  3  2  0  0  0  0
  1  4  2  0  0  0  0
  1 12  1  0  0  0  0
  1 13  1  0  0  0  0
  2  9  2  0  0  0  0
  5  7  1  0  0  0  0
  6  8  1  0  0  0  0
  6 14  1  0  0  0  0
  7  9  1  0  0  0  0
  8  9  1  0  0  0  0
  8 10  1  0  0  0  0
  8 11  1  0  0  0  0
 10 12  1  0  0  0  0
 11 13  1  0  0  0  0
 14 15  1  0  0  0  0
 15 16  2  0  0  0  0
 15 17  1  0  0  0  0
 16 19  1  0  0  0  0
 17 20  2  0  0  0  0
 18 19  2  0  0  0  0
 18 20  1  0  0  0  0
 18 22  1  0  0  0  0
 21 23  1  0  0  0  0
 21 24  1  0  0  0  0
 21 25  1  0  0  0  0
 22 23  3  0  0  0  0
 24 25  1  0  0  0  0
M  END
> <PUBCHEM_COMPOUND_ID_TYPE>
0

> <PUBCHEM_TOTAL_CHARGE>
0

> <PUBCHEM_SUBSTANCE_ID>
310934591

> <PUBCHEM_SUBSTANCE_VERSION>
1

> <PUBCHEM_EXT_DATASOURCE_NAME>
4488

> <PUBCHEM_EXT_DATASOURCE_REGID>
SCHEMBL16112083

> <PUBCHEM_SUBSTANCE_COMMENT>
InChI=1S/C18H22N2O4S/c21-17(20-22)18(9-11-25(23,24)12-10-18)19-13-16-7-5-15(6-8-16)4-3-14-1-2-14/h5-8,14,19,22H,1-2,9-13H2,(H,20,21)
InChIKey=UYBNVEHMKYNIAF-UHFFFAOYSA-N

> <PUBCHEM_SUBSTANCE_SYNONYM>
SCHEMBL16112083

> <PUBCHEM_XREF_EXT_ID>
SCHEMBL16112083

> <PUBCHEM_EXT_DATASOURCE_URL>
https://www.surechembl.org/

> <PUBCHEM_EXT_SUBSTANCE_URL>
https://www.surechembl.org/chemical/SCHEMBL16112083

> <PUBCHEM_CID_ASSOCIATIONS>
86272245  1

> <PUBCHEM_COORDINATE_TYPE>
1
3

$$$$
