310940002
  -OEChem-07211613022D

 11 11  0     0  0  0  0  0  0999 V2000
  -12.5606    7.9150    0.0000 Br  0  0  0  0  0  0  0  0  0  0  0  0
  -12.5606    6.2650    0.0000 Cl  0  0  0  0  0  0  0  0  0  0  0  0
   -9.7027    7.9150    0.0000 N   0  0  0  0  0  0  0  0  0  0  0  0
  -10.4172    6.6775    0.0000 C   0  0  0  0  0  0  0  0  0  0  0  0
  -11.8461    7.5025    0.0000 C   0  0  0  0  0  0  0  0  0  0  0  0
  -11.8461    6.6775    0.0000 C   0  0  0  0  0  0  0  0  0  0  0  0
  -10.4172    7.5025    0.0000 C   0  0  0  0  0  0  0  0  0  0  0  0
  -11.1317    6.2650    0.0000 C   0  0  0  0  0  0  0  0  0  0  0  0
  -11.1317    7.9150    0.0000 C   0  0  0  0  0  0  0  0  0  0  0  0
   -9.7027    6.2650    0.0000 C   0  0  0  0  0  0  0  0  0  0  0  0
   -9.7027    5.4400    0.0000 C   0  0  0  0  0  0  0  0  0  0  0  0
  1  5  1  0  0  0  0
  2  6  1  0  0  0  0
  3  7  1  0  0  0  0
  4  7  1  0  0  0  0
  4  8  2  0  0  0  0
  4 10  1  0  0  0  0
  5  6  2  0  0  0  0
  5  9  1  0  0  0  0
  6  8  1  0  0  0  0
  7  9  2  0  0  0  0
 10 11  2  0  0  0  0
M  END
> <PUBCHEM_COMPOUND_ID_TYPE>
0

> <PUBCHEM_TOTAL_CHARGE>
0

> <PUBCHEM_SUBSTANCE_ID>
310940002

> <PUBCHEM_SUBSTANCE_VERSION>
1

> <PUBCHEM_EXT_DATASOURCE_NAME>
4488

> <PUBCHEM_EXT_DATASOURCE_REGID>
SCHEMBL16117932

> <PUBCHEM_SUBSTANCE_COMMENT>
InChI=1S/C8H7BrClN/c1-2-5-3-7(10)6(9)4-8(5)11/h2-4H,1,11H2
InChIKey=NOHXZTPRWYDYRB-UHFFFAOYSA-N

> <PUBCHEM_SUBSTANCE_SYNONYM>
SCHEMBL16117932

> <PUBCHEM_XREF_EXT_ID>
SCHEMBL16117932

> <PUBCHEM_EXT_DATASOURCE_URL>
https://www.surechembl.org/

> <PUBCHEM_EXT_SUBSTANCE_URL>
https://www.surechembl.org/chemical/SCHEMBL16117932

> <PUBCHEM_CID_ASSOCIATIONS>
117607165  1

> <PUBCHEM_COORDINATE_TYPE>
1
3

$$$$
