310944063
  -OEChem-07211613022D

 15 16  0     0  0  0  0  0  0999 V2000
    0.2915    1.7433    0.0000 F   0  0  0  0  0  0  0  0  0  0  0  0
    1.7213   -0.7424    0.0000 F   0  0  0  0  0  0  0  0  0  0  0  0
    2.4363    0.5005    0.0000 O   0  0  0  0  0  0  0  0  0  0  0  0
   -1.1384   -0.7424    0.0000 N   0  0  0  0  0  0  0  0  0  0  0  0
   -1.8864   -0.4125    0.0000 N   0  0  0  0  0  0  0  0  0  0  0  0
   -2.4363   -1.0284    0.0000 N   0  0  0  0  0  0  0  0  0  0  0  0
   -2.0293   -1.7433    0.0000 N   0  0  0  0  0  0  0  0  0  0  0  0
   -0.4344   -0.3354    0.0000 C   0  0  0  0  0  0  0  0  0  0  0  0
    1.0064    0.5005    0.0000 C   0  0  0  0  0  0  0  0  0  0  0  0
    0.2915    0.9074    0.0000 C   0  0  0  0  0  0  0  0  0  0  0  0
    0.9954   -0.3244    0.0000 C   0  0  0  0  0  0  0  0  0  0  0  0
   -0.4125    0.5005    0.0000 C   0  0  0  0  0  0  0  0  0  0  0  0
    0.3025   -0.7424    0.0000 C   0  0  0  0  0  0  0  0  0  0  0  0
   -1.2264   -1.5674    0.0000 C   0  0  0  0  0  0  0  0  0  0  0  0
    2.4363    1.3144    0.0000 C   0  0  0  0  0  0  0  0  0  0  0  0
  1 10  1  0  0  0  0
  2 11  1  0  0  0  0
  3 15  1  0  0  0  0
  4  5  1  0  0  0  0
  4  8  1  0  0  0  0
  4 14  1  0  0  0  0
  5  6  2  0  0  0  0
  6  7  1  0  0  0  0
  7 14  2  0  0  0  0
  8 12  2  0  0  0  0
  8 13  1  0  0  0  0
  9 10  2  0  0  0  0
  9 11  1  0  0  0  0
  9 15  1  0  0  0  0
 10 12  1  0  0  0  0
 11 13  2  0  0  0  0
M  END
> <PUBCHEM_COMPOUND_ID_TYPE>
0

> <PUBCHEM_TOTAL_CHARGE>
0

> <PUBCHEM_SUBSTANCE_ID>
310944063

> <PUBCHEM_SUBSTANCE_VERSION>
1

> <PUBCHEM_EXT_DATASOURCE_NAME>
4488

> <PUBCHEM_EXT_DATASOURCE_REGID>
SCHEMBL16122138

> <PUBCHEM_SUBSTANCE_COMMENT>
InChI=1S/C8H6F2N4O/c9-7-1-5(14-4-11-12-13-14)2-8(10)6(7)3-15/h1-2,4,15H,3H2
InChIKey=RLSAZXGPHIRDAX-UHFFFAOYSA-N

> <PUBCHEM_SUBSTANCE_SYNONYM>
SCHEMBL16122138

> <PUBCHEM_XREF_EXT_ID>
SCHEMBL16122138

> <PUBCHEM_EXT_DATASOURCE_URL>
https://www.surechembl.org/

> <PUBCHEM_EXT_SUBSTANCE_URL>
https://www.surechembl.org/chemical/SCHEMBL16122138

> <PUBCHEM_CID_ASSOCIATIONS>
117610359  1

> <PUBCHEM_COORDINATE_TYPE>
1
3

$$$$
