310940609
  -OEChem-07211613022D

 35 39  0     1  0  0  0  0  0999 V2000
    0.4042    3.2609    0.0000 S   0  0  0  0  0  0  0  0  0  0  0  0
    2.7334   -0.8495    0.0000 O   0  0  0  0  0  0  0  0  0  0  0  0
   -1.4865   -0.9728    0.0000 O   0  0  0  0  0  0  0  0  0  0  0  0
    2.7745    0.6440    0.0000 O   0  0  0  0  0  0  0  0  0  0  0  0
   -2.7745   -2.9046    0.0000 O   0  0  0  0  0  0  0  0  0  0  0  0
   -0.2124    2.6991    0.0000 O   0  0  0  0  0  0  0  0  0  0  0  0
    1.0207    3.8089    0.0000 O   0  0  0  0  0  0  0  0  0  0  0  0
    1.5688   -0.1645    0.0000 N   0  0  0  0  0  0  0  0  0  0  0  0
    1.3907   -2.6443    0.0000 N   0  0  0  0  0  0  0  0  0  0  0  0
   -2.3634   -3.6308    0.0000 N   0  0  0  0  0  0  0  0  0  0  0  0
    1.3633   -0.9043    0.0000 C   0  0  0  0  0  0  0  0  0  0  0  0
    0.6645   -1.3153    0.0000 C   0  0  0  0  0  0  0  0  0  0  0  0
    2.0894   -1.3153    0.0000 C   0  0  0  0  0  0  0  0  0  0  0  0
    0.6508   -2.1374    0.0000 C   0  0  0  0  0  0  0  0  0  0  0  0
    2.3360   -0.0411    0.0000 C   0  0  0  0  0  0  0  0  0  0  0  0
   -0.7741   -2.1511    0.0000 C   0  0  0  0  0  0  0  0  0  0  0  0
    0.9933    0.5069    0.0000 C   0  0  3  0  0  0  0  0  0  0  0  0
   -0.0617   -0.9179    0.0000 C   0  0  0  0  0  0  0  0  0  0  0  0
   -0.7604   -1.3153    0.0000 C   0  0  0  0  0  0  0  0  0  0  0  0
   -0.0617   -2.5484    0.0000 C   0  0  0  0  0  0  0  0  0  0  0  0
    2.0757   -2.1511    0.0000 C   0  0  0  0  0  0  0  0  0  0  0  0
   -1.5003   -2.5621    0.0000 C   0  0  0  0  0  0  0  0  0  0  0  0
    1.2400    1.3153    0.0000 C   0  0  0  0  0  0  0  0  0  0  0  0
   -2.2401   -2.2059    0.0000 C   0  0  0  0  0  0  0  0  0  0  0  0
   -1.5825   -3.3842    0.0000 C   0  0  0  0  0  0  0  0  0  0  0  0
    0.7056    1.9045    0.0000 C   0  0  0  0  0  0  0  0  0  0  0  0
    0.1986    0.3151    0.0000 C   0  0  0  0  0  0  0  0  0  0  0  0
    0.9522    2.7129    0.0000 C   0  0  0  0  0  0  0  0  0  0  0  0
    2.0483    1.4934    0.0000 C   0  0  0  0  0  0  0  0  0  0  0  0
    1.7469    2.8636    0.0000 C   0  0  0  0  0  0  0  0  0  0  0  0
    2.2812    2.2744    0.0000 C   0  0  0  0  0  0  0  0  0  0  0  0
   -2.4046   -1.3975    0.0000 C   0  0  0  0  0  0  0  0  0  0  0  0
   -0.9522   -3.9322    0.0000 C   0  0  0  0  0  0  0  0  0  0  0  0
   -1.5003   -0.0685    0.0000 C   0  0  0  0  0  0  0  0  0  0  0  0
   -0.1576    3.9322    0.0000 C   0  0  0  0  0  0  0  0  0  0  0  0
  1  6  2  0  0  0  0
  1  7  2  0  0  0  0
  1 28  1  0  0  0  0
  1 35  1  0  0  0  0
  2 13  1  0  0  0  0
  2 15  1  0  0  0  0
  3 19  1  0  0  0  0
  3 34  1  0  0  0  0
  4 15  2  0  0  0  0
  5 10  1  0  0  0  0
  5 24  1  0  0  0  0
  8 11  1  0  0  0  0
  8 15  1  0  0  0  0
  8 17  1  0  0  0  0
  9 14  2  0  0  0  0
  9 21  1  0  0  0  0
 10 25  2  0  0  0  0
 11 12  2  0  0  0  0
 11 13  1  0  0  0  0
 12 14  1  0  0  0  0
 12 18  1  0  0  0  0
 13 21  2  0  0  0  0
 14 20  1  0  0  0  0
 16 19  1  0  0  0  0
 16 20  2  0  0  0  0
 16 22  1  0  0  0  0
 17 23  1  0  0  0  0
 17 27  1  6  0  0  0
 18 19  2  0  0  0  0
 22 24  2  0  0  0  0
 22 25  1  0  0  0  0
 23 26  2  0  0  0  0
 23 29  1  0  0  0  0
 24 32  1  0  0  0  0
 25 33  1  0  0  0  0
 26 28  1  0  0  0  0
 28 30  2  0  0  0  0
 29 31  2  0  0  0  0
 30 31  1  0  0  0  0
M  END
> <PUBCHEM_COMPOUND_ID_TYPE>
0

> <PUBCHEM_TOTAL_CHARGE>
0

> <PUBCHEM_SUBSTANCE_ID>
310940609

> <PUBCHEM_SUBSTANCE_VERSION>
1

> <PUBCHEM_EXT_DATASOURCE_NAME>
4488

> <PUBCHEM_EXT_DATASOURCE_REGID>
SCHEMBL16118563

> <PUBCHEM_SUBSTANCE_COMMENT>
InChI=1S/C25H23N3O6S/c1-13-23(15(3)34-27-13)19-10-20-18(11-21(19)32-4)24-22(12-26-20)33-25(29)28(24)14(2)16-7-6-8-17(9-16)35(5,30)31/h6-12,14H,1-5H3/t14-/m1/s1
InChIKey=RUEHTXPADOSMQR-CQSZACIVSA-N

> <PUBCHEM_SUBSTANCE_SYNONYM>
SCHEMBL16118563

> <PUBCHEM_XREF_EXT_ID>
SCHEMBL16118563

> <PUBCHEM_EXT_DATASOURCE_URL>
https://www.surechembl.org/

> <PUBCHEM_EXT_SUBSTANCE_URL>
https://www.surechembl.org/chemical/SCHEMBL16118563

> <PUBCHEM_CID_ASSOCIATIONS>
117607596  1

> <PUBCHEM_COORDINATE_TYPE>
1
3

> <PUBCHEM_BONDANNOTATIONS>
17  27  6

$$$$
