310937802
  -OEChem-07211613022D

 37 41  0     0  0  0  0  0  0999 V2000
    4.3543   -5.4085    0.0000 O   0  0  0  0  0  0  0  0  0  0  0  0
    7.2419   -5.4544    0.0000 O   0  0  0  0  0  0  0  0  0  0  0  0
    4.3543   -3.7584    0.0000 N   0  0  0  0  0  0  0  0  0  0  0  0
    5.0877   -2.5209    0.0000 N   0  0  0  0  0  0  0  0  0  0  0  0
    5.7752   -5.4085    0.0000 N   0  0  0  0  0  0  0  0  0  0  0  0
    2.2001   -2.5209    0.0000 N   0  0  0  0  0  0  0  0  0  0  0  0
    1.4667   -1.2375    0.0000 N   0  0  0  0  0  0  0  0  0  0  0  0
    7.9753   -6.6919    0.0000 N   0  0  0  0  0  0  0  0  0  0  0  0
    0.0000   -0.4125    0.0000 N   0  0  0  0  0  0  0  0  0  0  0  0
    5.0877   -4.1710    0.0000 C   0  0  0  0  0  0  0  0  0  0  0  0
    5.8210   -3.7584    0.0000 C   0  0  0  0  0  0  0  0  0  0  0  0
    4.3543   -2.9334    0.0000 C   0  0  0  0  0  0  0  0  0  0  0  0
    5.8210   -2.9334    0.0000 C   0  0  0  0  0  0  0  0  0  0  0  0
    3.6210   -2.5209    0.0000 C   0  0  0  0  0  0  0  0  0  0  0  0
    5.0877   -4.9960    0.0000 C   0  0  0  0  0  0  0  0  0  0  0  0
    6.5085   -4.1710    0.0000 C   0  0  0  0  0  0  0  0  0  0  0  0
    6.5085   -2.5209    0.0000 C   0  0  0  0  0  0  0  0  0  0  0  0
    6.5085   -6.6919    0.0000 C   0  0  0  0  0  0  0  0  0  0  0  0
    2.8876   -2.9334    0.0000 C   0  0  0  0  0  0  0  0  0  0  0  0
    3.6210   -1.6959    0.0000 C   0  0  0  0  0  0  0  0  0  0  0  0
    2.1542   -1.6501    0.0000 C   0  0  0  0  0  0  0  0  0  0  0  0
    6.5085   -7.5169    0.0000 C   0  0  0  0  0  0  0  0  0  0  0  0
    7.1961   -3.7584    0.0000 C   0  0  0  0  0  0  0  0  0  0  0  0
    5.7752   -6.2335    0.0000 C   0  0  0  0  0  0  0  0  0  0  0  0
    2.8876   -1.2834    0.0000 C   0  0  0  0  0  0  0  0  0  0  0  0
    7.1961   -2.9334    0.0000 C   0  0  0  0  0  0  0  0  0  0  0  0
    7.2419   -6.2794    0.0000 C   0  0  0  0  0  0  0  0  0  0  0  0
    7.2419   -7.9294    0.0000 C   0  0  0  0  0  0  0  0  0  0  0  0
    7.9753   -7.5169    0.0000 C   0  0  0  0  0  0  0  0  0  0  0  0
    5.8210   -7.9294    0.0000 C   0  0  0  0  0  0  0  0  0  0  0  0
    1.4667   -0.4125    0.0000 C   0  0  0  0  0  0  0  0  0  0  0  0
    0.7334   -1.6501    0.0000 C   0  0  0  0  0  0  0  0  0  0  0  0
    0.0000   -1.2375    0.0000 C   0  0  0  0  0  0  0  0  0  0  0  0
    0.7334    0.0000    0.0000 C   0  0  0  0  0  0  0  0  0  0  0  0
    8.7086   -7.9294    0.0000 C   0  0  0  0  0  0  0  0  0  0  0  0
    5.8210   -8.7544    0.0000 C   0  0  0  0  0  0  0  0  0  0  0  0
    6.5544   -9.1670    0.0000 C   0  0  0  0  0  0  0  0  0  0  0  0
  1 15  2  0  0  0  0
  2 27  2  0  0  0  0
  3 10  1  0  0  0  0
  3 12  2  0  0  0  0
  4 12  1  0  0  0  0
  4 13  2  0  0  0  0
  5 15  1  0  0  0  0
  5 24  1  0  0  0  0
  6 19  1  0  0  0  0
  6 21  2  0  0  0  0
  7 21  1  0  0  0  0
  7 31  1  0  0  0  0
  7 32  1  0  0  0  0
  8 27  1  0  0  0  0
  8 29  1  0  0  0  0
  9 33  1  0  0  0  0
  9 34  1  0  0  0  0
 10 11  2  0  0  0  0
 10 15  1  0  0  0  0
 11 13  1  0  0  0  0
 11 16  1  0  0  0  0
 12 14  1  0  0  0  0
 13 17  1  0  0  0  0
 14 19  2  0  0  0  0
 14 20  1  0  0  0  0
 16 23  1  0  0  0  0
 17 26  1  0  0  0  0
 18 22  2  0  0  0  0
 18 24  1  0  0  0  0
 18 27  1  0  0  0  0
 20 25  2  0  0  0  0
 21 25  1  0  0  0  0
 22 28  1  0  0  0  0
 22 30  1  0  0  0  0
 23 26  1  0  0  0  0
 28 29  2  0  0  0  0
 29 35  1  0  0  0  0
 30 36  1  0  0  0  0
 31 34  1  0  0  0  0
 32 33  1  0  0  0  0
 36 37  1  0  0  0  0
M  END
> <PUBCHEM_COMPOUND_ID_TYPE>
0

> <PUBCHEM_TOTAL_CHARGE>
0

> <PUBCHEM_SUBSTANCE_ID>
310937802

> <PUBCHEM_SUBSTANCE_VERSION>
1

> <PUBCHEM_EXT_DATASOURCE_NAME>
4488

> <PUBCHEM_EXT_DATASOURCE_REGID>
SCHEMBL16115619

> <PUBCHEM_SUBSTANCE_COMMENT>
InChI=1S/C28H35N7O2/c1-3-6-19-15-18(2)32-27(36)22(19)17-31-28(37)25-21-7-4-5-8-23(21)33-26(34-25)20-9-10-24(30-16-20)35-13-11-29-12-14-35/h9-10,15-16,29H,3-8,11-14,17H2,1-2H3,(H,31,37)(H,32,36)
InChIKey=QITRSROHRZBCHO-UHFFFAOYSA-N

> <PUBCHEM_SUBSTANCE_SYNONYM>
SCHEMBL16115619

> <PUBCHEM_XREF_EXT_ID>
SCHEMBL16115619

> <PUBCHEM_EXT_DATASOURCE_URL>
https://www.surechembl.org/

> <PUBCHEM_EXT_SUBSTANCE_URL>
https://www.surechembl.org/chemical/SCHEMBL16115619

> <PUBCHEM_CID_ASSOCIATIONS>
86272209  1

> <PUBCHEM_COORDINATE_TYPE>
1
3

$$$$
