310940852
  -OEChem-07211613022D

 40 43  0     1  0  0  0  0  0999 V2000
    5.2220    0.9855    0.0000 O   0  0  0  0  0  0  0  0  0  0  0  0
    4.0746   -0.9855    0.0000 O   0  0  0  0  0  0  0  0  0  0  0  0
    1.6917    0.9708    0.0000 O   0  0  0  0  0  0  0  0  0  0  0  0
   -0.4854   -1.1032    0.0000 O   0  0  0  0  0  0  0  0  0  0  0  0
   -2.6624    0.9708    0.0000 O   0  0  0  0  0  0  0  0  0  0  0  0
    3.8687   -2.7802    0.0000 O   0  0  0  0  0  0  0  0  0  0  0  0
   -5.5309   -0.4706    0.0000 O   0  0  0  0  0  0  0  0  0  0  0  0
    2.4124   -0.2794    0.0000 N   0  0  0  0  0  0  0  0  0  0  0  0
    0.2500    0.1471    0.0000 N   0  0  0  0  0  0  0  0  0  0  0  0
   -1.9270   -0.2794    0.0000 N   0  0  0  0  0  0  0  0  0  0  0  0
    4.7953    0.3089    0.0000 C   0  0  3  0  0  0  0  0  0  0  0  0
    4.0746   -0.1177    0.0000 C   0  0  0  0  0  0  0  0  0  0  0  0
    4.4129    1.0003    0.0000 C   0  0  0  0  0  0  0  0  0  0  0  0
    3.3685    0.2942    0.0000 C   0  0  3  0  0  0  0  0  0  0  0  0
    5.5309   -0.1177    0.0000 C   0  0  0  0  0  0  0  0  0  0  0  0
    3.3685    1.3679    0.0000 C   0  0  0  0  0  0  0  0  0  0  0  0
    1.6917    0.1471    0.0000 C   0  0  0  0  0  0  0  0  0  0  0  0
    0.9855   -0.2500    0.0000 C   0  0  3  0  0  0  0  0  0  0  0  0
    2.6330    1.8093    0.0000 C   0  0  0  0  0  0  0  0  0  0  0  0
    0.9561   -1.1032    0.0000 C   0  0  0  0  0  0  0  0  0  0  0  0
   -0.4706   -0.2354    0.0000 C   0  0  0  0  0  0  0  0  0  0  0  0
    1.7064   -1.5004    0.0000 C   0  0  0  0  0  0  0  0  0  0  0  0
    1.8829    1.4562    0.0000 C   0  0  0  0  0  0  0  0  0  0  0  0
    2.5448    2.6183    0.0000 C   0  0  0  0  0  0  0  0  0  0  0  0
   -1.2062    0.1618    0.0000 C   0  0  3  0  0  0  0  0  0  0  0  0
   -3.3832   -0.2647    0.0000 C   0  0  3  0  0  0  0  0  0  0  0  0
   -2.6036    0.1471    0.0000 C   0  0  0  0  0  0  0  0  0  0  0  0
    1.3386    2.0594    0.0000 C   0  0  0  0  0  0  0  0  0  0  0  0
    1.7505    2.7802    0.0000 C   0  0  0  0  0  0  0  0  0  0  0  0
    1.7211   -2.3389    0.0000 C   0  0  0  0  0  0  0  0  0  0  0  0
    2.4124   -1.1032    0.0000 C   0  0  0  0  0  0  0  0  0  0  0  0
   -4.1335    0.0735    0.0000 C   0  0  0  0  0  0  0  0  0  0  0  0
   -3.4715   -1.0738    0.0000 C   0  0  0  0  0  0  0  0  0  0  0  0
   -4.6776   -0.5443    0.0000 C   0  0  3  0  0  0  0  0  0  0  0  0
    3.1479   -2.3242    0.0000 C   0  0  0  0  0  0  0  0  0  0  0  0
   -4.2805   -1.2356    0.0000 C   0  0  0  0  0  0  0  0  0  0  0  0
    2.4271   -2.7508    0.0000 C   0  0  0  0  0  0  0  0  0  0  0  0
    3.1479   -1.5151    0.0000 C   0  0  0  0  0  0  0  0  0  0  0  0
   -1.1915    0.9855    0.0000 C   0  0  0  0  0  0  0  0  0  0  0  0
    4.6188   -2.3242    0.0000 C   0  0  0  0  0  0  0  0  0  0  0  0
  1 11  1  0  0  0  0
  1 13  1  0  0  0  0
  2 12  2  0  0  0  0
  3 17  2  0  0  0  0
  4 21  2  0  0  0  0
  5 27  2  0  0  0  0
  6 35  1  0  0  0  0
  6 40  1  0  0  0  0
 34  7  1  6  0  0  0
 14  8  1  1  0  0  0
  8 17  1  0  0  0  0
 18  9  1  6  0  0  0
  9 21  1  0  0  0  0
 10 25  1  0  0  0  0
 10 27  1  0  0  0  0
 11 12  1  1  0  0  0
 11 13  1  0  0  0  0
 11 15  1  6  0  0  0
 12 14  1  0  0  0  0
 14 16  1  0  0  0  0
 16 19  1  0  0  0  0
 17 18  1  0  0  0  0
 18 20  1  0  0  0  0
 19 23  1  0  0  0  0
 19 24  1  0  0  0  0
 20 22  1  0  0  0  0
 21 25  1  0  0  0  0
 22 30  2  0  0  0  0
 22 31  1  0  0  0  0
 23 28  1  0  0  0  0
 24 29  1  0  0  0  0
 25 39  1  6  0  0  0
 26 27  1  6  0  0  0
 26 32  1  0  0  0  0
 26 33  1  0  0  0  0
 28 29  1  0  0  0  0
 30 37  1  0  0  0  0
 31 38  2  0  0  0  0
 32 34  1  0  0  0  0
 33 36  1  0  0  0  0
 34 36  1  0  0  0  0
 35 37  2  0  0  0  0
 35 38  1  0  0  0  0
M  END
> <PUBCHEM_COMPOUND_ID_TYPE>
0

> <PUBCHEM_TOTAL_CHARGE>
0

> <PUBCHEM_SUBSTANCE_ID>
310940852

> <PUBCHEM_SUBSTANCE_VERSION>
1

> <PUBCHEM_EXT_DATASOURCE_NAME>
4488

> <PUBCHEM_EXT_DATASOURCE_REGID>
SCHEMBL16118811

> <PUBCHEM_SUBSTANCE_COMMENT>
InChI=1S/C30H43N3O7/c1-18(31-28(37)21-10-11-22(34)16-21)27(36)33-25(15-20-8-12-23(39-3)13-9-20)29(38)32-24(14-19-6-4-5-7-19)26(35)30(2)17-40-30/h8-9,12-13,18-19,21-22,24-25,34H,4-7,10-11,14-17H2,1-3H3,(H,31,37)(H,32,38)(H,33,36)/t18-,21-,22+,24+,25+,30-/m1/s1
InChIKey=BVCQVLJZWSBKHP-YMYOBFFZSA-N

> <PUBCHEM_SUBSTANCE_SYNONYM>
SCHEMBL16118811

> <PUBCHEM_XREF_EXT_ID>
SCHEMBL16118811

> <PUBCHEM_EXT_DATASOURCE_URL>
https://www.surechembl.org/

> <PUBCHEM_EXT_SUBSTANCE_URL>
https://www.surechembl.org/chemical/SCHEMBL16118811

> <PUBCHEM_CID_ASSOCIATIONS>
117607769  1

> <PUBCHEM_COORDINATE_TYPE>
1
3

> <PUBCHEM_BONDANNOTATIONS>
11  12  5
11  15  6
25  39  6
26  27  6
34  7  6
14  8  5
18  9  6

$$$$
