310941984
  -OEChem-07211613022D

 22 25  0     0  0  0  0  0  0999 V2000
   -2.1243   -3.0439    0.0000 F   0  0  0  0  0  0  0  0  0  0  0  0
    2.4094    1.7465    0.0000 O   0  0  0  0  0  0  0  0  0  0  0  0
   -0.6986   -0.5489    0.0000 N   0  0  0  0  0  0  0  0  0  0  0  0
    0.7699   -0.2352    0.0000 N   0  0  0  0  0  0  0  0  0  0  0  0
    1.4115    2.6161    0.0000 N   0  0  0  0  0  0  0  0  0  0  0  0
    2.1100    3.0439    0.0000 N   0  0  0  0  0  0  0  0  0  0  0  0
   -0.2994    0.7485    0.0000 C   0  0  0  0  0  0  0  0  0  0  0  0
   -0.0570   -0.0214    0.0000 C   0  0  0  0  0  0  0  0  0  0  0  0
   -1.1263    0.7628    0.0000 C   0  0  0  0  0  0  0  0  0  0  0  0
   -1.3972   -0.0357    0.0000 C   0  0  0  0  0  0  0  0  0  0  0  0
    0.2423    1.3758    0.0000 C   0  0  0  0  0  0  0  0  0  0  0  0
    1.0408    1.2189    0.0000 C   0  0  0  0  0  0  0  0  0  0  0  0
   -1.6681    1.3615    0.0000 C   0  0  0  0  0  0  0  0  0  0  0  0
    1.2974    0.4206    0.0000 C   0  0  0  0  0  0  0  0  0  0  0  0
   -2.1813   -0.2067    0.0000 C   0  0  0  0  0  0  0  0  0  0  0  0
    1.5825    1.8605    0.0000 C   0  0  0  0  0  0  0  0  0  0  0  0
   -0.7129   -1.3615    0.0000 C   0  0  0  0  0  0  0  0  0  0  0  0
   -2.4522    1.1904    0.0000 C   0  0  0  0  0  0  0  0  0  0  0  0
   -2.7088    0.4063    0.0000 C   0  0  0  0  0  0  0  0  0  0  0  0
   -1.3972   -1.7607    0.0000 C   0  0  0  0  0  0  0  0  0  0  0  0
    2.7088    2.5306    0.0000 C   0  0  0  0  0  0  0  0  0  0  0  0
   -1.4257   -2.6019    0.0000 C   0  0  0  0  0  0  0  0  0  0  0  0
  1 22  1  0  0  0  0
  2 16  1  0  0  0  0
  2 21  1  0  0  0  0
  3  8  1  0  0  0  0
  3 10  1  0  0  0  0
  3 17  1  0  0  0  0
  4  8  1  0  0  0  0
  4 14  2  0  0  0  0
  5  6  1  0  0  0  0
  5 16  2  0  0  0  0
  6 21  2  0  0  0  0
  7  8  2  0  0  0  0
  7  9  1  0  0  0  0
  7 11  1  0  0  0  0
  9 10  1  0  0  0  0
  9 13  2  0  0  0  0
 10 15  2  0  0  0  0
 11 12  2  0  0  0  0
 12 14  1  0  0  0  0
 12 16  1  0  0  0  0
 13 18  1  0  0  0  0
 15 19  1  0  0  0  0
 17 20  1  0  0  0  0
 18 19  2  0  0  0  0
 20 22  1  0  0  0  0
M  END
> <PUBCHEM_COMPOUND_ID_TYPE>
0

> <PUBCHEM_TOTAL_CHARGE>
0

> <PUBCHEM_SUBSTANCE_ID>
310941984

> <PUBCHEM_SUBSTANCE_VERSION>
1

> <PUBCHEM_EXT_DATASOURCE_NAME>
4488

> <PUBCHEM_EXT_DATASOURCE_REGID>
SCHEMBL16120018

> <PUBCHEM_SUBSTANCE_COMMENT>
InChI=1S/C16H13FN4O/c17-6-3-7-21-14-5-2-1-4-12(14)13-8-11(9-18-15(13)21)16-20-19-10-22-16/h1-2,4-5,8-10H,3,6-7H2
InChIKey=DLSKMNBLMRBFPD-UHFFFAOYSA-N

> <PUBCHEM_SUBSTANCE_SYNONYM>
SCHEMBL16120018

> <PUBCHEM_XREF_EXT_ID>
SCHEMBL16120018

> <PUBCHEM_EXT_DATASOURCE_URL>
https://www.surechembl.org/

> <PUBCHEM_EXT_SUBSTANCE_URL>
https://www.surechembl.org/chemical/SCHEMBL16120018

> <PUBCHEM_CID_ASSOCIATIONS>
86271344  1

> <PUBCHEM_COORDINATE_TYPE>
1
3

$$$$
