310929457
  -OEChem-07211613022D

 31 33  0     0  0  0  0  0  0999 V2000
   10.6576   -6.1702    0.0000 Cl  0  0  0  0  0  0  0  0  0  0  0  0
   10.6176   -2.8848    0.0000 O   0  0  0  0  0  0  0  0  0  0  0  0
    0.0000   -4.1268    0.0000 O   0  0  0  0  0  0  0  0  0  0  0  0
    9.2553   -3.7261    0.0000 N   0  0  0  0  0  0  0  0  0  0  0  0
    9.9364   -4.1268    0.0000 C   0  0  0  0  0  0  0  0  0  0  0  0
    9.9364   -4.9281    0.0000 C   0  0  0  0  0  0  0  0  0  0  0  0
   10.6576   -3.7261    0.0000 C   0  0  0  0  0  0  0  0  0  0  0  0
   10.6576   -5.3288    0.0000 C   0  0  0  0  0  0  0  0  0  0  0  0
    8.5341   -4.1268    0.0000 C   0  0  0  0  0  0  0  0  0  0  0  0
    9.2553   -5.3689    0.0000 C   0  0  0  0  0  0  0  0  0  0  0  0
   11.3387   -4.1268    0.0000 C   0  0  0  0  0  0  0  0  0  0  0  0
   11.3387   -4.9281    0.0000 C   0  0  0  0  0  0  0  0  0  0  0  0
    8.5341   -4.9281    0.0000 C   0  0  0  0  0  0  0  0  0  0  0  0
    7.8129   -3.7261    0.0000 C   0  0  0  0  0  0  0  0  0  0  0  0
   11.3387   -2.4441    0.0000 C   0  0  0  0  0  0  0  0  0  0  0  0
   11.2987   -1.6427    0.0000 C   0  0  0  0  0  0  0  0  0  0  0  0
    7.0917   -4.1268    0.0000 C   0  0  0  0  0  0  0  0  0  0  0  0
   12.0199   -1.2420    0.0000 C   0  0  0  0  0  0  0  0  0  0  0  0
   10.6176   -1.2420    0.0000 C   0  0  0  0  0  0  0  0  0  0  0  0
   12.0199   -0.4007    0.0000 C   0  0  0  0  0  0  0  0  0  0  0  0
   10.5775   -0.4407    0.0000 C   0  0  0  0  0  0  0  0  0  0  0  0
    6.3705   -3.7261    0.0000 C   0  0  0  0  0  0  0  0  0  0  0  0
   11.2987    0.0000    0.0000 C   0  0  0  0  0  0  0  0  0  0  0  0
    5.6894   -4.1268    0.0000 C   0  0  0  0  0  0  0  0  0  0  0  0
    4.9682   -3.7261    0.0000 C   0  0  0  0  0  0  0  0  0  0  0  0
    4.2470   -4.1268    0.0000 C   0  0  0  0  0  0  0  0  0  0  0  0
    3.5258   -3.7261    0.0000 C   0  0  0  0  0  0  0  0  0  0  0  0
    2.8447   -4.1268    0.0000 C   0  0  0  0  0  0  0  0  0  0  0  0
    2.1235   -3.7261    0.0000 C   0  0  0  0  0  0  0  0  0  0  0  0
    1.4023   -4.1268    0.0000 C   0  0  0  0  0  0  0  0  0  0  0  0
    0.7212   -3.7261    0.0000 C   0  0  0  0  0  0  0  0  0  0  0  0
  1  8  1  0  0  0  0
  2  7  1  0  0  0  0
  2 15  1  0  0  0  0
  3 31  1  0  0  0  0
  4  5  2  0  0  0  0
  4  9  1  0  0  0  0
  5  6  1  0  0  0  0
  5  7  1  0  0  0  0
  6  8  1  0  0  0  0
  6 10  2  0  0  0  0
  7 11  2  0  0  0  0
  8 12  2  0  0  0  0
  9 13  2  0  0  0  0
  9 14  1  0  0  0  0
 10 13  1  0  0  0  0
 11 12  1  0  0  0  0
 14 17  1  0  0  0  0
 15 16  1  0  0  0  0
 16 18  2  0  0  0  0
 16 19  1  0  0  0  0
 17 22  1  0  0  0  0
 18 20  1  0  0  0  0
 19 21  2  0  0  0  0
 20 23  2  0  0  0  0
 21 23  1  0  0  0  0
 22 24  1  0  0  0  0
 24 25  1  0  0  0  0
 25 26  1  0  0  0  0
 26 27  1  0  0  0  0
 27 28  1  0  0  0  0
 28 29  1  0  0  0  0
 29 30  1  0  0  0  0
 30 31  1  0  0  0  0
M  END
> <PUBCHEM_COMPOUND_ID_TYPE>
0

> <PUBCHEM_TOTAL_CHARGE>
0

> <PUBCHEM_SUBSTANCE_ID>
310929457

> <PUBCHEM_SUBSTANCE_VERSION>
1

> <PUBCHEM_EXT_DATASOURCE_NAME>
4488

> <PUBCHEM_EXT_DATASOURCE_REGID>
SCHEMBL16106631

> <PUBCHEM_SUBSTANCE_COMMENT>
InChI=1S/C27H34ClNO2/c28-25-18-19-26(31-21-22-13-9-8-10-14-22)27-24(25)17-16-23(29-27)15-11-6-4-2-1-3-5-7-12-20-30/h8-10,13-14,16-19,30H,1-7,11-12,15,20-21H2
InChIKey=IXVFETHYNWFHOK-UHFFFAOYSA-N

> <PUBCHEM_SUBSTANCE_SYNONYM>
SCHEMBL16106631

> <PUBCHEM_XREF_EXT_ID>
SCHEMBL16106631

> <PUBCHEM_EXT_DATASOURCE_URL>
https://www.surechembl.org/

> <PUBCHEM_EXT_SUBSTANCE_URL>
https://www.surechembl.org/chemical/SCHEMBL16106631

> <PUBCHEM_CID_ASSOCIATIONS>
86299863  1

> <PUBCHEM_COORDINATE_TYPE>
1
3

$$$$
