310942892
  -OEChem-07211613022D

 38 40  0     0  0  0  0  0  0999 V2000
    1.4822    0.2006    0.0000 Cl  0  0  0  0  0  0  0  0  0  0  0  0
   -3.1094    2.6970    0.0000 Cl  0  0  0  0  0  0  0  0  0  0  0  0
    2.9756    2.6525    0.0000 S   0  0  0  0  0  0  0  0  0  0  0  0
    4.5136    1.8277    0.0000 S   0  0  0  0  0  0  0  0  0  0  0  0
    1.5491    3.4994    0.0000 F   0  0  0  0  0  0  0  0  0  0  0  0
    0.0557    1.0476    0.0000 O   0  0  0  0  0  0  0  0  0  0  0  0
    3.3768    1.9391    0.0000 O   0  0  0  0  0  0  0  0  0  0  0  0
    2.5521    3.3880    0.0000 O   0  0  0  0  0  0  0  0  0  0  0  0
   -4.2907   -1.4265    0.0000 O   0  0  0  0  0  0  0  0  0  0  0  0
   -3.5551   -0.2006    0.0000 O   0  0  0  0  0  0  0  0  0  0  0  0
   -2.1286   -3.4994    0.0000 O   0  0  0  0  0  0  0  0  0  0  0  0
   -1.3931   -2.2512    0.0000 O   0  0  0  0  0  0  0  0  0  0  0  0
    3.7112    3.0537    0.0000 N   0  0  0  0  0  0  0  0  0  0  0  0
    5.1823    2.9867    0.0000 N   0  0  0  0  0  0  0  0  0  0  0  0
   -2.8196   -1.4265    0.0000 N   0  0  0  0  0  0  0  0  0  0  0  0
    2.2401    2.2735    0.0000 C   0  0  0  0  0  0  0  0  0  0  0  0
    1.5268    2.6970    0.0000 C   0  0  0  0  0  0  0  0  0  0  0  0
    0.7913    1.4711    0.0000 C   0  0  0  0  0  0  0  0  0  0  0  0
    1.5045    1.0476    0.0000 C   0  0  0  0  0  0  0  0  0  0  0  0
    2.2178    1.4265    0.0000 C   0  0  0  0  0  0  0  0  0  0  0  0
    0.8136    2.2735    0.0000 C   0  0  0  0  0  0  0  0  0  0  0  0
   -0.6798    1.4711    0.0000 C   0  0  0  0  0  0  0  0  0  0  0  0
    4.4244    2.6525    0.0000 C   0  0  0  0  0  0  0  0  0  0  0  0
   -1.3708    1.0699    0.0000 C   0  0  0  0  0  0  0  0  0  0  0  0
   -0.6798    2.2958    0.0000 C   0  0  0  0  0  0  0  0  0  0  0  0
   -2.0841    1.4711    0.0000 C   0  0  0  0  0  0  0  0  0  0  0  0
   -2.1063    2.2958    0.0000 C   0  0  0  0  0  0  0  0  0  0  0  0
   -1.4154    0.2006    0.0000 C   0  0  0  0  0  0  0  0  0  0  0  0
   -1.3931    2.6970    0.0000 C   0  0  0  0  0  0  0  0  0  0  0  0
    5.3383    1.6717    0.0000 C   0  0  0  0  0  0  0  0  0  0  0  0
    5.7395    2.4073    0.0000 C   0  0  0  0  0  0  0  0  0  0  0  0
   -2.0841   -0.1783    0.0000 C   0  0  0  0  0  0  0  0  0  0  0  0
   -2.1286   -1.0253    0.0000 C   0  0  0  0  0  0  0  0  0  0  0  0
   -3.5774   -1.0253    0.0000 C   0  0  0  0  0  0  0  0  0  0  0  0
   -2.8419   -2.2512    0.0000 C   0  0  0  0  0  0  0  0  0  0  0  0
   -2.1063   -2.6302    0.0000 C   0  0  0  0  0  0  0  0  0  0  0  0
   -5.0262   -1.0253    0.0000 C   0  0  0  0  0  0  0  0  0  0  0  0
   -5.7395   -1.4265    0.0000 C   0  0  0  0  0  0  0  0  0  0  0  0
  1 19  1  0  0  0  0
  2 27  1  0  0  0  0
  3  7  2  0  0  0  0
  3  8  2  0  0  0  0
  3 13  1  0  0  0  0
  3 16  1  0  0  0  0
  4 23  1  0  0  0  0
  4 30  1  0  0  0  0
  5 17  1  0  0  0  0
  6 18  1  0  0  0  0
  6 22  1  0  0  0  0
  9 34  1  0  0  0  0
  9 37  1  0  0  0  0
 10 34  2  0  0  0  0
 11 36  2  0  0  0  0
 12 36  1  0  0  0  0
 13 23  1  0  0  0  0
 14 23  2  0  0  0  0
 14 31  1  0  0  0  0
 15 33  1  0  0  0  0
 15 34  1  0  0  0  0
 15 35  1  0  0  0  0
 16 17  1  0  0  0  0
 16 20  2  0  0  0  0
 17 21  2  0  0  0  0
 18 19  2  0  0  0  0
 18 21  1  0  0  0  0
 19 20  1  0  0  0  0
 22 24  1  0  0  0  0
 22 25  2  0  0  0  0
 24 26  2  0  0  0  0
 24 28  1  0  0  0  0
 25 29  1  0  0  0  0
 26 27  1  0  0  0  0
 27 29  2  0  0  0  0
 28 32  1  0  0  0  0
 30 31  2  0  0  0  0
 32 33  1  0  0  0  0
 35 36  1  0  0  0  0
 37 38  1  0  0  0  0
M  END
> <PUBCHEM_COMPOUND_ID_TYPE>
0

> <PUBCHEM_TOTAL_CHARGE>
0

> <PUBCHEM_SUBSTANCE_ID>
310942892

> <PUBCHEM_SUBSTANCE_VERSION>
1

> <PUBCHEM_EXT_DATASOURCE_NAME>
4488

> <PUBCHEM_EXT_DATASOURCE_REGID>
SCHEMBL16120950

> <PUBCHEM_SUBSTANCE_COMMENT>
InChI=1S/C23H22Cl2FN3O7S2/c1-2-35-23(32)29(13-21(30)31)8-3-4-14-10-15(24)5-6-18(14)36-19-12-17(26)20(11-16(19)25)38(33,34)28-22-27-7-9-37-22/h5-7,9-12H,2-4,8,13H2,1H3,(H,27,28)(H,30,31)
InChIKey=RBWHPUWZFKHHPD-UHFFFAOYSA-N

> <PUBCHEM_SUBSTANCE_SYNONYM>
SCHEMBL16120950

> <PUBCHEM_XREF_EXT_ID>
SCHEMBL16120950

> <PUBCHEM_EXT_DATASOURCE_URL>
https://www.surechembl.org/

> <PUBCHEM_EXT_SUBSTANCE_URL>
https://www.surechembl.org/chemical/SCHEMBL16120950

> <PUBCHEM_CID_ASSOCIATIONS>
117609378  1

> <PUBCHEM_COORDINATE_TYPE>
1
3

$$$$
