310948030
  -OEChem-07211613022D

  9  8  0     1  0  0  0  0  0999 V2000
   -2.1496    0.6124    0.0000 I   0  0  0  0  0  0  0  0  0  0  0  0
   -1.4248    0.2125    0.0000 C   0  0  3  0  0  0  0  0  0  0  0  0
   -0.7124    0.6249    0.0000 C   0  0  0  0  0  0  0  0  0  0  0  0
    0.0125    0.2000    0.0000 C   0  0  0  0  0  0  0  0  0  0  0  0
    0.7374    0.6249    0.0000 C   0  0  0  0  0  0  0  0  0  0  0  0
    1.4498    0.2125    0.0000 C   0  0  0  0  0  0  0  0  0  0  0  0
   -1.4372   -0.6124    0.0000 C   0  0  0  0  0  0  0  0  0  0  0  0
    2.1496    0.6124    0.0000 C   0  0  0  0  0  0  0  0  0  0  0  0
    1.4622   -0.6249    0.0000 C   0  0  0  0  0  0  0  0  0  0  0  0
  2  1  1  6  0  0  0
  2  3  1  0  0  0  0
  2  7  1  0  0  0  0
  3  4  1  0  0  0  0
  4  5  1  0  0  0  0
  5  6  1  0  0  0  0
  6  8  1  0  0  0  0
  6  9  1  0  0  0  0
M  END
> <PUBCHEM_COMPOUND_ID_TYPE>
0

> <PUBCHEM_TOTAL_CHARGE>
0

> <PUBCHEM_SUBSTANCE_ID>
310948030

> <PUBCHEM_SUBSTANCE_VERSION>
1

> <PUBCHEM_EXT_DATASOURCE_NAME>
4488

> <PUBCHEM_EXT_DATASOURCE_REGID>
SCHEMBL16126205

> <PUBCHEM_SUBSTANCE_COMMENT>
InChI=1S/C8H17I/c1-7(2)5-4-6-8(3)9/h7-8H,4-6H2,1-3H3/t8-/m0/s1
InChIKey=DHRDZCFILBUNCW-QMMMGPOBSA-N

> <PUBCHEM_SUBSTANCE_SYNONYM>
SCHEMBL16126205

> <PUBCHEM_XREF_EXT_ID>
SCHEMBL16126205

> <PUBCHEM_EXT_DATASOURCE_URL>
https://www.surechembl.org/

> <PUBCHEM_EXT_SUBSTANCE_URL>
https://www.surechembl.org/chemical/SCHEMBL16126205

> <PUBCHEM_CID_ASSOCIATIONS>
117613665  1

> <PUBCHEM_COORDINATE_TYPE>
1
3

> <PUBCHEM_BONDANNOTATIONS>
2  1  6

$$$$
