310932464
  -OEChem-07211613022D

 33 37  0     0  0  0  0  0  0999 V2000
    3.5690   -2.4785    0.0000 O   0  0  0  0  0  0  0  0  0  0  0  0
    3.5690   -0.8427    0.0000 O   0  0  0  0  0  0  0  0  0  0  0  0
    0.7435   -8.2781    0.0000 O   0  0  0  0  0  0  0  0  0  0  0  0
    0.7435   -3.2716    0.0000 N   0  0  0  0  0  0  0  0  0  0  0  0
    0.0000   -2.0819    0.0000 N   0  0  0  0  0  0  0  0  0  0  0  0
    0.7435   -0.8427    0.0000 N   0  0  0  0  0  0  0  0  0  0  0  0
    0.7435   -4.9570    0.0000 N   0  0  0  0  0  0  0  0  0  0  0  0
    0.0496   -6.1962    0.0000 N   0  0  0  0  0  0  0  0  0  0  0  0
    1.4375   -6.1962    0.0000 N   0  0  0  0  0  0  0  0  0  0  0  0
    1.4375   -2.0819    0.0000 C   0  0  0  0  0  0  0  0  0  0  0  0
    0.7435   -2.4785    0.0000 C   0  0  0  0  0  0  0  0  0  0  0  0
    1.4375   -1.2393    0.0000 C   0  0  0  0  0  0  0  0  0  0  0  0
    2.1315   -2.4785    0.0000 C   0  0  0  0  0  0  0  0  0  0  0  0
    2.8750   -2.0819    0.0000 C   0  0  0  0  0  0  0  0  0  0  0  0
    2.8750   -1.2393    0.0000 C   0  0  0  0  0  0  0  0  0  0  0  0
    2.1315   -0.8427    0.0000 C   0  0  0  0  0  0  0  0  0  0  0  0
    0.0000   -3.7177    0.0000 C   0  0  0  0  0  0  0  0  0  0  0  0
    1.4375   -3.7177    0.0000 C   0  0  0  0  0  0  0  0  0  0  0  0
    0.0000   -1.2393    0.0000 C   0  0  0  0  0  0  0  0  0  0  0  0
    0.7435   -5.7501    0.0000 C   0  0  0  0  0  0  0  0  0  0  0  0
    1.4375   -4.5108    0.0000 C   0  0  0  0  0  0  0  0  0  0  0  0
    0.0000   -4.5108    0.0000 C   0  0  0  0  0  0  0  0  0  0  0  0
    0.7435   -7.4354    0.0000 C   0  0  0  0  0  0  0  0  0  0  0  0
    0.0496   -6.9893    0.0000 C   0  0  0  0  0  0  0  0  0  0  0  0
    1.4375   -6.9893    0.0000 C   0  0  0  0  0  0  0  0  0  0  0  0
    1.4375   -8.6747    0.0000 C   0  0  0  0  0  0  0  0  0  0  0  0
    4.3125   -2.0324    0.0000 C   0  0  0  0  0  0  0  0  0  0  0  0
    3.5690    0.0000    0.0000 C   0  0  0  0  0  0  0  0  0  0  0  0
    1.4375   -9.5173    0.0000 C   0  0  0  0  0  0  0  0  0  0  0  0
    2.1810   -8.2781    0.0000 C   0  0  0  0  0  0  0  0  0  0  0  0
    2.1810   -9.9139    0.0000 C   0  0  0  0  0  0  0  0  0  0  0  0
    2.8750   -8.6747    0.0000 C   0  0  0  0  0  0  0  0  0  0  0  0
    2.8750   -9.5173    0.0000 C   0  0  0  0  0  0  0  0  0  0  0  0
  1 14  1  0  0  0  0
  1 27  1  0  0  0  0
  2 15  1  0  0  0  0
  2 28  1  0  0  0  0
  3 23  1  0  0  0  0
  3 26  1  0  0  0  0
  4 11  1  0  0  0  0
  4 17  1  0  0  0  0
  4 18  1  0  0  0  0
  5 11  1  0  0  0  0
  5 19  2  0  0  0  0
  6 12  2  0  0  0  0
  6 19  1  0  0  0  0
  7 20  1  0  0  0  0
  7 21  1  0  0  0  0
  7 22  1  0  0  0  0
  8 20  2  0  0  0  0
  8 24  1  0  0  0  0
  9 20  1  0  0  0  0
  9 25  2  0  0  0  0
 10 11  2  0  0  0  0
 10 12  1  0  0  0  0
 10 13  1  0  0  0  0
 12 16  1  0  0  0  0
 13 14  2  0  0  0  0
 14 15  1  0  0  0  0
 15 16  2  0  0  0  0
 17 22  1  0  0  0  0
 18 21  1  0  0  0  0
 23 24  2  0  0  0  0
 23 25  1  0  0  0  0
 26 29  2  0  0  0  0
 26 30  1  0  0  0  0
 29 31  1  0  0  0  0
 30 32  2  0  0  0  0
 31 33  2  0  0  0  0
 32 33  1  0  0  0  0
M  END
> <PUBCHEM_COMPOUND_ID_TYPE>
0

> <PUBCHEM_TOTAL_CHARGE>
0

> <PUBCHEM_SUBSTANCE_ID>
310932464

> <PUBCHEM_SUBSTANCE_VERSION>
1

> <PUBCHEM_EXT_DATASOURCE_NAME>
4488

> <PUBCHEM_EXT_DATASOURCE_REGID>
SCHEMBL16109836

> <PUBCHEM_SUBSTANCE_COMMENT>
InChI=1S/C24H24N6O3/c1-31-21-12-19-20(13-22(21)32-2)27-16-28-23(19)29-8-10-30(11-9-29)24-25-14-18(15-26-24)33-17-6-4-3-5-7-17/h3-7,12-16H,8-11H2,1-2H3
InChIKey=VAEKUUDNEHTLQJ-UHFFFAOYSA-N

> <PUBCHEM_SUBSTANCE_SYNONYM>
SCHEMBL16109836

> <PUBCHEM_XREF_EXT_ID>
SCHEMBL16109836

> <PUBCHEM_EXT_DATASOURCE_URL>
https://www.surechembl.org/

> <PUBCHEM_EXT_SUBSTANCE_URL>
https://www.surechembl.org/chemical/SCHEMBL16109836

> <PUBCHEM_CID_ASSOCIATIONS>
117601005  1

> <PUBCHEM_COORDINATE_TYPE>
1
3

$$$$
