310946363
  -OEChem-07211613022D

 22 23  0     1  0  0  0  0  0999 V2000
   -1.2300  -12.7894    0.0000 I   0  0  0  0  0  0  0  0  0  0  0  0
    0.1990  -10.3144    0.0000 I   0  0  0  0  0  0  0  0  0  0  0  0
   -4.0879  -11.1394    0.0000 I   0  0  0  0  0  0  0  0  0  0  0  0
   -1.2300  -11.1394    0.0000 O   0  0  0  0  0  0  0  0  0  0  0  0
   -4.0879  -12.7894    0.0000 O   0  0  0  0  0  0  0  0  0  0  0  0
    2.3424  -11.5519    0.0000 N   0  0  0  0  0  0  0  0  0  0  0  0
   -0.5155  -11.5519    0.0000 C   0  0  0  0  0  0  0  0  0  0  0  0
   -0.5155  -12.3769    0.0000 C   0  0  0  0  0  0  0  0  0  0  0  0
    0.1990  -11.1394    0.0000 C   0  0  0  0  0  0  0  0  0  0  0  0
   -1.9444  -11.5519    0.0000 C   0  0  0  0  0  0  0  0  0  0  0  0
    0.9134  -12.3769    0.0000 C   0  0  0  0  0  0  0  0  0  0  0  0
    0.1990  -12.7894    0.0000 C   0  0  0  0  0  0  0  0  0  0  0  0
    0.9134  -11.5519    0.0000 C   0  0  0  0  0  0  0  0  0  0  0  0
   -2.6589  -11.1394    0.0000 C   0  0  0  0  0  0  0  0  0  0  0  0
   -3.3734  -11.5519    0.0000 C   0  0  0  0  0  0  0  0  0  0  0  0
   -1.9444  -12.3769    0.0000 C   0  0  0  0  0  0  0  0  0  0  0  0
   -3.3734  -12.3769    0.0000 C   0  0  0  0  0  0  0  0  0  0  0  0
    1.6279  -12.7894    0.0000 C   0  0  0  0  0  0  0  0  0  0  0  0
   -2.6589  -12.7894    0.0000 C   0  0  0  0  0  0  0  0  0  0  0  0
    2.3424  -12.3769    0.0000 C   0  0  3  0  0  0  0  0  0  0  0  0
    3.0569  -12.7894    0.0000 C   0  0  0  0  0  0  0  0  0  0  0  0
    3.7713  -12.3769    0.0000 C   0  0  0  0  0  0  0  0  0  0  0  0
  1  8  1  0  0  0  0
  2  9  1  0  0  0  0
  3 15  1  0  0  0  0
  4  7  1  0  0  0  0
  4 10  1  0  0  0  0
  5 17  1  0  0  0  0
 20  6  1  6  0  0  0
  7  8  2  0  0  0  0
  7  9  1  0  0  0  0
  8 12  1  0  0  0  0
  9 13  2  0  0  0  0
 10 14  2  0  0  0  0
 10 16  1  0  0  0  0
 11 12  2  0  0  0  0
 11 13  1  0  0  0  0
 11 18  1  0  0  0  0
 14 15  1  0  0  0  0
 15 17  2  0  0  0  0
 16 19  2  0  0  0  0
 17 19  1  0  0  0  0
 18 20  1  0  0  0  0
 20 21  1  0  0  0  0
 21 22  1  0  0  0  0
M  END
> <PUBCHEM_COMPOUND_ID_TYPE>
0

> <PUBCHEM_TOTAL_CHARGE>
0

> <PUBCHEM_SUBSTANCE_ID>
310946363

> <PUBCHEM_SUBSTANCE_VERSION>
1

> <PUBCHEM_EXT_DATASOURCE_NAME>
4488

> <PUBCHEM_EXT_DATASOURCE_REGID>
SCHEMBL16124482

> <PUBCHEM_SUBSTANCE_COMMENT>
InChI=1S/C16H16I3NO2/c1-2-10(20)5-9-6-13(18)16(14(19)7-9)22-11-3-4-15(21)12(17)8-11/h3-4,6-8,10,21H,2,5,20H2,1H3/t10-/m1/s1
InChIKey=NCIVEZKZDVKLPF-SNVBAGLBSA-N

> <PUBCHEM_SUBSTANCE_SYNONYM>
SCHEMBL16124482

> <PUBCHEM_XREF_EXT_ID>
SCHEMBL16124482

> <PUBCHEM_EXT_DATASOURCE_URL>
https://www.surechembl.org/

> <PUBCHEM_EXT_SUBSTANCE_URL>
https://www.surechembl.org/chemical/SCHEMBL16124482

> <PUBCHEM_CID_ASSOCIATIONS>
117612285  1

> <PUBCHEM_COORDINATE_TYPE>
1
3

> <PUBCHEM_BONDANNOTATIONS>
20  6  6

$$$$
