310946910
  -OEChem-07211613022D

 31 34  0     0  0  0  0  0  0999 V2000
   -2.6077   -0.2324    0.0000 O   0  0  0  0  0  0  0  0  0  0  0  0
    0.6507    6.6957    0.0000 O   0  0  0  0  0  0  0  0  0  0  0  0
   -3.6181   -1.2428    0.0000 O   0  0  0  0  0  0  0  0  0  0  0  0
   -0.5868    3.1233    0.0000 N   0  0  0  0  0  0  0  0  0  0  0  0
   -1.0718    2.4559    0.0000 N   0  0  0  0  0  0  0  0  0  0  0  0
    1.6267    2.0434    0.0000 N   0  0  0  0  0  0  0  0  0  0  0  0
    0.9123    0.8059    0.0000 N   0  0  0  0  0  0  0  0  0  0  0  0
   -0.2170    0.4082    0.0000 N   0  0  0  0  0  0  0  0  0  0  0  0
   -1.2274   -0.6022    0.0000 N   0  0  0  0  0  0  0  0  0  0  0  0
    0.1978    2.0434    0.0000 C   0  0  0  0  0  0  0  0  0  0  0  0
   -0.5868    1.7884    0.0000 C   0  0  0  0  0  0  0  0  0  0  0  0
    0.1978    2.8684    0.0000 C   0  0  0  0  0  0  0  0  0  0  0  0
    0.9123    1.6309    0.0000 C   0  0  0  0  0  0  0  0  0  0  0  0
   -0.8004    0.9915    0.0000 C   0  0  0  0  0  0  0  0  0  0  0  0
    0.9123    3.2809    0.0000 C   0  0  0  0  0  0  0  0  0  0  0  0
   -0.9993    3.8378    0.0000 C   0  0  0  0  0  0  0  0  0  0  0  0
   -1.5972    0.7780    0.0000 C   0  0  0  0  0  0  0  0  0  0  0  0
    1.6267    2.8684    0.0000 C   0  0  0  0  0  0  0  0  0  0  0  0
   -0.5868    4.5523    0.0000 C   0  0  0  0  0  0  0  0  0  0  0  0
   -1.8108   -0.0189    0.0000 C   0  0  0  0  0  0  0  0  0  0  0  0
   -0.4305   -0.3887    0.0000 C   0  0  0  0  0  0  0  0  0  0  0  0
    1.6267    0.3934    0.0000 C   0  0  0  0  0  0  0  0  0  0  0  0
    0.2382    4.5523    0.0000 C   0  0  0  0  0  0  0  0  0  0  0  0
   -0.9993    5.2667    0.0000 C   0  0  0  0  0  0  0  0  0  0  0  0
    0.6507    5.2667    0.0000 C   0  0  0  0  0  0  0  0  0  0  0  0
   -0.5868    5.9812    0.0000 C   0  0  0  0  0  0  0  0  0  0  0  0
    0.2382    5.9812    0.0000 C   0  0  0  0  0  0  0  0  0  0  0  0
    1.6267   -0.4316    0.0000 C   0  0  0  0  0  0  0  0  0  0  0  0
    2.3412    0.8059    0.0000 C   0  0  0  0  0  0  0  0  0  0  0  0
   -2.8212   -1.0293    0.0000 C   0  0  0  0  0  0  0  0  0  0  0  0
    0.2382    7.4101    0.0000 C   0  0  0  0  0  0  0  0  0  0  0  0
  1 20  1  0  0  0  0
  1 30  1  0  0  0  0
  2 27  1  0  0  0  0
  2 31  1  0  0  0  0
  3 30  2  0  0  0  0
  4  5  1  0  0  0  0
  4 12  1  0  0  0  0
  4 16  1  0  0  0  0
  5 11  2  0  0  0  0
  6 13  2  0  0  0  0
  6 18  1  0  0  0  0
  7 13  1  0  0  0  0
  7 22  1  0  0  0  0
  8 14  1  0  0  0  0
  8 21  2  0  0  0  0
  9 20  2  0  0  0  0
  9 21  1  0  0  0  0
 10 11  1  0  0  0  0
 10 12  2  0  0  0  0
 10 13  1  0  0  0  0
 11 14  1  0  0  0  0
 12 15  1  0  0  0  0
 14 17  2  0  0  0  0
 15 18  2  0  0  0  0
 16 19  1  0  0  0  0
 17 20  1  0  0  0  0
 19 23  2  0  0  0  0
 19 24  1  0  0  0  0
 22 28  1  0  0  0  0
 22 29  1  0  0  0  0
 23 25  1  0  0  0  0
 24 26  2  0  0  0  0
 25 27  2  0  0  0  0
 26 27  1  0  0  0  0
M  END
> <PUBCHEM_COMPOUND_ID_TYPE>
0

> <PUBCHEM_TOTAL_CHARGE>
0

> <PUBCHEM_SUBSTANCE_ID>
310946910

> <PUBCHEM_SUBSTANCE_VERSION>
1

> <PUBCHEM_EXT_DATASOURCE_NAME>
4488

> <PUBCHEM_EXT_DATASOURCE_REGID>
SCHEMBL16125034

> <PUBCHEM_SUBSTANCE_COMMENT>
InChI=1S/C22H22N6O3/c1-14(2)26-22-20-18(8-9-23-22)28(11-15-4-6-16(30-3)7-5-15)27-21(20)17-10-19(31-13-29)25-12-24-17/h4-10,12-14H,11H2,1-3H3,(H,23,26)
InChIKey=AETROKGGZSGOGJ-UHFFFAOYSA-N

> <PUBCHEM_SUBSTANCE_SYNONYM>
SCHEMBL16125034

> <PUBCHEM_XREF_EXT_ID>
SCHEMBL16125034

> <PUBCHEM_EXT_DATASOURCE_URL>
https://www.surechembl.org/

> <PUBCHEM_EXT_SUBSTANCE_URL>
https://www.surechembl.org/chemical/SCHEMBL16125034

> <PUBCHEM_CID_ASSOCIATIONS>
117612768  1

> <PUBCHEM_COORDINATE_TYPE>
1
3

$$$$
