310943308
  -OEChem-07211613022D

 34 37  0     0  0  0  0  0  0999 V2000
    3.8867    0.3018    0.0000 F   0  0  0  0  0  0  0  0  0  0  0  0
    4.7111    0.3018    0.0000 F   0  0  0  0  0  0  0  0  0  0  0  0
   -3.5775   -0.8465    0.0000 O   0  0  0  0  0  0  0  0  0  0  0  0
    0.7214   -0.8465    0.0000 O   0  0  0  0  0  0  0  0  0  0  0  0
   -5.0203    1.6415    0.0000 O   0  0  0  0  0  0  0  0  0  0  0  0
   -2.1495   -0.8318    0.0000 N   0  0  0  0  0  0  0  0  0  0  0  0
   -3.5922    0.8171    0.0000 N   0  0  0  0  0  0  0  0  0  0  0  0
    0.0000    2.0684    0.0000 N   0  0  0  0  0  0  0  0  0  0  0  0
    1.4281    0.4048    0.0000 N   0  0  0  0  0  0  0  0  0  0  0  0
    3.5775   -1.6709    0.0000 N   0  0  0  0  0  0  0  0  0  0  0  0
   -1.4281    0.4048    0.0000 C   0  0  0  0  0  0  0  0  0  0  0  0
   -0.7361    0.8318    0.0000 C   0  0  0  0  0  0  0  0  0  0  0  0
   -2.8561    0.4048    0.0000 C   0  0  0  0  0  0  0  0  0  0  0  0
   -2.8561   -0.4048    0.0000 C   0  0  0  0  0  0  0  0  0  0  0  0
   -2.1641    0.8171    0.0000 C   0  0  0  0  0  0  0  0  0  0  0  0
   -1.4427   -0.4196    0.0000 C   0  0  0  0  0  0  0  0  0  0  0  0
   -0.7066    1.6563    0.0000 C   0  0  0  0  0  0  0  0  0  0  0  0
    0.0147    0.4196    0.0000 C   0  0  0  0  0  0  0  0  0  0  0  0
    0.7066    0.8318    0.0000 C   0  0  0  0  0  0  0  0  0  0  0  0
    2.1495   -0.8318    0.0000 C   0  0  0  0  0  0  0  0  0  0  0  0
    1.4427   -0.4048    0.0000 C   0  0  0  0  0  0  0  0  0  0  0  0
    3.5922   -0.8318    0.0000 C   0  0  0  0  0  0  0  0  0  0  0  0
    0.7214    1.6563    0.0000 C   0  0  0  0  0  0  0  0  0  0  0  0
    4.2988   -0.4048    0.0000 C   0  0  0  0  0  0  0  0  0  0  0  0
    2.8561   -0.4196    0.0000 C   0  0  0  0  0  0  0  0  0  0  0  0
   -3.5922    1.6563    0.0000 C   0  0  0  0  0  0  0  0  0  0  0  0
   -4.2842    0.4196    0.0000 C   0  0  0  0  0  0  0  0  0  0  0  0
    2.1495   -1.6563    0.0000 C   0  0  0  0  0  0  0  0  0  0  0  0
   -2.1347   -1.6857    0.0000 C   0  0  0  0  0  0  0  0  0  0  0  0
   -1.4427    2.0538    0.0000 C   0  0  0  0  0  0  0  0  0  0  0  0
    2.8856   -2.0684    0.0000 C   0  0  0  0  0  0  0  0  0  0  0  0
   -4.2988    2.0684    0.0000 C   0  0  0  0  0  0  0  0  0  0  0  0
   -5.0203    0.8318    0.0000 C   0  0  0  0  0  0  0  0  0  0  0  0
    5.0203   -0.8465    0.0000 C   0  0  0  0  0  0  0  0  0  0  0  0
  1 24  1  0  0  0  0
  2 24  1  0  0  0  0
  3 14  2  0  0  0  0
  4 21  2  0  0  0  0
  5 32  1  0  0  0  0
  5 33  1  0  0  0  0
  6 14  1  0  0  0  0
  6 16  1  0  0  0  0
  6 29  1  0  0  0  0
  7 13  1  0  0  0  0
  7 26  1  0  0  0  0
  7 27  1  0  0  0  0
  8 17  1  0  0  0  0
  8 23  2  0  0  0  0
  9 19  1  0  0  0  0
  9 21  1  0  0  0  0
 10 22  1  0  0  0  0
 10 31  2  0  0  0  0
 11 12  1  0  0  0  0
 11 15  1  0  0  0  0
 11 16  2  0  0  0  0
 12 17  2  0  0  0  0
 12 18  1  0  0  0  0
 13 14  1  0  0  0  0
 13 15  2  0  0  0  0
 17 30  1  0  0  0  0
 18 19  2  0  0  0  0
 19 23  1  0  0  0  0
 20 21  1  0  0  0  0
 20 25  1  0  0  0  0
 20 28  2  0  0  0  0
 22 24  1  0  0  0  0
 22 25  2  0  0  0  0
 24 34  1  0  0  0  0
 26 32  1  0  0  0  0
 27 33  1  0  0  0  0
 28 31  1  0  0  0  0
M  END
> <PUBCHEM_COMPOUND_ID_TYPE>
0

> <PUBCHEM_TOTAL_CHARGE>
0

> <PUBCHEM_SUBSTANCE_ID>
310943308

> <PUBCHEM_SUBSTANCE_VERSION>
1

> <PUBCHEM_EXT_DATASOURCE_NAME>
4488

> <PUBCHEM_EXT_DATASOURCE_REGID>
SCHEMBL16121370

> <PUBCHEM_SUBSTANCE_COMMENT>
InChI=1S/C24H25F2N5O3/c1-15-19(17-10-20(23(33)30(3)14-17)31-6-8-34-9-7-31)12-18(13-28-15)29-22(32)16-4-5-27-21(11-16)24(2,25)26/h4-5,10-14H,6-9H2,1-3H3,(H,29,32)
InChIKey=WXVATTKHRVNCKR-UHFFFAOYSA-N

> <PUBCHEM_SUBSTANCE_SYNONYM>
SCHEMBL16121370

> <PUBCHEM_XREF_EXT_ID>
SCHEMBL16121370

> <PUBCHEM_EXT_DATASOURCE_URL>
https://www.surechembl.org/

> <PUBCHEM_EXT_SUBSTANCE_URL>
https://www.surechembl.org/chemical/SCHEMBL16121370

> <PUBCHEM_CID_ASSOCIATIONS>
117609733  1

> <PUBCHEM_COORDINATE_TYPE>
1
3

$$$$
