310933352
  -OEChem-07211613022D

 21 23  0     0  0  0  0  0  0999 V2000
    1.5180   -1.3683    0.0000 I   0  0  0  0  0  0  0  0  0  0  0  0
    5.7085   -1.0904    0.0000 O   0  0  0  0  0  0  0  0  0  0  0  0
    3.6774   -4.2760    0.0000 O   0  5  0  0  0  0  0  0  0  0  0  0
    2.2449   -4.2760    0.0000 O   0  0  0  0  0  0  0  0  0  0  0  0
    1.5394   -3.0359    0.0000 N   0  0  0  0  0  0  0  0  0  0  0  0
    2.9718   -3.8698    0.0000 N   0  3  0  0  0  0  0  0  0  0  0  0
    5.3023   -0.3635    0.0000 N   0  0  0  0  0  0  0  0  0  0  0  0
    3.6774   -1.7959    0.0000 C   0  0  0  0  0  0  0  0  0  0  0  0
    4.4043   -1.3683    0.0000 C   0  0  0  0  0  0  0  0  0  0  0  0
    2.2449   -2.6084    0.0000 C   0  0  0  0  0  0  0  0  0  0  0  0
    2.9718   -3.0359    0.0000 C   0  0  0  0  0  0  0  0  0  0  0  0
    2.2449   -1.7959    0.0000 C   0  0  0  0  0  0  0  0  0  0  0  0
    3.6774   -2.6084    0.0000 C   0  0  0  0  0  0  0  0  0  0  0  0
    2.9718   -1.3683    0.0000 C   0  0  0  0  0  0  0  0  0  0  0  0
    5.1740   -1.7104    0.0000 C   0  0  0  0  0  0  0  0  0  0  0  0
    4.4898   -0.5559    0.0000 C   0  0  0  0  0  0  0  0  0  0  0  0
    0.8125   -2.6084    0.0000 C   0  0  0  0  0  0  0  0  0  0  0  0
    0.0000   -2.6084    0.0000 C   0  0  0  0  0  0  0  0  0  0  0  0
    0.3849   -1.8815    0.0000 C   0  0  0  0  0  0  0  0  0  0  0  0
    5.3450   -2.5014    0.0000 C   0  0  0  0  0  0  0  0  0  0  0  0
    3.8912    0.0000    0.0000 C   0  0  0  0  0  0  0  0  0  0  0  0
  1 12  1  0  0  0  0
  2  7  1  0  0  0  0
  2 15  1  0  0  0  0
  3  6  1  0  0  0  0
  4  6  2  0  0  0  0
  5 10  1  0  0  0  0
  5 17  1  0  0  0  0
  6 11  1  0  0  0  0
  7 16  2  0  0  0  0
  8  9  1  0  0  0  0
  8 13  1  0  0  0  0
  8 14  2  0  0  0  0
  9 15  2  0  0  0  0
  9 16  1  0  0  0  0
 10 11  1  0  0  0  0
 10 12  2  0  0  0  0
 11 13  2  0  0  0  0
 12 14  1  0  0  0  0
 15 20  1  0  0  0  0
 16 21  1  0  0  0  0
 17 18  1  0  0  0  0
 17 19  1  0  0  0  0
 18 19  1  0  0  0  0
M  CHG  2   3  -1   6   1
M  END
> <PUBCHEM_COMPOUND_ID_TYPE>
0

> <PUBCHEM_TOTAL_CHARGE>
0

> <PUBCHEM_SUBSTANCE_ID>
310933352

> <PUBCHEM_SUBSTANCE_VERSION>
1

> <PUBCHEM_EXT_DATASOURCE_NAME>
4488

> <PUBCHEM_EXT_DATASOURCE_REGID>
SCHEMBL16110765

> <PUBCHEM_SUBSTANCE_COMMENT>
InChI=1S/C14H14IN3O3/c1-7-13(8(2)21-17-7)9-5-11(15)14(16-10-3-4-10)12(6-9)18(19)20/h5-6,10,16H,3-4H2,1-2H3
InChIKey=SZPHYHXFLNOQBE-UHFFFAOYSA-N

> <PUBCHEM_SUBSTANCE_SYNONYM>
SCHEMBL16110765

> <PUBCHEM_XREF_EXT_ID>
SCHEMBL16110765

> <PUBCHEM_EXT_DATASOURCE_URL>
https://www.surechembl.org/

> <PUBCHEM_EXT_SUBSTANCE_URL>
https://www.surechembl.org/chemical/SCHEMBL16110765

> <PUBCHEM_CID_ASSOCIATIONS>
117601763  1

> <PUBCHEM_COORDINATE_TYPE>
1
3

$$$$
