310941004
  -OEChem-07211613022D

 61 64  0     1  0  0  0  0  0999 V2000
    6.1869   -2.5926    0.0000 S   0  0  0  0  0  0  0  0  0  0  0  0
    3.3586   -0.7219    0.0000 P   0  0  3  0  0  0  0  0  0  0  0  0
    3.3586    0.1178    0.0000 O   0  0  0  0  0  0  0  0  0  0  0  0
    0.4861    2.6073    0.0000 O   0  0  0  0  0  0  0  0  0  0  0  0
   -3.8447    2.6073    0.0000 O   0  0  0  0  0  0  0  0  0  0  0  0
   -1.6792    0.5302    0.0000 O   0  0  0  0  0  0  0  0  0  0  0  0
    3.3586   -1.5467    0.0000 O   0  0  0  0  0  0  0  0  0  0  0  0
    2.6368    0.5302    0.0000 O   0  0  0  0  0  0  0  0  0  0  0  0
   -6.5551    2.4158    0.0000 O   0  0  0  0  0  0  0  0  0  0  0  0
    2.5337   -0.7219    0.0000 O   0  0  0  0  0  0  0  0  0  0  0  0
    4.1983   -0.7219    0.0000 O   0  0  0  0  0  0  0  0  0  0  0  0
    4.8022    2.6073    0.0000 O   0  0  0  0  0  0  0  0  0  0  0  0
    2.6368    3.0198    0.0000 O   0  0  0  0  0  0  0  0  0  0  0  0
    0.0000   -0.8839    0.0000 N   0  0  0  0  0  0  0  0  0  0  0  0
   -5.3177    1.6940    0.0000 N   0  0  0  0  0  0  0  0  0  0  0  0
   -0.9575    1.7823    0.0000 N   0  0  0  0  0  0  0  0  0  0  0  0
    1.3405   -0.9723    0.0000 N   0  0  0  0  0  0  0  0  0  0  0  0
   -3.1229    1.3699    0.0000 N   0  0  0  0  0  0  0  0  0  0  0  0
    1.2079    1.3699    0.0000 N   0  0  0  0  0  0  0  0  0  0  0  0
    3.3586    1.7823    0.0000 N   0  0  0  0  0  0  0  0  0  0  0  0
    5.5241    1.3699    0.0000 N   0  0  0  0  0  0  0  0  0  0  0  0
    0.3094   -0.0884    0.0000 C   0  0  0  0  0  0  0  0  0  0  0  0
   -0.2210    1.3847    0.0000 C   0  0  3  0  0  0  0  0  0  0  0  0
   -1.0017   -1.1490    0.0000 C   0  0  3  0  0  0  0  0  0  0  0  0
   -0.2357    0.5450    0.0000 C   0  0  0  0  0  0  0  0  0  0  0  0
   -4.5371    1.3847    0.0000 C   0  0  3  0  0  0  0  0  0  0  0  0
    0.4713    1.7823    0.0000 C   0  0  0  0  0  0  0  0  0  0  0  0
    0.6482   -1.3847    0.0000 C   0  0  0  0  0  0  0  0  0  0  0  0
    1.1490   -0.1473    0.0000 C   0  0  0  0  0  0  0  0  0  0  0  0
   -1.2521   -1.5909    0.0000 C   0  0  0  0  0  0  0  0  0  0  0  0
   -3.8447    1.7823    0.0000 C   0  0  0  0  0  0  0  0  0  0  0  0
   -1.6645    1.4141    0.0000 C   0  0  0  0  0  0  0  0  0  0  0  0
   -2.4011    1.7972    0.0000 C   0  0  3  0  0  0  0  0  0  0  0  0
    1.9298    1.7972    0.0000 C   0  0  3  0  0  0  0  0  0  0  0  0
    4.0951    1.3699    0.0000 C   0  0  3  0  0  0  0  0  0  0  0  0
   -4.6254    0.5744    0.0000 C   0  0  0  0  0  0  0  0  0  0  0  0
    2.6368    1.4141    0.0000 C   0  0  0  0  0  0  0  0  0  0  0  0
   -5.8628    1.0901    0.0000 C   0  0  0  0  0  0  0  0  0  0  0  0
   -5.7155    2.4305    0.0000 C   0  0  0  0  0  0  0  0  0  0  0  0
    4.0804    0.5450    0.0000 C   0  0  3  0  0  0  0  0  0  0  0  0
   -5.4651    0.3977    0.0000 C   0  0  0  0  0  0  0  0  0  0  0  0
   -2.0623   -1.5909    0.0000 C   0  0  0  0  0  0  0  0  0  0  0  0
   -0.8250   -2.3127    0.0000 C   0  0  0  0  0  0  0  0  0  0  0  0
   -2.3863    2.6368    0.0000 C   0  0  0  0  0  0  0  0  0  0  0  0
   -0.9869   -0.5744    0.0000 C   0  0  0  0  0  0  0  0  0  0  0  0
    4.8611    1.7823    0.0000 C   0  0  0  0  0  0  0  0  0  0  0  0
    1.9445    2.6368    0.0000 C   0  0  0  0  0  0  0  0  0  0  0  0
   -1.6792    3.0493    0.0000 C   0  0  0  0  0  0  0  0  0  0  0  0
   -2.4600   -2.3127    0.0000 C   0  0  0  0  0  0  0  0  0  0  0  0
   -1.2374   -3.0198    0.0000 C   0  0  0  0  0  0  0  0  0  0  0  0
   -2.0476   -3.0198    0.0000 C   0  0  0  0  0  0  0  0  0  0  0  0
   -5.3177    3.1671    0.0000 C   0  0  0  0  0  0  0  0  0  0  0  0
    4.8022    0.1326    0.0000 C   0  0  0  0  0  0  0  0  0  0  0  0
    3.9478   -2.1065    0.0000 C   0  0  0  0  0  0  0  0  0  0  0  0
   -1.6792    3.8889    0.0000 C   0  0  0  0  0  0  0  0  0  0  0  0
   -0.8544    2.8430    0.0000 C   0  0  0  0  0  0  0  0  0  0  0  0
    4.8022   -2.1360    0.0000 C   0  0  0  0  0  0  0  0  0  0  0  0
    5.3767   -2.6957    0.0000 C   0  0  0  0  0  0  0  0  0  0  0  0
    5.2441   -3.5207    0.0000 C   0  0  0  0  0  0  0  0  0  0  0  0
    6.5551   -3.3144    0.0000 C   0  0  0  0  0  0  0  0  0  0  0  0
    5.9807   -3.8889    0.0000 C   0  0  0  0  0  0  0  0  0  0  0  0
  1 58  1  0  0  0  0
  1 60  1  0  0  0  0
  2  3  1  0  0  0  0
  2  7  1  0  0  0  0
  2 10  2  0  0  0  0
  2 11  1  0  0  0  0
  3 40  1  0  0  0  0
  4 27  2  0  0  0  0
  5 31  2  0  0  0  0
  6 32  2  0  0  0  0
  7 54  1  0  0  0  0
  8 37  2  0  0  0  0
  9 39  2  0  0  0  0
 12 46  2  0  0  0  0
 13 47  1  0  0  0  0
 14 22  1  0  0  0  0
 14 24  1  0  0  0  0
 14 28  1  0  0  0  0
 15 26  1  0  0  0  0
 15 38  1  0  0  0  0
 15 39  1  0  0  0  0
 23 16  1  6  0  0  0
 16 32  1  0  0  0  0
 17 28  2  0  0  0  0
 17 29  1  0  0  0  0
 18 31  1  0  0  0  0
 33 18  1  1  0  0  0
 19 27  1  0  0  0  0
 34 19  1  1  0  0  0
 35 20  1  6  0  0  0
 20 37  1  0  0  0  0
 21 46  1  0  0  0  0
 22 25  1  0  0  0  0
 22 29  2  0  0  0  0
 23 25  1  0  0  0  0
 23 27  1  0  0  0  0
 24 30  1  0  0  0  0
 24 45  1  0  0  0  0
 26 31  1  6  0  0  0
 26 36  1  0  0  0  0
 30 42  2  0  0  0  0
 30 43  1  0  0  0  0
 32 33  1  0  0  0  0
 33 44  1  0  0  0  0
 34 37  1  0  0  0  0
 34 47  1  0  0  0  0
 35 40  1  0  0  0  0
 35 46  1  0  0  0  0
 36 41  1  0  0  0  0
 38 41  1  0  0  0  0
 39 52  1  0  0  0  0
 40 53  1  1  0  0  0
 42 49  1  0  0  0  0
 43 50  2  0  0  0  0
 44 48  1  0  0  0  0
 48 55  1  0  0  0  0
 48 56  1  0  0  0  0
 49 51  2  0  0  0  0
 50 51  1  0  0  0  0
 54 57  1  0  0  0  0
 57 58  1  0  0  0  0
 58 59  2  0  0  0  0
 59 61  1  0  0  0  0
 60 61  2  0  0  0  0
M  END
> <PUBCHEM_COMPOUND_ID_TYPE>
0

> <PUBCHEM_TOTAL_CHARGE>
0

> <PUBCHEM_SUBSTANCE_ID>
310941004

> <PUBCHEM_SUBSTANCE_VERSION>
1

> <PUBCHEM_EXT_DATASOURCE_NAME>
4488

> <PUBCHEM_EXT_DATASOURCE_REGID>
SCHEMBL16118963

> <PUBCHEM_SUBSTANCE_COMMENT>
InChI=1S/C40H57N8O11PS/c1-24(2)19-31(44-40(55)34-14-9-16-47(34)27(5)50)37(52)43-32(20-29-21-42-23-48(29)25(3)28-11-7-6-8-12-28)38(53)45-33(22-49)39(54)46-35(36(41)51)26(4)59-60(56,57)58-17-15-30-13-10-18-61-30/h6-8,10-13,18,21,23-26,31-35,49H,9,14-17,19-20,22H2,1-5H3,(H2,41,51)(H,43,52)(H,44,55)(H,45,53)(H,46,54)(H,56,57)/t25?,26-,31+,32+,33+,34+,35+/m1/s1
InChIKey=VXFXVFUAUOCXMC-JWURNPDWSA-N

> <PUBCHEM_SUBSTANCE_SYNONYM>
SCHEMBL16118963

> <PUBCHEM_XREF_EXT_ID>
SCHEMBL16118963

> <PUBCHEM_EXT_DATASOURCE_URL>
https://www.surechembl.org/

> <PUBCHEM_EXT_SUBSTANCE_URL>
https://www.surechembl.org/chemical/SCHEMBL16118963

> <PUBCHEM_CID_ASSOCIATIONS>
117607910  1

> <PUBCHEM_COORDINATE_TYPE>
1
3

> <PUBCHEM_BONDANNOTATIONS>
24  14  3
23  16  6
33  18  5
34  19  5
35  20  6
26  31  6
40  53  5

$$$$
