310933487
  -OEChem-07211613022D

 29 33  0     0  0  0  0  0  0999 V2000
    4.0702   -2.4751    0.0000 F   0  0  0  0  0  0  0  0  0  0  0  0
    5.5003    0.0000    0.0000 F   0  0  0  0  0  0  0  0  0  0  0  0
    0.0000   -4.4277    0.0000 O   0  0  0  0  0  0  0  0  0  0  0  0
    5.5003   -3.3002    0.0000 O   0  0  0  0  0  0  0  0  0  0  0  0
    4.1802   -2.6401    0.0000 N   0  0  0  0  0  0  0  0  0  0  0  0
    4.1802   -3.9602    0.0000 N   0  0  0  0  0  0  0  0  0  0  0  0
    2.6401   -0.0275    0.0000 N   0  0  0  0  0  0  0  0  0  0  0  0
    0.3850   -5.1427    0.0000 N   0  0  0  0  0  0  0  0  0  0  0  0
    2.6676   -2.4751    0.0000 C   0  0  0  0  0  0  0  0  0  0  0  0
    3.4102   -2.8877    0.0000 C   0  0  0  0  0  0  0  0  0  0  0  0
    2.6676   -1.6776    0.0000 C   0  0  0  0  0  0  0  0  0  0  0  0
    3.3827   -1.2375    0.0000 C   0  0  0  0  0  0  0  0  0  0  0  0
    3.4102   -3.7402    0.0000 C   0  0  0  0  0  0  0  0  0  0  0  0
    1.9801   -3.7402    0.0000 C   0  0  0  0  0  0  0  0  0  0  0  0
    1.9801   -2.8877    0.0000 C   0  0  0  0  0  0  0  0  0  0  0  0
    1.2926   -4.1527    0.0000 C   0  0  0  0  0  0  0  0  0  0  0  0
    2.6676   -4.1252    0.0000 C   0  0  0  0  0  0  0  0  0  0  0  0
    3.3552   -0.4400    0.0000 C   0  0  0  0  0  0  0  0  0  0  0  0
    4.0702   -1.6501    0.0000 C   0  0  0  0  0  0  0  0  0  0  0  0
    4.6752   -3.3002    0.0000 C   0  0  0  0  0  0  0  0  0  0  0  0
    1.9526   -1.2650    0.0000 C   0  0  0  0  0  0  0  0  0  0  0  0
    0.5225   -3.8227    0.0000 C   0  0  0  0  0  0  0  0  0  0  0  0
    1.1826   -4.9502    0.0000 C   0  0  0  0  0  0  0  0  0  0  0  0
    4.0427    0.0000    0.0000 C   0  0  0  0  0  0  0  0  0  0  0  0
    4.7852   -1.2375    0.0000 C   0  0  0  0  0  0  0  0  0  0  0  0
    4.7852   -0.4125    0.0000 C   0  0  0  0  0  0  0  0  0  0  0  0
    1.9526   -0.4400    0.0000 C   0  0  0  0  0  0  0  0  0  0  0  0
    0.3575   -3.0252    0.0000 C   0  0  0  0  0  0  0  0  0  0  0  0
    1.8151   -5.5003    0.0000 C   0  0  0  0  0  0  0  0  0  0  0  0
  1 19  1  0  0  0  0
  2 26  1  0  0  0  0
  3  8  1  0  0  0  0
  3 22  1  0  0  0  0
  4 20  2  0  0  0  0
  5 10  1  0  0  0  0
  5 20  1  0  0  0  0
  6 13  1  0  0  0  0
  6 20  1  0  0  0  0
  7 18  2  0  0  0  0
  7 27  1  0  0  0  0
  8 23  2  0  0  0  0
  9 10  1  0  0  0  0
  9 11  1  0  0  0  0
  9 15  2  0  0  0  0
 10 13  2  0  0  0  0
 11 12  2  0  0  0  0
 11 21  1  0  0  0  0
 12 18  1  0  0  0  0
 12 19  1  0  0  0  0
 13 17  1  0  0  0  0
 14 15  1  0  0  0  0
 14 16  1  0  0  0  0
 14 17  2  0  0  0  0
 16 22  2  0  0  0  0
 16 23  1  0  0  0  0
 18 24  1  0  0  0  0
 19 25  2  0  0  0  0
 21 27  2  0  0  0  0
 22 28  1  0  0  0  0
 23 29  1  0  0  0  0
 24 26  2  0  0  0  0
 25 26  1  0  0  0  0
M  END
> <PUBCHEM_COMPOUND_ID_TYPE>
0

> <PUBCHEM_TOTAL_CHARGE>
0

> <PUBCHEM_SUBSTANCE_ID>
310933487

> <PUBCHEM_SUBSTANCE_VERSION>
1

> <PUBCHEM_EXT_DATASOURCE_NAME>
4488

> <PUBCHEM_EXT_DATASOURCE_REGID>
SCHEMBL16110907

> <PUBCHEM_SUBSTANCE_COMMENT>
InChI=1S/C21H14F2N4O2/c1-9-18(10(2)29-27-9)11-5-14(20-17(6-11)25-21(28)26-20)13-3-4-24-16-8-12(22)7-15(23)19(13)16/h3-8H,1-2H3,(H2,25,26,28)
InChIKey=JIJKQPFCBBZFBJ-UHFFFAOYSA-N

> <PUBCHEM_SUBSTANCE_SYNONYM>
SCHEMBL16110907

> <PUBCHEM_XREF_EXT_ID>
SCHEMBL16110907

> <PUBCHEM_EXT_DATASOURCE_URL>
https://www.surechembl.org/

> <PUBCHEM_EXT_SUBSTANCE_URL>
https://www.surechembl.org/chemical/SCHEMBL16110907

> <PUBCHEM_CID_ASSOCIATIONS>
117601882  1

> <PUBCHEM_COORDINATE_TYPE>
1
3

$$$$
