310948401
  -OEChem-07211613022D

 33 37  0     1  0  0  0  0  0999 V2000
    2.6970   -2.4561    0.0000 F   0  0  0  0  0  0  0  0  0  0  0  0
    3.2717   -3.4199    0.0000 F   0  0  0  0  0  0  0  0  0  0  0  0
    2.2707   -3.9760    0.0000 F   0  0  0  0  0  0  0  0  0  0  0  0
   -2.5487   -2.6785    0.0000 O   0  0  0  0  0  0  0  0  0  0  0  0
   -1.0288   -0.3429    0.0000 N   0  0  0  0  0  0  0  0  0  0  0  0
   -0.5468   -1.0102    0.0000 N   0  0  0  0  0  0  0  0  0  0  0  0
   -0.7693   -2.4746    0.0000 N   0  0  0  0  0  0  0  0  0  0  0  0
   -3.2717   -1.4180    0.0000 N   0  0  0  0  0  0  0  0  0  0  0  0
   -0.0464    2.8453    0.0000 N   0  0  0  0  0  0  0  0  0  0  0  0
    1.1585   -0.6024    0.0000 N   0  0  0  0  0  0  0  0  0  0  0  0
   -1.8073   -0.5839    0.0000 C   0  0  0  0  0  0  0  0  0  0  0  0
   -1.8443   -1.4180    0.0000 C   0  0  0  0  0  0  0  0  0  0  0  0
   -1.0288   -1.6961    0.0000 C   0  0  0  0  0  0  0  0  0  0  0  0
   -0.7693    0.4727    0.0000 C   0  0  3  0  0  0  0  0  0  0  0  0
   -2.5487   -1.8073    0.0000 C   0  0  0  0  0  0  0  0  0  0  0  0
    0.0278    0.6395    0.0000 C   0  0  3  0  0  0  0  0  0  0  0  0
   -2.5673   -0.1761    0.0000 C   0  0  0  0  0  0  0  0  0  0  0  0
   -1.3068    1.0659    0.0000 C   0  0  0  0  0  0  0  0  0  0  0  0
   -0.2873    2.0483    0.0000 C   0  0  3  0  0  0  0  0  0  0  0  0
    0.2687    1.4366    0.0000 C   0  0  0  0  0  0  0  0  0  0  0  0
    0.0278   -2.6415    0.0000 C   0  0  0  0  0  0  0  0  0  0  0  0
   -3.2346   -0.5839    0.0000 C   0  0  0  0  0  0  0  0  0  0  0  0
   -1.0659    1.8629    0.0000 C   0  0  0  0  0  0  0  0  0  0  0  0
    0.6024    0.0093    0.0000 C   0  0  0  0  0  0  0  0  0  0  0  0
    1.6590   -2.9751    0.0000 C   0  0  0  0  0  0  0  0  0  0  0  0
    0.3058   -3.4199    0.0000 C   0  0  0  0  0  0  0  0  0  0  0  0
    0.6024   -2.0297    0.0000 C   0  0  0  0  0  0  0  0  0  0  0  0
    2.4746   -3.2160    0.0000 C   0  0  0  0  0  0  0  0  0  0  0  0
    1.1029   -3.5868    0.0000 C   0  0  0  0  0  0  0  0  0  0  0  0
    1.3995   -2.1965    0.0000 C   0  0  0  0  0  0  0  0  0  0  0  0
    0.6580    3.2717    0.0000 C   0  0  0  0  0  0  0  0  0  0  0  0
   -0.4541    3.5497    0.0000 C   0  0  0  0  0  0  0  0  0  0  0  0
    0.2503    3.9760    0.0000 C   0  0  0  0  0  0  0  0  0  0  0  0
  1 28  1  0  0  0  0
  2 28  1  0  0  0  0
  3 28  1  0  0  0  0
  4 15  2  0  0  0  0
  5  6  1  0  0  0  0
  5 11  1  0  0  0  0
 14  5  1  1  0  0  0
  6 13  2  0  0  0  0
  7 13  1  0  0  0  0
  7 21  1  0  0  0  0
  8 15  1  0  0  0  0
  8 22  1  0  0  0  0
  9 19  1  0  0  0  0
  9 31  1  0  0  0  0
  9 32  1  0  0  0  0
 10 24  3  0  0  0  0
 11 12  2  0  0  0  0
 11 17  1  0  0  0  0
 12 13  1  0  0  0  0
 12 15  1  0  0  0  0
 14 16  1  0  0  0  0
 14 18  1  0  0  0  0
 16 20  1  0  0  0  0
 16 24  1  6  0  0  0
 17 22  2  0  0  0  0
 18 23  1  0  0  0  0
 19 20  1  1  0  0  0
 19 23  1  0  0  0  0
 21 26  2  0  0  0  0
 21 27  1  0  0  0  0
 25 28  1  0  0  0  0
 25 29  2  0  0  0  0
 25 30  1  0  0  0  0
 26 29  1  0  0  0  0
 27 30  2  0  0  0  0
 31 33  1  0  0  0  0
 32 33  1  0  0  0  0
M  END
> <PUBCHEM_COMPOUND_ID_TYPE>
0

> <PUBCHEM_TOTAL_CHARGE>
0

> <PUBCHEM_SUBSTANCE_ID>
310948401

> <PUBCHEM_SUBSTANCE_VERSION>
1

> <PUBCHEM_EXT_DATASOURCE_NAME>
4488

> <PUBCHEM_EXT_DATASOURCE_REGID>
SCHEMBL16126582

> <PUBCHEM_SUBSTANCE_COMMENT>
InChI=1S/C23H23F3N6O/c24-23(25,26)15-2-4-16(5-3-15)29-21-20-19(8-9-28-22(20)33)32(30-21)18-7-6-17(12-14(18)13-27)31-10-1-11-31/h2-5,8-9,14,17-18H,1,6-7,10-12H2,(H,28,33)(H,29,30)/t14-,17-,18+/m1/s1
InChIKey=VCQNYQGTTSUEIM-OLMNPRSZSA-N

> <PUBCHEM_SUBSTANCE_SYNONYM>
SCHEMBL16126582

> <PUBCHEM_XREF_EXT_ID>
SCHEMBL16126582

> <PUBCHEM_EXT_DATASOURCE_URL>
https://www.surechembl.org/

> <PUBCHEM_EXT_SUBSTANCE_URL>
https://www.surechembl.org/chemical/SCHEMBL16126582

> <PUBCHEM_CID_ASSOCIATIONS>
117613962  1

> <PUBCHEM_COORDINATE_TYPE>
1
3

> <PUBCHEM_BONDANNOTATIONS>
16  24  6
19  20  5
14  5  5

$$$$
