310947339
  -OEChem-07211613022D

 37 41  0     0  0  0  0  0  0999 V2000
   -3.4081    2.3208    0.0000 O   0  0  0  0  0  0  0  0  0  0  0  0
   -0.4801    0.0033    0.0000 N   0  0  0  0  0  0  0  0  0  0  0  0
    0.0048    0.6708    0.0000 N   0  0  0  0  0  0  0  0  0  0  0  0
   -4.1227    1.0833    0.0000 N   0  0  0  0  0  0  0  0  0  0  0  0
   -1.2648    0.2582    0.0000 C   0  0  0  0  0  0  0  0  0  0  0  0
   -1.2648    1.0833    0.0000 C   0  0  0  0  0  0  0  0  0  0  0  0
   -0.4801    1.3382    0.0000 C   0  0  0  0  0  0  0  0  0  0  0  0
   -1.9792    1.4958    0.0000 C   0  0  0  0  0  0  0  0  0  0  0  0
   -2.6937    1.0833    0.0000 C   0  0  0  0  0  0  0  0  0  0  0  0
   -1.9792   -0.1542    0.0000 C   0  0  0  0  0  0  0  0  0  0  0  0
   -0.2666   -0.7935    0.0000 C   0  0  0  0  0  0  0  0  0  0  0  0
   -2.6937    0.2582    0.0000 C   0  0  0  0  0  0  0  0  0  0  0  0
    0.5302   -1.0070    0.0000 C   0  0  0  0  0  0  0  0  0  0  0  0
    2.9210   -1.6477    0.0000 C   0  0  0  0  0  0  0  0  0  0  0  0
    3.5043   -1.0643    0.0000 C   0  0  0  0  0  0  0  0  0  0  0  0
    2.1241   -1.4341    0.0000 C   0  0  0  0  0  0  0  0  0  0  0  0
   -3.4081    1.4958    0.0000 C   0  0  0  0  0  0  0  0  0  0  0  0
    3.2908   -0.2674    0.0000 C   0  0  0  0  0  0  0  0  0  0  0  0
    0.7438   -1.8040    0.0000 C   0  0  0  0  0  0  0  0  0  0  0  0
    1.1137   -0.4237    0.0000 C   0  0  0  0  0  0  0  0  0  0  0  0
   -0.0676    2.0527    0.0000 C   0  0  0  0  0  0  0  0  0  0  0  0
    1.5407   -2.0175    0.0000 C   0  0  0  0  0  0  0  0  0  0  0  0
    1.9105   -0.6372    0.0000 C   0  0  0  0  0  0  0  0  0  0  0  0
    3.1345   -2.4445    0.0000 C   0  0  0  0  0  0  0  0  0  0  0  0
    4.3012   -1.2778    0.0000 C   0  0  0  0  0  0  0  0  0  0  0  0
    3.9314   -2.6580    0.0000 C   0  0  0  0  0  0  0  0  0  0  0  0
    4.5148   -2.0747    0.0000 C   0  0  0  0  0  0  0  0  0  0  0  0
   -4.8371    1.4958    0.0000 C   0  0  0  0  0  0  0  0  0  0  0  0
    2.4408   -0.4951    0.0000 C   0  0  0  0  0  0  0  0  0  0  0  0
    3.0631    0.5826    0.0000 C   0  0  0  0  0  0  0  0  0  0  0  0
    4.1408   -0.0397    0.0000 C   0  0  0  0  0  0  0  0  0  0  0  0
   -5.3515    0.8508    0.0000 C   0  0  0  0  0  0  0  0  0  0  0  0
   -5.0207    2.3001    0.0000 C   0  0  0  0  0  0  0  0  0  0  0  0
   -6.1765    0.8508    0.0000 C   0  0  0  0  0  0  0  0  0  0  0  0
   -5.7640    2.6580    0.0000 C   0  0  0  0  0  0  0  0  0  0  0  0
   -6.5073    2.3001    0.0000 C   0  0  0  0  0  0  0  0  0  0  0  0
   -6.6909    1.4958    0.0000 C   0  0  0  0  0  0  0  0  0  0  0  0
  1 17  2  0  0  0  0
  2  3  1  0  0  0  0
  2  5  1  0  0  0  0
  2 11  1  0  0  0  0
  3  7  2  0  0  0  0
  4 17  1  0  0  0  0
  4 28  1  0  0  0  0
  5  6  1  0  0  0  0
  5 10  2  0  0  0  0
  6  7  1  0  0  0  0
  6  8  2  0  0  0  0
  7 21  1  0  0  0  0
  8  9  1  0  0  0  0
  9 12  2  0  0  0  0
  9 17  1  0  0  0  0
 10 12  1  0  0  0  0
 11 13  1  0  0  0  0
 13 19  2  0  0  0  0
 13 20  1  0  0  0  0
 14 15  1  0  0  0  0
 14 16  1  0  0  0  0
 14 24  2  0  0  0  0
 15 18  1  0  0  0  0
 15 25  2  0  0  0  0
 16 22  2  0  0  0  0
 16 23  1  0  0  0  0
 18 29  1  0  0  0  0
 18 30  1  0  0  0  0
 18 31  1  0  0  0  0
 19 22  1  0  0  0  0
 20 23  2  0  0  0  0
 24 26  1  0  0  0  0
 25 27  1  0  0  0  0
 26 27  2  0  0  0  0
 28 32  1  0  0  0  0
 28 33  1  0  0  0  0
 32 34  1  0  0  0  0
 33 35  1  0  0  0  0
 34 37  1  0  0  0  0
 35 36  1  0  0  0  0
 36 37  1  0  0  0  0
M  END
> <PUBCHEM_COMPOUND_ID_TYPE>
0

> <PUBCHEM_TOTAL_CHARGE>
0

> <PUBCHEM_SUBSTANCE_ID>
310947339

> <PUBCHEM_SUBSTANCE_VERSION>
1

> <PUBCHEM_EXT_DATASOURCE_NAME>
4488

> <PUBCHEM_EXT_DATASOURCE_REGID>
SCHEMBL16125494

> <PUBCHEM_SUBSTANCE_COMMENT>
InChI=1S/C33H39N3O/c1-23-29-21-26(32(37)34-27-11-7-5-6-8-12-27)19-20-31(29)36(35-23)22-24-15-17-25(18-16-24)28-13-9-10-14-30(28)33(2,3)4/h9-10,13-21,27H,5-8,11-12,22H2,1-4H3,(H,34,37)
InChIKey=NFHWTXFOABRXKH-UHFFFAOYSA-N

> <PUBCHEM_SUBSTANCE_SYNONYM>
SCHEMBL16125494

> <PUBCHEM_XREF_EXT_ID>
SCHEMBL16125494

> <PUBCHEM_EXT_DATASOURCE_URL>
https://www.surechembl.org/

> <PUBCHEM_EXT_SUBSTANCE_URL>
https://www.surechembl.org/chemical/SCHEMBL16125494

> <PUBCHEM_CID_ASSOCIATIONS>
117613088  1

> <PUBCHEM_COORDINATE_TYPE>
1
3

$$$$
