310933798
  -OEChem-07211613022D

 33 36  0     0  0  0  0  0  0999 V2000
   -1.4290    0.0000    0.0000 S   0  0  0  0  0  0  0  0  0  0  0  0
    0.0000    2.2540    0.0000 O   0  0  0  0  0  0  0  0  0  0  0  0
    7.0125    0.1105    0.0000 O   0  0  0  0  0  0  0  0  0  0  0  0
    1.6500    2.2540    0.0000 O   0  0  0  0  0  0  0  0  0  0  0  0
   10.7250   -0.6040    0.0000 O   0  0  0  0  0  0  0  0  0  0  0  0
    0.8250    0.8250    0.0000 N   0  0  0  0  0  0  0  0  0  0  0  0
    1.2375    1.5394    0.0000 N   0  0  0  0  0  0  0  0  0  0  0  0
    0.0000    0.8250    0.0000 C   0  0  0  0  0  0  0  0  0  0  0  0
    0.4125    1.5394    0.0000 C   0  0  0  0  0  0  0  0  0  0  0  0
   -0.7144    1.2375    0.0000 C   0  0  0  0  0  0  0  0  0  0  0  0
    0.0000    0.0000    0.0000 C   0  0  0  0  0  0  0  0  0  0  0  0
    2.0625    0.1105    0.0000 C   0  0  0  0  0  0  0  0  0  0  0  0
    1.2375    0.1105    0.0000 C   0  0  0  0  0  0  0  0  0  0  0  0
    3.7125    0.1105    0.0000 C   0  0  0  0  0  0  0  0  0  0  0  0
    4.5375    0.1105    0.0000 C   0  0  0  0  0  0  0  0  0  0  0  0
   -1.4290    0.8250    0.0000 C   0  0  0  0  0  0  0  0  0  0  0  0
   -0.7144   -0.4125    0.0000 C   0  0  0  0  0  0  0  0  0  0  0  0
    2.4750    0.8250    0.0000 C   0  0  0  0  0  0  0  0  0  0  0  0
    2.4750   -0.6040    0.0000 C   0  0  0  0  0  0  0  0  0  0  0  0
    3.3000    0.8250    0.0000 C   0  0  0  0  0  0  0  0  0  0  0  0
    3.3000   -0.6040    0.0000 C   0  0  0  0  0  0  0  0  0  0  0  0
    4.9500   -0.6040    0.0000 C   0  0  0  0  0  0  0  0  0  0  0  0
    4.9500    0.8250    0.0000 C   0  0  0  0  0  0  0  0  0  0  0  0
    6.1875    0.1105    0.0000 C   0  0  0  0  0  0  0  0  0  0  0  0
    5.7750   -0.6040    0.0000 C   0  0  0  0  0  0  0  0  0  0  0  0
    5.7750    0.8250    0.0000 C   0  0  0  0  0  0  0  0  0  0  0  0
    8.2500   -0.6040    0.0000 C   0  0  0  0  0  0  0  0  0  0  0  0
    7.4250   -0.6040    0.0000 C   0  0  0  0  0  0  0  0  0  0  0  0
    8.6625    0.1105    0.0000 C   0  0  0  0  0  0  0  0  0  0  0  0
    8.6625   -1.3184    0.0000 C   0  0  0  0  0  0  0  0  0  0  0  0
    9.9000   -0.6040    0.0000 C   0  0  0  0  0  0  0  0  0  0  0  0
    9.4875    0.1105    0.0000 C   0  0  0  0  0  0  0  0  0  0  0  0
    9.4875   -1.3184    0.0000 C   0  0  0  0  0  0  0  0  0  0  0  0
  1 16  1  0  0  0  0
  1 17  1  0  0  0  0
  2  9  2  0  0  0  0
  3 24  1  0  0  0  0
  3 28  1  0  0  0  0
  4  7  1  0  0  0  0
 31  5  1  6  0  0  0
  6  8  1  0  0  0  0
  6 13  1  0  0  0  0
  7  9  1  0  0  0  0
  8  9  1  0  0  0  0
  8 10  1  0  0  0  0
  8 11  1  0  0  0  0
 10 16  1  0  0  0  0
 11 17  1  0  0  0  0
 12 13  1  0  0  0  0
 12 18  2  0  0  0  0
 12 19  1  0  0  0  0
 14 15  1  0  0  0  0
 14 20  2  0  0  0  0
 14 21  1  0  0  0  0
 15 22  2  0  0  0  0
 15 23  1  0  0  0  0
 18 20  1  0  0  0  0
 19 21  2  0  0  0  0
 22 25  1  0  0  0  0
 23 26  2  0  0  0  0
 24 25  2  0  0  0  0
 24 26  1  0  0  0  0
 27 28  1  1  0  0  0
 27 29  1  0  0  0  0
 27 30  1  0  0  0  0
 29 32  1  0  0  0  0
 30 33  1  0  0  0  0
 31 32  1  0  0  0  0
 31 33  1  0  0  0  0
M  END
> <PUBCHEM_COMPOUND_ID_TYPE>
0

> <PUBCHEM_TOTAL_CHARGE>
0

> <PUBCHEM_SUBSTANCE_ID>
310933798

> <PUBCHEM_SUBSTANCE_VERSION>
1

> <PUBCHEM_EXT_DATASOURCE_NAME>
4488

> <PUBCHEM_EXT_DATASOURCE_REGID>
SCHEMBL16111236

> <PUBCHEM_SUBSTANCE_COMMENT>
InChI=1S/C26H34N2O4S/c29-23-9-3-20(4-10-23)18-32-24-11-7-22(8-12-24)21-5-1-19(2-6-21)17-27-26(25(30)28-31)13-15-33-16-14-26/h1-2,5-8,11-12,20,23,27,29,31H,3-4,9-10,13-18H2,(H,28,30)/t20-,23-
InChIKey=YRAGHWLDIIQXQG-JKIUYZKVSA-N

> <PUBCHEM_SUBSTANCE_SYNONYM>
SCHEMBL16111236

> <PUBCHEM_XREF_EXT_ID>
SCHEMBL16111236

> <PUBCHEM_EXT_DATASOURCE_URL>
https://www.surechembl.org/

> <PUBCHEM_EXT_SUBSTANCE_URL>
https://www.surechembl.org/chemical/SCHEMBL16111236

> <PUBCHEM_CID_ASSOCIATIONS>
117602147  1

> <PUBCHEM_COORDINATE_TYPE>
1
3

> <PUBCHEM_BONDANNOTATIONS>
27  28  5
31  5  6

$$$$
