310942163
  -OEChem-07211613022D

 23 24  0     1  0  0  0  0  0999 V2000
   -2.5151   -0.0146    0.0000 O   0  5  0  0  0  0  0  0  0  0  0  0
   -0.3592    0.3959    0.0000 O   0  0  0  0  0  0  0  0  0  0  0  0
    2.5151   -2.0825    0.0000 O   0  0  0  0  0  0  0  0  0  0  0  0
   -1.7965   -0.4254    0.0000 N   0  3  3  0  0  0  0  0  0  0  0  0
    0.3592   -0.8359    0.0000 N   0  0  0  0  0  0  0  0  0  0  0  0
   -1.0779   -0.7920    0.0000 C   0  0  3  0  0  0  0  0  0  0  0  0
   -0.3592   -0.4254    0.0000 C   0  0  0  0  0  0  0  0  0  0  0  0
    1.0633   -0.4106    0.0000 C   0  0  0  0  0  0  0  0  0  0  0  0
   -2.5004   -0.8066    0.0000 C   0  0  0  0  0  0  0  0  0  0  0  0
   -1.0779   -1.6426    0.0000 C   0  0  0  0  0  0  0  0  0  0  0  0
    1.7965   -0.8066    0.0000 C   0  0  0  0  0  0  0  0  0  0  0  0
   -1.7818    0.4254    0.0000 C   0  0  0  0  0  0  0  0  0  0  0  0
    1.0779    0.4254    0.0000 C   0  0  0  0  0  0  0  0  0  0  0  0
   -2.5004   -1.6426    0.0000 C   0  0  0  0  0  0  0  0  0  0  0  0
   -1.7818   -2.0532    0.0000 C   0  0  0  0  0  0  0  0  0  0  0  0
    2.5004   -0.3959    0.0000 C   0  0  0  0  0  0  0  0  0  0  0  0
    1.7965    0.8213    0.0000 C   0  0  0  0  0  0  0  0  0  0  0  0
    2.5004    0.4106    0.0000 C   0  0  0  0  0  0  0  0  0  0  0  0
   -1.0779    0.8359    0.0000 C   0  0  0  0  0  0  0  0  0  0  0  0
    1.7965   -1.6426    0.0000 C   0  0  0  0  0  0  0  0  0  0  0  0
    0.3446    0.8213    0.0000 C   0  0  0  0  0  0  0  0  0  0  0  0
   -1.0485    1.6718    0.0000 C   0  0  0  0  0  0  0  0  0  0  0  0
   -0.3446    2.0825    0.0000 C   0  0  0  0  0  0  0  0  0  0  0  0
  1  4  1  0  0  0  0
  2  7  2  0  0  0  0
  3 20  1  0  0  0  0
  4  6  1  0  0  0  0
  4  9  1  0  0  0  0
  4 12  1  0  0  0  0
  5  7  1  0  0  0  0
  5  8  1  0  0  0  0
  6  7  1  6  0  0  0
  6 10  1  0  0  0  0
  8 11  2  0  0  0  0
  8 13  1  0  0  0  0
  9 14  1  0  0  0  0
 10 15  1  0  0  0  0
 11 16  1  0  0  0  0
 11 20  1  0  0  0  0
 12 19  1  0  0  0  0
 13 17  2  0  0  0  0
 13 21  1  0  0  0  0
 14 15  1  0  0  0  0
 16 18  2  0  0  0  0
 17 18  1  0  0  0  0
 19 22  1  0  0  0  0
 22 23  1  0  0  0  0
M  CHG  2   1  -1   4   1
M  END
> <PUBCHEM_COMPOUND_ID_TYPE>
0

> <PUBCHEM_TOTAL_CHARGE>
0

> <PUBCHEM_SUBSTANCE_ID>
310942163

> <PUBCHEM_SUBSTANCE_VERSION>
1

> <PUBCHEM_EXT_DATASOURCE_NAME>
4488

> <PUBCHEM_EXT_DATASOURCE_REGID>
SCHEMBL16120198

> <PUBCHEM_SUBSTANCE_COMMENT>
InChI=1S/C18H28N2O3/c1-3-4-11-20(23)12-6-5-10-16(20)18(22)19-17-14(2)8-7-9-15(17)13-21/h7-9,16,21H,3-6,10-13H2,1-2H3,(H,19,22)/t16-,20?/m0/s1
InChIKey=ACLXTVVPECHRDM-DJZRFWRSSA-N

> <PUBCHEM_SUBSTANCE_SYNONYM>
SCHEMBL16120198

> <PUBCHEM_XREF_EXT_ID>
SCHEMBL16120198

> <PUBCHEM_EXT_DATASOURCE_URL>
https://www.surechembl.org/

> <PUBCHEM_EXT_SUBSTANCE_URL>
https://www.surechembl.org/chemical/SCHEMBL16120198

> <PUBCHEM_CID_ASSOCIATIONS>
117608817  1

> <PUBCHEM_COORDINATE_TYPE>
1
3

> <PUBCHEM_BONDANNOTATIONS>
6  7  6

$$$$
