310931016
  -OEChem-07211613022D

 27 30  0     0  0  0  0  0  0999 V2000
    0.0000   -4.9768    0.0000 Cl  0  0  0  0  0  0  0  0  0  0  0  0
    2.4717   -6.6802    0.0000 Cl  0  0  0  0  0  0  0  0  0  0  0  0
    1.6032   -2.7389    0.0000 O   0  0  0  0  0  0  0  0  0  0  0  0
    3.0395   -2.5385    0.0000 N   0  0  0  0  0  0  0  0  0  0  0  0
    3.4403   -3.8077    0.0000 N   0  0  0  0  0  0  0  0  0  0  0  0
    4.5092   -2.7389    0.0000 N   0  0  0  0  0  0  0  0  0  0  0  0
    2.6387   -3.8077    0.0000 C   0  0  0  0  0  0  0  0  0  0  0  0
    2.3715   -3.0061    0.0000 C   0  0  0  0  0  0  0  0  0  0  0  0
    2.1377   -4.4758    0.0000 C   0  0  0  0  0  0  0  0  0  0  0  0
    3.0061   -4.5426    0.0000 C   0  0  0  0  0  0  0  0  0  0  0  0
    3.7075   -3.0061    0.0000 C   0  0  0  0  0  0  0  0  0  0  0  0
    3.0395   -1.7035    0.0000 C   0  0  0  0  0  0  0  0  0  0  0  0
    1.3027   -4.4090    0.0000 C   0  0  0  0  0  0  0  0  0  0  0  0
    2.7055   -5.4110    0.0000 C   0  0  0  0  0  0  0  0  0  0  0  0
    2.4717   -5.2440    0.0000 C   0  0  0  0  0  0  0  0  0  0  0  0
    3.8412   -4.6094    0.0000 C   0  0  0  0  0  0  0  0  0  0  0  0
    0.8350   -5.0770    0.0000 C   0  0  0  0  0  0  0  0  0  0  0  0
    2.9393   -5.9789    0.0000 C   0  0  0  0  0  0  0  0  0  0  0  0
    2.3381   -1.2692    0.0000 C   0  0  0  0  0  0  0  0  0  0  0  0
    3.7409   -1.2692    0.0000 C   0  0  0  0  0  0  0  0  0  0  0  0
    1.9707   -5.9120    0.0000 C   0  0  0  0  0  0  0  0  0  0  0  0
    4.2086   -5.3442    0.0000 C   0  0  0  0  0  0  0  0  0  0  0  0
    1.1690   -5.8119    0.0000 C   0  0  0  0  0  0  0  0  0  0  0  0
    3.7409   -6.0456    0.0000 C   0  0  0  0  0  0  0  0  0  0  0  0
    2.3381   -0.4342    0.0000 C   0  0  0  0  0  0  0  0  0  0  0  0
    3.7409   -0.4342    0.0000 C   0  0  0  0  0  0  0  0  0  0  0  0
    3.0395    0.0000    0.0000 C   0  0  0  0  0  0  0  0  0  0  0  0
  1 17  1  0  0  0  0
  2 18  1  0  0  0  0
  3  8  2  0  0  0  0
  4  8  1  0  0  0  0
  4 11  1  0  0  0  0
  4 12  1  0  0  0  0
  5  7  1  0  0  0  0
  5 11  1  0  0  0  0
  6 11  2  3  0  0  0
  7  8  1  0  0  0  0
  7  9  1  0  0  0  0
  7 10  1  0  0  0  0
  9 13  1  0  0  0  0
  9 15  2  0  0  0  0
 10 14  1  0  0  0  0
 10 16  2  0  0  0  0
 12 19  1  0  0  0  0
 12 20  1  0  0  0  0
 13 17  2  0  0  0  0
 14 18  2  0  0  0  0
 15 21  1  0  0  0  0
 16 22  1  0  0  0  0
 17 23  1  0  0  0  0
 18 24  1  0  0  0  0
 19 25  1  0  0  0  0
 20 26  1  0  0  0  0
 21 23  2  0  0  0  0
 22 24  2  0  0  0  0
 25 27  1  0  0  0  0
 26 27  1  0  0  0  0
M  END
> <PUBCHEM_COMPOUND_ID_TYPE>
0

> <PUBCHEM_TOTAL_CHARGE>
0

> <PUBCHEM_SUBSTANCE_ID>
310931016

> <PUBCHEM_SUBSTANCE_VERSION>
1

> <PUBCHEM_EXT_DATASOURCE_NAME>
4488

> <PUBCHEM_EXT_DATASOURCE_REGID>
SCHEMBL16108316

> <PUBCHEM_SUBSTANCE_COMMENT>
InChI=1S/C21H21Cl2N3O/c22-16-8-4-6-14(12-16)21(15-7-5-9-17(23)13-15)19(27)26(20(24)25-21)18-10-2-1-3-11-18/h4-9,12-13,18H,1-3,10-11H2,(H2,24,25)
InChIKey=MYEOEKMOZQXVDY-UHFFFAOYSA-N

> <PUBCHEM_SUBSTANCE_SYNONYM>
SCHEMBL16108316

> <PUBCHEM_XREF_EXT_ID>
SCHEMBL16108316

> <PUBCHEM_EXT_DATASOURCE_URL>
https://www.surechembl.org/

> <PUBCHEM_EXT_SUBSTANCE_URL>
https://www.surechembl.org/chemical/SCHEMBL16108316

> <PUBCHEM_CID_ASSOCIATIONS>
76335710  1

> <PUBCHEM_COORDINATE_TYPE>
1
3

$$$$
