310930935
  -OEChem-07211613022D

 23 24  0     1  0  0  0  0  0999 V2000
    0.1179   -7.0321    0.0000 Cl  0  0  0  0  0  0  0  0  0  0  0  0
    1.5321   -7.8571    0.0000 Cl  0  0  0  0  0  0  0  0  0  0  0  0
    0.8250   -1.6500    0.0000 O   0  0  0  0  0  0  0  0  0  0  0  0
    2.2785   -1.6500    0.0000 O   0  0  0  0  0  0  0  0  0  0  0  0
    3.6929   -4.1250    0.0000 O   0  0  0  0  0  0  0  0  0  0  0  0
    1.5321   -2.8679    0.0000 N   0  0  0  0  0  0  0  0  0  0  0  0
    1.5321   -4.5179    0.0000 C   0  0  3  0  0  0  0  0  0  0  0  0
    1.5321   -5.3429    0.0000 C   0  0  0  0  0  0  0  0  0  0  0  0
    2.2785   -4.1250    0.0000 C   0  0  3  0  0  0  0  0  0  0  0  0
    2.2785   -3.3000    0.0000 C   0  0  0  0  0  0  0  0  0  0  0  0
    0.8250   -4.1250    0.0000 C   0  0  0  0  0  0  0  0  0  0  0  0
    1.5321   -2.0429    0.0000 C   0  0  0  0  0  0  0  0  0  0  0  0
    0.8250   -3.3000    0.0000 C   0  0  0  0  0  0  0  0  0  0  0  0
    0.8250   -5.7750    0.0000 C   0  0  0  0  0  0  0  0  0  0  0  0
    0.8250   -6.6000    0.0000 C   0  0  0  0  0  0  0  0  0  0  0  0
    2.2785   -5.7750    0.0000 C   0  0  0  0  0  0  0  0  0  0  0  0
    1.5321   -7.0321    0.0000 C   0  0  0  0  0  0  0  0  0  0  0  0
    2.9857   -4.5179    0.0000 C   0  0  0  0  0  0  0  0  0  0  0  0
    2.2785   -6.6000    0.0000 C   0  0  0  0  0  0  0  0  0  0  0  0
    0.8250   -0.8250    0.0000 C   0  0  0  0  0  0  0  0  0  0  0  0
    1.6893   -0.8250    0.0000 C   0  0  0  0  0  0  0  0  0  0  0  0
    0.8250    0.0000    0.0000 C   0  0  0  0  0  0  0  0  0  0  0  0
    0.0000   -0.8250    0.0000 C   0  0  0  0  0  0  0  0  0  0  0  0
  1 15  1  0  0  0  0
  2 17  1  0  0  0  0
  3 12  1  0  0  0  0
  3 20  1  0  0  0  0
  4 12  2  0  0  0  0
  5 18  1  0  0  0  0
  6 10  1  0  0  0  0
  6 12  1  0  0  0  0
  6 13  1  0  0  0  0
  7  8  1  0  0  0  0
  7  9  1  0  0  0  0
  7 11  1  1  0  0  0
  8 14  1  0  0  0  0
  8 16  2  0  0  0  0
  9 10  1  0  0  0  0
  9 18  1  6  0  0  0
 11 13  1  0  0  0  0
 14 15  2  0  0  0  0
 15 17  1  0  0  0  0
 16 19  1  0  0  0  0
 17 19  2  0  0  0  0
 20 21  1  0  0  0  0
 20 22  1  0  0  0  0
 20 23  1  0  0  0  0
M  END
> <PUBCHEM_COMPOUND_ID_TYPE>
0

> <PUBCHEM_TOTAL_CHARGE>
0

> <PUBCHEM_SUBSTANCE_ID>
310930935

> <PUBCHEM_SUBSTANCE_VERSION>
1

> <PUBCHEM_EXT_DATASOURCE_NAME>
4488

> <PUBCHEM_EXT_DATASOURCE_REGID>
SCHEMBL16108234

> <PUBCHEM_SUBSTANCE_COMMENT>
InChI=1S/C17H23Cl2NO3/c1-17(2,3)23-16(22)20-7-6-13(12(9-20)10-21)11-4-5-14(18)15(19)8-11/h4-5,8,12-13,21H,6-7,9-10H2,1-3H3/t12-,13-/m1/s1
InChIKey=SKAHALDSTUUGJS-CHWSQXEVSA-N

> <PUBCHEM_SUBSTANCE_SYNONYM>
SCHEMBL16108234

> <PUBCHEM_XREF_EXT_ID>
SCHEMBL16108234

> <PUBCHEM_EXT_DATASOURCE_URL>
https://www.surechembl.org/

> <PUBCHEM_EXT_SUBSTANCE_URL>
https://www.surechembl.org/chemical/SCHEMBL16108234

> <PUBCHEM_CID_ASSOCIATIONS>
117599893  1

> <PUBCHEM_COORDINATE_TYPE>
1
3

> <PUBCHEM_BONDANNOTATIONS>
7  11  5
9  18  6

$$$$
