310948969
  -OEChem-07211613022D

 23 24  0     0  0  0  0  0  0999 V2000
    2.1625    1.4436    0.0000 Cl  0  0  0  0  0  0  0  0  0  0  0  0
   -0.7130    1.4436    0.0000 F   0  0  0  0  0  0  0  0  0  0  0  0
    0.0059   -1.4318    0.0000 F   0  0  0  0  0  0  0  0  0  0  0  0
    2.8813    0.2062    0.0000 O   0  0  0  0  0  0  0  0  0  0  0  0
    2.1625   -1.0312    0.0000 O   0  0  0  0  0  0  0  0  0  0  0  0
   -3.6002   -1.0312    0.0000 O   0  5  0  0  0  0  0  0  0  0  0  0
   -2.8813   -2.2567    0.0000 O   0  0  0  0  0  0  0  0  0  0  0  0
    0.7130   -0.2062    0.0000 N   0  0  0  0  0  0  0  0  0  0  0  0
    0.7130    2.2567    0.0000 N   0  0  0  0  0  0  0  0  0  0  0  0
   -2.8813   -1.4436    0.0000 N   0  3  0  0  0  0  0  0  0  0  0  0
   -0.0059    0.2062    0.0000 C   0  0  0  0  0  0  0  0  0  0  0  0
    0.0059    1.0312    0.0000 C   0  0  0  0  0  0  0  0  0  0  0  0
   -0.7130   -0.1945    0.0000 C   0  0  0  0  0  0  0  0  0  0  0  0
    1.4318    0.2062    0.0000 C   0  0  0  0  0  0  0  0  0  0  0  0
    0.7130    1.4436    0.0000 C   0  0  0  0  0  0  0  0  0  0  0  0
    1.4436    1.0430    0.0000 C   0  0  0  0  0  0  0  0  0  0  0  0
   -0.7248   -1.0076    0.0000 C   0  0  0  0  0  0  0  0  0  0  0  0
    2.1625   -0.1709    0.0000 C   0  0  0  0  0  0  0  0  0  0  0  0
   -1.4436    0.1945    0.0000 C   0  0  0  0  0  0  0  0  0  0  0  0
   -2.1507   -1.0194    0.0000 C   0  0  0  0  0  0  0  0  0  0  0  0
   -1.4436   -1.4200    0.0000 C   0  0  0  0  0  0  0  0  0  0  0  0
   -2.1389   -0.1945    0.0000 C   0  0  0  0  0  0  0  0  0  0  0  0
    3.6002   -0.2062    0.0000 C   0  0  0  0  0  0  0  0  0  0  0  0
  1 16  1  0  0  0  0
  2 12  1  0  0  0  0
  3 17  1  0  0  0  0
  4 18  1  0  0  0  0
  4 23  1  0  0  0  0
  5 18  2  0  0  0  0
  6 10  1  0  0  0  0
  7 10  2  0  0  0  0
  8 11  1  0  0  0  0
  8 14  2  0  0  0  0
  9 15  1  0  0  0  0
 10 20  1  0  0  0  0
 11 12  2  0  0  0  0
 11 13  1  0  0  0  0
 12 15  1  0  0  0  0
 13 17  1  0  0  0  0
 13 19  2  0  0  0  0
 14 16  1  0  0  0  0
 14 18  1  0  0  0  0
 15 16  2  0  0  0  0
 17 21  2  0  0  0  0
 19 22  1  0  0  0  0
 20 21  1  0  0  0  0
 20 22  2  0  0  0  0
M  CHG  2   6  -1  10   1
M  END
> <PUBCHEM_COMPOUND_ID_TYPE>
0

> <PUBCHEM_TOTAL_CHARGE>
0

> <PUBCHEM_SUBSTANCE_ID>
310948969

> <PUBCHEM_SUBSTANCE_VERSION>
1

> <PUBCHEM_EXT_DATASOURCE_NAME>
4488

> <PUBCHEM_EXT_DATASOURCE_REGID>
SCHEMBL16127157

> <PUBCHEM_SUBSTANCE_COMMENT>
InChI=1S/C13H8ClF2N3O4/c1-23-13(20)12-8(14)10(17)9(16)11(18-12)6-3-2-5(19(21)22)4-7(6)15/h2-4H,1H3,(H2,17,18)
InChIKey=WFUJIDNTVFXORX-UHFFFAOYSA-N

> <PUBCHEM_SUBSTANCE_SYNONYM>
SCHEMBL16127157

> <PUBCHEM_XREF_EXT_ID>
SCHEMBL16127157

> <PUBCHEM_EXT_DATASOURCE_URL>
https://www.surechembl.org/

> <PUBCHEM_EXT_SUBSTANCE_URL>
https://www.surechembl.org/chemical/SCHEMBL16127157

> <PUBCHEM_CID_ASSOCIATIONS>
117614478  1

> <PUBCHEM_COORDINATE_TYPE>
1
3

$$$$
