310942178
  -OEChem-07211613022D

 22 23  0     1  0  0  0  0  0999 V2000
   -3.9526   -0.2175    0.0000 S   0  0  0  0  0  0  0  0  0  0  0  0
    0.3604   -1.0379    0.0000 F   0  0  0  0  0  0  0  0  0  0  0  0
    1.7898    1.4480    0.0000 F   0  0  0  0  0  0  0  0  0  0  0  0
    1.7898   -0.2175    0.0000 O   0  0  0  0  0  0  0  0  0  0  0  0
   -1.7898    0.2051    0.0000 N   0  0  0  0  0  0  0  0  0  0  0  0
    1.0690    0.2051    0.0000 C   0  0  0  0  0  0  0  0  0  0  0  0
    0.3604   -0.2051    0.0000 C   0  0  0  0  0  0  0  0  0  0  0  0
   -0.3604    0.2051    0.0000 C   0  0  0  0  0  0  0  0  0  0  0  0
    1.0814    1.0379    0.0000 C   0  0  0  0  0  0  0  0  0  0  0  0
   -1.0690   -0.2175    0.0000 C   0  0  3  0  0  0  0  0  0  0  0  0
   -0.3480    1.0255    0.0000 C   0  0  0  0  0  0  0  0  0  0  0  0
    0.3729    1.4356    0.0000 C   0  0  0  0  0  0  0  0  0  0  0  0
    2.5108    0.2051    0.0000 C   0  0  0  0  0  0  0  0  0  0  0  0
   -1.0938   -1.0503    0.0000 C   0  0  0  0  0  0  0  0  0  0  0  0
    3.2441   -0.2051    0.0000 C   0  0  0  0  0  0  0  0  0  0  0  0
    2.5232    1.0255    0.0000 C   0  0  0  0  0  0  0  0  0  0  0  0
   -2.4983   -0.2051    0.0000 C   0  0  0  0  0  0  0  0  0  0  0  0
    3.9526    0.2051    0.0000 C   0  0  0  0  0  0  0  0  0  0  0  0
    3.2441    1.4356    0.0000 C   0  0  0  0  0  0  0  0  0  0  0  0
    3.9526    1.0255    0.0000 C   0  0  0  0  0  0  0  0  0  0  0  0
   -1.7774   -1.4480    0.0000 C   0  0  0  0  0  0  0  0  0  0  0  0
   -3.2192    0.2051    0.0000 C   0  0  0  0  0  0  0  0  0  0  0  0
  1 22  1  0  0  0  0
  2  7  1  0  0  0  0
  3  9  1  0  0  0  0
  4  6  1  0  0  0  0
  4 13  1  0  0  0  0
 10  5  1  6  0  0  0
  5 17  1  0  0  0  0
  6  7  1  0  0  0  0
  6  9  2  0  0  0  0
  7  8  2  0  0  0  0
  8 10  1  0  0  0  0
  8 11  1  0  0  0  0
  9 12  1  0  0  0  0
 10 14  1  0  0  0  0
 11 12  2  0  0  0  0
 13 15  2  0  0  0  0
 13 16  1  0  0  0  0
 14 21  1  0  0  0  0
 15 18  1  0  0  0  0
 16 19  2  0  0  0  0
 17 22  1  0  0  0  0
 18 20  2  0  0  0  0
 19 20  1  0  0  0  0
M  END
> <PUBCHEM_COMPOUND_ID_TYPE>
0

> <PUBCHEM_TOTAL_CHARGE>
0

> <PUBCHEM_SUBSTANCE_ID>
310942178

> <PUBCHEM_SUBSTANCE_VERSION>
1

> <PUBCHEM_EXT_DATASOURCE_NAME>
4488

> <PUBCHEM_EXT_DATASOURCE_REGID>
SCHEMBL16120213

> <PUBCHEM_SUBSTANCE_COMMENT>
InChI=1S/C17H19F2NOS/c1-2-15(20-10-11-22)13-8-9-14(18)17(16(13)19)21-12-6-4-3-5-7-12/h3-9,15,20,22H,2,10-11H2,1H3/t15-/m0/s1
InChIKey=ANCAFJQWQDSNEX-HNNXBMFYSA-N

> <PUBCHEM_SUBSTANCE_SYNONYM>
SCHEMBL16120213

> <PUBCHEM_XREF_EXT_ID>
SCHEMBL16120213

> <PUBCHEM_EXT_DATASOURCE_URL>
https://www.surechembl.org/

> <PUBCHEM_EXT_SUBSTANCE_URL>
https://www.surechembl.org/chemical/SCHEMBL16120213

> <PUBCHEM_CID_ASSOCIATIONS>
117608829  1

> <PUBCHEM_COORDINATE_TYPE>
1
3

> <PUBCHEM_BONDANNOTATIONS>
10  5  6

$$$$
