310947475
  -OEChem-07211613022D

 27 29  0     0  0  0  0  0  0999 V2000
   -1.9192   -3.0980    0.0000 O   0  0  0  0  0  0  0  0  0  0  0  0
    3.1937   -4.0237    0.0000 O   0  0  0  0  0  0  0  0  0  0  0  0
    3.5636   -2.6433    0.0000 O   0  0  0  0  0  0  0  0  0  0  0  0
   -0.4902   -3.9229    0.0000 N   0  0  0  0  0  0  0  0  0  0  0  0
   -2.6336   -4.3354    0.0000 N   0  0  0  0  0  0  0  0  0  0  0  0
    0.2944   -4.1778    0.0000 C   0  0  0  0  0  0  0  0  0  0  0  0
    0.7793   -3.5104    0.0000 C   0  0  0  0  0  0  0  0  0  0  0  0
    1.5999   -3.5966    0.0000 C   0  0  0  0  0  0  0  0  0  0  0  0
    0.2944   -2.8431    0.0000 C   0  0  0  0  0  0  0  0  0  0  0  0
   -0.4902   -3.0980    0.0000 C   0  0  0  0  0  0  0  0  0  0  0  0
   -1.2047   -4.3354    0.0000 C   0  0  0  0  0  0  0  0  0  0  0  0
    0.6300   -4.9316    0.0000 C   0  0  0  0  0  0  0  0  0  0  0  0
   -1.9192   -3.9229    0.0000 C   0  0  0  0  0  0  0  0  0  0  0  0
    1.9354   -4.3503    0.0000 C   0  0  0  0  0  0  0  0  0  0  0  0
    1.4505   -5.0179    0.0000 C   0  0  0  0  0  0  0  0  0  0  0  0
    2.1832   -3.0133    0.0000 C   0  0  0  0  0  0  0  0  0  0  0  0
   -2.6336   -5.1604    0.0000 C   0  0  0  0  0  0  0  0  0  0  0  0
    2.9801   -3.2268    0.0000 C   0  0  0  0  0  0  0  0  0  0  0  0
   -3.3482   -3.9229    0.0000 C   0  0  0  0  0  0  0  0  0  0  0  0
   -3.3482   -5.5729    0.0000 C   0  0  0  0  0  0  0  0  0  0  0  0
   -1.9192   -5.5729    0.0000 C   0  0  0  0  0  0  0  0  0  0  0  0
   -3.3482   -6.3981    0.0000 C   0  0  0  0  0  0  0  0  0  0  0  0
   -1.9192   -6.3981    0.0000 C   0  0  0  0  0  0  0  0  0  0  0  0
   -3.3482   -3.0980    0.0000 C   0  0  0  0  0  0  0  0  0  0  0  0
   -2.6336   -6.8105    0.0000 C   0  0  0  0  0  0  0  0  0  0  0  0
    4.2562   -4.3083    0.0000 C   0  0  0  0  0  0  0  0  0  0  0  0
   -4.0626   -2.6855    0.0000 C   0  0  0  0  0  0  0  0  0  0  0  0
  1 13  2  0  0  0  0
  2 18  1  0  0  0  0
  2 26  1  0  0  0  0
  3 18  2  0  0  0  0
  4  6  1  0  0  0  0
  4 10  1  0  0  0  0
  4 11  1  0  0  0  0
  5 13  1  0  0  0  0
  5 17  1  0  0  0  0
  5 19  1  0  0  0  0
  6  7  2  0  0  0  0
  6 12  1  0  0  0  0
  7  8  1  0  0  0  0
  7  9  1  0  0  0  0
  8 14  2  0  0  0  0
  8 16  1  0  0  0  0
  9 10  2  0  0  0  0
 11 13  1  0  0  0  0
 12 15  2  0  0  0  0
 14 15  1  0  0  0  0
 16 18  1  0  0  0  0
 17 20  2  0  0  0  0
 17 21  1  0  0  0  0
 19 24  1  0  0  0  0
 20 22  1  0  0  0  0
 21 23  2  0  0  0  0
 22 25  2  0  0  0  0
 23 25  1  0  0  0  0
 24 27  1  0  0  0  0
M  END
> <PUBCHEM_COMPOUND_ID_TYPE>
0

> <PUBCHEM_TOTAL_CHARGE>
0

> <PUBCHEM_SUBSTANCE_ID>
310947475

> <PUBCHEM_SUBSTANCE_VERSION>
1

> <PUBCHEM_EXT_DATASOURCE_NAME>
4488

> <PUBCHEM_EXT_DATASOURCE_REGID>
SCHEMBL16125636

> <PUBCHEM_SUBSTANCE_COMMENT>
InChI=1S/C22H24N2O3/c1-3-13-24(18-9-5-4-6-10-18)21(25)16-23-14-12-19-17(15-22(26)27-2)8-7-11-20(19)23/h4-12,14H,3,13,15-16H2,1-2H3
InChIKey=VBGKBBOUSNZOFQ-UHFFFAOYSA-N

> <PUBCHEM_SUBSTANCE_SYNONYM>
SCHEMBL16125636

> <PUBCHEM_XREF_EXT_ID>
SCHEMBL16125636

> <PUBCHEM_EXT_DATASOURCE_URL>
https://www.surechembl.org/

> <PUBCHEM_EXT_SUBSTANCE_URL>
https://www.surechembl.org/chemical/SCHEMBL16125636

> <PUBCHEM_CID_ASSOCIATIONS>
117613206  1

> <PUBCHEM_COORDINATE_TYPE>
1
3

$$$$
