310947140
  -OEChem-07211613022D

 48 50  0     1  0  0  0  0  0999 V2000
   -5.9523   -3.3273    0.0000 Cl  0  0  0  0  0  0  0  0  0  0  0  0
   -5.5107    0.5747    0.0000 P   0  0  3  0  0  0  0  0  0  0  0  0
   -6.8909    0.2049    0.0000 O   0  0  0  0  0  0  0  0  0  0  0  0
   -5.0982   -0.1398    0.0000 O   0  0  0  0  0  0  0  0  0  0  0  0
   -5.5107    1.3997    0.0000 O   0  0  0  0  0  0  0  0  0  0  0  0
   -1.9589    1.2289    0.0000 O   0  0  0  0  0  0  0  0  0  0  0  0
   -8.2712    0.6600    0.0000 N   0  0  0  0  0  0  0  0  0  0  0  0
   -7.8587    1.9296    0.0000 N   0  0  0  0  0  0  0  0  0  0  0  0
   -9.7456    0.9734    0.0000 N   0  0  0  0  0  0  0  0  0  0  0  0
  -10.0427    2.3712    0.0000 N   0  0  0  0  0  0  0  0  0  0  0  0
   -8.9808    3.3273    0.0000 N   0  0  0  0  0  0  0  0  0  0  0  0
   -4.6857    0.5747    0.0000 N   0  0  0  0  0  0  0  0  0  0  0  0
   -2.6734   -0.0086    0.0000 N   0  0  0  0  0  0  0  0  0  0  0  0
   -8.9386    1.1450    0.0000 C   0  0  0  0  0  0  0  0  0  0  0  0
   -8.6837    1.9296    0.0000 C   0  0  0  0  0  0  0  0  0  0  0  0
   -9.2357    2.5427    0.0000 C   0  0  0  0  0  0  0  0  0  0  0  0
   -7.6037    1.1450    0.0000 C   0  0  0  0  0  0  0  0  0  0  0  0
   -8.2712   -0.1650    0.0000 C   0  0  0  0  0  0  0  0  0  0  0  0
  -10.2976    1.5865    0.0000 C   0  0  0  0  0  0  0  0  0  0  0  0
   -7.4743   -0.3785    0.0000 C   0  0  3  0  0  0  0  0  0  0  0  0
   -6.0940   -0.0086    0.0000 C   0  0  0  0  0  0  0  0  0  0  0  0
   -5.3117   -0.9366    0.0000 C   0  0  0  0  0  0  0  0  0  0  0  0
   -7.2608   -1.1754    0.0000 C   0  0  0  0  0  0  0  0  0  0  0  0
   -4.7283   -1.5200    0.0000 C   0  0  0  0  0  0  0  0  0  0  0  0
   -6.1086   -1.1502    0.0000 C   0  0  0  0  0  0  0  0  0  0  0  0
   -4.1023   -0.0086    0.0000 C   0  0  0  0  0  0  0  0  0  0  0  0
   -5.7388   -2.5304    0.0000 C   0  0  0  0  0  0  0  0  0  0  0  0
   -4.9419   -2.3169    0.0000 C   0  0  0  0  0  0  0  0  0  0  0  0
   -6.3221   -1.9471    0.0000 C   0  0  0  0  0  0  0  0  0  0  0  0
   -3.3878    0.4039    0.0000 C   0  0  0  0  0  0  0  0  0  0  0  0
   -1.9589    0.4039    0.0000 C   0  0  0  0  0  0  0  0  0  0  0  0
   -1.2444   -0.0086    0.0000 C   0  0  0  0  0  0  0  0  0  0  0  0
   -0.5300    0.4039    0.0000 C   0  0  0  0  0  0  0  0  0  0  0  0
    0.1845   -0.0086    0.0000 C   0  0  0  0  0  0  0  0  0  0  0  0
    0.8990    0.4039    0.0000 C   0  0  0  0  0  0  0  0  0  0  0  0
    1.6134   -0.0086    0.0000 C   0  0  0  0  0  0  0  0  0  0  0  0
    2.3279    0.4039    0.0000 C   0  0  0  0  0  0  0  0  0  0  0  0
    3.0424   -0.0086    0.0000 C   0  0  0  0  0  0  0  0  0  0  0  0
    3.7569    0.4039    0.0000 C   0  0  0  0  0  0  0  0  0  0  0  0
    4.5819    0.4039    0.0000 C   0  0  0  0  0  0  0  0  0  0  0  0
    5.2963   -0.0086    0.0000 C   0  0  0  0  0  0  0  0  0  0  0  0
    6.0108    0.4039    0.0000 C   0  0  0  0  0  0  0  0  0  0  0  0
    6.7253   -0.0086    0.0000 C   0  0  0  0  0  0  0  0  0  0  0  0
    7.4397    0.4039    0.0000 C   0  0  0  0  0  0  0  0  0  0  0  0
    8.1542   -0.0086    0.0000 C   0  0  0  0  0  0  0  0  0  0  0  0
    8.8687    0.4039    0.0000 C   0  0  0  0  0  0  0  0  0  0  0  0
    9.5832   -0.0086    0.0000 C   0  0  0  0  0  0  0  0  0  0  0  0
   10.2976    0.4039    0.0000 C   0  0  0  0  0  0  0  0  0  0  0  0
  1 27  1  0  0  0  0
  2  4  1  0  0  0  0
  2  5  2  0  0  0  0
  2 12  1  0  0  0  0
  2 21  1  0  0  0  0
  3 20  1  0  0  0  0
  3 21  1  0  0  0  0
  4 22  1  0  0  0  0
  6 31  2  0  0  0  0
  7 14  1  0  0  0  0
  7 17  1  0  0  0  0
  7 18  1  0  0  0  0
  8 15  1  0  0  0  0
  8 17  2  0  0  0  0
  9 14  1  0  0  0  0
  9 19  2  0  0  0  0
 10 16  2  0  0  0  0
 10 19  1  0  0  0  0
 11 16  1  0  0  0  0
 12 26  1  0  0  0  0
 13 30  1  0  0  0  0
 13 31  1  0  0  0  0
 14 15  2  0  0  0  0
 15 16  1  0  0  0  0
 18 20  1  0  0  0  0
 20 23  1  6  0  0  0
 22 24  2  0  0  0  0
 22 25  1  0  0  0  0
 24 28  1  0  0  0  0
 25 29  2  0  0  0  0
 26 30  1  0  0  0  0
 27 28  2  0  0  0  0
 27 29  1  0  0  0  0
 31 32  1  0  0  0  0
 32 33  1  0  0  0  0
 33 34  1  0  0  0  0
 34 35  1  0  0  0  0
 35 36  1  0  0  0  0
 36 37  1  0  0  0  0
 37 38  1  0  0  0  0
 38 39  1  0  0  0  0
 39 40  2  0  0  0  0
 40 41  1  0  0  0  0
 41 42  1  0  0  0  0
 42 43  1  0  0  0  0
 43 44  1  0  0  0  0
 44 45  1  0  0  0  0
 45 46  1  0  0  0  0
 46 47  1  0  0  0  0
 47 48  1  0  0  0  0
M  END
> <PUBCHEM_COMPOUND_ID_TYPE>
0

> <PUBCHEM_TOTAL_CHARGE>
0

> <PUBCHEM_SUBSTANCE_ID>
310947140

> <PUBCHEM_SUBSTANCE_VERSION>
1

> <PUBCHEM_EXT_DATASOURCE_NAME>
4488

> <PUBCHEM_EXT_DATASOURCE_REGID>
SCHEMBL16125294

> <PUBCHEM_SUBSTANCE_COMMENT>
InChI=1S/C35H55ClN7O4P/c1-3-4-5-6-7-8-9-10-11-12-13-14-15-16-17-18-32(44)38-23-24-42-48(45,47-31-21-19-30(36)20-22-31)28-46-29(2)25-43-27-41-33-34(37)39-26-40-35(33)43/h10-11,19-22,26-27,29H,3-9,12-18,23-25,28H2,1-2H3,(H,38,44)(H,42,45)(H2,37,39,40)/b11-10-/t29-,48?/m1/s1
InChIKey=FNOQZLQQTFIRSP-FXJAMSEWSA-N

> <PUBCHEM_SUBSTANCE_SYNONYM>
SCHEMBL16125294

> <PUBCHEM_XREF_EXT_ID>
SCHEMBL16125294

> <PUBCHEM_EXT_DATASOURCE_URL>
https://www.surechembl.org/

> <PUBCHEM_EXT_SUBSTANCE_URL>
https://www.surechembl.org/chemical/SCHEMBL16125294

> <PUBCHEM_CID_ASSOCIATIONS>
86271629  1

> <PUBCHEM_COORDINATE_TYPE>
1
3

> <PUBCHEM_BONDANNOTATIONS>
20  23  6

$$$$
