310949243
  -OEChem-07211613022D

 34 39  0     0  0  0  0  0  0999 V2000
   -2.7522   -2.0422    0.0000 F   0  0  0  0  0  0  0  0  0  0  0  0
   -3.1986   -1.0008    0.0000 F   0  0  0  0  0  0  0  0  0  0  0  0
   -2.1301   -0.5545    0.0000 F   0  0  0  0  0  0  0  0  0  0  0  0
   -0.7777   -0.4598    0.0000 N   0  0  0  0  0  0  0  0  0  0  0  0
    1.3998   -0.9062    0.0000 N   0  0  0  0  0  0  0  0  0  0  0  0
   -0.1014    0.0676    0.0000 C   0  0  0  0  0  0  0  0  0  0  0  0
    1.2646    0.5139    0.0000 C   0  0  0  0  0  0  0  0  0  0  0  0
   -0.3719    0.8250    0.0000 C   0  0  0  0  0  0  0  0  0  0  0  0
    1.0076    1.2983    0.0000 C   0  0  0  0  0  0  0  0  0  0  0  0
    2.0896    0.5004    0.0000 C   0  0  0  0  0  0  0  0  0  0  0  0
   -1.4403    0.0541    0.0000 C   0  0  0  0  0  0  0  0  0  0  0  0
   -1.1969    0.8250    0.0000 C   0  0  0  0  0  0  0  0  0  0  0  0
    1.6838    1.7717    0.0000 C   0  0  0  0  0  0  0  0  0  0  0  0
    2.3465    1.2983    0.0000 C   0  0  0  0  0  0  0  0  0  0  0  0
    0.6965   -0.1082    0.0000 C   0  0  0  0  0  0  0  0  0  0  0  0
   -0.7777   -1.2848    0.0000 C   0  0  0  0  0  0  0  0  0  0  0  0
    0.1961    1.4201    0.0000 C   0  0  0  0  0  0  0  0  0  0  0  0
   -1.4809   -1.6906    0.0000 C   0  0  0  0  0  0  0  0  0  0  0  0
   -0.0473   -1.6771    0.0000 C   0  0  0  0  0  0  0  0  0  0  0  0
   -2.2383   -0.1218    0.0000 C   0  0  0  0  0  0  0  0  0  0  0  0
   -1.7379    1.4336    0.0000 C   0  0  0  0  0  0  0  0  0  0  0  0
    1.7650    2.5967    0.0000 C   0  0  0  0  0  0  0  0  0  0  0  0
    3.1039    1.6229    0.0000 C   0  0  0  0  0  0  0  0  0  0  0  0
   -2.4411   -1.2848    0.0000 C   0  0  0  0  0  0  0  0  0  0  0  0
    2.1031   -0.3517    0.0000 C   0  0  0  0  0  0  0  0  0  0  0  0
    2.9146    0.2705    0.0000 C   0  0  0  0  0  0  0  0  0  0  0  0
   -1.4809   -2.5291    0.0000 C   0  0  0  0  0  0  0  0  0  0  0  0
   -0.0608   -2.5291    0.0000 C   0  0  0  0  0  0  0  0  0  0  0  0
   -2.8063    0.4869    0.0000 C   0  0  0  0  0  0  0  0  0  0  0  0
   -2.5358    1.2713    0.0000 C   0  0  0  0  0  0  0  0  0  0  0  0
    2.5223    2.9213    0.0000 C   0  0  0  0  0  0  0  0  0  0  0  0
    3.1986    2.4479    0.0000 C   0  0  0  0  0  0  0  0  0  0  0  0
    0.6695   -1.2848    0.0000 C   0  0  0  0  0  0  0  0  0  0  0  0
   -0.7777   -2.9213    0.0000 C   0  0  0  0  0  0  0  0  0  0  0  0
  1 24  1  0  0  0  0
  2 24  1  0  0  0  0
  3 24  1  0  0  0  0
  4  6  1  0  0  0  0
  4 11  1  0  0  0  0
  4 16  1  0  0  0  0
  5 33  3  0  0  0  0
  6  8  2  0  0  0  0
  6 15  1  0  0  0  0
  7  9  1  0  0  0  0
  7 10  1  0  0  0  0
  7 15  2  0  0  0  0
  8 12  1  0  0  0  0
  8 17  1  0  0  0  0
  9 13  1  0  0  0  0
  9 17  2  0  0  0  0
 10 14  1  0  0  0  0
 10 25  1  0  0  0  0
 10 26  1  0  0  0  0
 11 12  2  0  0  0  0
 11 20  1  0  0  0  0
 12 21  1  0  0  0  0
 13 14  2  0  0  0  0
 13 22  1  0  0  0  0
 14 23  1  0  0  0  0
 16 18  1  0  0  0  0
 16 19  2  0  0  0  0
 18 24  1  0  0  0  0
 18 27  2  0  0  0  0
 19 28  1  0  0  0  0
 19 33  1  0  0  0  0
 20 29  2  0  0  0  0
 21 30  2  0  0  0  0
 22 31  2  0  0  0  0
 23 32  2  0  0  0  0
 27 34  1  0  0  0  0
 28 34  2  0  0  0  0
 29 30  1  0  0  0  0
 31 32  1  0  0  0  0
M  END
> <PUBCHEM_COMPOUND_ID_TYPE>
0

> <PUBCHEM_TOTAL_CHARGE>
0

> <PUBCHEM_SUBSTANCE_ID>
310949243

> <PUBCHEM_SUBSTANCE_VERSION>
1

> <PUBCHEM_EXT_DATASOURCE_NAME>
4488

> <PUBCHEM_EXT_DATASOURCE_REGID>
SCHEMBL16127433

> <PUBCHEM_SUBSTANCE_COMMENT>
InChI=1S/C29H19F3N2/c1-28(2)22-11-5-3-9-18(22)20-14-21-19-10-4-6-13-25(19)34(26(21)15-24(20)28)27-17(16-33)8-7-12-23(27)29(30,31)32/h3-15H,1-2H3
InChIKey=YVDRATRDAMAHKI-UHFFFAOYSA-N

> <PUBCHEM_SUBSTANCE_SYNONYM>
SCHEMBL16127433

> <PUBCHEM_XREF_EXT_ID>
SCHEMBL16127433

> <PUBCHEM_EXT_DATASOURCE_URL>
https://www.surechembl.org/

> <PUBCHEM_EXT_SUBSTANCE_URL>
https://www.surechembl.org/chemical/SCHEMBL16127433

> <PUBCHEM_CID_ASSOCIATIONS>
117614731  1

> <PUBCHEM_COORDINATE_TYPE>
1
3

$$$$
