310941420
  -OEChem-07211613022D

 14 14  0     1  0  0  0  0  0999 V2000
    0.0139    1.1122    0.0000 O   0  0  0  0  0  0  0  0  0  0  0  0
   -2.8499   -0.3197    0.0000 O   0  0  0  0  0  0  0  0  0  0  0  0
    2.8499    0.3059    0.0000 O   0  0  0  0  0  0  0  0  0  0  0  0
    2.2382   -0.9592    0.0000 O   0  0  0  0  0  0  0  0  0  0  0  0
    0.7368   -0.1112    0.0000 N   0  0  0  0  0  0  0  0  0  0  0  0
   -0.7090   -0.1252    0.0000 C   0  0  3  0  0  0  0  0  0  0  0  0
    0.0695    0.2780    0.0000 C   0  0  0  0  0  0  0  0  0  0  0  0
    1.4458    0.2920    0.0000 C   0  0  3  0  0  0  0  0  0  0  0  0
   -1.4458    0.2086    0.0000 C   0  0  0  0  0  0  0  0  0  0  0  0
   -2.0158   -0.4032    0.0000 C   0  0  3  0  0  0  0  0  0  0  0  0
   -0.7924   -0.9315    0.0000 C   0  0  0  0  0  0  0  0  0  0  0  0
   -1.5848   -1.1122    0.0000 C   0  0  0  0  0  0  0  0  0  0  0  0
    2.1826   -0.1252    0.0000 C   0  0  0  0  0  0  0  0  0  0  0  0
    1.4597    1.1122    0.0000 C   0  0  0  0  0  0  0  0  0  0  0  0
  1  7  2  0  0  0  0
 10  2  1  1  0  0  0
  3 13  2  0  0  0  0
  4 13  1  0  0  0  0
  5  7  1  0  0  0  0
  5  8  1  0  0  0  0
  6  7  1  6  0  0  0
  6  9  1  0  0  0  0
  6 11  1  0  0  0  0
  8 13  1  0  0  0  0
  8 14  1  6  0  0  0
  9 10  1  0  0  0  0
 10 12  1  0  0  0  0
 11 12  1  0  0  0  0
M  END
> <PUBCHEM_COMPOUND_ID_TYPE>
0

> <PUBCHEM_TOTAL_CHARGE>
0

> <PUBCHEM_SUBSTANCE_ID>
310941420

> <PUBCHEM_SUBSTANCE_VERSION>
1

> <PUBCHEM_EXT_DATASOURCE_NAME>
4488

> <PUBCHEM_EXT_DATASOURCE_REGID>
SCHEMBL16119380

> <PUBCHEM_SUBSTANCE_COMMENT>
InChI=1S/C9H15NO4/c1-5(9(13)14)10-8(12)6-2-3-7(11)4-6/h5-7,11H,2-4H2,1H3,(H,10,12)(H,13,14)/t5-,6-,7-/m1/s1
InChIKey=SLXCHHSPZFXGQA-FSDSQADBSA-N

> <PUBCHEM_SUBSTANCE_SYNONYM>
SCHEMBL16119380

> <PUBCHEM_XREF_EXT_ID>
SCHEMBL16119380

> <PUBCHEM_EXT_DATASOURCE_URL>
https://www.surechembl.org/

> <PUBCHEM_EXT_SUBSTANCE_URL>
https://www.surechembl.org/chemical/SCHEMBL16119380

> <PUBCHEM_CID_ASSOCIATIONS>
117608245  1

> <PUBCHEM_COORDINATE_TYPE>
1
3

> <PUBCHEM_BONDANNOTATIONS>
10  2  5
6  7  6
8  14  6

$$$$
