310943907
  -OEChem-07211613022D

 34 38  0     1  0  0  0  0  0999 V2000
    2.4788    0.7767    0.0000 O   0  0  0  0  0  0  0  0  0  0  0  0
    5.4314    0.3140    0.0000 O   0  0  0  0  0  0  0  0  0  0  0  0
    5.3653    1.7793    0.0000 O   0  0  0  0  0  0  0  0  0  0  0  0
   -1.5534    0.4462    0.0000 O   0  0  0  0  0  0  0  0  0  0  0  0
   -0.4848   -1.7793    0.0000 O   0  0  0  0  0  0  0  0  0  0  0  0
    3.4043   -0.3690    0.0000 N   0  0  0  0  0  0  0  0  0  0  0  0
    0.4517   -0.4572    0.0000 N   0  0  0  0  0  0  0  0  0  0  0  0
   -4.1314   -0.7767    0.0000 N   0  0  0  0  0  0  0  0  0  0  0  0
   -4.6712   -1.3937    0.0000 N   0  0  0  0  0  0  0  0  0  0  0  0
   -5.4314   -1.0852    0.0000 N   0  0  0  0  0  0  0  0  0  0  0  0
   -5.3653   -0.2589    0.0000 N   0  0  0  0  0  0  0  0  0  0  0  0
    2.0932   -0.6225    0.0000 C   0  0  0  0  0  0  0  0  0  0  0  0
    2.6551   -0.0166    0.0000 C   0  0  0  0  0  0  0  0  0  0  0  0
    4.1204    0.0496    0.0000 C   0  0  0  0  0  0  0  0  0  0  0  0
    2.5119   -1.3386    0.0000 C   0  0  0  0  0  0  0  0  0  0  0  0
    3.3162   -1.1734    0.0000 C   0  0  0  0  0  0  0  0  0  0  0  0
    1.6085   -1.2835    0.0000 C   0  0  0  0  0  0  0  0  0  0  0  0
    1.7627    0.1267    0.0000 C   0  0  0  0  0  0  0  0  0  0  0  0
    4.2196    0.8759    0.0000 C   0  0  0  0  0  0  0  0  0  0  0  0
    4.8805   -0.2809    0.0000 C   0  0  0  0  0  0  0  0  0  0  0  0
    0.7822   -1.1953    0.0000 C   0  0  0  0  0  0  0  0  0  0  0  0
    0.9364    0.2148    0.0000 C   0  0  0  0  0  0  0  0  0  0  0  0
    5.0128    1.0191    0.0000 C   0  0  0  0  0  0  0  0  0  0  0  0
   -1.6746   -0.9640    0.0000 C   0  0  0  0  0  0  0  0  0  0  0  0
   -0.3746   -0.3581    0.0000 C   0  0  0  0  0  0  0  0  0  0  0  0
   -0.8373   -1.0411    0.0000 C   0  0  3  0  0  0  0  0  0  0  0  0
   -2.0161   -0.2259    0.0000 C   0  0  0  0  0  0  0  0  0  0  0  0
   -3.3051   -0.8318    0.0000 C   0  0  0  0  0  0  0  0  0  0  0  0
    3.6026    1.4377    0.0000 C   0  0  0  0  0  0  0  0  0  0  0  0
   -2.8314   -0.1597    0.0000 C   0  0  0  0  0  0  0  0  0  0  0  0
   -2.1263   -1.6361    0.0000 C   0  0  0  0  0  0  0  0  0  0  0  0
   -2.9415   -1.5809    0.0000 C   0  0  0  0  0  0  0  0  0  0  0  0
   -4.5721   -0.0606    0.0000 C   0  0  0  0  0  0  0  0  0  0  0  0
   -1.9060    1.2064    0.0000 C   0  0  0  0  0  0  0  0  0  0  0  0
  1 13  2  0  0  0  0
  2 20  1  0  0  0  0
  2 23  1  0  0  0  0
  3 23  2  0  0  0  0
  4 27  1  0  0  0  0
  4 34  1  0  0  0  0
 26  5  1  1  0  0  0
  6 13  1  0  0  0  0
  6 14  1  0  0  0  0
  6 16  1  0  0  0  0
  7 21  1  0  0  0  0
  7 22  1  0  0  0  0
  7 25  1  0  0  0  0
  8  9  1  0  0  0  0
  8 28  1  0  0  0  0
  8 33  1  0  0  0  0
  9 10  2  0  0  0  0
 10 11  1  0  0  0  0
 11 33  2  0  0  0  0
 12 13  1  0  0  0  0
 12 15  1  0  0  0  0
 12 17  1  0  0  0  0
 12 18  1  0  0  0  0
 14 19  2  0  0  0  0
 14 20  1  0  0  0  0
 15 16  1  0  0  0  0
 17 21  1  0  0  0  0
 18 22  1  0  0  0  0
 19 23  1  0  0  0  0
 19 29  1  0  0  0  0
 24 26  1  0  0  0  0
 24 27  2  0  0  0  0
 24 31  1  0  0  0  0
 25 26  1  0  0  0  0
 27 30  1  0  0  0  0
 28 30  2  0  0  0  0
 28 32  1  0  0  0  0
 31 32  2  0  0  0  0
M  END
> <PUBCHEM_COMPOUND_ID_TYPE>
0

> <PUBCHEM_TOTAL_CHARGE>
0

> <PUBCHEM_SUBSTANCE_ID>
310943907

> <PUBCHEM_SUBSTANCE_VERSION>
1

> <PUBCHEM_EXT_DATASOURCE_NAME>
4488

> <PUBCHEM_EXT_DATASOURCE_REGID>
SCHEMBL16121978

> <PUBCHEM_SUBSTANCE_COMMENT>
InChI=1S/C23H28N6O5/c1-15-18(13-34-21(15)31)28-10-7-23(22(28)32)5-8-27(9-6-23)12-19(30)17-4-3-16(11-20(17)33-2)29-14-24-25-26-29/h3-4,11,14,19,30H,5-10,12-13H2,1-2H3/t19-/m1/s1
InChIKey=FLFPFOSXQGFPRT-LJQANCHMSA-N

> <PUBCHEM_SUBSTANCE_SYNONYM>
SCHEMBL16121978

> <PUBCHEM_XREF_EXT_ID>
SCHEMBL16121978

> <PUBCHEM_EXT_DATASOURCE_URL>
https://www.surechembl.org/

> <PUBCHEM_EXT_SUBSTANCE_URL>
https://www.surechembl.org/chemical/SCHEMBL16121978

> <PUBCHEM_CID_ASSOCIATIONS>
117610223  1

> <PUBCHEM_COORDINATE_TYPE>
1
3

> <PUBCHEM_BONDANNOTATIONS>
26  5  5

$$$$
