310941833
  -OEChem-07211613022D

 26 29  0     0  0  0  0  0  0999 V2000
    3.8982    0.2488    0.0000 S   0  0  0  0  0  0  0  0  0  0  0  0
   -0.8017    0.4976    0.0000 O   0  0  0  0  0  0  0  0  0  0  0  0
    4.5064    0.8294    0.0000 O   0  0  0  0  0  0  0  0  0  0  0  0
    3.7047    1.0644    0.0000 O   0  0  0  0  0  0  0  0  0  0  0  0
    1.7003    0.4423    0.0000 N   0  0  0  0  0  0  0  0  0  0  0  0
    1.8662    1.7832    0.0000 N   0  0  0  0  0  0  0  0  0  0  0  0
    2.6265    1.4238    0.0000 N   0  0  0  0  0  0  0  0  0  0  0  0
    3.1241    0.0138    0.0000 N   0  0  0  0  0  0  0  0  0  0  0  0
    0.4285   -0.2488    0.0000 C   0  0  0  0  0  0  0  0  0  0  0  0
    1.2994    1.1612    0.0000 C   0  0  0  0  0  0  0  0  0  0  0  0
    2.5158    0.5944    0.0000 C   0  0  0  0  0  0  0  0  0  0  0  0
    0.0277    0.4700    0.0000 C   0  0  0  0  0  0  0  0  0  0  0  0
    1.2580   -0.2765    0.0000 C   0  0  0  0  0  0  0  0  0  0  0  0
   -0.0138   -0.9815    0.0000 C   0  0  0  0  0  0  0  0  0  0  0  0
    0.4700    1.1888    0.0000 C   0  0  0  0  0  0  0  0  0  0  0  0
   -0.0277   -1.7832    0.0000 C   0  0  0  0  0  0  0  0  0  0  0  0
   -0.7050   -1.3685    0.0000 C   0  0  0  0  0  0  0  0  0  0  0  0
   -1.2303   -0.2073    0.0000 C   0  0  0  0  0  0  0  0  0  0  0  0
   -2.0597   -0.1797    0.0000 C   0  0  0  0  0  0  0  0  0  0  0  0
    4.5202   -0.3318    0.0000 C   0  0  0  0  0  0  0  0  0  0  0  0
   -2.4606    0.5391    0.0000 C   0  0  0  0  0  0  0  0  0  0  0  0
   -2.4882   -0.8985    0.0000 C   0  0  0  0  0  0  0  0  0  0  0  0
   -3.7047   -0.1520    0.0000 C   0  0  0  0  0  0  0  0  0  0  0  0
   -3.2762    0.5529    0.0000 C   0  0  0  0  0  0  0  0  0  0  0  0
   -3.3176   -0.8709    0.0000 C   0  0  0  0  0  0  0  0  0  0  0  0
   -4.5202   -0.1382    0.0000 C   0  0  0  0  0  0  0  0  0  0  0  0
  1  3  2  0  0  0  0
  1  4  2  0  0  0  0
  1  8  1  0  0  0  0
  1 20  1  0  0  0  0
  2 12  1  0  0  0  0
  2 18  1  0  0  0  0
  5 10  1  0  0  0  0
  5 11  1  0  0  0  0
  5 13  1  0  0  0  0
  6  7  1  0  0  0  0
  6 10  2  0  0  0  0
  7 11  2  0  0  0  0
  8 11  1  0  0  0  0
  9 12  1  0  0  0  0
  9 13  2  0  0  0  0
  9 14  1  0  0  0  0
 10 15  1  0  0  0  0
 12 15  2  0  0  0  0
 14 16  1  0  0  0  0
 14 17  1  0  0  0  0
 16 17  1  0  0  0  0
 19 18  1  1  0  0  0
 19 21  1  0  0  0  0
 19 22  1  0  0  0  0
 21 24  1  0  0  0  0
 22 25  1  0  0  0  0
 23 24  1  0  0  0  0
 23 25  1  0  0  0  0
 23 26  1  6  0  0  0
M  END
> <PUBCHEM_COMPOUND_ID_TYPE>
0

> <PUBCHEM_TOTAL_CHARGE>
0

> <PUBCHEM_SUBSTANCE_ID>
310941833

> <PUBCHEM_SUBSTANCE_VERSION>
1

> <PUBCHEM_EXT_DATASOURCE_NAME>
4488

> <PUBCHEM_EXT_DATASOURCE_REGID>
SCHEMBL16119865

> <PUBCHEM_SUBSTANCE_COMMENT>
InChI=1S/C18H26N4O3S/c1-12-3-5-13(6-4-12)11-25-16-9-17-19-20-18(21-26(2,23)24)22(17)10-15(16)14-7-8-14/h9-10,12-14H,3-8,11H2,1-2H3,(H,20,21)/t12-,13-
InChIKey=MJYPHHYXLOYFIF-JOCQHMNTSA-N

> <PUBCHEM_SUBSTANCE_SYNONYM>
SCHEMBL16119865

> <PUBCHEM_XREF_EXT_ID>
SCHEMBL16119865

> <PUBCHEM_EXT_DATASOURCE_URL>
https://www.surechembl.org/

> <PUBCHEM_EXT_SUBSTANCE_URL>
https://www.surechembl.org/chemical/SCHEMBL16119865

> <PUBCHEM_CID_ASSOCIATIONS>
117608576  1

> <PUBCHEM_COORDINATE_TYPE>
1
3

> <PUBCHEM_BONDANNOTATIONS>
19  18  5
23  26  6

$$$$
