310939934
  -OEChem-07211613022D

 29 32  0     0  0  0  0  0  0999 V2000
   -0.3572   -3.8834    0.0000 O   0  0  0  0  0  0  0  0  0  0  0  0
   -1.7862    4.7084    0.0000 O   0  0  0  0  0  0  0  0  0  0  0  0
   -0.3572    2.2334    0.0000 O   0  0  0  0  0  0  0  0  0  0  0  0
   -1.0717   -0.6541    0.0000 N   0  0  0  0  0  0  0  0  0  0  0  0
   -1.0717   -2.6459    0.0000 N   0  0  0  0  0  0  0  0  0  0  0  0
   -1.0717    0.9959    0.0000 N   0  0  0  0  0  0  0  0  0  0  0  0
   -1.7862    3.0584    0.0000 N   0  0  0  0  0  0  0  0  0  0  0  0
   -1.0717   -1.4791    0.0000 C   0  0  0  0  0  0  0  0  0  0  0  0
   -1.6551   -2.0625    0.0000 C   0  0  0  0  0  0  0  0  0  0  0  0
   -0.4883   -2.0625    0.0000 C   0  0  0  0  0  0  0  0  0  0  0  0
   -1.0717   -3.4709    0.0000 C   0  0  0  0  0  0  0  0  0  0  0  0
   -1.7862   -0.2416    0.0000 C   0  0  0  0  0  0  0  0  0  0  0  0
   -0.3572   -0.2416    0.0000 C   0  0  0  0  0  0  0  0  0  0  0  0
   -1.0717    3.4709    0.0000 C   0  0  0  0  0  0  0  0  0  0  0  0
    0.3572    3.4709    0.0000 C   0  0  0  0  0  0  0  0  0  0  0  0
    0.3572    4.2959    0.0000 C   0  0  0  0  0  0  0  0  0  0  0  0
   -1.0717    4.2959    0.0000 C   0  0  0  0  0  0  0  0  0  0  0  0
   -1.0717    1.8209    0.0000 C   0  0  0  0  0  0  0  0  0  0  0  0
   -1.7862    0.5834    0.0000 C   0  0  0  0  0  0  0  0  0  0  0  0
   -0.3572    0.5834    0.0000 C   0  0  0  0  0  0  0  0  0  0  0  0
   -0.3572    3.0584    0.0000 C   0  0  0  0  0  0  0  0  0  0  0  0
   -0.3572    4.7084    0.0000 C   0  0  0  0  0  0  0  0  0  0  0  0
   -1.7862    2.2334    0.0000 C   0  0  0  0  0  0  0  0  0  0  0  0
    1.0717    3.0584    0.0000 C   0  0  0  0  0  0  0  0  0  0  0  0
    1.0717    4.7084    0.0000 C   0  0  0  0  0  0  0  0  0  0  0  0
   -1.7862   -3.8834    0.0000 C   0  0  0  0  0  0  0  0  0  0  0  0
    1.7862    3.4709    0.0000 C   0  0  0  0  0  0  0  0  0  0  0  0
    1.7862    4.2959    0.0000 C   0  0  0  0  0  0  0  0  0  0  0  0
   -1.7862   -4.7084    0.0000 C   0  0  0  0  0  0  0  0  0  0  0  0
  1 11  2  0  0  0  0
  2 17  1  0  0  0  0
  3 18  2  0  0  0  0
  4  8  1  0  0  0  0
  4 12  1  0  0  0  0
  4 13  1  0  0  0  0
  5  9  1  0  0  0  0
  5 10  1  0  0  0  0
  5 11  1  0  0  0  0
  6 18  1  0  0  0  0
  6 19  1  0  0  0  0
  6 20  1  0  0  0  0
  7 14  1  0  0  0  0
  7 23  1  0  0  0  0
  8  9  1  0  0  0  0
  8 10  1  0  0  0  0
 11 26  1  0  0  0  0
 12 19  1  0  0  0  0
 13 20  1  0  0  0  0
 14 17  1  0  0  0  0
 14 21  2  0  0  0  0
 15 16  2  0  0  0  0
 15 21  1  0  0  0  0
 15 24  1  0  0  0  0
 16 22  1  0  0  0  0
 16 25  1  0  0  0  0
 17 22  2  0  0  0  0
 18 23  1  0  0  0  0
 24 27  2  0  0  0  0
 25 28  2  0  0  0  0
 26 29  2  0  0  0  0
 27 28  1  0  0  0  0
M  END
> <PUBCHEM_COMPOUND_ID_TYPE>
0

> <PUBCHEM_TOTAL_CHARGE>
0

> <PUBCHEM_SUBSTANCE_ID>
310939934

> <PUBCHEM_SUBSTANCE_VERSION>
1

> <PUBCHEM_EXT_DATASOURCE_NAME>
4488

> <PUBCHEM_EXT_DATASOURCE_REGID>
SCHEMBL16117864

> <PUBCHEM_SUBSTANCE_COMMENT>
InChI=1S/C22H26N4O3/c1-2-21(28)26-14-18(15-26)24-7-9-25(10-8-24)22(29)13-23-19-11-16-5-3-4-6-17(16)12-20(19)27/h2-6,11-12,18,23,27H,1,7-10,13-15H2
InChIKey=RRDRLECHRKMVSK-UHFFFAOYSA-N

> <PUBCHEM_SUBSTANCE_SYNONYM>
SCHEMBL16117864

> <PUBCHEM_XREF_EXT_ID>
SCHEMBL16117864

> <PUBCHEM_EXT_DATASOURCE_URL>
https://www.surechembl.org/

> <PUBCHEM_EXT_SUBSTANCE_URL>
https://www.surechembl.org/chemical/SCHEMBL16117864

> <PUBCHEM_CID_ASSOCIATIONS>
86278956  1

> <PUBCHEM_COORDINATE_TYPE>
1
3

$$$$
