310948279
  -OEChem-07211613022D

 47 53  0     1  0  0  0  0  0999 V2000
    0.4806   -2.6953    0.0000 S   0  0  0  0  0  0  0  0  0  0  0  0
    2.8207   -2.5282    0.0000 S   0  0  0  0  0  0  0  0  0  0  0  0
    2.1103   -1.2885    0.0000 O   0  0  0  0  0  0  0  0  0  0  0  0
    0.7452   -3.4892    0.0000 O   0  0  0  0  0  0  0  0  0  0  0  0
   -0.2577   -3.0296    0.0000 O   0  0  0  0  0  0  0  0  0  0  0  0
   -1.7342    1.8177    0.0000 O   0  0  0  0  0  0  0  0  0  0  0  0
    1.0238    1.6785    0.0000 N   0  0  0  0  0  0  0  0  0  0  0  0
   -0.7174    0.3830    0.0000 N   0  0  0  0  0  0  0  0  0  0  0  0
    0.6756    0.9263    0.0000 N   0  0  0  0  0  0  0  0  0  0  0  0
    3.5311   -1.2885    0.0000 N   0  0  0  0  0  0  0  0  0  0  0  0
   -1.0378    3.0574    0.0000 N   0  0  0  0  0  0  0  0  0  0  0  0
    4.8543   -1.0098    0.0000 N   0  0  0  0  0  0  0  0  0  0  0  0
    1.8735   -0.3413    0.0000 N   0  0  0  0  0  0  0  0  0  0  0  0
    1.2885   -2.5143    0.0000 C   0  0  0  0  0  0  0  0  0  0  0  0
    0.0627   -1.9571    0.0000 C   0  0  0  0  0  0  0  0  0  0  0  0
    1.3859   -1.6924    0.0000 C   0  0  3  0  0  0  0  0  0  0  0  0
    0.6059   -1.3442    0.0000 C   0  0  0  0  0  0  0  0  0  0  0  0
    0.3552   -0.5641    0.0000 C   0  0  0  0  0  0  0  0  0  0  0  0
   -0.7452   -1.7760    0.0000 C   0  0  0  0  0  0  0  0  0  0  0  0
   -0.4527   -0.3691    0.0000 C   0  0  0  0  0  0  0  0  0  0  0  0
    2.1521   -2.5003    0.0000 C   0  0  0  0  0  0  0  0  0  0  0  0
    1.3999   -3.3639    0.0000 C   0  0  0  0  0  0  0  0  0  0  0  0
   -0.2995    1.8317    0.0000 C   0  0  0  0  0  0  0  0  0  0  0  0
   -0.1462    1.0378    0.0000 C   0  0  0  0  0  0  0  0  0  0  0  0
   -0.9820   -0.9959    0.0000 C   0  0  0  0  0  0  0  0  0  0  0  0
    0.3830    2.2356    0.0000 C   0  0  0  0  0  0  0  0  0  0  0  0
    2.8207   -1.6646    0.0000 C   0  0  0  0  0  0  0  0  0  0  0  0
   -1.0378    2.2495    0.0000 C   0  0  0  0  0  0  0  0  0  0  0  0
    1.8177    1.8596    0.0000 C   0  0  3  0  0  0  0  0  0  0  0  0
    0.4110    3.0714    0.0000 C   0  0  0  0  0  0  0  0  0  0  0  0
    2.4028    1.2467    0.0000 C   0  0  3  0  0  0  0  0  0  0  0  0
   -0.3273    3.4892    0.0000 C   0  0  0  0  0  0  0  0  0  0  0  0
    2.0964    2.6535    0.0000 C   0  0  0  0  0  0  0  0  0  0  0  0
    4.2971   -1.6088    0.0000 C   0  0  0  0  0  0  0  0  0  0  0  0
    3.6286   -0.4388    0.0000 C   0  0  0  0  0  0  0  0  0  0  0  0
    3.1968    1.4277    0.0000 C   0  0  0  0  0  0  0  0  0  0  0  0
    2.1242    0.4388    0.0000 C   0  0  0  0  0  0  0  0  0  0  0  0
    2.8904    2.8067    0.0000 C   0  0  0  0  0  0  0  0  0  0  0  0
   -2.8067    2.2356    0.0000 C   0  0  0  0  0  0  0  0  0  0  0  0
    3.4475    2.2078    0.0000 C   0  0  0  0  0  0  0  0  0  0  0  0
    4.4365   -0.2716    0.0000 C   0  0  0  0  0  0  0  0  0  0  0  0
   -3.4892    1.6507    0.0000 C   0  0  0  0  0  0  0  0  0  0  0  0
   -3.3222    0.8428    0.0000 C   0  0  0  0  0  0  0  0  0  0  0  0
   -4.2554    1.9014    0.0000 C   0  0  0  0  0  0  0  0  0  0  0  0
   -3.9350    0.2995    0.0000 C   0  0  0  0  0  0  0  0  0  0  0  0
   -4.8543    1.3581    0.0000 C   0  0  0  0  0  0  0  0  0  0  0  0
   -4.7011    0.5502    0.0000 C   0  0  0  0  0  0  0  0  0  0  0  0
  1  4  2  0  0  0  0
  1  5  2  0  0  0  0
  1 14  1  0  0  0  0
  1 15  1  0  0  0  0
  2 27  2  0  0  0  0
  3 16  1  0  0  0  0
  3 27  1  0  0  0  0
  6 28  1  0  0  0  0
  6 39  1  0  0  0  0
  7  9  1  0  0  0  0
  7 26  1  0  0  0  0
 29  7  1  1  0  0  0
  8 20  1  0  0  0  0
  8 24  1  0  0  0  0
  9 24  2  0  0  0  0
 10 27  1  0  0  0  0
 10 34  1  0  0  0  0
 10 35  1  0  0  0  0
 11 28  2  0  0  0  0
 11 32  1  0  0  0  0
 12 34  2  0  0  0  0
 12 41  1  0  0  0  0
 13 37  3  0  0  0  0
 14 16  1  0  0  0  0
 14 21  1  0  0  0  0
 14 22  1  0  0  0  0
 15 17  2  0  0  0  0
 15 19  1  0  0  0  0
 16 17  1  0  0  0  0
 17 18  1  0  0  0  0
 18 20  2  0  0  0  0
 19 25  2  0  0  0  0
 20 25  1  0  0  0  0
 23 24  1  0  0  0  0
 23 26  2  0  0  0  0
 23 28  1  0  0  0  0
 26 30  1  0  0  0  0
 29 31  1  0  0  0  0
 29 33  1  0  0  0  0
 30 32  2  0  0  0  0
 31 36  1  0  0  0  0
 31 37  1  6  0  0  0
 33 38  1  0  0  0  0
 35 41  2  0  0  0  0
 36 40  1  0  0  0  0
 38 40  1  0  0  0  0
 39 42  1  0  0  0  0
 42 43  2  0  0  0  0
 42 44  1  0  0  0  0
 43 45  1  0  0  0  0
 44 46  2  0  0  0  0
 45 47  2  0  0  0  0
 46 47  1  0  0  0  0
M  END
> <PUBCHEM_COMPOUND_ID_TYPE>
0

> <PUBCHEM_TOTAL_CHARGE>
0

> <PUBCHEM_SUBSTANCE_ID>
310948279

> <PUBCHEM_SUBSTANCE_VERSION>
1

> <PUBCHEM_EXT_DATASOURCE_NAME>
4488

> <PUBCHEM_EXT_DATASOURCE_REGID>
SCHEMBL16126456

> <PUBCHEM_SUBSTANCE_COMMENT>
InChI=1S/C34H33N7O4S2/c1-34(2)30(45-33(46)40-17-16-36-21-40)25-18-24(12-13-28(25)47(34,42)43)38-31-29-27(41(39-31)26-11-7-6-10-23(26)19-35)14-15-37-32(29)44-20-22-8-4-3-5-9-22/h3-5,8-9,12-18,21,23,26,30H,6-7,10-11,20H2,1-2H3,(H,38,39)/t23-,26+,30?/m1/s1
InChIKey=LXJPXRIFRXKXDV-CZWSTGFNSA-N

> <PUBCHEM_SUBSTANCE_SYNONYM>
SCHEMBL16126456

> <PUBCHEM_XREF_EXT_ID>
SCHEMBL16126456

> <PUBCHEM_EXT_DATASOURCE_URL>
https://www.surechembl.org/

> <PUBCHEM_EXT_SUBSTANCE_URL>
https://www.surechembl.org/chemical/SCHEMBL16126456

> <PUBCHEM_CID_ASSOCIATIONS>
117613858  1

> <PUBCHEM_COORDINATE_TYPE>
1
3

> <PUBCHEM_BONDANNOTATIONS>
31  37  6
29  7  5

$$$$
