310948513
  -OEChem-07211613022D

 29 32  0     1  0  0  0  0  0999 V2000
    2.8678   -3.2205    0.0000 Cl  0  0  0  0  0  0  0  0  0  0  0  0
   -2.1439   -2.6822    0.0000 O   0  0  0  0  0  0  0  0  0  0  0  0
   -0.6404   -0.3248    0.0000 N   0  0  0  0  0  0  0  0  0  0  0  0
   -0.1392   -1.0116    0.0000 N   0  0  0  0  0  0  0  0  0  0  0  0
   -0.3805   -2.4780    0.0000 N   0  0  0  0  0  0  0  0  0  0  0  0
   -2.8678   -1.4200    0.0000 N   0  0  0  0  0  0  0  0  0  0  0  0
    0.3620    2.8678    0.0000 N   0  0  0  0  0  0  0  0  0  0  0  0
    1.5313   -0.6032    0.0000 N   0  0  0  0  0  0  0  0  0  0  0  0
   -1.4200   -0.5847    0.0000 C   0  0  0  0  0  0  0  0  0  0  0  0
   -1.4385   -1.4014    0.0000 C   0  0  0  0  0  0  0  0  0  0  0  0
   -0.6404   -1.6799    0.0000 C   0  0  0  0  0  0  0  0  0  0  0  0
   -0.3805    0.4733    0.0000 C   0  0  3  0  0  0  0  0  0  0  0  0
   -2.1439   -1.8098    0.0000 C   0  0  0  0  0  0  0  0  0  0  0  0
    0.4362    0.6589    0.0000 C   0  0  3  0  0  0  0  0  0  0  0  0
   -2.1625   -0.1763    0.0000 C   0  0  0  0  0  0  0  0  0  0  0  0
   -0.9188    1.0673    0.0000 C   0  0  0  0  0  0  0  0  0  0  0  0
   -2.8492   -0.5661    0.0000 C   0  0  0  0  0  0  0  0  0  0  0  0
    0.6775    1.4385    0.0000 C   0  0  0  0  0  0  0  0  0  0  0  0
    0.4362   -2.6451    0.0000 C   0  0  0  0  0  0  0  0  0  0  0  0
    0.1392    2.0511    0.0000 C   0  0  3  0  0  0  0  0  0  0  0  0
   -0.6589    1.8840    0.0000 C   0  0  0  0  0  0  0  0  0  0  0  0
    0.9931    0.0093    0.0000 C   0  0  0  0  0  0  0  0  0  0  0  0
    0.6960   -3.4246    0.0000 C   0  0  0  0  0  0  0  0  0  0  0  0
    0.9931   -2.0325    0.0000 C   0  0  0  0  0  0  0  0  0  0  0  0
    1.5128   -3.5917    0.0000 C   0  0  0  0  0  0  0  0  0  0  0  0
    1.8098   -2.1996    0.0000 C   0  0  0  0  0  0  0  0  0  0  0  0
    2.0511   -2.9792    0.0000 C   0  0  0  0  0  0  0  0  0  0  0  0
   -0.0650    3.5917    0.0000 C   0  0  0  0  0  0  0  0  0  0  0  0
    1.1786    3.0906    0.0000 C   0  0  0  0  0  0  0  0  0  0  0  0
  1 27  1  0  0  0  0
  2 13  2  0  0  0  0
  3  4  1  0  0  0  0
  3  9  1  0  0  0  0
 12  3  1  1  0  0  0
  4 11  2  0  0  0  0
  5 11  1  0  0  0  0
  5 19  1  0  0  0  0
  6 13  1  0  0  0  0
  6 17  1  0  0  0  0
 20  7  1  6  0  0  0
  7 28  1  0  0  0  0
  7 29  1  0  0  0  0
  8 22  3  0  0  0  0
  9 10  2  0  0  0  0
  9 15  1  0  0  0  0
 10 11  1  0  0  0  0
 10 13  1  0  0  0  0
 12 14  1  0  0  0  0
 12 16  1  0  0  0  0
 14 18  1  0  0  0  0
 14 22  1  6  0  0  0
 15 17  2  0  0  0  0
 16 21  1  0  0  0  0
 18 20  1  0  0  0  0
 19 23  2  0  0  0  0
 19 24  1  0  0  0  0
 20 21  1  0  0  0  0
 23 25  1  0  0  0  0
 24 26  2  0  0  0  0
 25 27  2  0  0  0  0
 26 27  1  0  0  0  0
M  END
> <PUBCHEM_COMPOUND_ID_TYPE>
0

> <PUBCHEM_TOTAL_CHARGE>
0

> <PUBCHEM_SUBSTANCE_ID>
310948513

> <PUBCHEM_SUBSTANCE_VERSION>
1

> <PUBCHEM_EXT_DATASOURCE_NAME>
4488

> <PUBCHEM_EXT_DATASOURCE_REGID>
SCHEMBL16126695

> <PUBCHEM_SUBSTANCE_COMMENT>
InChI=1S/C21H23ClN6O/c1-27(2)16-7-8-17(13(11-16)12-23)28-18-9-10-24-21(29)19(18)20(26-28)25-15-5-3-14(22)4-6-15/h3-6,9-10,13,16-17H,7-8,11H2,1-2H3,(H,24,29)(H,25,26)/t13-,16+,17+/m1/s1
InChIKey=JNKWGCLPFCMWJB-COXVUDFISA-N

> <PUBCHEM_SUBSTANCE_SYNONYM>
SCHEMBL16126695

> <PUBCHEM_XREF_EXT_ID>
SCHEMBL16126695

> <PUBCHEM_EXT_DATASOURCE_URL>
https://www.surechembl.org/

> <PUBCHEM_EXT_SUBSTANCE_URL>
https://www.surechembl.org/chemical/SCHEMBL16126695

> <PUBCHEM_CID_ASSOCIATIONS>
117614070  1

> <PUBCHEM_COORDINATE_TYPE>
1
3

> <PUBCHEM_BONDANNOTATIONS>
14  22  6
12  3  5
20  7  6

$$$$
