310933658
  -OEChem-07211613022D

 32 35  0     0  0  0  0  0  0999 V2000
    2.0815   -2.9942    0.0000 S   0  0  0  0  0  0  0  0  0  0  0  0
   -0.2680   -1.2872    0.0000 O   0  0  0  0  0  0  0  0  0  0  0  0
   -1.0241    1.3951    0.0000 O   0  0  0  0  0  0  0  0  0  0  0  0
    3.3922    1.3951    0.0000 O   0  0  0  0  0  0  0  0  0  0  0  0
   -1.9886   -4.9103    0.0000 O   0  0  0  0  0  0  0  0  0  0  0  0
   -0.8326   -5.7502    0.0000 O   0  0  0  0  0  0  0  0  0  0  0  0
    0.7716   -2.3268    0.0000 N   0  0  0  0  0  0  0  0  0  0  0  0
    1.8515   -1.5422    0.0000 N   0  0  0  0  0  0  0  0  0  0  0  0
   -0.6832   -4.3291    0.0000 N   0  0  0  0  0  0  0  0  0  0  0  0
    1.1841   -1.0572    0.0000 C   0  0  0  0  0  0  0  0  0  0  0  0
    0.5166   -1.5422    0.0000 C   0  0  0  0  0  0  0  0  0  0  0  0
    0.6320   -0.4441    0.0000 C   0  0  0  0  0  0  0  0  0  0  0  0
    1.7361   -0.4441    0.0000 C   0  0  0  0  0  0  0  0  0  0  0  0
    1.5966   -2.3268    0.0000 C   0  0  0  0  0  0  0  0  0  0  0  0
    0.2866   -2.9942    0.0000 C   0  0  0  0  0  0  0  0  0  0  0  0
    0.8870    0.3405    0.0000 C   0  0  0  0  0  0  0  0  0  0  0  0
    1.4812    0.3405    0.0000 C   0  0  0  0  0  0  0  0  0  0  0  0
   -0.1749   -0.6157    0.0000 C   0  0  0  0  0  0  0  0  0  0  0  0
    2.5431   -0.6157    0.0000 C   0  0  0  0  0  0  0  0  0  0  0  0
    0.6222   -3.7479    0.0000 C   0  0  0  0  0  0  0  0  0  0  0  0
   -0.5338   -2.9080    0.0000 C   0  0  0  0  0  0  0  0  0  0  0  0
    0.3349    0.9536    0.0000 C   0  0  0  0  0  0  0  0  0  0  0  0
    2.0332    0.9536    0.0000 C   0  0  0  0  0  0  0  0  0  0  0  0
   -0.7270   -0.0026    0.0000 C   0  0  0  0  0  0  0  0  0  0  0  0
    3.0951   -0.0026    0.0000 C   0  0  0  0  0  0  0  0  0  0  0  0
   -0.4720    0.7820    0.0000 C   0  0  0  0  0  0  0  0  0  0  0  0
    2.8402    0.7820    0.0000 C   0  0  0  0  0  0  0  0  0  0  0  0
    0.1373   -4.4153    0.0000 C   0  0  0  0  0  0  0  0  0  0  0  0
   -1.0188   -3.5754    0.0000 C   0  0  0  0  0  0  0  0  0  0  0  0
   -1.1681   -4.9965    0.0000 C   0  0  0  0  0  0  0  0  0  0  0  0
   -1.8310    1.2236    0.0000 C   0  0  0  0  0  0  0  0  0  0  0  0
    4.1992    1.2236    0.0000 C   0  0  0  0  0  0  0  0  0  0  0  0
  1 14  2  0  0  0  0
  2 11  2  0  0  0  0
  3 26  1  0  0  0  0
  3 31  1  0  0  0  0
  4 27  1  0  0  0  0
  4 32  1  0  0  0  0
  5 30  2  0  0  0  0
  6 30  1  0  0  0  0
  7 11  1  0  0  0  0
  7 14  1  0  0  0  0
  7 15  1  0  0  0  0
  8 10  1  0  0  0  0
  8 14  1  0  0  0  0
  9 28  1  0  0  0  0
  9 29  1  0  0  0  0
  9 30  1  0  0  0  0
 10 11  1  0  0  0  0
 10 12  1  0  0  0  0
 10 13  1  0  0  0  0
 12 16  2  0  0  0  0
 12 18  1  0  0  0  0
 13 17  2  0  0  0  0
 13 19  1  0  0  0  0
 15 20  1  0  0  0  0
 15 21  1  0  0  0  0
 16 22  1  0  0  0  0
 17 23  1  0  0  0  0
 18 24  2  0  0  0  0
 19 25  2  0  0  0  0
 20 28  1  0  0  0  0
 21 29  1  0  0  0  0
 22 26  2  0  0  0  0
 23 27  2  0  0  0  0
 24 26  1  0  0  0  0
 25 27  1  0  0  0  0
M  END
> <PUBCHEM_COMPOUND_ID_TYPE>
0

> <PUBCHEM_TOTAL_CHARGE>
0

> <PUBCHEM_SUBSTANCE_ID>
310933658

> <PUBCHEM_SUBSTANCE_VERSION>
1

> <PUBCHEM_EXT_DATASOURCE_NAME>
4488

> <PUBCHEM_EXT_DATASOURCE_REGID>
SCHEMBL16111091

> <PUBCHEM_SUBSTANCE_COMMENT>
InChI=1S/C23H25N3O5S/c1-30-18-7-3-15(4-8-18)23(16-5-9-19(31-2)10-6-16)20(27)26(21(32)24-23)17-11-13-25(14-12-17)22(28)29/h3-10,17H,11-14H2,1-2H3,(H,24,32)(H,28,29)
InChIKey=LZOJMRGFIWHBBI-UHFFFAOYSA-N

> <PUBCHEM_SUBSTANCE_SYNONYM>
SCHEMBL16111091

> <PUBCHEM_XREF_EXT_ID>
SCHEMBL16111091

> <PUBCHEM_EXT_DATASOURCE_URL>
https://www.surechembl.org/

> <PUBCHEM_EXT_SUBSTANCE_URL>
https://www.surechembl.org/chemical/SCHEMBL16111091

> <PUBCHEM_CID_ASSOCIATIONS>
117602029  1

> <PUBCHEM_COORDINATE_TYPE>
1
3

$$$$
