310940222
  -OEChem-07211613022D

 40 40  0     1  0  0  0  0  0999 V2000
    4.9561    2.2866    0.0000 O   0  0  0  0  0  0  0  0  0  0  0  0
    8.5285    1.8741    0.0000 O   0  0  0  0  0  0  0  0  0  0  0  0
    7.8140    3.1116    0.0000 O   0  0  0  0  0  0  0  0  0  0  0  0
    8.6390   -0.1884    0.0000 O   0  0  0  0  0  0  0  0  0  0  0  0
    4.2416    1.8741    0.0000 O   0  0  0  0  0  0  0  0  0  0  0  0
    6.3851   -2.6634    0.0000 O   0  0  0  0  0  0  0  0  0  0  0  0
    9.8765   -0.9029    0.0000 O   0  0  0  0  0  0  0  0  0  0  0  0
    5.6706   -1.4259    0.0000 O   0  0  0  0  0  0  0  0  0  0  0  0
    6.3851   -0.1884    0.0000 N   0  0  0  0  0  0  0  0  0  0  0  0
    4.9561    0.6366    0.0000 N   0  0  0  0  0  0  0  0  0  0  0  0
    7.8140   -0.1884    0.0000 N   0  0  0  0  0  0  0  0  0  0  0  0
    7.0995   -1.4259    0.0000 N   0  0  0  0  0  0  0  0  0  0  0  0
    5.6706    1.0491    0.0000 C   0  0  3  0  0  0  0  0  0  0  0  0
    6.3851    0.6366    0.0000 C   0  0  3  0  0  0  0  0  0  0  0  0
    5.6706    1.8741    0.0000 C   0  0  3  0  0  0  0  0  0  0  0  0
    7.0995    1.8741    0.0000 C   0  0  0  0  0  0  0  0  0  0  0  0
    7.0995    1.0491    0.0000 C   0  0  0  0  0  0  0  0  0  0  0  0
    6.3851    2.2866    0.0000 C   0  0  0  0  0  0  0  0  0  0  0  0
    7.8140    2.2866    0.0000 C   0  0  0  0  0  0  0  0  0  0  0  0
    7.0995   -0.6009    0.0000 C   0  0  0  0  0  0  0  0  0  0  0  0
    4.9561    3.1116    0.0000 C   0  0  0  0  0  0  0  0  0  0  0  0
    4.2416    1.0491    0.0000 C   0  0  0  0  0  0  0  0  0  0  0  0
    9.0515   -0.9029    0.0000 C   0  0  0  0  0  0  0  0  0  0  0  0
    6.3851   -1.8384    0.0000 C   0  0  0  0  0  0  0  0  0  0  0  0
    4.2416    3.5241    0.0000 C   0  0  0  0  0  0  0  0  0  0  0  0
    5.6706    3.5241    0.0000 C   0  0  0  0  0  0  0  0  0  0  0  0
    3.5272    0.6366    0.0000 C   0  0  0  0  0  0  0  0  0  0  0  0
    9.2429    2.2866    0.0000 C   0  0  0  0  0  0  0  0  0  0  0  0
    8.6390   -1.6173    0.0000 C   0  0  0  0  0  0  0  0  0  0  0  0
    9.4640   -1.6173    0.0000 C   0  0  0  0  0  0  0  0  0  0  0  0
    4.2416    4.3491    0.0000 C   0  0  0  0  0  0  0  0  0  0  0  0
    5.6706    4.3491    0.0000 C   0  0  0  0  0  0  0  0  0  0  0  0
    5.6706   -3.0759    0.0000 C   0  0  0  0  0  0  0  0  0  0  0  0
    9.9574    1.8741    0.0000 C   0  0  0  0  0  0  0  0  0  0  0  0
   10.4599   -0.3195    0.0000 C   0  0  0  0  0  0  0  0  0  0  0  0
    4.9561   -2.6634    0.0000 C   0  0  0  0  0  0  0  0  0  0  0  0
    4.2416   -3.0759    0.0000 C   0  0  0  0  0  0  0  0  0  0  0  0
    3.5272   -2.6634    0.0000 C   0  0  0  0  0  0  0  0  0  0  0  0
    2.8127   -3.0759    0.0000 C   0  0  0  0  0  0  0  0  0  0  0  0
    2.0982   -2.6634    0.0000 C   0  0  0  0  0  0  0  0  0  0  0  0
 15  1  1  6  0  0  0
  1 21  1  0  0  0  0
  2 19  1  0  0  0  0
  2 28  1  0  0  0  0
  3 19  2  0  0  0  0
  4 11  1  0  0  0  0
  4 23  1  0  0  0  0
  5 22  2  0  0  0  0
  6 24  1  0  0  0  0
  6 33  1  0  0  0  0
  7 23  1  0  0  0  0
  7 35  1  0  0  0  0
  8 24  2  0  0  0  0
 14  9  1  6  0  0  0
  9 20  1  0  0  0  0
 13 10  1  1  0  0  0
 10 22  1  0  0  0  0
 11 20  2  0  0  0  0
 12 20  1  0  0  0  0
 12 24  1  0  0  0  0
 13 14  1  0  0  0  0
 13 15  1  0  0  0  0
 14 17  1  0  0  0  0
 15 18  1  0  0  0  0
 16 17  1  0  0  0  0
 16 18  2  0  0  0  0
 16 19  1  0  0  0  0
 21 25  1  0  0  0  0
 21 26  1  0  0  0  0
 22 27  1  0  0  0  0
 23 29  1  0  0  0  0
 23 30  1  0  0  0  0
 25 31  1  0  0  0  0
 26 32  1  0  0  0  0
 28 34  1  0  0  0  0
 33 36  1  0  0  0  0
 36 37  1  0  0  0  0
 37 38  1  0  0  0  0
 38 39  1  0  0  0  0
 39 40  1  0  0  0  0
M  END
> <PUBCHEM_COMPOUND_ID_TYPE>
0

> <PUBCHEM_TOTAL_CHARGE>
0

> <PUBCHEM_SUBSTANCE_ID>
310940222

> <PUBCHEM_SUBSTANCE_VERSION>
1

> <PUBCHEM_EXT_DATASOURCE_NAME>
4488

> <PUBCHEM_EXT_DATASOURCE_REGID>
SCHEMBL16118156

> <PUBCHEM_SUBSTANCE_COMMENT>
InChI=1S/C28H50N4O8/c1-9-13-14-15-16-38-27(35)31-26(32-40-28(6,7)36-8)30-22-17-20(25(34)37-12-4)18-23(24(22)29-19(5)33)39-21(10-2)11-3/h18,21-24H,9-17H2,1-8H3,(H,29,33)(H2,30,31,32,35)/t22-,23+,24+/m0/s1
InChIKey=FBMPJNDXAYFYOP-RBZQAINGSA-N

> <PUBCHEM_SUBSTANCE_SYNONYM>
SCHEMBL16118156

> <PUBCHEM_XREF_EXT_ID>
SCHEMBL16118156

> <PUBCHEM_EXT_DATASOURCE_URL>
https://www.surechembl.org/

> <PUBCHEM_EXT_SUBSTANCE_URL>
https://www.surechembl.org/chemical/SCHEMBL16118156

> <PUBCHEM_CID_ASSOCIATIONS>
117607315  1

> <PUBCHEM_COORDINATE_TYPE>
1
3

> <PUBCHEM_BONDANNOTATIONS>
15  1  6
13  10  5
11  4  3
14  9  6

$$$$
