310949663
  -OEChem-07211613022D

 25 26  0     0  0  0  0  0  0999 V2000
   -0.3550   -2.4647    0.0000 F   0  0  0  0  0  0  0  0  0  0  0  0
    1.0924   -2.4647    0.0000 F   0  0  0  0  0  0  0  0  0  0  0  0
    0.3687   -1.2221    0.0000 O   0  0  0  0  0  0  0  0  0  0  0  0
    1.0924   -0.8125    0.0000 O   0  0  0  0  0  0  0  0  0  0  0  0
    1.0924    2.4647    0.0000 O   0  0  0  0  0  0  0  0  0  0  0  0
    0.3687    1.2358    0.0000 O   0  0  0  0  0  0  0  0  0  0  0  0
   -2.5262    1.2494    0.0000 O   0  0  0  0  0  0  0  0  0  0  0  0
    0.3687    0.4165    0.0000 N   0  0  0  0  0  0  0  0  0  0  0  0
   -0.3550    0.0069    0.0000 C   0  0  0  0  0  0  0  0  0  0  0  0
    1.8161    0.4301    0.0000 C   0  0  0  0  0  0  0  0  0  0  0  0
   -0.3550   -0.7988    0.0000 C   0  0  0  0  0  0  0  0  0  0  0  0
    1.1060    0.0341    0.0000 C   0  0  0  0  0  0  0  0  0  0  0  0
    1.8298    1.2358    0.0000 C   0  0  0  0  0  0  0  0  0  0  0  0
   -1.8024    0.0205    0.0000 C   0  0  0  0  0  0  0  0  0  0  0  0
   -1.0924    0.4029    0.0000 C   0  0  0  0  0  0  0  0  0  0  0  0
   -1.0651   -1.2221    0.0000 C   0  0  0  0  0  0  0  0  0  0  0  0
   -1.8024   -0.8125    0.0000 C   0  0  0  0  0  0  0  0  0  0  0  0
    2.5672    0.0205    0.0000 C   0  0  0  0  0  0  0  0  0  0  0  0
    1.0924    1.6318    0.0000 C   0  0  0  0  0  0  0  0  0  0  0  0
    2.5398    1.6318    0.0000 C   0  0  0  0  0  0  0  0  0  0  0  0
   -2.5398    0.4165    0.0000 C   0  0  0  0  0  0  0  0  0  0  0  0
    3.2636    0.4165    0.0000 C   0  0  0  0  0  0  0  0  0  0  0  0
    3.2636    1.2358    0.0000 C   0  0  0  0  0  0  0  0  0  0  0  0
    0.3550   -2.0414    0.0000 C   0  0  0  0  0  0  0  0  0  0  0  0
   -3.2636    0.0205    0.0000 C   0  0  0  0  0  0  0  0  0  0  0  0
  1 24  1  0  0  0  0
  2 24  1  0  0  0  0
  3 11  1  0  0  0  0
  3 24  1  0  0  0  0
  4 12  2  0  0  0  0
  5 19  2  0  0  0  0
  6 19  1  0  0  0  0
  7 21  2  0  0  0  0
  8  9  1  0  0  0  0
  8 12  1  0  0  0  0
  9 11  2  0  0  0  0
  9 15  1  0  0  0  0
 10 12  1  0  0  0  0
 10 13  2  0  0  0  0
 10 18  1  0  0  0  0
 11 16  1  0  0  0  0
 13 19  1  0  0  0  0
 13 20  1  0  0  0  0
 14 15  2  0  0  0  0
 14 17  1  0  0  0  0
 14 21  1  0  0  0  0
 16 17  2  0  0  0  0
 18 22  2  0  0  0  0
 20 23  2  0  0  0  0
 21 25  1  0  0  0  0
 22 23  1  0  0  0  0
M  END
> <PUBCHEM_COMPOUND_ID_TYPE>
0

> <PUBCHEM_TOTAL_CHARGE>
0

> <PUBCHEM_SUBSTANCE_ID>
310949663

> <PUBCHEM_SUBSTANCE_VERSION>
1

> <PUBCHEM_EXT_DATASOURCE_NAME>
4488

> <PUBCHEM_EXT_DATASOURCE_REGID>
SCHEMBL16127861

> <PUBCHEM_SUBSTANCE_COMMENT>
InChI=1S/C17H13F2NO5/c1-9(21)10-6-7-14(25-17(18)19)13(8-10)20-15(22)11-4-2-3-5-12(11)16(23)24/h2-8,17H,1H3,(H,20,22)(H,23,24)
InChIKey=XTQWGMXAWVBTSS-UHFFFAOYSA-N

> <PUBCHEM_SUBSTANCE_SYNONYM>
SCHEMBL16127861

> <PUBCHEM_XREF_EXT_ID>
SCHEMBL16127861

> <PUBCHEM_EXT_DATASOURCE_URL>
https://www.surechembl.org/

> <PUBCHEM_EXT_SUBSTANCE_URL>
https://www.surechembl.org/chemical/SCHEMBL16127861

> <PUBCHEM_CID_ASSOCIATIONS>
117615037  1

> <PUBCHEM_COORDINATE_TYPE>
1
3

$$$$
