310932795
  -OEChem-07211613022D

 36 41  0     0  0  0  0  0  0999 V2000
    5.5965   -5.0040    0.0000 Cl  0  0  0  0  0  0  0  0  0  0  0  0
    0.0000   -2.2057    0.0000 F   0  0  0  0  0  0  0  0  0  0  0  0
    0.5597   -2.8970    0.0000 F   0  0  0  0  0  0  0  0  0  0  0  0
    1.2510   -1.3827    0.0000 O   0  0  0  0  0  0  0  0  0  0  0  0
    1.4156   -2.6995    0.0000 O   0  0  0  0  0  0  0  0  0  0  0  0
    4.8722   -2.1069    0.0000 O   0  0  0  0  0  0  0  0  0  0  0  0
    7.0121   -0.0329    0.0000 O   0  0  0  0  0  0  0  0  0  0  0  0
    9.8762   -0.8559    0.0000 O   0  0  0  0  0  0  0  0  0  0  0  0
    6.2879   -1.2510    0.0000 N   0  0  0  0  0  0  0  0  0  0  0  0
    6.2879   -2.1069    0.0000 N   0  0  0  0  0  0  0  0  0  0  0  0
    4.1480   -0.8559    0.0000 C   0  0  0  0  0  0  0  0  0  0  0  0
    3.4896   -1.3498    0.0000 C   0  0  0  0  0  0  0  0  0  0  0  0
    4.8722   -1.2510    0.0000 C   0  0  0  0  0  0  0  0  0  0  0  0
    3.4896   -0.3292    0.0000 C   0  0  0  0  0  0  0  0  0  0  0  0
    4.2468    0.0000    0.0000 C   0  0  0  0  0  0  0  0  0  0  0  0
    2.0740   -1.5144    0.0000 C   0  0  0  0  0  0  0  0  0  0  0  0
    2.7324   -1.0535    0.0000 C   0  0  0  0  0  0  0  0  0  0  0  0
    2.1728   -2.3703    0.0000 C   0  0  0  0  0  0  0  0  0  0  0  0
    5.5965   -0.8559    0.0000 C   0  0  0  0  0  0  0  0  0  0  0  0
    3.5884   -2.2057    0.0000 C   0  0  0  0  0  0  0  0  0  0  0  0
    7.7364   -1.2510    0.0000 C   0  0  0  0  0  0  0  0  0  0  0  0
    7.0121   -0.8559    0.0000 C   0  0  0  0  0  0  0  0  0  0  0  0
    7.7364   -2.1069    0.0000 C   0  0  0  0  0  0  0  0  0  0  0  0
    7.0121   -2.5020    0.0000 C   0  0  0  0  0  0  0  0  0  0  0  0
    0.8559   -2.1069    0.0000 C   0  0  0  0  0  0  0  0  0  0  0  0
    2.9299   -2.6995    0.0000 C   0  0  0  0  0  0  0  0  0  0  0  0
    7.0121   -3.3250    0.0000 C   0  0  0  0  0  0  0  0  0  0  0  0
    8.4606   -0.8559    0.0000 C   0  0  0  0  0  0  0  0  0  0  0  0
    8.4606   -2.5020    0.0000 C   0  0  0  0  0  0  0  0  0  0  0  0
    9.1519   -1.2510    0.0000 C   0  0  0  0  0  0  0  0  0  0  0  0
    9.1519   -2.1069    0.0000 C   0  0  0  0  0  0  0  0  0  0  0  0
    6.3208   -3.7530    0.0000 C   0  0  0  0  0  0  0  0  0  0  0  0
    7.7364   -3.7530    0.0000 C   0  0  0  0  0  0  0  0  0  0  0  0
    6.3208   -4.5760    0.0000 C   0  0  0  0  0  0  0  0  0  0  0  0
    7.7364   -4.5760    0.0000 C   0  0  0  0  0  0  0  0  0  0  0  0
    7.0121   -5.0040    0.0000 C   0  0  0  0  0  0  0  0  0  0  0  0
  1 34  1  0  0  0  0
  2 25  1  0  0  0  0
  3 25  1  0  0  0  0
  4 16  1  0  0  0  0
  4 25  1  0  0  0  0
  5 18  1  0  0  0  0
  5 25  1  0  0  0  0
  6 13  2  0  0  0  0
  7 22  2  0  0  0  0
  8 30  1  0  0  0  0
  9 10  1  0  0  0  0
  9 19  1  0  0  0  0
  9 22  1  0  0  0  0
 10 24  2  0  0  0  0
 11 12  1  0  0  0  0
 11 13  1  0  0  0  0
 11 14  1  0  0  0  0
 11 15  1  0  0  0  0
 12 17  2  0  0  0  0
 12 20  1  0  0  0  0
 13 19  1  0  0  0  0
 14 15  1  0  0  0  0
 16 17  1  0  0  0  0
 16 18  2  0  0  0  0
 18 26  1  0  0  0  0
 20 26  2  0  0  0  0
 21 22  1  0  0  0  0
 21 23  2  0  0  0  0
 21 28  1  0  0  0  0
 23 24  1  0  0  0  0
 23 29  1  0  0  0  0
 24 27  1  0  0  0  0
 27 32  1  0  0  0  0
 27 33  2  0  0  0  0
 28 30  2  0  0  0  0
 29 31  2  0  0  0  0
 30 31  1  0  0  0  0
 32 34  2  0  0  0  0
 33 35  1  0  0  0  0
 34 36  1  0  0  0  0
 35 36  2  0  0  0  0
M  END
> <PUBCHEM_COMPOUND_ID_TYPE>
0

> <PUBCHEM_TOTAL_CHARGE>
0

> <PUBCHEM_SUBSTANCE_ID>
310932795

> <PUBCHEM_SUBSTANCE_VERSION>
1

> <PUBCHEM_EXT_DATASOURCE_NAME>
4488

> <PUBCHEM_EXT_DATASOURCE_REGID>
SCHEMBL16110182

> <PUBCHEM_SUBSTANCE_COMMENT>
InChI=1S/C26H17ClF2N2O5/c27-16-3-1-2-14(10-16)23-18-6-5-17(32)12-19(18)24(34)31(30-23)13-22(33)25(8-9-25)15-4-7-20-21(11-15)36-26(28,29)35-20/h1-7,10-12,32H,8-9,13H2
InChIKey=GQWNCSYSJQRMIK-UHFFFAOYSA-N

> <PUBCHEM_SUBSTANCE_SYNONYM>
SCHEMBL16110182

> <PUBCHEM_XREF_EXT_ID>
SCHEMBL16110182

> <PUBCHEM_EXT_DATASOURCE_URL>
https://www.surechembl.org/

> <PUBCHEM_EXT_SUBSTANCE_URL>
https://www.surechembl.org/chemical/SCHEMBL16110182

> <PUBCHEM_CID_ASSOCIATIONS>
87055444  1

> <PUBCHEM_COORDINATE_TYPE>
1
3

$$$$
