310948442
  -OEChem-07211613022D

 34 38  0     1  0  0  0  0  0999 V2000
   -0.0416   -1.3400    0.0000 F   0  0  0  0  0  0  0  0  0  0  0  0
    0.8887   -1.6454    0.0000 F   0  0  0  0  0  0  0  0  0  0  0  0
    0.8192   -2.5341    0.0000 F   0  0  0  0  0  0  0  0  0  0  0  0
   -2.5966    2.1315    0.0000 O   0  0  0  0  0  0  0  0  0  0  0  0
    0.1805    1.9926    0.0000 N   0  0  0  0  0  0  0  0  0  0  0  0
   -0.1666    1.2427    0.0000 N   0  0  0  0  0  0  0  0  0  0  0  0
   -0.9720   -3.1867    0.0000 N   0  0  0  0  0  0  0  0  0  0  0  0
   -1.5413    0.7012    0.0000 N   0  0  0  0  0  0  0  0  0  0  0  0
   -1.8884    3.3811    0.0000 N   0  0  0  0  0  0  0  0  0  0  0  0
    1.0970   -0.0625    0.0000 N   0  0  0  0  0  0  0  0  0  0  0  0
   -0.5277   -2.4508    0.0000 C   0  0  3  0  0  0  0  0  0  0  0  0
   -1.1664    2.1453    0.0000 C   0  0  0  0  0  0  0  0  0  0  0  0
   -0.4443    2.5619    0.0000 C   0  0  0  0  0  0  0  0  0  0  0  0
   -0.9858    1.3400    0.0000 C   0  0  0  0  0  0  0  0  0  0  0  0
    0.1666   -2.0481    0.0000 C   0  0  0  0  0  0  0  0  0  0  0  0
   -0.7776   -1.6732    0.0000 C   0  0  0  0  0  0  0  0  0  0  0  0
    0.9858    2.1731    0.0000 C   0  0  3  0  0  0  0  0  0  0  0  0
   -1.8745    2.5619    0.0000 C   0  0  0  0  0  0  0  0  0  0  0  0
    0.2638   -2.6452    0.0000 C   0  0  0  0  0  0  0  0  0  0  0  0
   -1.2914   -0.0625    0.0000 C   0  0  0  0  0  0  0  0  0  0  0  0
   -0.4305    3.3811    0.0000 C   0  0  0  0  0  0  0  0  0  0  0  0
   -1.5829   -1.4788    0.0000 C   0  0  0  0  0  0  0  0  0  0  0  0
   -0.2222   -1.0483    0.0000 C   0  0  0  0  0  0  0  0  0  0  0  0
    1.5829    1.5899    0.0000 C   0  0  3  0  0  0  0  0  0  0  0  0
   -1.8190   -0.6734    0.0000 C   0  0  0  0  0  0  0  0  0  0  0  0
   -0.4721   -0.2569    0.0000 C   0  0  0  0  0  0  0  0  0  0  0  0
   -0.4165   -3.7976    0.0000 C   0  0  0  0  0  0  0  0  0  0  0  0
    0.3333   -3.4783    0.0000 C   0  0  0  0  0  0  0  0  0  0  0  0
   -1.1802    3.7976    0.0000 C   0  0  0  0  0  0  0  0  0  0  0  0
    1.2219    2.9646    0.0000 C   0  0  0  0  0  0  0  0  0  0  0  0
    2.3744    1.8120    0.0000 C   0  0  0  0  0  0  0  0  0  0  0  0
    1.3608    0.7984    0.0000 C   0  0  0  0  0  0  0  0  0  0  0  0
    2.0134    3.1729    0.0000 C   0  0  0  0  0  0  0  0  0  0  0  0
    2.5966    2.5896    0.0000 C   0  0  0  0  0  0  0  0  0  0  0  0
  1 15  1  0  0  0  0
  2 15  1  0  0  0  0
  3 15  1  0  0  0  0
  4 18  2  0  0  0  0
  5  6  1  0  0  0  0
  5 13  1  0  0  0  0
 17  5  1  1  0  0  0
  6 14  2  0  0  0  0
  7 11  1  0  0  0  0
  7 27  1  0  0  0  0
  8 14  1  0  0  0  0
  8 20  1  0  0  0  0
  9 18  1  0  0  0  0
  9 29  1  0  0  0  0
 10 32  3  0  0  0  0
 11 15  1  0  0  0  0
 11 16  1  0  0  0  0
 11 19  1  0  0  0  0
 12 13  2  0  0  0  0
 12 14  1  0  0  0  0
 12 18  1  0  0  0  0
 13 21  1  0  0  0  0
 16 22  2  0  0  0  0
 16 23  1  0  0  0  0
 17 24  1  0  0  0  0
 17 30  1  0  0  0  0
 19 28  1  0  0  0  0
 20 25  2  0  0  0  0
 20 26  1  0  0  0  0
 21 29  2  0  0  0  0
 22 25  1  0  0  0  0
 23 26  2  0  0  0  0
 24 31  1  0  0  0  0
 24 32  1  6  0  0  0
 27 28  1  0  0  0  0
 30 33  1  0  0  0  0
 31 34  1  0  0  0  0
 33 34  1  0  0  0  0
M  END
> <PUBCHEM_COMPOUND_ID_TYPE>
0

> <PUBCHEM_TOTAL_CHARGE>
0

> <PUBCHEM_SUBSTANCE_ID>
310948442

> <PUBCHEM_SUBSTANCE_VERSION>
1

> <PUBCHEM_EXT_DATASOURCE_NAME>
4488

> <PUBCHEM_EXT_DATASOURCE_REGID>
SCHEMBL16126623

> <PUBCHEM_SUBSTANCE_COMMENT>
InChI=1S/C24H25F3N6O/c25-24(26,27)23(11-3-12-30-23)16-6-8-17(9-7-16)31-21-20-19(10-13-29-22(20)34)33(32-21)18-5-2-1-4-15(18)14-28/h6-10,13,15,18,30H,1-5,11-12H2,(H,29,34)(H,31,32)/t15-,18+,23?/m1/s1
InChIKey=KMWRHLUFCXSVEK-RERIJNNVSA-N

> <PUBCHEM_SUBSTANCE_SYNONYM>
SCHEMBL16126623

> <PUBCHEM_XREF_EXT_ID>
SCHEMBL16126623

> <PUBCHEM_EXT_DATASOURCE_URL>
https://www.surechembl.org/

> <PUBCHEM_EXT_SUBSTANCE_URL>
https://www.surechembl.org/chemical/SCHEMBL16126623

> <PUBCHEM_CID_ASSOCIATIONS>
117614000  1

> <PUBCHEM_COORDINATE_TYPE>
1
3

> <PUBCHEM_BONDANNOTATIONS>
24  32  6
17  5  5

$$$$
