310932823
  -OEChem-07211613022D

 28 30  0     0  0  0  0  0  0999 V2000
    5.5321   -2.0259    0.0000 O   0  0  0  0  0  0  0  0  0  0  0  0
    5.2723   -3.6361    0.0000 O   0  0  0  0  0  0  0  0  0  0  0  0
    0.0000   -3.1686    0.0000 O   0  0  0  0  0  0  0  0  0  0  0  0
    3.8959   -4.0776    0.0000 O   0  0  0  0  0  0  0  0  0  0  0  0
    1.9998    0.0000    0.0000 O   0  0  0  0  0  0  0  0  0  0  0  0
    4.2075   -2.7011    0.0000 N   0  0  0  0  0  0  0  0  0  0  0  0
    4.2075   -1.3765    0.0000 N   0  0  0  0  0  0  0  0  0  0  0  0
    0.4155   -3.8699    0.0000 N   0  0  0  0  0  0  0  0  0  0  0  0
    3.4283   -2.4674    0.0000 C   0  0  0  0  0  0  0  0  0  0  0  0
    3.4283   -1.6103    0.0000 C   0  0  0  0  0  0  0  0  0  0  0  0
    4.7010   -2.0259    0.0000 C   0  0  0  0  0  0  0  0  0  0  0  0
    2.0259   -2.4674    0.0000 C   0  0  0  0  0  0  0  0  0  0  0  0
    2.7011   -1.2207    0.0000 C   0  0  0  0  0  0  0  0  0  0  0  0
    2.7011   -2.8570    0.0000 C   0  0  0  0  0  0  0  0  0  0  0  0
    1.2986   -2.8829    0.0000 C   0  0  0  0  0  0  0  0  0  0  0  0
    4.4672   -3.4802    0.0000 C   0  0  0  0  0  0  0  0  0  0  0  0
    2.0259   -1.6103    0.0000 C   0  0  0  0  0  0  0  0  0  0  0  0
    0.5454   -2.5453    0.0000 C   0  0  0  0  0  0  0  0  0  0  0  0
    1.2207   -3.6880    0.0000 C   0  0  0  0  0  0  0  0  0  0  0  0
    2.7011   -0.3896    0.0000 C   0  0  0  0  0  0  0  0  0  0  0  0
    5.5061   -4.4153    0.0000 C   0  0  0  0  0  0  0  0  0  0  0  0
    5.9217   -1.3246    0.0000 C   0  0  0  0  0  0  0  0  0  0  0  0
    0.3636   -1.7402    0.0000 C   0  0  0  0  0  0  0  0  0  0  0  0
    1.8440   -4.2335    0.0000 C   0  0  0  0  0  0  0  0  0  0  0  0
    4.7269   -4.6750    0.0000 C   0  0  0  0  0  0  0  0  0  0  0  0
    5.7658   -5.1944    0.0000 C   0  0  0  0  0  0  0  0  0  0  0  0
    6.2853   -4.1555    0.0000 C   0  0  0  0  0  0  0  0  0  0  0  0
    5.5321   -0.6234    0.0000 C   0  0  0  0  0  0  0  0  0  0  0  0
  1 11  1  0  0  0  0
  1 22  1  0  0  0  0
  2 16  1  0  0  0  0
  2 21  1  0  0  0  0
  3  8  1  0  0  0  0
  3 18  1  0  0  0  0
  4 16  2  0  0  0  0
  5 20  2  0  0  0  0
  6  9  1  0  0  0  0
  6 11  1  0  0  0  0
  6 16  1  0  0  0  0
  7 10  1  0  0  0  0
  7 11  2  0  0  0  0
  8 19  2  0  0  0  0
  9 10  2  0  0  0  0
  9 14  1  0  0  0  0
 10 13  1  0  0  0  0
 12 14  2  0  0  0  0
 12 15  1  0  0  0  0
 12 17  1  0  0  0  0
 13 17  2  0  0  0  0
 13 20  1  0  0  0  0
 15 18  2  0  0  0  0
 15 19  1  0  0  0  0
 18 23  1  0  0  0  0
 19 24  1  0  0  0  0
 21 25  1  0  0  0  0
 21 26  1  0  0  0  0
 21 27  1  0  0  0  0
 22 28  1  0  0  0  0
M  END
> <PUBCHEM_COMPOUND_ID_TYPE>
0

> <PUBCHEM_TOTAL_CHARGE>
0

> <PUBCHEM_SUBSTANCE_ID>
310932823

> <PUBCHEM_SUBSTANCE_VERSION>
1

> <PUBCHEM_EXT_DATASOURCE_NAME>
4488

> <PUBCHEM_EXT_DATASOURCE_REGID>
SCHEMBL16110211

> <PUBCHEM_SUBSTANCE_COMMENT>
InChI=1S/C20H23N3O5/c1-7-26-18-21-17-14(10-24)8-13(16-11(2)22-28-12(16)3)9-15(17)23(18)19(25)27-20(4,5)6/h8-10H,7H2,1-6H3
InChIKey=DDOBYODYIGXUEL-UHFFFAOYSA-N

> <PUBCHEM_SUBSTANCE_SYNONYM>
SCHEMBL16110211

> <PUBCHEM_XREF_EXT_ID>
SCHEMBL16110211

> <PUBCHEM_EXT_DATASOURCE_URL>
https://www.surechembl.org/

> <PUBCHEM_EXT_SUBSTANCE_URL>
https://www.surechembl.org/chemical/SCHEMBL16110211

> <PUBCHEM_CID_ASSOCIATIONS>
117601313  1

> <PUBCHEM_COORDINATE_TYPE>
1
3

$$$$
