310949857
  -OEChem-07211613022D

 40 42  0     1  0  0  0  0  0999 V2000
   -3.3116   -0.1279    0.0000 P   0  0  3  0  0  0  0  0  0  0  0  0
   -0.0237   -1.6250    0.0000 F   0  0  0  0  0  0  0  0  0  0  0  0
   -0.4596    0.4406    0.0000 O   0  0  0  0  0  0  0  0  0  0  0  0
   -1.3407   -1.5113    0.0000 O   0  0  0  0  0  0  0  0  0  0  0  0
   -2.5156   -0.3648    0.0000 O   0  0  0  0  0  0  0  0  0  0  0  0
    0.5449    1.5776    0.0000 O   0  0  0  0  0  0  0  0  0  0  0  0
   -3.5390   -0.9143    0.0000 O   0  0  0  0  0  0  0  0  0  0  0  0
   -3.0842    0.6775    0.0000 O   0  0  0  0  0  0  0  0  0  0  0  0
   -5.3771    1.8903    0.0000 O   0  0  0  0  0  0  0  0  0  0  0  0
    3.8327   -0.3458    0.0000 O   0  0  0  0  0  0  0  0  0  0  0  0
   -5.7371    0.5069    0.0000 O   0  0  0  0  0  0  0  0  0  0  0  0
    0.9996    0.2322    0.0000 N   0  0  0  0  0  0  0  0  0  0  0  0
    1.9471    1.2933    0.0000 N   0  0  0  0  0  0  0  0  0  0  0  0
   -4.1264    0.0900    0.0000 N   0  0  0  0  0  0  0  0  0  0  0  0
    3.3684    1.0091    0.0000 N   0  0  0  0  0  0  0  0  0  0  0  0
    5.3961    0.1658    0.0000 N   0  0  0  0  0  0  0  0  0  0  0  0
   -0.0616   -0.7818    0.0000 C   0  0  3  0  0  0  0  0  0  0  0  0
    0.2227   -0.0237    0.0000 C   0  0  3  0  0  0  0  0  0  0  0  0
   -0.8575   -0.8006    0.0000 C   0  0  3  0  0  0  0  0  0  0  0  0
   -1.1133   -0.0331    0.0000 C   0  0  3  0  0  0  0  0  0  0  0  0
    1.1891    1.0375    0.0000 C   0  0  0  0  0  0  0  0  0  0  0  0
   -1.9093    0.2132    0.0000 C   0  0  0  0  0  0  0  0  0  0  0  0
    0.7438   -1.0091    0.0000 C   0  0  0  0  0  0  0  0  0  0  0  0
    1.6344   -0.2984    0.0000 C   0  0  0  0  0  0  0  0  0  0  0  0
    2.5914    0.7723    0.0000 C   0  0  0  0  0  0  0  0  0  0  0  0
    2.4019   -0.0331    0.0000 C   0  0  0  0  0  0  0  0  0  0  0  0
   -4.3538   -1.1038    0.0000 C   0  0  0  0  0  0  0  0  0  0  0  0
   -4.3538    0.8953    0.0000 C   0  0  3  0  0  0  0  0  0  0  0  0
    4.0126    0.4975    0.0000 C   0  0  0  0  0  0  0  0  0  0  0  0
   -5.1592    1.1228    0.0000 C   0  0  0  0  0  0  0  0  0  0  0  0
   -4.9129   -0.5259    0.0000 C   0  0  0  0  0  0  0  0  0  0  0  0
   -4.5812   -1.9093    0.0000 C   0  0  0  0  0  0  0  0  0  0  0  0
   -3.7758    1.4829    0.0000 C   0  0  0  0  0  0  0  0  0  0  0  0
    4.7897    0.7249    0.0000 C   0  0  0  0  0  0  0  0  0  0  0  0
   -5.7371   -0.7249    0.0000 C   0  0  0  0  0  0  0  0  0  0  0  0
   -5.3582   -2.1083    0.0000 C   0  0  0  0  0  0  0  0  0  0  0  0
   -5.9551   -1.5113    0.0000 C   0  0  0  0  0  0  0  0  0  0  0  0
   -6.1825    2.1083    0.0000 C   0  0  0  0  0  0  0  0  0  0  0  0
    5.2161   -0.6301    0.0000 C   0  0  0  0  0  0  0  0  0  0  0  0
    6.1825    0.4217    0.0000 C   0  0  0  0  0  0  0  0  0  0  0  0
  1  5  1  0  0  0  0
  1  7  1  0  0  0  0
  1  8  2  0  0  0  0
  1 14  1  0  0  0  0
 17  2  1  6  0  0  0
 18  3  1  1  0  0  0
  3 20  1  0  0  0  0
 19  4  1  6  0  0  0
  5 22  1  0  0  0  0
  6 21  2  0  0  0  0
  7 27  1  0  0  0  0
  9 30  1  0  0  0  0
  9 38  1  0  0  0  0
 10 29  2  0  0  0  0
 11 30  2  0  0  0  0
 12 18  1  0  0  0  0
 12 21  1  0  0  0  0
 12 24  1  0  0  0  0
 13 21  1  0  0  0  0
 13 25  2  0  0  0  0
 14 28  1  0  0  0  0
 15 25  1  0  0  0  0
 15 29  1  0  0  0  0
 16 34  1  0  0  0  0
 16 39  1  0  0  0  0
 16 40  1  0  0  0  0
 17 18  1  0  0  0  0
 17 19  1  0  0  0  0
 17 23  1  1  0  0  0
 19 20  1  0  0  0  0
 20 22  1  1  0  0  0
 24 26  2  0  0  0  0
 25 26  1  0  0  0  0
 27 31  2  0  0  0  0
 27 32  1  0  0  0  0
 28 30  1  0  0  0  0
 28 33  1  1  0  0  0
 29 34  1  0  0  0  0
 31 35  1  0  0  0  0
 32 36  2  0  0  0  0
 35 37  2  0  0  0  0
 36 37  1  0  0  0  0
M  END
> <PUBCHEM_COMPOUND_ID_TYPE>
0

> <PUBCHEM_TOTAL_CHARGE>
0

> <PUBCHEM_SUBSTANCE_ID>
310949857

> <PUBCHEM_SUBSTANCE_VERSION>
1

> <PUBCHEM_EXT_DATASOURCE_NAME>
4488

> <PUBCHEM_EXT_DATASOURCE_REGID>
SCHEMBL16128061

> <PUBCHEM_SUBSTANCE_COMMENT>
InChI=1S/C24H33FN5O9P/c1-15(21(33)36-5)28-40(35,39-16-9-7-6-8-10-16)37-14-17-20(32)24(2,25)22(38-17)30-12-11-18(27-23(30)34)26-19(31)13-29(3)4/h6-12,15,17,20,22,32H,13-14H2,1-5H3,(H,28,35)(H,26,27,31,34)/t15-,17-,20-,22-,24-,40?/m1/s1
InChIKey=ONYFGRRMTAZNJU-DTJXRHQNSA-N

> <PUBCHEM_SUBSTANCE_SYNONYM>
SCHEMBL16128061

> <PUBCHEM_XREF_EXT_ID>
SCHEMBL16128061

> <PUBCHEM_EXT_DATASOURCE_URL>
https://www.surechembl.org/

> <PUBCHEM_EXT_SUBSTANCE_URL>
https://www.surechembl.org/chemical/SCHEMBL16128061

> <PUBCHEM_CID_ASSOCIATIONS>
86270123  1

> <PUBCHEM_COORDINATE_TYPE>
1
3

> <PUBCHEM_BONDANNOTATIONS>
17  23  5
17  2  6
20  22  5
28  33  5
18  3  5
19  4  6

$$$$
