310940282
  -OEChem-07211613022D

 29 31  0     0  0  0  0  0  0999 V2000
    1.0432   -3.0075    0.0000 I   0  0  0  0  0  0  0  0  0  0  0  0
   -0.7173   -3.2195    0.0000 O   0  0  0  0  0  0  0  0  0  0  0  0
    2.4614    1.9969    0.0000 O   0  0  0  0  0  0  0  0  0  0  0  0
    1.1085    2.4369    0.0000 O   0  0  0  0  0  0  0  0  0  0  0  0
    0.7824   -0.8721    0.0000 N   0  0  0  0  0  0  0  0  0  0  0  0
    1.4019    1.0350    0.0000 N   0  0  0  0  0  0  0  0  0  0  0  0
    1.2714   -1.5405    0.0000 N   0  0  0  0  0  0  0  0  0  0  0  0
   -1.4345   -1.9643    0.0000 N   0  0  0  0  0  0  0  0  0  0  0  0
    3.1950    0.3342    0.0000 N   0  0  0  0  0  0  0  0  0  0  0  0
    1.0595   -0.0896    0.0000 C   0  0  0  0  0  0  0  0  0  0  0  0
    0.0163   -1.1166    0.0000 C   0  0  0  0  0  0  0  0  0  0  0  0
   -0.0163   -1.9643    0.0000 C   0  0  0  0  0  0  0  0  0  0  0  0
    0.6684    0.6602    0.0000 C   0  0  0  0  0  0  0  0  0  0  0  0
    1.7605    0.3016    0.0000 C   0  0  0  0  0  0  0  0  0  0  0  0
    0.7824   -2.2250    0.0000 C   0  0  0  0  0  0  0  0  0  0  0  0
    1.7442   -0.4809    0.0000 C   0  0  0  0  0  0  0  0  0  0  0  0
   -0.7173   -2.3718    0.0000 C   0  0  0  0  0  0  0  0  0  0  0  0
   -0.7173   -0.7091    0.0000 C   0  0  0  0  0  0  0  0  0  0  0  0
    1.6790    1.8176    0.0000 C   0  0  0  0  0  0  0  0  0  0  0  0
   -1.4182   -1.1166    0.0000 C   0  0  0  0  0  0  0  0  0  0  0  0
    2.4777   -0.0896    0.0000 C   0  0  0  0  0  0  0  0  0  0  0  0
    2.7222    2.8119    0.0000 C   0  0  0  0  0  0  0  0  0  0  0  0
   -1.4019   -3.6107    0.0000 C   0  0  0  0  0  0  0  0  0  0  0  0
    2.9179    3.6107    0.0000 C   0  0  0  0  0  0  0  0  0  0  0  0
    2.1518    3.3987    0.0000 C   0  0  0  0  0  0  0  0  0  0  0  0
    3.5537    2.9586    0.0000 C   0  0  0  0  0  0  0  0  0  0  0  0
   -2.1028   -3.2031    0.0000 C   0  0  0  0  0  0  0  0  0  0  0  0
   -2.8363   -3.5943    0.0000 C   0  0  0  0  0  0  0  0  0  0  0  0
   -3.5537   -3.1868    0.0000 C   0  0  0  0  0  0  0  0  0  0  0  0
  1 15  1  0  0  0  0
  2 17  1  0  0  0  0
  2 23  1  0  0  0  0
  3 19  1  0  0  0  0
  3 22  1  0  0  0  0
  4 19  2  0  0  0  0
  5  7  1  0  0  0  0
  5 10  1  0  0  0  0
  5 11  1  0  0  0  0
  6 13  1  0  0  0  0
  6 14  1  0  0  0  0
  6 19  1  0  0  0  0
  7 15  2  0  0  0  0
  8 17  2  0  0  0  0
  8 20  1  0  0  0  0
  9 21  3  0  0  0  0
 10 13  1  0  0  0  0
 10 14  1  0  0  0  0
 10 16  1  0  0  0  0
 11 12  2  0  0  0  0
 11 18  1  0  0  0  0
 12 15  1  0  0  0  0
 12 17  1  0  0  0  0
 16 21  1  0  0  0  0
 18 20  2  0  0  0  0
 22 24  1  0  0  0  0
 22 25  1  0  0  0  0
 22 26  1  0  0  0  0
 23 27  1  0  0  0  0
 27 28  1  0  0  0  0
 28 29  1  0  0  0  0
M  END
> <PUBCHEM_COMPOUND_ID_TYPE>
0

> <PUBCHEM_TOTAL_CHARGE>
0

> <PUBCHEM_SUBSTANCE_ID>
310940282

> <PUBCHEM_SUBSTANCE_VERSION>
1

> <PUBCHEM_EXT_DATASOURCE_NAME>
4488

> <PUBCHEM_EXT_DATASOURCE_REGID>
SCHEMBL16118225

> <PUBCHEM_SUBSTANCE_COMMENT>
InChI=1S/C20H26IN5O3/c1-5-6-11-28-17-15-14(7-10-23-17)26(24-16(15)21)20(8-9-22)12-25(13-20)18(27)29-19(2,3)4/h7,10H,5-6,8,11-13H2,1-4H3
InChIKey=VNZNYUJZZRGRMF-UHFFFAOYSA-N

> <PUBCHEM_SUBSTANCE_SYNONYM>
SCHEMBL16118225

> <PUBCHEM_XREF_EXT_ID>
SCHEMBL16118225

> <PUBCHEM_EXT_DATASOURCE_URL>
https://www.surechembl.org/

> <PUBCHEM_EXT_SUBSTANCE_URL>
https://www.surechembl.org/chemical/SCHEMBL16118225

> <PUBCHEM_CID_ASSOCIATIONS>
117607365  1

> <PUBCHEM_COORDINATE_TYPE>
1
3

$$$$
