310944802
  -OEChem-07211613022D

 22 24  0     0  0  0  0  0  0999 V2000
   -0.6969   -1.4435    0.0000 I   0  0  0  0  0  0  0  0  0  0  0  0
   -3.7688    0.2062    0.0000 Cl  0  0  0  0  0  0  0  0  0  0  0  0
   -3.7688   -1.4578    0.0000 Cl  0  0  0  0  0  0  0  0  0  0  0  0
   -0.6969    0.2062    0.0000 N   0  0  0  0  0  0  0  0  0  0  0  0
    0.7538    0.2062    0.0000 N   0  0  0  0  0  0  0  0  0  0  0  0
    2.1902    0.2062    0.0000 N   0  0  0  0  0  0  0  0  0  0  0  0
    3.7688    1.0453    0.0000 N   0  0  0  0  0  0  0  0  0  0  0  0
   -1.4079   -0.1920    0.0000 C   0  0  0  0  0  0  0  0  0  0  0  0
   -1.4222   -1.0169    0.0000 C   0  0  0  0  0  0  0  0  0  0  0  0
    0.0285   -0.1920    0.0000 C   0  0  0  0  0  0  0  0  0  0  0  0
    1.4649   -0.1920    0.0000 C   0  0  0  0  0  0  0  0  0  0  0  0
   -2.8444   -0.2062    0.0000 C   0  0  0  0  0  0  0  0  0  0  0  0
   -2.1190    0.2062    0.0000 C   0  0  0  0  0  0  0  0  0  0  0  0
   -2.8444   -1.0311    0.0000 C   0  0  0  0  0  0  0  0  0  0  0  0
   -2.1190   -1.4435    0.0000 C   0  0  0  0  0  0  0  0  0  0  0  0
    0.0285   -1.0311    0.0000 C   0  0  0  0  0  0  0  0  0  0  0  0
    1.4649   -1.0311    0.0000 C   0  0  0  0  0  0  0  0  0  0  0  0
    0.7538   -1.4435    0.0000 C   0  0  0  0  0  0  0  0  0  0  0  0
    2.9013   -0.2062    0.0000 C   0  0  0  0  0  0  0  0  0  0  0  0
    2.1902    1.0453    0.0000 C   0  0  0  0  0  0  0  0  0  0  0  0
    3.6123    0.2062    0.0000 C   0  0  0  0  0  0  0  0  0  0  0  0
    2.8870    1.4578    0.0000 C   0  0  0  0  0  0  0  0  0  0  0  0
  1  9  1  0  0  0  0
  2 12  1  0  0  0  0
  3 14  1  0  0  0  0
  4  8  1  0  0  0  0
  4 10  1  0  0  0  0
  5 10  1  0  0  0  0
  5 11  2  0  0  0  0
  6 11  1  0  0  0  0
  6 19  1  0  0  0  0
  6 20  1  0  0  0  0
  7 21  1  0  0  0  0
  7 22  1  0  0  0  0
  8  9  1  0  0  0  0
  8 13  2  0  0  0  0
  9 15  2  0  0  0  0
 10 16  2  0  0  0  0
 11 17  1  0  0  0  0
 12 13  1  0  0  0  0
 12 14  2  0  0  0  0
 14 15  1  0  0  0  0
 16 18  1  0  0  0  0
 17 18  2  0  0  0  0
 19 21  1  0  0  0  0
 20 22  1  0  0  0  0
M  END
> <PUBCHEM_COMPOUND_ID_TYPE>
0

> <PUBCHEM_TOTAL_CHARGE>
0

> <PUBCHEM_SUBSTANCE_ID>
310944802

> <PUBCHEM_SUBSTANCE_VERSION>
1

> <PUBCHEM_EXT_DATASOURCE_NAME>
4488

> <PUBCHEM_EXT_DATASOURCE_REGID>
SCHEMBL16122881

> <PUBCHEM_SUBSTANCE_COMMENT>
InChI=1S/C15H15Cl2IN4/c16-10-8-12(18)13(9-11(10)17)20-14-2-1-3-15(21-14)22-6-4-19-5-7-22/h1-3,8-9,19H,4-7H2,(H,20,21)
InChIKey=JFDPEFJIFRFZNF-UHFFFAOYSA-N

> <PUBCHEM_SUBSTANCE_SYNONYM>
SCHEMBL16122881

> <PUBCHEM_XREF_EXT_ID>
SCHEMBL16122881

> <PUBCHEM_EXT_DATASOURCE_URL>
https://www.surechembl.org/

> <PUBCHEM_EXT_SUBSTANCE_URL>
https://www.surechembl.org/chemical/SCHEMBL16122881

> <PUBCHEM_CID_ASSOCIATIONS>
117611014  1

> <PUBCHEM_COORDINATE_TYPE>
1
3

$$$$
