310940977
  -OEChem-07211613022D

 41 44  0     1  0  0  0  0  0999 V2000
    5.2510    0.9817    0.0000 O   0  0  0  0  0  0  0  0  0  0  0  0
    4.1095   -0.9969    0.0000 O   0  0  0  0  0  0  0  0  0  0  0  0
    1.7047    0.9665    0.0000 O   0  0  0  0  0  0  0  0  0  0  0  0
   -0.4719   -1.1187    0.0000 O   0  0  0  0  0  0  0  0  0  0  0  0
   -2.6483    0.9665    0.0000 O   0  0  0  0  0  0  0  0  0  0  0  0
    3.8812   -2.7778    0.0000 O   0  0  0  0  0  0  0  0  0  0  0  0
   -5.5554   -1.5297    0.0000 O   0  0  0  0  0  0  0  0  0  0  0  0
    2.4352   -0.2816    0.0000 N   0  0  0  0  0  0  0  0  0  0  0  0
    0.2588    0.1293    0.0000 N   0  0  0  0  0  0  0  0  0  0  0  0
   -1.9178   -0.2816    0.0000 N   0  0  0  0  0  0  0  0  0  0  0  0
    4.8097    0.2968    0.0000 C   0  0  3  0  0  0  0  0  0  0  0  0
    4.0943   -0.1142    0.0000 C   0  0  0  0  0  0  0  0  0  0  0  0
    4.4444    0.9969    0.0000 C   0  0  0  0  0  0  0  0  0  0  0  0
    3.3790    0.2816    0.0000 C   0  0  3  0  0  0  0  0  0  0  0  0
    5.5554   -0.1293    0.0000 C   0  0  0  0  0  0  0  0  0  0  0  0
    3.3790    1.3774    0.0000 C   0  0  0  0  0  0  0  0  0  0  0  0
    1.7047    0.1446    0.0000 C   0  0  0  0  0  0  0  0  0  0  0  0
    1.0045   -0.2511    0.0000 C   0  0  3  0  0  0  0  0  0  0  0  0
    2.6483    1.8036    0.0000 C   0  0  0  0  0  0  0  0  0  0  0  0
    0.9740   -1.1035    0.0000 C   0  0  0  0  0  0  0  0  0  0  0  0
   -0.4567   -0.2359    0.0000 C   0  0  0  0  0  0  0  0  0  0  0  0
    1.7200   -1.4992    0.0000 C   0  0  0  0  0  0  0  0  0  0  0  0
    2.5722    2.6103    0.0000 C   0  0  0  0  0  0  0  0  0  0  0  0
    1.9178    1.4535    0.0000 C   0  0  0  0  0  0  0  0  0  0  0  0
   -1.2024    0.1598    0.0000 C   0  0  3  0  0  0  0  0  0  0  0  0
   -2.5722    0.1446    0.0000 C   0  0  0  0  0  0  0  0  0  0  0  0
    1.7656    2.7778    0.0000 C   0  0  0  0  0  0  0  0  0  0  0  0
    1.3546    2.0624    0.0000 C   0  0  0  0  0  0  0  0  0  0  0  0
   -3.3638   -0.2664    0.0000 C   0  0  0  0  0  0  0  0  0  0  0  0
    1.7351   -2.3515    0.0000 C   0  0  0  0  0  0  0  0  0  0  0  0
    2.4352   -1.1035    0.0000 C   0  0  0  0  0  0  0  0  0  0  0  0
    3.1507   -2.3363    0.0000 C   0  0  0  0  0  0  0  0  0  0  0  0
    2.4505   -2.7473    0.0000 C   0  0  0  0  0  0  0  0  0  0  0  0
    3.1659   -1.5144    0.0000 C   0  0  0  0  0  0  0  0  0  0  0  0
   -4.1095    0.1446    0.0000 C   0  0  0  0  0  0  0  0  0  0  0  0
   -3.3638   -1.0883    0.0000 C   0  0  0  0  0  0  0  0  0  0  0  0
   -1.1871    0.9817    0.0000 C   0  0  0  0  0  0  0  0  0  0  0  0
   -4.8097   -1.0883    0.0000 C   0  0  0  0  0  0  0  0  0  0  0  0
   -4.8097   -0.2664    0.0000 C   0  0  0  0  0  0  0  0  0  0  0  0
   -4.0790   -1.4992    0.0000 C   0  0  0  0  0  0  0  0  0  0  0  0
    4.6119   -2.3363    0.0000 C   0  0  0  0  0  0  0  0  0  0  0  0
  1 11  1  0  0  0  0
  1 13  1  0  0  0  0
  2 12  2  0  0  0  0
  3 17  2  0  0  0  0
  4 21  2  0  0  0  0
  5 26  2  0  0  0  0
  6 32  1  0  0  0  0
  6 41  1  0  0  0  0
 38  7  1  6  0  0  0
 14  8  1  1  0  0  0
  8 17  1  0  0  0  0
 18  9  1  6  0  0  0
  9 21  1  0  0  0  0
 10 25  1  0  0  0  0
 10 26  1  0  0  0  0
 11 12  1  1  0  0  0
 11 13  1  0  0  0  0
 11 15  1  6  0  0  0
 12 14  1  0  0  0  0
 14 16  1  0  0  0  0
 16 19  1  0  0  0  0
 17 18  1  0  0  0  0
 18 20  1  0  0  0  0
 19 23  2  0  0  0  0
 19 24  1  0  0  0  0
 20 22  1  0  0  0  0
 21 25  1  0  0  0  0
 22 30  2  0  0  0  0
 22 31  1  0  0  0  0
 23 27  1  0  0  0  0
 24 28  1  0  0  0  0
 25 37  1  6  0  0  0
 29 26  1  6  0  0  0
 27 28  1  0  0  0  0
 29 35  1  0  0  0  0
 29 36  1  0  0  0  0
 30 33  1  0  0  0  0
 31 34  2  0  0  0  0
 32 33  2  0  0  0  0
 32 34  1  0  0  0  0
 35 39  1  0  0  0  0
 36 40  1  0  0  0  0
 38 39  1  0  0  0  0
 38 40  1  0  0  0  0
M  END
> <PUBCHEM_COMPOUND_ID_TYPE>
0

> <PUBCHEM_TOTAL_CHARGE>
0

> <PUBCHEM_SUBSTANCE_ID>
310940977

> <PUBCHEM_SUBSTANCE_VERSION>
1

> <PUBCHEM_EXT_DATASOURCE_NAME>
4488

> <PUBCHEM_EXT_DATASOURCE_REGID>
SCHEMBL16118936

> <PUBCHEM_SUBSTANCE_COMMENT>
InChI=1S/C31H43N3O7/c1-19(32-29(38)22-10-12-23(35)13-11-22)28(37)34-26(17-21-8-14-24(40-3)15-9-21)30(39)33-25(16-20-6-4-5-7-20)27(36)31(2)18-41-31/h6,8-9,14-15,19,22-23,25-26,35H,4-5,7,10-13,16-18H2,1-3H3,(H,32,38)(H,33,39)(H,34,37)/t19-,22-,23+,25+,26+,31-/m1/s1
InChIKey=ONVNUBAXWAHVEF-UQDQYUKQSA-N

> <PUBCHEM_SUBSTANCE_SYNONYM>
SCHEMBL16118936

> <PUBCHEM_XREF_EXT_ID>
SCHEMBL16118936

> <PUBCHEM_EXT_DATASOURCE_URL>
https://www.surechembl.org/

> <PUBCHEM_EXT_SUBSTANCE_URL>
https://www.surechembl.org/chemical/SCHEMBL16118936

> <PUBCHEM_CID_ASSOCIATIONS>
78425867  1

> <PUBCHEM_COORDINATE_TYPE>
1
3

> <PUBCHEM_BONDANNOTATIONS>
11  12  5
11  15  6
25  37  6
29  26  6
38  7  6
14  8  5
18  9  6

$$$$
