310936655
  -OEChem-07211613022D

 26 28  0     0  0  0  0  0  0999 V2000
    4.1249   -4.7850    0.0000 O   0  0  0  0  0  0  0  0  0  0  0  0
    1.0312   -6.9299    0.0000 O   0  0  0  0  0  0  0  0  0  0  0  0
    0.0000    0.0000    0.0000 O   0  0  0  0  0  0  0  0  0  0  0  0
    1.5262   -2.0213    0.0000 N   0  0  0  0  0  0  0  0  0  0  0  0
    3.5475   -3.4650    0.0000 N   0  0  0  0  0  0  0  0  0  0  0  0
    0.9075   -1.4850    0.0000 N   0  0  0  0  0  0  0  0  0  0  0  0
    2.0625   -0.7837    0.0000 N   0  0  0  0  0  0  0  0  0  0  0  0
    2.7225   -4.6200    0.0000 C   0  0  0  0  0  0  0  0  0  0  0  0
    2.6400   -5.4450    0.0000 C   0  0  0  0  0  0  0  0  0  0  0  0
    3.4650   -4.3312    0.0000 C   0  0  0  0  0  0  0  0  0  0  0  0
    2.1037   -3.3412    0.0000 C   0  0  0  0  0  0  0  0  0  0  0  0
    2.0625   -4.1662    0.0000 C   0  0  0  0  0  0  0  0  0  0  0  0
    1.4437   -2.8462    0.0000 C   0  0  0  0  0  0  0  0  0  0  0  0
    2.8875   -3.0112    0.0000 C   0  0  0  0  0  0  0  0  0  0  0  0
    1.8562   -5.7750    0.0000 C   0  0  0  0  0  0  0  0  0  0  0  0
    3.3000   -5.9399    0.0000 C   0  0  0  0  0  0  0  0  0  0  0  0
    1.7737   -6.6000    0.0000 C   0  0  0  0  0  0  0  0  0  0  0  0
    1.2375   -0.7012    0.0000 C   0  0  0  0  0  0  0  0  0  0  0  0
    2.2275   -1.6088    0.0000 C   0  0  0  0  0  0  0  0  0  0  0  0
    3.1762   -6.7649    0.0000 C   0  0  0  0  0  0  0  0  0  0  0  0
    2.4338   -7.0949    0.0000 C   0  0  0  0  0  0  0  0  0  0  0  0
    0.8250    0.0000    0.0000 C   0  0  0  0  0  0  0  0  0  0  0  0
    4.9087   -4.4549    0.0000 C   0  0  0  0  0  0  0  0  0  0  0  0
    0.9075   -7.7550    0.0000 C   0  0  0  0  0  0  0  0  0  0  0  0
    4.9912   -3.6300    0.0000 C   0  0  0  0  0  0  0  0  0  0  0  0
    1.5675   -8.2499    0.0000 C   0  0  0  0  0  0  0  0  0  0  0  0
  1 10  1  0  0  0  0
  1 23  1  0  0  0  0
  2 17  1  0  0  0  0
  2 24  1  0  0  0  0
  3 22  1  0  0  0  0
  4  6  1  0  0  0  0
  4 13  1  0  0  0  0
  4 19  1  0  0  0  0
  5 10  2  0  0  0  0
  5 14  1  0  0  0  0
  6 18  2  0  0  0  0
  7 18  1  0  0  0  0
  7 19  2  0  0  0  0
  8  9  1  0  0  0  0
  8 10  1  0  0  0  0
  8 12  2  0  0  0  0
  9 15  1  0  0  0  0
  9 16  2  0  0  0  0
 11 12  1  0  0  0  0
 11 13  1  0  0  0  0
 11 14  2  0  0  0  0
 15 17  2  0  0  0  0
 16 20  1  0  0  0  0
 17 21  1  0  0  0  0
 18 22  1  0  0  0  0
 20 21  2  0  0  0  0
 23 25  1  0  0  0  0
 24 26  1  0  0  0  0
M  END
> <PUBCHEM_COMPOUND_ID_TYPE>
0

> <PUBCHEM_TOTAL_CHARGE>
0

> <PUBCHEM_SUBSTANCE_ID>
310936655

> <PUBCHEM_SUBSTANCE_VERSION>
1

> <PUBCHEM_EXT_DATASOURCE_NAME>
4488

> <PUBCHEM_EXT_DATASOURCE_REGID>
SCHEMBL16114323

> <PUBCHEM_SUBSTANCE_COMMENT>
InChI=1S/C19H22N4O3/c1-3-25-16-7-5-6-15(9-16)17-8-14(10-20-19(17)26-4-2)11-23-13-21-18(12-24)22-23/h5-10,13,24H,3-4,11-12H2,1-2H3
InChIKey=SGUXRCGACDPOOO-UHFFFAOYSA-N

> <PUBCHEM_SUBSTANCE_SYNONYM>
SCHEMBL16114323

> <PUBCHEM_XREF_EXT_ID>
SCHEMBL16114323

> <PUBCHEM_EXT_DATASOURCE_URL>
https://www.surechembl.org/

> <PUBCHEM_EXT_SUBSTANCE_URL>
https://www.surechembl.org/chemical/SCHEMBL16114323

> <PUBCHEM_CID_ASSOCIATIONS>
117604566  1

> <PUBCHEM_COORDINATE_TYPE>
1
3

$$$$
