310938427
  -OEChem-07211613022D

 16 16  0     0  0  0  0  0  0999 V2000
    2.5210   -0.7152    0.0000 O   0  0  0  0  0  0  0  0  0  0  0  0
    2.5210   -3.5759    0.0000 O   0  0  0  0  0  0  0  0  0  0  0  0
    4.9884   -0.7152    0.0000 O   0  0  0  0  0  0  0  0  0  0  0  0
    3.7368    0.0000    0.0000 O   0  0  0  0  0  0  0  0  0  0  0  0
    2.4853   -2.1456    0.0000 N   0  0  0  0  0  0  0  0  0  0  0  0
    3.7548   -2.8607    0.0000 N   0  0  0  0  0  0  0  0  0  0  0  0
    4.1839   -2.1456    0.0000 N   0  0  0  0  0  0  0  0  0  0  0  0
    2.9323   -1.4304    0.0000 C   0  0  0  0  0  0  0  0  0  0  0  0
    3.7548   -1.4304    0.0000 C   0  0  0  0  0  0  0  0  0  0  0  0
    2.9323   -2.8607    0.0000 C   0  0  0  0  0  0  0  0  0  0  0  0
    4.1481   -0.7152    0.0000 C   0  0  0  0  0  0  0  0  0  0  0  0
    1.6628   -2.1456    0.0000 C   0  0  0  0  0  0  0  0  0  0  0  0
    4.1481   -3.5759    0.0000 C   0  0  0  0  0  0  0  0  0  0  0  0
    1.2337   -1.4304    0.0000 C   0  0  0  0  0  0  0  0  0  0  0  0
    0.4112   -1.4304    0.0000 C   0  0  0  0  0  0  0  0  0  0  0  0
    0.0000   -0.7152    0.0000 C   0  0  0  0  0  0  0  0  0  0  0  0
  1  8  2  0  0  0  0
  2 10  2  0  0  0  0
  3 11  2  0  0  0  0
  4 11  1  0  0  0  0
  5  8  1  0  0  0  0
  5 10  1  0  0  0  0
  5 12  1  0  0  0  0
  6  7  1  0  0  0  0
  6 10  1  0  0  0  0
  6 13  1  0  0  0  0
  7  9  2  0  0  0  0
  8  9  1  0  0  0  0
  9 11  1  0  0  0  0
 12 14  1  0  0  0  0
 14 15  1  0  0  0  0
 15 16  1  0  0  0  0
M  END
> <PUBCHEM_COMPOUND_ID_TYPE>
0

> <PUBCHEM_TOTAL_CHARGE>
0

> <PUBCHEM_SUBSTANCE_ID>
310938427

> <PUBCHEM_SUBSTANCE_VERSION>
1

> <PUBCHEM_EXT_DATASOURCE_NAME>
4488

> <PUBCHEM_EXT_DATASOURCE_REGID>
SCHEMBL16116321

> <PUBCHEM_SUBSTANCE_COMMENT>
InChI=1S/C9H13N3O4/c1-3-4-5-12-7(13)6(8(14)15)10-11(2)9(12)16/h3-5H2,1-2H3,(H,14,15)
InChIKey=AGZRBDXYGYBNAT-UHFFFAOYSA-N

> <PUBCHEM_SUBSTANCE_SYNONYM>
SCHEMBL16116321

> <PUBCHEM_XREF_EXT_ID>
SCHEMBL16116321

> <PUBCHEM_EXT_DATASOURCE_URL>
https://www.surechembl.org/

> <PUBCHEM_EXT_SUBSTANCE_URL>
https://www.surechembl.org/chemical/SCHEMBL16116321

> <PUBCHEM_CID_ASSOCIATIONS>
117605893  1

> <PUBCHEM_COORDINATE_TYPE>
1
3

$$$$
