310935279
  -OEChem-07211613022D

 34 36  0     1  0  0  0  0  0999 V2000
   -0.4406   -3.4463    0.0000 P   0  0  3  0  0  0  0  0  0  0  0  0
   -0.7377   -4.8441    0.0000 P   0  0  3  0  0  0  0  0  0  0  0  0
    0.0865   -0.5966    0.0000 O   0  0  0  0  0  0  0  0  0  0  0  0
   -0.6955   -2.6617    0.0000 O   0  0  0  0  0  0  0  0  0  0  0  0
   -1.8505    0.3009    0.0000 O   0  0  0  0  0  0  0  0  0  0  0  0
   -0.1857   -4.2310    0.0000 O   0  0  0  0  0  0  0  0  0  0  0  0
   -1.8505   -1.4940    0.0000 O   0  0  0  0  0  0  0  0  0  0  0  0
    1.3556    3.1729    0.0000 O   0  0  0  0  0  0  0  0  0  0  0  0
   -1.2897   -5.4571    0.0000 O   0  0  0  0  0  0  0  0  0  0  0  0
    0.3440   -3.1914    0.0000 O   0  0  0  0  0  0  0  0  0  0  0  0
   -1.2252   -3.7013    0.0000 O   0  0  0  0  0  0  0  0  0  0  0  0
   -0.1246   -5.3961    0.0000 O   0  0  0  0  0  0  0  0  0  0  0  0
   -1.3508   -4.2920    0.0000 O   0  0  0  0  0  0  0  0  0  0  0  0
   -2.6909   -8.0810    0.0000 O   0  0  0  0  0  0  0  0  0  0  0  0
   -1.6290   -9.0372    0.0000 O   0  0  0  0  0  0  0  0  0  0  0  0
   -0.1435    0.8555    0.0000 N   0  0  0  0  0  0  0  0  0  0  0  0
   -0.1435    2.1904    0.0000 N   0  0  0  0  0  0  0  0  0  0  0  0
    1.3556    0.6979    0.0000 N   0  0  0  0  0  0  0  0  0  0  0  0
    2.0701    1.9354    0.0000 N   0  0  0  0  0  0  0  0  0  0  0  0
    2.7845    0.6979    0.0000 N   0  0  0  0  0  0  0  0  0  0  0  0
   -1.3319   -7.6395    0.0000 N   0  0  0  0  0  0  0  0  0  0  0  0
   -0.3984    0.0709    0.0000 C   0  0  3  0  0  0  0  0  0  0  0  0
    0.6411    1.1104    0.0000 C   0  0  0  0  0  0  0  0  0  0  0  0
   -1.1831   -0.1841    0.0000 C   0  0  3  0  0  0  0  0  0  0  0  0
    0.6411    1.9354    0.0000 C   0  0  0  0  0  0  0  0  0  0  0  0
   -0.3984   -1.2640    0.0000 C   0  0  3  0  0  0  0  0  0  0  0  0
   -1.1831   -1.0091    0.0000 C   0  0  3  0  0  0  0  0  0  0  0  0
   -0.6284    1.5229    0.0000 C   0  0  0  0  0  0  0  0  0  0  0  0
    1.3556    2.3479    0.0000 C   0  0  0  0  0  0  0  0  0  0  0  0
   -0.1435   -2.0486    0.0000 C   0  0  0  0  0  0  0  0  0  0  0  0
    2.0701    1.1104    0.0000 C   0  0  0  0  0  0  0  0  0  0  0  0
   -1.0348   -6.2418    0.0000 C   0  0  0  0  0  0  0  0  0  0  0  0
   -1.5868   -6.8549    0.0000 C   0  0  0  0  0  0  0  0  0  0  0  0
   -1.8839   -8.2526    0.0000 C   0  0  0  0  0  0  0  0  0  0  0  0
  1  4  1  0  0  0  0
  1  6  1  0  0  0  0
  1 10  2  0  0  0  0
  1 11  1  0  0  0  0
  2  6  1  0  0  0  0
  2  9  1  0  0  0  0
  2 12  2  0  0  0  0
  2 13  1  0  0  0  0
 22  3  1  6  0  0  0
  3 26  1  0  0  0  0
  4 30  1  0  0  0  0
 24  5  1  1  0  0  0
 27  7  1  6  0  0  0
  8 29  2  0  0  0  0
  9 32  1  0  0  0  0
 14 34  2  0  0  0  0
 15 34  1  0  0  0  0
 16 22  1  0  0  0  0
 16 23  1  0  0  0  0
 16 28  1  0  0  0  0
 17 25  1  0  0  0  0
 17 28  2  0  0  0  0
 18 23  1  0  0  0  0
 18 31  2  0  0  0  0
 19 29  1  0  0  0  0
 19 31  1  0  0  0  0
 20 31  1  0  0  0  0
 21 33  1  0  0  0  0
 21 34  1  0  0  0  0
 22 24  1  0  0  0  0
 23 25  2  0  0  0  0
 24 27  1  0  0  0  0
 25 29  1  0  0  0  0
 26 27  1  0  0  0  0
 26 30  1  6  0  0  0
 32 33  1  0  0  0  0
M  END
> <PUBCHEM_COMPOUND_ID_TYPE>
0

> <PUBCHEM_TOTAL_CHARGE>
0

> <PUBCHEM_SUBSTANCE_ID>
310935279

> <PUBCHEM_SUBSTANCE_VERSION>
1

> <PUBCHEM_EXT_DATASOURCE_NAME>
4488

> <PUBCHEM_EXT_DATASOURCE_REGID>
SCHEMBL16112811

> <PUBCHEM_SUBSTANCE_COMMENT>
InChI=1S/C13H20N6O13P2/c14-12-17-9-6(10(22)18-12)16-4-19(9)11-8(21)7(20)5(31-11)3-30-34(27,28)32-33(25,26)29-2-1-15-13(23)24/h4-5,7-8,11,15,20-21H,1-3H2,(H,23,24)(H,25,26)(H,27,28)(H3,14,17,18,22)/t5-,7+,8-,11-/m1/s1
InChIKey=FKHAVPDYNMRZNO-GZCUOZMLSA-N

> <PUBCHEM_SUBSTANCE_SYNONYM>
SCHEMBL16112811

> <PUBCHEM_XREF_EXT_ID>
SCHEMBL16112811

> <PUBCHEM_EXT_DATASOURCE_URL>
https://www.surechembl.org/

> <PUBCHEM_EXT_SUBSTANCE_URL>
https://www.surechembl.org/chemical/SCHEMBL16112811

> <PUBCHEM_CID_ASSOCIATIONS>
117603348  1

> <PUBCHEM_COORDINATE_TYPE>
1
3

> <PUBCHEM_BONDANNOTATIONS>
26  30  6
22  3  6
24  5  5
27  7  6

$$$$
