310948826
  -OEChem-07211613022D

 15 15  0     1  0  0  0  0  0999 V2000
    1.4485   -1.0424    0.0000 S   0  0  0  0  0  0  0  0  0  0  0  0
    0.0000    1.4814    0.0000 O   0  0  0  0  0  0  0  0  0  0  0  0
    0.0000   -1.0424    0.0000 O   0  0  0  0  0  0  0  0  0  0  0  0
    1.4485   -0.2085    0.0000 O   0  0  0  0  0  0  0  0  0  0  0  0
    0.7242   -2.2934    0.0000 O   0  0  0  0  0  0  0  0  0  0  0  0
   -1.4485    2.2934    0.0000 O   0  0  0  0  0  0  0  0  0  0  0  0
    0.0000   -0.1865    0.0000 C   0  0  3  0  0  0  0  0  0  0  0  0
    0.7023    0.2305    0.0000 C   0  0  3  0  0  0  0  0  0  0  0  0
    0.7242    1.0644    0.0000 C   0  0  3  0  0  0  0  0  0  0  0  0
   -0.7242    1.0644    0.0000 C   0  0  3  0  0  0  0  0  0  0  0  0
   -0.7242    0.2085    0.0000 C   0  0  0  0  0  0  0  0  0  0  0  0
    1.0534    1.3058    0.0000 C   0  0  0  0  0  0  0  0  0  0  0  0
    0.7023   -1.4375    0.0000 C   0  0  0  0  0  0  0  0  0  0  0  0
   -1.4485    1.4594    0.0000 C   0  0  0  0  0  0  0  0  0  0  0  0
    1.3387    1.0424    0.0000 C   0  0  0  0  0  0  0  0  0  0  0  0
  1 13  1  0  0  0  0
  2  9  1  0  0  0  0
  2 10  1  0  0  0  0
  7  3  1  1  0  0  0
  3 13  1  0  0  0  0
  8  4  1  1  0  0  0
  5 13  2  0  0  0  0
  6 14  1  0  0  0  0
  7  8  1  0  0  0  0
  7 11  1  0  0  0  0
  8  9  1  0  0  0  0
  9 12  1  0  0  0  0
 10 11  1  0  0  0  0
 10 14  1  1  0  0  0
 12 15  1  0  0  0  0
M  END
> <PUBCHEM_COMPOUND_ID_TYPE>
0

> <PUBCHEM_TOTAL_CHARGE>
0

> <PUBCHEM_SUBSTANCE_ID>
310948826

> <PUBCHEM_SUBSTANCE_VERSION>
1

> <PUBCHEM_EXT_DATASOURCE_NAME>
4488

> <PUBCHEM_EXT_DATASOURCE_REGID>
SCHEMBL16127010

> <PUBCHEM_SUBSTANCE_COMMENT>
InChI=1S/C9H16O5S/c1-2-6-8(11)7(14-9(12)15)3-5(4-10)13-6/h5-8,10-11H,2-4H2,1H3,(H,12,15)/t5-,6?,7-,8+/m0/s1
InChIKey=FGZNCSQAPIQJBD-SBEGJHHSSA-N

> <PUBCHEM_SUBSTANCE_SYNONYM>
SCHEMBL16127010

> <PUBCHEM_XREF_EXT_ID>
SCHEMBL16127010

> <PUBCHEM_EXT_DATASOURCE_URL>
https://www.surechembl.org/

> <PUBCHEM_EXT_SUBSTANCE_URL>
https://www.surechembl.org/chemical/SCHEMBL16127010

> <PUBCHEM_CID_ASSOCIATIONS>
117614363  1

> <PUBCHEM_COORDINATE_TYPE>
1
3

> <PUBCHEM_BONDANNOTATIONS>
10  14  5
7  3  5
8  4  5

$$$$
