310929395
  -OEChem-07211613022D

 29 30  0     0  0  0  0  0  0999 V2000
   13.4409   -3.6786    0.0000 Cl  0  0  0  0  0  0  0  0  0  0  0  0
   13.3937   -0.4245    0.0000 O   0  0  0  0  0  0  0  0  0  0  0  0
    0.0000   -1.6506    0.0000 O   0  0  0  0  0  0  0  0  0  0  0  0
   12.0261   -1.2262    0.0000 N   0  0  0  0  0  0  0  0  0  0  0  0
   12.7335   -1.6506    0.0000 C   0  0  0  0  0  0  0  0  0  0  0  0
   12.7335   -2.4523    0.0000 C   0  0  0  0  0  0  0  0  0  0  0  0
   13.4409   -1.2262    0.0000 C   0  0  0  0  0  0  0  0  0  0  0  0
   13.4409   -2.8768    0.0000 C   0  0  0  0  0  0  0  0  0  0  0  0
   11.3186   -1.6506    0.0000 C   0  0  0  0  0  0  0  0  0  0  0  0
   12.0261   -2.8768    0.0000 C   0  0  0  0  0  0  0  0  0  0  0  0
   14.1483   -1.6506    0.0000 C   0  0  0  0  0  0  0  0  0  0  0  0
   14.1483   -2.4523    0.0000 C   0  0  0  0  0  0  0  0  0  0  0  0
   11.3186   -2.4523    0.0000 C   0  0  0  0  0  0  0  0  0  0  0  0
   10.6112   -1.2262    0.0000 C   0  0  0  0  0  0  0  0  0  0  0  0
    9.9038   -1.6506    0.0000 C   0  0  0  0  0  0  0  0  0  0  0  0
   12.6863    0.0000    0.0000 C   0  0  0  0  0  0  0  0  0  0  0  0
    9.1964   -1.2262    0.0000 C   0  0  0  0  0  0  0  0  0  0  0  0
    8.4890   -1.6506    0.0000 C   0  0  0  0  0  0  0  0  0  0  0  0
    7.7816   -1.2262    0.0000 C   0  0  0  0  0  0  0  0  0  0  0  0
    7.0741   -1.6506    0.0000 C   0  0  0  0  0  0  0  0  0  0  0  0
    6.3667   -1.2262    0.0000 C   0  0  0  0  0  0  0  0  0  0  0  0
    5.6593   -1.6506    0.0000 C   0  0  0  0  0  0  0  0  0  0  0  0
    4.9519   -1.2262    0.0000 C   0  0  0  0  0  0  0  0  0  0  0  0
    4.2445   -1.6506    0.0000 C   0  0  0  0  0  0  0  0  0  0  0  0
    3.5371   -1.2262    0.0000 C   0  0  0  0  0  0  0  0  0  0  0  0
    2.8296   -1.6506    0.0000 C   0  0  0  0  0  0  0  0  0  0  0  0
    2.1222   -1.2262    0.0000 C   0  0  0  0  0  0  0  0  0  0  0  0
    1.4149   -1.6506    0.0000 C   0  0  0  0  0  0  0  0  0  0  0  0
    0.7074   -1.2262    0.0000 C   0  0  0  0  0  0  0  0  0  0  0  0
  1  8  1  0  0  0  0
  2  7  1  0  0  0  0
  2 16  1  0  0  0  0
  3 29  1  0  0  0  0
  4  5  2  0  0  0  0
  4  9  1  0  0  0  0
  5  6  1  0  0  0  0
  5  7  1  0  0  0  0
  6  8  1  0  0  0  0
  6 10  2  0  0  0  0
  7 11  2  0  0  0  0
  8 12  2  0  0  0  0
  9 13  2  0  0  0  0
  9 14  1  0  0  0  0
 10 13  1  0  0  0  0
 11 12  1  0  0  0  0
 14 15  1  0  0  0  0
 15 17  1  0  0  0  0
 17 18  1  0  0  0  0
 18 19  1  0  0  0  0
 19 20  1  0  0  0  0
 20 21  1  0  0  0  0
 21 22  1  0  0  0  0
 22 23  1  0  0  0  0
 23 24  1  0  0  0  0
 24 25  1  0  0  0  0
 25 26  1  0  0  0  0
 26 27  1  0  0  0  0
 27 28  1  0  0  0  0
 28 29  1  0  0  0  0
M  END
> <PUBCHEM_COMPOUND_ID_TYPE>
0

> <PUBCHEM_TOTAL_CHARGE>
0

> <PUBCHEM_SUBSTANCE_ID>
310929395

> <PUBCHEM_SUBSTANCE_VERSION>
1

> <PUBCHEM_EXT_DATASOURCE_NAME>
4488

> <PUBCHEM_EXT_DATASOURCE_REGID>
SCHEMBL16106568

> <PUBCHEM_SUBSTANCE_COMMENT>
InChI=1S/C25H38ClNO2/c1-29-24-19-18-23(26)22-17-16-21(27-25(22)24)15-13-11-9-7-5-3-2-4-6-8-10-12-14-20-28/h16-19,28H,2-15,20H2,1H3
InChIKey=IGGQJLUPHZIQOL-UHFFFAOYSA-N

> <PUBCHEM_SUBSTANCE_SYNONYM>
SCHEMBL16106568

> <PUBCHEM_XREF_EXT_ID>
SCHEMBL16106568

> <PUBCHEM_EXT_DATASOURCE_URL>
https://www.surechembl.org/

> <PUBCHEM_EXT_SUBSTANCE_URL>
https://www.surechembl.org/chemical/SCHEMBL16106568

> <PUBCHEM_CID_ASSOCIATIONS>
85471783  1

> <PUBCHEM_COORDINATE_TYPE>
1
3

$$$$
