310940641
  -OEChem-07211613022D

 35 39  0     0  0  0  0  0  0999 V2000
    1.6072   -0.2586    0.0000 O   0  0  0  0  0  0  0  0  0  0  0  0
   -2.5994   -0.3983    0.0000 O   0  0  0  0  0  0  0  0  0  0  0  0
    1.6910    1.2229    0.0000 O   0  0  0  0  0  0  0  0  0  0  0  0
    2.4456   -1.6281    0.0000 O   0  0  0  0  0  0  0  0  0  0  0  0
   -3.9131   -2.4806    0.0000 O   0  0  0  0  0  0  0  0  0  0  0  0
    1.7189   -2.8719    0.0000 O   0  0  0  0  0  0  0  0  0  0  0  0
    0.4612    0.4263    0.0000 N   0  0  0  0  0  0  0  0  0  0  0  0
    0.2795   -2.0473    0.0000 N   0  0  0  0  0  0  0  0  0  0  0  0
   -3.4379   -3.1514    0.0000 N   0  0  0  0  0  0  0  0  0  0  0  0
    0.2795   -0.4402    0.0000 C   0  0  0  0  0  0  0  0  0  0  0  0
   -0.4192   -0.8455    0.0000 C   0  0  0  0  0  0  0  0  0  0  0  0
    1.0202   -0.8455    0.0000 C   0  0  0  0  0  0  0  0  0  0  0  0
   -0.4332   -1.6561    0.0000 C   0  0  0  0  0  0  0  0  0  0  0  0
    1.0202   -1.6701    0.0000 C   0  0  0  0  0  0  0  0  0  0  0  0
    1.2857    0.4402    0.0000 C   0  0  0  0  0  0  0  0  0  0  0  0
   -1.8727   -1.6701    0.0000 C   0  0  0  0  0  0  0  0  0  0  0  0
   -1.1320   -0.4542    0.0000 C   0  0  0  0  0  0  0  0  0  0  0  0
   -1.8587   -0.8455    0.0000 C   0  0  0  0  0  0  0  0  0  0  0  0
   -1.1460   -2.0753    0.0000 C   0  0  0  0  0  0  0  0  0  0  0  0
   -2.5854   -2.0893    0.0000 C   0  0  0  0  0  0  0  0  0  0  0  0
    1.7329   -2.0613    0.0000 C   0  0  0  0  0  0  0  0  0  0  0  0
   -0.0978    0.9573    0.0000 C   0  0  0  0  0  0  0  0  0  0  0  0
   -3.3960   -1.8238    0.0000 C   0  0  0  0  0  0  0  0  0  0  0  0
   -2.5994   -2.9278    0.0000 C   0  0  0  0  0  0  0  0  0  0  0  0
    0.1118    1.7818    0.0000 C   0  0  0  0  0  0  0  0  0  0  0  0
   -0.4612    2.3408    0.0000 C   0  0  0  0  0  0  0  0  0  0  0  0
    0.9084    1.9915    0.0000 C   0  0  0  0  0  0  0  0  0  0  0  0
   -3.5916   -1.0272    0.0000 C   0  0  0  0  0  0  0  0  0  0  0  0
   -1.8587   -3.3471    0.0000 C   0  0  0  0  0  0  0  0  0  0  0  0
   -3.3121   -0.8315    0.0000 C   0  0  0  0  0  0  0  0  0  0  0  0
    3.2003   -2.0753    0.0000 C   0  0  0  0  0  0  0  0  0  0  0  0
   -0.2515    3.1514    0.0000 C   0  0  0  0  0  0  0  0  0  0  0  0
    1.1180    2.7881    0.0000 C   0  0  0  0  0  0  0  0  0  0  0  0
    0.5450    3.3471    0.0000 C   0  0  0  0  0  0  0  0  0  0  0  0
    3.9131   -1.6561    0.0000 C   0  0  0  0  0  0  0  0  0  0  0  0
  1 12  1  0  0  0  0
  1 15  1  0  0  0  0
  2 18  1  0  0  0  0
  2 30  1  0  0  0  0
  3 15  2  0  0  0  0
  4 21  1  0  0  0  0
  4 31  1  0  0  0  0
  5  9  1  0  0  0  0
  5 23  1  0  0  0  0
  6 21  2  0  0  0  0
  7 10  1  0  0  0  0
  7 15  1  0  0  0  0
  7 22  1  0  0  0  0
  8 13  1  0  0  0  0
  8 14  2  0  0  0  0
  9 24  2  0  0  0  0
 10 11  1  0  0  0  0
 10 12  2  0  0  0  0
 11 13  2  0  0  0  0
 11 17  1  0  0  0  0
 12 14  1  0  0  0  0
 13 19  1  0  0  0  0
 14 21  1  0  0  0  0
 16 18  1  0  0  0  0
 16 19  2  0  0  0  0
 16 20  1  0  0  0  0
 17 18  2  0  0  0  0
 20 23  2  0  0  0  0
 20 24  1  0  0  0  0
 22 25  1  0  0  0  0
 23 28  1  0  0  0  0
 24 29  1  0  0  0  0
 25 26  2  0  0  0  0
 25 27  1  0  0  0  0
 26 32  1  0  0  0  0
 27 33  2  0  0  0  0
 31 35  1  0  0  0  0
 32 34  2  0  0  0  0
 33 34  1  0  0  0  0
M  END
> <PUBCHEM_COMPOUND_ID_TYPE>
0

> <PUBCHEM_TOTAL_CHARGE>
0

> <PUBCHEM_SUBSTANCE_ID>
310940641

> <PUBCHEM_SUBSTANCE_VERSION>
1

> <PUBCHEM_EXT_DATASOURCE_NAME>
4488

> <PUBCHEM_EXT_DATASOURCE_REGID>
SCHEMBL16118596

> <PUBCHEM_SUBSTANCE_COMMENT>
InChI=1S/C26H23N3O6/c1-5-33-25(30)22-24-23(29(26(31)34-24)13-16-9-7-6-8-10-16)17-12-20(32-4)18(11-19(17)27-22)21-14(2)28-35-15(21)3/h6-12H,5,13H2,1-4H3
InChIKey=KAKQSWGOTOOIBD-UHFFFAOYSA-N

> <PUBCHEM_SUBSTANCE_SYNONYM>
SCHEMBL16118596

> <PUBCHEM_XREF_EXT_ID>
SCHEMBL16118596

> <PUBCHEM_EXT_DATASOURCE_URL>
https://www.surechembl.org/

> <PUBCHEM_EXT_SUBSTANCE_URL>
https://www.surechembl.org/chemical/SCHEMBL16118596

> <PUBCHEM_CID_ASSOCIATIONS>
85470947  1

> <PUBCHEM_COORDINATE_TYPE>
1
3

$$$$
