310939520
  -OEChem-07211613022D

 65 71  0     1  0  0  0  0  0999 V2000
    4.9698   -6.4923    0.0000 S   0  0  0  0  0  0  0  0  0  0  0  0
   -1.6815   -3.2219    0.0000 O   0  0  0  0  0  0  0  0  0  0  0  0
   -5.9194   -4.9589    0.0000 O   0  0  0  0  0  0  0  0  0  0  0  0
   -0.5545   -3.5238    0.0000 O   0  0  0  0  0  0  0  0  0  0  0  0
   -1.1500   -1.0150    0.0000 O   0  0  0  0  0  0  0  0  0  0  0  0
   -0.0315   -4.6508    0.0000 O   0  0  0  0  0  0  0  0  0  0  0  0
   -5.9194   -6.6089    0.0000 O   0  0  0  0  0  0  0  0  0  0  0  0
   -7.3484   -6.6089    0.0000 O   0  0  0  0  0  0  0  0  0  0  0  0
   -0.0315   -6.0798    0.0000 N   0  0  0  0  0  0  0  0  0  0  0  0
    4.9698   -7.3173    0.0000 C   0  0  0  0  0  0  0  0  0  0  0  0
   -3.7760   -2.8094    0.0000 C   0  0  3  0  0  0  0  0  0  0  0  0
   -3.7760   -3.6344    0.0000 C   0  0  3  0  0  0  0  0  0  0  0  0
   -2.9914   -2.5544    0.0000 C   0  0  3  0  0  0  0  0  0  0  0  0
   -2.5065   -3.2219    0.0000 C   0  0  3  0  0  0  0  0  0  0  0  0
   -5.2050   -3.6344    0.0000 C   0  0  0  0  0  0  0  0  0  0  0  0
   -5.2050   -2.8094    0.0000 C   0  0  0  0  0  0  0  0  0  0  0  0
   -2.9914   -3.8893    0.0000 C   0  0  0  0  0  0  0  0  0  0  0  0
   -4.4905   -2.3969    0.0000 C   0  0  0  0  0  0  0  0  0  0  0  0
   -4.4905   -4.0469    0.0000 C   0  0  0  0  0  0  0  0  0  0  0  0
    4.1448   -7.3173    0.0000 C   0  0  0  0  0  0  0  0  0  0  0  0
    5.7948   -7.3173    0.0000 C   0  0  0  0  0  0  0  0  0  0  0  0
    4.9698   -8.1423    0.0000 C   0  0  0  0  0  0  0  0  0  0  0  0
   -5.9194   -4.0469    0.0000 C   0  0  0  0  0  0  0  0  0  0  0  0
   -2.5789   -1.8400    0.0000 C   0  0  0  0  0  0  0  0  0  0  0  0
   -5.9194   -2.3969    0.0000 C   0  0  0  0  0  0  0  0  0  0  0  0
   -1.2690   -3.9363    0.0000 C   0  0  0  0  0  0  0  0  0  0  0  0
    4.2553   -8.5548    0.0000 C   0  0  0  0  0  0  0  0  0  0  0  0
    3.7323   -6.6028    0.0000 C   0  0  0  0  0  0  0  0  0  0  0  0
    6.2073   -8.0317    0.0000 C   0  0  0  0  0  0  0  0  0  0  0  0
    5.6843   -8.5548    0.0000 C   0  0  0  0  0  0  0  0  0  0  0  0
    3.7323   -8.0317    0.0000 C   0  0  0  0  0  0  0  0  0  0  0  0
    6.2073   -6.6028    0.0000 C   0  0  0  0  0  0  0  0  0  0  0  0
   -6.6339   -3.6344    0.0000 C   0  0  0  0  0  0  0  0  0  0  0  0
   -6.6339   -2.8094    0.0000 C   0  0  0  0  0  0  0  0  0  0  0  0
   -1.6815   -4.6508    0.0000 C   0  0  3  0  0  0  0  0  0  0  0  0
    4.2553   -6.0798    0.0000 C   0  0  0  0  0  0  0  0  0  0  0  0
   -1.8644   -2.2525    0.0000 C   0  0  0  0  0  0  0  0  0  0  0  0
   -1.2690   -5.3653    0.0000 C   0  0  3  0  0  0  0  0  0  0  0  0
    4.2553   -9.3798    0.0000 C   0  0  0  0  0  0  0  0  0  0  0  0
    2.9073   -6.6028    0.0000 C   0  0  0  0  0  0  0  0  0  0  0  0
    7.0323   -8.0317    0.0000 C   0  0  0  0  0  0  0  0  0  0  0  0
    5.6843   -9.3798    0.0000 C   0  0  0  0  0  0  0  0  0  0  0  0
    2.9073   -8.0317    0.0000 C   0  0  0  0  0  0  0  0  0  0  0  0
    7.0323   -6.6028    0.0000 C   0  0  0  0  0  0  0  0  0  0  0  0
    4.9698   -9.7923    0.0000 C   0  0  0  0  0  0  0  0  0  0  0  0
    2.4948   -7.3173    0.0000 C   0  0  0  0  0  0  0  0  0  0  0  0
    7.4448   -7.3173    0.0000 C   0  0  0  0  0  0  0  0  0  0  0  0
   -2.5065   -4.6508    0.0000 C   0  0  0  0  0  0  0  0  0  0  0  0
   -1.1500   -1.8400    0.0000 C   0  0  3  0  0  0  0  0  0  0  0  0
   -6.6339   -5.3714    0.0000 C   0  0  0  0  0  0  0  0  0  0  0  0
   -0.4440   -5.3653    0.0000 C   0  0  0  0  0  0  0  0  0  0  0  0
    3.5409   -6.4923    0.0000 C   0  0  0  0  0  0  0  0  0  0  0  0
   -1.6815   -6.0798    0.0000 C   0  0  0  0  0  0  0  0  0  0  0  0
   -2.9190   -5.3653    0.0000 C   0  0  0  0  0  0  0  0  0  0  0  0
   -2.5065   -6.0798    0.0000 C   0  0  0  0  0  0  0  0  0  0  0  0
   -6.6339   -6.1964    0.0000 C   0  0  0  0  0  0  0  0  0  0  0  0
   -0.4355   -2.2525    0.0000 C   0  0  0  0  0  0  0  0  0  0  0  0
    2.8264   -6.0798    0.0000 C   0  0  0  0  0  0  0  0  0  0  0  0
    0.6830   -6.4923    0.0000 C   0  0  0  0  0  0  0  0  0  0  0  0
    2.1119   -6.4923    0.0000 C   0  0  0  0  0  0  0  0  0  0  0  0
    0.2790   -1.8400    0.0000 C   0  0  0  0  0  0  0  0  0  0  0  0
    1.3975   -6.0798    0.0000 C   0  0  0  0  0  0  0  0  0  0  0  0
    0.9934   -2.2525    0.0000 C   0  0  0  0  0  0  0  0  0  0  0  0
    1.7079   -1.8400    0.0000 C   0  0  0  0  0  0  0  0  0  0  0  0
    2.4224   -2.2525    0.0000 C   0  0  0  0  0  0  0  0  0  0  0  0
  1 10  1  0  0  0  0
  1 36  1  0  0  0  0
 14  2  1  6  0  0  0
  2 26  1  0  0  0  0
  3 23  1  0  0  0  0
  3 50  1  0  0  0  0
  4 26  2  0  0  0  0
 49  5  1  1  0  0  0
  6 51  2  0  0  0  0
  7 56  2  0  0  0  0
  8 56  1  0  0  0  0
  9 51  1  0  0  0  0
  9 59  1  0  0  0  0
 10 20  1  0  0  0  0
 10 21  1  0  0  0  0
 10 22  1  0  0  0  0
 11 12  1  0  0  0  0
 11 13  1  0  0  0  0
 11 18  1  6  0  0  0
 12 17  1  6  0  0  0
 12 19  1  0  0  0  0
 13 14  1  0  0  0  0
 13 24  1  1  0  0  0
 14 17  1  0  0  0  0
 15 16  2  0  0  0  0
 15 19  1  0  0  0  0
 15 23  1  0  0  0  0
 16 18  1  0  0  0  0
 16 25  1  0  0  0  0
 20 28  2  0  0  0  0
 20 31  1  0  0  0  0
 21 29  2  0  0  0  0
 21 32  1  0  0  0  0
 22 27  2  0  0  0  0
 22 30  1  0  0  0  0
 23 33  2  0  0  0  0
 24 37  1  0  0  0  0
 25 34  2  0  0  0  0
 35 26  1  1  0  0  0
 27 39  1  0  0  0  0
 28 40  1  0  0  0  0
 29 41  1  0  0  0  0
 30 42  2  0  0  0  0
 31 43  2  0  0  0  0
 32 44  2  0  0  0  0
 33 34  1  0  0  0  0
 35 38  1  0  0  0  0
 35 48  1  0  0  0  0
 36 52  1  0  0  0  0
 37 49  1  0  0  0  0
 38 51  1  1  0  0  0
 38 53  1  0  0  0  0
 39 45  2  0  0  0  0
 40 46  2  0  0  0  0
 41 47  2  0  0  0  0
 42 45  1  0  0  0  0
 43 46  1  0  0  0  0
 44 47  1  0  0  0  0
 48 54  1  0  0  0  0
 49 57  1  0  0  0  0
 50 56  1  0  0  0  0
 52 58  1  0  0  0  0
 53 55  1  0  0  0  0
 54 55  1  0  0  0  0
 57 61  1  0  0  0  0
 58 60  1  0  0  0  0
 59 62  1  0  0  0  0
 60 62  1  0  0  0  0
 61 63  1  0  0  0  0
 63 64  1  0  0  0  0
 64 65  1  0  0  0  0
M  END
> <PUBCHEM_COMPOUND_ID_TYPE>
0

> <PUBCHEM_TOTAL_CHARGE>
0

> <PUBCHEM_SUBSTANCE_ID>
310939520

> <PUBCHEM_SUBSTANCE_VERSION>
1

> <PUBCHEM_EXT_DATASOURCE_NAME>
4488

> <PUBCHEM_EXT_DATASOURCE_REGID>
SCHEMBL16117449

> <PUBCHEM_SUBSTANCE_COMMENT>
InChI=1S/C56H71NO7S/c1-2-3-9-28-45(58)32-33-46-49-36-40-21-20-31-51(63-39-53(59)60)50(40)37-41(49)38-52(46)64-55(62)48-30-17-16-29-47(48)54(61)57-34-18-4-5-19-35-65-56(42-22-10-6-11-23-42,43-24-12-7-13-25-43)44-26-14-8-15-27-44/h6-8,10-15,20-27,31,41,45-49,52,58H,2-5,9,16-19,28-30,32-39H2,1H3,(H,57,61)(H,59,60)/t41-,45-,46+,47-,48+,49-,52+/m0/s1
InChIKey=PSKSOWPNAFKRRO-WIPCXMEZSA-N

> <PUBCHEM_SUBSTANCE_SYNONYM>
SCHEMBL16117449

> <PUBCHEM_XREF_EXT_ID>
SCHEMBL16117449

> <PUBCHEM_EXT_DATASOURCE_URL>
https://www.surechembl.org/

> <PUBCHEM_EXT_SUBSTANCE_URL>
https://www.surechembl.org/chemical/SCHEMBL16117449

> <PUBCHEM_CID_ASSOCIATIONS>
117606816  1

> <PUBCHEM_COORDINATE_TYPE>
1
3

> <PUBCHEM_BONDANNOTATIONS>
11  18  6
12  17  6
13  24  5
14  2  6
35  26  5
38  51  5
49  5  5

$$$$
