310943370
  -OEChem-07211613022D

 36 39  0     1  0  0  0  0  0999 V2000
    4.9196    1.3911    0.0000 F   0  0  0  0  0  0  0  0  0  0  0  0
    5.6295    0.9854    0.0000 F   0  0  0  0  0  0  0  0  0  0  0  0
   -2.1084   -1.8982    0.0000 O   0  0  0  0  0  0  0  0  0  0  0  0
   -4.9485    1.4780    0.0000 O   0  0  0  0  0  0  0  0  0  0  0  0
    2.0939    1.3911    0.0000 O   0  0  0  0  0  0  0  0  0  0  0  0
   -5.6585   -0.5796    0.0000 O   0  0  0  0  0  0  0  0  0  0  0  0
   -2.8184   -0.6665    0.0000 N   0  0  0  0  0  0  0  0  0  0  0  0
   -3.5284    0.6520    0.0000 N   0  0  3  0  0  0  0  0  0  0  0  0
   -0.0362    1.8113    0.0000 N   0  0  0  0  0  0  0  0  0  0  0  0
    1.3838    0.1594    0.0000 N   0  0  0  0  0  0  0  0  0  0  0  0
    4.2095   -0.6665    0.0000 N   0  0  0  0  0  0  0  0  0  0  0  0
   -1.3838    0.1594    0.0000 C   0  0  0  0  0  0  0  0  0  0  0  0
   -2.8039    0.1594    0.0000 C   0  0  0  0  0  0  0  0  0  0  0  0
   -0.7608    0.5796    0.0000 C   0  0  0  0  0  0  0  0  0  0  0  0
   -2.1084    0.5651    0.0000 C   0  0  0  0  0  0  0  0  0  0  0  0
   -2.1084   -1.0433    0.0000 C   0  0  0  0  0  0  0  0  0  0  0  0
   -1.3983   -0.6665    0.0000 C   0  0  0  0  0  0  0  0  0  0  0  0
   -0.7463    1.4056    0.0000 C   0  0  0  0  0  0  0  0  0  0  0  0
   -0.0217    0.1739    0.0000 C   0  0  0  0  0  0  0  0  0  0  0  0
    0.6593    0.5796    0.0000 C   0  0  0  0  0  0  0  0  0  0  0  0
   -4.2529    0.2608    0.0000 C   0  0  0  0  0  0  0  0  0  0  0  0
    2.8039    0.1594    0.0000 C   0  0  0  0  0  0  0  0  0  0  0  0
    2.0794    0.5651    0.0000 C   0  0  0  0  0  0  0  0  0  0  0  0
   -3.5284    1.4780    0.0000 C   0  0  0  0  0  0  0  0  0  0  0  0
    4.2240    0.1739    0.0000 C   0  0  0  0  0  0  0  0  0  0  0  0
    0.6737    1.3911    0.0000 C   0  0  0  0  0  0  0  0  0  0  0  0
   -4.9630    0.6665    0.0000 C   0  0  3  0  0  0  0  0  0  0  0  0
    4.9340    0.5796    0.0000 C   0  0  0  0  0  0  0  0  0  0  0  0
    3.4850    0.5651    0.0000 C   0  0  0  0  0  0  0  0  0  0  0  0
   -3.5430   -1.0723    0.0000 C   0  0  0  0  0  0  0  0  0  0  0  0
   -4.2385    1.8982    0.0000 C   0  0  0  0  0  0  0  0  0  0  0  0
    2.8039   -0.6665    0.0000 C   0  0  0  0  0  0  0  0  0  0  0  0
   -1.4708    1.8113    0.0000 C   0  0  0  0  0  0  0  0  0  0  0  0
    3.5284   -1.0578    0.0000 C   0  0  0  0  0  0  0  0  0  0  0  0
   -5.6440    0.2463    0.0000 C   0  0  0  0  0  0  0  0  0  0  0  0
    5.6585    0.1594    0.0000 C   0  0  0  0  0  0  0  0  0  0  0  0
  1 28  1  0  0  0  0
  2 28  1  0  0  0  0
  3 16  2  0  0  0  0
  4 27  1  0  0  0  0
  4 31  1  0  0  0  0
  5 23  2  0  0  0  0
  6 35  1  0  0  0  0
  7 13  1  0  0  0  0
  7 16  1  0  0  0  0
  7 30  1  0  0  0  0
  8 13  1  0  0  0  0
  8 21  1  0  0  0  0
  8 24  1  0  0  0  0
  9 18  2  0  0  0  0
  9 26  1  0  0  0  0
 10 20  1  0  0  0  0
 10 23  1  0  0  0  0
 11 25  1  0  0  0  0
 11 34  2  0  0  0  0
 12 14  1  0  0  0  0
 12 15  1  0  0  0  0
 12 17  2  0  0  0  0
 13 15  2  0  0  0  0
 14 18  1  0  0  0  0
 14 19  2  0  0  0  0
 16 17  1  0  0  0  0
 18 33  1  0  0  0  0
 19 20  1  0  0  0  0
 20 26  2  0  0  0  0
 21 27  1  0  0  0  0
 22 23  1  0  0  0  0
 22 29  1  0  0  0  0
 22 32  2  0  0  0  0
 24 31  1  0  0  0  0
 25 28  1  0  0  0  0
 25 29  2  0  0  0  0
 27 35  1  1  0  0  0
 28 36  1  0  0  0  0
 32 34  1  0  0  0  0
M  END
> <PUBCHEM_COMPOUND_ID_TYPE>
0

> <PUBCHEM_TOTAL_CHARGE>
0

> <PUBCHEM_SUBSTANCE_ID>
310943370

> <PUBCHEM_SUBSTANCE_VERSION>
1

> <PUBCHEM_EXT_DATASOURCE_NAME>
4488

> <PUBCHEM_EXT_DATASOURCE_REGID>
SCHEMBL16121433

> <PUBCHEM_SUBSTANCE_COMMENT>
InChI=1S/C25H27F2N5O4/c1-15-20(17-9-22(31(3)23(34)10-17)32-6-7-36-19(13-32)14-33)11-18(12-29-15)30-24(35)16-4-5-28-21(8-16)25(2,26)27/h4-5,8-12,19,33H,6-7,13-14H2,1-3H3,(H,30,35)/t19-/m0/s1
InChIKey=KEKHHBANOLAJDA-IBGZPJMESA-N

> <PUBCHEM_SUBSTANCE_SYNONYM>
SCHEMBL16121433

> <PUBCHEM_XREF_EXT_ID>
SCHEMBL16121433

> <PUBCHEM_EXT_DATASOURCE_URL>
https://www.surechembl.org/

> <PUBCHEM_EXT_SUBSTANCE_URL>
https://www.surechembl.org/chemical/SCHEMBL16121433

> <PUBCHEM_CID_ASSOCIATIONS>
117609794  1

> <PUBCHEM_COORDINATE_TYPE>
1
3

> <PUBCHEM_BONDANNOTATIONS>
27  35  5

$$$$
