310944106
  -OEChem-07211613022D

 34 38  0     1  0  0  0  0  0999 V2000
    2.3681    0.1711    0.0000 O   0  0  0  0  0  0  0  0  0  0  0  0
    5.2938    0.4692    0.0000 O   0  0  0  0  0  0  0  0  0  0  0  0
    4.9405    1.7499    0.0000 O   0  0  0  0  0  0  0  0  0  0  0  0
   -0.6017   -1.6616    0.0000 O   0  0  0  0  0  0  0  0  0  0  0  0
    3.4501   -0.5906    0.0000 N   0  0  0  0  0  0  0  0  0  0  0  0
    0.6348   -0.6680    0.0000 N   0  0  0  0  0  0  0  0  0  0  0  0
   -3.9579   -0.0938    0.0000 N   0  0  0  0  0  0  0  0  0  0  0  0
   -4.2339    0.6789    0.0000 N   0  0  0  0  0  0  0  0  0  0  0  0
   -5.0619    0.6569    0.0000 N   0  0  0  0  0  0  0  0  0  0  0  0
   -5.2938   -0.1490    0.0000 N   0  0  0  0  0  0  0  0  0  0  0  0
   -2.9201    1.7057    0.0000 N   0  0  0  0  0  0  0  0  0  0  0  0
    2.2467   -1.1206    0.0000 C   0  0  0  0  0  0  0  0  0  0  0  0
    2.6442   -0.4250    0.0000 C   0  0  0  0  0  0  0  0  0  0  0  0
    4.0683    0.0055    0.0000 C   0  0  0  0  0  0  0  0  0  0  0  0
    2.8208   -1.7499    0.0000 C   0  0  0  0  0  0  0  0  0  0  0  0
    3.5605   -1.3966    0.0000 C   0  0  0  0  0  0  0  0  0  0  0  0
    1.6505   -1.6947    0.0000 C   0  0  0  0  0  0  0  0  0  0  0  0
    2.0590   -0.3367    0.0000 C   0  0  0  0  0  0  0  0  0  0  0  0
    4.0021    0.8225    0.0000 C   0  0  0  0  0  0  0  0  0  0  0  0
    4.8522   -0.2263    0.0000 C   0  0  0  0  0  0  0  0  0  0  0  0
    4.7638    1.0985    0.0000 C   0  0  0  0  0  0  0  0  0  0  0  0
    0.8225   -1.4518    0.0000 C   0  0  0  0  0  0  0  0  0  0  0  0
    1.2531   -0.0828    0.0000 C   0  0  0  0  0  0  0  0  0  0  0  0
   -0.1711   -0.4361    0.0000 C   0  0  0  0  0  0  0  0  0  0  0  0
   -3.1630   -0.3146    0.0000 C   0  0  0  0  0  0  0  0  0  0  0  0
   -1.5732   -0.7783    0.0000 C   0  0  0  0  0  0  0  0  0  0  0  0
   -0.7673   -1.0102    0.0000 C   0  0  3  0  0  0  0  0  0  0  0  0
   -2.5669    0.2815    0.0000 C   0  0  0  0  0  0  0  0  0  0  0  0
    3.4280    1.1868    0.0000 C   0  0  0  0  0  0  0  0  0  0  0  0
   -1.7610    0.0276    0.0000 C   0  0  0  0  0  0  0  0  0  0  0  0
   -2.9532   -1.1206    0.0000 C   0  0  0  0  0  0  0  0  0  0  0  0
   -2.1583   -1.3414    0.0000 C   0  0  0  0  0  0  0  0  0  0  0  0
   -4.5982   -0.6017    0.0000 C   0  0  0  0  0  0  0  0  0  0  0  0
   -2.7435    1.0543    0.0000 C   0  0  0  0  0  0  0  0  0  0  0  0
  1 13  2  0  0  0  0
  2 20  1  0  0  0  0
  2 21  1  0  0  0  0
  3 21  2  0  0  0  0
 27  4  1  1  0  0  0
  5 13  1  0  0  0  0
  5 14  1  0  0  0  0
  5 16  1  0  0  0  0
  6 22  1  0  0  0  0
  6 23  1  0  0  0  0
  6 24  1  0  0  0  0
  7  8  1  0  0  0  0
  7 25  1  0  0  0  0
  7 33  1  0  0  0  0
  8  9  2  0  0  0  0
  9 10  1  0  0  0  0
 10 33  2  0  0  0  0
 11 34  3  0  0  0  0
 12 13  1  0  0  0  0
 12 15  1  0  0  0  0
 12 17  1  0  0  0  0
 12 18  1  0  0  0  0
 14 19  2  0  0  0  0
 14 20  1  0  0  0  0
 15 16  1  0  0  0  0
 17 22  1  0  0  0  0
 18 23  1  0  0  0  0
 19 21  1  0  0  0  0
 19 29  1  0  0  0  0
 24 27  1  0  0  0  0
 25 28  1  0  0  0  0
 25 31  2  0  0  0  0
 26 27  1  0  0  0  0
 26 30  1  0  0  0  0
 26 32  2  0  0  0  0
 28 30  2  0  0  0  0
 28 34  1  0  0  0  0
 31 32  1  0  0  0  0
M  END
> <PUBCHEM_COMPOUND_ID_TYPE>
0

> <PUBCHEM_TOTAL_CHARGE>
0

> <PUBCHEM_SUBSTANCE_ID>
310944106

> <PUBCHEM_SUBSTANCE_VERSION>
1

> <PUBCHEM_EXT_DATASOURCE_NAME>
4488

> <PUBCHEM_EXT_DATASOURCE_REGID>
SCHEMBL16122181

> <PUBCHEM_SUBSTANCE_COMMENT>
InChI=1S/C23H25N7O4/c1-15-19(13-34-21(15)32)29-9-6-23(22(29)33)4-7-28(8-5-23)12-20(31)16-2-3-18(17(10-16)11-24)30-14-25-26-27-30/h2-3,10,14,20,31H,4-9,12-13H2,1H3/t20-/m1/s1
InChIKey=XGEFUSWOEGXJRO-HXUWFJFHSA-N

> <PUBCHEM_SUBSTANCE_SYNONYM>
SCHEMBL16122181

> <PUBCHEM_XREF_EXT_ID>
SCHEMBL16122181

> <PUBCHEM_EXT_DATASOURCE_URL>
https://www.surechembl.org/

> <PUBCHEM_EXT_SUBSTANCE_URL>
https://www.surechembl.org/chemical/SCHEMBL16122181

> <PUBCHEM_CID_ASSOCIATIONS>
86271632  1

> <PUBCHEM_COORDINATE_TYPE>
1
3

> <PUBCHEM_BONDANNOTATIONS>
27  4  5

$$$$
