310929804
  -OEChem-07211613022D

 23 26  0     0  0  0  0  0  0999 V2000
    1.1128   -2.7243    0.0000 F   0  0  0  0  0  0  0  0  0  0  0  0
    3.5301   -2.2639    0.0000 F   0  0  0  0  0  0  0  0  0  0  0  0
    2.2063   -0.1727    0.0000 N   0  0  0  0  0  0  0  0  0  0  0  0
    2.2063   -1.4965    0.0000 C   0  0  0  0  0  0  0  0  0  0  0  0
    2.7051   -0.8250    0.0000 C   0  0  0  0  0  0  0  0  0  0  0  0
    1.4197   -1.2663    0.0000 C   0  0  0  0  0  0  0  0  0  0  0  0
    1.4197   -0.4029    0.0000 C   0  0  0  0  0  0  0  0  0  0  0  0
    2.4557   -2.2639    0.0000 C   0  0  0  0  0  0  0  0  0  0  0  0
    3.5301   -0.8250    0.0000 C   0  0  0  0  0  0  0  0  0  0  0  0
    1.9186   -2.8970    0.0000 C   0  0  0  0  0  0  0  0  0  0  0  0
    0.6907   -1.6499    0.0000 C   0  0  0  0  0  0  0  0  0  0  0  0
    3.9522   -1.5349    0.0000 C   0  0  0  0  0  0  0  0  0  0  0  0
    0.6907    0.0000    0.0000 C   0  0  0  0  0  0  0  0  0  0  0  0
    3.2807   -2.4557    0.0000 C   0  0  0  0  0  0  0  0  0  0  0  0
    3.9522   -0.1151    0.0000 C   0  0  0  0  0  0  0  0  0  0  0  0
    0.0000   -1.2663    0.0000 C   0  0  0  0  0  0  0  0  0  0  0  0
    0.0000   -0.4029    0.0000 C   0  0  0  0  0  0  0  0  0  0  0  0
    2.1680   -3.6644    0.0000 C   0  0  0  0  0  0  0  0  0  0  0  0
    4.7580   -1.5349    0.0000 C   0  0  0  0  0  0  0  0  0  0  0  0
    3.5301   -3.2232    0.0000 C   0  0  0  0  0  0  0  0  0  0  0  0
    4.7580   -0.1151    0.0000 C   0  0  0  0  0  0  0  0  0  0  0  0
    2.9738   -3.8371    0.0000 C   0  0  0  0  0  0  0  0  0  0  0  0
    5.1801   -0.8250    0.0000 C   0  0  0  0  0  0  0  0  0  0  0  0
  1 10  1  0  0  0  0
  2 12  1  0  0  0  0
  3  5  1  0  0  0  0
  3  7  1  0  0  0  0
  4  5  2  0  0  0  0
  4  6  1  0  0  0  0
  4  8  1  0  0  0  0
  5  9  1  0  0  0  0
  6  7  2  0  0  0  0
  6 11  1  0  0  0  0
  7 13  1  0  0  0  0
  8 10  1  0  0  0  0
  8 14  2  0  0  0  0
  9 12  1  0  0  0  0
  9 15  2  0  0  0  0
 10 18  2  0  0  0  0
 11 16  2  0  0  0  0
 12 19  2  0  0  0  0
 13 17  2  0  0  0  0
 14 20  1  0  0  0  0
 15 21  1  0  0  0  0
 16 17  1  0  0  0  0
 18 22  1  0  0  0  0
 19 23  1  0  0  0  0
 20 22  2  0  0  0  0
 21 23  2  0  0  0  0
M  END
> <PUBCHEM_COMPOUND_ID_TYPE>
0

> <PUBCHEM_TOTAL_CHARGE>
0

> <PUBCHEM_SUBSTANCE_ID>
310929804

> <PUBCHEM_SUBSTANCE_VERSION>
1

> <PUBCHEM_EXT_DATASOURCE_NAME>
4488

> <PUBCHEM_EXT_DATASOURCE_REGID>
SCHEMBL16107007

> <PUBCHEM_SUBSTANCE_COMMENT>
InChI=1S/C20H13F2N/c21-16-10-4-1-7-13(16)19-15-9-3-6-12-18(15)23-20(19)14-8-2-5-11-17(14)22/h1-12,23H
InChIKey=PDUQUECCEOHDML-UHFFFAOYSA-N

> <PUBCHEM_SUBSTANCE_SYNONYM>
SCHEMBL16107007

> <PUBCHEM_XREF_EXT_ID>
SCHEMBL16107007

> <PUBCHEM_EXT_DATASOURCE_URL>
https://www.surechembl.org/

> <PUBCHEM_EXT_SUBSTANCE_URL>
https://www.surechembl.org/chemical/SCHEMBL16107007

> <PUBCHEM_CID_ASSOCIATIONS>
117599084  1

> <PUBCHEM_COORDINATE_TYPE>
1
3

$$$$
