310934625
  -OEChem-07211613022D

 22 24  0     0  0  0  0  0  0999 V2000
    4.1660   -3.1342    0.0000 Cl  0  0  0  0  0  0  0  0  0  0  0  0
    1.4990    0.0000    0.0000 O   0  0  0  0  0  0  0  0  0  0  0  0
    0.0000   -0.6813    0.0000 O   0  0  0  0  0  0  0  0  0  0  0  0
    2.0830   -2.1219    0.0000 N   0  0  0  0  0  0  0  0  0  0  0  0
    2.8617   -2.3750    0.0000 N   0  0  0  0  0  0  0  0  0  0  0  0
    0.6619   -1.1681    0.0000 N   0  0  0  0  0  0  0  0  0  0  0  0
    2.0830   -1.3043    0.0000 C   0  0  0  0  0  0  0  0  0  0  0  0
    3.3289   -1.7131    0.0000 C   0  0  0  0  0  0  0  0  0  0  0  0
    2.8617   -1.0318    0.0000 C   0  0  0  0  0  0  0  0  0  0  0  0
    4.1660   -1.7131    0.0000 C   0  0  0  0  0  0  0  0  0  0  0  0
    1.4017   -2.5892    0.0000 C   0  0  0  0  0  0  0  0  0  0  0  0
    1.4017   -0.8176    0.0000 C   0  0  0  0  0  0  0  0  0  0  0  0
    4.5748   -2.4140    0.0000 C   0  0  0  0  0  0  0  0  0  0  0  0
    4.5748   -0.9929    0.0000 C   0  0  0  0  0  0  0  0  0  0  0  0
    1.4990   -3.4263    0.0000 C   0  0  0  0  0  0  0  0  0  0  0  0
    0.6619   -2.2582    0.0000 C   0  0  0  0  0  0  0  0  0  0  0  0
    5.3925   -2.4140    0.0000 C   0  0  0  0  0  0  0  0  0  0  0  0
    5.3925   -0.9929    0.0000 C   0  0  0  0  0  0  0  0  0  0  0  0
    5.8013   -1.7131    0.0000 C   0  0  0  0  0  0  0  0  0  0  0  0
    0.8176   -3.8935    0.0000 C   0  0  0  0  0  0  0  0  0  0  0  0
    0.0000   -2.7449    0.0000 C   0  0  0  0  0  0  0  0  0  0  0  0
    0.0584   -3.5625    0.0000 C   0  0  0  0  0  0  0  0  0  0  0  0
  1 13  1  0  0  0  0
  2 12  2  0  0  0  0
  3  6  1  0  0  0  0
  4  5  1  0  0  0  0
  4  7  1  0  0  0  0
  4 11  1  0  0  0  0
  5  8  2  0  0  0  0
  6 12  1  0  0  0  0
  7  9  2  0  0  0  0
  7 12  1  0  0  0  0
  8  9  1  0  0  0  0
  8 10  1  0  0  0  0
 10 13  1  0  0  0  0
 10 14  2  0  0  0  0
 11 15  2  0  0  0  0
 11 16  1  0  0  0  0
 13 17  2  0  0  0  0
 14 18  1  0  0  0  0
 15 20  1  0  0  0  0
 16 21  2  0  0  0  0
 17 19  1  0  0  0  0
 18 19  2  0  0  0  0
 20 22  2  0  0  0  0
 21 22  1  0  0  0  0
M  END
> <PUBCHEM_COMPOUND_ID_TYPE>
0

> <PUBCHEM_TOTAL_CHARGE>
0

> <PUBCHEM_SUBSTANCE_ID>
310934625

> <PUBCHEM_SUBSTANCE_VERSION>
1

> <PUBCHEM_EXT_DATASOURCE_NAME>
4488

> <PUBCHEM_EXT_DATASOURCE_REGID>
SCHEMBL16112121

> <PUBCHEM_SUBSTANCE_COMMENT>
InChI=1S/C16H12ClN3O2/c17-13-9-5-4-8-12(13)14-10-15(16(21)19-22)20(18-14)11-6-2-1-3-7-11/h1-10,22H,(H,19,21)
InChIKey=VDXXZTKGQVPITG-UHFFFAOYSA-N

> <PUBCHEM_SUBSTANCE_SYNONYM>
SCHEMBL16112121

> <PUBCHEM_XREF_EXT_ID>
SCHEMBL16112121

> <PUBCHEM_EXT_DATASOURCE_URL>
https://www.surechembl.org/

> <PUBCHEM_EXT_SUBSTANCE_URL>
https://www.surechembl.org/chemical/SCHEMBL16112121

> <PUBCHEM_CID_ASSOCIATIONS>
86291640  1

> <PUBCHEM_COORDINATE_TYPE>
1
3

$$$$
