310947585
  -OEChem-07211613022D

 44 48  0     1  0  0  0  0  0999 V2000
   -1.0875   11.1054    0.0000 P   0  0  3  0  0  0  0  0  0  0  0  0
    0.7185    8.6531    0.0000 F   0  0  0  0  0  0  0  0  0  0  0  0
    1.5435   10.6371    0.0000 O   0  0  0  0  0  0  0  0  0  0  0  0
    2.3685    8.6531    0.0000 O   0  0  0  0  0  0  0  0  0  0  0  0
   -0.5041   10.5220    0.0000 O   0  0  0  0  0  0  0  0  0  0  0  0
   -1.6709   11.6888    0.0000 O   0  0  0  0  0  0  0  0  0  0  0  0
   -0.5041   11.6888    0.0000 O   0  0  0  0  0  0  0  0  0  0  0  0
   -2.3853    8.4595    0.0000 O   0  0  0  0  0  0  0  0  0  0  0  0
   -3.0998    9.6970    0.0000 O   0  0  0  0  0  0  0  0  0  0  0  0
    2.2110   10.9772    0.0000 N   0  0  0  0  0  0  0  0  0  0  0  0
    2.2110   12.3121    0.0000 N   0  0  0  0  0  0  0  0  0  0  0  0
    3.7101   10.8196    0.0000 N   0  0  0  0  0  0  0  0  0  0  0  0
   -1.6709   10.5220    0.0000 N   0  0  0  0  0  0  0  0  0  0  0  0
    3.7101   13.2946    0.0000 N   0  0  0  0  0  0  0  0  0  0  0  0
    1.9560    9.3676    0.0000 C   0  0  3  0  0  0  0  0  0  0  0  0
    2.2110   10.1522    0.0000 C   0  0  3  0  0  0  0  0  0  0  0  0
    1.1310    9.3676    0.0000 C   0  0  3  0  0  0  0  0  0  0  0  0
    0.8761   10.1522    0.0000 C   0  0  3  0  0  0  0  0  0  0  0  0
    2.9956   11.2321    0.0000 C   0  0  0  0  0  0  0  0  0  0  0  0
    2.9956   12.0571    0.0000 C   0  0  0  0  0  0  0  0  0  0  0  0
    1.7261   11.6446    0.0000 C   0  0  0  0  0  0  0  0  0  0  0  0
    0.2927   10.7356    0.0000 C   0  0  0  0  0  0  0  0  0  0  0  0
    2.7529    9.5811    0.0000 C   0  0  0  0  0  0  0  0  0  0  0  0
    3.7101   12.4696    0.0000 C   0  0  0  0  0  0  0  0  0  0  0  0
    4.4245   12.0571    0.0000 C   0  0  0  0  0  0  0  0  0  0  0  0
    4.4245   11.2321    0.0000 C   0  0  0  0  0  0  0  0  0  0  0  0
   -1.6709   12.5138    0.0000 C   0  0  0  0  0  0  0  0  0  0  0  0
   -2.3853   12.9263    0.0000 C   0  0  0  0  0  0  0  0  0  0  0  0
   -2.3853   13.7513    0.0000 C   0  0  0  0  0  0  0  0  0  0  0  0
   -1.6709    9.6970    0.0000 C   0  0  3  0  0  0  0  0  0  0  0  0
   -0.9564   12.9263    0.0000 C   0  0  0  0  0  0  0  0  0  0  0  0
   -3.0998   12.5138    0.0000 C   0  0  0  0  0  0  0  0  0  0  0  0
   -1.6709   14.1638    0.0000 C   0  0  0  0  0  0  0  0  0  0  0  0
   -0.9564   13.7513    0.0000 C   0  0  0  0  0  0  0  0  0  0  0  0
   -2.3853    9.2845    0.0000 C   0  0  0  0  0  0  0  0  0  0  0  0
   -3.0998   14.1638    0.0000 C   0  0  0  0  0  0  0  0  0  0  0  0
   -3.8143   12.9263    0.0000 C   0  0  0  0  0  0  0  0  0  0  0  0
   -3.8143   13.7513    0.0000 C   0  0  0  0  0  0  0  0  0  0  0  0
   -0.9564    9.2845    0.0000 C   0  0  0  0  0  0  0  0  0  0  0  0
   -3.0998    8.0470    0.0000 C   0  0  0  0  0  0  0  0  0  0  0  0
   -3.8143    8.4595    0.0000 C   0  0  0  0  0  0  0  0  0  0  0  0
   -3.8143    9.2845    0.0000 C   0  0  0  0  0  0  0  0  0  0  0  0
   -4.5288    8.0470    0.0000 C   0  0  0  0  0  0  0  0  0  0  0  0
   -4.5288    8.8720    0.0000 C   0  0  0  0  0  0  0  0  0  0  0  0
  1  5  1  0  0  0  0
  1  6  1  0  0  0  0
  1  7  2  0  0  0  0
  1 13  1  0  0  0  0
 17  2  1  6  0  0  0
 16  3  1  6  0  0  0
  3 18  1  0  0  0  0
 15  4  1  6  0  0  0
  5 22  1  0  0  0  0
  6 27  1  0  0  0  0
  8 35  1  0  0  0  0
  8 40  1  0  0  0  0
  9 35  2  0  0  0  0
 10 16  1  0  0  0  0
 10 19  1  0  0  0  0
 10 21  1  0  0  0  0
 11 20  1  0  0  0  0
 11 21  2  0  0  0  0
 12 19  1  0  0  0  0
 12 26  2  0  0  0  0
 13 30  1  0  0  0  0
 14 24  1  0  0  0  0
 15 16  1  0  0  0  0
 15 17  1  0  0  0  0
 15 23  1  1  0  0  0
 17 18  1  0  0  0  0
 18 22  1  1  0  0  0
 19 20  2  0  0  0  0
 20 24  1  0  0  0  0
 24 25  2  0  0  0  0
 25 26  1  0  0  0  0
 27 28  1  0  0  0  0
 27 31  2  0  0  0  0
 28 29  2  0  0  0  0
 28 32  1  0  0  0  0
 29 33  1  0  0  0  0
 29 36  1  0  0  0  0
 30 35  1  0  0  0  0
 30 39  1  1  0  0  0
 31 34  1  0  0  0  0
 32 37  2  0  0  0  0
 33 34  2  0  0  0  0
 36 38  2  0  0  0  0
 37 38  1  0  0  0  0
 40 41  1  0  0  0  0
 41 42  1  0  0  0  0
 41 43  1  0  0  0  0
 41 44  1  0  0  0  0
M  END
> <PUBCHEM_COMPOUND_ID_TYPE>
0

> <PUBCHEM_TOTAL_CHARGE>
0

> <PUBCHEM_SUBSTANCE_ID>
310947585

> <PUBCHEM_SUBSTANCE_VERSION>
1

> <PUBCHEM_EXT_DATASOURCE_NAME>
4488

> <PUBCHEM_EXT_DATASOURCE_REGID>
SCHEMBL16125748

> <PUBCHEM_SUBSTANCE_COMMENT>
InChI=1S/C30H37FN5O7P/c1-18(27(37)40-16-29(2,3)4)35-44(39,43-22-12-8-10-19-9-6-7-11-20(19)22)41-15-23-25(31)30(5,38)28(42-23)36-17-34-24-21(32)13-14-33-26(24)36/h6-14,17-18,23,25,28,38H,15-16H2,1-5H3,(H2,32,33)(H,35,39)/t18-,23+,25+,28+,30+,44?/m0/s1
InChIKey=HHUUZHPNRSAENM-WUNKSEFCSA-N

> <PUBCHEM_SUBSTANCE_SYNONYM>
SCHEMBL16125748

> <PUBCHEM_XREF_EXT_ID>
SCHEMBL16125748

> <PUBCHEM_EXT_DATASOURCE_URL>
https://www.surechembl.org/

> <PUBCHEM_EXT_SUBSTANCE_URL>
https://www.surechembl.org/chemical/SCHEMBL16125748

> <PUBCHEM_CID_ASSOCIATIONS>
117613307  1

> <PUBCHEM_COORDINATE_TYPE>
1
3

> <PUBCHEM_BONDANNOTATIONS>
15  23  5
18  22  5
17  2  6
16  3  6
30  39  5
15  4  6

$$$$
