310942314
  -OEChem-07211613022D

 28 30  0     0  0  0  0  0  0999 V2000
    2.2231    1.0665    0.0000 O   0  0  0  0  0  0  0  0  0  0  0  0
   -5.1073   -0.1953    0.0000 O   0  0  0  0  0  0  0  0  0  0  0  0
    2.9442   -0.1953    0.0000 N   0  0  0  0  0  0  0  0  0  0  0  0
   -2.8240   -0.1953    0.0000 N   0  0  0  0  0  0  0  0  0  0  0  0
    4.3863   -1.0365    0.0000 N   0  0  0  0  0  0  0  0  0  0  0  0
    1.5022   -0.1653    0.0000 C   0  0  0  0  0  0  0  0  0  0  0  0
    2.2231    0.2253    0.0000 C   0  0  0  0  0  0  0  0  0  0  0  0
    0.0300   -1.0064    0.0000 C   0  0  0  0  0  0  0  0  0  0  0  0
    3.6953    0.2253    0.0000 C   0  0  0  0  0  0  0  0  0  0  0  0
   -1.4120   -1.0064    0.0000 C   0  0  0  0  0  0  0  0  0  0  0  0
    0.7811    0.1953    0.0000 C   0  0  0  0  0  0  0  0  0  0  0  0
    1.4721   -1.0365    0.0000 C   0  0  0  0  0  0  0  0  0  0  0  0
   -0.6309   -1.4571    0.0000 C   0  0  0  0  0  0  0  0  0  0  0  0
    0.0901   -0.1953    0.0000 C   0  0  0  0  0  0  0  0  0  0  0  0
    0.8112   -1.4270    0.0000 C   0  0  0  0  0  0  0  0  0  0  0  0
    4.4163   -0.1953    0.0000 C   0  0  0  0  0  0  0  0  0  0  0  0
   -2.1030   -1.4571    0.0000 C   0  0  0  0  0  0  0  0  0  0  0  0
   -1.3820   -0.1953    0.0000 C   0  0  0  0  0  0  0  0  0  0  0  0
   -2.8240   -1.0365    0.0000 C   0  0  0  0  0  0  0  0  0  0  0  0
   -2.1030    0.2253    0.0000 C   0  0  0  0  0  0  0  0  0  0  0  0
   -3.5451    0.1953    0.0000 C   0  0  0  0  0  0  0  0  0  0  0  0
   -4.2661   -0.1953    0.0000 C   0  0  0  0  0  0  0  0  0  0  0  0
    3.6953    1.0665    0.0000 C   0  0  0  0  0  0  0  0  0  0  0  0
    5.1073    0.2253    0.0000 C   0  0  0  0  0  0  0  0  0  0  0  0
    4.3863    1.4571    0.0000 C   0  0  0  0  0  0  0  0  0  0  0  0
    5.1073    1.0665    0.0000 C   0  0  0  0  0  0  0  0  0  0  0  0
   -4.6867    0.5558    0.0000 C   0  0  0  0  0  0  0  0  0  0  0  0
   -4.2661   -1.0365    0.0000 C   0  0  0  0  0  0  0  0  0  0  0  0
  1  7  2  0  0  0  0
  2 22  1  0  0  0  0
  3  7  1  0  0  0  0
  3  9  1  0  0  0  0
  4 19  1  0  0  0  0
  4 20  1  0  0  0  0
  4 21  1  0  0  0  0
  5 16  1  0  0  0  0
  6  7  1  0  0  0  0
  6 11  2  0  0  0  0
  6 12  1  0  0  0  0
  8 13  1  0  0  0  0
  8 14  2  0  0  0  0
  8 15  1  0  0  0  0
  9 16  2  0  0  0  0
  9 23  1  0  0  0  0
 10 13  2  0  0  0  0
 10 17  1  0  0  0  0
 10 18  1  0  0  0  0
 11 14  1  0  0  0  0
 12 15  2  0  0  0  0
 16 24  1  0  0  0  0
 17 19  1  0  0  0  0
 18 20  1  0  0  0  0
 21 22  1  0  0  0  0
 22 27  1  0  0  0  0
 22 28  1  0  0  0  0
 23 25  2  0  0  0  0
 24 26  2  0  0  0  0
 25 26  1  0  0  0  0
M  END
> <PUBCHEM_COMPOUND_ID_TYPE>
0

> <PUBCHEM_TOTAL_CHARGE>
0

> <PUBCHEM_SUBSTANCE_ID>
310942314

> <PUBCHEM_SUBSTANCE_VERSION>
1

> <PUBCHEM_EXT_DATASOURCE_NAME>
4488

> <PUBCHEM_EXT_DATASOURCE_REGID>
SCHEMBL16120350

> <PUBCHEM_SUBSTANCE_COMMENT>
InChI=1S/C23H29N3O2/c1-23(2,28)16-26-13-11-18(12-14-26)15-17-7-9-19(10-8-17)22(27)25-21-6-4-3-5-20(21)24/h3-10,15,28H,11-14,16,24H2,1-2H3,(H,25,27)
InChIKey=DTLZOLMZKZZZTL-UHFFFAOYSA-N

> <PUBCHEM_SUBSTANCE_SYNONYM>
SCHEMBL16120350

> <PUBCHEM_XREF_EXT_ID>
SCHEMBL16120350

> <PUBCHEM_EXT_DATASOURCE_URL>
https://www.surechembl.org/

> <PUBCHEM_EXT_SUBSTANCE_URL>
https://www.surechembl.org/chemical/SCHEMBL16120350

> <PUBCHEM_CID_ASSOCIATIONS>
86268117  1

> <PUBCHEM_COORDINATE_TYPE>
1
3

$$$$
