310941699
  -OEChem-07211613022D

 35 38  0     0  0  0  0  0  0999 V2000
   -2.7863   -3.5240    0.0000 F   0  0  0  0  0  0  0  0  0  0  0  0
   -2.2198   -3.8534    0.0000 F   0  0  0  0  0  0  0  0  0  0  0  0
   -1.6401   -3.5240    0.0000 F   0  0  0  0  0  0  0  0  0  0  0  0
   -2.2329   -2.3647    0.0000 O   0  0  0  0  0  0  0  0  0  0  0  0
    1.4294    1.3504    0.0000 O   0  0  0  0  0  0  0  0  0  0  0  0
    1.2186   -1.0341    0.0000 O   0  0  0  0  0  0  0  0  0  0  0  0
   -1.6665    0.4545    0.0000 O   0  0  0  0  0  0  0  0  0  0  0  0
   -2.9444    3.0234    0.0000 O   0  0  0  0  0  0  0  0  0  0  0  0
    0.6389    0.1251    0.0000 N   0  0  0  0  0  0  0  0  0  0  0  0
   -2.2329   -0.7048    0.0000 N   0  0  0  0  0  0  0  0  0  0  0  0
    2.1012    0.1910    0.0000 N   0  0  0  0  0  0  0  0  0  0  0  0
    2.6545    0.8102    0.0000 N   0  0  0  0  0  0  0  0  0  0  0  0
   -2.9576    1.3635    0.0000 N   0  0  0  0  0  0  0  0  0  0  0  0
   -1.5084   -1.1000    0.0000 C   0  0  0  0  0  0  0  0  0  0  0  0
   -1.5348   -1.9300    0.0000 C   0  0  0  0  0  0  0  0  0  0  0  0
   -0.0856   -1.1000    0.0000 C   0  0  0  0  0  0  0  0  0  0  0  0
   -0.7971   -0.6916    0.0000 C   0  0  0  0  0  0  0  0  0  0  0  0
    0.6257   -0.6653    0.0000 C   0  0  0  0  0  0  0  0  0  0  0  0
    1.3372    0.5731    0.0000 C   0  0  0  0  0  0  0  0  0  0  0  0
    2.2461    1.5479    0.0000 C   0  0  0  0  0  0  0  0  0  0  0  0
   -0.7707   -2.3252    0.0000 C   0  0  0  0  0  0  0  0  0  0  0  0
   -0.0856   -1.9300    0.0000 C   0  0  0  0  0  0  0  0  0  0  0  0
    2.5755    2.3121    0.0000 C   0  0  0  0  0  0  0  0  0  0  0  0
   -2.2329   -3.1946    0.0000 C   0  0  0  0  0  0  0  0  0  0  0  0
   -2.2461    0.1383    0.0000 C   0  0  0  0  0  0  0  0  0  0  0  0
    3.3923    2.4569    0.0000 C   0  0  0  0  0  0  0  0  0  0  0  0
    2.0617    2.9312    0.0000 C   0  0  0  0  0  0  0  0  0  0  0  0
   -2.9444    0.5599    0.0000 C   0  0  0  0  0  0  0  0  0  0  0  0
    3.6689    3.2342    0.0000 C   0  0  0  0  0  0  0  0  0  0  0  0
    2.3384    3.7084    0.0000 C   0  0  0  0  0  0  0  0  0  0  0  0
    3.1420    3.8534    0.0000 C   0  0  0  0  0  0  0  0  0  0  0  0
   -3.6689    1.8114    0.0000 C   0  0  0  0  0  0  0  0  0  0  0  0
   -2.2329    1.7851    0.0000 C   0  0  0  0  0  0  0  0  0  0  0  0
   -3.6557    2.6414    0.0000 C   0  0  0  0  0  0  0  0  0  0  0  0
   -2.2329    2.6282    0.0000 C   0  0  0  0  0  0  0  0  0  0  0  0
  1 24  1  0  0  0  0
  2 24  1  0  0  0  0
  3 24  1  0  0  0  0
  4 15  1  0  0  0  0
  4 24  1  0  0  0  0
  5 19  1  0  0  0  0
  5 20  1  0  0  0  0
  6 18  2  0  0  0  0
  7 25  2  0  0  0  0
  8 34  1  0  0  0  0
  8 35  1  0  0  0  0
  9 18  1  0  0  0  0
  9 19  1  0  0  0  0
 10 14  1  0  0  0  0
 10 25  1  0  0  0  0
 11 12  1  0  0  0  0
 11 19  2  0  0  0  0
 12 20  2  0  0  0  0
 13 28  1  0  0  0  0
 13 32  1  0  0  0  0
 13 33  1  0  0  0  0
 14 15  1  0  0  0  0
 14 17  2  0  0  0  0
 15 21  2  0  0  0  0
 16 17  1  0  0  0  0
 16 18  1  0  0  0  0
 16 22  2  0  0  0  0
 20 23  1  0  0  0  0
 21 22  1  0  0  0  0
 23 26  2  0  0  0  0
 23 27  1  0  0  0  0
 25 28  1  0  0  0  0
 26 29  1  0  0  0  0
 27 30  2  0  0  0  0
 29 31  2  0  0  0  0
 30 31  1  0  0  0  0
 32 34  1  0  0  0  0
 33 35  1  0  0  0  0
M  END
> <PUBCHEM_COMPOUND_ID_TYPE>
0

> <PUBCHEM_TOTAL_CHARGE>
0

> <PUBCHEM_SUBSTANCE_ID>
310941699

> <PUBCHEM_SUBSTANCE_VERSION>
1

> <PUBCHEM_EXT_DATASOURCE_NAME>
4488

> <PUBCHEM_EXT_DATASOURCE_REGID>
SCHEMBL16119730

> <PUBCHEM_SUBSTANCE_COMMENT>
InChI=1S/C22H20F3N5O5/c23-22(24,25)35-17-7-6-15(12-16(17)26-18(31)13-30-8-10-33-11-9-30)19(32)27-21-29-28-20(34-21)14-4-2-1-3-5-14/h1-7,12H,8-11,13H2,(H,26,31)(H,27,29,32)
InChIKey=JQLQNWPQDNVZOR-UHFFFAOYSA-N

> <PUBCHEM_SUBSTANCE_SYNONYM>
SCHEMBL16119730

> <PUBCHEM_XREF_EXT_ID>
SCHEMBL16119730

> <PUBCHEM_EXT_DATASOURCE_URL>
https://www.surechembl.org/

> <PUBCHEM_EXT_SUBSTANCE_URL>
https://www.surechembl.org/chemical/SCHEMBL16119730

> <PUBCHEM_CID_ASSOCIATIONS>
117608472  1

> <PUBCHEM_COORDINATE_TYPE>
1
3

$$$$
