310935790
  -OEChem-07211613022D

 26 28  0     0  0  0  0  0  0999 V2000
    0.7360    0.0000    0.0000 Cl  0  0  0  0  0  0  0  0  0  0  0  0
    1.3932   -3.7589    0.0000 O   0  0  0  0  0  0  0  0  0  0  0  0
    7.1760   -4.5738    0.0000 O   0  0  0  0  0  0  0  0  0  0  0  0
    7.8858   -3.3121    0.0000 O   0  0  0  0  0  0  0  0  0  0  0  0
    2.8389   -2.1029    0.0000 N   0  0  0  0  0  0  0  0  0  0  0  0
    2.8651   -3.7326    0.0000 N   0  0  0  0  0  0  0  0  0  0  0  0
    5.7303   -3.7326    0.0000 N   0  0  0  0  0  0  0  0  0  0  0  0
    2.1292   -2.4972    0.0000 C   0  0  0  0  0  0  0  0  0  0  0  0
    1.4195   -2.0766    0.0000 C   0  0  0  0  0  0  0  0  0  0  0  0
    2.1292   -3.3383    0.0000 C   0  0  0  0  0  0  0  0  0  0  0  0
    3.5749   -2.4972    0.0000 C   0  0  0  0  0  0  0  0  0  0  0  0
    3.5486   -3.3383    0.0000 C   0  0  0  0  0  0  0  0  0  0  0  0
    4.3109   -2.0766    0.0000 C   0  0  0  0  0  0  0  0  0  0  0  0
    5.0206   -2.4972    0.0000 C   0  0  0  0  0  0  0  0  0  0  0  0
    1.4458   -1.2617    0.0000 C   0  0  0  0  0  0  0  0  0  0  0  0
    0.7097   -2.4972    0.0000 C   0  0  0  0  0  0  0  0  0  0  0  0
    6.4401   -3.3121    0.0000 C   0  0  0  0  0  0  0  0  0  0  0  0
    0.7360   -0.8412    0.0000 C   0  0  0  0  0  0  0  0  0  0  0  0
    5.0206   -3.3121    0.0000 C   0  0  0  0  0  0  0  0  0  0  0  0
    5.7303   -2.0766    0.0000 C   0  0  0  0  0  0  0  0  0  0  0  0
    6.4401   -2.4972    0.0000 C   0  0  0  0  0  0  0  0  0  0  0  0
    0.0000   -2.0766    0.0000 C   0  0  0  0  0  0  0  0  0  0  0  0
    0.0263   -1.2354    0.0000 C   0  0  0  0  0  0  0  0  0  0  0  0
    7.1760   -3.7326    0.0000 C   0  0  0  0  0  0  0  0  0  0  0  0
    1.3932   -4.5738    0.0000 C   0  0  0  0  0  0  0  0  0  0  0  0
    7.8858   -4.9680    0.0000 C   0  0  0  0  0  0  0  0  0  0  0  0
  1 18  1  0  0  0  0
  2 10  1  0  0  0  0
  2 25  1  0  0  0  0
  3 24  1  0  0  0  0
  3 26  1  0  0  0  0
  4 24  2  0  0  0  0
  5  8  1  0  0  0  0
  5 11  2  0  0  0  0
  6 10  1  0  0  0  0
  6 12  2  0  0  0  0
  7 17  1  0  0  0  0
  7 19  2  0  0  0  0
  8  9  1  0  0  0  0
  8 10  2  0  0  0  0
  9 15  1  0  0  0  0
  9 16  2  0  0  0  0
 11 12  1  0  0  0  0
 11 13  1  0  0  0  0
 13 14  1  0  0  0  0
 14 19  1  0  0  0  0
 14 20  2  0  0  0  0
 15 18  2  0  0  0  0
 16 22  1  0  0  0  0
 17 21  2  0  0  0  0
 17 24  1  0  0  0  0
 18 23  1  0  0  0  0
 20 21  1  0  0  0  0
 22 23  2  0  0  0  0
M  END
> <PUBCHEM_COMPOUND_ID_TYPE>
0

> <PUBCHEM_TOTAL_CHARGE>
0

> <PUBCHEM_SUBSTANCE_ID>
310935790

> <PUBCHEM_SUBSTANCE_VERSION>
1

> <PUBCHEM_EXT_DATASOURCE_NAME>
4488

> <PUBCHEM_EXT_DATASOURCE_REGID>
SCHEMBL16113376

> <PUBCHEM_SUBSTANCE_COMMENT>
InChI=1S/C19H16ClN3O3/c1-25-18-17(13-4-3-5-14(20)9-13)23-15(11-22-18)8-12-6-7-16(21-10-12)19(24)26-2/h3-7,9-11H,8H2,1-2H3
InChIKey=ZPTRKHCVGHRJSZ-UHFFFAOYSA-N

> <PUBCHEM_SUBSTANCE_SYNONYM>
SCHEMBL16113376

> <PUBCHEM_XREF_EXT_ID>
SCHEMBL16113376

> <PUBCHEM_EXT_DATASOURCE_URL>
https://www.surechembl.org/

> <PUBCHEM_EXT_SUBSTANCE_URL>
https://www.surechembl.org/chemical/SCHEMBL16113376

> <PUBCHEM_CID_ASSOCIATIONS>
117603784  1

> <PUBCHEM_COORDINATE_TYPE>
1
3

$$$$
