310929417
  -OEChem-07211613022D

 35 39  0     1  0  0  0  0  0999 V2000
    3.8805   -0.0305    0.0000 Cl  0  0  0  0  0  0  0  0  0  0  0  0
    2.6889   -3.7584    0.0000 S   0  0  0  0  0  0  0  0  0  0  0  0
    7.9445   -2.8416    0.0000 F   0  0  0  0  0  0  0  0  0  0  0  0
    3.1778   -4.4305    0.0000 O   0  0  0  0  0  0  0  0  0  0  0  0
    2.2000   -3.0861    0.0000 O   0  0  0  0  0  0  0  0  0  0  0  0
    3.3611   -3.2695    0.0000 N   0  0  0  0  0  0  0  0  0  0  0  0
    2.7195   -1.8639    0.0000 N   0  0  0  0  0  0  0  0  0  0  0  0
    5.8667   -2.1389    0.0000 N   0  0  0  0  0  0  0  0  0  0  0  0
    5.8667   -3.5750    0.0000 N   0  0  0  0  0  0  0  0  0  0  0  0
    8.3112   -2.1389    0.0000 N   0  0  0  0  0  0  0  0  0  0  0  0
    9.1667   -0.7028    0.0000 N   0  0  0  0  0  0  0  0  0  0  0  0
    3.3305   -2.4445    0.0000 C   0  0  0  0  0  0  0  0  0  0  0  0
    4.1555   -2.1695    0.0000 C   0  0  0  0  0  0  0  0  0  0  0  0
    4.6139   -2.8416    0.0000 C   0  0  0  0  0  0  0  0  0  0  0  0
    4.1250   -3.5139    0.0000 C   0  0  0  0  0  0  0  0  0  0  0  0
    5.4389   -2.8416    0.0000 C   0  0  0  0  0  0  0  0  0  0  0  0
    2.0166   -4.2473    0.0000 C   0  0  0  0  0  0  0  0  0  0  0  0
    4.3084   -1.3750    0.0000 C   0  0  0  0  0  0  0  0  0  0  0  0
    6.6917   -2.1389    0.0000 C   0  0  0  0  0  0  0  0  0  0  0  0
    3.6973   -0.8250    0.0000 C   0  0  0  0  0  0  0  0  0  0  0  0
    2.9028   -1.1000    0.0000 C   0  0  0  0  0  0  0  0  0  0  0  0
    7.0889   -1.4361    0.0000 C   0  0  3  0  0  0  0  0  0  0  0  0
    7.1195   -2.8416    0.0000 C   0  0  0  0  0  0  0  0  0  0  0  0
    1.2528   -3.9111    0.0000 C   0  0  0  0  0  0  0  0  0  0  0  0
    2.1084   -5.0723    0.0000 C   0  0  0  0  0  0  0  0  0  0  0  0
    6.6917   -3.5750    0.0000 C   0  0  0  0  0  0  0  0  0  0  0  0
    7.9139   -1.4361    0.0000 C   0  0  3  0  0  0  0  0  0  0  0  0
    0.6111   -4.4000    0.0000 C   0  0  0  0  0  0  0  0  0  0  0  0
    1.4361   -5.5305    0.0000 C   0  0  0  0  0  0  0  0  0  0  0  0
    6.6611   -0.7028    0.0000 C   0  0  0  0  0  0  0  0  0  0  0  0
    0.6722   -5.1945    0.0000 C   0  0  0  0  0  0  0  0  0  0  0  0
    8.3417   -0.7028    0.0000 C   0  0  3  0  0  0  0  0  0  0  0  0
    7.0889    0.0000    0.0000 C   0  0  0  0  0  0  0  0  0  0  0  0
    7.9139    0.0000    0.0000 C   0  0  0  0  0  0  0  0  0  0  0  0
    0.0000   -5.6834    0.0000 C   0  0  0  0  0  0  0  0  0  0  0  0
  1 20  1  0  0  0  0
  2  4  2  0  0  0  0
  2  5  2  0  0  0  0
  2  6  1  0  0  0  0
  2 17  1  0  0  0  0
  3 23  1  0  0  0  0
  6 12  1  0  0  0  0
  6 15  1  0  0  0  0
  7 12  1  0  0  0  0
  7 21  2  0  0  0  0
  8 16  1  0  0  0  0
  8 19  2  0  0  0  0
  9 16  2  0  0  0  0
  9 26  1  0  0  0  0
 27 10  1  1  0  0  0
 32 11  1  6  0  0  0
 12 13  2  0  0  0  0
 13 14  1  0  0  0  0
 13 18  1  0  0  0  0
 14 15  2  0  0  0  0
 14 16  1  0  0  0  0
 17 24  2  0  0  0  0
 17 25  1  0  0  0  0
 18 20  2  0  0  0  0
 19 22  1  0  0  0  0
 19 23  1  0  0  0  0
 20 21  1  0  0  0  0
 22 27  1  0  0  0  0
 22 30  1  0  0  0  0
 23 26  2  0  0  0  0
 24 28  1  0  0  0  0
 25 29  2  0  0  0  0
 27 32  1  0  0  0  0
 28 31  2  0  0  0  0
 29 31  1  0  0  0  0
 30 33  1  0  0  0  0
 31 35  1  0  0  0  0
 32 34  1  0  0  0  0
 33 34  1  0  0  0  0
M  END
> <PUBCHEM_COMPOUND_ID_TYPE>
0

> <PUBCHEM_TOTAL_CHARGE>
0

> <PUBCHEM_SUBSTANCE_ID>
310929417

> <PUBCHEM_SUBSTANCE_VERSION>
1

> <PUBCHEM_EXT_DATASOURCE_NAME>
4488

> <PUBCHEM_EXT_DATASOURCE_REGID>
SCHEMBL16106591

> <PUBCHEM_SUBSTANCE_COMMENT>
InChI=1S/C24H24ClFN6O2S/c1-13-5-7-15(8-6-13)35(33,34)32-12-18(17-9-14(25)10-30-24(17)32)23-29-11-19(26)22(31-23)16-3-2-4-20(27)21(16)28/h5-12,16,20-21H,2-4,27-28H2,1H3/t16?,20-,21-/m0/s1
InChIKey=AOVKPYAUYGIXND-ZMAUEPLISA-N

> <PUBCHEM_SUBSTANCE_SYNONYM>
SCHEMBL16106591

> <PUBCHEM_XREF_EXT_ID>
SCHEMBL16106591

> <PUBCHEM_EXT_DATASOURCE_URL>
https://www.surechembl.org/

> <PUBCHEM_EXT_SUBSTANCE_URL>
https://www.surechembl.org/chemical/SCHEMBL16106591

> <PUBCHEM_CID_ASSOCIATIONS>
117598777  1

> <PUBCHEM_COORDINATE_TYPE>
1
3

> <PUBCHEM_BONDANNOTATIONS>
27  10  5
32  11  6

$$$$
