310943092
  -OEChem-07211613022D

  8  8  0     0  0  0  0  0  0999 V2000
   -1.5719    0.8229    0.0000 Br  0  0  0  0  0  0  0  0  0  0  0  0
    1.5719    0.8229    0.0000 Cl  0  0  0  0  0  0  0  0  0  0  0  0
    0.6831   -0.4115    0.0000 N   0  0  0  0  0  0  0  0  0  0  0  0
    0.1399   -0.8229    0.0000 N   0  0  0  0  0  0  0  0  0  0  0  0
    0.8642    0.4279    0.0000 C   0  0  0  0  0  0  0  0  0  0  0  0
   -0.5514    0.4279    0.0000 C   0  0  0  0  0  0  0  0  0  0  0  0
    0.1399    0.8229    0.0000 C   0  0  0  0  0  0  0  0  0  0  0  0
   -0.5514   -0.4115    0.0000 C   0  0  0  0  0  0  0  0  0  0  0  0
  1  6  1  0  0  0  0
  2  5  1  0  0  0  0
  3  4  1  0  0  0  0
  3  5  1  0  0  0  0
  4  8  1  0  0  0  0
  5  7  2  0  0  0  0
  6  7  1  0  0  0  0
  6  8  2  0  0  0  0
M  END
> <PUBCHEM_COMPOUND_ID_TYPE>
0

> <PUBCHEM_TOTAL_CHARGE>
0

> <PUBCHEM_SUBSTANCE_ID>
310943092

> <PUBCHEM_SUBSTANCE_VERSION>
1

> <PUBCHEM_EXT_DATASOURCE_NAME>
4488

> <PUBCHEM_EXT_DATASOURCE_REGID>
SCHEMBL16121151

> <PUBCHEM_SUBSTANCE_COMMENT>
InChI=1S/C4H4BrClN2/c5-3-1-4(6)8-7-2-3/h1-2,7-8H
InChIKey=XPHCFFCZPVENKQ-UHFFFAOYSA-N

> <PUBCHEM_SUBSTANCE_SYNONYM>
SCHEMBL16121151

> <PUBCHEM_XREF_EXT_ID>
SCHEMBL16121151

> <PUBCHEM_EXT_DATASOURCE_URL>
https://www.surechembl.org/

> <PUBCHEM_EXT_SUBSTANCE_URL>
https://www.surechembl.org/chemical/SCHEMBL16121151

> <PUBCHEM_CID_ASSOCIATIONS>
117609523  1

> <PUBCHEM_COORDINATE_TYPE>
1
3

$$$$
