310948428
  -OEChem-07211613022D

 33 37  0     1  0  0  0  0  0999 V2000
   -2.6057    2.3638    0.0000 O   0  0  0  0  0  0  0  0  0  0  0  0
    0.1728    2.2256    0.0000 N   0  0  0  0  0  0  0  0  0  0  0  0
   -0.1728    1.4791    0.0000 N   0  0  0  0  0  0  0  0  0  0  0  0
   -1.5552    0.9538    0.0000 N   0  0  0  0  0  0  0  0  0  0  0  0
   -1.8869    3.6080    0.0000 N   0  0  0  0  0  0  0  0  0  0  0  0
   -1.2786   -2.8338    0.0000 N   0  0  0  0  0  0  0  0  0  0  0  0
   -1.1543   -3.6494    0.0000 N   0  0  0  0  0  0  0  0  0  0  0  0
   -1.8869   -4.0226    0.0000 N   0  0  0  0  0  0  0  0  0  0  0  0
    1.0161    0.2074    0.0000 N   0  0  0  0  0  0  0  0  0  0  0  0
   -1.1681    2.3777    0.0000 C   0  0  0  0  0  0  0  0  0  0  0  0
   -0.4631    2.7923    0.0000 C   0  0  0  0  0  0  0  0  0  0  0  0
   -1.0022    1.5759    0.0000 C   0  0  0  0  0  0  0  0  0  0  0  0
    0.9746    2.4053    0.0000 C   0  0  3  0  0  0  0  0  0  0  0  0
   -1.8869    2.7923    0.0000 C   0  0  0  0  0  0  0  0  0  0  0  0
   -0.4493    3.6080    0.0000 C   0  0  0  0  0  0  0  0  0  0  0  0
    1.5275    1.7971    0.0000 C   0  0  3  0  0  0  0  0  0  0  0  0
   -0.6981   -2.2532    0.0000 C   0  0  0  0  0  0  0  0  0  0  0  0
   -1.3478    0.1659    0.0000 C   0  0  0  0  0  0  0  0  0  0  0  0
   -0.9054   -1.4515    0.0000 C   0  0  0  0  0  0  0  0  0  0  0  0
   -1.1957    4.0226    0.0000 C   0  0  0  0  0  0  0  0  0  0  0  0
    1.2510    3.1795    0.0000 C   0  0  0  0  0  0  0  0  0  0  0  0
   -1.9145   -0.4285    0.0000 C   0  0  0  0  0  0  0  0  0  0  0  0
   -0.5461   -0.0691    0.0000 C   0  0  0  0  0  0  0  0  0  0  0  0
   -1.7072   -1.2303    0.0000 C   0  0  0  0  0  0  0  0  0  0  0  0
   -0.3249   -0.8709    0.0000 C   0  0  0  0  0  0  0  0  0  0  0  0
    2.3431    1.9630    0.0000 C   0  0  0  0  0  0  0  0  0  0  0  0
    1.2648    1.0229    0.0000 C   0  0  0  0  0  0  0  0  0  0  0  0
    2.0528    3.3453    0.0000 C   0  0  0  0  0  0  0  0  0  0  0  0
   -2.0943   -2.6956    0.0000 C   0  0  0  0  0  0  0  0  0  0  0  0
    2.6057    2.7370    0.0000 C   0  0  0  0  0  0  0  0  0  0  0  0
    0.1313   -2.4468    0.0000 C   0  0  0  0  0  0  0  0  0  0  0  0
   -0.4631   -3.0689    0.0000 C   0  0  0  0  0  0  0  0  0  0  0  0
   -2.4813   -3.4421    0.0000 C   0  0  0  0  0  0  0  0  0  0  0  0
  1 14  2  0  0  0  0
  2  3  1  0  0  0  0
  2 11  1  0  0  0  0
 13  2  1  1  0  0  0
  3 12  2  0  0  0  0
  4 12  1  0  0  0  0
  4 18  1  0  0  0  0
  5 14  1  0  0  0  0
  5 20  1  0  0  0  0
  6  7  1  0  0  0  0
  6 17  1  0  0  0  0
  6 29  1  0  0  0  0
  7  8  2  0  0  0  0
  8 33  1  0  0  0  0
  9 27  3  0  0  0  0
 10 11  2  0  0  0  0
 10 12  1  0  0  0  0
 10 14  1  0  0  0  0
 11 15  1  0  0  0  0
 13 16  1  0  0  0  0
 13 21  1  0  0  0  0
 15 20  2  0  0  0  0
 16 26  1  0  0  0  0
 16 27  1  6  0  0  0
 17 19  1  0  0  0  0
 17 31  1  0  0  0  0
 17 32  1  0  0  0  0
 18 22  2  0  0  0  0
 18 23  1  0  0  0  0
 19 24  2  0  0  0  0
 19 25  1  0  0  0  0
 21 28  1  0  0  0  0
 22 24  1  0  0  0  0
 23 25  2  0  0  0  0
 26 30  1  0  0  0  0
 28 30  1  0  0  0  0
 29 33  2  0  0  0  0
M  END
> <PUBCHEM_COMPOUND_ID_TYPE>
0

> <PUBCHEM_TOTAL_CHARGE>
0

> <PUBCHEM_SUBSTANCE_ID>
310948428

> <PUBCHEM_SUBSTANCE_VERSION>
1

> <PUBCHEM_EXT_DATASOURCE_NAME>
4488

> <PUBCHEM_EXT_DATASOURCE_REGID>
SCHEMBL16126609

> <PUBCHEM_SUBSTANCE_COMMENT>
InChI=1S/C24H26N8O/c1-24(2,31-14-13-27-30-31)17-7-9-18(10-8-17)28-22-21-20(11-12-26-23(21)33)32(29-22)19-6-4-3-5-16(19)15-25/h7-14,16,19H,3-6H2,1-2H3,(H,26,33)(H,28,29)/t16-,19+/m1/s1
InChIKey=UXOUMFKAAGLFPS-APWZRJJASA-N

> <PUBCHEM_SUBSTANCE_SYNONYM>
SCHEMBL16126609

> <PUBCHEM_XREF_EXT_ID>
SCHEMBL16126609

> <PUBCHEM_EXT_DATASOURCE_URL>
https://www.surechembl.org/

> <PUBCHEM_EXT_SUBSTANCE_URL>
https://www.surechembl.org/chemical/SCHEMBL16126609

> <PUBCHEM_CID_ASSOCIATIONS>
117613987  1

> <PUBCHEM_COORDINATE_TYPE>
1
3

> <PUBCHEM_BONDANNOTATIONS>
16  27  6
13  2  5

$$$$
