310947609
  -OEChem-07211613022D

 26 25  0     0  0  0  0  0  0999 V2000
    6.2574    1.2462    0.0000 O   0  0  0  0  0  0  0  0  0  0  0  0
    6.2223   -1.3340    0.0000 O   0  0  0  0  0  0  0  0  0  0  0  0
    2.7820    0.8425    0.0000 C   0  0  0  0  0  0  0  0  0  0  0  0
    0.0087    0.8601    0.0000 C   0  0  0  0  0  0  0  0  0  0  0  0
   -2.7996    0.8776    0.0000 C   0  0  0  0  0  0  0  0  0  0  0  0
    2.0449    1.2462    0.0000 C   0  0  0  0  0  0  0  0  0  0  0  0
    0.6407    1.2638    0.0000 C   0  0  0  0  0  0  0  0  0  0  0  0
    3.4666    1.2462    0.0000 C   0  0  0  0  0  0  0  0  0  0  0  0
   -0.7460    1.2814    0.0000 C   0  0  0  0  0  0  0  0  0  0  0  0
    5.5554    0.8074    0.0000 C   0  0  0  0  0  0  0  0  0  0  0  0
    1.3954    0.8425    0.0000 C   0  0  0  0  0  0  0  0  0  0  0  0
   -2.1326    1.2814    0.0000 C   0  0  0  0  0  0  0  0  0  0  0  0
    4.2038    0.8425    0.0000 C   0  0  0  0  0  0  0  0  0  0  0  0
   -1.4130    0.8601    0.0000 C   0  0  0  0  0  0  0  0  0  0  0  0
    4.8708    1.2462    0.0000 C   0  0  0  0  0  0  0  0  0  0  0  0
   -3.5017    1.2988    0.0000 C   0  0  0  0  0  0  0  0  0  0  0  0
    5.5554   -0.0176    0.0000 C   0  0  0  0  0  0  0  0  0  0  0  0
   -4.1862    0.8776    0.0000 C   0  0  0  0  0  0  0  0  0  0  0  0
    2.7820   -0.0702    0.0000 C   0  0  0  0  0  0  0  0  0  0  0  0
   -0.0087   -0.0176    0.0000 C   0  0  0  0  0  0  0  0  0  0  0  0
   -4.8532    1.2988    0.0000 C   0  0  0  0  0  0  0  0  0  0  0  0
   -2.7996   -0.0176    0.0000 C   0  0  0  0  0  0  0  0  0  0  0  0
   -5.5554    0.8951    0.0000 C   0  0  0  0  0  0  0  0  0  0  0  0
    6.2574   -0.4564    0.0000 C   0  0  0  0  0  0  0  0  0  0  0  0
   -5.5729    0.0176    0.0000 C   0  0  0  0  0  0  0  0  0  0  0  0
   -6.2574    1.3340    0.0000 C   0  0  0  0  0  0  0  0  0  0  0  0
  1 10  2  0  0  0  0
  2 24  1  0  0  0  0
  3  6  1  0  0  0  0
  3  8  2  0  0  0  0
  3 19  1  0  0  0  0
  4  7  2  0  0  0  0
  4  9  1  0  0  0  0
  4 20  1  0  0  0  0
  5 12  2  0  0  0  0
  5 16  1  0  0  0  0
  5 22  1  0  0  0  0
  6 11  1  0  0  0  0
  7 11  1  0  0  0  0
  8 13  1  0  0  0  0
  9 14  1  0  0  0  0
 10 15  1  0  0  0  0
 10 17  1  0  0  0  0
 12 14  1  0  0  0  0
 13 15  1  0  0  0  0
 16 18  1  0  0  0  0
 17 24  1  0  0  0  0
 18 21  1  0  0  0  0
 21 23  2  0  0  0  0
 23 25  1  0  0  0  0
 23 26  1  0  0  0  0
M  END
> <PUBCHEM_COMPOUND_ID_TYPE>
0

> <PUBCHEM_TOTAL_CHARGE>
0

> <PUBCHEM_SUBSTANCE_ID>
310947609

> <PUBCHEM_SUBSTANCE_VERSION>
1

> <PUBCHEM_EXT_DATASOURCE_NAME>
4488

> <PUBCHEM_EXT_DATASOURCE_REGID>
SCHEMBL16125772

> <PUBCHEM_SUBSTANCE_COMMENT>
InChI=1S/C24H40O2/c1-20(2)10-6-11-21(3)12-7-13-22(4)14-8-15-23(5)16-9-17-24(26)18-19-25/h10,12,14,16,25H,6-9,11,13,15,17-19H2,1-5H3/b21-12+,22-14+,23-16+
InChIKey=CXYRWHSQKJTBHE-MLAGYPMBSA-N

> <PUBCHEM_SUBSTANCE_SYNONYM>
SCHEMBL16125772

> <PUBCHEM_XREF_EXT_ID>
SCHEMBL16125772

> <PUBCHEM_EXT_DATASOURCE_URL>
https://www.surechembl.org/

> <PUBCHEM_EXT_SUBSTANCE_URL>
https://www.surechembl.org/chemical/SCHEMBL16125772

> <PUBCHEM_CID_ASSOCIATIONS>
117613330  1

> <PUBCHEM_COORDINATE_TYPE>
1
3

$$$$
