310947504
  -OEChem-07211613022D

 27 32  0     0  0  0  0  0  0999 V2000
   -2.2683   -1.8004    0.0000 O   0  0  0  0  0  0  0  0  0  0  0  0
   -3.4421   -1.1500    0.0000 O   0  0  0  0  0  0  0  0  0  0  0  0
    2.9662    0.4045    0.0000 O   0  0  0  0  0  0  0  0  0  0  0  0
    2.9662    1.7527    0.0000 O   0  0  0  0  0  0  0  0  0  0  0  0
    0.0476   -0.5949    0.0000 N   0  3  0  0  0  0  0  0  0  0  0  0
    0.0317    0.2459    0.0000 C   0  0  0  0  0  0  0  0  0  0  0  0
   -0.6980    0.6425    0.0000 C   0  0  0  0  0  0  0  0  0  0  0  0
   -1.3959    0.2459    0.0000 C   0  0  0  0  0  0  0  0  0  0  0  0
    0.7455    0.6583    0.0000 C   0  0  0  0  0  0  0  0  0  0  0  0
   -1.4117   -0.5790    0.0000 C   0  0  0  0  0  0  0  0  0  0  0  0
    0.7614    1.4831    0.0000 C   0  0  0  0  0  0  0  0  0  0  0  0
   -2.0938   -0.9914    0.0000 C   0  0  0  0  0  0  0  0  0  0  0  0
   -0.6663   -1.0072    0.0000 C   0  0  0  0  0  0  0  0  0  0  0  0
   -2.8076   -0.5949    0.0000 C   0  0  0  0  0  0  0  0  0  0  0  0
   -0.6663    1.4831    0.0000 C   0  0  0  0  0  0  0  0  0  0  0  0
    1.4593    0.2459    0.0000 C   0  0  0  0  0  0  0  0  0  0  0  0
    2.1572    0.6583    0.0000 C   0  0  0  0  0  0  0  0  0  0  0  0
   -2.0938    0.6266    0.0000 C   0  0  0  0  0  0  0  0  0  0  0  0
    2.1732    1.4831    0.0000 C   0  0  0  0  0  0  0  0  0  0  0  0
    0.0317    1.8797    0.0000 C   0  0  0  0  0  0  0  0  0  0  0  0
    1.4435    1.8797    0.0000 C   0  0  0  0  0  0  0  0  0  0  0  0
   -2.7917    0.2459    0.0000 C   0  0  0  0  0  0  0  0  0  0  0  0
    0.7932   -0.9914    0.0000 C   0  0  0  0  0  0  0  0  0  0  0  0
   -3.0931   -1.8797    0.0000 C   0  0  0  0  0  0  0  0  0  0  0  0
    3.4421    1.0548    0.0000 C   0  0  0  0  0  0  0  0  0  0  0  0
    1.4435   -0.5949    0.0000 C   0  0  0  0  0  0  0  0  0  0  0  0
    2.1890   -1.0072    0.0000 C   0  0  0  0  0  0  0  0  0  0  0  0
  1 12  1  0  0  0  0
  1 24  1  0  0  0  0
  2 14  1  0  0  0  0
  2 24  1  0  0  0  0
  3 17  1  0  0  0  0
  3 25  1  0  0  0  0
  4 19  1  0  0  0  0
  4 25  1  0  0  0  0
  5  6  1  0  0  0  0
  5 13  2  0  0  0  0
  5 23  1  0  0  0  0
  6  7  2  0  0  0  0
  6  9  1  0  0  0  0
  7  8  1  0  0  0  0
  7 15  1  0  0  0  0
  8 10  1  0  0  0  0
  8 18  2  0  0  0  0
  9 11  2  0  0  0  0
  9 16  1  0  0  0  0
 10 12  2  0  0  0  0
 10 13  1  0  0  0  0
 11 20  1  0  0  0  0
 11 21  1  0  0  0  0
 12 14  1  0  0  0  0
 14 22  2  0  0  0  0
 15 20  2  0  0  0  0
 16 17  2  0  0  0  0
 17 19  1  0  0  0  0
 18 22  1  0  0  0  0
 19 21  2  0  0  0  0
 23 26  1  0  0  0  0
 26 27  1  0  0  0  0
M  CHG  1   5   1
M  END
> <PUBCHEM_COMPOUND_ID_TYPE>
0

> <PUBCHEM_TOTAL_CHARGE>
1

> <PUBCHEM_SUBSTANCE_ID>
310947504

> <PUBCHEM_SUBSTANCE_VERSION>
1

> <PUBCHEM_EXT_DATASOURCE_NAME>
4488

> <PUBCHEM_EXT_DATASOURCE_REGID>
SCHEMBL16125666

> <PUBCHEM_SUBSTANCE_COMMENT>
InChI=1S/C22H18NO4/c1-2-7-23-10-17-14(5-6-18-22(17)27-12-24-18)15-4-3-13-8-19-20(26-11-25-19)9-16(13)21(15)23/h3-6,8-10H,2,7,11-12H2,1H3/q+1
InChIKey=AXSCUWKVGGJVJZ-UHFFFAOYSA-N

> <PUBCHEM_SUBSTANCE_SYNONYM>
SCHEMBL16125666

> <PUBCHEM_XREF_EXT_ID>
SCHEMBL16125666

> <PUBCHEM_EXT_DATASOURCE_URL>
https://www.surechembl.org/

> <PUBCHEM_EXT_SUBSTANCE_URL>
https://www.surechembl.org/chemical/SCHEMBL16125666

> <PUBCHEM_CID_ASSOCIATIONS>
117613227  1

> <PUBCHEM_COORDINATE_TYPE>
1
3

$$$$
