310943617
  -OEChem-07211613022D

 35 38  0     0  0  0  0  0  0999 V2000
    4.3376   -2.0726    0.0000 F   0  0  0  0  0  0  0  0  0  0  0  0
    3.5505   -2.8771    0.0000 F   0  0  0  0  0  0  0  0  0  0  0  0
    2.7634   -2.0726    0.0000 F   0  0  0  0  0  0  0  0  0  0  0  0
    1.3992   -0.0088    0.0000 O   0  0  0  0  0  0  0  0  0  0  0  0
   -4.3376    2.4574    0.0000 O   0  0  0  0  0  0  0  0  0  0  0  0
   -0.7521    0.3935    0.0000 N   0  0  0  0  0  0  0  0  0  0  0  0
   -2.9034    1.6353    0.0000 N   0  0  0  0  0  0  0  0  0  0  0  0
   -2.1863    0.3935    0.0000 N   0  0  0  0  0  0  0  0  0  0  0  0
    2.0989    1.2156    0.0000 N   0  0  0  0  0  0  0  0  0  0  0  0
    0.6646    2.8771    0.0000 N   0  0  0  0  0  0  0  0  0  0  0  0
    4.2501   -0.8308    0.0000 N   0  0  0  0  0  0  0  0  0  0  0  0
   -1.4691   -0.8308    0.0000 N   0  0  0  0  0  0  0  0  0  0  0  0
   -0.7521    1.2330    0.0000 C   0  0  0  0  0  0  0  0  0  0  0  0
   -0.0525    1.6353    0.0000 C   0  0  0  0  0  0  0  0  0  0  0  0
   -2.1863    1.2330    0.0000 C   0  0  0  0  0  0  0  0  0  0  0  0
   -1.4867    1.6353    0.0000 C   0  0  0  0  0  0  0  0  0  0  0  0
   -0.0350    2.4748    0.0000 C   0  0  0  0  0  0  0  0  0  0  0  0
    1.3818    1.6353    0.0000 C   0  0  0  0  0  0  0  0  0  0  0  0
    0.6996    1.2330    0.0000 C   0  0  0  0  0  0  0  0  0  0  0  0
   -1.4691   -0.0088    0.0000 C   0  0  0  0  0  0  0  0  0  0  0  0
    2.8159   -0.0088    0.0000 C   0  0  0  0  0  0  0  0  0  0  0  0
    3.5330   -1.2330    0.0000 C   0  0  0  0  0  0  0  0  0  0  0  0
    2.1163    0.4285    0.0000 C   0  0  0  0  0  0  0  0  0  0  0  0
    3.5330   -2.0726    0.0000 C   0  0  0  0  0  0  0  0  0  0  0  0
    1.3992    2.4574    0.0000 C   0  0  0  0  0  0  0  0  0  0  0  0
    2.8159   -0.8308    0.0000 C   0  0  0  0  0  0  0  0  0  0  0  0
    3.5155    0.3935    0.0000 C   0  0  0  0  0  0  0  0  0  0  0  0
   -2.9034    2.4574    0.0000 C   0  0  0  0  0  0  0  0  0  0  0  0
   -3.6030    1.2330    0.0000 C   0  0  0  0  0  0  0  0  0  0  0  0
    4.2501   -0.0088    0.0000 C   0  0  0  0  0  0  0  0  0  0  0  0
   -0.7696    2.8597    0.0000 C   0  0  0  0  0  0  0  0  0  0  0  0
   -3.6379    2.8597    0.0000 C   0  0  0  0  0  0  0  0  0  0  0  0
   -4.3376    1.6353    0.0000 C   0  0  0  0  0  0  0  0  0  0  0  0
   -2.1863   -1.2506    0.0000 C   0  0  0  0  0  0  0  0  0  0  0  0
   -2.1688   -2.0901    0.0000 C   0  0  0  0  0  0  0  0  0  0  0  0
  1 24  1  0  0  0  0
  2 24  1  0  0  0  0
  3 24  1  0  0  0  0
  4 23  2  0  0  0  0
  5 32  1  0  0  0  0
  5 33  1  0  0  0  0
  6 13  1  0  0  0  0
  6 20  2  0  0  0  0
  7 15  1  0  0  0  0
  7 28  1  0  0  0  0
  7 29  1  0  0  0  0
  8 15  2  0  0  0  0
  8 20  1  0  0  0  0
  9 18  1  0  0  0  0
  9 23  1  0  0  0  0
 10 17  2  0  0  0  0
 10 25  1  0  0  0  0
 11 22  2  0  0  0  0
 11 30  1  0  0  0  0
 12 20  1  0  0  0  0
 12 34  1  0  0  0  0
 13 14  1  0  0  0  0
 13 16  2  0  0  0  0
 14 17  1  0  0  0  0
 14 19  2  0  0  0  0
 15 16  1  0  0  0  0
 17 31  1  0  0  0  0
 18 19  1  0  0  0  0
 18 25  2  0  0  0  0
 21 23  1  0  0  0  0
 21 26  2  0  0  0  0
 21 27  1  0  0  0  0
 22 24  1  0  0  0  0
 22 26  1  0  0  0  0
 27 30  2  0  0  0  0
 28 32  1  0  0  0  0
 29 33  1  0  0  0  0
 34 35  1  0  0  0  0
M  END
> <PUBCHEM_COMPOUND_ID_TYPE>
0

> <PUBCHEM_TOTAL_CHARGE>
0

> <PUBCHEM_SUBSTANCE_ID>
310943617

> <PUBCHEM_SUBSTANCE_VERSION>
1

> <PUBCHEM_EXT_DATASOURCE_NAME>
4488

> <PUBCHEM_EXT_DATASOURCE_REGID>
SCHEMBL16121685

> <PUBCHEM_SUBSTANCE_COMMENT>
InChI=1S/C23H24F3N7O2/c1-3-27-22-31-18(12-20(32-22)33-6-8-35-9-7-33)17-11-16(13-29-14(17)2)30-21(34)15-4-5-28-19(10-15)23(24,25)26/h4-5,10-13H,3,6-9H2,1-2H3,(H,30,34)(H,27,31,32)
InChIKey=PSHYIXJXMAODDE-UHFFFAOYSA-N

> <PUBCHEM_SUBSTANCE_SYNONYM>
SCHEMBL16121685

> <PUBCHEM_XREF_EXT_ID>
SCHEMBL16121685

> <PUBCHEM_EXT_DATASOURCE_URL>
https://www.surechembl.org/

> <PUBCHEM_EXT_SUBSTANCE_URL>
https://www.surechembl.org/chemical/SCHEMBL16121685

> <PUBCHEM_CID_ASSOCIATIONS>
117610008  1

> <PUBCHEM_COORDINATE_TYPE>
1
3

$$$$
