310934176
  -OEChem-07211613022D

 24 25  0     1  0  0  0  0  0999 V2000
    2.4670   -2.9666    0.0000 S   0  0  0  0  0  0  0  0  0  0  0  0
    1.2179   -5.4336    0.0000 F   0  0  0  0  0  0  0  0  0  0  0  0
    3.3726   -4.1845    0.0000 O   0  0  0  0  0  0  0  0  0  0  0  0
    2.4670   -1.4365    0.0000 O   0  0  0  0  0  0  0  0  0  0  0  0
    2.6231   -6.2455    0.0000 O   0  0  0  0  0  0  0  0  0  0  0  0
    1.2491   -0.7182    0.0000 O   0  0  0  0  0  0  0  0  0  0  0  0
    4.8090   -4.9964    0.0000 O   0  0  0  0  0  0  0  0  0  0  0  0
    1.3428   -3.6224    0.0000 N   0  0  0  0  0  0  0  0  0  0  0  0
    1.2491   -2.1547    0.0000 N   0  0  0  0  0  0  0  0  0  0  0  0
    1.9049   -4.1845    0.0000 C   0  0  3  0  0  0  0  0  0  0  0  0
    2.6544   -3.7473    0.0000 C   0  0  3  0  0  0  0  0  0  0  0  0
    1.6550   -2.8729    0.0000 C   0  0  0  0  0  0  0  0  0  0  0  0
    1.9361   -5.0276    0.0000 C   0  0  3  0  0  0  0  0  0  0  0  0
    2.6231   -5.4336    0.0000 C   0  0  3  0  0  0  0  0  0  0  0  0
    3.3726   -4.9964    0.0000 C   0  0  3  0  0  0  0  0  0  0  0  0
    1.6550   -1.4365    0.0000 C   0  0  0  0  0  0  0  0  0  0  0  0
    0.4060   -2.1547    0.0000 C   0  0  0  0  0  0  0  0  0  0  0  0
    4.0908   -5.4023    0.0000 C   0  0  0  0  0  0  0  0  0  0  0  0
    2.9042   -0.7182    0.0000 C   0  0  0  0  0  0  0  0  0  0  0  0
    0.0000   -2.8729    0.0000 C   0  0  0  0  0  0  0  0  0  0  0  0
    3.6224   -1.1242    0.0000 C   0  0  0  0  0  0  0  0  0  0  0  0
    3.3101    0.0000    0.0000 C   0  0  0  0  0  0  0  0  0  0  0  0
    2.1860   -0.3123    0.0000 C   0  0  0  0  0  0  0  0  0  0  0  0
    0.4060   -3.5911    0.0000 C   0  0  0  0  0  0  0  0  0  0  0  0
  1 11  1  0  0  0  0
  1 12  1  0  0  0  0
 13  2  1  6  0  0  0
 11  3  1  1  0  0  0
  3 15  1  0  0  0  0
  4 16  1  0  0  0  0
  4 19  1  0  0  0  0
 14  5  1  1  0  0  0
  6 16  2  0  0  0  0
  7 18  1  0  0  0  0
 10  8  1  1  0  0  0
  8 12  2  0  0  0  0
  9 12  1  0  0  0  0
  9 16  1  0  0  0  0
  9 17  1  0  0  0  0
 10 11  1  0  0  0  0
 10 13  1  0  0  0  0
 13 14  1  0  0  0  0
 14 15  1  0  0  0  0
 15 18  1  6  0  0  0
 17 20  1  0  0  0  0
 19 21  1  0  0  0  0
 19 22  1  0  0  0  0
 19 23  1  0  0  0  0
 20 24  2  0  0  0  0
M  END
> <PUBCHEM_COMPOUND_ID_TYPE>
0

> <PUBCHEM_TOTAL_CHARGE>
0

> <PUBCHEM_SUBSTANCE_ID>
310934176

> <PUBCHEM_SUBSTANCE_VERSION>
1

> <PUBCHEM_EXT_DATASOURCE_NAME>
4488

> <PUBCHEM_EXT_DATASOURCE_REGID>
SCHEMBL16111627

> <PUBCHEM_SUBSTANCE_COMMENT>
InChI=1S/C15H23FN2O5S/c1-5-6-18(14(21)23-15(2,3)4)13-17-10-9(16)11(20)8(7-19)22-12(10)24-13/h5,8-12,19-20H,1,6-7H2,2-4H3/t8-,9-,10-,11-,12-/m1/s1
InChIKey=MZASBEVPIPZSLC-LZQZFOIKSA-N

> <PUBCHEM_SUBSTANCE_SYNONYM>
SCHEMBL16111627

> <PUBCHEM_XREF_EXT_ID>
SCHEMBL16111627

> <PUBCHEM_EXT_DATASOURCE_URL>
https://www.surechembl.org/

> <PUBCHEM_EXT_SUBSTANCE_URL>
https://www.surechembl.org/chemical/SCHEMBL16111627

> <PUBCHEM_CID_ASSOCIATIONS>
117602450  1

> <PUBCHEM_COORDINATE_TYPE>
1
3

> <PUBCHEM_BONDANNOTATIONS>
15  18  6
13  2  6
11  3  5
14  5  5
10  8  5

$$$$
