310948646
  -OEChem-07211613022D

 33 37  0     1  0  0  0  0  0999 V2000
   -2.5885    2.2795    0.0000 O   0  0  0  0  0  0  0  0  0  0  0  0
    0.1716    2.1422    0.0000 N   0  0  0  0  0  0  0  0  0  0  0  0
   -0.1579    1.3870    0.0000 N   0  0  0  0  0  0  0  0  0  0  0  0
   -1.5311    0.8651    0.0000 N   0  0  0  0  0  0  0  0  0  0  0  0
   -1.8744    3.5291    0.0000 N   0  0  0  0  0  0  0  0  0  0  0  0
   -0.8445   -2.9386    0.0000 N   0  0  0  0  0  0  0  0  0  0  0  0
   -0.0893   -2.6091    0.0000 N   0  0  0  0  0  0  0  0  0  0  0  0
   -0.7621   -3.7626    0.0000 N   0  0  0  0  0  0  0  0  0  0  0  0
    1.0230    0.1373    0.0000 N   0  0  0  0  0  0  0  0  0  0  0  0
   -1.1603    2.2933    0.0000 C   0  0  0  0  0  0  0  0  0  0  0  0
   -0.4463    2.7052    0.0000 C   0  0  0  0  0  0  0  0  0  0  0  0
   -0.9818    1.4831    0.0000 C   0  0  0  0  0  0  0  0  0  0  0  0
    0.9818    2.3207    0.0000 C   0  0  3  0  0  0  0  0  0  0  0  0
   -1.8744    2.7052    0.0000 C   0  0  0  0  0  0  0  0  0  0  0  0
   -0.4325    3.5154    0.0000 C   0  0  0  0  0  0  0  0  0  0  0  0
    1.5311    1.7166    0.0000 C   0  0  3  0  0  0  0  0  0  0  0  0
   -1.5723   -2.5404    0.0000 C   0  0  0  0  0  0  0  0  0  0  0  0
   -1.5586   -0.0549    0.0000 C   0  0  0  0  0  0  0  0  0  0  0  0
   -1.5449   -1.7028    0.0000 C   0  0  0  0  0  0  0  0  0  0  0  0
   -1.1741    3.9274    0.0000 C   0  0  0  0  0  0  0  0  0  0  0  0
    1.2427    3.0897    0.0000 C   0  0  0  0  0  0  0  0  0  0  0  0
   -2.2727   -0.4806    0.0000 C   0  0  0  0  0  0  0  0  0  0  0  0
   -0.8445   -0.4806    0.0000 C   0  0  0  0  0  0  0  0  0  0  0  0
   -2.2727   -1.2908    0.0000 C   0  0  0  0  0  0  0  0  0  0  0  0
   -0.8445   -1.2908    0.0000 C   0  0  0  0  0  0  0  0  0  0  0  0
    2.3413    1.8813    0.0000 C   0  0  0  0  0  0  0  0  0  0  0  0
    1.2702    0.9338    0.0000 C   0  0  0  0  0  0  0  0  0  0  0  0
    2.0530    3.2682    0.0000 C   0  0  0  0  0  0  0  0  0  0  0  0
   -2.2727   -2.9661    0.0000 C   0  0  0  0  0  0  0  0  0  0  0  0
   -1.6135   -3.3644    0.0000 C   0  0  0  0  0  0  0  0  0  0  0  0
    2.5885    2.6777    0.0000 C   0  0  0  0  0  0  0  0  0  0  0  0
    0.0481   -3.9274    0.0000 C   0  0  0  0  0  0  0  0  0  0  0  0
    0.4600   -3.2133    0.0000 C   0  0  0  0  0  0  0  0  0  0  0  0
  1 14  2  0  0  0  0
  2  3  1  0  0  0  0
  2 11  1  0  0  0  0
 13  2  1  1  0  0  0
  3 12  2  0  0  0  0
  4 12  1  0  0  0  0
  4 18  1  0  0  0  0
  5 14  1  0  0  0  0
  5 20  1  0  0  0  0
  6  7  1  0  0  0  0
  6  8  1  0  0  0  0
  6 17  1  0  0  0  0
  7 33  2  0  0  0  0
  8 32  2  0  0  0  0
  9 27  3  0  0  0  0
 10 11  2  0  0  0  0
 10 12  1  0  0  0  0
 10 14  1  0  0  0  0
 11 15  1  0  0  0  0
 13 16  1  0  0  0  0
 13 21  1  0  0  0  0
 15 20  2  0  0  0  0
 16 26  1  0  0  0  0
 16 27  1  6  0  0  0
 17 19  1  0  0  0  0
 17 29  1  0  0  0  0
 17 30  1  0  0  0  0
 18 22  2  0  0  0  0
 18 23  1  0  0  0  0
 19 24  2  0  0  0  0
 19 25  1  0  0  0  0
 21 28  1  0  0  0  0
 22 24  1  0  0  0  0
 23 25  2  0  0  0  0
 26 31  1  0  0  0  0
 28 31  1  0  0  0  0
 32 33  1  0  0  0  0
M  END
> <PUBCHEM_COMPOUND_ID_TYPE>
0

> <PUBCHEM_TOTAL_CHARGE>
0

> <PUBCHEM_SUBSTANCE_ID>
310948646

> <PUBCHEM_SUBSTANCE_VERSION>
1

> <PUBCHEM_EXT_DATASOURCE_NAME>
4488

> <PUBCHEM_EXT_DATASOURCE_REGID>
SCHEMBL16126830

> <PUBCHEM_SUBSTANCE_COMMENT>
InChI=1S/C24H26N8O/c1-24(2,32-27-13-14-28-32)17-7-9-18(10-8-17)29-22-21-20(11-12-26-23(21)33)31(30-22)19-6-4-3-5-16(19)15-25/h7-14,16,19H,3-6H2,1-2H3,(H,26,33)(H,29,30)/t16-,19+/m1/s1
InChIKey=ONNLUDOADUVDMT-APWZRJJASA-N

> <PUBCHEM_SUBSTANCE_SYNONYM>
SCHEMBL16126830

> <PUBCHEM_XREF_EXT_ID>
SCHEMBL16126830

> <PUBCHEM_EXT_DATASOURCE_URL>
https://www.surechembl.org/

> <PUBCHEM_EXT_SUBSTANCE_URL>
https://www.surechembl.org/chemical/SCHEMBL16126830

> <PUBCHEM_CID_ASSOCIATIONS>
117614190  1

> <PUBCHEM_COORDINATE_TYPE>
1
3

> <PUBCHEM_BONDANNOTATIONS>
16  27  6
13  2  5

$$$$
