310942210
  -OEChem-07211613022D

 31 33  0     1  0  0  0  0  0999 V2000
    4.0165    1.4493    0.0000 Cl  0  0  0  0  0  0  0  0  0  0  0  0
    2.5799   -1.0370    0.0000 F   0  0  0  0  0  0  0  0  0  0  0  0
    4.0041   -0.2124    0.0000 O   0  0  0  0  0  0  0  0  0  0  0  0
   -1.7678   -1.0494    0.0000 O   0  0  0  0  0  0  0  0  0  0  0  0
    0.4185    0.2124    0.0000 N   0  0  0  0  0  0  0  0  0  0  0  0
   -4.6287   -0.2124    0.0000 N   0  0  0  0  0  0  0  0  0  0  0  0
   -2.4674    0.2124    0.0000 N   0  0  0  0  0  0  0  0  0  0  0  0
    1.8677    0.2249    0.0000 C   0  0  0  0  0  0  0  0  0  0  0  0
    2.5799   -0.1999    0.0000 C   0  0  0  0  0  0  0  0  0  0  0  0
    3.2920    0.2124    0.0000 C   0  0  0  0  0  0  0  0  0  0  0  0
    3.3044    1.0494    0.0000 C   0  0  0  0  0  0  0  0  0  0  0  0
    1.1307   -0.1999    0.0000 C   0  0  3  0  0  0  0  0  0  0  0  0
    1.8677    1.0370    0.0000 C   0  0  0  0  0  0  0  0  0  0  0  0
    2.5924    1.4493    0.0000 C   0  0  0  0  0  0  0  0  0  0  0  0
    4.7288    0.2124    0.0000 C   0  0  0  0  0  0  0  0  0  0  0  0
    1.1307   -1.0494    0.0000 C   0  0  0  0  0  0  0  0  0  0  0  0
   -0.3061   -0.1999    0.0000 C   0  0  3  0  0  0  0  0  0  0  0  0
    5.4658   -0.1999    0.0000 C   0  0  0  0  0  0  0  0  0  0  0  0
    4.7537    1.0370    0.0000 C   0  0  0  0  0  0  0  0  0  0  0  0
   -1.0307    0.1999    0.0000 C   0  0  0  0  0  0  0  0  0  0  0  0
    6.1778    0.2124    0.0000 C   0  0  0  0  0  0  0  0  0  0  0  0
    5.4783    1.4493    0.0000 C   0  0  0  0  0  0  0  0  0  0  0  0
   -1.7428   -0.1874    0.0000 C   0  0  0  0  0  0  0  0  0  0  0  0
   -5.3659    0.2124    0.0000 C   0  0  0  0  0  0  0  0  0  0  0  0
    0.4311   -1.4493    0.0000 C   0  0  0  0  0  0  0  0  0  0  0  0
   -0.2936   -1.0370    0.0000 C   0  0  0  0  0  0  0  0  0  0  0  0
    6.1778    1.0370    0.0000 C   0  0  0  0  0  0  0  0  0  0  0  0
   -5.7656    0.9120    0.0000 C   0  0  0  0  0  0  0  0  0  0  0  0
   -6.1778    0.2124    0.0000 C   0  0  0  0  0  0  0  0  0  0  0  0
   -3.9166    0.1999    0.0000 C   0  0  0  0  0  0  0  0  0  0  0  0
   -3.1796   -0.1999    0.0000 C   0  0  0  0  0  0  0  0  0  0  0  0
  1 11  1  0  0  0  0
  2  9  1  0  0  0  0
  3 10  1  0  0  0  0
  3 15  1  0  0  0  0
  4 23  2  0  0  0  0
 12  5  1  1  0  0  0
  5 17  1  0  0  0  0
  6 24  1  0  0  0  0
  6 30  1  0  0  0  0
  7 23  1  0  0  0  0
  7 31  1  0  0  0  0
  8  9  1  0  0  0  0
  8 12  1  0  0  0  0
  8 13  2  0  0  0  0
  9 10  2  0  0  0  0
 10 11  1  0  0  0  0
 11 14  2  0  0  0  0
 12 16  1  0  0  0  0
 13 14  1  0  0  0  0
 15 18  2  0  0  0  0
 15 19  1  0  0  0  0
 16 25  1  0  0  0  0
 17 20  1  0  0  0  0
 17 26  1  1  0  0  0
 18 21  1  0  0  0  0
 19 22  2  0  0  0  0
 20 23  1  0  0  0  0
 21 27  2  0  0  0  0
 22 27  1  0  0  0  0
 24 28  1  0  0  0  0
 24 29  1  0  0  0  0
 28 29  1  0  0  0  0
 30 31  1  0  0  0  0
M  END
> <PUBCHEM_COMPOUND_ID_TYPE>
0

> <PUBCHEM_TOTAL_CHARGE>
0

> <PUBCHEM_SUBSTANCE_ID>
310942210

> <PUBCHEM_SUBSTANCE_VERSION>
1

> <PUBCHEM_EXT_DATASOURCE_NAME>
4488

> <PUBCHEM_EXT_DATASOURCE_REGID>
SCHEMBL16120245

> <PUBCHEM_SUBSTANCE_COMMENT>
InChI=1S/C24H31ClFN3O2/c1-3-21(29-16(2)15-22(30)28-14-13-27-17-9-10-17)19-11-12-20(25)24(23(19)26)31-18-7-5-4-6-8-18/h4-8,11-12,16-17,21,27,29H,3,9-10,13-15H2,1-2H3,(H,28,30)/t16-,21+/m0/s1
InChIKey=DRIXSYXIRYRTST-HRAATJIYSA-N

> <PUBCHEM_SUBSTANCE_SYNONYM>
SCHEMBL16120245

> <PUBCHEM_XREF_EXT_ID>
SCHEMBL16120245

> <PUBCHEM_EXT_DATASOURCE_URL>
https://www.surechembl.org/

> <PUBCHEM_EXT_SUBSTANCE_URL>
https://www.surechembl.org/chemical/SCHEMBL16120245

> <PUBCHEM_CID_ASSOCIATIONS>
117608861  1

> <PUBCHEM_COORDINATE_TYPE>
1
3

> <PUBCHEM_BONDANNOTATIONS>
17  26  5
12  5  5

$$$$
