310947408
  -OEChem-07211613022D

 21 23  0     1  0  0  0  0  0999 V2000
   -1.0689    0.2004    0.0000 O   0  0  0  0  0  0  0  0  0  0  0  0
   -1.0689   -2.2788    0.0000 O   0  0  0  0  0  0  0  0  0  0  0  0
   -2.4941   -2.2788    0.0000 O   0  0  0  0  0  0  0  0  0  0  0  0
    2.5089    1.4475    0.0000 O   0  0  0  0  0  0  0  0  0  0  0  0
    1.0838    2.2788    0.0000 O   0  0  0  0  0  0  0  0  0  0  0  0
   -1.7963   -1.0318    0.0000 C   0  0  0  0  0  0  0  0  0  0  0  0
   -1.7815   -0.2153    0.0000 C   0  0  0  0  0  0  0  0  0  0  0  0
   -0.3563   -0.2153    0.0000 C   0  0  3  0  0  0  0  0  0  0  0  0
   -1.0689   -1.4326    0.0000 C   0  0  0  0  0  0  0  0  0  0  0  0
    0.3712    0.2004    0.0000 C   0  0  0  0  0  0  0  0  0  0  0  0
   -0.3712   -1.0466    0.0000 C   0  0  0  0  0  0  0  0  0  0  0  0
   -2.5089   -1.4475    0.0000 C   0  0  0  0  0  0  0  0  0  0  0  0
   -2.5089    0.1856    0.0000 C   0  0  0  0  0  0  0  0  0  0  0  0
    0.3712    1.0169    0.0000 C   0  0  0  0  0  0  0  0  0  0  0  0
    1.0689    1.4475    0.0000 C   0  0  0  0  0  0  0  0  0  0  0  0
    1.0689   -0.2004    0.0000 C   0  0  0  0  0  0  0  0  0  0  0  0
    1.7963    1.0318    0.0000 C   0  0  0  0  0  0  0  0  0  0  0  0
   -3.2067   -1.0466    0.0000 C   0  0  0  0  0  0  0  0  0  0  0  0
    1.7815    0.2004    0.0000 C   0  0  0  0  0  0  0  0  0  0  0  0
   -3.2067   -0.2153    0.0000 C   0  0  0  0  0  0  0  0  0  0  0  0
    3.2067    1.0318    0.0000 C   0  0  0  0  0  0  0  0  0  0  0  0
  1  7  1  0  0  0  0
  8  1  1  6  0  0  0
  2  9  2  0  0  0  0
  3 12  1  0  0  0  0
  4 17  1  0  0  0  0
  4 21  1  0  0  0  0
  5 15  1  0  0  0  0
  6  7  1  0  0  0  0
  6  9  1  0  0  0  0
  6 12  2  0  0  0  0
  7 13  2  0  0  0  0
  8 10  1  0  0  0  0
  8 11  1  0  0  0  0
  9 11  1  0  0  0  0
 10 14  1  0  0  0  0
 10 16  2  0  0  0  0
 12 18  1  0  0  0  0
 13 20  1  0  0  0  0
 14 15  2  0  0  0  0
 15 17  1  0  0  0  0
 16 19  1  0  0  0  0
 17 19  2  0  0  0  0
 18 20  2  0  0  0  0
M  END
> <PUBCHEM_COMPOUND_ID_TYPE>
0

> <PUBCHEM_TOTAL_CHARGE>
0

> <PUBCHEM_SUBSTANCE_ID>
310947408

> <PUBCHEM_SUBSTANCE_VERSION>
1

> <PUBCHEM_EXT_DATASOURCE_NAME>
4488

> <PUBCHEM_EXT_DATASOURCE_REGID>
SCHEMBL16125564

> <PUBCHEM_SUBSTANCE_COMMENT>
InChI=1S/C16H14O5/c1-20-13-6-5-9(7-11(13)18)15-8-12(19)16-10(17)3-2-4-14(16)21-15/h2-7,15,17-18H,8H2,1H3/t15-/m0/s1
InChIKey=RLUWMAPPHYMOQC-HNNXBMFYSA-N

> <PUBCHEM_SUBSTANCE_SYNONYM>
SCHEMBL16125564

> <PUBCHEM_XREF_EXT_ID>
SCHEMBL16125564

> <PUBCHEM_EXT_DATASOURCE_URL>
https://www.surechembl.org/

> <PUBCHEM_EXT_SUBSTANCE_URL>
https://www.surechembl.org/chemical/SCHEMBL16125564

> <PUBCHEM_CID_ASSOCIATIONS>
86303424  1

> <PUBCHEM_COORDINATE_TYPE>
1
3

> <PUBCHEM_BONDANNOTATIONS>
8  1  6

$$$$
