310934900
  -OEChem-07211613022D

 27 30  0     1  0  0  0  0  0999 V2000
   -2.1434   -0.4125    0.0000 F   0  0  0  0  0  0  0  0  0  0  0  0
    3.1464    2.6108    0.0000 F   0  0  0  0  0  0  0  0  0  0  0  0
    0.0000    0.0000    0.0000 O   0  0  0  0  0  0  0  0  0  0  0  0
    1.4965    1.6527    0.0000 O   0  0  0  0  0  0  0  0  0  0  0  0
    4.0726    0.6343    0.0000 N   0  0  0  0  0  0  0  0  0  0  0  0
    0.1375    1.2111    0.0000 N   0  0  0  0  0  0  0  0  0  0  0  0
    0.7144   -0.4125    0.0000 C   0  0  3  0  0  0  0  0  0  0  0  0
    1.1994    0.2549    0.0000 C   0  0  0  0  0  0  0  0  0  0  0  0
    1.9840    0.0000    0.0000 C   0  0  0  0  0  0  0  0  0  0  0  0
    0.0000   -0.8250    0.0000 C   0  0  0  0  0  0  0  0  0  0  0  0
    2.6514    0.4849    0.0000 C   0  0  0  0  0  0  0  0  0  0  0  0
    1.1994   -1.0799    0.0000 C   0  0  0  0  0  0  0  0  0  0  0  0
    1.9840   -0.8250    0.0000 C   0  0  0  0  0  0  0  0  0  0  0  0
    3.4051    0.1494    0.0000 C   0  0  0  0  0  0  0  0  0  0  0  0
    0.9444    1.0396    0.0000 C   0  0  0  0  0  0  0  0  0  0  0  0
   -0.7144   -0.4125    0.0000 C   0  0  0  0  0  0  0  0  0  0  0  0
    3.4913   -0.6711    0.0000 C   0  0  0  0  0  0  0  0  0  0  0  0
    2.5652    1.3054    0.0000 C   0  0  0  0  0  0  0  0  0  0  0  0
    0.0000   -1.6500    0.0000 C   0  0  0  0  0  0  0  0  0  0  0  0
   -1.4290   -0.8250    0.0000 C   0  0  0  0  0  0  0  0  0  0  0  0
    3.2326    1.7903    0.0000 C   0  0  0  0  0  0  0  0  0  0  0  0
    3.1558   -1.4248    0.0000 C   0  0  0  0  0  0  0  0  0  0  0  0
    3.9763   -1.3386    0.0000 C   0  0  0  0  0  0  0  0  0  0  0  0
   -0.7144   -2.0625    0.0000 C   0  0  0  0  0  0  0  0  0  0  0  0
    3.9863    1.4548    0.0000 C   0  0  0  0  0  0  0  0  0  0  0  0
   -1.4290   -1.6500    0.0000 C   0  0  0  0  0  0  0  0  0  0  0  0
   -0.7144    0.4125    0.0000 C   0  0  0  0  0  0  0  0  0  0  0  0
  1 20  1  0  0  0  0
  2 21  1  0  0  0  0
  7  3  1  1  0  0  0
  4 15  2  0  0  0  0
  5 14  2  0  0  0  0
  5 25  1  0  0  0  0
  6 15  1  0  0  0  0
  7  8  1  0  0  0  0
  7 10  1  0  0  0  0
  7 12  1  0  0  0  0
  8  9  2  0  0  0  0
  8 15  1  0  0  0  0
  9 11  1  0  0  0  0
  9 13  1  0  0  0  0
 10 16  1  0  0  0  0
 10 19  2  0  0  0  0
 11 14  1  0  0  0  0
 11 18  2  0  0  0  0
 12 13  1  0  0  0  0
 14 17  1  0  0  0  0
 16 20  2  0  0  0  0
 16 27  1  0  0  0  0
 17 22  1  0  0  0  0
 17 23  1  0  0  0  0
 18 21  1  0  0  0  0
 19 24  1  0  0  0  0
 20 26  1  0  0  0  0
 21 25  2  0  0  0  0
 22 23  1  0  0  0  0
 24 26  2  0  0  0  0
M  END
> <PUBCHEM_COMPOUND_ID_TYPE>
0

> <PUBCHEM_TOTAL_CHARGE>
0

> <PUBCHEM_SUBSTANCE_ID>
310934900

> <PUBCHEM_SUBSTANCE_VERSION>
1

> <PUBCHEM_EXT_DATASOURCE_NAME>
4488

> <PUBCHEM_EXT_DATASOURCE_REGID>
SCHEMBL16112413

> <PUBCHEM_SUBSTANCE_COMMENT>
InChI=1S/C21H20F2N2O2/c1-11-16(3-2-4-17(11)23)21(27)8-7-14(18(21)20(24)26)15-9-13(22)10-25-19(15)12-5-6-12/h2-4,9-10,12,27H,5-8H2,1H3,(H2,24,26)/t21-/m0/s1
InChIKey=DTCOMVVTEDGLLN-NRFANRHFSA-N

> <PUBCHEM_SUBSTANCE_SYNONYM>
SCHEMBL16112413

> <PUBCHEM_XREF_EXT_ID>
SCHEMBL16112413

> <PUBCHEM_EXT_DATASOURCE_URL>
https://www.surechembl.org/

> <PUBCHEM_EXT_SUBSTANCE_URL>
https://www.surechembl.org/chemical/SCHEMBL16112413

> <PUBCHEM_CID_ASSOCIATIONS>
117603027  1

> <PUBCHEM_COORDINATE_TYPE>
1
3

> <PUBCHEM_BONDANNOTATIONS>
7  3  5

$$$$
