310941260
  -OEChem-07211613022D

 44 47  0     1  0  0  0  0  0999 V2000
    5.0549    0.6712    0.0000 O   0  0  0  0  0  0  0  0  0  0  0  0
    3.9363   -1.2724    0.0000 O   0  0  0  0  0  0  0  0  0  0  0  0
    1.7968    0.7831    0.0000 O   0  0  0  0  0  0  0  0  0  0  0  0
   -0.3565   -1.2724    0.0000 O   0  0  0  0  0  0  0  0  0  0  0  0
   -0.3565    1.1886    0.0000 O   0  0  0  0  0  0  0  0  0  0  0  0
   -2.4960    0.7831    0.0000 O   0  0  0  0  0  0  0  0  0  0  0  0
    3.9363   -2.9224    0.0000 O   0  0  0  0  0  0  0  0  0  0  0  0
   -5.3485    0.7831    0.0000 O   0  0  0  0  0  0  0  0  0  0  0  0
    2.5100   -0.4614    0.0000 N   0  0  0  0  0  0  0  0  0  0  0  0
    0.3705   -0.0419    0.0000 N   0  0  0  0  0  0  0  0  0  0  0  0
   -1.7688   -0.4614    0.0000 N   0  0  0  0  0  0  0  0  0  0  0  0
   -3.9223   -0.0419    0.0000 N   0  0  0  0  0  0  0  0  0  0  0  0
    4.6354    0.0140    0.0000 C   0  0  3  0  0  0  0  0  0  0  0  0
    3.9363   -0.4195    0.0000 C   0  0  0  0  0  0  0  0  0  0  0  0
    4.2578    0.6851    0.0000 C   0  0  0  0  0  0  0  0  0  0  0  0
    3.2091   -0.0140    0.0000 C   0  0  3  0  0  0  0  0  0  0  0  0
    5.3485   -0.4195    0.0000 C   0  0  0  0  0  0  0  0  0  0  0  0
    3.2231    1.3004    0.0000 C   0  0  0  0  0  0  0  0  0  0  0  0
    1.7968   -0.0419    0.0000 C   0  0  0  0  0  0  0  0  0  0  0  0
    1.0837   -0.4195    0.0000 C   0  0  3  0  0  0  0  0  0  0  0  0
    2.4960    1.7199    0.0000 C   0  0  0  0  0  0  0  0  0  0  0  0
   -0.3286   -0.4055    0.0000 C   0  0  0  0  0  0  0  0  0  0  0  0
    1.0697   -1.2724    0.0000 C   0  0  0  0  0  0  0  0  0  0  0  0
   -1.0558   -0.0140    0.0000 C   0  0  3  0  0  0  0  0  0  0  0  0
    1.8108   -1.6640    0.0000 C   0  0  0  0  0  0  0  0  0  0  0  0
    1.8108    1.3144    0.0000 C   0  0  0  0  0  0  0  0  0  0  0  0
    2.5100    2.5309    0.0000 C   0  0  0  0  0  0  0  0  0  0  0  0
   -1.0558    0.8110    0.0000 C   0  0  3  0  0  0  0  0  0  0  0  0
    2.4960   -1.2724    0.0000 C   0  0  0  0  0  0  0  0  0  0  0  0
    1.8108   -2.4890    0.0000 C   0  0  0  0  0  0  0  0  0  0  0  0
   -2.4960   -0.0419    0.0000 C   0  0  0  0  0  0  0  0  0  0  0  0
    1.0977    1.7199    0.0000 C   0  0  0  0  0  0  0  0  0  0  0  0
    1.7968    2.9224    0.0000 C   0  0  0  0  0  0  0  0  0  0  0  0
    3.2231   -2.4750    0.0000 C   0  0  0  0  0  0  0  0  0  0  0  0
    3.2231   -1.6779    0.0000 C   0  0  0  0  0  0  0  0  0  0  0  0
    2.5240   -2.8945    0.0000 C   0  0  0  0  0  0  0  0  0  0  0  0
    1.0977    2.5309    0.0000 C   0  0  0  0  0  0  0  0  0  0  0  0
   -3.1811   -0.4195    0.0000 C   0  0  0  0  0  0  0  0  0  0  0  0
   -1.7828    1.2026    0.0000 C   0  0  0  0  0  0  0  0  0  0  0  0
   -3.9082    0.7970    0.0000 C   0  0  0  0  0  0  0  0  0  0  0  0
   -4.6074   -0.4195    0.0000 C   0  0  0  0  0  0  0  0  0  0  0  0
   -4.6354    1.2165    0.0000 C   0  0  0  0  0  0  0  0  0  0  0  0
   -5.3345   -0.0280    0.0000 C   0  0  0  0  0  0  0  0  0  0  0  0
    4.6633   -2.4750    0.0000 C   0  0  0  0  0  0  0  0  0  0  0  0
  1 13  1  0  0  0  0
  1 15  1  0  0  0  0
  2 14  2  0  0  0  0
  3 19  2  0  0  0  0
  4 22  2  0  0  0  0
 28  5  1  1  0  0  0
  6 31  2  0  0  0  0
  7 34  1  0  0  0  0
  7 44  1  0  0  0  0
  8 42  1  0  0  0  0
  8 43  1  0  0  0  0
 16  9  1  1  0  0  0
  9 19  1  0  0  0  0
 20 10  1  6  0  0  0
 10 22  1  0  0  0  0
 24 11  1  1  0  0  0
 11 31  1  0  0  0  0
 12 38  1  0  0  0  0
 12 40  1  0  0  0  0
 12 41  1  0  0  0  0
 13 14  1  1  0  0  0
 13 15  1  0  0  0  0
 13 17  1  6  0  0  0
 14 16  1  0  0  0  0
 16 18  1  0  0  0  0
 18 21  1  0  0  0  0
 19 20  1  0  0  0  0
 20 23  1  0  0  0  0
 21 26  2  0  0  0  0
 21 27  1  0  0  0  0
 22 24  1  0  0  0  0
 23 25  1  0  0  0  0
 24 28  1  0  0  0  0
 25 29  2  0  0  0  0
 25 30  1  0  0  0  0
 26 32  1  0  0  0  0
 27 33  2  0  0  0  0
 28 39  1  0  0  0  0
 29 35  1  0  0  0  0
 30 36  2  0  0  0  0
 31 38  1  0  0  0  0
 32 37  2  0  0  0  0
 33 37  1  0  0  0  0
 34 35  2  0  0  0  0
 34 36  1  0  0  0  0
 40 42  1  0  0  0  0
 41 43  1  0  0  0  0
M  END
> <PUBCHEM_COMPOUND_ID_TYPE>
0

> <PUBCHEM_TOTAL_CHARGE>
0

> <PUBCHEM_SUBSTANCE_ID>
310941260

> <PUBCHEM_SUBSTANCE_VERSION>
1

> <PUBCHEM_EXT_DATASOURCE_NAME>
4488

> <PUBCHEM_EXT_DATASOURCE_REGID>
SCHEMBL16119220

> <PUBCHEM_SUBSTANCE_COMMENT>
InChI=1S/C32H42N4O8/c1-21(37)28(35-27(38)19-36-13-15-43-16-14-36)31(41)34-26(18-23-9-11-24(42-3)12-10-23)30(40)33-25(29(39)32(2)20-44-32)17-22-7-5-4-6-8-22/h4-12,21,25-26,28,37H,13-20H2,1-3H3,(H,33,40)(H,34,41)(H,35,38)/t21-,25+,26+,28+,32-/m1/s1
InChIKey=WIIFCSJXHGZNEG-RDZDJEAOSA-N

> <PUBCHEM_SUBSTANCE_SYNONYM>
SCHEMBL16119220

> <PUBCHEM_XREF_EXT_ID>
SCHEMBL16119220

> <PUBCHEM_EXT_DATASOURCE_URL>
https://www.surechembl.org/

> <PUBCHEM_EXT_SUBSTANCE_URL>
https://www.surechembl.org/chemical/SCHEMBL16119220

> <PUBCHEM_CID_ASSOCIATIONS>
117608119  1

> <PUBCHEM_COORDINATE_TYPE>
1
3

> <PUBCHEM_BONDANNOTATIONS>
20  10  6
24  11  5
13  14  5
13  17  6
28  5  5
16  9  5

$$$$
