310935089
  -OEChem-07211613022D

 39 44  0     1  0  0  0  0  0999 V2000
    2.9004   -7.0743    0.0000 O   0  0  0  0  0  0  0  0  0  0  0  0
    5.8009   -3.7494    0.0000 O   0  0  0  0  0  0  0  0  0  0  0  0
    0.7428   -3.3249    0.0000 N   0  0  3  0  0  0  0  0  0  0  0  0
    0.0000   -2.0869    0.0000 N   0  0  0  0  0  0  0  0  0  0  0  0
    0.7428   -0.8489    0.0000 N   0  0  0  0  0  0  0  0  0  0  0  0
    3.6079   -5.8009    0.0000 N   0  0  0  0  0  0  0  0  0  0  0  0
    5.0581   -2.5114    0.0000 N   0  0  0  0  0  0  0  0  0  0  0  0
    5.0581   -4.9874    0.0000 N   0  0  3  0  0  0  0  0  0  0  0  0
    1.4502   -2.0869    0.0000 C   0  0  0  0  0  0  0  0  0  0  0  0
    0.7428   -2.5114    0.0000 C   0  0  0  0  0  0  0  0  0  0  0  0
    1.4502   -1.2380    0.0000 C   0  0  0  0  0  0  0  0  0  0  0  0
    2.8651   -2.0869    0.0000 C   0  0  0  0  0  0  0  0  0  0  0  0
    2.1577   -0.8489    0.0000 C   0  0  0  0  0  0  0  0  0  0  0  0
    1.4502   -4.5983    0.0000 C   0  0  0  0  0  0  0  0  0  0  0  0
    2.1577   -2.5114    0.0000 C   0  0  0  0  0  0  0  0  0  0  0  0
    0.7428   -5.0228    0.0000 C   0  0  0  0  0  0  0  0  0  0  0  0
    1.4502   -3.7494    0.0000 C   0  0  0  0  0  0  0  0  0  0  0  0
    2.8651   -1.2380    0.0000 C   0  0  0  0  0  0  0  0  0  0  0  0
    0.0354   -3.7494    0.0000 C   0  0  0  0  0  0  0  0  0  0  0  0
    2.1930   -5.8009    0.0000 C   0  0  0  0  0  0  0  0  0  0  0  0
    3.6079   -2.5114    0.0000 C   0  0  0  0  0  0  0  0  0  0  0  0
    2.1577   -4.9874    0.0000 C   0  0  0  0  0  0  0  0  0  0  0  0
    0.0354   -4.5983    0.0000 C   0  0  0  0  0  0  0  0  0  0  0  0
    0.0000   -1.2380    0.0000 C   0  0  0  0  0  0  0  0  0  0  0  0
    2.9004   -6.2254    0.0000 C   0  0  0  0  0  0  0  0  0  0  0  0
    0.7428   -5.8009    0.0000 C   0  0  0  0  0  0  0  0  0  0  0  0
    1.4502   -6.2254    0.0000 C   0  0  0  0  0  0  0  0  0  0  0  0
    2.1577    0.0000    0.0000 C   0  0  0  0  0  0  0  0  0  0  0  0
    4.3507   -2.0869    0.0000 C   0  0  0  0  0  0  0  0  0  0  0  0
    3.6433   -3.3249    0.0000 C   0  0  0  0  0  0  0  0  0  0  0  0
    3.6079   -4.9874    0.0000 C   0  0  0  0  0  0  0  0  0  0  0  0
    4.3507   -6.2607    0.0000 C   0  0  0  0  0  0  0  0  0  0  0  0
    4.3507   -4.5629    0.0000 C   0  0  3  0  0  0  0  0  0  0  0  0
    5.0935   -3.3603    0.0000 C   0  0  0  0  0  0  0  0  0  0  0  0
    4.4922   -3.9262    0.0000 C   0  0  0  0  0  0  0  0  0  0  0  0
    5.0581   -5.8363    0.0000 C   0  0  0  0  0  0  0  0  0  0  0  0
    4.3507   -3.7494    0.0000 C   0  0  0  0  0  0  0  0  0  0  0  0
    5.8009   -4.5629    0.0000 C   0  0  0  0  0  0  0  0  0  0  0  0
    6.5084   -3.3249    0.0000 C   0  0  0  0  0  0  0  0  0  0  0  0
  1 25  2  0  0  0  0
  2 34  1  0  0  0  0
  2 39  1  0  0  0  0
  3 10  1  0  0  0  0
  3 17  1  0  0  0  0
  3 19  1  0  0  0  0
  4 10  1  0  0  0  0
  4 24  2  0  0  0  0
  5 11  2  0  0  0  0
  5 24  1  0  0  0  0
  6 25  1  0  0  0  0
  6 31  1  0  0  0  0
  6 32  1  0  0  0  0
  7 29  1  0  0  0  0
  7 34  2  0  0  0  0
  8 33  1  0  0  0  0
  8 36  1  0  0  0  0
  8 38  1  0  0  0  0
  9 10  2  0  0  0  0
  9 11  1  0  0  0  0
  9 15  1  0  0  0  0
 11 13  1  0  0  0  0
 12 15  2  0  0  0  0
 12 18  1  0  0  0  0
 12 21  1  0  0  0  0
 13 18  2  0  0  0  0
 13 28  1  0  0  0  0
 14 16  2  0  0  0  0
 14 17  1  0  0  0  0
 14 22  1  0  0  0  0
 16 23  1  0  0  0  0
 16 26  1  0  0  0  0
 19 23  1  0  0  0  0
 20 22  2  0  0  0  0
 20 25  1  0  0  0  0
 20 27  1  0  0  0  0
 21 29  2  0  0  0  0
 21 30  1  0  0  0  0
 26 27  2  0  0  0  0
 30 35  2  0  0  0  0
 31 33  1  0  0  0  0
 32 36  1  0  0  0  0
 33 37  1  6  0  0  0
 34 35  1  0  0  0  0
M  END
> <PUBCHEM_COMPOUND_ID_TYPE>
0

> <PUBCHEM_TOTAL_CHARGE>
0

> <PUBCHEM_SUBSTANCE_ID>
310935089

> <PUBCHEM_SUBSTANCE_VERSION>
1

> <PUBCHEM_EXT_DATASOURCE_NAME>
4488

> <PUBCHEM_EXT_DATASOURCE_REGID>
SCHEMBL16112615

> <PUBCHEM_SUBSTANCE_COMMENT>
InChI=1S/C31H34N6O2/c1-20-13-25(24-7-8-28(39-4)32-16-24)15-27-29(20)33-19-34-30(27)36-10-9-22-5-6-23(14-26(22)18-36)31(38)37-12-11-35(3)21(2)17-37/h5-8,13-16,19,21H,9-12,17-18H2,1-4H3/t21-/m0/s1
InChIKey=ZYZVZACSQWUFPJ-NRFANRHFSA-N

> <PUBCHEM_SUBSTANCE_SYNONYM>
SCHEMBL16112615

> <PUBCHEM_XREF_EXT_ID>
SCHEMBL16112615

> <PUBCHEM_EXT_DATASOURCE_URL>
https://www.surechembl.org/

> <PUBCHEM_EXT_SUBSTANCE_URL>
https://www.surechembl.org/chemical/SCHEMBL16112615

> <PUBCHEM_CID_ASSOCIATIONS>
117603183  1

> <PUBCHEM_COORDINATE_TYPE>
1
3

> <PUBCHEM_BONDANNOTATIONS>
33  37  6

$$$$
