310932265
  -OEChem-07211613022D

 23 25  0     0  0  0  0  0  0999 V2000
    4.0184   -2.1224    0.0000 O   0  0  0  0  0  0  0  0  0  0  0  0
    8.4897   -2.2074    0.0000 O   0  0  0  0  0  0  0  0  0  0  0  0
    7.7822   -3.4525    0.0000 O   0  0  0  0  0  0  0  0  0  0  0  0
    4.9240   -0.9905    0.0000 N   0  0  0  0  0  0  0  0  0  0  0  0
    4.8391   -0.1415    0.0000 N   0  0  0  0  0  0  0  0  0  0  0  0
    6.3673   -0.9905    0.0000 N   0  0  0  0  0  0  0  0  0  0  0  0
    0.0000   -1.8395    0.0000 N   0  0  0  0  0  0  0  0  0  0  0  0
    4.1883   -1.3018    0.0000 C   0  0  0  0  0  0  0  0  0  0  0  0
    3.5940   -0.7074    0.0000 C   0  0  0  0  0  0  0  0  0  0  0  0
    5.6315   -1.3867    0.0000 C   0  0  0  0  0  0  0  0  0  0  0  0
    2.8016   -0.7924    0.0000 C   0  0  0  0  0  0  0  0  0  0  0  0
    4.0184    0.0000    0.0000 C   0  0  0  0  0  0  0  0  0  0  0  0
    5.6315   -2.2074    0.0000 C   0  0  0  0  0  0  0  0  0  0  0  0
    7.0748   -2.2074    0.0000 C   0  0  0  0  0  0  0  0  0  0  0  0
    2.4620   -1.5564    0.0000 C   0  0  0  0  0  0  0  0  0  0  0  0
    2.2922   -0.1415    0.0000 C   0  0  0  0  0  0  0  0  0  0  0  0
    7.0748   -1.3867    0.0000 C   0  0  0  0  0  0  0  0  0  0  0  0
    6.3673   -2.6035    0.0000 C   0  0  0  0  0  0  0  0  0  0  0  0
    1.1602   -0.9905    0.0000 C   0  0  0  0  0  0  0  0  0  0  0  0
    1.6413   -1.6413    0.0000 C   0  0  0  0  0  0  0  0  0  0  0  0
    1.4715   -0.2547    0.0000 C   0  0  0  0  0  0  0  0  0  0  0  0
    7.7822   -2.6035    0.0000 C   0  0  0  0  0  0  0  0  0  0  0  0
    0.3396   -1.0754    0.0000 C   0  0  0  0  0  0  0  0  0  0  0  0
  1  8  1  0  0  0  0
  2 22  2  0  0  0  0
  3 22  1  0  0  0  0
  4  5  1  0  0  0  0
  4  8  1  0  0  0  0
  4 10  1  0  0  0  0
  5 12  2  0  0  0  0
  6 10  2  0  0  0  0
  6 17  1  0  0  0  0
  7 23  3  0  0  0  0
  8  9  2  0  0  0  0
  9 11  1  0  0  0  0
  9 12  1  0  0  0  0
 10 13  1  0  0  0  0
 11 15  2  0  0  0  0
 11 16  1  0  0  0  0
 13 18  2  0  0  0  0
 14 17  2  0  0  0  0
 14 18  1  0  0  0  0
 14 22  1  0  0  0  0
 15 20  1  0  0  0  0
 16 21  2  0  0  0  0
 19 20  2  0  0  0  0
 19 21  1  0  0  0  0
 19 23  1  0  0  0  0
M  END
> <PUBCHEM_COMPOUND_ID_TYPE>
0

> <PUBCHEM_TOTAL_CHARGE>
0

> <PUBCHEM_SUBSTANCE_ID>
310932265

> <PUBCHEM_SUBSTANCE_VERSION>
1

> <PUBCHEM_EXT_DATASOURCE_NAME>
4488

> <PUBCHEM_EXT_DATASOURCE_REGID>
SCHEMBL16109624

> <PUBCHEM_SUBSTANCE_COMMENT>
InChI=1S/C16H10N4O3/c17-7-10-1-3-11(4-2-10)13-9-19-20(15(13)21)14-6-5-12(8-18-14)16(22)23/h1-6,8-9,21H,(H,22,23)
InChIKey=GPICMFLAGYJRFF-UHFFFAOYSA-N

> <PUBCHEM_SUBSTANCE_SYNONYM>
SCHEMBL16109624

> <PUBCHEM_XREF_EXT_ID>
SCHEMBL16109624

> <PUBCHEM_EXT_DATASOURCE_URL>
https://www.surechembl.org/

> <PUBCHEM_EXT_SUBSTANCE_URL>
https://www.surechembl.org/chemical/SCHEMBL16109624

> <PUBCHEM_CID_ASSOCIATIONS>
117600834  1

> <PUBCHEM_COORDINATE_TYPE>
1
3

$$$$
