310948379
  -OEChem-07211613022D

 30 33  0     1  0  0  0  0  0999 V2000
    2.7046   -1.8867    0.0000 F   0  0  0  0  0  0  0  0  0  0  0  0
    3.2808   -2.8533    0.0000 F   0  0  0  0  0  0  0  0  0  0  0  0
    2.2957   -3.4109    0.0000 F   0  0  0  0  0  0  0  0  0  0  0  0
   -2.5559   -2.1098    0.0000 O   0  0  0  0  0  0  0  0  0  0  0  0
   -0.0465    3.4109    0.0000 O   0  0  0  0  0  0  0  0  0  0  0  0
   -1.0316    0.2324    0.0000 N   0  0  0  0  0  0  0  0  0  0  0  0
   -0.5484   -0.4368    0.0000 N   0  0  0  0  0  0  0  0  0  0  0  0
   -0.7714   -1.9053    0.0000 N   0  0  0  0  0  0  0  0  0  0  0  0
   -3.2808   -0.8644    0.0000 N   0  0  0  0  0  0  0  0  0  0  0  0
    1.1432   -0.0465    0.0000 N   0  0  0  0  0  0  0  0  0  0  0  0
   -1.8309   -0.8458    0.0000 C   0  0  0  0  0  0  0  0  0  0  0  0
   -1.8309   -0.0279    0.0000 C   0  0  0  0  0  0  0  0  0  0  0  0
   -1.0316   -1.1246    0.0000 C   0  0  0  0  0  0  0  0  0  0  0  0
   -0.7900    1.0502    0.0000 C   0  0  3  0  0  0  0  0  0  0  0  0
   -2.5373   -1.2547    0.0000 C   0  0  0  0  0  0  0  0  0  0  0  0
   -2.5745    0.3811    0.0000 C   0  0  0  0  0  0  0  0  0  0  0  0
    0.0465    1.1989    0.0000 C   0  0  3  0  0  0  0  0  0  0  0  0
    0.0465   -2.0726    0.0000 C   0  0  0  0  0  0  0  0  0  0  0  0
   -1.3105    1.6451    0.0000 C   0  0  0  0  0  0  0  0  0  0  0  0
   -3.2622   -0.0093    0.0000 C   0  0  0  0  0  0  0  0  0  0  0  0
    0.2881    1.9982    0.0000 C   0  0  0  0  0  0  0  0  0  0  0  0
   -0.2509    2.6117    0.0000 C   0  0  3  0  0  0  0  0  0  0  0  0
   -1.0502    2.4444    0.0000 C   0  0  0  0  0  0  0  0  0  0  0  0
    1.6636   -2.4258    0.0000 C   0  0  0  0  0  0  0  0  0  0  0  0
    0.3067   -2.8533    0.0000 C   0  0  0  0  0  0  0  0  0  0  0  0
    0.5855   -1.4778    0.0000 C   0  0  0  0  0  0  0  0  0  0  0  0
    0.6041    0.5669    0.0000 C   0  0  0  0  0  0  0  0  0  0  0  0
    2.4815   -2.6488    0.0000 C   0  0  0  0  0  0  0  0  0  0  0  0
    1.1060   -3.0392    0.0000 C   0  0  0  0  0  0  0  0  0  0  0  0
    1.4034   -1.6451    0.0000 C   0  0  0  0  0  0  0  0  0  0  0  0
  1 28  1  0  0  0  0
  2 28  1  0  0  0  0
  3 28  1  0  0  0  0
  4 15  2  0  0  0  0
 22  5  1  6  0  0  0
  6  7  1  0  0  0  0
  6 12  1  0  0  0  0
 14  6  1  6  0  0  0
  7 13  2  0  0  0  0
  8 13  1  0  0  0  0
  8 18  1  0  0  0  0
  9 15  1  0  0  0  0
  9 20  1  0  0  0  0
 10 27  3  0  0  0  0
 11 12  2  0  0  0  0
 11 13  1  0  0  0  0
 11 15  1  0  0  0  0
 12 16  1  0  0  0  0
 14 17  1  0  0  0  0
 14 19  1  0  0  0  0
 16 20  2  0  0  0  0
 17 21  1  0  0  0  0
 17 27  1  1  0  0  0
 18 25  2  0  0  0  0
 18 26  1  0  0  0  0
 19 23  1  0  0  0  0
 21 22  1  0  0  0  0
 22 23  1  0  0  0  0
 24 28  1  0  0  0  0
 24 29  2  0  0  0  0
 24 30  1  0  0  0  0
 25 29  1  0  0  0  0
 26 30  2  0  0  0  0
M  END
> <PUBCHEM_COMPOUND_ID_TYPE>
0

> <PUBCHEM_TOTAL_CHARGE>
0

> <PUBCHEM_SUBSTANCE_ID>
310948379

> <PUBCHEM_SUBSTANCE_VERSION>
1

> <PUBCHEM_EXT_DATASOURCE_NAME>
4488

> <PUBCHEM_EXT_DATASOURCE_REGID>
SCHEMBL16126560

> <PUBCHEM_SUBSTANCE_COMMENT>
InChI=1S/C20H18F3N5O2/c21-20(22,23)12-1-3-13(4-2-12)26-18-17-16(7-8-25-19(17)30)28(27-18)15-6-5-14(29)9-11(15)10-24/h1-4,7-8,11,14-15,29H,5-6,9H2,(H,25,30)(H,26,27)/t11-,14-,15+/m0/s1
InChIKey=BLXQKRIUTLZSSJ-TUKIKUTGSA-N

> <PUBCHEM_SUBSTANCE_SYNONYM>
SCHEMBL16126560

> <PUBCHEM_XREF_EXT_ID>
SCHEMBL16126560

> <PUBCHEM_EXT_DATASOURCE_URL>
https://www.surechembl.org/

> <PUBCHEM_EXT_SUBSTANCE_URL>
https://www.surechembl.org/chemical/SCHEMBL16126560

> <PUBCHEM_CID_ASSOCIATIONS>
117613942  1

> <PUBCHEM_COORDINATE_TYPE>
1
3

> <PUBCHEM_BONDANNOTATIONS>
17  27  5
22  5  6
14  6  6

$$$$
