310941121
  -OEChem-07211613022D

 46 49  0     1  0  0  0  0  0999 V2000
    5.6899    0.6873    0.0000 O   0  0  0  0  0  0  0  0  0  0  0  0
    4.5443   -1.2831    0.0000 O   0  0  0  0  0  0  0  0  0  0  0  0
   -4.7123    0.4735    0.0000 O   0  0  0  0  0  0  0  0  0  0  0  0
   -1.9475    0.7944    0.0000 O   0  0  0  0  0  0  0  0  0  0  0  0
    2.3753    0.7944    0.0000 O   0  0  0  0  0  0  0  0  0  0  0  0
   -3.4750    1.2067    0.0000 O   0  0  0  0  0  0  0  0  0  0  0  0
    0.2215   -1.2831    0.0000 O   0  0  0  0  0  0  0  0  0  0  0  0
    4.5443   -2.9480    0.0000 O   0  0  0  0  0  0  0  0  0  0  0  0
   -3.4598   -0.2291    0.0000 N   0  0  0  0  0  0  0  0  0  0  0  0
    3.1084   -0.4429    0.0000 N   0  0  0  0  0  0  0  0  0  0  0  0
   -1.2144   -0.4429    0.0000 N   0  0  0  0  0  0  0  0  0  0  0  0
    0.9394   -0.0306    0.0000 N   0  0  0  0  0  0  0  0  0  0  0  0
    5.2623   -0.0152    0.0000 C   0  0  3  0  0  0  0  0  0  0  0  0
    4.5443   -0.4277    0.0000 C   0  0  0  0  0  0  0  0  0  0  0  0
    4.8803    0.6873    0.0000 C   0  0  0  0  0  0  0  0  0  0  0  0
    3.8264   -0.0306    0.0000 C   0  0  3  0  0  0  0  0  0  0  0  0
    5.9649   -0.4277    0.0000 C   0  0  0  0  0  0  0  0  0  0  0  0
   -2.6655   -0.4583    0.0000 C   0  0  3  0  0  0  0  0  0  0  0  0
    3.8264    1.2984    0.0000 C   0  0  0  0  0  0  0  0  0  0  0  0
    2.3753   -0.0458    0.0000 C   0  0  0  0  0  0  0  0  0  0  0  0
   -1.8864   -0.0458    0.0000 C   0  0  0  0  0  0  0  0  0  0  0  0
   -3.9028    0.4735    0.0000 C   0  0  0  0  0  0  0  0  0  0  0  0
   -2.8794   -1.2526    0.0000 C   0  0  0  0  0  0  0  0  0  0  0  0
   -3.6737   -1.0234    0.0000 C   0  0  0  0  0  0  0  0  0  0  0  0
    1.6879   -0.4429    0.0000 C   0  0  3  0  0  0  0  0  0  0  0  0
    3.0932    1.7261    0.0000 C   0  0  0  0  0  0  0  0  0  0  0  0
   -0.4964   -0.0306    0.0000 C   0  0  3  0  0  0  0  0  0  0  0  0
    0.2215   -0.4277    0.0000 C   0  0  0  0  0  0  0  0  0  0  0  0
    1.6573   -1.2984    0.0000 C   0  0  0  0  0  0  0  0  0  0  0  0
   -5.1401    1.2220    0.0000 C   0  0  0  0  0  0  0  0  0  0  0  0
    2.3905   -1.6955    0.0000 C   0  0  0  0  0  0  0  0  0  0  0  0
    3.1084    2.5357    0.0000 C   0  0  0  0  0  0  0  0  0  0  0  0
    2.3600    1.3136    0.0000 C   0  0  0  0  0  0  0  0  0  0  0  0
   -0.4964    0.7944    0.0000 C   0  0  0  0  0  0  0  0  0  0  0  0
    2.4059   -2.5204    0.0000 C   0  0  0  0  0  0  0  0  0  0  0  0
    3.0932   -1.2984    0.0000 C   0  0  0  0  0  0  0  0  0  0  0  0
    2.3753    2.9480    0.0000 C   0  0  0  0  0  0  0  0  0  0  0  0
    1.6726    1.7108    0.0000 C   0  0  0  0  0  0  0  0  0  0  0  0
   -5.5525    1.9246    0.0000 C   0  0  0  0  0  0  0  0  0  0  0  0
   -5.9649    1.1915    0.0000 C   0  0  0  0  0  0  0  0  0  0  0  0
   -4.7123    1.9399    0.0000 C   0  0  0  0  0  0  0  0  0  0  0  0
    3.8112   -2.5204    0.0000 C   0  0  0  0  0  0  0  0  0  0  0  0
    1.6726    2.5357    0.0000 C   0  0  0  0  0  0  0  0  0  0  0  0
    3.1238   -2.9328    0.0000 C   0  0  0  0  0  0  0  0  0  0  0  0
    3.8264   -1.6955    0.0000 C   0  0  0  0  0  0  0  0  0  0  0  0
    5.2623   -2.5204    0.0000 C   0  0  0  0  0  0  0  0  0  0  0  0
  1 13  1  0  0  0  0
  1 15  1  0  0  0  0
  2 14  2  0  0  0  0
  3 22  1  0  0  0  0
  3 30  1  0  0  0  0
  4 21  2  0  0  0  0
  5 20  2  0  0  0  0
  6 22  2  0  0  0  0
  7 28  2  0  0  0  0
  8 42  1  0  0  0  0
  8 46  1  0  0  0  0
  9 18  1  0  0  0  0
  9 22  1  0  0  0  0
  9 24  1  0  0  0  0
 16 10  1  1  0  0  0
 10 20  1  0  0  0  0
 11 21  1  0  0  0  0
 11 27  1  0  0  0  0
 25 12  1  6  0  0  0
 12 28  1  0  0  0  0
 13 14  1  1  0  0  0
 13 15  1  0  0  0  0
 13 17  1  6  0  0  0
 14 16  1  0  0  0  0
 16 19  1  0  0  0  0
 18 21  1  6  0  0  0
 18 23  1  0  0  0  0
 19 26  1  0  0  0  0
 20 25  1  0  0  0  0
 23 24  1  0  0  0  0
 25 29  1  0  0  0  0
 26 32  2  0  0  0  0
 26 33  1  0  0  0  0
 27 28  1  0  0  0  0
 27 34  1  1  0  0  0
 29 31  1  0  0  0  0
 30 39  1  0  0  0  0
 30 40  1  0  0  0  0
 30 41  1  0  0  0  0
 31 35  2  0  0  0  0
 31 36  1  0  0  0  0
 32 37  1  0  0  0  0
 33 38  2  0  0  0  0
 35 44  1  0  0  0  0
 36 45  2  0  0  0  0
 37 43  2  0  0  0  0
 38 43  1  0  0  0  0
 42 44  2  0  0  0  0
 42 45  1  0  0  0  0
M  END
> <PUBCHEM_COMPOUND_ID_TYPE>
0

> <PUBCHEM_TOTAL_CHARGE>
0

> <PUBCHEM_SUBSTANCE_ID>
310941121

> <PUBCHEM_SUBSTANCE_VERSION>
1

> <PUBCHEM_EXT_DATASOURCE_NAME>
4488

> <PUBCHEM_EXT_DATASOURCE_REGID>
SCHEMBL16119081

> <PUBCHEM_SUBSTANCE_COMMENT>
InChI=1S/C34H44N4O8/c1-21(35-31(42)27-16-17-38(27)32(43)46-33(2,3)4)29(40)37-26(19-23-12-14-24(44-6)15-13-23)30(41)36-25(28(39)34(5)20-45-34)18-22-10-8-7-9-11-22/h7-15,21,25-27H,16-20H2,1-6H3,(H,35,42)(H,36,41)(H,37,40)/t21-,25-,26-,27-,34+/m0/s1
InChIKey=KKIAZLHJFARRNU-WQSRTTRWSA-N

> <PUBCHEM_SUBSTANCE_SYNONYM>
SCHEMBL16119081

> <PUBCHEM_XREF_EXT_ID>
SCHEMBL16119081

> <PUBCHEM_EXT_DATASOURCE_URL>
https://www.surechembl.org/

> <PUBCHEM_EXT_SUBSTANCE_URL>
https://www.surechembl.org/chemical/SCHEMBL16119081

> <PUBCHEM_CID_ASSOCIATIONS>
117608004  1

> <PUBCHEM_COORDINATE_TYPE>
1
3

> <PUBCHEM_BONDANNOTATIONS>
16  10  5
25  12  6
13  14  5
13  17  6
18  21  6
27  34  5

$$$$
