310944997
  -OEChem-07211613022D

 30 34  0     0  0  0  0  0  0999 V2000
    4.2447    0.1827    0.0000 O   0  0  0  0  0  0  0  0  0  0  0  0
   -3.6495   -1.5088    0.0000 O   0  0  0  0  0  0  0  0  0  0  0  0
   -2.8141    1.4985    0.0000 O   0  0  0  0  0  0  0  0  0  0  0  0
    1.6759   -0.9867    0.0000 N   0  0  0  0  0  0  0  0  0  0  0  0
   -0.6526    1.0703    0.0000 N   0  0  0  0  0  0  0  0  0  0  0  0
   -3.5242    0.2663    0.0000 N   0  0  0  0  0  0  0  0  0  0  0  0
    1.4880   -0.1723    0.0000 C   0  0  0  0  0  0  0  0  0  0  0  0
    2.2085    0.2454    0.0000 C   0  0  0  0  0  0  0  0  0  0  0  0
    2.8246   -0.3081    0.0000 C   0  0  0  0  0  0  0  0  0  0  0  0
    0.7675    0.2454    0.0000 C   0  0  0  0  0  0  0  0  0  0  0  0
    2.5009   -1.0703    0.0000 C   0  0  0  0  0  0  0  0  0  0  0  0
    0.7779    1.0703    0.0000 C   0  0  0  0  0  0  0  0  0  0  0  0
    3.6390   -0.4125    0.0000 C   0  0  0  0  0  0  0  0  0  0  0  0
    2.2085    1.0703    0.0000 C   0  0  0  0  0  0  0  0  0  0  0  0
    0.0783   -0.1619    0.0000 C   0  0  0  0  0  0  0  0  0  0  0  0
   -0.6735    0.2454    0.0000 C   0  0  0  0  0  0  0  0  0  0  0  0
    3.1169   -1.6133    0.0000 C   0  0  0  0  0  0  0  0  0  0  0  0
    1.4880    1.4775    0.0000 C   0  0  0  0  0  0  0  0  0  0  0  0
    3.8270   -1.2061    0.0000 C   0  0  0  0  0  0  0  0  0  0  0  0
    0.0574    1.4880    0.0000 C   0  0  0  0  0  0  0  0  0  0  0  0
   -1.3731   -0.1723    0.0000 C   0  0  0  0  0  0  0  0  0  0  0  0
   -2.1040    0.2350    0.0000 C   0  0  0  0  0  0  0  0  0  0  0  0
   -2.8141   -0.1723    0.0000 C   0  0  0  0  0  0  0  0  0  0  0  0
   -1.3836   -0.9972    0.0000 C   0  0  0  0  0  0  0  0  0  0  0  0
   -2.8246   -0.9972    0.0000 C   0  0  0  0  0  0  0  0  0  0  0  0
   -2.0936   -1.4149    0.0000 C   0  0  0  0  0  0  0  0  0  0  0  0
   -3.5346    1.0912    0.0000 C   0  0  0  0  0  0  0  0  0  0  0  0
   -4.2447    1.5193    0.0000 C   0  0  0  0  0  0  0  0  0  0  0  0
   -3.6286   -2.3547    0.0000 C   0  0  0  0  0  0  0  0  0  0  0  0
   -4.2029    2.3547    0.0000 C   0  0  0  0  0  0  0  0  0  0  0  0
  1 13  2  0  0  0  0
  2 25  1  0  0  0  0
  2 29  1  0  0  0  0
  3 27  2  0  0  0  0
  4  7  1  0  0  0  0
  4 11  1  0  0  0  0
  5 16  2  0  0  0  0
  5 20  1  0  0  0  0
  6 23  1  0  0  0  0
  6 27  1  0  0  0  0
  7  8  2  0  0  0  0
  7 10  1  0  0  0  0
  8  9  1  0  0  0  0
  8 14  1  0  0  0  0
  9 11  2  0  0  0  0
  9 13  1  0  0  0  0
 10 12  1  0  0  0  0
 10 15  2  0  0  0  0
 11 17  1  0  0  0  0
 12 18  1  0  0  0  0
 12 20  2  0  0  0  0
 13 19  1  0  0  0  0
 14 18  1  0  0  0  0
 15 16  1  0  0  0  0
 16 21  1  0  0  0  0
 17 19  1  0  0  0  0
 21 22  2  0  0  0  0
 21 24  1  0  0  0  0
 22 23  1  0  0  0  0
 23 25  2  0  0  0  0
 24 26  2  0  0  0  0
 25 26  1  0  0  0  0
 27 28  1  0  0  0  0
 28 30  2  0  0  0  0
M  END
> <PUBCHEM_COMPOUND_ID_TYPE>
0

> <PUBCHEM_TOTAL_CHARGE>
0

> <PUBCHEM_SUBSTANCE_ID>
310944997

> <PUBCHEM_SUBSTANCE_VERSION>
1

> <PUBCHEM_EXT_DATASOURCE_NAME>
4488

> <PUBCHEM_EXT_DATASOURCE_REGID>
SCHEMBL16123085

> <PUBCHEM_SUBSTANCE_COMMENT>
InChI=1S/C24H21N3O3/c1-3-22(29)26-19-10-13(5-9-21(19)30-2)18-11-16-14(12-25-18)4-6-15-23-17(27-24(15)16)7-8-20(23)28/h3,5,9-12,27H,1,4,6-8H2,2H3,(H,26,29)
InChIKey=PDDZWBGKEOEFMB-UHFFFAOYSA-N

> <PUBCHEM_SUBSTANCE_SYNONYM>
SCHEMBL16123085

> <PUBCHEM_XREF_EXT_ID>
SCHEMBL16123085

> <PUBCHEM_EXT_DATASOURCE_URL>
https://www.surechembl.org/

> <PUBCHEM_EXT_SUBSTANCE_URL>
https://www.surechembl.org/chemical/SCHEMBL16123085

> <PUBCHEM_CID_ASSOCIATIONS>
86301195  1

> <PUBCHEM_COORDINATE_TYPE>
1
3

$$$$
