310942984
  -OEChem-07211613022D

 30 33  0     1  0  0  0  0  0999 V2000
   -1.5554   -3.2985    0.0000 Cl  0  0  0  0  0  0  0  0  0  0  0  0
    0.3517   -3.2985    0.0000 S   0  0  0  0  0  0  0  0  0  0  0  0
   -1.3835   -0.7347    0.0000 O   0  0  0  0  0  0  0  0  0  0  0  0
   -0.1328    3.7987    0.0000 O   0  0  0  0  0  0  0  0  0  0  0  0
    0.7582   -2.5950    0.0000 O   0  0  0  0  0  0  0  0  0  0  0  0
    1.1646   -3.2985    0.0000 O   0  0  0  0  0  0  0  0  0  0  0  0
    0.0079    1.6414    0.0000 N   0  0  0  0  0  0  0  0  0  0  0  0
    0.5237    1.0005    0.0000 N   0  0  0  0  0  0  0  0  0  0  0  0
    0.3517   -0.4533    0.0000 N   0  0  0  0  0  0  0  0  0  0  0  0
   -2.1495    0.4690    0.0000 N   0  0  0  0  0  0  0  0  0  0  0  0
    2.1807    1.4851    0.0000 N   0  0  0  0  0  0  0  0  0  0  0  0
   -0.7426    0.5315    0.0000 C   0  0  0  0  0  0  0  0  0  0  0  0
   -0.7582    1.3600    0.0000 C   0  0  0  0  0  0  0  0  0  0  0  0
    0.0547    0.3126    0.0000 C   0  0  0  0  0  0  0  0  0  0  0  0
    0.2267    2.4544    0.0000 C   0  0  3  0  0  0  0  0  0  0  0  0
   -1.4304    0.1094    0.0000 C   0  0  0  0  0  0  0  0  0  0  0  0
   -1.4929    1.7352    0.0000 C   0  0  0  0  0  0  0  0  0  0  0  0
   -0.0703   -1.1725    0.0000 C   0  0  0  0  0  0  0  0  0  0  0  0
    1.0083    2.6419    0.0000 C   0  0  3  0  0  0  0  0  0  0  0  0
   -0.0547   -2.5794    0.0000 C   0  0  0  0  0  0  0  0  0  0  0  0
    0.3361   -1.8916    0.0000 C   0  0  0  0  0  0  0  0  0  0  0  0
   -2.1807    1.2975    0.0000 C   0  0  0  0  0  0  0  0  0  0  0  0
   -0.3517    3.0171    0.0000 C   0  0  0  0  0  0  0  0  0  0  0  0
   -0.8989   -2.5637    0.0000 C   0  0  0  0  0  0  0  0  0  0  0  0
   -0.8833   -1.1725    0.0000 C   0  0  0  0  0  0  0  0  0  0  0  0
    1.2272    3.4392    0.0000 C   0  0  0  0  0  0  0  0  0  0  0  0
   -1.2897   -1.8916    0.0000 C   0  0  0  0  0  0  0  0  0  0  0  0
    1.6023    2.0479    0.0000 C   0  0  0  0  0  0  0  0  0  0  0  0
    0.6331    4.0176    0.0000 C   0  0  0  0  0  0  0  0  0  0  0  0
   -0.0391   -4.0176    0.0000 C   0  0  0  0  0  0  0  0  0  0  0  0
  1 24  1  0  0  0  0
  2  5  2  0  0  0  0
  2  6  2  0  0  0  0
  2 20  1  0  0  0  0
  2 30  1  0  0  0  0
  3 16  2  0  0  0  0
  4 23  1  0  0  0  0
  4 29  1  0  0  0  0
  7  8  1  0  0  0  0
  7 13  1  0  0  0  0
 15  7  1  1  0  0  0
  8 14  2  0  0  0  0
  9 14  1  0  0  0  0
  9 18  1  0  0  0  0
 10 16  1  0  0  0  0
 10 22  1  0  0  0  0
 11 28  3  0  0  0  0
 12 13  2  0  0  0  0
 12 14  1  0  0  0  0
 12 16  1  0  0  0  0
 13 17  1  0  0  0  0
 15 19  1  0  0  0  0
 15 23  1  0  0  0  0
 17 22  2  0  0  0  0
 18 21  1  0  0  0  0
 18 25  2  0  0  0  0
 19 26  1  0  0  0  0
 19 28  1  6  0  0  0
 20 21  2  0  0  0  0
 20 24  1  0  0  0  0
 24 27  2  0  0  0  0
 25 27  1  0  0  0  0
 26 29  1  0  0  0  0
M  END
> <PUBCHEM_COMPOUND_ID_TYPE>
0

> <PUBCHEM_TOTAL_CHARGE>
0

> <PUBCHEM_SUBSTANCE_ID>
310942984

> <PUBCHEM_SUBSTANCE_VERSION>
1

> <PUBCHEM_EXT_DATASOURCE_NAME>
4488

> <PUBCHEM_EXT_DATASOURCE_REGID>
SCHEMBL16121043

> <PUBCHEM_SUBSTANCE_COMMENT>
InChI=1S/C19H18ClN5O4S/c1-30(27,28)16-8-12(2-3-13(16)20)23-18-17-14(4-6-22-19(17)26)25(24-18)15-10-29-7-5-11(15)9-21/h2-4,6,8,11,15H,5,7,10H2,1H3,(H,22,26)(H,23,24)/t11-,15+/m1/s1
InChIKey=CDYRUVDODWFAHB-ABAIWWIYSA-N

> <PUBCHEM_SUBSTANCE_SYNONYM>
SCHEMBL16121043

> <PUBCHEM_XREF_EXT_ID>
SCHEMBL16121043

> <PUBCHEM_EXT_DATASOURCE_URL>
https://www.surechembl.org/

> <PUBCHEM_EXT_SUBSTANCE_URL>
https://www.surechembl.org/chemical/SCHEMBL16121043

> <PUBCHEM_CID_ASSOCIATIONS>
117609445  1

> <PUBCHEM_COORDINATE_TYPE>
1
3

> <PUBCHEM_BONDANNOTATIONS>
19  28  6
15  7  5

$$$$
