310949118
  -OEChem-07211613022D

 13 13  0     0  0  0  0  0  0999 V2000
    1.2026    1.4371    0.0000 F   0  0  0  0  0  0  0  0  0  0  0  0
    1.1905   -1.4611    0.0000 F   0  0  0  0  0  0  0  0  0  0  0  0
   -0.9019    2.1465    0.0000 N   0  0  0  0  0  0  0  0  0  0  0  0
   -0.9019   -2.1465    0.0000 N   0  0  0  0  0  0  0  0  0  0  0  0
   -0.4690    0.0421    0.0000 C   0  0  0  0  0  0  0  0  0  0  0  0
   -0.0601    0.7396    0.0000 C   0  0  0  0  0  0  0  0  0  0  0  0
   -0.0722   -0.6794    0.0000 C   0  0  0  0  0  0  0  0  0  0  0  0
    0.7576    0.7275    0.0000 C   0  0  0  0  0  0  0  0  0  0  0  0
    0.7576   -0.7035    0.0000 C   0  0  0  0  0  0  0  0  0  0  0  0
    1.1785    0.0060    0.0000 C   0  0  0  0  0  0  0  0  0  0  0  0
   -0.4930    1.4731    0.0000 C   0  0  0  0  0  0  0  0  0  0  0  0
   -0.5051   -1.4371    0.0000 C   0  0  0  0  0  0  0  0  0  0  0  0
   -1.2026    0.0180    0.0000 C   0  0  0  0  0  0  0  0  0  0  0  0
  1  8  1  0  0  0  0
  2  9  1  0  0  0  0
  3 11  3  0  0  0  0
  4 12  3  0  0  0  0
  5  6  1  0  0  0  0
  5  7  2  0  0  0  0
  5 13  1  0  0  0  0
  6  8  2  0  0  0  0
  6 11  1  0  0  0  0
  7  9  1  0  0  0  0
  7 12  1  0  0  0  0
  8 10  1  0  0  0  0
  9 10  2  0  0  0  0
M  END
> <PUBCHEM_COMPOUND_ID_TYPE>
0

> <PUBCHEM_TOTAL_CHARGE>
0

> <PUBCHEM_SUBSTANCE_ID>
310949118

> <PUBCHEM_SUBSTANCE_VERSION>
1

> <PUBCHEM_EXT_DATASOURCE_NAME>
4488

> <PUBCHEM_EXT_DATASOURCE_REGID>
SCHEMBL16127308

> <PUBCHEM_SUBSTANCE_COMMENT>
InChI=1S/C9H4F2N2/c1-5-6(3-12)8(10)2-9(11)7(5)4-13/h2H,1H3
InChIKey=QFRMDSUTZIGWIW-UHFFFAOYSA-N

> <PUBCHEM_SUBSTANCE_SYNONYM>
SCHEMBL16127308

> <PUBCHEM_XREF_EXT_ID>
SCHEMBL16127308

> <PUBCHEM_EXT_DATASOURCE_URL>
https://www.surechembl.org/

> <PUBCHEM_EXT_SUBSTANCE_URL>
https://www.surechembl.org/chemical/SCHEMBL16127308

> <PUBCHEM_CID_ASSOCIATIONS>
117614615  1

> <PUBCHEM_COORDINATE_TYPE>
1
3

$$$$
