310929259
  -OEChem-07211613022D

 48 53  0     1  0  0  0  0  0999 V2000
    5.5821   -7.7794    0.0000 O   0  0  0  0  0  0  0  0  0  0  0  0
    3.5037   -4.0976    0.0000 O   0  0  0  0  0  0  0  0  0  0  0  0
    7.0074   -7.7794    0.0000 O   0  0  0  0  0  0  0  0  0  0  0  0
    4.8695   -7.3637    0.0000 O   0  0  0  0  0  0  0  0  0  0  0  0
    8.1357  -11.1050    0.0000 O   0  0  0  0  0  0  0  0  0  0  0  0
    4.1569   -8.6108    0.0000 N   0  0  0  0  0  0  0  0  0  0  0  0
    3.4443   -7.3637    0.0000 N   0  0  0  0  0  0  0  0  0  0  0  0
    7.7200   -9.0265    0.0000 N   0  0  0  0  0  0  0  0  0  0  0  0
    1.3659   -2.8504    0.0000 N   0  0  0  0  0  0  0  0  0  0  0  0
    2.0785   -1.6628    0.0000 N   0  0  0  0  0  0  0  0  0  0  0  0
    6.2948   -9.0265    0.0000 C   0  0  0  0  0  0  0  0  0  0  0  0
    5.5821   -8.6108    0.0000 C   0  0  0  0  0  0  0  0  0  0  0  0
    4.8695   -9.0265    0.0000 C   0  0  0  0  0  0  0  0  0  0  0  0
    5.5821  -10.2142    0.0000 C   0  0  0  0  0  0  0  0  0  0  0  0
    4.1569   -6.1760    0.0000 C   0  0  0  0  0  0  0  0  0  0  0  0
    4.1569   -5.3446    0.0000 C   0  0  0  0  0  0  0  0  0  0  0  0
    3.4443   -6.5917    0.0000 C   0  0  0  0  0  0  0  0  0  0  0  0
    6.2948   -9.8579    0.0000 C   0  0  0  0  0  0  0  0  0  0  0  0
    4.8695   -9.8579    0.0000 C   0  0  0  0  0  0  0  0  0  0  0  0
    3.4443   -4.9290    0.0000 C   0  0  0  0  0  0  0  0  0  0  0  0
    5.5821  -11.0456    0.0000 C   0  0  0  0  0  0  0  0  0  0  0  0
    7.0074   -8.6108    0.0000 C   0  0  0  0  0  0  0  0  0  0  0  0
    4.1569   -7.7794    0.0000 C   0  0  0  0  0  0  0  0  0  0  0  0
    2.7317   -6.1760    0.0000 C   0  0  0  0  0  0  0  0  0  0  0  0
    2.7317   -5.3446    0.0000 C   0  0  0  0  0  0  0  0  0  0  0  0
    4.8695   -6.5917    0.0000 C   0  0  0  0  0  0  0  0  0  0  0  0
    4.8695   -4.9290    0.0000 C   0  0  0  0  0  0  0  0  0  0  0  0
    2.7317   -3.6819    0.0000 C   0  0  0  0  0  0  0  0  0  0  0  0
    5.5821   -6.1760    0.0000 C   0  0  0  0  0  0  0  0  0  0  0  0
    5.5821   -5.3446    0.0000 C   0  0  0  0  0  0  0  0  0  0  0  0
    4.7508  -11.0456    0.0000 C   0  0  0  0  0  0  0  0  0  0  0  0
    5.5821  -11.8770    0.0000 C   0  0  0  0  0  0  0  0  0  0  0  0
    6.3542  -11.0456    0.0000 C   0  0  0  0  0  0  0  0  0  0  0  0
    7.7200   -9.8579    0.0000 C   0  0  3  0  0  0  0  0  0  0  0  0
    2.7911   -2.9099    0.0000 C   0  0  0  0  0  0  0  0  0  0  0  0
    2.0785   -2.4942    0.0000 C   0  0  0  0  0  0  0  0  0  0  0  0
    2.0785   -4.0976    0.0000 C   0  0  0  0  0  0  0  0  0  0  0  0
    5.0477   -7.5419    0.0000 C   0  0  0  0  0  0  0  0  0  0  0  0
    8.3733  -10.3330    0.0000 C   0  0  0  0  0  0  0  0  0  0  0  0
    7.0668  -10.3330    0.0000 C   0  0  0  0  0  0  0  0  0  0  0  0
    1.3659   -3.6819    0.0000 C   0  0  0  0  0  0  0  0  0  0  0  0
    7.3043  -11.1050    0.0000 C   0  0  0  0  0  0  0  0  0  0  0  0
    1.4252   -1.2471    0.0000 C   0  0  0  0  0  0  0  0  0  0  0  0
    1.4252   -0.4157    0.0000 C   0  0  0  0  0  0  0  0  0  0  0  0
    0.6532   -1.6034    0.0000 C   0  0  0  0  0  0  0  0  0  0  0  0
    0.7126    0.0000    0.0000 C   0  0  0  0  0  0  0  0  0  0  0  0
    0.0000   -1.1877    0.0000 C   0  0  0  0  0  0  0  0  0  0  0  0
    0.0000   -0.3563    0.0000 C   0  0  0  0  0  0  0  0  0  0  0  0
  1 12  1  0  0  0  0
  1 38  1  0  0  0  0
  2 20  1  0  0  0  0
  2 28  1  0  0  0  0
  3 22  2  0  0  0  0
  4 23  2  0  0  0  0
  5 39  1  0  0  0  0
  5 42  1  0  0  0  0
  6 13  1  0  0  0  0
  6 23  1  0  0  0  0
  7 17  1  0  0  0  0
  7 23  1  0  0  0  0
  8 22  1  0  0  0  0
 34  8  1  1  0  0  0
  9 36  2  0  0  0  0
  9 41  1  0  0  0  0
 10 36  1  0  0  0  0
 10 43  1  0  0  0  0
 11 12  2  0  0  0  0
 11 18  1  0  0  0  0
 11 22  1  0  0  0  0
 12 13  1  0  0  0  0
 13 19  2  0  0  0  0
 14 18  2  0  0  0  0
 14 19  1  0  0  0  0
 14 21  1  0  0  0  0
 15 16  2  0  0  0  0
 15 17  1  0  0  0  0
 15 26  1  0  0  0  0
 16 20  1  0  0  0  0
 16 27  1  0  0  0  0
 17 24  2  0  0  0  0
 20 25  2  0  0  0  0
 21 31  1  0  0  0  0
 21 32  1  0  0  0  0
 21 33  1  0  0  0  0
 24 25  1  0  0  0  0
 26 29  2  0  0  0  0
 27 30  2  0  0  0  0
 28 35  2  0  0  0  0
 28 37  1  0  0  0  0
 29 30  1  0  0  0  0
 34 39  1  0  0  0  0
 34 40  1  0  0  0  0
 35 36  1  0  0  0  0
 37 41  2  0  0  0  0
 40 42  1  0  0  0  0
 43 44  2  0  0  0  0
 43 45  1  0  0  0  0
 44 46  1  0  0  0  0
 45 47  2  0  0  0  0
 46 48  2  0  0  0  0
 47 48  1  0  0  0  0
M  END
> <PUBCHEM_COMPOUND_ID_TYPE>
0

> <PUBCHEM_TOTAL_CHARGE>
0

> <PUBCHEM_SUBSTANCE_ID>
310929259

> <PUBCHEM_SUBSTANCE_VERSION>
1

> <PUBCHEM_EXT_DATASOURCE_NAME>
4488

> <PUBCHEM_EXT_DATASOURCE_REGID>
SCHEMBL16106423

> <PUBCHEM_SUBSTANCE_COMMENT>
InChI=1S/C38H39N5O5/c1-38(2,3)24-20-30(36(44)41-26-17-19-47-23-26)35(46-4)32(21-24)43-37(45)42-31-14-15-33(29-13-9-8-12-28(29)31)48-27-16-18-39-34(22-27)40-25-10-6-5-7-11-25/h5-16,18,20-22,26H,17,19,23H2,1-4H3,(H,39,40)(H,41,44)(H2,42,43,45)/t26-/m1/s1
InChIKey=UCRYQCWQFWXYKH-AREMUKBSSA-N

> <PUBCHEM_SUBSTANCE_SYNONYM>
SCHEMBL16106423

> <PUBCHEM_XREF_EXT_ID>
SCHEMBL16106423

> <PUBCHEM_EXT_DATASOURCE_URL>
https://www.surechembl.org/

> <PUBCHEM_EXT_SUBSTANCE_URL>
https://www.surechembl.org/chemical/SCHEMBL16106423

> <PUBCHEM_CID_ASSOCIATIONS>
86273544  1

> <PUBCHEM_COORDINATE_TYPE>
1
3

> <PUBCHEM_BONDANNOTATIONS>
34  8  5

$$$$
