310929387
  -OEChem-07211613022D

 27 28  0     0  0  0  0  0  0999 V2000
    7.9460   -8.6842    0.0000 Cl  0  0  0  0  0  0  0  0  0  0  0  0
    7.9026   -5.3842    0.0000 O   0  0  0  0  0  0  0  0  0  0  0  0
    1.4329    0.0000    0.0000 O   0  0  0  0  0  0  0  0  0  0  0  0
    0.7382   -1.2592    0.0000 O   0  0  0  0  0  0  0  0  0  0  0  0
    6.5131   -6.2092    0.0000 N   0  0  0  0  0  0  0  0  0  0  0  0
    7.2512   -6.6434    0.0000 C   0  0  0  0  0  0  0  0  0  0  0  0
    7.2512   -7.4683    0.0000 C   0  0  0  0  0  0  0  0  0  0  0  0
    7.9460   -6.2092    0.0000 C   0  0  0  0  0  0  0  0  0  0  0  0
    7.9460   -7.8592    0.0000 C   0  0  0  0  0  0  0  0  0  0  0  0
    5.7749   -6.6434    0.0000 C   0  0  0  0  0  0  0  0  0  0  0  0
    6.5131   -7.8592    0.0000 C   0  0  0  0  0  0  0  0  0  0  0  0
    8.6407   -6.6434    0.0000 C   0  0  0  0  0  0  0  0  0  0  0  0
    8.6407   -7.4249    0.0000 C   0  0  0  0  0  0  0  0  0  0  0  0
    5.7749   -7.4683    0.0000 C   0  0  0  0  0  0  0  0  0  0  0  0
    5.0802   -6.2092    0.0000 C   0  0  0  0  0  0  0  0  0  0  0  0
    5.0802   -5.3842    0.0000 C   0  0  0  0  0  0  0  0  0  0  0  0
    7.2079   -4.9934    0.0000 C   0  0  0  0  0  0  0  0  0  0  0  0
    4.3421   -4.9934    0.0000 C   0  0  0  0  0  0  0  0  0  0  0  0
    4.3421   -4.1249    0.0000 C   0  0  0  0  0  0  0  0  0  0  0  0
    3.6039   -3.7342    0.0000 C   0  0  0  0  0  0  0  0  0  0  0  0
    3.6039   -2.9092    0.0000 C   0  0  0  0  0  0  0  0  0  0  0  0
    2.9092   -2.4750    0.0000 C   0  0  0  0  0  0  0  0  0  0  0  0
    0.7382   -0.4342    0.0000 C   0  0  0  0  0  0  0  0  0  0  0  0
    2.1710   -0.4342    0.0000 C   0  0  0  0  0  0  0  0  0  0  0  0
    2.8658   -1.6500    0.0000 C   0  0  0  0  0  0  0  0  0  0  0  0
    2.1710   -1.2592    0.0000 C   0  0  0  0  0  0  0  0  0  0  0  0
    0.0000    0.0000    0.0000 C   0  0  0  0  0  0  0  0  0  0  0  0
  1  9  1  0  0  0  0
  2  8  1  0  0  0  0
  2 17  1  0  0  0  0
  3 23  1  0  0  0  0
  3 24  1  0  0  0  0
  4 23  2  0  0  0  0
  5  6  2  0  0  0  0
  5 10  1  0  0  0  0
  6  7  1  0  0  0  0
  6  8  1  0  0  0  0
  7  9  1  0  0  0  0
  7 11  2  0  0  0  0
  8 12  2  0  0  0  0
  9 13  2  0  0  0  0
 10 14  2  0  0  0  0
 10 15  1  0  0  0  0
 11 14  1  0  0  0  0
 12 13  1  0  0  0  0
 15 16  1  0  0  0  0
 16 18  1  0  0  0  0
 18 19  1  0  0  0  0
 19 20  1  0  0  0  0
 20 21  1  0  0  0  0
 21 22  1  0  0  0  0
 22 25  1  0  0  0  0
 23 27  1  0  0  0  0
 24 26  1  0  0  0  0
 25 26  1  0  0  0  0
M  END
> <PUBCHEM_COMPOUND_ID_TYPE>
0

> <PUBCHEM_TOTAL_CHARGE>
0

> <PUBCHEM_SUBSTANCE_ID>
310929387

> <PUBCHEM_SUBSTANCE_VERSION>
1

> <PUBCHEM_EXT_DATASOURCE_NAME>
4488

> <PUBCHEM_EXT_DATASOURCE_REGID>
SCHEMBL16106560

> <PUBCHEM_SUBSTANCE_COMMENT>
InChI=1S/C22H30ClNO3/c1-17(25)27-16-10-8-6-4-3-5-7-9-11-18-12-13-19-20(23)14-15-21(26-2)22(19)24-18/h12-15H,3-11,16H2,1-2H3
InChIKey=HLTVVTVKMVKLBN-UHFFFAOYSA-N

> <PUBCHEM_SUBSTANCE_SYNONYM>
SCHEMBL16106560

> <PUBCHEM_XREF_EXT_ID>
SCHEMBL16106560

> <PUBCHEM_EXT_DATASOURCE_URL>
https://www.surechembl.org/

> <PUBCHEM_EXT_SUBSTANCE_URL>
https://www.surechembl.org/chemical/SCHEMBL16106560

> <PUBCHEM_CID_ASSOCIATIONS>
86300013  1

> <PUBCHEM_COORDINATE_TYPE>
1
3

$$$$
