310948200
  -OEChem-07211613022D

 33 36  0     0  0  0  0  0  0999 V2000
    1.7969   -1.4278    0.0000 Br  0  0  0  0  0  0  0  0  0  0  0  0
   -3.9421   -1.0378    0.0000 F   0  0  0  0  0  0  0  0  0  0  0  0
   -4.0257    0.1044    0.0000 F   0  0  0  0  0  0  0  0  0  0  0  0
   -2.8695    0.1602    0.0000 F   0  0  0  0  0  0  0  0  0  0  0  0
    3.7611    2.8904    0.0000 F   0  0  0  0  0  0  0  0  0  0  0  0
    2.6188    2.5561    0.0000 F   0  0  0  0  0  0  0  0  0  0  0  0
    4.0257    1.7482    0.0000 F   0  0  0  0  0  0  0  0  0  0  0  0
    2.9113    1.4557    0.0000 O   0  0  0  0  0  0  0  0  0  0  0  0
   -1.5322   -1.4278    0.0000 N   0  0  0  0  0  0  0  0  0  0  0  0
   -0.6965    0.0209    0.0000 N   0  0  0  0  0  0  0  0  0  0  0  0
   -2.0198   -0.7452    0.0000 N   0  0  0  0  0  0  0  0  0  0  0  0
   -1.5322    0.1044    0.0000 N   0  0  0  0  0  0  0  0  0  0  0  0
   -1.6994    0.9263    0.0000 N   0  0  0  0  0  0  0  0  0  0  0  0
   -0.6965   -1.4138    0.0000 C   0  0  0  0  0  0  0  0  0  0  0  0
   -0.2786   -0.6895    0.0000 C   0  0  0  0  0  0  0  0  0  0  0  0
   -0.3622    0.8010    0.0000 C   0  0  0  0  0  0  0  0  0  0  0  0
   -2.0337   -2.0825    0.0000 C   0  0  0  0  0  0  0  0  0  0  0  0
   -2.7999   -0.9820    0.0000 C   0  0  0  0  0  0  0  0  0  0  0  0
    0.5572   -0.7035    0.0000 C   0  0  0  0  0  0  0  0  0  0  0  0
   -2.8138   -1.8178    0.0000 C   0  0  0  0  0  0  0  0  0  0  0  0
    0.4736    0.9682    0.0000 C   0  0  0  0  0  0  0  0  0  0  0  0
   -0.2786   -2.1243    0.0000 C   0  0  0  0  0  0  0  0  0  0  0  0
   -3.4128   -0.4249    0.0000 C   0  0  0  0  0  0  0  0  0  0  0  0
   -0.9890    1.3442    0.0000 C   0  0  0  0  0  0  0  0  0  0  0  0
    0.9473   -1.4138    0.0000 C   0  0  0  0  0  0  0  0  0  0  0  0
    0.5433   -2.1243    0.0000 C   0  0  0  0  0  0  0  0  0  0  0  0
    1.0448    0.3412    0.0000 C   0  0  0  0  0  0  0  0  0  0  0  0
    0.7383    1.7482    0.0000 C   0  0  0  0  0  0  0  0  0  0  0  0
   -1.7830   -2.8904    0.0000 C   0  0  0  0  0  0  0  0  0  0  0  0
    2.1034    1.3163    0.0000 C   0  0  0  0  0  0  0  0  0  0  0  0
    1.8387    0.5224    0.0000 C   0  0  0  0  0  0  0  0  0  0  0  0
    1.5462    1.9153    0.0000 C   0  0  0  0  0  0  0  0  0  0  0  0
    3.3431    2.1661    0.0000 C   0  0  0  0  0  0  0  0  0  0  0  0
  1 25  1  0  0  0  0
  2 23  1  0  0  0  0
  3 23  1  0  0  0  0
  4 23  1  0  0  0  0
  5 33  1  0  0  0  0
  6 33  1  0  0  0  0
  7 33  1  0  0  0  0
  8 30  1  0  0  0  0
  8 33  1  0  0  0  0
  9 11  1  0  0  0  0
  9 14  1  0  0  0  0
  9 17  1  0  0  0  0
 10 12  1  0  0  0  0
 10 15  1  0  0  0  0
 10 16  1  0  0  0  0
 11 18  2  0  0  0  0
 12 13  2  0  0  0  0
 13 24  1  0  0  0  0
 14 15  1  0  0  0  0
 14 22  2  0  0  0  0
 15 19  2  0  0  0  0
 16 21  1  0  0  0  0
 16 24  2  0  0  0  0
 17 20  2  0  0  0  0
 17 29  1  0  0  0  0
 18 20  1  0  0  0  0
 18 23  1  0  0  0  0
 19 25  1  0  0  0  0
 21 27  2  0  0  0  0
 21 28  1  0  0  0  0
 22 26  1  0  0  0  0
 25 26  2  0  0  0  0
 27 31  1  0  0  0  0
 28 32  2  0  0  0  0
 30 31  2  0  0  0  0
 30 32  1  0  0  0  0
M  END
> <PUBCHEM_COMPOUND_ID_TYPE>
0

> <PUBCHEM_TOTAL_CHARGE>
0

> <PUBCHEM_SUBSTANCE_ID>
310948200

> <PUBCHEM_SUBSTANCE_VERSION>
1

> <PUBCHEM_EXT_DATASOURCE_NAME>
4488

> <PUBCHEM_EXT_DATASOURCE_REGID>
SCHEMBL16126377

> <PUBCHEM_SUBSTANCE_COMMENT>
InChI=1S/C20H12BrF6N5O/c1-11-8-18(19(22,23)24)29-31(11)15-7-4-13(21)9-16(15)32-17(10-28-30-32)12-2-5-14(6-3-12)33-20(25,26)27/h2-10H,1H3
InChIKey=ODKVSIRIYLTHOH-UHFFFAOYSA-N

> <PUBCHEM_SUBSTANCE_SYNONYM>
SCHEMBL16126377

> <PUBCHEM_XREF_EXT_ID>
SCHEMBL16126377

> <PUBCHEM_EXT_DATASOURCE_URL>
https://www.surechembl.org/

> <PUBCHEM_EXT_SUBSTANCE_URL>
https://www.surechembl.org/chemical/SCHEMBL16126377

> <PUBCHEM_CID_ASSOCIATIONS>
117613780  1

> <PUBCHEM_COORDINATE_TYPE>
1
3

$$$$
