310929674
  -OEChem-07211613022D

 59 63  0     1  0  0  0  0  0999 V2000
   11.8241   -1.2409    0.0000 O   0  0  0  0  0  0  0  0  0  0  0  0
   13.2530   -3.7159    0.0000 O   0  0  0  0  0  0  0  0  0  0  0  0
   10.3658    1.5847    0.0000 O   0  0  0  0  0  0  0  0  0  0  0  0
   17.6503   -2.4784    0.0000 O   0  0  0  0  0  0  0  0  0  0  0  0
    8.4985    0.0303    0.0000 O   0  0  0  0  0  0  0  0  0  0  0  0
    9.0603    1.0035    0.0000 O   0  0  0  0  0  0  0  0  0  0  0  0
    8.6478   -1.3908    0.0000 O   0  0  0  0  0  0  0  0  0  0  0  0
   21.2227   -2.0659    0.0000 O   0  0  0  0  0  0  0  0  0  0  0  0
   18.3649   -1.2409    0.0000 O   0  0  0  0  0  0  0  0  0  0  0  0
   20.5083   -3.3034    0.0000 O   0  0  0  0  0  0  0  0  0  0  0  0
   11.1096   -2.4784    0.0000 N   0  0  0  0  0  0  0  0  0  0  0  0
   10.2164    0.1636    0.0000 N   0  0  0  0  0  0  0  0  0  0  0  0
   11.1096   -4.9534    0.0000 N   0  0  0  0  0  0  0  0  0  0  0  0
   19.0793   -2.4784    0.0000 N   0  0  0  0  0  0  0  0  0  0  0  0
   12.5385   -2.4784    0.0000 C   0  0  0  0  0  0  0  0  0  0  0  0
   12.5385   -3.3034    0.0000 C   0  0  0  0  0  0  0  0  0  0  0  0
   11.8241   -2.0659    0.0000 C   0  0  0  0  0  0  0  0  0  0  0  0
   11.8241   -3.7159    0.0000 C   0  0  0  0  0  0  0  0  0  0  0  0
   11.1096   -3.3034    0.0000 C   0  0  0  0  0  0  0  0  0  0  0  0
   11.1096   -0.8284    0.0000 C   0  0  3  0  0  0  0  0  0  0  0  0
   13.2530   -2.0659    0.0000 C   0  0  0  0  0  0  0  0  0  0  0  0
    9.8039   -0.5509    0.0000 C   0  0  3  0  0  0  0  0  0  0  0  0
   11.0234   -0.0080    0.0000 C   0  0  0  0  0  0  0  0  0  0  0  0
   10.3559   -1.1640    0.0000 C   0  0  0  0  0  0  0  0  0  0  0  0
   11.8241   -4.5409    0.0000 C   0  0  0  0  0  0  0  0  0  0  0  0
   10.3951   -3.7159    0.0000 C   0  0  0  0  0  0  0  0  0  0  0  0
    9.8808    0.9172    0.0000 C   0  0  0  0  0  0  0  0  0  0  0  0
    8.9834   -0.6371    0.0000 C   0  0  0  0  0  0  0  0  0  0  0  0
   13.9675   -2.4784    0.0000 C   0  0  0  0  0  0  0  0  0  0  0  0
   16.1109   -2.0659    0.0000 C   0  0  3  0  0  0  0  0  0  0  0  0
   16.9359   -2.0659    0.0000 C   0  0  3  0  0  0  0  0  0  0  0  0
   10.3951   -4.5409    0.0000 C   0  0  0  0  0  0  0  0  0  0  0  0
   16.5234   -1.3515    0.0000 C   0  0  0  0  0  0  0  0  0  0  0  0
   13.2530   -4.5409    0.0000 C   0  0  0  0  0  0  0  0  0  0  0  0
   13.2530   -1.2409    0.0000 C   0  0  0  0  0  0  0  0  0  0  0  0
   14.6819   -2.0659    0.0000 C   0  0  0  0  0  0  0  0  0  0  0  0
   15.3964   -2.4784    0.0000 C   0  0  0  0  0  0  0  0  0  0  0  0
   10.0302    2.3383    0.0000 C   0  0  0  0  0  0  0  0  0  0  0  0
   13.9675   -4.9534    0.0000 C   0  0  0  0  0  0  0  0  0  0  0  0
   18.3649   -2.0659    0.0000 C   0  0  0  0  0  0  0  0  0  0  0  0
   19.7938   -2.0659    0.0000 C   0  0  3  0  0  0  0  0  0  0  0  0
   19.7938   -1.2409    0.0000 C   0  0  0  0  0  0  0  0  0  0  0  0
   20.5083   -2.4784    0.0000 C   0  0  0  0  0  0  0  0  0  0  0  0
   13.9675   -5.7784    0.0000 C   0  0  0  0  0  0  0  0  0  0  0  0
   14.6819   -4.5409    0.0000 C   0  0  0  0  0  0  0  0  0  0  0  0
    9.6946    3.0920    0.0000 C   0  0  0  0  0  0  0  0  0  0  0  0
    9.2097    2.4246    0.0000 C   0  0  0  0  0  0  0  0  0  0  0  0
   10.5151    3.0058    0.0000 C   0  0  0  0  0  0  0  0  0  0  0  0
    7.6780   -0.0559    0.0000 C   0  0  0  0  0  0  0  0  0  0  0  0
   21.9372   -2.4784    0.0000 C   0  0  0  0  0  0  0  0  0  0  0  0
   20.5083   -0.8284    0.0000 C   0  0  0  0  0  0  0  0  0  0  0  0
   19.7938   -0.4159    0.0000 C   0  0  0  0  0  0  0  0  0  0  0  0
   19.0793   -0.8284    0.0000 C   0  0  0  0  0  0  0  0  0  0  0  0
   14.6819   -6.1909    0.0000 C   0  0  0  0  0  0  0  0  0  0  0  0
   15.3964   -4.9534    0.0000 C   0  0  0  0  0  0  0  0  0  0  0  0
   15.3964   -5.7784    0.0000 C   0  0  0  0  0  0  0  0  0  0  0  0
   21.9372   -3.3034    0.0000 C   0  0  0  0  0  0  0  0  0  0  0  0
   22.6517   -2.8909    0.0000 C   0  0  0  0  0  0  0  0  0  0  0  0
   22.6517   -2.0659    0.0000 C   0  0  0  0  0  0  0  0  0  0  0  0
  1 17  1  0  0  0  0
 20  1  1  6  0  0  0
  2 16  1  0  0  0  0
  2 34  1  0  0  0  0
  3 27  1  0  0  0  0
  3 38  1  0  0  0  0
 31  4  1  1  0  0  0
  4 40  1  0  0  0  0
  5 28  1  0  0  0  0
  5 49  1  0  0  0  0
  6 27  2  0  0  0  0
  7 28  2  0  0  0  0
  8 43  1  0  0  0  0
  8 50  1  0  0  0  0
  9 40  2  0  0  0  0
 10 43  2  0  0  0  0
 11 17  2  0  0  0  0
 11 19  1  0  0  0  0
 12 22  1  0  0  0  0
 12 23  1  0  0  0  0
 12 27  1  0  0  0  0
 13 25  1  0  0  0  0
 13 32  2  0  0  0  0
 14 40  1  0  0  0  0
 41 14  1  1  0  0  0
 15 16  2  0  0  0  0
 15 17  1  0  0  0  0
 15 21  1  0  0  0  0
 16 18  1  0  0  0  0
 18 19  1  0  0  0  0
 18 25  2  0  0  0  0
 19 26  2  0  0  0  0
 20 23  1  0  0  0  0
 20 24  1  0  0  0  0
 21 29  1  0  0  0  0
 21 35  2  0  0  0  0
 22 24  1  0  0  0  0
 22 28  1  1  0  0  0
 26 32  1  0  0  0  0
 29 36  1  0  0  0  0
 30 31  1  0  0  0  0
 30 33  1  0  0  0  0
 30 37  1  6  0  0  0
 31 33  1  0  0  0  0
 34 39  1  0  0  0  0
 36 37  1  0  0  0  0
 38 46  1  0  0  0  0
 38 47  1  0  0  0  0
 38 48  1  0  0  0  0
 39 44  2  0  0  0  0
 39 45  1  0  0  0  0
 41 42  1  0  0  0  0
 41 43  1  0  0  0  0
 42 51  1  0  0  0  0
 42 52  1  0  0  0  0
 42 53  1  0  0  0  0
 44 54  1  0  0  0  0
 45 55  2  0  0  0  0
 50 57  1  0  0  0  0
 50 58  1  0  0  0  0
 50 59  1  0  0  0  0
 54 56  2  0  0  0  0
 55 56  1  0  0  0  0
M  END
> <PUBCHEM_COMPOUND_ID_TYPE>
0

> <PUBCHEM_TOTAL_CHARGE>
0

> <PUBCHEM_SUBSTANCE_ID>
310929674

> <PUBCHEM_SUBSTANCE_VERSION>
1

> <PUBCHEM_EXT_DATASOURCE_NAME>
4488

> <PUBCHEM_EXT_DATASOURCE_REGID>
SCHEMBL16106865

> <PUBCHEM_SUBSTANCE_COMMENT>
InChI=1S/C45H60N4O10/c1-27(16-15-19-29-22-34(29)57-41(52)48-37(43(2,3)4)40(51)58-44(5,6)7)35-36(55-26-28-17-13-12-14-18-28)31-24-46-21-20-32(31)47-38(35)56-30-23-33(39(50)54-11)49(25-30)42(53)59-45(8,9)10/h12-14,17-18,20-21,24,29-30,33-34,37H,1,15-16,19,22-23,25-26H2,2-11H3,(H,48,52)/t29-,30-,33+,34-,37-/m1/s1
InChIKey=WGWDGJBRZORSHV-NZLXAJSLSA-N

> <PUBCHEM_SUBSTANCE_SYNONYM>
SCHEMBL16106865

> <PUBCHEM_XREF_EXT_ID>
SCHEMBL16106865

> <PUBCHEM_EXT_DATASOURCE_URL>
https://www.surechembl.org/

> <PUBCHEM_EXT_SUBSTANCE_URL>
https://www.surechembl.org/chemical/SCHEMBL16106865

> <PUBCHEM_CID_ASSOCIATIONS>
117598971  1

> <PUBCHEM_COORDINATE_TYPE>
1
3

> <PUBCHEM_BONDANNOTATIONS>
20  1  6
41  14  5
22  28  5
30  37  6
31  4  5

$$$$
