310947896
  -OEChem-07211613022D

 19 22  0     0  0  0  0  0  0999 V2000
   -1.3363    0.0134    0.0000 O   0  0  0  0  0  0  0  0  0  0  0  0
    1.4870   -0.6996    0.0000 N   0  0  0  0  0  0  0  0  0  0  0  0
    3.5135    0.2269    0.0000 N   0  0  0  0  0  0  0  0  0  0  0  0
    1.0745    0.5700    0.0000 C   0  0  0  0  0  0  0  0  0  0  0  0
    1.8995    0.5700    0.0000 C   0  0  0  0  0  0  0  0  0  0  0  0
    2.1545   -0.2147    0.0000 C   0  0  0  0  0  0  0  0  0  0  0  0
    0.8196   -0.2147    0.0000 C   0  0  0  0  0  0  0  0  0  0  0  0
    2.9614   -0.3862    0.0000 C   0  0  0  0  0  0  0  0  0  0  0  0
    0.0126   -0.3862    0.0000 C   0  0  0  0  0  0  0  0  0  0  0  0
    0.5225    1.1831    0.0000 C   0  0  0  0  0  0  0  0  0  0  0  0
    2.4515    1.1831    0.0000 C   0  0  0  0  0  0  0  0  0  0  0  0
   -0.5394    0.2269    0.0000 C   0  0  0  0  0  0  0  0  0  0  0  0
   -0.2845    1.0115    0.0000 C   0  0  0  0  0  0  0  0  0  0  0  0
    3.2585    1.0115    0.0000 C   0  0  0  0  0  0  0  0  0  0  0  0
    3.1750   -1.1831    0.0000 C   0  0  0  0  0  0  0  0  0  0  0  0
   -2.7166    0.3832    0.0000 C   0  0  0  0  0  0  0  0  0  0  0  0
   -1.9197    0.5968    0.0000 C   0  0  0  0  0  0  0  0  0  0  0  0
   -3.5135    0.5968    0.0000 C   0  0  0  0  0  0  0  0  0  0  0  0
   -3.2999   -0.2001    0.0000 C   0  0  0  0  0  0  0  0  0  0  0  0
  1 12  1  0  0  0  0
  1 17  1  0  0  0  0
  2  6  1  0  0  0  0
  2  7  1  0  0  0  0
  3  8  2  0  0  0  0
  3 14  1  0  0  0  0
  4  5  1  0  0  0  0
  4  7  1  0  0  0  0
  4 10  2  0  0  0  0
  5  6  2  0  0  0  0
  5 11  1  0  0  0  0
  6  8  1  0  0  0  0
  7  9  2  0  0  0  0
  8 15  1  0  0  0  0
  9 12  1  0  0  0  0
 10 13  1  0  0  0  0
 11 14  2  0  0  0  0
 12 13  2  0  0  0  0
 16 17  1  0  0  0  0
 16 18  1  0  0  0  0
 16 19  1  0  0  0  0
 18 19  1  0  0  0  0
M  END
> <PUBCHEM_COMPOUND_ID_TYPE>
0

> <PUBCHEM_TOTAL_CHARGE>
0

> <PUBCHEM_SUBSTANCE_ID>
310947896

> <PUBCHEM_SUBSTANCE_VERSION>
1

> <PUBCHEM_EXT_DATASOURCE_NAME>
4488

> <PUBCHEM_EXT_DATASOURCE_REGID>
SCHEMBL16126070

> <PUBCHEM_SUBSTANCE_COMMENT>
InChI=1S/C16H16N2O/c1-10-16-14(6-7-17-10)13-5-4-12(8-15(13)18-16)19-9-11-2-3-11/h4-8,11,18H,2-3,9H2,1H3
InChIKey=AKZHJCOEJRUXAH-UHFFFAOYSA-N

> <PUBCHEM_SUBSTANCE_SYNONYM>
SCHEMBL16126070

> <PUBCHEM_XREF_EXT_ID>
SCHEMBL16126070

> <PUBCHEM_EXT_DATASOURCE_URL>
https://www.surechembl.org/

> <PUBCHEM_EXT_SUBSTANCE_URL>
https://www.surechembl.org/chemical/SCHEMBL16126070

> <PUBCHEM_CID_ASSOCIATIONS>
117613560  1

> <PUBCHEM_COORDINATE_TYPE>
1
3

$$$$
