310934310
  -OEChem-07211613022D

 24 25  0     0  0  0  0  0  0999 V2000
    2.1657   -2.4914    0.0000 O   0  0  0  0  0  0  0  0  0  0  0  0
    3.6030   -2.4914    0.0000 O   0  0  0  0  0  0  0  0  0  0  0  0
    0.7282   -3.3347    0.0000 O   0  0  0  0  0  0  0  0  0  0  0  0
    3.6030   -0.8432    0.0000 O   0  0  0  0  0  0  0  0  0  0  0  0
    2.8747   -1.2649    0.0000 O   0  0  0  0  0  0  0  0  0  0  0  0
    2.1465    0.0000    0.0000 O   0  0  0  0  0  0  0  0  0  0  0  0
    5.7495   -3.7371    0.0000 O   0  0  0  0  0  0  0  0  0  0  0  0
    1.4565   -2.0890    0.0000 C   0  0  0  0  0  0  0  0  0  0  0  0
    4.3313   -2.0890    0.0000 C   0  0  0  0  0  0  0  0  0  0  0  0
    0.7282   -2.4914    0.0000 C   0  0  0  0  0  0  0  0  0  0  0  0
    4.3313   -1.2457    0.0000 C   0  0  0  0  0  0  0  0  0  0  0  0
    1.4374   -1.2649    0.0000 C   0  0  0  0  0  0  0  0  0  0  0  0
    5.0404   -2.4914    0.0000 C   0  0  0  0  0  0  0  0  0  0  0  0
    2.8747   -2.0890    0.0000 C   0  0  0  0  0  0  0  0  0  0  0  0
    0.0000   -2.0890    0.0000 C   0  0  0  0  0  0  0  0  0  0  0  0
    5.0404   -0.8432    0.0000 C   0  0  0  0  0  0  0  0  0  0  0  0
    0.7282   -0.8432    0.0000 C   0  0  0  0  0  0  0  0  0  0  0  0
    5.7495   -2.0890    0.0000 C   0  0  0  0  0  0  0  0  0  0  0  0
    0.0000   -1.2649    0.0000 C   0  0  0  0  0  0  0  0  0  0  0  0
    5.7495   -1.2649    0.0000 C   0  0  0  0  0  0  0  0  0  0  0  0
    2.1465   -0.8432    0.0000 C   0  0  0  0  0  0  0  0  0  0  0  0
    5.0404   -3.3156    0.0000 C   0  0  0  0  0  0  0  0  0  0  0  0
    1.4565   -3.7563    0.0000 C   0  0  0  0  0  0  0  0  0  0  0  0
    3.0664   -1.4182    0.0000 C   0  0  0  0  0  0  0  0  0  0  0  0
  1  8  1  0  0  0  0
  1 14  1  0  0  0  0
  2  9  1  0  0  0  0
  2 14  1  0  0  0  0
  3 10  1  0  0  0  0
  3 23  1  0  0  0  0
  4 11  1  0  0  0  0
  4 24  1  0  0  0  0
  5 14  2  0  0  0  0
  6 21  1  0  0  0  0
  7 22  1  0  0  0  0
  8 10  2  0  0  0  0
  8 12  1  0  0  0  0
  9 11  2  0  0  0  0
  9 13  1  0  0  0  0
 10 15  1  0  0  0  0
 11 16  1  0  0  0  0
 12 17  2  0  0  0  0
 12 21  1  0  0  0  0
 13 18  2  0  0  0  0
 13 22  1  0  0  0  0
 15 19  2  0  0  0  0
 16 20  2  0  0  0  0
 17 19  1  0  0  0  0
 18 20  1  0  0  0  0
M  END
> <PUBCHEM_COMPOUND_ID_TYPE>
0

> <PUBCHEM_TOTAL_CHARGE>
0

> <PUBCHEM_SUBSTANCE_ID>
310934310

> <PUBCHEM_SUBSTANCE_VERSION>
1

> <PUBCHEM_EXT_DATASOURCE_NAME>
4488

> <PUBCHEM_EXT_DATASOURCE_REGID>
SCHEMBL16111768

> <PUBCHEM_SUBSTANCE_COMMENT>
InChI=1S/C17H18O7/c1-21-13-7-3-5-11(9-18)15(13)23-17(20)24-16-12(10-19)6-4-8-14(16)22-2/h3-8,18-19H,9-10H2,1-2H3
InChIKey=KLMHYJIYVCYMDK-UHFFFAOYSA-N

> <PUBCHEM_SUBSTANCE_SYNONYM>
SCHEMBL16111768

> <PUBCHEM_XREF_EXT_ID>
SCHEMBL16111768

> <PUBCHEM_EXT_DATASOURCE_URL>
https://www.surechembl.org/

> <PUBCHEM_EXT_SUBSTANCE_URL>
https://www.surechembl.org/chemical/SCHEMBL16111768

> <PUBCHEM_CID_ASSOCIATIONS>
117602551  1

> <PUBCHEM_COORDINATE_TYPE>
1
3

$$$$
