310948862
  -OEChem-07211613022D

 58 60  0     1  0  0  0  0  0999 V2000
    5.3893    0.5905    0.0000 P   0  0  3  0  0  0  0  0  0  0  0  0
    9.0442   -1.3240    0.0000 F   0  0  0  0  0  0  0  0  0  0  0  0
    8.2112    0.6651    0.0000 O   0  0  0  0  0  0  0  0  0  0  0  0
    7.3784   -1.3364    0.0000 O   0  0  0  0  0  0  0  0  0  0  0  0
    6.0978    0.1802    0.0000 O   0  0  0  0  0  0  0  0  0  0  0  0
   10.4863   -0.2549    0.0000 O   0  0  0  0  0  0  0  0  0  0  0  0
    4.9665   -0.1305    0.0000 O   0  0  0  0  0  0  0  0  0  0  0  0
   11.2198    2.5175    0.0000 O   0  0  0  0  0  0  0  0  0  0  0  0
    5.3893    1.4234    0.0000 O   0  0  0  0  0  0  0  0  0  0  0  0
   -0.4662   -0.6527    0.0000 O   0  0  0  0  0  0  0  0  0  0  0  0
    9.4918    0.7646    0.0000 N   0  0  0  0  0  0  0  0  0  0  0  0
   10.9960    1.1375    0.0000 N   0  0  0  0  0  0  0  0  0  0  0  0
    4.5687    0.5905    0.0000 N   0  0  0  0  0  0  0  0  0  0  0  0
    2.4180    0.1802    0.0000 N   0  0  3  0  0  0  0  0  0  0  0  0
    0.2673    0.5905    0.0000 N   0  0  0  0  0  0  0  0  0  0  0  0
    8.6464   -0.6030    0.0000 C   0  0  3  0  0  0  0  0  0  0  0  0
    8.8826    0.1802    0.0000 C   0  0  3  0  0  0  0  0  0  0  0  0
    7.8010   -0.6030    0.0000 C   0  0  3  0  0  0  0  0  0  0  0  0
    7.5524    0.1802    0.0000 C   0  0  3  0  0  0  0  0  0  0  0  0
   10.2750    0.5532    0.0000 C   0  0  0  0  0  0  0  0  0  0  0  0
    9.4669   -0.6154    0.0000 C   0  0  0  0  0  0  0  0  0  0  0  0
    6.8313    0.5905    0.0000 C   0  0  0  0  0  0  0  0  0  0  0  0
    9.2804    1.5602    0.0000 C   0  0  0  0  0  0  0  0  0  0  0  0
   10.6479    1.9331    0.0000 C   0  0  0  0  0  0  0  0  0  0  0  0
    9.8522    2.1445    0.0000 C   0  0  0  0  0  0  0  0  0  0  0  0
    5.1903   -0.9137    0.0000 C   0  0  0  0  0  0  0  0  0  0  0  0
    3.8601    0.1802    0.0000 C   0  0  0  0  0  0  0  0  0  0  0  0
    4.6184   -1.5105    0.0000 C   0  0  0  0  0  0  0  0  0  0  0  0
    5.9984   -1.1499    0.0000 C   0  0  0  0  0  0  0  0  0  0  0  0
    3.1267    0.5905    0.0000 C   0  0  0  0  0  0  0  0  0  0  0  0
    4.8422   -2.3061    0.0000 C   0  0  0  0  0  0  0  0  0  0  0  0
    6.2097   -1.9456    0.0000 C   0  0  0  0  0  0  0  0  0  0  0  0
    5.6379   -2.5175    0.0000 C   0  0  0  0  0  0  0  0  0  0  0  0
    1.6845    0.5905    0.0000 C   0  0  0  0  0  0  0  0  0  0  0  0
    2.4180   -0.6402    0.0000 C   0  0  0  0  0  0  0  0  0  0  0  0
    0.9883    0.1802    0.0000 C   0  0  0  0  0  0  0  0  0  0  0  0
   -0.4537    0.1927    0.0000 C   0  0  0  0  0  0  0  0  0  0  0  0
   -1.1873    0.5905    0.0000 C   0  0  0  0  0  0  0  0  0  0  0  0
   -1.8834    0.1802    0.0000 C   0  0  0  0  0  0  0  0  0  0  0  0
   -2.6169    0.5905    0.0000 C   0  0  0  0  0  0  0  0  0  0  0  0
   -3.3131    0.1927    0.0000 C   0  0  0  0  0  0  0  0  0  0  0  0
   -3.3255   -0.6527    0.0000 C   0  0  0  0  0  0  0  0  0  0  0  0
   -4.0341   -1.0629    0.0000 C   0  0  0  0  0  0  0  0  0  0  0  0
   -4.7677   -0.6402    0.0000 C   0  0  0  0  0  0  0  0  0  0  0  0
   -4.7677    0.1802    0.0000 C   0  0  0  0  0  0  0  0  0  0  0  0
   -5.4887    0.5905    0.0000 C   0  0  0  0  0  0  0  0  0  0  0  0
   -6.1849    0.1927    0.0000 C   0  0  0  0  0  0  0  0  0  0  0  0
   -6.1973   -0.6527    0.0000 C   0  0  0  0  0  0  0  0  0  0  0  0
   -6.9183   -1.0629    0.0000 C   0  0  0  0  0  0  0  0  0  0  0  0
   -7.6270   -0.6527    0.0000 C   0  0  0  0  0  0  0  0  0  0  0  0
   -7.6270    0.1802    0.0000 C   0  0  0  0  0  0  0  0  0  0  0  0
   -8.3605    0.5905    0.0000 C   0  0  0  0  0  0  0  0  0  0  0  0
   -9.0566    0.1802    0.0000 C   0  0  0  0  0  0  0  0  0  0  0  0
   -9.0690   -0.6527    0.0000 C   0  0  0  0  0  0  0  0  0  0  0  0
   -9.7901   -1.0629    0.0000 C   0  0  0  0  0  0  0  0  0  0  0  0
  -10.4987   -0.6527    0.0000 C   0  0  0  0  0  0  0  0  0  0  0  0
  -10.4987    0.1802    0.0000 C   0  0  0  0  0  0  0  0  0  0  0  0
  -11.2198    0.5781    0.0000 C   0  0  0  0  0  0  0  0  0  0  0  0
  1  5  1  0  0  0  0
  1  7  1  0  0  0  0
  1  9  2  0  0  0  0
  1 13  1  0  0  0  0
 16  2  1  6  0  0  0
  3 17  1  0  0  0  0
  3 19  1  0  0  0  0
 18  4  1  6  0  0  0
  5 22  1  0  0  0  0
  6 20  2  0  0  0  0
  7 26  1  0  0  0  0
  8 24  2  0  0  0  0
 10 37  2  0  0  0  0
 11 17  1  0  0  0  0
 11 20  1  0  0  0  0
 11 23  1  0  0  0  0
 12 20  1  0  0  0  0
 12 24  1  0  0  0  0
 13 27  1  0  0  0  0
 14 30  1  0  0  0  0
 14 34  1  0  0  0  0
 14 35  1  0  0  0  0
 15 36  1  0  0  0  0
 15 37  1  0  0  0  0
 16 17  1  0  0  0  0
 16 18  1  0  0  0  0
 16 21  1  1  0  0  0
 18 19  1  0  0  0  0
 19 22  1  1  0  0  0
 23 25  2  0  0  0  0
 24 25  1  0  0  0  0
 26 28  2  0  0  0  0
 26 29  1  0  0  0  0
 27 30  1  0  0  0  0
 28 31  1  0  0  0  0
 29 32  2  0  0  0  0
 31 33  2  0  0  0  0
 32 33  1  0  0  0  0
 34 36  1  0  0  0  0
 37 38  1  0  0  0  0
 38 39  1  0  0  0  0
 39 40  1  0  0  0  0
 40 41  2  0  0  0  0
 41 42  1  0  0  0  0
 42 43  1  0  0  0  0
 43 44  2  0  0  0  0
 44 45  1  0  0  0  0
 45 46  1  0  0  0  0
 46 47  2  0  0  0  0
 47 48  1  0  0  0  0
 48 49  1  0  0  0  0
 49 50  2  0  0  0  0
 50 51  1  0  0  0  0
 51 52  1  0  0  0  0
 52 53  2  0  0  0  0
 53 54  1  0  0  0  0
 54 55  1  0  0  0  0
 55 56  2  0  0  0  0
 56 57  1  0  0  0  0
 57 58  1  0  0  0  0
M  END
> <PUBCHEM_COMPOUND_ID_TYPE>
0

> <PUBCHEM_TOTAL_CHARGE>
0

> <PUBCHEM_SUBSTANCE_ID>
310948862

> <PUBCHEM_SUBSTANCE_VERSION>
1

> <PUBCHEM_EXT_DATASOURCE_NAME>
4488

> <PUBCHEM_EXT_DATASOURCE_REGID>
SCHEMBL16127047

> <PUBCHEM_SUBSTANCE_COMMENT>
InChI=1S/C43H61FN5O8P/c1-4-5-6-7-8-9-10-11-12-13-14-15-16-17-18-19-20-21-25-28-38(50)45-30-33-48(3)34-31-46-58(54,57-36-26-23-22-24-27-36)55-35-37-40(52)43(2,44)41(56-37)49-32-29-39(51)47-42(49)53/h5-6,8-9,11-12,14-15,17-18,20-24,26-27,29,32,37,40-41,52H,4,7,10,13,16,19,25,28,30-31,33-35H2,1-3H3,(H,45,50)(H,46,54)(H,47,51,53)/b6-5-,9-8-,12-11-,15-14-,18-17-,21-20-/t37-,40-,41?,43-,58?/m1/s1
InChIKey=CPLARBQISACOJR-KNFOOMBLSA-N

> <PUBCHEM_SUBSTANCE_SYNONYM>
SCHEMBL16127047

> <PUBCHEM_XREF_EXT_ID>
SCHEMBL16127047

> <PUBCHEM_EXT_DATASOURCE_URL>
https://www.surechembl.org/

> <PUBCHEM_EXT_SUBSTANCE_URL>
https://www.surechembl.org/chemical/SCHEMBL16127047

> <PUBCHEM_CID_ASSOCIATIONS>
117614397  1

> <PUBCHEM_COORDINATE_TYPE>
1
3

> <PUBCHEM_BONDANNOTATIONS>
16  21  5
19  22  5
16  2  6
18  4  6

$$$$
