310932903
  -OEChem-07211613022D

 26 30  0     0  0  0  0  0  0999 V2000
    0.0000   -4.3977    0.0000 O   0  0  0  0  0  0  0  0  0  0  0  0
    5.5521   -3.2983    0.0000 O   0  0  0  0  0  0  0  0  0  0  0  0
    4.2327   -2.6111    0.0000 N   0  0  0  0  0  0  0  0  0  0  0  0
    4.2327   -3.9579    0.0000 N   0  0  0  0  0  0  0  0  0  0  0  0
    0.4123   -5.1397    0.0000 N   0  0  0  0  0  0  0  0  0  0  0  0
    2.6936    0.0000    0.0000 N   0  0  0  0  0  0  0  0  0  0  0  0
    2.7210   -2.4462    0.0000 C   0  0  0  0  0  0  0  0  0  0  0  0
    3.4356   -2.8585    0.0000 C   0  0  0  0  0  0  0  0  0  0  0  0
    3.4356   -3.7105    0.0000 C   0  0  0  0  0  0  0  0  0  0  0  0
    2.0064   -3.7105    0.0000 C   0  0  0  0  0  0  0  0  0  0  0  0
    2.6936   -1.6216    0.0000 C   0  0  0  0  0  0  0  0  0  0  0  0
    1.3193   -4.1228    0.0000 C   0  0  0  0  0  0  0  0  0  0  0  0
    2.0064   -2.8585    0.0000 C   0  0  0  0  0  0  0  0  0  0  0  0
    2.7210   -4.1228    0.0000 C   0  0  0  0  0  0  0  0  0  0  0  0
    1.9789   -1.2369    0.0000 C   0  0  0  0  0  0  0  0  0  0  0  0
    4.7275   -3.2983    0.0000 C   0  0  0  0  0  0  0  0  0  0  0  0
    1.2369   -1.6491    0.0000 C   0  0  0  0  0  0  0  0  0  0  0  0
    0.5497   -3.7930    0.0000 C   0  0  0  0  0  0  0  0  0  0  0  0
    1.2094   -4.9473    0.0000 C   0  0  0  0  0  0  0  0  0  0  0  0
    3.4082   -1.2369    0.0000 C   0  0  0  0  0  0  0  0  0  0  0  0
    1.9789   -0.4123    0.0000 C   0  0  0  0  0  0  0  0  0  0  0  0
    0.8245   -2.3637    0.0000 C   0  0  0  0  0  0  0  0  0  0  0  0
    0.4123   -1.6491    0.0000 C   0  0  0  0  0  0  0  0  0  0  0  0
    3.4356   -0.3848    0.0000 C   0  0  0  0  0  0  0  0  0  0  0  0
    0.3573   -2.9959    0.0000 C   0  0  0  0  0  0  0  0  0  0  0  0
    1.8415   -5.4970    0.0000 C   0  0  0  0  0  0  0  0  0  0  0  0
  1  5  1  0  0  0  0
  1 18  1  0  0  0  0
  2 16  2  0  0  0  0
  3  8  1  0  0  0  0
  3 16  1  0  0  0  0
  4  9  1  0  0  0  0
  4 16  1  0  0  0  0
  5 19  2  0  0  0  0
  6 21  1  0  0  0  0
  6 24  2  0  0  0  0
  7  8  1  0  0  0  0
  7 11  1  0  0  0  0
  7 13  2  0  0  0  0
  8  9  2  0  0  0  0
  9 14  1  0  0  0  0
 10 12  1  0  0  0  0
 10 13  1  0  0  0  0
 10 14  2  0  0  0  0
 11 15  1  0  0  0  0
 11 20  2  0  0  0  0
 12 18  2  0  0  0  0
 12 19  1  0  0  0  0
 15 17  1  0  0  0  0
 15 21  2  0  0  0  0
 17 22  1  0  0  0  0
 17 23  1  0  0  0  0
 18 25  1  0  0  0  0
 19 26  1  0  0  0  0
 20 24  1  0  0  0  0
 22 23  1  0  0  0  0
M  END
> <PUBCHEM_COMPOUND_ID_TYPE>
0

> <PUBCHEM_TOTAL_CHARGE>
0

> <PUBCHEM_SUBSTANCE_ID>
310932903

> <PUBCHEM_SUBSTANCE_VERSION>
1

> <PUBCHEM_EXT_DATASOURCE_NAME>
4488

> <PUBCHEM_EXT_DATASOURCE_REGID>
SCHEMBL16110297

> <PUBCHEM_SUBSTANCE_COMMENT>
InChI=1S/C20H18N4O2/c1-10-18(11(2)26-24-10)13-7-15(19-17(8-13)22-20(25)23-19)14-5-6-21-9-16(14)12-3-4-12/h5-9,12H,3-4H2,1-2H3,(H2,22,23,25)
InChIKey=XHNPASRLSSAABD-UHFFFAOYSA-N

> <PUBCHEM_SUBSTANCE_SYNONYM>
SCHEMBL16110297

> <PUBCHEM_XREF_EXT_ID>
SCHEMBL16110297

> <PUBCHEM_EXT_DATASOURCE_URL>
https://www.surechembl.org/

> <PUBCHEM_EXT_SUBSTANCE_URL>
https://www.surechembl.org/chemical/SCHEMBL16110297

> <PUBCHEM_CID_ASSOCIATIONS>
117601385  1

> <PUBCHEM_COORDINATE_TYPE>
1
3

$$$$
