310947833
  -OEChem-07211613022D

 23 24  0     0  0  0  0  0  0999 V2000
   -1.0873   -0.8311    0.0000 I   0  0  0  0  0  0  0  0  0  0  0  0
    0.3624    1.6684    0.0000 I   0  0  0  0  0  0  0  0  0  0  0  0
   -1.0998    0.8311    0.0000 O   0  0  0  0  0  0  0  0  0  0  0  0
   -3.9868   -0.8311    0.0000 O   0  0  0  0  0  0  0  0  0  0  0  0
    3.2369   -1.6684    0.0000 O   0  0  0  0  0  0  0  0  0  0  0  0
    3.9617   -0.4062    0.0000 N   0  0  0  0  0  0  0  0  0  0  0  0
   -0.3624    0.4187    0.0000 C   0  0  0  0  0  0  0  0  0  0  0  0
   -0.3749   -0.4062    0.0000 C   0  0  0  0  0  0  0  0  0  0  0  0
    0.3624    0.8311    0.0000 C   0  0  0  0  0  0  0  0  0  0  0  0
    1.0748   -0.4062    0.0000 C   0  0  0  0  0  0  0  0  0  0  0  0
    0.3624   -0.8186    0.0000 C   0  0  0  0  0  0  0  0  0  0  0  0
    1.0748    0.4187    0.0000 C   0  0  0  0  0  0  0  0  0  0  0  0
   -1.8121    0.4311    0.0000 C   0  0  0  0  0  0  0  0  0  0  0  0
    1.8121   -0.8186    0.0000 C   0  0  0  0  0  0  0  0  0  0  0  0
   -2.5245    0.8311    0.0000 C   0  0  0  0  0  0  0  0  0  0  0  0
   -1.8121   -0.4062    0.0000 C   0  0  0  0  0  0  0  0  0  0  0  0
   -3.2619   -0.4062    0.0000 C   0  0  0  0  0  0  0  0  0  0  0  0
   -3.2369    0.4187    0.0000 C   0  0  0  0  0  0  0  0  0  0  0  0
   -2.5245   -0.8186    0.0000 C   0  0  0  0  0  0  0  0  0  0  0  0
    2.5245   -0.4062    0.0000 C   0  0  0  0  0  0  0  0  0  0  0  0
    3.2494   -0.8061    0.0000 C   0  0  0  0  0  0  0  0  0  0  0  0
   -4.6865   -0.4187    0.0000 C   0  0  0  0  0  0  0  0  0  0  0  0
    4.6865   -0.8311    0.0000 C   0  0  0  0  0  0  0  0  0  0  0  0
  1  8  1  0  0  0  0
  2  9  1  0  0  0  0
  3  7  1  0  0  0  0
  3 13  1  0  0  0  0
  4 17  1  0  0  0  0
  4 22  1  0  0  0  0
  5 21  2  0  0  0  0
  6 21  1  0  0  0  0
  6 23  1  0  0  0  0
  7  8  2  0  0  0  0
  7  9  1  0  0  0  0
  8 11  1  0  0  0  0
  9 12  2  0  0  0  0
 10 11  2  0  0  0  0
 10 12  1  0  0  0  0
 10 14  1  0  0  0  0
 13 15  2  0  0  0  0
 13 16  1  0  0  0  0
 14 20  1  0  0  0  0
 15 18  1  0  0  0  0
 16 19  2  0  0  0  0
 17 18  2  0  0  0  0
 17 19  1  0  0  0  0
 20 21  1  0  0  0  0
M  END
> <PUBCHEM_COMPOUND_ID_TYPE>
0

> <PUBCHEM_TOTAL_CHARGE>
0

> <PUBCHEM_SUBSTANCE_ID>
310947833

> <PUBCHEM_SUBSTANCE_VERSION>
1

> <PUBCHEM_EXT_DATASOURCE_NAME>
4488

> <PUBCHEM_EXT_DATASOURCE_REGID>
SCHEMBL16126005

> <PUBCHEM_SUBSTANCE_COMMENT>
InChI=1S/C17H17I2NO3/c1-20-16(21)8-3-11-9-14(18)17(15(19)10-11)23-13-6-4-12(22-2)5-7-13/h4-7,9-10H,3,8H2,1-2H3,(H,20,21)
InChIKey=VJSMKURLXJSCTI-UHFFFAOYSA-N

> <PUBCHEM_SUBSTANCE_SYNONYM>
SCHEMBL16126005

> <PUBCHEM_XREF_EXT_ID>
SCHEMBL16126005

> <PUBCHEM_EXT_DATASOURCE_URL>
https://www.surechembl.org/

> <PUBCHEM_EXT_SUBSTANCE_URL>
https://www.surechembl.org/chemical/SCHEMBL16126005

> <PUBCHEM_CID_ASSOCIATIONS>
117613499  1

> <PUBCHEM_COORDINATE_TYPE>
1
3

$$$$
