310949520
  -OEChem-07211613022D

 22 23  0     0  0  0  0  0  0999 V2000
    2.1560    1.4374    0.0000 O   0  0  0  0  0  0  0  0  0  0  0  0
    3.6079    1.4374    0.0000 O   0  0  0  0  0  0  0  0  0  0  0  0
    0.7187   -1.0309    0.0000 O   0  0  0  0  0  0  0  0  0  0  0  0
    1.4301    0.2032    0.0000 N   0  0  0  0  0  0  0  0  0  0  0  0
   -0.0073    0.2032    0.0000 N   0  0  0  0  0  0  0  0  0  0  0  0
   -3.6079    0.6098    0.0000 N   0  0  0  0  0  0  0  0  0  0  0  0
    2.1705   -0.2323    0.0000 C   0  0  0  0  0  0  0  0  0  0  0  0
    2.8820    0.2032    0.0000 C   0  0  0  0  0  0  0  0  0  0  0  0
    2.8675    1.0163    0.0000 C   0  0  0  0  0  0  0  0  0  0  0  0
    0.7187   -0.2032    0.0000 C   0  0  0  0  0  0  0  0  0  0  0  0
   -0.7332   -0.2177    0.0000 C   0  0  0  0  0  0  0  0  0  0  0  0
    2.1705   -1.0454    0.0000 C   0  0  0  0  0  0  0  0  0  0  0  0
    3.5934   -0.2323    0.0000 C   0  0  0  0  0  0  0  0  0  0  0  0
   -1.4446    0.1887    0.0000 C   0  0  0  0  0  0  0  0  0  0  0  0
   -2.1560   -0.2323    0.0000 C   0  0  0  0  0  0  0  0  0  0  0  0
    2.8675   -1.4374    0.0000 C   0  0  0  0  0  0  0  0  0  0  0  0
    3.5934   -1.0454    0.0000 C   0  0  0  0  0  0  0  0  0  0  0  0
   -0.7332   -1.0454    0.0000 C   0  0  0  0  0  0  0  0  0  0  0  0
   -2.1560   -1.0454    0.0000 C   0  0  0  0  0  0  0  0  0  0  0  0
   -1.4591   -1.4374    0.0000 C   0  0  0  0  0  0  0  0  0  0  0  0
   -2.8675    0.2323    0.0000 C   0  0  0  0  0  0  0  0  0  0  0  0
    1.4156    1.0018    0.0000 C   0  0  0  0  0  0  0  0  0  0  0  0
  1  9  1  0  0  0  0
  1 22  1  0  0  0  0
  2  9  2  0  0  0  0
  3 10  2  0  0  0  0
  4  7  1  0  0  0  0
  4 10  1  0  0  0  0
  5 10  1  0  0  0  0
  5 11  1  0  0  0  0
  6 21  3  0  0  0  0
  7  8  2  0  0  0  0
  7 12  1  0  0  0  0
  8  9  1  0  0  0  0
  8 13  1  0  0  0  0
 11 14  1  0  0  0  0
 11 18  2  0  0  0  0
 12 16  2  0  0  0  0
 13 17  2  0  0  0  0
 14 15  2  0  0  0  0
 15 19  1  0  0  0  0
 15 21  1  0  0  0  0
 16 17  1  0  0  0  0
 18 20  1  0  0  0  0
 19 20  2  0  0  0  0
M  END
> <PUBCHEM_COMPOUND_ID_TYPE>
0

> <PUBCHEM_TOTAL_CHARGE>
0

> <PUBCHEM_SUBSTANCE_ID>
310949520

> <PUBCHEM_SUBSTANCE_VERSION>
1

> <PUBCHEM_EXT_DATASOURCE_NAME>
4488

> <PUBCHEM_EXT_DATASOURCE_REGID>
SCHEMBL16127715

> <PUBCHEM_SUBSTANCE_COMMENT>
InChI=1S/C16H13N3O3/c1-22-15(20)13-7-2-3-8-14(13)19-16(21)18-12-6-4-5-11(9-12)10-17/h2-9H,1H3,(H2,18,19,21)
InChIKey=HDIBWJIXQSOCRS-UHFFFAOYSA-N

> <PUBCHEM_SUBSTANCE_SYNONYM>
SCHEMBL16127715

> <PUBCHEM_XREF_EXT_ID>
SCHEMBL16127715

> <PUBCHEM_EXT_DATASOURCE_URL>
https://www.surechembl.org/

> <PUBCHEM_EXT_SUBSTANCE_URL>
https://www.surechembl.org/chemical/SCHEMBL16127715

> <PUBCHEM_CID_ASSOCIATIONS>
108992336  1

> <PUBCHEM_COORDINATE_TYPE>
1
3

$$$$
