310929242
  -OEChem-07211613022D

 58 63  0     0  0  0  0  0  0999 V2000
    1.4838   -1.2791    0.0000 S   0  0  0  0  0  0  0  0  0  0  0  0
    7.3165   -1.2791    0.0000 O   0  0  0  0  0  0  0  0  0  0  0  0
    3.6326   -2.5582    0.0000 O   0  0  0  0  0  0  0  0  0  0  0  0
    5.1164   -4.2466    0.0000 O   0  0  0  0  0  0  0  0  0  0  0  0
    1.8931   -0.5628    0.0000 O   0  0  0  0  0  0  0  0  0  0  0  0
    1.0233   -1.9954    0.0000 O   0  0  0  0  0  0  0  0  0  0  0  0
   10.2328   -6.2931    0.0000 O   0  0  0  0  0  0  0  0  0  0  0  0
   11.6654   -2.9163    0.0000 O   0  0  0  0  0  0  0  0  0  0  0  0
   15.3492   -1.6884    0.0000 O   0  0  0  0  0  0  0  0  0  0  0  0
    3.6326   -4.2466    0.0000 N   0  0  0  0  0  0  0  0  0  0  0  0
    4.4001   -2.9675    0.0000 N   0  0  0  0  0  0  0  0  0  0  0  0
    2.2001   -1.6884    0.0000 N   0  0  0  0  0  0  0  0  0  0  0  0
    8.0328   -2.5070    0.0000 N   0  0  0  0  0  0  0  0  0  0  0  0
    8.7490   -3.7861    0.0000 N   0  0  0  0  0  0  0  0  0  0  0  0
    9.4653   -2.5070    0.0000 N   0  0  0  0  0  0  0  0  0  0  0  0
   12.4328   -4.1954    0.0000 N   0  0  0  0  0  0  0  0  0  0  0  0
   13.8655   -2.5070    0.0000 N   0  0  0  0  0  0  0  0  0  0  0  0
    5.1164   -1.7396    0.0000 C   0  0  0  0  0  0  0  0  0  0  0  0
    2.9163   -3.8373    0.0000 C   0  0  0  0  0  0  0  0  0  0  0  0
    2.9163   -2.9675    0.0000 C   0  0  0  0  0  0  0  0  0  0  0  0
    5.8327   -1.2791    0.0000 C   0  0  0  0  0  0  0  0  0  0  0  0
    2.2001   -2.5582    0.0000 C   0  0  0  0  0  0  0  0  0  0  0  0
    1.4838   -3.7861    0.0000 C   0  0  0  0  0  0  0  0  0  0  0  0
    5.1164   -2.5582    0.0000 C   0  0  0  0  0  0  0  0  0  0  0  0
    6.5490   -1.6884    0.0000 C   0  0  0  0  0  0  0  0  0  0  0  0
    2.2001   -4.2466    0.0000 C   0  0  0  0  0  0  0  0  0  0  0  0
    1.4838   -2.9675    0.0000 C   0  0  0  0  0  0  0  0  0  0  0  0
    0.7163   -4.1954    0.0000 C   0  0  0  0  0  0  0  0  0  0  0  0
    4.4001   -3.8373    0.0000 C   0  0  0  0  0  0  0  0  0  0  0  0
    5.8327   -2.9675    0.0000 C   0  0  0  0  0  0  0  0  0  0  0  0
    6.6002   -2.5582    0.0000 C   0  0  0  0  0  0  0  0  0  0  0  0
    4.4001   -1.2791    0.0000 C   0  0  0  0  0  0  0  0  0  0  0  0
    5.8327   -0.4604    0.0000 C   0  0  0  0  0  0  0  0  0  0  0  0
    8.0328   -1.6884    0.0000 C   0  0  0  0  0  0  0  0  0  0  0  0
    4.3489   -0.4604    0.0000 C   0  0  0  0  0  0  0  0  0  0  0  0
    5.1164    0.0000    0.0000 C   0  0  0  0  0  0  0  0  0  0  0  0
    8.7490   -2.9675    0.0000 C   0  0  0  0  0  0  0  0  0  0  0  0
    0.3070   -3.4791    0.0000 C   0  0  0  0  0  0  0  0  0  0  0  0
    0.0000   -4.6047    0.0000 C   0  0  0  0  0  0  0  0  0  0  0  0
    1.1256   -4.9629    0.0000 C   0  0  0  0  0  0  0  0  0  0  0  0
    9.5165   -4.1954    0.0000 C   0  0  0  0  0  0  0  0  0  0  0  0
    8.7490   -1.2280    0.0000 C   0  0  0  0  0  0  0  0  0  0  0  0
   10.9491   -4.1954    0.0000 C   0  0  0  0  0  0  0  0  0  0  0  0
   10.2328   -3.7861    0.0000 C   0  0  0  0  0  0  0  0  0  0  0  0
   10.2328   -5.4745    0.0000 C   0  0  0  0  0  0  0  0  0  0  0  0
    9.5165   -5.0652    0.0000 C   0  0  0  0  0  0  0  0  0  0  0  0
    9.4653   -1.6884    0.0000 C   0  0  0  0  0  0  0  0  0  0  0  0
    3.6326   -1.6884    0.0000 C   0  0  0  0  0  0  0  0  0  0  0  0
   10.9491   -5.0652    0.0000 C   0  0  0  0  0  0  0  0  0  0  0  0
    0.7675   -0.8698    0.0000 C   0  0  0  0  0  0  0  0  0  0  0  0
   11.6654   -3.7861    0.0000 C   0  0  0  0  0  0  0  0  0  0  0  0
   13.1492   -3.7861    0.0000 C   0  0  0  0  0  0  0  0  0  0  0  0
   10.9491   -6.7537    0.0000 C   0  0  0  0  0  0  0  0  0  0  0  0
   13.1492   -2.9163    0.0000 C   0  0  0  0  0  0  0  0  0  0  0  0
   13.8655   -1.6884    0.0000 C   0  0  0  0  0  0  0  0  0  0  0  0
   14.5817   -2.9163    0.0000 C   0  0  0  0  0  0  0  0  0  0  0  0
   14.6329   -1.2791    0.0000 C   0  0  0  0  0  0  0  0  0  0  0  0
   15.2980   -2.5582    0.0000 C   0  0  0  0  0  0  0  0  0  0  0  0
  1  5  2  0  0  0  0
  1  6  2  0  0  0  0
  1 12  1  0  0  0  0
  1 50  1  0  0  0  0
  2 25  1  0  0  0  0
  2 34  1  0  0  0  0
  3 20  1  0  0  0  0
  3 48  1  0  0  0  0
  4 29  2  0  0  0  0
  7 45  1  0  0  0  0
  7 53  1  0  0  0  0
  8 51  2  0  0  0  0
  9 57  1  0  0  0  0
  9 58  1  0  0  0  0
 10 19  1  0  0  0  0
 10 29  1  0  0  0  0
 11 24  1  0  0  0  0
 11 29  1  0  0  0  0
 12 22  1  0  0  0  0
 13 34  2  0  0  0  0
 13 37  1  0  0  0  0
 14 37  1  0  0  0  0
 14 41  1  0  0  0  0
 15 37  2  0  0  0  0
 15 47  1  0  0  0  0
 16 51  1  0  0  0  0
 16 52  1  0  0  0  0
 17 54  1  0  0  0  0
 17 55  1  0  0  0  0
 17 56  1  0  0  0  0
 18 21  2  0  0  0  0
 18 24  1  0  0  0  0
 18 32  1  0  0  0  0
 19 20  1  0  0  0  0
 19 26  2  0  0  0  0
 20 22  2  0  0  0  0
 21 25  1  0  0  0  0
 21 33  1  0  0  0  0
 22 27  1  0  0  0  0
 23 26  1  0  0  0  0
 23 27  2  0  0  0  0
 23 28  1  0  0  0  0
 24 30  2  0  0  0  0
 25 31  2  0  0  0  0
 28 38  1  0  0  0  0
 28 39  1  0  0  0  0
 28 40  1  0  0  0  0
 30 31  1  0  0  0  0
 32 35  2  0  0  0  0
 33 36  2  0  0  0  0
 34 42  1  0  0  0  0
 35 36  1  0  0  0  0
 41 44  1  0  0  0  0
 41 46  2  0  0  0  0
 42 47  2  0  0  0  0
 43 44  2  0  0  0  0
 43 49  1  0  0  0  0
 43 51  1  0  0  0  0
 45 46  1  0  0  0  0
 45 49  2  0  0  0  0
 52 54  1  0  0  0  0
 55 57  1  0  0  0  0
 56 58  1  0  0  0  0
M  END
> <PUBCHEM_COMPOUND_ID_TYPE>
0

> <PUBCHEM_TOTAL_CHARGE>
0

> <PUBCHEM_SUBSTANCE_ID>
310929242

> <PUBCHEM_SUBSTANCE_VERSION>
1

> <PUBCHEM_EXT_DATASOURCE_NAME>
4488

> <PUBCHEM_EXT_DATASOURCE_REGID>
SCHEMBL16106406

> <PUBCHEM_SUBSTANCE_COMMENT>
InChI=1S/C41H48N8O8S/c1-41(2,3)27-23-33(37(55-5)34(24-27)48-58(6,52)53)46-40(51)45-32-11-12-35(31-10-8-7-9-30(31)32)57-36-13-14-43-39(47-36)44-28-21-26(22-29(25-28)54-4)38(50)42-15-16-49-17-19-56-20-18-49/h7-14,21-25,48H,15-20H2,1-6H3,(H,42,50)(H,43,44,47)(H2,45,46,51)
InChIKey=PNYZVGKTHJXNGD-UHFFFAOYSA-N

> <PUBCHEM_SUBSTANCE_SYNONYM>
SCHEMBL16106406

> <PUBCHEM_XREF_EXT_ID>
SCHEMBL16106406

> <PUBCHEM_EXT_DATASOURCE_URL>
https://www.surechembl.org/

> <PUBCHEM_EXT_SUBSTANCE_URL>
https://www.surechembl.org/chemical/SCHEMBL16106406

> <PUBCHEM_CID_ASSOCIATIONS>
86274976  1

> <PUBCHEM_COORDINATE_TYPE>
1
3

$$$$
