310949293
  -OEChem-07211613022D

 42 49  0     0  0  0  0  0  0999 V2000
   -2.3216    1.6923    0.0000 N   0  0  0  0  0  0  0  0  0  0  0  0
    2.0155   -2.1345    0.0000 N   0  0  0  0  0  0  0  0  0  0  0  0
   -4.4816    2.1515    0.0000 N   0  0  0  0  0  0  0  0  0  0  0  0
   -0.1956    2.1005    0.0000 N   0  0  0  0  0  0  0  0  0  0  0  0
   -1.6583    1.2160    0.0000 C   0  0  0  0  0  0  0  0  0  0  0  0
   -1.9134    0.4166    0.0000 C   0  0  0  0  0  0  0  0  0  0  0  0
   -3.0189    1.2160    0.0000 C   0  0  0  0  0  0  0  0  0  0  0  0
   -2.7638    0.4506    0.0000 C   0  0  0  0  0  0  0  0  0  0  0  0
    0.7229   -1.8114    0.0000 C   0  0  0  0  0  0  0  0  0  0  0  0
    1.4372   -1.4882    0.0000 C   0  0  0  0  0  0  0  0  0  0  0  0
   -2.3216    2.5597    0.0000 C   0  0  0  0  0  0  0  0  0  0  0  0
    0.8079   -2.6618    0.0000 C   0  0  0  0  0  0  0  0  0  0  0  0
    1.6072   -2.8488    0.0000 C   0  0  0  0  0  0  0  0  0  0  0  0
   -0.5697   -0.0255    0.0000 C   0  0  0  0  0  0  0  0  0  0  0  0
    0.1445   -0.5017    0.0000 C   0  0  0  0  0  0  0  0  0  0  0  0
   -1.4031   -0.1616    0.0000 C   0  0  0  0  0  0  0  0  0  0  0  0
   -0.8249    1.3522    0.0000 C   0  0  0  0  0  0  0  0  0  0  0  0
    0.0595   -1.3181    0.0000 C   0  0  0  0  0  0  0  0  0  0  0  0
   -3.0700    2.9680    0.0000 C   0  0  0  0  0  0  0  0  0  0  0  0
   -1.6072    2.9680    0.0000 C   0  0  0  0  0  0  0  0  0  0  0  0
    2.8658   -2.0325    0.0000 C   0  0  0  0  0  0  0  0  0  0  0  0
   -0.2806    0.7569    0.0000 C   0  0  0  0  0  0  0  0  0  0  0  0
    1.5562   -0.6719    0.0000 C   0  0  0  0  0  0  0  0  0  0  0  0
   -3.8183    1.4031    0.0000 C   0  0  0  0  0  0  0  0  0  0  0  0
   -3.3081   -0.1616    0.0000 C   0  0  0  0  0  0  0  0  0  0  0  0
    0.8590   -0.1956    0.0000 C   0  0  0  0  0  0  0  0  0  0  0  0
    0.2636   -3.2401    0.0000 C   0  0  0  0  0  0  0  0  0  0  0  0
    1.8454   -3.6142    0.0000 C   0  0  0  0  0  0  0  0  0  0  0  0
   -4.3796    0.7909    0.0000 C   0  0  0  0  0  0  0  0  0  0  0  0
   -4.1075    0.0085    0.0000 C   0  0  0  0  0  0  0  0  0  0  0  0
   -3.0360    3.8013    0.0000 C   0  0  0  0  0  0  0  0  0  0  0  0
   -1.6072    3.8013    0.0000 C   0  0  0  0  0  0  0  0  0  0  0  0
    3.3081   -2.6958    0.0000 C   0  0  0  0  0  0  0  0  0  0  0  0
    3.1720   -1.2841    0.0000 C   0  0  0  0  0  0  0  0  0  0  0  0
    0.5187   -4.0395    0.0000 C   0  0  0  0  0  0  0  0  0  0  0  0
    1.2841   -4.2095    0.0000 C   0  0  0  0  0  0  0  0  0  0  0  0
   -3.7842    2.5427    0.0000 C   0  0  0  0  0  0  0  0  0  0  0  0
   -0.8930    2.5257    0.0000 C   0  0  0  0  0  0  0  0  0  0  0  0
   -2.3386    4.2095    0.0000 C   0  0  0  0  0  0  0  0  0  0  0  0
    4.1415   -2.6107    0.0000 C   0  0  0  0  0  0  0  0  0  0  0  0
    4.0054   -1.2160    0.0000 C   0  0  0  0  0  0  0  0  0  0  0  0
    4.4816   -1.8794    0.0000 C   0  0  0  0  0  0  0  0  0  0  0  0
  1  5  1  0  0  0  0
  1  7  1  0  0  0  0
  1 11  1  0  0  0  0
  2 10  1  0  0  0  0
  2 13  1  0  0  0  0
  2 21  1  0  0  0  0
  3 37  3  0  0  0  0
  4 38  3  0  0  0  0
  5  6  2  0  0  0  0
  5 17  1  0  0  0  0
  6  8  1  0  0  0  0
  6 16  1  0  0  0  0
  7  8  2  0  0  0  0
  7 24  1  0  0  0  0
  8 25  1  0  0  0  0
  9 10  2  0  0  0  0
  9 12  1  0  0  0  0
  9 18  1  0  0  0  0
 10 23  1  0  0  0  0
 11 19  1  0  0  0  0
 11 20  2  0  0  0  0
 12 13  2  0  0  0  0
 12 27  1  0  0  0  0
 13 28  1  0  0  0  0
 14 15  1  0  0  0  0
 14 16  2  0  0  0  0
 14 22  1  0  0  0  0
 15 18  2  0  0  0  0
 15 26  1  0  0  0  0
 17 22  2  0  0  0  0
 19 31  2  0  0  0  0
 19 37  1  0  0  0  0
 20 32  1  0  0  0  0
 20 38  1  0  0  0  0
 21 33  2  0  0  0  0
 21 34  1  0  0  0  0
 23 26  2  0  0  0  0
 24 29  2  0  0  0  0
 25 30  2  0  0  0  0
 27 35  2  0  0  0  0
 28 36  2  0  0  0  0
 29 30  1  0  0  0  0
 31 39  1  0  0  0  0
 32 39  2  0  0  0  0
 33 40  1  0  0  0  0
 34 41  2  0  0  0  0
 35 36  1  0  0  0  0
 40 42  2  0  0  0  0
 41 42  1  0  0  0  0
M  END
> <PUBCHEM_COMPOUND_ID_TYPE>
0

> <PUBCHEM_TOTAL_CHARGE>
0

> <PUBCHEM_SUBSTANCE_ID>
310949293

> <PUBCHEM_SUBSTANCE_VERSION>
1

> <PUBCHEM_EXT_DATASOURCE_NAME>
4488

> <PUBCHEM_EXT_DATASOURCE_REGID>
SCHEMBL16127483

> <PUBCHEM_SUBSTANCE_COMMENT>
InChI=1S/C38H22N4/c39-23-27-9-8-10-28(24-40)38(27)42-35-16-7-5-14-31(35)33-22-26(18-20-37(33)42)25-17-19-36-32(21-25)30-13-4-6-15-34(30)41(36)29-11-2-1-3-12-29/h1-22H
InChIKey=CEURSOOPZNYJQZ-UHFFFAOYSA-N

> <PUBCHEM_SUBSTANCE_SYNONYM>
SCHEMBL16127483

> <PUBCHEM_XREF_EXT_ID>
SCHEMBL16127483

> <PUBCHEM_EXT_DATASOURCE_URL>
https://www.surechembl.org/

> <PUBCHEM_EXT_SUBSTANCE_URL>
https://www.surechembl.org/chemical/SCHEMBL16127483

> <PUBCHEM_CID_ASSOCIATIONS>
117614777  1

> <PUBCHEM_COORDINATE_TYPE>
1
3

$$$$
