310937229
  -OEChem-07211613022D

 44 48  0     1  0  0  0  0  0999 V2000
    3.7963   -2.0965    0.0000 S   0  0  0  0  0  0  0  0  0  0  0  0
    0.0000   -9.2924    0.0000 F   0  0  0  0  0  0  0  0  0  0  0  0
    0.9632  -10.4257    0.0000 F   0  0  0  0  0  0  0  0  0  0  0  0
    0.6233   -8.7825    0.0000 F   0  0  0  0  0  0  0  0  0  0  0  0
    3.6830  -11.3322    0.0000 F   0  0  0  0  0  0  0  0  0  0  0  0
    4.1363   -9.9723    0.0000 F   0  0  0  0  0  0  0  0  0  0  0  0
    2.8897  -11.0489    0.0000 F   0  0  0  0  0  0  0  0  0  0  0  0
    3.7397   -7.4226    0.0000 O   0  0  0  0  0  0  0  0  0  0  0  0
    4.4196   -6.1194    0.0000 O   0  0  0  0  0  0  0  0  0  0  0  0
    2.9464   -6.3460    0.0000 N   0  0  0  0  0  0  0  0  0  0  0  0
    4.3629   -5.9494    0.0000 N   0  0  0  0  0  0  0  0  0  0  0  0
    4.6462   -4.5329    0.0000 N   0  0  0  0  0  0  0  0  0  0  0  0
    3.0030    0.0000    0.0000 N   0  0  0  0  0  0  0  0  0  0  0  0
    2.9464   -7.7059    0.0000 C   0  0  3  0  0  0  0  0  0  0  0  0
    2.4931   -7.0260    0.0000 C   0  0  3  0  0  0  0  0  0  0  0  0
    2.6631   -8.4992    0.0000 C   0  0  0  0  0  0  0  0  0  0  0  0
    3.7397   -6.6294    0.0000 C   0  0  0  0  0  0  0  0  0  0  0  0
    3.2863   -4.9296    0.0000 C   0  0  0  0  0  0  0  0  0  0  0  0
    1.5865   -9.4057    0.0000 C   0  0  0  0  0  0  0  0  0  0  0  0
    2.9464   -9.8590    0.0000 C   0  0  0  0  0  0  0  0  0  0  0  0
    2.7197   -5.5528    0.0000 C   0  0  0  0  0  0  0  0  0  0  0  0
    3.2297   -9.1225    0.0000 C   0  0  0  0  0  0  0  0  0  0  0  0
    1.8698   -8.6692    0.0000 C   0  0  0  0  0  0  0  0  0  0  0  0
    4.0796   -5.1561    0.0000 C   0  0  0  0  0  0  0  0  0  0  0  0
    2.1531  -10.0290    0.0000 C   0  0  0  0  0  0  0  0  0  0  0  0
    0.7933   -9.5758    0.0000 C   0  0  0  0  0  0  0  0  0  0  0  0
    3.5130  -10.5390    0.0000 C   0  0  0  0  0  0  0  0  0  0  0  0
    3.5697   -3.5130    0.0000 C   0  0  0  0  0  0  0  0  0  0  0  0
    3.0030   -4.1929    0.0000 C   0  0  0  0  0  0  0  0  0  0  0  0
    3.2863   -2.7764    0.0000 C   0  0  0  0  0  0  0  0  0  0  0  0
    1.6432   -7.0260    0.0000 C   0  0  0  0  0  0  0  0  0  0  0  0
    4.3629   -3.7397    0.0000 C   0  0  0  0  0  0  0  0  0  0  0  0
    3.9663   -6.6860    0.0000 C   0  0  0  0  0  0  0  0  0  0  0  0
    5.1561   -6.1194    0.0000 C   0  0  0  0  0  0  0  0  0  0  0  0
    2.4931   -2.4931    0.0000 C   0  0  0  0  0  0  0  0  0  0  0  0
    3.2863   -1.4166    0.0000 C   0  0  0  0  0  0  0  0  0  0  0  0
    4.0229   -7.3660    0.0000 C   0  0  0  0  0  0  0  0  0  0  0  0
    3.1164   -6.5727    0.0000 C   0  0  0  0  0  0  0  0  0  0  0  0
    2.4931   -1.6432    0.0000 C   0  0  0  0  0  0  0  0  0  0  0  0
    3.4563   -7.9326    0.0000 C   0  0  0  0  0  0  0  0  0  0  0  0
    2.6064   -7.1393    0.0000 C   0  0  0  0  0  0  0  0  0  0  0  0
    3.5697   -0.6233    0.0000 C   0  0  0  0  0  0  0  0  0  0  0  0
    5.7228   -5.4962    0.0000 C   0  0  0  0  0  0  0  0  0  0  0  0
    2.6631   -7.8193    0.0000 C   0  0  0  0  0  0  0  0  0  0  0  0
  1 30  1  0  0  0  0
  1 36  1  0  0  0  0
  2 26  1  0  0  0  0
  3 26  1  0  0  0  0
  4 26  1  0  0  0  0
  5 27  1  0  0  0  0
  6 27  1  0  0  0  0
  7 27  1  0  0  0  0
 14  8  1  1  0  0  0
  8 17  1  0  0  0  0
  9 17  2  0  0  0  0
 10 15  1  0  0  0  0
 10 17  1  0  0  0  0
 10 21  1  0  0  0  0
 11 24  1  0  0  0  0
 11 33  1  0  0  0  0
 11 34  1  0  0  0  0
 12 24  2  0  0  0  0
 12 32  1  0  0  0  0
 13 42  3  0  0  0  0
 14 15  1  0  0  0  0
 14 16  1  0  0  0  0
 15 31  1  6  0  0  0
 16 22  2  0  0  0  0
 16 23  1  0  0  0  0
 18 21  1  0  0  0  0
 18 24  1  0  0  0  0
 18 29  2  0  0  0  0
 19 23  2  0  0  0  0
 19 25  1  0  0  0  0
 19 26  1  0  0  0  0
 20 22  1  0  0  0  0
 20 25  2  0  0  0  0
 20 27  1  0  0  0  0
 28 29  1  0  0  0  0
 28 30  1  0  0  0  0
 28 32  2  0  0  0  0
 30 35  2  0  0  0  0
 33 37  1  0  0  0  0
 33 38  1  0  0  0  0
 34 43  1  0  0  0  0
 35 39  1  0  0  0  0
 36 39  2  0  0  0  0
 36 42  1  0  0  0  0
 37 40  1  0  0  0  0
 38 41  1  0  0  0  0
 40 44  1  0  0  0  0
 41 44  1  0  0  0  0
M  END
> <PUBCHEM_COMPOUND_ID_TYPE>
0

> <PUBCHEM_TOTAL_CHARGE>
0

> <PUBCHEM_SUBSTANCE_ID>
310937229

> <PUBCHEM_SUBSTANCE_VERSION>
1

> <PUBCHEM_EXT_DATASOURCE_NAME>
4488

> <PUBCHEM_EXT_DATASOURCE_REGID>
SCHEMBL16114965

> <PUBCHEM_SUBSTANCE_COMMENT>
InChI=1S/C31H30F6N4O2S/c1-3-40(24-7-5-4-6-8-24)28-21(11-20(16-39-28)26-10-9-25(15-38)44-26)17-41-18(2)27(43-29(41)42)19-12-22(30(32,33)34)14-23(13-19)31(35,36)37/h9-14,16,18,24,27H,3-8,17H2,1-2H3/t18-,27+/m0/s1
InChIKey=PWUHCSNIJAYZEX-XRHLQHRESA-N

> <PUBCHEM_SUBSTANCE_SYNONYM>
SCHEMBL16114965

> <PUBCHEM_XREF_EXT_ID>
SCHEMBL16114965

> <PUBCHEM_EXT_DATASOURCE_URL>
https://www.surechembl.org/

> <PUBCHEM_EXT_SUBSTANCE_URL>
https://www.surechembl.org/chemical/SCHEMBL16114965

> <PUBCHEM_CID_ASSOCIATIONS>
117605032  1

> <PUBCHEM_COORDINATE_TYPE>
1
3

> <PUBCHEM_BONDANNOTATIONS>
15  31  6
14  8  5

$$$$
