310938581
  -OEChem-07211613022D

 19 21  0     0  0  0  0  0  0999 V2000
    0.2894   -4.3561    0.0000 O   0  0  0  0  0  0  0  0  0  0  0  0
    1.7184   -4.3561    0.0000 O   0  0  0  0  0  0  0  0  0  0  0  0
    1.7184   -2.7061    0.0000 N   0  0  0  0  0  0  0  0  0  0  0  0
    2.5030   -2.9610    0.0000 N   0  0  0  0  0  0  0  0  0  0  0  0
    1.0039   -1.4686    0.0000 N   0  0  0  0  0  0  0  0  0  0  0  0
    1.7184   -1.8811    0.0000 C   0  0  0  0  0  0  0  0  0  0  0  0
    2.9879   -2.2936    0.0000 C   0  0  0  0  0  0  0  0  0  0  0  0
    1.0039   -3.1186    0.0000 C   0  0  0  0  0  0  0  0  0  0  0  0
    2.5030   -1.6261    0.0000 C   0  0  0  0  0  0  0  0  0  0  0  0
    3.8129   -2.2936    0.0000 C   0  0  0  0  0  0  0  0  0  0  0  0
    0.2894   -2.7061    0.0000 C   0  0  0  0  0  0  0  0  0  0  0  0
    1.0039   -3.9436    0.0000 C   0  0  0  0  0  0  0  0  0  0  0  0
    4.2254   -1.5791    0.0000 C   0  0  0  0  0  0  0  0  0  0  0  0
    0.2894   -1.8811    0.0000 C   0  0  0  0  0  0  0  0  0  0  0  0
    4.2254   -3.0080    0.0000 C   0  0  0  0  0  0  0  0  0  0  0  0
    5.0504   -1.5791    0.0000 C   0  0  0  0  0  0  0  0  0  0  0  0
    5.0504   -3.0080    0.0000 C   0  0  0  0  0  0  0  0  0  0  0  0
    5.4629   -2.2936    0.0000 C   0  0  0  0  0  0  0  0  0  0  0  0
    3.8129   -0.8646    0.0000 C   0  0  0  0  0  0  0  0  0  0  0  0
  1 12  2  0  0  0  0
  2 12  1  0  0  0  0
  3  4  1  0  0  0  0
  3  6  1  0  0  0  0
  3  8  1  0  0  0  0
  4  7  2  0  0  0  0
  5  6  1  0  0  0  0
  5 14  2  0  0  0  0
  6  9  2  0  0  0  0
  7  9  1  0  0  0  0
  7 10  1  0  0  0  0
  8 11  2  0  0  0  0
  8 12  1  0  0  0  0
 10 13  1  0  0  0  0
 10 15  2  0  0  0  0
 11 14  1  0  0  0  0
 13 16  2  0  0  0  0
 13 19  1  0  0  0  0
 15 17  1  0  0  0  0
 16 18  1  0  0  0  0
 17 18  2  0  0  0  0
M  END
> <PUBCHEM_COMPOUND_ID_TYPE>
0

> <PUBCHEM_TOTAL_CHARGE>
0

> <PUBCHEM_SUBSTANCE_ID>
310938581

> <PUBCHEM_SUBSTANCE_VERSION>
1

> <PUBCHEM_EXT_DATASOURCE_NAME>
4488

> <PUBCHEM_EXT_DATASOURCE_REGID>
SCHEMBL16116495

> <PUBCHEM_SUBSTANCE_COMMENT>
InChI=1S/C14H11N3O2/c1-9-4-2-3-5-10(9)11-8-13-15-7-6-12(14(18)19)17(13)16-11/h2-8H,1H3,(H,18,19)
InChIKey=GNCQMBGPFFAOIV-UHFFFAOYSA-N

> <PUBCHEM_SUBSTANCE_SYNONYM>
SCHEMBL16116495

> <PUBCHEM_XREF_EXT_ID>
SCHEMBL16116495

> <PUBCHEM_EXT_DATASOURCE_URL>
https://www.surechembl.org/

> <PUBCHEM_EXT_SUBSTANCE_URL>
https://www.surechembl.org/chemical/SCHEMBL16116495

> <PUBCHEM_CID_ASSOCIATIONS>
117606017  1

> <PUBCHEM_COORDINATE_TYPE>
1
3

$$$$
