310942056
  -OEChem-07211613022D

 21 23  0     0  0  0  0  0  0999 V2000
   -2.0024   -3.1048    0.0000 F   0  0  0  0  0  0  0  0  0  0  0  0
    2.5724    1.5149    0.0000 O   0  0  0  0  0  0  0  0  0  0  0  0
   -0.5625   -0.6150    0.0000 N   0  0  0  0  0  0  0  0  0  0  0  0
    0.9074   -0.3150    0.0000 N   0  0  0  0  0  0  0  0  0  0  0  0
    1.5374    2.5049    0.0000 N   0  0  0  0  0  0  0  0  0  0  0  0
    2.1074    3.1048    0.0000 N   0  0  0  0  0  0  0  0  0  0  0  0
   -0.1425    0.6900    0.0000 C   0  0  0  0  0  0  0  0  0  0  0  0
    0.0975   -0.1050    0.0000 C   0  0  0  0  0  0  0  0  0  0  0  0
   -0.9675    0.6900    0.0000 C   0  0  0  0  0  0  0  0  0  0  0  0
   -1.2674   -0.0900    0.0000 C   0  0  0  0  0  0  0  0  0  0  0  0
    0.4125    1.2899    0.0000 C   0  0  0  0  0  0  0  0  0  0  0  0
    1.2074    1.0949    0.0000 C   0  0  0  0  0  0  0  0  0  0  0  0
   -1.5224    1.3050    0.0000 C   0  0  0  0  0  0  0  0  0  0  0  0
   -2.0474   -0.2550    0.0000 C   0  0  0  0  0  0  0  0  0  0  0  0
    1.4625    0.3000    0.0000 C   0  0  0  0  0  0  0  0  0  0  0  0
   -0.5925   -1.4400    0.0000 C   0  0  0  0  0  0  0  0  0  0  0  0
    1.7474    1.7549    0.0000 C   0  0  0  0  0  0  0  0  0  0  0  0
   -2.3174    1.1399    0.0000 C   0  0  0  0  0  0  0  0  0  0  0  0
   -2.5724    0.3600    0.0000 C   0  0  0  0  0  0  0  0  0  0  0  0
   -1.2825   -1.8449    0.0000 C   0  0  0  0  0  0  0  0  0  0  0  0
   -1.3124   -2.6849    0.0000 C   0  0  0  0  0  0  0  0  0  0  0  0
  1 21  1  0  0  0  0
  2 17  2  0  0  0  0
  3  8  1  0  0  0  0
  3 10  1  0  0  0  0
  3 16  1  0  0  0  0
  4  8  1  0  0  0  0
  4 15  2  0  0  0  0
  5  6  1  0  0  0  0
  5 17  1  0  0  0  0
  7  8  2  0  0  0  0
  7  9  1  0  0  0  0
  7 11  1  0  0  0  0
  9 10  1  0  0  0  0
  9 13  2  0  0  0  0
 10 14  2  0  0  0  0
 11 12  2  0  0  0  0
 12 15  1  0  0  0  0
 12 17  1  0  0  0  0
 13 18  1  0  0  0  0
 14 19  1  0  0  0  0
 16 20  1  0  0  0  0
 18 19  2  0  0  0  0
 20 21  1  0  0  0  0
M  END
> <PUBCHEM_COMPOUND_ID_TYPE>
0

> <PUBCHEM_TOTAL_CHARGE>
0

> <PUBCHEM_SUBSTANCE_ID>
310942056

> <PUBCHEM_SUBSTANCE_VERSION>
1

> <PUBCHEM_EXT_DATASOURCE_NAME>
4488

> <PUBCHEM_EXT_DATASOURCE_REGID>
SCHEMBL16120091

> <PUBCHEM_SUBSTANCE_COMMENT>
InChI=1S/C15H15FN4O/c16-6-3-7-20-13-5-2-1-4-11(13)12-8-10(15(21)19-17)9-18-14(12)20/h1-2,4-5,8-9H,3,6-7,17H2,(H,19,21)
InChIKey=OYEGITYTGZNVNT-UHFFFAOYSA-N

> <PUBCHEM_SUBSTANCE_SYNONYM>
SCHEMBL16120091

> <PUBCHEM_XREF_EXT_ID>
SCHEMBL16120091

> <PUBCHEM_EXT_DATASOURCE_URL>
https://www.surechembl.org/

> <PUBCHEM_EXT_SUBSTANCE_URL>
https://www.surechembl.org/chemical/SCHEMBL16120091

> <PUBCHEM_CID_ASSOCIATIONS>
117608734  1

> <PUBCHEM_COORDINATE_TYPE>
1
3

$$$$
