310948156
  -OEChem-07211613022D

 38 42  0     0  0  0  0  0  0999 V2000
    1.8975   -2.5094    0.0000 Br  0  0  0  0  0  0  0  0  0  0  0  0
    4.8537   -1.6156    0.0000 F   0  0  0  0  0  0  0  0  0  0  0  0
    4.0425   -2.3581    0.0000 F   0  0  0  0  0  0  0  0  0  0  0  0
   -0.2062    0.4469    0.0000 O   0  0  0  0  0  0  0  0  0  0  0  0
    3.2175   -1.6294    0.0000 O   0  0  0  0  0  0  0  0  0  0  0  0
    4.2075   -0.7356    0.0000 O   0  0  0  0  0  0  0  0  0  0  0  0
   -1.7050    1.5606    0.0000 O   0  0  0  0  0  0  0  0  0  0  0  0
    0.8800    1.2444    0.0000 N   0  0  0  0  0  0  0  0  0  0  0  0
   -1.7187   -1.1894    0.0000 N   0  0  0  0  0  0  0  0  0  0  0  0
   -2.2688   -0.5844    0.0000 N   0  0  0  0  0  0  0  0  0  0  0  0
   -3.0113    0.9831    0.0000 N   0  0  0  0  0  0  0  0  0  0  0  0
   -4.8537    1.0656    0.0000 N   0  0  0  0  0  0  0  0  0  0  0  0
    0.4813   -0.0344    0.0000 C   0  0  0  0  0  0  0  0  0  0  0  0
    1.1275    0.4606    0.0000 C   0  0  0  0  0  0  0  0  0  0  0  0
    0.4675   -0.8594    0.0000 C   0  0  0  0  0  0  0  0  0  0  0  0
   -0.2338   -1.2718    0.0000 C   0  0  0  0  0  0  0  0  0  0  0  0
    1.9250    0.1994    0.0000 C   0  0  0  0  0  0  0  0  0  0  0  0
   -0.9763   -0.8594    0.0000 C   0  0  0  0  0  0  0  0  0  0  0  0
    2.8875   -0.8594    0.0000 C   0  0  0  0  0  0  0  0  0  0  0  0
    3.4925   -0.3093    0.0000 C   0  0  0  0  0  0  0  0  0  0  0  0
    2.1038   -0.6118    0.0000 C   0  0  0  0  0  0  0  0  0  0  0  0
    4.0425   -1.5331    0.0000 C   0  0  0  0  0  0  0  0  0  0  0  0
    0.0550    1.2444    0.0000 C   0  0  0  0  0  0  0  0  0  0  0  0
    1.1825   -1.2718    0.0000 C   0  0  0  0  0  0  0  0  0  0  0  0
    2.5300    0.7356    0.0000 C   0  0  0  0  0  0  0  0  0  0  0  0
   -1.0450   -0.0481    0.0000 C   0  0  0  0  0  0  0  0  0  0  0  0
   -1.8562    0.1444    0.0000 C   0  0  0  0  0  0  0  0  0  0  0  0
   -0.2338   -2.0968    0.0000 C   0  0  0  0  0  0  0  0  0  0  0  0
    3.3275    0.4881    0.0000 C   0  0  0  0  0  0  0  0  0  0  0  0
    1.1687   -2.0968    0.0000 C   0  0  0  0  0  0  0  0  0  0  0  0
    0.4950   -2.5094    0.0000 C   0  0  0  0  0  0  0  0  0  0  0  0
   -2.2000    0.8731    0.0000 C   0  0  0  0  0  0  0  0  0  0  0  0
   -0.4400    1.9044    0.0000 C   0  0  0  0  0  0  0  0  0  0  0  0
   -1.8838   -2.0144    0.0000 C   0  0  0  0  0  0  0  0  0  0  0  0
   -3.3550    1.7394    0.0000 C   0  0  0  0  0  0  0  0  0  0  0  0
   -4.0837    1.4094    0.0000 C   0  0  0  0  0  0  0  0  0  0  0  0
   -2.5987    2.0831    0.0000 C   0  0  0  0  0  0  0  0  0  0  0  0
   -3.6850    2.5094    0.0000 C   0  0  0  0  0  0  0  0  0  0  0  0
  1 30  1  0  0  0  0
  2 22  1  0  0  0  0
  3 22  1  0  0  0  0
  4 13  1  0  0  0  0
  4 23  1  0  0  0  0
  5 19  1  0  0  0  0
  5 22  1  0  0  0  0
  6 20  1  0  0  0  0
  6 22  1  0  0  0  0
  7 32  2  0  0  0  0
  8 14  1  0  0  0  0
  8 23  2  0  0  0  0
  9 10  1  0  0  0  0
  9 18  1  0  0  0  0
  9 34  1  0  0  0  0
 10 27  2  0  0  0  0
 11 32  1  0  0  0  0
 11 35  1  0  0  0  0
 12 36  3  0  0  0  0
 13 14  2  0  0  0  0
 13 15  1  0  0  0  0
 14 17  1  0  0  0  0
 15 16  2  0  0  0  0
 15 24  1  0  0  0  0
 16 18  1  0  0  0  0
 16 28  1  0  0  0  0
 17 21  1  0  0  0  0
 17 25  2  0  0  0  0
 18 26  2  0  0  0  0
 19 20  1  0  0  0  0
 19 21  2  0  0  0  0
 20 29  2  0  0  0  0
 23 33  1  0  0  0  0
 24 30  2  0  0  0  0
 25 29  1  0  0  0  0
 26 27  1  0  0  0  0
 27 32  1  0  0  0  0
 28 31  2  0  0  0  0
 30 31  1  0  0  0  0
 35 36  1  0  0  0  0
 35 37  1  0  0  0  0
 35 38  1  0  0  0  0
M  END
> <PUBCHEM_COMPOUND_ID_TYPE>
0

> <PUBCHEM_TOTAL_CHARGE>
0

> <PUBCHEM_SUBSTANCE_ID>
310948156

> <PUBCHEM_SUBSTANCE_VERSION>
1

> <PUBCHEM_EXT_DATASOURCE_NAME>
4488

> <PUBCHEM_EXT_DATASOURCE_REGID>
SCHEMBL16126333

> <PUBCHEM_SUBSTANCE_COMMENT>
InChI=1S/C26H20BrF2N5O4/c1-13-31-22(14-5-8-20-21(9-14)38-26(28,29)37-20)23(36-13)17-10-15(27)6-7-16(17)19-11-18(33-34(19)4)24(35)32-25(2,3)12-30/h5-11H,1-4H3,(H,32,35)
InChIKey=MMBXPTNEYNYJIA-UHFFFAOYSA-N

> <PUBCHEM_SUBSTANCE_SYNONYM>
SCHEMBL16126333

> <PUBCHEM_XREF_EXT_ID>
SCHEMBL16126333

> <PUBCHEM_EXT_DATASOURCE_URL>
https://www.surechembl.org/

> <PUBCHEM_EXT_SUBSTANCE_URL>
https://www.surechembl.org/chemical/SCHEMBL16126333

> <PUBCHEM_CID_ASSOCIATIONS>
117613757  1

> <PUBCHEM_COORDINATE_TYPE>
1
3

$$$$
