310942230
  -OEChem-07211613022D

 26 27  0     1  0  0  0  0  0999 V2000
    1.4243    1.4493    0.0000 Cl  0  0  0  0  0  0  0  0  0  0  0  0
    4.3104    1.4493    0.0000 Cl  0  0  0  0  0  0  0  0  0  0  0  0
   -0.0125   -1.0370    0.0000 F   0  0  0  0  0  0  0  0  0  0  0  0
    1.4243   -0.2124    0.0000 O   0  0  0  0  0  0  0  0  0  0  0  0
   -3.5858    0.2374    0.0000 O   0  0  0  0  0  0  0  0  0  0  0  0
   -2.1740    0.2124    0.0000 N   0  0  0  0  0  0  0  0  0  0  0  0
   -4.3104    1.4493    0.0000 N   0  0  0  0  0  0  0  0  0  0  0  0
    0.6997    0.2124    0.0000 C   0  0  0  0  0  0  0  0  0  0  0  0
   -0.0125   -0.1999    0.0000 C   0  0  0  0  0  0  0  0  0  0  0  0
   -0.7496    0.2124    0.0000 C   0  0  0  0  0  0  0  0  0  0  0  0
    0.7121    1.0495    0.0000 C   0  0  0  0  0  0  0  0  0  0  0  0
   -1.4493   -0.1999    0.0000 C   0  0  3  0  0  0  0  0  0  0  0  0
   -0.7247    1.0370    0.0000 C   0  0  0  0  0  0  0  0  0  0  0  0
    0.0000    1.4493    0.0000 C   0  0  0  0  0  0  0  0  0  0  0  0
    2.1365    0.2124    0.0000 C   0  0  0  0  0  0  0  0  0  0  0  0
   -1.4493   -1.0370    0.0000 C   0  0  0  0  0  0  0  0  0  0  0  0
    2.8737   -0.1999    0.0000 C   0  0  0  0  0  0  0  0  0  0  0  0
    2.1614    1.0370    0.0000 C   0  0  0  0  0  0  0  0  0  0  0  0
   -2.1740    1.0370    0.0000 C   0  0  3  0  0  0  0  0  0  0  0  0
    3.5983    1.0495    0.0000 C   0  0  0  0  0  0  0  0  0  0  0  0
    3.5983    0.2124    0.0000 C   0  0  0  0  0  0  0  0  0  0  0  0
    2.8861    1.4493    0.0000 C   0  0  0  0  0  0  0  0  0  0  0  0
   -2.8986    1.4493    0.0000 C   0  0  0  0  0  0  0  0  0  0  0  0
   -0.7372   -1.4493    0.0000 C   0  0  0  0  0  0  0  0  0  0  0  0
   -1.4618    1.4493    0.0000 C   0  0  0  0  0  0  0  0  0  0  0  0
   -3.6108    1.0370    0.0000 C   0  0  0  0  0  0  0  0  0  0  0  0
  1 11  1  0  0  0  0
  2 20  1  0  0  0  0
  3  9  1  0  0  0  0
  4  8  1  0  0  0  0
  4 15  1  0  0  0  0
  5 26  2  0  0  0  0
 12  6  1  1  0  0  0
  6 19  1  0  0  0  0
  7 26  1  0  0  0  0
  8  9  2  0  0  0  0
  8 11  1  0  0  0  0
  9 10  1  0  0  0  0
 10 12  1  0  0  0  0
 10 13  2  0  0  0  0
 11 14  2  0  0  0  0
 12 16  1  0  0  0  0
 13 14  1  0  0  0  0
 15 17  2  0  0  0  0
 15 18  1  0  0  0  0
 16 24  1  0  0  0  0
 17 21  1  0  0  0  0
 18 22  2  0  0  0  0
 19 23  1  0  0  0  0
 19 25  1  6  0  0  0
 20 21  2  0  0  0  0
 20 22  1  0  0  0  0
 23 26  1  0  0  0  0
M  END
> <PUBCHEM_COMPOUND_ID_TYPE>
0

> <PUBCHEM_TOTAL_CHARGE>
0

> <PUBCHEM_SUBSTANCE_ID>
310942230

> <PUBCHEM_SUBSTANCE_VERSION>
1

> <PUBCHEM_EXT_DATASOURCE_NAME>
4488

> <PUBCHEM_EXT_DATASOURCE_REGID>
SCHEMBL16120265

> <PUBCHEM_SUBSTANCE_COMMENT>
InChI=1S/C19H21Cl2FN2O2/c1-3-16(24-11(2)10-17(23)25)14-8-9-15(21)19(18(14)22)26-13-6-4-12(20)5-7-13/h4-9,11,16,24H,3,10H2,1-2H3,(H2,23,25)/t11-,16+/m0/s1
InChIKey=ADXWPJGFDXJSGG-MEDUHNTESA-N

> <PUBCHEM_SUBSTANCE_SYNONYM>
SCHEMBL16120265

> <PUBCHEM_XREF_EXT_ID>
SCHEMBL16120265

> <PUBCHEM_EXT_DATASOURCE_URL>
https://www.surechembl.org/

> <PUBCHEM_EXT_SUBSTANCE_URL>
https://www.surechembl.org/chemical/SCHEMBL16120265

> <PUBCHEM_CID_ASSOCIATIONS>
117608881  1

> <PUBCHEM_COORDINATE_TYPE>
1
3

> <PUBCHEM_BONDANNOTATIONS>
19  25  6
12  6  5

$$$$
