310935913
  -OEChem-07211613022D

 32 35  0     0  0  0  0  0  0999 V2000
    0.0000   -2.0989    0.0000 F   0  0  0  0  0  0  0  0  0  0  0  0
    3.7526   -1.3992    0.0000 O   0  0  0  0  0  0  0  0  0  0  0  0
    2.7349   -3.6890    0.0000 O   0  0  0  0  0  0  0  0  0  0  0  0
    8.8090   -1.6537    0.0000 O   0  0  0  0  0  0  0  0  0  0  0  0
    9.5405   -2.8939    0.0000 O   0  0  0  0  0  0  0  0  0  0  0  0
    5.2791   -1.2403    0.0000 N   0  0  0  0  0  0  0  0  0  0  0  0
    4.0706   -4.1024    0.0000 N   0  0  0  0  0  0  0  0  0  0  0  0
    4.5476   -2.5123    0.0000 C   0  0  0  0  0  0  0  0  0  0  0  0
    3.7844   -2.7349    0.0000 C   0  0  0  0  0  0  0  0  0  0  0  0
    4.5476   -1.6537    0.0000 C   0  0  0  0  0  0  0  0  0  0  0  0
    3.2755   -2.0671    0.0000 C   0  0  0  0  0  0  0  0  0  0  0  0
    5.9787   -2.4805    0.0000 C   0  0  0  0  0  0  0  0  0  0  0  0
    5.2791   -2.8939    0.0000 C   0  0  0  0  0  0  0  0  0  0  0  0
    5.9469   -1.6219    0.0000 C   0  0  0  0  0  0  0  0  0  0  0  0
    2.4487   -2.0671    0.0000 C   0  0  0  0  0  0  0  0  0  0  0  0
    3.5300   -3.4982    0.0000 C   0  0  0  0  0  0  0  0  0  0  0  0
    6.6783   -2.8939    0.0000 C   0  0  0  0  0  0  0  0  0  0  0  0
    2.0353   -2.7986    0.0000 C   0  0  0  0  0  0  0  0  0  0  0  0
    2.0353   -1.3674    0.0000 C   0  0  0  0  0  0  0  0  0  0  0  0
    6.6783   -1.2403    0.0000 C   0  0  0  0  0  0  0  0  0  0  0  0
    7.4098   -2.4805    0.0000 C   0  0  0  0  0  0  0  0  0  0  0  0
    6.6783   -3.7208    0.0000 C   0  0  0  0  0  0  0  0  0  0  0  0
    8.1094   -2.8939    0.0000 C   0  0  0  0  0  0  0  0  0  0  0  0
    1.2403   -2.7986    0.0000 C   0  0  0  0  0  0  0  0  0  0  0  0
    1.2085   -1.3674    0.0000 C   0  0  0  0  0  0  0  0  0  0  0  0
    0.8269   -2.0989    0.0000 C   0  0  0  0  0  0  0  0  0  0  0  0
    7.4098   -4.1342    0.0000 C   0  0  0  0  0  0  0  0  0  0  0  0
    8.1094   -3.7208    0.0000 C   0  0  0  0  0  0  0  0  0  0  0  0
    6.6466   -0.4134    0.0000 C   0  0  0  0  0  0  0  0  0  0  0  0
    8.8090   -2.4805    0.0000 C   0  0  0  0  0  0  0  0  0  0  0  0
    3.8162   -4.8974    0.0000 C   0  0  0  0  0  0  0  0  0  0  0  0
    5.9469    0.0000    0.0000 C   0  0  0  0  0  0  0  0  0  0  0  0
  1 26  1  0  0  0  0
  2 10  1  0  0  0  0
  2 11  1  0  0  0  0
  3 16  2  0  0  0  0
  4 30  2  0  0  0  0
  5 30  1  0  0  0  0
  6 10  1  0  0  0  0
  6 14  2  0  0  0  0
  7 16  1  0  0  0  0
  7 31  1  0  0  0  0
  8  9  1  0  0  0  0
  8 10  2  0  0  0  0
  8 13  1  0  0  0  0
  9 11  2  0  0  0  0
  9 16  1  0  0  0  0
 11 15  1  0  0  0  0
 12 13  2  0  0  0  0
 12 14  1  0  0  0  0
 12 17  1  0  0  0  0
 14 20  1  0  0  0  0
 15 18  2  0  0  0  0
 15 19  1  0  0  0  0
 17 21  1  0  0  0  0
 17 22  2  0  0  0  0
 18 24  1  0  0  0  0
 19 25  2  0  0  0  0
 20 29  1  0  0  0  0
 21 23  2  0  0  0  0
 22 27  1  0  0  0  0
 23 28  1  0  0  0  0
 23 30  1  0  0  0  0
 24 26  2  0  0  0  0
 25 26  1  0  0  0  0
 27 28  2  0  0  0  0
 29 32  1  0  0  0  0
M  END
> <PUBCHEM_COMPOUND_ID_TYPE>
0

> <PUBCHEM_TOTAL_CHARGE>
0

> <PUBCHEM_SUBSTANCE_ID>
310935913

> <PUBCHEM_SUBSTANCE_VERSION>
1

> <PUBCHEM_EXT_DATASOURCE_NAME>
4488

> <PUBCHEM_EXT_DATASOURCE_REGID>
SCHEMBL16113508

> <PUBCHEM_SUBSTANCE_COMMENT>
InChI=1S/C25H21FN2O4/c1-3-5-20-18(15-6-4-7-16(12-15)25(30)31)13-19-21(23(29)27-2)22(32-24(19)28-20)14-8-10-17(26)11-9-14/h4,6-13H,3,5H2,1-2H3,(H,27,29)(H,30,31)
InChIKey=HPADBSYICWMVJU-UHFFFAOYSA-N

> <PUBCHEM_SUBSTANCE_SYNONYM>
SCHEMBL16113508

> <PUBCHEM_XREF_EXT_ID>
SCHEMBL16113508

> <PUBCHEM_EXT_DATASOURCE_URL>
https://www.surechembl.org/

> <PUBCHEM_EXT_SUBSTANCE_URL>
https://www.surechembl.org/chemical/SCHEMBL16113508

> <PUBCHEM_CID_ASSOCIATIONS>
117603897  1

> <PUBCHEM_COORDINATE_TYPE>
1
3

$$$$
