310942261
  -OEChem-07211613022D

 25 27  0     0  0  0  0  0  0999 V2000
    0.0000    1.0436    0.0000 F   0  0  0  0  0  0  0  0  0  0  0  0
    1.4498   -1.4560    0.0000 F   0  0  0  0  0  0  0  0  0  0  0  0
    1.4373    0.2062    0.0000 O   0  0  0  0  0  0  0  0  0  0  0  0
   -2.1497   -0.2062    0.0000 N   0  0  0  0  0  0  0  0  0  0  0  0
   -4.3244    1.0436    0.0000 N   0  0  0  0  0  0  0  0  0  0  0  0
    0.7249   -0.1937    0.0000 C   0  0  0  0  0  0  0  0  0  0  0  0
    0.0000    0.2062    0.0000 C   0  0  0  0  0  0  0  0  0  0  0  0
   -0.7249   -0.2062    0.0000 C   0  0  0  0  0  0  0  0  0  0  0  0
    0.7124   -1.0311    0.0000 C   0  0  0  0  0  0  0  0  0  0  0  0
    2.1622   -0.2062    0.0000 C   0  0  0  0  0  0  0  0  0  0  0  0
   -0.7124   -1.0311    0.0000 C   0  0  0  0  0  0  0  0  0  0  0  0
    0.0125   -1.4560    0.0000 C   0  0  0  0  0  0  0  0  0  0  0  0
   -1.4498    0.2062    0.0000 C   0  0  0  0  0  0  0  0  0  0  0  0
    2.8747    0.1937    0.0000 C   0  0  0  0  0  0  0  0  0  0  0  0
    3.6120   -0.2062    0.0000 C   0  0  0  0  0  0  0  0  0  0  0  0
    2.1747   -1.0311    0.0000 C   0  0  0  0  0  0  0  0  0  0  0  0
    3.5995   -1.0311    0.0000 C   0  0  0  0  0  0  0  0  0  0  0  0
    2.8996   -1.4560    0.0000 C   0  0  0  0  0  0  0  0  0  0  0  0
   -2.8996    0.2187    0.0000 C   0  0  0  0  0  0  0  0  0  0  0  0
   -2.8871    1.0436    0.0000 C   0  0  0  0  0  0  0  0  0  0  0  0
   -3.5995   -0.2062    0.0000 C   0  0  0  0  0  0  0  0  0  0  0  0
    4.3244    0.1937    0.0000 C   0  0  0  0  0  0  0  0  0  0  0  0
    4.1244   -1.3311    0.0000 C   0  0  0  0  0  0  0  0  0  0  0  0
   -3.6120    1.4560    0.0000 C   0  0  0  0  0  0  0  0  0  0  0  0
   -4.3119    0.2062    0.0000 C   0  0  0  0  0  0  0  0  0  0  0  0
  1  7  1  0  0  0  0
  2  9  1  0  0  0  0
  3  6  1  0  0  0  0
  3 10  1  0  0  0  0
  4 13  1  0  0  0  0
  4 19  1  0  0  0  0
  5 24  2  0  0  0  0
  5 25  1  0  0  0  0
  6  7  2  0  0  0  0
  6  9  1  0  0  0  0
  7  8  1  0  0  0  0
  8 11  2  0  0  0  0
  8 13  1  0  0  0  0
  9 12  2  0  0  0  0
 10 14  1  0  0  0  0
 10 16  2  0  0  0  0
 11 12  1  0  0  0  0
 14 15  2  0  0  0  0
 15 17  1  0  0  0  0
 15 22  1  0  0  0  0
 16 18  1  0  0  0  0
 17 18  2  0  0  0  0
 17 23  1  0  0  0  0
 19 20  2  0  0  0  0
 19 21  1  0  0  0  0
 20 24  1  0  0  0  0
 21 25  2  0  0  0  0
M  END
> <PUBCHEM_COMPOUND_ID_TYPE>
0

> <PUBCHEM_TOTAL_CHARGE>
0

> <PUBCHEM_SUBSTANCE_ID>
310942261

> <PUBCHEM_SUBSTANCE_VERSION>
1

> <PUBCHEM_EXT_DATASOURCE_NAME>
4488

> <PUBCHEM_EXT_DATASOURCE_REGID>
SCHEMBL16120296

> <PUBCHEM_SUBSTANCE_COMMENT>
InChI=1S/C20H18F2N2O/c1-13-3-5-17(11-14(13)2)25-20-18(21)6-4-15(19(20)22)12-24-16-7-9-23-10-8-16/h3-11H,12H2,1-2H3,(H,23,24)
InChIKey=LEEMRUPOVGSUBS-UHFFFAOYSA-N

> <PUBCHEM_SUBSTANCE_SYNONYM>
SCHEMBL16120296

> <PUBCHEM_XREF_EXT_ID>
SCHEMBL16120296

> <PUBCHEM_EXT_DATASOURCE_URL>
https://www.surechembl.org/

> <PUBCHEM_EXT_SUBSTANCE_URL>
https://www.surechembl.org/chemical/SCHEMBL16120296

> <PUBCHEM_CID_ASSOCIATIONS>
117608911  1

> <PUBCHEM_COORDINATE_TYPE>
1
3

$$$$
