310939039
  -OEChem-07211613022D

 10 10  0     0  0  0  0  0  0999 V2000
    3.6927    0.0000    0.0000 S   0  0  0  0  0  0  0  0  0  0  0  0
    2.9782    1.2375    0.0000 S   0  0  0  0  0  0  0  0  0  0  0  0
    2.2637   -0.8250    0.0000 N   0  0  0  0  0  0  0  0  0  0  0  0
    2.2637    0.0000    0.0000 C   0  0  0  0  0  0  0  0  0  0  0  0
    2.9782    0.4125    0.0000 C   0  0  0  0  0  0  0  0  0  0  0  0
    1.5493    0.4125    0.0000 C   0  0  0  0  0  0  0  0  0  0  0  0
    1.5493   -1.2375    0.0000 C   0  0  0  0  0  0  0  0  0  0  0  0
    0.8348    0.0000    0.0000 C   0  0  0  0  0  0  0  0  0  0  0  0
    0.8348   -0.8250    0.0000 C   0  0  0  0  0  0  0  0  0  0  0  0
    4.4072    0.4125    0.0000 C   0  0  0  0  0  0  0  0  0  0  0  0
  1  5  1  0  0  0  0
  1 10  1  0  0  0  0
  2  5  2  0  0  0  0
  3  4  2  0  0  0  0
  3  7  1  0  0  0  0
  4  5  1  0  0  0  0
  4  6  1  0  0  0  0
  6  8  2  0  0  0  0
  7  9  2  0  0  0  0
  8  9  1  0  0  0  0
M  END
> <PUBCHEM_COMPOUND_ID_TYPE>
0

> <PUBCHEM_TOTAL_CHARGE>
0

> <PUBCHEM_SUBSTANCE_ID>
310939039

> <PUBCHEM_SUBSTANCE_VERSION>
1

> <PUBCHEM_EXT_DATASOURCE_NAME>
4488

> <PUBCHEM_EXT_DATASOURCE_REGID>
SCHEMBL16116958

> <PUBCHEM_SUBSTANCE_COMMENT>
InChI=1S/C7H7NS2/c1-10-7(9)6-4-2-3-5-8-6/h2-5H,1H3
InChIKey=QVQKQYXDUYQWDI-UHFFFAOYSA-N

> <PUBCHEM_SUBSTANCE_SYNONYM>
SCHEMBL16116958

> <PUBCHEM_XREF_EXT_ID>
SCHEMBL16116958

> <PUBCHEM_EXT_DATASOURCE_URL>
https://www.surechembl.org/

> <PUBCHEM_EXT_SUBSTANCE_URL>
https://www.surechembl.org/chemical/SCHEMBL16116958

> <PUBCHEM_CID_ASSOCIATIONS>
10909977  1

> <PUBCHEM_COORDINATE_TYPE>
1
3

$$$$
