310938828
  -OEChem-07211613022D

 28 32  0     0  0  0  0  0  0999 V2000
    2.0104    2.9836    0.0000 O   0  0  0  0  0  0  0  0  0  0  0  0
   -0.0104    0.9628    0.0000 N   0  0  0  0  0  0  0  0  0  0  0  0
   -1.5095   -0.5297    0.0000 N   0  0  0  0  0  0  0  0  0  0  0  0
   -0.0828   -1.7540    0.0000 N   0  0  0  0  0  0  0  0  0  0  0  0
    1.1867   -1.3415    0.0000 N   0  0  0  0  0  0  0  0  0  0  0  0
    1.2995    0.2953    0.0000 N   0  0  0  0  0  0  0  0  0  0  0  0
   -0.0104   -0.3721    0.0000 C   0  0  0  0  0  0  0  0  0  0  0  0
   -0.7950   -0.1172    0.0000 C   0  0  0  0  0  0  0  0  0  0  0  0
   -0.7950    0.7078    0.0000 C   0  0  0  0  0  0  0  0  0  0  0  0
    0.4745    0.2953    0.0000 C   0  0  0  0  0  0  0  0  0  0  0  0
    0.4021   -1.0866    0.0000 C   0  0  0  0  0  0  0  0  0  0  0  0
    0.2031    1.7596    0.0000 C   0  0  0  0  0  0  0  0  0  0  0  0
   -1.5095    1.1203    0.0000 C   0  0  0  0  0  0  0  0  0  0  0  0
    0.4021   -2.4215    0.0000 C   0  0  0  0  0  0  0  0  0  0  0  0
    1.1867   -2.1665    0.0000 C   0  0  0  0  0  0  0  0  0  0  0  0
    1.0000    1.9732    0.0000 C   0  0  0  0  0  0  0  0  0  0  0  0
   -0.3802    2.3430    0.0000 C   0  0  0  0  0  0  0  0  0  0  0  0
   -2.2240   -0.1172    0.0000 C   0  0  0  0  0  0  0  0  0  0  0  0
   -2.2240    0.7078    0.0000 C   0  0  0  0  0  0  0  0  0  0  0  0
    1.2135    2.7701    0.0000 C   0  0  0  0  0  0  0  0  0  0  0  0
   -0.1667    3.1399    0.0000 C   0  0  0  0  0  0  0  0  0  0  0  0
    0.2306   -3.2284    0.0000 C   0  0  0  0  0  0  0  0  0  0  0  0
    1.7998   -2.7186    0.0000 C   0  0  0  0  0  0  0  0  0  0  0  0
    0.6302    3.3534    0.0000 C   0  0  0  0  0  0  0  0  0  0  0  0
    0.8437   -3.7805    0.0000 C   0  0  0  0  0  0  0  0  0  0  0  0
    1.6283   -3.5255    0.0000 C   0  0  0  0  0  0  0  0  0  0  0  0
   -0.7501    3.7233    0.0000 C   0  0  0  0  0  0  0  0  0  0  0  0
    2.2240    3.7805    0.0000 C   0  0  0  0  0  0  0  0  0  0  0  0
  1 20  1  0  0  0  0
  1 28  1  0  0  0  0
  2  9  1  0  0  0  0
  2 10  1  0  0  0  0
  2 12  1  0  0  0  0
  3  8  2  0  0  0  0
  3 18  1  0  0  0  0
  4 11  2  0  0  0  0
  4 14  1  0  0  0  0
  5 11  1  0  0  0  0
  5 15  1  0  0  0  0
  6 10  1  0  0  0  0
  7  8  1  0  0  0  0
  7 10  2  0  0  0  0
  7 11  1  0  0  0  0
  8  9  1  0  0  0  0
  9 13  2  0  0  0  0
 12 16  2  0  0  0  0
 12 17  1  0  0  0  0
 13 19  1  0  0  0  0
 14 15  2  0  0  0  0
 14 22  1  0  0  0  0
 15 23  1  0  0  0  0
 16 20  1  0  0  0  0
 17 21  2  0  0  0  0
 18 19  2  0  0  0  0
 20 24  2  0  0  0  0
 21 24  1  0  0  0  0
 21 27  1  0  0  0  0
 22 25  2  0  0  0  0
 23 26  2  0  0  0  0
 25 26  1  0  0  0  0
M  END
> <PUBCHEM_COMPOUND_ID_TYPE>
0

> <PUBCHEM_TOTAL_CHARGE>
0

> <PUBCHEM_SUBSTANCE_ID>
310938828

> <PUBCHEM_SUBSTANCE_VERSION>
1

> <PUBCHEM_EXT_DATASOURCE_NAME>
4488

> <PUBCHEM_EXT_DATASOURCE_REGID>
SCHEMBL16116747

> <PUBCHEM_SUBSTANCE_COMMENT>
InChI=1S/C22H19N5O/c1-13-10-14(12-15(11-13)28-2)27-18-8-5-9-24-20(18)19(21(27)23)22-25-16-6-3-4-7-17(16)26-22/h3-12H,23H2,1-2H3,(H,25,26)
InChIKey=LWAPSEUPJNCUOF-UHFFFAOYSA-N

> <PUBCHEM_SUBSTANCE_SYNONYM>
SCHEMBL16116747

> <PUBCHEM_XREF_EXT_ID>
SCHEMBL16116747

> <PUBCHEM_EXT_DATASOURCE_URL>
https://www.surechembl.org/

> <PUBCHEM_EXT_SUBSTANCE_URL>
https://www.surechembl.org/chemical/SCHEMBL16116747

> <PUBCHEM_CID_ASSOCIATIONS>
117606230  1

> <PUBCHEM_COORDINATE_TYPE>
1
3

$$$$
