310944837
  -OEChem-07211613022D

 34 38  0     0  0  0  0  0  0999 V2000
   -0.6414    3.0464    0.0000 F   0  0  0  0  0  0  0  0  0  0  0  0
    0.0976    0.2719    0.0000 F   0  0  0  0  0  0  0  0  0  0  0  0
    2.1192    2.3074    0.0000 O   0  0  0  0  0  0  0  0  0  0  0  0
   -1.2967    0.6483    0.0000 N   0  0  0  0  0  0  0  0  0  0  0  0
   -0.8086   -0.0209    0.0000 N   0  0  0  0  0  0  0  0  0  0  0  0
   -1.6591   -2.0565    0.0000 N   0  0  0  0  0  0  0  0  0  0  0  0
   -3.4995   -0.4253    0.0000 N   0  0  0  0  0  0  0  0  0  0  0  0
    0.7249   -2.6979    0.0000 N   0  0  0  0  0  0  0  0  0  0  0  0
    1.1014   -1.3175    0.0000 N   0  0  0  0  0  0  0  0  0  0  0  0
    2.4817   -0.9550    0.0000 N   0  0  0  0  0  0  0  0  0  0  0  0
   -2.0914   -0.3974    0.0000 C   0  0  0  0  0  0  0  0  0  0  0  0
   -1.2967   -0.6763    0.0000 C   0  0  0  0  0  0  0  0  0  0  0  0
   -2.0775    0.4113    0.0000 C   0  0  0  0  0  0  0  0  0  0  0  0
   -1.0875   -1.4430    0.0000 C   0  0  0  0  0  0  0  0  0  0  0  0
   -1.0735    1.4709    0.0000 C   0  0  0  0  0  0  0  0  0  0  0  0
   -0.3067    1.6801    0.0000 C   0  0  0  0  0  0  0  0  0  0  0  0
   -2.7745   -0.8156    0.0000 C   0  0  0  0  0  0  0  0  0  0  0  0
   -2.7884    0.8296    0.0000 C   0  0  0  0  0  0  0  0  0  0  0  0
   -0.2789   -1.6801    0.0000 C   0  0  0  0  0  0  0  0  0  0  0  0
   -0.0697    2.4747    0.0000 C   0  0  0  0  0  0  0  0  0  0  0  0
    0.3067    1.1084    0.0000 C   0  0  0  0  0  0  0  0  0  0  0  0
   -3.4995    0.4113    0.0000 C   0  0  0  0  0  0  0  0  0  0  0  0
   -0.0697   -2.4608    0.0000 C   0  0  0  0  0  0  0  0  0  0  0  0
    1.3105    2.1122    0.0000 C   0  0  0  0  0  0  0  0  0  0  0  0
    0.7389    2.6699    0.0000 C   0  0  0  0  0  0  0  0  0  0  0  0
    1.0875    1.3175    0.0000 C   0  0  0  0  0  0  0  0  0  0  0  0
   -1.4500   -2.8372    0.0000 C   0  0  0  0  0  0  0  0  0  0  0  0
   -0.6553   -3.0464    0.0000 C   0  0  0  0  0  0  0  0  0  0  0  0
    1.3105   -2.0844    0.0000 C   0  0  0  0  0  0  0  0  0  0  0  0
    2.1192   -2.3213    0.0000 C   0  0  0  0  0  0  0  0  0  0  0  0
    2.7048    1.7358    0.0000 C   0  0  0  0  0  0  0  0  0  0  0  0
    1.6871   -0.7180    0.0000 C   0  0  0  0  0  0  0  0  0  0  0  0
    2.6909   -1.7219    0.0000 C   0  0  0  0  0  0  0  0  0  0  0  0
    3.4995    1.9310    0.0000 C   0  0  0  0  0  0  0  0  0  0  0  0
  1 20  1  0  0  0  0
  2 21  1  0  0  0  0
  3 24  1  0  0  0  0
  3 31  1  0  0  0  0
  4  5  1  0  0  0  0
  4 13  1  0  0  0  0
  4 15  1  0  0  0  0
  5 12  2  0  0  0  0
  6 14  1  0  0  0  0
  6 27  2  0  0  0  0
  7 17  2  0  0  0  0
  7 22  1  0  0  0  0
  8 23  1  0  0  0  0
  8 29  1  0  0  0  0
  9 29  2  0  0  0  0
  9 32  1  0  0  0  0
 10 32  2  0  0  0  0
 10 33  1  0  0  0  0
 11 12  1  0  0  0  0
 11 13  2  0  0  0  0
 11 17  1  0  0  0  0
 12 14  1  0  0  0  0
 13 18  1  0  0  0  0
 14 19  2  0  0  0  0
 15 16  1  0  0  0  0
 16 20  2  0  0  0  0
 16 21  1  0  0  0  0
 18 22  2  0  0  0  0
 19 23  1  0  0  0  0
 20 25  1  0  0  0  0
 21 26  2  0  0  0  0
 23 28  2  0  0  0  0
 24 25  2  0  0  0  0
 24 26  1  0  0  0  0
 27 28  1  0  0  0  0
 29 30  1  0  0  0  0
 30 33  2  0  0  0  0
 31 34  1  0  0  0  0
M  END
> <PUBCHEM_COMPOUND_ID_TYPE>
0

> <PUBCHEM_TOTAL_CHARGE>
0

> <PUBCHEM_SUBSTANCE_ID>
310944837

> <PUBCHEM_SUBSTANCE_VERSION>
1

> <PUBCHEM_EXT_DATASOURCE_NAME>
4488

> <PUBCHEM_EXT_DATASOURCE_REGID>
SCHEMBL16122916

> <PUBCHEM_SUBSTANCE_COMMENT>
InChI=1S/C24H19F2N7O/c1-2-34-16-10-19(25)18(20(26)11-16)13-33-22-4-6-27-12-17(22)24(32-33)21-9-15(3-8-29-21)31-23-5-7-28-14-30-23/h3-12,14H,2,13H2,1H3,(H,28,29,30,31)
InChIKey=FVHFNTQLRVTFHN-UHFFFAOYSA-N

> <PUBCHEM_SUBSTANCE_SYNONYM>
SCHEMBL16122916

> <PUBCHEM_XREF_EXT_ID>
SCHEMBL16122916

> <PUBCHEM_EXT_DATASOURCE_URL>
https://www.surechembl.org/

> <PUBCHEM_EXT_SUBSTANCE_URL>
https://www.surechembl.org/chemical/SCHEMBL16122916

> <PUBCHEM_CID_ASSOCIATIONS>
86268310  1

> <PUBCHEM_COORDINATE_TYPE>
1
3

$$$$
