310944232
  -OEChem-07211613022D

 15 15  0     0  0  0  0  0  0999 V2000
    0.0066    2.0346    0.0000 F   0  0  0  0  0  0  0  0  0  0  0  0
   -0.0066   -2.0346    0.0000 N   0  0  0  0  0  0  0  0  0  0  0  0
    2.1794    1.5869    0.0000 N   0  0  0  0  0  0  0  0  0  0  0  0
   -0.7309    0.0197    0.0000 C   0  0  0  0  0  0  0  0  0  0  0  0
   -0.0066   -0.3753    0.0000 C   0  0  0  0  0  0  0  0  0  0  0  0
   -1.4683   -0.3622    0.0000 C   0  0  0  0  0  0  0  0  0  0  0  0
    0.7177    0.8362    0.0000 C   0  0  0  0  0  0  0  0  0  0  0  0
   -0.0066    1.2313    0.0000 C   0  0  0  0  0  0  0  0  0  0  0  0
   -0.7177    0.8362    0.0000 C   0  0  0  0  0  0  0  0  0  0  0  0
    0.7177    0.0197    0.0000 C   0  0  0  0  0  0  0  0  0  0  0  0
   -0.0066   -1.2181    0.0000 C   0  0  0  0  0  0  0  0  0  0  0  0
    1.4552    1.2313    0.0000 C   0  0  0  0  0  0  0  0  0  0  0  0
   -1.6790    0.4016    0.0000 C   0  0  0  0  0  0  0  0  0  0  0  0
   -2.1794    0.0197    0.0000 C   0  0  0  0  0  0  0  0  0  0  0  0
   -1.4420   -1.1918    0.0000 C   0  0  0  0  0  0  0  0  0  0  0  0
  1  8  1  0  0  0  0
  2 11  3  0  0  0  0
  3 12  3  0  0  0  0
  4  5  1  0  0  0  0
  4  6  1  0  0  0  0
  4  9  2  0  0  0  0
  5 10  2  0  0  0  0
  5 11  1  0  0  0  0
  6 13  1  0  0  0  0
  6 14  1  0  0  0  0
  6 15  1  0  0  0  0
  7  8  2  0  0  0  0
  7 10  1  0  0  0  0
  7 12  1  0  0  0  0
  8  9  1  0  0  0  0
M  END
> <PUBCHEM_COMPOUND_ID_TYPE>
0

> <PUBCHEM_TOTAL_CHARGE>
0

> <PUBCHEM_SUBSTANCE_ID>
310944232

> <PUBCHEM_SUBSTANCE_VERSION>
1

> <PUBCHEM_EXT_DATASOURCE_NAME>
4488

> <PUBCHEM_EXT_DATASOURCE_REGID>
SCHEMBL16122307

> <PUBCHEM_SUBSTANCE_COMMENT>
InChI=1S/C12H11FN2/c1-12(2,3)10-5-11(13)9(7-15)4-8(10)6-14/h4-5H,1-3H3
InChIKey=ABDYCGGTYOITAQ-UHFFFAOYSA-N

> <PUBCHEM_SUBSTANCE_SYNONYM>
SCHEMBL16122307

> <PUBCHEM_XREF_EXT_ID>
SCHEMBL16122307

> <PUBCHEM_EXT_DATASOURCE_URL>
https://www.surechembl.org/

> <PUBCHEM_EXT_SUBSTANCE_URL>
https://www.surechembl.org/chemical/SCHEMBL16122307

> <PUBCHEM_CID_ASSOCIATIONS>
117610503  1

> <PUBCHEM_COORDINATE_TYPE>
1
3

$$$$
