310944794
  -OEChem-07211613022D

 31 35  0     0  0  0  0  0  0999 V2000
    2.2253    2.2868    0.0000 O   0  0  0  0  0  0  0  0  0  0  0  0
   -1.1877    0.6349    0.0000 N   0  0  0  0  0  0  0  0  0  0  0  0
   -0.6962   -0.0342    0.0000 N   0  0  0  0  0  0  0  0  0  0  0  0
   -0.1774   -1.7271    0.0000 N   0  0  0  0  0  0  0  0  0  0  0  0
   -1.5564   -2.0957    0.0000 N   0  0  0  0  0  0  0  0  0  0  0  0
    0.8328   -2.7374    0.0000 N   0  0  0  0  0  0  0  0  0  0  0  0
    2.2390   -2.2868    0.0000 N   0  0  0  0  0  0  0  0  0  0  0  0
    1.2970   -1.3311    0.0000 N   0  0  0  0  0  0  0  0  0  0  0  0
    2.0342   -0.9625    0.0000 N   0  0  0  0  0  0  0  0  0  0  0  0
    3.4132   -1.3311    0.0000 N   0  0  0  0  0  0  0  0  0  0  0  0
   -1.2014   -0.6895    0.0000 C   0  0  0  0  0  0  0  0  0  0  0  0
   -1.9796   -0.4164    0.0000 C   0  0  0  0  0  0  0  0  0  0  0  0
   -1.9660    0.3891    0.0000 C   0  0  0  0  0  0  0  0  0  0  0  0
   -0.9830   -1.4676    0.0000 C   0  0  0  0  0  0  0  0  0  0  0  0
   -2.6895   -0.8396    0.0000 C   0  0  0  0  0  0  0  0  0  0  0  0
   -2.7032    0.7987    0.0000 C   0  0  0  0  0  0  0  0  0  0  0  0
   -0.9693    1.4540    0.0000 C   0  0  0  0  0  0  0  0  0  0  0  0
    0.0273   -2.4916    0.0000 C   0  0  0  0  0  0  0  0  0  0  0  0
   -0.1911    1.6725    0.0000 C   0  0  0  0  0  0  0  0  0  0  0  0
   -3.4132   -0.4437    0.0000 C   0  0  0  0  0  0  0  0  0  0  0  0
   -3.4132    0.3891    0.0000 C   0  0  0  0  0  0  0  0  0  0  0  0
   -0.5461   -3.0923    0.0000 C   0  0  0  0  0  0  0  0  0  0  0  0
   -1.3516   -2.8739    0.0000 C   0  0  0  0  0  0  0  0  0  0  0  0
    1.4199   -2.1094    0.0000 C   0  0  0  0  0  0  0  0  0  0  0  0
    0.0409    2.4643    0.0000 C   0  0  0  0  0  0  0  0  0  0  0  0
    0.3959    1.0854    0.0000 C   0  0  0  0  0  0  0  0  0  0  0  0
    2.6213   -1.5223    0.0000 C   0  0  0  0  0  0  0  0  0  0  0  0
    1.4199    2.0957    0.0000 C   0  0  0  0  0  0  0  0  0  0  0  0
    0.8328    2.6691    0.0000 C   0  0  0  0  0  0  0  0  0  0  0  0
    1.2014    1.3038    0.0000 C   0  0  0  0  0  0  0  0  0  0  0  0
    2.4438    3.0923    0.0000 C   0  0  0  0  0  0  0  0  0  0  0  0
  1 28  1  0  0  0  0
  1 31  1  0  0  0  0
  2  3  1  0  0  0  0
  2 13  1  0  0  0  0
  2 17  1  0  0  0  0
  3 11  2  0  0  0  0
  4 14  2  0  0  0  0
  4 18  1  0  0  0  0
  5 14  1  0  0  0  0
  5 23  2  0  0  0  0
  6 18  1  0  0  0  0
  6 24  1  0  0  0  0
  7 24  1  0  0  0  0
  7 27  1  0  0  0  0
  8  9  1  0  0  0  0
  8 24  2  0  0  0  0
  9 27  2  0  0  0  0
 10 27  1  0  0  0  0
 11 12  1  0  0  0  0
 11 14  1  0  0  0  0
 12 13  2  0  0  0  0
 12 15  1  0  0  0  0
 13 16  1  0  0  0  0
 15 20  2  0  0  0  0
 16 21  2  0  0  0  0
 17 19  1  0  0  0  0
 18 22  2  0  0  0  0
 19 25  2  0  0  0  0
 19 26  1  0  0  0  0
 20 21  1  0  0  0  0
 22 23  1  0  0  0  0
 25 29  1  0  0  0  0
 26 30  2  0  0  0  0
 28 29  2  0  0  0  0
 28 30  1  0  0  0  0
M  END
> <PUBCHEM_COMPOUND_ID_TYPE>
0

> <PUBCHEM_TOTAL_CHARGE>
0

> <PUBCHEM_SUBSTANCE_ID>
310944794

> <PUBCHEM_SUBSTANCE_VERSION>
1

> <PUBCHEM_EXT_DATASOURCE_NAME>
4488

> <PUBCHEM_EXT_DATASOURCE_REGID>
SCHEMBL16122873

> <PUBCHEM_SUBSTANCE_COMMENT>
InChI=1S/C21H19N9O/c1-31-14-8-6-13(7-9-14)12-30-16-5-3-2-4-15(16)18(29-30)19-23-11-10-17(24-19)25-21-26-20(22)27-28-21/h2-11H,12H2,1H3,(H4,22,23,24,25,26,27,28)
InChIKey=DSSFCLGCUWLSFD-UHFFFAOYSA-N

> <PUBCHEM_SUBSTANCE_SYNONYM>
SCHEMBL16122873

> <PUBCHEM_XREF_EXT_ID>
SCHEMBL16122873

> <PUBCHEM_EXT_DATASOURCE_URL>
https://www.surechembl.org/

> <PUBCHEM_EXT_SUBSTANCE_URL>
https://www.surechembl.org/chemical/SCHEMBL16122873

> <PUBCHEM_CID_ASSOCIATIONS>
86268502  1

> <PUBCHEM_COORDINATE_TYPE>
1
3

$$$$
