310936165
  -OEChem-07211613022D

 23 25  0     0  0  0  0  0  0999 V2000
    2.9138   -3.9733    0.0000 S   0  0  0  0  0  0  0  0  0  0  0  0
    6.1189   -2.1721    0.0000 O   0  0  0  0  0  0  0  0  0  0  0  0
    0.7152   -5.1388    0.0000 O   0  0  0  0  0  0  0  0  0  0  0  0
    4.6356   -3.7614    0.0000 N   0  0  0  0  0  0  0  0  0  0  0  0
    2.2250   -5.1388    0.0000 N   0  0  0  0  0  0  0  0  0  0  0  0
    1.4304   -3.8938    0.0000 N   0  0  0  0  0  0  0  0  0  0  0  0
    5.2978   -2.2516    0.0000 C   0  0  0  0  0  0  0  0  0  0  0  0
    5.6421   -1.5099    0.0000 C   0  0  0  0  0  0  0  0  0  0  0  0
    4.4766   -2.3310    0.0000 C   0  0  0  0  0  0  0  0  0  0  0  0
    5.7745   -2.9403    0.0000 C   0  0  0  0  0  0  0  0  0  0  0  0
    3.4700   -4.5825    0.0000 C   0  0  0  0  0  0  0  0  0  0  0  0
    4.1322   -3.0727    0.0000 C   0  0  0  0  0  0  0  0  0  0  0  0
    5.4302   -3.6819    0.0000 C   0  0  0  0  0  0  0  0  0  0  0  0
    4.2911   -4.5031    0.0000 C   0  0  0  0  0  0  0  0  0  0  0  0
    2.1456   -4.3177    0.0000 C   0  0  0  0  0  0  0  0  0  0  0  0
    3.0462   -5.2978    0.0000 C   0  0  0  0  0  0  0  0  0  0  0  0
    5.1653   -0.8212    0.0000 C   0  0  0  0  0  0  0  0  0  0  0  0
    6.4633   -1.4304    0.0000 C   0  0  0  0  0  0  0  0  0  0  0  0
    5.5097   -0.0794    0.0000 C   0  0  0  0  0  0  0  0  0  0  0  0
    6.8076   -0.6887    0.0000 C   0  0  0  0  0  0  0  0  0  0  0  0
    0.7152   -4.3177    0.0000 C   0  0  0  0  0  0  0  0  0  0  0  0
    6.3308    0.0000    0.0000 C   0  0  0  0  0  0  0  0  0  0  0  0
    0.0000   -3.8938    0.0000 C   0  0  0  0  0  0  0  0  0  0  0  0
  1 11  1  0  0  0  0
  1 15  1  0  0  0  0
  2  7  1  0  0  0  0
  3 21  2  0  0  0  0
  4 12  1  0  0  0  0
  4 13  1  0  0  0  0
  4 14  1  0  0  0  0
  5 15  2  0  0  0  0
  5 16  1  0  0  0  0
  6 15  1  0  0  0  0
  6 21  1  0  0  0  0
  7  8  1  0  0  0  0
  7  9  1  0  0  0  0
  7 10  1  0  0  0  0
  8 17  2  0  0  0  0
  8 18  1  0  0  0  0
  9 12  1  0  0  0  0
 10 13  1  0  0  0  0
 11 14  1  0  0  0  0
 11 16  2  0  0  0  0
 17 19  1  0  0  0  0
 18 20  2  0  0  0  0
 19 22  2  0  0  0  0
 20 22  1  0  0  0  0
 21 23  1  0  0  0  0
M  END
> <PUBCHEM_COMPOUND_ID_TYPE>
0

> <PUBCHEM_TOTAL_CHARGE>
0

> <PUBCHEM_SUBSTANCE_ID>
310936165

> <PUBCHEM_SUBSTANCE_VERSION>
1

> <PUBCHEM_EXT_DATASOURCE_NAME>
4488

> <PUBCHEM_EXT_DATASOURCE_REGID>
SCHEMBL16113775

> <PUBCHEM_SUBSTANCE_COMMENT>
InChI=1S/C17H21N3O2S/c1-13(21)19-16-18-11-15(23-16)12-20-9-7-17(22,8-10-20)14-5-3-2-4-6-14/h2-6,11,22H,7-10,12H2,1H3,(H,18,19,21)
InChIKey=NQSFMJYUHMOAGE-UHFFFAOYSA-N

> <PUBCHEM_SUBSTANCE_SYNONYM>
SCHEMBL16113775

> <PUBCHEM_XREF_EXT_ID>
SCHEMBL16113775

> <PUBCHEM_EXT_DATASOURCE_URL>
https://www.surechembl.org/

> <PUBCHEM_EXT_SUBSTANCE_URL>
https://www.surechembl.org/chemical/SCHEMBL16113775

> <PUBCHEM_CID_ASSOCIATIONS>
86274814  1

> <PUBCHEM_COORDINATE_TYPE>
1
3

$$$$
