310948108
  -OEChem-07211613022D

 42 47  0     0  0  0  0  0  0999 V2000
   -2.0708   -3.4172    0.0000 S   0  0  0  0  0  0  0  0  0  0  0  0
    0.5906   -3.5274    0.0000 F   0  0  0  0  0  0  0  0  0  0  0  0
    1.6613   -3.8739    0.0000 F   0  0  0  0  0  0  0  0  0  0  0  0
   -0.3543    3.9211    0.0000 F   0  0  0  0  0  0  0  0  0  0  0  0
    0.7637    4.1258    0.0000 F   0  0  0  0  0  0  0  0  0  0  0  0
    0.9370    2.9920    0.0000 F   0  0  0  0  0  0  0  0  0  0  0  0
    0.9212    1.5275    0.0000 O   0  0  0  0  0  0  0  0  0  0  0  0
    0.8425   -2.4566    0.0000 O   0  0  0  0  0  0  0  0  0  0  0  0
    2.1338   -2.8660    0.0000 O   0  0  0  0  0  0  0  0  0  0  0  0
   -2.4645   -2.7401    0.0000 O   0  0  0  0  0  0  0  0  0  0  0  0
   -1.6613   -4.1258    0.0000 O   0  0  0  0  0  0  0  0  0  0  0  0
   -0.6220    1.5275    0.0000 N   0  0  0  0  0  0  0  0  0  0  0  0
    2.1653    0.9921    0.0000 N   0  0  0  0  0  0  0  0  0  0  0  0
    0.0551    2.0156    0.0000 N   0  0  0  0  0  0  0  0  0  0  0  0
    0.8267    0.7087    0.0000 C   0  0  0  0  0  0  0  0  0  0  0  0
    0.1181    0.2992    0.0000 C   0  0  0  0  0  0  0  0  0  0  0  0
    1.5983    0.3779    0.0000 C   0  0  0  0  0  0  0  0  0  0  0  0
   -0.6220    0.7087    0.0000 C   0  0  0  0  0  0  0  0  0  0  0  0
    1.7874   -0.4251    0.0000 C   0  0  0  0  0  0  0  0  0  0  0  0
    1.3307   -1.7637    0.0000 C   0  0  0  0  0  0  0  0  0  0  0  0
    2.1338   -2.0314    0.0000 C   0  0  0  0  0  0  0  0  0  0  0  0
    0.1023   -0.5197    0.0000 C   0  0  0  0  0  0  0  0  0  0  0  0
    1.1732   -0.9763    0.0000 C   0  0  0  0  0  0  0  0  0  0  0  0
   -0.6063   -0.9291    0.0000 C   0  0  0  0  0  0  0  0  0  0  0  0
    1.3464   -3.1180    0.0000 C   0  0  0  0  0  0  0  0  0  0  0  0
    1.7558    1.6850    0.0000 C   0  0  0  0  0  0  0  0  0  0  0  0
   -1.3307    0.2992    0.0000 C   0  0  0  0  0  0  0  0  0  0  0  0
    2.5747   -0.6929    0.0000 C   0  0  0  0  0  0  0  0  0  0  0  0
    2.7479   -1.4960    0.0000 C   0  0  0  0  0  0  0  0  0  0  0  0
   -0.1969    2.7873    0.0000 C   0  0  0  0  0  0  0  0  0  0  0  0
   -0.6220   -1.7637    0.0000 C   0  0  0  0  0  0  0  0  0  0  0  0
   -1.3149   -0.5354    0.0000 C   0  0  0  0  0  0  0  0  0  0  0  0
   -1.2834    1.9999    0.0000 C   0  0  0  0  0  0  0  0  0  0  0  0
    0.2914    3.4644    0.0000 C   0  0  0  0  0  0  0  0  0  0  0  0
   -1.0315    2.7873    0.0000 C   0  0  0  0  0  0  0  0  0  0  0  0
   -1.3149   -2.1731    0.0000 C   0  0  0  0  0  0  0  0  0  0  0  0
   -1.3464   -2.9920    0.0000 C   0  0  0  0  0  0  0  0  0  0  0  0
    0.1023   -2.1731    0.0000 C   0  0  0  0  0  0  0  0  0  0  0  0
    2.0708    2.4566    0.0000 C   0  0  0  0  0  0  0  0  0  0  0  0
   -0.5906   -3.4014    0.0000 C   0  0  0  0  0  0  0  0  0  0  0  0
    0.1023   -2.9920    0.0000 C   0  0  0  0  0  0  0  0  0  0  0  0
   -2.7479   -3.8266    0.0000 C   0  0  0  0  0  0  0  0  0  0  0  0
  1 10  2  0  0  0  0
  1 11  2  0  0  0  0
  1 37  1  0  0  0  0
  1 42  1  0  0  0  0
  2 25  1  0  0  0  0
  3 25  1  0  0  0  0
  4 34  1  0  0  0  0
  5 34  1  0  0  0  0
  6 34  1  0  0  0  0
  7 15  1  0  0  0  0
  7 26  1  0  0  0  0
  8 20  1  0  0  0  0
  8 25  1  0  0  0  0
  9 21  1  0  0  0  0
  9 25  1  0  0  0  0
 12 14  1  0  0  0  0
 12 18  1  0  0  0  0
 12 33  1  0  0  0  0
 13 17  1  0  0  0  0
 13 26  2  0  0  0  0
 14 30  2  0  0  0  0
 15 16  1  0  0  0  0
 15 17  2  0  0  0  0
 16 18  1  0  0  0  0
 16 22  2  0  0  0  0
 17 19  1  0  0  0  0
 18 27  2  0  0  0  0
 19 23  1  0  0  0  0
 19 28  2  0  0  0  0
 20 21  1  0  0  0  0
 20 23  2  0  0  0  0
 21 29  2  0  0  0  0
 22 24  1  0  0  0  0
 24 31  1  0  0  0  0
 24 32  2  0  0  0  0
 26 39  1  0  0  0  0
 27 32  1  0  0  0  0
 28 29  1  0  0  0  0
 30 34  1  0  0  0  0
 30 35  1  0  0  0  0
 31 36  1  0  0  0  0
 31 38  2  0  0  0  0
 33 35  2  0  0  0  0
 36 37  2  0  0  0  0
 37 40  1  0  0  0  0
 38 41  1  0  0  0  0
 40 41  2  0  0  0  0
M  END
> <PUBCHEM_COMPOUND_ID_TYPE>
0

> <PUBCHEM_TOTAL_CHARGE>
0

> <PUBCHEM_SUBSTANCE_ID>
310948108

> <PUBCHEM_SUBSTANCE_VERSION>
1

> <PUBCHEM_EXT_DATASOURCE_NAME>
4488

> <PUBCHEM_EXT_DATASOURCE_REGID>
SCHEMBL16126284

> <PUBCHEM_SUBSTANCE_COMMENT>
InChI=1S/C28H18F5N3O5S/c1-15-34-25(18-7-9-22-23(14-18)41-28(32,33)40-22)26(39-15)20-13-17(16-4-3-5-19(12-16)42(2,37)38)6-8-21(20)36-11-10-24(35-36)27(29,30)31/h3-14H,1-2H3
InChIKey=BHERZVIJYRUAOK-UHFFFAOYSA-N

> <PUBCHEM_SUBSTANCE_SYNONYM>
SCHEMBL16126284

> <PUBCHEM_XREF_EXT_ID>
SCHEMBL16126284

> <PUBCHEM_EXT_DATASOURCE_URL>
https://www.surechembl.org/

> <PUBCHEM_EXT_SUBSTANCE_URL>
https://www.surechembl.org/chemical/SCHEMBL16126284

> <PUBCHEM_CID_ASSOCIATIONS>
117613725  1

> <PUBCHEM_COORDINATE_TYPE>
1
3

$$$$
