310940344
  -OEChem-07211613022D

 21 23  0     0  0  0  0  0  0999 V2000
    3.7671    0.4269    0.0000 Cl  0  0  0  0  0  0  0  0  0  0  0  0
   -1.6701    1.3555    0.0000 O   0  0  0  0  0  0  0  0  0  0  0  0
    1.5053   -1.3555    0.0000 O   0  0  0  0  0  0  0  0  0  0  0  0
    0.4419   -0.0674    0.0000 N   0  0  0  0  0  0  0  0  0  0  0  0
    0.0674   -0.8013    0.0000 N   0  0  0  0  0  0  0  0  0  0  0  0
   -0.7564   -0.6666    0.0000 N   0  0  0  0  0  0  0  0  0  0  0  0
    1.2807    0.0674    0.0000 C   0  0  0  0  0  0  0  0  0  0  0  0
   -0.8763    0.1573    0.0000 C   0  0  0  0  0  0  0  0  0  0  0  0
   -0.1573    0.5317    0.0000 C   0  0  0  0  0  0  0  0  0  0  0  0
   -1.6401    0.5167    0.0000 C   0  0  0  0  0  0  0  0  0  0  0  0
    1.8049   -0.5617    0.0000 C   0  0  0  0  0  0  0  0  0  0  0  0
    1.5802    0.8313    0.0000 C   0  0  0  0  0  0  0  0  0  0  0  0
   -2.3441    0.0824    0.0000 C   0  0  0  0  0  0  0  0  0  0  0  0
    2.6287   -0.4419    0.0000 C   0  0  0  0  0  0  0  0  0  0  0  0
    2.9283    0.3221    0.0000 C   0  0  0  0  0  0  0  0  0  0  0  0
    2.4040    0.9511    0.0000 C   0  0  0  0  0  0  0  0  0  0  0  0
   -3.0930    0.4568    0.0000 C   0  0  0  0  0  0  0  0  0  0  0  0
   -2.2992   -0.7414    0.0000 C   0  0  0  0  0  0  0  0  0  0  0  0
   -3.7671    0.0224    0.0000 C   0  0  0  0  0  0  0  0  0  0  0  0
   -3.0032   -1.1758    0.0000 C   0  0  0  0  0  0  0  0  0  0  0  0
   -3.7371   -0.8013    0.0000 C   0  0  0  0  0  0  0  0  0  0  0  0
  1 15  1  0  0  0  0
  2 10  2  0  0  0  0
  3 11  1  0  0  0  0
  4  5  1  0  0  0  0
  4  7  1  0  0  0  0
  4  9  1  0  0  0  0
  5  6  2  0  0  0  0
  6  8  1  0  0  0  0
  7 11  2  0  0  0  0
  7 12  1  0  0  0  0
  8  9  2  0  0  0  0
  8 10  1  0  0  0  0
 10 13  1  0  0  0  0
 11 14  1  0  0  0  0
 12 16  2  0  0  0  0
 13 17  2  0  0  0  0
 13 18  1  0  0  0  0
 14 15  2  0  0  0  0
 15 16  1  0  0  0  0
 17 19  1  0  0  0  0
 18 20  2  0  0  0  0
 19 21  2  0  0  0  0
 20 21  1  0  0  0  0
M  END
> <PUBCHEM_COMPOUND_ID_TYPE>
0

> <PUBCHEM_TOTAL_CHARGE>
0

> <PUBCHEM_SUBSTANCE_ID>
310940344

> <PUBCHEM_SUBSTANCE_VERSION>
1

> <PUBCHEM_EXT_DATASOURCE_NAME>
4488

> <PUBCHEM_EXT_DATASOURCE_REGID>
SCHEMBL16118288

> <PUBCHEM_SUBSTANCE_COMMENT>
InChI=1S/C15H10ClN3O2/c16-11-6-7-13(14(20)8-11)19-9-12(17-18-19)15(21)10-4-2-1-3-5-10/h1-9,20H
InChIKey=BZWCDCDETGAEFQ-UHFFFAOYSA-N

> <PUBCHEM_SUBSTANCE_SYNONYM>
SCHEMBL16118288

> <PUBCHEM_XREF_EXT_ID>
SCHEMBL16118288

> <PUBCHEM_EXT_DATASOURCE_URL>
https://www.surechembl.org/

> <PUBCHEM_EXT_SUBSTANCE_URL>
https://www.surechembl.org/chemical/SCHEMBL16118288

> <PUBCHEM_CID_ASSOCIATIONS>
86296299  1

> <PUBCHEM_COORDINATE_TYPE>
1
3

$$$$
