310947478
  -OEChem-07211613022D

 27 29  0     0  0  0  0  0  0999 V2000
   -1.2407   -1.9573    0.0000 O   0  0  0  0  0  0  0  0  0  0  0  0
    2.5667   -1.2753    0.0000 O   0  0  0  0  0  0  0  0  0  0  0  0
    2.1969    0.1049    0.0000 O   0  0  0  0  0  0  0  0  0  0  0  0
    0.1883   -2.7823    0.0000 N   0  0  0  0  0  0  0  0  0  0  0  0
   -1.9551   -3.1947    0.0000 N   0  0  0  0  0  0  0  0  0  0  0  0
    0.9729   -3.0373    0.0000 C   0  0  0  0  0  0  0  0  0  0  0  0
    1.4578   -2.3698    0.0000 C   0  0  0  0  0  0  0  0  0  0  0  0
    0.9729   -1.7023    0.0000 C   0  0  0  0  0  0  0  0  0  0  0  0
    0.1883   -1.9573    0.0000 C   0  0  0  0  0  0  0  0  0  0  0  0
   -0.5262   -3.1947    0.0000 C   0  0  0  0  0  0  0  0  0  0  0  0
    1.3085   -3.7909    0.0000 C   0  0  0  0  0  0  0  0  0  0  0  0
    2.2783   -2.4560    0.0000 C   0  0  0  0  0  0  0  0  0  0  0  0
   -1.2407   -2.7823    0.0000 C   0  0  0  0  0  0  0  0  0  0  0  0
    1.1864   -0.9055    0.0000 C   0  0  0  0  0  0  0  0  0  0  0  0
   -1.9551   -4.0198    0.0000 C   0  0  0  0  0  0  0  0  0  0  0  0
    2.1289   -3.8771    0.0000 C   0  0  0  0  0  0  0  0  0  0  0  0
    2.6138   -3.2097    0.0000 C   0  0  0  0  0  0  0  0  0  0  0  0
    1.9833   -0.6919    0.0000 C   0  0  0  0  0  0  0  0  0  0  0  0
   -2.6696   -2.7823    0.0000 C   0  0  0  0  0  0  0  0  0  0  0  0
   -2.6696   -4.4322    0.0000 C   0  0  0  0  0  0  0  0  0  0  0  0
   -1.2407   -4.4322    0.0000 C   0  0  0  0  0  0  0  0  0  0  0  0
   -2.6696   -5.2572    0.0000 C   0  0  0  0  0  0  0  0  0  0  0  0
   -1.2407   -5.2572    0.0000 C   0  0  0  0  0  0  0  0  0  0  0  0
   -2.6696   -1.9573    0.0000 C   0  0  0  0  0  0  0  0  0  0  0  0
   -1.9551   -5.6698    0.0000 C   0  0  0  0  0  0  0  0  0  0  0  0
    3.4775   -1.0312    0.0000 C   0  0  0  0  0  0  0  0  0  0  0  0
   -3.3840   -1.5448    0.0000 C   0  0  0  0  0  0  0  0  0  0  0  0
  1 13  2  0  0  0  0
  2 18  1  0  0  0  0
  2 26  1  0  0  0  0
  3 18  2  0  0  0  0
  4  6  1  0  0  0  0
  4  9  1  0  0  0  0
  4 10  1  0  0  0  0
  5 13  1  0  0  0  0
  5 15  1  0  0  0  0
  5 19  1  0  0  0  0
  6  7  2  0  0  0  0
  6 11  1  0  0  0  0
  7  8  1  0  0  0  0
  7 12  1  0  0  0  0
  8  9  2  0  0  0  0
  8 14  1  0  0  0  0
 10 13  1  0  0  0  0
 11 16  2  0  0  0  0
 12 17  2  0  0  0  0
 14 18  1  0  0  0  0
 15 20  2  0  0  0  0
 15 21  1  0  0  0  0
 16 17  1  0  0  0  0
 19 24  1  0  0  0  0
 20 22  1  0  0  0  0
 21 23  2  0  0  0  0
 22 25  2  0  0  0  0
 23 25  1  0  0  0  0
 24 27  1  0  0  0  0
M  END
> <PUBCHEM_COMPOUND_ID_TYPE>
0

> <PUBCHEM_TOTAL_CHARGE>
0

> <PUBCHEM_SUBSTANCE_ID>
310947478

> <PUBCHEM_SUBSTANCE_VERSION>
1

> <PUBCHEM_EXT_DATASOURCE_NAME>
4488

> <PUBCHEM_EXT_DATASOURCE_REGID>
SCHEMBL16125639

> <PUBCHEM_SUBSTANCE_COMMENT>
InChI=1S/C22H24N2O3/c1-3-13-24(18-9-5-4-6-10-18)21(25)16-23-15-17(14-22(26)27-2)19-11-7-8-12-20(19)23/h4-12,15H,3,13-14,16H2,1-2H3
InChIKey=SWNQUXUTMDCCLP-UHFFFAOYSA-N

> <PUBCHEM_SUBSTANCE_SYNONYM>
SCHEMBL16125639

> <PUBCHEM_XREF_EXT_ID>
SCHEMBL16125639

> <PUBCHEM_EXT_DATASOURCE_URL>
https://www.surechembl.org/

> <PUBCHEM_EXT_SUBSTANCE_URL>
https://www.surechembl.org/chemical/SCHEMBL16125639

> <PUBCHEM_CID_ASSOCIATIONS>
117613208  1

> <PUBCHEM_COORDINATE_TYPE>
1
3

$$$$
