310935081
  -OEChem-07211613022D

 45 48  0     1  0  0  0  0  0999 V2000
   -6.3545   -4.5761    0.0000 O   0  0  0  0  0  0  0  0  0  0  0  0
   -4.2111   -4.1636    0.0000 O   0  0  0  0  0  0  0  0  0  0  0  0
   -9.2124   -4.5761    0.0000 O   0  0  0  0  0  0  0  0  0  0  0  0
   -4.9255   -5.4011    0.0000 O   0  0  0  0  0  0  0  0  0  0  0  0
   -6.6321    0.6335    0.0000 O   0  0  0  0  0  0  0  0  0  0  0  0
   -9.5196   -0.0809    0.0000 O   0  0  0  0  0  0  0  0  0  0  0  0
  -10.3446   -0.0809    0.0000 O   0  0  0  0  0  0  0  0  0  0  0  0
   -5.6401   -1.6886    0.0000 N   0  0  0  0  0  0  0  0  0  0  0  0
   -7.0690   -3.3386    0.0000 N   0  0  0  0  0  0  0  0  0  0  0  0
   -5.8115   -0.8816    0.0000 N   0  0  0  0  0  0  0  0  0  0  0  0
   -7.8696   -0.0809    0.0000 N   0  0  0  0  0  0  0  0  0  0  0  0
   -6.3545   -2.9261    0.0000 C   0  0  0  0  0  0  0  0  0  0  0  0
   -6.3545   -2.1011    0.0000 C   0  0  0  0  0  0  0  0  0  0  0  0
   -5.6401   -3.3386    0.0000 C   0  0  0  0  0  0  0  0  0  0  0  0
   -4.9255   -2.9261    0.0000 C   0  0  0  0  0  0  0  0  0  0  0  0
   -5.6401   -4.1636    0.0000 C   0  0  3  0  0  0  0  0  0  0  0  0
   -6.9676   -1.5491    0.0000 C   0  0  0  0  0  0  0  0  0  0  0  0
   -4.9255   -2.1011    0.0000 C   0  0  0  0  0  0  0  0  0  0  0  0
   -6.6321   -0.7954    0.0000 C   0  0  0  0  0  0  0  0  0  0  0  0
   -4.9255   -4.5761    0.0000 C   0  0  0  0  0  0  0  0  0  0  0  0
   -7.0690   -4.1636    0.0000 C   0  0  0  0  0  0  0  0  0  0  0  0
   -7.7835   -2.9261    0.0000 C   0  0  0  0  0  0  0  0  0  0  0  0
   -7.0446   -0.0809    0.0000 C   0  0  0  0  0  0  0  0  0  0  0  0
   -8.4979   -4.1636    0.0000 C   0  0  0  0  0  0  0  0  0  0  0  0
   -7.7835   -4.5761    0.0000 C   0  0  0  0  0  0  0  0  0  0  0  0
   -8.4979   -3.3386    0.0000 C   0  0  0  0  0  0  0  0  0  0  0  0
   -4.2111   -3.3386    0.0000 C   0  0  0  0  0  0  0  0  0  0  0  0
   -6.3545   -5.4011    0.0000 C   0  0  0  0  0  0  0  0  0  0  0  0
   -8.4979   -4.9886    0.0000 C   0  0  0  0  0  0  0  0  0  0  0  0
   -5.6401   -5.8136    0.0000 C   0  0  0  0  0  0  0  0  0  0  0  0
   -6.3545   -6.2261    0.0000 C   0  0  0  0  0  0  0  0  0  0  0  0
   -7.0690   -5.8136    0.0000 C   0  0  0  0  0  0  0  0  0  0  0  0
   -8.2821    0.6335    0.0000 C   0  0  0  0  0  0  0  0  0  0  0  0
   -9.9269   -4.1636    0.0000 C   0  0  0  0  0  0  0  0  0  0  0  0
   -3.4966   -4.5761    0.0000 C   0  0  0  0  0  0  0  0  0  0  0  0
   -9.1071    0.6335    0.0000 C   0  0  3  0  0  0  0  0  0  0  0  0
   -9.5196    1.3481    0.0000 C   0  0  0  0  0  0  0  0  0  0  0  0
  -10.6413   -4.5761    0.0000 C   0  0  0  0  0  0  0  0  0  0  0  0
  -10.3446    1.3481    0.0000 C   0  0  0  0  0  0  0  0  0  0  0  0
  -10.7571    0.6335    0.0000 C   0  0  0  0  0  0  0  0  0  0  0  0
  -10.7571    2.0625    0.0000 C   0  0  0  0  0  0  0  0  0  0  0  0
  -11.5821    0.6335    0.0000 C   0  0  0  0  0  0  0  0  0  0  0  0
  -11.3558   -4.1636    0.0000 C   0  0  0  0  0  0  0  0  0  0  0  0
  -11.5821    2.0625    0.0000 C   0  0  0  0  0  0  0  0  0  0  0  0
  -11.9946    1.3481    0.0000 C   0  0  0  0  0  0  0  0  0  0  0  0
 16  1  1  1  0  0  0
  1 28  1  0  0  0  0
  2 20  1  0  0  0  0
  2 35  1  0  0  0  0
  3 24  1  0  0  0  0
  3 34  1  0  0  0  0
  4 20  2  0  0  0  0
  5 23  2  0  0  0  0
  6 36  1  0  0  0  0
  7 40  1  0  0  0  0
  8 10  1  0  0  0  0
  8 13  1  0  0  0  0
  8 18  1  0  0  0  0
  9 12  1  0  0  0  0
  9 21  1  0  0  0  0
  9 22  1  0  0  0  0
 10 19  2  0  0  0  0
 11 23  1  0  0  0  0
 11 33  1  0  0  0  0
 12 13  1  0  0  0  0
 12 14  2  0  0  0  0
 13 17  2  0  0  0  0
 14 15  1  0  0  0  0
 14 16  1  0  0  0  0
 15 18  2  0  0  0  0
 15 27  1  0  0  0  0
 16 20  1  0  0  0  0
 17 19  1  0  0  0  0
 19 23  1  0  0  0  0
 21 25  1  0  0  0  0
 22 26  1  0  0  0  0
 24 25  1  0  0  0  0
 24 26  1  0  0  0  0
 24 29  1  0  0  0  0
 28 30  1  0  0  0  0
 28 31  1  0  0  0  0
 28 32  1  0  0  0  0
 33 36  1  0  0  0  0
 34 38  1  0  0  0  0
 36 37  1  0  0  0  0
 37 39  1  0  0  0  0
 38 43  2  0  0  0  0
 39 40  1  0  0  0  0
 39 41  2  0  0  0  0
 40 42  2  0  0  0  0
 41 44  1  0  0  0  0
 42 45  1  0  0  0  0
 44 45  2  0  0  0  0
M  END
> <PUBCHEM_COMPOUND_ID_TYPE>
0

> <PUBCHEM_TOTAL_CHARGE>
0

> <PUBCHEM_SUBSTANCE_ID>
310935081

> <PUBCHEM_SUBSTANCE_VERSION>
1

> <PUBCHEM_EXT_DATASOURCE_NAME>
4488

> <PUBCHEM_EXT_DATASOURCE_REGID>
SCHEMBL16112607

> <PUBCHEM_SUBSTANCE_COMMENT>
InChI=1S/C34H46N4O7/c1-8-17-44-34(6)13-15-37(16-14-34)29-26-19-25(31(41)35-20-24(39)18-23-11-9-10-12-27(23)40)36-38(26)21-22(2)28(29)30(32(42)43-7)45-33(3,4)5/h8-12,19,21,24,30,39-40H,1,13-18,20H2,2-7H3,(H,35,41)/t24?,30-/m0/s1
InChIKey=TUBPEPUZKUHYMA-FZNWDQQTSA-N

> <PUBCHEM_SUBSTANCE_SYNONYM>
SCHEMBL16112607

> <PUBCHEM_XREF_EXT_ID>
SCHEMBL16112607

> <PUBCHEM_EXT_DATASOURCE_URL>
https://www.surechembl.org/

> <PUBCHEM_EXT_SUBSTANCE_URL>
https://www.surechembl.org/chemical/SCHEMBL16112607

> <PUBCHEM_CID_ASSOCIATIONS>
117603177  1

> <PUBCHEM_COORDINATE_TYPE>
1
3

> <PUBCHEM_BONDANNOTATIONS>
16  1  5

$$$$
