310938625
  -OEChem-07211613022D

 34 38  0     0  0  0  0  0  0999 V2000
   -4.2868   -0.6348    0.0000 Cl  0  0  0  0  0  0  0  0  0  0  0  0
   -0.7145   -1.0473    0.0000 O   0  0  0  0  0  0  0  0  0  0  0  0
    0.0000   -2.2848    0.0000 O   0  0  0  0  0  0  0  0  0  0  0  0
   -4.2868   -3.1098    0.0000 O   0  0  0  0  0  0  0  0  0  0  0  0
    0.7145    1.4277    0.0000 N   0  0  0  0  0  0  0  0  0  0  0  0
    0.0000    0.1902    0.0000 N   0  0  0  0  0  0  0  0  0  0  0  0
    1.4289    0.1902    0.0000 N   0  0  0  0  0  0  0  0  0  0  0  0
    1.4289   -2.2848    0.0000 N   0  0  0  0  0  0  0  0  0  0  0  0
    1.1270    2.6973    0.0000 C   0  0  0  0  0  0  0  0  0  0  0  0
    1.3819    1.9126    0.0000 C   0  0  0  0  0  0  0  0  0  0  0  0
    1.8414    3.1098    0.0000 C   0  0  0  0  0  0  0  0  0  0  0  0
    1.1270    3.5223    0.0000 C   0  0  0  0  0  0  0  0  0  0  0  0
    0.3020    2.6973    0.0000 C   0  0  0  0  0  0  0  0  0  0  0  0
    0.7145    0.6027    0.0000 C   0  0  0  0  0  0  0  0  0  0  0  0
    0.0470    1.9126    0.0000 C   0  0  0  0  0  0  0  0  0  0  0  0
    0.0000   -0.6348    0.0000 C   0  0  0  0  0  0  0  0  0  0  0  0
    0.7145   -1.0473    0.0000 C   0  0  0  0  0  0  0  0  0  0  0  0
    1.4289   -0.6348    0.0000 C   0  0  0  0  0  0  0  0  0  0  0  0
    0.7145   -1.8723    0.0000 C   0  0  0  0  0  0  0  0  0  0  0  0
   -1.4289   -0.6348    0.0000 C   0  0  0  0  0  0  0  0  0  0  0  0
   -2.1434   -1.0473    0.0000 C   0  0  0  0  0  0  0  0  0  0  0  0
   -2.8579   -0.6348    0.0000 C   0  0  0  0  0  0  0  0  0  0  0  0
   -3.5724   -1.0473    0.0000 C   0  0  0  0  0  0  0  0  0  0  0  0
   -3.5724   -1.8723    0.0000 C   0  0  0  0  0  0  0  0  0  0  0  0
   -2.1434   -1.8723    0.0000 C   0  0  0  0  0  0  0  0  0  0  0  0
    2.1434   -1.8723    0.0000 C   0  0  0  0  0  0  0  0  0  0  0  0
   -2.8579   -2.2848    0.0000 C   0  0  0  0  0  0  0  0  0  0  0  0
    2.8579   -2.2848    0.0000 C   0  0  0  0  0  0  0  0  0  0  0  0
   -4.2868   -2.2848    0.0000 C   0  0  0  0  0  0  0  0  0  0  0  0
    2.8579   -3.1098    0.0000 C   0  0  0  0  0  0  0  0  0  0  0  0
    3.5724   -1.8723    0.0000 C   0  0  0  0  0  0  0  0  0  0  0  0
    3.5724   -3.5223    0.0000 C   0  0  0  0  0  0  0  0  0  0  0  0
    4.2868   -2.2848    0.0000 C   0  0  0  0  0  0  0  0  0  0  0  0
    4.2868   -3.1098    0.0000 C   0  0  0  0  0  0  0  0  0  0  0  0
  1 23  1  0  0  0  0
  2 16  1  0  0  0  0
  2 20  1  0  0  0  0
  3 19  2  0  0  0  0
  4 29  1  0  0  0  0
  5 10  1  0  0  0  0
  5 14  1  0  0  0  0
  5 15  1  0  0  0  0
  6 14  1  0  0  0  0
  6 16  2  0  0  0  0
  7 14  2  0  0  0  0
  7 18  1  0  0  0  0
  8 19  1  0  0  0  0
  8 26  1  0  0  0  0
  9 10  1  0  0  0  0
  9 11  1  0  0  0  0
  9 12  1  0  0  0  0
  9 13  1  0  0  0  0
 11 12  1  0  0  0  0
 13 15  1  0  0  0  0
 16 17  1  0  0  0  0
 17 18  2  0  0  0  0
 17 19  1  0  0  0  0
 20 21  1  0  0  0  0
 21 22  2  0  0  0  0
 21 25  1  0  0  0  0
 22 23  1  0  0  0  0
 23 24  2  0  0  0  0
 24 27  1  0  0  0  0
 24 29  1  0  0  0  0
 25 27  2  0  0  0  0
 26 28  1  0  0  0  0
 28 30  2  0  0  0  0
 28 31  1  0  0  0  0
 30 32  1  0  0  0  0
 31 33  2  0  0  0  0
 32 34  2  0  0  0  0
 33 34  1  0  0  0  0
M  END
> <PUBCHEM_COMPOUND_ID_TYPE>
0

> <PUBCHEM_TOTAL_CHARGE>
0

> <PUBCHEM_SUBSTANCE_ID>
310938625

> <PUBCHEM_SUBSTANCE_VERSION>
1

> <PUBCHEM_EXT_DATASOURCE_NAME>
4488

> <PUBCHEM_EXT_DATASOURCE_REGID>
SCHEMBL16116539

> <PUBCHEM_SUBSTANCE_COMMENT>
InChI=1S/C26H27ClN4O3/c27-22-12-19(6-7-20(22)15-32)16-34-24-21(23(33)28-13-18-4-2-1-3-5-18)14-29-25(30-24)31-11-10-26(17-31)8-9-26/h1-7,12,14,32H,8-11,13,15-17H2,(H,28,33)
InChIKey=YCTAJBKHFNLEJU-UHFFFAOYSA-N

> <PUBCHEM_SUBSTANCE_SYNONYM>
SCHEMBL16116539

> <PUBCHEM_XREF_EXT_ID>
SCHEMBL16116539

> <PUBCHEM_EXT_DATASOURCE_URL>
https://www.surechembl.org/

> <PUBCHEM_EXT_SUBSTANCE_URL>
https://www.surechembl.org/chemical/SCHEMBL16116539

> <PUBCHEM_CID_ASSOCIATIONS>
117606058  1

> <PUBCHEM_COORDINATE_TYPE>
1
3

$$$$
