310934675
  -OEChem-07211613022D

 40 46  0     0  0  0  0  0  0999 V2000
    1.3599   -4.7030    0.0000 S   0  0  0  0  0  0  0  0  0  0  0  0
    1.4165   -8.8394    0.0000 O   0  0  0  0  0  0  0  0  0  0  0  0
    0.0000   -8.8394    0.0000 O   0  0  0  0  0  0  0  0  0  0  0  0
    1.6999   -1.8132    0.0000 N   0  0  0  0  0  0  0  0  0  0  0  0
    1.5866   -1.0199    0.0000 N   0  0  0  0  0  0  0  0  0  0  0  0
    2.8898   -2.6632    0.0000 N   0  0  0  0  0  0  0  0  0  0  0  0
    0.2833   -3.9098    0.0000 N   0  0  0  0  0  0  0  0  0  0  0  0
    0.7366   -6.0063    0.0000 N   0  0  0  0  0  0  0  0  0  0  0  0
    5.2696   -0.6233    0.0000 N   0  0  0  0  0  0  0  0  0  0  0  0
    0.7366   -7.6495    0.0000 N   0  0  0  0  0  0  0  0  0  0  0  0
    2.5498   -1.9265    0.0000 C   0  0  0  0  0  0  0  0  0  0  0  0
    2.8898   -1.1333    0.0000 C   0  0  0  0  0  0  0  0  0  0  0  0
    3.6831   -0.9633    0.0000 C   0  0  0  0  0  0  0  0  0  0  0  0
    1.5866   -3.2298    0.0000 C   0  0  0  0  0  0  0  0  0  0  0  0
    4.2497   -1.5866    0.0000 C   0  0  0  0  0  0  0  0  0  0  0  0
    1.2466   -2.4931    0.0000 C   0  0  0  0  0  0  0  0  0  0  0  0
    2.2665   -0.6233    0.0000 C   0  0  0  0  0  0  0  0  0  0  0  0
    1.1333   -3.9098    0.0000 C   0  0  0  0  0  0  0  0  0  0  0  0
    2.4365   -3.3431    0.0000 C   0  0  0  0  0  0  0  0  0  0  0  0
    5.0430   -1.4165    0.0000 C   0  0  0  0  0  0  0  0  0  0  0  0
    0.7366   -5.1563    0.0000 C   0  0  0  0  0  0  0  0  0  0  0  0
    3.9098   -0.1700    0.0000 C   0  0  0  0  0  0  0  0  0  0  0  0
    3.9664   -2.3799    0.0000 C   0  0  0  0  0  0  0  0  0  0  0  0
    0.0567   -4.7030    0.0000 C   0  0  0  0  0  0  0  0  0  0  0  0
    4.7030    0.0000    0.0000 C   0  0  0  0  0  0  0  0  0  0  0  0
    5.6096   -1.9832    0.0000 C   0  0  0  0  0  0  0  0  0  0  0  0
    0.0000   -6.4029    0.0000 C   0  0  0  0  0  0  0  0  0  0  0  0
    1.4165   -6.4029    0.0000 C   0  0  0  0  0  0  0  0  0  0  0  0
    4.5330   -2.9464    0.0000 C   0  0  0  0  0  0  0  0  0  0  0  0
    5.3263   -2.7765    0.0000 C   0  0  0  0  0  0  0  0  0  0  0  0
    1.4165   -7.2528    0.0000 C   0  0  0  0  0  0  0  0  0  0  0  0
    0.0000   -7.2528    0.0000 C   0  0  0  0  0  0  0  0  0  0  0  0
    0.7366   -8.4428    0.0000 C   0  0  0  0  0  0  0  0  0  0  0  0
    1.4165   -9.6894    0.0000 C   0  0  0  0  0  0  0  0  0  0  0  0
    2.1532  -10.0860    0.0000 C   0  0  0  0  0  0  0  0  0  0  0  0
    2.1532  -10.9359    0.0000 C   0  0  0  0  0  0  0  0  0  0  0  0
    2.8332   -9.6894    0.0000 C   0  0  0  0  0  0  0  0  0  0  0  0
    2.8332  -11.3326    0.0000 C   0  0  0  0  0  0  0  0  0  0  0  0
    3.5697  -10.0860    0.0000 C   0  0  0  0  0  0  0  0  0  0  0  0
    3.5697  -10.9359    0.0000 C   0  0  0  0  0  0  0  0  0  0  0  0
  1 18  1  0  0  0  0
  1 21  1  0  0  0  0
  2 33  1  0  0  0  0
  2 34  1  0  0  0  0
  3 33  2  0  0  0  0
  4  5  1  0  0  0  0
  4 11  1  0  0  0  0
  4 16  1  0  0  0  0
  5 17  2  0  0  0  0
  6 11  1  0  0  0  0
  6 19  2  0  0  0  0
  7 18  2  0  0  0  0
  7 24  1  0  0  0  0
  8 21  1  0  0  0  0
  8 27  1  0  0  0  0
  8 28  1  0  0  0  0
  9 20  2  0  0  0  0
  9 25  1  0  0  0  0
 10 31  1  0  0  0  0
 10 32  1  0  0  0  0
 10 33  1  0  0  0  0
 11 12  2  0  0  0  0
 12 13  1  0  0  0  0
 12 17  1  0  0  0  0
 13 15  2  0  0  0  0
 13 22  1  0  0  0  0
 14 16  2  0  0  0  0
 14 18  1  0  0  0  0
 14 19  1  0  0  0  0
 15 20  1  0  0  0  0
 15 23  1  0  0  0  0
 20 26  1  0  0  0  0
 21 24  2  0  0  0  0
 22 25  2  0  0  0  0
 23 29  2  0  0  0  0
 26 30  2  0  0  0  0
 27 32  1  0  0  0  0
 28 31  1  0  0  0  0
 29 30  1  0  0  0  0
 34 35  1  0  0  0  0
 35 36  2  0  0  0  0
 35 37  1  0  0  0  0
 36 38  1  0  0  0  0
 37 39  2  0  0  0  0
 38 40  2  0  0  0  0
 39 40  1  0  0  0  0
M  END
> <PUBCHEM_COMPOUND_ID_TYPE>
0

> <PUBCHEM_TOTAL_CHARGE>
0

> <PUBCHEM_SUBSTANCE_ID>
310934675

> <PUBCHEM_SUBSTANCE_VERSION>
1

> <PUBCHEM_EXT_DATASOURCE_NAME>
4488

> <PUBCHEM_EXT_DATASOURCE_REGID>
SCHEMBL16112174

> <PUBCHEM_SUBSTANCE_COMMENT>
InChI=1S/C30H25N7O2S/c38-30(39-20-21-6-2-1-3-7-21)36-14-12-35(13-15-36)27-18-33-29(40-27)22-16-32-28-25(17-34-37(28)19-22)23-10-11-31-26-9-5-4-8-24(23)26/h1-11,16-19H,12-15,20H2
InChIKey=IJKYBCJEUGNELN-UHFFFAOYSA-N

> <PUBCHEM_SUBSTANCE_SYNONYM>
SCHEMBL16112174

> <PUBCHEM_XREF_EXT_ID>
SCHEMBL16112174

> <PUBCHEM_EXT_DATASOURCE_URL>
https://www.surechembl.org/

> <PUBCHEM_EXT_SUBSTANCE_URL>
https://www.surechembl.org/chemical/SCHEMBL16112174

> <PUBCHEM_CID_ASSOCIATIONS>
117602840  1

> <PUBCHEM_COORDINATE_TYPE>
1
3

$$$$
