310947338
  -OEChem-07211613022D

 33 36  0     0  0  0  0  0  0999 V2000
    2.2626    9.5397    0.0000 Br  0  0  0  0  0  0  0  0  0  0  0  0
    6.4033    7.8854    0.0000 O   0  0  0  0  0  0  0  0  0  0  0  0
   -1.0780    9.8078    0.0000 O   0  0  0  0  0  0  0  0  0  0  0  0
    5.0231    7.5155    0.0000 O   0  0  0  0  0  0  0  0  0  0  0  0
    1.8501    7.4903    0.0000 N   0  0  0  0  0  0  0  0  0  0  0  0
    2.3350    8.1578    0.0000 N   0  0  0  0  0  0  0  0  0  0  0  0
    1.0654    7.7453    0.0000 C   0  0  0  0  0  0  0  0  0  0  0  0
    1.0654    8.5703    0.0000 C   0  0  0  0  0  0  0  0  0  0  0  0
    1.8501    8.8252    0.0000 C   0  0  0  0  0  0  0  0  0  0  0  0
    0.3510    8.9828    0.0000 C   0  0  0  0  0  0  0  0  0  0  0  0
    0.3510    7.3328    0.0000 C   0  0  0  0  0  0  0  0  0  0  0  0
   -0.3635    8.5703    0.0000 C   0  0  0  0  0  0  0  0  0  0  0  0
    2.2626    6.7759    0.0000 C   0  0  0  0  0  0  0  0  0  0  0  0
    3.0594    6.5623    0.0000 C   0  0  0  0  0  0  0  0  0  0  0  0
    5.4501    5.9218    0.0000 C   0  0  0  0  0  0  0  0  0  0  0  0
   -0.3635    7.7453    0.0000 C   0  0  0  0  0  0  0  0  0  0  0  0
    4.6532    6.1353    0.0000 C   0  0  0  0  0  0  0  0  0  0  0  0
    6.0335    6.5051    0.0000 C   0  0  0  0  0  0  0  0  0  0  0  0
   -1.0780    8.9828    0.0000 C   0  0  0  0  0  0  0  0  0  0  0  0
    3.2730    5.7655    0.0000 C   0  0  0  0  0  0  0  0  0  0  0  0
    3.6428    7.1457    0.0000 C   0  0  0  0  0  0  0  0  0  0  0  0
    4.0699    5.5519    0.0000 C   0  0  0  0  0  0  0  0  0  0  0  0
    4.4397    6.9322    0.0000 C   0  0  0  0  0  0  0  0  0  0  0  0
    5.8199    7.3020    0.0000 C   0  0  0  0  0  0  0  0  0  0  0  0
    5.6636    5.1249    0.0000 C   0  0  0  0  0  0  0  0  0  0  0  0
    6.8304    6.2916    0.0000 C   0  0  0  0  0  0  0  0  0  0  0  0
    6.4605    4.9114    0.0000 C   0  0  0  0  0  0  0  0  0  0  0  0
    6.4033    8.7104    0.0000 C   0  0  0  0  0  0  0  0  0  0  0  0
    7.0439    5.4947    0.0000 C   0  0  0  0  0  0  0  0  0  0  0  0
   -1.7924    8.5703    0.0000 C   0  0  0  0  0  0  0  0  0  0  0  0
    7.1178    9.1229    0.0000 C   0  0  0  0  0  0  0  0  0  0  0  0
    5.6888    9.1229    0.0000 C   0  0  0  0  0  0  0  0  0  0  0  0
    6.4033    9.5354    0.0000 C   0  0  0  0  0  0  0  0  0  0  0  0
  1  9  1  0  0  0  0
  2 24  1  0  0  0  0
  2 28  1  0  0  0  0
  3 19  2  0  0  0  0
  4 24  2  0  0  0  0
  5  6  1  0  0  0  0
  5  7  1  0  0  0  0
  5 13  1  0  0  0  0
  6  9  2  0  0  0  0
  7  8  1  0  0  0  0
  7 11  2  0  0  0  0
  8  9  1  0  0  0  0
  8 10  2  0  0  0  0
 10 12  1  0  0  0  0
 11 16  1  0  0  0  0
 12 16  2  0  0  0  0
 12 19  1  0  0  0  0
 13 14  1  0  0  0  0
 14 20  2  0  0  0  0
 14 21  1  0  0  0  0
 15 17  1  0  0  0  0
 15 18  1  0  0  0  0
 15 25  2  0  0  0  0
 17 22  2  0  0  0  0
 17 23  1  0  0  0  0
 18 24  1  0  0  0  0
 18 26  2  0  0  0  0
 19 30  1  0  0  0  0
 20 22  1  0  0  0  0
 21 23  2  0  0  0  0
 25 27  1  0  0  0  0
 26 29  1  0  0  0  0
 27 29  2  0  0  0  0
 28 31  1  0  0  0  0
 28 32  1  0  0  0  0
 28 33  1  0  0  0  0
M  END
> <PUBCHEM_COMPOUND_ID_TYPE>
0

> <PUBCHEM_TOTAL_CHARGE>
0

> <PUBCHEM_SUBSTANCE_ID>
310947338

> <PUBCHEM_SUBSTANCE_VERSION>
1

> <PUBCHEM_EXT_DATASOURCE_NAME>
4488

> <PUBCHEM_EXT_DATASOURCE_REGID>
SCHEMBL16125493

> <PUBCHEM_SUBSTANCE_COMMENT>
InChI=1S/C27H25BrN2O3/c1-17(31)20-13-14-24-23(15-20)25(28)29-30(24)16-18-9-11-19(12-10-18)21-7-5-6-8-22(21)26(32)33-27(2,3)4/h5-15H,16H2,1-4H3
InChIKey=ZBJWLXKZHAOWTP-UHFFFAOYSA-N

> <PUBCHEM_SUBSTANCE_SYNONYM>
SCHEMBL16125493

> <PUBCHEM_XREF_EXT_ID>
SCHEMBL16125493

> <PUBCHEM_EXT_DATASOURCE_URL>
https://www.surechembl.org/

> <PUBCHEM_EXT_SUBSTANCE_URL>
https://www.surechembl.org/chemical/SCHEMBL16125493

> <PUBCHEM_CID_ASSOCIATIONS>
117613087  1

> <PUBCHEM_COORDINATE_TYPE>
1
3

$$$$
