310943695
  -OEChem-07211613022D

 24 26  0     0  0  0  0  0  0999 V2000
   -1.7901   -0.8160    0.0000 O   0  0  0  0  0  0  0  0  0  0  0  0
   -3.2116    1.6584    0.0000 O   0  0  0  0  0  0  0  0  0  0  0  0
   -1.7901    0.8336    0.0000 N   0  0  0  0  0  0  0  0  0  0  0  0
    0.3510   -0.4124    0.0000 N   0  0  0  0  0  0  0  0  0  0  0  0
   -0.3510   -0.8160    0.0000 N   0  0  0  0  0  0  0  0  0  0  0  0
    1.7725    2.0621    0.0000 N   0  0  0  0  0  0  0  0  0  0  0  0
    3.2116    0.4124    0.0000 N   0  0  0  0  0  0  0  0  0  0  0  0
   -1.0705    0.4299    0.0000 C   0  0  0  0  0  0  0  0  0  0  0  0
    0.3686    0.4299    0.0000 C   0  0  0  0  0  0  0  0  0  0  0  0
   -1.0880   -0.3949    0.0000 C   0  0  0  0  0  0  0  0  0  0  0  0
    1.0529    0.8336    0.0000 C   0  0  0  0  0  0  0  0  0  0  0  0
   -0.3686    0.8336    0.0000 C   0  0  0  0  0  0  0  0  0  0  0  0
    1.0705    1.6584    0.0000 C   0  0  0  0  0  0  0  0  0  0  0  0
    1.7901    0.4299    0.0000 C   0  0  0  0  0  0  0  0  0  0  0  0
   -1.7901    1.6584    0.0000 C   0  0  0  0  0  0  0  0  0  0  0  0
   -2.5095    0.4299    0.0000 C   0  0  0  0  0  0  0  0  0  0  0  0
    2.4744    0.8336    0.0000 C   0  0  0  0  0  0  0  0  0  0  0  0
    2.4920    1.6584    0.0000 C   0  0  0  0  0  0  0  0  0  0  0  0
   -1.7901   -1.6233    0.0000 C   0  0  0  0  0  0  0  0  0  0  0  0
   -2.4920    2.0621    0.0000 C   0  0  0  0  0  0  0  0  0  0  0  0
   -3.2116    0.8511    0.0000 C   0  0  0  0  0  0  0  0  0  0  0  0
    0.3510    2.0445    0.0000 C   0  0  0  0  0  0  0  0  0  0  0  0
   -2.4920   -2.0621    0.0000 C   0  0  0  0  0  0  0  0  0  0  0  0
   -1.0529   -2.0445    0.0000 C   0  0  0  0  0  0  0  0  0  0  0  0
  1 10  1  0  0  0  0
  1 19  1  0  0  0  0
  2 20  1  0  0  0  0
  2 21  1  0  0  0  0
  3  8  1  0  0  0  0
  3 15  1  0  0  0  0
  3 16  1  0  0  0  0
  4  5  2  0  0  0  0
  4  9  1  0  0  0  0
  5 10  1  0  0  0  0
  6 13  2  0  0  0  0
  6 18  1  0  0  0  0
  7 17  1  0  0  0  0
  8 10  2  0  0  0  0
  8 12  1  0  0  0  0
  9 11  1  0  0  0  0
  9 12  2  0  0  0  0
 11 13  1  0  0  0  0
 11 14  2  0  0  0  0
 13 22  1  0  0  0  0
 14 17  1  0  0  0  0
 15 20  1  0  0  0  0
 16 21  1  0  0  0  0
 17 18  2  0  0  0  0
 19 23  1  0  0  0  0
 19 24  1  0  0  0  0
M  END
> <PUBCHEM_COMPOUND_ID_TYPE>
0

> <PUBCHEM_TOTAL_CHARGE>
0

> <PUBCHEM_SUBSTANCE_ID>
310943695

> <PUBCHEM_SUBSTANCE_VERSION>
1

> <PUBCHEM_EXT_DATASOURCE_NAME>
4488

> <PUBCHEM_EXT_DATASOURCE_REGID>
SCHEMBL16121763

> <PUBCHEM_SUBSTANCE_COMMENT>
InChI=1S/C17H23N5O2/c1-11(2)24-17-16(22-4-6-23-7-5-22)9-15(20-21-17)14-8-13(18)10-19-12(14)3/h8-11H,4-7,18H2,1-3H3
InChIKey=SJTMMKVGLMKUAY-UHFFFAOYSA-N

> <PUBCHEM_SUBSTANCE_SYNONYM>
SCHEMBL16121763

> <PUBCHEM_XREF_EXT_ID>
SCHEMBL16121763

> <PUBCHEM_EXT_DATASOURCE_URL>
https://www.surechembl.org/

> <PUBCHEM_EXT_SUBSTANCE_URL>
https://www.surechembl.org/chemical/SCHEMBL16121763

> <PUBCHEM_CID_ASSOCIATIONS>
117610081  1

> <PUBCHEM_COORDINATE_TYPE>
1
3

$$$$
