310948276
  -OEChem-07211613022D

 39 44  0     1  0  0  0  0  0999 V2000
   -0.9297   -1.6307    0.0000 S   0  0  0  0  0  0  0  0  0  0  0  0
   -1.1806   -2.4276    0.0000 O   0  0  0  0  0  0  0  0  0  0  0  0
   -1.7414   -1.8226    0.0000 O   0  0  0  0  0  0  0  0  0  0  0  0
   -2.9515    3.1065    0.0000 O   0  0  0  0  0  0  0  0  0  0  0  0
    1.8890   -4.7741    0.0000 O   0  0  0  0  0  0  0  0  0  0  0  0
    2.9515   -3.8001    0.0000 O   0  0  0  0  0  0  0  0  0  0  0  0
   -0.1033   -1.5422    0.0000 N   0  0  3  0  0  0  0  0  0  0  0  0
   -0.1918    2.9589    0.0000 N   0  0  0  0  0  0  0  0  0  0  0  0
   -0.5313    2.2063    0.0000 N   0  0  0  0  0  0  0  0  0  0  0  0
   -1.9038    1.6750    0.0000 N   0  0  0  0  0  0  0  0  0  0  0  0
   -2.2432    4.3609    0.0000 N   0  0  0  0  0  0  0  0  0  0  0  0
    0.7231    1.0551    0.0000 N   0  0  0  0  0  0  0  0  0  0  0  0
   -1.2691   -0.8780    0.0000 C   0  0  0  0  0  0  0  0  0  0  0  0
   -0.6641   -0.3025    0.0000 C   0  0  0  0  0  0  0  0  0  0  0  0
   -1.5053    3.1065    0.0000 C   0  0  0  0  0  0  0  0  0  0  0  0
   -0.8117    3.5345    0.0000 C   0  0  0  0  0  0  0  0  0  0  0  0
   -1.3577    2.3244    0.0000 C   0  0  0  0  0  0  0  0  0  0  0  0
    0.0590   -0.7158    0.0000 C   0  0  0  0  0  0  0  0  0  0  0  0
    0.4575   -2.1325    0.0000 C   0  0  0  0  0  0  0  0  0  0  0  0
   -1.6381    0.7600    0.0000 C   0  0  0  0  0  0  0  0  0  0  0  0
   -0.8560    0.4944    0.0000 C   0  0  0  0  0  0  0  0  0  0  0  0
   -2.0661   -0.6124    0.0000 C   0  0  0  0  0  0  0  0  0  0  0  0
    0.6199    3.1360    0.0000 C   0  0  3  0  0  0  0  0  0  0  0  0
   -2.2432    3.5345    0.0000 C   0  0  0  0  0  0  0  0  0  0  0  0
   -2.2284    0.1845    0.0000 C   0  0  0  0  0  0  0  0  0  0  0  0
   -0.7970    4.3461    0.0000 C   0  0  0  0  0  0  0  0  0  0  0  0
    1.1659    2.5457    0.0000 C   0  0  3  0  0  0  0  0  0  0  0  0
    0.2213   -2.9441    0.0000 C   0  0  0  0  0  0  0  0  0  0  0  0
    1.2691   -1.9849    0.0000 C   0  0  0  0  0  0  0  0  0  0  0  0
   -1.5201    4.7741    0.0000 C   0  0  0  0  0  0  0  0  0  0  0  0
    0.8855    3.9329    0.0000 C   0  0  0  0  0  0  0  0  0  0  0  0
    1.5791   -3.3574    0.0000 C   0  0  0  0  0  0  0  0  0  0  0  0
    0.7821   -3.5492    0.0000 C   0  0  0  0  0  0  0  0  0  0  0  0
    1.8152   -2.5752    0.0000 C   0  0  0  0  0  0  0  0  0  0  0  0
    1.9775    2.6933    0.0000 C   0  0  0  0  0  0  0  0  0  0  0  0
    0.9002    1.7487    0.0000 C   0  0  0  0  0  0  0  0  0  0  0  0
    1.6824    4.0953    0.0000 C   0  0  0  0  0  0  0  0  0  0  0  0
    2.2284    3.4902    0.0000 C   0  0  0  0  0  0  0  0  0  0  0  0
    2.1841   -3.9772    0.0000 C   0  0  0  0  0  0  0  0  0  0  0  0
  1  2  2  0  0  0  0
  1  3  2  0  0  0  0
  1  7  1  0  0  0  0
  1 13  1  0  0  0  0
  4 24  2  0  0  0  0
  5 39  2  0  0  0  0
  6 39  1  0  0  0  0
  7 18  1  0  0  0  0
 19  7  1  1  0  0  0
  8  9  1  0  0  0  0
  8 16  1  0  0  0  0
 23  8  1  1  0  0  0
  9 17  2  0  0  0  0
 10 17  1  0  0  0  0
 10 20  1  0  0  0  0
 11 24  1  0  0  0  0
 11 30  1  0  0  0  0
 12 36  3  0  0  0  0
 13 14  1  0  0  0  0
 13 22  2  0  0  0  0
 14 18  1  0  0  0  0
 14 21  2  0  0  0  0
 15 16  2  0  0  0  0
 15 17  1  0  0  0  0
 15 24  1  0  0  0  0
 16 26  1  0  0  0  0
 19 28  1  0  0  0  0
 19 29  1  0  0  0  0
 20 21  1  0  0  0  0
 20 25  2  0  0  0  0
 22 25  1  0  0  0  0
 23 27  1  0  0  0  0
 23 31  1  0  0  0  0
 26 30  2  0  0  0  0
 27 35  1  0  0  0  0
 27 36  1  6  0  0  0
 28 33  1  0  0  0  0
 29 34  1  0  0  0  0
 31 37  1  0  0  0  0
 32 33  1  0  0  0  0
 32 34  1  0  0  0  0
 32 39  1  1  0  0  0
 35 38  1  0  0  0  0
 37 38  1  0  0  0  0
M  END
> <PUBCHEM_COMPOUND_ID_TYPE>
0

> <PUBCHEM_TOTAL_CHARGE>
0

> <PUBCHEM_SUBSTANCE_ID>
310948276

> <PUBCHEM_SUBSTANCE_VERSION>
1

> <PUBCHEM_EXT_DATASOURCE_NAME>
4488

> <PUBCHEM_EXT_DATASOURCE_REGID>
SCHEMBL16126453

> <PUBCHEM_SUBSTANCE_COMMENT>
InChI=1S/C27H30N6O5S/c28-14-17-3-1-2-4-21(17)33-22-11-12-29-26(34)24(22)25(31-33)30-19-7-10-23-18(13-19)15-32(39(23,37)38)20-8-5-16(6-9-20)27(35)36/h7,10-13,16-17,20-21H,1-6,8-9,15H2,(H,29,34)(H,30,31)(H,35,36)/t16-,17-,20+,21+/m1/s1
InChIKey=AVVDDRXOGVJFNV-JYWFKMLOSA-N

> <PUBCHEM_SUBSTANCE_SYNONYM>
SCHEMBL16126453

> <PUBCHEM_XREF_EXT_ID>
SCHEMBL16126453

> <PUBCHEM_EXT_DATASOURCE_URL>
https://www.surechembl.org/

> <PUBCHEM_EXT_SUBSTANCE_URL>
https://www.surechembl.org/chemical/SCHEMBL16126453

> <PUBCHEM_CID_ASSOCIATIONS>
117613855  1

> <PUBCHEM_COORDINATE_TYPE>
1
3

> <PUBCHEM_BONDANNOTATIONS>
27  36  6
32  39  5
19  7  5
23  8  5

$$$$
