310940029
  -OEChem-07211613022D

 11 11  0     1  0  0  0  0  0999 V2000
    2.8009    2.0309    0.0000 O   0  0  0  0  0  0  0  0  0  0  0  0
    3.5153    3.2684    0.0000 N   0  0  0  0  0  0  0  0  0  0  0  0
    4.9443    4.0934    0.0000 N   0  0  0  0  0  0  0  0  0  0  0  0
    4.2298    2.8559    0.0000 C   0  0  3  0  0  0  0  0  0  0  0  0
    2.8009    2.8559    0.0000 C   0  0  0  0  0  0  0  0  0  0  0  0
    3.5153    4.0934    0.0000 C   0  0  0  0  0  0  0  0  0  0  0  0
    4.9443    3.2684    0.0000 C   0  0  0  0  0  0  0  0  0  0  0  0
    4.2298    4.5059    0.0000 C   0  0  0  0  0  0  0  0  0  0  0  0
    2.0864    3.2684    0.0000 C   0  0  0  0  0  0  0  0  0  0  0  0
    4.2298    2.0309    0.0000 C   0  0  0  0  0  0  0  0  0  0  0  0
    1.3719    2.8559    0.0000 C   0  0  0  0  0  0  0  0  0  0  0  0
  1  5  2  0  0  0  0
  2  4  1  0  0  0  0
  2  5  1  0  0  0  0
  2  6  1  0  0  0  0
  3  7  1  0  0  0  0
  3  8  1  0  0  0  0
  4  7  1  0  0  0  0
  4 10  1  6  0  0  0
  5  9  1  0  0  0  0
  6  8  1  0  0  0  0
  9 11  2  0  0  0  0
M  END
> <PUBCHEM_COMPOUND_ID_TYPE>
0

> <PUBCHEM_TOTAL_CHARGE>
0

> <PUBCHEM_SUBSTANCE_ID>
310940029

> <PUBCHEM_SUBSTANCE_VERSION>
1

> <PUBCHEM_EXT_DATASOURCE_NAME>
4488

> <PUBCHEM_EXT_DATASOURCE_REGID>
SCHEMBL16117959

> <PUBCHEM_SUBSTANCE_COMMENT>
InChI=1S/C8H14N2O/c1-3-8(11)10-5-4-9-6-7(10)2/h3,7,9H,1,4-6H2,2H3/t7-/m0/s1
InChIKey=GYQRKKOZSOOGBX-ZETCQYMHSA-N

> <PUBCHEM_SUBSTANCE_SYNONYM>
SCHEMBL16117959

> <PUBCHEM_XREF_EXT_ID>
SCHEMBL16117959

> <PUBCHEM_EXT_DATASOURCE_URL>
https://www.surechembl.org/

> <PUBCHEM_EXT_SUBSTANCE_URL>
https://www.surechembl.org/chemical/SCHEMBL16117959

> <PUBCHEM_CID_ASSOCIATIONS>
82755839  1

> <PUBCHEM_COORDINATE_TYPE>
1
3

> <PUBCHEM_BONDANNOTATIONS>
4  10  6

$$$$
