310929247
  -OEChem-07211613022D

 56 61  0     0  0  0  0  0  0999 V2000
    4.6908   -9.0466    0.0000 O   0  0  0  0  0  0  0  0  0  0  0  0
    6.7849  -12.7322    0.0000 O   0  0  0  0  0  0  0  0  0  0  0  0
    6.1148  -12.3133    0.0000 O   0  0  0  0  0  0  0  0  0  0  0  0
    8.2089  -12.7322    0.0000 O   0  0  0  0  0  0  0  0  0  0  0  0
    2.7642   -3.7694    0.0000 O   0  0  0  0  0  0  0  0  0  0  0  0
    0.7539    0.0000    0.0000 O   0  0  0  0  0  0  0  0  0  0  0  0
    5.3609  -13.4861    0.0000 N   0  0  0  0  0  0  0  0  0  0  0  0
    4.6908  -12.3133    0.0000 N   0  0  0  0  0  0  0  0  0  0  0  0
    3.3506   -6.5337    0.0000 N   0  0  0  0  0  0  0  0  0  0  0  0
    4.0207   -7.8739    0.0000 N   0  0  0  0  0  0  0  0  0  0  0  0
    2.5967   -7.7901    0.0000 N   0  0  0  0  0  0  0  0  0  0  0  0
    8.8790  -13.9049    0.0000 N   0  0  0  0  0  0  0  0  0  0  0  0
    1.3402   -3.6856    0.0000 N   0  0  0  0  0  0  0  0  0  0  0  0
    0.6701   -1.5915    0.0000 N   0  0  0  0  0  0  0  0  0  0  0  0
    5.3609  -11.0569    0.0000 C   0  0  0  0  0  0  0  0  0  0  0  0
    5.3609  -10.3030    0.0000 C   0  0  0  0  0  0  0  0  0  0  0  0
    4.6908  -11.4757    0.0000 C   0  0  0  0  0  0  0  0  0  0  0  0
    6.1148  -13.9049    0.0000 C   0  0  0  0  0  0  0  0  0  0  0  0
    4.6908   -9.8842    0.0000 C   0  0  0  0  0  0  0  0  0  0  0  0
    6.7849  -13.4861    0.0000 C   0  0  0  0  0  0  0  0  0  0  0  0
    7.4550  -13.9049    0.0000 C   0  0  0  0  0  0  0  0  0  0  0  0
    6.7849  -15.1614    0.0000 C   0  0  0  0  0  0  0  0  0  0  0  0
    6.1148  -14.7426    0.0000 C   0  0  0  0  0  0  0  0  0  0  0  0
    7.4550  -14.7426    0.0000 C   0  0  0  0  0  0  0  0  0  0  0  0
    6.7849  -15.9153    0.0000 C   0  0  0  0  0  0  0  0  0  0  0  0
    3.9369  -11.0569    0.0000 C   0  0  0  0  0  0  0  0  0  0  0  0
    3.9369  -10.2192    0.0000 C   0  0  0  0  0  0  0  0  0  0  0  0
    5.3609  -12.7322    0.0000 C   0  0  0  0  0  0  0  0  0  0  0  0
    4.0207   -8.6278    0.0000 C   0  0  0  0  0  0  0  0  0  0  0  0
    6.0310  -11.4757    0.0000 C   0  0  0  0  0  0  0  0  0  0  0  0
    6.0310   -9.8842    0.0000 C   0  0  0  0  0  0  0  0  0  0  0  0
    8.2089  -13.4861    0.0000 C   0  0  0  0  0  0  0  0  0  0  0  0
    3.3506   -7.3713    0.0000 C   0  0  0  0  0  0  0  0  0  0  0  0
    2.6805   -6.1148    0.0000 C   0  0  0  0  0  0  0  0  0  0  0  0
    6.7849  -11.0569    0.0000 C   0  0  0  0  0  0  0  0  0  0  0  0
    6.7849  -10.3030    0.0000 C   0  0  0  0  0  0  0  0  0  0  0  0
    3.2668   -9.0466    0.0000 C   0  0  0  0  0  0  0  0  0  0  0  0
    2.6805   -5.3609    0.0000 C   0  0  0  0  0  0  0  0  0  0  0  0
    2.0103   -4.9421    0.0000 C   0  0  0  0  0  0  0  0  0  0  0  0
    5.9473  -15.9153    0.0000 C   0  0  0  0  0  0  0  0  0  0  0  0
    6.7849  -16.7529    0.0000 C   0  0  0  0  0  0  0  0  0  0  0  0
    7.6225  -15.9153    0.0000 C   0  0  0  0  0  0  0  0  0  0  0  0
    2.5967   -8.6278    0.0000 C   0  0  0  0  0  0  0  0  0  0  0  0
    1.9266   -6.5337    0.0000 C   0  0  0  0  0  0  0  0  0  0  0  0
    4.1044   -6.1986    0.0000 C   0  0  0  0  0  0  0  0  0  0  0  0
    2.0103   -4.1044    0.0000 C   0  0  0  0  0  0  0  0  0  0  0  0
    1.2565   -5.2772    0.0000 C   0  0  0  0  0  0  0  0  0  0  0  0
    1.2565   -6.1148    0.0000 C   0  0  0  0  0  0  0  0  0  0  0  0
    6.1986  -12.4809    0.0000 C   0  0  0  0  0  0  0  0  0  0  0  0
    4.1044   -5.3609    0.0000 C   0  0  0  0  0  0  0  0  0  0  0  0
    1.3402   -2.8480    0.0000 C   0  0  0  0  0  0  0  0  0  0  0  0
    0.6701   -2.4292    0.0000 C   0  0  0  0  0  0  0  0  0  0  0  0
    0.0000   -1.1727    0.0000 C   0  0  0  0  0  0  0  0  0  0  0  0
    1.4240   -1.2565    0.0000 C   0  0  0  0  0  0  0  0  0  0  0  0
    0.0838   -0.3351    0.0000 C   0  0  0  0  0  0  0  0  0  0  0  0
    1.5077   -0.4188    0.0000 C   0  0  0  0  0  0  0  0  0  0  0  0
  1 19  1  0  0  0  0
  1 29  1  0  0  0  0
  2 20  1  0  0  0  0
  2 49  1  0  0  0  0
  3 28  2  0  0  0  0
  4 32  2  0  0  0  0
  5 46  2  0  0  0  0
  6 55  1  0  0  0  0
  6 56  1  0  0  0  0
  7 18  1  0  0  0  0
  7 28  1  0  0  0  0
  8 17  1  0  0  0  0
  8 28  1  0  0  0  0
  9 33  1  0  0  0  0
  9 34  1  0  0  0  0
  9 45  1  0  0  0  0
 10 29  2  0  0  0  0
 10 33  1  0  0  0  0
 11 33  2  0  0  0  0
 11 43  1  0  0  0  0
 12 32  1  0  0  0  0
 13 46  1  0  0  0  0
 13 51  1  0  0  0  0
 14 52  1  0  0  0  0
 14 53  1  0  0  0  0
 14 54  1  0  0  0  0
 15 16  2  0  0  0  0
 15 17  1  0  0  0  0
 15 30  1  0  0  0  0
 16 19  1  0  0  0  0
 16 31  1  0  0  0  0
 17 26  2  0  0  0  0
 18 20  1  0  0  0  0
 18 23  2  0  0  0  0
 19 27  2  0  0  0  0
 20 21  2  0  0  0  0
 21 24  1  0  0  0  0
 21 32  1  0  0  0  0
 22 23  1  0  0  0  0
 22 24  2  0  0  0  0
 22 25  1  0  0  0  0
 25 40  1  0  0  0  0
 25 41  1  0  0  0  0
 25 42  1  0  0  0  0
 26 27  1  0  0  0  0
 29 37  1  0  0  0  0
 30 35  2  0  0  0  0
 31 36  2  0  0  0  0
 34 38  2  0  0  0  0
 34 44  1  0  0  0  0
 35 36  1  0  0  0  0
 37 43  2  0  0  0  0
 38 39  1  0  0  0  0
 39 46  1  0  0  0  0
 39 47  2  0  0  0  0
 44 48  2  0  0  0  0
 45 50  3  0  0  0  0
 47 48  1  0  0  0  0
 51 52  1  0  0  0  0
 53 55  1  0  0  0  0
 54 56  1  0  0  0  0
M  END
> <PUBCHEM_COMPOUND_ID_TYPE>
0

> <PUBCHEM_TOTAL_CHARGE>
0

> <PUBCHEM_SUBSTANCE_ID>
310929247

> <PUBCHEM_SUBSTANCE_VERSION>
1

> <PUBCHEM_EXT_DATASOURCE_NAME>
4488

> <PUBCHEM_EXT_DATASOURCE_REGID>
SCHEMBL16106411

> <PUBCHEM_SUBSTANCE_COMMENT>
InChI=1S/C42H44N8O6/c1-6-50(29-11-9-10-27(24-29)39(52)44-18-19-49-20-22-55-23-21-49)40-45-17-16-36(48-40)56-35-15-14-33(30-12-7-8-13-31(30)35)46-41(53)47-34-26-28(42(2,3)4)25-32(38(43)51)37(34)54-5/h1,7-17,24-26H,18-23H2,2-5H3,(H2,43,51)(H,44,52)(H2,46,47,53)
InChIKey=OACQSHFQAZFCNK-UHFFFAOYSA-N

> <PUBCHEM_SUBSTANCE_SYNONYM>
SCHEMBL16106411

> <PUBCHEM_XREF_EXT_ID>
SCHEMBL16106411

> <PUBCHEM_EXT_DATASOURCE_URL>
https://www.surechembl.org/

> <PUBCHEM_EXT_SUBSTANCE_URL>
https://www.surechembl.org/chemical/SCHEMBL16106411

> <PUBCHEM_CID_ASSOCIATIONS>
117598680  1

> <PUBCHEM_COORDINATE_TYPE>
1
3

$$$$
