310940540
  -OEChem-07211613022D

 35 40  0     0  0  0  0  0  0999 V2000
    2.0484   -0.1508    0.0000 O   0  0  0  0  0  0  0  0  0  0  0  0
   -2.1581   -0.3152    0.0000 O   0  0  0  0  0  0  0  0  0  0  0  0
    2.1170    1.3291    0.0000 O   0  0  0  0  0  0  0  0  0  0  0  0
   -3.4735   -2.2471    0.0000 O   0  0  0  0  0  0  0  0  0  0  0  0
    0.8837    0.5071    0.0000 N   0  0  0  0  0  0  0  0  0  0  0  0
    0.7193   -1.9593    0.0000 N   0  0  0  0  0  0  0  0  0  0  0  0
    2.9117   -1.6169    0.0000 N   0  0  0  0  0  0  0  0  0  0  0  0
   -3.0625   -2.9597    0.0000 N   0  0  0  0  0  0  0  0  0  0  0  0
    3.0625   -2.9460    0.0000 N   0  0  0  0  0  0  0  0  0  0  0  0
    0.7193   -0.3289    0.0000 C   0  0  0  0  0  0  0  0  0  0  0  0
    1.4456   -0.7399    0.0000 C   0  0  0  0  0  0  0  0  0  0  0  0
    0.0069   -0.7536    0.0000 C   0  0  0  0  0  0  0  0  0  0  0  0
    0.0069   -1.5620    0.0000 C   0  0  0  0  0  0  0  0  0  0  0  0
    1.4319   -1.5757    0.0000 C   0  0  0  0  0  0  0  0  0  0  0  0
    1.6922    0.5618    0.0000 C   0  0  0  0  0  0  0  0  0  0  0  0
   -1.4319   -1.5894    0.0000 C   0  0  0  0  0  0  0  0  0  0  0  0
   -0.7193   -0.3563    0.0000 C   0  0  0  0  0  0  0  0  0  0  0  0
   -1.4182   -0.7536    0.0000 C   0  0  0  0  0  0  0  0  0  0  0  0
   -0.7193   -1.9867    0.0000 C   0  0  0  0  0  0  0  0  0  0  0  0
    2.1581   -1.9867    0.0000 C   0  0  0  0  0  0  0  0  0  0  0  0
   -2.1444   -2.0005    0.0000 C   0  0  0  0  0  0  0  0  0  0  0  0
    0.1987    0.9454    0.0000 C   0  0  0  0  0  0  0  0  0  0  0  0
   -2.9117   -1.6443    0.0000 C   0  0  0  0  0  0  0  0  0  0  0  0
   -2.2539   -2.7953    0.0000 C   0  0  0  0  0  0  0  0  0  0  0  0
    2.2539   -2.7953    0.0000 C   0  0  0  0  0  0  0  0  0  0  0  0
    0.2672    1.7813    0.0000 C   0  0  0  0  0  0  0  0  0  0  0  0
    3.4735   -2.2471    0.0000 C   0  0  0  0  0  0  0  0  0  0  0  0
    1.0071    2.1238    0.0000 C   0  0  0  0  0  0  0  0  0  0  0  0
   -0.4043    2.2334    0.0000 C   0  0  0  0  0  0  0  0  0  0  0  0
   -3.0762   -0.8358    0.0000 C   0  0  0  0  0  0  0  0  0  0  0  0
   -1.6100   -3.3981    0.0000 C   0  0  0  0  0  0  0  0  0  0  0  0
   -2.1444    0.4933    0.0000 C   0  0  0  0  0  0  0  0  0  0  0  0
    1.0756    2.9460    0.0000 C   0  0  0  0  0  0  0  0  0  0  0  0
   -0.3494    3.0556    0.0000 C   0  0  0  0  0  0  0  0  0  0  0  0
    0.3768    3.3981    0.0000 C   0  0  0  0  0  0  0  0  0  0  0  0
  1 11  1  0  0  0  0
  1 15  1  0  0  0  0
  2 18  1  0  0  0  0
  2 32  1  0  0  0  0
  3 15  2  0  0  0  0
  4  8  1  0  0  0  0
  4 23  1  0  0  0  0
  5 10  1  0  0  0  0
  5 15  1  0  0  0  0
  5 22  1  0  0  0  0
  6 13  1  0  0  0  0
  6 14  2  0  0  0  0
  7 20  1  0  0  0  0
  7 27  2  0  0  0  0
  8 24  2  0  0  0  0
  9 25  1  0  0  0  0
  9 27  1  0  0  0  0
 10 11  2  0  0  0  0
 10 12  1  0  0  0  0
 11 14  1  0  0  0  0
 12 13  1  0  0  0  0
 12 17  2  0  0  0  0
 13 19  2  0  0  0  0
 14 20  1  0  0  0  0
 16 18  2  0  0  0  0
 16 19  1  0  0  0  0
 16 21  1  0  0  0  0
 17 18  1  0  0  0  0
 20 25  2  0  0  0  0
 21 23  2  0  0  0  0
 21 24  1  0  0  0  0
 22 26  1  0  0  0  0
 23 30  1  0  0  0  0
 24 31  1  0  0  0  0
 26 28  2  0  0  0  0
 26 29  1  0  0  0  0
 28 33  1  0  0  0  0
 29 34  2  0  0  0  0
 33 35  2  0  0  0  0
 34 35  1  0  0  0  0
M  END
> <PUBCHEM_COMPOUND_ID_TYPE>
0

> <PUBCHEM_TOTAL_CHARGE>
0

> <PUBCHEM_SUBSTANCE_ID>
310940540

> <PUBCHEM_SUBSTANCE_VERSION>
1

> <PUBCHEM_EXT_DATASOURCE_NAME>
4488

> <PUBCHEM_EXT_DATASOURCE_REGID>
SCHEMBL16118494

> <PUBCHEM_SUBSTANCE_COMMENT>
InChI=1S/C26H21N5O4/c1-14-22(15(2)35-30-14)18-9-19-17(10-21(18)33-3)24-25(23(29-19)20-11-27-13-28-20)34-26(32)31(24)12-16-7-5-4-6-8-16/h4-11,13H,12H2,1-3H3,(H,27,28)
InChIKey=RRHLJROBAPWQJI-UHFFFAOYSA-N

> <PUBCHEM_SUBSTANCE_SYNONYM>
SCHEMBL16118494

> <PUBCHEM_XREF_EXT_ID>
SCHEMBL16118494

> <PUBCHEM_EXT_DATASOURCE_URL>
https://www.surechembl.org/

> <PUBCHEM_EXT_SUBSTANCE_URL>
https://www.surechembl.org/chemical/SCHEMBL16118494

> <PUBCHEM_CID_ASSOCIATIONS>
86303269  1

> <PUBCHEM_COORDINATE_TYPE>
1
3

$$$$
