310938017
  -OEChem-07211613022D

 15 16  0     0  0  0  0  0  0999 V2000
    4.5552   -2.9001    0.0000 O   0  0  0  0  0  0  0  0  0  0  0  0
    4.5552   -1.4880    0.0000 O   0  0  0  0  0  0  0  0  0  0  0  0
    2.8546   -2.8546    0.0000 N   0  0  0  0  0  0  0  0  0  0  0  0
    0.0911   -0.3644    0.0000 N   0  0  0  0  0  0  0  0  0  0  0  0
    2.0802   -1.7917    0.0000 C   0  0  0  0  0  0  0  0  0  0  0  0
    1.4121   -1.3058    0.0000 C   0  0  0  0  0  0  0  0  0  0  0  0
    3.3405   -2.1865    0.0000 C   0  0  0  0  0  0  0  0  0  0  0  0
    2.8546   -1.5184    0.0000 C   0  0  0  0  0  0  0  0  0  0  0  0
    2.0802   -2.5965    0.0000 C   0  0  0  0  0  0  0  0  0  0  0  0
    0.6529   -1.6702    0.0000 C   0  0  0  0  0  0  0  0  0  0  0  0
    4.1604   -2.1865    0.0000 C   0  0  0  0  0  0  0  0  0  0  0  0
    1.5032   -0.5162    0.0000 C   0  0  0  0  0  0  0  0  0  0  0  0
    0.0000   -1.1540    0.0000 C   0  0  0  0  0  0  0  0  0  0  0  0
    0.8351    0.0000    0.0000 C   0  0  0  0  0  0  0  0  0  0  0  0
    0.5618   -2.4902    0.0000 C   0  0  0  0  0  0  0  0  0  0  0  0
  1 11  2  0  0  0  0
  2 11  1  0  0  0  0
  3  7  1  0  0  0  0
  3  9  1  0  0  0  0
  4 13  1  0  0  0  0
  4 14  2  0  0  0  0
  5  6  1  0  0  0  0
  5  8  1  0  0  0  0
  5  9  2  0  0  0  0
  6 10  1  0  0  0  0
  6 12  2  0  0  0  0
  7  8  2  0  0  0  0
  7 11  1  0  0  0  0
 10 13  2  0  0  0  0
 10 15  1  0  0  0  0
 12 14  1  0  0  0  0
M  END
> <PUBCHEM_COMPOUND_ID_TYPE>
0

> <PUBCHEM_TOTAL_CHARGE>
0

> <PUBCHEM_SUBSTANCE_ID>
310938017

> <PUBCHEM_SUBSTANCE_VERSION>
1

> <PUBCHEM_EXT_DATASOURCE_NAME>
4488

> <PUBCHEM_EXT_DATASOURCE_REGID>
SCHEMBL16115857

> <PUBCHEM_SUBSTANCE_COMMENT>
InChI=1S/C11H10N2O2/c1-7-5-12-3-2-9(7)8-4-10(11(14)15)13-6-8/h2-6,13H,1H3,(H,14,15)
InChIKey=JDMPZJYXWYWWGN-UHFFFAOYSA-N

> <PUBCHEM_SUBSTANCE_SYNONYM>
SCHEMBL16115857

> <PUBCHEM_XREF_EXT_ID>
SCHEMBL16115857

> <PUBCHEM_EXT_DATASOURCE_URL>
https://www.surechembl.org/

> <PUBCHEM_EXT_SUBSTANCE_URL>
https://www.surechembl.org/chemical/SCHEMBL16115857

> <PUBCHEM_CID_ASSOCIATIONS>
117605610  1

> <PUBCHEM_COORDINATE_TYPE>
1
3

$$$$
