310937077
  -OEChem-07211613022D

 28 31  0     0  0  0  0  0  0999 V2000
    0.7675   -0.8665    0.0000 F   0  0  0  0  0  0  0  0  0  0  0  0
    1.4854   -2.1043    0.0000 F   0  0  0  0  0  0  0  0  0  0  0  0
    1.4606   -0.4456    0.0000 F   0  0  0  0  0  0  0  0  0  0  0  0
    3.5649    0.0000    0.0000 O   0  0  0  0  0  0  0  0  0  0  0  0
    2.1291   -4.9513    0.0000 O   0  0  0  0  0  0  0  0  0  0  0  0
    2.8965   -1.2378    0.0000 N   0  0  0  0  0  0  0  0  0  0  0  0
    5.0999   -2.3519    0.0000 N   0  0  0  0  0  0  0  0  0  0  0  0
    2.8965   -3.7135    0.0000 N   0  0  0  0  0  0  0  0  0  0  0  0
    5.5702   -1.6587    0.0000 N   0  0  0  0  0  0  0  0  0  0  0  0
    0.7179   -4.9513    0.0000 N   0  0  0  0  0  0  0  0  0  0  0  0
    2.8965   -2.0795    0.0000 C   0  0  0  0  0  0  0  0  0  0  0  0
    3.5897   -2.5004    0.0000 C   0  0  0  0  0  0  0  0  0  0  0  0
    4.3076   -2.0795    0.0000 C   0  0  0  0  0  0  0  0  0  0  0  0
    4.3076   -1.2378    0.0000 C   0  0  0  0  0  0  0  0  0  0  0  0
    3.5897   -0.8169    0.0000 C   0  0  0  0  0  0  0  0  0  0  0  0
    2.1538   -2.5004    0.0000 C   0  0  0  0  0  0  0  0  0  0  0  0
    2.1538   -3.2926    0.0000 C   0  0  0  0  0  0  0  0  0  0  0  0
    3.5897   -3.2926    0.0000 C   0  0  0  0  0  0  0  0  0  0  0  0
    2.1785   -0.8417    0.0000 C   0  0  0  0  0  0  0  0  0  0  0  0
    5.0999   -0.9903    0.0000 C   0  0  0  0  0  0  0  0  0  0  0  0
    1.4359   -3.7135    0.0000 C   0  0  0  0  0  0  0  0  0  0  0  0
    1.4606   -1.2626    0.0000 C   0  0  0  0  0  0  0  0  0  0  0  0
    1.4111   -4.5304    0.0000 C   0  0  0  0  0  0  0  0  0  0  0  0
    0.7179   -3.3174    0.0000 C   0  0  0  0  0  0  0  0  0  0  0  0
    0.0248   -3.7135    0.0000 C   0  0  0  0  0  0  0  0  0  0  0  0
    0.0000   -4.5552    0.0000 C   0  0  0  0  0  0  0  0  0  0  0  0
    2.8470   -4.5552    0.0000 C   0  0  0  0  0  0  0  0  0  0  0  0
    3.0203   -3.8868    0.0000 C   0  0  0  0  0  0  0  0  0  0  0  0
  1 22  1  0  0  0  0
  2 22  1  0  0  0  0
  3 22  1  0  0  0  0
  4 15  2  0  0  0  0
  5 23  1  0  0  0  0
  5 27  1  0  0  0  0
  6 11  1  0  0  0  0
  6 15  1  0  0  0  0
  6 19  1  0  0  0  0
  7  9  1  0  0  0  0
  7 13  1  0  0  0  0
  8 17  2  0  0  0  0
  8 18  1  0  0  0  0
  9 20  2  0  0  0  0
 10 23  1  0  0  0  0
 10 26  2  0  0  0  0
 11 12  1  0  0  0  0
 11 16  2  0  0  0  0
 12 13  1  0  0  0  0
 12 18  2  0  0  0  0
 13 14  2  0  0  0  0
 14 15  1  0  0  0  0
 14 20  1  0  0  0  0
 16 17  1  0  0  0  0
 17 21  1  0  0  0  0
 19 22  1  0  0  0  0
 21 23  2  0  0  0  0
 21 24  1  0  0  0  0
 24 25  2  0  0  0  0
 25 26  1  0  0  0  0
 27 28  1  0  0  0  0
M  END
> <PUBCHEM_COMPOUND_ID_TYPE>
0

> <PUBCHEM_TOTAL_CHARGE>
0

> <PUBCHEM_SUBSTANCE_ID>
310937077

> <PUBCHEM_SUBSTANCE_VERSION>
1

> <PUBCHEM_EXT_DATASOURCE_NAME>
4488

> <PUBCHEM_EXT_DATASOURCE_REGID>
SCHEMBL16114790

> <PUBCHEM_SUBSTANCE_COMMENT>
InChI=1S/C18H14F3N5O2/c1-2-28-16-10(4-3-5-22-16)13-6-14-11(7-23-13)15-12(8-24-25-15)17(27)26(14)9-18(19,20)21/h3-8H,2,9H2,1H3,(H,24,25)
InChIKey=GEPKNEJNYCTBBN-UHFFFAOYSA-N

> <PUBCHEM_SUBSTANCE_SYNONYM>
SCHEMBL16114790

> <PUBCHEM_XREF_EXT_ID>
SCHEMBL16114790

> <PUBCHEM_EXT_DATASOURCE_URL>
https://www.surechembl.org/

> <PUBCHEM_EXT_SUBSTANCE_URL>
https://www.surechembl.org/chemical/SCHEMBL16114790

> <PUBCHEM_CID_ASSOCIATIONS>
86298892  1

> <PUBCHEM_COORDINATE_TYPE>
1
3

$$$$
