310944675
  -OEChem-07211613022D

 30 32  0     0  0  0  0  0  0999 V2000
   -3.7599   -1.4729    0.0000 Cl  0  0  0  0  0  0  0  0  0  0  0  0
   -3.5983    0.1803    0.0000 O   0  0  0  0  0  0  0  0  0  0  0  0
   -0.7271   -1.4729    0.0000 O   0  0  0  0  0  0  0  0  0  0  0  0
    0.7023    1.0130    0.0000 O   0  0  0  0  0  0  0  0  0  0  0  0
    4.2944   -1.0627    0.0000 O   0  0  0  0  0  0  0  0  0  0  0  0
   -0.7147    0.1927    0.0000 N   0  0  0  0  0  0  0  0  0  0  0  0
    1.4481   -0.2300    0.0000 N   0  0  0  0  0  0  0  0  0  0  0  0
    2.8774   -1.0503    0.0000 N   0  0  0  0  0  0  0  0  0  0  0  0
   -1.4356   -0.2175    0.0000 C   0  0  0  0  0  0  0  0  0  0  0  0
   -2.8650   -0.2300    0.0000 C   0  0  0  0  0  0  0  0  0  0  0  0
   -1.4356   -1.0503    0.0000 C   0  0  0  0  0  0  0  0  0  0  0  0
   -2.8650   -1.0503    0.0000 C   0  0  0  0  0  0  0  0  0  0  0  0
   -2.1441    0.1803    0.0000 C   0  0  0  0  0  0  0  0  0  0  0  0
   -2.1441   -1.4605    0.0000 C   0  0  0  0  0  0  0  0  0  0  0  0
    0.7147    0.1803    0.0000 C   0  0  0  0  0  0  0  0  0  0  0  0
    0.0187   -0.2175    0.0000 C   0  0  0  0  0  0  0  0  0  0  0  0
   -3.5859    1.0254    0.0000 C   0  0  0  0  0  0  0  0  0  0  0  0
    2.1565    0.1803    0.0000 C   0  0  0  0  0  0  0  0  0  0  0  0
    1.4356   -1.0503    0.0000 C   0  0  0  0  0  0  0  0  0  0  0  0
    2.8774   -0.2300    0.0000 C   0  0  0  0  0  0  0  0  0  0  0  0
    2.1689   -1.4605    0.0000 C   0  0  0  0  0  0  0  0  0  0  0  0
    3.5734   -1.4729    0.0000 C   0  0  0  0  0  0  0  0  0  0  0  0
   -2.8650    1.4356    0.0000 C   0  0  0  0  0  0  0  0  0  0  0  0
   -4.2944    1.4356    0.0000 C   0  0  0  0  0  0  0  0  0  0  0  0
   -0.7147   -2.3056    0.0000 C   0  0  0  0  0  0  0  0  0  0  0  0
    3.5859   -2.3056    0.0000 C   0  0  0  0  0  0  0  0  0  0  0  0
   -2.8650    2.2559    0.0000 C   0  0  0  0  0  0  0  0  0  0  0  0
   -4.2944    2.2559    0.0000 C   0  0  0  0  0  0  0  0  0  0  0  0
   -3.5734    2.6661    0.0000 C   0  0  0  0  0  0  0  0  0  0  0  0
    2.8526   -2.6661    0.0000 C   0  0  0  0  0  0  0  0  0  0  0  0
  1 12  1  0  0  0  0
  2 10  1  0  0  0  0
  2 17  1  0  0  0  0
  3 11  1  0  0  0  0
  3 25  1  0  0  0  0
  4 15  2  0  0  0  0
  5 22  2  0  0  0  0
  6  9  1  0  0  0  0
  6 16  1  0  0  0  0
  7 15  1  0  0  0  0
  7 18  1  0  0  0  0
  7 19  1  0  0  0  0
  8 20  1  0  0  0  0
  8 21  1  0  0  0  0
  8 22  1  0  0  0  0
  9 11  1  0  0  0  0
  9 13  2  0  0  0  0
 10 12  2  0  0  0  0
 10 13  1  0  0  0  0
 11 14  2  0  0  0  0
 12 14  1  0  0  0  0
 15 16  1  0  0  0  0
 17 23  2  0  0  0  0
 17 24  1  0  0  0  0
 18 20  1  0  0  0  0
 19 21  1  0  0  0  0
 22 26  1  0  0  0  0
 23 27  1  0  0  0  0
 24 28  2  0  0  0  0
 26 30  2  0  0  0  0
 27 29  2  0  0  0  0
 28 29  1  0  0  0  0
M  END
> <PUBCHEM_COMPOUND_ID_TYPE>
0

> <PUBCHEM_TOTAL_CHARGE>
0

> <PUBCHEM_SUBSTANCE_ID>
310944675

> <PUBCHEM_SUBSTANCE_VERSION>
1

> <PUBCHEM_EXT_DATASOURCE_NAME>
4488

> <PUBCHEM_EXT_DATASOURCE_REGID>
SCHEMBL16122754

> <PUBCHEM_SUBSTANCE_COMMENT>
InChI=1S/C22H24ClN3O4/c1-3-21(27)25-9-11-26(12-10-25)22(28)15-24-18-14-19(17(23)13-20(18)29-2)30-16-7-5-4-6-8-16/h3-8,13-14,24H,1,9-12,15H2,2H3
InChIKey=ULRBUXSGPNEORS-UHFFFAOYSA-N

> <PUBCHEM_SUBSTANCE_SYNONYM>
SCHEMBL16122754

> <PUBCHEM_XREF_EXT_ID>
SCHEMBL16122754

> <PUBCHEM_EXT_DATASOURCE_URL>
https://www.surechembl.org/

> <PUBCHEM_EXT_SUBSTANCE_URL>
https://www.surechembl.org/chemical/SCHEMBL16122754

> <PUBCHEM_CID_ASSOCIATIONS>
117610901  1

> <PUBCHEM_COORDINATE_TYPE>
1
3

$$$$
