310946357
  -OEChem-07211613022D

 21 22  0     0  0  0  0  0  0999 V2000
    0.0189   -0.7283    0.0000 I   0  0  0  0  0  0  0  0  0  0  0  0
   -1.4100   -3.2033    0.0000 I   0  0  0  0  0  0  0  0  0  0  0  0
   -1.4100   -1.5533    0.0000 O   0  0  0  0  0  0  0  0  0  0  0  0
   -4.2679   -3.2033    0.0000 O   0  0  0  0  0  0  0  0  0  0  0  0
    2.8768   -0.7283    0.0000 O   0  0  0  0  0  0  0  0  0  0  0  0
   -0.6955   -1.9658    0.0000 C   0  0  0  0  0  0  0  0  0  0  0  0
    0.0189   -1.5533    0.0000 C   0  0  0  0  0  0  0  0  0  0  0  0
    0.7334   -1.9658    0.0000 C   0  0  0  0  0  0  0  0  0  0  0  0
   -0.6955   -2.7908    0.0000 C   0  0  0  0  0  0  0  0  0  0  0  0
   -2.1245   -1.9658    0.0000 C   0  0  0  0  0  0  0  0  0  0  0  0
    0.7334   -2.7908    0.0000 C   0  0  0  0  0  0  0  0  0  0  0  0
    0.0189   -3.2033    0.0000 C   0  0  0  0  0  0  0  0  0  0  0  0
    1.4479   -1.5533    0.0000 C   0  0  0  0  0  0  0  0  0  0  0  0
   -2.8390   -1.5533    0.0000 C   0  0  0  0  0  0  0  0  0  0  0  0
   -2.1245   -2.7908    0.0000 C   0  0  0  0  0  0  0  0  0  0  0  0
   -3.5534   -2.7908    0.0000 C   0  0  0  0  0  0  0  0  0  0  0  0
   -3.5534   -1.9658    0.0000 C   0  0  0  0  0  0  0  0  0  0  0  0
   -2.8390   -3.2033    0.0000 C   0  0  0  0  0  0  0  0  0  0  0  0
    2.1623   -1.9658    0.0000 C   0  0  0  0  0  0  0  0  0  0  0  0
    2.8768   -1.5533    0.0000 C   0  0  0  0  0  0  0  0  0  0  0  0
    3.5913   -1.9658    0.0000 C   0  0  0  0  0  0  0  0  0  0  0  0
  1  7  1  0  0  0  0
  2  9  1  0  0  0  0
  3  6  1  0  0  0  0
  3 10  1  0  0  0  0
  4 16  1  0  0  0  0
  5 20  2  0  0  0  0
  6  7  1  0  0  0  0
  6  9  2  0  0  0  0
  7  8  2  0  0  0  0
  8 11  1  0  0  0  0
  8 13  1  0  0  0  0
  9 12  1  0  0  0  0
 10 14  2  0  0  0  0
 10 15  1  0  0  0  0
 11 12  2  0  0  0  0
 13 19  1  0  0  0  0
 14 17  1  0  0  0  0
 15 18  2  0  0  0  0
 16 17  2  0  0  0  0
 16 18  1  0  0  0  0
 19 20  1  0  0  0  0
 20 21  1  0  0  0  0
M  END
> <PUBCHEM_COMPOUND_ID_TYPE>
0

> <PUBCHEM_TOTAL_CHARGE>
0

> <PUBCHEM_SUBSTANCE_ID>
310946357

> <PUBCHEM_SUBSTANCE_VERSION>
1

> <PUBCHEM_EXT_DATASOURCE_NAME>
4488

> <PUBCHEM_EXT_DATASOURCE_REGID>
SCHEMBL16124476

> <PUBCHEM_SUBSTANCE_COMMENT>
InChI=1S/C16H14I2O3/c1-10(19)2-3-11-4-9-14(17)16(15(11)18)21-13-7-5-12(20)6-8-13/h4-9,20H,2-3H2,1H3
InChIKey=WQBQZBRMQQUZOH-UHFFFAOYSA-N

> <PUBCHEM_SUBSTANCE_SYNONYM>
SCHEMBL16124476

> <PUBCHEM_XREF_EXT_ID>
SCHEMBL16124476

> <PUBCHEM_EXT_DATASOURCE_URL>
https://www.surechembl.org/

> <PUBCHEM_EXT_SUBSTANCE_URL>
https://www.surechembl.org/chemical/SCHEMBL16124476

> <PUBCHEM_CID_ASSOCIATIONS>
117612280  1

> <PUBCHEM_COORDINATE_TYPE>
1
3

$$$$
