310948910
  -OEChem-07211613022D

 51 53  0     1  0  0  0  0  0999 V2000
    4.4867   -2.4750    0.0000 Cl  0  0  0  0  0  0  0  0  0  0  0  0
    4.4741    1.6500    0.0000 P   0  0  3  0  0  0  0  0  0  0  0  0
    7.4060   -0.6600    0.0000 F   0  0  0  0  0  0  0  0  0  0  0  0
    7.4060    1.4977    0.0000 O   0  0  0  0  0  0  0  0  0  0  0  0
    5.8956    0.0000    0.0000 O   0  0  0  0  0  0  0  0  0  0  0  0
    5.1848    1.2439    0.0000 O   0  0  0  0  0  0  0  0  0  0  0  0
    8.7133    2.2592    0.0000 O   0  0  0  0  0  0  0  0  0  0  0  0
    4.4741    0.8250    0.0000 O   0  0  0  0  0  0  0  0  0  0  0  0
    4.4741    2.4750    0.0000 O   0  0  0  0  0  0  0  0  0  0  0  0
    0.8948    0.4189    0.0000 O   0  0  0  0  0  0  0  0  0  0  0  0
    8.7259    0.8250    0.0000 N   0  0  0  0  0  0  0  0  0  0  0  0
    9.9698    1.5485    0.0000 N   0  0  0  0  0  0  0  0  0  0  0  0
    3.7759    1.2439    0.0000 N   0  0  0  0  0  0  0  0  0  0  0  0
   11.3279    0.8250    0.0000 N   0  0  0  0  0  0  0  0  0  0  0  0
    1.6310    1.6500    0.0000 N   0  0  0  0  0  0  0  0  0  0  0  0
    7.4060    0.1650    0.0000 C   0  0  3  0  0  0  0  0  0  0  0  0
    7.8883    0.8377    0.0000 C   0  0  3  0  0  0  0  0  0  0  0  0
    6.6317    0.4189    0.0000 C   0  0  3  0  0  0  0  0  0  0  0  0
    6.6317    1.2439    0.0000 C   0  0  3  0  0  0  0  0  0  0  0  0
    9.1448    1.5358    0.0000 C   0  0  0  0  0  0  0  0  0  0  0  0
    8.1294   -0.2538    0.0000 C   0  0  0  0  0  0  0  0  0  0  0  0
    5.9082    1.6500    0.0000 C   0  0  0  0  0  0  0  0  0  0  0  0
    9.1321    0.1142    0.0000 C   0  0  0  0  0  0  0  0  0  0  0  0
   10.3759    0.8250    0.0000 C   0  0  0  0  0  0  0  0  0  0  0  0
    9.9571    0.1142    0.0000 C   0  0  0  0  0  0  0  0  0  0  0  0
    4.4867    0.0000    0.0000 C   0  0  0  0  0  0  0  0  0  0  0  0
    3.0398    1.6500    0.0000 C   0  0  0  0  0  0  0  0  0  0  0  0
    3.7759   -0.4061    0.0000 C   0  0  0  0  0  0  0  0  0  0  0  0
    5.1975   -0.4061    0.0000 C   0  0  0  0  0  0  0  0  0  0  0  0
    3.7759   -1.2311    0.0000 C   0  0  0  0  0  0  0  0  0  0  0  0
    5.1975   -1.2311    0.0000 C   0  0  0  0  0  0  0  0  0  0  0  0
    4.4867   -1.6373    0.0000 C   0  0  0  0  0  0  0  0  0  0  0  0
    2.3544    1.2439    0.0000 C   0  0  0  0  0  0  0  0  0  0  0  0
    0.9075    1.2565    0.0000 C   0  0  0  0  0  0  0  0  0  0  0  0
    0.1840    1.6500    0.0000 C   0  0  0  0  0  0  0  0  0  0  0  0
   -0.5140    1.2439    0.0000 C   0  0  0  0  0  0  0  0  0  0  0  0
   -1.2375    1.6500    0.0000 C   0  0  0  0  0  0  0  0  0  0  0  0
   -1.9355    1.2439    0.0000 C   0  0  0  0  0  0  0  0  0  0  0  0
   -2.6717    1.6500    0.0000 C   0  0  0  0  0  0  0  0  0  0  0  0
   -3.3698    1.2439    0.0000 C   0  0  0  0  0  0  0  0  0  0  0  0
   -4.0933    1.6500    0.0000 C   0  0  0  0  0  0  0  0  0  0  0  0
   -4.7913    1.2439    0.0000 C   0  0  0  0  0  0  0  0  0  0  0  0
   -5.6418    1.2439    0.0000 C   0  0  0  0  0  0  0  0  0  0  0  0
   -6.3525    1.6500    0.0000 C   0  0  0  0  0  0  0  0  0  0  0  0
   -7.0506    1.2439    0.0000 C   0  0  0  0  0  0  0  0  0  0  0  0
   -7.7867    1.6500    0.0000 C   0  0  0  0  0  0  0  0  0  0  0  0
   -8.4721    1.2439    0.0000 C   0  0  0  0  0  0  0  0  0  0  0  0
   -9.2082    1.6500    0.0000 C   0  0  0  0  0  0  0  0  0  0  0  0
   -9.9063    1.2439    0.0000 C   0  0  0  0  0  0  0  0  0  0  0  0
  -10.6424    1.6500    0.0000 C   0  0  0  0  0  0  0  0  0  0  0  0
  -11.3279    1.2311    0.0000 C   0  0  0  0  0  0  0  0  0  0  0  0
  1 32  1  0  0  0  0
  2  6  1  0  0  0  0
  2  8  1  0  0  0  0
  2  9  2  0  0  0  0
  2 13  1  0  0  0  0
 16  3  1  6  0  0  0
 17  4  1  1  0  0  0
  4 19  1  0  0  0  0
 18  5  1  6  0  0  0
  6 22  1  0  0  0  0
  7 20  2  0  0  0  0
  8 26  1  0  0  0  0
 10 34  2  0  0  0  0
 11 17  1  0  0  0  0
 11 20  1  0  0  0  0
 11 23  1  0  0  0  0
 12 20  1  0  0  0  0
 12 24  2  0  0  0  0
 13 27  1  0  0  0  0
 14 24  1  0  0  0  0
 15 33  1  0  0  0  0
 15 34  1  0  0  0  0
 16 17  1  0  0  0  0
 16 18  1  0  0  0  0
 16 21  1  1  0  0  0
 18 19  1  0  0  0  0
 19 22  1  1  0  0  0
 23 25  2  0  0  0  0
 24 25  1  0  0  0  0
 26 28  2  0  0  0  0
 26 29  1  0  0  0  0
 27 33  1  0  0  0  0
 28 30  1  0  0  0  0
 29 31  2  0  0  0  0
 30 32  2  0  0  0  0
 31 32  1  0  0  0  0
 34 35  1  0  0  0  0
 35 36  1  0  0  0  0
 36 37  1  0  0  0  0
 37 38  1  0  0  0  0
 38 39  1  0  0  0  0
 39 40  1  0  0  0  0
 40 41  1  0  0  0  0
 41 42  1  0  0  0  0
 42 43  2  0  0  0  0
 43 44  1  0  0  0  0
 44 45  1  0  0  0  0
 45 46  1  0  0  0  0
 46 47  1  0  0  0  0
 47 48  1  0  0  0  0
 48 49  1  0  0  0  0
 49 50  1  0  0  0  0
 50 51  1  0  0  0  0
M  END
> <PUBCHEM_COMPOUND_ID_TYPE>
0

> <PUBCHEM_TOTAL_CHARGE>
0

> <PUBCHEM_SUBSTANCE_ID>
310948910

> <PUBCHEM_SUBSTANCE_VERSION>
1

> <PUBCHEM_EXT_DATASOURCE_NAME>
4488

> <PUBCHEM_EXT_DATASOURCE_REGID>
SCHEMBL16127095

> <PUBCHEM_SUBSTANCE_COMMENT>
InChI=1S/C36H56ClFN5O7P/c1-3-4-5-6-7-8-9-10-11-12-13-14-15-16-17-18-32(44)40-24-25-41-51(47,50-29-21-19-28(37)20-22-29)48-27-30-33(45)36(2,38)34(49-30)43-26-23-31(39)42-35(43)46/h10-11,19-23,26,30,33-34,45H,3-9,12-18,24-25,27H2,1-2H3,(H,40,44)(H,41,47)(H2,39,42,46)/b11-10-/t30-,33-,34-,36-,51?/m1/s1
InChIKey=CBRHDYUUEVRJEC-MSWHJPBGSA-N

> <PUBCHEM_SUBSTANCE_SYNONYM>
SCHEMBL16127095

> <PUBCHEM_XREF_EXT_ID>
SCHEMBL16127095

> <PUBCHEM_EXT_DATASOURCE_URL>
https://www.surechembl.org/

> <PUBCHEM_EXT_SUBSTANCE_URL>
https://www.surechembl.org/chemical/SCHEMBL16127095

> <PUBCHEM_CID_ASSOCIATIONS>
86271540  1

> <PUBCHEM_COORDINATE_TYPE>
1
3

> <PUBCHEM_BONDANNOTATIONS>
16  21  5
19  22  5
16  3  6
17  4  5
18  5  6

$$$$
