310940030
  -OEChem-07211613022D

 18 18  0     1  0  0  0  0  0999 V2000
    1.0097    8.5794    0.0000 O   0  0  0  0  0  0  0  0  0  0  0  0
    0.2952    9.8169    0.0000 O   0  0  0  0  0  0  0  0  0  0  0  0
   -2.5626    6.5169    0.0000 O   0  0  0  0  0  0  0  0  0  0  0  0
   -0.4192    8.5794    0.0000 N   0  0  0  0  0  0  0  0  0  0  0  0
   -1.8482    7.7544    0.0000 N   0  0  0  0  0  0  0  0  0  0  0  0
   -1.1337    7.3419    0.0000 C   0  0  3  0  0  0  0  0  0  0  0  0
    0.2952    8.9919    0.0000 C   0  0  0  0  0  0  0  0  0  0  0  0
   -0.4192    7.7544    0.0000 C   0  0  0  0  0  0  0  0  0  0  0  0
   -1.1337    8.9919    0.0000 C   0  0  0  0  0  0  0  0  0  0  0  0
   -1.8482    8.5794    0.0000 C   0  0  0  0  0  0  0  0  0  0  0  0
   -2.5626    7.3419    0.0000 C   0  0  0  0  0  0  0  0  0  0  0  0
    1.7242    8.9919    0.0000 C   0  0  0  0  0  0  0  0  0  0  0  0
   -1.1337    6.5169    0.0000 C   0  0  0  0  0  0  0  0  0  0  0  0
   -3.2771    7.7544    0.0000 C   0  0  0  0  0  0  0  0  0  0  0  0
    2.4387    9.4044    0.0000 C   0  0  0  0  0  0  0  0  0  0  0  0
    1.7242    9.8169    0.0000 C   0  0  0  0  0  0  0  0  0  0  0  0
    2.4387    8.5794    0.0000 C   0  0  0  0  0  0  0  0  0  0  0  0
   -3.9916    7.3419    0.0000 C   0  0  0  0  0  0  0  0  0  0  0  0
  1  7  1  0  0  0  0
  1 12  1  0  0  0  0
  2  7  2  0  0  0  0
  3 11  2  0  0  0  0
  4  7  1  0  0  0  0
  4  8  1  0  0  0  0
  4  9  1  0  0  0  0
  5  6  1  0  0  0  0
  5 10  1  0  0  0  0
  5 11  1  0  0  0  0
  6  8  1  0  0  0  0
  6 13  1  6  0  0  0
  9 10  1  0  0  0  0
 11 14  1  0  0  0  0
 12 15  1  0  0  0  0
 12 16  1  0  0  0  0
 12 17  1  0  0  0  0
 14 18  2  0  0  0  0
M  END
> <PUBCHEM_COMPOUND_ID_TYPE>
0

> <PUBCHEM_TOTAL_CHARGE>
0

> <PUBCHEM_SUBSTANCE_ID>
310940030

> <PUBCHEM_SUBSTANCE_VERSION>
1

> <PUBCHEM_EXT_DATASOURCE_NAME>
4488

> <PUBCHEM_EXT_DATASOURCE_REGID>
SCHEMBL16117960

> <PUBCHEM_SUBSTANCE_COMMENT>
InChI=1S/C13H22N2O3/c1-6-11(16)15-8-7-14(9-10(15)2)12(17)18-13(3,4)5/h6,10H,1,7-9H2,2-5H3/t10-/m0/s1
InChIKey=JJOGKKADPPKJSW-JTQLQIEISA-N

> <PUBCHEM_SUBSTANCE_SYNONYM>
SCHEMBL16117960

> <PUBCHEM_XREF_EXT_ID>
SCHEMBL16117960

> <PUBCHEM_EXT_DATASOURCE_URL>
https://www.surechembl.org/

> <PUBCHEM_EXT_SUBSTANCE_URL>
https://www.surechembl.org/chemical/SCHEMBL16117960

> <PUBCHEM_CID_ASSOCIATIONS>
117607183  1

> <PUBCHEM_COORDINATE_TYPE>
1
3

> <PUBCHEM_BONDANNOTATIONS>
6  13  6

$$$$
