310935316
  -OEChem-07211613022D

 24 27  0     0  0  0  0  0  0999 V2000
    1.4972    0.0000    0.0000 O   0  0  0  0  0  0  0  0  0  0  0  0
    0.0000   -0.6627    0.0000 O   0  0  0  0  0  0  0  0  0  0  0  0
    2.0862   -2.1108    0.0000 N   0  0  0  0  0  0  0  0  0  0  0  0
    2.8716   -2.3807    0.0000 N   0  0  0  0  0  0  0  0  0  0  0  0
    4.1724   -1.6935    0.0000 N   0  0  0  0  0  0  0  0  0  0  0  0
    5.8169   -1.6935    0.0000 N   0  0  0  0  0  0  0  0  0  0  0  0
    0.6627   -1.1536    0.0000 N   0  0  0  0  0  0  0  0  0  0  0  0
    2.0862   -1.3008    0.0000 C   0  0  0  0  0  0  0  0  0  0  0  0
    3.3380   -1.6935    0.0000 C   0  0  0  0  0  0  0  0  0  0  0  0
    2.8716   -1.0308    0.0000 C   0  0  0  0  0  0  0  0  0  0  0  0
    1.4235   -2.5771    0.0000 C   0  0  0  0  0  0  0  0  0  0  0  0
    1.4235   -0.8100    0.0000 C   0  0  0  0  0  0  0  0  0  0  0  0
    6.6268   -1.6935    0.0000 C   0  0  0  0  0  0  0  0  0  0  0  0
    4.5651   -2.4053    0.0000 C   0  0  0  0  0  0  0  0  0  0  0  0
    4.5651   -0.9818    0.0000 C   0  0  0  0  0  0  0  0  0  0  0  0
    5.3997   -0.9818    0.0000 C   0  0  0  0  0  0  0  0  0  0  0  0
    5.3997   -2.4053    0.0000 C   0  0  0  0  0  0  0  0  0  0  0  0
    1.4972   -3.4116    0.0000 C   0  0  0  0  0  0  0  0  0  0  0  0
    0.6627   -2.2581    0.0000 C   0  0  0  0  0  0  0  0  0  0  0  0
    7.3386   -1.3008    0.0000 C   0  0  0  0  0  0  0  0  0  0  0  0
    7.3631   -2.1108    0.0000 C   0  0  0  0  0  0  0  0  0  0  0  0
    0.8345   -3.8779    0.0000 C   0  0  0  0  0  0  0  0  0  0  0  0
    0.0000   -2.7243    0.0000 C   0  0  0  0  0  0  0  0  0  0  0  0
    0.0736   -3.5589    0.0000 C   0  0  0  0  0  0  0  0  0  0  0  0
  1 12  2  0  0  0  0
  2  7  1  0  0  0  0
  3  4  1  0  0  0  0
  3  8  1  0  0  0  0
  3 11  1  0  0  0  0
  4  9  2  0  0  0  0
  5  9  1  0  0  0  0
  5 14  1  0  0  0  0
  5 15  1  0  0  0  0
  6 13  1  0  0  0  0
  6 16  1  0  0  0  0
  6 17  1  0  0  0  0
  7 12  1  0  0  0  0
  8 10  2  0  0  0  0
  8 12  1  0  0  0  0
  9 10  1  0  0  0  0
 11 18  2  0  0  0  0
 11 19  1  0  0  0  0
 13 20  1  0  0  0  0
 13 21  1  0  0  0  0
 14 17  1  0  0  0  0
 15 16  1  0  0  0  0
 18 22  1  0  0  0  0
 19 23  2  0  0  0  0
 20 21  1  0  0  0  0
 22 24  2  0  0  0  0
 23 24  1  0  0  0  0
M  END
> <PUBCHEM_COMPOUND_ID_TYPE>
0

> <PUBCHEM_TOTAL_CHARGE>
0

> <PUBCHEM_SUBSTANCE_ID>
310935316

> <PUBCHEM_SUBSTANCE_VERSION>
1

> <PUBCHEM_EXT_DATASOURCE_NAME>
4488

> <PUBCHEM_EXT_DATASOURCE_REGID>
SCHEMBL16112850

> <PUBCHEM_SUBSTANCE_COMMENT>
InChI=1S/C17H21N5O2/c23-17(19-24)15-12-16(18-22(15)14-4-2-1-3-5-14)21-10-8-20(9-11-21)13-6-7-13/h1-5,12-13,24H,6-11H2,(H,19,23)
InChIKey=IQEWPPQEXBJZCE-UHFFFAOYSA-N

> <PUBCHEM_SUBSTANCE_SYNONYM>
SCHEMBL16112850

> <PUBCHEM_XREF_EXT_ID>
SCHEMBL16112850

> <PUBCHEM_EXT_DATASOURCE_URL>
https://www.surechembl.org/

> <PUBCHEM_EXT_SUBSTANCE_URL>
https://www.surechembl.org/chemical/SCHEMBL16112850

> <PUBCHEM_CID_ASSOCIATIONS>
86292055  1

> <PUBCHEM_COORDINATE_TYPE>
1
3

$$$$
