310930608
  -OEChem-07211613022D

 21 22  0     1  0  0  0  0  0999 V2000
   -1.0325    1.7739    0.0000 Cl  0  0  0  0  0  0  0  0  0  0  0  0
    4.9841    1.8413    0.0000 O   0  0  0  0  0  0  0  0  0  0  0  0
    4.2697    0.6038    0.0000 O   0  0  0  0  0  0  0  0  0  0  0  0
    1.5059    3.6732    0.0000 O   0  0  0  0  0  0  0  0  0  0  0  0
    3.5551    1.8413    0.0000 N   0  0  0  0  0  0  0  0  0  0  0  0
    2.2495    2.1189    0.0000 C   0  0  3  0  0  0  0  0  0  0  0  0
    2.6620    2.8333    0.0000 C   0  0  3  0  0  0  0  0  0  0  0  0
    2.8015    1.5058    0.0000 C   0  0  0  0  0  0  0  0  0  0  0  0
    1.4290    2.0327    0.0000 C   0  0  0  0  0  0  0  0  0  0  0  0
    3.4689    2.6618    0.0000 C   0  0  0  0  0  0  0  0  0  0  0  0
    4.2697    1.4288    0.0000 C   0  0  0  0  0  0  0  0  0  0  0  0
    1.0934    1.2789    0.0000 C   0  0  0  0  0  0  0  0  0  0  0  0
    0.9440    2.7001    0.0000 C   0  0  0  0  0  0  0  0  0  0  0  0
    2.3264    3.5870    0.0000 C   0  0  0  0  0  0  0  0  0  0  0  0
    5.6986    1.4288    0.0000 C   0  0  0  0  0  0  0  0  0  0  0  0
    0.2729    1.1927    0.0000 C   0  0  0  0  0  0  0  0  0  0  0  0
    0.1235    2.6138    0.0000 C   0  0  0  0  0  0  0  0  0  0  0  0
   -0.2120    1.8602    0.0000 C   0  0  0  0  0  0  0  0  0  0  0  0
    5.6986    0.6038    0.0000 C   0  0  0  0  0  0  0  0  0  0  0  0
    6.4131    1.0163    0.0000 C   0  0  0  0  0  0  0  0  0  0  0  0
    6.4131    1.8413    0.0000 C   0  0  0  0  0  0  0  0  0  0  0  0
  1 18  1  0  0  0  0
  2 11  1  0  0  0  0
  2 15  1  0  0  0  0
  3 11  2  0  0  0  0
  4 14  1  0  0  0  0
  5  8  1  0  0  0  0
  5 10  1  0  0  0  0
  5 11  1  0  0  0  0
  6  7  1  0  0  0  0
  6  8  1  6  0  0  0
  6  9  1  0  0  0  0
  7 10  1  0  0  0  0
  7 14  1  1  0  0  0
  9 12  2  0  0  0  0
  9 13  1  0  0  0  0
 12 16  1  0  0  0  0
 13 17  2  0  0  0  0
 15 19  1  0  0  0  0
 15 20  1  0  0  0  0
 15 21  1  0  0  0  0
 16 18  2  0  0  0  0
 17 18  1  0  0  0  0
M  END
> <PUBCHEM_COMPOUND_ID_TYPE>
0

> <PUBCHEM_TOTAL_CHARGE>
0

> <PUBCHEM_SUBSTANCE_ID>
310930608

> <PUBCHEM_SUBSTANCE_VERSION>
1

> <PUBCHEM_EXT_DATASOURCE_NAME>
4488

> <PUBCHEM_EXT_DATASOURCE_REGID>
SCHEMBL16107905

> <PUBCHEM_SUBSTANCE_COMMENT>
InChI=1S/C16H22ClNO3/c1-16(2,3)21-15(20)18-8-12(10-19)14(9-18)11-4-6-13(17)7-5-11/h4-7,12,14,19H,8-10H2,1-3H3/t12-,14-/m1/s1
InChIKey=VNZXUJLWKOKVCE-TZMCWYRMSA-N

> <PUBCHEM_SUBSTANCE_SYNONYM>
SCHEMBL16107905

> <PUBCHEM_XREF_EXT_ID>
SCHEMBL16107905

> <PUBCHEM_EXT_DATASOURCE_URL>
https://www.surechembl.org/

> <PUBCHEM_EXT_SUBSTANCE_URL>
https://www.surechembl.org/chemical/SCHEMBL16107905

> <PUBCHEM_CID_ASSOCIATIONS>
98006643  1

> <PUBCHEM_COORDINATE_TYPE>
1
3

> <PUBCHEM_BONDANNOTATIONS>
6  8  6
7  14  5

$$$$
