310943984
  -OEChem-07211613022D

 29 32  0     0  0  0  0  0  0999 V2000
    1.4517    0.5939    0.0000 F   0  0  0  0  0  0  0  0  0  0  0  0
    0.0000    0.5939    0.0000 N   0  0  0  0  0  0  0  0  0  0  0  0
   -0.7259   -0.6434    0.0000 N   0  0  0  0  0  0  0  0  0  0  0  0
   -1.4682    0.6104    0.0000 N   0  0  0  0  0  0  0  0  0  0  0  0
    3.6293    0.0990    0.0000 N   0  0  0  0  0  0  0  0  0  0  0  0
    1.4353   -3.5138    0.0000 N   0  0  0  0  0  0  0  0  0  0  0  0
   -0.0165   -0.1980    0.0000 C   0  0  0  0  0  0  0  0  0  0  0  0
    0.7259   -0.6269    0.0000 C   0  0  0  0  0  0  0  0  0  0  0  0
    1.4517   -0.2310    0.0000 C   0  0  0  0  0  0  0  0  0  0  0  0
   -0.7424    1.0558    0.0000 C   0  0  0  0  0  0  0  0  0  0  0  0
   -1.4847   -0.1980    0.0000 C   0  0  0  0  0  0  0  0  0  0  0  0
    2.1776   -0.6269    0.0000 C   0  0  0  0  0  0  0  0  0  0  0  0
    0.7259   -1.4517    0.0000 C   0  0  0  0  0  0  0  0  0  0  0  0
    1.4353   -1.8642    0.0000 C   0  0  0  0  0  0  0  0  0  0  0  0
   -0.7259    1.8972    0.0000 C   0  0  0  0  0  0  0  0  0  0  0  0
   -2.1941   -0.6269    0.0000 C   0  0  0  0  0  0  0  0  0  0  0  0
    2.1611   -1.4517    0.0000 C   0  0  0  0  0  0  0  0  0  0  0  0
    2.9035   -0.2475    0.0000 C   0  0  0  0  0  0  0  0  0  0  0  0
    0.0000    2.2931    0.0000 C   0  0  0  0  0  0  0  0  0  0  0  0
   -2.9200   -0.2145    0.0000 C   0  0  0  0  0  0  0  0  0  0  0  0
   -1.4353    2.2931    0.0000 C   0  0  0  0  0  0  0  0  0  0  0  0
   -2.1941   -1.4517    0.0000 C   0  0  0  0  0  0  0  0  0  0  0  0
    1.4353   -2.7055    0.0000 C   0  0  0  0  0  0  0  0  0  0  0  0
    0.0000    3.1015    0.0000 C   0  0  0  0  0  0  0  0  0  0  0  0
   -3.6293   -0.6269    0.0000 C   0  0  0  0  0  0  0  0  0  0  0  0
   -1.4517    3.0849    0.0000 C   0  0  0  0  0  0  0  0  0  0  0  0
   -2.8705   -1.8312    0.0000 C   0  0  0  0  0  0  0  0  0  0  0  0
   -0.6929    3.5138    0.0000 C   0  0  0  0  0  0  0  0  0  0  0  0
   -3.6293   -1.4187    0.0000 C   0  0  0  0  0  0  0  0  0  0  0  0
  1  9  1  0  0  0  0
  2  7  2  0  0  0  0
  2 10  1  0  0  0  0
  3  7  1  0  0  0  0
  3 11  2  0  0  0  0
  4 10  2  0  0  0  0
  4 11  1  0  0  0  0
  5 18  3  0  0  0  0
  6 23  3  0  0  0  0
  7  8  1  0  0  0  0
  8  9  1  0  0  0  0
  8 13  2  0  0  0  0
  9 12  2  0  0  0  0
 10 15  1  0  0  0  0
 11 16  1  0  0  0  0
 12 17  1  0  0  0  0
 12 18  1  0  0  0  0
 13 14  1  0  0  0  0
 14 17  2  0  0  0  0
 14 23  1  0  0  0  0
 15 19  2  0  0  0  0
 15 21  1  0  0  0  0
 16 20  2  0  0  0  0
 16 22  1  0  0  0  0
 19 24  1  0  0  0  0
 20 25  1  0  0  0  0
 21 26  2  0  0  0  0
 22 27  2  0  0  0  0
 24 28  2  0  0  0  0
 25 29  2  0  0  0  0
 26 28  1  0  0  0  0
 27 29  1  0  0  0  0
M  END
> <PUBCHEM_COMPOUND_ID_TYPE>
0

> <PUBCHEM_TOTAL_CHARGE>
0

> <PUBCHEM_SUBSTANCE_ID>
310943984

> <PUBCHEM_SUBSTANCE_VERSION>
1

> <PUBCHEM_EXT_DATASOURCE_NAME>
4488

> <PUBCHEM_EXT_DATASOURCE_REGID>
SCHEMBL16122055

> <PUBCHEM_SUBSTANCE_COMMENT>
InChI=1S/C23H12FN5/c24-20-18(14-26)11-15(13-25)12-19(20)23-28-21(16-7-3-1-4-8-16)27-22(29-23)17-9-5-2-6-10-17/h1-12H
InChIKey=DRHRZLJXYXJWSB-UHFFFAOYSA-N

> <PUBCHEM_SUBSTANCE_SYNONYM>
SCHEMBL16122055

> <PUBCHEM_XREF_EXT_ID>
SCHEMBL16122055

> <PUBCHEM_EXT_DATASOURCE_URL>
https://www.surechembl.org/

> <PUBCHEM_EXT_SUBSTANCE_URL>
https://www.surechembl.org/chemical/SCHEMBL16122055

> <PUBCHEM_CID_ASSOCIATIONS>
117610290  1

> <PUBCHEM_COORDINATE_TYPE>
1
3

$$$$
