310943699
  -OEChem-07211613022D

 38 43  0     0  0  0  0  0  0999 V2000
   -2.8908   -0.0683    0.0000 O   0  0  0  0  0  0  0  0  0  0  0  0
   -4.3234    2.4047    0.0000 O   0  0  0  0  0  0  0  0  0  0  0  0
    1.4241   -0.0683    0.0000 O   0  0  0  0  0  0  0  0  0  0  0  0
   -2.8908   -2.5412    0.0000 O   0  0  0  0  0  0  0  0  0  0  0  0
   -2.8908    1.5861    0.0000 N   0  0  0  0  0  0  0  0  0  0  0  0
   -1.4411   -0.0683    0.0000 N   0  0  0  0  0  0  0  0  0  0  0  0
    0.7248    2.8140    0.0000 N   0  0  0  0  0  0  0  0  0  0  0  0
    2.1574    1.1768    0.0000 N   0  0  0  0  0  0  0  0  0  0  0  0
    4.3234   -0.8868    0.0000 N   0  0  0  0  0  0  0  0  0  0  0  0
   -2.1574    1.1768    0.0000 C   0  0  0  0  0  0  0  0  0  0  0  0
   -0.7248    1.1768    0.0000 C   0  0  0  0  0  0  0  0  0  0  0  0
   -0.0256    1.5861    0.0000 C   0  0  0  0  0  0  0  0  0  0  0  0
   -2.1745    0.3411    0.0000 C   0  0  0  0  0  0  0  0  0  0  0  0
   -1.4582    1.5691    0.0000 C   0  0  0  0  0  0  0  0  0  0  0  0
   -0.0086    2.4047    0.0000 C   0  0  0  0  0  0  0  0  0  0  0  0
   -0.7418    0.3240    0.0000 C   0  0  0  0  0  0  0  0  0  0  0  0
    0.7248    1.1768    0.0000 C   0  0  0  0  0  0  0  0  0  0  0  0
    1.4411    1.5861    0.0000 C   0  0  0  0  0  0  0  0  0  0  0  0
    3.5901   -1.2962    0.0000 C   0  0  0  0  0  0  0  0  0  0  0  0
    3.5559   -2.1489    0.0000 C   0  0  0  0  0  0  0  0  0  0  0  0
    2.8737   -0.0683    0.0000 C   0  0  0  0  0  0  0  0  0  0  0  0
    1.4411    2.4047    0.0000 C   0  0  0  0  0  0  0  0  0  0  0  0
    2.1574    0.3581    0.0000 C   0  0  0  0  0  0  0  0  0  0  0  0
   -2.8908    2.4047    0.0000 C   0  0  0  0  0  0  0  0  0  0  0  0
   -3.5901    1.1768    0.0000 C   0  0  0  0  0  0  0  0  0  0  0  0
   -2.8908   -0.8868    0.0000 C   0  0  0  0  0  0  0  0  0  0  0  0
    2.8737   -0.8868    0.0000 C   0  0  0  0  0  0  0  0  0  0  0  0
    2.7884   -2.1319    0.0000 C   0  0  0  0  0  0  0  0  0  0  0  0
    3.1807   -2.8140    0.0000 C   0  0  0  0  0  0  0  0  0  0  0  0
    3.5901    0.3411    0.0000 C   0  0  0  0  0  0  0  0  0  0  0  0
   -0.7418    2.7970    0.0000 C   0  0  0  0  0  0  0  0  0  0  0  0
   -3.6071    2.8140    0.0000 C   0  0  0  0  0  0  0  0  0  0  0  0
   -4.3234    1.5861    0.0000 C   0  0  0  0  0  0  0  0  0  0  0  0
    4.3063   -0.0683    0.0000 C   0  0  0  0  0  0  0  0  0  0  0  0
   -3.5901   -1.2962    0.0000 C   0  0  0  0  0  0  0  0  0  0  0  0
   -2.1574   -1.3132    0.0000 C   0  0  0  0  0  0  0  0  0  0  0  0
   -3.6071   -2.1319    0.0000 C   0  0  0  0  0  0  0  0  0  0  0  0
   -2.1745   -2.1319    0.0000 C   0  0  0  0  0  0  0  0  0  0  0  0
  1 13  1  0  0  0  0
  1 26  1  0  0  0  0
  2 32  1  0  0  0  0
  2 33  1  0  0  0  0
  3 23  2  0  0  0  0
  4 37  1  0  0  0  0
  4 38  1  0  0  0  0
  5 10  1  0  0  0  0
  5 24  1  0  0  0  0
  5 25  1  0  0  0  0
  6 13  2  0  0  0  0
  6 16  1  0  0  0  0
  7 15  1  0  0  0  0
  7 22  2  0  0  0  0
  8 18  1  0  0  0  0
  8 23  1  0  0  0  0
  9 19  1  0  0  0  0
  9 34  2  0  0  0  0
 10 13  1  0  0  0  0
 10 14  2  0  0  0  0
 11 12  1  0  0  0  0
 11 14  1  0  0  0  0
 11 16  2  0  0  0  0
 12 15  2  0  0  0  0
 12 17  1  0  0  0  0
 15 31  1  0  0  0  0
 17 18  2  0  0  0  0
 18 22  1  0  0  0  0
 19 20  1  0  0  0  0
 19 27  2  0  0  0  0
 20 28  1  0  0  0  0
 20 29  1  0  0  0  0
 21 23  1  0  0  0  0
 21 27  1  0  0  0  0
 21 30  2  0  0  0  0
 24 32  1  0  0  0  0
 25 33  1  0  0  0  0
 26 35  1  0  0  0  0
 26 36  1  0  0  0  0
 28 29  1  0  0  0  0
 30 34  1  0  0  0  0
 35 37  1  0  0  0  0
 36 38  1  0  0  0  0
M  END
> <PUBCHEM_COMPOUND_ID_TYPE>
0

> <PUBCHEM_TOTAL_CHARGE>
0

> <PUBCHEM_SUBSTANCE_ID>
310943699

> <PUBCHEM_SUBSTANCE_VERSION>
1

> <PUBCHEM_EXT_DATASOURCE_NAME>
4488

> <PUBCHEM_EXT_DATASOURCE_REGID>
SCHEMBL16121767

> <PUBCHEM_SUBSTANCE_COMMENT>
InChI=1S/C29H33N5O4/c1-19-25(16-23(18-31-19)33-28(35)21-4-7-30-26(14-21)20-2-3-20)22-15-27(34-8-12-37-13-9-34)29(32-17-22)38-24-5-10-36-11-6-24/h4,7,14-18,20,24H,2-3,5-6,8-13H2,1H3,(H,33,35)
InChIKey=ZRNWYQLYEIAASX-UHFFFAOYSA-N

> <PUBCHEM_SUBSTANCE_SYNONYM>
SCHEMBL16121767

> <PUBCHEM_XREF_EXT_ID>
SCHEMBL16121767

> <PUBCHEM_EXT_DATASOURCE_URL>
https://www.surechembl.org/

> <PUBCHEM_EXT_SUBSTANCE_URL>
https://www.surechembl.org/chemical/SCHEMBL16121767

> <PUBCHEM_CID_ASSOCIATIONS>
117610084  1

> <PUBCHEM_COORDINATE_TYPE>
1
3

$$$$
