310935607
  -OEChem-07211613022D

 30 33  0     1  0  0  0  0  0999 V2000
    3.7451   -0.7103    0.0000 O   0  0  0  0  0  0  0  0  0  0  0  0
    5.7791   -2.8735    0.0000 O   0  0  0  0  0  0  0  0  0  0  0  0
    7.0060   -3.5837    0.0000 O   0  0  0  0  0  0  0  0  0  0  0  0
    3.2931   -5.7468    0.0000 N   0  0  3  0  0  0  0  0  0  0  0  0
    0.8394   -5.7146    0.0000 N   0  0  0  0  0  0  0  0  0  0  0  0
    2.0663   -6.4571    0.0000 N   0  0  0  0  0  0  0  0  0  0  0  0
    2.4860   -1.4528    0.0000 N   0  0  0  0  0  0  0  0  0  0  0  0
    5.7791   -4.2940    0.0000 N   0  0  0  0  0  0  0  0  0  0  0  0
    2.0663   -5.0043    0.0000 C   0  0  0  0  0  0  0  0  0  0  0  0
    1.2591   -5.0043    0.0000 C   0  0  0  0  0  0  0  0  0  0  0  0
    2.4860   -5.7468    0.0000 C   0  0  0  0  0  0  0  0  0  0  0  0
    2.0663   -3.5837    0.0000 C   0  0  0  0  0  0  0  0  0  0  0  0
    0.8394   -4.3263    0.0000 C   0  0  0  0  0  0  0  0  0  0  0  0
    2.4860   -4.3263    0.0000 C   0  0  0  0  0  0  0  0  0  0  0  0
    1.2591   -3.6160    0.0000 C   0  0  0  0  0  0  0  0  0  0  0  0
    2.4860   -2.9057    0.0000 C   0  0  0  0  0  0  0  0  0  0  0  0
    1.2269   -6.4571    0.0000 C   0  0  0  0  0  0  0  0  0  0  0  0
    3.7129   -5.0043    0.0000 C   0  0  0  0  0  0  0  0  0  0  0  0
    3.7129   -6.4248    0.0000 C   0  0  0  0  0  0  0  0  0  0  0  0
    4.5200   -5.0043    0.0000 C   0  0  3  0  0  0  0  0  0  0  0  0
    2.0985   -2.1631    0.0000 C   0  0  0  0  0  0  0  0  0  0  0  0
    3.3254   -2.8735    0.0000 C   0  0  0  0  0  0  0  0  0  0  0  0
    0.0000   -4.3263    0.0000 C   0  0  0  0  0  0  0  0  0  0  0  0
    4.5200   -6.4571    0.0000 C   0  0  0  0  0  0  0  0  0  0  0  0
    4.9397   -5.7468    0.0000 C   0  0  0  0  0  0  0  0  0  0  0  0
    3.3254   -1.4206    0.0000 C   0  0  0  0  0  0  0  0  0  0  0  0
    3.7129   -2.1631    0.0000 C   0  0  0  0  0  0  0  0  0  0  0  0
    4.9397   -4.2940    0.0000 C   0  0  0  0  0  0  0  0  0  0  0  0
    6.1989   -3.5837    0.0000 C   0  0  0  0  0  0  0  0  0  0  0  0
    3.3254    0.0000    0.0000 C   0  0  0  0  0  0  0  0  0  0  0  0
  1 26  1  0  0  0  0
  1 30  1  0  0  0  0
  2 29  2  0  0  0  0
  3 29  1  0  0  0  0
  4 11  1  0  0  0  0
  4 18  1  0  0  0  0
  4 19  1  0  0  0  0
  5 10  2  0  0  0  0
  5 17  1  0  0  0  0
  6 11  1  0  0  0  0
  6 17  2  0  0  0  0
  7 21  1  0  0  0  0
  7 26  2  0  0  0  0
  8 28  1  0  0  0  0
  8 29  1  0  0  0  0
  9 10  1  0  0  0  0
  9 11  2  0  0  0  0
  9 14  1  0  0  0  0
 10 13  1  0  0  0  0
 12 14  2  0  0  0  0
 12 15  1  0  0  0  0
 12 16  1  0  0  0  0
 13 15  2  0  0  0  0
 13 23  1  0  0  0  0
 16 21  2  0  0  0  0
 16 22  1  0  0  0  0
 18 20  1  0  0  0  0
 19 24  1  0  0  0  0
 20 25  1  0  0  0  0
 20 28  1  6  0  0  0
 22 27  2  0  0  0  0
 24 25  1  0  0  0  0
 26 27  1  0  0  0  0
M  END
> <PUBCHEM_COMPOUND_ID_TYPE>
0

> <PUBCHEM_TOTAL_CHARGE>
0

> <PUBCHEM_SUBSTANCE_ID>
310935607

> <PUBCHEM_SUBSTANCE_VERSION>
1

> <PUBCHEM_EXT_DATASOURCE_NAME>
4488

> <PUBCHEM_EXT_DATASOURCE_REGID>
SCHEMBL16113180

> <PUBCHEM_SUBSTANCE_COMMENT>
InChI=1S/C22H25N5O3/c1-14-8-17(16-5-6-19(30-2)23-11-16)9-18-20(14)25-13-26-21(18)27-7-3-4-15(12-27)10-24-22(28)29/h5-6,8-9,11,13,15,24H,3-4,7,10,12H2,1-2H3,(H,28,29)/t15-/m0/s1
InChIKey=FJSQIZYMCNXWTA-HNNXBMFYSA-N

> <PUBCHEM_SUBSTANCE_SYNONYM>
SCHEMBL16113180

> <PUBCHEM_XREF_EXT_ID>
SCHEMBL16113180

> <PUBCHEM_EXT_DATASOURCE_URL>
https://www.surechembl.org/

> <PUBCHEM_EXT_SUBSTANCE_URL>
https://www.surechembl.org/chemical/SCHEMBL16113180

> <PUBCHEM_CID_ASSOCIATIONS>
117603625  1

> <PUBCHEM_COORDINATE_TYPE>
1
3

> <PUBCHEM_BONDANNOTATIONS>
20  28  6

$$$$
