310947164
  -OEChem-07211613022D

 32 37  0     0  0  0  0  0  0999 V2000
   -3.4541   -1.7952    0.0000 O   0  0  0  0  0  0  0  0  0  0  0  0
   -4.6241   -1.1380    0.0000 O   0  0  0  0  0  0  0  0  0  0  0  0
    1.8032    0.4167    0.0000 O   0  0  0  0  0  0  0  0  0  0  0  0
    1.8032    1.7631    0.0000 O   0  0  0  0  0  0  0  0  0  0  0  0
   -1.1299   -0.5931    0.0000 N   0  3  0  0  0  0  0  0  0  0  0  0
   -1.1299    0.2564    0.0000 C   0  0  0  0  0  0  0  0  0  0  0  0
   -1.8673    0.6571    0.0000 C   0  0  0  0  0  0  0  0  0  0  0  0
   -2.5725    0.2404    0.0000 C   0  0  0  0  0  0  0  0  0  0  0  0
   -0.4087    0.6732    0.0000 C   0  0  0  0  0  0  0  0  0  0  0  0
   -2.6046   -0.5770    0.0000 C   0  0  0  0  0  0  0  0  0  0  0  0
   -0.4087    1.4907    0.0000 C   0  0  0  0  0  0  0  0  0  0  0  0
   -3.3098   -0.9937    0.0000 C   0  0  0  0  0  0  0  0  0  0  0  0
   -1.8352   -0.9937    0.0000 C   0  0  0  0  0  0  0  0  0  0  0  0
   -1.8512    1.4907    0.0000 C   0  0  0  0  0  0  0  0  0  0  0  0
   -3.9991   -0.5931    0.0000 C   0  0  0  0  0  0  0  0  0  0  0  0
    0.2805    0.2564    0.0000 C   0  0  0  0  0  0  0  0  0  0  0  0
   -3.3098    0.6412    0.0000 C   0  0  0  0  0  0  0  0  0  0  0  0
    1.0017    0.6732    0.0000 C   0  0  0  0  0  0  0  0  0  0  0  0
   -1.1299    1.8913    0.0000 C   0  0  0  0  0  0  0  0  0  0  0  0
    1.0178    1.4907    0.0000 C   0  0  0  0  0  0  0  0  0  0  0  0
    0.2805    1.8913    0.0000 C   0  0  0  0  0  0  0  0  0  0  0  0
   -3.9991    0.2404    0.0000 C   0  0  0  0  0  0  0  0  0  0  0  0
   -0.3926   -0.9937    0.0000 C   0  0  0  0  0  0  0  0  0  0  0  0
   -4.2876   -1.8913    0.0000 C   0  0  0  0  0  0  0  0  0  0  0  0
    2.2840    1.0739    0.0000 C   0  0  0  0  0  0  0  0  0  0  0  0
    0.2644   -0.5931    0.0000 C   0  0  0  0  0  0  0  0  0  0  0  0
    1.0338   -0.9937    0.0000 C   0  0  0  0  0  0  0  0  0  0  0  0
    1.7230   -0.5931    0.0000 C   0  0  0  0  0  0  0  0  0  0  0  0
    2.4443   -0.9937    0.0000 C   0  0  0  0  0  0  0  0  0  0  0  0
    3.1336   -0.5931    0.0000 C   0  0  0  0  0  0  0  0  0  0  0  0
    3.9029   -0.9937    0.0000 C   0  0  0  0  0  0  0  0  0  0  0  0
    4.6241   -0.6091    0.0000 C   0  0  0  0  0  0  0  0  0  0  0  0
  1 12  1  0  0  0  0
  1 24  1  0  0  0  0
  2 15  1  0  0  0  0
  2 24  1  0  0  0  0
  3 18  1  0  0  0  0
  3 25  1  0  0  0  0
  4 20  1  0  0  0  0
  4 25  1  0  0  0  0
  5  6  1  0  0  0  0
  5 13  2  0  0  0  0
  5 23  1  0  0  0  0
  6  7  2  0  0  0  0
  6  9  1  0  0  0  0
  7  8  1  0  0  0  0
  7 14  1  0  0  0  0
  8 10  1  0  0  0  0
  8 17  2  0  0  0  0
  9 11  2  0  0  0  0
  9 16  1  0  0  0  0
 10 12  2  0  0  0  0
 10 13  1  0  0  0  0
 11 19  1  0  0  0  0
 11 21  1  0  0  0  0
 12 15  1  0  0  0  0
 14 19  1  0  0  0  0
 15 22  2  0  0  0  0
 16 18  2  0  0  0  0
 17 22  1  0  0  0  0
 18 20  1  0  0  0  0
 20 21  2  0  0  0  0
 23 26  1  0  0  0  0
 26 27  1  0  0  0  0
 27 28  1  0  0  0  0
 28 29  1  0  0  0  0
 29 30  1  0  0  0  0
 30 31  1  0  0  0  0
 31 32  1  0  0  0  0
M  CHG  1   5   1
M  END
> <PUBCHEM_COMPOUND_ID_TYPE>
0

> <PUBCHEM_TOTAL_CHARGE>
1

> <PUBCHEM_SUBSTANCE_ID>
310947164

> <PUBCHEM_SUBSTANCE_VERSION>
1

> <PUBCHEM_EXT_DATASOURCE_NAME>
4488

> <PUBCHEM_EXT_DATASOURCE_REGID>
SCHEMBL16125318

> <PUBCHEM_SUBSTANCE_COMMENT>
InChI=1S/C27H30NO4/c1-2-3-4-5-6-7-12-28-15-22-19(10-11-23-27(22)32-17-29-23)20-9-8-18-13-24-25(31-16-30-24)14-21(18)26(20)28/h10-11,13-15H,2-9,12,16-17H2,1H3/q+1
InChIKey=AEWHGIMPCGESSQ-UHFFFAOYSA-N

> <PUBCHEM_SUBSTANCE_SYNONYM>
SCHEMBL16125318

> <PUBCHEM_XREF_EXT_ID>
SCHEMBL16125318

> <PUBCHEM_EXT_DATASOURCE_URL>
https://www.surechembl.org/

> <PUBCHEM_EXT_SUBSTANCE_URL>
https://www.surechembl.org/chemical/SCHEMBL16125318

> <PUBCHEM_CID_ASSOCIATIONS>
117612990  1

> <PUBCHEM_COORDINATE_TYPE>
1
3

$$$$
