310941683
  -OEChem-07211613022D

 13 13  0     0  0  0  0  0  0999 V2000
    1.4398   -1.0435    0.0000 S   0  0  0  0  0  0  0  0  0  0  0  0
   -0.7118    1.0435    0.0000 O   0  0  0  0  0  0  0  0  0  0  0  0
    0.7280    0.2023    0.0000 N   0  0  0  0  0  0  0  0  0  0  0  0
    2.1678    0.2023    0.0000 N   0  0  0  0  0  0  0  0  0  0  0  0
   -0.6795    0.2346    0.0000 C   0  0  0  0  0  0  0  0  0  0  0  0
    0.0000   -0.2023    0.0000 C   0  0  0  0  0  0  0  0  0  0  0  0
   -1.3912   -0.2023    0.0000 C   0  0  0  0  0  0  0  0  0  0  0  0
    0.0000   -1.0273    0.0000 C   0  0  0  0  0  0  0  0  0  0  0  0
   -1.3912   -1.0273    0.0000 C   0  0  0  0  0  0  0  0  0  0  0  0
   -0.6795   -1.4479    0.0000 C   0  0  0  0  0  0  0  0  0  0  0  0
    1.4560   -0.1860    0.0000 C   0  0  0  0  0  0  0  0  0  0  0  0
   -2.1678    0.2184    0.0000 C   0  0  0  0  0  0  0  0  0  0  0  0
   -1.4075    1.4479    0.0000 C   0  0  0  0  0  0  0  0  0  0  0  0
  1 11  2  0  0  0  0
  2  5  1  0  0  0  0
  2 13  1  0  0  0  0
  3  6  1  0  0  0  0
  3 11  1  0  0  0  0
  4 11  1  0  0  0  0
  5  6  2  0  0  0  0
  5  7  1  0  0  0  0
  6  8  1  0  0  0  0
  7  9  2  0  0  0  0
  7 12  1  0  0  0  0
  8 10  2  0  0  0  0
  9 10  1  0  0  0  0
M  END
> <PUBCHEM_COMPOUND_ID_TYPE>
0

> <PUBCHEM_TOTAL_CHARGE>
0

> <PUBCHEM_SUBSTANCE_ID>
310941683

> <PUBCHEM_SUBSTANCE_VERSION>
1

> <PUBCHEM_EXT_DATASOURCE_NAME>
4488

> <PUBCHEM_EXT_DATASOURCE_REGID>
SCHEMBL16119714

> <PUBCHEM_SUBSTANCE_COMMENT>
InChI=1S/C9H12N2OS/c1-6-4-3-5-7(8(6)12-2)11-9(10)13/h3-5H,1-2H3,(H3,10,11,13)
InChIKey=LPKISSCFQPZFKW-UHFFFAOYSA-N

> <PUBCHEM_SUBSTANCE_SYNONYM>
SCHEMBL16119714

> <PUBCHEM_XREF_EXT_ID>
SCHEMBL16119714

> <PUBCHEM_EXT_DATASOURCE_URL>
https://www.surechembl.org/

> <PUBCHEM_EXT_SUBSTANCE_URL>
https://www.surechembl.org/chemical/SCHEMBL16119714

> <PUBCHEM_CID_ASSOCIATIONS>
117608458  1

> <PUBCHEM_COORDINATE_TYPE>
1
3

$$$$
