310936891
  -OEChem-07211613022D

 27 29  0     0  0  0  0  0  0999 V2000
    0.0376   -5.7868    0.0000 F   0  0  0  0  0  0  0  0  0  0  0  0
    0.0000   -7.4401    0.0000 F   0  0  0  0  0  0  0  0  0  0  0  0
    3.6074   -7.1020    0.0000 O   0  0  0  0  0  0  0  0  0  0  0  0
    5.7868    0.0000    0.0000 O   0  0  0  0  0  0  0  0  0  0  0  0
    4.3213   -5.8244    0.0000 N   0  0  0  0  0  0  0  0  0  0  0  0
    5.0353   -2.0667    0.0000 N   0  0  0  0  0  0  0  0  0  0  0  0
    5.7492   -3.3443    0.0000 N   0  0  0  0  0  0  0  0  0  0  0  0
    6.5007   -2.0667    0.0000 N   0  0  0  0  0  0  0  0  0  0  0  0
    2.8934   -5.8244    0.0000 C   0  0  0  0  0  0  0  0  0  0  0  0
    2.1795   -6.2377    0.0000 C   0  0  0  0  0  0  0  0  0  0  0  0
    3.6074   -6.2753    0.0000 C   0  0  0  0  0  0  0  0  0  0  0  0
    3.6074   -4.5843    0.0000 C   0  0  0  0  0  0  0  0  0  0  0  0
    2.8934   -5.0353    0.0000 C   0  0  0  0  0  0  0  0  0  0  0  0
    1.4655   -5.8244    0.0000 C   0  0  0  0  0  0  0  0  0  0  0  0
    0.7516   -6.2001    0.0000 C   0  0  0  0  0  0  0  0  0  0  0  0
    2.1418   -7.0644    0.0000 C   0  0  0  0  0  0  0  0  0  0  0  0
    4.3213   -5.0353    0.0000 C   0  0  0  0  0  0  0  0  0  0  0  0
    3.6074   -3.7576    0.0000 C   0  0  0  0  0  0  0  0  0  0  0  0
    0.7139   -7.0644    0.0000 C   0  0  0  0  0  0  0  0  0  0  0  0
    4.3213   -3.3443    0.0000 C   0  0  0  0  0  0  0  0  0  0  0  0
    1.4279   -7.4778    0.0000 C   0  0  0  0  0  0  0  0  0  0  0  0
    4.3589   -2.4800    0.0000 C   0  0  0  0  0  0  0  0  0  0  0  0
    5.0728   -3.7201    0.0000 C   0  0  0  0  0  0  0  0  0  0  0  0
    5.7868   -2.4800    0.0000 C   0  0  0  0  0  0  0  0  0  0  0  0
    4.3213   -7.5153    0.0000 C   0  0  0  0  0  0  0  0  0  0  0  0
    6.5007   -1.2400    0.0000 C   0  0  0  0  0  0  0  0  0  0  0  0
    5.7868   -0.8267    0.0000 C   0  0  0  0  0  0  0  0  0  0  0  0
  1 15  1  0  0  0  0
  2 19  1  0  0  0  0
  3 11  1  0  0  0  0
  3 25  1  0  0  0  0
  4 27  1  0  0  0  0
  5 11  2  0  0  0  0
  5 17  1  0  0  0  0
  6 22  1  0  0  0  0
  6 24  2  0  0  0  0
  7 23  2  0  0  0  0
  7 24  1  0  0  0  0
  8 24  1  0  0  0  0
  8 26  1  0  0  0  0
  9 10  1  0  0  0  0
  9 11  1  0  0  0  0
  9 13  2  0  0  0  0
 10 14  1  0  0  0  0
 10 16  2  0  0  0  0
 12 13  1  0  0  0  0
 12 17  2  0  0  0  0
 12 18  1  0  0  0  0
 14 15  2  0  0  0  0
 15 19  1  0  0  0  0
 16 21  1  0  0  0  0
 18 20  1  0  0  0  0
 19 21  2  0  0  0  0
 20 22  2  0  0  0  0
 20 23  1  0  0  0  0
 26 27  1  0  0  0  0
M  END
> <PUBCHEM_COMPOUND_ID_TYPE>
0

> <PUBCHEM_TOTAL_CHARGE>
0

> <PUBCHEM_SUBSTANCE_ID>
310936891

> <PUBCHEM_SUBSTANCE_VERSION>
1

> <PUBCHEM_EXT_DATASOURCE_NAME>
4488

> <PUBCHEM_EXT_DATASOURCE_REGID>
SCHEMBL16114589

> <PUBCHEM_SUBSTANCE_COMMENT>
InChI=1S/C19H18F2N4O2/c1-27-18-15(14-2-3-16(20)17(21)8-14)7-12(9-23-18)6-13-10-24-19(25-11-13)22-4-5-26/h2-3,7-11,26H,4-6H2,1H3,(H,22,24,25)
InChIKey=KHWGLFDEIQCWIL-UHFFFAOYSA-N

> <PUBCHEM_SUBSTANCE_SYNONYM>
SCHEMBL16114589

> <PUBCHEM_XREF_EXT_ID>
SCHEMBL16114589

> <PUBCHEM_EXT_DATASOURCE_URL>
https://www.surechembl.org/

> <PUBCHEM_EXT_SUBSTANCE_URL>
https://www.surechembl.org/chemical/SCHEMBL16114589

> <PUBCHEM_CID_ASSOCIATIONS>
117604777  1

> <PUBCHEM_COORDINATE_TYPE>
1
3

$$$$
