310946107
  -OEChem-07211613022D

 41 48  0     0  0  0  0  0  0999 V2000
    2.7203  -15.3157    0.0000 S   0  0  0  0  0  0  0  0  0  0  0  0
    0.4028  -13.8166    0.0000 N   0  0  0  0  0  0  0  0  0  0  0  0
   -2.0541  -15.4170    0.0000 C   0  0  0  0  0  0  0  0  0  0  0  0
   -1.2472  -15.2455    0.0000 C   0  0  0  0  0  0  0  0  0  0  0  0
   -0.8347  -15.9600    0.0000 C   0  0  0  0  0  0  0  0  0  0  0  0
   -2.1404  -16.2375    0.0000 C   0  0  0  0  0  0  0  0  0  0  0  0
   -1.3867  -16.5731    0.0000 C   0  0  0  0  0  0  0  0  0  0  0  0
    1.6403  -14.5310    0.0000 C   0  0  0  0  0  0  0  0  0  0  0  0
   -0.0097  -14.5310    0.0000 C   0  0  0  0  0  0  0  0  0  0  0  0
    1.2278  -13.8166    0.0000 C   0  0  0  0  0  0  0  0  0  0  0  0
   -0.8347  -14.5310    0.0000 C   0  0  0  0  0  0  0  0  0  0  0  0
    1.3854  -15.3157    0.0000 C   0  0  0  0  0  0  0  0  0  0  0  0
    2.4653  -14.5310    0.0000 C   0  0  0  0  0  0  0  0  0  0  0  0
   -0.0097  -15.9600    0.0000 C   0  0  0  0  0  0  0  0  0  0  0  0
    2.0528  -15.8006    0.0000 C   0  0  0  0  0  0  0  0  0  0  0  0
   -0.0097  -13.1021    0.0000 C   0  0  0  0  0  0  0  0  0  0  0  0
    0.4028  -15.2455    0.0000 C   0  0  0  0  0  0  0  0  0  0  0  0
   -2.8078  -16.7225    0.0000 C   0  0  0  0  0  0  0  0  0  0  0  0
   -1.3005  -17.3936    0.0000 C   0  0  0  0  0  0  0  0  0  0  0  0
    1.6403  -13.1021    0.0000 C   0  0  0  0  0  0  0  0  0  0  0  0
   -2.0541  -14.5920    0.0000 C   0  0  0  0  0  0  0  0  0  0  0  0
   -2.8791  -15.4170    0.0000 C   0  0  0  0  0  0  0  0  0  0  0  0
    2.8778  -13.8166    0.0000 C   0  0  0  0  0  0  0  0  0  0  0  0
    0.6317  -15.6512    0.0000 C   0  0  0  0  0  0  0  0  0  0  0  0
    2.4653  -13.1021    0.0000 C   0  0  0  0  0  0  0  0  0  0  0  0
   -2.7216  -17.5429    0.0000 C   0  0  0  0  0  0  0  0  0  0  0  0
   -1.9679  -17.8785    0.0000 C   0  0  0  0  0  0  0  0  0  0  0  0
    1.9666  -16.6211    0.0000 C   0  0  0  0  0  0  0  0  0  0  0  0
    0.4028  -12.3876    0.0000 C   0  0  0  0  0  0  0  0  0  0  0  0
   -0.8347  -13.1021    0.0000 C   0  0  0  0  0  0  0  0  0  0  0  0
    0.5455  -16.4717    0.0000 C   0  0  0  0  0  0  0  0  0  0  0  0
   -0.8347  -11.6732    0.0000 C   0  0  0  0  0  0  0  0  0  0  0  0
    1.2129  -16.9566    0.0000 C   0  0  0  0  0  0  0  0  0  0  0  0
   -0.0097  -11.6732    0.0000 C   0  0  0  0  0  0  0  0  0  0  0  0
   -1.2472  -12.3876    0.0000 C   0  0  0  0  0  0  0  0  0  0  0  0
   -1.2472  -10.9587    0.0000 C   0  0  0  0  0  0  0  0  0  0  0  0
   -0.8347  -10.2442    0.0000 C   0  0  0  0  0  0  0  0  0  0  0  0
   -2.0722  -10.9587    0.0000 C   0  0  0  0  0  0  0  0  0  0  0  0
   -1.2472   -9.5298    0.0000 C   0  0  0  0  0  0  0  0  0  0  0  0
   -2.4847  -10.2442    0.0000 C   0  0  0  0  0  0  0  0  0  0  0  0
   -2.0722   -9.5298    0.0000 C   0  0  0  0  0  0  0  0  0  0  0  0
  1 13  1  0  0  0  0
  1 15  1  0  0  0  0
  2  9  1  0  0  0  0
  2 10  1  0  0  0  0
  2 16  1  0  0  0  0
  3  4  1  0  0  0  0
  3  6  1  0  0  0  0
  3 21  1  0  0  0  0
  3 22  1  0  0  0  0
  4  5  2  0  0  0  0
  4 11  1  0  0  0  0
  5  7  1  0  0  0  0
  5 14  1  0  0  0  0
  6  7  2  0  0  0  0
  6 18  1  0  0  0  0
  7 19  1  0  0  0  0
  8 10  2  0  0  0  0
  8 12  1  0  0  0  0
  8 13  1  0  0  0  0
  9 11  2  0  0  0  0
  9 17  1  0  0  0  0
 10 20  1  0  0  0  0
 12 15  2  0  0  0  0
 12 24  1  0  0  0  0
 13 23  2  0  0  0  0
 14 17  2  0  0  0  0
 15 28  1  0  0  0  0
 16 29  2  0  0  0  0
 16 30  1  0  0  0  0
 18 26  2  0  0  0  0
 19 27  2  0  0  0  0
 20 25  2  0  0  0  0
 23 25  1  0  0  0  0
 24 31  2  0  0  0  0
 26 27  1  0  0  0  0
 28 33  2  0  0  0  0
 29 34  1  0  0  0  0
 30 35  2  0  0  0  0
 31 33  1  0  0  0  0
 32 34  2  0  0  0  0
 32 35  1  0  0  0  0
 32 36  1  0  0  0  0
 36 37  2  0  0  0  0
 36 38  1  0  0  0  0
 37 39  1  0  0  0  0
 38 40  2  0  0  0  0
 39 41  2  0  0  0  0
 40 41  1  0  0  0  0
M  END
> <PUBCHEM_COMPOUND_ID_TYPE>
0

> <PUBCHEM_TOTAL_CHARGE>
0

> <PUBCHEM_SUBSTANCE_ID>
310946107

> <PUBCHEM_SUBSTANCE_VERSION>
1

> <PUBCHEM_EXT_DATASOURCE_NAME>
4488

> <PUBCHEM_EXT_DATASOURCE_REGID>
SCHEMBL16124215

> <PUBCHEM_SUBSTANCE_COMMENT>
InChI=1S/C39H29NS/c1-39(2)33-15-8-6-13-30(33)31-24-23-29(25-34(31)39)40(28-21-19-27(20-22-28)26-11-4-3-5-12-26)35-16-10-18-37-38(35)32-14-7-9-17-36(32)41-37/h3-25H,1-2H3
InChIKey=QYMSKATZERCBJP-UHFFFAOYSA-N

> <PUBCHEM_SUBSTANCE_SYNONYM>
SCHEMBL16124215

> <PUBCHEM_XREF_EXT_ID>
SCHEMBL16124215

> <PUBCHEM_EXT_DATASOURCE_URL>
https://www.surechembl.org/

> <PUBCHEM_EXT_SUBSTANCE_URL>
https://www.surechembl.org/chemical/SCHEMBL16124215

> <PUBCHEM_CID_ASSOCIATIONS>
117612070  1

> <PUBCHEM_COORDINATE_TYPE>
1
3

$$$$
