310947154
  -OEChem-07211613022D

 13 14  0     0  0  0  0  0  0999 V2000
    1.7529    0.8511    0.0000 Br  0  0  0  0  0  0  0  0  0  0  0  0
   -0.5776   -1.2362    0.0000 O   0  0  0  0  0  0  0  0  0  0  0  0
   -1.7529   -0.5472    0.0000 O   0  0  0  0  0  0  0  0  0  0  0  0
    1.7327   -0.8106    0.0000 N   0  0  0  0  0  0  0  0  0  0  0  0
   -0.4155   -0.3648    0.0000 C   0  0  0  0  0  0  0  0  0  0  0  0
    0.2938    0.0405    0.0000 C   0  0  0  0  0  0  0  0  0  0  0  0
   -1.1247    0.0405    0.0000 C   0  0  0  0  0  0  0  0  0  0  0  0
    0.3141    0.8714    0.0000 C   0  0  0  0  0  0  0  0  0  0  0  0
   -1.1044    0.8714    0.0000 C   0  0  0  0  0  0  0  0  0  0  0  0
   -0.4155    1.2565    0.0000 C   0  0  0  0  0  0  0  0  0  0  0  0
   -1.4084   -1.2767    0.0000 C   0  0  0  0  0  0  0  0  0  0  0  0
    1.0437   -0.4053    0.0000 C   0  0  0  0  0  0  0  0  0  0  0  0
    1.0234    1.2767    0.0000 C   0  0  0  0  0  0  0  0  0  0  0  0
  1 13  1  0  0  0  0
  2  5  1  0  0  0  0
  2 11  1  0  0  0  0
  3  7  1  0  0  0  0
  3 11  1  0  0  0  0
  4 12  3  0  0  0  0
  5  6  2  0  0  0  0
  5  7  1  0  0  0  0
  6  8  1  0  0  0  0
  6 12  1  0  0  0  0
  7  9  2  0  0  0  0
  8 10  2  0  0  0  0
  8 13  1  0  0  0  0
  9 10  1  0  0  0  0
M  END
> <PUBCHEM_COMPOUND_ID_TYPE>
0

> <PUBCHEM_TOTAL_CHARGE>
0

> <PUBCHEM_SUBSTANCE_ID>
310947154

> <PUBCHEM_SUBSTANCE_VERSION>
1

> <PUBCHEM_EXT_DATASOURCE_NAME>
4488

> <PUBCHEM_EXT_DATASOURCE_REGID>
SCHEMBL16125308

> <PUBCHEM_SUBSTANCE_COMMENT>
InChI=1S/C9H6BrNO2/c10-3-6-1-2-8-9(7(6)4-11)13-5-12-8/h1-2H,3,5H2
InChIKey=WYGYEONJNOQMAA-UHFFFAOYSA-N

> <PUBCHEM_SUBSTANCE_SYNONYM>
SCHEMBL16125308

> <PUBCHEM_XREF_EXT_ID>
SCHEMBL16125308

> <PUBCHEM_EXT_DATASOURCE_URL>
https://www.surechembl.org/

> <PUBCHEM_EXT_SUBSTANCE_URL>
https://www.surechembl.org/chemical/SCHEMBL16125308

> <PUBCHEM_CID_ASSOCIATIONS>
86191517  1

> <PUBCHEM_COORDINATE_TYPE>
1
3

$$$$
