310930210
  -OEChem-07211613022D

 18 18  0     0  0  0  0  0  0999 V2000
    4.8931   -4.9784    0.0000 O   0  5  0  0  0  0  0  0  0  0  0  0
    3.6698   -5.6896    0.0000 O   0  0  0  0  0  0  0  0  0  0  0  0
    1.2233    0.0000    0.0000 O   0  0  0  0  0  0  0  0  0  0  0  0
    2.4465   -0.7112    0.0000 O   0  0  0  0  0  0  0  0  0  0  0  0
    1.2233   -1.4224    0.0000 N   0  0  0  0  0  0  0  0  0  0  0  0
    4.0965   -4.9784    0.0000 N   0  3  0  0  0  0  0  0  0  0  0  0
    3.6982   -4.2672    0.0000 C   0  0  0  0  0  0  0  0  0  0  0  0
    2.8732   -2.8448    0.0000 C   0  0  0  0  0  0  0  0  0  0  0  0
    4.0965   -3.5560    0.0000 C   0  0  0  0  0  0  0  0  0  0  0  0
    2.8732   -4.2672    0.0000 C   0  0  0  0  0  0  0  0  0  0  0  0
    3.6982   -2.8448    0.0000 C   0  0  0  0  0  0  0  0  0  0  0  0
    2.4465   -3.5560    0.0000 C   0  0  0  0  0  0  0  0  0  0  0  0
    2.4465   -2.1336    0.0000 C   0  0  0  0  0  0  0  0  0  0  0  0
    1.6215   -2.1336    0.0000 C   0  0  0  0  0  0  0  0  0  0  0  0
    1.6215   -0.7112    0.0000 C   0  0  0  0  0  0  0  0  0  0  0  0
    0.3983   -1.4224    0.0000 C   0  0  0  0  0  0  0  0  0  0  0  0
    0.0000   -2.1336    0.0000 C   0  0  0  0  0  0  0  0  0  0  0  0
    0.3983   -2.8448    0.0000 C   0  0  0  0  0  0  0  0  0  0  0  0
  1  6  1  0  0  0  0
  2  6  2  0  0  0  0
  3 15  2  0  0  0  0
  4 15  1  0  0  0  0
  5 14  1  0  0  0  0
  5 15  1  0  0  0  0
  5 16  1  0  0  0  0
  6  7  1  0  0  0  0
  7  9  2  0  0  0  0
  7 10  1  0  0  0  0
  8 11  2  0  0  0  0
  8 12  1  0  0  0  0
  8 13  1  0  0  0  0
  9 11  1  0  0  0  0
 10 12  2  0  0  0  0
 13 14  1  0  0  0  0
 16 17  1  0  0  0  0
 17 18  2  0  0  0  0
M  CHG  2   1  -1   6   1
M  END
> <PUBCHEM_COMPOUND_ID_TYPE>
0

> <PUBCHEM_TOTAL_CHARGE>
0

> <PUBCHEM_SUBSTANCE_ID>
310930210

> <PUBCHEM_SUBSTANCE_VERSION>
1

> <PUBCHEM_EXT_DATASOURCE_NAME>
4488

> <PUBCHEM_EXT_DATASOURCE_REGID>
SCHEMBL16107476

> <PUBCHEM_SUBSTANCE_COMMENT>
InChI=1S/C12H14N2O4/c1-2-8-13(12(15)16)9-7-10-3-5-11(6-4-10)14(17)18/h2-6H,1,7-9H2,(H,15,16)
InChIKey=DYZAKEACCYHNJX-UHFFFAOYSA-N

> <PUBCHEM_SUBSTANCE_SYNONYM>
SCHEMBL16107476

> <PUBCHEM_XREF_EXT_ID>
SCHEMBL16107476

> <PUBCHEM_EXT_DATASOURCE_URL>
https://www.surechembl.org/

> <PUBCHEM_EXT_SUBSTANCE_URL>
https://www.surechembl.org/chemical/SCHEMBL16107476

> <PUBCHEM_CID_ASSOCIATIONS>
117599415  1

> <PUBCHEM_COORDINATE_TYPE>
1
3

$$$$
