310947283
  -OEChem-07211613022D

 37 41  0     1  0  0  0  0  0999 V2000
    6.1704   -2.3045    0.0000 O   0  0  0  0  0  0  0  0  0  0  0  0
    4.7902   -2.6743    0.0000 O   0  0  0  0  0  0  0  0  0  0  0  0
   -1.1691    2.6743    0.0000 O   0  0  0  0  0  0  0  0  0  0  0  0
    1.7589    0.3569    0.0000 N   0  0  0  0  0  0  0  0  0  0  0  0
    2.2438    1.0243    0.0000 N   0  0  0  0  0  0  0  0  0  0  0  0
   -1.8836    1.4368    0.0000 N   0  0  0  0  0  0  0  0  0  0  0  0
    5.1600   -1.2941    0.0000 C   0  0  0  0  0  0  0  0  0  0  0  0
    4.3631   -1.0806    0.0000 C   0  0  0  0  0  0  0  0  0  0  0  0
    5.8745   -0.8816    0.0000 C   0  0  0  0  0  0  0  0  0  0  0  0
    5.1600   -0.4691    0.0000 C   0  0  0  0  0  0  0  0  0  0  0  0
    5.3735   -2.0910    0.0000 C   0  0  0  0  0  0  0  0  0  0  0  0
    0.9743    0.6118    0.0000 C   0  0  0  0  0  0  0  0  0  0  0  0
    0.9743    1.4368    0.0000 C   0  0  0  0  0  0  0  0  0  0  0  0
    1.7589    1.6918    0.0000 C   0  0  0  0  0  0  0  0  0  0  0  0
    3.7797   -1.6639    0.0000 C   0  0  0  0  0  0  0  0  0  0  0  0
    4.1496   -0.2837    0.0000 C   0  0  0  0  0  0  0  0  0  0  0  0
    2.7693   -0.6535    0.0000 C   0  0  0  0  0  0  0  0  0  0  0  0
    1.9724   -0.4400    0.0000 C   0  0  0  0  0  0  0  0  0  0  0  0
    0.2598    1.8493    0.0000 C   0  0  0  0  0  0  0  0  0  0  0  0
   -0.4546    1.4368    0.0000 C   0  0  0  0  0  0  0  0  0  0  0  0
    0.2598    0.1993    0.0000 C   0  0  0  0  0  0  0  0  0  0  0  0
    2.9829   -1.4504    0.0000 C   0  0  0  0  0  0  0  0  0  0  0  0
    3.3527   -0.0701    0.0000 C   0  0  0  0  0  0  0  0  0  0  0  0
   -0.4546    0.6118    0.0000 C   0  0  0  0  0  0  0  0  0  0  0  0
   -1.1691    1.8493    0.0000 C   0  0  0  0  0  0  0  0  0  0  0  0
    2.1714    2.4063    0.0000 C   0  0  0  0  0  0  0  0  0  0  0  0
   -2.5981    1.8493    0.0000 C   0  0  3  0  0  0  0  0  0  0  0  0
   -3.3125    1.4368    0.0000 C   0  0  0  0  0  0  0  0  0  0  0  0
   -4.0270    1.8493    0.0000 C   0  0  0  0  0  0  0  0  0  0  0  0
   -4.7415    1.4368    0.0000 C   0  0  0  0  0  0  0  0  0  0  0  0
   -3.3125    0.6118    0.0000 C   0  0  0  0  0  0  0  0  0  0  0  0
   -2.5981    2.6743    0.0000 C   0  0  0  0  0  0  0  0  0  0  0  0
   -4.7415    0.6118    0.0000 C   0  0  0  0  0  0  0  0  0  0  0  0
   -4.0270    0.1993    0.0000 C   0  0  0  0  0  0  0  0  0  0  0  0
   -5.4559    1.8493    0.0000 C   0  0  0  0  0  0  0  0  0  0  0  0
   -6.1704    1.4368    0.0000 C   0  0  0  0  0  0  0  0  0  0  0  0
   -5.4559    2.6743    0.0000 C   0  0  0  0  0  0  0  0  0  0  0  0
  1 11  2  0  0  0  0
  2 11  1  0  0  0  0
  3 25  2  0  0  0  0
  4  5  1  0  0  0  0
  4 12  1  0  0  0  0
  4 18  1  0  0  0  0
  5 14  2  0  0  0  0
  6 25  1  0  0  0  0
  6 27  1  0  0  0  0
  7  8  1  0  0  0  0
  7  9  1  0  0  0  0
  7 10  1  0  0  0  0
  7 11  1  0  0  0  0
  8 15  2  0  0  0  0
  8 16  1  0  0  0  0
  9 10  1  0  0  0  0
 12 13  1  0  0  0  0
 12 21  2  0  0  0  0
 13 14  1  0  0  0  0
 13 19  2  0  0  0  0
 14 26  1  0  0  0  0
 15 22  1  0  0  0  0
 16 23  2  0  0  0  0
 17 18  1  0  0  0  0
 17 22  2  0  0  0  0
 17 23  1  0  0  0  0
 19 20  1  0  0  0  0
 20 24  2  0  0  0  0
 20 25  1  0  0  0  0
 21 24  1  0  0  0  0
 27 28  1  0  0  0  0
 27 32  1  6  0  0  0
 28 29  2  0  0  0  0
 28 31  1  0  0  0  0
 29 30  1  0  0  0  0
 30 33  2  0  0  0  0
 30 35  1  0  0  0  0
 31 34  2  0  0  0  0
 33 34  1  0  0  0  0
 35 36  1  0  0  0  0
 35 37  1  0  0  0  0
M  END
> <PUBCHEM_COMPOUND_ID_TYPE>
0

> <PUBCHEM_TOTAL_CHARGE>
0

> <PUBCHEM_SUBSTANCE_ID>
310947283

> <PUBCHEM_SUBSTANCE_VERSION>
1

> <PUBCHEM_EXT_DATASOURCE_NAME>
4488

> <PUBCHEM_EXT_DATASOURCE_REGID>
SCHEMBL16125438

> <PUBCHEM_SUBSTANCE_COMMENT>
InChI=1S/C31H33N3O3/c1-19(2)23-6-5-7-24(16-23)20(3)32-29(35)25-10-13-28-27(17-25)21(4)33-34(28)18-22-8-11-26(12-9-22)31(14-15-31)30(36)37/h5-13,16-17,19-20H,14-15,18H2,1-4H3,(H,32,35)(H,36,37)/t20-/m0/s1
InChIKey=MGEDZAUASWKHHJ-FQEVSTJZSA-N

> <PUBCHEM_SUBSTANCE_SYNONYM>
SCHEMBL16125438

> <PUBCHEM_XREF_EXT_ID>
SCHEMBL16125438

> <PUBCHEM_EXT_DATASOURCE_URL>
https://www.surechembl.org/

> <PUBCHEM_EXT_SUBSTANCE_URL>
https://www.surechembl.org/chemical/SCHEMBL16125438

> <PUBCHEM_CID_ASSOCIATIONS>
71578145  1

> <PUBCHEM_COORDINATE_TYPE>
1
3

> <PUBCHEM_BONDANNOTATIONS>
27  32  6

$$$$
