310947416
  -OEChem-07211613022D

 21 23  0     0  0  0  0  0  0999 V2000
    4.5305   -7.4909    0.0000 F   0  0  0  0  0  0  0  0  0  0  0  0
    5.6574   -7.1890    0.0000 F   0  0  0  0  0  0  0  0  0  0  0  0
    5.3555   -6.0620    0.0000 F   0  0  0  0  0  0  0  0  0  0  0  0
    3.9735   -5.5793    0.0000 N   0  0  0  0  0  0  0  0  0  0  0  0
    3.5610   -6.8489    0.0000 N   0  0  0  0  0  0  0  0  0  0  0  0
    2.8936   -6.3640    0.0000 N   0  0  0  0  0  0  0  0  0  0  0  0
    1.9110   -4.8649    0.0000 N   0  0  0  0  0  0  0  0  0  0  0  0
    0.2610   -4.8649    0.0000 N   0  0  0  0  0  0  0  0  0  0  0  0
    4.2285   -6.3640    0.0000 C   0  0  0  0  0  0  0  0  0  0  0  0
    3.1485   -5.5793    0.0000 C   0  0  0  0  0  0  0  0  0  0  0  0
    2.7360   -4.8649    0.0000 C   0  0  0  0  0  0  0  0  0  0  0  0
    4.9430   -6.7765    0.0000 C   0  0  0  0  0  0  0  0  0  0  0  0
    1.4985   -4.1504    0.0000 C   0  0  0  0  0  0  0  0  0  0  0  0
    3.1485   -4.1504    0.0000 C   0  0  0  0  0  0  0  0  0  0  0  0
    0.6735   -4.1504    0.0000 C   0  0  0  0  0  0  0  0  0  0  0  0
    1.9110   -3.4359    0.0000 C   0  0  0  0  0  0  0  0  0  0  0  0
    2.7360   -3.4359    0.0000 C   0  0  0  0  0  0  0  0  0  0  0  0
    0.2610   -3.4359    0.0000 C   0  0  0  0  0  0  0  0  0  0  0  0
   -0.5640   -4.8649    0.0000 C   0  0  0  0  0  0  0  0  0  0  0  0
   -0.5640   -3.4359    0.0000 C   0  0  0  0  0  0  0  0  0  0  0  0
   -0.9765   -4.1504    0.0000 C   0  0  0  0  0  0  0  0  0  0  0  0
  1 12  1  0  0  0  0
  2 12  1  0  0  0  0
  3 12  1  0  0  0  0
  4  9  1  0  0  0  0
  4 10  1  0  0  0  0
  5  6  1  0  0  0  0
  5  9  2  0  0  0  0
  6 10  2  0  0  0  0
  7 11  2  0  0  0  0
  7 13  1  0  0  0  0
  8 15  1  0  0  0  0
  8 19  2  0  0  0  0
  9 12  1  0  0  0  0
 10 11  1  0  0  0  0
 11 14  1  0  0  0  0
 13 15  1  0  0  0  0
 13 16  2  0  0  0  0
 14 17  2  0  0  0  0
 15 18  2  0  0  0  0
 16 17  1  0  0  0  0
 18 20  1  0  0  0  0
 19 21  1  0  0  0  0
 20 21  2  0  0  0  0
M  END
> <PUBCHEM_COMPOUND_ID_TYPE>
0

> <PUBCHEM_TOTAL_CHARGE>
0

> <PUBCHEM_SUBSTANCE_ID>
310947416

> <PUBCHEM_SUBSTANCE_VERSION>
1

> <PUBCHEM_EXT_DATASOURCE_NAME>
4488

> <PUBCHEM_EXT_DATASOURCE_REGID>
SCHEMBL16125573

> <PUBCHEM_SUBSTANCE_COMMENT>
InChI=1S/C13H8F3N5/c14-13(15,16)12-19-11(20-21-12)10-6-3-5-9(18-10)8-4-1-2-7-17-8/h1-7H,(H,19,20,21)
InChIKey=OXWWKWWXEPNGRU-UHFFFAOYSA-N

> <PUBCHEM_SUBSTANCE_SYNONYM>
SCHEMBL16125573

> <PUBCHEM_XREF_EXT_ID>
SCHEMBL16125573

> <PUBCHEM_EXT_DATASOURCE_URL>
https://www.surechembl.org/

> <PUBCHEM_EXT_SUBSTANCE_URL>
https://www.surechembl.org/chemical/SCHEMBL16125573

> <PUBCHEM_CID_ASSOCIATIONS>
101458152  1

> <PUBCHEM_COORDINATE_TYPE>
1
3

$$$$
