310934647
  -OEChem-07211613022D

 16 15  0     0  0  0  0  0  0999 V2000
    3.9039    0.0000    0.0000 O   0  0  0  0  0  0  0  0  0  0  0  0
    1.9520   -0.5230    0.0000 O   0  0  0  0  0  0  0  0  0  0  0  0
    1.0164    0.7145    0.0000 O   0  0  0  0  0  0  0  0  0  0  0  0
    1.0164    2.1434    0.0000 O   0  0  0  0  0  0  0  0  0  0  0  0
    1.4289    2.8579    0.0000 O   0  0  0  0  0  0  0  0  0  0  0  0
    2.6664    3.5724    0.0000 O   0  0  0  0  0  0  0  0  0  0  0  0
    2.6664    0.7145    0.0000 C   0  0  0  0  0  0  0  0  0  0  0  0
    2.2539    1.4289    0.0000 C   0  0  0  0  0  0  0  0  0  0  0  0
    1.4289    1.4289    0.0000 C   0  0  0  0  0  0  0  0  0  0  0  0
    3.0789    0.0000    0.0000 C   0  0  0  0  0  0  0  0  0  0  0  0
    1.9520    0.3020    0.0000 C   0  0  0  0  0  0  0  0  0  0  0  0
    2.6664    2.1434    0.0000 C   0  0  0  0  0  0  0  0  0  0  0  0
    3.3809    1.1270    0.0000 C   0  0  0  0  0  0  0  0  0  0  0  0
    2.2539    2.8579    0.0000 C   0  0  0  0  0  0  0  0  0  0  0  0
    4.3164    0.7145    0.0000 C   0  0  0  0  0  0  0  0  0  0  0  0
    2.6664   -0.9355    0.0000 C   0  0  0  0  0  0  0  0  0  0  0  0
  1 10  1  0  0  0  0
  1 15  1  0  0  0  0
  2 11  1  0  0  0  0
  2 16  1  0  0  0  0
  3  9  2  0  0  0  0
  4  9  1  0  0  0  0
  5 14  2  0  0  0  0
  6 14  1  0  0  0  0
  7  8  1  0  0  0  0
  7 10  1  0  0  0  0
  7 11  1  0  0  0  0
  7 13  1  0  0  0  0
  8  9  1  0  0  0  0
  8 12  2  0  0  0  0
 12 14  1  0  0  0  0
M  END
> <PUBCHEM_COMPOUND_ID_TYPE>
0

> <PUBCHEM_TOTAL_CHARGE>
0

> <PUBCHEM_SUBSTANCE_ID>
310934647

> <PUBCHEM_SUBSTANCE_VERSION>
1

> <PUBCHEM_EXT_DATASOURCE_NAME>
4488

> <PUBCHEM_EXT_DATASOURCE_REGID>
SCHEMBL16112145

> <PUBCHEM_SUBSTANCE_COMMENT>
InChI=1S/C10H16O6/c1-10(5-15-2,6-16-3)7(9(13)14)4-8(11)12/h4H,5-6H2,1-3H3,(H,11,12)(H,13,14)
InChIKey=DWHJNLMMWHCDCV-UHFFFAOYSA-N

> <PUBCHEM_SUBSTANCE_SYNONYM>
SCHEMBL16112145

> <PUBCHEM_XREF_EXT_ID>
SCHEMBL16112145

> <PUBCHEM_EXT_DATASOURCE_URL>
https://www.surechembl.org/

> <PUBCHEM_EXT_SUBSTANCE_URL>
https://www.surechembl.org/chemical/SCHEMBL16112145

> <PUBCHEM_CID_ASSOCIATIONS>
117602814  1

> <PUBCHEM_COORDINATE_TYPE>
1
3

> <PUBCHEM_BONDANNOTATIONS>
12  14  3

$$$$
