310944847
  -OEChem-07211613022D

 22 24  0     0  0  0  0  0  0999 V2000
   -0.6244    2.1243    0.0000 F   0  0  0  0  0  0  0  0  0  0  0  0
    0.1121   -0.6511    0.0000 F   0  0  0  0  0  0  0  0  0  0  0  0
    2.1403    1.3877    0.0000 O   0  0  0  0  0  0  0  0  0  0  0  0
   -1.2970   -0.2775    0.0000 N   0  0  0  0  0  0  0  0  0  0  0  0
   -0.8060   -0.9394    0.0000 N   0  0  0  0  0  0  0  0  0  0  0  0
   -3.5280   -1.3664    0.0000 N   0  0  0  0  0  0  0  0  0  0  0  0
   -2.0869   -0.5017    0.0000 C   0  0  0  0  0  0  0  0  0  0  0  0
   -2.0976   -1.3450    0.0000 C   0  0  0  0  0  0  0  0  0  0  0  0
   -0.2936    0.7579    0.0000 C   0  0  0  0  0  0  0  0  0  0  0  0
   -1.3076   -1.6012    0.0000 C   0  0  0  0  0  0  0  0  0  0  0  0
   -1.0835    0.5444    0.0000 C   0  0  0  0  0  0  0  0  0  0  0  0
   -0.0587    1.5585    0.0000 C   0  0  0  0  0  0  0  0  0  0  0  0
    0.3149    0.1814    0.0000 C   0  0  0  0  0  0  0  0  0  0  0  0
   -2.8235   -0.0961    0.0000 C   0  0  0  0  0  0  0  0  0  0  0  0
   -2.8127   -1.7506    0.0000 C   0  0  0  0  0  0  0  0  0  0  0  0
    1.3290    1.1955    0.0000 C   0  0  0  0  0  0  0  0  0  0  0  0
    0.7418    1.7613    0.0000 C   0  0  0  0  0  0  0  0  0  0  0  0
    1.1048    0.3949    0.0000 C   0  0  0  0  0  0  0  0  0  0  0  0
   -3.5280   -0.5017    0.0000 C   0  0  0  0  0  0  0  0  0  0  0  0
   -1.1582   -2.1243    0.0000 C   0  0  0  0  0  0  0  0  0  0  0  0
    2.7274    0.8219    0.0000 C   0  0  0  0  0  0  0  0  0  0  0  0
    3.5280    1.0141    0.0000 C   0  0  0  0  0  0  0  0  0  0  0  0
  1 12  1  0  0  0  0
  2 13  1  0  0  0  0
  3 16  1  0  0  0  0
  3 21  1  0  0  0  0
  4  5  1  0  0  0  0
  4  7  1  0  0  0  0
  4 11  1  0  0  0  0
  5 10  2  0  0  0  0
  6 15  2  0  0  0  0
  6 19  1  0  0  0  0
  7  8  2  0  0  0  0
  7 14  1  0  0  0  0
  8 10  1  0  0  0  0
  8 15  1  0  0  0  0
  9 11  1  0  0  0  0
  9 12  2  0  0  0  0
  9 13  1  0  0  0  0
 10 20  1  0  0  0  0
 12 17  1  0  0  0  0
 13 18  2  0  0  0  0
 14 19  2  0  0  0  0
 16 17  2  0  0  0  0
 16 18  1  0  0  0  0
 21 22  1  0  0  0  0
M  END
> <PUBCHEM_COMPOUND_ID_TYPE>
0

> <PUBCHEM_TOTAL_CHARGE>
0

> <PUBCHEM_SUBSTANCE_ID>
310944847

> <PUBCHEM_SUBSTANCE_VERSION>
1

> <PUBCHEM_EXT_DATASOURCE_NAME>
4488

> <PUBCHEM_EXT_DATASOURCE_REGID>
SCHEMBL16122927

> <PUBCHEM_SUBSTANCE_COMMENT>
InChI=1S/C16H15F2N3O/c1-3-22-11-6-14(17)13(15(18)7-11)9-21-16-4-5-19-8-12(16)10(2)20-21/h4-8H,3,9H2,1-2H3
InChIKey=VUONBHNUTFVUGS-UHFFFAOYSA-N

> <PUBCHEM_SUBSTANCE_SYNONYM>
SCHEMBL16122927

> <PUBCHEM_XREF_EXT_ID>
SCHEMBL16122927

> <PUBCHEM_EXT_DATASOURCE_URL>
https://www.surechembl.org/

> <PUBCHEM_EXT_SUBSTANCE_URL>
https://www.surechembl.org/chemical/SCHEMBL16122927

> <PUBCHEM_CID_ASSOCIATIONS>
117611047  1

> <PUBCHEM_COORDINATE_TYPE>
1
3

$$$$
