310937066
  -OEChem-07211613022D

 15 15  0     0  0  0  0  0  0999 V2000
    2.1122    0.0000    0.0000 Br  0  0  0  0  0  0  0  0  0  0  0  0
    3.5054   -2.4493    0.0000 O   0  0  0  0  0  0  0  0  0  0  0  0
    0.6966   -0.8089    0.0000 O   0  0  0  0  0  0  0  0  0  0  0  0
    4.2244   -4.4941    0.0000 O   0  0  0  0  0  0  0  0  0  0  0  0
    2.8088   -2.0448    0.0000 C   0  0  0  0  0  0  0  0  0  0  0  0
    2.1122   -0.8089    0.0000 C   0  0  0  0  0  0  0  0  0  0  0  0
    1.3931   -1.2134    0.0000 C   0  0  0  0  0  0  0  0  0  0  0  0
    2.8088   -1.2134    0.0000 C   0  0  0  0  0  0  0  0  0  0  0  0
    2.1122   -2.4493    0.0000 C   0  0  0  0  0  0  0  0  0  0  0  0
    1.3931   -2.0448    0.0000 C   0  0  0  0  0  0  0  0  0  0  0  0
    4.2244   -3.6851    0.0000 C   0  0  0  0  0  0  0  0  0  0  0  0
    3.5054   -3.2582    0.0000 C   0  0  0  0  0  0  0  0  0  0  0  0
    4.9210   -3.2582    0.0000 C   0  0  0  0  0  0  0  0  0  0  0  0
    3.5054   -4.0896    0.0000 C   0  0  0  0  0  0  0  0  0  0  0  0
    0.0000   -1.2134    0.0000 C   0  0  0  0  0  0  0  0  0  0  0  0
  1  6  1  0  0  0  0
  2  5  1  0  0  0  0
  2 12  1  0  0  0  0
  3  7  1  0  0  0  0
  3 15  1  0  0  0  0
  4 11  1  0  0  0  0
  5  8  2  0  0  0  0
  5  9  1  0  0  0  0
  6  7  2  0  0  0  0
  6  8  1  0  0  0  0
  7 10  1  0  0  0  0
  9 10  2  0  0  0  0
 11 12  1  0  0  0  0
 11 13  1  0  0  0  0
 11 14  1  0  0  0  0
M  END
> <PUBCHEM_COMPOUND_ID_TYPE>
0

> <PUBCHEM_TOTAL_CHARGE>
0

> <PUBCHEM_SUBSTANCE_ID>
310937066

> <PUBCHEM_SUBSTANCE_VERSION>
1

> <PUBCHEM_EXT_DATASOURCE_NAME>
4488

> <PUBCHEM_EXT_DATASOURCE_REGID>
SCHEMBL16114778

> <PUBCHEM_SUBSTANCE_COMMENT>
InChI=1S/C11H15BrO3/c1-11(2,13)7-15-8-4-5-10(14-3)9(12)6-8/h4-6,13H,7H2,1-3H3
InChIKey=UITOMZRJHFVSKR-UHFFFAOYSA-N

> <PUBCHEM_SUBSTANCE_SYNONYM>
SCHEMBL16114778

> <PUBCHEM_XREF_EXT_ID>
SCHEMBL16114778

> <PUBCHEM_EXT_DATASOURCE_URL>
https://www.surechembl.org/

> <PUBCHEM_EXT_SUBSTANCE_URL>
https://www.surechembl.org/chemical/SCHEMBL16114778

> <PUBCHEM_CID_ASSOCIATIONS>
117604909  1

> <PUBCHEM_COORDINATE_TYPE>
1
3

$$$$
