310948690
  -OEChem-07211613022D

 34 37  0     1  0  0  0  0  0999 V2000
   -1.7325   -0.2131    0.0000 F   0  0  0  0  0  0  0  0  0  0  0  0
   -3.2586    0.1994    0.0000 O   0  0  0  0  0  0  0  0  0  0  0  0
   -3.9737    1.4368    0.0000 O   0  0  0  0  0  0  0  0  0  0  0  0
    0.4125    2.6743    0.0000 O   0  0  0  0  0  0  0  0  0  0  0  0
    1.1274   -0.2131    0.0000 N   0  0  3  0  0  0  0  0  0  0  0  0
    1.1274    1.4506    0.0000 N   0  0  0  0  0  0  0  0  0  0  0  0
    1.8425    2.6881    0.0000 N   0  0  0  0  0  0  0  0  0  0  0  0
    3.9737    2.2755    0.0000 N   0  0  0  0  0  0  0  0  0  0  0  0
    3.2586    1.0244    0.0000 N   0  0  0  0  0  0  0  0  0  0  0  0
   -1.7462    1.4644    0.0000 C   0  0  3  0  0  0  0  0  0  0  0  0
   -1.0037    1.0106    0.0000 C   0  0  0  0  0  0  0  0  0  0  0  0
   -2.5437    1.4644    0.0000 C   0  0  3  0  0  0  0  0  0  0  0  0
   -2.1587    2.1381    0.0000 C   0  0  0  0  0  0  0  0  0  0  0  0
    0.3987    0.2131    0.0000 C   0  0  0  0  0  0  0  0  0  0  0  0
   -1.0312    0.2131    0.0000 C   0  0  0  0  0  0  0  0  0  0  0  0
    0.4125    1.0381    0.0000 C   0  0  0  0  0  0  0  0  0  0  0  0
   -0.3162    1.4368    0.0000 C   0  0  0  0  0  0  0  0  0  0  0  0
   -0.3162   -0.1994    0.0000 C   0  0  0  0  0  0  0  0  0  0  0  0
   -3.2861    1.0381    0.0000 C   0  0  0  0  0  0  0  0  0  0  0  0
    1.1137   -1.0381    0.0000 C   0  0  0  0  0  0  0  0  0  0  0  0
    1.8150    0.1994    0.0000 C   0  0  0  0  0  0  0  0  0  0  0  0
    1.1412    2.2618    0.0000 C   0  0  0  0  0  0  0  0  0  0  0  0
    0.4125   -1.4506    0.0000 C   0  0  0  0  0  0  0  0  0  0  0  0
    1.8288   -1.4506    0.0000 C   0  0  0  0  0  0  0  0  0  0  0  0
    2.5575   -0.1994    0.0000 C   0  0  0  0  0  0  0  0  0  0  0  0
    0.4125   -2.2755    0.0000 C   0  0  0  0  0  0  0  0  0  0  0  0
    1.8288   -2.2755    0.0000 C   0  0  0  0  0  0  0  0  0  0  0  0
    2.5575    2.2755    0.0000 C   0  0  0  0  0  0  0  0  0  0  0  0
    1.1274   -2.6881    0.0000 C   0  0  0  0  0  0  0  0  0  0  0  0
    2.5437   -1.0519    0.0000 C   0  0  0  0  0  0  0  0  0  0  0  0
    3.2449    0.2131    0.0000 C   0  0  0  0  0  0  0  0  0  0  0  0
    3.2449    2.6881    0.0000 C   0  0  0  0  0  0  0  0  0  0  0  0
    2.5437    1.4506    0.0000 C   0  0  0  0  0  0  0  0  0  0  0  0
    3.9737    1.4506    0.0000 C   0  0  0  0  0  0  0  0  0  0  0  0
  1 15  1  0  0  0  0
  2 19  2  0  0  0  0
  3 19  1  0  0  0  0
  4 22  2  0  0  0  0
  5 14  1  0  0  0  0
  5 20  1  0  0  0  0
  5 21  1  0  0  0  0
  6 16  1  0  0  0  0
  6 22  1  0  0  0  0
  7 22  1  0  0  0  0
  7 28  1  0  0  0  0
  8 32  2  0  0  0  0
  8 34  1  0  0  0  0
  9 33  1  0  0  0  0
  9 34  2  0  0  0  0
 10 11  1  0  0  0  0
 10 12  1  0  0  0  0
 10 13  1  1  0  0  0
 11 15  2  0  0  0  0
 11 17  1  0  0  0  0
 12 13  1  0  0  0  0
 12 19  1  1  0  0  0
 14 16  1  0  0  0  0
 14 18  2  0  0  0  0
 15 18  1  0  0  0  0
 16 17  2  0  0  0  0
 20 23  1  0  0  0  0
 20 24  1  0  0  0  0
 21 25  1  0  0  0  0
 23 26  1  0  0  0  0
 24 27  1  0  0  0  0
 25 30  1  0  0  0  0
 25 31  1  0  0  0  0
 26 29  1  0  0  0  0
 27 29  1  0  0  0  0
 28 32  1  0  0  0  0
 28 33  2  0  0  0  0
M  END
> <PUBCHEM_COMPOUND_ID_TYPE>
0

> <PUBCHEM_TOTAL_CHARGE>
0

> <PUBCHEM_SUBSTANCE_ID>
310948690

> <PUBCHEM_SUBSTANCE_VERSION>
1

> <PUBCHEM_EXT_DATASOURCE_NAME>
4488

> <PUBCHEM_EXT_DATASOURCE_REGID>
SCHEMBL16126874

> <PUBCHEM_SUBSTANCE_COMMENT>
InChI=1S/C25H32FN5O3/c1-15(2)13-31(17-6-4-3-5-7-17)23-10-21(26)19(18-8-20(18)24(32)33)9-22(23)30-25(34)29-16-11-27-14-28-12-16/h9-12,14-15,17-18,20H,3-8,13H2,1-2H3,(H,32,33)(H2,29,30,34)/t18-,20-/m0/s1
InChIKey=FOHHLBGDFXUHLQ-ICSRJNTNSA-N

> <PUBCHEM_SUBSTANCE_SYNONYM>
SCHEMBL16126874

> <PUBCHEM_XREF_EXT_ID>
SCHEMBL16126874

> <PUBCHEM_EXT_DATASOURCE_URL>
https://www.surechembl.org/

> <PUBCHEM_EXT_SUBSTANCE_URL>
https://www.surechembl.org/chemical/SCHEMBL16126874

> <PUBCHEM_CID_ASSOCIATIONS>
117614231  1

> <PUBCHEM_COORDINATE_TYPE>
1
3

> <PUBCHEM_BONDANNOTATIONS>
10  13  5
12  19  5

$$$$
