310932028
  -OEChem-07211613022D

 17 18  0     0  0  0  0  0  0999 V2000
    0.0000   -2.8772    0.0000 Cl  0  0  0  0  0  0  0  0  0  0  0  0
    2.8580   -0.4028    0.0000 O   0  0  0  0  0  0  0  0  0  0  0  0
    3.5676   -2.4743    0.0000 O   0  0  0  0  0  0  0  0  0  0  0  0
    2.8580   -1.2276    0.0000 C   0  0  0  0  0  0  0  0  0  0  0  0
    2.1483   -1.6496    0.0000 C   0  0  0  0  0  0  0  0  0  0  0  0
    3.5676   -1.6496    0.0000 C   0  0  0  0  0  0  0  0  0  0  0  0
    4.2965   -1.2276    0.0000 C   0  0  0  0  0  0  0  0  0  0  0  0
    2.1291   -2.4743    0.0000 C   0  0  0  0  0  0  0  0  0  0  0  0
    1.4386   -1.2468    0.0000 C   0  0  0  0  0  0  0  0  0  0  0  0
    0.7097   -2.4743    0.0000 C   0  0  0  0  0  0  0  0  0  0  0  0
    1.4386   -2.8963    0.0000 C   0  0  0  0  0  0  0  0  0  0  0  0
    0.7289   -1.6496    0.0000 C   0  0  0  0  0  0  0  0  0  0  0  0
    4.3158   -0.4028    0.0000 C   0  0  0  0  0  0  0  0  0  0  0  0
    5.0255   -1.6304    0.0000 C   0  0  0  0  0  0  0  0  0  0  0  0
    5.0255    0.0000    0.0000 C   0  0  0  0  0  0  0  0  0  0  0  0
    5.7351   -1.2276    0.0000 C   0  0  0  0  0  0  0  0  0  0  0  0
    5.7543   -0.3836    0.0000 C   0  0  0  0  0  0  0  0  0  0  0  0
  1 10  1  0  0  0  0
  2  4  2  0  0  0  0
  3  6  2  0  0  0  0
  4  5  1  0  0  0  0
  4  6  1  0  0  0  0
  5  8  2  0  0  0  0
  5  9  1  0  0  0  0
  6  7  1  0  0  0  0
  7 13  1  0  0  0  0
  7 14  1  0  0  0  0
  8 11  1  0  0  0  0
  9 12  2  0  0  0  0
 10 11  2  0  0  0  0
 10 12  1  0  0  0  0
 13 15  1  0  0  0  0
 14 16  1  0  0  0  0
 15 17  1  0  0  0  0
 16 17  1  0  0  0  0
M  END
> <PUBCHEM_COMPOUND_ID_TYPE>
0

> <PUBCHEM_TOTAL_CHARGE>
0

> <PUBCHEM_SUBSTANCE_ID>
310932028

> <PUBCHEM_SUBSTANCE_VERSION>
1

> <PUBCHEM_EXT_DATASOURCE_NAME>
4488

> <PUBCHEM_EXT_DATASOURCE_REGID>
SCHEMBL16109370

> <PUBCHEM_SUBSTANCE_COMMENT>
InChI=1S/C14H15ClO2/c15-12-8-6-11(7-9-12)14(17)13(16)10-4-2-1-3-5-10/h6-10H,1-5H2
InChIKey=MKNXQGCOEFZXTG-UHFFFAOYSA-N

> <PUBCHEM_SUBSTANCE_SYNONYM>
SCHEMBL16109370

> <PUBCHEM_XREF_EXT_ID>
SCHEMBL16109370

> <PUBCHEM_EXT_DATASOURCE_URL>
https://www.surechembl.org/

> <PUBCHEM_EXT_SUBSTANCE_URL>
https://www.surechembl.org/chemical/SCHEMBL16109370

> <PUBCHEM_CID_ASSOCIATIONS>
117600662  1

> <PUBCHEM_COORDINATE_TYPE>
1
3

$$$$
