310941006
  -OEChem-07211613022D

 54 55  0     1  0  0  0  0  0999 V2000
    7.0047   -2.2960    0.0000 P   0  0  0  0  0  0  0  0  0  0  0  0
   -1.6189    1.0196    0.0000 O   0  0  0  0  0  0  0  0  0  0  0  0
   -2.3349    1.4399    0.0000 O   0  0  0  0  0  0  0  0  0  0  0  0
    0.5293   -1.0507    0.0000 O   0  0  0  0  0  0  0  0  0  0  0  0
    2.6774    1.0196    0.0000 O   0  0  0  0  0  0  0  0  0  0  0  0
    4.8411   -1.0507    0.0000 O   0  0  0  0  0  0  0  0  0  0  0  0
    6.9892    1.0196    0.0000 O   0  0  0  0  0  0  0  0  0  0  0  0
   -4.4830    2.6696    0.0000 O   0  0  0  0  0  0  0  0  0  0  0  0
    7.7986   -2.2960    0.0000 O   0  0  0  0  0  0  0  0  0  0  0  0
    6.2108   -2.2960    0.0000 O   0  0  0  0  0  0  0  0  0  0  0  0
    7.0047   -3.0899    0.0000 O   0  0  0  0  0  0  0  0  0  0  0  0
   -6.6311    2.2649    0.0000 O   0  0  0  0  0  0  0  0  0  0  0  0
   -3.0509    0.1790    0.0000 N   0  0  0  0  0  0  0  0  0  0  0  0
   -0.9029   -0.2257    0.0000 N   0  0  0  0  0  0  0  0  0  0  0  0
    1.2452    0.1790    0.0000 N   0  0  0  0  0  0  0  0  0  0  0  0
    3.3934   -0.2257    0.0000 N   0  0  0  0  0  0  0  0  0  0  0  0
    5.5571    0.1790    0.0000 N   0  0  0  0  0  0  0  0  0  0  0  0
    2.7707   -2.2960    0.0000 N   0  0  0  0  0  0  0  0  0  0  0  0
    3.9849   -1.7512    0.0000 N   0  0  0  0  0  0  0  0  0  0  0  0
    7.7052   -0.2257    0.0000 N   0  0  0  0  0  0  0  0  0  0  0  0
   -2.3193   -0.2101    0.0000 C   0  0  3  0  0  0  0  0  0  0  0  0
   -1.6189    0.1946    0.0000 C   0  0  0  0  0  0  0  0  0  0  0  0
   -0.1868    0.1946    0.0000 C   0  0  3  0  0  0  0  0  0  0  0  0
   -3.0509    1.0351    0.0000 C   0  0  0  0  0  0  0  0  0  0  0  0
   -2.4750   -1.0196    0.0000 C   0  0  0  0  0  0  0  0  0  0  0  0
   -3.6425   -0.3814    0.0000 C   0  0  0  0  0  0  0  0  0  0  0  0
    0.5448   -0.2101    0.0000 C   0  0  0  0  0  0  0  0  0  0  0  0
    1.9769   -0.2101    0.0000 C   0  0  3  0  0  0  0  0  0  0  0  0
   -3.3156   -1.1130    0.0000 C   0  0  0  0  0  0  0  0  0  0  0  0
    2.6774    0.1946    0.0000 C   0  0  0  0  0  0  0  0  0  0  0  0
    6.2887   -0.2101    0.0000 C   0  0  3  0  0  0  0  0  0  0  0  0
   -0.1557    1.0351    0.0000 C   0  0  0  0  0  0  0  0  0  0  0  0
    1.9457   -1.0507    0.0000 C   0  0  0  0  0  0  0  0  0  0  0  0
    4.1250    0.1946    0.0000 C   0  0  3  0  0  0  0  0  0  0  0  0
    4.8566   -0.2101    0.0000 C   0  0  0  0  0  0  0  0  0  0  0  0
   -3.7514    1.4399    0.0000 C   0  0  0  0  0  0  0  0  0  0  0  0
    6.2887   -1.0351    0.0000 C   0  0  3  0  0  0  0  0  0  0  0  0
    2.6929   -1.4554    0.0000 C   0  0  0  0  0  0  0  0  0  0  0  0
    7.0047    0.1946    0.0000 C   0  0  0  0  0  0  0  0  0  0  0  0
    0.5293    1.4554    0.0000 C   0  0  0  0  0  0  0  0  0  0  0  0
    7.0047   -1.4865    0.0000 C   0  0  0  0  0  0  0  0  0  0  0  0
    3.4557   -1.1441    0.0000 C   0  0  0  0  0  0  0  0  0  0  0  0
   -3.7514    2.2649    0.0000 C   0  0  0  0  0  0  0  0  0  0  0  0
    4.1406    1.0196    0.0000 C   0  0  0  0  0  0  0  0  0  0  0  0
    3.5802   -2.4517    0.0000 C   0  0  0  0  0  0  0  0  0  0  0  0
    5.4170   -1.5021    0.0000 C   0  0  0  0  0  0  0  0  0  0  0  0
    0.5293    2.2804    0.0000 C   0  0  0  0  0  0  0  0  0  0  0  0
    1.3543    1.2375    0.0000 C   0  0  0  0  0  0  0  0  0  0  0  0
   -5.1990    2.2804    0.0000 C   0  0  0  0  0  0  0  0  0  0  0  0
   -5.9151    2.6851    0.0000 C   0  0  0  0  0  0  0  0  0  0  0  0
   -7.0358    2.4983    0.0000 C   0  0  0  0  0  0  0  0  0  0  0  0
   -7.0047    3.0899    0.0000 C   0  0  0  0  0  0  0  0  0  0  0  0
   -7.7986    2.9342    0.0000 C   0  0  0  0  0  0  0  0  0  0  0  0
   -7.0047    1.8601    0.0000 C   0  0  0  0  0  0  0  0  0  0  0  0
  1  9  2  0  0  0  0
  1 10  1  0  0  0  0
  1 11  1  0  0  0  0
  1 41  1  0  0  0  0
  2 22  2  0  0  0  0
  3 24  2  0  0  0  0
  4 27  2  0  0  0  0
  5 30  2  0  0  0  0
  6 35  2  0  0  0  0
  7 39  2  0  0  0  0
  8 43  1  0  0  0  0
  8 49  1  0  0  0  0
 12 50  1  0  0  0  0
 12 51  1  0  0  0  0
 13 21  1  0  0  0  0
 13 24  1  0  0  0  0
 13 26  1  0  0  0  0
 14 22  1  0  0  0  0
 23 14  1  1  0  0  0
 15 27  1  0  0  0  0
 28 15  1  6  0  0  0
 16 30  1  0  0  0  0
 16 34  1  0  0  0  0
 31 17  1  6  0  0  0
 17 35  1  0  0  0  0
 18 38  1  0  0  0  0
 18 45  1  0  0  0  0
 19 42  1  0  0  0  0
 19 45  2  0  0  0  0
 20 39  1  0  0  0  0
 21 22  1  6  0  0  0
 21 25  1  0  0  0  0
 23 27  1  0  0  0  0
 23 32  1  0  0  0  0
 24 36  1  0  0  0  0
 25 29  1  0  0  0  0
 26 29  1  0  0  0  0
 28 30  1  0  0  0  0
 28 33  1  0  0  0  0
 31 37  1  0  0  0  0
 31 39  1  0  0  0  0
 32 40  1  0  0  0  0
 33 38  1  0  0  0  0
 34 35  1  0  0  0  0
 34 44  1  1  0  0  0
 36 43  1  0  0  0  0
 37 41  1  0  0  0  0
 37 46  1  6  0  0  0
 38 42  2  0  0  0  0
 40 47  1  0  0  0  0
 40 48  1  0  0  0  0
 49 50  1  0  0  0  0
 51 52  1  0  0  0  0
 51 53  1  0  0  0  0
 51 54  1  0  0  0  0
M  END
> <PUBCHEM_COMPOUND_ID_TYPE>
0

> <PUBCHEM_TOTAL_CHARGE>
0

> <PUBCHEM_SUBSTANCE_ID>
310941006

> <PUBCHEM_SUBSTANCE_VERSION>
1

> <PUBCHEM_EXT_DATASOURCE_NAME>
4488

> <PUBCHEM_EXT_DATASOURCE_REGID>
SCHEMBL16118965

> <PUBCHEM_SUBSTANCE_COMMENT>
InChI=1S/C34H59N8O11P/c1-20(2)15-24(40-33(48)26-9-8-11-42(26)27(43)10-12-52-13-14-53-34(5,6)7)32(47)39-25(16-23-17-36-19-37-23)31(46)38-22(4)30(45)41-28(29(35)44)21(3)18-54(49,50)51/h17,19-22,24-26,28H,8-16,18H2,1-7H3,(H2,35,44)(H,36,37)(H,38,46)(H,39,47)(H,40,48)(H,41,45)(H2,49,50,51)/t21-,22-,24-,25-,26-,28-/m0/s1
InChIKey=LTXHQYKQQGJNRL-DEXCVSMXSA-N

> <PUBCHEM_SUBSTANCE_SYNONYM>
SCHEMBL16118965

> <PUBCHEM_XREF_EXT_ID>
SCHEMBL16118965

> <PUBCHEM_EXT_DATASOURCE_URL>
https://www.surechembl.org/

> <PUBCHEM_EXT_SUBSTANCE_URL>
https://www.surechembl.org/chemical/SCHEMBL16118965

> <PUBCHEM_CID_ASSOCIATIONS>
117607911  1

> <PUBCHEM_COORDINATE_TYPE>
1
3

> <PUBCHEM_BONDANNOTATIONS>
23  14  5
28  15  6
31  17  6
21  22  6
34  44  5
37  46  6

$$$$
