310941555
  -OEChem-07211613022D

 11 11  0     0  0  0  0  0  0999 V2000
   -1.9072    0.2418    0.0000 Cl  0  0  0  0  0  0  0  0  0  0  0  0
    1.9072   -0.1702    0.0000 O   0  0  0  0  0  0  0  0  0  0  0  0
   -0.1880    1.0297    0.0000 N   0  0  0  0  0  0  0  0  0  0  0  0
   -0.2239    0.2059    0.0000 C   0  0  0  0  0  0  0  0  0  0  0  0
    0.5104   -0.1880    0.0000 C   0  0  0  0  0  0  0  0  0  0  0  0
   -0.9044   -0.1880    0.0000 C   0  0  0  0  0  0  0  0  0  0  0  0
    0.4925   -1.0297    0.0000 C   0  0  0  0  0  0  0  0  0  0  0  0
   -0.9044   -1.0297    0.0000 C   0  0  0  0  0  0  0  0  0  0  0  0
   -0.2418   -1.4058    0.0000 C   0  0  0  0  0  0  0  0  0  0  0  0
    1.1909    0.2418    0.0000 C   0  0  0  0  0  0  0  0  0  0  0  0
   -0.9223    1.4058    0.0000 C   0  0  0  0  0  0  0  0  0  0  0  0
  1  6  1  0  0  0  0
  2 10  2  0  0  0  0
  3  4  1  0  0  0  0
  3 11  1  0  0  0  0
  4  5  2  0  0  0  0
  4  6  1  0  0  0  0
  5  7  1  0  0  0  0
  5 10  1  0  0  0  0
  6  8  2  0  0  0  0
  7  9  2  0  0  0  0
  8  9  1  0  0  0  0
M  END
> <PUBCHEM_COMPOUND_ID_TYPE>
0

> <PUBCHEM_TOTAL_CHARGE>
0

> <PUBCHEM_SUBSTANCE_ID>
310941555

> <PUBCHEM_SUBSTANCE_VERSION>
1

> <PUBCHEM_EXT_DATASOURCE_NAME>
4488

> <PUBCHEM_EXT_DATASOURCE_REGID>
SCHEMBL16119586

> <PUBCHEM_SUBSTANCE_COMMENT>
InChI=1S/C8H8ClNO/c1-10-8-6(5-11)3-2-4-7(8)9/h2-5,10H,1H3
InChIKey=XKCHMIYMHRQCFT-UHFFFAOYSA-N

> <PUBCHEM_SUBSTANCE_SYNONYM>
SCHEMBL16119586

> <PUBCHEM_XREF_EXT_ID>
SCHEMBL16119586

> <PUBCHEM_EXT_DATASOURCE_URL>
https://www.surechembl.org/

> <PUBCHEM_EXT_SUBSTANCE_URL>
https://www.surechembl.org/chemical/SCHEMBL16119586

> <PUBCHEM_CID_ASSOCIATIONS>
117608361  1

> <PUBCHEM_COORDINATE_TYPE>
1
3

$$$$
