310943011
  -OEChem-07211613022D

 14 14  0     0  0  0  0  0  0999 V2000
   -2.7040   -1.3520    0.0000 Br  0  0  0  0  0  0  0  0  0  0  0  0
    1.2491    0.0892    0.0000 N   0  0  0  0  0  0  0  0  0  0  0  0
    0.4392    0.3226    0.0000 C   0  0  0  0  0  0  0  0  0  0  0  0
   -0.2608   -0.1029    0.0000 C   0  0  0  0  0  0  0  0  0  0  0  0
   -0.9882    0.2951    0.0000 C   0  0  0  0  0  0  0  0  0  0  0  0
   -0.2608   -0.9265    0.0000 C   0  0  0  0  0  0  0  0  0  0  0  0
   -1.7020   -0.9265    0.0000 C   0  0  0  0  0  0  0  0  0  0  0  0
   -1.6883   -0.1029    0.0000 C   0  0  0  0  0  0  0  0  0  0  0  0
   -0.9608   -1.3383    0.0000 C   0  0  0  0  0  0  0  0  0  0  0  0
   -0.1372    0.9128    0.0000 C   0  0  0  0  0  0  0  0  0  0  0  0
    0.6588    1.1186    0.0000 C   0  0  0  0  0  0  0  0  0  0  0  0
    1.9490    0.5147    0.0000 C   0  0  0  0  0  0  0  0  0  0  0  0
    2.7040    0.0892    0.0000 C   0  0  0  0  0  0  0  0  0  0  0  0
    1.9765    1.3520    0.0000 C   0  0  0  0  0  0  0  0  0  0  0  0
  1  7  1  0  0  0  0
  2  3  1  0  0  0  0
  2 12  1  0  0  0  0
  3  4  1  0  0  0  0
  3 10  1  0  0  0  0
  3 11  1  0  0  0  0
  4  5  2  0  0  0  0
  4  6  1  0  0  0  0
  5  8  1  0  0  0  0
  6  9  2  0  0  0  0
  7  8  2  0  0  0  0
  7  9  1  0  0  0  0
 12 13  1  0  0  0  0
 12 14  1  0  0  0  0
M  END
> <PUBCHEM_COMPOUND_ID_TYPE>
0

> <PUBCHEM_TOTAL_CHARGE>
0

> <PUBCHEM_SUBSTANCE_ID>
310943011

> <PUBCHEM_SUBSTANCE_VERSION>
1

> <PUBCHEM_EXT_DATASOURCE_NAME>
4488

> <PUBCHEM_EXT_DATASOURCE_REGID>
SCHEMBL16121070

> <PUBCHEM_SUBSTANCE_COMMENT>
InChI=1S/C12H18BrN/c1-9(2)14-12(3,4)10-5-7-11(13)8-6-10/h5-9,14H,1-4H3
InChIKey=SBYZCHVXDXMQLU-UHFFFAOYSA-N

> <PUBCHEM_SUBSTANCE_SYNONYM>
SCHEMBL16121070

> <PUBCHEM_XREF_EXT_ID>
SCHEMBL16121070

> <PUBCHEM_EXT_DATASOURCE_URL>
https://www.surechembl.org/

> <PUBCHEM_EXT_SUBSTANCE_URL>
https://www.surechembl.org/chemical/SCHEMBL16121070

> <PUBCHEM_CID_ASSOCIATIONS>
43740844  1

> <PUBCHEM_COORDINATE_TYPE>
1
3

$$$$
