310944243
  -OEChem-07211613022D

 48 55  0     0  0  0  0  0  0999 V2000
    0.0000    2.6482    0.0000 F   0  0  0  0  0  0  0  0  0  0  0  0
    0.0000   -0.6386    0.0000 N   0  0  0  0  0  0  0  0  0  0  0  0
   -2.1969    2.1714    0.0000 N   0  0  0  0  0  0  0  0  0  0  0  0
    2.1799    2.1884    0.0000 N   0  0  0  0  0  0  0  0  0  0  0  0
    0.0000    0.2299    0.0000 C   0  0  0  0  0  0  0  0  0  0  0  0
   -0.7323   -0.9963    0.0000 C   0  0  0  0  0  0  0  0  0  0  0  0
    0.7323   -1.0133    0.0000 C   0  0  0  0  0  0  0  0  0  0  0  0
   -0.7153   -1.8307    0.0000 C   0  0  0  0  0  0  0  0  0  0  0  0
    0.7153   -1.8307    0.0000 C   0  0  0  0  0  0  0  0  0  0  0  0
    0.7153    0.6386    0.0000 C   0  0  0  0  0  0  0  0  0  0  0  0
   -0.7494    0.6386    0.0000 C   0  0  0  0  0  0  0  0  0  0  0  0
    0.7153    1.4561    0.0000 C   0  0  0  0  0  0  0  0  0  0  0  0
   -0.7153    1.4390    0.0000 C   0  0  0  0  0  0  0  0  0  0  0  0
   -0.0170    1.8307    0.0000 C   0  0  0  0  0  0  0  0  0  0  0  0
   -1.4816   -0.6216    0.0000 C   0  0  0  0  0  0  0  0  0  0  0  0
    1.4816   -0.6046    0.0000 C   0  0  0  0  0  0  0  0  0  0  0  0
    1.5668    0.4173    0.0000 C   0  0  0  0  0  0  0  0  0  0  0  0
   -1.5668    0.4002    0.0000 C   0  0  0  0  0  0  0  0  0  0  0  0
   -1.4816   -2.2395    0.0000 C   0  0  0  0  0  0  0  0  0  0  0  0
    1.4986   -2.2225    0.0000 C   0  0  0  0  0  0  0  0  0  0  0  0
   -2.2139   -1.0474    0.0000 C   0  0  0  0  0  0  0  0  0  0  0  0
    2.2139   -1.0133    0.0000 C   0  0  0  0  0  0  0  0  0  0  0  0
   -2.1969   -1.8307    0.0000 C   0  0  0  0  0  0  0  0  0  0  0  0
    2.2139   -1.7967    0.0000 C   0  0  0  0  0  0  0  0  0  0  0  0
   -1.4816    1.8307    0.0000 C   0  0  0  0  0  0  0  0  0  0  0  0
    1.4475    1.8478    0.0000 C   0  0  0  0  0  0  0  0  0  0  0  0
   -2.9292   -1.4220    0.0000 C   0  0  0  0  0  0  0  0  0  0  0  0
    2.9803   -1.3710    0.0000 C   0  0  0  0  0  0  0  0  0  0  0  0
    1.7882   -0.3662    0.0000 C   0  0  0  0  0  0  0  0  0  0  0  0
    2.1628    0.9792    0.0000 C   0  0  0  0  0  0  0  0  0  0  0  0
   -2.1628    0.9792    0.0000 C   0  0  0  0  0  0  0  0  0  0  0  0
   -1.7882   -0.3662    0.0000 C   0  0  0  0  0  0  0  0  0  0  0  0
    2.6227   -0.5364    0.0000 C   0  0  0  0  0  0  0  0  0  0  0  0
    2.9803    0.8089    0.0000 C   0  0  0  0  0  0  0  0  0  0  0  0
   -2.9803    0.7579    0.0000 C   0  0  0  0  0  0  0  0  0  0  0  0
   -2.6227   -0.5705    0.0000 C   0  0  0  0  0  0  0  0  0  0  0  0
   -3.6615   -1.0474    0.0000 C   0  0  0  0  0  0  0  0  0  0  0  0
   -2.9463   -2.2565    0.0000 C   0  0  0  0  0  0  0  0  0  0  0  0
    2.9803   -2.1884    0.0000 C   0  0  0  0  0  0  0  0  0  0  0  0
    3.6615   -0.9963    0.0000 C   0  0  0  0  0  0  0  0  0  0  0  0
    3.2017    0.0426    0.0000 C   0  0  0  0  0  0  0  0  0  0  0  0
   -3.1847   -0.0426    0.0000 C   0  0  0  0  0  0  0  0  0  0  0  0
   -4.3938   -1.4390    0.0000 C   0  0  0  0  0  0  0  0  0  0  0  0
   -3.6785   -2.6482    0.0000 C   0  0  0  0  0  0  0  0  0  0  0  0
    3.7126   -2.5801    0.0000 C   0  0  0  0  0  0  0  0  0  0  0  0
    4.3768   -1.3880    0.0000 C   0  0  0  0  0  0  0  0  0  0  0  0
   -4.3768   -2.2565    0.0000 C   0  0  0  0  0  0  0  0  0  0  0  0
    4.3938   -2.1714    0.0000 C   0  0  0  0  0  0  0  0  0  0  0  0
  1 14  1  0  0  0  0
  2  5  1  0  0  0  0
  2  6  1  0  0  0  0
  2  7  1  0  0  0  0
  3 25  3  0  0  0  0
  4 26  3  0  0  0  0
  5 10  2  0  0  0  0
  5 11  1  0  0  0  0
  6  8  1  0  0  0  0
  6 15  2  0  0  0  0
  7  9  2  0  0  0  0
  7 16  1  0  0  0  0
  8  9  1  0  0  0  0
  8 19  2  0  0  0  0
  9 20  1  0  0  0  0
 10 12  1  0  0  0  0
 10 17  1  0  0  0  0
 11 13  2  0  0  0  0
 11 18  1  0  0  0  0
 12 14  2  0  0  0  0
 12 26  1  0  0  0  0
 13 14  1  0  0  0  0
 13 25  1  0  0  0  0
 15 21  1  0  0  0  0
 16 22  2  0  0  0  0
 17 29  2  0  0  0  0
 17 30  1  0  0  0  0
 18 31  2  0  0  0  0
 18 32  1  0  0  0  0
 19 23  1  0  0  0  0
 20 24  2  0  0  0  0
 21 23  2  0  0  0  0
 21 27  1  0  0  0  0
 22 24  1  0  0  0  0
 22 28  1  0  0  0  0
 27 37  2  0  0  0  0
 27 38  1  0  0  0  0
 28 39  2  0  0  0  0
 28 40  1  0  0  0  0
 29 33  1  0  0  0  0
 30 34  2  0  0  0  0
 31 35  1  0  0  0  0
 32 36  2  0  0  0  0
 33 41  2  0  0  0  0
 34 41  1  0  0  0  0
 35 42  2  0  0  0  0
 36 42  1  0  0  0  0
 37 43  1  0  0  0  0
 38 44  2  0  0  0  0
 39 45  1  0  0  0  0
 40 46  2  0  0  0  0
 43 47  2  0  0  0  0
 44 47  1  0  0  0  0
 45 48  2  0  0  0  0
 46 48  1  0  0  0  0
M  END
> <PUBCHEM_COMPOUND_ID_TYPE>
0

> <PUBCHEM_TOTAL_CHARGE>
0

> <PUBCHEM_SUBSTANCE_ID>
310944243

> <PUBCHEM_SUBSTANCE_VERSION>
1

> <PUBCHEM_EXT_DATASOURCE_NAME>
4488

> <PUBCHEM_EXT_DATASOURCE_REGID>
SCHEMBL16122318

> <PUBCHEM_SUBSTANCE_COMMENT>
InChI=1S/C44H26FN3/c45-43-37(27-46)41(31-17-9-3-10-18-31)44(42(38(43)28-47)32-19-11-4-12-20-32)48-39-25-33(29-13-5-1-6-14-29)21-23-35(39)36-24-22-34(26-40(36)48)30-15-7-2-8-16-30/h1-26H
InChIKey=MRDLSSDNESXTRH-UHFFFAOYSA-N

> <PUBCHEM_SUBSTANCE_SYNONYM>
SCHEMBL16122318

> <PUBCHEM_XREF_EXT_ID>
SCHEMBL16122318

> <PUBCHEM_EXT_DATASOURCE_URL>
https://www.surechembl.org/

> <PUBCHEM_EXT_SUBSTANCE_URL>
https://www.surechembl.org/chemical/SCHEMBL16122318

> <PUBCHEM_CID_ASSOCIATIONS>
117610514  1

> <PUBCHEM_COORDINATE_TYPE>
1
3

$$$$
