310936895
  -OEChem-07211613022D

 18 19  0     0  0  0  0  0  0999 V2000
    4.5602   -4.2420    0.0000 Br  0  0  0  0  0  0  0  0  0  0  0  0
    5.6843   -3.0331    0.0000 O   0  0  0  0  0  0  0  0  0  0  0  0
    0.0000   -0.3394    0.0000 O   0  0  0  0  0  0  0  0  0  0  0  0
    2.1847   -1.5483    0.0000 N   0  0  0  0  0  0  0  0  0  0  0  0
    2.1847   -0.2121    0.0000 N   0  0  0  0  0  0  0  0  0  0  0  0
    4.6026   -2.0786    0.0000 N   0  0  0  0  0  0  0  0  0  0  0  0
    3.2451   -2.5028    0.0000 C   0  0  0  0  0  0  0  0  0  0  0  0
    2.6513   -0.8696    0.0000 C   0  0  0  0  0  0  0  0  0  0  0  0
    2.4391   -2.3331    0.0000 C   0  0  0  0  0  0  0  0  0  0  0  0
    1.3998   -0.4666    0.0000 C   0  0  0  0  0  0  0  0  0  0  0  0
    1.3998   -1.2938    0.0000 C   0  0  0  0  0  0  0  0  0  0  0  0
    4.3056   -3.4572    0.0000 C   0  0  0  0  0  0  0  0  0  0  0  0
    4.8995   -2.8633    0.0000 C   0  0  0  0  0  0  0  0  0  0  0  0
    3.5209   -3.2876    0.0000 C   0  0  0  0  0  0  0  0  0  0  0  0
    3.8178   -1.9089    0.0000 C   0  0  0  0  0  0  0  0  0  0  0  0
    0.7423    0.0000    0.0000 C   0  0  0  0  0  0  0  0  0  0  0  0
    3.4784   -0.8696    0.0000 C   0  0  0  0  0  0  0  0  0  0  0  0
    6.2358   -2.4180    0.0000 C   0  0  0  0  0  0  0  0  0  0  0  0
  1 12  1  0  0  0  0
  2 13  1  0  0  0  0
  2 18  1  0  0  0  0
  3 16  2  0  0  0  0
  4  8  1  0  0  0  0
  4  9  1  0  0  0  0
  4 11  1  0  0  0  0
  5  8  2  0  0  0  0
  5 10  1  0  0  0  0
  6 13  2  0  0  0  0
  6 15  1  0  0  0  0
  7  9  1  0  0  0  0
  7 14  1  0  0  0  0
  7 15  2  0  0  0  0
  8 17  1  0  0  0  0
 10 11  2  0  0  0  0
 10 16  1  0  0  0  0
 12 13  1  0  0  0  0
 12 14  2  0  0  0  0
M  END
> <PUBCHEM_COMPOUND_ID_TYPE>
0

> <PUBCHEM_TOTAL_CHARGE>
0

> <PUBCHEM_SUBSTANCE_ID>
310936895

> <PUBCHEM_SUBSTANCE_VERSION>
1

> <PUBCHEM_EXT_DATASOURCE_NAME>
4488

> <PUBCHEM_EXT_DATASOURCE_REGID>
SCHEMBL16114593

> <PUBCHEM_SUBSTANCE_COMMENT>
InChI=1S/C12H12BrN3O2/c1-8-15-10(7-17)6-16(8)5-9-3-11(13)12(18-2)14-4-9/h3-4,6-7H,5H2,1-2H3
InChIKey=MLACLVXLNKXYKH-UHFFFAOYSA-N

> <PUBCHEM_SUBSTANCE_SYNONYM>
SCHEMBL16114593

> <PUBCHEM_XREF_EXT_ID>
SCHEMBL16114593

> <PUBCHEM_EXT_DATASOURCE_URL>
https://www.surechembl.org/

> <PUBCHEM_EXT_SUBSTANCE_URL>
https://www.surechembl.org/chemical/SCHEMBL16114593

> <PUBCHEM_CID_ASSOCIATIONS>
117604781  1

> <PUBCHEM_COORDINATE_TYPE>
1
3

$$$$
