310943046
  -OEChem-07211613022D

 31 34  0     1  0  0  0  0  0999 V2000
   -1.4572    0.9528    0.0000 O   0  0  0  0  0  0  0  0  0  0  0  0
    5.0191    2.1982    0.0000 O   0  0  0  0  0  0  0  0  0  0  0  0
    4.1349   -1.9491    0.0000 O   0  0  0  0  0  0  0  0  0  0  0  0
   -2.8894    0.1308    0.0000 O   0  0  0  0  0  0  0  0  0  0  0  0
    1.4447    0.1308    0.0000 N   0  0  0  0  0  0  0  0  0  0  0  0
    2.8770    0.1308    0.0000 N   0  0  0  0  0  0  0  0  0  0  0  0
    2.1670   -1.1146    0.0000 N   0  0  0  0  0  0  0  0  0  0  0  0
   -4.3092    0.9528    0.0000 N   0  0  0  0  0  0  0  0  0  0  0  0
    1.4322    0.9652    0.0000 C   0  0  0  0  0  0  0  0  0  0  0  0
    2.8770    0.9652    0.0000 C   0  0  0  0  0  0  0  0  0  0  0  0
    0.7099    1.3886    0.0000 C   0  0  0  0  0  0  0  0  0  0  0  0
    2.1546   -0.2802    0.0000 C   0  0  0  0  0  0  0  0  0  0  0  0
    2.1546    1.3637    0.0000 C   0  0  0  0  0  0  0  0  0  0  0  0
    3.5869    1.3762    0.0000 C   0  0  0  0  0  0  0  0  0  0  0  0
    0.0125    0.9652    0.0000 C   0  0  0  0  0  0  0  0  0  0  0  0
    0.7224    2.1982    0.0000 C   0  0  0  0  0  0  0  0  0  0  0  0
   -0.7224    1.3762    0.0000 C   0  0  0  0  0  0  0  0  0  0  0  0
    2.8894   -1.5257    0.0000 C   0  0  3  0  0  0  0  0  0  0  0  0
    3.6118    2.2106    0.0000 C   0  0  0  0  0  0  0  0  0  0  0  0
    4.3216    0.9652    0.0000 C   0  0  0  0  0  0  0  0  0  0  0  0
    0.0000    2.6092    0.0000 C   0  0  0  0  0  0  0  0  0  0  0  0
   -0.7099    2.1982    0.0000 C   0  0  0  0  0  0  0  0  0  0  0  0
    3.6616   -1.2766    0.0000 C   0  0  0  0  0  0  0  0  0  0  0  0
    2.8770   -2.3601    0.0000 C   0  0  0  0  0  0  0  0  0  0  0  0
    4.3092    2.6216    0.0000 C   0  0  0  0  0  0  0  0  0  0  0  0
    5.0316    1.3637    0.0000 C   0  0  0  0  0  0  0  0  0  0  0  0
    3.6616   -2.6216    0.0000 C   0  0  0  0  0  0  0  0  0  0  0  0
   -2.1546    1.3762    0.0000 C   0  0  0  0  0  0  0  0  0  0  0  0
   -2.8770    0.9652    0.0000 C   0  0  3  0  0  0  0  0  0  0  0  0
   -3.5869    1.3762    0.0000 C   0  0  0  0  0  0  0  0  0  0  0  0
   -5.0316    1.3637    0.0000 C   0  0  0  0  0  0  0  0  0  0  0  0
  1 17  1  0  0  0  0
  1 28  1  0  0  0  0
  2 25  1  0  0  0  0
  2 26  1  0  0  0  0
  3 23  1  0  0  0  0
  3 27  1  0  0  0  0
  4 29  1  0  0  0  0
  5  9  2  0  0  0  0
  5 12  1  0  0  0  0
  6 10  1  0  0  0  0
  6 12  2  0  0  0  0
  7 12  1  0  0  0  0
 18  7  1  6  0  0  0
  8 30  1  0  0  0  0
  8 31  1  0  0  0  0
  9 11  1  0  0  0  0
  9 13  1  0  0  0  0
 10 13  2  0  0  0  0
 10 14  1  0  0  0  0
 11 15  2  0  0  0  0
 11 16  1  0  0  0  0
 14 19  1  0  0  0  0
 14 20  1  0  0  0  0
 15 17  1  0  0  0  0
 16 21  2  0  0  0  0
 17 22  2  0  0  0  0
 18 23  1  0  0  0  0
 18 24  1  0  0  0  0
 19 25  1  0  0  0  0
 20 26  1  0  0  0  0
 21 22  1  0  0  0  0
 24 27  1  0  0  0  0
 28 29  1  0  0  0  0
 29 30  1  0  0  0  0
M  END
> <PUBCHEM_COMPOUND_ID_TYPE>
0

> <PUBCHEM_TOTAL_CHARGE>
0

> <PUBCHEM_SUBSTANCE_ID>
310943046

> <PUBCHEM_SUBSTANCE_VERSION>
1

> <PUBCHEM_EXT_DATASOURCE_NAME>
4488

> <PUBCHEM_EXT_DATASOURCE_REGID>
SCHEMBL16121105

> <PUBCHEM_SUBSTANCE_COMMENT>
InChI=1S/C23H32N4O4/c1-24-13-19(28)15-31-20-4-2-3-17(11-20)22-12-21(16-5-8-29-9-6-16)26-23(27-22)25-18-7-10-30-14-18/h2-4,11-12,16,18-19,24,28H,5-10,13-15H2,1H3,(H,25,26,27)/t18-,19?/m0/s1
InChIKey=CHXASXJELFNJHV-OYKVQYDMSA-N

> <PUBCHEM_SUBSTANCE_SYNONYM>
SCHEMBL16121105

> <PUBCHEM_XREF_EXT_ID>
SCHEMBL16121105

> <PUBCHEM_EXT_DATASOURCE_URL>
https://www.surechembl.org/

> <PUBCHEM_EXT_SUBSTANCE_URL>
https://www.surechembl.org/chemical/SCHEMBL16121105

> <PUBCHEM_CID_ASSOCIATIONS>
85473315  1

> <PUBCHEM_COORDINATE_TYPE>
1
3

> <PUBCHEM_BONDANNOTATIONS>
18  7  6

$$$$
