310943546
  -OEChem-07211613022D

 37 40  0     0  0  0  0  0  0999 V2000
    4.7736    1.3827    0.0000 F   0  0  0  0  0  0  0  0  0  0  0  0
    5.8436    1.0041    0.0000 F   0  0  0  0  0  0  0  0  0  0  0  0
    5.4320   -0.0823    0.0000 F   0  0  0  0  0  0  0  0  0  0  0  0
   -5.8436   -0.6585    0.0000 F   0  0  0  0  0  0  0  0  0  0  0  0
   -5.1193   -1.8930    0.0000 F   0  0  0  0  0  0  0  0  0  0  0  0
   -3.7037   -1.0700    0.0000 O   0  0  0  0  0  0  0  0  0  0  0  0
    2.2716    1.5473    0.0000 O   0  0  0  0  0  0  0  0  0  0  0  0
   -5.1522    1.4814    0.0000 O   0  0  0  0  0  0  0  0  0  0  0  0
   -3.7037    0.6420    0.0000 N   0  0  0  0  0  0  0  0  0  0  0  0
   -2.2552   -1.0700    0.0000 N   0  0  0  0  0  0  0  0  0  0  0  0
    1.4650    0.2304    0.0000 N   0  0  0  0  0  0  0  0  0  0  0  0
    0.0165    1.8766    0.0000 N   0  0  0  0  0  0  0  0  0  0  0  0
    3.7037   -0.9218    0.0000 N   0  0  0  0  0  0  0  0  0  0  0  0
   -1.5309    0.1811    0.0000 C   0  0  0  0  0  0  0  0  0  0  0  0
   -0.7078    0.6585    0.0000 C   0  0  0  0  0  0  0  0  0  0  0  0
   -2.9630    0.1811    0.0000 C   0  0  0  0  0  0  0  0  0  0  0  0
   -2.9794   -0.6585    0.0000 C   0  0  0  0  0  0  0  0  0  0  0  0
   -2.2716    0.5761    0.0000 C   0  0  0  0  0  0  0  0  0  0  0  0
   -0.6914    1.4814    0.0000 C   0  0  0  0  0  0  0  0  0  0  0  0
    0.0329    0.2469    0.0000 C   0  0  0  0  0  0  0  0  0  0  0  0
    0.7243    0.6585    0.0000 C   0  0  0  0  0  0  0  0  0  0  0  0
   -1.5473   -0.6585    0.0000 C   0  0  0  0  0  0  0  0  0  0  0  0
    2.9959    0.3292    0.0000 C   0  0  0  0  0  0  0  0  0  0  0  0
    4.4444    0.3292    0.0000 C   0  0  0  0  0  0  0  0  0  0  0  0
    2.2716    0.7078    0.0000 C   0  0  0  0  0  0  0  0  0  0  0  0
    0.7407    1.4814    0.0000 C   0  0  0  0  0  0  0  0  0  0  0  0
    5.1029    0.6585    0.0000 C   0  0  0  0  0  0  0  0  0  0  0  0
    3.7037    0.7243    0.0000 C   0  0  0  0  0  0  0  0  0  0  0  0
   -3.7037    1.4814    0.0000 C   0  0  0  0  0  0  0  0  0  0  0  0
   -4.4115    0.2469    0.0000 C   0  0  0  0  0  0  0  0  0  0  0  0
    2.9959   -0.4938    0.0000 C   0  0  0  0  0  0  0  0  0  0  0  0
    4.4280   -0.5103    0.0000 C   0  0  0  0  0  0  0  0  0  0  0  0
   -1.4156    1.8600    0.0000 C   0  0  0  0  0  0  0  0  0  0  0  0
   -4.4280    1.8930    0.0000 C   0  0  0  0  0  0  0  0  0  0  0  0
   -5.1358    0.6585    0.0000 C   0  0  0  0  0  0  0  0  0  0  0  0
   -4.4115   -0.6585    0.0000 C   0  0  0  0  0  0  0  0  0  0  0  0
   -5.1193   -1.0535    0.0000 C   0  0  0  0  0  0  0  0  0  0  0  0
  1 27  1  0  0  0  0
  2 27  1  0  0  0  0
  3 27  1  0  0  0  0
  4 37  1  0  0  0  0
  5 37  1  0  0  0  0
  6 17  1  0  0  0  0
  6 36  1  0  0  0  0
  7 25  2  0  0  0  0
  8 34  1  0  0  0  0
  8 35  1  0  0  0  0
  9 16  1  0  0  0  0
  9 29  1  0  0  0  0
  9 30  1  0  0  0  0
 10 17  2  0  0  0  0
 10 22  1  0  0  0  0
 11 21  1  0  0  0  0
 11 25  1  0  0  0  0
 12 19  2  0  0  0  0
 12 26  1  0  0  0  0
 13 31  1  0  0  0  0
 13 32  2  0  0  0  0
 14 15  1  0  0  0  0
 14 18  1  0  0  0  0
 14 22  2  0  0  0  0
 15 19  1  0  0  0  0
 15 20  2  0  0  0  0
 16 17  1  0  0  0  0
 16 18  2  0  0  0  0
 19 33  1  0  0  0  0
 20 21  1  0  0  0  0
 21 26  2  0  0  0  0
 23 25  1  0  0  0  0
 23 28  1  0  0  0  0
 23 31  2  0  0  0  0
 24 27  1  0  0  0  0
 24 28  2  0  0  0  0
 24 32  1  0  0  0  0
 29 34  1  0  0  0  0
 30 35  1  0  0  0  0
 36 37  1  0  0  0  0
M  END
> <PUBCHEM_COMPOUND_ID_TYPE>
0

> <PUBCHEM_TOTAL_CHARGE>
0

> <PUBCHEM_SUBSTANCE_ID>
310943546

> <PUBCHEM_SUBSTANCE_VERSION>
1

> <PUBCHEM_EXT_DATASOURCE_NAME>
4488

> <PUBCHEM_EXT_DATASOURCE_REGID>
SCHEMBL16121613

> <PUBCHEM_SUBSTANCE_COMMENT>
InChI=1S/C24H22F5N5O3/c1-14-19(8-18(12-31-14)33-22(35)16-6-17(11-30-9-16)24(27,28)29)15-7-20(34-2-4-36-5-3-34)23(32-10-15)37-13-21(25)26/h6-12,21H,2-5,13H2,1H3,(H,33,35)
InChIKey=GJZPUXPLFRPKSX-UHFFFAOYSA-N

> <PUBCHEM_SUBSTANCE_SYNONYM>
SCHEMBL16121613

> <PUBCHEM_XREF_EXT_ID>
SCHEMBL16121613

> <PUBCHEM_EXT_DATASOURCE_URL>
https://www.surechembl.org/

> <PUBCHEM_EXT_SUBSTANCE_URL>
https://www.surechembl.org/chemical/SCHEMBL16121613

> <PUBCHEM_CID_ASSOCIATIONS>
117609957  1

> <PUBCHEM_COORDINATE_TYPE>
1
3

$$$$
