310943402
  -OEChem-07211613022D

 37 40  0     0  0  0  0  0  0999 V2000
    1.4322    2.2554    0.0000 O   0  0  0  0  0  0  0  0  0  0  0  0
   -5.7126    2.2554    0.0000 O   0  0  0  0  0  0  0  0  0  0  0  0
   -1.4158   -2.6670    0.0000 O   0  0  0  0  0  0  0  0  0  0  0  0
   -4.2803    1.4322    0.0000 N   0  0  0  0  0  0  0  0  0  0  0  0
   -3.5560    0.1976    0.0000 N   0  0  0  0  0  0  0  0  0  0  0  0
   -0.6914    2.6670    0.0000 N   0  0  0  0  0  0  0  0  0  0  0  0
    0.7244    1.0207    0.0000 N   0  0  0  0  0  0  0  0  0  0  0  0
   -2.8480   -1.0372    0.0000 N   0  0  0  0  0  0  0  0  0  0  0  0
    3.5889    0.1976    0.0000 N   0  0  0  0  0  0  0  0  0  0  0  0
    5.7126    0.6092    0.0000 N   0  0  0  0  0  0  0  0  0  0  0  0
   -2.1237    1.0372    0.0000 C   0  0  0  0  0  0  0  0  0  0  0  0
   -1.4322    1.4487    0.0000 C   0  0  0  0  0  0  0  0  0  0  0  0
   -3.5560    1.0372    0.0000 C   0  0  0  0  0  0  0  0  0  0  0  0
   -2.8480    1.4322    0.0000 C   0  0  0  0  0  0  0  0  0  0  0  0
   -1.3993    2.2718    0.0000 C   0  0  0  0  0  0  0  0  0  0  0  0
   -0.6750    1.0372    0.0000 C   0  0  0  0  0  0  0  0  0  0  0  0
   -2.1401    0.1976    0.0000 C   0  0  0  0  0  0  0  0  0  0  0  0
    0.0000    1.4487    0.0000 C   0  0  0  0  0  0  0  0  0  0  0  0
   -2.8316   -0.1976    0.0000 C   0  0  0  0  0  0  0  0  0  0  0  0
    2.1731    1.0372    0.0000 C   0  0  0  0  0  0  0  0  0  0  0  0
    3.6054    1.0372    0.0000 C   0  0  0  0  0  0  0  0  0  0  0  0
    1.4487    1.4322    0.0000 C   0  0  0  0  0  0  0  0  0  0  0  0
    4.3132    1.4652    0.0000 C   0  0  0  0  0  0  0  0  0  0  0  0
    0.0329    2.2554    0.0000 C   0  0  0  0  0  0  0  0  0  0  0  0
    2.8645    1.4322    0.0000 C   0  0  0  0  0  0  0  0  0  0  0  0
   -4.2638    2.2554    0.0000 C   0  0  0  0  0  0  0  0  0  0  0  0
   -4.9718    1.0372    0.0000 C   0  0  0  0  0  0  0  0  0  0  0  0
    2.1731    0.1976    0.0000 C   0  0  0  0  0  0  0  0  0  0  0  0
   -2.1401    2.6670    0.0000 C   0  0  0  0  0  0  0  0  0  0  0  0
    2.8974   -0.1976    0.0000 C   0  0  0  0  0  0  0  0  0  0  0  0
    5.0212    1.0207    0.0000 C   0  0  0  0  0  0  0  0  0  0  0  0
   -5.0047    2.6670    0.0000 C   0  0  0  0  0  0  0  0  0  0  0  0
   -5.6961    1.4322    0.0000 C   0  0  0  0  0  0  0  0  0  0  0  0
    3.9017    2.1731    0.0000 C   0  0  0  0  0  0  0  0  0  0  0  0
    4.7248    2.1731    0.0000 C   0  0  0  0  0  0  0  0  0  0  0  0
   -2.1237   -1.4487    0.0000 C   0  0  0  0  0  0  0  0  0  0  0  0
   -2.1237   -2.2554    0.0000 C   0  0  0  0  0  0  0  0  0  0  0  0
  1 22  2  0  0  0  0
  2 32  1  0  0  0  0
  2 33  1  0  0  0  0
  3 37  1  0  0  0  0
  4 13  1  0  0  0  0
  4 26  1  0  0  0  0
  4 27  1  0  0  0  0
  5 13  2  0  0  0  0
  5 19  1  0  0  0  0
  6 15  2  0  0  0  0
  6 24  1  0  0  0  0
  7 18  1  0  0  0  0
  7 22  1  0  0  0  0
  8 19  1  0  0  0  0
  8 36  1  0  0  0  0
  9 21  1  0  0  0  0
  9 30  2  0  0  0  0
 10 31  3  0  0  0  0
 11 12  1  0  0  0  0
 11 14  2  0  0  0  0
 11 17  1  0  0  0  0
 12 15  1  0  0  0  0
 12 16  2  0  0  0  0
 13 14  1  0  0  0  0
 15 29  1  0  0  0  0
 16 18  1  0  0  0  0
 17 19  2  0  0  0  0
 18 24  2  0  0  0  0
 20 22  1  0  0  0  0
 20 25  1  0  0  0  0
 20 28  2  0  0  0  0
 21 23  1  0  0  0  0
 21 25  2  0  0  0  0
 23 31  1  0  0  0  0
 23 34  1  0  0  0  0
 23 35  1  0  0  0  0
 26 32  1  0  0  0  0
 27 33  1  0  0  0  0
 28 30  1  0  0  0  0
 36 37  1  0  0  0  0
M  END
> <PUBCHEM_COMPOUND_ID_TYPE>
0

> <PUBCHEM_TOTAL_CHARGE>
0

> <PUBCHEM_SUBSTANCE_ID>
310943402

> <PUBCHEM_SUBSTANCE_VERSION>
1

> <PUBCHEM_EXT_DATASOURCE_NAME>
4488

> <PUBCHEM_EXT_DATASOURCE_REGID>
SCHEMBL16121465

> <PUBCHEM_SUBSTANCE_COMMENT>
InChI=1S/C27H31N7O3/c1-18-22(20-13-24(30-6-9-35)33-25(14-20)34-7-10-37-11-8-34)15-21(16-31-18)32-26(36)19-4-5-29-23(12-19)27(2,3)17-28/h4-5,12-16,35H,6-11H2,1-3H3,(H,30,33)(H,32,36)
InChIKey=WGMNHXQFHGKVNS-UHFFFAOYSA-N

> <PUBCHEM_SUBSTANCE_SYNONYM>
SCHEMBL16121465

> <PUBCHEM_XREF_EXT_ID>
SCHEMBL16121465

> <PUBCHEM_EXT_DATASOURCE_URL>
https://www.surechembl.org/

> <PUBCHEM_EXT_SUBSTANCE_URL>
https://www.surechembl.org/chemical/SCHEMBL16121465

> <PUBCHEM_CID_ASSOCIATIONS>
117609826  1

> <PUBCHEM_COORDINATE_TYPE>
1
3

$$$$
