310932540
  -OEChem-07211613022D

 30 32  0     0  0  0  0  0  0999 V2000
    3.9911   -2.7417    0.0000 O   0  0  0  0  0  0  0  0  0  0  0  0
    8.4682   -2.8112    0.0000 O   0  0  0  0  0  0  0  0  0  0  0  0
    9.2317   -6.5246    0.0000 O   0  0  0  0  0  0  0  0  0  0  0  0
    4.8935   -1.5965    0.0000 N   0  0  0  0  0  0  0  0  0  0  0  0
    4.8241   -0.7635    0.0000 N   0  0  0  0  0  0  0  0  0  0  0  0
    6.3511   -1.5965    0.0000 N   0  0  0  0  0  0  0  0  0  0  0  0
    7.7741   -4.0606    0.0000 N   0  0  0  0  0  0  0  0  0  0  0  0
    0.0000   -2.4641    0.0000 N   0  0  0  0  0  0  0  0  0  0  0  0
    3.6094   -1.3188    0.0000 C   0  0  0  0  0  0  0  0  0  0  0  0
    4.1647   -1.9435    0.0000 C   0  0  0  0  0  0  0  0  0  0  0  0
    2.7765   -1.4229    0.0000 C   0  0  0  0  0  0  0  0  0  0  0  0
    5.6223   -2.0129    0.0000 C   0  0  0  0  0  0  0  0  0  0  0  0
    3.9911   -0.6247    0.0000 C   0  0  0  0  0  0  0  0  0  0  0  0
    2.2906   -0.7635    0.0000 C   0  0  0  0  0  0  0  0  0  0  0  0
    2.4641   -2.1865    0.0000 C   0  0  0  0  0  0  0  0  0  0  0  0
    1.6312   -2.2559    0.0000 C   0  0  0  0  0  0  0  0  0  0  0  0
    1.1453   -1.5965    0.0000 C   0  0  0  0  0  0  0  0  0  0  0  0
    1.4577   -0.8677    0.0000 C   0  0  0  0  0  0  0  0  0  0  0  0
    5.6223   -2.8112    0.0000 C   0  0  0  0  0  0  0  0  0  0  0  0
    7.0452   -2.8112    0.0000 C   0  0  0  0  0  0  0  0  0  0  0  0
    7.0452   -2.0129    0.0000 C   0  0  0  0  0  0  0  0  0  0  0  0
    6.3511   -3.2276    0.0000 C   0  0  0  0  0  0  0  0  0  0  0  0
    2.6029    0.0000    0.0000 C   0  0  0  0  0  0  0  0  0  0  0  0
    7.7741   -3.2276    0.0000 C   0  0  0  0  0  0  0  0  0  0  0  0
    0.3123   -1.7006    0.0000 C   0  0  0  0  0  0  0  0  0  0  0  0
    1.2841   -3.0194    0.0000 C   0  0  0  0  0  0  0  0  0  0  0  0
    8.5029   -4.4771    0.0000 C   0  0  0  0  0  0  0  0  0  0  0  0
    8.5029   -5.3100    0.0000 C   0  0  0  0  0  0  0  0  0  0  0  0
    9.1970   -5.6917    0.0000 C   0  0  0  0  0  0  0  0  0  0  0  0
    9.9258   -6.9411    0.0000 C   0  0  0  0  0  0  0  0  0  0  0  0
  1 10  1  0  0  0  0
  2 24  2  0  0  0  0
  3 29  1  0  0  0  0
  3 30  1  0  0  0  0
  4  5  1  0  0  0  0
  4 10  1  0  0  0  0
  4 12  1  0  0  0  0
  5 13  2  0  0  0  0
  6 12  2  0  0  0  0
  6 21  1  0  0  0  0
  7 24  1  0  0  0  0
  7 27  1  0  0  0  0
  8 25  3  0  0  0  0
  9 10  2  0  0  0  0
  9 11  1  0  0  0  0
  9 13  1  0  0  0  0
 11 14  1  0  0  0  0
 11 15  2  0  0  0  0
 12 19  1  0  0  0  0
 14 18  2  0  0  0  0
 14 23  1  0  0  0  0
 15 16  1  0  0  0  0
 16 17  2  0  0  0  0
 16 26  1  0  0  0  0
 17 18  1  0  0  0  0
 17 25  1  0  0  0  0
 19 22  2  0  0  0  0
 20 21  2  0  0  0  0
 20 22  1  0  0  0  0
 20 24  1  0  0  0  0
 27 28  1  0  0  0  0
 28 29  1  0  0  0  0
M  END
> <PUBCHEM_COMPOUND_ID_TYPE>
0

> <PUBCHEM_TOTAL_CHARGE>
0

> <PUBCHEM_SUBSTANCE_ID>
310932540

> <PUBCHEM_SUBSTANCE_VERSION>
1

> <PUBCHEM_EXT_DATASOURCE_NAME>
4488

> <PUBCHEM_EXT_DATASOURCE_REGID>
SCHEMBL16109915

> <PUBCHEM_SUBSTANCE_COMMENT>
InChI=1S/C22H23N5O3/c1-14-10-18(15(2)9-17(14)11-23)19-13-26-27(22(19)29)20-6-5-16(12-25-20)21(28)24-7-4-8-30-3/h5-6,9-10,12-13,29H,4,7-8H2,1-3H3,(H,24,28)
InChIKey=BWEYAMYCPNTLLE-UHFFFAOYSA-N

> <PUBCHEM_SUBSTANCE_SYNONYM>
SCHEMBL16109915

> <PUBCHEM_XREF_EXT_ID>
SCHEMBL16109915

> <PUBCHEM_EXT_DATASOURCE_URL>
https://www.surechembl.org/

> <PUBCHEM_EXT_SUBSTANCE_URL>
https://www.surechembl.org/chemical/SCHEMBL16109915

> <PUBCHEM_CID_ASSOCIATIONS>
117601070  1

> <PUBCHEM_COORDINATE_TYPE>
1
3

$$$$
