310943018
  -OEChem-07211613022D

 31 34  0     1  0  0  0  0  0999 V2000
    2.2219   -2.1791    0.0000 S   0  0  0  0  0  0  0  0  0  0  0  0
   -2.8225   -1.7672    0.0000 O   0  0  0  0  0  0  0  0  0  0  0  0
   -1.4327    2.8139    0.0000 O   0  0  0  0  0  0  0  0  0  0  0  0
    2.3764   -1.3554    0.0000 O   0  0  0  0  0  0  0  0  0  0  0  0
    2.0675   -2.9855    0.0000 O   0  0  0  0  0  0  0  0  0  0  0  0
   -1.3298    0.6177    0.0000 N   0  0  0  0  0  0  0  0  0  0  0  0
   -0.8322   -0.0515    0.0000 N   0  0  0  0  0  0  0  0  0  0  0  0
   -1.0380   -1.5271    0.0000 N   0  0  0  0  0  0  0  0  0  0  0  0
   -3.5602   -0.5147    0.0000 N   0  0  0  0  0  0  0  0  0  0  0  0
    3.0455   -2.3163    0.0000 N   0  0  0  0  0  0  0  0  0  0  0  0
    0.8493    0.3774    0.0000 N   0  0  0  0  0  0  0  0  0  0  0  0
   -2.1361   -0.4976    0.0000 C   0  0  0  0  0  0  0  0  0  0  0  0
   -2.1190    0.3431    0.0000 C   0  0  0  0  0  0  0  0  0  0  0  0
   -1.3298   -0.7378    0.0000 C   0  0  0  0  0  0  0  0  0  0  0  0
   -1.0723    1.4241    0.0000 C   0  0  3  0  0  0  0  0  0  0  0  0
   -2.8397   -0.8922    0.0000 C   0  0  0  0  0  0  0  0  0  0  0  0
   -2.8740    0.7378    0.0000 C   0  0  0  0  0  0  0  0  0  0  0  0
   -0.2831    1.5957    0.0000 C   0  0  3  0  0  0  0  0  0  0  0  0
   -0.2316   -1.6815    0.0000 C   0  0  0  0  0  0  0  0  0  0  0  0
   -3.5774    0.3260    0.0000 C   0  0  0  0  0  0  0  0  0  0  0  0
   -1.6557    2.0075    0.0000 C   0  0  0  0  0  0  0  0  0  0  0  0
    1.3812   -2.0075    0.0000 C   0  0  0  0  0  0  0  0  0  0  0  0
   -0.0429    2.3849    0.0000 C   0  0  0  0  0  0  0  0  0  0  0  0
    0.3174   -1.0638    0.0000 C   0  0  0  0  0  0  0  0  0  0  0  0
    0.0600   -2.4707    0.0000 C   0  0  0  0  0  0  0  0  0  0  0  0
    1.1238   -1.2354    0.0000 C   0  0  0  0  0  0  0  0  0  0  0  0
    0.8665   -2.6252    0.0000 C   0  0  0  0  0  0  0  0  0  0  0  0
    0.2831    0.9780    0.0000 C   0  0  0  0  0  0  0  0  0  0  0  0
   -0.5919    2.9855    0.0000 C   0  0  0  0  0  0  0  0  0  0  0  0
    3.5774   -1.6815    0.0000 C   0  0  0  0  0  0  0  0  0  0  0  0
    3.3372   -0.8922    0.0000 C   0  0  0  0  0  0  0  0  0  0  0  0
  1  4  2  0  0  0  0
  1  5  2  0  0  0  0
  1 10  1  0  0  0  0
  1 22  1  0  0  0  0
  2 16  2  0  0  0  0
  3 21  1  0  0  0  0
  3 29  1  0  0  0  0
  6  7  1  0  0  0  0
  6 13  1  0  0  0  0
 15  6  1  1  0  0  0
  7 14  2  0  0  0  0
  8 14  1  0  0  0  0
  8 19  1  0  0  0  0
  9 16  1  0  0  0  0
  9 20  1  0  0  0  0
 10 30  1  0  0  0  0
 11 28  3  0  0  0  0
 12 13  2  0  0  0  0
 12 14  1  0  0  0  0
 12 16  1  0  0  0  0
 13 17  1  0  0  0  0
 15 18  1  0  0  0  0
 15 21  1  0  0  0  0
 17 20  2  0  0  0  0
 18 23  1  0  0  0  0
 18 28  1  6  0  0  0
 19 24  2  0  0  0  0
 19 25  1  0  0  0  0
 22 26  2  0  0  0  0
 22 27  1  0  0  0  0
 23 29  1  0  0  0  0
 24 26  1  0  0  0  0
 25 27  2  0  0  0  0
 30 31  1  0  0  0  0
M  END
> <PUBCHEM_COMPOUND_ID_TYPE>
0

> <PUBCHEM_TOTAL_CHARGE>
0

> <PUBCHEM_SUBSTANCE_ID>
310943018

> <PUBCHEM_SUBSTANCE_VERSION>
1

> <PUBCHEM_EXT_DATASOURCE_NAME>
4488

> <PUBCHEM_EXT_DATASOURCE_REGID>
SCHEMBL16121077

> <PUBCHEM_SUBSTANCE_COMMENT>
InChI=1S/C20H22N6O4S/c1-2-23-31(28,29)15-5-3-14(4-6-15)24-19-18-16(7-9-22-20(18)27)26(25-19)17-12-30-10-8-13(17)11-21/h3-7,9,13,17,23H,2,8,10,12H2,1H3,(H,22,27)(H,24,25)/t13-,17+/m1/s1
InChIKey=KEJIVHUSRWFPFE-DYVFJYSZSA-N

> <PUBCHEM_SUBSTANCE_SYNONYM>
SCHEMBL16121077

> <PUBCHEM_XREF_EXT_ID>
SCHEMBL16121077

> <PUBCHEM_EXT_DATASOURCE_URL>
https://www.surechembl.org/

> <PUBCHEM_EXT_SUBSTANCE_URL>
https://www.surechembl.org/chemical/SCHEMBL16121077

> <PUBCHEM_CID_ASSOCIATIONS>
117609464  1

> <PUBCHEM_COORDINATE_TYPE>
1
3

> <PUBCHEM_BONDANNOTATIONS>
18  28  6
15  6  5

$$$$
