310948421
  -OEChem-07211613022D

 31 35  0     1  0  0  0  0  0999 V2000
   -1.5138   -3.1392    0.0000 Cl  0  0  0  0  0  0  0  0  0  0  0  0
   -0.3807   -1.8947    0.0000 F   0  0  0  0  0  0  0  0  0  0  0  0
   -3.5942    1.4674    0.0000 O   0  0  0  0  0  0  0  0  0  0  0  0
   -0.8080    1.3373    0.0000 N   0  0  0  0  0  0  0  0  0  0  0  0
   -1.1423    0.5757    0.0000 N   0  0  0  0  0  0  0  0  0  0  0  0
   -2.5354    0.0371    0.0000 N   0  0  0  0  0  0  0  0  0  0  0  0
   -2.8698    2.7305    0.0000 N   0  0  0  0  0  0  0  0  0  0  0  0
    2.4612    2.0247    0.0000 N   0  0  0  0  0  0  0  0  0  0  0  0
    0.0836   -0.6873    0.0000 N   0  0  0  0  0  0  0  0  0  0  0  0
   -1.4395    1.8947    0.0000 C   0  0  0  0  0  0  0  0  0  0  0  0
   -2.1454    1.4860    0.0000 C   0  0  0  0  0  0  0  0  0  0  0  0
   -1.9782    0.6873    0.0000 C   0  0  0  0  0  0  0  0  0  0  0  0
    0.0093    1.5231    0.0000 C   0  0  3  0  0  0  0  0  0  0  0  0
   -2.8698    1.9132    0.0000 C   0  0  0  0  0  0  0  0  0  0  0  0
    0.5665    0.9102    0.0000 C   0  0  3  0  0  0  0  0  0  0  0  0
   -1.4209    2.7305    0.0000 C   0  0  0  0  0  0  0  0  0  0  0  0
    0.2693    2.3033    0.0000 C   0  0  0  0  0  0  0  0  0  0  0  0
    1.6439    1.8575    0.0000 C   0  0  3  0  0  0  0  0  0  0  0  0
    1.3838    1.0774    0.0000 C   0  0  0  0  0  0  0  0  0  0  0  0
   -2.2754   -0.7430    0.0000 C   0  0  0  0  0  0  0  0  0  0  0  0
   -2.1268    3.1392    0.0000 C   0  0  0  0  0  0  0  0  0  0  0  0
    1.0866    2.4704    0.0000 C   0  0  0  0  0  0  0  0  0  0  0  0
    0.3064    0.0928    0.0000 C   0  0  0  0  0  0  0  0  0  0  0  0
   -1.4766   -0.9287    0.0000 C   0  0  0  0  0  0  0  0  0  0  0  0
   -2.8141   -1.3559    0.0000 C   0  0  0  0  0  0  0  0  0  0  0  0
   -1.2167   -1.7088    0.0000 C   0  0  0  0  0  0  0  0  0  0  0  0
    3.1670    1.5974    0.0000 C   0  0  0  0  0  0  0  0  0  0  0  0
    2.9069    2.7305    0.0000 C   0  0  0  0  0  0  0  0  0  0  0  0
   -1.7738   -2.3404    0.0000 C   0  0  0  0  0  0  0  0  0  0  0  0
   -2.5726   -2.1547    0.0000 C   0  0  0  0  0  0  0  0  0  0  0  0
    3.5942    2.2847    0.0000 C   0  0  0  0  0  0  0  0  0  0  0  0
  1 29  1  0  0  0  0
  2 26  1  0  0  0  0
  3 14  2  0  0  0  0
  4  5  1  0  0  0  0
  4 10  1  0  0  0  0
 13  4  1  1  0  0  0
  5 12  2  0  0  0  0
  6 12  1  0  0  0  0
  6 20  1  0  0  0  0
  7 14  1  0  0  0  0
  7 21  1  0  0  0  0
  8 18  1  0  0  0  0
  8 27  1  0  0  0  0
  8 28  1  0  0  0  0
  9 23  3  0  0  0  0
 10 11  2  0  0  0  0
 10 16  1  0  0  0  0
 11 12  1  0  0  0  0
 11 14  1  0  0  0  0
 13 15  1  0  0  0  0
 13 17  1  0  0  0  0
 15 19  1  0  0  0  0
 15 23  1  6  0  0  0
 16 21  2  0  0  0  0
 17 22  1  0  0  0  0
 18 19  1  1  0  0  0
 18 22  1  0  0  0  0
 20 24  1  0  0  0  0
 20 25  2  0  0  0  0
 24 26  2  0  0  0  0
 25 30  1  0  0  0  0
 26 29  1  0  0  0  0
 27 31  1  0  0  0  0
 28 31  1  0  0  0  0
 29 30  2  0  0  0  0
M  END
> <PUBCHEM_COMPOUND_ID_TYPE>
0

> <PUBCHEM_TOTAL_CHARGE>
0

> <PUBCHEM_SUBSTANCE_ID>
310948421

> <PUBCHEM_SUBSTANCE_VERSION>
1

> <PUBCHEM_EXT_DATASOURCE_NAME>
4488

> <PUBCHEM_EXT_DATASOURCE_REGID>
SCHEMBL16126602

> <PUBCHEM_SUBSTANCE_COMMENT>
InChI=1S/C22H22ClFN6O/c23-16-4-2-14(11-17(16)24)27-21-20-19(6-7-26-22(20)31)30(28-21)18-5-3-15(10-13(18)12-25)29-8-1-9-29/h2,4,6-7,11,13,15,18H,1,3,5,8-10H2,(H,26,31)(H,27,28)/t13-,15-,18+/m1/s1
InChIKey=KLQLXRUGQFMYPK-SIIHOXLZSA-N

> <PUBCHEM_SUBSTANCE_SYNONYM>
SCHEMBL16126602

> <PUBCHEM_XREF_EXT_ID>
SCHEMBL16126602

> <PUBCHEM_EXT_DATASOURCE_URL>
https://www.surechembl.org/

> <PUBCHEM_EXT_SUBSTANCE_URL>
https://www.surechembl.org/chemical/SCHEMBL16126602

> <PUBCHEM_CID_ASSOCIATIONS>
117613981  1

> <PUBCHEM_COORDINATE_TYPE>
1
3

> <PUBCHEM_BONDANNOTATIONS>
15  23  6
18  19  5
13  4  5

$$$$
