310931197
  -OEChem-07211613022D

 37 42  0     1  0  0  0  0  0999 V2000
    0.0000    0.0000    0.0000 Cl  0  0  0  0  0  0  0  0  0  0  0  0
    2.8645  -10.8094    0.0000 F   0  0  0  0  0  0  0  0  0  0  0  0
    4.1076   -5.7830    0.0000 O   0  0  0  0  0  0  0  0  0  0  0  0
    0.7567   -5.7290    0.0000 O   0  0  0  0  0  0  0  0  0  0  0  0
    1.2431   -3.6212    0.0000 O   0  0  0  0  0  0  0  0  0  0  0  0
    1.9997   -5.0264    0.0000 N   0  0  0  0  0  0  0  0  0  0  0  0
    3.6752   -7.9449    0.0000 N   0  0  0  0  0  0  0  0  0  0  0  0
    2.4862   -2.9186    0.0000 N   0  0  0  0  0  0  0  0  0  0  0  0
    0.8107   -4.3238    0.0000 N   0  0  0  0  0  0  0  0  0  0  0  0
    1.6214  -10.1068    0.0000 N   0  0  0  0  0  0  0  0  0  0  0  0
    0.4324   -2.1619    0.0000 N   0  0  0  0  0  0  0  0  0  0  0  0
    2.4321   -5.7830    0.0000 C   0  0  3  0  0  0  0  0  0  0  0  0
    2.8645   -6.4856    0.0000 C   0  0  0  0  0  0  0  0  0  0  0  0
    2.8645   -5.0264    0.0000 C   0  0  0  0  0  0  0  0  0  0  0  0
    3.6752   -6.5397    0.0000 C   0  0  0  0  0  0  0  0  0  0  0  0
    3.7292   -5.0264    0.0000 C   0  0  0  0  0  0  0  0  0  0  0  0
    1.9997   -6.4856    0.0000 C   0  0  0  0  0  0  0  0  0  0  0  0
    2.4321   -7.2423    0.0000 C   0  0  0  0  0  0  0  0  0  0  0  0
    2.4321   -4.3238    0.0000 C   0  0  0  0  0  0  0  0  0  0  0  0
    2.8645   -7.9449    0.0000 C   0  0  0  0  0  0  0  0  0  0  0  0
    4.1076   -7.2423    0.0000 C   0  0  0  0  0  0  0  0  0  0  0  0
    1.1890   -5.0264    0.0000 C   0  0  0  0  0  0  0  0  0  0  0  0
    4.1616   -4.3238    0.0000 C   0  0  0  0  0  0  0  0  0  0  0  0
    2.8645   -3.6212    0.0000 C   0  0  0  0  0  0  0  0  0  0  0  0
    1.1890   -6.4856    0.0000 C   0  0  0  0  0  0  0  0  0  0  0  0
    3.7292   -3.6212    0.0000 C   0  0  0  0  0  0  0  0  0  0  0  0
    2.4321   -8.6475    0.0000 C   0  0  0  0  0  0  0  0  0  0  0  0
    2.8645   -9.3501    0.0000 C   0  0  0  0  0  0  0  0  0  0  0  0
    1.6214   -8.6475    0.0000 C   0  0  0  0  0  0  0  0  0  0  0  0
    1.6755   -2.8645    0.0000 C   0  0  0  0  0  0  0  0  0  0  0  0
    2.4321  -10.1068    0.0000 C   0  0  0  0  0  0  0  0  0  0  0  0
    1.2431   -2.1619    0.0000 C   0  0  0  0  0  0  0  0  0  0  0  0
    1.1890   -9.3501    0.0000 C   0  0  0  0  0  0  0  0  0  0  0  0
    1.6755   -1.4593    0.0000 C   0  0  0  0  0  0  0  0  0  0  0  0
    0.0000   -1.4593    0.0000 C   0  0  0  0  0  0  0  0  0  0  0  0
    1.2431   -0.7026    0.0000 C   0  0  0  0  0  0  0  0  0  0  0  0
    0.4324   -0.7026    0.0000 C   0  0  0  0  0  0  0  0  0  0  0  0
  1 37  1  0  0  0  0
  2 31  1  0  0  0  0
  3 15  1  0  0  0  0
  3 16  1  0  0  0  0
  4 22  1  0  0  0  0
  4 25  1  0  0  0  0
  5 30  2  0  0  0  0
 12  6  1  1  0  0  0
  6 22  2  0  0  0  0
  7 20  2  0  0  0  0
  7 21  1  0  0  0  0
  8 24  1  0  0  0  0
  8 30  1  0  0  0  0
  9 22  1  0  0  0  0
 10 31  1  0  0  0  0
 10 33  2  0  0  0  0
 11 32  1  0  0  0  0
 11 35  2  0  0  0  0
 12 13  1  0  0  0  0
 12 14  1  0  0  0  0
 12 17  1  0  0  0  0
 13 15  1  0  0  0  0
 13 18  2  0  0  0  0
 14 16  2  0  0  0  0
 14 19  1  0  0  0  0
 15 21  2  0  0  0  0
 16 23  1  0  0  0  0
 17 25  1  0  0  0  0
 18 20  1  0  0  0  0
 19 24  2  0  0  0  0
 20 27  1  0  0  0  0
 23 26  2  0  0  0  0
 24 26  1  0  0  0  0
 27 28  1  0  0  0  0
 27 29  2  0  0  0  0
 28 31  2  0  0  0  0
 29 33  1  0  0  0  0
 30 32  1  0  0  0  0
 32 34  2  0  0  0  0
 34 36  1  0  0  0  0
 35 37  1  0  0  0  0
 36 37  2  0  0  0  0
M  END
> <PUBCHEM_COMPOUND_ID_TYPE>
0

> <PUBCHEM_TOTAL_CHARGE>
0

> <PUBCHEM_SUBSTANCE_ID>
310931197

> <PUBCHEM_SUBSTANCE_VERSION>
1

> <PUBCHEM_EXT_DATASOURCE_NAME>
4488

> <PUBCHEM_EXT_DATASOURCE_REGID>
SCHEMBL16108506

> <PUBCHEM_SUBSTANCE_COMMENT>
InChI=1S/C26H18ClFN6O3/c27-15-1-3-19(31-12-15)24(35)33-16-2-4-21-17(10-16)26(6-8-36-25(29)34-26)18-11-20(32-13-22(18)37-21)14-5-7-30-23(28)9-14/h1-5,7,9-13H,6,8H2,(H2,29,34)(H,33,35)/t26-/m0/s1
InChIKey=YNZQZTWZKPFTLB-SANMLTNESA-N

> <PUBCHEM_SUBSTANCE_SYNONYM>
SCHEMBL16108506

> <PUBCHEM_XREF_EXT_ID>
SCHEMBL16108506

> <PUBCHEM_EXT_DATASOURCE_URL>
https://www.surechembl.org/

> <PUBCHEM_EXT_SUBSTANCE_URL>
https://www.surechembl.org/chemical/SCHEMBL16108506

> <PUBCHEM_CID_ASSOCIATIONS>
117600051  1

> <PUBCHEM_COORDINATE_TYPE>
1
3

> <PUBCHEM_BONDANNOTATIONS>
12  6  5

$$$$
