310936492
  -OEChem-07211613022D

 18 19  0     0  0  0  0  0  0999 V2000
    4.9643   -2.8700    0.0000 Cl  0  0  0  0  0  0  0  0  0  0  0  0
    0.0000    0.0000    0.0000 Cl  0  0  0  0  0  0  0  0  0  0  0  0
    5.8176   -1.4350    0.0000 F   0  0  0  0  0  0  0  0  0  0  0  0
    2.4434   -2.8700    0.0000 O   0  0  0  0  0  0  0  0  0  0  0  0
    1.2217   -2.1525    0.0000 N   0  0  0  0  0  0  0  0  0  0  0  0
    2.4822   -1.4350    0.0000 C   0  0  0  0  0  0  0  0  0  0  0  0
    3.3160   -1.4350    0.0000 C   0  0  0  0  0  0  0  0  0  0  0  0
    2.0361   -2.1525    0.0000 C   0  0  0  0  0  0  0  0  0  0  0  0
    2.0361   -0.7175    0.0000 C   0  0  0  0  0  0  0  0  0  0  0  0
    3.7426   -2.1525    0.0000 C   0  0  0  0  0  0  0  0  0  0  0  0
    4.5571   -2.1525    0.0000 C   0  0  0  0  0  0  0  0  0  0  0  0
    1.2217   -0.7175    0.0000 C   0  0  0  0  0  0  0  0  0  0  0  0
    3.7426   -0.7175    0.0000 C   0  0  0  0  0  0  0  0  0  0  0  0
    4.9643   -1.4350    0.0000 C   0  0  0  0  0  0  0  0  0  0  0  0
    4.5571   -0.7175    0.0000 C   0  0  0  0  0  0  0  0  0  0  0  0
    0.7951   -1.4350    0.0000 C   0  0  0  0  0  0  0  0  0  0  0  0
    0.8145    0.0000    0.0000 C   0  0  0  0  0  0  0  0  0  0  0  0
    3.2772   -2.8700    0.0000 C   0  0  0  0  0  0  0  0  0  0  0  0
  1 11  1  0  0  0  0
  2 17  1  0  0  0  0
  3 14  1  0  0  0  0
  4  8  1  0  0  0  0
  4 18  1  0  0  0  0
  5  8  1  0  0  0  0
  5 16  2  0  0  0  0
  6  7  1  0  0  0  0
  6  8  2  0  0  0  0
  6  9  1  0  0  0  0
  7 10  1  0  0  0  0
  7 13  2  0  0  0  0
  9 12  2  0  0  0  0
 10 11  2  0  0  0  0
 11 14  1  0  0  0  0
 12 16  1  0  0  0  0
 12 17  1  0  0  0  0
 13 15  1  0  0  0  0
 14 15  2  0  0  0  0
M  END
> <PUBCHEM_COMPOUND_ID_TYPE>
0

> <PUBCHEM_TOTAL_CHARGE>
0

> <PUBCHEM_SUBSTANCE_ID>
310936492

> <PUBCHEM_SUBSTANCE_VERSION>
1

> <PUBCHEM_EXT_DATASOURCE_NAME>
4488

> <PUBCHEM_EXT_DATASOURCE_REGID>
SCHEMBL16114141

> <PUBCHEM_SUBSTANCE_COMMENT>
InChI=1S/C13H10Cl2FNO/c1-18-13-10(4-8(6-14)7-17-13)9-2-3-12(16)11(15)5-9/h2-5,7H,6H2,1H3
InChIKey=JZGMXWCEEKIVCT-UHFFFAOYSA-N

> <PUBCHEM_SUBSTANCE_SYNONYM>
SCHEMBL16114141

> <PUBCHEM_XREF_EXT_ID>
SCHEMBL16114141

> <PUBCHEM_EXT_DATASOURCE_URL>
https://www.surechembl.org/

> <PUBCHEM_EXT_SUBSTANCE_URL>
https://www.surechembl.org/chemical/SCHEMBL16114141

> <PUBCHEM_CID_ASSOCIATIONS>
117604420  1

> <PUBCHEM_COORDINATE_TYPE>
1
3

$$$$
