310931841
  -OEChem-07211613022D

 15 16  0     0  0  0  0  0  0999 V2000
    2.2684   -3.2746    0.0000 O   0  0  0  0  0  0  0  0  0  0  0  0
    1.5520   -1.2279    0.0000 O   0  0  0  0  0  0  0  0  0  0  0  0
    5.1165   -0.8187    0.0000 O   0  0  0  0  0  0  0  0  0  0  0  0
    2.2684   -2.4559    0.0000 C   0  0  0  0  0  0  0  0  0  0  0  0
    1.5520   -2.0466    0.0000 C   0  0  0  0  0  0  0  0  0  0  0  0
    0.8357   -2.4559    0.0000 C   0  0  0  0  0  0  0  0  0  0  0  0
    2.9846   -2.0466    0.0000 C   0  0  0  0  0  0  0  0  0  0  0  0
    0.4264   -3.1552    0.0000 C   0  0  0  0  0  0  0  0  0  0  0  0
    0.0000   -2.4730    0.0000 C   0  0  0  0  0  0  0  0  0  0  0  0
    2.9846   -1.2109    0.0000 C   0  0  0  0  0  0  0  0  0  0  0  0
    3.7009   -2.4559    0.0000 C   0  0  0  0  0  0  0  0  0  0  0  0
    4.4002   -1.2279    0.0000 C   0  0  0  0  0  0  0  0  0  0  0  0
    3.7009   -0.8016    0.0000 C   0  0  0  0  0  0  0  0  0  0  0  0
    4.4002   -2.0466    0.0000 C   0  0  0  0  0  0  0  0  0  0  0  0
    5.1165    0.0000    0.0000 C   0  0  0  0  0  0  0  0  0  0  0  0
  1  4  2  0  0  0  0
  2  5  2  0  0  0  0
  3 12  1  0  0  0  0
  3 15  1  0  0  0  0
  4  5  1  0  0  0  0
  4  7  1  0  0  0  0
  5  6  1  0  0  0  0
  6  8  1  0  0  0  0
  6  9  1  0  0  0  0
  7 10  2  0  0  0  0
  7 11  1  0  0  0  0
  8  9  1  0  0  0  0
 10 13  1  0  0  0  0
 11 14  2  0  0  0  0
 12 13  2  0  0  0  0
 12 14  1  0  0  0  0
M  END
> <PUBCHEM_COMPOUND_ID_TYPE>
0

> <PUBCHEM_TOTAL_CHARGE>
0

> <PUBCHEM_SUBSTANCE_ID>
310931841

> <PUBCHEM_SUBSTANCE_VERSION>
1

> <PUBCHEM_EXT_DATASOURCE_NAME>
4488

> <PUBCHEM_EXT_DATASOURCE_REGID>
SCHEMBL16109175

> <PUBCHEM_SUBSTANCE_COMMENT>
InChI=1S/C12H12O3/c1-15-10-6-4-9(5-7-10)12(14)11(13)8-2-3-8/h4-8H,2-3H2,1H3
InChIKey=MCGIVIULISXIKR-UHFFFAOYSA-N

> <PUBCHEM_SUBSTANCE_SYNONYM>
SCHEMBL16109175

> <PUBCHEM_XREF_EXT_ID>
SCHEMBL16109175

> <PUBCHEM_EXT_DATASOURCE_URL>
https://www.surechembl.org/

> <PUBCHEM_EXT_SUBSTANCE_URL>
https://www.surechembl.org/chemical/SCHEMBL16109175

> <PUBCHEM_CID_ASSOCIATIONS>
117600512  1

> <PUBCHEM_COORDINATE_TYPE>
1
3

$$$$
