310942742
  -OEChem-07211613022D

 55 59  0     1  0  0  0  0  0999 V2000
   -7.4675    0.2504    0.0000 I   0  0  0  0  0  0  0  0  0  0  0  0
    4.3303    3.0341    0.0000 F   0  0  0  0  0  0  0  0  0  0  0  0
    1.0163    2.6806    0.0000 F   0  0  0  0  0  0  0  0  0  0  0  0
    3.1519   -3.6085    0.0000 F   0  0  0  0  0  0  0  0  0  0  0  0
    2.6217    0.2357    0.0000 O   0  0  0  0  0  0  0  0  0  0  0  0
    6.2303   -1.8264    0.0000 O   0  0  0  0  0  0  0  0  0  0  0  0
    0.4566    0.6481    0.0000 O   0  0  0  0  0  0  0  0  0  0  0  0
   -0.2504   -0.5892    0.0000 O   0  0  0  0  0  0  0  0  0  0  0  0
   -3.1372    0.2357    0.0000 O   0  0  0  0  0  0  0  0  0  0  0  0
   -6.0094   -0.5892    0.0000 O   0  0  0  0  0  0  0  0  0  0  0  0
    4.7426    0.7365    0.0000 N   0  0  0  0  0  0  0  0  0  0  0  0
    3.3434   -1.0015    0.0000 N   0  0  0  0  0  0  0  0  0  0  0  0
    3.3876    0.7365    0.0000 N   0  0  0  0  0  0  0  0  0  0  0  0
    1.9000   -1.0015    0.0000 N   0  0  0  0  0  0  0  0  0  0  0  0
    1.2961   -2.5039    0.0000 N   0  0  0  0  0  0  0  0  0  0  0  0
   -0.9868    0.6628    0.0000 N   0  0  0  0  0  0  0  0  0  0  0  0
   -5.3024    0.6628    0.0000 N   0  0  0  0  0  0  0  0  0  0  0  0
    4.0651    0.2504    0.0000 C   0  0  0  0  0  0  0  0  0  0  0  0
    4.0504   -0.5744    0.0000 C   0  0  3  0  0  0  0  0  0  0  0  0
    3.6527    1.5318    0.0000 C   0  0  0  0  0  0  0  0  0  0  0  0
    4.7869   -0.9868    0.0000 C   0  0  0  0  0  0  0  0  0  0  0  0
    4.4923    1.5171    0.0000 C   0  0  0  0  0  0  0  0  0  0  0  0
    3.1519    2.1946    0.0000 C   0  0  0  0  0  0  0  0  0  0  0  0
    2.6070   -0.6039    0.0000 C   0  0  0  0  0  0  0  0  0  0  0  0
    5.5381    0.4860    0.0000 C   0  0  0  0  0  0  0  0  0  0  0  0
    3.3287   -1.8264    0.0000 C   0  0  0  0  0  0  0  0  0  0  0  0
    3.4907    2.9605    0.0000 C   0  0  0  0  0  0  0  0  0  0  0  0
    2.3272    2.1063    0.0000 C   0  0  0  0  0  0  0  0  0  0  0  0
    2.6365   -2.2240    0.0000 C   0  0  3  0  0  0  0  0  0  0  0  0
    4.7869   -1.8117    0.0000 C   0  0  0  0  0  0  0  0  0  0  0  0
    5.5085   -0.5744    0.0000 C   0  0  0  0  0  0  0  0  0  0  0  0
    6.1124    1.0605    0.0000 C   0  0  0  0  0  0  0  0  0  0  0  0
    1.8411    2.7543    0.0000 C   0  0  0  0  0  0  0  0  0  0  0  0
    3.0047    3.6085    0.0000 C   0  0  0  0  0  0  0  0  0  0  0  0
    2.5333   -3.0489    0.0000 C   0  0  3  0  0  0  0  0  0  0  0  0
    2.1799    3.5202    0.0000 C   0  0  0  0  0  0  0  0  0  0  0  0
    5.4938   -2.2240    0.0000 C   0  0  0  0  0  0  0  0  0  0  0  0
    6.2303   -1.0015    0.0000 C   0  0  0  0  0  0  0  0  0  0  0  0
    1.9000   -1.9147    0.0000 C   0  0  0  0  0  0  0  0  0  0  0  0
    6.8931    0.8690    0.0000 C   0  0  0  0  0  0  0  0  0  0  0  0
    5.9210    1.8411    0.0000 C   0  0  0  0  0  0  0  0  0  0  0  0
    1.1783   -0.5744    0.0000 C   0  0  3  0  0  0  0  0  0  0  0  0
    1.7380   -3.2109    0.0000 C   0  0  0  0  0  0  0  0  0  0  0  0
    7.4675    1.4287    0.0000 C   0  0  0  0  0  0  0  0  0  0  0  0
    6.4659    2.4155    0.0000 C   0  0  0  0  0  0  0  0  0  0  0  0
    1.1931    0.2357    0.0000 C   0  0  0  0  0  0  0  0  0  0  0  0
    7.2613    2.2093    0.0000 C   0  0  0  0  0  0  0  0  0  0  0  0
    0.4713   -1.0015    0.0000 C   0  0  0  0  0  0  0  0  0  0  0  0
   -0.2504    0.2651    0.0000 C   0  0  0  0  0  0  0  0  0  0  0  0
   -1.6938    0.2504    0.0000 C   0  0  0  0  0  0  0  0  0  0  0  0
   -2.4156    0.6628    0.0000 C   0  0  0  0  0  0  0  0  0  0  0  0
   -3.8442    0.6628    0.0000 C   0  0  0  0  0  0  0  0  0  0  0  0
   -4.5659    0.2504    0.0000 C   0  0  0  0  0  0  0  0  0  0  0  0
   -6.0094    0.2651    0.0000 C   0  0  0  0  0  0  0  0  0  0  0  0
   -6.7310    0.6628    0.0000 C   0  0  0  0  0  0  0  0  0  0  0  0
  1 55  1  0  0  0  0
  2 27  1  0  0  0  0
  3 33  1  0  0  0  0
 35  4  1  1  0  0  0
  5 24  2  0  0  0  0
  6 37  1  0  0  0  0
  6 38  1  0  0  0  0
  7 46  1  0  0  0  0
  7 49  1  0  0  0  0
  8 49  2  0  0  0  0
  9 51  1  0  0  0  0
  9 52  1  0  0  0  0
 10 54  2  0  0  0  0
 11 18  1  0  0  0  0
 11 22  1  0  0  0  0
 11 25  1  0  0  0  0
 19 12  1  1  0  0  0
 12 24  1  0  0  0  0
 12 26  1  0  0  0  0
 13 18  2  0  0  0  0
 13 20  1  0  0  0  0
 14 24  1  0  0  0  0
 14 42  1  0  0  0  0
 15 39  1  0  0  0  0
 15 43  1  0  0  0  0
 16 49  1  0  0  0  0
 16 50  1  0  0  0  0
 17 53  1  0  0  0  0
 17 54  1  0  0  0  0
 18 19  1  0  0  0  0
 19 21  1  0  0  0  0
 20 22  2  0  0  0  0
 20 23  1  0  0  0  0
 21 30  1  0  0  0  0
 21 31  1  0  0  0  0
 23 27  1  0  0  0  0
 23 28  2  0  0  0  0
 25 32  1  0  0  0  0
 29 26  1  1  0  0  0
 27 34  2  0  0  0  0
 28 33  1  0  0  0  0
 29 35  1  0  0  0  0
 29 39  1  0  0  0  0
 30 37  1  0  0  0  0
 31 38  1  0  0  0  0
 32 40  2  0  0  0  0
 32 41  1  0  0  0  0
 33 36  2  0  0  0  0
 34 36  1  0  0  0  0
 35 43  1  0  0  0  0
 40 44  1  0  0  0  0
 41 45  2  0  0  0  0
 42 46  1  0  0  0  0
 42 48  1  1  0  0  0
 44 47  2  0  0  0  0
 45 47  1  0  0  0  0
 50 51  1  0  0  0  0
 52 53  1  0  0  0  0
 54 55  1  0  0  0  0
M  END
> <PUBCHEM_COMPOUND_ID_TYPE>
0

> <PUBCHEM_TOTAL_CHARGE>
0

> <PUBCHEM_SUBSTANCE_ID>
310942742

> <PUBCHEM_SUBSTANCE_VERSION>
1

> <PUBCHEM_EXT_DATASOURCE_NAME>
4488

> <PUBCHEM_EXT_DATASOURCE_REGID>
SCHEMBL16120794

> <PUBCHEM_SUBSTANCE_COMMENT>
InChI=1S/C38H49F3IN7O6/c1-25(24-55-38(52)45-12-16-54-15-11-44-34(50)18-42)46-37(51)49(22-28-19-43-20-32(28)41)35(27-9-13-53-14-10-27)36-47-33(30-17-29(39)7-8-31(30)40)23-48(36)21-26-5-3-2-4-6-26/h2-8,17,23,25,27-28,32,35,43H,9-16,18-22,24H2,1H3,(H,44,50)(H,45,52)(H,46,51)/t25-,28-,32-,35+/m0/s1
InChIKey=CGOJWBJKVURXPO-FRYFCYOPSA-N

> <PUBCHEM_SUBSTANCE_SYNONYM>
SCHEMBL16120794

> <PUBCHEM_XREF_EXT_ID>
SCHEMBL16120794

> <PUBCHEM_EXT_DATASOURCE_URL>
https://www.surechembl.org/

> <PUBCHEM_EXT_SUBSTANCE_URL>
https://www.surechembl.org/chemical/SCHEMBL16120794

> <PUBCHEM_CID_ASSOCIATIONS>
117609262  1

> <PUBCHEM_COORDINATE_TYPE>
1
3

> <PUBCHEM_BONDANNOTATIONS>
19  12  5
29  26  5
35  4  5
42  48  5

$$$$
