310931899
  -OEChem-07211613022D

 32 35  0     0  0  0  0  0  0999 V2000
    4.0281   -2.7376    0.0000 O   0  0  0  0  0  0  0  0  0  0  0  0
    8.5256   -2.8158    0.0000 O   0  0  0  0  0  0  0  0  0  0  0  0
    4.9276   -1.6034    0.0000 N   0  0  0  0  0  0  0  0  0  0  0  0
    4.8494   -0.7821    0.0000 N   0  0  0  0  0  0  0  0  0  0  0  0
    6.3746   -1.6034    0.0000 N   0  0  0  0  0  0  0  0  0  0  0  0
    7.8216   -4.0672    0.0000 N   0  0  0  0  0  0  0  0  0  0  0  0
    9.2295   -6.5310    0.0000 N   0  0  0  0  0  0  0  0  0  0  0  0
    0.0000   -2.4638    0.0000 N   0  0  0  0  0  0  0  0  0  0  0  0
    8.8384   -7.8216    0.0000 N   0  0  0  0  0  0  0  0  0  0  0  0
    3.6371   -1.3297    0.0000 C   0  0  0  0  0  0  0  0  0  0  0  0
    4.1846   -1.9163    0.0000 C   0  0  0  0  0  0  0  0  0  0  0  0
    2.8158   -1.4079    0.0000 C   0  0  0  0  0  0  0  0  0  0  0  0
    5.6315   -1.9945    0.0000 C   0  0  0  0  0  0  0  0  0  0  0  0
    4.0281   -0.6258    0.0000 C   0  0  0  0  0  0  0  0  0  0  0  0
    2.3074   -0.7430    0.0000 C   0  0  0  0  0  0  0  0  0  0  0  0
    2.4638   -2.1901    0.0000 C   0  0  0  0  0  0  0  0  0  0  0  0
    5.6315   -2.8158    0.0000 C   0  0  0  0  0  0  0  0  0  0  0  0
    7.0786   -2.8158    0.0000 C   0  0  0  0  0  0  0  0  0  0  0  0
    1.4861   -0.8604    0.0000 C   0  0  0  0  0  0  0  0  0  0  0  0
    1.1733   -1.6034    0.0000 C   0  0  0  0  0  0  0  0  0  0  0  0
    7.0786   -1.9945    0.0000 C   0  0  0  0  0  0  0  0  0  0  0  0
    6.3746   -3.2460    0.0000 C   0  0  0  0  0  0  0  0  0  0  0  0
    1.6425   -2.2683    0.0000 C   0  0  0  0  0  0  0  0  0  0  0  0
    7.8216   -3.2460    0.0000 C   0  0  0  0  0  0  0  0  0  0  0  0
    2.6202    0.0000    0.0000 C   0  0  0  0  0  0  0  0  0  0  0  0
    0.3520   -1.6817    0.0000 C   0  0  0  0  0  0  0  0  0  0  0  0
    8.5256   -4.4974    0.0000 C   0  0  0  0  0  0  0  0  0  0  0  0
    8.5256   -5.3187    0.0000 C   0  0  0  0  0  0  0  0  0  0  0  0
    9.2295   -5.7098    0.0000 C   0  0  0  0  0  0  0  0  0  0  0  0
    8.5647   -7.0394    0.0000 C   0  0  0  0  0  0  0  0  0  0  0  0
    9.9334   -7.0394    0.0000 C   0  0  0  0  0  0  0  0  0  0  0  0
    9.6597   -7.8216    0.0000 C   0  0  0  0  0  0  0  0  0  0  0  0
  1 11  1  0  0  0  0
  2 24  2  0  0  0  0
  3  4  1  0  0  0  0
  3 11  1  0  0  0  0
  3 13  1  0  0  0  0
  4 14  2  0  0  0  0
  5 13  2  0  0  0  0
  5 21  1  0  0  0  0
  6 24  1  0  0  0  0
  6 27  1  0  0  0  0
  7 29  1  0  0  0  0
  7 30  1  0  0  0  0
  7 31  1  0  0  0  0
  8 26  3  0  0  0  0
  9 30  2  0  0  0  0
  9 32  1  0  0  0  0
 10 11  2  0  0  0  0
 10 12  1  0  0  0  0
 10 14  1  0  0  0  0
 12 15  1  0  0  0  0
 12 16  2  0  0  0  0
 13 17  1  0  0  0  0
 15 19  2  0  0  0  0
 15 25  1  0  0  0  0
 16 23  1  0  0  0  0
 17 22  2  0  0  0  0
 18 21  2  0  0  0  0
 18 22  1  0  0  0  0
 18 24  1  0  0  0  0
 19 20  1  0  0  0  0
 20 23  2  0  0  0  0
 20 26  1  0  0  0  0
 27 28  1  0  0  0  0
 28 29  1  0  0  0  0
 31 32  2  0  0  0  0
M  END
> <PUBCHEM_COMPOUND_ID_TYPE>
0

> <PUBCHEM_TOTAL_CHARGE>
0

> <PUBCHEM_SUBSTANCE_ID>
310931899

> <PUBCHEM_SUBSTANCE_VERSION>
1

> <PUBCHEM_EXT_DATASOURCE_NAME>
4488

> <PUBCHEM_EXT_DATASOURCE_REGID>
SCHEMBL16109234

> <PUBCHEM_SUBSTANCE_COMMENT>
InChI=1S/C23H21N7O2/c1-16-11-17(12-24)3-5-19(16)20-14-28-30(23(20)32)21-6-4-18(13-27-21)22(31)26-7-2-9-29-10-8-25-15-29/h3-6,8,10-11,13-15,32H,2,7,9H2,1H3,(H,26,31)
InChIKey=BUQASAWBHKYBFV-UHFFFAOYSA-N

> <PUBCHEM_SUBSTANCE_SYNONYM>
SCHEMBL16109234

> <PUBCHEM_XREF_EXT_ID>
SCHEMBL16109234

> <PUBCHEM_EXT_DATASOURCE_URL>
https://www.surechembl.org/

> <PUBCHEM_EXT_SUBSTANCE_URL>
https://www.surechembl.org/chemical/SCHEMBL16109234

> <PUBCHEM_CID_ASSOCIATIONS>
117600555  1

> <PUBCHEM_COORDINATE_TYPE>
1
3

$$$$
