310949866
  -OEChem-07211613022D

 30 35  0     1  0  0  0  0  0999 V2000
   -0.8985    1.3893    0.0000 N   0  0  0  0  0  0  0  0  0  0  0  0
   -0.8985    2.7301    0.0000 N   0  0  0  0  0  0  0  0  0  0  0  0
   -0.1244   -0.9745    0.0000 N   0  0  0  0  0  0  0  0  0  0  0  0
    1.7002    1.6519    0.0000 N   0  0  0  0  0  0  0  0  0  0  0  0
    2.3085   -1.4722    0.0000 C   0  0  0  0  0  0  0  0  0  0  0  0
    1.5068   -1.3201    0.0000 C   0  0  3  0  0  0  0  0  0  0  0  0
    2.5573   -2.2740    0.0000 C   0  0  3  0  0  0  0  0  0  0  0  0
   -0.4147    2.0666    0.0000 C   0  0  0  0  0  0  0  0  0  0  0  0
   -1.6864    1.6657    0.0000 C   0  0  0  0  0  0  0  0  0  0  0  0
    0.9400   -1.9284    0.0000 C   0  0  3  0  0  0  0  0  0  0  0  0
   -1.6726    2.4813    0.0000 C   0  0  0  0  0  0  0  0  0  0  0  0
    1.7694   -2.0528    0.0000 C   0  0  0  0  0  0  0  0  0  0  0  0
   -0.6359    0.6152    0.0000 C   0  0  0  0  0  0  0  0  0  0  0  0
    0.4285    2.0528    0.0000 C   0  0  3  0  0  0  0  0  0  0  0  0
    2.0182   -2.8821    0.0000 C   0  0  0  0  0  0  0  0  0  0  0  0
    1.2026   -2.7163    0.0000 C   0  0  0  0  0  0  0  0  0  0  0  0
    0.1382   -1.7487    0.0000 C   0  0  0  0  0  0  0  0  0  0  0  0
   -2.3914    1.2372    0.0000 C   0  0  0  0  0  0  0  0  0  0  0  0
   -1.1750   -0.0069    0.0000 C   0  0  0  0  0  0  0  0  0  0  0  0
    0.1797    0.4354    0.0000 C   0  0  0  0  0  0  0  0  0  0  0  0
    2.4744   -0.6705    0.0000 C   0  0  0  0  0  0  0  0  0  0  0  0
    3.1103   -1.2510    0.0000 C   0  0  0  0  0  0  0  0  0  0  0  0
   -2.3914    2.8821    0.0000 C   0  0  0  0  0  0  0  0  0  0  0  0
   -0.9261   -0.7948    0.0000 C   0  0  0  0  0  0  0  0  0  0  0  0
    0.4285   -0.3525    0.0000 C   0  0  0  0  0  0  0  0  0  0  0  0
    0.9261    1.4031    0.0000 C   0  0  0  0  0  0  0  0  0  0  0  0
    0.8985    2.7163    0.0000 C   0  0  0  0  0  0  0  0  0  0  0  0
   -3.1103    1.6519    0.0000 C   0  0  0  0  0  0  0  0  0  0  0  0
   -3.1103    2.4813    0.0000 C   0  0  0  0  0  0  0  0  0  0  0  0
    1.7002    2.4813    0.0000 C   0  0  0  0  0  0  0  0  0  0  0  0
  1  8  1  0  0  0  0
  1  9  1  0  0  0  0
  1 13  1  0  0  0  0
  2  8  2  0  0  0  0
  2 11  1  0  0  0  0
  3 17  1  0  0  0  0
  3 24  1  0  0  0  0
  3 25  1  0  0  0  0
  4 26  1  0  0  0  0
  4 30  1  0  0  0  0
  5  6  1  0  0  0  0
  5  7  1  0  0  0  0
  5 21  1  0  0  0  0
  5 22  1  0  0  0  0
  6 10  1  0  0  0  0
  6 12  1  6  0  0  0
  7 12  1  6  0  0  0
  7 15  1  0  0  0  0
 14  8  1  6  0  0  0
  9 11  1  0  0  0  0
  9 18  2  0  0  0  0
 10 16  1  0  0  0  0
 10 17  1  1  0  0  0
 11 23  2  0  0  0  0
 13 19  1  0  0  0  0
 13 20  1  0  0  0  0
 14 26  1  0  0  0  0
 14 27  1  0  0  0  0
 15 16  1  0  0  0  0
 18 28  1  0  0  0  0
 19 24  1  0  0  0  0
 20 25  1  0  0  0  0
 23 29  1  0  0  0  0
 27 30  1  0  0  0  0
 28 29  2  0  0  0  0
M  END
> <PUBCHEM_COMPOUND_ID_TYPE>
0

> <PUBCHEM_TOTAL_CHARGE>
0

> <PUBCHEM_SUBSTANCE_ID>
310949866

> <PUBCHEM_SUBSTANCE_VERSION>
1

> <PUBCHEM_EXT_DATASOURCE_NAME>
4488

> <PUBCHEM_EXT_DATASOURCE_REGID>
SCHEMBL16128072

> <PUBCHEM_SUBSTANCE_COMMENT>
InChI=1S/C26H38N4/c1-26(2)20-8-7-19(22(26)15-20)17-29-13-10-21(11-14-29)30-24-6-4-3-5-23(24)28-25(30)18-9-12-27-16-18/h3-6,18-22,27H,7-17H2,1-2H3/t18-,19+,20+,22+/m1/s1
InChIKey=VDXRJGGDODEJQL-AQCRLBJHSA-N

> <PUBCHEM_SUBSTANCE_SYNONYM>
SCHEMBL16128072

> <PUBCHEM_XREF_EXT_ID>
SCHEMBL16128072

> <PUBCHEM_EXT_DATASOURCE_URL>
https://www.surechembl.org/

> <PUBCHEM_EXT_SUBSTANCE_URL>
https://www.surechembl.org/chemical/SCHEMBL16128072

> <PUBCHEM_CID_ASSOCIATIONS>
117615165  1

> <PUBCHEM_COORDINATE_TYPE>
1
3

> <PUBCHEM_BONDANNOTATIONS>
10  17  5
6  12  6
7  12  6
14  8  6

$$$$
