310930289
  -OEChem-07211613022D

 31 34  0     0  0  0  0  0  0999 V2000
    0.0000   -8.9206    0.0000 O   0  0  0  0  0  0  0  0  0  0  0  0
    1.3407   -1.5985    0.0000 O   0  0  0  0  0  0  0  0  0  0  0  0
    2.7329   -1.5985    0.0000 O   0  0  0  0  0  0  0  0  0  0  0  0
    1.3922   -8.1471    0.0000 N   0  0  0  0  0  0  0  0  0  0  0  0
    2.6813   -8.1471    0.0000 N   0  0  0  0  0  0  0  0  0  0  0  0
    2.0625   -2.8360    0.0000 N   0  0  0  0  0  0  0  0  0  0  0  0
    0.0515  -10.3128    0.0000 N   0  0  0  0  0  0  0  0  0  0  0  0
    1.5985   -8.9206    0.0000 C   0  0  0  0  0  0  0  0  0  0  0  0
    2.4751   -8.9206    0.0000 C   0  0  0  0  0  0  0  0  0  0  0  0
    2.0625   -7.6830    0.0000 C   0  0  0  0  0  0  0  0  0  0  0  0
    1.2375   -9.6425    0.0000 C   0  0  0  0  0  0  0  0  0  0  0  0
    2.0625   -6.8580    0.0000 C   0  0  0  0  0  0  0  0  0  0  0  0
    2.8360   -9.6425    0.0000 C   0  0  0  0  0  0  0  0  0  0  0  0
    2.0625   -5.2080    0.0000 C   0  0  0  0  0  0  0  0  0  0  0  0
    1.5985  -10.3128    0.0000 C   0  0  0  0  0  0  0  0  0  0  0  0
    0.4125   -9.6425    0.0000 C   0  0  0  0  0  0  0  0  0  0  0  0
    2.7329   -6.4455    0.0000 C   0  0  0  0  0  0  0  0  0  0  0  0
    1.3407   -6.4455    0.0000 C   0  0  0  0  0  0  0  0  0  0  0  0
    2.0625   -4.4345    0.0000 C   0  0  0  0  0  0  0  0  0  0  0  0
    2.4751  -10.3128    0.0000 C   0  0  0  0  0  0  0  0  0  0  0  0
    2.7329   -5.6204    0.0000 C   0  0  0  0  0  0  0  0  0  0  0  0
    1.3407   -5.6204    0.0000 C   0  0  0  0  0  0  0  0  0  0  0  0
    2.7844   -4.0220    0.0000 C   0  0  0  0  0  0  0  0  0  0  0  0
    1.3407   -4.0220    0.0000 C   0  0  0  0  0  0  0  0  0  0  0  0
    2.0625   -2.0110    0.0000 C   0  0  0  0  0  0  0  0  0  0  0  0
    2.7844   -3.1970    0.0000 C   0  0  0  0  0  0  0  0  0  0  0  0
    1.3407   -3.1970    0.0000 C   0  0  0  0  0  0  0  0  0  0  0  0
    1.3407   -0.7735    0.0000 C   0  0  0  0  0  0  0  0  0  0  0  0
    2.1657   -0.7735    0.0000 C   0  0  0  0  0  0  0  0  0  0  0  0
    1.3407    0.0000    0.0000 C   0  0  0  0  0  0  0  0  0  0  0  0
    0.5672   -0.7735    0.0000 C   0  0  0  0  0  0  0  0  0  0  0  0
  1 16  2  0  0  0  0
  2 25  1  0  0  0  0
  2 28  1  0  0  0  0
  3 25  2  0  0  0  0
  4  8  1  0  0  0  0
  4 10  2  0  0  0  0
  5  9  1  0  0  0  0
  5 10  1  0  0  0  0
  6 25  1  0  0  0  0
  6 26  1  0  0  0  0
  6 27  1  0  0  0  0
  7 16  1  0  0  0  0
  8  9  2  0  0  0  0
  8 11  1  0  0  0  0
  9 13  1  0  0  0  0
 10 12  1  0  0  0  0
 11 15  2  0  0  0  0
 11 16  1  0  0  0  0
 12 17  2  0  0  0  0
 12 18  1  0  0  0  0
 13 20  2  0  0  0  0
 14 19  1  0  0  0  0
 14 21  2  0  0  0  0
 14 22  1  0  0  0  0
 15 20  1  0  0  0  0
 17 21  1  0  0  0  0
 18 22  2  0  0  0  0
 19 23  1  0  0  0  0
 19 24  1  0  0  0  0
 23 26  1  0  0  0  0
 24 27  1  0  0  0  0
 28 29  1  0  0  0  0
 28 30  1  0  0  0  0
 28 31  1  0  0  0  0
M  END
> <PUBCHEM_COMPOUND_ID_TYPE>
0

> <PUBCHEM_TOTAL_CHARGE>
0

> <PUBCHEM_SUBSTANCE_ID>
310930289

> <PUBCHEM_SUBSTANCE_VERSION>
1

> <PUBCHEM_EXT_DATASOURCE_NAME>
4488

> <PUBCHEM_EXT_DATASOURCE_REGID>
SCHEMBL16107567

> <PUBCHEM_SUBSTANCE_COMMENT>
InChI=1S/C24H28N4O3/c1-24(2,3)31-23(30)28-13-11-16(12-14-28)15-7-9-17(10-8-15)22-26-19-6-4-5-18(21(25)29)20(19)27-22/h4-10,16H,11-14H2,1-3H3,(H2,25,29)(H,26,27)
InChIKey=IOKJILPFWILRTH-UHFFFAOYSA-N

> <PUBCHEM_SUBSTANCE_SYNONYM>
SCHEMBL16107567

> <PUBCHEM_XREF_EXT_ID>
SCHEMBL16107567

> <PUBCHEM_EXT_DATASOURCE_URL>
https://www.surechembl.org/

> <PUBCHEM_EXT_SUBSTANCE_URL>
https://www.surechembl.org/chemical/SCHEMBL16107567

> <PUBCHEM_CID_ASSOCIATIONS>
117599471  1

> <PUBCHEM_COORDINATE_TYPE>
1
3

$$$$
