310942477
  -OEChem-07211613022D

 30 32  0     0  0  0  0  0  0999 V2000
   -2.2565   -1.7990    0.0000 Cl  0  0  0  0  0  0  0  0  0  0  0  0
   -3.3322   -2.1328    0.0000 Cl  0  0  0  0  0  0  0  0  0  0  0  0
   -3.6289   -1.0571    0.0000 Cl  0  0  0  0  0  0  0  0  0  0  0  0
   -3.6412    1.0448    0.0000 Cl  0  0  0  0  0  0  0  0  0  0  0  0
   -3.3199    2.1328    0.0000 Cl  0  0  0  0  0  0  0  0  0  0  0  0
   -2.2442    1.7866    0.0000 Cl  0  0  0  0  0  0  0  0  0  0  0  0
    0.7480    0.7109    0.0000 O   0  0  0  0  0  0  0  0  0  0  0  0
   -2.9365    0.0062    0.0000 N   0  0  0  0  0  0  0  0  0  0  0  0
   -1.7001    0.7233    0.0000 N   0  0  0  0  0  0  0  0  0  0  0  0
   -1.7001   -0.7109    0.0000 N   0  0  0  0  0  0  0  0  0  0  0  0
   -2.5409   -0.6986    0.0000 C   0  0  0  0  0  0  0  0  0  0  0  0
   -2.5409    0.7233    0.0000 C   0  0  0  0  0  0  0  0  0  0  0  0
   -2.9489   -1.4281    0.0000 C   0  0  0  0  0  0  0  0  0  0  0  0
   -2.9489    1.4281    0.0000 C   0  0  0  0  0  0  0  0  0  0  0  0
   -1.3044    0.0186    0.0000 C   0  0  0  0  0  0  0  0  0  0  0  0
   -0.4637   -0.0062    0.0000 C   0  0  0  0  0  0  0  0  0  0  0  0
    0.7604   -0.7109    0.0000 C   0  0  0  0  0  0  0  0  0  0  0  0
   -0.0680   -0.6986    0.0000 C   0  0  0  0  0  0  0  0  0  0  0  0
    1.1684    0.0062    0.0000 C   0  0  0  0  0  0  0  0  0  0  0  0
    1.1684   -1.4157    0.0000 C   0  0  0  0  0  0  0  0  0  0  0  0
    1.9968   -0.0062    0.0000 C   0  0  0  0  0  0  0  0  0  0  0  0
    1.9968   -1.4157    0.0000 C   0  0  0  0  0  0  0  0  0  0  0  0
    2.4048   -0.6986    0.0000 C   0  0  0  0  0  0  0  0  0  0  0  0
    1.1807    1.4405    0.0000 C   0  0  0  0  0  0  0  0  0  0  0  0
    1.9968    1.4405    0.0000 C   0  0  0  0  0  0  0  0  0  0  0  0
    2.4172    0.7233    0.0000 C   0  0  0  0  0  0  0  0  0  0  0  0
    2.4048    2.1328    0.0000 C   0  0  0  0  0  0  0  0  0  0  0  0
    3.2333    0.7233    0.0000 C   0  0  0  0  0  0  0  0  0  0  0  0
    3.2333    2.1328    0.0000 C   0  0  0  0  0  0  0  0  0  0  0  0
    3.6412    1.4405    0.0000 C   0  0  0  0  0  0  0  0  0  0  0  0
  1 13  1  0  0  0  0
  2 13  1  0  0  0  0
  3 13  1  0  0  0  0
  4 14  1  0  0  0  0
  5 14  1  0  0  0  0
  6 14  1  0  0  0  0
  7 19  1  0  0  0  0
  7 24  1  0  0  0  0
  8 11  2  0  0  0  0
  8 12  1  0  0  0  0
  9 12  2  0  0  0  0
  9 15  1  0  0  0  0
 10 11  1  0  0  0  0
 10 15  2  0  0  0  0
 11 13  1  0  0  0  0
 12 14  1  0  0  0  0
 15 16  1  0  0  0  0
 16 18  2  0  0  0  0
 17 18  1  0  0  0  0
 17 19  1  0  0  0  0
 17 20  2  0  0  0  0
 19 21  2  0  0  0  0
 20 22  1  0  0  0  0
 21 23  1  0  0  0  0
 22 23  2  0  0  0  0
 24 25  1  0  0  0  0
 25 26  2  0  0  0  0
 25 27  1  0  0  0  0
 26 28  1  0  0  0  0
 27 29  2  0  0  0  0
 28 30  2  0  0  0  0
 29 30  1  0  0  0  0
M  END
> <PUBCHEM_COMPOUND_ID_TYPE>
0

> <PUBCHEM_TOTAL_CHARGE>
0

> <PUBCHEM_SUBSTANCE_ID>
310942477

> <PUBCHEM_SUBSTANCE_VERSION>
1

> <PUBCHEM_EXT_DATASOURCE_NAME>
4488

> <PUBCHEM_EXT_DATASOURCE_REGID>
SCHEMBL16120513

> <PUBCHEM_SUBSTANCE_COMMENT>
InChI=1S/C20H13Cl6N3O/c21-19(22,23)17-27-16(28-18(29-17)20(24,25)26)11-10-14-8-4-5-9-15(14)30-12-13-6-2-1-3-7-13/h1-11H,12H2/b11-10+
InChIKey=JAIBMMXTHSNZHK-ZHACJKMWSA-N

> <PUBCHEM_SUBSTANCE_SYNONYM>
SCHEMBL16120513

> <PUBCHEM_XREF_EXT_ID>
SCHEMBL16120513

> <PUBCHEM_EXT_DATASOURCE_URL>
https://www.surechembl.org/

> <PUBCHEM_EXT_SUBSTANCE_URL>
https://www.surechembl.org/chemical/SCHEMBL16120513

> <PUBCHEM_CID_ASSOCIATIONS>
117609048  1

> <PUBCHEM_COORDINATE_TYPE>
1
3

$$$$
