310947580
  -OEChem-07211613022D

 23 25  0     1  0  0  0  0  0999 V2000
   -3.4047    6.9933    0.0000 F   0  0  0  0  0  0  0  0  0  0  0  0
   -2.5797    8.9773    0.0000 O   0  0  0  0  0  0  0  0  0  0  0  0
   -1.7547    6.9933    0.0000 O   0  0  0  0  0  0  0  0  0  0  0  0
    0.3013   11.2223    0.0000 O   0  0  0  0  0  0  0  0  0  0  0  0
   -4.6274    8.8622    0.0000 O   0  0  0  0  0  0  0  0  0  0  0  0
   -1.1978    8.9049    0.0000 N   0  0  0  0  0  0  0  0  0  0  0  0
   -1.1978   10.2397    0.0000 N   0  0  0  0  0  0  0  0  0  0  0  0
    0.3013    8.7473    0.0000 N   0  0  0  0  0  0  0  0  0  0  0  0
    1.0158    9.9848    0.0000 N   0  0  0  0  0  0  0  0  0  0  0  0
   -1.9122    8.4924    0.0000 C   0  0  3  0  0  0  0  0  0  0  0  0
   -2.1672    7.7077    0.0000 C   0  0  3  0  0  0  0  0  0  0  0  0
   -0.4132    9.1598    0.0000 C   0  0  0  0  0  0  0  0  0  0  0  0
   -2.9922    7.7077    0.0000 C   0  0  3  0  0  0  0  0  0  0  0  0
   -0.4132    9.9848    0.0000 C   0  0  0  0  0  0  0  0  0  0  0  0
   -3.2471    8.4924    0.0000 C   0  0  3  0  0  0  0  0  0  0  0  0
   -1.6827    9.5723    0.0000 C   0  0  0  0  0  0  0  0  0  0  0  0
    0.3013   10.3973    0.0000 C   0  0  0  0  0  0  0  0  0  0  0  0
   -1.3703    7.9213    0.0000 C   0  0  0  0  0  0  0  0  0  0  0  0
    1.0158    9.1598    0.0000 C   0  0  0  0  0  0  0  0  0  0  0  0
   -3.8305    9.0757    0.0000 C   0  0  0  0  0  0  0  0  0  0  0  0
    1.7303    8.7473    0.0000 C   0  0  0  0  0  0  0  0  0  0  0  0
    1.0158   11.6348    0.0000 C   0  0  0  0  0  0  0  0  0  0  0  0
    1.7303   11.2223    0.0000 C   0  0  0  0  0  0  0  0  0  0  0  0
 13  1  1  6  0  0  0
 10  2  1  6  0  0  0
  2 15  1  0  0  0  0
 11  3  1  6  0  0  0
  4 17  1  0  0  0  0
  4 22  1  0  0  0  0
  5 20  1  0  0  0  0
  6 10  1  0  0  0  0
  6 12  1  0  0  0  0
  6 16  1  0  0  0  0
  7 14  1  0  0  0  0
  7 16  2  0  0  0  0
  8 12  1  0  0  0  0
  8 19  2  0  0  0  0
  9 17  2  0  0  0  0
  9 19  1  0  0  0  0
 10 11  1  0  0  0  0
 11 13  1  0  0  0  0
 11 18  1  1  0  0  0
 12 14  2  0  0  0  0
 13 15  1  0  0  0  0
 14 17  1  0  0  0  0
 15 20  1  1  0  0  0
 19 21  1  0  0  0  0
 22 23  1  0  0  0  0
M  END
> <PUBCHEM_COMPOUND_ID_TYPE>
0

> <PUBCHEM_TOTAL_CHARGE>
0

> <PUBCHEM_SUBSTANCE_ID>
310947580

> <PUBCHEM_SUBSTANCE_VERSION>
1

> <PUBCHEM_EXT_DATASOURCE_NAME>
4488

> <PUBCHEM_EXT_DATASOURCE_REGID>
SCHEMBL16125743

> <PUBCHEM_SUBSTANCE_COMMENT>
InChI=1S/C14H19FN4O4/c1-4-22-12-9-11(17-7(2)18-12)19(6-16-9)13-14(3,21)10(15)8(5-20)23-13/h6,8,10,13,20-21H,4-5H2,1-3H3/t8-,10-,13+,14-/m1/s1
InChIKey=LFRJXTZGYJAGGS-UMGHXEBTSA-N

> <PUBCHEM_SUBSTANCE_SYNONYM>
SCHEMBL16125743

> <PUBCHEM_XREF_EXT_ID>
SCHEMBL16125743

> <PUBCHEM_EXT_DATASOURCE_URL>
https://www.surechembl.org/

> <PUBCHEM_EXT_SUBSTANCE_URL>
https://www.surechembl.org/chemical/SCHEMBL16125743

> <PUBCHEM_CID_ASSOCIATIONS>
117613302  1

> <PUBCHEM_COORDINATE_TYPE>
1
3

> <PUBCHEM_BONDANNOTATIONS>
13  1  6
11  18  5
15  20  5
10  2  6
11  3  6

$$$$
