310948399
  -OEChem-07211613022D

 32 35  0     1  0  0  0  0  0999 V2000
    1.1747   -1.8961    0.0000 F   0  0  0  0  0  0  0  0  0  0  0  0
    2.1736   -1.9886    0.0000 F   0  0  0  0  0  0  0  0  0  0  0  0
    1.8776   -3.3945    0.0000 F   0  0  0  0  0  0  0  0  0  0  0  0
   -2.5991    1.7481    0.0000 O   0  0  0  0  0  0  0  0  0  0  0  0
    0.1758    1.5817    0.0000 N   0  0  0  0  0  0  0  0  0  0  0  0
   -0.1758    0.8417    0.0000 N   0  0  0  0  0  0  0  0  0  0  0  0
   -1.5631    0.3053    0.0000 N   0  0  0  0  0  0  0  0  0  0  0  0
   -1.8776    2.9875    0.0000 N   0  0  0  0  0  0  0  0  0  0  0  0
    1.0452   -0.4532    0.0000 N   0  0  0  0  0  0  0  0  0  0  0  0
    0.2312   -3.0246    0.0000 N   0  0  0  0  0  0  0  0  0  0  0  0
   -1.1562    1.7481    0.0000 C   0  0  0  0  0  0  0  0  0  0  0  0
   -0.4532    2.1551    0.0000 C   0  0  0  0  0  0  0  0  0  0  0  0
   -1.0082    0.9527    0.0000 C   0  0  0  0  0  0  0  0  0  0  0  0
    0.9712    1.7666    0.0000 C   0  0  3  0  0  0  0  0  0  0  0  0
   -1.8776    2.1921    0.0000 C   0  0  0  0  0  0  0  0  0  0  0  0
   -0.4348    2.9690    0.0000 C   0  0  0  0  0  0  0  0  0  0  0  0
    1.5261    1.1376    0.0000 C   0  0  3  0  0  0  0  0  0  0  0  0
   -1.1932    3.3945    0.0000 C   0  0  0  0  0  0  0  0  0  0  0  0
    1.2486    2.5251    0.0000 C   0  0  0  0  0  0  0  0  0  0  0  0
   -1.3227   -0.4717    0.0000 C   0  0  0  0  0  0  0  0  0  0  0  0
    2.3401    1.3042    0.0000 C   0  0  0  0  0  0  0  0  0  0  0  0
    1.2671    0.3237    0.0000 C   0  0  0  0  0  0  0  0  0  0  0  0
    2.0626    2.6915    0.0000 C   0  0  0  0  0  0  0  0  0  0  0  0
   -1.8592   -1.1007    0.0000 C   0  0  0  0  0  0  0  0  0  0  0  0
   -0.5087   -0.6567    0.0000 C   0  0  0  0  0  0  0  0  0  0  0  0
    2.5991    2.0996    0.0000 C   0  0  0  0  0  0  0  0  0  0  0  0
   -0.8232   -2.0626    0.0000 C   0  0  0  0  0  0  0  0  0  0  0  0
   -1.6187   -1.8776    0.0000 C   0  0  0  0  0  0  0  0  0  0  0  0
   -0.2682   -1.4522    0.0000 C   0  0  0  0  0  0  0  0  0  0  0  0
   -0.5642   -2.8395    0.0000 C   0  0  0  0  0  0  0  0  0  0  0  0
    1.6002   -2.5806    0.0000 C   0  0  0  0  0  0  0  0  0  0  0  0
    0.8047   -2.4141    0.0000 C   0  0  0  0  0  0  0  0  0  0  0  0
  1 31  1  0  0  0  0
  2 31  1  0  0  0  0
  3 31  1  0  0  0  0
  4 15  2  0  0  0  0
  5  6  1  0  0  0  0
  5 12  1  0  0  0  0
 14  5  1  1  0  0  0
  6 13  2  0  0  0  0
  7 13  1  0  0  0  0
  7 20  1  0  0  0  0
  8 15  1  0  0  0  0
  8 18  1  0  0  0  0
  9 22  3  0  0  0  0
 10 30  1  0  0  0  0
 10 32  1  0  0  0  0
 11 12  2  0  0  0  0
 11 13  1  0  0  0  0
 11 15  1  0  0  0  0
 12 16  1  0  0  0  0
 14 17  1  0  0  0  0
 14 19  1  0  0  0  0
 16 18  2  0  0  0  0
 17 21  1  0  0  0  0
 17 22  1  6  0  0  0
 19 23  1  0  0  0  0
 20 24  2  0  0  0  0
 20 25  1  0  0  0  0
 21 26  1  0  0  0  0
 23 26  1  0  0  0  0
 24 28  1  0  0  0  0
 25 29  2  0  0  0  0
 27 28  2  0  0  0  0
 27 29  1  0  0  0  0
 27 30  1  0  0  0  0
 31 32  1  0  0  0  0
M  END
> <PUBCHEM_COMPOUND_ID_TYPE>
0

> <PUBCHEM_TOTAL_CHARGE>
0

> <PUBCHEM_SUBSTANCE_ID>
310948399

> <PUBCHEM_SUBSTANCE_VERSION>
1

> <PUBCHEM_EXT_DATASOURCE_NAME>
4488

> <PUBCHEM_EXT_DATASOURCE_REGID>
SCHEMBL16126580

> <PUBCHEM_SUBSTANCE_COMMENT>
InChI=1S/C22H23F3N6O/c23-22(24,25)13-27-12-14-5-7-16(8-6-14)29-20-19-18(9-10-28-21(19)32)31(30-20)17-4-2-1-3-15(17)11-26/h5-10,15,17,27H,1-4,12-13H2,(H,28,32)(H,29,30)/t15-,17+/m1/s1
InChIKey=DZIFEFVITXIJIK-WBVHZDCISA-N

> <PUBCHEM_SUBSTANCE_SYNONYM>
SCHEMBL16126580

> <PUBCHEM_XREF_EXT_ID>
SCHEMBL16126580

> <PUBCHEM_EXT_DATASOURCE_URL>
https://www.surechembl.org/

> <PUBCHEM_EXT_SUBSTANCE_URL>
https://www.surechembl.org/chemical/SCHEMBL16126580

> <PUBCHEM_CID_ASSOCIATIONS>
117613960  1

> <PUBCHEM_COORDINATE_TYPE>
1
3

> <PUBCHEM_BONDANNOTATIONS>
17  22  6
14  5  5

$$$$
