310949466
  -OEChem-07211613022D

 28 31  0     1  0  0  0  0  0999 V2000
   -3.4356    0.7005    0.0000 F   0  0  0  0  0  0  0  0  0  0  0  0
   -3.7453    1.7768    0.0000 F   0  0  0  0  0  0  0  0  0  0  0  0
   -2.6688    2.0864    0.0000 F   0  0  0  0  0  0  0  0  0  0  0  0
   -0.2065    2.2339    0.0000 O   0  0  0  0  0  0  0  0  0  0  0  0
    2.6983   -0.0959    0.0000 N   0  0  0  0  0  0  0  0  0  0  0  0
    0.5014    1.0100    0.0000 N   0  0  0  0  0  0  0  0  0  0  0  0
    2.6983    1.2607    0.0000 N   0  0  0  0  0  0  0  0  0  0  0  0
    3.1849    0.5825    0.0000 N   0  0  0  0  0  0  0  0  0  0  0  0
    3.7453   -1.1427    0.0000 N   0  0  0  0  0  0  0  0  0  0  0  0
    3.7453   -1.9685    0.0000 N   0  0  0  0  0  0  0  0  0  0  0  0
    1.9169    0.1696    0.0000 C   0  0  0  0  0  0  0  0  0  0  0  0
    1.9316    0.9953    0.0000 C   0  0  0  0  0  0  0  0  0  0  0  0
   -0.2212    1.4082    0.0000 C   0  0  0  0  0  0  0  0  0  0  0  0
    0.5014    0.1548    0.0000 C   0  0  3  0  0  0  0  0  0  0  0  0
    1.1796    1.4082    0.0000 C   0  0  0  0  0  0  0  0  0  0  0  0
   -0.9142    0.9953    0.0000 C   0  0  0  0  0  0  0  0  0  0  0  0
    1.2238   -0.2433    0.0000 C   0  0  0  0  0  0  0  0  0  0  0  0
    2.9490   -0.8626    0.0000 C   0  0  0  0  0  0  0  0  0  0  0  0
   -1.6367    1.4082    0.0000 C   0  0  0  0  0  0  0  0  0  0  0  0
   -2.3444    1.0100    0.0000 C   0  0  0  0  0  0  0  0  0  0  0  0
   -3.0522    1.4082    0.0000 C   0  0  0  0  0  0  0  0  0  0  0  0
   -0.9289    0.1696    0.0000 C   0  0  0  0  0  0  0  0  0  0  0  0
   -2.3444    0.1696    0.0000 C   0  0  0  0  0  0  0  0  0  0  0  0
    2.4771   -1.5704    0.0000 C   0  0  0  0  0  0  0  0  0  0  0  0
   -1.6367   -0.2433    0.0000 C   0  0  0  0  0  0  0  0  0  0  0  0
   -0.1770   -0.2433    0.0000 C   0  0  0  0  0  0  0  0  0  0  0  0
   -1.6367    2.2339    0.0000 C   0  0  0  0  0  0  0  0  0  0  0  0
    2.9785   -2.2339    0.0000 C   0  0  0  0  0  0  0  0  0  0  0  0
  1 21  1  0  0  0  0
  2 21  1  0  0  0  0
  3 21  1  0  0  0  0
  4 13  2  0  0  0  0
  5  8  1  0  0  0  0
  5 11  1  0  0  0  0
  5 18  1  0  0  0  0
  6 13  1  0  0  0  0
  6 14  1  0  0  0  0
  6 15  1  0  0  0  0
  7  8  2  0  0  0  0
  7 12  1  0  0  0  0
  9 10  1  0  0  0  0
  9 18  1  0  0  0  0
 10 28  2  0  0  0  0
 11 12  2  0  0  0  0
 11 17  1  0  0  0  0
 12 15  1  0  0  0  0
 13 16  1  0  0  0  0
 14 17  1  0  0  0  0
 14 26  1  6  0  0  0
 16 19  2  0  0  0  0
 16 22  1  0  0  0  0
 18 24  2  0  0  0  0
 19 20  1  0  0  0  0
 19 27  1  0  0  0  0
 20 21  1  0  0  0  0
 20 23  2  0  0  0  0
 22 25  2  0  0  0  0
 23 25  1  0  0  0  0
 24 28  1  0  0  0  0
M  END
> <PUBCHEM_COMPOUND_ID_TYPE>
0

> <PUBCHEM_TOTAL_CHARGE>
0

> <PUBCHEM_SUBSTANCE_ID>
310949466

> <PUBCHEM_SUBSTANCE_VERSION>
1

> <PUBCHEM_EXT_DATASOURCE_NAME>
4488

> <PUBCHEM_EXT_DATASOURCE_REGID>
SCHEMBL16127660

> <PUBCHEM_SUBSTANCE_COMMENT>
InChI=1S/C18H17F3N6O/c1-10-8-15-14(23-25-27(15)16-6-7-22-24-16)9-26(10)17(28)12-4-3-5-13(11(12)2)18(19,20)21/h3-7,10H,8-9H2,1-2H3,(H,22,24)/t10-/m0/s1
InChIKey=DFBQVWUVWWXOKB-JTQLQIEISA-N

> <PUBCHEM_SUBSTANCE_SYNONYM>
SCHEMBL16127660

> <PUBCHEM_XREF_EXT_ID>
SCHEMBL16127660

> <PUBCHEM_EXT_DATASOURCE_URL>
https://www.surechembl.org/

> <PUBCHEM_EXT_SUBSTANCE_URL>
https://www.surechembl.org/chemical/SCHEMBL16127660

> <PUBCHEM_CID_ASSOCIATIONS>
90460012  1

> <PUBCHEM_COORDINATE_TYPE>
1
3

> <PUBCHEM_BONDANNOTATIONS>
14  26  6

$$$$
