310940697
  -OEChem-07211613022D

 22 24  0     0  0  0  0  0  0999 V2000
    0.4336    1.7847    0.0000 O   0  0  0  0  0  0  0  0  0  0  0  0
   -0.2576    0.5404    0.0000 N   0  0  0  0  0  0  0  0  0  0  0  0
    1.1626    0.5404    0.0000 N   0  0  0  0  0  0  0  0  0  0  0  0
   -0.2703   -1.9481    0.0000 N   0  0  0  0  0  0  0  0  0  0  0  0
   -0.2954   -0.2765    0.0000 C   0  0  0  0  0  0  0  0  0  0  0  0
    0.4085    0.9552    0.0000 C   0  0  0  0  0  0  0  0  0  0  0  0
   -1.0117    0.9678    0.0000 C   0  0  0  0  0  0  0  0  0  0  0  0
   -1.7156    0.5530    0.0000 C   0  0  0  0  0  0  0  0  0  0  0  0
    1.8287    0.9678    0.0000 C   0  0  0  0  0  0  0  0  0  0  0  0
   -1.0117   -0.6913    0.0000 C   0  0  0  0  0  0  0  0  0  0  0  0
    0.4210   -0.7038    0.0000 C   0  0  0  0  0  0  0  0  0  0  0  0
   -1.0117   -1.5082    0.0000 C   0  0  0  0  0  0  0  0  0  0  0  0
    0.4085   -1.5333    0.0000 C   0  0  0  0  0  0  0  0  0  0  0  0
   -2.4320    0.9552    0.0000 C   0  0  0  0  0  0  0  0  0  0  0  0
   -1.7281   -0.2765    0.0000 C   0  0  0  0  0  0  0  0  0  0  0  0
    1.9293    1.7847    0.0000 C   0  0  0  0  0  0  0  0  0  0  0  0
    2.5828    0.6284    0.0000 C   0  0  0  0  0  0  0  0  0  0  0  0
    2.7337    1.9481    0.0000 C   0  0  0  0  0  0  0  0  0  0  0  0
    3.1358    1.2443    0.0000 C   0  0  0  0  0  0  0  0  0  0  0  0
   -3.1358    0.5530    0.0000 C   0  0  0  0  0  0  0  0  0  0  0  0
   -2.4194   -0.6913    0.0000 C   0  0  0  0  0  0  0  0  0  0  0  0
   -3.1358   -0.2765    0.0000 C   0  0  0  0  0  0  0  0  0  0  0  0
  1  6  2  0  0  0  0
  2  5  1  0  0  0  0
  2  6  1  0  0  0  0
  2  7  1  0  0  0  0
  3  6  1  0  0  0  0
  3  9  1  0  0  0  0
  4 12  1  0  0  0  0
  4 13  1  0  0  0  0
  5 10  1  0  0  0  0
  5 11  1  0  0  0  0
  7  8  1  0  0  0  0
  8 14  2  0  0  0  0
  8 15  1  0  0  0  0
  9 16  1  0  0  0  0
  9 17  1  0  0  0  0
 10 12  1  0  0  0  0
 11 13  1  0  0  0  0
 14 20  1  0  0  0  0
 15 21  2  0  0  0  0
 16 18  1  0  0  0  0
 17 19  1  0  0  0  0
 18 19  1  0  0  0  0
 20 22  2  0  0  0  0
 21 22  1  0  0  0  0
M  END
> <PUBCHEM_COMPOUND_ID_TYPE>
0

> <PUBCHEM_TOTAL_CHARGE>
0

> <PUBCHEM_SUBSTANCE_ID>
310940697

> <PUBCHEM_SUBSTANCE_VERSION>
1

> <PUBCHEM_EXT_DATASOURCE_NAME>
4488

> <PUBCHEM_EXT_DATASOURCE_REGID>
SCHEMBL16118653

> <PUBCHEM_SUBSTANCE_COMMENT>
InChI=1S/C18H27N3O/c22-18(20-16-8-4-5-9-16)21(17-10-12-19-13-11-17)14-15-6-2-1-3-7-15/h1-3,6-7,16-17,19H,4-5,8-14H2,(H,20,22)
InChIKey=DUFFAXLUSGUUOC-UHFFFAOYSA-N

> <PUBCHEM_SUBSTANCE_SYNONYM>
SCHEMBL16118653

> <PUBCHEM_XREF_EXT_ID>
SCHEMBL16118653

> <PUBCHEM_EXT_DATASOURCE_URL>
https://www.surechembl.org/

> <PUBCHEM_EXT_SUBSTANCE_URL>
https://www.surechembl.org/chemical/SCHEMBL16118653

> <PUBCHEM_CID_ASSOCIATIONS>
86300215  1

> <PUBCHEM_COORDINATE_TYPE>
1
3

$$$$
