310946814
  -OEChem-07211613022D

 38 42  0     1  0  0  0  0  0999 V2000
   -0.6247   -3.2153    0.0000 S   0  0  0  0  0  0  0  0  0  0  0  0
   -1.3411   -3.6317    0.0000 O   0  0  0  0  0  0  0  0  0  0  0  0
   -0.4082   -4.0149    0.0000 O   0  0  0  0  0  0  0  0  0  0  0  0
   -2.8571    1.2828    0.0000 O   0  0  0  0  0  0  0  0  0  0  0  0
   -0.0916    1.1329    0.0000 N   0  0  0  0  0  0  0  0  0  0  0  0
    0.1916   -3.0487    0.0000 N   0  0  3  0  0  0  0  0  0  0  0  0
   -0.4248    0.3665    0.0000 N   0  0  0  0  0  0  0  0  0  0  0  0
   -1.8075   -0.1499    0.0000 N   0  0  0  0  0  0  0  0  0  0  0  0
   -2.1407    2.4989    0.0000 N   0  0  0  0  0  0  0  0  0  0  0  0
    1.3578    3.6817    0.0000 N   0  0  0  0  0  0  0  0  0  0  0  0
    2.8571    1.0162    0.0000 N   0  0  0  0  0  0  0  0  0  0  0  0
   -0.7247    1.6826    0.0000 C   0  0  0  0  0  0  0  0  0  0  0  0
    0.6747    1.3328    0.0000 C   0  0  0  0  0  0  0  0  0  0  0  0
   -1.0412   -2.4989    0.0000 C   0  0  0  0  0  0  0  0  0  0  0  0
   -1.4078    1.2828    0.0000 C   0  0  0  0  0  0  0  0  0  0  0  0
   -1.2578    0.4832    0.0000 C   0  0  0  0  0  0  0  0  0  0  0  0
   -0.4914   -1.8825    0.0000 C   0  0  0  0  0  0  0  0  0  0  0  0
    0.2749   -2.2157    0.0000 C   0  0  0  0  0  0  0  0  0  0  0  0
    0.8246   -3.5984    0.0000 C   0  0  0  0  0  0  0  0  0  0  0  0
   -1.5576   -0.8996    0.0000 C   0  0  0  0  0  0  0  0  0  0  0  0
   -2.1241    1.7159    0.0000 C   0  0  0  0  0  0  0  0  0  0  0  0
   -0.7413   -1.0995    0.0000 C   0  0  0  0  0  0  0  0  0  0  0  0
   -1.8409   -2.3157    0.0000 C   0  0  0  0  0  0  0  0  0  0  0  0
   -0.7080    2.5155    0.0000 C   0  0  0  0  0  0  0  0  0  0  0  0
    0.1416    1.8825    0.0000 C   0  0  0  0  0  0  0  0  0  0  0  0
    1.5076    1.5326    0.0000 C   0  0  0  0  0  0  0  0  0  0  0  0
   -2.0741   -1.5326    0.0000 C   0  0  0  0  0  0  0  0  0  0  0  0
    1.2578    0.6830    0.0000 C   0  0  0  0  0  0  0  0  0  0  0  0
   -1.4411    2.9154    0.0000 C   0  0  0  0  0  0  0  0  0  0  0  0
    0.3415    2.6655    0.0000 C   0  0  0  0  0  0  0  0  0  0  0  0
    1.7076    2.3157    0.0000 C   0  0  0  0  0  0  0  0  0  0  0  0
    1.1412    2.8821    0.0000 C   0  0  0  0  0  0  0  0  0  0  0  0
    1.6076   -3.3486    0.0000 C   0  0  0  0  0  0  0  0  0  0  0  0
    1.3911   -4.1982    0.0000 C   0  0  0  0  0  0  0  0  0  0  0  0
    0.6414   -4.4147    0.0000 C   0  0  0  0  0  0  0  0  0  0  0  0
    2.0574    0.8663    0.0000 C   0  0  0  0  0  0  0  0  0  0  0  0
    0.9246    4.4147    0.0000 C   0  0  0  0  0  0  0  0  0  0  0  0
    2.0908    4.1149    0.0000 C   0  0  0  0  0  0  0  0  0  0  0  0
  1  2  2  0  0  0  0
  1  3  2  0  0  0  0
  1  6  1  0  0  0  0
  1 14  1  0  0  0  0
  4 21  2  0  0  0  0
  5  7  1  0  0  0  0
  5 12  1  0  0  0  0
  5 13  1  0  0  0  0
  6 18  1  0  0  0  0
  6 19  1  0  0  0  0
  7 16  2  0  0  0  0
  8 16  1  0  0  0  0
  8 20  1  0  0  0  0
  9 21  1  0  0  0  0
  9 29  1  0  0  0  0
 32 10  1  1  0  0  0
 10 37  1  0  0  0  0
 10 38  1  0  0  0  0
 11 36  3  0  0  0  0
 12 15  2  0  0  0  0
 12 24  1  0  0  0  0
 13 25  1  0  0  0  0
 13 26  1  0  0  0  0
 13 28  1  6  0  0  0
 14 17  1  0  0  0  0
 14 23  2  0  0  0  0
 15 16  1  0  0  0  0
 15 21  1  0  0  0  0
 17 18  1  0  0  0  0
 17 22  2  0  0  0  0
 19 33  1  0  0  0  0
 19 34  1  0  0  0  0
 19 35  1  0  0  0  0
 20 22  1  0  0  0  0
 20 27  2  0  0  0  0
 23 27  1  0  0  0  0
 24 29  2  0  0  0  0
 25 30  1  0  0  0  0
 26 31  1  0  0  0  0
 28 36  1  0  0  0  0
 30 32  1  0  0  0  0
 31 32  1  0  0  0  0
M  END
> <PUBCHEM_COMPOUND_ID_TYPE>
0

> <PUBCHEM_TOTAL_CHARGE>
0

> <PUBCHEM_SUBSTANCE_ID>
310946814

> <PUBCHEM_SUBSTANCE_VERSION>
1

> <PUBCHEM_EXT_DATASOURCE_NAME>
4488

> <PUBCHEM_EXT_DATASOURCE_REGID>
SCHEMBL16124938

> <PUBCHEM_SUBSTANCE_COMMENT>
InChI=1S/C27H35N7O3S/c1-26(2,3)33-17-18-16-19(6-7-22(18)38(33,36)37)30-24-23-21(10-15-29-25(23)35)34(31-24)27(13-14-28)11-8-20(9-12-27)32(4)5/h6-7,10,15-16,20H,8-9,11-13,17H2,1-5H3,(H,29,35)(H,30,31)/t20-,27+
InChIKey=RIODUGQVHIQIAQ-GHKKRPSHSA-N

> <PUBCHEM_SUBSTANCE_SYNONYM>
SCHEMBL16124938

> <PUBCHEM_XREF_EXT_ID>
SCHEMBL16124938

> <PUBCHEM_EXT_DATASOURCE_URL>
https://www.surechembl.org/

> <PUBCHEM_EXT_SUBSTANCE_URL>
https://www.surechembl.org/chemical/SCHEMBL16124938

> <PUBCHEM_CID_ASSOCIATIONS>
117612675  1

> <PUBCHEM_COORDINATE_TYPE>
1
3

> <PUBCHEM_BONDANNOTATIONS>
32  10  5
13  28  6

$$$$
