310943947
  -OEChem-07211613022D

 36 41  0     0  0  0  0  0  0999 V2000
    2.0891    3.5984    0.0000 F   0  0  0  0  0  0  0  0  0  0  0  0
    0.6054    1.1085    0.0000 N   0  0  0  0  0  0  0  0  0  0  0  0
   -0.0938    3.0868    0.0000 N   0  0  0  0  0  0  0  0  0  0  0  0
    4.2720    3.1721    0.0000 N   0  0  0  0  0  0  0  0  0  0  0  0
   -0.1791    1.4496    0.0000 C   0  0  0  0  0  0  0  0  0  0  0  0
    0.5202    0.3070    0.0000 C   0  0  0  0  0  0  0  0  0  0  0  0
   -0.2985    0.1365    0.0000 C   0  0  0  0  0  0  0  0  0  0  0  0
   -0.7077    0.8356    0.0000 C   0  0  0  0  0  0  0  0  0  0  0  0
    1.3387    1.5349    0.0000 C   0  0  0  0  0  0  0  0  0  0  0  0
    1.3558    2.3705    0.0000 C   0  0  0  0  0  0  0  0  0  0  0  0
   -0.5372   -0.6310    0.0000 C   0  0  0  0  0  0  0  0  0  0  0  0
   -1.5263    0.9891    0.0000 C   0  0  0  0  0  0  0  0  0  0  0  0
   -0.4179    2.2171    0.0000 C   0  0  0  0  0  0  0  0  0  0  0  0
    1.0659   -0.2728    0.0000 C   0  0  0  0  0  0  0  0  0  0  0  0
    0.0256   -1.2450    0.0000 C   0  0  0  0  0  0  0  0  0  0  0  0
   -1.7992    1.7737    0.0000 C   0  0  0  0  0  0  0  0  0  0  0  0
    2.0891    1.1597    0.0000 C   0  0  0  0  0  0  0  0  0  0  0  0
    2.0720    2.7798    0.0000 C   0  0  0  0  0  0  0  0  0  0  0  0
   -1.2705    2.3705    0.0000 C   0  0  0  0  0  0  0  0  0  0  0  0
    0.8442   -1.0573    0.0000 C   0  0  0  0  0  0  0  0  0  0  0  0
    2.8395    2.3876    0.0000 C   0  0  0  0  0  0  0  0  0  0  0  0
   -0.2643   -2.0294    0.0000 C   0  0  0  0  0  0  0  0  0  0  0  0
   -2.6348    1.9271    0.0000 C   0  0  0  0  0  0  0  0  0  0  0  0
    2.8395    1.5860    0.0000 C   0  0  0  0  0  0  0  0  0  0  0  0
    0.6225    2.7457    0.0000 C   0  0  0  0  0  0  0  0  0  0  0  0
    3.5558    2.7969    0.0000 C   0  0  0  0  0  0  0  0  0  0  0  0
   -1.0659   -2.2171    0.0000 C   0  0  0  0  0  0  0  0  0  0  0  0
   -2.9247    2.6945    0.0000 C   0  0  0  0  0  0  0  0  0  0  0  0
   -3.1976    1.3132    0.0000 C   0  0  0  0  0  0  0  0  0  0  0  0
    0.3155   -2.6434    0.0000 C   0  0  0  0  0  0  0  0  0  0  0  0
   -1.3217   -3.0015    0.0000 C   0  0  0  0  0  0  0  0  0  0  0  0
   -3.7263    2.8481    0.0000 C   0  0  0  0  0  0  0  0  0  0  0  0
   -3.9992    1.4666    0.0000 C   0  0  0  0  0  0  0  0  0  0  0  0
    0.0597   -3.4278    0.0000 C   0  0  0  0  0  0  0  0  0  0  0  0
   -0.7419   -3.5984    0.0000 C   0  0  0  0  0  0  0  0  0  0  0  0
   -4.2720    2.2341    0.0000 C   0  0  0  0  0  0  0  0  0  0  0  0
  1 18  1  0  0  0  0
  2  5  1  0  0  0  0
  2  6  1  0  0  0  0
  2  9  1  0  0  0  0
  3 25  3  0  0  0  0
  4 26  3  0  0  0  0
  5  8  2  0  0  0  0
  5 13  1  0  0  0  0
  6  7  2  0  0  0  0
  6 14  1  0  0  0  0
  7  8  1  0  0  0  0
  7 11  1  0  0  0  0
  8 12  1  0  0  0  0
  9 10  2  0  0  0  0
  9 17  1  0  0  0  0
 10 18  1  0  0  0  0
 10 25  1  0  0  0  0
 11 15  2  0  0  0  0
 12 16  2  0  0  0  0
 13 19  2  0  0  0  0
 14 20  2  0  0  0  0
 15 20  1  0  0  0  0
 15 22  1  0  0  0  0
 16 19  1  0  0  0  0
 16 23  1  0  0  0  0
 17 24  2  0  0  0  0
 18 21  2  0  0  0  0
 21 24  1  0  0  0  0
 21 26  1  0  0  0  0
 22 27  2  0  0  0  0
 22 30  1  0  0  0  0
 23 28  2  0  0  0  0
 23 29  1  0  0  0  0
 27 31  1  0  0  0  0
 28 32  1  0  0  0  0
 29 33  2  0  0  0  0
 30 34  2  0  0  0  0
 31 35  2  0  0  0  0
 32 36  2  0  0  0  0
 33 36  1  0  0  0  0
 34 35  1  0  0  0  0
M  END
> <PUBCHEM_COMPOUND_ID_TYPE>
0

> <PUBCHEM_TOTAL_CHARGE>
0

> <PUBCHEM_SUBSTANCE_ID>
310943947

> <PUBCHEM_SUBSTANCE_VERSION>
1

> <PUBCHEM_EXT_DATASOURCE_NAME>
4488

> <PUBCHEM_EXT_DATASOURCE_REGID>
SCHEMBL16122018

> <PUBCHEM_SUBSTANCE_COMMENT>
InChI=1S/C32H18FN3/c33-32-25(19-34)13-16-31(28(32)20-35)36-29-14-11-23(21-7-3-1-4-8-21)17-26(29)27-18-24(12-15-30(27)36)22-9-5-2-6-10-22/h1-18H
InChIKey=IKDMECYNGBLRAV-UHFFFAOYSA-N

> <PUBCHEM_SUBSTANCE_SYNONYM>
SCHEMBL16122018

> <PUBCHEM_XREF_EXT_ID>
SCHEMBL16122018

> <PUBCHEM_EXT_DATASOURCE_URL>
https://www.surechembl.org/

> <PUBCHEM_EXT_SUBSTANCE_URL>
https://www.surechembl.org/chemical/SCHEMBL16122018

> <PUBCHEM_CID_ASSOCIATIONS>
117610255  1

> <PUBCHEM_COORDINATE_TYPE>
1
3

$$$$
