310947911
  -OEChem-07211613022D

 31 34  0     0  0  0  0  0  0999 V2000
    2.5513   -0.2062    0.0000 S   0  0  0  0  0  0  0  0  0  0  0  0
    5.3078   -0.0667    0.0000 S   0  0  0  0  0  0  0  0  0  0  0  0
    2.9638    0.5082    0.0000 O   0  0  0  0  0  0  0  0  0  0  0  0
    2.1388    0.5082    0.0000 O   0  0  0  0  0  0  0  0  0  0  0  0
   -1.0210    1.8563    0.0000 O   0  0  0  0  0  0  0  0  0  0  0  0
   -3.1644   -1.0313    0.0000 O   0  0  0  0  0  0  0  0  0  0  0  0
    1.8369   -0.6187    0.0000 N   0  0  0  0  0  0  0  0  0  0  0  0
    4.1518    0.6007    0.0000 N   0  0  0  0  0  0  0  0  0  0  0  0
   -1.7355    0.6187    0.0000 N   0  0  0  0  0  0  0  0  0  0  0  0
    3.2658   -0.6187    0.0000 C   0  0  0  0  0  0  0  0  0  0  0  0
    3.9803   -0.2062    0.0000 C   0  0  0  0  0  0  0  0  0  0  0  0
    4.6947   -0.6187    0.0000 C   0  0  0  0  0  0  0  0  0  0  0  0
    3.2658   -1.4437    0.0000 C   0  0  0  0  0  0  0  0  0  0  0  0
    1.1224   -0.2062    0.0000 C   0  0  0  0  0  0  0  0  0  0  0  0
    4.6947   -1.4437    0.0000 C   0  0  0  0  0  0  0  0  0  0  0  0
   -0.3065    0.6187    0.0000 C   0  0  0  0  0  0  0  0  0  0  0  0
    3.9803   -1.8563    0.0000 C   0  0  0  0  0  0  0  0  0  0  0  0
   -1.0210    1.0313    0.0000 C   0  0  0  0  0  0  0  0  0  0  0  0
    4.9723    0.6870    0.0000 C   0  0  0  0  0  0  0  0  0  0  0  0
   -3.1644   -0.2062    0.0000 C   0  0  0  0  0  0  0  0  0  0  0  0
    0.4079   -0.6187    0.0000 C   0  0  0  0  0  0  0  0  0  0  0  0
    1.1224    0.6187    0.0000 C   0  0  0  0  0  0  0  0  0  0  0  0
   -0.3065   -0.2062    0.0000 C   0  0  0  0  0  0  0  0  0  0  0  0
    0.4079    1.0313    0.0000 C   0  0  0  0  0  0  0  0  0  0  0  0
   -1.7355   -0.2062    0.0000 C   0  0  0  0  0  0  0  0  0  0  0  0
   -2.4500    1.0313    0.0000 C   0  0  0  0  0  0  0  0  0  0  0  0
   -3.1644    0.6187    0.0000 C   0  0  0  0  0  0  0  0  0  0  0  0
   -2.4500   -0.6187    0.0000 C   0  0  0  0  0  0  0  0  0  0  0  0
   -3.8789   -0.6187    0.0000 C   0  0  0  0  0  0  0  0  0  0  0  0
   -4.5934   -0.2062    0.0000 C   0  0  0  0  0  0  0  0  0  0  0  0
   -5.3078   -0.6187    0.0000 C   0  0  0  0  0  0  0  0  0  0  0  0
  1  3  2  0  0  0  0
  1  4  2  0  0  0  0
  1  7  1  0  0  0  0
  1 10  1  0  0  0  0
  2 12  1  0  0  0  0
  2 19  1  0  0  0  0
  5 18  2  0  0  0  0
  6 20  1  0  0  0  0
  7 14  1  0  0  0  0
  8 11  1  0  0  0  0
  8 19  2  0  0  0  0
  9 18  1  0  0  0  0
  9 25  1  0  0  0  0
  9 26  1  0  0  0  0
 10 11  1  0  0  0  0
 10 13  2  0  0  0  0
 11 12  2  0  0  0  0
 12 15  1  0  0  0  0
 13 17  1  0  0  0  0
 14 21  2  0  0  0  0
 14 22  1  0  0  0  0
 15 17  2  0  0  0  0
 16 18  1  0  0  0  0
 16 23  2  0  0  0  0
 16 24  1  0  0  0  0
 20 27  1  0  0  0  0
 20 28  1  0  0  0  0
 20 29  1  0  0  0  0
 21 23  1  0  0  0  0
 22 24  2  0  0  0  0
 25 28  1  0  0  0  0
 26 27  1  0  0  0  0
 29 30  1  0  0  0  0
 30 31  1  0  0  0  0
M  END
> <PUBCHEM_COMPOUND_ID_TYPE>
0

> <PUBCHEM_TOTAL_CHARGE>
0

> <PUBCHEM_SUBSTANCE_ID>
310947911

> <PUBCHEM_SUBSTANCE_VERSION>
1

> <PUBCHEM_EXT_DATASOURCE_NAME>
4488

> <PUBCHEM_EXT_DATASOURCE_REGID>
SCHEMBL16126085

> <PUBCHEM_SUBSTANCE_COMMENT>
InChI=1S/C22H25N3O4S2/c1-2-10-22(27)11-13-25(14-12-22)21(26)16-6-8-17(9-7-16)24-31(28,29)19-5-3-4-18-20(19)23-15-30-18/h3-9,15,24,27H,2,10-14H2,1H3
InChIKey=XCMWFEQEOXGNEV-UHFFFAOYSA-N

> <PUBCHEM_SUBSTANCE_SYNONYM>
SCHEMBL16126085

> <PUBCHEM_XREF_EXT_ID>
SCHEMBL16126085

> <PUBCHEM_EXT_DATASOURCE_URL>
https://www.surechembl.org/

> <PUBCHEM_EXT_SUBSTANCE_URL>
https://www.surechembl.org/chemical/SCHEMBL16126085

> <PUBCHEM_CID_ASSOCIATIONS>
117613573  1

> <PUBCHEM_COORDINATE_TYPE>
1
3

$$$$
