310947893
  -OEChem-07211613022D

 16 18  0     0  0  0  0  0  0999 V2000
   -2.1332    0.0134    0.0000 O   0  0  0  0  0  0  0  0  0  0  0  0
    0.6901   -0.6996    0.0000 N   0  0  0  0  0  0  0  0  0  0  0  0
    2.4616    1.0115    0.0000 N   0  0  0  0  0  0  0  0  0  0  0  0
    1.1026    0.5700    0.0000 C   0  0  0  0  0  0  0  0  0  0  0  0
    0.2776    0.5700    0.0000 C   0  0  0  0  0  0  0  0  0  0  0  0
    1.3576   -0.2147    0.0000 C   0  0  0  0  0  0  0  0  0  0  0  0
    0.0227   -0.2147    0.0000 C   0  0  0  0  0  0  0  0  0  0  0  0
    2.1645   -0.3862    0.0000 C   0  0  0  0  0  0  0  0  0  0  0  0
   -0.7843   -0.3862    0.0000 C   0  0  0  0  0  0  0  0  0  0  0  0
   -0.2744    1.1831    0.0000 C   0  0  0  0  0  0  0  0  0  0  0  0
    1.6547    1.1831    0.0000 C   0  0  0  0  0  0  0  0  0  0  0  0
   -1.3363    0.2269    0.0000 C   0  0  0  0  0  0  0  0  0  0  0  0
   -1.0814    1.0115    0.0000 C   0  0  0  0  0  0  0  0  0  0  0  0
    2.7166    0.2269    0.0000 C   0  0  0  0  0  0  0  0  0  0  0  0
    2.3781   -1.1831    0.0000 C   0  0  0  0  0  0  0  0  0  0  0  0
   -2.7166    0.5968    0.0000 C   0  0  0  0  0  0  0  0  0  0  0  0
  1 12  1  0  0  0  0
  1 16  1  0  0  0  0
  2  6  1  0  0  0  0
  2  7  1  0  0  0  0
  3 11  2  0  0  0  0
  3 14  1  0  0  0  0
  4  5  1  0  0  0  0
  4  6  2  0  0  0  0
  4 11  1  0  0  0  0
  5  7  2  0  0  0  0
  5 10  1  0  0  0  0
  6  8  1  0  0  0  0
  7  9  1  0  0  0  0
  8 14  2  0  0  0  0
  8 15  1  0  0  0  0
  9 12  2  0  0  0  0
 10 13  2  0  0  0  0
 12 13  1  0  0  0  0
M  END
> <PUBCHEM_COMPOUND_ID_TYPE>
0

> <PUBCHEM_TOTAL_CHARGE>
0

> <PUBCHEM_SUBSTANCE_ID>
310947893

> <PUBCHEM_SUBSTANCE_VERSION>
1

> <PUBCHEM_EXT_DATASOURCE_NAME>
4488

> <PUBCHEM_EXT_DATASOURCE_REGID>
SCHEMBL16126067

> <PUBCHEM_SUBSTANCE_COMMENT>
InChI=1S/C13H12N2O/c1-8-6-14-7-11-10-4-3-9(16-2)5-12(10)15-13(8)11/h3-7,15H,1-2H3
InChIKey=UTGOQMORORTUAA-UHFFFAOYSA-N

> <PUBCHEM_SUBSTANCE_SYNONYM>
SCHEMBL16126067

> <PUBCHEM_XREF_EXT_ID>
SCHEMBL16126067

> <PUBCHEM_EXT_DATASOURCE_URL>
https://www.surechembl.org/

> <PUBCHEM_EXT_SUBSTANCE_URL>
https://www.surechembl.org/chemical/SCHEMBL16126067

> <PUBCHEM_CID_ASSOCIATIONS>
117613557  1

> <PUBCHEM_COORDINATE_TYPE>
1
3

$$$$
