310935791
  -OEChem-07211613022D

 39 42  0     0  0  0  0  0  0999 V2000
   -1.0575    0.4125    0.0000 S   0  0  0  0  0  0  0  0  0  0  0  0
    3.7279    5.4011    0.0000 F   0  0  0  0  0  0  0  0  0  0  0  0
    1.2574    2.4570    0.0000 O   0  0  0  0  0  0  0  0  0  0  0  0
    3.4339    0.8211    0.0000 O   0  0  0  0  0  0  0  0  0  0  0  0
    2.5148   -0.8250    0.0000 O   0  0  0  0  0  0  0  0  0  0  0  0
   -1.4700   -0.3020    0.0000 O   0  0  0  0  0  0  0  0  0  0  0  0
   -0.6450    1.1270    0.0000 O   0  0  0  0  0  0  0  0  0  0  0  0
    3.8038    2.2014    0.0000 N   0  0  0  0  0  0  0  0  0  0  0  0
    3.2293    0.4125    0.0000 N   0  0  0  0  0  0  0  0  0  0  0  0
    1.8004    1.2375    0.0000 C   0  0  0  0  0  0  0  0  0  0  0  0
    2.4135    1.7895    0.0000 C   0  0  0  0  0  0  0  0  0  0  0  0
    1.0859    1.6500    0.0000 C   0  0  0  0  0  0  0  0  0  0  0  0
    2.0779    2.5432    0.0000 C   0  0  0  0  0  0  0  0  0  0  0  0
    1.8004    0.4125    0.0000 C   0  0  0  0  0  0  0  0  0  0  0  0
    3.2204    1.6180    0.0000 C   0  0  0  0  0  0  0  0  0  0  0  0
    2.4904    3.2577    0.0000 C   0  0  0  0  0  0  0  0  0  0  0  0
    0.3714    1.2375    0.0000 C   0  0  0  0  0  0  0  0  0  0  0  0
    0.3714    0.4125    0.0000 C   0  0  0  0  0  0  0  0  0  0  0  0
    1.0859    0.0000    0.0000 C   0  0  0  0  0  0  0  0  0  0  0  0
    2.5148    0.0000    0.0000 C   0  0  0  0  0  0  0  0  0  0  0  0
    2.0779    3.9721    0.0000 C   0  0  0  0  0  0  0  0  0  0  0  0
    3.3154    3.2577    0.0000 C   0  0  0  0  0  0  0  0  0  0  0  0
   -0.3431    0.0000    0.0000 C   0  0  0  0  0  0  0  0  0  0  0  0
    4.6007    1.9878    0.0000 C   0  0  0  0  0  0  0  0  0  0  0  0
    2.4904    4.6866    0.0000 C   0  0  0  0  0  0  0  0  0  0  0  0
    3.7279    3.9721    0.0000 C   0  0  0  0  0  0  0  0  0  0  0  0
    3.6437    2.7990    0.0000 C   0  0  0  0  0  0  0  0  0  0  0  0
    3.3154    4.6866    0.0000 C   0  0  0  0  0  0  0  0  0  0  0  0
    5.1841    2.5712    0.0000 C   0  0  0  0  0  0  0  0  0  0  0  0
    4.8142    1.1909    0.0000 C   0  0  0  0  0  0  0  0  0  0  0  0
    3.9438    0.0000    0.0000 C   0  0  0  0  0  0  0  0  0  0  0  0
   -1.7720    0.8250    0.0000 C   0  0  0  0  0  0  0  0  0  0  0  0
    5.9810    2.3577    0.0000 C   0  0  0  0  0  0  0  0  0  0  0  0
    5.6111    0.9774    0.0000 C   0  0  0  0  0  0  0  0  0  0  0  0
    6.1945    1.5608    0.0000 C   0  0  0  0  0  0  0  0  0  0  0  0
    4.6582    0.4125    0.0000 C   0  0  0  0  0  0  0  0  0  0  0  0
    5.3727    0.0000    0.0000 C   0  0  0  0  0  0  0  0  0  0  0  0
    6.0872    0.4125    0.0000 C   0  0  0  0  0  0  0  0  0  0  0  0
    6.8017    0.0000    0.0000 C   0  0  0  0  0  0  0  0  0  0  0  0
  1  6  2  0  0  0  0
  1  7  2  0  0  0  0
  1 23  1  0  0  0  0
  1 32  1  0  0  0  0
  2 28  1  0  0  0  0
  3 12  1  0  0  0  0
  3 13  1  0  0  0  0
  4 15  2  0  0  0  0
  5 20  2  0  0  0  0
  8 15  1  0  0  0  0
  8 24  1  0  0  0  0
  8 27  1  0  0  0  0
  9 20  1  0  0  0  0
  9 31  1  0  0  0  0
 10 11  1  0  0  0  0
 10 12  1  0  0  0  0
 10 14  2  0  0  0  0
 11 13  2  0  0  0  0
 11 15  1  0  0  0  0
 12 17  2  0  0  0  0
 13 16  1  0  0  0  0
 14 19  1  0  0  0  0
 14 20  1  0  0  0  0
 16 21  2  0  0  0  0
 16 22  1  0  0  0  0
 17 18  1  0  0  0  0
 18 19  2  0  0  0  0
 18 23  1  0  0  0  0
 21 25  1  0  0  0  0
 22 26  2  0  0  0  0
 24 29  2  0  0  0  0
 24 30  1  0  0  0  0
 25 28  2  0  0  0  0
 26 28  1  0  0  0  0
 29 33  1  0  0  0  0
 30 34  2  0  0  0  0
 31 36  1  0  0  0  0
 33 35  2  0  0  0  0
 34 35  1  0  0  0  0
 36 37  1  0  0  0  0
 37 38  1  0  0  0  0
 38 39  1  0  0  0  0
M  END
> <PUBCHEM_COMPOUND_ID_TYPE>
0

> <PUBCHEM_TOTAL_CHARGE>
0

> <PUBCHEM_SUBSTANCE_ID>
310935791

> <PUBCHEM_SUBSTANCE_VERSION>
1

> <PUBCHEM_EXT_DATASOURCE_NAME>
4488

> <PUBCHEM_EXT_DATASOURCE_REGID>
SCHEMBL16113377

> <PUBCHEM_SUBSTANCE_COMMENT>
InChI=1S/C30H31FN2O5S/c1-4-5-9-16-32-29(34)24-17-20(19-39(3,36)37)18-25-26(24)27(28(38-25)21-12-14-22(31)15-13-21)30(35)33(2)23-10-7-6-8-11-23/h6-8,10-15,17-18H,4-5,9,16,19H2,1-3H3,(H,32,34)
InChIKey=SZTGXVNZRUTZPY-UHFFFAOYSA-N

> <PUBCHEM_SUBSTANCE_SYNONYM>
SCHEMBL16113377

> <PUBCHEM_XREF_EXT_ID>
SCHEMBL16113377

> <PUBCHEM_EXT_DATASOURCE_URL>
https://www.surechembl.org/

> <PUBCHEM_EXT_SUBSTANCE_URL>
https://www.surechembl.org/chemical/SCHEMBL16113377

> <PUBCHEM_CID_ASSOCIATIONS>
117603785  1

> <PUBCHEM_COORDINATE_TYPE>
1
3

$$$$
