310949192
  -OEChem-07211613022D

 11 11  0     0  0  0  0  0  0999 V2000
   -0.0761   -1.3453    0.0000 F   0  0  0  0  0  0  0  0  0  0  0  0
   -1.2311   -1.3961    0.0000 F   0  0  0  0  0  0  0  0  0  0  0  0
   -1.2691   -0.2284    0.0000 F   0  0  0  0  0  0  0  0  0  0  0  0
    0.0127    1.3834    0.0000 N   0  0  0  0  0  0  0  0  0  0  0  0
    1.2691    0.6473    0.0000 N   0  0  0  0  0  0  0  0  0  0  0  0
    0.0254   -0.0127    0.0000 C   0  0  0  0  0  0  0  0  0  0  0  0
   -0.6853   -0.7742    0.0000 C   0  0  0  0  0  0  0  0  0  0  0  0
   -0.4062    0.6853    0.0000 C   0  0  0  0  0  0  0  0  0  0  0  0
    0.8503   -0.0254    0.0000 C   0  0  0  0  0  0  0  0  0  0  0  0
    0.8503    1.3961    0.0000 C   0  0  0  0  0  0  0  0  0  0  0  0
   -1.1549    0.6727    0.0000 C   0  0  0  0  0  0  0  0  0  0  0  0
  1  7  1  0  0  0  0
  2  7  1  0  0  0  0
  3  7  1  0  0  0  0
  4  8  1  0  0  0  0
  4 10  2  0  0  0  0
  5  9  2  0  0  0  0
  5 10  1  0  0  0  0
  6  7  1  0  0  0  0
  6  8  2  0  0  0  0
  6  9  1  0  0  0  0
  8 11  1  0  0  0  0
M  END
> <PUBCHEM_COMPOUND_ID_TYPE>
0

> <PUBCHEM_TOTAL_CHARGE>
0

> <PUBCHEM_SUBSTANCE_ID>
310949192

> <PUBCHEM_SUBSTANCE_VERSION>
1

> <PUBCHEM_EXT_DATASOURCE_NAME>
4488

> <PUBCHEM_EXT_DATASOURCE_REGID>
SCHEMBL16127382

> <PUBCHEM_SUBSTANCE_COMMENT>
InChI=1S/C6H5F3N2/c1-4-5(6(7,8)9)2-10-3-11-4/h2-3H,1H3
InChIKey=CUTUPWYGNRSUFU-UHFFFAOYSA-N

> <PUBCHEM_SUBSTANCE_SYNONYM>
SCHEMBL16127382

> <PUBCHEM_XREF_EXT_ID>
SCHEMBL16127382

> <PUBCHEM_EXT_DATASOURCE_URL>
https://www.surechembl.org/

> <PUBCHEM_EXT_SUBSTANCE_URL>
https://www.surechembl.org/chemical/SCHEMBL16127382

> <PUBCHEM_CID_ASSOCIATIONS>
53890004  1

> <PUBCHEM_COORDINATE_TYPE>
1
3

$$$$
