310940379
  -OEChem-07211613022D

 11 11  0     0  0  0  0  0  0999 V2000
    1.1792    1.6674    0.0000 Cl  0  0  0  0  0  0  0  0  0  0  0  0
    1.1792   -1.6674    0.0000 O   0  0  0  0  0  0  0  0  0  0  0  0
   -0.5711   -0.8200    0.0000 N   0  0  0  0  0  0  0  0  0  0  0  0
   -1.2344   -0.3224    0.0000 N   0  3  0  0  0  0  0  0  0  0  0  0
   -1.8794    0.2119    0.0000 N   0  5  0  0  0  0  0  0  0  0  0  0
    0.4422   -0.3961    0.0000 C   0  0  0  0  0  0  0  0  0  0  0  0
    1.1608   -0.8015    0.0000 C   0  0  0  0  0  0  0  0  0  0  0  0
    0.4606    0.4329    0.0000 C   0  0  0  0  0  0  0  0  0  0  0  0
    1.1608    0.8568    0.0000 C   0  0  0  0  0  0  0  0  0  0  0  0
    1.8794   -0.3961    0.0000 C   0  0  0  0  0  0  0  0  0  0  0  0
    1.8794    0.4145    0.0000 C   0  0  0  0  0  0  0  0  0  0  0  0
  1  9  1  0  0  0  0
  2  7  1  0  0  0  0
  3  4  2  0  0  0  0
  3  6  1  0  0  0  0
  4  5  2  0  0  0  0
  6  7  1  0  0  0  0
  6  8  2  0  0  0  0
  7 10  2  0  0  0  0
  8  9  1  0  0  0  0
  9 11  2  0  0  0  0
 10 11  1  0  0  0  0
M  CHG  2   4   1   5  -1
M  END
> <PUBCHEM_COMPOUND_ID_TYPE>
0

> <PUBCHEM_TOTAL_CHARGE>
0

> <PUBCHEM_SUBSTANCE_ID>
310940379

> <PUBCHEM_SUBSTANCE_VERSION>
1

> <PUBCHEM_EXT_DATASOURCE_NAME>
4488

> <PUBCHEM_EXT_DATASOURCE_REGID>
SCHEMBL16118325

> <PUBCHEM_SUBSTANCE_COMMENT>
InChI=1S/C6H4ClN3O/c7-4-1-2-6(11)5(3-4)9-10-8/h1-3,11H
InChIKey=MHUDVLUVDRPGND-UHFFFAOYSA-N

> <PUBCHEM_SUBSTANCE_SYNONYM>
SCHEMBL16118325

> <PUBCHEM_XREF_EXT_ID>
SCHEMBL16118325

> <PUBCHEM_EXT_DATASOURCE_URL>
https://www.surechembl.org/

> <PUBCHEM_EXT_SUBSTANCE_URL>
https://www.surechembl.org/chemical/SCHEMBL16118325

> <PUBCHEM_CID_ASSOCIATIONS>
117607411  1

> <PUBCHEM_COORDINATE_TYPE>
1
3

$$$$
