310946994
  -OEChem-07211613022D

 30 33  0     0  0  0  0  0  0999 V2000
   -1.2425   -2.3946    0.0000 Cl  0  0  0  0  0  0  0  0  0  0  0  0
    2.1218   -0.3748    0.0000 O   0  0  0  0  0  0  0  0  0  0  0  0
   -0.5280   -0.3321    0.0000 N   0  0  0  0  0  0  0  0  0  0  0  0
    0.2566   -1.4121    0.0000 N   0  0  0  0  0  0  0  0  0  0  0  0
   -1.1114    0.2512    0.0000 C   0  0  0  0  0  0  0  0  0  0  0  0
   -1.9083    0.0377    0.0000 C   0  0  0  0  0  0  0  0  0  0  0  0
   -0.5280    0.8346    0.0000 C   0  0  0  0  0  0  0  0  0  0  0  0
   -1.5239    0.9657    0.0000 C   0  0  0  0  0  0  0  0  0  0  0  0
   -0.5280   -1.1571    0.0000 C   0  0  0  0  0  0  0  0  0  0  0  0
    0.2566   -0.0772    0.0000 C   0  0  0  0  0  0  0  0  0  0  0  0
    0.7415   -0.7446    0.0000 C   0  0  0  0  0  0  0  0  0  0  0  0
   -1.1114    1.6802    0.0000 C   0  0  0  0  0  0  0  0  0  0  0  0
   -2.4916    0.6211    0.0000 C   0  0  0  0  0  0  0  0  0  0  0  0
    0.2689    0.6211    0.0000 C   0  0  0  0  0  0  0  0  0  0  0  0
   -2.3489    0.9657    0.0000 C   0  0  0  0  0  0  0  0  0  0  0  0
   -2.1218   -0.7592    0.0000 C   0  0  0  0  0  0  0  0  0  0  0  0
   -0.7415    1.6315    0.0000 C   0  0  0  0  0  0  0  0  0  0  0  0
   -1.2425   -1.5696    0.0000 C   0  0  0  0  0  0  0  0  0  0  0  0
    1.5384   -0.9582    0.0000 C   0  0  0  0  0  0  0  0  0  0  0  0
   -1.5239    2.3946    0.0000 C   0  0  0  0  0  0  0  0  0  0  0  0
   -3.2885    0.4075    0.0000 C   0  0  0  0  0  0  0  0  0  0  0  0
    0.8522    1.2044    0.0000 C   0  0  0  0  0  0  0  0  0  0  0  0
   -2.7614    1.6802    0.0000 C   0  0  0  0  0  0  0  0  0  0  0  0
   -2.9187   -0.9727    0.0000 C   0  0  0  0  0  0  0  0  0  0  0  0
   -0.1582    2.2148    0.0000 C   0  0  0  0  0  0  0  0  0  0  0  0
   -2.3489    2.3946    0.0000 C   0  0  0  0  0  0  0  0  0  0  0  0
   -3.5020   -0.3894    0.0000 C   0  0  0  0  0  0  0  0  0  0  0  0
    0.6387    2.0013    0.0000 C   0  0  0  0  0  0  0  0  0  0  0  0
    2.9187   -0.5883    0.0000 C   0  0  0  0  0  0  0  0  0  0  0  0
    3.5020   -0.0050    0.0000 C   0  0  0  0  0  0  0  0  0  0  0  0
  1 18  1  0  0  0  0
  2 19  1  0  0  0  0
  2 29  1  0  0  0  0
  3  5  1  0  0  0  0
  3  9  1  0  0  0  0
  3 10  1  0  0  0  0
  4  9  2  0  0  0  0
  4 11  1  0  0  0  0
  5  6  1  0  0  0  0
  5  7  1  0  0  0  0
  5  8  1  0  0  0  0
  6 13  2  0  0  0  0
  6 16  1  0  0  0  0
  7 14  2  0  0  0  0
  7 17  1  0  0  0  0
  8 12  2  0  0  0  0
  8 15  1  0  0  0  0
  9 18  1  0  0  0  0
 10 11  2  0  0  0  0
 11 19  1  0  0  0  0
 12 20  1  0  0  0  0
 13 21  1  0  0  0  0
 14 22  1  0  0  0  0
 15 23  2  0  0  0  0
 16 24  2  0  0  0  0
 17 25  2  0  0  0  0
 20 26  2  0  0  0  0
 21 27  2  0  0  0  0
 22 28  2  0  0  0  0
 23 26  1  0  0  0  0
 24 27  1  0  0  0  0
 25 28  1  0  0  0  0
 29 30  1  0  0  0  0
M  END
> <PUBCHEM_COMPOUND_ID_TYPE>
0

> <PUBCHEM_TOTAL_CHARGE>
0

> <PUBCHEM_SUBSTANCE_ID>
310946994

> <PUBCHEM_SUBSTANCE_VERSION>
1

> <PUBCHEM_EXT_DATASOURCE_NAME>
4488

> <PUBCHEM_EXT_DATASOURCE_REGID>
SCHEMBL16125140

> <PUBCHEM_SUBSTANCE_COMMENT>
InChI=1S/C26H25ClN2O/c1-2-30-20-24-19-29(25(18-27)28-24)26(21-12-6-3-7-13-21,22-14-8-4-9-15-22)23-16-10-5-11-17-23/h3-17,19H,2,18,20H2,1H3
InChIKey=UNPOOVKVSGQCMY-UHFFFAOYSA-N

> <PUBCHEM_SUBSTANCE_SYNONYM>
SCHEMBL16125140

> <PUBCHEM_XREF_EXT_ID>
SCHEMBL16125140

> <PUBCHEM_EXT_DATASOURCE_URL>
https://www.surechembl.org/

> <PUBCHEM_EXT_SUBSTANCE_URL>
https://www.surechembl.org/chemical/SCHEMBL16125140

> <PUBCHEM_CID_ASSOCIATIONS>
117612847  1

> <PUBCHEM_COORDINATE_TYPE>
1
3

$$$$
