310940376
  -OEChem-07211613022D

 25 28  0     0  0  0  0  0  0999 V2000
    3.8618    1.5430    0.0000 Cl  0  0  0  0  0  0  0  0  0  0  0  0
   -0.5172    1.1982    0.0000 O   0  0  0  0  0  0  0  0  0  0  0  0
    2.6205   -1.5430    0.0000 O   0  0  0  0  0  0  0  0  0  0  0  0
    1.6034   -0.2328    0.0000 N   0  0  0  0  0  0  0  0  0  0  0  0
    1.0172   -0.9223    0.0000 N   0  0  0  0  0  0  0  0  0  0  0  0
    0.3793   -0.8361    0.0000 N   0  0  0  0  0  0  0  0  0  0  0  0
    0.2759    0.0086    0.0000 C   0  0  0  0  0  0  0  0  0  0  0  0
    2.4136   -0.0948    0.0000 C   0  0  0  0  0  0  0  0  0  0  0  0
   -0.4999    0.3707    0.0000 C   0  0  0  0  0  0  0  0  0  0  0  0
    0.9999    0.3707    0.0000 C   0  0  0  0  0  0  0  0  0  0  0  0
   -1.1723   -0.0603    0.0000 C   0  0  0  0  0  0  0  0  0  0  0  0
    2.9308   -0.7500    0.0000 C   0  0  0  0  0  0  0  0  0  0  0  0
   -2.6205   -0.1121    0.0000 C   0  0  0  0  0  0  0  0  0  0  0  0
    2.7239    0.6637    0.0000 C   0  0  0  0  0  0  0  0  0  0  0  0
   -1.9309    0.3189    0.0000 C   0  0  0  0  0  0  0  0  0  0  0  0
   -2.6033   -0.9396    0.0000 C   0  0  0  0  0  0  0  0  0  0  0  0
   -1.1551   -0.8879    0.0000 C   0  0  0  0  0  0  0  0  0  0  0  0
    3.5343    0.7844    0.0000 C   0  0  0  0  0  0  0  0  0  0  0  0
    3.7583   -0.6293    0.0000 C   0  0  0  0  0  0  0  0  0  0  0  0
   -1.8275   -1.3188    0.0000 C   0  0  0  0  0  0  0  0  0  0  0  0
    4.0515    0.1293    0.0000 C   0  0  0  0  0  0  0  0  0  0  0  0
   -3.3618    0.2500    0.0000 C   0  0  0  0  0  0  0  0  0  0  0  0
   -3.2929   -1.3879    0.0000 C   0  0  0  0  0  0  0  0  0  0  0  0
   -4.0515   -0.1810    0.0000 C   0  0  0  0  0  0  0  0  0  0  0  0
   -4.0169   -1.0086    0.0000 C   0  0  0  0  0  0  0  0  0  0  0  0
  1 18  1  0  0  0  0
  2  9  2  0  0  0  0
  3 12  1  0  0  0  0
  4  5  1  0  0  0  0
  4  8  1  0  0  0  0
  4 10  1  0  0  0  0
  5  6  1  0  0  0  0
  6  7  1  0  0  0  0
  7  9  1  0  0  0  0
  7 10  2  0  0  0  0
  8 12  2  0  0  0  0
  8 14  1  0  0  0  0
  9 11  1  0  0  0  0
 11 15  2  0  0  0  0
 11 17  1  0  0  0  0
 12 19  1  0  0  0  0
 13 15  1  0  0  0  0
 13 16  2  0  0  0  0
 13 22  1  0  0  0  0
 14 18  2  0  0  0  0
 16 20  1  0  0  0  0
 16 23  1  0  0  0  0
 17 20  2  0  0  0  0
 18 21  1  0  0  0  0
 19 21  2  0  0  0  0
 22 24  2  0  0  0  0
 23 25  2  0  0  0  0
 24 25  1  0  0  0  0
M  END
> <PUBCHEM_COMPOUND_ID_TYPE>
0

> <PUBCHEM_TOTAL_CHARGE>
0

> <PUBCHEM_SUBSTANCE_ID>
310940376

> <PUBCHEM_SUBSTANCE_VERSION>
1

> <PUBCHEM_EXT_DATASOURCE_NAME>
4488

> <PUBCHEM_EXT_DATASOURCE_REGID>
SCHEMBL16118322

> <PUBCHEM_SUBSTANCE_COMMENT>
InChI=1S/C19H14ClN3O2/c20-15-7-8-18(24)17(10-15)23-11-16(21-22-23)19(25)14-6-5-12-3-1-2-4-13(12)9-14/h1-11,21-22,24H
InChIKey=CCBLHFYLCNXGBV-UHFFFAOYSA-N

> <PUBCHEM_SUBSTANCE_SYNONYM>
SCHEMBL16118322

> <PUBCHEM_XREF_EXT_ID>
SCHEMBL16118322

> <PUBCHEM_EXT_DATASOURCE_URL>
https://www.surechembl.org/

> <PUBCHEM_EXT_SUBSTANCE_URL>
https://www.surechembl.org/chemical/SCHEMBL16118322

> <PUBCHEM_CID_ASSOCIATIONS>
117607410  1

> <PUBCHEM_COORDINATE_TYPE>
1
3

$$$$
