310931263
  -OEChem-07211613022D

 36 40  0     0  0  0  0  0  0999 V2000
    4.5368   -4.2239    0.0000 S   0  0  0  0  0  0  0  0  0  0  0  0
    0.0000   -6.3749    0.0000 F   0  0  0  0  0  0  0  0  0  0  0  0
    0.8213   -7.8220    0.0000 F   0  0  0  0  0  0  0  0  0  0  0  0
    4.5368   -5.1234    0.0000 O   0  0  0  0  0  0  0  0  0  0  0  0
    4.5368   -3.4026    0.0000 O   0  0  0  0  0  0  0  0  0  0  0  0
    7.0398   -2.7768    0.0000 O   0  0  0  0  0  0  0  0  0  0  0  0
    3.3243   -4.9278    0.0000 N   0  0  0  0  0  0  0  0  0  0  0  0
    9.5037   -1.3688    0.0000 N   0  0  0  0  0  0  0  0  0  0  0  0
    9.6602    0.0000    0.0000 N   0  0  0  0  0  0  0  0  0  0  0  0
    8.2913   -3.4808    0.0000 N   0  0  0  0  0  0  0  0  0  0  0  0
    3.7155   -4.2239    0.0000 C   0  0  0  0  0  0  0  0  0  0  0  0
    5.3581   -4.2239    0.0000 C   0  0  0  0  0  0  0  0  0  0  0  0
    2.5030   -4.9670    0.0000 C   0  0  0  0  0  0  0  0  0  0  0  0
    2.0729   -5.6709    0.0000 C   0  0  0  0  0  0  0  0  0  0  0  0
    3.3243   -3.4808    0.0000 C   0  0  0  0  0  0  0  0  0  0  0  0
    5.7883   -4.9670    0.0000 C   0  0  0  0  0  0  0  0  0  0  0  0
    5.7883   -3.5199    0.0000 C   0  0  0  0  0  0  0  0  0  0  0  0
    2.0729   -4.2239    0.0000 C   0  0  0  0  0  0  0  0  0  0  0  0
    7.0398   -4.2239    0.0000 C   0  0  0  0  0  0  0  0  0  0  0  0
    2.5030   -3.4808    0.0000 C   0  0  0  0  0  0  0  0  0  0  0  0
    9.1126   -0.6257    0.0000 C   0  0  0  0  0  0  0  0  0  0  0  0
    8.2913   -2.0729    0.0000 C   0  0  0  0  0  0  0  0  0  0  0  0
    6.6096   -4.9278    0.0000 C   0  0  0  0  0  0  0  0  0  0  0  0
    6.6096   -3.5199    0.0000 C   0  0  0  0  0  0  0  0  0  0  0  0
    1.2515   -5.6709    0.0000 C   0  0  0  0  0  0  0  0  0  0  0  0
    2.5030   -6.3749    0.0000 C   0  0  0  0  0  0  0  0  0  0  0  0
    9.1126   -2.0729    0.0000 C   0  0  0  0  0  0  0  0  0  0  0  0
    0.8604   -6.3749    0.0000 C   0  0  0  0  0  0  0  0  0  0  0  0
    7.8611   -2.7768    0.0000 C   0  0  0  0  0  0  0  0  0  0  0  0
    1.2515   -7.0789    0.0000 C   0  0  0  0  0  0  0  0  0  0  0  0
    8.2913   -0.6257    0.0000 C   0  0  0  0  0  0  0  0  0  0  0  0
    7.8611   -1.3688    0.0000 C   0  0  0  0  0  0  0  0  0  0  0  0
    7.8611   -4.2239    0.0000 C   0  0  0  0  0  0  0  0  0  0  0  0
   10.3250   -1.1733    0.0000 C   0  0  0  0  0  0  0  0  0  0  0  0
    2.0729   -7.0789    0.0000 C   0  0  0  0  0  0  0  0  0  0  0  0
   10.4033   -0.3520    0.0000 C   0  0  0  0  0  0  0  0  0  0  0  0
  1  4  2  0  0  0  0
  1  5  2  0  0  0  0
  1 11  1  0  0  0  0
  1 12  1  0  0  0  0
  2 28  1  0  0  0  0
  3 30  1  0  0  0  0
  6 29  2  0  0  0  0
  7 11  1  0  0  0  0
  7 13  2  0  0  0  0
  8 21  1  0  0  0  0
  8 27  1  0  0  0  0
  8 34  1  0  0  0  0
  9 21  2  0  0  0  0
  9 36  1  0  0  0  0
 10 29  1  0  0  0  0
 10 33  1  0  0  0  0
 11 15  2  0  0  0  0
 12 16  2  0  0  0  0
 12 17  1  0  0  0  0
 13 14  1  0  0  0  0
 13 18  1  0  0  0  0
 14 25  1  0  0  0  0
 14 26  2  0  0  0  0
 15 20  1  0  0  0  0
 16 23  1  0  0  0  0
 17 24  2  0  0  0  0
 18 20  2  0  0  0  0
 19 23  2  0  0  0  0
 19 24  1  0  0  0  0
 19 33  1  0  0  0  0
 21 31  1  0  0  0  0
 22 27  2  0  0  0  0
 22 29  1  0  0  0  0
 22 32  1  0  0  0  0
 25 28  2  0  0  0  0
 26 35  1  0  0  0  0
 28 30  1  0  0  0  0
 30 35  2  0  0  0  0
 31 32  2  0  0  0  0
 34 36  2  0  0  0  0
M  END
> <PUBCHEM_COMPOUND_ID_TYPE>
0

> <PUBCHEM_TOTAL_CHARGE>
0

> <PUBCHEM_SUBSTANCE_ID>
310931263

> <PUBCHEM_SUBSTANCE_VERSION>
1

> <PUBCHEM_EXT_DATASOURCE_NAME>
4488

> <PUBCHEM_EXT_DATASOURCE_REGID>
SCHEMBL16108577

> <PUBCHEM_SUBSTANCE_COMMENT>
InChI=1S/C26H18F2N4O3S/c27-21-10-6-18(14-22(21)28)23-2-1-3-25(31-23)36(34,35)20-8-4-17(5-9-20)15-30-26(33)19-7-11-24-29-12-13-32(24)16-19/h1-14,16H,15H2,(H,30,33)
InChIKey=FDCQWMFTKSGOIM-UHFFFAOYSA-N

> <PUBCHEM_SUBSTANCE_SYNONYM>
SCHEMBL16108577

> <PUBCHEM_XREF_EXT_ID>
SCHEMBL16108577

> <PUBCHEM_EXT_DATASOURCE_URL>
https://www.surechembl.org/

> <PUBCHEM_EXT_SUBSTANCE_URL>
https://www.surechembl.org/chemical/SCHEMBL16108577

> <PUBCHEM_CID_ASSOCIATIONS>
117600093  1

> <PUBCHEM_COORDINATE_TYPE>
1
3

$$$$
