310932770
  -OEChem-07211613022D

 40 45  0     0  0  0  0  0  0999 V2000
    2.2177   -6.8305    0.0000 O   0  0  0  0  0  0  0  0  0  0  0  0
    4.2136   -4.4797    0.0000 O   0  0  0  0  0  0  0  0  0  0  0  0
    3.5039   -5.0120    0.0000 O   0  0  0  0  0  0  0  0  0  0  0  0
    1.5080   -8.8707    0.0000 O   0  0  0  0  0  0  0  0  0  0  0  0
    0.9314   -4.3467    0.0000 N   0  0  0  0  0  0  0  0  0  0  0  0
    0.7540   -6.8305    0.0000 N   0  0  0  0  0  0  0  0  0  0  0  0
    0.0444   -6.3869    0.0000 N   0  0  0  0  0  0  0  0  0  0  0  0
    2.2177   -7.6288    0.0000 N   0  0  0  0  0  0  0  0  0  0  0  0
    2.3508   -4.3467    0.0000 N   0  0  0  0  0  0  0  0  0  0  0  0
    0.7097    0.0000    0.0000 N   0  0  0  0  0  0  0  0  0  0  0  0
    1.4637   -5.5442    0.0000 C   0  0  0  0  0  0  0  0  0  0  0  0
    0.7540   -5.1450    0.0000 C   0  0  0  0  0  0  0  0  0  0  0  0
    2.0403   -5.0120    0.0000 C   0  0  0  0  0  0  0  0  0  0  0  0
    1.7298   -4.2136    0.0000 C   0  0  0  0  0  0  0  0  0  0  0  0
    1.4637   -6.3869    0.0000 C   0  0  0  0  0  0  0  0  0  0  0  0
    0.0000   -5.5886    0.0000 C   0  0  0  0  0  0  0  0  0  0  0  0
    2.8830   -5.0563    0.0000 C   0  0  0  0  0  0  0  0  0  0  0  0
    2.2177   -3.5926    0.0000 C   0  0  0  0  0  0  0  0  0  0  0  0
    0.3548   -3.7701    0.0000 C   0  0  0  0  0  0  0  0  0  0  0  0
    3.3709   -4.3910    0.0000 C   0  0  0  0  0  0  0  0  0  0  0  0
    3.0160   -3.6813    0.0000 C   0  0  0  0  0  0  0  0  0  0  0  0
    0.7540   -7.6288    0.0000 C   0  0  0  0  0  0  0  0  0  0  0  0
    0.5766   -2.9717    0.0000 C   0  0  0  0  0  0  0  0  0  0  0  0
    1.5080   -8.0280    0.0000 C   0  0  0  0  0  0  0  0  0  0  0  0
    2.3508   -6.9635    0.0000 C   0  0  0  0  0  0  0  0  0  0  0  0
    2.9274   -5.5886    0.0000 C   0  0  0  0  0  0  0  0  0  0  0  0
    2.1733   -5.1450    0.0000 C   0  0  0  0  0  0  0  0  0  0  0  0
    2.8830   -6.4313    0.0000 C   0  0  0  0  0  0  0  0  0  0  0  0
    1.3749   -2.7943    0.0000 C   0  0  0  0  0  0  0  0  0  0  0  0
    0.0000   -2.3951    0.0000 C   0  0  0  0  0  0  0  0  0  0  0  0
    1.6411   -6.5643    0.0000 C   0  0  0  0  0  0  0  0  0  0  0  0
    1.6411   -5.7660    0.0000 C   0  0  0  0  0  0  0  0  0  0  0  0
    3.1934   -4.2579    0.0000 C   0  0  0  0  0  0  0  0  0  0  0  0
    1.5967   -1.9959    0.0000 C   0  0  0  0  0  0  0  0  0  0  0  0
    0.2218   -1.5967    0.0000 C   0  0  0  0  0  0  0  0  0  0  0  0
    1.0201   -1.3749    0.0000 C   0  0  0  0  0  0  0  0  0  0  0  0
    2.9274   -8.0280    0.0000 C   0  0  0  0  0  0  0  0  0  0  0  0
    4.6571   -3.8144    0.0000 C   0  0  0  0  0  0  0  0  0  0  0  0
    3.5926   -3.5483    0.0000 C   0  0  0  0  0  0  0  0  0  0  0  0
    1.2863   -0.5766    0.0000 C   0  0  0  0  0  0  0  0  0  0  0  0
  1 15  2  0  0  0  0
  2 20  1  0  0  0  0
  2 38  1  0  0  0  0
  3 26  1  0  0  0  0
  3 33  1  0  0  0  0
  4 24  2  0  0  0  0
  5 12  1  0  0  0  0
  5 14  1  0  0  0  0
  5 19  1  0  0  0  0
  6  7  1  0  0  0  0
  6 15  1  0  0  0  0
  6 22  1  0  0  0  0
  7 16  2  0  0  0  0
  8 24  1  0  0  0  0
  8 25  1  0  0  0  0
  8 37  1  0  0  0  0
  9 27  1  0  0  0  0
  9 33  2  0  0  0  0
 10 40  3  0  0  0  0
 11 12  2  0  0  0  0
 11 13  1  0  0  0  0
 11 15  1  0  0  0  0
 12 16  1  0  0  0  0
 13 14  2  0  0  0  0
 13 17  1  0  0  0  0
 14 18  1  0  0  0  0
 17 20  2  0  0  0  0
 18 21  2  0  0  0  0
 19 23  1  0  0  0  0
 20 21  1  0  0  0  0
 22 24  1  0  0  0  0
 23 29  2  0  0  0  0
 23 30  1  0  0  0  0
 25 28  2  0  0  0  0
 25 31  1  0  0  0  0
 26 27  2  0  0  0  0
 26 28  1  0  0  0  0
 27 32  1  0  0  0  0
 29 34  1  0  0  0  0
 30 35  2  0  0  0  0
 31 32  2  0  0  0  0
 33 39  1  0  0  0  0
 34 36  2  0  0  0  0
 35 36  1  0  0  0  0
 36 40  1  0  0  0  0
M  END
> <PUBCHEM_COMPOUND_ID_TYPE>
0

> <PUBCHEM_TOTAL_CHARGE>
0

> <PUBCHEM_SUBSTANCE_ID>
310932770

> <PUBCHEM_SUBSTANCE_VERSION>
1

> <PUBCHEM_EXT_DATASOURCE_NAME>
4488

> <PUBCHEM_EXT_DATASOURCE_REGID>
SCHEMBL16110156

> <PUBCHEM_SUBSTANCE_COMMENT>
InChI=1S/C30H24N6O4/c1-18-33-24-10-8-21(12-27(24)40-18)34(2)28(37)17-36-30(38)29-23-13-22(39-3)9-11-25(23)35(26(29)15-32-36)16-20-6-4-19(14-31)5-7-20/h4-13,15H,16-17H2,1-3H3
InChIKey=UIZLZFMHBCUKLV-UHFFFAOYSA-N

> <PUBCHEM_SUBSTANCE_SYNONYM>
SCHEMBL16110156

> <PUBCHEM_XREF_EXT_ID>
SCHEMBL16110156

> <PUBCHEM_EXT_DATASOURCE_URL>
https://www.surechembl.org/

> <PUBCHEM_EXT_SUBSTANCE_URL>
https://www.surechembl.org/chemical/SCHEMBL16110156

> <PUBCHEM_CID_ASSOCIATIONS>
117601267  1

> <PUBCHEM_COORDINATE_TYPE>
1
3

$$$$
