310939535
  -OEChem-07211613022D

 48 53  0     1  0  0  0  0  0999 V2000
   -1.5229    7.8382    0.0000 O   0  0  0  0  0  0  0  0  0  0  0  0
   -0.3959    7.5362    0.0000 O   0  0  0  0  0  0  0  0  0  0  0  0
   -0.9914   10.0451    0.0000 O   0  0  0  0  0  0  0  0  0  0  0  0
    0.1271    4.9803    0.0000 O   0  0  0  0  0  0  0  0  0  0  0  0
    0.1271    6.4093    0.0000 O   0  0  0  0  0  0  0  0  0  0  0  0
    0.4376   10.0451    0.0000 O   0  0  0  0  0  0  0  0  0  0  0  0
   -3.6174    8.2507    0.0000 C   0  0  3  0  0  0  0  0  0  0  0  0
   -3.6174    7.4257    0.0000 C   0  0  3  0  0  0  0  0  0  0  0  0
   -2.8328    8.5056    0.0000 C   0  0  3  0  0  0  0  0  0  0  0  0
   -2.3479    7.8382    0.0000 C   0  0  3  0  0  0  0  0  0  0  0  0
   -5.0464    7.4257    0.0000 C   0  0  0  0  0  0  0  0  0  0  0  0
   -5.0464    8.2507    0.0000 C   0  0  0  0  0  0  0  0  0  0  0  0
   -2.8328    7.1708    0.0000 C   0  0  0  0  0  0  0  0  0  0  0  0
   -4.3319    8.6632    0.0000 C   0  0  0  0  0  0  0  0  0  0  0  0
   -4.3319    7.0132    0.0000 C   0  0  0  0  0  0  0  0  0  0  0  0
   -5.7609    7.0132    0.0000 C   0  0  0  0  0  0  0  0  0  0  0  0
   -2.4203    9.2201    0.0000 C   0  0  0  0  0  0  0  0  0  0  0  0
   -1.1104    7.1237    0.0000 C   0  0  0  0  0  0  0  0  0  0  0  0
   -5.7609    8.6632    0.0000 C   0  0  0  0  0  0  0  0  0  0  0  0
   -1.5229    6.4093    0.0000 C   0  0  3  0  0  0  0  0  0  0  0  0
   -6.4753    7.4257    0.0000 C   0  0  0  0  0  0  0  0  0  0  0  0
   -6.4753    8.2507    0.0000 C   0  0  0  0  0  0  0  0  0  0  0  0
   -1.1104    5.6948    0.0000 C   0  0  3  0  0  0  0  0  0  0  0  0
   -1.7058    8.8076    0.0000 C   0  0  0  0  0  0  0  0  0  0  0  0
   -5.7609    6.1012    0.0000 C   0  0  0  0  0  0  0  0  0  0  0  0
   -2.3479    6.4093    0.0000 C   0  0  0  0  0  0  0  0  0  0  0  0
   -0.2854    5.6948    0.0000 C   0  0  0  0  0  0  0  0  0  0  0  0
   -0.9914    9.2201    0.0000 C   0  0  3  0  0  0  0  0  0  0  0  0
   -1.5229    4.9803    0.0000 C   0  0  0  0  0  0  0  0  0  0  0  0
   -2.7604    5.6948    0.0000 C   0  0  0  0  0  0  0  0  0  0  0  0
   -2.3479    4.9803    0.0000 C   0  0  0  0  0  0  0  0  0  0  0  0
   -0.2769    8.8076    0.0000 C   0  0  0  0  0  0  0  0  0  0  0  0
   -0.2769   10.4576    0.0000 C   0  0  3  0  0  0  0  0  0  0  0  0
    0.9521    4.9803    0.0000 C   0  0  0  0  0  0  0  0  0  0  0  0
    0.4376    9.2201    0.0000 C   0  0  0  0  0  0  0  0  0  0  0  0
    1.3646    4.2658    0.0000 C   0  0  0  0  0  0  0  0  0  0  0  0
   -0.2769   11.2826    0.0000 C   0  0  0  0  0  0  0  0  0  0  0  0
    0.9521    3.5514    0.0000 C   0  0  0  0  0  0  0  0  0  0  0  0
    2.1896    4.2658    0.0000 C   0  0  0  0  0  0  0  0  0  0  0  0
    1.1520   10.4576    0.0000 C   0  0  0  0  0  0  0  0  0  0  0  0
    0.4376   11.6951    0.0000 C   0  0  0  0  0  0  0  0  0  0  0  0
    1.1520    8.8076    0.0000 C   0  0  0  0  0  0  0  0  0  0  0  0
    1.1520   11.2826    0.0000 C   0  0  0  0  0  0  0  0  0  0  0  0
    1.3646    2.8369    0.0000 C   0  0  0  0  0  0  0  0  0  0  0  0
    2.6021    3.5514    0.0000 C   0  0  0  0  0  0  0  0  0  0  0  0
    2.1896    2.8369    0.0000 C   0  0  0  0  0  0  0  0  0  0  0  0
    1.8665    9.2201    0.0000 C   0  0  0  0  0  0  0  0  0  0  0  0
    2.5810    8.8076    0.0000 C   0  0  0  0  0  0  0  0  0  0  0  0
 10  1  1  6  0  0  0
  1 18  1  0  0  0  0
  2 18  2  0  0  0  0
 28  3  1  1  0  0  0
  3 33  1  0  0  0  0
  4 27  1  0  0  0  0
  4 34  1  0  0  0  0
  5 27  2  0  0  0  0
  6 33  1  0  0  0  0
  6 40  1  0  0  0  0
  7  8  1  0  0  0  0
  7  9  1  0  0  0  0
  7 14  1  6  0  0  0
  8 13  1  6  0  0  0
  8 15  1  0  0  0  0
  9 10  1  0  0  0  0
  9 17  1  1  0  0  0
 10 13  1  0  0  0  0
 11 12  2  0  0  0  0
 11 15  1  0  0  0  0
 11 16  1  0  0  0  0
 12 14  1  0  0  0  0
 12 19  1  0  0  0  0
 16 21  2  0  0  0  0
 16 25  1  0  0  0  0
 17 24  1  0  0  0  0
 20 18  1  6  0  0  0
 19 22  2  0  0  0  0
 20 23  1  0  0  0  0
 20 26  1  0  0  0  0
 21 22  1  0  0  0  0
 23 27  1  6  0  0  0
 23 29  1  0  0  0  0
 24 28  1  0  0  0  0
 26 30  1  0  0  0  0
 28 32  1  0  0  0  0
 29 31  1  0  0  0  0
 30 31  1  0  0  0  0
 32 35  1  0  0  0  0
 33 37  1  0  0  0  0
 34 36  1  0  0  0  0
 35 42  1  0  0  0  0
 36 38  2  0  0  0  0
 36 39  1  0  0  0  0
 37 41  1  0  0  0  0
 38 44  1  0  0  0  0
 39 45  2  0  0  0  0
 40 43  1  0  0  0  0
 41 43  1  0  0  0  0
 42 47  1  0  0  0  0
 44 46  2  0  0  0  0
 45 46  1  0  0  0  0
 47 48  1  0  0  0  0
M  END
> <PUBCHEM_COMPOUND_ID_TYPE>
0

> <PUBCHEM_TOTAL_CHARGE>
0

> <PUBCHEM_SUBSTANCE_ID>
310939535

> <PUBCHEM_SUBSTANCE_VERSION>
1

> <PUBCHEM_EXT_DATASOURCE_NAME>
4488

> <PUBCHEM_EXT_DATASOURCE_REGID>
SCHEMBL16117464

> <PUBCHEM_SUBSTANCE_COMMENT>
InChI=1S/C42H58O6/c1-3-4-6-18-33(47-40-21-11-12-24-45-40)22-23-34-38-25-31-17-13-14-29(2)37(31)26-32(38)27-39(34)48-42(44)36-20-10-9-19-35(36)41(43)46-28-30-15-7-5-8-16-30/h5,7-8,13-17,32-36,38-40H,3-4,6,9-12,18-28H2,1-2H3/t32-,33-,34+,35+,36-,38-,39+,40?/m0/s1
InChIKey=YKABJSDVZPQQBN-ZJAWDTOASA-N

> <PUBCHEM_SUBSTANCE_SYNONYM>
SCHEMBL16117464

> <PUBCHEM_XREF_EXT_ID>
SCHEMBL16117464

> <PUBCHEM_EXT_DATASOURCE_URL>
https://www.surechembl.org/

> <PUBCHEM_EXT_SUBSTANCE_URL>
https://www.surechembl.org/chemical/SCHEMBL16117464

> <PUBCHEM_CID_ASSOCIATIONS>
117606832  1

> <PUBCHEM_COORDINATE_TYPE>
1
3

> <PUBCHEM_BONDANNOTATIONS>
10  1  6
20  18  6
23  27  6
28  3  5
7  14  6
8  13  6
9  17  5

$$$$
