310941636
  -OEChem-07211613022D

 26 29  0     0  0  0  0  0  0999 V2000
    3.3694   -1.9498    0.0000 Br  0  0  0  0  0  0  0  0  0  0  0  0
    0.8893    1.9498    0.0000 S   0  0  0  0  0  0  0  0  0  0  0  0
   -2.9125   -1.5746    0.0000 F   0  0  0  0  0  0  0  0  0  0  0  0
   -1.4604   -0.7261    0.0000 O   0  0  0  0  0  0  0  0  0  0  0  0
   -0.0245   -0.7261    0.0000 O   0  0  0  0  0  0  0  0  0  0  0  0
    0.7424    0.5955    0.0000 N   0  0  0  0  0  0  0  0  0  0  0  0
    2.1293    1.1340    0.0000 N   0  0  0  0  0  0  0  0  0  0  0  0
   -0.7424    0.5303    0.0000 C   0  0  0  0  0  0  0  0  0  0  0  0
   -0.0245    0.9546    0.0000 C   0  0  0  0  0  0  0  0  0  0  0  0
   -2.1946   -0.2856    0.0000 C   0  0  0  0  0  0  0  0  0  0  0  0
   -2.1783    0.5303    0.0000 C   0  0  0  0  0  0  0  0  0  0  0  0
   -0.7751   -0.2856    0.0000 C   0  0  0  0  0  0  0  0  0  0  0  0
   -1.4767    0.9382    0.0000 C   0  0  0  0  0  0  0  0  0  0  0  0
    1.2972    1.2319    0.0000 C   0  0  0  0  0  0  0  0  0  0  0  0
   -2.9125   -0.7098    0.0000 C   0  0  0  0  0  0  0  0  0  0  0  0
    0.0734    1.7703    0.0000 C   0  0  0  0  0  0  0  0  0  0  0  0
   -2.9288    0.9382    0.0000 C   0  0  0  0  0  0  0  0  0  0  0  0
    2.4719    0.3834    0.0000 C   0  0  0  0  0  0  0  0  0  0  0  0
   -3.6141   -0.3019    0.0000 C   0  0  0  0  0  0  0  0  0  0  0  0
    1.9825   -0.3019    0.0000 C   0  0  0  0  0  0  0  0  0  0  0  0
   -3.6304    0.5140    0.0000 C   0  0  0  0  0  0  0  0  0  0  0  0
    3.2878    0.2856    0.0000 C   0  0  0  0  0  0  0  0  0  0  0  0
    2.3251   -1.0524    0.0000 C   0  0  0  0  0  0  0  0  0  0  0  0
    3.1409   -1.1503    0.0000 C   0  0  0  0  0  0  0  0  0  0  0  0
    3.6304   -0.4650    0.0000 C   0  0  0  0  0  0  0  0  0  0  0  0
    1.1666   -0.3019    0.0000 C   0  0  0  0  0  0  0  0  0  0  0  0
  1 24  1  0  0  0  0
  2 14  1  0  0  0  0
  2 16  1  0  0  0  0
  3 15  1  0  0  0  0
  4 10  1  0  0  0  0
  4 12  1  0  0  0  0
  5 12  2  0  0  0  0
  6  9  1  0  0  0  0
  6 14  2  0  0  0  0
  7 14  1  0  0  0  0
  7 18  1  0  0  0  0
  8  9  1  0  0  0  0
  8 12  1  0  0  0  0
  8 13  2  0  0  0  0
  9 16  2  0  0  0  0
 10 11  1  0  0  0  0
 10 15  2  0  0  0  0
 11 13  1  0  0  0  0
 11 17  2  0  0  0  0
 15 19  1  0  0  0  0
 17 21  1  0  0  0  0
 18 20  2  0  0  0  0
 18 22  1  0  0  0  0
 19 21  2  0  0  0  0
 20 23  1  0  0  0  0
 20 26  1  0  0  0  0
 22 25  2  0  0  0  0
 23 24  2  0  0  0  0
 24 25  1  0  0  0  0
M  END
> <PUBCHEM_COMPOUND_ID_TYPE>
0

> <PUBCHEM_TOTAL_CHARGE>
0

> <PUBCHEM_SUBSTANCE_ID>
310941636

> <PUBCHEM_SUBSTANCE_VERSION>
1

> <PUBCHEM_EXT_DATASOURCE_NAME>
4488

> <PUBCHEM_EXT_DATASOURCE_REGID>
SCHEMBL16119667

> <PUBCHEM_SUBSTANCE_COMMENT>
InChI=1S/C19H12BrFN2O2S/c1-10-7-12(20)5-6-15(10)22-19-23-16(9-26-19)13-8-11-3-2-4-14(21)17(11)25-18(13)24/h2-9H,1H3,(H,22,23)
InChIKey=PMYAACKKVIBNTM-UHFFFAOYSA-N

> <PUBCHEM_SUBSTANCE_SYNONYM>
SCHEMBL16119667

> <PUBCHEM_XREF_EXT_ID>
SCHEMBL16119667

> <PUBCHEM_EXT_DATASOURCE_URL>
https://www.surechembl.org/

> <PUBCHEM_EXT_SUBSTANCE_URL>
https://www.surechembl.org/chemical/SCHEMBL16119667

> <PUBCHEM_CID_ASSOCIATIONS>
117608423  1

> <PUBCHEM_COORDINATE_TYPE>
1
3

$$$$
