310942578
  -OEChem-07211613022D

 59 65  0     1  0  0  0  0  0999 V2000
    4.6550    2.5236    0.0000 F   0  0  0  0  0  0  0  0  0  0  0  0
    2.2507   -3.6319    0.0000 F   0  0  0  0  0  0  0  0  0  0  0  0
    1.3982    3.1886    0.0000 F   0  0  0  0  0  0  0  0  0  0  0  0
    2.3701    0.1364    0.0000 O   0  0  0  0  0  0  0  0  0  0  0  0
   -0.8525    0.1194    0.0000 O   0  0  0  0  0  0  0  0  0  0  0  0
    5.2859   -2.5406    0.0000 O   0  0  0  0  0  0  0  0  0  0  0  0
   -0.7332   -1.6881    0.0000 O   0  0  0  0  0  0  0  0  0  0  0  0
   -0.5627    1.5346    0.0000 O   0  0  0  0  0  0  0  0  0  0  0  0
   -3.8365   -0.0171    0.0000 O   0  0  0  0  0  0  0  0  0  0  0  0
   -5.9509    1.1765    0.0000 O   0  0  0  0  0  0  0  0  0  0  0  0
   -6.5306   -1.7051    0.0000 O   0  0  0  0  0  0  0  0  0  0  0  0
    2.6259   -1.1595    0.0000 N   0  0  0  0  0  0  0  0  0  0  0  0
    4.3651    0.1875    0.0000 N   0  0  0  0  0  0  0  0  0  0  0  0
    3.0863    0.5968    0.0000 N   0  0  0  0  0  0  0  0  0  0  0  0
    1.1765   -0.6650    0.0000 N   0  0  0  0  0  0  0  0  0  0  0  0
    0.3751   -2.6088    0.0000 N   0  0  0  0  0  0  0  0  0  0  0  0
   -1.9268    1.0743    0.0000 N   0  0  0  0  0  0  0  0  0  0  0  0
   -6.0021   -0.3069    0.0000 N   0  0  0  0  0  0  0  0  0  0  0  0
    3.3932   -0.8866    0.0000 C   0  0  3  0  0  0  0  0  0  0  0  0
    3.5807   -0.0682    0.0000 C   0  0  0  0  0  0  0  0  0  0  0  0
    3.5637    1.2959    0.0000 C   0  0  0  0  0  0  0  0  0  0  0  0
    4.0582   -1.4323    0.0000 C   0  0  0  0  0  0  0  0  0  0  0  0
    1.9950   -0.6138    0.0000 C   0  0  0  0  0  0  0  0  0  0  0  0
    4.3651    1.0231    0.0000 C   0  0  0  0  0  0  0  0  0  0  0  0
    3.2909    2.0803    0.0000 C   0  0  0  0  0  0  0  0  0  0  0  0
    2.4554   -1.9779    0.0000 C   0  0  0  0  0  0  0  0  0  0  0  0
    4.9960   -0.3581    0.0000 C   0  0  0  0  0  0  0  0  0  0  0  0
    1.6710   -2.2337    0.0000 C   0  0  3  0  0  0  0  0  0  0  0  0
    3.8365    2.6941    0.0000 C   0  0  0  0  0  0  0  0  0  0  0  0
    0.6138   -0.0171    0.0000 C   0  0  0  0  0  0  0  0  0  0  0  0
    0.7332   -1.3641    0.0000 C   0  0  0  0  0  0  0  0  0  0  0  0
   -0.1364   -0.3240    0.0000 C   0  0  3  0  0  0  0  0  0  0  0  0
    3.8877   -2.2678    0.0000 C   0  0  0  0  0  0  0  0  0  0  0  0
    4.8425   -1.1765    0.0000 C   0  0  0  0  0  0  0  0  0  0  0  0
   -0.0853   -1.1425    0.0000 C   0  0  3  0  0  0  0  0  0  0  0  0
    2.4895    2.2337    0.0000 C   0  0  0  0  0  0  0  0  0  0  0  0
    5.7634   -0.0853    0.0000 C   0  0  0  0  0  0  0  0  0  0  0  0
    1.6199   -3.0692    0.0000 C   0  0  3  0  0  0  0  0  0  0  0  0
    2.2166    3.0351    0.0000 C   0  0  0  0  0  0  0  0  0  0  0  0
    3.5637    3.4785    0.0000 C   0  0  0  0  0  0  0  0  0  0  0  0
    0.9378   -1.9779    0.0000 C   0  0  0  0  0  0  0  0  0  0  0  0
    4.5186   -2.8135    0.0000 C   0  0  0  0  0  0  0  0  0  0  0  0
    5.4565   -1.7222    0.0000 C   0  0  0  0  0  0  0  0  0  0  0  0
    2.7794    3.6319    0.0000 C   0  0  0  0  0  0  0  0  0  0  0  0
    0.8355   -3.2909    0.0000 C   0  0  0  0  0  0  0  0  0  0  0  0
    5.9679    0.7332    0.0000 C   0  0  0  0  0  0  0  0  0  0  0  0
    6.4454   -0.6309    0.0000 C   0  0  0  0  0  0  0  0  0  0  0  0
   -1.1254    0.8866    0.0000 C   0  0  0  0  0  0  0  0  0  0  0  0
    6.7353    0.9890    0.0000 C   0  0  0  0  0  0  0  0  0  0  0  0
    7.1956   -0.3581    0.0000 C   0  0  0  0  0  0  0  0  0  0  0  0
    7.3491    0.4434    0.0000 C   0  0  0  0  0  0  0  0  0  0  0  0
   -2.4725    0.4434    0.0000 C   0  0  0  0  0  0  0  0  0  0  0  0
   -6.6159   -0.8355    0.0000 C   0  0  0  0  0  0  0  0  0  0  0  0
   -6.3772    0.4263    0.0000 C   0  0  0  0  0  0  0  0  0  0  0  0
   -7.1786    0.3581    0.0000 C   0  0  0  0  0  0  0  0  0  0  0  0
   -7.3491   -0.4604    0.0000 C   0  0  0  0  0  0  0  0  0  0  0  0
   -5.2006   -0.4775    0.0000 C   0  0  0  0  0  0  0  0  0  0  0  0
   -3.2738    0.6138    0.0000 C   0  0  0  0  0  0  0  0  0  0  0  0
   -4.6379    0.1535    0.0000 C   0  0  0  0  0  0  0  0  0  0  0  0
  1 29  1  0  0  0  0
 38  2  1  1  0  0  0
  3 39  1  0  0  0  0
  4 23  2  0  0  0  0
 32  5  1  1  0  0  0
  5 48  1  0  0  0  0
  6 42  1  0  0  0  0
  6 43  1  0  0  0  0
 35  7  1  1  0  0  0
  8 48  2  0  0  0  0
  9 58  1  0  0  0  0
  9 59  1  0  0  0  0
 10 54  2  0  0  0  0
 11 53  2  0  0  0  0
 19 12  1  1  0  0  0
 12 23  1  0  0  0  0
 12 26  1  0  0  0  0
 13 20  1  0  0  0  0
 13 24  1  0  0  0  0
 13 27  1  0  0  0  0
 14 20  2  0  0  0  0
 14 21  1  0  0  0  0
 15 23  1  0  0  0  0
 15 30  1  0  0  0  0
 15 31  1  0  0  0  0
 16 41  1  0  0  0  0
 16 45  1  0  0  0  0
 17 48  1  0  0  0  0
 17 52  1  0  0  0  0
 18 53  1  0  0  0  0
 18 54  1  0  0  0  0
 18 57  1  0  0  0  0
 19 20  1  0  0  0  0
 19 22  1  0  0  0  0
 21 24  2  0  0  0  0
 21 25  1  0  0  0  0
 22 33  1  0  0  0  0
 22 34  1  0  0  0  0
 25 29  1  0  0  0  0
 25 36  2  0  0  0  0
 28 26  1  1  0  0  0
 27 37  1  0  0  0  0
 28 38  1  0  0  0  0
 28 41  1  0  0  0  0
 29 40  2  0  0  0  0
 30 32  1  0  0  0  0
 31 35  1  0  0  0  0
 32 35  1  0  0  0  0
 33 42  1  0  0  0  0
 34 43  1  0  0  0  0
 36 39  1  0  0  0  0
 37 46  2  0  0  0  0
 37 47  1  0  0  0  0
 38 45  1  0  0  0  0
 39 44  2  0  0  0  0
 40 44  1  0  0  0  0
 46 49  1  0  0  0  0
 47 50  2  0  0  0  0
 49 51  2  0  0  0  0
 50 51  1  0  0  0  0
 52 58  1  0  0  0  0
 53 56  1  0  0  0  0
 54 55  1  0  0  0  0
 55 56  2  0  0  0  0
 57 59  1  0  0  0  0
M  END
> <PUBCHEM_COMPOUND_ID_TYPE>
0

> <PUBCHEM_TOTAL_CHARGE>
0

> <PUBCHEM_SUBSTANCE_ID>
310942578

> <PUBCHEM_SUBSTANCE_VERSION>
1

> <PUBCHEM_EXT_DATASOURCE_NAME>
4488

> <PUBCHEM_EXT_DATASOURCE_REGID>
SCHEMBL16120623

> <PUBCHEM_SUBSTANCE_COMMENT>
InChI=1S/C41H48F3N7O8/c42-29-6-7-31(43)30(18-29)33-23-48(21-26-4-2-1-3-5-26)39(47-33)38(27-10-14-57-15-11-27)51(22-28-19-45-20-32(28)44)41(56)49-24-34(52)35(25-49)59-40(55)46-12-16-58-17-13-50-36(53)8-9-37(50)54/h1-9,18,23,27-28,32,34-35,38,45,52H,10-17,19-22,24-25H2,(H,46,55)/t28-,32-,34+,35-,38+/m0/s1
InChIKey=GQTGPVKOOAUMFA-NSPDFZFUSA-N

> <PUBCHEM_SUBSTANCE_SYNONYM>
SCHEMBL16120623

> <PUBCHEM_XREF_EXT_ID>
SCHEMBL16120623

> <PUBCHEM_EXT_DATASOURCE_URL>
https://www.surechembl.org/

> <PUBCHEM_EXT_SUBSTANCE_URL>
https://www.surechembl.org/chemical/SCHEMBL16120623

> <PUBCHEM_CID_ASSOCIATIONS>
117609131  1

> <PUBCHEM_COORDINATE_TYPE>
1
3

> <PUBCHEM_BONDANNOTATIONS>
19  12  5
38  2  5
28  26  5
32  5  5
35  7  5

$$$$
