310932501
  -OEChem-07211613022D

 28 31  0     0  0  0  0  0  0999 V2000
    5.1068   -1.3658    0.0000 O   0  0  0  0  0  0  0  0  0  0  0  0
    0.9798   -3.0582    0.0000 O   0  0  0  0  0  0  0  0  0  0  0  0
    0.4751   -0.1188    0.0000 O   0  0  0  0  0  0  0  0  0  0  0  0
    4.7209   -2.7612    0.0000 N   0  0  0  0  0  0  0  0  0  0  0  0
    5.1366   -3.4739    0.0000 N   0  0  0  0  0  0  0  0  0  0  0  0
    3.4442   -3.3254    0.0000 N   0  0  0  0  0  0  0  0  0  0  0  0
    1.1283   -1.6330    0.0000 N   0  0  0  0  0  0  0  0  0  0  0  0
    8.9073    0.0000    0.0000 N   0  0  0  0  0  0  0  0  0  0  0  0
    5.2850   -2.1675    0.0000 C   0  0  0  0  0  0  0  0  0  0  0  0
    6.0273   -2.4941    0.0000 C   0  0  0  0  0  0  0  0  0  0  0  0
    3.9192   -2.6722    0.0000 C   0  0  0  0  0  0  0  0  0  0  0  0
    6.7399   -2.0784    0.0000 C   0  0  0  0  0  0  0  0  0  0  0  0
    5.9382   -3.2957    0.0000 C   0  0  0  0  0  0  0  0  0  0  0  0
    2.2862   -2.4941    0.0000 C   0  0  0  0  0  0  0  0  0  0  0  0
    3.5926   -1.9002    0.0000 C   0  0  0  0  0  0  0  0  0  0  0  0
    1.4548   -2.4050    0.0000 C   0  0  0  0  0  0  0  0  0  0  0  0
    2.6128   -3.2660    0.0000 C   0  0  0  0  0  0  0  0  0  0  0  0
    2.7612   -1.8409    0.0000 C   0  0  0  0  0  0  0  0  0  0  0  0
    6.7399   -1.2470    0.0000 C   0  0  0  0  0  0  0  0  0  0  0  0
    7.4524   -2.4941    0.0000 C   0  0  0  0  0  0  0  0  0  0  0  0
    8.1651   -1.2470    0.0000 C   0  0  0  0  0  0  0  0  0  0  0  0
    7.4524   -0.8313    0.0000 C   0  0  0  0  0  0  0  0  0  0  0  0
    8.1651   -2.0784    0.0000 C   0  0  0  0  0  0  0  0  0  0  0  0
    0.3266   -1.5439    0.0000 C   0  0  0  0  0  0  0  0  0  0  0  0
    1.6330   -0.9798    0.0000 C   0  0  0  0  0  0  0  0  0  0  0  0
    1.3064   -0.2376    0.0000 C   0  0  0  0  0  0  0  0  0  0  0  0
    0.0000   -0.8017    0.0000 C   0  0  0  0  0  0  0  0  0  0  0  0
    8.9073   -0.8313    0.0000 C   0  0  0  0  0  0  0  0  0  0  0  0
  1  9  1  0  0  0  0
  2 16  2  0  0  0  0
  3 26  1  0  0  0  0
  3 27  1  0  0  0  0
  4  5  1  0  0  0  0
  4  9  1  0  0  0  0
  4 11  1  0  0  0  0
  5 13  2  0  0  0  0
  6 11  1  0  0  0  0
  6 17  2  0  0  0  0
  7 16  1  0  0  0  0
  7 24  1  0  0  0  0
  7 25  1  0  0  0  0
  8 28  3  0  0  0  0
  9 10  2  0  0  0  0
 10 12  1  0  0  0  0
 10 13  1  0  0  0  0
 11 15  2  0  0  0  0
 12 19  2  0  0  0  0
 12 20  1  0  0  0  0
 14 16  1  0  0  0  0
 14 17  1  0  0  0  0
 14 18  2  0  0  0  0
 15 18  1  0  0  0  0
 19 22  1  0  0  0  0
 20 23  2  0  0  0  0
 21 22  2  0  0  0  0
 21 23  1  0  0  0  0
 21 28  1  0  0  0  0
 24 27  1  0  0  0  0
 25 26  1  0  0  0  0
M  END
> <PUBCHEM_COMPOUND_ID_TYPE>
0

> <PUBCHEM_TOTAL_CHARGE>
0

> <PUBCHEM_SUBSTANCE_ID>
310932501

> <PUBCHEM_SUBSTANCE_VERSION>
1

> <PUBCHEM_EXT_DATASOURCE_NAME>
4488

> <PUBCHEM_EXT_DATASOURCE_REGID>
SCHEMBL16109873

> <PUBCHEM_SUBSTANCE_COMMENT>
InChI=1S/C20H17N5O3/c21-11-14-1-3-15(4-2-14)17-13-23-25(20(17)27)18-6-5-16(12-22-18)19(26)24-7-9-28-10-8-24/h1-6,12-13,27H,7-10H2
InChIKey=JBPTYBNPRQNNLE-UHFFFAOYSA-N

> <PUBCHEM_SUBSTANCE_SYNONYM>
SCHEMBL16109873

> <PUBCHEM_XREF_EXT_ID>
SCHEMBL16109873

> <PUBCHEM_EXT_DATASOURCE_URL>
https://www.surechembl.org/

> <PUBCHEM_EXT_SUBSTANCE_URL>
https://www.surechembl.org/chemical/SCHEMBL16109873

> <PUBCHEM_CID_ASSOCIATIONS>
117601037  1

> <PUBCHEM_COORDINATE_TYPE>
1
3

$$$$
