310939363
  -OEChem-07211613022D

 31 32  0     1  0  0  0  0  0999 V2000
    1.0717    1.4437    0.0000 Cl  0  0  0  0  0  0  0  0  0  0  0  0
   -0.3572   -1.0313    0.0000 F   0  0  0  0  0  0  0  0  0  0  0  0
    3.9296    1.4437    0.0000 F   0  0  0  0  0  0  0  0  0  0  0  0
    1.0717   -0.2063    0.0000 O   0  0  0  0  0  0  0  0  0  0  0  0
    4.6441    0.2063    0.0000 O   0  0  0  0  0  0  0  0  0  0  0  0
   -4.6441   -0.2063    0.0000 O   0  0  0  0  0  0  0  0  0  0  0  0
   -2.5006    0.2062    0.0000 N   0  0  0  0  0  0  0  0  0  0  0  0
    3.9296   -1.0312    0.0000 N   0  0  0  0  0  0  0  0  0  0  0  0
   -3.9296    1.0312    0.0000 N   0  0  0  0  0  0  0  0  0  0  0  0
    0.3572    0.2062    0.0000 C   0  0  0  0  0  0  0  0  0  0  0  0
   -0.3572   -0.2063    0.0000 C   0  0  0  0  0  0  0  0  0  0  0  0
   -1.0717    0.2062    0.0000 C   0  0  0  0  0  0  0  0  0  0  0  0
    0.3572    1.0312    0.0000 C   0  0  0  0  0  0  0  0  0  0  0  0
    1.7862    0.2062    0.0000 C   0  0  0  0  0  0  0  0  0  0  0  0
   -1.7862   -0.2063    0.0000 C   0  0  3  0  0  0  0  0  0  0  0  0
    3.2151    0.2062    0.0000 C   0  0  0  0  0  0  0  0  0  0  0  0
   -1.0717    1.0312    0.0000 C   0  0  0  0  0  0  0  0  0  0  0  0
    2.5006   -0.2062    0.0000 C   0  0  0  0  0  0  0  0  0  0  0  0
   -0.3572    1.4438    0.0000 C   0  0  0  0  0  0  0  0  0  0  0  0
    3.2151    1.0312    0.0000 C   0  0  0  0  0  0  0  0  0  0  0  0
    3.9296   -0.2063    0.0000 C   0  0  0  0  0  0  0  0  0  0  0  0
    1.7862    1.0312    0.0000 C   0  0  0  0  0  0  0  0  0  0  0  0
    2.5006    1.4437    0.0000 C   0  0  0  0  0  0  0  0  0  0  0  0
   -1.7862   -1.0313    0.0000 C   0  0  0  0  0  0  0  0  0  0  0  0
   -2.5006    1.0312    0.0000 C   0  0  3  0  0  0  0  0  0  0  0  0
   -3.2151    1.4437    0.0000 C   0  0  0  0  0  0  0  0  0  0  0  0
   -1.0717   -1.4438    0.0000 C   0  0  0  0  0  0  0  0  0  0  0  0
    3.2151   -1.4438    0.0000 C   0  0  0  0  0  0  0  0  0  0  0  0
    4.6441   -1.4437    0.0000 C   0  0  0  0  0  0  0  0  0  0  0  0
   -1.7862    1.4437    0.0000 C   0  0  0  0  0  0  0  0  0  0  0  0
   -3.9296    0.2062    0.0000 C   0  0  0  0  0  0  0  0  0  0  0  0
  1 13  1  0  0  0  0
  2 11  1  0  0  0  0
  3 20  1  0  0  0  0
  4 10  1  0  0  0  0
  4 14  1  0  0  0  0
  5 21  2  0  0  0  0
  6 31  2  0  0  0  0
 15  7  1  1  0  0  0
  7 25  1  0  0  0  0
  8 21  1  0  0  0  0
  8 28  1  0  0  0  0
  8 29  1  0  0  0  0
  9 26  1  0  0  0  0
  9 31  1  0  0  0  0
 10 11  2  0  0  0  0
 10 13  1  0  0  0  0
 11 12  1  0  0  0  0
 12 15  1  0  0  0  0
 12 17  2  0  0  0  0
 13 19  2  0  0  0  0
 14 18  2  0  0  0  0
 14 22  1  0  0  0  0
 15 24  1  0  0  0  0
 16 18  1  0  0  0  0
 16 20  2  0  0  0  0
 16 21  1  0  0  0  0
 17 19  1  0  0  0  0
 20 23  1  0  0  0  0
 22 23  2  0  0  0  0
 24 27  1  0  0  0  0
 25 26  1  0  0  0  0
 25 30  1  6  0  0  0
M  END
> <PUBCHEM_COMPOUND_ID_TYPE>
0

> <PUBCHEM_TOTAL_CHARGE>
0

> <PUBCHEM_SUBSTANCE_ID>
310939363

> <PUBCHEM_SUBSTANCE_VERSION>
1

> <PUBCHEM_EXT_DATASOURCE_NAME>
4488

> <PUBCHEM_EXT_DATASOURCE_REGID>
SCHEMBL16117284

> <PUBCHEM_SUBSTANCE_COMMENT>
InChI=1S/C22H26ClF2N3O3/c1-5-19(27-13(2)11-26-12-29)15-7-8-17(23)21(20(15)25)31-14-6-9-18(24)16(10-14)22(30)28(3)4/h6-10,12-13,19,27H,5,11H2,1-4H3,(H,26,29)/t13-,19+/m0/s1
InChIKey=MJGPZIZOHSNEDO-ORAYPTAESA-N

> <PUBCHEM_SUBSTANCE_SYNONYM>
SCHEMBL16117284

> <PUBCHEM_XREF_EXT_ID>
SCHEMBL16117284

> <PUBCHEM_EXT_DATASOURCE_URL>
https://www.surechembl.org/

> <PUBCHEM_EXT_SUBSTANCE_URL>
https://www.surechembl.org/chemical/SCHEMBL16117284

> <PUBCHEM_CID_ASSOCIATIONS>
117606690  1

> <PUBCHEM_COORDINATE_TYPE>
1
3

> <PUBCHEM_BONDANNOTATIONS>
25  30  6
15  7  5

$$$$
