310941079
  -OEChem-07211613022D

 40 43  0     1  0  0  0  0  0999 V2000
    5.1870    0.9769    0.0000 O   0  0  0  0  0  0  0  0  0  0  0  0
    4.0483   -0.9769    0.0000 O   0  0  0  0  0  0  0  0  0  0  0  0
    1.6868    0.9629    0.0000 O   0  0  0  0  0  0  0  0  0  0  0  0
   -0.4638   -1.1034    0.0000 O   0  0  0  0  0  0  0  0  0  0  0  0
   -2.6286    0.9629    0.0000 O   0  0  0  0  0  0  0  0  0  0  0  0
   -5.4822   -0.4709    0.0000 O   0  0  0  0  0  0  0  0  0  0  0  0
    3.8375   -2.7481    0.0000 O   0  0  0  0  0  0  0  0  0  0  0  0
    2.4037   -0.2741    0.0000 N   0  0  0  0  0  0  0  0  0  0  0  0
    0.2530    0.1335    0.0000 N   0  0  0  0  0  0  0  0  0  0  0  0
   -1.8977   -0.2741    0.0000 N   0  0  0  0  0  0  0  0  0  0  0  0
   -4.2311   -1.2722    0.0000 N   0  0  0  0  0  0  0  0  0  0  0  0
    4.7652    0.3163    0.0000 C   0  0  3  0  0  0  0  0  0  0  0  0
    4.0483   -0.1054    0.0000 C   0  0  0  0  0  0  0  0  0  0  0  0
    4.3857    0.9910    0.0000 C   0  0  0  0  0  0  0  0  0  0  0  0
    3.3455    0.2882    0.0000 C   0  0  3  0  0  0  0  0  0  0  0  0
    5.4822   -0.1195    0.0000 C   0  0  0  0  0  0  0  0  0  0  0  0
    3.3455    1.3565    0.0000 C   0  0  0  0  0  0  0  0  0  0  0  0
    1.6868    0.1476    0.0000 C   0  0  0  0  0  0  0  0  0  0  0  0
    0.9699   -0.2319    0.0000 C   0  0  3  0  0  0  0  0  0  0  0  0
    2.6145    1.7923    0.0000 C   0  0  0  0  0  0  0  0  0  0  0  0
    0.9559   -1.0894    0.0000 C   0  0  0  0  0  0  0  0  0  0  0  0
   -0.4498   -0.2179    0.0000 C   0  0  0  0  0  0  0  0  0  0  0  0
    1.7149   -1.4830    0.0000 C   0  0  0  0  0  0  0  0  0  0  0  0
   -1.1948    0.1616    0.0000 C   0  0  3  0  0  0  0  0  0  0  0  0
    1.8695    1.4408    0.0000 C   0  0  0  0  0  0  0  0  0  0  0  0
    2.5302    2.5935    0.0000 C   0  0  0  0  0  0  0  0  0  0  0  0
   -3.3315   -0.2460    0.0000 C   0  0  3  0  0  0  0  0  0  0  0  0
   -2.5724    0.1476    0.0000 C   0  0  0  0  0  0  0  0  0  0  0  0
   -4.0905    0.0773    0.0000 C   0  0  0  0  0  0  0  0  0  0  0  0
    1.3354    2.0453    0.0000 C   0  0  0  0  0  0  0  0  0  0  0  0
    1.7430    2.7481    0.0000 C   0  0  0  0  0  0  0  0  0  0  0  0
   -4.6247   -0.5271    0.0000 C   0  0  0  0  0  0  0  0  0  0  0  0
   -3.4299   -1.0753    0.0000 C   0  0  0  0  0  0  0  0  0  0  0  0
    1.7149   -2.3123    0.0000 C   0  0  0  0  0  0  0  0  0  0  0  0
    2.4037   -1.0894    0.0000 C   0  0  0  0  0  0  0  0  0  0  0  0
    3.1347   -2.2983    0.0000 C   0  0  0  0  0  0  0  0  0  0  0  0
    2.4177   -2.7200    0.0000 C   0  0  0  0  0  0  0  0  0  0  0  0
    3.1347   -1.4971    0.0000 C   0  0  0  0  0  0  0  0  0  0  0  0
   -1.1808    0.9769    0.0000 C   0  0  0  0  0  0  0  0  0  0  0  0
    4.5825   -2.2983    0.0000 C   0  0  0  0  0  0  0  0  0  0  0  0
  1 12  1  0  0  0  0
  1 14  1  0  0  0  0
  2 13  2  0  0  0  0
  3 18  2  0  0  0  0
  4 22  2  0  0  0  0
  5 28  2  0  0  0  0
  6 32  2  0  0  0  0
  7 36  1  0  0  0  0
  7 40  1  0  0  0  0
 15  8  1  1  0  0  0
  8 18  1  0  0  0  0
 19  9  1  6  0  0  0
  9 22  1  0  0  0  0
 10 24  1  0  0  0  0
 10 28  1  0  0  0  0
 11 32  1  0  0  0  0
 11 33  1  0  0  0  0
 12 13  1  1  0  0  0
 12 14  1  0  0  0  0
 12 16  1  6  0  0  0
 13 15  1  0  0  0  0
 15 17  1  0  0  0  0
 17 20  1  0  0  0  0
 18 19  1  0  0  0  0
 19 21  1  0  0  0  0
 20 25  1  0  0  0  0
 20 26  1  0  0  0  0
 21 23  1  0  0  0  0
 22 24  1  0  0  0  0
 23 34  2  0  0  0  0
 23 35  1  0  0  0  0
 24 39  1  6  0  0  0
 25 30  1  0  0  0  0
 26 31  1  0  0  0  0
 27 28  1  6  0  0  0
 27 29  1  0  0  0  0
 27 33  1  0  0  0  0
 29 32  1  0  0  0  0
 30 31  1  0  0  0  0
 34 37  1  0  0  0  0
 35 38  2  0  0  0  0
 36 37  2  0  0  0  0
 36 38  1  0  0  0  0
M  END
> <PUBCHEM_COMPOUND_ID_TYPE>
0

> <PUBCHEM_TOTAL_CHARGE>
0

> <PUBCHEM_SUBSTANCE_ID>
310941079

> <PUBCHEM_SUBSTANCE_VERSION>
1

> <PUBCHEM_EXT_DATASOURCE_NAME>
4488

> <PUBCHEM_EXT_DATASOURCE_REGID>
SCHEMBL16119039

> <PUBCHEM_SUBSTANCE_COMMENT>
InChI=1S/C29H40N4O7/c1-17(31-27(37)20-14-24(34)30-15-20)26(36)33-23(13-19-8-10-21(39-3)11-9-19)28(38)32-22(12-18-6-4-5-7-18)25(35)29(2)16-40-29/h8-11,17-18,20,22-23H,4-7,12-16H2,1-3H3,(H,30,34)(H,31,37)(H,32,38)(H,33,36)/t17-,20+,22+,23+,29-/m1/s1
InChIKey=WEOUCKRTUSZUMJ-FUCCIRSBSA-N

> <PUBCHEM_SUBSTANCE_SYNONYM>
SCHEMBL16119039

> <PUBCHEM_XREF_EXT_ID>
SCHEMBL16119039

> <PUBCHEM_EXT_DATASOURCE_URL>
https://www.surechembl.org/

> <PUBCHEM_EXT_SUBSTANCE_URL>
https://www.surechembl.org/chemical/SCHEMBL16119039

> <PUBCHEM_CID_ASSOCIATIONS>
117607970  1

> <PUBCHEM_COORDINATE_TYPE>
1
3

> <PUBCHEM_BONDANNOTATIONS>
12  13  5
12  16  6
24  39  6
27  28  6
15  8  5
19  9  6

$$$$
