310948630
  -OEChem-07211613022D

 26 29  0     1  0  0  0  0  0999 V2000
   -2.3999    2.0481    0.0000 O   0  0  0  0  0  0  0  0  0  0  0  0
    0.3034    1.4827    0.0000 N   0  0  0  0  0  0  0  0  0  0  0  0
   -0.1931    0.8206    0.0000 N   0  0  0  0  0  0  0  0  0  0  0  0
   -1.6413    0.5862    0.0000 N   0  0  0  0  0  0  0  0  0  0  0  0
   -1.5585    3.2067    0.0000 N   0  0  0  0  0  0  0  0  0  0  0  0
    1.1034   -0.7517    0.0000 N   0  0  0  0  0  0  0  0  0  0  0  0
   -1.2137   -3.5378    0.0000 N   0  0  0  0  0  0  0  0  0  0  0  0
   -0.9655    1.9103    0.0000 C   0  0  0  0  0  0  0  0  0  0  0  0
   -0.2068    2.1585    0.0000 C   0  0  0  0  0  0  0  0  0  0  0  0
   -0.9793    1.0689    0.0000 C   0  0  0  0  0  0  0  0  0  0  0  0
    1.1310    1.4827    0.0000 C   0  0  3  0  0  0  0  0  0  0  0  0
   -1.6413    2.3929    0.0000 C   0  0  0  0  0  0  0  0  0  0  0  0
   -0.1380    3.0550    0.0000 C   0  0  0  0  0  0  0  0  0  0  0  0
    1.6275    0.8206    0.0000 C   0  0  3  0  0  0  0  0  0  0  0  0
    1.6275    2.1447    0.0000 C   0  0  0  0  0  0  0  0  0  0  0  0
   -0.8275    3.5378    0.0000 C   0  0  0  0  0  0  0  0  0  0  0  0
   -1.5723   -0.2276    0.0000 C   0  0  0  0  0  0  0  0  0  0  0  0
    2.3999    1.0827    0.0000 C   0  0  0  0  0  0  0  0  0  0  0  0
    2.3999    1.8965    0.0000 C   0  0  0  0  0  0  0  0  0  0  0  0
    1.3517    0.0482    0.0000 C   0  0  0  0  0  0  0  0  0  0  0  0
   -0.8000   -0.5862    0.0000 C   0  0  0  0  0  0  0  0  0  0  0  0
   -2.2205   -0.7379    0.0000 C   0  0  0  0  0  0  0  0  0  0  0  0
   -1.3930   -1.8827    0.0000 C   0  0  0  0  0  0  0  0  0  0  0  0
   -0.7172   -1.3999    0.0000 C   0  0  0  0  0  0  0  0  0  0  0  0
   -2.1378   -1.5517    0.0000 C   0  0  0  0  0  0  0  0  0  0  0  0
   -1.2965   -2.6964    0.0000 C   0  0  0  0  0  0  0  0  0  0  0  0
  1 12  2  0  0  0  0
  2  3  1  0  0  0  0
  2  9  1  0  0  0  0
 11  2  1  1  0  0  0
  3 10  2  0  0  0  0
  4 10  1  0  0  0  0
  4 17  1  0  0  0  0
  5 12  1  0  0  0  0
  5 16  1  0  0  0  0
  6 20  3  0  0  0  0
  7 26  3  0  0  0  0
  8  9  2  0  0  0  0
  8 10  1  0  0  0  0
  8 12  1  0  0  0  0
  9 13  1  0  0  0  0
 11 14  1  0  0  0  0
 11 15  1  0  0  0  0
 13 16  2  0  0  0  0
 14 18  1  0  0  0  0
 14 20  1  6  0  0  0
 15 19  1  0  0  0  0
 17 21  2  0  0  0  0
 17 22  1  0  0  0  0
 18 19  1  0  0  0  0
 21 24  1  0  0  0  0
 22 25  2  0  0  0  0
 23 24  2  0  0  0  0
 23 25  1  0  0  0  0
 23 26  1  0  0  0  0
M  END
> <PUBCHEM_COMPOUND_ID_TYPE>
0

> <PUBCHEM_TOTAL_CHARGE>
0

> <PUBCHEM_SUBSTANCE_ID>
310948630

> <PUBCHEM_SUBSTANCE_VERSION>
1

> <PUBCHEM_EXT_DATASOURCE_NAME>
4488

> <PUBCHEM_EXT_DATASOURCE_REGID>
SCHEMBL16126814

> <PUBCHEM_SUBSTANCE_COMMENT>
InChI=1S/C19H16N6O/c20-10-12-4-6-14(7-5-12)23-18-17-16(8-9-22-19(17)26)25(24-18)15-3-1-2-13(15)11-21/h4-9,13,15H,1-3H2,(H,22,26)(H,23,24)/t13-,15+/m1/s1
InChIKey=IWJKQSAHKOSSQT-HIFRSBDPSA-N

> <PUBCHEM_SUBSTANCE_SYNONYM>
SCHEMBL16126814

> <PUBCHEM_XREF_EXT_ID>
SCHEMBL16126814

> <PUBCHEM_EXT_DATASOURCE_URL>
https://www.surechembl.org/

> <PUBCHEM_EXT_SUBSTANCE_URL>
https://www.surechembl.org/chemical/SCHEMBL16126814

> <PUBCHEM_CID_ASSOCIATIONS>
117614174  1

> <PUBCHEM_COORDINATE_TYPE>
1
3

> <PUBCHEM_BONDANNOTATIONS>
14  20  6
11  2  5

$$$$
