310948192
  -OEChem-07211613022D

 45 49  0     0  0  0  0  0  0999 V2000
    3.7048   -2.3783    0.0000 S   0  0  0  0  0  0  0  0  0  0  0  0
   -3.9060    0.4207    0.0000 F   0  0  0  0  0  0  0  0  0  0  0  0
   -2.7350    0.6037    0.0000 F   0  0  0  0  0  0  0  0  0  0  0  0
    2.0399    3.0919    0.0000 F   0  0  0  0  0  0  0  0  0  0  0  0
    4.5280    1.5001    0.0000 F   0  0  0  0  0  0  0  0  0  0  0  0
    3.5035    0.4939    0.0000 F   0  0  0  0  0  0  0  0  0  0  0  0
   -1.2715    0.5305    0.0000 O   0  0  0  0  0  0  0  0  0  0  0  0
   -3.3755   -1.4818    0.0000 O   0  0  0  0  0  0  0  0  0  0  0  0
    3.1376    1.8478    0.0000 O   0  0  0  0  0  0  0  0  0  0  0  0
    2.9730   -2.7991    0.0000 O   0  0  0  0  0  0  0  0  0  0  0  0
    4.1256   -3.0919    0.0000 O   0  0  0  0  0  0  0  0  0  0  0  0
   -1.7655   -1.6099    0.0000 N   0  0  0  0  0  0  0  0  0  0  0  0
   -2.5521   -1.3538    0.0000 N   0  0  0  0  0  0  0  0  0  0  0  0
   -0.7227    1.7564    0.0000 N   0  0  0  0  0  0  0  0  0  0  0  0
   -4.5280   -0.6404    0.0000 N   0  0  0  0  0  0  0  0  0  0  0  0
   -0.0457   -0.2195    0.0000 C   0  0  0  0  0  0  0  0  0  0  0  0
   -0.4482   -0.9513    0.0000 C   0  0  0  0  0  0  0  0  0  0  0  0
   -0.4482    0.4757    0.0000 C   0  0  0  0  0  0  0  0  0  0  0  0
   -1.2898   -0.9330    0.0000 C   0  0  0  0  0  0  0  0  0  0  0  0
   -0.0823    1.2258    0.0000 C   0  0  0  0  0  0  0  0  0  0  0  0
   -2.5338   -0.5122    0.0000 C   0  0  0  0  0  0  0  0  0  0  0  0
   -1.7472   -0.2744    0.0000 C   0  0  0  0  0  0  0  0  0  0  0  0
    0.8142   -0.2561    0.0000 C   0  0  0  0  0  0  0  0  0  0  0  0
   -3.2108   -0.0366    0.0000 C   0  0  0  0  0  0  0  0  0  0  0  0
    1.2166   -0.9330    0.0000 C   0  0  0  0  0  0  0  0  0  0  0  0
    0.7227    1.3904    0.0000 C   0  0  0  0  0  0  0  0  0  0  0  0
   -0.0274   -1.6465    0.0000 C   0  0  0  0  0  0  0  0  0  0  0  0
   -1.4361    1.3538    0.0000 C   0  0  0  0  0  0  0  0  0  0  0  0
    0.7958   -1.6465    0.0000 C   0  0  0  0  0  0  0  0  0  0  0  0
    2.0582   -0.9330    0.0000 C   0  0  0  0  0  0  0  0  0  0  0  0
   -3.7048   -0.6953    0.0000 C   0  0  0  0  0  0  0  0  0  0  0  0
    0.9788    2.1588    0.0000 C   0  0  0  0  0  0  0  0  0  0  0  0
    1.2349    0.8050    0.0000 C   0  0  0  0  0  0  0  0  0  0  0  0
    2.4607   -1.6282    0.0000 C   0  0  0  0  0  0  0  0  0  0  0  0
    1.7838    2.3235    0.0000 C   0  0  0  0  0  0  0  0  0  0  0  0
   -1.4727   -2.4149    0.0000 C   0  0  0  0  0  0  0  0  0  0  0  0
    3.3023   -1.6465    0.0000 C   0  0  0  0  0  0  0  0  0  0  0  0
    2.3509    1.7197    0.0000 C   0  0  0  0  0  0  0  0  0  0  0  0
    2.4607   -0.2561    0.0000 C   0  0  0  0  0  0  0  0  0  0  0  0
    2.0765    0.9513    0.0000 C   0  0  0  0  0  0  0  0  0  0  0  0
   -2.2228    1.6648    0.0000 C   0  0  0  0  0  0  0  0  0  0  0  0
    3.7048   -0.9148    0.0000 C   0  0  0  0  0  0  0  0  0  0  0  0
    3.3023   -0.2561    0.0000 C   0  0  0  0  0  0  0  0  0  0  0  0
    4.4549   -1.9393    0.0000 C   0  0  0  0  0  0  0  0  0  0  0  0
    3.7413    1.2989    0.0000 C   0  0  0  0  0  0  0  0  0  0  0  0
  1 10  2  0  0  0  0
  1 11  2  0  0  0  0
  1 37  1  0  0  0  0
  1 44  1  0  0  0  0
  2 24  1  0  0  0  0
  3 24  1  0  0  0  0
  4 35  1  0  0  0  0
  5 45  1  0  0  0  0
  6 45  1  0  0  0  0
  7 18  1  0  0  0  0
  7 28  1  0  0  0  0
  8 31  2  0  0  0  0
  9 38  1  0  0  0  0
  9 45  1  0  0  0  0
 12 13  1  0  0  0  0
 12 19  1  0  0  0  0
 12 36  1  0  0  0  0
 13 21  2  0  0  0  0
 14 20  1  0  0  0  0
 14 28  2  0  0  0  0
 15 31  1  0  0  0  0
 16 17  1  0  0  0  0
 16 18  1  0  0  0  0
 16 23  2  0  0  0  0
 17 19  1  0  0  0  0
 17 27  2  0  0  0  0
 18 20  2  0  0  0  0
 19 22  2  0  0  0  0
 20 26  1  0  0  0  0
 21 22  1  0  0  0  0
 21 24  1  0  0  0  0
 23 25  1  0  0  0  0
 24 31  1  0  0  0  0
 25 29  2  0  0  0  0
 25 30  1  0  0  0  0
 26 32  1  0  0  0  0
 26 33  2  0  0  0  0
 27 29  1  0  0  0  0
 28 41  1  0  0  0  0
 30 34  2  0  0  0  0
 30 39  1  0  0  0  0
 32 35  2  0  0  0  0
 33 40  1  0  0  0  0
 34 37  1  0  0  0  0
 35 38  1  0  0  0  0
 37 42  2  0  0  0  0
 38 40  2  0  0  0  0
 39 43  2  0  0  0  0
 42 43  1  0  0  0  0
M  END
> <PUBCHEM_COMPOUND_ID_TYPE>
0

> <PUBCHEM_TOTAL_CHARGE>
0

> <PUBCHEM_SUBSTANCE_ID>
310948192

> <PUBCHEM_SUBSTANCE_VERSION>
1

> <PUBCHEM_EXT_DATASOURCE_NAME>
4488

> <PUBCHEM_EXT_DATASOURCE_REGID>
SCHEMBL16126369

> <PUBCHEM_SUBSTANCE_COMMENT>
InChI=1S/C30H23F5N4O5S/c1-15-37-26(18-8-10-24(22(31)13-18)44-29(32)33)27(43-15)21-12-17(16-5-4-6-19(11-16)45(3,41)42)7-9-20(21)23-14-25(38-39(23)2)30(34,35)28(36)40/h4-14,29H,1-3H3,(H2,36,40)
InChIKey=NBTOUIPWDLSCKR-UHFFFAOYSA-N

> <PUBCHEM_SUBSTANCE_SYNONYM>
SCHEMBL16126369

> <PUBCHEM_XREF_EXT_ID>
SCHEMBL16126369

> <PUBCHEM_EXT_DATASOURCE_URL>
https://www.surechembl.org/

> <PUBCHEM_EXT_SUBSTANCE_URL>
https://www.surechembl.org/chemical/SCHEMBL16126369

> <PUBCHEM_CID_ASSOCIATIONS>
117613773  1

> <PUBCHEM_COORDINATE_TYPE>
1
3

$$$$
