310932447
  -OEChem-07211613022D

 27 30  0     0  0  0  0  0  0999 V2000
    6.1329   -0.2968    0.0000 O   0  0  0  0  0  0  0  0  0  0  0  0
    2.7367   -2.7367    0.0000 N   0  0  0  0  0  0  0  0  0  0  0  0
    3.4951   -3.0664    0.0000 N   0  0  0  0  0  0  0  0  0  0  0  0
    4.8470   -0.9892    0.0000 N   0  0  0  0  0  0  0  0  0  0  0  0
    6.1329   -1.7475    0.0000 N   0  0  0  0  0  0  0  0  0  0  0  0
    0.9892   -0.2638    0.0000 N   0  0  0  0  0  0  0  0  0  0  0  0
    9.1004   -2.4400    0.0000 N   0  0  0  0  0  0  0  0  0  0  0  0
    7.3858   -1.0221    0.0000 N   0  0  0  0  0  0  0  0  0  0  0  0
    9.8918   -1.3518    0.0000 N   0  0  0  0  0  0  0  0  0  0  0  0
    3.6270   -1.7146    0.0000 C   0  0  0  0  0  0  0  0  0  0  0  0
    2.8356   -1.9124    0.0000 C   0  0  0  0  0  0  0  0  0  0  0  0
    4.0556   -2.4730    0.0000 C   0  0  0  0  0  0  0  0  0  0  0  0
    2.2092   -1.3518    0.0000 C   0  0  0  0  0  0  0  0  0  0  0  0
    4.8799   -2.4400    0.0000 C   0  0  0  0  0  0  0  0  0  0  0  0
    4.0556   -1.0221    0.0000 C   0  0  0  0  0  0  0  0  0  0  0  0
    5.3085   -1.7475    0.0000 C   0  0  0  0  0  0  0  0  0  0  0  0
    1.4178   -1.6486    0.0000 C   0  0  0  0  0  0  0  0  0  0  0  0
    2.3740   -0.5606    0.0000 C   0  0  0  0  0  0  0  0  0  0  0  0
    0.7914   -1.0551    0.0000 C   0  0  0  0  0  0  0  0  0  0  0  0
    6.5286   -1.0221    0.0000 C   0  0  0  0  0  0  0  0  0  0  0  0
    8.6058   -1.7805    0.0000 C   0  0  0  0  0  0  0  0  0  0  0  0
    1.7805    0.0000    0.0000 C   0  0  0  0  0  0  0  0  0  0  0  0
    7.7815   -1.7475    0.0000 C   0  0  0  0  0  0  0  0  0  0  0  0
    9.1004   -1.0881    0.0000 C   0  0  0  0  0  0  0  0  0  0  0  0
    9.8918   -2.1762    0.0000 C   0  0  0  0  0  0  0  0  0  0  0  0
    0.0000   -1.2859    0.0000 C   0  0  0  0  0  0  0  0  0  0  0  0
    8.8366   -3.2313    0.0000 C   0  0  0  0  0  0  0  0  0  0  0  0
  1 20  2  0  0  0  0
  2  3  1  0  0  0  0
  2 11  2  0  0  0  0
  3 12  1  0  0  0  0
  4 15  1  0  0  0  0
  4 16  2  0  0  0  0
  5 16  1  0  0  0  0
  5 20  1  0  0  0  0
  6 19  1  0  0  0  0
  6 22  2  0  0  0  0
  7 21  1  0  0  0  0
  7 25  1  0  0  0  0
  7 27  1  0  0  0  0
  8 20  1  0  0  0  0
  8 23  1  0  0  0  0
  9 24  1  0  0  0  0
  9 25  2  0  0  0  0
 10 11  1  0  0  0  0
 10 12  1  0  0  0  0
 10 15  2  0  0  0  0
 11 13  1  0  0  0  0
 12 14  2  0  0  0  0
 13 17  1  0  0  0  0
 13 18  2  0  0  0  0
 14 16  1  0  0  0  0
 17 19  2  0  0  0  0
 18 22  1  0  0  0  0
 19 26  1  0  0  0  0
 21 23  1  0  0  0  0
 21 24  2  0  0  0  0
M  END
> <PUBCHEM_COMPOUND_ID_TYPE>
0

> <PUBCHEM_TOTAL_CHARGE>
0

> <PUBCHEM_SUBSTANCE_ID>
310932447

> <PUBCHEM_SUBSTANCE_VERSION>
1

> <PUBCHEM_EXT_DATASOURCE_NAME>
4488

> <PUBCHEM_EXT_DATASOURCE_REGID>
SCHEMBL16109817

> <PUBCHEM_SUBSTANCE_COMMENT>
InChI=1S/C18H18N8O/c1-11-5-12(3-4-20-11)17-14-9-21-16(6-15(14)24-25-17)23-18(27)22-8-13-7-19-10-26(13)2/h3-7,9-10H,8H2,1-2H3,(H,24,25)(H2,21,22,23,27)
InChIKey=ZNDMGDAQKDIIBW-UHFFFAOYSA-N

> <PUBCHEM_SUBSTANCE_SYNONYM>
SCHEMBL16109817

> <PUBCHEM_XREF_EXT_ID>
SCHEMBL16109817

> <PUBCHEM_EXT_DATASOURCE_URL>
https://www.surechembl.org/

> <PUBCHEM_EXT_SUBSTANCE_URL>
https://www.surechembl.org/chemical/SCHEMBL16109817

> <PUBCHEM_CID_ASSOCIATIONS>
71555616  1

> <PUBCHEM_COORDINATE_TYPE>
1
3

$$$$
