310949045
  -OEChem-07211613022D

 53 61  0     0  0  0  0  0  0999 V2000
   -2.0291   -0.5646    0.0000 N   0  0  0  0  0  0  0  0  0  0  0  0
   -4.4641   -0.5823    0.0000 N   0  0  0  0  0  0  0  0  0  0  0  0
   -3.2996   -2.2938    0.0000 N   0  0  0  0  0  0  0  0  0  0  0  0
   -0.1059    0.5293    0.0000 N   0  0  0  0  0  0  0  0  0  0  0  0
   -1.9233    0.3000    0.0000 C   0  0  0  0  0  0  0  0  0  0  0  0
   -2.8584   -0.6352    0.0000 C   0  0  0  0  0  0  0  0  0  0  0  0
   -2.6644    0.6705    0.0000 C   0  0  0  0  0  0  0  0  0  0  0  0
   -3.1761    0.0705    0.0000 C   0  0  0  0  0  0  0  0  0  0  0  0
   -1.4645   -1.1292    0.0000 C   0  0  0  0  0  0  0  0  0  0  0  0
   -1.7116   -1.9233    0.0000 C   0  0  0  0  0  0  0  0  0  0  0  0
   -0.6352   -0.9704    0.0000 C   0  0  0  0  0  0  0  0  0  0  0  0
   -2.6820    1.4821    0.0000 C   0  0  0  0  0  0  0  0  0  0  0  0
   -1.2175    0.7587    0.0000 C   0  0  0  0  0  0  0  0  0  0  0  0
   -2.0115    1.9409    0.0000 C   0  0  0  0  0  0  0  0  0  0  0  0
   -3.2642   -1.3233    0.0000 C   0  0  0  0  0  0  0  0  0  0  0  0
   -4.0054    0.1235    0.0000 C   0  0  0  0  0  0  0  0  0  0  0  0
   -0.3529   -2.3820    0.0000 C   0  0  0  0  0  0  0  0  0  0  0  0
   -1.2175    1.5528    0.0000 C   0  0  0  0  0  0  0  0  0  0  0  0
   -1.1822   -2.5232    0.0000 C   0  0  0  0  0  0  0  0  0  0  0  0
   -0.0882   -1.6057    0.0000 C   0  0  0  0  0  0  0  0  0  0  0  0
   -2.0468    2.7703    0.0000 C   0  0  0  0  0  0  0  0  0  0  0  0
    0.2294   -3.0172    0.0000 C   0  0  0  0  0  0  0  0  0  0  0  0
   -4.1112   -1.3057    0.0000 C   0  0  0  0  0  0  0  0  0  0  0  0
   -2.5232   -2.1174    0.0000 C   0  0  0  0  0  0  0  0  0  0  0  0
   -0.3705   -0.2117    0.0000 C   0  0  0  0  0  0  0  0  0  0  0  0
   -2.7703    3.1408    0.0000 C   0  0  0  0  0  0  0  0  0  0  0  0
    1.0058   -2.8584    0.0000 C   0  0  0  0  0  0  0  0  0  0  0  0
   -1.3587    3.2466    0.0000 C   0  0  0  0  0  0  0  0  0  0  0  0
    1.2704   -2.0645    0.0000 C   0  0  0  0  0  0  0  0  0  0  0  0
   -0.0705   -3.7583    0.0000 C   0  0  0  0  0  0  0  0  0  0  0  0
   -3.4054    2.6996    0.0000 C   0  0  0  0  0  0  0  0  0  0  0  0
   -2.7879    3.9524    0.0000 C   0  0  0  0  0  0  0  0  0  0  0  0
    1.5351   -3.4584    0.0000 C   0  0  0  0  0  0  0  0  0  0  0  0
   -1.3939    4.0230    0.0000 C   0  0  0  0  0  0  0  0  0  0  0  0
    0.4588   -4.3936    0.0000 C   0  0  0  0  0  0  0  0  0  0  0  0
    2.0997   -1.9233    0.0000 C   0  0  0  0  0  0  0  0  0  0  0  0
   -2.1350    4.3936    0.0000 C   0  0  0  0  0  0  0  0  0  0  0  0
    1.2880   -4.2524    0.0000 C   0  0  0  0  0  0  0  0  0  0  0  0
    0.7411   -1.4645    0.0000 C   0  0  0  0  0  0  0  0  0  0  0  0
    2.3644   -1.1292    0.0000 C   0  0  0  0  0  0  0  0  0  0  0  0
   -4.1818    3.0172    0.0000 C   0  0  0  0  0  0  0  0  0  0  0  0
   -3.3701    1.8704    0.0000 C   0  0  0  0  0  0  0  0  0  0  0  0
    0.9881   -0.7058    0.0000 C   0  0  0  0  0  0  0  0  0  0  0  0
    3.1761   -0.9881    0.0000 C   0  0  0  0  0  0  0  0  0  0  0  0
    1.7998   -0.5470    0.0000 C   0  0  0  0  0  0  0  0  0  0  0  0
   -4.8170    2.5938    0.0000 C   0  0  0  0  0  0  0  0  0  0  0  0
   -4.0407    1.4292    0.0000 C   0  0  0  0  0  0  0  0  0  0  0  0
   -4.7817    1.7821    0.0000 C   0  0  0  0  0  0  0  0  0  0  0  0
    3.7230   -1.5880    0.0000 C   0  0  0  0  0  0  0  0  0  0  0  0
    3.4584   -0.2117    0.0000 C   0  0  0  0  0  0  0  0  0  0  0  0
    4.5524   -1.4469    0.0000 C   0  0  0  0  0  0  0  0  0  0  0  0
    4.2700   -0.0353    0.0000 C   0  0  0  0  0  0  0  0  0  0  0  0
    4.8170   -0.6529    0.0000 C   0  0  0  0  0  0  0  0  0  0  0  0
  1  5  1  0  0  0  0
  1  6  1  0  0  0  0
  1  9  1  0  0  0  0
  2 16  2  0  0  0  0
  2 23  1  0  0  0  0
  3 24  3  0  0  0  0
  4 25  3  0  0  0  0
  5  7  2  0  0  0  0
  5 13  1  0  0  0  0
  6  8  2  0  0  0  0
  6 15  1  0  0  0  0
  7  8  1  0  0  0  0
  7 12  1  0  0  0  0
  8 16  1  0  0  0  0
  9 10  2  0  0  0  0
  9 11  1  0  0  0  0
 10 19  1  0  0  0  0
 10 24  1  0  0  0  0
 11 20  2  0  0  0  0
 11 25  1  0  0  0  0
 12 14  2  0  0  0  0
 13 18  2  0  0  0  0
 14 18  1  0  0  0  0
 14 21  1  0  0  0  0
 15 23  2  0  0  0  0
 17 19  2  0  0  0  0
 17 20  1  0  0  0  0
 17 22  1  0  0  0  0
 21 26  1  0  0  0  0
 21 28  2  0  0  0  0
 22 27  1  0  0  0  0
 22 30  2  0  0  0  0
 26 31  1  0  0  0  0
 26 32  2  0  0  0  0
 27 29  1  0  0  0  0
 27 33  2  0  0  0  0
 28 34  1  0  0  0  0
 29 36  2  0  0  0  0
 29 39  1  0  0  0  0
 30 35  1  0  0  0  0
 31 41  2  0  0  0  0
 31 42  1  0  0  0  0
 32 37  1  0  0  0  0
 33 38  1  0  0  0  0
 34 37  2  0  0  0  0
 35 38  2  0  0  0  0
 36 40  1  0  0  0  0
 39 43  2  0  0  0  0
 40 44  1  0  0  0  0
 40 45  2  0  0  0  0
 41 46  1  0  0  0  0
 42 47  2  0  0  0  0
 43 45  1  0  0  0  0
 44 49  2  0  0  0  0
 44 50  1  0  0  0  0
 46 48  2  0  0  0  0
 47 48  1  0  0  0  0
 49 51  1  0  0  0  0
 50 52  2  0  0  0  0
 51 53  2  0  0  0  0
 52 53  1  0  0  0  0
M  END
> <PUBCHEM_COMPOUND_ID_TYPE>
0

> <PUBCHEM_TOTAL_CHARGE>
0

> <PUBCHEM_SUBSTANCE_ID>
310949045

> <PUBCHEM_SUBSTANCE_VERSION>
1

> <PUBCHEM_EXT_DATASOURCE_NAME>
4488

> <PUBCHEM_EXT_DATASOURCE_REGID>
SCHEMBL16127235

> <PUBCHEM_SUBSTANCE_COMMENT>
InChI=1S/C49H30N4/c50-30-39-27-38(44-21-10-9-19-42(44)36-17-11-16-35(26-36)33-12-3-1-4-13-33)28-40(31-51)49(39)53-47-23-22-37(29-45(47)46-32-52-25-24-48(46)53)43-20-8-7-18-41(43)34-14-5-2-6-15-34/h1-29,32H
InChIKey=OZIBSRXKTQVPFJ-UHFFFAOYSA-N

> <PUBCHEM_SUBSTANCE_SYNONYM>
SCHEMBL16127235

> <PUBCHEM_XREF_EXT_ID>
SCHEMBL16127235

> <PUBCHEM_EXT_DATASOURCE_URL>
https://www.surechembl.org/

> <PUBCHEM_EXT_SUBSTANCE_URL>
https://www.surechembl.org/chemical/SCHEMBL16127235

> <PUBCHEM_CID_ASSOCIATIONS>
117614550  1

> <PUBCHEM_COORDINATE_TYPE>
1
3

$$$$
