310932033
  -OEChem-07211613022D

 37 40  0     1  0  0  0  0  0999 V2000
    9.2908   -0.0357    0.0000 F   0  0  0  0  0  0  0  0  0  0  0  0
    0.3574   -2.8230    0.0000 F   0  0  0  0  0  0  0  0  0  0  0  0
    1.6795   -2.2512    0.0000 F   0  0  0  0  0  0  0  0  0  0  0  0
    0.0000   -2.0726    0.0000 F   0  0  0  0  0  0  0  0  0  0  0  0
    6.9324   -1.3936    0.0000 O   0  0  0  0  0  0  0  0  0  0  0  0
    2.7873   -3.1089    0.0000 O   0  0  0  0  0  0  0  0  0  0  0  0
    6.5393   -2.7873    0.0000 N   0  0  0  0  0  0  0  0  0  0  0  0
    6.9681   -3.5019    0.0000 N   0  0  0  0  0  0  0  0  0  0  0  0
    5.2529   -3.3590    0.0000 N   0  0  0  0  0  0  0  0  0  0  0  0
    2.9659   -1.6795    0.0000 N   0  0  0  0  0  0  0  0  0  0  0  0
    1.0005   -0.7504    0.0000 N   0  0  3  0  0  0  0  0  0  0  0  0
   10.7202   -0.0357    0.0000 N   0  0  0  0  0  0  0  0  0  0  0  0
    7.8615   -2.5014    0.0000 C   0  0  0  0  0  0  0  0  0  0  0  0
    7.1111   -2.1798    0.0000 C   0  0  0  0  0  0  0  0  0  0  0  0
    8.5762   -2.1083    0.0000 C   0  0  0  0  0  0  0  0  0  0  0  0
    5.7532   -2.7158    0.0000 C   0  0  0  0  0  0  0  0  0  0  0  0
    8.5762   -1.2864    0.0000 C   0  0  0  0  0  0  0  0  0  0  0  0
    7.7543   -3.3233    0.0000 C   0  0  0  0  0  0  0  0  0  0  0  0
    9.2908   -0.8576    0.0000 C   0  0  0  0  0  0  0  0  0  0  0  0
    9.2908   -2.5014    0.0000 C   0  0  0  0  0  0  0  0  0  0  0  0
    4.1094   -2.5371    0.0000 C   0  0  0  0  0  0  0  0  0  0  0  0
   10.0055   -1.2864    0.0000 C   0  0  0  0  0  0  0  0  0  0  0  0
    5.4315   -1.9297    0.0000 C   0  0  0  0  0  0  0  0  0  0  0  0
    3.2875   -2.4299    0.0000 C   0  0  0  0  0  0  0  0  0  0  0  0
   10.0055   -2.1083    0.0000 C   0  0  0  0  0  0  0  0  0  0  0  0
    4.4310   -3.2875    0.0000 C   0  0  0  0  0  0  0  0  0  0  0  0
    4.5740   -1.8581    0.0000 C   0  0  0  0  0  0  0  0  0  0  0  0
    1.7867   -0.8219    0.0000 C   0  0  3  0  0  0  0  0  0  0  0  0
    2.1083   -1.6080    0.0000 C   0  0  0  0  0  0  0  0  0  0  0  0
    7.8615   -0.8576    0.0000 C   0  0  0  0  0  0  0  0  0  0  0  0
    3.4662   -1.0005    0.0000 C   0  0  0  0  0  0  0  0  0  0  0  0
   10.7202   -0.8576    0.0000 C   0  0  0  0  0  0  0  0  0  0  0  0
    2.3227   -0.1430    0.0000 C   0  0  0  0  0  0  0  0  0  0  0  0
    3.1089   -0.2501    0.0000 C   0  0  0  0  0  0  0  0  0  0  0  0
    0.5003   -1.3936    0.0000 C   0  0  0  0  0  0  0  0  0  0  0  0
    0.8219   -2.1441    0.0000 C   0  0  0  0  0  0  0  0  0  0  0  0
    0.6789    0.0000    0.0000 C   0  0  0  0  0  0  0  0  0  0  0  0
  1 19  1  0  0  0  0
  2 36  1  0  0  0  0
  3 36  1  0  0  0  0
  4 36  1  0  0  0  0
  5 14  1  0  0  0  0
  6 24  2  0  0  0  0
  7  8  1  0  0  0  0
  7 14  1  0  0  0  0
  7 16  1  0  0  0  0
  8 18  2  0  0  0  0
  9 16  1  0  0  0  0
  9 26  2  0  0  0  0
 10 24  1  0  0  0  0
 10 29  1  0  0  0  0
 10 31  1  0  0  0  0
 28 11  1  1  0  0  0
 11 35  1  0  0  0  0
 11 37  1  0  0  0  0
 12 32  3  0  0  0  0
 13 14  2  0  0  0  0
 13 15  1  0  0  0  0
 13 18  1  0  0  0  0
 15 17  2  0  0  0  0
 15 20  1  0  0  0  0
 16 23  2  0  0  0  0
 17 19  1  0  0  0  0
 17 30  1  0  0  0  0
 19 22  2  0  0  0  0
 20 25  2  0  0  0  0
 21 24  1  0  0  0  0
 21 26  1  0  0  0  0
 21 27  2  0  0  0  0
 22 25  1  0  0  0  0
 22 32  1  0  0  0  0
 23 27  1  0  0  0  0
 28 29  1  0  0  0  0
 28 33  1  0  0  0  0
 31 34  1  0  0  0  0
 33 34  1  0  0  0  0
 35 36  1  0  0  0  0
M  END
> <PUBCHEM_COMPOUND_ID_TYPE>
0

> <PUBCHEM_TOTAL_CHARGE>
0

> <PUBCHEM_SUBSTANCE_ID>
310932033

> <PUBCHEM_SUBSTANCE_VERSION>
1

> <PUBCHEM_EXT_DATASOURCE_NAME>
4488

> <PUBCHEM_EXT_DATASOURCE_REGID>
SCHEMBL16109376

> <PUBCHEM_SUBSTANCE_COMMENT>
InChI=1S/C25H24F4N6O2/c1-15-19(7-5-16(10-30)22(15)26)20-12-32-35(24(20)37)21-8-6-17(11-31-21)23(36)34-9-3-4-18(13-34)33(2)14-25(27,28)29/h5-8,11-12,18,37H,3-4,9,13-14H2,1-2H3/t18-/m0/s1
InChIKey=GHQYJMIFWPJUSE-SFHVURJKSA-N

> <PUBCHEM_SUBSTANCE_SYNONYM>
SCHEMBL16109376

> <PUBCHEM_XREF_EXT_ID>
SCHEMBL16109376

> <PUBCHEM_EXT_DATASOURCE_URL>
https://www.surechembl.org/

> <PUBCHEM_EXT_SUBSTANCE_URL>
https://www.surechembl.org/chemical/SCHEMBL16109376

> <PUBCHEM_CID_ASSOCIATIONS>
117600667  1

> <PUBCHEM_COORDINATE_TYPE>
1
3

> <PUBCHEM_BONDANNOTATIONS>
28  11  5

$$$$
