310929888
  -OEChem-07211613022D

 26 27  0     0  0  0  0  0  0999 V2000
   10.7972   -0.4227    0.0000 O   0  0  0  0  0  0  0  0  0  0  0  0
   10.7972   -3.7271    0.0000 O   0  0  0  0  0  0  0  0  0  0  0  0
    0.0000   -1.6522    0.0000 O   0  0  0  0  0  0  0  0  0  0  0  0
    9.3754   -1.2680    0.0000 N   0  0  0  0  0  0  0  0  0  0  0  0
   10.1055   -1.6522    0.0000 C   0  0  0  0  0  0  0  0  0  0  0  0
   10.1055   -2.4975    0.0000 C   0  0  0  0  0  0  0  0  0  0  0  0
   10.7972   -1.2296    0.0000 C   0  0  0  0  0  0  0  0  0  0  0  0
   10.8356   -2.9202    0.0000 C   0  0  0  0  0  0  0  0  0  0  0  0
    9.4139   -2.9202    0.0000 C   0  0  0  0  0  0  0  0  0  0  0  0
    8.6454   -1.6522    0.0000 C   0  0  0  0  0  0  0  0  0  0  0  0
   11.5272   -1.6522    0.0000 C   0  0  0  0  0  0  0  0  0  0  0  0
   11.5272   -2.4975    0.0000 C   0  0  0  0  0  0  0  0  0  0  0  0
    8.6839   -2.4975    0.0000 C   0  0  0  0  0  0  0  0  0  0  0  0
    7.9538   -1.2680    0.0000 C   0  0  0  0  0  0  0  0  0  0  0  0
    7.2237   -1.6522    0.0000 C   0  0  0  0  0  0  0  0  0  0  0  0
   10.0671    0.0000    0.0000 C   0  0  0  0  0  0  0  0  0  0  0  0
   11.5272   -4.1498    0.0000 C   0  0  0  0  0  0  0  0  0  0  0  0
    6.4937   -1.2680    0.0000 C   0  0  0  0  0  0  0  0  0  0  0  0
    5.7636   -1.6522    0.0000 C   0  0  0  0  0  0  0  0  0  0  0  0
    5.0720   -1.2680    0.0000 C   0  0  0  0  0  0  0  0  0  0  0  0
    4.3419   -1.6522    0.0000 C   0  0  0  0  0  0  0  0  0  0  0  0
    3.6119   -1.2680    0.0000 C   0  0  0  0  0  0  0  0  0  0  0  0
    2.8818   -1.6522    0.0000 C   0  0  0  0  0  0  0  0  0  0  0  0
    2.1517   -1.2680    0.0000 C   0  0  0  0  0  0  0  0  0  0  0  0
    1.4601   -1.6522    0.0000 C   0  0  0  0  0  0  0  0  0  0  0  0
    0.7301   -1.2680    0.0000 C   0  0  0  0  0  0  0  0  0  0  0  0
  1  7  1  0  0  0  0
  1 16  1  0  0  0  0
  2  8  1  0  0  0  0
  2 17  1  0  0  0  0
  3 26  1  0  0  0  0
  4  5  2  0  0  0  0
  4 10  1  0  0  0  0
  5  6  1  0  0  0  0
  5  7  1  0  0  0  0
  6  8  1  0  0  0  0
  6  9  2  0  0  0  0
  7 11  2  0  0  0  0
  8 12  2  0  0  0  0
  9 13  1  0  0  0  0
 10 13  2  0  0  0  0
 10 14  1  0  0  0  0
 11 12  1  0  0  0  0
 14 15  1  0  0  0  0
 15 18  1  0  0  0  0
 18 19  1  0  0  0  0
 19 20  1  0  0  0  0
 20 21  1  0  0  0  0
 21 22  1  0  0  0  0
 22 23  1  0  0  0  0
 23 24  1  0  0  0  0
 24 25  1  0  0  0  0
 25 26  1  0  0  0  0
M  END
> <PUBCHEM_COMPOUND_ID_TYPE>
0

> <PUBCHEM_TOTAL_CHARGE>
0

> <PUBCHEM_SUBSTANCE_ID>
310929888

> <PUBCHEM_SUBSTANCE_VERSION>
1

> <PUBCHEM_EXT_DATASOURCE_NAME>
4488

> <PUBCHEM_EXT_DATASOURCE_REGID>
SCHEMBL16107104

> <PUBCHEM_SUBSTANCE_COMMENT>
InChI=1S/C22H33NO3/c1-25-20-15-16-21(26-2)22-19(20)14-13-18(23-22)12-10-8-6-4-3-5-7-9-11-17-24/h13-16,24H,3-12,17H2,1-2H3
InChIKey=IMNGNXYZKMGVQH-UHFFFAOYSA-N

> <PUBCHEM_SUBSTANCE_SYNONYM>
SCHEMBL16107104

> <PUBCHEM_XREF_EXT_ID>
SCHEMBL16107104

> <PUBCHEM_EXT_DATASOURCE_URL>
https://www.surechembl.org/

> <PUBCHEM_EXT_SUBSTANCE_URL>
https://www.surechembl.org/chemical/SCHEMBL16107104

> <PUBCHEM_CID_ASSOCIATIONS>
85471785  1

> <PUBCHEM_COORDINATE_TYPE>
1
3

$$$$
