310933886
  -OEChem-07211613022D

 40 44  0     0  0  0  0  0  0999 V2000
  -14.1530   -1.7004    0.0000 S   0  0  0  0  0  0  0  0  0  0  0  0
   -9.1124   -3.0149    0.0000 P   0  0  0  0  0  0  0  0  0  0  0  0
   -9.1124   -3.8399    0.0000 O   0  0  0  0  0  0  0  0  0  0  0  0
   -9.1124   -2.1899    0.0000 O   0  0  0  0  0  0  0  0  0  0  0  0
   -8.3980   -2.6024    0.0000 O   0  0  0  0  0  0  0  0  0  0  0  0
  -19.2924   -0.8511    0.0000 N   0  0  0  0  0  0  0  0  0  0  0  0
   -9.8269   -0.9524    0.0000 N   0  0  0  0  0  0  0  0  0  0  0  0
  -18.4719   -0.7648    0.0000 C   0  0  0  0  0  0  0  0  0  0  0  0
  -19.6280   -1.6048    0.0000 C   0  0  0  0  0  0  0  0  0  0  0  0
  -19.7773   -0.1836    0.0000 C   0  0  0  0  0  0  0  0  0  0  0  0
  -13.3993   -1.3649    0.0000 C   0  0  0  0  0  0  0  0  0  0  0  0
  -12.6848   -1.7774    0.0000 C   0  0  0  0  0  0  0  0  0  0  0  0
  -14.7051   -1.0873    0.0000 C   0  0  0  0  0  0  0  0  0  0  0  0
  -17.9870   -1.4323    0.0000 C   0  0  0  0  0  0  0  0  0  0  0  0
  -18.1363   -0.0111    0.0000 C   0  0  0  0  0  0  0  0  0  0  0  0
  -11.2559   -2.6024    0.0000 C   0  0  0  0  0  0  0  0  0  0  0  0
  -16.8309   -0.5924    0.0000 C   0  0  0  0  0  0  0  0  0  0  0  0
  -13.4856   -0.5444    0.0000 C   0  0  0  0  0  0  0  0  0  0  0  0
  -12.6848   -2.6024    0.0000 C   0  0  0  0  0  0  0  0  0  0  0  0
  -11.9703   -1.3649    0.0000 C   0  0  0  0  0  0  0  0  0  0  0  0
   -9.8269   -2.6024    0.0000 C   0  0  0  0  0  0  0  0  0  0  0  0
  -14.2926   -0.3728    0.0000 C   0  0  0  0  0  0  0  0  0  0  0  0
  -17.1665   -1.3461    0.0000 C   0  0  0  0  0  0  0  0  0  0  0  0
  -17.3159    0.0751    0.0000 C   0  0  0  0  0  0  0  0  0  0  0  0
  -19.1430   -2.2722    0.0000 C   0  0  0  0  0  0  0  0  0  0  0  0
  -20.5978   -0.2698    0.0000 C   0  0  0  0  0  0  0  0  0  0  0  0
  -20.4485   -1.6910    0.0000 C   0  0  0  0  0  0  0  0  0  0  0  0
  -19.4418    0.5701    0.0000 C   0  0  0  0  0  0  0  0  0  0  0  0
  -10.5414   -3.0149    0.0000 C   0  0  0  0  0  0  0  0  0  0  0  0
  -11.9703   -3.0149    0.0000 C   0  0  0  0  0  0  0  0  0  0  0  0
  -11.2559   -1.7774    0.0000 C   0  0  0  0  0  0  0  0  0  0  0  0
  -15.5255   -1.1736    0.0000 C   0  0  0  0  0  0  0  0  0  0  0  0
  -16.0105   -0.5061    0.0000 C   0  0  0  0  0  0  0  0  0  0  0  0
  -19.4786   -3.0259    0.0000 C   0  0  0  0  0  0  0  0  0  0  0  0
  -21.0827    0.3976    0.0000 C   0  0  0  0  0  0  0  0  0  0  0  0
  -20.7840   -2.4447    0.0000 C   0  0  0  0  0  0  0  0  0  0  0  0
  -19.9267    1.2375    0.0000 C   0  0  0  0  0  0  0  0  0  0  0  0
   -9.8269   -1.7774    0.0000 C   0  0  0  0  0  0  0  0  0  0  0  0
  -20.2991   -3.1121    0.0000 C   0  0  0  0  0  0  0  0  0  0  0  0
  -20.7472    1.1513    0.0000 C   0  0  0  0  0  0  0  0  0  0  0  0
  1 11  1  0  0  0  0
  1 13  1  0  0  0  0
  2  3  2  0  0  0  0
  2  4  1  0  0  0  0
  2  5  1  0  0  0  0
  2 21  1  0  0  0  0
  6  8  1  0  0  0  0
  6  9  1  0  0  0  0
  6 10  1  0  0  0  0
  7 38  3  0  0  0  0
  8 14  2  0  0  0  0
  8 15  1  0  0  0  0
  9 25  2  0  0  0  0
  9 27  1  0  0  0  0
 10 26  2  0  0  0  0
 10 28  1  0  0  0  0
 11 12  1  0  0  0  0
 11 18  2  0  0  0  0
 12 19  2  0  0  0  0
 12 20  1  0  0  0  0
 13 22  2  0  0  0  0
 13 32  1  0  0  0  0
 14 23  1  0  0  0  0
 15 24  2  0  0  0  0
 16 29  1  0  0  0  0
 16 30  2  0  0  0  0
 16 31  1  0  0  0  0
 17 23  2  0  0  0  0
 17 24  1  0  0  0  0
 17 33  1  0  0  0  0
 18 22  1  0  0  0  0
 19 30  1  0  0  0  0
 20 31  2  0  0  0  0
 21 29  2  3  0  0  0
 21 38  1  0  0  0  0
 25 34  1  0  0  0  0
 26 35  1  0  0  0  0
 27 36  2  0  0  0  0
 28 37  2  0  0  0  0
 32 33  2  3  0  0  0
 34 39  2  0  0  0  0
 35 40  2  0  0  0  0
 36 39  1  0  0  0  0
 37 40  1  0  0  0  0
M  END
> <PUBCHEM_COMPOUND_ID_TYPE>
0

> <PUBCHEM_TOTAL_CHARGE>
0

> <PUBCHEM_SUBSTANCE_ID>
310933886

> <PUBCHEM_SUBSTANCE_VERSION>
1

> <PUBCHEM_EXT_DATASOURCE_NAME>
4488

> <PUBCHEM_EXT_DATASOURCE_REGID>
SCHEMBL16111325

> <PUBCHEM_SUBSTANCE_COMMENT>
InChI=1S/C33H25N2O3PS/c34-24-31(39(36,37)38)23-26-11-16-27(17-12-26)33-22-21-32(40-33)20-15-25-13-18-30(19-14-25)35(28-7-3-1-4-8-28)29-9-5-2-6-10-29/h1-23H,(H2,36,37,38)/b20-15+,31-23+
InChIKey=ZGTHWJWBWURHED-KBDCIZFNSA-N

> <PUBCHEM_SUBSTANCE_SYNONYM>
SCHEMBL16111325

> <PUBCHEM_XREF_EXT_ID>
SCHEMBL16111325

> <PUBCHEM_EXT_DATASOURCE_URL>
https://www.surechembl.org/

> <PUBCHEM_EXT_SUBSTANCE_URL>
https://www.surechembl.org/chemical/SCHEMBL16111325

> <PUBCHEM_CID_ASSOCIATIONS>
117602218  1

> <PUBCHEM_COORDINATE_TYPE>
1
3

> <PUBCHEM_BONDANNOTATIONS>
21  29  1
32  33  1

$$$$
