310943456
  -OEChem-07211613022D

 35 38  0     0  0  0  0  0  0999 V2000
    5.3284    1.2451    0.0000 F   0  0  0  0  0  0  0  0  0  0  0  0
    5.3284    0.4254    0.0000 F   0  0  0  0  0  0  0  0  0  0  0  0
    1.7710    1.6627    0.0000 O   0  0  0  0  0  0  0  0  0  0  0  0
   -5.3284    1.6627    0.0000 O   0  0  0  0  0  0  0  0  0  0  0  0
   -1.7710   -0.4099    0.0000 N   0  0  0  0  0  0  0  0  0  0  0  0
   -3.1940   -0.4099    0.0000 N   0  0  0  0  0  0  0  0  0  0  0  0
   -3.9055    0.8275    0.0000 N   0  0  0  0  0  0  0  0  0  0  0  0
    1.0749    0.4254    0.0000 N   0  0  0  0  0  0  0  0  0  0  0  0
   -2.4825   -1.6473    0.0000 N   0  0  0  0  0  0  0  0  0  0  0  0
    3.9209   -0.4099    0.0000 N   0  0  0  0  0  0  0  0  0  0  0  0
   -1.7710    0.4254    0.0000 C   0  0  0  0  0  0  0  0  0  0  0  0
   -1.0595    0.8430    0.0000 C   0  0  0  0  0  0  0  0  0  0  0  0
   -3.1940    0.4254    0.0000 C   0  0  0  0  0  0  0  0  0  0  0  0
   -2.4825    0.8430    0.0000 C   0  0  0  0  0  0  0  0  0  0  0  0
   -2.4825   -0.8121    0.0000 C   0  0  0  0  0  0  0  0  0  0  0  0
   -1.0595    1.6782    0.0000 C   0  0  0  0  0  0  0  0  0  0  0  0
   -0.3480    0.4254    0.0000 C   0  0  0  0  0  0  0  0  0  0  0  0
    0.3480    0.8584    0.0000 C   0  0  0  0  0  0  0  0  0  0  0  0
    2.4979    0.4254    0.0000 C   0  0  0  0  0  0  0  0  0  0  0  0
    3.9209    0.4254    0.0000 C   0  0  0  0  0  0  0  0  0  0  0  0
    1.7710    0.8121    0.0000 C   0  0  0  0  0  0  0  0  0  0  0  0
   -0.3480    2.0649    0.0000 C   0  0  0  0  0  0  0  0  0  0  0  0
    0.3480    1.6627    0.0000 C   0  0  0  0  0  0  0  0  0  0  0  0
    4.6479    0.8430    0.0000 C   0  0  0  0  0  0  0  0  0  0  0  0
    3.2094    0.8430    0.0000 C   0  0  0  0  0  0  0  0  0  0  0  0
   -3.9055    1.6627    0.0000 C   0  0  0  0  0  0  0  0  0  0  0  0
   -4.6015    0.4254    0.0000 C   0  0  0  0  0  0  0  0  0  0  0  0
    2.4979   -0.4099    0.0000 C   0  0  0  0  0  0  0  0  0  0  0  0
   -1.7864    2.0649    0.0000 C   0  0  0  0  0  0  0  0  0  0  0  0
    3.2094   -0.8121    0.0000 C   0  0  0  0  0  0  0  0  0  0  0  0
   -4.6170    2.0803    0.0000 C   0  0  0  0  0  0  0  0  0  0  0  0
   -5.3284    0.8275    0.0000 C   0  0  0  0  0  0  0  0  0  0  0  0
   -3.2094   -2.0494    0.0000 C   0  0  0  0  0  0  0  0  0  0  0  0
   -1.7555   -2.0803    0.0000 C   0  0  0  0  0  0  0  0  0  0  0  0
    4.6170    1.6782    0.0000 C   0  0  0  0  0  0  0  0  0  0  0  0
  1 24  1  0  0  0  0
  2 24  1  0  0  0  0
  3 21  2  0  0  0  0
  4 31  1  0  0  0  0
  4 32  1  0  0  0  0
  5 11  1  0  0  0  0
  5 15  2  0  0  0  0
  6 13  2  0  0  0  0
  6 15  1  0  0  0  0
  7 13  1  0  0  0  0
  7 26  1  0  0  0  0
  7 27  1  0  0  0  0
  8 18  1  0  0  0  0
  8 21  1  0  0  0  0
  9 15  1  0  0  0  0
  9 33  1  0  0  0  0
  9 34  1  0  0  0  0
 10 20  1  0  0  0  0
 10 30  2  0  0  0  0
 11 12  1  0  0  0  0
 11 14  2  0  0  0  0
 12 16  1  0  0  0  0
 12 17  2  0  0  0  0
 13 14  1  0  0  0  0
 16 22  2  0  0  0  0
 16 29  1  0  0  0  0
 17 18  1  0  0  0  0
 18 23  2  0  0  0  0
 19 21  1  0  0  0  0
 19 25  1  0  0  0  0
 19 28  2  0  0  0  0
 20 24  1  0  0  0  0
 20 25  2  0  0  0  0
 22 23  1  0  0  0  0
 24 35  1  0  0  0  0
 26 31  1  0  0  0  0
 27 32  1  0  0  0  0
 28 30  1  0  0  0  0
M  END
> <PUBCHEM_COMPOUND_ID_TYPE>
0

> <PUBCHEM_TOTAL_CHARGE>
0

> <PUBCHEM_SUBSTANCE_ID>
310943456

> <PUBCHEM_SUBSTANCE_VERSION>
1

> <PUBCHEM_EXT_DATASOURCE_NAME>
4488

> <PUBCHEM_EXT_DATASOURCE_REGID>
SCHEMBL16121521

> <PUBCHEM_SUBSTANCE_COMMENT>
InChI=1S/C25H28F2N6O2/c1-16-5-6-18(29-23(34)17-7-8-28-21(13-17)25(2,26)27)14-19(16)20-15-22(31-24(30-20)32(3)4)33-9-11-35-12-10-33/h5-8,13-15H,9-12H2,1-4H3,(H,29,34)
InChIKey=OIJPBVCVDSVXLV-UHFFFAOYSA-N

> <PUBCHEM_SUBSTANCE_SYNONYM>
SCHEMBL16121521

> <PUBCHEM_XREF_EXT_ID>
SCHEMBL16121521

> <PUBCHEM_EXT_DATASOURCE_URL>
https://www.surechembl.org/

> <PUBCHEM_EXT_SUBSTANCE_URL>
https://www.surechembl.org/chemical/SCHEMBL16121521

> <PUBCHEM_CID_ASSOCIATIONS>
117609880  1

> <PUBCHEM_COORDINATE_TYPE>
1
3

$$$$
