310932507
  -OEChem-07211613022D

 28 31  0     0  0  0  0  0  0999 V2000
    4.0310   -3.4061    0.0000 O   0  0  0  0  0  0  0  0  0  0  0  0
    2.6561   -0.6562    0.0000 O   0  0  0  0  0  0  0  0  0  0  0  0
    8.5621   -3.4998    0.0000 O   0  0  0  0  0  0  0  0  0  0  0  0
    4.9373   -2.2499    0.0000 N   0  0  0  0  0  0  0  0  0  0  0  0
    4.8747   -1.4062    0.0000 N   0  0  0  0  0  0  0  0  0  0  0  0
    6.4060   -2.2499    0.0000 N   0  0  0  0  0  0  0  0  0  0  0  0
    7.8434   -4.7498    0.0000 N   0  0  0  0  0  0  0  0  0  0  0  0
    0.0000   -3.1249    0.0000 N   0  0  0  0  0  0  0  0  0  0  0  0
    3.6248   -1.9686    0.0000 C   0  0  0  0  0  0  0  0  0  0  0  0
    4.2186   -2.5936    0.0000 C   0  0  0  0  0  0  0  0  0  0  0  0
    2.8124   -2.0624    0.0000 C   0  0  0  0  0  0  0  0  0  0  0  0
    5.6560   -2.6561    0.0000 C   0  0  0  0  0  0  0  0  0  0  0  0
    4.0310   -1.2812    0.0000 C   0  0  0  0  0  0  0  0  0  0  0  0
    2.3124   -1.4062    0.0000 C   0  0  0  0  0  0  0  0  0  0  0  0
    2.4687   -2.8436    0.0000 C   0  0  0  0  0  0  0  0  0  0  0  0
    5.6560   -3.4998    0.0000 C   0  0  0  0  0  0  0  0  0  0  0  0
    7.0934   -3.4998    0.0000 C   0  0  0  0  0  0  0  0  0  0  0  0
    1.4999   -1.4999    0.0000 C   0  0  0  0  0  0  0  0  0  0  0  0
    1.1562   -2.2811    0.0000 C   0  0  0  0  0  0  0  0  0  0  0  0
    7.0934   -2.6561    0.0000 C   0  0  0  0  0  0  0  0  0  0  0  0
    6.4060   -3.9061    0.0000 C   0  0  0  0  0  0  0  0  0  0  0  0
    1.6562   -2.9374    0.0000 C   0  0  0  0  0  0  0  0  0  0  0  0
    7.8434   -3.9061    0.0000 C   0  0  0  0  0  0  0  0  0  0  0  0
    8.5621   -5.1560    0.0000 C   0  0  0  0  0  0  0  0  0  0  0  0
    0.3437   -2.3436    0.0000 C   0  0  0  0  0  0  0  0  0  0  0  0
    9.3746   -5.1560    0.0000 C   0  0  0  0  0  0  0  0  0  0  0  0
    8.9996   -5.8747    0.0000 C   0  0  0  0  0  0  0  0  0  0  0  0
    2.1562    0.0000    0.0000 C   0  0  0  0  0  0  0  0  0  0  0  0
  1 10  1  0  0  0  0
  2 14  1  0  0  0  0
  2 28  1  0  0  0  0
  3 23  2  0  0  0  0
  4  5  1  0  0  0  0
  4 10  1  0  0  0  0
  4 12  1  0  0  0  0
  5 13  2  0  0  0  0
  6 12  2  0  0  0  0
  6 20  1  0  0  0  0
  7 23  1  0  0  0  0
  7 24  1  0  0  0  0
  8 25  3  0  0  0  0
  9 10  2  0  0  0  0
  9 11  1  0  0  0  0
  9 13  1  0  0  0  0
 11 14  1  0  0  0  0
 11 15  2  0  0  0  0
 12 16  1  0  0  0  0
 14 18  2  0  0  0  0
 15 22  1  0  0  0  0
 16 21  2  0  0  0  0
 17 20  2  0  0  0  0
 17 21  1  0  0  0  0
 17 23  1  0  0  0  0
 18 19  1  0  0  0  0
 19 22  2  0  0  0  0
 19 25  1  0  0  0  0
 24 26  1  0  0  0  0
 24 27  1  0  0  0  0
 26 27  1  0  0  0  0
M  END
> <PUBCHEM_COMPOUND_ID_TYPE>
0

> <PUBCHEM_TOTAL_CHARGE>
0

> <PUBCHEM_SUBSTANCE_ID>
310932507

> <PUBCHEM_SUBSTANCE_VERSION>
1

> <PUBCHEM_EXT_DATASOURCE_NAME>
4488

> <PUBCHEM_EXT_DATASOURCE_REGID>
SCHEMBL16109880

> <PUBCHEM_SUBSTANCE_COMMENT>
InChI=1S/C20H17N5O3/c1-28-17-8-12(9-21)2-6-15(17)16-11-23-25(20(16)27)18-7-3-13(10-22-18)19(26)24-14-4-5-14/h2-3,6-8,10-11,14,27H,4-5H2,1H3,(H,24,26)
InChIKey=LFWPTVSBEVSINB-UHFFFAOYSA-N

> <PUBCHEM_SUBSTANCE_SYNONYM>
SCHEMBL16109880

> <PUBCHEM_XREF_EXT_ID>
SCHEMBL16109880

> <PUBCHEM_EXT_DATASOURCE_URL>
https://www.surechembl.org/

> <PUBCHEM_EXT_SUBSTANCE_URL>
https://www.surechembl.org/chemical/SCHEMBL16109880

> <PUBCHEM_CID_ASSOCIATIONS>
117601042  1

> <PUBCHEM_COORDINATE_TYPE>
1
3

$$$$
