310938925
  -OEChem-07211613022D

 18 18  0     1  0  0  0  0  0999 V2000
    0.6889    3.8786    0.0000 N   0  0  0  0  0  0  0  0  0  0  0  0
   -0.4381    5.8305    0.0000 N   0  0  0  0  0  0  0  0  0  0  0  0
   -0.0256    4.2911    0.0000 C   0  0  0  0  0  0  0  0  0  0  0  0
   -0.4381    5.0055    0.0000 C   0  0  0  0  0  0  0  0  0  0  0  0
   -0.8506    4.2911    0.0000 C   0  0  0  0  0  0  0  0  0  0  0  0
    0.6889    3.0536    0.0000 C   0  0  0  0  0  0  0  0  0  0  0  0
    1.4033    4.2911    0.0000 C   0  0  0  0  0  0  0  0  0  0  0  0
   -1.5651    3.8786    0.0000 C   0  0  0  0  0  0  0  0  0  0  0  0
    0.2764    6.2430    0.0000 C   0  0  3  0  0  0  0  0  0  0  0  0
    0.2764    7.0680    0.0000 C   0  0  0  0  0  0  0  0  0  0  0  0
    0.9908    5.8305    0.0000 C   0  0  0  0  0  0  0  0  0  0  0  0
    1.4033    2.6411    0.0000 C   0  0  0  0  0  0  0  0  0  0  0  0
   -0.0256    2.6411    0.0000 C   0  0  0  0  0  0  0  0  0  0  0  0
    1.4033    5.1161    0.0000 C   0  0  0  0  0  0  0  0  0  0  0  0
    2.1178    3.8786    0.0000 C   0  0  0  0  0  0  0  0  0  0  0  0
   -0.4381    7.4805    0.0000 C   0  0  0  0  0  0  0  0  0  0  0  0
    0.9908    7.4805    0.0000 C   0  0  0  0  0  0  0  0  0  0  0  0
    1.7053    6.2430    0.0000 C   0  0  0  0  0  0  0  0  0  0  0  0
  1  3  1  0  0  0  0
  1  6  1  0  0  0  0
  1  7  1  0  0  0  0
  2  4  2  0  0  0  0
  9  2  1  1  0  0  0
  3  4  1  0  0  0  0
  3  5  2  0  0  0  0
  4  5  1  0  0  0  0
  5  8  1  0  0  0  0
  6 12  1  0  0  0  0
  6 13  1  0  0  0  0
  7 14  1  0  0  0  0
  7 15  1  0  0  0  0
  9 10  1  0  0  0  0
  9 11  1  0  0  0  0
 10 16  1  0  0  0  0
 10 17  1  0  0  0  0
 11 18  1  0  0  0  0
M  END
> <PUBCHEM_COMPOUND_ID_TYPE>
0

> <PUBCHEM_TOTAL_CHARGE>
0

> <PUBCHEM_SUBSTANCE_ID>
310938925

> <PUBCHEM_SUBSTANCE_VERSION>
1

> <PUBCHEM_EXT_DATASOURCE_NAME>
4488

> <PUBCHEM_EXT_DATASOURCE_REGID>
SCHEMBL16116844

> <PUBCHEM_SUBSTANCE_COMMENT>
InChI=1S/C16H30N2/c1-9-14(10(2)3)17-15-13(8)16(15)18(11(4)5)12(6)7/h10-12,14H,9H2,1-8H3/b17-15-/t14-/m1/s1
InChIKey=ZDQYQXYDYIYNMN-XEVXXXDWSA-N

> <PUBCHEM_SUBSTANCE_SYNONYM>
SCHEMBL16116844

> <PUBCHEM_XREF_EXT_ID>
SCHEMBL16116844

> <PUBCHEM_EXT_DATASOURCE_URL>
https://www.surechembl.org/

> <PUBCHEM_EXT_SUBSTANCE_URL>
https://www.surechembl.org/chemical/SCHEMBL16116844

> <PUBCHEM_CID_ASSOCIATIONS>
117606322  1

> <PUBCHEM_COORDINATE_TYPE>
1
3

> <PUBCHEM_BONDANNOTATIONS>
9  2  5

$$$$
