310945403
  -OEChem-07211613022D

 28 31  0     0  0  0  0  0  0999 V2000
    2.9783    0.6177    0.0000 F   0  0  0  0  0  0  0  0  0  0  0  0
    2.4930   -0.4118    0.0000 F   0  0  0  0  0  0  0  0  0  0  0  0
    1.4488    0.0882    0.0000 F   0  0  0  0  0  0  0  0  0  0  0  0
   -2.4047    1.7061    0.0000 O   0  0  0  0  0  0  0  0  0  0  0  0
   -2.4341   -2.4268    0.0000 O   0  0  0  0  0  0  0  0  0  0  0  0
    0.4192    0.9413    0.0000 N   0  0  0  0  0  0  0  0  0  0  0  0
    2.4488    1.8532    0.0000 N   0  0  0  0  0  0  0  0  0  0  0  0
   -1.0075   -1.6032    0.0000 N   0  0  0  0  0  0  0  0  0  0  0  0
    1.0811    1.4561    0.0000 C   0  0  0  0  0  0  0  0  0  0  0  0
    0.8310    2.2209    0.0000 C   0  0  0  0  0  0  0  0  0  0  0  0
    0.0074    2.2356    0.0000 C   0  0  0  0  0  0  0  0  0  0  0  0
   -0.2721    1.4267    0.0000 C   0  0  0  0  0  0  0  0  0  0  0  0
    1.8900    1.2355    0.0000 C   0  0  0  0  0  0  0  0  0  0  0  0
    2.1988    0.3530    0.0000 C   0  0  0  0  0  0  0  0  0  0  0  0
    1.4046    2.8386    0.0000 C   0  0  0  0  0  0  0  0  0  0  0  0
   -1.0369    1.2649    0.0000 C   0  0  0  0  0  0  0  0  0  0  0  0
   -0.5221    2.8239    0.0000 C   0  0  0  0  0  0  0  0  0  0  0  0
    0.4045    0.0588    0.0000 C   0  0  0  0  0  0  0  0  0  0  0  0
   -1.6105    1.8973    0.0000 C   0  0  0  0  0  0  0  0  0  0  0  0
    2.2135    2.6474    0.0000 C   0  0  0  0  0  0  0  0  0  0  0  0
   -1.3311    2.6621    0.0000 C   0  0  0  0  0  0  0  0  0  0  0  0
   -0.2721   -0.3383    0.0000 C   0  0  0  0  0  0  0  0  0  0  0  0
   -0.2868   -1.1767    0.0000 C   0  0  0  0  0  0  0  0  0  0  0  0
   -2.9783    2.3238    0.0000 C   0  0  0  0  0  0  0  0  0  0  0  0
   -1.0222   -2.4415    0.0000 C   0  0  0  0  0  0  0  0  0  0  0  0
   -1.6988   -1.1767    0.0000 C   0  0  0  0  0  0  0  0  0  0  0  0
   -1.7282   -2.8386    0.0000 C   0  0  0  0  0  0  0  0  0  0  0  0
   -2.4194   -1.5738    0.0000 C   0  0  0  0  0  0  0  0  0  0  0  0
  1 14  1  0  0  0  0
  2 14  1  0  0  0  0
  3 14  1  0  0  0  0
  4 19  1  0  0  0  0
  4 24  1  0  0  0  0
  5 27  1  0  0  0  0
  5 28  1  0  0  0  0
  6  9  1  0  0  0  0
  6 12  1  0  0  0  0
  6 18  1  0  0  0  0
  7 13  2  0  0  0  0
  7 20  1  0  0  0  0
  8 23  1  0  0  0  0
  8 25  1  0  0  0  0
  8 26  1  0  0  0  0
  9 10  2  0  0  0  0
  9 13  1  0  0  0  0
 10 11  1  0  0  0  0
 10 15  1  0  0  0  0
 11 12  2  0  0  0  0
 11 17  1  0  0  0  0
 12 16  1  0  0  0  0
 13 14  1  0  0  0  0
 15 20  2  0  0  0  0
 16 19  2  0  0  0  0
 17 21  2  0  0  0  0
 18 22  1  0  0  0  0
 19 21  1  0  0  0  0
 22 23  1  0  0  0  0
 25 27  1  0  0  0  0
 26 28  1  0  0  0  0
M  END
> <PUBCHEM_COMPOUND_ID_TYPE>
0

> <PUBCHEM_TOTAL_CHARGE>
0

> <PUBCHEM_SUBSTANCE_ID>
310945403

> <PUBCHEM_SUBSTANCE_VERSION>
1

> <PUBCHEM_EXT_DATASOURCE_NAME>
4488

> <PUBCHEM_EXT_DATASOURCE_REGID>
SCHEMBL16123501

> <PUBCHEM_SUBSTANCE_COMMENT>
InChI=1S/C20H22F3N3O2/c1-27-14-3-4-15-16-5-6-24-19(20(21,22)23)18(16)26(17(15)13-14)8-2-7-25-9-11-28-12-10-25/h3-6,13H,2,7-12H2,1H3
InChIKey=PXQFPBMDSGYDHV-UHFFFAOYSA-N

> <PUBCHEM_SUBSTANCE_SYNONYM>
SCHEMBL16123501

> <PUBCHEM_XREF_EXT_ID>
SCHEMBL16123501

> <PUBCHEM_EXT_DATASOURCE_URL>
https://www.surechembl.org/

> <PUBCHEM_EXT_SUBSTANCE_URL>
https://www.surechembl.org/chemical/SCHEMBL16123501

> <PUBCHEM_CID_ASSOCIATIONS>
117611449  1

> <PUBCHEM_COORDINATE_TYPE>
1
3

$$$$
