310941967
  -OEChem-07211613022D

 21 24  0     0  0  0  0  0  0999 V2000
    2.4302    1.4859    0.0000 S   0  0  0  0  0  0  0  0  0  0  0  0
   -0.7555   -0.7304    0.0000 N   0  0  0  0  0  0  0  0  0  0  0  0
    1.4355    2.4051    0.0000 N   0  0  0  0  0  0  0  0  0  0  0  0
   -0.3274    0.5541    0.0000 C   0  0  0  0  0  0  0  0  0  0  0  0
   -0.0756   -0.2141    0.0000 C   0  0  0  0  0  0  0  0  0  0  0  0
   -1.1584    0.5793    0.0000 C   0  0  0  0  0  0  0  0  0  0  0  0
   -1.4481   -0.2141    0.0000 C   0  0  0  0  0  0  0  0  0  0  0  0
    0.2266    1.1584    0.0000 C   0  0  0  0  0  0  0  0  0  0  0  0
    1.0325    0.9821    0.0000 C   0  0  0  0  0  0  0  0  0  0  0  0
    0.7304   -0.4156    0.0000 C   0  0  0  0  0  0  0  0  0  0  0  0
   -1.6999    1.1836    0.0000 C   0  0  0  0  0  0  0  0  0  0  0  0
    1.2718    0.1889    0.0000 C   0  0  0  0  0  0  0  0  0  0  0  0
   -2.2413   -0.3778    0.0000 C   0  0  0  0  0  0  0  0  0  0  0  0
    1.5992    1.6118    0.0000 C   0  0  0  0  0  0  0  0  0  0  0  0
   -0.7806   -1.5614    0.0000 C   0  0  0  0  0  0  0  0  0  0  0  0
   -2.5058    1.0325    0.0000 C   0  0  0  0  0  0  0  0  0  0  0  0
   -2.7702    0.2266    0.0000 C   0  0  0  0  0  0  0  0  0  0  0  0
   -1.4859   -1.9518    0.0000 C   0  0  0  0  0  0  0  0  0  0  0  0
    2.7702    2.2539    0.0000 C   0  0  0  0  0  0  0  0  0  0  0  0
    2.1407    2.8206    0.0000 C   0  0  0  0  0  0  0  0  0  0  0  0
   -1.5111   -2.8206    0.0000 C   0  0  0  0  0  0  0  0  0  0  0  0
  1 14  1  0  0  0  0
  1 19  1  0  0  0  0
  2  5  1  0  0  0  0
  2  7  1  0  0  0  0
  2 15  1  0  0  0  0
  3 14  2  0  0  0  0
  3 20  1  0  0  0  0
  4  5  2  0  0  0  0
  4  6  1  0  0  0  0
  4  8  1  0  0  0  0
  5 10  1  0  0  0  0
  6  7  2  0  0  0  0
  6 11  1  0  0  0  0
  7 13  1  0  0  0  0
  8  9  2  0  0  0  0
  9 12  1  0  0  0  0
  9 14  1  0  0  0  0
 10 12  2  0  0  0  0
 11 16  2  0  0  0  0
 13 17  2  0  0  0  0
 15 18  1  0  0  0  0
 16 17  1  0  0  0  0
 18 21  1  0  0  0  0
 19 20  2  0  0  0  0
M  END
> <PUBCHEM_COMPOUND_ID_TYPE>
0

> <PUBCHEM_TOTAL_CHARGE>
0

> <PUBCHEM_SUBSTANCE_ID>
310941967

> <PUBCHEM_SUBSTANCE_VERSION>
1

> <PUBCHEM_EXT_DATASOURCE_NAME>
4488

> <PUBCHEM_EXT_DATASOURCE_REGID>
SCHEMBL16120001

> <PUBCHEM_SUBSTANCE_COMMENT>
InChI=1S/C18H16N2S/c1-2-10-20-16-6-4-3-5-14(16)15-12-13(7-8-17(15)20)18-19-9-11-21-18/h3-9,11-12H,2,10H2,1H3
InChIKey=FDTWANUMJWYTLE-UHFFFAOYSA-N

> <PUBCHEM_SUBSTANCE_SYNONYM>
SCHEMBL16120001

> <PUBCHEM_XREF_EXT_ID>
SCHEMBL16120001

> <PUBCHEM_EXT_DATASOURCE_URL>
https://www.surechembl.org/

> <PUBCHEM_EXT_SUBSTANCE_URL>
https://www.surechembl.org/chemical/SCHEMBL16120001

> <PUBCHEM_CID_ASSOCIATIONS>
86271055  1

> <PUBCHEM_COORDINATE_TYPE>
1
3

$$$$
