310929409
  -OEChem-07211613022D

 33 35  0     0  0  0  0  0  0999 V2000
   10.7230   -2.4449    0.0000 O   0  0  0  0  0  0  0  0  0  0  0  0
    0.0000   -5.3186    0.0000 O   0  0  0  0  0  0  0  0  0  0  0  0
   10.7659   -4.0747    0.0000 N   0  0  0  0  0  0  0  0  0  0  0  0
   11.4522   -3.6458    0.0000 C   0  0  0  0  0  0  0  0  0  0  0  0
   12.1814   -4.0747    0.0000 C   0  0  0  0  0  0  0  0  0  0  0  0
   11.4522   -2.8737    0.0000 C   0  0  0  0  0  0  0  0  0  0  0  0
   10.7659   -4.9326    0.0000 C   0  0  0  0  0  0  0  0  0  0  0  0
   12.1814   -4.8897    0.0000 C   0  0  0  0  0  0  0  0  0  0  0  0
   12.8676   -3.6887    0.0000 C   0  0  0  0  0  0  0  0  0  0  0  0
   12.1814   -2.4449    0.0000 C   0  0  0  0  0  0  0  0  0  0  0  0
   11.4522   -5.3186    0.0000 C   0  0  0  0  0  0  0  0  0  0  0  0
   12.8676   -2.8309    0.0000 C   0  0  0  0  0  0  0  0  0  0  0  0
   10.0367   -5.3186    0.0000 C   0  0  0  0  0  0  0  0  0  0  0  0
   10.7230   -1.6299    0.0000 C   0  0  0  0  0  0  0  0  0  0  0  0
    9.9938   -1.2010    0.0000 C   0  0  0  0  0  0  0  0  0  0  0  0
    9.3076   -4.9326    0.0000 C   0  0  0  0  0  0  0  0  0  0  0  0
    9.9938   -0.3860    0.0000 C   0  0  0  0  0  0  0  0  0  0  0  0
    9.3076   -1.6299    0.0000 C   0  0  0  0  0  0  0  0  0  0  0  0
    9.2647    0.0000    0.0000 C   0  0  0  0  0  0  0  0  0  0  0  0
    8.5784   -1.2439    0.0000 C   0  0  0  0  0  0  0  0  0  0  0  0
    8.6213   -5.3186    0.0000 C   0  0  0  0  0  0  0  0  0  0  0  0
    8.5784   -0.3860    0.0000 C   0  0  0  0  0  0  0  0  0  0  0  0
    7.8921   -4.9326    0.0000 C   0  0  0  0  0  0  0  0  0  0  0  0
    7.1630   -5.3186    0.0000 C   0  0  0  0  0  0  0  0  0  0  0  0
    6.4767   -4.9326    0.0000 C   0  0  0  0  0  0  0  0  0  0  0  0
    5.7475   -5.3186    0.0000 C   0  0  0  0  0  0  0  0  0  0  0  0
    5.0184   -4.9326    0.0000 C   0  0  0  0  0  0  0  0  0  0  0  0
    4.3321   -5.3186    0.0000 C   0  0  0  0  0  0  0  0  0  0  0  0
    3.6029   -4.9326    0.0000 C   0  0  0  0  0  0  0  0  0  0  0  0
    2.8737   -5.3186    0.0000 C   0  0  0  0  0  0  0  0  0  0  0  0
    2.1875   -4.9326    0.0000 C   0  0  0  0  0  0  0  0  0  0  0  0
    1.4583   -5.3186    0.0000 C   0  0  0  0  0  0  0  0  0  0  0  0
    0.7292   -4.9326    0.0000 C   0  0  0  0  0  0  0  0  0  0  0  0
  1  6  1  0  0  0  0
  1 14  1  0  0  0  0
  2 33  1  0  0  0  0
  3  4  2  0  0  0  0
  3  7  1  0  0  0  0
  4  5  1  0  0  0  0
  4  6  1  0  0  0  0
  5  8  2  0  0  0  0
  5  9  1  0  0  0  0
  6 10  2  0  0  0  0
  7 11  2  0  0  0  0
  7 13  1  0  0  0  0
  8 11  1  0  0  0  0
  9 12  2  0  0  0  0
 10 12  1  0  0  0  0
 13 16  1  0  0  0  0
 14 15  1  0  0  0  0
 15 17  2  0  0  0  0
 15 18  1  0  0  0  0
 16 21  1  0  0  0  0
 17 19  1  0  0  0  0
 18 20  2  0  0  0  0
 19 22  2  0  0  0  0
 20 22  1  0  0  0  0
 21 23  1  0  0  0  0
 23 24  1  0  0  0  0
 24 25  1  0  0  0  0
 25 26  1  0  0  0  0
 26 27  1  0  0  0  0
 27 28  1  0  0  0  0
 28 29  1  0  0  0  0
 29 30  1  0  0  0  0
 30 31  1  0  0  0  0
 31 32  1  0  0  0  0
 32 33  1  0  0  0  0
M  END
> <PUBCHEM_COMPOUND_ID_TYPE>
0

> <PUBCHEM_TOTAL_CHARGE>
0

> <PUBCHEM_SUBSTANCE_ID>
310929409

> <PUBCHEM_SUBSTANCE_VERSION>
1

> <PUBCHEM_EXT_DATASOURCE_NAME>
4488

> <PUBCHEM_EXT_DATASOURCE_REGID>
SCHEMBL16106583

> <PUBCHEM_SUBSTANCE_COMMENT>
InChI=1S/C30H41NO2/c32-24-15-10-8-6-4-2-1-3-5-7-9-14-20-28-23-22-27-19-16-21-29(30(27)31-28)33-25-26-17-12-11-13-18-26/h11-13,16-19,21-23,32H,1-10,14-15,20,24-25H2
InChIKey=VQYAZWABZPVMFF-UHFFFAOYSA-N

> <PUBCHEM_SUBSTANCE_SYNONYM>
SCHEMBL16106583

> <PUBCHEM_XREF_EXT_ID>
SCHEMBL16106583

> <PUBCHEM_EXT_DATASOURCE_URL>
https://www.surechembl.org/

> <PUBCHEM_EXT_SUBSTANCE_URL>
https://www.surechembl.org/chemical/SCHEMBL16106583

> <PUBCHEM_CID_ASSOCIATIONS>
85473328  1

> <PUBCHEM_COORDINATE_TYPE>
1
3

$$$$
