310938724
  -OEChem-07211613022D

 42 44  0     1  0  0  0  0  0999 V2000
    2.1249   -6.5481    0.0000 S   0  0  0  0  0  0  0  0  0  0  0  0
    0.9980   -3.7712    0.0000 P   0  0  3  0  0  0  0  0  0  0  0  0
    5.0445   -8.9935    0.0000 O   0  0  0  0  0  0  0  0  0  0  0  0
    5.8695   -6.1356    0.0000 O   0  0  0  0  0  0  0  0  0  0  0  0
    9.5820   -6.8501    0.0000 O   0  0  0  0  0  0  0  0  0  0  0  0
    8.3445   -6.1356    0.0000 O   0  0  0  0  0  0  0  0  0  0  0  0
    7.1070   -5.4212    0.0000 O   0  0  0  0  0  0  0  0  0  0  0  0
    9.5820   -9.7080    0.0000 O   0  0  0  0  0  0  0  0  0  0  0  0
    0.2835   -4.1837    0.0000 O   0  0  0  0  0  0  0  0  0  0  0  0
    1.7124   -3.3587    0.0000 O   0  0  0  0  0  0  0  0  0  0  0  0
    2.9096   -5.4682    0.0000 N   0  0  0  0  0  0  0  0  0  0  0  0
    1.4105   -4.4856    0.0000 N   0  0  0  0  0  0  0  0  0  0  0  0
    0.0700   -1.7368    0.0000 N   0  0  0  0  0  0  0  0  0  0  0  0
    5.8695   -8.9935    0.0000 C   0  0  3  0  0  0  0  0  0  0  0  0
    5.4570   -8.2790    0.0000 C   0  0  3  0  0  0  0  0  0  0  0  0
    5.8695   -7.5646    0.0000 C   0  0  0  0  0  0  0  0  0  0  0  0
    6.6945   -8.9935    0.0000 C   0  0  0  0  0  0  0  0  0  0  0  0
    5.4570   -6.8501    0.0000 C   0  0  3  0  0  0  0  0  0  0  0  0
    5.8695   -9.8185    0.0000 C   0  0  0  0  0  0  0  0  0  0  0  0
    4.6320   -6.8501    0.0000 C   0  0  0  0  0  0  0  0  0  0  0  0
    8.3445   -7.5646    0.0000 C   0  0  0  0  0  0  0  0  0  0  0  0
    7.1070   -9.7080    0.0000 C   0  0  0  0  0  0  0  0  0  0  0  0
    9.1695   -7.5646    0.0000 C   0  0  0  0  0  0  0  0  0  0  0  0
    7.9320   -6.8501    0.0000 C   0  0  3  0  0  0  0  0  0  0  0  0
    9.5820   -8.2790    0.0000 C   0  0  3  0  0  0  0  0  0  0  0  0
    6.6945   -6.1356    0.0000 C   0  0  0  0  0  0  0  0  0  0  0  0
    9.1695   -8.9935    0.0000 C   0  0  3  0  0  0  0  0  0  0  0  0
    4.2195   -6.1356    0.0000 C   0  0  0  0  0  0  0  0  0  0  0  0
    7.9320   -9.7080    0.0000 C   0  0  0  0  0  0  0  0  0  0  0  0
    8.3445   -8.9935    0.0000 C   0  0  3  0  0  0  0  0  0  0  0  0
    7.1070   -6.8501    0.0000 C   0  0  0  0  0  0  0  0  0  0  0  0
    3.3945   -6.1356    0.0000 C   0  0  0  0  0  0  0  0  0  0  0  0
    4.2195   -7.5646    0.0000 C   0  0  0  0  0  0  0  0  0  0  0  0
    8.3445   -8.3896    0.0000 C   0  0  0  0  0  0  0  0  0  0  0  0
    7.6300   -7.9771    0.0000 C   0  0  0  0  0  0  0  0  0  0  0  0
    2.1249   -5.7231    0.0000 C   0  0  0  0  0  0  0  0  0  0  0  0
    2.9096   -6.8031    0.0000 C   0  0  0  0  0  0  0  0  0  0  0  0
   10.4070   -8.2790    0.0000 C   0  0  0  0  0  0  0  0  0  0  0  0
    7.9320   -8.2790    0.0000 C   0  0  0  0  0  0  0  0  0  0  0  0
    1.4105   -5.3106    0.0000 C   0  0  0  0  0  0  0  0  0  0  0  0
    0.9980   -2.9462    0.0000 C   0  0  0  0  0  0  0  0  0  0  0  0
    0.2835   -2.5337    0.0000 C   0  0  0  0  0  0  0  0  0  0  0  0
  1 36  1  0  0  0  0
  1 37  1  0  0  0  0
  2  9  2  0  0  0  0
  2 10  1  0  0  0  0
  2 12  1  0  0  0  0
  2 41  1  0  0  0  0
  3 14  1  0  0  0  0
  3 15  1  0  0  0  0
  4 18  1  0  0  0  0
  4 26  1  0  0  0  0
  5 23  2  0  0  0  0
 24  6  1  1  0  0  0
  7 26  2  0  0  0  0
 27  8  1  6  0  0  0
 11 32  1  0  0  0  0
 11 36  2  0  0  0  0
 12 40  1  0  0  0  0
 13 42  1  0  0  0  0
 14 15  1  0  0  0  0
 14 17  1  0  0  0  0
 14 19  1  1  0  0  0
 15 16  1  6  0  0  0
 16 18  1  0  0  0  0
 17 22  1  0  0  0  0
 18 20  1  6  0  0  0
 20 28  2  0  0  0  0
 20 33  1  0  0  0  0
 21 23  1  0  0  0  0
 21 24  1  0  0  0  0
 21 34  1  0  0  0  0
 21 35  1  0  0  0  0
 22 29  1  0  0  0  0
 23 25  1  0  0  0  0
 24 31  1  0  0  0  0
 25 27  1  0  0  0  0
 25 38  1  1  0  0  0
 26 31  1  0  0  0  0
 27 30  1  0  0  0  0
 28 32  1  0  0  0  0
 29 30  1  0  0  0  0
 30 39  1  1  0  0  0
 32 37  2  0  0  0  0
 36 40  1  0  0  0  0
 41 42  1  0  0  0  0
M  END
> <PUBCHEM_COMPOUND_ID_TYPE>
0

> <PUBCHEM_TOTAL_CHARGE>
0

> <PUBCHEM_SUBSTANCE_ID>
310938724

> <PUBCHEM_SUBSTANCE_VERSION>
1

> <PUBCHEM_EXT_DATASOURCE_NAME>
4488

> <PUBCHEM_EXT_DATASOURCE_REGID>
SCHEMBL16116639

> <PUBCHEM_SUBSTANCE_COMMENT>
InChI=1S/C29H48N3O8PS/c1-17-8-7-9-29(6)23(40-29)13-21(39-25(34)14-22(33)28(4,5)27(36)19(3)26(17)35)18(2)12-20-16-42-24(32-20)15-31-41(37,38)11-10-30/h12,16-17,19,21-23,26,33,35H,7-11,13-15,30H2,1-6H3,(H2,31,37,38)/b18-12+/t17-,19+,21-,22-,23-,26-,29+/m1/s1
InChIKey=FPBNLMOGYBWZGD-GZPWJWBASA-N

> <PUBCHEM_SUBSTANCE_SYNONYM>
SCHEMBL16116639

> <PUBCHEM_XREF_EXT_ID>
SCHEMBL16116639

> <PUBCHEM_EXT_DATASOURCE_URL>
https://www.surechembl.org/

> <PUBCHEM_EXT_SUBSTANCE_URL>
https://www.surechembl.org/chemical/SCHEMBL16116639

> <PUBCHEM_CID_ASSOCIATIONS>
117606149  1

> <PUBCHEM_COORDINATE_TYPE>
1
3

> <PUBCHEM_BONDANNOTATIONS>
14  19  5
15  16  6
18  20  6
25  38  5
30  39  5
24  6  5
27  8  6

$$$$
