310949063
  -OEChem-07211613022D

 25 28  0     0  0  0  0  0  0999 V2000
    0.0142    1.1112    0.0000 N   0  0  0  0  0  0  0  0  0  0  0  0
   -1.4817    1.4390    0.0000 N   0  0  0  0  0  0  0  0  0  0  0  0
    2.1513    0.6696    0.0000 N   0  0  0  0  0  0  0  0  0  0  0  0
   -2.1513    0.6411    0.0000 N   0  0  0  0  0  0  0  0  0  0  0  0
   -0.0142   -2.9919    0.0000 N   0  0  0  0  0  0  0  0  0  0  0  0
   -0.6696    1.6099    0.0000 C   0  0  0  0  0  0  0  0  0  0  0  0
    0.6696    1.6241    0.0000 C   0  0  0  0  0  0  0  0  0  0  0  0
   -0.4131    2.4077    0.0000 C   0  0  0  0  0  0  0  0  0  0  0  0
    0.0000    0.3134    0.0000 C   0  0  0  0  0  0  0  0  0  0  0  0
    0.4274    2.3793    0.0000 C   0  0  0  0  0  0  0  0  0  0  0  0
    0.7266   -0.1139    0.0000 C   0  0  0  0  0  0  0  0  0  0  0  0
   -0.7123   -0.0855    0.0000 C   0  0  0  0  0  0  0  0  0  0  0  0
    1.5102    1.4674    0.0000 C   0  0  0  0  0  0  0  0  0  0  0  0
   -0.9261    2.9776    0.0000 C   0  0  0  0  0  0  0  0  0  0  0  0
    0.9831    2.9919    0.0000 C   0  0  0  0  0  0  0  0  0  0  0  0
    0.6981   -0.9403    0.0000 C   0  0  0  0  0  0  0  0  0  0  0  0
   -0.7266   -0.9118    0.0000 C   0  0  0  0  0  0  0  0  0  0  0  0
    0.0000   -1.3250    0.0000 C   0  0  0  0  0  0  0  0  0  0  0  0
   -2.0230    2.0658    0.0000 C   0  0  0  0  0  0  0  0  0  0  0  0
    2.0516    2.0373    0.0000 C   0  0  0  0  0  0  0  0  0  0  0  0
   -1.7666    2.8352    0.0000 C   0  0  0  0  0  0  0  0  0  0  0  0
    1.7809    2.8066    0.0000 C   0  0  0  0  0  0  0  0  0  0  0  0
    1.4390    0.2992    0.0000 C   0  0  0  0  0  0  0  0  0  0  0  0
   -1.4390    0.2992    0.0000 C   0  0  0  0  0  0  0  0  0  0  0  0
   -0.0142   -2.1798    0.0000 C   0  0  0  0  0  0  0  0  0  0  0  0
  1  6  1  0  0  0  0
  1  7  1  0  0  0  0
  1  9  1  0  0  0  0
  2  6  1  0  0  0  0
  2 19  2  0  0  0  0
  3 23  3  0  0  0  0
  4 24  3  0  0  0  0
  5 25  3  0  0  0  0
  6  8  2  0  0  0  0
  7 10  2  0  0  0  0
  7 13  1  0  0  0  0
  8 10  1  0  0  0  0
  8 14  1  0  0  0  0
  9 11  2  0  0  0  0
  9 12  1  0  0  0  0
 10 15  1  0  0  0  0
 11 16  1  0  0  0  0
 11 23  1  0  0  0  0
 12 17  2  0  0  0  0
 12 24  1  0  0  0  0
 13 20  2  0  0  0  0
 14 21  2  0  0  0  0
 15 22  2  0  0  0  0
 16 18  2  0  0  0  0
 17 18  1  0  0  0  0
 18 25  1  0  0  0  0
 19 21  1  0  0  0  0
 20 22  1  0  0  0  0
M  END
> <PUBCHEM_COMPOUND_ID_TYPE>
0

> <PUBCHEM_TOTAL_CHARGE>
0

> <PUBCHEM_SUBSTANCE_ID>
310949063

> <PUBCHEM_SUBSTANCE_VERSION>
1

> <PUBCHEM_EXT_DATASOURCE_NAME>
4488

> <PUBCHEM_EXT_DATASOURCE_REGID>
SCHEMBL16127253

> <PUBCHEM_SUBSTANCE_COMMENT>
InChI=1S/C20H9N5/c21-10-13-8-14(11-22)19(15(9-13)12-23)25-18-6-2-1-4-16(18)17-5-3-7-24-20(17)25/h1-9H
InChIKey=WLFAINBXBVEQSD-UHFFFAOYSA-N

> <PUBCHEM_SUBSTANCE_SYNONYM>
SCHEMBL16127253

> <PUBCHEM_XREF_EXT_ID>
SCHEMBL16127253

> <PUBCHEM_EXT_DATASOURCE_URL>
https://www.surechembl.org/

> <PUBCHEM_EXT_SUBSTANCE_URL>
https://www.surechembl.org/chemical/SCHEMBL16127253

> <PUBCHEM_CID_ASSOCIATIONS>
117614568  1

> <PUBCHEM_COORDINATE_TYPE>
1
3

$$$$
