310947431
  -OEChem-07211613022D

 28 30  0     0  0  0  0  0  0999 V2000
   -1.1836   -2.1242    0.0000 O   0  0  0  0  0  0  0  0  0  0  0  0
    1.5149   -3.9656    0.0000 O   0  0  0  0  0  0  0  0  0  0  0  0
   -1.1836   -5.4242    0.0000 O   0  0  0  0  0  0  0  0  0  0  0  0
    0.2453   -2.9492    0.0000 N   0  0  0  0  0  0  0  0  0  0  0  0
   -1.8981   -3.3617    0.0000 N   0  0  0  0  0  0  0  0  0  0  0  0
    2.7524   -4.6801    0.0000 N   0  0  0  0  0  0  0  0  0  0  0  0
    0.2453   -2.1242    0.0000 C   0  0  0  0  0  0  0  0  0  0  0  0
    1.0299   -1.8693    0.0000 C   0  0  0  0  0  0  0  0  0  0  0  0
    1.5149   -2.5367    0.0000 C   0  0  0  0  0  0  0  0  0  0  0  0
    1.0299   -3.2041    0.0000 C   0  0  0  0  0  0  0  0  0  0  0  0
   -0.4691   -3.3617    0.0000 C   0  0  0  0  0  0  0  0  0  0  0  0
   -0.3678   -1.5722    0.0000 C   0  0  0  0  0  0  0  0  0  0  0  0
   -1.1836   -2.9492    0.0000 C   0  0  0  0  0  0  0  0  0  0  0  0
    1.2015   -1.0623    0.0000 C   0  0  0  0  0  0  0  0  0  0  0  0
    2.3399   -2.5367    0.0000 C   0  0  0  0  0  0  0  0  0  0  0  0
   -2.6126   -2.9492    0.0000 C   0  0  0  0  0  0  0  0  0  0  0  0
   -0.1962   -0.7652    0.0000 C   0  0  0  0  0  0  0  0  0  0  0  0
    0.5884   -0.5102    0.0000 C   0  0  0  0  0  0  0  0  0  0  0  0
   -1.8981   -4.1867    0.0000 C   0  0  0  0  0  0  0  0  0  0  0  0
    2.7524   -3.2512    0.0000 C   0  0  0  0  0  0  0  0  0  0  0  0
   -3.3270   -3.3617    0.0000 C   0  0  0  0  0  0  0  0  0  0  0  0
   -2.6126   -2.1242    0.0000 C   0  0  0  0  0  0  0  0  0  0  0  0
    2.3399   -3.9656    0.0000 C   0  0  0  0  0  0  0  0  0  0  0  0
   -4.0415   -2.9492    0.0000 C   0  0  0  0  0  0  0  0  0  0  0  0
   -3.3270   -1.7117    0.0000 C   0  0  0  0  0  0  0  0  0  0  0  0
   -1.1836   -4.5992    0.0000 C   0  0  0  0  0  0  0  0  0  0  0  0
   -4.0415   -2.1242    0.0000 C   0  0  0  0  0  0  0  0  0  0  0  0
    3.5774   -4.6801    0.0000 C   0  0  0  0  0  0  0  0  0  0  0  0
  1 13  2  0  0  0  0
  2 23  2  0  0  0  0
  3 26  1  0  0  0  0
  4  7  1  0  0  0  0
  4 10  1  0  0  0  0
  4 11  1  0  0  0  0
  5 13  1  0  0  0  0
  5 16  1  0  0  0  0
  5 19  1  0  0  0  0
  6 23  1  0  0  0  0
  6 28  1  0  0  0  0
  7  8  2  0  0  0  0
  7 12  1  0  0  0  0
  8  9  1  0  0  0  0
  8 14  1  0  0  0  0
  9 10  2  0  0  0  0
  9 15  1  0  0  0  0
 11 13  1  0  0  0  0
 12 17  2  0  0  0  0
 14 18  2  0  0  0  0
 15 20  1  0  0  0  0
 16 21  2  0  0  0  0
 16 22  1  0  0  0  0
 17 18  1  0  0  0  0
 19 26  1  0  0  0  0
 20 23  1  0  0  0  0
 21 24  1  0  0  0  0
 22 25  2  0  0  0  0
 24 27  2  0  0  0  0
 25 27  1  0  0  0  0
M  END
> <PUBCHEM_COMPOUND_ID_TYPE>
0

> <PUBCHEM_TOTAL_CHARGE>
0

> <PUBCHEM_SUBSTANCE_ID>
310947431

> <PUBCHEM_SUBSTANCE_VERSION>
1

> <PUBCHEM_EXT_DATASOURCE_NAME>
4488

> <PUBCHEM_EXT_DATASOURCE_REGID>
SCHEMBL16125592

> <PUBCHEM_SUBSTANCE_COMMENT>
InChI=1S/C22H25N3O3/c1-23-21(27)12-11-17-15-24(20-10-6-5-9-19(17)20)16-22(28)25(13-14-26)18-7-3-2-4-8-18/h2-10,15,26H,11-14,16H2,1H3,(H,23,27)
InChIKey=RCHYHPRFONVNTR-UHFFFAOYSA-N

> <PUBCHEM_SUBSTANCE_SYNONYM>
SCHEMBL16125592

> <PUBCHEM_XREF_EXT_ID>
SCHEMBL16125592

> <PUBCHEM_EXT_DATASOURCE_URL>
https://www.surechembl.org/

> <PUBCHEM_EXT_SUBSTANCE_URL>
https://www.surechembl.org/chemical/SCHEMBL16125592

> <PUBCHEM_CID_ASSOCIATIONS>
117613163  1

> <PUBCHEM_COORDINATE_TYPE>
1
3

$$$$
