310929142
  -OEChem-07211613022D

 60 64  0     0  0  0  0  0  0999 V2000
    1.3920   -1.3920    0.0000 S   0  0  0  0  0  0  0  0  0  0  0  0
    7.2128   -1.3287    0.0000 O   0  0  0  0  0  0  0  0  0  0  0  0
    3.6064   -2.5941    0.0000 O   0  0  0  0  0  0  0  0  0  0  0  0
    5.0616   -4.3024    0.0000 O   0  0  0  0  0  0  0  0  0  0  0  0
    1.8348   -0.6327    0.0000 O   0  0  0  0  0  0  0  0  0  0  0  0
    1.0123   -2.0879    0.0000 O   0  0  0  0  0  0  0  0  0  0  0  0
   13.0970   -0.4429    0.0000 O   0  0  0  0  0  0  0  0  0  0  0  0
   15.3114    0.0000    0.0000 O   0  0  0  0  0  0  0  0  0  0  0  0
   17.4626   -0.4429    0.0000 O   0  0  0  0  0  0  0  0  0  0  0  0
   18.2218   -2.5308    0.0000 O   0  0  0  0  0  0  0  0  0  0  0  0
    3.6064   -4.3024    0.0000 N   0  0  0  0  0  0  0  0  0  0  0  0
    4.3657   -3.0370    0.0000 N   0  0  0  0  0  0  0  0  0  0  0  0
    2.1512   -1.7715    0.0000 N   0  0  0  0  0  0  0  0  0  0  0  0
   10.1233   -1.2654    0.0000 N   0  0  0  0  0  0  0  0  0  0  0  0
    9.4273   -2.5308    0.0000 N   0  0  0  0  0  0  0  0  0  0  0  0
   13.7929   -1.7083    0.0000 N   0  0  0  0  0  0  0  0  0  0  0  0
    2.9104   -3.9227    0.0000 C   0  0  0  0  0  0  0  0  0  0  0  0
    2.9104   -3.0370    0.0000 C   0  0  0  0  0  0  0  0  0  0  0  0
    5.0616   -1.7715    0.0000 C   0  0  0  0  0  0  0  0  0  0  0  0
    5.7576   -1.3287    0.0000 C   0  0  0  0  0  0  0  0  0  0  0  0
    2.1512   -2.6574    0.0000 C   0  0  0  0  0  0  0  0  0  0  0  0
    1.4552   -3.9227    0.0000 C   0  0  0  0  0  0  0  0  0  0  0  0
    5.0616   -2.5941    0.0000 C   0  0  0  0  0  0  0  0  0  0  0  0
    6.5168   -1.7715    0.0000 C   0  0  0  0  0  0  0  0  0  0  0  0
    2.1512   -4.3024    0.0000 C   0  0  0  0  0  0  0  0  0  0  0  0
    1.3920   -3.0370    0.0000 C   0  0  0  0  0  0  0  0  0  0  0  0
    0.6959   -4.3024    0.0000 C   0  0  0  0  0  0  0  0  0  0  0  0
    4.3657   -3.8595    0.0000 C   0  0  0  0  0  0  0  0  0  0  0  0
    5.8209   -3.0370    0.0000 C   0  0  0  0  0  0  0  0  0  0  0  0
    6.5168   -2.5941    0.0000 C   0  0  0  0  0  0  0  0  0  0  0  0
    4.3024   -1.3920    0.0000 C   0  0  0  0  0  0  0  0  0  0  0  0
    5.7576   -0.5062    0.0000 C   0  0  0  0  0  0  0  0  0  0  0  0
    7.9721   -1.7083    0.0000 C   0  0  0  0  0  0  0  0  0  0  0  0
    4.3024   -0.5062    0.0000 C   0  0  0  0  0  0  0  0  0  0  0  0
    5.0616   -0.0633    0.0000 C   0  0  0  0  0  0  0  0  0  0  0  0
    0.2531   -3.6064    0.0000 C   0  0  0  0  0  0  0  0  0  0  0  0
    0.0000   -4.7453    0.0000 C   0  0  0  0  0  0  0  0  0  0  0  0
    1.1389   -5.0616    0.0000 C   0  0  0  0  0  0  0  0  0  0  0  0
    8.6680   -1.2654    0.0000 C   0  0  0  0  0  0  0  0  0  0  0  0
    9.4273   -1.7083    0.0000 C   0  0  0  0  0  0  0  0  0  0  0  0
    7.9721   -2.5308    0.0000 C   0  0  0  0  0  0  0  0  0  0  0  0
   10.8825   -1.7083    0.0000 C   0  0  0  0  0  0  0  0  0  0  0  0
   12.3377   -1.7083    0.0000 C   0  0  0  0  0  0  0  0  0  0  0  0
    3.6064   -1.7715    0.0000 C   0  0  0  0  0  0  0  0  0  0  0  0
   11.6417   -1.2654    0.0000 C   0  0  0  0  0  0  0  0  0  0  0  0
    8.7313   -2.9737    0.0000 C   0  0  0  0  0  0  0  0  0  0  0  0
    0.6959   -0.9490    0.0000 C   0  0  0  0  0  0  0  0  0  0  0  0
   11.6417   -2.9737    0.0000 C   0  0  0  0  0  0  0  0  0  0  0  0
   10.8825   -2.5308    0.0000 C   0  0  0  0  0  0  0  0  0  0  0  0
   12.3377   -2.5308    0.0000 C   0  0  0  0  0  0  0  0  0  0  0  0
   13.0970   -1.2654    0.0000 C   0  0  0  0  0  0  0  0  0  0  0  0
   11.6417   -3.7962    0.0000 C   0  0  0  0  0  0  0  0  0  0  0  0
   14.5522   -1.2654    0.0000 C   0  0  0  0  0  0  0  0  0  0  0  0
   12.3377   -4.2391    0.0000 C   0  0  0  0  0  0  0  0  0  0  0  0
   14.5522   -0.4429    0.0000 C   0  0  0  0  0  0  0  0  0  0  0  0
   16.0074   -0.4429    0.0000 C   0  0  0  0  0  0  0  0  0  0  0  0
   16.7666    0.0000    0.0000 C   0  0  0  0  0  0  0  0  0  0  0  0
   17.4626   -1.2654    0.0000 C   0  0  0  0  0  0  0  0  0  0  0  0
   18.2218   -1.6450    0.0000 C   0  0  0  0  0  0  0  0  0  0  0  0
   18.9811   -2.9737    0.0000 C   0  0  0  0  0  0  0  0  0  0  0  0
  1  5  2  0  0  0  0
  1  6  2  0  0  0  0
  1 13  1  0  0  0  0
  1 47  1  0  0  0  0
  2 24  1  0  0  0  0
  2 33  1  0  0  0  0
  3 18  1  0  0  0  0
  3 44  1  0  0  0  0
  4 28  2  0  0  0  0
  7 51  2  0  0  0  0
  8 55  1  0  0  0  0
  8 56  1  0  0  0  0
  9 57  1  0  0  0  0
  9 58  1  0  0  0  0
 10 59  1  0  0  0  0
 10 60  1  0  0  0  0
 11 17  1  0  0  0  0
 11 28  1  0  0  0  0
 12 23  1  0  0  0  0
 12 28  1  0  0  0  0
 13 21  1  0  0  0  0
 14 40  1  0  0  0  0
 14 42  1  0  0  0  0
 15 40  1  0  0  0  0
 15 46  2  0  0  0  0
 16 51  1  0  0  0  0
 16 53  1  0  0  0  0
 17 18  1  0  0  0  0
 17 25  2  0  0  0  0
 18 21  2  0  0  0  0
 19 20  2  0  0  0  0
 19 23  1  0  0  0  0
 19 31  1  0  0  0  0
 20 24  1  0  0  0  0
 20 32  1  0  0  0  0
 21 26  1  0  0  0  0
 22 25  1  0  0  0  0
 22 26  2  0  0  0  0
 22 27  1  0  0  0  0
 23 29  2  0  0  0  0
 24 30  2  0  0  0  0
 27 36  1  0  0  0  0
 27 37  1  0  0  0  0
 27 38  1  0  0  0  0
 29 30  1  0  0  0  0
 31 34  2  0  0  0  0
 32 35  2  0  0  0  0
 33 39  1  0  0  0  0
 33 41  2  0  0  0  0
 34 35  1  0  0  0  0
 39 40  2  0  0  0  0
 41 46  1  0  0  0  0
 42 45  1  0  0  0  0
 42 49  2  0  0  0  0
 43 45  2  0  0  0  0
 43 50  1  0  0  0  0
 43 51  1  0  0  0  0
 48 49  1  0  0  0  0
 48 50  2  0  0  0  0
 48 52  1  0  0  0  0
 52 54  3  0  0  0  0
 53 55  1  0  0  0  0
 56 57  1  0  0  0  0
 58 59  1  0  0  0  0
M  END
> <PUBCHEM_COMPOUND_ID_TYPE>
0

> <PUBCHEM_TOTAL_CHARGE>
0

> <PUBCHEM_SUBSTANCE_ID>
310929142

> <PUBCHEM_SUBSTANCE_VERSION>
1

> <PUBCHEM_EXT_DATASOURCE_NAME>
4488

> <PUBCHEM_EXT_DATASOURCE_REGID>
SCHEMBL16106305

> <PUBCHEM_SUBSTANCE_COMMENT>
InChI=1S/C44H50N6O9S/c1-8-29-23-30(42(51)46-17-18-57-21-22-58-20-19-55-5)25-32(24-29)47-40-28-33(15-16-45-40)59-39-14-13-36(34-11-9-10-12-35(34)39)48-43(52)49-37-26-31(44(2,3)4)27-38(41(37)56-6)50-60(7,53)54/h1,9-16,23-28,50H,17-22H2,2-7H3,(H,45,47)(H,46,51)(H2,48,49,52)
InChIKey=GVZVPMLKPGLAEE-UHFFFAOYSA-N

> <PUBCHEM_SUBSTANCE_SYNONYM>
SCHEMBL16106305

> <PUBCHEM_XREF_EXT_ID>
SCHEMBL16106305

> <PUBCHEM_EXT_DATASOURCE_URL>
https://www.surechembl.org/

> <PUBCHEM_EXT_SUBSTANCE_URL>
https://www.surechembl.org/chemical/SCHEMBL16106305

> <PUBCHEM_CID_ASSOCIATIONS>
86275465  1

> <PUBCHEM_COORDINATE_TYPE>
1
3

$$$$
