310946909
  -OEChem-07211613022D

 30 33  0     0  0  0  0  0  0999 V2000
   -1.2122   12.6318    0.0000 O   0  0  0  0  0  0  0  0  0  0  0  0
   -2.4497    9.0594    0.0000 N   0  0  0  0  0  0  0  0  0  0  0  0
   -2.9347    8.3920    0.0000 N   0  0  0  0  0  0  0  0  0  0  0  0
   -0.2362    7.9795    0.0000 N   0  0  0  0  0  0  0  0  0  0  0  0
   -0.9506    6.7420    0.0000 N   0  0  0  0  0  0  0  0  0  0  0  0
   -2.0799    6.3443    0.0000 N   0  0  0  0  0  0  0  0  0  0  0  0
   -3.0903    5.3339    0.0000 N   0  0  0  0  0  0  0  0  0  0  0  0
   -1.6651    7.9795    0.0000 C   0  0  0  0  0  0  0  0  0  0  0  0
   -2.4497    7.7246    0.0000 C   0  0  0  0  0  0  0  0  0  0  0  0
   -1.6651    8.8045    0.0000 C   0  0  0  0  0  0  0  0  0  0  0  0
   -0.9506    7.5670    0.0000 C   0  0  0  0  0  0  0  0  0  0  0  0
   -2.6633    6.9277    0.0000 C   0  0  0  0  0  0  0  0  0  0  0  0
   -0.9506    9.2170    0.0000 C   0  0  0  0  0  0  0  0  0  0  0  0
   -2.8622    9.7739    0.0000 C   0  0  0  0  0  0  0  0  0  0  0  0
   -0.2362    8.8045    0.0000 C   0  0  0  0  0  0  0  0  0  0  0  0
   -3.4602    6.7142    0.0000 C   0  0  0  0  0  0  0  0  0  0  0  0
   -2.4497   10.4884    0.0000 C   0  0  0  0  0  0  0  0  0  0  0  0
   -3.6737    5.9173    0.0000 C   0  0  0  0  0  0  0  0  0  0  0  0
   -2.2934    5.5474    0.0000 C   0  0  0  0  0  0  0  0  0  0  0  0
   -0.2362    6.3295    0.0000 C   0  0  0  0  0  0  0  0  0  0  0  0
   -1.6247   10.4884    0.0000 C   0  0  0  0  0  0  0  0  0  0  0  0
   -2.8622   11.2029    0.0000 C   0  0  0  0  0  0  0  0  0  0  0  0
   -4.4706    5.7037    0.0000 C   0  0  0  0  0  0  0  0  0  0  0  0
   -1.6247   11.9173    0.0000 C   0  0  0  0  0  0  0  0  0  0  0  0
   -1.2122   11.2029    0.0000 C   0  0  0  0  0  0  0  0  0  0  0  0
   -2.4497   11.9173    0.0000 C   0  0  0  0  0  0  0  0  0  0  0  0
   -0.2362    5.5045    0.0000 C   0  0  0  0  0  0  0  0  0  0  0  0
    0.4783    6.7420    0.0000 C   0  0  0  0  0  0  0  0  0  0  0  0
   -4.6841    4.9069    0.0000 C   0  0  0  0  0  0  0  0  0  0  0  0
   -1.6247   13.3463    0.0000 C   0  0  0  0  0  0  0  0  0  0  0  0
  1 24  1  0  0  0  0
  1 30  1  0  0  0  0
  2  3  1  0  0  0  0
  2 10  1  0  0  0  0
  2 14  1  0  0  0  0
  3  9  2  0  0  0  0
  4 11  2  0  0  0  0
  4 15  1  0  0  0  0
  5 11  1  0  0  0  0
  5 20  1  0  0  0  0
  6 12  1  0  0  0  0
  6 19  2  0  0  0  0
  7 18  2  0  0  0  0
  7 19  1  0  0  0  0
  8  9  1  0  0  0  0
  8 10  2  0  0  0  0
  8 11  1  0  0  0  0
  9 12  1  0  0  0  0
 10 13  1  0  0  0  0
 12 16  2  0  0  0  0
 13 15  2  0  0  0  0
 14 17  1  0  0  0  0
 16 18  1  0  0  0  0
 17 21  2  0  0  0  0
 17 22  1  0  0  0  0
 18 23  1  0  0  0  0
 20 27  1  0  0  0  0
 20 28  1  0  0  0  0
 21 25  1  0  0  0  0
 22 26  2  0  0  0  0
 23 29  1  0  0  0  0
 24 25  2  0  0  0  0
 24 26  1  0  0  0  0
M  END
> <PUBCHEM_COMPOUND_ID_TYPE>
0

> <PUBCHEM_TOTAL_CHARGE>
0

> <PUBCHEM_SUBSTANCE_ID>
310946909

> <PUBCHEM_SUBSTANCE_VERSION>
1

> <PUBCHEM_EXT_DATASOURCE_NAME>
4488

> <PUBCHEM_EXT_DATASOURCE_REGID>
SCHEMBL16125033

> <PUBCHEM_SUBSTANCE_COMMENT>
InChI=1S/C23H26N6O/c1-5-17-12-19(26-14-25-17)22-21-20(10-11-24-23(21)27-15(2)3)29(28-22)13-16-6-8-18(30-4)9-7-16/h6-12,14-15H,5,13H2,1-4H3,(H,24,27)
InChIKey=PUDZYZHQJBCJHQ-UHFFFAOYSA-N

> <PUBCHEM_SUBSTANCE_SYNONYM>
SCHEMBL16125033

> <PUBCHEM_XREF_EXT_ID>
SCHEMBL16125033

> <PUBCHEM_EXT_DATASOURCE_URL>
https://www.surechembl.org/

> <PUBCHEM_EXT_SUBSTANCE_URL>
https://www.surechembl.org/chemical/SCHEMBL16125033

> <PUBCHEM_CID_ASSOCIATIONS>
117612767  1

> <PUBCHEM_COORDINATE_TYPE>
1
3

$$$$
