310931796
  -OEChem-07211613022D

 35 38  0     1  0  0  0  0  0999 V2000
   -4.9692   -0.2849    0.0000 S   0  0  0  0  0  0  0  0  0  0  0  0
   -4.5828    0.1709    0.0000 O   0  0  0  0  0  0  0  0  0  0  0  0
   -2.6589    0.6864    0.0000 O   0  0  0  0  0  0  0  0  0  0  0  0
   -6.1253   -2.5537    0.0000 O   0  0  0  0  0  0  0  0  0  0  0  0
   -0.7145   -2.0625    0.0000 O   0  0  0  0  0  0  0  0  0  0  0  0
    0.7145   -2.0625    0.0000 O   0  0  0  0  0  0  0  0  0  0  0  0
    3.5724   -2.0625    0.0000 O   0  0  0  0  0  0  0  0  0  0  0  0
    4.2868   -0.8250    0.0000 O   0  0  0  0  0  0  0  0  0  0  0  0
   -4.0673   -1.7530    0.0000 N   0  0  0  0  0  0  0  0  0  0  0  0
   -2.1434   -1.2375    0.0000 N   0  0  0  0  0  0  0  0  0  0  0  0
    2.1434   -1.2375    0.0000 N   0  0  0  0  0  0  0  0  0  0  0  0
   -3.6548   -1.0385    0.0000 C   0  0  0  0  0  0  0  0  0  0  0  0
   -2.8579   -0.8250    0.0000 C   0  0  0  0  0  0  0  0  0  0  0  0
   -3.8683   -0.2416    0.0000 C   0  0  0  0  0  0  0  0  0  0  0  0
   -3.0714   -0.0281    0.0000 C   0  0  0  0  0  0  0  0  0  0  0  0
   -4.8923   -1.7530    0.0000 C   0  0  3  0  0  0  0  0  0  0  0  0
   -1.4289   -0.8250    0.0000 C   0  0  0  0  0  0  0  0  0  0  0  0
   -5.3048   -2.4675    0.0000 C   0  0  0  0  0  0  0  0  0  0  0  0
   -5.3048   -1.0385    0.0000 C   0  0  3  0  0  0  0  0  0  0  0  0
   -0.7145   -1.2375    0.0000 C   0  0  0  0  0  0  0  0  0  0  0  0
    0.0000   -0.8250    0.0000 C   0  0  0  0  0  0  0  0  0  0  0  0
   -1.4289   -0.0000    0.0000 C   0  0  0  0  0  0  0  0  0  0  0  0
   -4.9692   -3.2211    0.0000 C   0  0  0  0  0  0  0  0  0  0  0  0
   -6.1253   -0.9523    0.0000 C   0  0  0  0  0  0  0  0  0  0  0  0
   -6.2968   -3.3607    0.0000 C   0  0  0  0  0  0  0  0  0  0  0  0
    0.0000   -0.0000    0.0000 C   0  0  0  0  0  0  0  0  0  0  0  0
    0.7145   -1.2375    0.0000 C   0  0  0  0  0  0  0  0  0  0  0  0
   -5.5823   -3.7732    0.0000 C   0  0  0  0  0  0  0  0  0  0  0  0
   -0.7145    0.4125    0.0000 C   0  0  0  0  0  0  0  0  0  0  0  0
   -5.5823    0.2672    0.0000 C   0  0  0  0  0  0  0  0  0  0  0  0
   -6.2968   -0.1453    0.0000 C   0  0  0  0  0  0  0  0  0  0  0  0
    1.4289   -0.8250    0.0000 C   0  0  0  0  0  0  0  0  0  0  0  0
   -7.0505   -3.6962    0.0000 C   0  0  0  0  0  0  0  0  0  0  0  0
    2.8579   -0.8250    0.0000 C   0  0  0  0  0  0  0  0  0  0  0  0
    3.5724   -1.2375    0.0000 C   0  0  0  0  0  0  0  0  0  0  0  0
  1 19  1  0  0  0  0
  1 30  1  0  0  0  0
  2 14  2  0  0  0  0
  3 15  2  0  0  0  0
  4 18  1  0  0  0  0
  4 25  1  0  0  0  0
  5 20  1  0  0  0  0
  6 27  2  0  0  0  0
  7 35  2  0  0  0  0
  8 35  1  0  0  0  0
  9 12  1  0  0  0  0
 16  9  1  1  0  0  0
 10 13  1  0  0  0  0
 10 17  1  0  0  0  0
 11 32  1  0  0  0  0
 11 34  1  0  0  0  0
 12 13  2  0  0  0  0
 12 14  1  0  0  0  0
 13 15  1  0  0  0  0
 14 15  1  0  0  0  0
 16 18  1  0  0  0  0
 16 19  1  0  0  0  0
 17 20  1  0  0  0  0
 17 22  2  0  0  0  0
 18 23  2  0  0  0  0
 19 24  1  0  0  0  0
 20 21  2  0  0  0  0
 21 26  1  0  0  0  0
 21 27  1  0  0  0  0
 22 29  1  0  0  0  0
 23 28  1  0  0  0  0
 24 31  1  0  0  0  0
 25 28  2  0  0  0  0
 25 33  1  0  0  0  0
 26 29  2  0  0  0  0
 27 32  1  0  0  0  0
 30 31  1  0  0  0  0
 34 35  1  0  0  0  0
M  END
> <PUBCHEM_COMPOUND_ID_TYPE>
0

> <PUBCHEM_TOTAL_CHARGE>
0

> <PUBCHEM_SUBSTANCE_ID>
310931796

> <PUBCHEM_SUBSTANCE_VERSION>
1

> <PUBCHEM_EXT_DATASOURCE_NAME>
4488

> <PUBCHEM_EXT_DATASOURCE_REGID>
SCHEMBL16109128

> <PUBCHEM_SUBSTANCE_COMMENT>
InChI=1S/C24H25N3O7S/c1-12-7-8-16(34-12)19(17-6-3-9-35-17)27-21-20(23(32)24(21)33)26-14-5-2-4-13(22(14)31)15(28)10-25-11-18(29)30/h2,4-5,7-8,17,19,25-27,31H,3,6,9-11H2,1H3,(H,29,30)/t17?,19-/m0/s1
InChIKey=IEGFXVQFRKELNY-NNBQYGFHSA-N

> <PUBCHEM_SUBSTANCE_SYNONYM>
SCHEMBL16109128

> <PUBCHEM_XREF_EXT_ID>
SCHEMBL16109128

> <PUBCHEM_EXT_DATASOURCE_URL>
https://www.surechembl.org/

> <PUBCHEM_EXT_SUBSTANCE_URL>
https://www.surechembl.org/chemical/SCHEMBL16109128

> <PUBCHEM_CID_ASSOCIATIONS>
117600477  1

> <PUBCHEM_COORDINATE_TYPE>
1
3

> <PUBCHEM_BONDANNOTATIONS>
16  9  5

$$$$
