310945374
  -OEChem-07211613022D

 14 13  0     0  0  0  0  0  0999 V2000
   -2.4836   -0.1826    0.0000 F   0  0  0  0  0  0  0  0  0  0  0  0
   -1.0775    0.6209    0.0000 O   0  0  0  0  0  0  0  0  0  0  0  0
    0.3469   -0.2009    0.0000 O   0  0  0  0  0  0  0  0  0  0  0  0
   -1.0957   -0.1826    0.0000 C   0  0  0  0  0  0  0  0  0  0  0  0
   -1.7896   -0.5844    0.0000 C   0  0  0  0  0  0  0  0  0  0  0  0
    0.3469    0.6574    0.0000 C   0  0  0  0  0  0  0  0  0  0  0  0
   -0.3835    1.0409    0.0000 C   0  0  0  0  0  0  0  0  0  0  0  0
   -0.3652   -0.6027    0.0000 C   0  0  0  0  0  0  0  0  0  0  0  0
    1.0409    1.0409    0.0000 C   0  0  0  0  0  0  0  0  0  0  0  0
    1.7714    0.6391    0.0000 C   0  0  0  0  0  0  0  0  0  0  0  0
   -1.6983   -1.0592    0.0000 C   0  0  0  0  0  0  0  0  0  0  0  0
   -0.3469   -1.0592    0.0000 C   0  0  0  0  0  0  0  0  0  0  0  0
    2.4836    1.0592    0.0000 C   0  0  0  0  0  0  0  0  0  0  0  0
    1.7896   -0.2009    0.0000 C   0  0  0  0  0  0  0  0  0  0  0  0
  1  5  1  0  0  0  0
  2  4  1  0  0  0  0
  2  7  1  0  0  0  0
  3  6  2  0  0  0  0
  4  5  1  0  0  0  0
  4  8  2  0  0  0  0
  5 11  2  0  0  0  0
  6  7  1  0  0  0  0
  6  9  1  0  0  0  0
  8 12  1  0  0  0  0
  9 10  2  0  0  0  0
 10 13  1  0  0  0  0
 10 14  1  0  0  0  0
M  END
> <PUBCHEM_COMPOUND_ID_TYPE>
0

> <PUBCHEM_TOTAL_CHARGE>
0

> <PUBCHEM_SUBSTANCE_ID>
310945374

> <PUBCHEM_SUBSTANCE_VERSION>
1

> <PUBCHEM_EXT_DATASOURCE_NAME>
4488

> <PUBCHEM_EXT_DATASOURCE_REGID>
SCHEMBL16123472

> <PUBCHEM_SUBSTANCE_COMMENT>
InChI=1S/C11H15FO2/c1-5-11(9(4)12)14-7-10(13)6-8(2)3/h5-6H,4,7H2,1-3H3/b11-5+
InChIKey=NNFORWVZMMYRBO-VZUCSPMQSA-N

> <PUBCHEM_SUBSTANCE_SYNONYM>
SCHEMBL16123472

> <PUBCHEM_XREF_EXT_ID>
SCHEMBL16123472

> <PUBCHEM_EXT_DATASOURCE_URL>
https://www.surechembl.org/

> <PUBCHEM_EXT_SUBSTANCE_URL>
https://www.surechembl.org/chemical/SCHEMBL16123472

> <PUBCHEM_CID_ASSOCIATIONS>
117611428  1

> <PUBCHEM_COORDINATE_TYPE>
1
3

$$$$
