310939162
  -OEChem-07211613022D

 28 30  0     1  0  0  0  0  0999 V2000
    0.3572    0.5230    0.0000 F   0  0  0  0  0  0  0  0  0  0  0  0
    1.7862   -1.9520    0.0000 F   0  0  0  0  0  0  0  0  0  0  0  0
    1.7862   -0.3020    0.0000 O   0  0  0  0  0  0  0  0  0  0  0  0
   -0.2467    1.9520    0.0000 O   0  0  0  0  0  0  0  0  0  0  0  0
   -1.0717    0.5230    0.0000 N   0  0  0  0  0  0  0  0  0  0  0  0
   -3.9296    0.5230    0.0000 N   0  0  0  0  0  0  0  0  0  0  0  0
   -0.3572   -0.7145    0.0000 C   0  0  0  0  0  0  0  0  0  0  0  0
    0.3572   -0.3020    0.0000 C   0  0  0  0  0  0  0  0  0  0  0  0
    1.0717   -0.7145    0.0000 C   0  0  0  0  0  0  0  0  0  0  0  0
   -1.0717   -0.3020    0.0000 C   0  0  3  0  0  0  0  0  0  0  0  0
    1.0717   -1.5395    0.0000 C   0  0  0  0  0  0  0  0  0  0  0  0
   -0.3572   -1.5395    0.0000 C   0  0  0  0  0  0  0  0  0  0  0  0
    0.3572   -1.9520    0.0000 C   0  0  0  0  0  0  0  0  0  0  0  0
   -1.7862   -0.7145    0.0000 C   0  0  0  0  0  0  0  0  0  0  0  0
    2.5006   -0.7145    0.0000 C   0  0  0  0  0  0  0  0  0  0  0  0
   -2.5006   -0.3020    0.0000 C   0  0  0  0  0  0  0  0  0  0  0  0
   -1.4842    1.2375    0.0000 C   0  0  3  0  0  0  0  0  0  0  0  0
    2.5006   -1.5395    0.0000 C   0  0  0  0  0  0  0  0  0  0  0  0
    3.2151   -0.3020    0.0000 C   0  0  0  0  0  0  0  0  0  0  0  0
   -3.2151   -0.7145    0.0000 C   0  0  0  0  0  0  0  0  0  0  0  0
   -2.5006    0.5230    0.0000 C   0  0  0  0  0  0  0  0  0  0  0  0
    3.2151   -1.9520    0.0000 C   0  0  0  0  0  0  0  0  0  0  0  0
    3.9296   -0.7145    0.0000 C   0  0  0  0  0  0  0  0  0  0  0  0
   -1.0717    1.9520    0.0000 C   0  0  0  0  0  0  0  0  0  0  0  0
   -3.9296   -0.3020    0.0000 C   0  0  0  0  0  0  0  0  0  0  0  0
   -3.2151    0.9355    0.0000 C   0  0  0  0  0  0  0  0  0  0  0  0
    3.9296   -1.5395    0.0000 C   0  0  0  0  0  0  0  0  0  0  0  0
   -2.3092    1.2375    0.0000 C   0  0  0  0  0  0  0  0  0  0  0  0
  1  8  1  0  0  0  0
  2 11  1  0  0  0  0
  3  9  1  0  0  0  0
  3 15  1  0  0  0  0
  4 24  1  0  0  0  0
 10  5  1  6  0  0  0
  5 17  1  0  0  0  0
  6 25  1  0  0  0  0
  6 26  1  0  0  0  0
  7  8  2  0  0  0  0
  7 10  1  0  0  0  0
  7 12  1  0  0  0  0
  8  9  1  0  0  0  0
  9 11  2  0  0  0  0
 10 14  1  0  0  0  0
 11 13  1  0  0  0  0
 12 13  2  0  0  0  0
 14 16  1  0  0  0  0
 15 18  2  0  0  0  0
 15 19  1  0  0  0  0
 16 20  1  0  0  0  0
 16 21  1  0  0  0  0
 17 24  1  0  0  0  0
 17 28  1  1  0  0  0
 18 22  1  0  0  0  0
 19 23  2  0  0  0  0
 20 25  1  0  0  0  0
 21 26  1  0  0  0  0
 22 27  2  0  0  0  0
 23 27  1  0  0  0  0
M  END
> <PUBCHEM_COMPOUND_ID_TYPE>
0

> <PUBCHEM_TOTAL_CHARGE>
0

> <PUBCHEM_SUBSTANCE_ID>
310939162

> <PUBCHEM_SUBSTANCE_VERSION>
1

> <PUBCHEM_EXT_DATASOURCE_NAME>
4488

> <PUBCHEM_EXT_DATASOURCE_REGID>
SCHEMBL16117083

> <PUBCHEM_SUBSTANCE_COMMENT>
InChI=1S/C22H28F2N2O2/c1-15(14-27)26-20(13-16-9-11-25-12-10-16)18-7-8-19(23)22(21(18)24)28-17-5-3-2-4-6-17/h2-8,15-16,20,25-27H,9-14H2,1H3/t15-,20-/m0/s1
InChIKey=QWCHCSCBGMXCSX-YWZLYKJASA-N

> <PUBCHEM_SUBSTANCE_SYNONYM>
SCHEMBL16117083

> <PUBCHEM_XREF_EXT_ID>
SCHEMBL16117083

> <PUBCHEM_EXT_DATASOURCE_URL>
https://www.surechembl.org/

> <PUBCHEM_EXT_SUBSTANCE_URL>
https://www.surechembl.org/chemical/SCHEMBL16117083

> <PUBCHEM_CID_ASSOCIATIONS>
117606512  1

> <PUBCHEM_COORDINATE_TYPE>
1
3

> <PUBCHEM_BONDANNOTATIONS>
17  28  5
10  5  6

$$$$
