310945314
  -OEChem-07211613022D

 31 34  0     1  0  0  0  0  0999 V2000
    1.1884   -1.4486    0.0000 S   0  0  0  0  0  0  0  0  0  0  0  0
   -2.1999   -1.4192    0.0000 S   0  0  0  0  0  0  0  0  0  0  0  0
    2.7008   -2.0772    0.0000 O   0  0  0  0  0  0  0  0  0  0  0  0
   -1.3847   -1.5468    0.0000 O   0  0  0  0  0  0  0  0  0  0  0  0
   -2.6124   -2.1361    0.0000 O   0  0  0  0  0  0  0  0  0  0  0  0
   -0.8839    1.6450    0.0000 O   0  0  0  0  0  0  0  0  0  0  0  0
   -4.2329    1.4486    0.0000 O   0  0  0  0  0  0  0  0  0  0  0  0
    2.0624    0.5156    0.0000 N   0  0  0  0  0  0  0  0  0  0  0  0
   -1.9446    0.7022    0.0000 N   0  0  0  0  0  0  0  0  0  0  0  0
    3.3391   -0.8299    0.0000 N   0  0  0  0  0  0  0  0  0  0  0  0
   -3.6534    0.1523    0.0000 N   0  0  0  0  0  0  0  0  0  0  0  0
    0.7758   -0.1719    0.0000 C   0  0  0  0  0  0  0  0  0  0  0  0
    1.6009   -0.1817    0.0000 C   0  0  0  0  0  0  0  0  0  0  0  0
    1.8464   -0.9575    0.0000 C   0  0  0  0  0  0  0  0  0  0  0  0
    0.5009   -0.9575    0.0000 C   0  0  0  0  0  0  0  0  0  0  0  0
   -0.5794    0.2603    0.0000 C   0  0  0  0  0  0  0  0  0  0  0  0
    0.2357    0.4174    0.0000 C   0  0  0  0  0  0  0  0  0  0  0  0
    2.6320   -1.2424    0.0000 C   0  0  0  0  0  0  0  0  0  0  0  0
   -2.2098   -0.0835    0.0000 C   0  0  3  0  0  0  0  0  0  0  0  0
   -0.2848   -1.1245    0.0000 C   0  0  0  0  0  0  0  0  0  0  0  0
   -2.9758   -0.3290    0.0000 C   0  0  3  0  0  0  0  0  0  0  0  0
   -1.1393    0.8594    0.0000 C   0  0  0  0  0  0  0  0  0  0  0  0
   -0.8249   -0.5352    0.0000 C   0  0  0  0  0  0  0  0  0  0  0  0
   -1.7187   -0.7415    0.0000 C   0  0  0  0  0  0  0  0  0  0  0  0
   -2.9856   -1.1539    0.0000 C   0  0  0  0  0  0  0  0  0  0  0  0
    2.8678    0.5843    0.0000 C   0  0  0  0  0  0  0  0  0  0  0  0
    3.4570   -0.0049    0.0000 C   0  0  3  0  0  0  0  0  0  0  0  0
   -3.5552    0.9674    0.0000 C   0  0  0  0  0  0  0  0  0  0  0  0
    4.2329    0.2406    0.0000 C   0  0  0  0  0  0  0  0  0  0  0  0
   -2.8187    1.3013    0.0000 C   0  0  0  0  0  0  0  0  0  0  0  0
   -2.7794    2.1361    0.0000 C   0  0  0  0  0  0  0  0  0  0  0  0
  1 14  1  0  0  0  0
  1 15  1  0  0  0  0
  2  4  2  0  0  0  0
  2  5  2  0  0  0  0
  2 24  1  0  0  0  0
  2 25  1  0  0  0  0
  3 18  2  0  0  0  0
  6 22  2  0  0  0  0
  7 28  2  0  0  0  0
  8 13  1  0  0  0  0
  8 26  1  0  0  0  0
  9 19  1  0  0  0  0
  9 22  1  0  0  0  0
 10 18  1  0  0  0  0
 10 27  1  0  0  0  0
 11 21  1  0  0  0  0
 11 28  1  0  0  0  0
 12 13  1  0  0  0  0
 12 15  1  0  0  0  0
 12 17  2  0  0  0  0
 13 14  2  0  0  0  0
 14 18  1  0  0  0  0
 15 20  2  0  0  0  0
 16 17  1  0  0  0  0
 16 22  1  0  0  0  0
 16 23  2  0  0  0  0
 19 21  1  0  0  0  0
 19 24  1  0  0  0  0
 20 23  1  0  0  0  0
 21 25  1  0  0  0  0
 26 27  1  0  0  0  0
 27 29  1  1  0  0  0
 28 30  1  0  0  0  0
 30 31  2  0  0  0  0
M  END
> <PUBCHEM_COMPOUND_ID_TYPE>
0

> <PUBCHEM_TOTAL_CHARGE>
0

> <PUBCHEM_SUBSTANCE_ID>
310945314

> <PUBCHEM_SUBSTANCE_VERSION>
1

> <PUBCHEM_EXT_DATASOURCE_NAME>
4488

> <PUBCHEM_EXT_DATASOURCE_REGID>
SCHEMBL16123412

> <PUBCHEM_SUBSTANCE_COMMENT>
InChI=1S/C20H22N4O5S2/c1-3-16(25)23-13-8-31(28,29)9-14(13)24-19(26)11-4-5-15-12(6-11)17-18(30-15)20(27)22-10(2)7-21-17/h3-6,10,13-14,21H,1,7-9H2,2H3,(H,22,27)(H,23,25)(H,24,26)/t10-,13?,14?/m1/s1
InChIKey=NZWAKUBTNQOVRG-GWMXKSKGSA-N

> <PUBCHEM_SUBSTANCE_SYNONYM>
SCHEMBL16123412

> <PUBCHEM_XREF_EXT_ID>
SCHEMBL16123412

> <PUBCHEM_EXT_DATASOURCE_URL>
https://www.surechembl.org/

> <PUBCHEM_EXT_SUBSTANCE_URL>
https://www.surechembl.org/chemical/SCHEMBL16123412

> <PUBCHEM_CID_ASSOCIATIONS>
117611372  1

> <PUBCHEM_COORDINATE_TYPE>
1
3

> <PUBCHEM_BONDANNOTATIONS>
27  29  5

$$$$
