310928740
  -OEChem-07211613022D

 13 14  0     0  0  0  0  0  0999 V2000
   -1.3492    1.2375    0.0000 Cl  0  0  0  0  0  0  0  0  0  0  0  0
   -2.0637    0.0000    0.0000 O   0  5  0  0  0  0  0  0  0  0  0  0
   -1.3492   -1.2375    0.0000 O   0  0  0  0  0  0  0  0  0  0  0  0
   -1.3492   -0.4125    0.0000 N   0  3  0  0  0  0  0  0  0  0  0  0
    1.5788    1.0799    0.0000 N   0  0  0  0  0  0  0  0  0  0  0  0
    2.0637    0.4125    0.0000 N   0  0  0  0  0  0  0  0  0  0  0  0
   -0.6348    0.0000    0.0000 C   0  0  0  0  0  0  0  0  0  0  0  0
    0.7942    0.0000    0.0000 C   0  0  0  0  0  0  0  0  0  0  0  0
    0.7942    0.8250    0.0000 C   0  0  0  0  0  0  0  0  0  0  0  0
   -0.6348    0.8250    0.0000 C   0  0  0  0  0  0  0  0  0  0  0  0
    0.0797   -0.4125    0.0000 C   0  0  0  0  0  0  0  0  0  0  0  0
    0.0797    1.2375    0.0000 C   0  0  0  0  0  0  0  0  0  0  0  0
    1.5788   -0.2549    0.0000 C   0  0  0  0  0  0  0  0  0  0  0  0
  1 10  1  0  0  0  0
  2  4  1  0  0  0  0
  3  4  2  0  0  0  0
  4  7  1  0  0  0  0
  5  6  1  0  0  0  0
  5  9  1  0  0  0  0
  6 13  2  0  0  0  0
  7 10  1  0  0  0  0
  7 11  2  0  0  0  0
  8  9  2  0  0  0  0
  8 11  1  0  0  0  0
  8 13  1  0  0  0  0
  9 12  1  0  0  0  0
 10 12  2  0  0  0  0
M  CHG  2   2  -1   4   1
M  END
> <PUBCHEM_COMPOUND_ID_TYPE>
0

> <PUBCHEM_TOTAL_CHARGE>
0

> <PUBCHEM_SUBSTANCE_ID>
310928740

> <PUBCHEM_SUBSTANCE_VERSION>
1

> <PUBCHEM_EXT_DATASOURCE_NAME>
11752

> <PUBCHEM_EXT_DATASOURCE_REGID>
BD248314

> <PUBCHEM_SUBSTANCE_SYNONYM>
101420-98-8
6-Chloro-5-nitro-1H-indazole

> <PUBCHEM_GENERIC_REGISTRY_NAME>
101420-98-8

> <PUBCHEM_XREF_EXT_ID>
BD248314

> <PUBCHEM_EXT_DATASOURCE_URL>
http://www.bidepharmatech.com/en/index.html

> <PUBCHEM_EXT_SUBSTANCE_URL>
http://www.bidepharmatech.com/en/goodsview_goodscode_BD248314.html

> <PUBCHEM_CID_ASSOCIATIONS>
20222068  1

> <PUBCHEM_COORDINATE_TYPE>
1
3

$$$$
