310928931
  -OEChem-07211613022D

 18 19  0     0  0  0  0  0  0999 V2000
   -1.4137    0.7219    0.0000 O   0  0  0  0  0  0  0  0  0  0  0  0
    0.3572   -1.2375    0.0000 O   0  0  0  0  0  0  0  0  0  0  0  0
   -0.3572   -2.4750    0.0000 O   0  0  0  0  0  0  0  0  0  0  0  0
   -1.0717   -1.2375    0.0000 N   0  0  0  0  0  0  0  0  0  0  0  0
   -1.0717   -0.4125    0.0000 C   0  0  0  0  0  0  0  0  0  0  0  0
   -1.0717    1.2375    0.0000 C   0  0  0  0  0  0  0  0  0  0  0  0
   -1.4137    0.1031    0.0000 C   0  0  0  0  0  0  0  0  0  0  0  0
   -1.7862   -0.0000    0.0000 C   0  0  0  0  0  0  0  0  0  0  0  0
   -0.3572   -0.0000    0.0000 C   0  0  0  0  0  0  0  0  0  0  0  0
   -1.7862    0.8250    0.0000 C   0  0  0  0  0  0  0  0  0  0  0  0
   -0.3572    0.8250    0.0000 C   0  0  0  0  0  0  0  0  0  0  0  0
   -1.0717    2.0625    0.0000 C   0  0  0  0  0  0  0  0  0  0  0  0
   -0.3572   -1.6500    0.0000 C   0  0  0  0  0  0  0  0  0  0  0  0
    1.0717   -1.6500    0.0000 C   0  0  0  0  0  0  0  0  0  0  0  0
   -0.3572    2.4750    0.0000 C   0  0  0  0  0  0  0  0  0  0  0  0
    1.7862   -2.0625    0.0000 C   0  0  0  0  0  0  0  0  0  0  0  0
    1.0717   -2.4750    0.0000 C   0  0  0  0  0  0  0  0  0  0  0  0
    1.7862   -1.2375    0.0000 C   0  0  0  0  0  0  0  0  0  0  0  0
  1  6  1  0  0  0  0
  1  7  1  0  0  0  0
  2 13  1  0  0  0  0
  2 14  1  0  0  0  0
  3 13  2  0  0  0  0
  4  5  1  0  0  0  0
  4 13  1  0  0  0  0
  5  7  1  0  0  0  0
  5  8  1  0  0  0  0
  5  9  1  0  0  0  0
  6 10  1  0  0  0  0
  6 11  1  0  0  0  0
  6 12  1  0  0  0  0
  8 10  1  0  0  0  0
  9 11  1  0  0  0  0
 12 15  2  0  0  0  0
 14 16  1  0  0  0  0
 14 17  1  0  0  0  0
 14 18  1  0  0  0  0
M  END
> <PUBCHEM_COMPOUND_ID_TYPE>
0

> <PUBCHEM_TOTAL_CHARGE>
0

> <PUBCHEM_SUBSTANCE_ID>
310928931

> <PUBCHEM_SUBSTANCE_VERSION>
1

> <PUBCHEM_EXT_DATASOURCE_NAME>
11752

> <PUBCHEM_EXT_DATASOURCE_REGID>
BD216166

> <PUBCHEM_SUBSTANCE_SYNONYM>
1416374-98-5
tert-Butyl (1-vinyl-2-oxabicyclo[2.2.2]octan-4-yl)carbamate

> <PUBCHEM_GENERIC_REGISTRY_NAME>
1416374-98-5

> <PUBCHEM_XREF_EXT_ID>
BD216166

> <PUBCHEM_EXT_DATASOURCE_URL>
http://www.bidepharmatech.com/en/index.html

> <PUBCHEM_EXT_SUBSTANCE_URL>
http://www.bidepharmatech.com/en/goodsview_goodscode_BD216166.html

> <PUBCHEM_CID_ASSOCIATIONS>
72942752  1

> <PUBCHEM_COORDINATE_TYPE>
1
3

$$$$
