310929027
  -OEChem-07211613022D

  8  7  0     0  0  0  0  0  0999 V2000
   -0.3020   -0.8250    0.0000 Cl  0  0  0  0  0  0  0  0  0  0  0  0
   -1.1270   -0.8250    0.0000 Cl  0  0  0  0  0  0  0  0  0  0  0  0
   -1.4290    0.3020    0.0000 F   0  0  0  0  0  0  0  0  0  0  0  0
    0.0000    1.1270    0.0000 O   0  0  0  0  0  0  0  0  0  0  0  0
    0.7145   -0.1106    0.0000 N   0  0  0  0  0  0  0  0  0  0  0  0
   -0.7145   -0.1106    0.0000 C   0  0  0  0  0  0  0  0  0  0  0  0
    0.0000    0.3020    0.0000 C   0  0  0  0  0  0  0  0  0  0  0  0
    1.4290    0.3020    0.0000 C   0  0  0  0  0  0  0  0  0  0  0  0
  1  6  1  0  0  0  0
  2  6  1  0  0  0  0
  3  6  1  0  0  0  0
  4  7  2  0  0  0  0
  5  7  1  0  0  0  0
  5  8  1  0  0  0  0
  6  7  1  0  0  0  0
M  END
> <PUBCHEM_COMPOUND_ID_TYPE>
0

> <PUBCHEM_TOTAL_CHARGE>
0

> <PUBCHEM_SUBSTANCE_ID>
310929027

> <PUBCHEM_SUBSTANCE_VERSION>
1

> <PUBCHEM_EXT_DATASOURCE_NAME>
4488

> <PUBCHEM_EXT_DATASOURCE_REGID>
SCHEMBL16106187

> <PUBCHEM_SUBSTANCE_COMMENT>
InChI=1S/C3H4Cl2FNO/c1-7-2(8)3(4,5)6/h1H3,(H,7,8)
InChIKey=YTMWRRQSDFZCTK-UHFFFAOYSA-N

> <PUBCHEM_SUBSTANCE_SYNONYM>
SCHEMBL16106187

> <PUBCHEM_XREF_EXT_ID>
SCHEMBL16106187

> <PUBCHEM_EXT_DATASOURCE_URL>
https://www.surechembl.org/

> <PUBCHEM_EXT_SUBSTANCE_URL>
https://www.surechembl.org/chemical/SCHEMBL16106187

> <PUBCHEM_CID_ASSOCIATIONS>
117598547  1

> <PUBCHEM_COORDINATE_TYPE>
1
3

$$$$
