310937599
  -OEChem-07211613022D

 13 15  0     0  0  0  0  0  0999 V2000
    1.4459   -1.0749    0.0000 N   0  0  0  0  0  0  0  0  0  0  0  0
    2.2009   -2.1497    0.0000 N   0  0  0  0  0  0  0  0  0  0  0  0
    3.8387   -0.6526    0.0000 N   0  0  0  0  0  0  0  0  0  0  0  0
    2.2009   -0.8446    0.0000 C   0  0  0  0  0  0  0  0  0  0  0  0
    2.7128   -1.4971    0.0000 C   0  0  0  0  0  0  0  0  0  0  0  0
    1.4459   -1.9194    0.0000 C   0  0  0  0  0  0  0  0  0  0  0  0
    2.5720   -0.0895    0.0000 C   0  0  0  0  0  0  0  0  0  0  0  0
    0.6910   -0.6526    0.0000 C   0  0  0  0  0  0  0  0  0  0  0  0
    3.5061   -1.4076    0.0000 C   0  0  0  0  0  0  0  0  0  0  0  0
    0.6910   -2.3417    0.0000 C   0  0  0  0  0  0  0  0  0  0  0  0
    3.3654    0.0000    0.0000 C   0  0  0  0  0  0  0  0  0  0  0  0
    0.0000   -1.0749    0.0000 C   0  0  0  0  0  0  0  0  0  0  0  0
    0.0000   -1.9194    0.0000 C   0  0  0  0  0  0  0  0  0  0  0  0
  1  4  1  0  0  0  0
  1  6  1  0  0  0  0
  1  8  1  0  0  0  0
  2  5  1  0  0  0  0
  2  6  2  0  0  0  0
  3  9  1  0  0  0  0
  3 11  1  0  0  0  0
  4  5  2  0  0  0  0
  4  7  1  0  0  0  0
  5  9  1  0  0  0  0
  6 10  1  0  0  0  0
  7 11  1  0  0  0  0
  8 12  2  0  0  0  0
 10 13  2  0  0  0  0
 12 13  1  0  0  0  0
M  END
> <PUBCHEM_COMPOUND_ID_TYPE>
0

> <PUBCHEM_TOTAL_CHARGE>
0

> <PUBCHEM_SUBSTANCE_ID>
310937599

> <PUBCHEM_SUBSTANCE_VERSION>
1

> <PUBCHEM_EXT_DATASOURCE_NAME>
4488

> <PUBCHEM_EXT_DATASOURCE_REGID>
SCHEMBL16115380

> <PUBCHEM_SUBSTANCE_COMMENT>
InChI=1S/C10H11N3/c1-2-6-13-9-4-5-11-7-8(9)12-10(13)3-1/h1-3,6,11H,4-5,7H2
InChIKey=CHDHFHGNWMXANM-UHFFFAOYSA-N

> <PUBCHEM_SUBSTANCE_SYNONYM>
SCHEMBL16115380

> <PUBCHEM_XREF_EXT_ID>
SCHEMBL16115380

> <PUBCHEM_EXT_DATASOURCE_URL>
https://www.surechembl.org/

> <PUBCHEM_EXT_SUBSTANCE_URL>
https://www.surechembl.org/chemical/SCHEMBL16115380

> <PUBCHEM_CID_ASSOCIATIONS>
82411596  1

> <PUBCHEM_COORDINATE_TYPE>
1
3

$$$$
