310930724
  -OEChem-07211613022D

 28 31  0     0  0  0  0  0  0999 V2000
    2.1434   -1.2375    0.0000 O   0  0  0  0  0  0  0  0  0  0  0  0
    0.7615   -2.9599    0.0000 N   0  0  0  0  0  0  0  0  0  0  0  0
    0.7145   -1.2375    0.0000 N   0  0  0  0  0  0  0  0  0  0  0  0
   -0.7846    1.0799    0.0000 N   0  0  0  0  0  0  0  0  0  0  0  0
    3.0789   -5.8880    0.0000 N   0  0  0  0  0  0  0  0  0  0  0  0
    3.4914   -5.1735    0.0000 N   0  0  0  0  0  0  0  0  0  0  0  0
    4.7289   -5.8880    0.0000 N   0  0  0  0  0  0  0  0  0  0  0  0
    4.7289   -4.4590    0.0000 N   0  0  0  0  0  0  0  0  0  0  0  0
    1.8414   -3.7445    0.0000 C   0  0  0  0  0  0  0  0  0  0  0  0
    1.0164   -3.7445    0.0000 C   0  0  0  0  0  0  0  0  0  0  0  0
    1.4289   -2.4750    0.0000 C   0  0  0  0  0  0  0  0  0  0  0  0
    2.0964   -2.9599    0.0000 C   0  0  0  0  0  0  0  0  0  0  0  0
    1.4289   -1.6500    0.0000 C   0  0  0  0  0  0  0  0  0  0  0  0
    0.0000    0.0000    0.0000 C   0  0  0  0  0  0  0  0  0  0  0  0
    0.7145   -0.4125    0.0000 C   0  0  0  0  0  0  0  0  0  0  0  0
    2.2539   -4.4590    0.0000 C   0  0  0  0  0  0  0  0  0  0  0  0
    1.8414   -5.1735    0.0000 C   0  0  0  0  0  0  0  0  0  0  0  0
    0.0000    0.8250    0.0000 C   0  0  0  0  0  0  0  0  0  0  0  0
    0.6039   -4.4590    0.0000 C   0  0  0  0  0  0  0  0  0  0  0  0
    1.0164   -5.1735    0.0000 C   0  0  0  0  0  0  0  0  0  0  0  0
    2.2539   -5.8880    0.0000 C   0  0  0  0  0  0  0  0  0  0  0  0
   -0.7846   -0.2549    0.0000 C   0  0  0  0  0  0  0  0  0  0  0  0
    1.4289    0.0000    0.0000 C   0  0  0  0  0  0  0  0  0  0  0  0
    0.7145    1.2375    0.0000 C   0  0  0  0  0  0  0  0  0  0  0  0
   -1.2695    0.4125    0.0000 C   0  0  0  0  0  0  0  0  0  0  0  0
    1.4289    0.8250    0.0000 C   0  0  0  0  0  0  0  0  0  0  0  0
    1.8414   -6.6024    0.0000 C   0  0  0  0  0  0  0  0  0  0  0  0
    4.3164   -5.1735    0.0000 C   0  0  0  0  0  0  0  0  0  0  0  0
  1 13  2  0  0  0  0
  2 10  1  0  0  0  0
  2 11  1  0  0  0  0
  3 13  1  0  0  0  0
  3 15  1  0  0  0  0
  4 18  1  0  0  0  0
  4 25  1  0  0  0  0
  5  6  1  0  0  0  0
  5 21  2  0  0  0  0
  6 28  1  0  0  0  0
  7 28  2  3  0  0  0
  8 28  1  0  0  0  0
  9 10  1  0  0  0  0
  9 12  1  0  0  0  0
  9 16  2  0  0  0  0
 10 19  2  0  0  0  0
 11 12  2  0  0  0  0
 11 13  1  0  0  0  0
 14 15  2  0  0  0  0
 14 18  1  0  0  0  0
 14 22  1  0  0  0  0
 15 23  1  0  0  0  0
 16 17  1  0  0  0  0
 17 20  2  0  0  0  0
 17 21  1  0  0  0  0
 18 24  2  0  0  0  0
 19 20  1  0  0  0  0
 21 27  1  0  0  0  0
 22 25  2  0  0  0  0
 23 26  2  0  0  0  0
 24 26  1  0  0  0  0
M  END
> <PUBCHEM_COMPOUND_ID_TYPE>
0

> <PUBCHEM_TOTAL_CHARGE>
0

> <PUBCHEM_SUBSTANCE_ID>
310930724

> <PUBCHEM_SUBSTANCE_VERSION>
1

> <PUBCHEM_EXT_DATASOURCE_NAME>
4488

> <PUBCHEM_EXT_DATASOURCE_REGID>
SCHEMBL16108021

> <PUBCHEM_SUBSTANCE_COMMENT>
InChI=1S/C20H19N7O/c1-11(26-27-20(21)22)12-5-6-15-13(9-12)10-18(24-15)19(28)25-17-4-2-3-16-14(17)7-8-23-16/h2-10,23-24H,1H3,(H,25,28)(H4,21,22,27)/b26-11-
InChIKey=CVYWAKHZNDMDKC-RAWMCFOBSA-N

> <PUBCHEM_SUBSTANCE_SYNONYM>
SCHEMBL16108021

> <PUBCHEM_XREF_EXT_ID>
SCHEMBL16108021

> <PUBCHEM_EXT_DATASOURCE_URL>
https://www.surechembl.org/

> <PUBCHEM_EXT_SUBSTANCE_URL>
https://www.surechembl.org/chemical/SCHEMBL16108021

> <PUBCHEM_CID_ASSOCIATIONS>
117599756  1

> <PUBCHEM_COORDINATE_TYPE>
1
3

$$$$
