310949855
  -OEChem-07211613022D

 42 44  0     1  0  0  0  0  0999 V2000
   -1.2465    0.3211    0.0000 P   0  0  3  0  0  0  0  0  0  0  0  0
    2.8352   -0.5578    0.0000 F   0  0  0  0  0  0  0  0  0  0  0  0
    2.0493   -1.1831    0.0000 F   0  0  0  0  0  0  0  0  0  0  0  0
    1.5930    0.8958    0.0000 O   0  0  0  0  0  0  0  0  0  0  0  0
    0.7225   -1.0394    0.0000 O   0  0  0  0  0  0  0  0  0  0  0  0
   -0.4521    0.0845    0.0000 O   0  0  0  0  0  0  0  0  0  0  0  0
    2.5986    2.0451    0.0000 O   0  0  0  0  0  0  0  0  0  0  0  0
   -1.0267    1.1071    0.0000 O   0  0  0  0  0  0  0  0  0  0  0  0
   -1.4746   -0.4732    0.0000 O   0  0  0  0  0  0  0  0  0  0  0  0
    1.8803   -1.8761    0.0000 O   0  0  0  0  0  0  0  0  0  0  0  0
   -4.0353   -0.4648    0.0000 O   0  0  0  0  0  0  0  0  0  0  0  0
   -3.6803    0.9296    0.0000 O   0  0  0  0  0  0  0  0  0  0  0  0
    3.0634    0.6929    0.0000 N   0  0  0  0  0  0  0  0  0  0  0  0
    4.0268    1.7662    0.0000 N   0  0  0  0  0  0  0  0  0  0  0  0
   -2.0577    0.5240    0.0000 N   0  0  0  0  0  0  0  0  0  0  0  0
    5.4465    1.4873    0.0000 N   0  0  0  0  0  0  0  0  0  0  0  0
   -0.2240   -2.4001    0.0000 N   0  0  0  0  0  0  0  0  0  0  0  0
    2.0239   -0.3465    0.0000 C   0  0  0  0  0  0  0  0  0  0  0  0
    2.2775    0.4479    0.0000 C   0  0  3  0  0  0  0  0  0  0  0  0
    1.1958   -0.3465    0.0000 C   0  0  3  0  0  0  0  0  0  0  0  0
    0.9423    0.4310    0.0000 C   0  0  3  0  0  0  0  0  0  0  0  0
    3.2577    1.5127    0.0000 C   0  0  0  0  0  0  0  0  0  0  0  0
    0.1479    0.6507    0.0000 C   0  0  0  0  0  0  0  0  0  0  0  0
    3.7225    0.1775    0.0000 C   0  0  0  0  0  0  0  0  0  0  0  0
    1.0437   -1.7747    0.0000 C   0  0  0  0  0  0  0  0  0  0  0  0
    4.4662    0.4395    0.0000 C   0  0  0  0  0  0  0  0  0  0  0  0
    4.6521    1.2422    0.0000 C   0  0  0  0  0  0  0  0  0  0  0  0
    0.5874   -2.4591    0.0000 C   0  0  0  0  0  0  0  0  0  0  0  0
   -1.6183    1.7155    0.0000 C   0  0  0  0  0  0  0  0  0  0  0  0
   -2.6493   -0.0507    0.0000 C   0  0  3  0  0  0  0  0  0  0  0  0
   -3.4775    0.1183    0.0000 C   0  0  0  0  0  0  0  0  0  0  0  0
   -1.3901    2.5099    0.0000 C   0  0  0  0  0  0  0  0  0  0  0  0
   -2.3789    1.5042    0.0000 C   0  0  0  0  0  0  0  0  0  0  0  0
   -2.4296   -0.8704    0.0000 C   0  0  0  0  0  0  0  0  0  0  0  0
   -1.9479    3.0930    0.0000 C   0  0  0  0  0  0  0  0  0  0  0  0
   -2.9704    2.0957    0.0000 C   0  0  0  0  0  0  0  0  0  0  0  0
   -0.6127   -1.6817    0.0000 C   0  0  0  0  0  0  0  0  0  0  0  0
   -0.6719   -3.0930    0.0000 C   0  0  0  0  0  0  0  0  0  0  0  0
   -2.7507    2.8902    0.0000 C   0  0  0  0  0  0  0  0  0  0  0  0
   -4.8549   -0.2451    0.0000 C   0  0  0  0  0  0  0  0  0  0  0  0
   -5.0831    0.5324    0.0000 C   0  0  0  0  0  0  0  0  0  0  0  0
   -5.4465   -0.8620    0.0000 C   0  0  0  0  0  0  0  0  0  0  0  0
  1  6  1  0  0  0  0
  1  8  1  0  0  0  0
  1  9  2  0  0  0  0
  1 15  1  0  0  0  0
  2 18  1  0  0  0  0
  3 18  1  0  0  0  0
 19  4  1  1  0  0  0
  4 21  1  0  0  0  0
 20  5  1  6  0  0  0
  5 25  1  0  0  0  0
  6 23  1  0  0  0  0
  7 22  2  0  0  0  0
  8 29  1  0  0  0  0
 10 25  2  0  0  0  0
 11 31  1  0  0  0  0
 11 40  1  0  0  0  0
 12 31  2  0  0  0  0
 13 19  1  0  0  0  0
 13 22  1  0  0  0  0
 13 24  1  0  0  0  0
 14 22  1  0  0  0  0
 14 27  2  0  0  0  0
 15 30  1  0  0  0  0
 16 27  1  0  0  0  0
 17 28  1  0  0  0  0
 17 37  1  0  0  0  0
 17 38  1  0  0  0  0
 18 19  1  0  0  0  0
 18 20  1  0  0  0  0
 20 21  1  0  0  0  0
 21 23  1  1  0  0  0
 24 26  2  0  0  0  0
 25 28  1  0  0  0  0
 26 27  1  0  0  0  0
 29 32  2  0  0  0  0
 29 33  1  0  0  0  0
 30 31  1  0  0  0  0
 30 34  1  1  0  0  0
 32 35  1  0  0  0  0
 33 36  2  0  0  0  0
 35 39  2  0  0  0  0
 36 39  1  0  0  0  0
 40 41  1  0  0  0  0
 40 42  1  0  0  0  0
M  END
> <PUBCHEM_COMPOUND_ID_TYPE>
0

> <PUBCHEM_TOTAL_CHARGE>
0

> <PUBCHEM_SUBSTANCE_ID>
310949855

> <PUBCHEM_SUBSTANCE_VERSION>
1

> <PUBCHEM_EXT_DATASOURCE_NAME>
4488

> <PUBCHEM_EXT_DATASOURCE_REGID>
SCHEMBL16128059

> <PUBCHEM_SUBSTANCE_COMMENT>
InChI=1S/C25H34F2N5O9P/c1-15(2)38-22(34)16(3)30-42(36,41-17-9-7-6-8-10-17)37-14-18-21(40-20(33)13-31(4)5)25(26,27)23(39-18)32-12-11-19(28)29-24(32)35/h6-12,15-16,18,21,23H,13-14H2,1-5H3,(H,30,36)(H2,28,29,35)/t16-,18+,21+,23+,42?/m0/s1
InChIKey=OIHXSHVGRRSUSI-XLPXTMBUSA-N

> <PUBCHEM_SUBSTANCE_SYNONYM>
SCHEMBL16128059

> <PUBCHEM_XREF_EXT_ID>
SCHEMBL16128059

> <PUBCHEM_EXT_DATASOURCE_URL>
https://www.surechembl.org/

> <PUBCHEM_EXT_SUBSTANCE_URL>
https://www.surechembl.org/chemical/SCHEMBL16128059

> <PUBCHEM_CID_ASSOCIATIONS>
86269121  1

> <PUBCHEM_COORDINATE_TYPE>
1
3

> <PUBCHEM_BONDANNOTATIONS>
21  23  5
30  34  5
19  4  5
20  5  6

$$$$
