310929054
  -OEChem-07211613022D

 48 53  0     0  0  0  0  0  0999 V2000
    3.5358   -7.7198    0.0000 O   0  0  0  0  0  0  0  0  0  0  0  0
    0.7072   -5.2447    0.0000 O   0  0  0  0  0  0  0  0  0  0  0  0
    4.9501   -7.7198    0.0000 O   0  0  0  0  0  0  0  0  0  0  0  0
    1.4143   -9.7234    0.0000 O   0  0  0  0  0  0  0  0  0  0  0  0
    7.4251   -7.9555    0.0000 O   0  0  0  0  0  0  0  0  0  0  0  0
    2.1214   -8.5448    0.0000 N   0  0  0  0  0  0  0  0  0  0  0  0
    0.7072   -8.5448    0.0000 N   0  0  0  0  0  0  0  0  0  0  0  0
    5.6572   -8.8983    0.0000 N   0  0  0  0  0  0  0  0  0  0  0  0
    2.8875   -4.0661    0.0000 N   0  0  0  0  0  0  0  0  0  0  0  0
    2.2393   -2.8286    0.0000 N   0  0  0  0  0  0  0  0  0  0  0  0
    2.2983   -1.1786    0.0000 N   0  0  0  0  0  0  0  0  0  0  0  0
    4.2429   -8.8983    0.0000 C   0  0  0  0  0  0  0  0  0  0  0  0
    3.5358   -8.5448    0.0000 C   0  0  0  0  0  0  0  0  0  0  0  0
    2.8286   -8.8983    0.0000 C   0  0  0  0  0  0  0  0  0  0  0  0
    3.5358  -10.1358    0.0000 C   0  0  0  0  0  0  0  0  0  0  0  0
    1.3554   -7.3072    0.0000 C   0  0  0  0  0  0  0  0  0  0  0  0
    1.4143   -6.4822    0.0000 C   0  0  0  0  0  0  0  0  0  0  0  0
    4.2429   -9.7234    0.0000 C   0  0  0  0  0  0  0  0  0  0  0  0
    0.7072   -7.7198    0.0000 C   0  0  0  0  0  0  0  0  0  0  0  0
    2.8286   -9.7234    0.0000 C   0  0  0  0  0  0  0  0  0  0  0  0
    3.5358  -10.9608    0.0000 C   0  0  0  0  0  0  0  0  0  0  0  0
    0.7072   -6.0697    0.0000 C   0  0  0  0  0  0  0  0  0  0  0  0
    4.9501   -8.5448    0.0000 C   0  0  0  0  0  0  0  0  0  0  0  0
    1.4143   -8.8983    0.0000 C   0  0  0  0  0  0  0  0  0  0  0  0
    0.0000   -7.3072    0.0000 C   0  0  0  0  0  0  0  0  0  0  0  0
    0.0000   -6.4822    0.0000 C   0  0  0  0  0  0  0  0  0  0  0  0
    2.1214   -7.7198    0.0000 C   0  0  0  0  0  0  0  0  0  0  0  0
    2.1214   -6.0697    0.0000 C   0  0  0  0  0  0  0  0  0  0  0  0
    1.4143   -4.8322    0.0000 C   0  0  0  0  0  0  0  0  0  0  0  0
    6.3644   -8.5448    0.0000 C   0  0  0  0  0  0  0  0  0  0  0  0
    3.0054   -7.4840    0.0000 C   0  0  0  0  0  0  0  0  0  0  0  0
    2.8286   -6.4822    0.0000 C   0  0  0  0  0  0  0  0  0  0  0  0
    2.7107  -10.9608    0.0000 C   0  0  0  0  0  0  0  0  0  0  0  0
    3.5358  -11.7859    0.0000 C   0  0  0  0  0  0  0  0  0  0  0  0
    4.3608  -10.9608    0.0000 C   0  0  0  0  0  0  0  0  0  0  0  0
    1.4143   -4.0072    0.0000 C   0  0  0  0  0  0  0  0  0  0  0  0
    7.1894   -8.7216    0.0000 C   0  0  0  0  0  0  0  0  0  0  0  0
    6.6001   -7.7198    0.0000 C   0  0  0  0  0  0  0  0  0  0  0  0
    2.1214   -5.2447    0.0000 C   0  0  0  0  0  0  0  0  0  0  0  0
    2.1804   -3.6536    0.0000 C   0  0  0  0  0  0  0  0  0  0  0  0
    2.8286   -7.3072    0.0000 C   0  0  0  0  0  0  0  0  0  0  0  0
    2.8875   -4.8911    0.0000 C   0  0  0  0  0  0  0  0  0  0  0  0
    2.9464   -2.4161    0.0000 C   0  0  0  0  0  0  0  0  0  0  0  0
    2.9464   -1.5911    0.0000 C   0  0  0  0  0  0  0  0  0  0  0  0
    3.7125   -1.2375    0.0000 C   0  0  0  0  0  0  0  0  0  0  0  0
    2.2983   -0.3536    0.0000 C   0  0  0  0  0  0  0  0  0  0  0  0
    3.7125   -0.4125    0.0000 C   0  0  0  0  0  0  0  0  0  0  0  0
    3.0054    0.0000    0.0000 C   0  0  0  0  0  0  0  0  0  0  0  0
  1 13  1  0  0  0  0
  1 41  1  0  0  0  0
  2 22  1  0  0  0  0
  2 29  1  0  0  0  0
  3 23  2  0  0  0  0
  4 24  2  0  0  0  0
  5 37  1  0  0  0  0
  5 38  1  0  0  0  0
  6 14  1  0  0  0  0
  6 24  1  0  0  0  0
  7 19  1  0  0  0  0
  7 24  1  0  0  0  0
  8 23  1  0  0  0  0
  8 30  1  0  0  0  0
  9 40  1  0  0  0  0
  9 42  2  0  0  0  0
 10 40  1  0  0  0  0
 10 43  1  0  0  0  0
 11 44  1  0  0  0  0
 11 46  2  0  0  0  0
 12 13  2  0  0  0  0
 12 18  1  0  0  0  0
 12 23  1  0  0  0  0
 13 14  1  0  0  0  0
 14 20  2  0  0  0  0
 15 18  2  0  0  0  0
 15 20  1  0  0  0  0
 15 21  1  0  0  0  0
 16 17  2  0  0  0  0
 16 19  1  0  0  0  0
 16 27  1  0  0  0  0
 17 22  1  0  0  0  0
 17 28  1  0  0  0  0
 19 25  2  0  0  0  0
 21 33  1  0  0  0  0
 21 34  1  0  0  0  0
 21 35  1  0  0  0  0
 22 26  2  0  0  0  0
 25 26  1  0  0  0  0
 27 31  2  0  0  0  0
 28 32  2  0  0  0  0
 29 36  1  0  0  0  0
 29 39  2  0  0  0  0
 30 37  1  0  0  0  0
 30 38  1  0  0  0  0
 31 32  1  0  0  0  0
 36 40  2  0  0  0  0
 39 42  1  0  0  0  0
 43 44  1  0  0  0  0
 44 45  2  0  0  0  0
 45 47  1  0  0  0  0
 46 48  1  0  0  0  0
 47 48  2  0  0  0  0
M  END
> <PUBCHEM_COMPOUND_ID_TYPE>
0

> <PUBCHEM_TOTAL_CHARGE>
0

> <PUBCHEM_SUBSTANCE_ID>
310929054

> <PUBCHEM_SUBSTANCE_VERSION>
1

> <PUBCHEM_EXT_DATASOURCE_NAME>
4488

> <PUBCHEM_EXT_DATASOURCE_REGID>
SCHEMBL16106216

> <PUBCHEM_SUBSTANCE_COMMENT>
InChI=1S/C37H38N6O5/c1-37(2,3)23-17-29(35(44)41-25-21-47-22-25)34(46-4)31(18-23)43-36(45)42-30-12-13-32(28-11-6-5-10-27(28)30)48-26-14-16-39-33(19-26)40-20-24-9-7-8-15-38-24/h5-19,25H,20-22H2,1-4H3,(H,39,40)(H,41,44)(H2,42,43,45)
InChIKey=NVHXKPSEDLLPHV-UHFFFAOYSA-N

> <PUBCHEM_SUBSTANCE_SYNONYM>
SCHEMBL16106216

> <PUBCHEM_XREF_EXT_ID>
SCHEMBL16106216

> <PUBCHEM_EXT_DATASOURCE_URL>
https://www.surechembl.org/

> <PUBCHEM_EXT_SUBSTANCE_URL>
https://www.surechembl.org/chemical/SCHEMBL16106216

> <PUBCHEM_CID_ASSOCIATIONS>
86273310  1

> <PUBCHEM_COORDINATE_TYPE>
1
3

$$$$
