310941170
  -OEChem-07211613022D

 45 49  0     1  0  0  0  0  0999 V2000
    3.7488    2.4497    0.0000 S   0  0  0  0  0  0  0  0  0  0  0  0
    5.3226   -1.4402    0.0000 O   0  0  0  0  0  0  0  0  0  0  0  0
    4.1794    0.5345    0.0000 O   0  0  0  0  0  0  0  0  0  0  0  0
    4.1645    3.1772    0.0000 O   0  0  0  0  0  0  0  0  0  0  0  0
    3.3331    3.1772    0.0000 O   0  0  0  0  0  0  0  0  0  0  0  0
    1.5812   -1.3065    0.0000 O   0  0  0  0  0  0  0  0  0  0  0  0
   -0.5716    0.7869    0.0000 O   0  0  0  0  0  0  0  0  0  0  0  0
   -2.7392   -1.3065    0.0000 O   0  0  0  0  0  0  0  0  0  0  0  0
   -5.6195   -1.3065    0.0000 O   0  0  0  0  0  0  0  0  0  0  0  0
    2.3087   -0.0445    0.0000 N   0  0  0  0  0  0  0  0  0  0  0  0
    4.4614    2.0340    0.0000 N   0  0  0  0  0  0  0  0  0  0  0  0
    0.1411   -0.4602    0.0000 N   0  0  0  0  0  0  0  0  0  0  0  0
   -2.0117   -0.0445    0.0000 N   0  0  0  0  0  0  0  0  0  0  0  0
   -4.1794   -0.4602    0.0000 N   0  0  0  0  0  0  0  0  0  0  0  0
    4.9217   -0.6978    0.0000 C   0  0  3  0  0  0  0  0  0  0  0  0
    4.1200   -0.2969    0.0000 C   0  0  0  0  0  0  0  0  0  0  0  0
    4.5208   -1.4104    0.0000 C   0  0  0  0  0  0  0  0  0  0  0  0
    3.4816   -0.6830    0.0000 C   0  0  3  0  0  0  0  0  0  0  0  0
    3.0362    2.0637    0.0000 C   0  0  0  0  0  0  0  0  0  0  0  0
    3.0362    1.2471    0.0000 C   0  0  0  0  0  0  0  0  0  0  0  0
    5.6195   -0.2821    0.0000 C   0  0  0  0  0  0  0  0  0  0  0  0
    1.5960    1.2322    0.0000 C   0  0  0  0  0  0  0  0  0  0  0  0
    2.3235    0.8165    0.0000 C   0  0  0  0  0  0  0  0  0  0  0  0
    1.5960   -0.4157    0.0000 C   0  0  0  0  0  0  0  0  0  0  0  0
    0.8537   -0.0149    0.0000 C   0  0  3  0  0  0  0  0  0  0  0  0
    2.2938    2.4646    0.0000 C   0  0  0  0  0  0  0  0  0  0  0  0
    3.4964   -1.7667    0.0000 C   0  0  0  0  0  0  0  0  0  0  0  0
    3.7637    0.8165    0.0000 C   0  0  0  0  0  0  0  0  0  0  0  0
    0.8834    0.8165    0.0000 C   0  0  0  0  0  0  0  0  0  0  0  0
    1.6109    2.0785    0.0000 C   0  0  0  0  0  0  0  0  0  0  0  0
    4.4763    1.2322    0.0000 C   0  0  0  0  0  0  0  0  0  0  0  0
    2.7392   -2.1824    0.0000 C   0  0  0  0  0  0  0  0  0  0  0  0
   -0.5864   -0.0445    0.0000 C   0  0  0  0  0  0  0  0  0  0  0  0
    1.9821   -1.8707    0.0000 C   0  0  0  0  0  0  0  0  0  0  0  0
    2.6502   -3.0139    0.0000 C   0  0  0  0  0  0  0  0  0  0  0  0
   -1.2842   -0.4306    0.0000 C   0  0  3  0  0  0  0  0  0  0  0  0
    1.4476   -2.4794    0.0000 C   0  0  0  0  0  0  0  0  0  0  0  0
    1.8484   -3.1772    0.0000 C   0  0  0  0  0  0  0  0  0  0  0  0
   -2.7244   -0.4157    0.0000 C   0  0  0  0  0  0  0  0  0  0  0  0
   -1.2842   -1.2471    0.0000 C   0  0  0  0  0  0  0  0  0  0  0  0
   -3.4816   -0.0297    0.0000 C   0  0  0  0  0  0  0  0  0  0  0  0
   -4.1645   -1.2768    0.0000 C   0  0  0  0  0  0  0  0  0  0  0  0
   -4.9217   -0.0297    0.0000 C   0  0  0  0  0  0  0  0  0  0  0  0
   -4.8623   -1.6777    0.0000 C   0  0  0  0  0  0  0  0  0  0  0  0
   -5.5898   -0.4306    0.0000 C   0  0  0  0  0  0  0  0  0  0  0  0
  1  4  2  0  0  0  0
  1  5  2  0  0  0  0
  1 11  1  0  0  0  0
  1 19  1  0  0  0  0
  2 15  1  0  0  0  0
  2 17  1  0  0  0  0
  3 16  2  0  0  0  0
  6 24  2  0  0  0  0
  7 33  2  0  0  0  0
  8 39  2  0  0  0  0
  9 44  1  0  0  0  0
  9 45  1  0  0  0  0
 18 10  1  6  0  0  0
 10 24  1  0  0  0  0
 11 31  1  0  0  0  0
 25 12  1  1  0  0  0
 12 33  1  0  0  0  0
 13 36  1  0  0  0  0
 13 39  1  0  0  0  0
 14 41  1  0  0  0  0
 14 42  1  0  0  0  0
 14 43  1  0  0  0  0
 15 16  1  6  0  0  0
 15 17  1  0  0  0  0
 15 21  1  1  0  0  0
 16 18  1  0  0  0  0
 18 27  1  0  0  0  0
 19 20  1  0  0  0  0
 19 26  2  0  0  0  0
 20 23  2  0  0  0  0
 20 28  1  0  0  0  0
 22 23  1  0  0  0  0
 22 29  1  0  0  0  0
 22 30  2  0  0  0  0
 24 25  1  0  0  0  0
 25 29  1  0  0  0  0
 26 30  1  0  0  0  0
 27 32  1  0  0  0  0
 28 31  1  0  0  0  0
 32 34  1  0  0  0  0
 32 35  1  0  0  0  0
 33 36  1  0  0  0  0
 34 37  1  0  0  0  0
 35 38  1  0  0  0  0
 36 40  1  6  0  0  0
 37 38  1  0  0  0  0
 39 41  1  0  0  0  0
 42 44  1  0  0  0  0
 43 45  1  0  0  0  0
M  END
> <PUBCHEM_COMPOUND_ID_TYPE>
0

> <PUBCHEM_TOTAL_CHARGE>
0

> <PUBCHEM_SUBSTANCE_ID>
310941170

> <PUBCHEM_SUBSTANCE_VERSION>
1

> <PUBCHEM_EXT_DATASOURCE_NAME>
4488

> <PUBCHEM_EXT_DATASOURCE_REGID>
SCHEMBL16119130

> <PUBCHEM_SUBSTANCE_COMMENT>
InChI=1S/C31H45N5O8S/c1-20(33-27(37)18-36-11-13-43-14-12-36)29(39)35-25(17-22-7-8-26-23(15-22)9-10-32-45(26,41)42)30(40)34-24(16-21-5-3-4-6-21)28(38)31(2)19-44-31/h7-8,15,20-21,24-25,32H,3-6,9-14,16-19H2,1-2H3,(H,33,37)(H,34,40)(H,35,39)/t20-,24-,25-,31+/m0/s1
InChIKey=AVCUNXPNQKRPHH-QXLKWZLXSA-N

> <PUBCHEM_SUBSTANCE_SYNONYM>
SCHEMBL16119130

> <PUBCHEM_XREF_EXT_ID>
SCHEMBL16119130

> <PUBCHEM_EXT_DATASOURCE_URL>
https://www.surechembl.org/

> <PUBCHEM_EXT_SUBSTANCE_URL>
https://www.surechembl.org/chemical/SCHEMBL16119130

> <PUBCHEM_CID_ASSOCIATIONS>
117608045  1

> <PUBCHEM_COORDINATE_TYPE>
1
3

> <PUBCHEM_BONDANNOTATIONS>
18  10  6
25  12  5
15  16  6
15  21  5
36  40  6

$$$$
