310942512
  -OEChem-07211613022D

 51 56  0     1  0  0  0  0  0999 V2000
   -5.0286    0.2554    0.0000 F   0  0  0  0  0  0  0  0  0  0  0  0
   -5.0286   -3.0446    0.0000 F   0  0  0  0  0  0  0  0  0  0  0  0
   -2.4161   -1.7875    0.0000 O   0  0  0  0  0  0  0  0  0  0  0  0
   -0.0589    1.6303    0.0000 O   0  0  0  0  0  0  0  0  0  0  0  0
   -1.6697   -3.2411    0.0000 O   0  0  0  0  0  0  0  0  0  0  0  0
    1.5714   -0.4125    0.0000 O   0  0  0  0  0  0  0  0  0  0  0  0
    5.7357   -1.3357    0.0000 O   0  0  0  0  0  0  0  0  0  0  0  0
    3.6732    0.7268    0.0000 O   0  0  0  0  0  0  0  0  0  0  0  0
   -2.7107    0.4321    0.0000 N   0  0  0  0  0  0  0  0  0  0  0  0
   -1.1393   -1.1393    0.0000 N   0  0  0  0  0  0  0  0  0  0  0  0
   -2.8482   -0.9036    0.0000 N   0  0  0  0  0  0  0  0  0  0  0  0
    0.8643   -3.0840    0.0000 N   0  0  0  0  0  0  0  0  0  0  0  0
    2.5928   -1.4143    0.0000 N   0  0  0  0  0  0  0  0  0  0  0  0
    4.5572   -0.4715    0.0000 N   0  0  0  0  0  0  0  0  0  0  0  0
   -2.2982   -0.2554    0.0000 C   0  0  0  0  0  0  0  0  0  0  0  0
   -1.4732   -0.3732    0.0000 C   0  0  3  0  0  0  0  0  0  0  0  0
   -3.6143   -0.5500    0.0000 C   0  0  0  0  0  0  0  0  0  0  0  0
   -0.9036    0.2161    0.0000 C   0  0  0  0  0  0  0  0  0  0  0  0
   -3.4964    0.2750    0.0000 C   0  0  0  0  0  0  0  0  0  0  0  0
   -4.3214   -0.9822    0.0000 C   0  0  0  0  0  0  0  0  0  0  0  0
   -1.5714   -1.8072    0.0000 C   0  0  0  0  0  0  0  0  0  0  0  0
   -0.2946   -1.1393    0.0000 C   0  0  0  0  0  0  0  0  0  0  0  0
   -2.2982    1.1393    0.0000 C   0  0  0  0  0  0  0  0  0  0  0  0
    0.3732   -1.8072    0.0000 C   0  0  3  0  0  0  0  0  0  0  0  0
   -5.0483   -0.5696    0.0000 C   0  0  0  0  0  0  0  0  0  0  0  0
    1.1982   -1.7875    0.0000 C   0  0  3  0  0  0  0  0  0  0  0  0
   -1.2965    0.9232    0.0000 C   0  0  0  0  0  0  0  0  0  0  0  0
   -0.0589    0.2161    0.0000 C   0  0  0  0  0  0  0  0  0  0  0  0
   -4.3214   -1.8072    0.0000 C   0  0  0  0  0  0  0  0  0  0  0  0
   -2.7107    1.8464    0.0000 C   0  0  0  0  0  0  0  0  0  0  0  0
   -1.2179   -2.5339    0.0000 C   0  0  3  0  0  0  0  0  0  0  0  0
    0.1768   -2.6322    0.0000 C   0  0  0  0  0  0  0  0  0  0  0  0
   -5.0483   -2.2001    0.0000 C   0  0  0  0  0  0  0  0  0  0  0  0
   -5.7357   -0.9822    0.0000 C   0  0  0  0  0  0  0  0  0  0  0  0
    1.8464   -1.1786    0.0000 C   0  0  0  0  0  0  0  0  0  0  0  0
    1.4929   -2.5536    0.0000 C   0  0  0  0  0  0  0  0  0  0  0  0
   -0.8839    1.6303    0.0000 C   0  0  0  0  0  0  0  0  0  0  0  0
    0.3535    0.9428    0.0000 C   0  0  0  0  0  0  0  0  0  0  0  0
   -5.7357   -1.8072    0.0000 C   0  0  0  0  0  0  0  0  0  0  0  0
   -2.5143    2.6714    0.0000 C   0  0  0  0  0  0  0  0  0  0  0  0
   -3.5161    1.6697    0.0000 C   0  0  0  0  0  0  0  0  0  0  0  0
   -0.3929   -2.5928    0.0000 C   0  0  0  0  0  0  0  0  0  0  0  0
   -3.0840    3.2411    0.0000 C   0  0  0  0  0  0  0  0  0  0  0  0
   -4.0661    2.2393    0.0000 C   0  0  0  0  0  0  0  0  0  0  0  0
    3.1625   -0.8447    0.0000 C   0  0  0  0  0  0  0  0  0  0  0  0
   -3.8696    3.0251    0.0000 C   0  0  0  0  0  0  0  0  0  0  0  0
    5.3429   -0.5696    0.0000 C   0  0  0  0  0  0  0  0  0  0  0  0
    4.4393    0.3535    0.0000 C   0  0  0  0  0  0  0  0  0  0  0  0
    3.9679   -1.0411    0.0000 C   0  0  0  0  0  0  0  0  0  0  0  0
    5.7357    0.1572    0.0000 C   0  0  0  0  0  0  0  0  0  0  0  0
    5.1464    0.7268    0.0000 C   0  0  0  0  0  0  0  0  0  0  0  0
  1 25  1  0  0  0  0
  2 33  1  0  0  0  0
  3 21  2  0  0  0  0
  4 37  1  0  0  0  0
  4 38  1  0  0  0  0
 31  5  1  6  0  0  0
  6 35  2  0  0  0  0
  7 47  2  0  0  0  0
  8 48  2  0  0  0  0
  9 15  1  0  0  0  0
  9 19  1  0  0  0  0
  9 23  1  0  0  0  0
 16 10  1  1  0  0  0
 10 21  1  0  0  0  0
 10 22  1  0  0  0  0
 11 15  2  0  0  0  0
 11 17  1  0  0  0  0
 12 32  1  0  0  0  0
 12 36  1  0  0  0  0
 13 35  1  0  0  0  0
 13 45  1  0  0  0  0
 14 47  1  0  0  0  0
 14 48  1  0  0  0  0
 14 49  1  0  0  0  0
 15 16  1  0  0  0  0
 16 18  1  0  0  0  0
 17 19  2  0  0  0  0
 17 20  1  0  0  0  0
 18 27  1  0  0  0  0
 18 28  1  0  0  0  0
 20 25  2  0  0  0  0
 20 29  1  0  0  0  0
 21 31  1  0  0  0  0
 24 22  1  1  0  0  0
 23 30  1  0  0  0  0
 24 26  1  0  0  0  0
 24 32  1  0  0  0  0
 25 34  1  0  0  0  0
 26 35  1  6  0  0  0
 26 36  1  0  0  0  0
 27 37  1  0  0  0  0
 28 38  1  0  0  0  0
 29 33  2  0  0  0  0
 30 40  2  0  0  0  0
 30 41  1  0  0  0  0
 31 42  1  0  0  0  0
 33 39  1  0  0  0  0
 34 39  2  0  0  0  0
 40 43  1  0  0  0  0
 41 44  2  0  0  0  0
 43 46  2  0  0  0  0
 44 46  1  0  0  0  0
 45 49  1  0  0  0  0
 47 50  1  0  0  0  0
 48 51  1  0  0  0  0
 50 51  2  0  0  0  0
M  END
> <PUBCHEM_COMPOUND_ID_TYPE>
0

> <PUBCHEM_TOTAL_CHARGE>
0

> <PUBCHEM_SUBSTANCE_ID>
310942512

> <PUBCHEM_SUBSTANCE_VERSION>
1

> <PUBCHEM_EXT_DATASOURCE_NAME>
4488

> <PUBCHEM_EXT_DATASOURCE_REGID>
SCHEMBL16120548

> <PUBCHEM_SUBSTANCE_COMMENT>
InChI=1S/C37H42F2N6O6/c1-23(46)37(50)45(21-26-18-40-19-29(26)36(49)41-13-14-44-32(47)9-10-33(44)48)34(25-11-15-51-16-12-25)35-42-31(28-17-27(38)7-8-30(28)39)22-43(35)20-24-5-3-2-4-6-24/h2-10,17,22-23,25-26,29,34,40,46H,11-16,18-21H2,1H3,(H,41,49)/t23-,26-,29+,34+/m0/s1
InChIKey=FCLFEYPLXOKUMJ-BFOSHTOBSA-N

> <PUBCHEM_SUBSTANCE_SYNONYM>
SCHEMBL16120548

> <PUBCHEM_XREF_EXT_ID>
SCHEMBL16120548

> <PUBCHEM_EXT_DATASOURCE_URL>
https://www.surechembl.org/

> <PUBCHEM_EXT_SUBSTANCE_URL>
https://www.surechembl.org/chemical/SCHEMBL16120548

> <PUBCHEM_CID_ASSOCIATIONS>
117609079  1

> <PUBCHEM_COORDINATE_TYPE>
1
3

> <PUBCHEM_BONDANNOTATIONS>
16  10  5
24  22  5
26  35  6
31  5  6

$$$$
