310946109
  -OEChem-07211613022D

 39 46  0     0  0  0  0  0  0999 V2000
    1.0449    0.2949    0.0000 S   0  0  0  0  0  0  0  0  0  0  0  0
    0.0623   -1.2042    0.0000 N   0  0  0  0  0  0  0  0  0  0  0  0
   -2.3947   -2.8047    0.0000 C   0  0  0  0  0  0  0  0  0  0  0  0
   -1.5877   -2.6332    0.0000 C   0  0  0  0  0  0  0  0  0  0  0  0
   -1.1752   -3.3476    0.0000 C   0  0  0  0  0  0  0  0  0  0  0  0
   -2.4809   -3.6252    0.0000 C   0  0  0  0  0  0  0  0  0  0  0  0
   -1.7272   -3.9607    0.0000 C   0  0  0  0  0  0  0  0  0  0  0  0
   -0.3502   -1.9187    0.0000 C   0  0  0  0  0  0  0  0  0  0  0  0
    0.8873   -1.2042    0.0000 C   0  0  0  0  0  0  0  0  0  0  0  0
    1.2998   -0.4897    0.0000 C   0  0  0  0  0  0  0  0  0  0  0  0
   -1.1752   -1.9187    0.0000 C   0  0  0  0  0  0  0  0  0  0  0  0
    2.1248   -0.4897    0.0000 C   0  0  0  0  0  0  0  0  0  0  0  0
   -0.3502   -0.4897    0.0000 C   0  0  0  0  0  0  0  0  0  0  0  0
   -0.3502   -3.3476    0.0000 C   0  0  0  0  0  0  0  0  0  0  0  0
    2.3797    0.2949    0.0000 C   0  0  0  0  0  0  0  0  0  0  0  0
    0.0623   -2.6332    0.0000 C   0  0  0  0  0  0  0  0  0  0  0  0
    1.7123    0.7798    0.0000 C   0  0  0  0  0  0  0  0  0  0  0  0
   -1.1752   -0.4897    0.0000 C   0  0  0  0  0  0  0  0  0  0  0  0
   -3.1483   -4.1101    0.0000 C   0  0  0  0  0  0  0  0  0  0  0  0
   -1.6410   -4.7812    0.0000 C   0  0  0  0  0  0  0  0  0  0  0  0
    1.2998   -1.9187    0.0000 C   0  0  0  0  0  0  0  0  0  0  0  0
   -3.2197   -2.8047    0.0000 C   0  0  0  0  0  0  0  0  0  0  0  0
   -2.8072   -2.0902    0.0000 C   0  0  0  0  0  0  0  0  0  0  0  0
    2.5373   -1.2042    0.0000 C   0  0  0  0  0  0  0  0  0  0  0  0
   -1.5877    0.2247    0.0000 C   0  0  0  0  0  0  0  0  0  0  0  0
    0.0623    0.2247    0.0000 C   0  0  0  0  0  0  0  0  0  0  0  0
    2.1248   -1.9187    0.0000 C   0  0  0  0  0  0  0  0  0  0  0  0
    3.1334    0.6304    0.0000 C   0  0  0  0  0  0  0  0  0  0  0  0
   -3.0621   -4.9306    0.0000 C   0  0  0  0  0  0  0  0  0  0  0  0
   -2.3084   -5.2661    0.0000 C   0  0  0  0  0  0  0  0  0  0  0  0
    1.7985    1.6003    0.0000 C   0  0  0  0  0  0  0  0  0  0  0  0
   -1.5877   -1.2042    0.0000 C   0  0  0  0  0  0  0  0  0  0  0  0
   -1.1752    0.9392    0.0000 C   0  0  0  0  0  0  0  0  0  0  0  0
   -0.3502    0.9392    0.0000 C   0  0  0  0  0  0  0  0  0  0  0  0
    3.2197    1.4509    0.0000 C   0  0  0  0  0  0  0  0  0  0  0  0
   -2.4127    0.2247    0.0000 C   0  0  0  0  0  0  0  0  0  0  0  0
    2.5522    1.9358    0.0000 C   0  0  0  0  0  0  0  0  0  0  0  0
   -2.4127   -1.2042    0.0000 C   0  0  0  0  0  0  0  0  0  0  0  0
   -2.8252   -0.4897    0.0000 C   0  0  0  0  0  0  0  0  0  0  0  0
  1 10  1  0  0  0  0
  1 17  1  0  0  0  0
  2  8  1  0  0  0  0
  2  9  1  0  0  0  0
  2 13  1  0  0  0  0
  3  4  1  0  0  0  0
  3  6  1  0  0  0  0
  3 22  1  0  0  0  0
  3 23  1  0  0  0  0
  4  5  2  0  0  0  0
  4 11  1  0  0  0  0
  5  7  1  0  0  0  0
  5 14  1  0  0  0  0
  6  7  2  0  0  0  0
  6 19  1  0  0  0  0
  7 20  1  0  0  0  0
  8 11  2  0  0  0  0
  8 16  1  0  0  0  0
  9 10  1  0  0  0  0
  9 21  2  0  0  0  0
 10 12  2  0  0  0  0
 12 15  1  0  0  0  0
 12 24  1  0  0  0  0
 13 18  1  0  0  0  0
 13 26  2  0  0  0  0
 14 16  2  0  0  0  0
 15 17  2  0  0  0  0
 15 28  1  0  0  0  0
 17 31  1  0  0  0  0
 18 25  2  0  0  0  0
 18 32  1  0  0  0  0
 19 29  2  0  0  0  0
 20 30  2  0  0  0  0
 21 27  1  0  0  0  0
 24 27  2  0  0  0  0
 25 33  1  0  0  0  0
 25 36  1  0  0  0  0
 26 34  1  0  0  0  0
 28 35  2  0  0  0  0
 29 30  1  0  0  0  0
 31 37  2  0  0  0  0
 32 38  2  0  0  0  0
 33 34  2  0  0  0  0
 35 37  1  0  0  0  0
 36 39  2  0  0  0  0
 38 39  1  0  0  0  0
M  END
> <PUBCHEM_COMPOUND_ID_TYPE>
0

> <PUBCHEM_TOTAL_CHARGE>
0

> <PUBCHEM_SUBSTANCE_ID>
310946109

> <PUBCHEM_SUBSTANCE_VERSION>
1

> <PUBCHEM_EXT_DATASOURCE_NAME>
4488

> <PUBCHEM_EXT_DATASOURCE_REGID>
SCHEMBL16124217

> <PUBCHEM_SUBSTANCE_COMMENT>
InChI=1S/C37H27NS/c1-37(2)31-17-7-5-14-27(31)28-22-21-25(23-32(28)37)38(33-18-9-12-24-11-3-4-13-26(24)33)34-19-10-16-30-29-15-6-8-20-35(29)39-36(30)34/h3-23H,1-2H3
InChIKey=XVLCXRXXSDSKTB-UHFFFAOYSA-N

> <PUBCHEM_SUBSTANCE_SYNONYM>
SCHEMBL16124217

> <PUBCHEM_XREF_EXT_ID>
SCHEMBL16124217

> <PUBCHEM_EXT_DATASOURCE_URL>
https://www.surechembl.org/

> <PUBCHEM_EXT_SUBSTANCE_URL>
https://www.surechembl.org/chemical/SCHEMBL16124217

> <PUBCHEM_CID_ASSOCIATIONS>
117612072  1

> <PUBCHEM_COORDINATE_TYPE>
1
3

$$$$
