310937570
  -OEChem-07211613022D

 45 48  0     1  0  0  0  0  0999 V2000
    4.5582   -3.5832    0.0000 F   0  0  0  0  0  0  0  0  0  0  0  0
    4.0733   -2.9158    0.0000 F   0  0  0  0  0  0  0  0  0  0  0  0
    4.2227   -4.3369    0.0000 F   0  0  0  0  0  0  0  0  0  0  0  0
    1.0901   -6.1029    0.0000 F   0  0  0  0  0  0  0  0  0  0  0  0
    1.9106   -6.0167    0.0000 F   0  0  0  0  0  0  0  0  0  0  0  0
    0.6052   -5.4355    0.0000 F   0  0  0  0  0  0  0  0  0  0  0  0
   -2.8579   -0.8250    0.0000 F   0  0  0  0  0  0  0  0  0  0  0  0
   -2.1434   -1.2375    0.0000 F   0  0  0  0  0  0  0  0  0  0  0  0
   -2.8579    0.0000    0.0000 F   0  0  0  0  0  0  0  0  0  0  0  0
    0.3020   -2.5071    0.0000 O   0  0  0  0  0  0  0  0  0  0  0  0
   -0.7376   -1.4675    0.0000 O   0  0  0  0  0  0  0  0  0  0  0  0
    1.4290    5.7750    0.0000 O   0  0  0  0  0  0  0  0  0  0  0  0
    2.1434    4.5375    0.0000 O   0  0  0  0  0  0  0  0  0  0  0  0
    0.7145   -1.2375    0.0000 N   0  0  0  0  0  0  0  0  0  0  0  0
    0.7145    1.2375    0.0000 N   0  0  0  0  0  0  0  0  0  0  0  0
   -0.7145    1.2375    0.0000 N   0  0  0  0  0  0  0  0  0  0  0  0
    0.7145    3.7125    0.0000 N   0  0  0  0  0  0  0  0  0  0  0  0
    1.1270   -2.5071    0.0000 C   0  0  3  0  0  0  0  0  0  0  0  0
    1.3819   -1.7224    0.0000 C   0  0  3  0  0  0  0  0  0  0  0  0
    1.6119   -3.1745    0.0000 C   0  0  0  0  0  0  0  0  0  0  0  0
    0.0470   -1.7224    0.0000 C   0  0  0  0  0  0  0  0  0  0  0  0
    0.0000    0.0000    0.0000 C   0  0  0  0  0  0  0  0  0  0  0  0
    0.7145   -0.4125    0.0000 C   0  0  0  0  0  0  0  0  0  0  0  0
    2.9173   -3.7557    0.0000 C   0  0  0  0  0  0  0  0  0  0  0  0
    1.7613   -4.5956    0.0000 C   0  0  0  0  0  0  0  0  0  0  0  0
    0.0000    0.8250    0.0000 C   0  0  0  0  0  0  0  0  0  0  0  0
    1.2763   -3.9282    0.0000 C   0  0  0  0  0  0  0  0  0  0  0  0
    2.4324   -3.0883    0.0000 C   0  0  0  0  0  0  0  0  0  0  0  0
    2.5817   -4.5093    0.0000 C   0  0  0  0  0  0  0  0  0  0  0  0
    3.7378   -3.6694    0.0000 C   0  0  0  0  0  0  0  0  0  0  0  0
    1.4257   -5.3493    0.0000 C   0  0  0  0  0  0  0  0  0  0  0  0
   -1.4290    0.0000    0.0000 C   0  0  0  0  0  0  0  0  0  0  0  0
   -0.7145   -0.4125    0.0000 C   0  0  0  0  0  0  0  0  0  0  0  0
   -2.1434   -0.4125    0.0000 C   0  0  0  0  0  0  0  0  0  0  0  0
    0.7145    2.0625    0.0000 C   0  0  0  0  0  0  0  0  0  0  0  0
    2.1665   -1.4675    0.0000 C   0  0  0  0  0  0  0  0  0  0  0  0
   -1.4290    0.8250    0.0000 C   0  0  0  0  0  0  0  0  0  0  0  0
    1.4290    0.8250    0.0000 C   0  0  0  0  0  0  0  0  0  0  0  0
    1.4290    2.4750    0.0000 C   0  0  0  0  0  0  0  0  0  0  0  0
    0.0000    2.4750    0.0000 C   0  0  0  0  0  0  0  0  0  0  0  0
    1.4290    3.3000    0.0000 C   0  0  0  0  0  0  0  0  0  0  0  0
    0.0000    3.3000    0.0000 C   0  0  0  0  0  0  0  0  0  0  0  0
    1.4290    0.0000    0.0000 C   0  0  0  0  0  0  0  0  0  0  0  0
    0.7145    4.5375    0.0000 C   0  0  0  0  0  0  0  0  0  0  0  0
    1.4290    4.9500    0.0000 C   0  0  0  0  0  0  0  0  0  0  0  0
  1 30  1  0  0  0  0
  2 30  1  0  0  0  0
  3 30  1  0  0  0  0
  4 31  1  0  0  0  0
  5 31  1  0  0  0  0
  6 31  1  0  0  0  0
  7 34  1  0  0  0  0
  8 34  1  0  0  0  0
  9 34  1  0  0  0  0
 18 10  1  1  0  0  0
 10 21  1  0  0  0  0
 11 21  2  0  0  0  0
 12 45  2  0  0  0  0
 13 45  1  0  0  0  0
 14 19  1  0  0  0  0
 14 21  1  0  0  0  0
 14 23  1  0  0  0  0
 15 26  1  0  0  0  0
 15 35  1  0  0  0  0
 15 38  1  0  0  0  0
 16 26  2  0  0  0  0
 16 37  1  0  0  0  0
 17 41  1  0  0  0  0
 17 42  1  0  0  0  0
 17 44  1  0  0  0  0
 18 19  1  0  0  0  0
 18 20  1  0  0  0  0
 19 36  1  1  0  0  0
 20 27  2  0  0  0  0
 20 28  1  0  0  0  0
 22 23  1  0  0  0  0
 22 26  1  0  0  0  0
 22 33  2  0  0  0  0
 24 28  2  0  0  0  0
 24 29  1  0  0  0  0
 24 30  1  0  0  0  0
 25 27  1  0  0  0  0
 25 29  2  0  0  0  0
 25 31  1  0  0  0  0
 32 33  1  0  0  0  0
 32 34  1  0  0  0  0
 32 37  2  0  0  0  0
 35 39  1  0  0  0  0
 35 40  1  0  0  0  0
 38 43  1  0  0  0  0
 39 41  1  0  0  0  0
 40 42  1  0  0  0  0
 44 45  1  0  0  0  0
M  END
> <PUBCHEM_COMPOUND_ID_TYPE>
0

> <PUBCHEM_TOTAL_CHARGE>
0

> <PUBCHEM_SUBSTANCE_ID>
310937570

> <PUBCHEM_SUBSTANCE_VERSION>
1

> <PUBCHEM_EXT_DATASOURCE_NAME>
4488

> <PUBCHEM_EXT_DATASOURCE_REGID>
SCHEMBL16115349

> <PUBCHEM_SUBSTANCE_COMMENT>
InChI=1S/C28H29F9N4O4/c1-3-40(21-4-6-39(7-5-21)14-22(42)43)24-17(10-20(12-38-24)28(35,36)37)13-41-15(2)23(45-25(41)44)16-8-18(26(29,30)31)11-19(9-16)27(32,33)34/h8-12,15,21,23H,3-7,13-14H2,1-2H3,(H,42,43)/t15-,23-/m0/s1
InChIKey=OBNJATSUTADWEM-WNSKOXEYSA-N

> <PUBCHEM_SUBSTANCE_SYNONYM>
SCHEMBL16115349

> <PUBCHEM_XREF_EXT_ID>
SCHEMBL16115349

> <PUBCHEM_EXT_DATASOURCE_URL>
https://www.surechembl.org/

> <PUBCHEM_EXT_SUBSTANCE_URL>
https://www.surechembl.org/chemical/SCHEMBL16115349

> <PUBCHEM_CID_ASSOCIATIONS>
85473276  1

> <PUBCHEM_COORDINATE_TYPE>
1
3

> <PUBCHEM_BONDANNOTATIONS>
18  10  5
19  36  5

$$$$
