310930316
  -OEChem-07211613022D

 29 32  0     1  0  0  0  0  0999 V2000
    3.5533   -1.3349    0.0000 F   0  0  0  0  0  0  0  0  0  0  0  0
    3.3237   -0.2549    0.0000 O   0  0  0  0  0  0  0  0  0  0  0  0
    1.2695   -0.9224    0.0000 O   0  0  0  0  0  0  0  0  0  0  0  0
    1.2695    0.4125    0.0000 O   0  0  0  0  0  0  0  0  0  0  0  0
    2.9882   -2.3435    0.0000 O   0  0  0  0  0  0  0  0  0  0  0  0
    4.4527    0.7556    0.0000 O   0  0  0  0  0  0  0  0  0  0  0  0
    3.8585    3.5510    0.0000 O   0  0  0  0  0  0  0  0  0  0  0  0
    1.8321   -3.1834    0.0000 O   0  0  0  0  0  0  0  0  0  0  0  0
    3.0937    1.1971    0.0000 N   0  0  0  0  0  0  0  0  0  0  0  0
    4.1556    2.1533    0.0000 N   0  0  0  0  0  0  0  0  0  0  0  0
    2.0542   -0.6674    0.0000 C   0  0  3  0  0  0  0  0  0  0  0  0
    2.8388   -0.9224    0.0000 C   0  0  3  0  0  0  0  0  0  0  0  0
    2.0542    0.1576    0.0000 C   0  0  3  0  0  0  0  0  0  0  0  0
    2.8388    0.4125    0.0000 C   0  0  3  0  0  0  0  0  0  0  0  0
    0.7846   -0.2549    0.0000 C   0  0  0  0  0  0  0  0  0  0  0  0
    2.5032   -1.6761    0.0000 C   0  0  0  0  0  0  0  0  0  0  0  0
    3.9007    1.3686    0.0000 C   0  0  0  0  0  0  0  0  0  0  0  0
    2.5417    1.8102    0.0000 C   0  0  0  0  0  0  0  0  0  0  0  0
    0.1715    0.2971    0.0000 C   0  0  0  0  0  0  0  0  0  0  0  0
    0.1715   -0.8070    0.0000 C   0  0  0  0  0  0  0  0  0  0  0  0
    2.7966    2.5948    0.0000 C   0  0  0  0  0  0  0  0  0  0  0  0
    3.6036    2.7664    0.0000 C   0  0  0  0  0  0  0  0  0  0  0  0
    2.6526   -3.0972    0.0000 C   0  0  0  0  0  0  0  0  0  0  0  0
    3.1375   -3.7646    0.0000 C   0  0  0  0  0  0  0  0  0  0  0  0
    3.9580   -3.6784    0.0000 C   0  0  0  0  0  0  0  0  0  0  0  0
    2.8020   -4.5183    0.0000 C   0  0  0  0  0  0  0  0  0  0  0  0
    4.4429   -4.3458    0.0000 C   0  0  0  0  0  0  0  0  0  0  0  0
    3.2869   -5.1857    0.0000 C   0  0  0  0  0  0  0  0  0  0  0  0
    4.1074   -5.0995    0.0000 C   0  0  0  0  0  0  0  0  0  0  0  0
 12  1  1  6  0  0  0
  2 12  1  0  0  0  0
 14  2  1  6  0  0  0
 11  3  1  1  0  0  0
  3 15  1  0  0  0  0
 13  4  1  1  0  0  0
  4 15  1  0  0  0  0
  5 16  1  0  0  0  0
  5 23  1  0  0  0  0
  6 17  2  0  0  0  0
  7 22  2  0  0  0  0
  8 23  2  0  0  0  0
  9 14  1  0  0  0  0
  9 17  1  0  0  0  0
  9 18  1  0  0  0  0
 10 17  1  0  0  0  0
 10 22  1  0  0  0  0
 11 12  1  0  0  0  0
 11 13  1  0  0  0  0
 12 16  1  1  0  0  0
 13 14  1  0  0  0  0
 15 19  1  0  0  0  0
 15 20  1  0  0  0  0
 18 21  2  0  0  0  0
 21 22  1  0  0  0  0
 23 24  1  0  0  0  0
 24 25  2  0  0  0  0
 24 26  1  0  0  0  0
 25 27  1  0  0  0  0
 26 28  2  0  0  0  0
 27 29  2  0  0  0  0
 28 29  1  0  0  0  0
M  END
> <PUBCHEM_COMPOUND_ID_TYPE>
0

> <PUBCHEM_TOTAL_CHARGE>
0

> <PUBCHEM_SUBSTANCE_ID>
310930316

> <PUBCHEM_SUBSTANCE_VERSION>
1

> <PUBCHEM_EXT_DATASOURCE_NAME>
4488

> <PUBCHEM_EXT_DATASOURCE_REGID>
SCHEMBL16107597

> <PUBCHEM_SUBSTANCE_COMMENT>
InChI=1S/C19H19FN2O7/c1-18(2)27-13-14(28-18)19(20,10-26-16(24)11-6-4-3-5-7-11)29-15(13)22-9-8-12(23)21-17(22)25/h3-9,13-15H,10H2,1-2H3,(H,21,23,25)/t13-,14+,15-,19+/m1/s1
InChIKey=MPNKBPRDLCHBJI-GJRWTSMGSA-N

> <PUBCHEM_SUBSTANCE_SYNONYM>
SCHEMBL16107597

> <PUBCHEM_XREF_EXT_ID>
SCHEMBL16107597

> <PUBCHEM_EXT_DATASOURCE_URL>
https://www.surechembl.org/

> <PUBCHEM_EXT_SUBSTANCE_URL>
https://www.surechembl.org/chemical/SCHEMBL16107597

> <PUBCHEM_CID_ASSOCIATIONS>
117599492  1

> <PUBCHEM_COORDINATE_TYPE>
1
3

> <PUBCHEM_BONDANNOTATIONS>
12  1  6
12  16  5
14  2  6
11  3  5
13  4  5

$$$$
