310929781
  -OEChem-07211613022D

 22 23  0     1  0  0  0  0  0999 V2000
    3.5737   -0.8784    0.0000 O   0  0  0  0  0  0  0  0  0  0  0  0
    4.8112   -0.1639    0.0000 O   0  0  0  0  0  0  0  0  0  0  0  0
    5.6362   -0.1639    0.0000 O   0  0  0  0  0  0  0  0  0  0  0  0
    6.8737   -0.8784    0.0000 O   0  0  0  0  0  0  0  0  0  0  0  0
    4.8112   -1.5928    0.0000 N   0  0  0  0  0  0  0  0  0  0  0  0
    6.0487   -2.3073    0.0000 C   0  0  0  0  0  0  0  0  0  0  0  0
    5.6362   -1.5928    0.0000 C   0  0  3  0  0  0  0  0  0  0  0  0
    3.1612   -0.1639    0.0000 C   0  0  3  0  0  0  0  0  0  0  0  0
    2.4467    0.2486    0.0000 C   0  0  3  0  0  0  0  0  0  0  0  0
    3.1612    0.6611    0.0000 C   0  0  0  0  0  0  0  0  0  0  0  0
    4.3987   -0.8784    0.0000 C   0  0  0  0  0  0  0  0  0  0  0  0
    6.7212   -2.7852    0.0000 C   0  0  0  0  0  0  0  0  0  0  0  0
    5.3864   -2.7992    0.0000 C   0  0  0  0  0  0  0  0  0  0  0  0
    6.0487   -0.8784    0.0000 C   0  0  0  0  0  0  0  0  0  0  0  0
    6.4461   -1.5844    0.0000 C   0  0  0  0  0  0  0  0  0  0  0  0
    1.6217    0.2486    0.0000 C   0  0  0  0  0  0  0  0  0  0  0  0
    6.4745   -3.5725    0.0000 C   0  0  0  0  0  0  0  0  0  0  0  0
    5.6495   -3.5811    0.0000 C   0  0  0  0  0  0  0  0  0  0  0  0
    1.2092   -0.4659    0.0000 C   0  0  0  0  0  0  0  0  0  0  0  0
    0.3842   -0.4659    0.0000 C   0  0  0  0  0  0  0  0  0  0  0  0
   -0.0283   -1.1803    0.0000 C   0  0  0  0  0  0  0  0  0  0  0  0
   -0.4408   -1.8948    0.0000 C   0  0  0  0  0  0  0  0  0  0  0  0
  8  1  1  1  0  0  0
  1 11  1  0  0  0  0
  2 11  2  0  0  0  0
  3 14  2  0  0  0  0
  4 14  1  0  0  0  0
  5  7  1  0  0  0  0
  5 11  1  0  0  0  0
  6  7  1  0  0  0  0
  6 12  1  0  0  0  0
  6 13  1  0  0  0  0
  6 15  1  0  0  0  0
  7 14  1  6  0  0  0
  8  9  1  0  0  0  0
  8 10  1  0  0  0  0
  9 10  1  0  0  0  0
  9 16  1  6  0  0  0
 12 17  1  0  0  0  0
 13 18  1  0  0  0  0
 16 19  1  0  0  0  0
 17 18  1  0  0  0  0
 19 20  1  0  0  0  0
 20 21  1  0  0  0  0
 21 22  3  0  0  0  0
M  END
> <PUBCHEM_COMPOUND_ID_TYPE>
0

> <PUBCHEM_TOTAL_CHARGE>
0

> <PUBCHEM_SUBSTANCE_ID>
310929781

> <PUBCHEM_SUBSTANCE_VERSION>
1

> <PUBCHEM_EXT_DATASOURCE_NAME>
4488

> <PUBCHEM_EXT_DATASOURCE_REGID>
SCHEMBL16106982

> <PUBCHEM_SUBSTANCE_COMMENT>
InChI=1S/C17H25NO4/c1-3-4-5-8-12-11-13(12)22-16(21)18-14(15(19)20)17(2)9-6-7-10-17/h1,12-14H,4-11H2,2H3,(H,18,21)(H,19,20)/t12-,13-,14-/m1/s1
InChIKey=AQAHQHUPHXMIBL-MGPQQGTHSA-N

> <PUBCHEM_SUBSTANCE_SYNONYM>
SCHEMBL16106982

> <PUBCHEM_XREF_EXT_ID>
SCHEMBL16106982

> <PUBCHEM_EXT_DATASOURCE_URL>
https://www.surechembl.org/

> <PUBCHEM_EXT_SUBSTANCE_URL>
https://www.surechembl.org/chemical/SCHEMBL16106982

> <PUBCHEM_CID_ASSOCIATIONS>
117599065  1

> <PUBCHEM_COORDINATE_TYPE>
1
3

> <PUBCHEM_BONDANNOTATIONS>
8  1  5
7  14  6
9  16  6

$$$$
