310937523
  -OEChem-07211613022D

 37 40  0     1  0  0  0  0  0999 V2000
   -0.7145   -2.0625    0.0000 F   0  0  0  0  0  0  0  0  0  0  0  0
    0.0000   -1.6500    0.0000 F   0  0  0  0  0  0  0  0  0  0  0  0
   -1.4290   -1.6500    0.0000 F   0  0  0  0  0  0  0  0  0  0  0  0
   -2.1434    2.0625    0.0000 F   0  0  0  0  0  0  0  0  0  0  0  0
   -2.8579    1.6500    0.0000 F   0  0  0  0  0  0  0  0  0  0  0  0
   -2.8579    0.8250    0.0000 F   0  0  0  0  0  0  0  0  0  0  0  0
    5.7870    1.8375    0.0000 F   0  0  0  0  0  0  0  0  0  0  0  0
    6.2720    2.5050    0.0000 F   0  0  0  0  0  0  0  0  0  0  0  0
    5.9364    3.2586    0.0000 F   0  0  0  0  0  0  0  0  0  0  0  0
    0.8007    2.0580    0.0000 O   0  0  0  0  0  0  0  0  0  0  0  0
    1.6944    5.0174    0.0000 O   0  0  0  0  0  0  0  0  0  0  0  0
    2.0202    1.5151    0.0000 N   0  0  3  0  0  0  0  0  0  0  0  0
    3.4750    3.5173    0.0000 N   0  0  0  0  0  0  0  0  0  0  0  0
    2.1696    2.9362    0.0000 N   0  0  0  0  0  0  0  0  0  0  0  0
    0.7145    1.2375    0.0000 C   0  0  3  0  0  0  0  0  0  0  0  0
    0.0000    0.8250    0.0000 C   0  0  0  0  0  0  0  0  0  0  0  0
    1.4681    0.9020    0.0000 C   0  0  3  0  0  0  0  0  0  0  0  0
   -0.7145   -0.4125    0.0000 C   0  0  0  0  0  0  0  0  0  0  0  0
   -1.4290    0.8250    0.0000 C   0  0  0  0  0  0  0  0  0  0  0  0
   -0.7145    1.2375    0.0000 C   0  0  0  0  0  0  0  0  0  0  0  0
    0.0000    0.0000    0.0000 C   0  0  0  0  0  0  0  0  0  0  0  0
    3.3256    2.0963    0.0000 C   0  0  0  0  0  0  0  0  0  0  0  0
   -1.4290    0.0000    0.0000 C   0  0  0  0  0  0  0  0  0  0  0  0
   -0.7145   -1.2375    0.0000 C   0  0  0  0  0  0  0  0  0  0  0  0
   -2.1434    1.2375    0.0000 C   0  0  0  0  0  0  0  0  0  0  0  0
    2.8407    1.4288    0.0000 C   0  0  0  0  0  0  0  0  0  0  0  0
    1.6077    2.2295    0.0000 C   0  0  0  0  0  0  0  0  0  0  0  0
    2.9900    2.8499    0.0000 C   0  0  0  0  0  0  0  0  0  0  0  0
    4.6310    2.6774    0.0000 C   0  0  0  0  0  0  0  0  0  0  0  0
    4.1460    2.0100    0.0000 C   0  0  0  0  0  0  0  0  0  0  0  0
    5.4515    2.5912    0.0000 C   0  0  0  0  0  0  0  0  0  0  0  0
    4.2954    3.4311    0.0000 C   0  0  0  0  0  0  0  0  0  0  0  0
    1.6397    0.0950    0.0000 C   0  0  0  0  0  0  0  0  0  0  0  0
    1.8340    3.6898    0.0000 C   0  0  3  0  0  0  0  0  0  0  0  0
    2.2465    4.4043    0.0000 C   0  0  0  0  0  0  0  0  0  0  0  0
    1.0270    3.8614    0.0000 C   0  0  0  0  0  0  0  0  0  0  0  0
    0.9408    4.6818    0.0000 C   0  0  0  0  0  0  0  0  0  0  0  0
  1 24  1  0  0  0  0
  2 24  1  0  0  0  0
  3 24  1  0  0  0  0
  4 25  1  0  0  0  0
  5 25  1  0  0  0  0
  6 25  1  0  0  0  0
  7 31  1  0  0  0  0
  8 31  1  0  0  0  0
  9 31  1  0  0  0  0
 15 10  1  1  0  0  0
 10 27  1  0  0  0  0
 11 35  1  0  0  0  0
 11 37  1  0  0  0  0
 12 17  1  0  0  0  0
 12 26  1  0  0  0  0
 12 27  1  0  0  0  0
 13 28  2  0  0  0  0
 13 32  1  0  0  0  0
 14 28  1  0  0  0  0
 14 34  1  0  0  0  0
 15 16  1  0  0  0  0
 15 17  1  0  0  0  0
 16 20  2  0  0  0  0
 16 21  1  0  0  0  0
 17 33  1  1  0  0  0
 18 21  2  0  0  0  0
 18 23  1  0  0  0  0
 18 24  1  0  0  0  0
 19 20  1  0  0  0  0
 19 23  2  0  0  0  0
 19 25  1  0  0  0  0
 22 26  1  0  0  0  0
 22 28  1  0  0  0  0
 22 30  2  0  0  0  0
 29 30  1  0  0  0  0
 29 31  1  0  0  0  0
 29 32  2  0  0  0  0
 34 35  1  0  0  0  0
 34 36  1  0  0  0  0
 36 37  1  0  0  0  0
M  END
> <PUBCHEM_COMPOUND_ID_TYPE>
0

> <PUBCHEM_TOTAL_CHARGE>
0

> <PUBCHEM_SUBSTANCE_ID>
310937523

> <PUBCHEM_SUBSTANCE_VERSION>
1

> <PUBCHEM_EXT_DATASOURCE_NAME>
4488

> <PUBCHEM_EXT_DATASOURCE_REGID>
SCHEMBL16115297

> <PUBCHEM_SUBSTANCE_COMMENT>
InChI=1S/C23H22F9N3O2/c1-12-19(13-4-15(21(24,25)26)7-16(5-13)22(27,28)29)37-11-35(12)9-14-6-17(23(30,31)32)8-33-20(14)34-18-2-3-36-10-18/h4-8,12,18-19H,2-3,9-11H2,1H3,(H,33,34)/t12-,18?,19-/m0/s1
InChIKey=XIAJOSKNPRVRPW-NNZWLKQRSA-N

> <PUBCHEM_SUBSTANCE_SYNONYM>
SCHEMBL16115297

> <PUBCHEM_XREF_EXT_ID>
SCHEMBL16115297

> <PUBCHEM_EXT_DATASOURCE_URL>
https://www.surechembl.org/

> <PUBCHEM_EXT_SUBSTANCE_URL>
https://www.surechembl.org/chemical/SCHEMBL16115297

> <PUBCHEM_CID_ASSOCIATIONS>
117605251  1

> <PUBCHEM_COORDINATE_TYPE>
1
3

> <PUBCHEM_BONDANNOTATIONS>
15  10  5
17  33  5

$$$$
