310945430
  -OEChem-07211613022D

 28 30  0     0  0  0  0  0  0999 V2000
   -0.0992    0.3971    0.0000 F   0  0  0  0  0  0  0  0  0  0  0  0
   -2.9782    1.2622    0.0000 O   0  0  0  0  0  0  0  0  0  0  0  0
    3.4746    2.4535    0.0000 O   0  0  0  0  0  0  0  0  0  0  0  0
   -0.8509   -0.0142    0.0000 N   0  0  0  0  0  0  0  0  0  0  0  0
   -1.5600    1.2480    0.0000 N   0  0  0  0  0  0  0  0  0  0  0  0
    1.3330    2.0564    0.0000 N   0  0  0  0  0  0  0  0  0  0  0  0
   -2.3258   -2.5102    0.0000 N   0  0  0  0  0  0  0  0  0  0  0  0
   -1.5600   -0.3971    0.0000 C   0  0  0  0  0  0  0  0  0  0  0  0
   -2.2974    0.0142    0.0000 C   0  0  0  0  0  0  0  0  0  0  0  0
   -1.5884   -1.2338    0.0000 C   0  0  0  0  0  0  0  0  0  0  0  0
   -2.2974   -1.6310    0.0000 C   0  0  0  0  0  0  0  0  0  0  0  0
   -3.0065   -1.2055    0.0000 C   0  0  0  0  0  0  0  0  0  0  0  0
   -2.2548    0.8651    0.0000 C   0  0  0  0  0  0  0  0  0  0  0  0
   -2.9923   -0.3971    0.0000 C   0  0  0  0  0  0  0  0  0  0  0  0
   -0.0992    1.2622    0.0000 C   0  0  0  0  0  0  0  0  0  0  0  0
   -0.8509   -1.6451    0.0000 C   0  0  0  0  0  0  0  0  0  0  0  0
   -0.8367    0.8651    0.0000 C   0  0  0  0  0  0  0  0  0  0  0  0
   -0.0851    2.0989    0.0000 C   0  0  0  0  0  0  0  0  0  0  0  0
    0.5957    0.8509    0.0000 C   0  0  0  0  0  0  0  0  0  0  0  0
   -0.1135   -0.4254    0.0000 C   0  0  0  0  0  0  0  0  0  0  0  0
   -0.1277   -1.2480    0.0000 C   0  0  0  0  0  0  0  0  0  0  0  0
    0.6099    2.5102    0.0000 C   0  0  0  0  0  0  0  0  0  0  0  0
    1.3189    1.2622    0.0000 C   0  0  0  0  0  0  0  0  0  0  0  0
   -3.4746   -1.4750    0.0000 C   0  0  0  0  0  0  0  0  0  0  0  0
    2.0279    2.4961    0.0000 C   0  0  0  0  0  0  0  0  0  0  0  0
    2.7655    2.0564    0.0000 C   0  0  0  0  0  0  0  0  0  0  0  0
    2.3541    1.3472    0.0000 C   0  0  0  0  0  0  0  0  0  0  0  0
    3.1625    1.3614    0.0000 C   0  0  0  0  0  0  0  0  0  0  0  0
  1 15  1  0  0  0  0
  2 13  2  0  0  0  0
  3 26  1  0  0  0  0
  4  8  1  0  0  0  0
  4 20  2  0  0  0  0
  5 13  1  0  0  0  0
  5 17  1  0  0  0  0
  6 22  1  0  0  0  0
  6 23  1  0  0  0  0
  6 25  1  0  0  0  0
  7 11  1  0  0  0  0
  8  9  2  0  0  0  0
  8 10  1  0  0  0  0
  9 13  1  0  0  0  0
  9 14  1  0  0  0  0
 10 11  2  0  0  0  0
 10 16  1  0  0  0  0
 11 12  1  0  0  0  0
 12 14  2  0  0  0  0
 12 24  1  0  0  0  0
 15 17  1  0  0  0  0
 15 18  1  0  0  0  0
 15 19  1  0  0  0  0
 16 21  2  0  0  0  0
 18 22  1  0  0  0  0
 19 23  1  0  0  0  0
 20 21  1  0  0  0  0
 25 26  1  0  0  0  0
 26 27  1  0  0  0  0
 26 28  1  0  0  0  0
M  END
> <PUBCHEM_COMPOUND_ID_TYPE>
0

> <PUBCHEM_TOTAL_CHARGE>
0

> <PUBCHEM_SUBSTANCE_ID>
310945430

> <PUBCHEM_SUBSTANCE_VERSION>
1

> <PUBCHEM_EXT_DATASOURCE_NAME>
4488

> <PUBCHEM_EXT_DATASOURCE_REGID>
SCHEMBL16123528

> <PUBCHEM_SUBSTANCE_COMMENT>
InChI=1S/C21H29FN4O2/c1-14-11-16(18-15(17(14)23)5-4-8-24-18)19(27)25-12-21(22)6-9-26(10-7-21)13-20(2,3)28/h4-5,8,11,28H,6-7,9-10,12-13,23H2,1-3H3,(H,25,27)
InChIKey=MOMTURDBRSDPAA-UHFFFAOYSA-N

> <PUBCHEM_SUBSTANCE_SYNONYM>
SCHEMBL16123528

> <PUBCHEM_XREF_EXT_ID>
SCHEMBL16123528

> <PUBCHEM_EXT_DATASOURCE_URL>
https://www.surechembl.org/

> <PUBCHEM_EXT_SUBSTANCE_URL>
https://www.surechembl.org/chemical/SCHEMBL16123528

> <PUBCHEM_CID_ASSOCIATIONS>
117611475  1

> <PUBCHEM_COORDINATE_TYPE>
1
3

$$$$
