310948954
  -OEChem-07211613022D

 22 23  0     0  0  0  0  0  0999 V2000
   -0.3580   -0.6071    0.0000 S   0  0  0  0  0  0  0  0  0  0  0  0
   -1.0896   -1.0273    0.0000 O   0  0  0  0  0  0  0  0  0  0  0  0
   -2.5216    1.4943    0.0000 O   0  0  0  0  0  0  0  0  0  0  0  0
    1.0896   -0.6071    0.0000 O   0  0  0  0  0  0  0  0  0  0  0  0
   -1.0740    0.6693    0.0000 N   0  0  0  0  0  0  0  0  0  0  0  0
    0.3580    0.6693    0.0000 N   0  0  0  0  0  0  0  0  0  0  0  0
   -1.8056    0.2491    0.0000 C   0  0  0  0  0  0  0  0  0  0  0  0
   -1.8056   -0.5759    0.0000 C   0  0  0  0  0  0  0  0  0  0  0  0
   -2.5060    0.6226    0.0000 C   0  0  0  0  0  0  0  0  0  0  0  0
   -0.3424    0.2491    0.0000 C   0  0  0  0  0  0  0  0  0  0  0  0
   -2.4904   -1.0117    0.0000 C   0  0  0  0  0  0  0  0  0  0  0  0
   -3.2220    0.2335    0.0000 C   0  0  0  0  0  0  0  0  0  0  0  0
    1.0896    0.2491    0.0000 C   0  0  0  0  0  0  0  0  0  0  0  0
    1.8056    0.6381    0.0000 C   0  0  0  0  0  0  0  0  0  0  0  0
   -3.2220   -0.5915    0.0000 C   0  0  0  0  0  0  0  0  0  0  0  0
    2.5683    0.2491    0.0000 C   0  0  0  0  0  0  0  0  0  0  0  0
    1.8211    1.5099    0.0000 C   0  0  0  0  0  0  0  0  0  0  0  0
    3.2531    0.6381    0.0000 C   0  0  0  0  0  0  0  0  0  0  0  0
    2.5371    1.8834    0.0000 C   0  0  0  0  0  0  0  0  0  0  0  0
   -1.0584   -1.8834    0.0000 C   0  0  0  0  0  0  0  0  0  0  0  0
   -3.2531    1.8834    0.0000 C   0  0  0  0  0  0  0  0  0  0  0  0
    3.2531    1.4943    0.0000 C   0  0  0  0  0  0  0  0  0  0  0  0
  1 10  2  0  0  0  0
  2  8  1  0  0  0  0
  2 20  1  0  0  0  0
  3  9  1  0  0  0  0
  3 21  1  0  0  0  0
  4 13  2  0  0  0  0
  5  7  1  0  0  0  0
  5 10  1  0  0  0  0
  6 10  1  0  0  0  0
  6 13  1  0  0  0  0
  7  8  1  0  0  0  0
  7  9  2  0  0  0  0
  8 11  2  0  0  0  0
  9 12  1  0  0  0  0
 11 15  1  0  0  0  0
 12 15  2  0  0  0  0
 13 14  1  0  0  0  0
 14 16  2  0  0  0  0
 14 17  1  0  0  0  0
 16 18  1  0  0  0  0
 17 19  2  0  0  0  0
 18 22  2  0  0  0  0
 19 22  1  0  0  0  0
M  END
> <PUBCHEM_COMPOUND_ID_TYPE>
0

> <PUBCHEM_TOTAL_CHARGE>
0

> <PUBCHEM_SUBSTANCE_ID>
310948954

> <PUBCHEM_SUBSTANCE_VERSION>
1

> <PUBCHEM_EXT_DATASOURCE_NAME>
4488

> <PUBCHEM_EXT_DATASOURCE_REGID>
SCHEMBL16127142

> <PUBCHEM_SUBSTANCE_COMMENT>
InChI=1S/C16H16N2O3S/c1-20-12-9-6-10-13(21-2)14(12)17-16(22)18-15(19)11-7-4-3-5-8-11/h3-10H,1-2H3,(H2,17,18,19,22)
InChIKey=QYQXCLRVJSBPOT-UHFFFAOYSA-N

> <PUBCHEM_SUBSTANCE_SYNONYM>
SCHEMBL16127142

> <PUBCHEM_XREF_EXT_ID>
SCHEMBL16127142

> <PUBCHEM_EXT_DATASOURCE_URL>
https://www.surechembl.org/

> <PUBCHEM_EXT_SUBSTANCE_URL>
https://www.surechembl.org/chemical/SCHEMBL16127142

> <PUBCHEM_CID_ASSOCIATIONS>
117614464  1

> <PUBCHEM_COORDINATE_TYPE>
1
3

$$$$
