310948817
  -OEChem-07211613022D

 37 40  0     1  0  0  0  0  0999 V2000
    2.0775    0.8924    0.0000 F   0  0  0  0  0  0  0  0  0  0  0  0
    3.1651    0.5716    0.0000 F   0  0  0  0  0  0  0  0  0  0  0  0
    2.8444   -0.5298    0.0000 F   0  0  0  0  0  0  0  0  0  0  0  0
   -4.6152    0.2231    0.0000 O   0  0  0  0  0  0  0  0  0  0  0  0
   -3.3603   -0.4183    0.0000 O   0  0  0  0  0  0  0  0  0  0  0  0
   -0.4462    2.6771    0.0000 O   0  0  0  0  0  0  0  0  0  0  0  0
    0.2789   -0.2091    0.0000 N   0  0  3  0  0  0  0  0  0  0  0  0
    0.2789    1.4501    0.0000 N   0  0  0  0  0  0  0  0  0  0  0  0
    4.6152    0.6135    0.0000 N   0  0  0  0  0  0  0  0  0  0  0  0
   -2.6771    1.4501    0.0000 C   0  0  3  0  0  0  0  0  0  0  0  0
   -3.3603    1.0458    0.0000 C   0  0  3  0  0  0  0  0  0  0  0  0
   -1.8683    1.0178    0.0000 C   0  0  0  0  0  0  0  0  0  0  0  0
   -3.3463    1.8405    0.0000 C   0  0  0  0  0  0  0  0  0  0  0  0
   -0.4601    0.2091    0.0000 C   0  0  0  0  0  0  0  0  0  0  0  0
   -0.4462    1.0318    0.0000 C   0  0  0  0  0  0  0  0  0  0  0  0
   -1.1852    1.4361    0.0000 C   0  0  0  0  0  0  0  0  0  0  0  0
   -1.8963    0.1952    0.0000 C   0  0  0  0  0  0  0  0  0  0  0  0
   -3.7925    0.2789    0.0000 C   0  0  0  0  0  0  0  0  0  0  0  0
   -1.1712   -0.2091    0.0000 C   0  0  0  0  0  0  0  0  0  0  0  0
    0.2789   -1.0458    0.0000 C   0  0  0  0  0  0  0  0  0  0  0  0
    0.9760    0.1952    0.0000 C   0  0  0  0  0  0  0  0  0  0  0  0
    0.2928    2.2727    0.0000 C   0  0  0  0  0  0  0  0  0  0  0  0
   -0.4462   -1.4640    0.0000 C   0  0  0  0  0  0  0  0  0  0  0  0
    1.0039   -1.4640    0.0000 C   0  0  0  0  0  0  0  0  0  0  0  0
    1.7429   -0.2091    0.0000 C   0  0  0  0  0  0  0  0  0  0  0  0
    0.9900    2.6910    0.0000 C   0  0  0  0  0  0  0  0  0  0  0  0
    2.4540    0.1813    0.0000 C   0  0  0  0  0  0  0  0  0  0  0  0
   -0.4462   -2.2867    0.0000 C   0  0  0  0  0  0  0  0  0  0  0  0
    1.0039   -2.2867    0.0000 C   0  0  0  0  0  0  0  0  0  0  0  0
    1.7289    2.2867    0.0000 C   0  0  0  0  0  0  0  0  0  0  0  0
    0.2649   -2.6910    0.0000 C   0  0  0  0  0  0  0  0  0  0  0  0
    1.7289    1.4501    0.0000 C   0  0  0  0  0  0  0  0  0  0  0  0
    2.4400    2.6771    0.0000 C   0  0  0  0  0  0  0  0  0  0  0  0
    3.1651    1.4501    0.0000 C   0  0  0  0  0  0  0  0  0  0  0  0
    2.4540    1.0318    0.0000 C   0  0  0  0  0  0  0  0  0  0  0  0
    3.1790    2.2727    0.0000 C   0  0  0  0  0  0  0  0  0  0  0  0
    3.9041    1.0178    0.0000 C   0  0  0  0  0  0  0  0  0  0  0  0
  1 27  1  0  0  0  0
  2 27  1  0  0  0  0
  3 27  1  0  0  0  0
  4 18  2  0  0  0  0
  5 18  1  0  0  0  0
  6 22  2  0  0  0  0
  7 14  1  0  0  0  0
  7 20  1  0  0  0  0
  7 21  1  0  0  0  0
  8 15  1  0  0  0  0
  8 22  1  0  0  0  0
  9 37  3  0  0  0  0
 10 11  1  0  0  0  0
 10 12  1  0  0  0  0
 10 13  1  1  0  0  0
 11 13  1  0  0  0  0
 11 18  1  1  0  0  0
 12 16  1  0  0  0  0
 12 17  2  0  0  0  0
 14 15  1  0  0  0  0
 14 19  2  0  0  0  0
 15 16  2  0  0  0  0
 17 19  1  0  0  0  0
 20 23  1  0  0  0  0
 20 24  1  0  0  0  0
 21 25  1  0  0  0  0
 22 26  1  0  0  0  0
 23 28  1  0  0  0  0
 24 29  1  0  0  0  0
 25 27  1  0  0  0  0
 26 30  1  0  0  0  0
 28 31  1  0  0  0  0
 29 31  1  0  0  0  0
 30 32  2  0  0  0  0
 30 33  1  0  0  0  0
 32 35  1  0  0  0  0
 33 36  2  0  0  0  0
 34 35  2  0  0  0  0
 34 36  1  0  0  0  0
 34 37  1  0  0  0  0
M  END
> <PUBCHEM_COMPOUND_ID_TYPE>
0

> <PUBCHEM_TOTAL_CHARGE>
0

> <PUBCHEM_SUBSTANCE_ID>
310948817

> <PUBCHEM_SUBSTANCE_VERSION>
1

> <PUBCHEM_EXT_DATASOURCE_NAME>
4488

> <PUBCHEM_EXT_DATASOURCE_REGID>
SCHEMBL16127001

> <PUBCHEM_SUBSTANCE_COMMENT>
InChI=1S/C28H30F3N3O3/c29-28(30,31)12-13-34(21-4-2-1-3-5-21)25-11-10-20(22-16-23(22)27(36)37)15-24(25)33-26(35)14-18-6-8-19(17-32)9-7-18/h6-11,15,21-23H,1-5,12-14,16H2,(H,33,35)(H,36,37)/t22-,23-/m0/s1
InChIKey=NDUCTNPOCYAGJT-GOTSBHOMSA-N

> <PUBCHEM_SUBSTANCE_SYNONYM>
SCHEMBL16127001

> <PUBCHEM_XREF_EXT_ID>
SCHEMBL16127001

> <PUBCHEM_EXT_DATASOURCE_URL>
https://www.surechembl.org/

> <PUBCHEM_EXT_SUBSTANCE_URL>
https://www.surechembl.org/chemical/SCHEMBL16127001

> <PUBCHEM_CID_ASSOCIATIONS>
117614356  1

> <PUBCHEM_COORDINATE_TYPE>
1
3

> <PUBCHEM_BONDANNOTATIONS>
10  13  5
11  18  5

$$$$
