310931029
  -OEChem-07211613022D

 47 52  0     1  0  0  0  0  0999 V2000
   -2.7347   -2.0946    0.0000 Cl  0  0  0  0  0  0  0  0  0  0  0  0
   -1.3057    2.0305    0.0000 S   0  0  0  0  0  0  0  0  0  0  0  0
    0.0762    3.7529    0.0000 S   0  0  0  0  0  0  0  0  0  0  0  0
   -1.3057    0.3805    0.0000 F   0  0  0  0  0  0  0  0  0  0  0  0
   -4.1637    2.0305    0.0000 F   0  0  0  0  0  0  0  0  0  0  0  0
   -0.8932    1.3160    0.0000 O   0  0  0  0  0  0  0  0  0  0  0  0
   -1.7182    2.7450    0.0000 O   0  0  0  0  0  0  0  0  0  0  0  0
   -4.1637    0.3805    0.0000 O   0  0  0  0  0  0  0  0  0  0  0  0
   -7.1079    1.2010    0.0000 O   0  0  0  0  0  0  0  0  0  0  0  0
   -7.7753    0.0449    0.0000 O   0  0  0  0  0  0  0  0  0  0  0  0
    1.5522    1.2055    0.0000 O   0  0  0  0  0  0  0  0  0  0  0  0
    2.9812    3.6805    0.0000 O   0  0  0  0  0  0  0  0  0  0  0  0
   -0.5912    2.4430    0.0000 N   0  0  0  0  0  0  0  0  0  0  0  0
   -1.2587    3.7529    0.0000 N   0  0  0  0  0  0  0  0  0  0  0  0
   -0.1787    4.5376    0.0000 N   0  0  0  0  0  0  0  0  0  0  0  0
   -2.0202    1.6180    0.0000 C   0  0  0  0  0  0  0  0  0  0  0  0
   -2.0202    0.7930    0.0000 C   0  0  0  0  0  0  0  0  0  0  0  0
   -0.5912    3.2680    0.0000 C   0  0  0  0  0  0  0  0  0  0  0  0
   -2.7347    2.0305    0.0000 C   0  0  0  0  0  0  0  0  0  0  0  0
   -3.4492    0.7930    0.0000 C   0  0  0  0  0  0  0  0  0  0  0  0
   -7.0216    0.3805    0.0000 C   0  0  0  0  0  0  0  0  0  0  0  0
   -3.4492    1.6180    0.0000 C   0  0  0  0  0  0  0  0  0  0  0  0
    0.1232    2.0305    0.0000 C   0  0  0  0  0  0  0  0  0  0  0  0
   -2.7347    0.3805    0.0000 C   0  0  0  0  0  0  0  0  0  0  0  0
   -5.5927    0.3805    0.0000 C   0  0  3  0  0  0  0  0  0  0  0  0
   -5.5927   -0.4446    0.0000 C   0  0  3  0  0  0  0  0  0  0  0  0
    0.8377    2.4430    0.0000 C   0  0  0  0  0  0  0  0  0  0  0  0
   -6.3071    0.7930    0.0000 C   0  0  0  0  0  0  0  0  0  0  0  0
   -7.0216   -0.4446    0.0000 C   0  0  0  0  0  0  0  0  0  0  0  0
   -4.8781    0.7930    0.0000 C   0  0  0  0  0  0  0  0  0  0  0  0
   -4.8781   -0.8571    0.0000 C   0  0  0  0  0  0  0  0  0  0  0  0
   -6.3071   -0.8571    0.0000 C   0  0  0  0  0  0  0  0  0  0  0  0
    1.5522    2.0305    0.0000 C   0  0  0  0  0  0  0  0  0  0  0  0
    0.8377    3.2680    0.0000 C   0  0  0  0  0  0  0  0  0  0  0  0
   -1.0037    4.5376    0.0000 C   0  0  0  0  0  0  0  0  0  0  0  0
   -7.9148    1.3725    0.0000 C   0  0  0  0  0  0  0  0  0  0  0  0
   -8.3274    0.6580    0.0000 C   0  0  0  0  0  0  0  0  0  0  0  0
    2.2667    2.4430    0.0000 C   0  0  0  0  0  0  0  0  0  0  0  0
    2.2667    3.2680    0.0000 C   0  0  0  0  0  0  0  0  0  0  0  0
   -4.1637   -0.4446    0.0000 C   0  0  0  0  0  0  0  0  0  0  0  0
   -4.8781   -1.6821    0.0000 C   0  0  0  0  0  0  0  0  0  0  0  0
    1.5522    3.6805    0.0000 C   0  0  0  0  0  0  0  0  0  0  0  0
   -3.4492   -0.8571    0.0000 C   0  0  0  0  0  0  0  0  0  0  0  0
   -4.1637   -2.0946    0.0000 C   0  0  0  0  0  0  0  0  0  0  0  0
   -3.4492   -1.6821    0.0000 C   0  0  0  0  0  0  0  0  0  0  0  0
    2.2667    0.7930    0.0000 C   0  0  0  0  0  0  0  0  0  0  0  0
    3.6957    3.2680    0.0000 C   0  0  0  0  0  0  0  0  0  0  0  0
  1 45  1  0  0  0  0
  2  6  2  0  0  0  0
  2  7  2  0  0  0  0
  2 13  1  0  0  0  0
  2 16  1  0  0  0  0
  3 15  1  0  0  0  0
  3 18  1  0  0  0  0
  4 17  1  0  0  0  0
  5 22  1  0  0  0  0
  8 20  1  0  0  0  0
  8 30  1  0  0  0  0
  9 21  1  0  0  0  0
  9 36  1  0  0  0  0
 10 21  1  0  0  0  0
 10 37  1  0  0  0  0
 11 33  1  0  0  0  0
 11 46  1  0  0  0  0
 12 39  1  0  0  0  0
 12 47  1  0  0  0  0
 13 18  1  0  0  0  0
 13 23  1  0  0  0  0
 14 18  2  0  0  0  0
 14 35  1  0  0  0  0
 15 35  2  0  0  0  0
 16 17  1  0  0  0  0
 16 19  2  0  0  0  0
 17 24  2  0  0  0  0
 19 22  1  0  0  0  0
 20 22  2  0  0  0  0
 20 24  1  0  0  0  0
 21 28  1  0  0  0  0
 21 29  1  0  0  0  0
 23 27  1  0  0  0  0
 25 26  1  0  0  0  0
 25 28  1  0  0  0  0
 25 30  1  0  0  0  0
 26 31  1  0  0  0  0
 26 32  1  6  0  0  0
 27 33  1  0  0  0  0
 27 34  2  0  0  0  0
 29 32  1  0  0  0  0
 31 40  2  0  0  0  0
 31 41  1  0  0  0  0
 33 38  2  0  0  0  0
 34 42  1  0  0  0  0
 36 37  1  0  0  0  0
 38 39  1  0  0  0  0
 39 42  2  0  0  0  0
 40 43  1  0  0  0  0
 41 44  2  0  0  0  0
 43 45  2  0  0  0  0
 44 45  1  0  0  0  0
M  END
> <PUBCHEM_COMPOUND_ID_TYPE>
0

> <PUBCHEM_TOTAL_CHARGE>
0

> <PUBCHEM_SUBSTANCE_ID>
310931029

> <PUBCHEM_SUBSTANCE_VERSION>
1

> <PUBCHEM_EXT_DATASOURCE_NAME>
4488

> <PUBCHEM_EXT_DATASOURCE_REGID>
SCHEMBL16108330

> <PUBCHEM_SUBSTANCE_COMMENT>
InChI=1S/C32H32ClF2N3O7S2/c1-41-24-8-5-21(28(13-24)42-2)17-38(31-36-19-37-46-31)47(39,40)30-15-26(34)29(14-27(30)35)43-18-22-16-32(44-11-12-45-32)10-9-25(22)20-3-6-23(33)7-4-20/h3-8,13-15,19,22,25H,9-12,16-18H2,1-2H3/t22?,25-/m0/s1
InChIKey=JXAVHDPGPCJEEI-TUXUZCGSSA-N

> <PUBCHEM_SUBSTANCE_SYNONYM>
SCHEMBL16108330

> <PUBCHEM_XREF_EXT_ID>
SCHEMBL16108330

> <PUBCHEM_EXT_DATASOURCE_URL>
https://www.surechembl.org/

> <PUBCHEM_EXT_SUBSTANCE_URL>
https://www.surechembl.org/chemical/SCHEMBL16108330

> <PUBCHEM_CID_ASSOCIATIONS>
117599947  1

> <PUBCHEM_COORDINATE_TYPE>
1
3

> <PUBCHEM_BONDANNOTATIONS>
26  32  6

$$$$
