310936120
  -OEChem-07211613022D

 30 34  0     0  0  0  0  0  0999 V2000
   -2.2448    0.1395    0.0000 Br  0  0  0  0  0  0  0  0  0  0  0  0
   -2.8579   -0.4125    0.0000 P   0  0  0  0  0  0  0  0  0  0  0  0
    0.7846   -0.6674    0.0000 O   0  0  0  0  0  0  0  0  0  0  0  0
    0.7846    0.6674    0.0000 O   0  0  0  0  0  0  0  0  0  0  0  0
   -3.2942    0.5673    0.0000 C   0  0  0  0  0  0  0  0  0  0  0  0
   -3.9246   -0.5246    0.0000 C   0  0  0  0  0  0  0  0  0  0  0  0
   -3.0257   -1.4718    0.0000 C   0  0  0  0  0  0  0  0  0  0  0  0
   -2.1434   -0.8250    0.0000 C   0  0  0  0  0  0  0  0  0  0  0  0
   -1.4290   -0.4125    0.0000 C   0  0  0  0  0  0  0  0  0  0  0  0
   -4.1146    0.6535    0.0000 C   0  0  0  0  0  0  0  0  0  0  0  0
   -4.2601   -1.2783    0.0000 C   0  0  0  0  0  0  0  0  0  0  0  0
   -3.7959   -1.7675    0.0000 C   0  0  0  0  0  0  0  0  0  0  0  0
   -2.8092    1.2347    0.0000 C   0  0  0  0  0  0  0  0  0  0  0  0
   -4.4095    0.1428    0.0000 C   0  0  0  0  0  0  0  0  0  0  0  0
   -2.3845   -1.9910    0.0000 C   0  0  0  0  0  0  0  0  0  0  0  0
   -0.7145   -0.8250    0.0000 C   0  0  0  0  0  0  0  0  0  0  0  0
   -1.4290    0.4125    0.0000 C   0  0  0  0  0  0  0  0  0  0  0  0
    0.0000   -0.4125    0.0000 C   0  0  0  0  0  0  0  0  0  0  0  0
   -4.4502    1.4072    0.0000 C   0  0  0  0  0  0  0  0  0  0  0  0
   -5.0806   -1.3645    0.0000 C   0  0  0  0  0  0  0  0  0  0  0  0
   -3.9250   -2.5823    0.0000 C   0  0  0  0  0  0  0  0  0  0  0  0
   -3.1448    1.9884    0.0000 C   0  0  0  0  0  0  0  0  0  0  0  0
   -5.2300    0.0566    0.0000 C   0  0  0  0  0  0  0  0  0  0  0  0
   -2.5136   -2.8059    0.0000 C   0  0  0  0  0  0  0  0  0  0  0  0
    0.0000    0.4125    0.0000 C   0  0  0  0  0  0  0  0  0  0  0  0
   -0.7145    0.8250    0.0000 C   0  0  0  0  0  0  0  0  0  0  0  0
   -3.9653    2.0747    0.0000 C   0  0  0  0  0  0  0  0  0  0  0  0
   -5.5655   -0.6971    0.0000 C   0  0  0  0  0  0  0  0  0  0  0  0
   -3.2838   -3.1015    0.0000 C   0  0  0  0  0  0  0  0  0  0  0  0
    1.2696    0.0000    0.0000 C   0  0  0  0  0  0  0  0  0  0  0  0
  1  2  1  0  0  0  0
  2  5  1  0  0  0  0
  2  6  1  0  0  0  0
  2  7  1  0  0  0  0
  2  8  1  0  0  0  0
  3 18  1  0  0  0  0
  3 30  1  0  0  0  0
  4 25  1  0  0  0  0
  4 30  1  0  0  0  0
  5 10  2  0  0  0  0
  5 13  1  0  0  0  0
  6 11  2  0  0  0  0
  6 14  1  0  0  0  0
  7 12  2  0  0  0  0
  7 15  1  0  0  0  0
  8  9  1  0  0  0  0
  9 16  1  0  0  0  0
  9 17  2  0  0  0  0
 10 19  1  0  0  0  0
 11 20  1  0  0  0  0
 12 21  1  0  0  0  0
 13 22  2  0  0  0  0
 14 23  2  0  0  0  0
 15 24  2  0  0  0  0
 16 18  2  0  0  0  0
 17 26  1  0  0  0  0
 18 25  1  0  0  0  0
 19 27  2  0  0  0  0
 20 28  2  0  0  0  0
 21 29  2  0  0  0  0
 22 27  1  0  0  0  0
 23 28  1  0  0  0  0
 24 29  1  0  0  0  0
 25 26  2  0  0  0  0
M  END
> <PUBCHEM_COMPOUND_ID_TYPE>
0

> <PUBCHEM_TOTAL_CHARGE>
0

> <PUBCHEM_SUBSTANCE_ID>
310936120

> <PUBCHEM_SUBSTANCE_VERSION>
1

> <PUBCHEM_EXT_DATASOURCE_NAME>
4488

> <PUBCHEM_EXT_DATASOURCE_REGID>
SCHEMBL16113729

> <PUBCHEM_SUBSTANCE_COMMENT>
InChI=1S/C26H22BrO2P/c27-30(22-10-4-1-5-11-22,23-12-6-2-7-13-23,24-14-8-3-9-15-24)19-21-16-17-25-26(18-21)29-20-28-25/h1-18H,19-20H2
InChIKey=XVWKYVCIULPZPQ-UHFFFAOYSA-N

> <PUBCHEM_SUBSTANCE_SYNONYM>
SCHEMBL16113729

> <PUBCHEM_XREF_EXT_ID>
SCHEMBL16113729

> <PUBCHEM_EXT_DATASOURCE_URL>
https://www.surechembl.org/

> <PUBCHEM_EXT_SUBSTANCE_URL>
https://www.surechembl.org/chemical/SCHEMBL16113729

> <PUBCHEM_CID_ASSOCIATIONS>
13964528  1

> <PUBCHEM_COORDINATE_TYPE>
1
3

$$$$
