310948619
  -OEChem-07211613022D

 40 43  0     1  0  0  0  0  0999 V2000
    3.9178    0.4671    0.0000 F   0  0  0  0  0  0  0  0  0  0  0  0
    4.2384   -0.6344    0.0000 F   0  0  0  0  0  0  0  0  0  0  0  0
    3.1231   -0.9272    0.0000 F   0  0  0  0  0  0  0  0  0  0  0  0
   -3.0115   -0.4113    0.0000 O   0  0  0  0  0  0  0  0  0  0  0  0
   -4.2663    0.2300    0.0000 O   0  0  0  0  0  0  0  0  0  0  0  0
   -0.0976    2.6700    0.0000 O   0  0  0  0  0  0  0  0  0  0  0  0
    0.6135   -0.2161    0.0000 N   0  0  3  0  0  0  0  0  0  0  0  0
    0.6135    1.4431    0.0000 N   0  0  0  0  0  0  0  0  0  0  0  0
    1.3524    2.6839    0.0000 N   0  0  0  0  0  0  0  0  0  0  0  0
   -2.3144    1.4569    0.0000 C   0  0  3  0  0  0  0  0  0  0  0  0
   -3.0115    1.0526    0.0000 C   0  0  3  0  0  0  0  0  0  0  0  0
   -1.5337    1.0109    0.0000 C   0  0  0  0  0  0  0  0  0  0  0  0
   -3.0115    1.8474    0.0000 C   0  0  0  0  0  0  0  0  0  0  0  0
   -0.1115    0.2161    0.0000 C   0  0  0  0  0  0  0  0  0  0  0  0
   -0.0976    1.0387    0.0000 C   0  0  0  0  0  0  0  0  0  0  0  0
   -0.8505    1.4291    0.0000 C   0  0  0  0  0  0  0  0  0  0  0  0
   -3.4437    0.2859    0.0000 C   0  0  0  0  0  0  0  0  0  0  0  0
   -1.5615    0.2161    0.0000 C   0  0  0  0  0  0  0  0  0  0  0  0
   -0.8226   -0.2022    0.0000 C   0  0  0  0  0  0  0  0  0  0  0  0
    0.6274   -1.0387    0.0000 C   0  0  0  0  0  0  0  0  0  0  0  0
    1.3245    0.2022    0.0000 C   0  0  0  0  0  0  0  0  0  0  0  0
    0.6413    2.2656    0.0000 C   0  0  0  0  0  0  0  0  0  0  0  0
    2.0774   -0.2022    0.0000 C   0  0  3  0  0  0  0  0  0  0  0  0
   -0.0976   -1.4569    0.0000 C   0  0  0  0  0  0  0  0  0  0  0  0
    1.3385   -1.4431    0.0000 C   0  0  0  0  0  0  0  0  0  0  0  0
   -3.3880   -1.1224    0.0000 C   0  0  0  0  0  0  0  0  0  0  0  0
    2.7884    0.2022    0.0000 C   0  0  0  0  0  0  0  0  0  0  0  0
   -0.0976   -2.2796    0.0000 C   0  0  0  0  0  0  0  0  0  0  0  0
    1.3385   -2.2656    0.0000 C   0  0  0  0  0  0  0  0  0  0  0  0
    2.0774    2.2796    0.0000 C   0  0  0  0  0  0  0  0  0  0  0  0
    3.5134   -0.2300    0.0000 C   0  0  0  0  0  0  0  0  0  0  0  0
    0.6274   -2.6839    0.0000 C   0  0  0  0  0  0  0  0  0  0  0  0
    2.0913   -1.0526    0.0000 C   0  0  0  0  0  0  0  0  0  0  0  0
    2.0774    1.4431    0.0000 C   0  0  0  0  0  0  0  0  0  0  0  0
    2.7745    2.6700    0.0000 C   0  0  0  0  0  0  0  0  0  0  0  0
   -4.2245   -1.1363    0.0000 C   0  0  0  0  0  0  0  0  0  0  0  0
    3.5134    1.4569    0.0000 C   0  0  0  0  0  0  0  0  0  0  0  0
    2.8024    1.0387    0.0000 C   0  0  0  0  0  0  0  0  0  0  0  0
    3.5134    2.2656    0.0000 C   0  0  0  0  0  0  0  0  0  0  0  0
    4.2663    1.0247    0.0000 C   0  0  0  0  0  0  0  0  0  0  0  0
  1 31  1  0  0  0  0
  2 31  1  0  0  0  0
  3 31  1  0  0  0  0
  4 17  1  0  0  0  0
  4 26  1  0  0  0  0
  5 17  2  0  0  0  0
  6 22  2  0  0  0  0
  7 14  1  0  0  0  0
  7 20  1  0  0  0  0
  7 21  1  0  0  0  0
  8 15  1  0  0  0  0
  8 22  1  0  0  0  0
  9 22  1  0  0  0  0
  9 30  1  0  0  0  0
 10 11  1  0  0  0  0
 10 12  1  0  0  0  0
 10 13  1  1  0  0  0
 11 13  1  0  0  0  0
 11 17  1  1  0  0  0
 12 16  1  0  0  0  0
 12 18  2  0  0  0  0
 14 15  1  0  0  0  0
 14 19  2  0  0  0  0
 15 16  2  0  0  0  0
 18 19  1  0  0  0  0
 20 24  1  0  0  0  0
 20 25  1  0  0  0  0
 21 23  1  0  0  0  0
 23 27  1  0  0  0  0
 23 33  1  0  0  0  0
 24 28  1  0  0  0  0
 25 29  1  0  0  0  0
 26 36  1  0  0  0  0
 27 31  1  0  0  0  0
 28 32  1  0  0  0  0
 29 32  1  0  0  0  0
 30 34  2  0  0  0  0
 30 35  1  0  0  0  0
 34 38  1  0  0  0  0
 35 39  2  0  0  0  0
 37 38  2  0  0  0  0
 37 39  1  0  0  0  0
 37 40  1  0  0  0  0
M  END
> <PUBCHEM_COMPOUND_ID_TYPE>
0

> <PUBCHEM_TOTAL_CHARGE>
0

> <PUBCHEM_SUBSTANCE_ID>
310948619

> <PUBCHEM_SUBSTANCE_VERSION>
1

> <PUBCHEM_EXT_DATASOURCE_NAME>
4488

> <PUBCHEM_EXT_DATASOURCE_REGID>
SCHEMBL16126802

> <PUBCHEM_SUBSTANCE_COMMENT>
InChI=1S/C31H40F3N3O3/c1-4-40-29(38)26-17-25(26)22-12-15-28(27(16-22)36-30(39)35-23-13-10-20(2)11-14-23)37(24-8-6-5-7-9-24)19-21(3)18-31(32,33)34/h10-16,21,24-26H,4-9,17-19H2,1-3H3,(H2,35,36,39)/t21?,25-,26-/m0/s1
InChIKey=PTRCJIJXHOXNFK-RMFXBNNXSA-N

> <PUBCHEM_SUBSTANCE_SYNONYM>
SCHEMBL16126802

> <PUBCHEM_XREF_EXT_ID>
SCHEMBL16126802

> <PUBCHEM_EXT_DATASOURCE_URL>
https://www.surechembl.org/

> <PUBCHEM_EXT_SUBSTANCE_URL>
https://www.surechembl.org/chemical/SCHEMBL16126802

> <PUBCHEM_CID_ASSOCIATIONS>
117614163  1

> <PUBCHEM_COORDINATE_TYPE>
1
3

> <PUBCHEM_BONDANNOTATIONS>
10  13  5
11  17  5

$$$$
