310940716
  -OEChem-07211613022D

 21 22  0     0  0  0  0  0  0999 V2000
    2.4958    0.2757    0.0000 O   0  0  0  0  0  0  0  0  0  0  0  0
   -2.9456   -0.6094    0.0000 O   0  0  0  0  0  0  0  0  0  0  0  0
    1.1754   -0.4208    0.0000 O   0  0  0  0  0  0  0  0  0  0  0  0
   -3.6421    0.7110    0.0000 O   0  0  0  0  0  0  0  0  0  0  0  0
   -1.8138    1.0447    0.0000 N   0  0  0  0  0  0  0  0  0  0  0  0
    1.1463    1.0447    0.0000 N   0  0  0  0  0  0  0  0  0  0  0  0
   -0.9141    1.0447    0.0000 C   0  0  0  0  0  0  0  0  0  0  0  0
    0.2322    1.0303    0.0000 C   0  0  0  0  0  0  0  0  0  0  0  0
   -0.3482    1.6542    0.0000 C   0  0  0  0  0  0  0  0  0  0  0  0
   -0.3338    0.4498    0.0000 C   0  0  0  0  0  0  0  0  0  0  0  0
   -0.3192    0.8271    0.0000 C   0  0  0  0  0  0  0  0  0  0  0  0
   -2.9456    0.3047    0.0000 C   0  0  0  0  0  0  0  0  0  0  0  0
    1.5817    0.3047    0.0000 C   0  0  0  0  0  0  0  0  0  0  0  0
    2.9456    1.0157    0.0000 C   0  0  0  0  0  0  0  0  0  0  0  0
   -2.2056   -1.0592    0.0000 C   0  0  0  0  0  0  0  0  0  0  0  0
    3.6421    0.6385    0.0000 C   0  0  0  0  0  0  0  0  0  0  0  0
    2.2491    1.4220    0.0000 C   0  0  0  0  0  0  0  0  0  0  0  0
    3.3809    1.7557    0.0000 C   0  0  0  0  0  0  0  0  0  0  0  0
   -2.5683   -1.7557    0.0000 C   0  0  0  0  0  0  0  0  0  0  0  0
   -1.7993   -0.3482    0.0000 C   0  0  0  0  0  0  0  0  0  0  0  0
   -1.4510   -1.4801    0.0000 C   0  0  0  0  0  0  0  0  0  0  0  0
  1 13  1  0  0  0  0
  1 14  1  0  0  0  0
  2 12  1  0  0  0  0
  2 15  1  0  0  0  0
  3 13  2  0  0  0  0
  4 12  2  0  0  0  0
  5  7  1  0  0  0  0
  5 12  1  0  0  0  0
  6  8  1  0  0  0  0
  6 13  1  0  0  0  0
  7  9  1  0  0  0  0
  7 10  1  0  0  0  0
  7 11  1  0  0  0  0
  8  9  1  0  0  0  0
  8 10  1  0  0  0  0
  8 11  1  0  0  0  0
 14 16  1  0  0  0  0
 14 17  1  0  0  0  0
 14 18  1  0  0  0  0
 15 19  1  0  0  0  0
 15 20  1  0  0  0  0
 15 21  1  0  0  0  0
M  END
> <PUBCHEM_COMPOUND_ID_TYPE>
0

> <PUBCHEM_TOTAL_CHARGE>
0

> <PUBCHEM_SUBSTANCE_ID>
310940716

> <PUBCHEM_SUBSTANCE_VERSION>
1

> <PUBCHEM_EXT_DATASOURCE_NAME>
4488

> <PUBCHEM_EXT_DATASOURCE_REGID>
SCHEMBL16118673

> <PUBCHEM_SUBSTANCE_COMMENT>
InChI=1S/C15H26N2O4/c1-12(2,3)20-10(18)16-14-7-15(8-14,9-14)17-11(19)21-13(4,5)6/h7-9H2,1-6H3,(H,16,18)(H,17,19)
InChIKey=CGMNYFJKJLSKJB-UHFFFAOYSA-N

> <PUBCHEM_SUBSTANCE_SYNONYM>
SCHEMBL16118673

> <PUBCHEM_XREF_EXT_ID>
SCHEMBL16118673

> <PUBCHEM_EXT_DATASOURCE_URL>
https://www.surechembl.org/

> <PUBCHEM_EXT_SUBSTANCE_URL>
https://www.surechembl.org/chemical/SCHEMBL16118673

> <PUBCHEM_CID_ASSOCIATIONS>
117607673  1

> <PUBCHEM_COORDINATE_TYPE>
1
3

$$$$
