310944100
  -OEChem-07211613022D

 32 36  0     1  0  0  0  0  0999 V2000
    2.5794    1.0010    0.0000 O   0  0  0  0  0  0  0  0  0  0  0  0
    5.3513    0.0220    0.0000 O   0  0  0  0  0  0  0  0  0  0  0  0
    5.5052    1.4850    0.0000 O   0  0  0  0  0  0  0  0  0  0  0  0
   -0.8855   -0.8800    0.0000 O   0  0  0  0  0  0  0  0  0  0  0  0
    3.2503   -0.3080    0.0000 N   0  0  0  0  0  0  0  0  0  0  0  0
    0.3465    0.2200    0.0000 N   0  0  0  0  0  0  0  0  0  0  0  0
   -4.1743    0.9570    0.0000 N   0  0  0  0  0  0  0  0  0  0  0  0
   -3.2283   -0.1100    0.0000 N   0  0  0  0  0  0  0  0  0  0  0  0
   -4.4163    1.7489    0.0000 N   0  0  0  0  0  0  0  0  0  0  0  0
   -5.2413    1.7489    0.0000 N   0  0  0  0  0  0  0  0  0  0  0  0
   -5.5052    0.9679    0.0000 N   0  0  0  0  0  0  0  0  0  0  0  0
    1.9084   -0.2860    0.0000 C   0  0  0  0  0  0  0  0  0  0  0  0
    2.5684    0.1650    0.0000 C   0  0  0  0  0  0  0  0  0  0  0  0
    2.9864   -1.0780    0.0000 C   0  0  3  0  0  0  0  0  0  0  0  0
    2.1614   -1.0780    0.0000 C   0  0  0  0  0  0  0  0  0  0  0  0
    4.0204   -0.0440    0.0000 C   0  0  0  0  0  0  0  0  0  0  0  0
    1.2924   -0.8469    0.0000 C   0  0  0  0  0  0  0  0  0  0  0  0
    1.7434    0.5060    0.0000 C   0  0  0  0  0  0  0  0  0  0  0  0
    0.5115   -0.5720    0.0000 C   0  0  0  0  0  0  0  0  0  0  0  0
    0.9625    0.7699    0.0000 C   0  0  0  0  0  0  0  0  0  0  0  0
    4.2403    0.7480    0.0000 C   0  0  0  0  0  0  0  0  0  0  0  0
    4.7243   -0.4950    0.0000 C   0  0  0  0  0  0  0  0  0  0  0  0
    3.4704   -1.7489    0.0000 C   0  0  0  0  0  0  0  0  0  0  0  0
    5.0433    0.7699    0.0000 C   0  0  0  0  0  0  0  0  0  0  0  0
   -0.4455    0.4730    0.0000 C   0  0  0  0  0  0  0  0  0  0  0  0
   -1.0395   -0.0660    0.0000 C   0  0  3  0  0  0  0  0  0  0  0  0
   -1.8314    0.2090    0.0000 C   0  0  0  0  0  0  0  0  0  0  0  0
   -3.3934    0.7040    0.0000 C   0  0  0  0  0  0  0  0  0  0  0  0
   -2.4364   -0.3520    0.0000 C   0  0  0  0  0  0  0  0  0  0  0  0
   -1.9964    1.0010    0.0000 C   0  0  0  0  0  0  0  0  0  0  0  0
   -2.7884    1.2539    0.0000 C   0  0  0  0  0  0  0  0  0  0  0  0
   -4.8453    0.4950    0.0000 C   0  0  0  0  0  0  0  0  0  0  0  0
  1 13  2  0  0  0  0
  2 22  1  0  0  0  0
  2 24  1  0  0  0  0
  3 24  2  0  0  0  0
 26  4  1  6  0  0  0
  5 13  1  0  0  0  0
  5 14  1  0  0  0  0
  5 16  1  0  0  0  0
  6 19  1  0  0  0  0
  6 20  1  0  0  0  0
  6 25  1  0  0  0  0
  7  9  1  0  0  0  0
  7 28  1  0  0  0  0
  7 32  1  0  0  0  0
  8 28  1  0  0  0  0
  8 29  2  0  0  0  0
  9 10  2  0  0  0  0
 10 11  1  0  0  0  0
 11 32  2  0  0  0  0
 12 13  1  0  0  0  0
 12 15  1  0  0  0  0
 12 17  1  0  0  0  0
 12 18  1  0  0  0  0
 14 15  1  0  0  0  0
 14 23  1  1  0  0  0
 16 21  2  0  0  0  0
 16 22  1  0  0  0  0
 17 19  1  0  0  0  0
 18 20  1  0  0  0  0
 21 24  1  0  0  0  0
 25 26  1  0  0  0  0
 26 27  1  0  0  0  0
 27 29  1  0  0  0  0
 27 30  2  0  0  0  0
 28 31  2  0  0  0  0
 30 31  1  0  0  0  0
M  END
> <PUBCHEM_COMPOUND_ID_TYPE>
0

> <PUBCHEM_TOTAL_CHARGE>
0

> <PUBCHEM_SUBSTANCE_ID>
310944100

> <PUBCHEM_SUBSTANCE_VERSION>
1

> <PUBCHEM_EXT_DATASOURCE_NAME>
4488

> <PUBCHEM_EXT_DATASOURCE_REGID>
SCHEMBL16122175

> <PUBCHEM_SUBSTANCE_COMMENT>
InChI=1S/C21H25N7O4/c1-14-9-21(20(31)28(14)16-8-19(30)32-12-16)4-6-26(7-5-21)11-17(29)15-2-3-18(22-10-15)27-13-23-24-25-27/h2-3,8,10,13-14,17,29H,4-7,9,11-12H2,1H3/t14-,17-/m0/s1
InChIKey=QHFGCRSFXLOXTP-YOEHRIQHSA-N

> <PUBCHEM_SUBSTANCE_SYNONYM>
SCHEMBL16122175

> <PUBCHEM_XREF_EXT_ID>
SCHEMBL16122175

> <PUBCHEM_EXT_DATASOURCE_URL>
https://www.surechembl.org/

> <PUBCHEM_EXT_SUBSTANCE_URL>
https://www.surechembl.org/chemical/SCHEMBL16122175

> <PUBCHEM_CID_ASSOCIATIONS>
86271825  1

> <PUBCHEM_COORDINATE_TYPE>
1
3

> <PUBCHEM_BONDANNOTATIONS>
14  23  5
26  4  6

$$$$
