310947586
  -OEChem-07211613022D

 42 45  0     1  0  0  0  0  0999 V2000
   -1.0875   -3.0541    0.0000 P   0  0  3  0  0  0  0  0  0  0  0  0
    0.7185   -5.5063    0.0000 F   0  0  0  0  0  0  0  0  0  0  0  0
    1.5435   -3.5223    0.0000 O   0  0  0  0  0  0  0  0  0  0  0  0
    2.3685   -5.5063    0.0000 O   0  0  0  0  0  0  0  0  0  0  0  0
   -0.5041   -3.6374    0.0000 O   0  0  0  0  0  0  0  0  0  0  0  0
   -1.6709   -2.4707    0.0000 O   0  0  0  0  0  0  0  0  0  0  0  0
   -0.5041   -2.4707    0.0000 O   0  0  0  0  0  0  0  0  0  0  0  0
    2.2110   -0.7073    0.0000 O   0  0  0  0  0  0  0  0  0  0  0  0
   -2.3853   -5.6999    0.0000 O   0  0  0  0  0  0  0  0  0  0  0  0
   -3.0998   -4.4624    0.0000 O   0  0  0  0  0  0  0  0  0  0  0  0
    2.2110   -3.1823    0.0000 N   0  0  0  0  0  0  0  0  0  0  0  0
    2.9255   -1.9448    0.0000 N   0  0  0  0  0  0  0  0  0  0  0  0
   -1.6709   -3.6374    0.0000 N   0  0  0  0  0  0  0  0  0  0  0  0
    1.9560   -4.7919    0.0000 C   0  0  3  0  0  0  0  0  0  0  0  0
    2.2110   -4.0073    0.0000 C   0  0  3  0  0  0  0  0  0  0  0  0
    1.1310   -4.7919    0.0000 C   0  0  3  0  0  0  0  0  0  0  0  0
    0.8761   -4.0073    0.0000 C   0  0  3  0  0  0  0  0  0  0  0  0
    2.9255   -2.7698    0.0000 C   0  0  0  0  0  0  0  0  0  0  0  0
    0.2927   -3.4239    0.0000 C   0  0  0  0  0  0  0  0  0  0  0  0
    2.7529   -4.5784    0.0000 C   0  0  0  0  0  0  0  0  0  0  0  0
    1.4965   -2.7698    0.0000 C   0  0  0  0  0  0  0  0  0  0  0  0
   -1.6709   -1.6457    0.0000 C   0  0  0  0  0  0  0  0  0  0  0  0
   -2.3853   -1.2332    0.0000 C   0  0  0  0  0  0  0  0  0  0  0  0
    1.4965   -1.9448    0.0000 C   0  0  0  0  0  0  0  0  0  0  0  0
    2.2110   -1.5323    0.0000 C   0  0  0  0  0  0  0  0  0  0  0  0
   -2.3853   -0.4082    0.0000 C   0  0  0  0  0  0  0  0  0  0  0  0
    3.6399   -3.1823    0.0000 C   0  0  0  0  0  0  0  0  0  0  0  0
   -1.6709   -4.4624    0.0000 C   0  0  3  0  0  0  0  0  0  0  0  0
   -0.9564   -1.2332    0.0000 C   0  0  0  0  0  0  0  0  0  0  0  0
   -3.0998   -1.6457    0.0000 C   0  0  0  0  0  0  0  0  0  0  0  0
   -1.6709    0.0043    0.0000 C   0  0  0  0  0  0  0  0  0  0  0  0
   -0.9564   -0.4082    0.0000 C   0  0  0  0  0  0  0  0  0  0  0  0
   -3.0998    0.0043    0.0000 C   0  0  0  0  0  0  0  0  0  0  0  0
   -2.3853   -4.8749    0.0000 C   0  0  0  0  0  0  0  0  0  0  0  0
   -3.8143   -1.2332    0.0000 C   0  0  0  0  0  0  0  0  0  0  0  0
   -3.8143   -0.4082    0.0000 C   0  0  0  0  0  0  0  0  0  0  0  0
   -0.9564   -4.8749    0.0000 C   0  0  0  0  0  0  0  0  0  0  0  0
   -3.0998   -6.1124    0.0000 C   0  0  0  0  0  0  0  0  0  0  0  0
   -3.8143   -5.6999    0.0000 C   0  0  0  0  0  0  0  0  0  0  0  0
   -3.8143   -4.8749    0.0000 C   0  0  0  0  0  0  0  0  0  0  0  0
   -4.5288   -6.1124    0.0000 C   0  0  0  0  0  0  0  0  0  0  0  0
   -4.5288   -5.2874    0.0000 C   0  0  0  0  0  0  0  0  0  0  0  0
  1  5  1  0  0  0  0
  1  6  1  0  0  0  0
  1  7  2  0  0  0  0
  1 13  1  0  0  0  0
 16  2  1  6  0  0  0
 15  3  1  6  0  0  0
  3 17  1  0  0  0  0
 14  4  1  6  0  0  0
  5 19  1  0  0  0  0
  6 22  1  0  0  0  0
  8 25  2  0  0  0  0
  9 34  1  0  0  0  0
  9 38  1  0  0  0  0
 10 34  2  0  0  0  0
 11 15  1  0  0  0  0
 11 18  1  0  0  0  0
 11 21  1  0  0  0  0
 12 18  1  0  0  0  0
 12 25  1  0  0  0  0
 13 28  1  0  0  0  0
 14 15  1  0  0  0  0
 14 16  1  0  0  0  0
 14 20  1  1  0  0  0
 16 17  1  0  0  0  0
 17 19  1  1  0  0  0
 18 27  2  0  0  0  0
 21 24  2  0  0  0  0
 22 23  1  0  0  0  0
 22 29  2  0  0  0  0
 23 26  2  0  0  0  0
 23 30  1  0  0  0  0
 24 25  1  0  0  0  0
 26 31  1  0  0  0  0
 26 33  1  0  0  0  0
 28 34  1  0  0  0  0
 28 37  1  1  0  0  0
 29 32  1  0  0  0  0
 30 35  2  0  0  0  0
 31 32  2  0  0  0  0
 33 36  2  0  0  0  0
 35 36  1  0  0  0  0
 38 39  1  0  0  0  0
 39 40  1  0  0  0  0
 39 41  1  0  0  0  0
 39 42  1  0  0  0  0
M  END
> <PUBCHEM_COMPOUND_ID_TYPE>
0

> <PUBCHEM_TOTAL_CHARGE>
0

> <PUBCHEM_SUBSTANCE_ID>
310947586

> <PUBCHEM_SUBSTANCE_VERSION>
1

> <PUBCHEM_EXT_DATASOURCE_NAME>
4488

> <PUBCHEM_EXT_DATASOURCE_REGID>
SCHEMBL16125749

> <PUBCHEM_SUBSTANCE_COMMENT>
InChI=1S/C29H37FN3O8P/c1-18(26(35)38-17-28(3,4)5)32-42(37,41-22-13-9-11-20-10-7-8-12-21(20)22)39-16-23-25(30)29(6,36)27(40-23)33-15-14-24(34)31-19(33)2/h7-15,18,23,25,27,36H,2,16-17H2,1,3-6H3,(H,31,34)(H,32,37)/t18-,23+,25+,27+,29+,42?/m0/s1
InChIKey=OEHAPYLTOVANCD-RLZAPYLOSA-N

> <PUBCHEM_SUBSTANCE_SYNONYM>
SCHEMBL16125749

> <PUBCHEM_XREF_EXT_ID>
SCHEMBL16125749

> <PUBCHEM_EXT_DATASOURCE_URL>
https://www.surechembl.org/

> <PUBCHEM_EXT_SUBSTANCE_URL>
https://www.surechembl.org/chemical/SCHEMBL16125749

> <PUBCHEM_CID_ASSOCIATIONS>
117613308  1

> <PUBCHEM_COORDINATE_TYPE>
1
3

> <PUBCHEM_BONDANNOTATIONS>
14  20  5
17  19  5
16  2  6
28  37  5
15  3  6
14  4  6

$$$$
