310943912
  -OEChem-07211613022D

 24 26  0     1  0  0  0  0  0999 V2000
   -1.6412    1.1379    0.0000 O   0  0  0  0  0  0  0  0  0  0  0  0
    0.6759   -1.7723    0.0000 N   0  0  0  0  0  0  0  0  0  0  0  0
    1.4758   -1.9515    0.0000 N   0  0  0  0  0  0  0  0  0  0  0  0
    2.2895    0.4758    0.0000 N   0  0  3  0  0  0  0  0  0  0  0  0
    3.5032    2.2964    0.0000 N   0  0  0  0  0  0  0  0  0  0  0  0
   -1.5585    0.3379    0.0000 C   0  0  0  0  0  0  0  0  0  0  0  0
    0.6206   -0.9310    0.0000 C   0  0  0  0  0  0  0  0  0  0  0  0
   -0.1242   -0.4896    0.0000 C   0  0  0  0  0  0  0  0  0  0  0  0
   -2.8549    0.6138    0.0000 C   0  0  0  0  0  0  0  0  0  0  0  0
   -2.3171    0.0069    0.0000 C   0  0  0  0  0  0  0  0  0  0  0  0
    1.3240   -0.5724    0.0000 C   0  0  0  0  0  0  0  0  0  0  0  0
   -1.5447   -0.5034    0.0000 C   0  0  0  0  0  0  0  0  0  0  0  0
   -0.8275    0.7378    0.0000 C   0  0  0  0  0  0  0  0  0  0  0  0
   -0.8275   -0.9172    0.0000 C   0  0  0  0  0  0  0  0  0  0  0  0
   -0.1242    0.3241    0.0000 C   0  0  0  0  0  0  0  0  0  0  0  0
   -2.4274    1.3447    0.0000 C   0  0  0  0  0  0  0  0  0  0  0  0
    1.8757   -1.1930    0.0000 C   0  0  0  0  0  0  0  0  0  0  0  0
    1.5172    0.2414    0.0000 C   0  0  0  0  0  0  0  0  0  0  0  0
   -3.3791   -0.0207    0.0000 C   0  0  0  0  0  0  0  0  0  0  0  0
   -3.5032    1.1241    0.0000 C   0  0  0  0  0  0  0  0  0  0  0  0
    0.0552   -2.2964    0.0000 C   0  0  0  0  0  0  0  0  0  0  0  0
    2.5102    1.3034    0.0000 C   0  0  0  0  0  0  0  0  0  0  0  0
    2.8826   -0.1172    0.0000 C   0  0  0  0  0  0  0  0  0  0  0  0
    3.2826    1.5102    0.0000 C   0  0  0  0  0  0  0  0  0  0  0  0
  6  1  1  1  0  0  0
  1 16  1  0  0  0  0
  2  3  1  0  0  0  0
  2  7  1  0  0  0  0
  2 21  1  0  0  0  0
  3 17  2  0  0  0  0
  4 18  1  0  0  0  0
  4 22  1  0  0  0  0
  4 23  1  0  0  0  0
  5 24  1  0  0  0  0
  6 10  1  0  0  0  0
  6 12  1  0  0  0  0
  6 13  1  0  0  0  0
  8  7  1  1  0  0  0
  7 11  2  0  0  0  0
  8 14  1  0  0  0  0
  8 15  1  0  0  0  0
  9 10  1  0  0  0  0
  9 16  1  0  0  0  0
  9 19  1  0  0  0  0
  9 20  1  0  0  0  0
 11 17  1  0  0  0  0
 11 18  1  0  0  0  0
 12 14  1  0  0  0  0
 13 15  1  0  0  0  0
 22 24  1  0  0  0  0
M  END
> <PUBCHEM_COMPOUND_ID_TYPE>
0

> <PUBCHEM_TOTAL_CHARGE>
0

> <PUBCHEM_SUBSTANCE_ID>
310943912

> <PUBCHEM_SUBSTANCE_VERSION>
1

> <PUBCHEM_EXT_DATASOURCE_NAME>
4488

> <PUBCHEM_EXT_DATASOURCE_REGID>
SCHEMBL16121983

> <PUBCHEM_SUBSTANCE_COMMENT>
InChI=1S/C19H34N4O/c1-18(2)13-19(24-14-18)7-5-15(6-8-19)17-16(11-21-23(17)4)12-22(3)10-9-20/h11,15H,5-10,12-14,20H2,1-4H3/t15-,19+
InChIKey=IVJNUKXBJCKVPD-GLRZTSSQSA-N

> <PUBCHEM_SUBSTANCE_SYNONYM>
SCHEMBL16121983

> <PUBCHEM_XREF_EXT_ID>
SCHEMBL16121983

> <PUBCHEM_EXT_DATASOURCE_URL>
https://www.surechembl.org/

> <PUBCHEM_EXT_SUBSTANCE_URL>
https://www.surechembl.org/chemical/SCHEMBL16121983

> <PUBCHEM_CID_ASSOCIATIONS>
117610227  1

> <PUBCHEM_COORDINATE_TYPE>
1
3

> <PUBCHEM_BONDANNOTATIONS>
6  1  5
8  7  5

$$$$
