310948937
  -OEChem-07211613022D

 53 55  0     1  0  0  0  0  0999 V2000
    3.0098    1.6535    0.0000 P   0  0  3  0  0  0  0  0  0  0  0  0
    5.9453   -0.6627    0.0000 F   0  0  0  0  0  0  0  0  0  0  0  0
    3.0098   -2.4710    0.0000 F   0  0  0  0  0  0  0  0  0  0  0  0
    5.9329    1.4925    0.0000 O   0  0  0  0  0  0  0  0  0  0  0  0
    4.7315   -0.3035    0.0000 O   0  0  0  0  0  0  0  0  0  0  0  0
    3.7158    1.2324    0.0000 O   0  0  0  0  0  0  0  0  0  0  0  0
    7.2335    2.2481    0.0000 O   0  0  0  0  0  0  0  0  0  0  0  0
    2.9974    0.8237    0.0000 O   0  0  0  0  0  0  0  0  0  0  0  0
    2.9974    2.4710    0.0000 O   0  0  0  0  0  0  0  0  0  0  0  0
   -0.5822    0.4149    0.0000 O   0  0  0  0  0  0  0  0  0  0  0  0
    7.2582    0.8237    0.0000 N   0  0  0  0  0  0  0  0  0  0  0  0
    8.4968    1.5421    0.0000 N   0  0  0  0  0  0  0  0  0  0  0  0
    2.3038    1.2448    0.0000 N   0  0  0  0  0  0  0  0  0  0  0  0
    9.8593    0.8237    0.0000 N   0  0  0  0  0  0  0  0  0  0  0  0
    0.1486    1.6535    0.0000 N   0  0  0  0  0  0  0  0  0  0  0  0
    5.9453    0.1672    0.0000 C   0  0  3  0  0  0  0  0  0  0  0  0
    6.4283    0.8360    0.0000 C   0  0  3  0  0  0  0  0  0  0  0  0
    5.1526    0.4149    0.0000 C   0  0  3  0  0  0  0  0  0  0  0  0
    5.1650    1.2448    0.0000 C   0  0  3  0  0  0  0  0  0  0  0  0
    7.6670    1.5421    0.0000 C   0  0  0  0  0  0  0  0  0  0  0  0
    6.6513   -0.2539    0.0000 C   0  0  0  0  0  0  0  0  0  0  0  0
    4.4466    1.6535    0.0000 C   0  0  0  0  0  0  0  0  0  0  0  0
    7.6670    0.1177    0.0000 C   0  0  0  0  0  0  0  0  0  0  0  0
    8.9056    0.8237    0.0000 C   0  0  0  0  0  0  0  0  0  0  0  0
    8.4968    0.1177    0.0000 C   0  0  0  0  0  0  0  0  0  0  0  0
    3.0098   -0.0062    0.0000 C   0  0  0  0  0  0  0  0  0  0  0  0
    1.5730    1.6535    0.0000 C   0  0  0  0  0  0  0  0  0  0  0  0
    2.3038   -0.4149    0.0000 C   0  0  0  0  0  0  0  0  0  0  0  0
    3.7282   -0.4149    0.0000 C   0  0  0  0  0  0  0  0  0  0  0  0
    2.3038   -1.2324    0.0000 C   0  0  0  0  0  0  0  0  0  0  0  0
    3.7282   -1.2324    0.0000 C   0  0  0  0  0  0  0  0  0  0  0  0
    3.0098   -1.6412    0.0000 C   0  0  0  0  0  0  0  0  0  0  0  0
    0.8794    1.2448    0.0000 C   0  0  0  0  0  0  0  0  0  0  0  0
   -0.5697    1.2572    0.0000 C   0  0  0  0  0  0  0  0  0  0  0  0
   -1.2882    1.6535    0.0000 C   0  0  0  0  0  0  0  0  0  0  0  0
   -1.9818    1.2448    0.0000 C   0  0  0  0  0  0  0  0  0  0  0  0
   -1.9942    0.4025    0.0000 C   0  0  0  0  0  0  0  0  0  0  0  0
   -2.7001    0.0062    0.0000 C   0  0  0  0  0  0  0  0  0  0  0  0
   -3.4309    0.4149    0.0000 C   0  0  0  0  0  0  0  0  0  0  0  0
   -3.4309    1.2448    0.0000 C   0  0  0  0  0  0  0  0  0  0  0  0
   -4.1369    1.6535    0.0000 C   0  0  0  0  0  0  0  0  0  0  0  0
   -4.8429    1.2448    0.0000 C   0  0  0  0  0  0  0  0  0  0  0  0
   -4.8553    0.4025    0.0000 C   0  0  0  0  0  0  0  0  0  0  0  0
   -5.5614    0.0062    0.0000 C   0  0  0  0  0  0  0  0  0  0  0  0
   -6.2921    0.4149    0.0000 C   0  0  0  0  0  0  0  0  0  0  0  0
   -6.2921    1.2448    0.0000 C   0  0  0  0  0  0  0  0  0  0  0  0
   -6.9981    1.6535    0.0000 C   0  0  0  0  0  0  0  0  0  0  0  0
   -7.7041    1.2448    0.0000 C   0  0  0  0  0  0  0  0  0  0  0  0
   -7.7165    0.4025    0.0000 C   0  0  0  0  0  0  0  0  0  0  0  0
   -8.4225    0.0062    0.0000 C   0  0  0  0  0  0  0  0  0  0  0  0
   -9.1409    0.4149    0.0000 C   0  0  0  0  0  0  0  0  0  0  0  0
   -9.1409    1.2324    0.0000 C   0  0  0  0  0  0  0  0  0  0  0  0
   -9.8593    1.6412    0.0000 C   0  0  0  0  0  0  0  0  0  0  0  0
  1  6  1  0  0  0  0
  1  8  1  0  0  0  0
  1  9  2  0  0  0  0
  1 13  1  0  0  0  0
 16  2  1  6  0  0  0
  3 32  1  0  0  0  0
 17  4  1  1  0  0  0
  4 19  1  0  0  0  0
 18  5  1  6  0  0  0
  6 22  1  0  0  0  0
  7 20  2  0  0  0  0
  8 26  1  0  0  0  0
 10 34  2  0  0  0  0
 11 17  1  0  0  0  0
 11 20  1  0  0  0  0
 11 23  1  0  0  0  0
 12 20  1  0  0  0  0
 12 24  2  0  0  0  0
 13 27  1  0  0  0  0
 14 24  1  0  0  0  0
 15 33  1  0  0  0  0
 15 34  1  0  0  0  0
 16 17  1  0  0  0  0
 16 18  1  0  0  0  0
 16 21  1  1  0  0  0
 18 19  1  0  0  0  0
 19 22  1  1  0  0  0
 23 25  2  0  0  0  0
 24 25  1  0  0  0  0
 26 28  2  0  0  0  0
 26 29  1  0  0  0  0
 27 33  1  0  0  0  0
 28 30  1  0  0  0  0
 29 31  2  0  0  0  0
 30 32  2  0  0  0  0
 31 32  1  0  0  0  0
 34 35  1  0  0  0  0
 35 36  1  0  0  0  0
 36 37  1  0  0  0  0
 37 38  1  0  0  0  0
 38 39  2  0  0  0  0
 39 40  1  0  0  0  0
 40 41  1  0  0  0  0
 41 42  2  0  0  0  0
 42 43  1  0  0  0  0
 43 44  1  0  0  0  0
 44 45  2  0  0  0  0
 45 46  1  0  0  0  0
 46 47  1  0  0  0  0
 47 48  2  0  0  0  0
 48 49  1  0  0  0  0
 49 50  1  0  0  0  0
 50 51  2  0  0  0  0
 51 52  1  0  0  0  0
 52 53  1  0  0  0  0
M  END
> <PUBCHEM_COMPOUND_ID_TYPE>
0

> <PUBCHEM_TOTAL_CHARGE>
0

> <PUBCHEM_SUBSTANCE_ID>
310948937

> <PUBCHEM_SUBSTANCE_VERSION>
1

> <PUBCHEM_EXT_DATASOURCE_NAME>
4488

> <PUBCHEM_EXT_DATASOURCE_REGID>
SCHEMBL16127124

> <PUBCHEM_SUBSTANCE_COMMENT>
InChI=1S/C38H52F2N5O7P/c1-3-4-5-6-7-8-9-10-11-12-13-14-15-16-17-18-19-20-34(46)42-26-27-43-53(49,52-31-23-21-30(39)22-24-31)50-29-32-35(47)38(2,40)36(51-32)45-28-25-33(41)44-37(45)48/h4-5,7-8,10-11,13-14,16-17,21-25,28,32,35-36,47H,3,6,9,12,15,18-20,26-27,29H2,1-2H3,(H,42,46)(H,43,49)(H2,41,44,48)/b5-4-,8-7-,11-10-,14-13-,17-16-/t32-,35-,36-,38-,53?/m1/s1
InChIKey=HSPUPAYAHOVVKP-XDMBZPTNSA-N

> <PUBCHEM_SUBSTANCE_SYNONYM>
SCHEMBL16127124

> <PUBCHEM_XREF_EXT_ID>
SCHEMBL16127124

> <PUBCHEM_EXT_DATASOURCE_URL>
https://www.surechembl.org/

> <PUBCHEM_EXT_SUBSTANCE_URL>
https://www.surechembl.org/chemical/SCHEMBL16127124

> <PUBCHEM_CID_ASSOCIATIONS>
86270599  1

> <PUBCHEM_COORDINATE_TYPE>
1
3

> <PUBCHEM_BONDANNOTATIONS>
16  21  5
19  22  5
16  2  6
17  4  5
18  5  6

$$$$
