310949922
  -OEChem-07211613022D

 31 35  0     1  0  0  0  0  0999 V2000
    2.6430    3.1538    0.0000 O   0  0  0  0  0  0  0  0  0  0  0  0
   -0.6142    1.5803    0.0000 N   0  0  0  0  0  0  0  0  0  0  0  0
   -0.6142    2.9191    0.0000 N   0  0  0  0  0  0  0  0  0  0  0  0
    1.1801    1.5803    0.0000 N   0  0  0  0  0  0  0  0  0  0  0  0
    0.1449   -0.7660    0.0000 N   0  0  0  0  0  0  0  0  0  0  0  0
   -0.1311    2.2704    0.0000 C   0  0  0  0  0  0  0  0  0  0  0  0
   -1.4147    1.8563    0.0000 C   0  0  0  0  0  0  0  0  0  0  0  0
   -1.4009    2.6707    0.0000 C   0  0  0  0  0  0  0  0  0  0  0  0
   -0.3658    0.8212    0.0000 C   0  0  0  0  0  0  0  0  0  0  0  0
    0.7108    2.2428    0.0000 C   0  0  3  0  0  0  0  0  0  0  0  0
   -2.1324    1.4423    0.0000 C   0  0  0  0  0  0  0  0  0  0  0  0
   -2.1324    3.0710    0.0000 C   0  0  0  0  0  0  0  0  0  0  0  0
   -0.9178    0.1863    0.0000 C   0  0  0  0  0  0  0  0  0  0  0  0
    0.4486    0.6280    0.0000 C   0  0  0  0  0  0  0  0  0  0  0  0
    1.1662    2.9191    0.0000 C   0  0  0  0  0  0  0  0  0  0  0  0
    1.2076   -1.7321    0.0000 C   0  0  0  0  0  0  0  0  0  0  0  0
    1.7598   -1.0973    0.0000 C   0  0  0  0  0  0  0  0  0  0  0  0
    1.9806    2.6707    0.0000 C   0  0  3  0  0  0  0  0  0  0  0  0
   -0.6556   -0.5866    0.0000 C   0  0  0  0  0  0  0  0  0  0  0  0
    0.6970   -0.1449    0.0000 C   0  0  0  0  0  0  0  0  0  0  0  0
   -2.8225    1.8426    0.0000 C   0  0  0  0  0  0  0  0  0  0  0  0
   -2.8225    2.6707    0.0000 C   0  0  0  0  0  0  0  0  0  0  0  0
    0.4072   -1.5527    0.0000 C   0  0  0  0  0  0  0  0  0  0  0  0
    1.9668    1.8426    0.0000 C   0  0  0  0  0  0  0  0  0  0  0  0
    1.4699   -2.4913    0.0000 C   0  0  0  0  0  0  0  0  0  0  0  0
    2.5741   -1.2904    0.0000 C   0  0  0  0  0  0  0  0  0  0  0  0
    2.2704   -2.6844    0.0000 C   0  0  0  0  0  0  0  0  0  0  0  0
    2.8225   -2.0772    0.0000 C   0  0  0  0  0  0  0  0  0  0  0  0
    1.1387   -0.5728    0.0000 C   0  0  0  0  0  0  0  0  0  0  0  0
    1.9254   -0.2967    0.0000 C   0  0  0  0  0  0  0  0  0  0  0  0
    0.9178   -3.1538    0.0000 C   0  0  0  0  0  0  0  0  0  0  0  0
 18  1  1  1  0  0  0
  2  6  1  0  0  0  0
  2  7  1  0  0  0  0
  2  9  1  0  0  0  0
  3  6  2  0  0  0  0
  3  8  1  0  0  0  0
  4 10  1  0  0  0  0
  4 24  1  0  0  0  0
  5 19  1  0  0  0  0
  5 20  1  0  0  0  0
  5 23  1  0  0  0  0
  6 10  1  0  0  0  0
  7  8  1  0  0  0  0
  7 11  2  0  0  0  0
  8 12  2  0  0  0  0
  9 13  1  0  0  0  0
  9 14  1  0  0  0  0
 10 15  1  6  0  0  0
 11 21  1  0  0  0  0
 12 22  1  0  0  0  0
 13 19  1  0  0  0  0
 14 20  1  0  0  0  0
 15 18  1  0  0  0  0
 16 17  1  0  0  0  0
 16 23  1  0  0  0  0
 16 25  2  0  0  0  0
 17 26  1  0  0  0  0
 17 29  1  0  0  0  0
 17 30  1  0  0  0  0
 18 24  1  0  0  0  0
 21 22  2  0  0  0  0
 25 27  1  0  0  0  0
 25 31  1  0  0  0  0
 26 28  1  0  0  0  0
 27 28  1  0  0  0  0
M  END
> <PUBCHEM_COMPOUND_ID_TYPE>
0

> <PUBCHEM_TOTAL_CHARGE>
0

> <PUBCHEM_SUBSTANCE_ID>
310949922

> <PUBCHEM_SUBSTANCE_VERSION>
1

> <PUBCHEM_EXT_DATASOURCE_NAME>
4488

> <PUBCHEM_EXT_DATASOURCE_REGID>
SCHEMBL16128145

> <PUBCHEM_SUBSTANCE_COMMENT>
InChI=1S/C26H38N4O/c1-18-7-6-12-26(2,3)21(18)17-29-13-10-19(11-14-29)30-24-9-5-4-8-22(24)28-25(30)23-15-20(31)16-27-23/h4-5,8-9,19-20,23,27,31H,6-7,10-17H2,1-3H3/t20-,23+/m1/s1
InChIKey=IEZQPZHGOPPXPM-OFNKIYASSA-N

> <PUBCHEM_SUBSTANCE_SYNONYM>
SCHEMBL16128145

> <PUBCHEM_XREF_EXT_ID>
SCHEMBL16128145

> <PUBCHEM_EXT_DATASOURCE_URL>
https://www.surechembl.org/

> <PUBCHEM_EXT_SUBSTANCE_URL>
https://www.surechembl.org/chemical/SCHEMBL16128145

> <PUBCHEM_CID_ASSOCIATIONS>
86273813  1

> <PUBCHEM_COORDINATE_TYPE>
1
3

> <PUBCHEM_BONDANNOTATIONS>
18  1  5
10  15  6

$$$$
