310929962
  -OEChem-07211613022D

 23 24  0     1  0  0  0  0  0999 V2000
    2.2296   -0.9012    0.0000 O   0  0  0  0  0  0  0  0  0  0  0  0
   -1.3428   -0.4887    0.0000 O   0  0  0  0  0  0  0  0  0  0  0  0
    1.5151    0.3363    0.0000 O   0  0  0  0  0  0  0  0  0  0  0  0
   -0.6283   -1.7262    0.0000 O   0  0  0  0  0  0  0  0  0  0  0  0
    0.8006   -0.9012    0.0000 N   0  0  0  0  0  0  0  0  0  0  0  0
    2.9441   -0.4887    0.0000 C   0  0  3  0  0  0  0  0  0  0  0  0
    3.7691   -0.4887    0.0000 C   0  0  3  0  0  0  0  0  0  0  0  0
    3.3566    0.2257    0.0000 C   0  0  0  0  0  0  0  0  0  0  0  0
   -2.0572   -0.9012    0.0000 C   0  0  0  0  0  0  0  0  0  0  0  0
    4.4835   -0.9012    0.0000 C   0  0  0  0  0  0  0  0  0  0  0  0
    1.5151   -0.4887    0.0000 C   0  0  0  0  0  0  0  0  0  0  0  0
   -0.6283   -0.9012    0.0000 C   0  0  0  0  0  0  0  0  0  0  0  0
   -1.5269   -1.5332    0.0000 C   0  0  0  0  0  0  0  0  0  0  0  0
   -2.8697   -1.0445    0.0000 C   0  0  0  0  0  0  0  0  0  0  0  0
    0.0862   -0.4887    0.0000 C   0  0  0  0  0  0  0  0  0  0  0  0
   -2.3394   -0.1260    0.0000 C   0  0  0  0  0  0  0  0  0  0  0  0
   -1.8091   -2.3085    0.0000 C   0  0  0  0  0  0  0  0  0  0  0  0
   -3.1519   -1.8197    0.0000 C   0  0  0  0  0  0  0  0  0  0  0  0
    5.1980   -0.4887    0.0000 C   0  0  0  0  0  0  0  0  0  0  0  0
   -2.6216   -2.4517    0.0000 C   0  0  0  0  0  0  0  0  0  0  0  0
    5.9125   -0.9012    0.0000 C   0  0  0  0  0  0  0  0  0  0  0  0
    6.6269   -0.4887    0.0000 C   0  0  0  0  0  0  0  0  0  0  0  0
    7.3414   -0.0762    0.0000 C   0  0  0  0  0  0  0  0  0  0  0  0
  6  1  1  6  0  0  0
  1 11  1  0  0  0  0
  2  9  1  0  0  0  0
  2 12  1  0  0  0  0
  3 11  2  0  0  0  0
  4 12  2  0  0  0  0
  5 11  1  0  0  0  0
  5 15  1  0  0  0  0
  6  7  1  0  0  0  0
  6  8  1  0  0  0  0
  7  8  1  0  0  0  0
  7 10  1  1  0  0  0
  9 13  1  0  0  0  0
  9 14  1  0  0  0  0
  9 16  1  0  0  0  0
 10 19  1  0  0  0  0
 12 15  1  0  0  0  0
 13 17  1  0  0  0  0
 14 18  1  0  0  0  0
 17 20  1  0  0  0  0
 18 20  1  0  0  0  0
 19 21  1  0  0  0  0
 21 22  1  0  0  0  0
 22 23  3  0  0  0  0
M  END
> <PUBCHEM_COMPOUND_ID_TYPE>
0

> <PUBCHEM_TOTAL_CHARGE>
0

> <PUBCHEM_SUBSTANCE_ID>
310929962

> <PUBCHEM_SUBSTANCE_VERSION>
1

> <PUBCHEM_EXT_DATASOURCE_NAME>
4488

> <PUBCHEM_EXT_DATASOURCE_REGID>
SCHEMBL16107190

> <PUBCHEM_SUBSTANCE_COMMENT>
InChI=1S/C18H27NO4/c1-3-4-6-9-14-12-15(14)22-17(21)19-13-16(20)23-18(2)10-7-5-8-11-18/h1,14-15H,4-13H2,2H3,(H,19,21)/t14-,15-/m1/s1
InChIKey=KOYDSFUGBQMGJO-HUUCEWRRSA-N

> <PUBCHEM_SUBSTANCE_SYNONYM>
SCHEMBL16107190

> <PUBCHEM_XREF_EXT_ID>
SCHEMBL16107190

> <PUBCHEM_EXT_DATASOURCE_URL>
https://www.surechembl.org/

> <PUBCHEM_EXT_SUBSTANCE_URL>
https://www.surechembl.org/chemical/SCHEMBL16107190

> <PUBCHEM_CID_ASSOCIATIONS>
117599221  1

> <PUBCHEM_COORDINATE_TYPE>
1
3

> <PUBCHEM_BONDANNOTATIONS>
6  1  6
7  10  5

$$$$
