310935054
  -OEChem-07211613022D

 35 38  0     1  0  0  0  0  0999 V2000
    0.8545   -2.1509    0.0000 F   0  0  0  0  0  0  0  0  0  0  0  0
    1.6795   -3.5652    0.0000 O   0  0  0  0  0  0  0  0  0  0  0  0
    1.6795   -0.7071    0.0000 O   0  0  0  0  0  0  0  0  0  0  0  0
    2.0920   -5.7455    0.0000 O   0  0  0  0  0  0  0  0  0  0  0  0
    0.8545   -5.0089    0.0000 O   0  0  0  0  0  0  0  0  0  0  0  0
    6.8946   -3.3000    0.0000 O   0  0  0  0  0  0  0  0  0  0  0  0
    6.1580   -2.0625    0.0000 O   0  0  0  0  0  0  0  0  0  0  0  0
    4.5670   -4.3017    0.0000 N   0  0  0  0  0  0  0  0  0  0  0  0
    5.3919   -4.0955    0.0000 N   0  0  0  0  0  0  0  0  0  0  0  0
    3.3295   -3.5946    0.0000 C   0  0  0  0  0  0  0  0  0  0  0  0
    4.1545   -3.5946    0.0000 C   0  0  0  0  0  0  0  0  0  0  0  0
    2.9170   -4.3017    0.0000 C   0  0  0  0  0  0  0  0  0  0  0  0
    2.9170   -2.8580    0.0000 C   0  0  0  0  0  0  0  0  0  0  0  0
    3.3295   -5.0089    0.0000 C   0  0  0  0  0  0  0  0  0  0  0  0
    3.3295   -2.1509    0.0000 C   0  0  0  0  0  0  0  0  0  0  0  0
    2.0920   -4.3017    0.0000 C   0  0  3  0  0  0  0  0  0  0  0  0
    4.7142   -2.9464    0.0000 C   0  0  0  0  0  0  0  0  0  0  0  0
    4.1545   -5.0089    0.0000 C   0  0  0  0  0  0  0  0  0  0  0  0
    2.9170   -1.4143    0.0000 C   0  0  0  0  0  0  0  0  0  0  0  0
    5.4509   -3.3000    0.0000 C   0  0  0  0  0  0  0  0  0  0  0  0
    2.0920   -2.8580    0.0000 C   0  0  0  0  0  0  0  0  0  0  0  0
    2.0920   -1.4143    0.0000 C   0  0  0  0  0  0  0  0  0  0  0  0
    1.6795   -2.1509    0.0000 C   0  0  0  0  0  0  0  0  0  0  0  0
    1.6795   -5.0089    0.0000 C   0  0  0  0  0  0  0  0  0  0  0  0
    6.1580   -2.8580    0.0000 C   0  0  0  0  0  0  0  0  0  0  0  0
    3.3295   -0.7071    0.0000 C   0  0  0  0  0  0  0  0  0  0  0  0
    3.0642   -5.8928    0.0000 C   0  0  0  0  0  0  0  0  0  0  0  0
    4.1545   -2.1509    0.0000 C   0  0  0  0  0  0  0  0  0  0  0  0
    0.8545   -3.5652    0.0000 C   0  0  0  0  0  0  0  0  0  0  0  0
    2.9170    0.0000    0.0000 C   0  0  0  0  0  0  0  0  0  0  0  0
    2.0920    0.0000    0.0000 C   0  0  0  0  0  0  0  0  0  0  0  0
    0.0000   -3.5357    0.0000 C   0  0  0  0  0  0  0  0  0  0  0  0
    0.8545   -2.7402    0.0000 C   0  0  0  0  0  0  0  0  0  0  0  0
    0.8250   -4.3902    0.0000 C   0  0  0  0  0  0  0  0  0  0  0  0
    2.9170   -5.7455    0.0000 C   0  0  0  0  0  0  0  0  0  0  0  0
  1 23  1  0  0  0  0
 16  2  1  1  0  0  0
  2 29  1  0  0  0  0
  3 22  1  0  0  0  0
  3 31  1  0  0  0  0
  4 24  1  0  0  0  0
  4 35  1  0  0  0  0
  5 24  2  0  0  0  0
  6 25  2  0  0  0  0
  7 25  1  0  0  0  0
  8  9  1  0  0  0  0
  8 11  1  0  0  0  0
  8 18  1  0  0  0  0
  9 20  2  0  0  0  0
 10 11  1  0  0  0  0
 10 12  2  0  0  0  0
 10 13  1  0  0  0  0
 11 17  2  0  0  0  0
 12 14  1  0  0  0  0
 12 16  1  0  0  0  0
 13 15  2  0  0  0  0
 13 21  1  0  0  0  0
 14 18  2  0  0  0  0
 14 27  1  0  0  0  0
 15 19  1  0  0  0  0
 15 28  1  0  0  0  0
 16 24  1  0  0  0  0
 17 20  1  0  0  0  0
 19 22  2  0  0  0  0
 19 26  1  0  0  0  0
 20 25  1  0  0  0  0
 21 23  2  0  0  0  0
 22 23  1  0  0  0  0
 26 30  1  0  0  0  0
 29 32  1  0  0  0  0
 29 33  1  0  0  0  0
 29 34  1  0  0  0  0
 30 31  1  0  0  0  0
M  END
> <PUBCHEM_COMPOUND_ID_TYPE>
0

> <PUBCHEM_TOTAL_CHARGE>
0

> <PUBCHEM_SUBSTANCE_ID>
310935054

> <PUBCHEM_SUBSTANCE_VERSION>
1

> <PUBCHEM_EXT_DATASOURCE_NAME>
4488

> <PUBCHEM_EXT_DATASOURCE_REGID>
SCHEMBL16112574

> <PUBCHEM_SUBSTANCE_COMMENT>
InChI=1S/C26H29FN2O6/c1-13-12-29-19(11-18(28-29)24(30)31)21(20(13)23(25(32)33-6)35-26(3,4)5)16-10-17(27)22-15(14(16)2)8-7-9-34-22/h10-12,23H,7-9H2,1-6H3,(H,30,31)/t23-/m0/s1
InChIKey=CEZPGBICCLJPGX-QHCPKHFHSA-N

> <PUBCHEM_SUBSTANCE_SYNONYM>
SCHEMBL16112574

> <PUBCHEM_XREF_EXT_ID>
SCHEMBL16112574

> <PUBCHEM_EXT_DATASOURCE_URL>
https://www.surechembl.org/

> <PUBCHEM_EXT_SUBSTANCE_URL>
https://www.surechembl.org/chemical/SCHEMBL16112574

> <PUBCHEM_CID_ASSOCIATIONS>
117603154  1

> <PUBCHEM_COORDINATE_TYPE>
1
3

> <PUBCHEM_BONDANNOTATIONS>
16  2  5

$$$$
