310942783
  -OEChem-07211613022D

 23 26  0     1  0  0  0  0  0999 V2000
   -0.5917    2.5716    0.0000 Br  0  0  0  0  0  0  0  0  0  0  0  0
    1.4110    2.7992    0.0000 Cl  0  0  0  0  0  0  0  0  0  0  0  0
   -0.7282    0.1441    0.0000 O   0  0  0  0  0  0  0  0  0  0  0  0
   -0.0455   -1.9041    0.0000 O   0  0  0  0  0  0  0  0  0  0  0  0
   -1.3655   -1.9193    0.0000 O   0  0  0  0  0  0  0  0  0  0  0  0
   -2.1241    0.8572    0.0000 O   0  0  0  0  0  0  0  0  0  0  0  0
   -0.0455    0.4779    0.0000 N   0  0  0  0  0  0  0  0  0  0  0  0
    1.4110    0.3413    0.0000 N   0  0  0  0  0  0  0  0  0  0  0  0
    2.1241    1.5703    0.0000 N   0  0  0  0  0  0  0  0  0  0  0  0
   -0.0758   -0.2959    0.0000 C   0  0  3  0  0  0  0  0  0  0  0  0
   -0.3035   -1.1000    0.0000 C   0  0  3  0  0  0  0  0  0  0  0  0
   -1.1379   -1.1000    0.0000 C   0  0  3  0  0  0  0  0  0  0  0  0
    0.6979    0.7662    0.0000 C   0  0  0  0  0  0  0  0  0  0  0  0
   -1.3806   -0.3413    0.0000 C   0  0  3  0  0  0  0  0  0  0  0  0
    0.7131    1.5855    0.0000 C   0  0  0  0  0  0  0  0  0  0  0  0
   -0.7131   -2.3593    0.0000 C   0  0  0  0  0  0  0  0  0  0  0  0
   -0.0758    1.8434    0.0000 C   0  0  0  0  0  0  0  0  0  0  0  0
   -0.5310    1.1455    0.0000 C   0  0  0  0  0  0  0  0  0  0  0  0
    1.4110    1.9800    0.0000 C   0  0  0  0  0  0  0  0  0  0  0  0
   -1.4110    0.4779    0.0000 C   0  0  0  0  0  0  0  0  0  0  0  0
   -1.4110   -2.7992    0.0000 C   0  0  0  0  0  0  0  0  0  0  0  0
    0.0152   -2.7689    0.0000 C   0  0  0  0  0  0  0  0  0  0  0  0
    2.1241    0.7662    0.0000 C   0  0  0  0  0  0  0  0  0  0  0  0
  1 17  1  0  0  0  0
  2 19  1  0  0  0  0
 10  3  1  6  0  0  0
  3 14  1  0  0  0  0
 11  4  1  6  0  0  0
  4 16  1  0  0  0  0
 12  5  1  6  0  0  0
  5 16  1  0  0  0  0
  6 20  1  0  0  0  0
  7 10  1  0  0  0  0
  7 13  1  0  0  0  0
  7 18  1  0  0  0  0
  8 13  1  0  0  0  0
  8 23  2  0  0  0  0
  9 19  2  0  0  0  0
  9 23  1  0  0  0  0
 10 11  1  0  0  0  0
 11 12  1  0  0  0  0
 12 14  1  0  0  0  0
 13 15  2  0  0  0  0
 14 20  1  1  0  0  0
 15 17  1  0  0  0  0
 15 19  1  0  0  0  0
 16 21  1  0  0  0  0
 16 22  1  0  0  0  0
 17 18  2  0  0  0  0
M  END
> <PUBCHEM_COMPOUND_ID_TYPE>
0

> <PUBCHEM_TOTAL_CHARGE>
0

> <PUBCHEM_SUBSTANCE_ID>
310942783

> <PUBCHEM_SUBSTANCE_VERSION>
1

> <PUBCHEM_EXT_DATASOURCE_NAME>
4488

> <PUBCHEM_EXT_DATASOURCE_REGID>
SCHEMBL16120836

> <PUBCHEM_SUBSTANCE_COMMENT>
InChI=1S/C14H15BrClN3O4/c1-14(2)22-9-7(4-20)21-13(10(9)23-14)19-3-6(15)8-11(16)17-5-18-12(8)19/h3,5,7,9-10,13,20H,4H2,1-2H3/t7-,9-,10-,13-/m1/s1
InChIKey=LDQADULXXJZMDM-QYVSTXNMSA-N

> <PUBCHEM_SUBSTANCE_SYNONYM>
SCHEMBL16120836

> <PUBCHEM_XREF_EXT_ID>
SCHEMBL16120836

> <PUBCHEM_EXT_DATASOURCE_URL>
https://www.surechembl.org/

> <PUBCHEM_EXT_SUBSTANCE_URL>
https://www.surechembl.org/chemical/SCHEMBL16120836

> <PUBCHEM_CID_ASSOCIATIONS>
117609289  1

> <PUBCHEM_COORDINATE_TYPE>
1
3

> <PUBCHEM_BONDANNOTATIONS>
14  20  5
10  3  6
11  4  6
12  5  6

$$$$
