310933364
  -OEChem-07211613022D

 15 16  0     0  0  0  0  0  0999 V2000
    2.1200   -2.4646    0.0000 Br  0  0  0  0  0  0  0  0  0  0  0  0
    3.9751   -2.3585    0.0000 F   0  0  0  0  0  0  0  0  0  0  0  0
    3.9751   -0.9275    0.0000 F   0  0  0  0  0  0  0  0  0  0  0  0
    3.1536   -2.3585    0.0000 F   0  0  0  0  0  0  0  0  0  0  0  0
    0.7288    0.0000    0.0000 N   0  0  0  0  0  0  0  0  0  0  0  0
    2.8488   -1.2323    0.0000 C   0  0  0  0  0  0  0  0  0  0  0  0
    2.1333   -1.6430    0.0000 C   0  0  0  0  0  0  0  0  0  0  0  0
    1.4443   -1.2323    0.0000 C   0  0  0  0  0  0  0  0  0  0  0  0
    3.5643   -1.6430    0.0000 C   0  0  0  0  0  0  0  0  0  0  0  0
    1.4443   -0.4108    0.0000 C   0  0  0  0  0  0  0  0  0  0  0  0
    2.8488   -0.4108    0.0000 C   0  0  0  0  0  0  0  0  0  0  0  0
    2.1333    0.0000    0.0000 C   0  0  0  0  0  0  0  0  0  0  0  0
    0.7288   -1.6430    0.0000 C   0  0  0  0  0  0  0  0  0  0  0  0
    0.0000   -1.2323    0.0000 C   0  0  0  0  0  0  0  0  0  0  0  0
    0.0000   -0.4108    0.0000 C   0  0  0  0  0  0  0  0  0  0  0  0
  1  7  1  0  0  0  0
  2  9  1  0  0  0  0
  3  9  1  0  0  0  0
  4  9  1  0  0  0  0
  5 10  2  0  0  0  0
  5 15  1  0  0  0  0
  6  7  2  0  0  0  0
  6  9  1  0  0  0  0
  6 11  1  0  0  0  0
  7  8  1  0  0  0  0
  8 10  1  0  0  0  0
  8 13  2  0  0  0  0
 10 12  1  0  0  0  0
 11 12  2  0  0  0  0
 13 14  1  0  0  0  0
 14 15  2  0  0  0  0
M  END
> <PUBCHEM_COMPOUND_ID_TYPE>
0

> <PUBCHEM_TOTAL_CHARGE>
0

> <PUBCHEM_SUBSTANCE_ID>
310933364

> <PUBCHEM_SUBSTANCE_VERSION>
1

> <PUBCHEM_EXT_DATASOURCE_NAME>
4488

> <PUBCHEM_EXT_DATASOURCE_REGID>
SCHEMBL16110778

> <PUBCHEM_SUBSTANCE_COMMENT>
InChI=1S/C10H5BrF3N/c11-9-6-2-1-5-15-8(6)4-3-7(9)10(12,13)14/h1-5H
InChIKey=LMMITLHJIWHUDR-UHFFFAOYSA-N

> <PUBCHEM_SUBSTANCE_SYNONYM>
SCHEMBL16110778

> <PUBCHEM_XREF_EXT_ID>
SCHEMBL16110778

> <PUBCHEM_EXT_DATASOURCE_URL>
https://www.surechembl.org/

> <PUBCHEM_EXT_SUBSTANCE_URL>
https://www.surechembl.org/chemical/SCHEMBL16110778

> <PUBCHEM_CID_ASSOCIATIONS>
117601775  1

> <PUBCHEM_COORDINATE_TYPE>
1
3

$$$$
