310930872
  -OEChem-07211613022D

 34 39  0     1  0  0  0  0  0999 V2000
    0.7144    2.1147    0.0000 O   0  0  0  0  0  0  0  0  0  0  0  0
    2.7346    3.6298    0.0000 O   0  0  0  0  0  0  0  0  0  0  0  0
    0.0000    3.3522    0.0000 O   0  0  0  0  0  0  0  0  0  0  0  0
    2.6577    5.0979    0.0000 O   0  0  0  0  0  0  0  0  0  0  0  0
    1.4290    3.3522    0.0000 N   0  0  0  0  0  0  0  0  0  0  0  0
    0.0000    0.8772    0.0000 C   0  0  0  0  0  0  0  0  0  0  0  0
    0.6674    0.3923    0.0000 C   0  0  0  0  0  0  0  0  0  0  0  0
   -0.6674    0.3923    0.0000 C   0  0  0  0  0  0  0  0  0  0  0  0
    0.4125   -0.3923    0.0000 C   0  0  0  0  0  0  0  0  0  0  0  0
   -0.4125   -0.3923    0.0000 C   0  0  0  0  0  0  0  0  0  0  0  0
    1.5152    4.1727    0.0000 C   0  0  3  0  0  0  0  0  0  0  0  0
    0.0000    1.7022    0.0000 C   0  0  0  0  0  0  0  0  0  0  0  0
    1.4744    0.5638    0.0000 C   0  0  0  0  0  0  0  0  0  0  0  0
   -1.4744    0.5638    0.0000 C   0  0  0  0  0  0  0  0  0  0  0  0
    0.9645   -1.0054    0.0000 C   0  0  0  0  0  0  0  0  0  0  0  0
   -0.9645   -1.0054    0.0000 C   0  0  0  0  0  0  0  0  0  0  0  0
    0.7144    2.9397    0.0000 C   0  0  0  0  0  0  0  0  0  0  0  0
    2.3221    4.3442    0.0000 C   0  0  0  0  0  0  0  0  0  0  0  0
    1.0736    5.5317    0.0000 C   0  0  0  0  0  0  0  0  0  0  0  0
    0.9021    4.7248    0.0000 C   0  0  0  0  0  0  0  0  0  0  0  0
    0.4605    6.0837    0.0000 C   0  0  0  0  0  0  0  0  0  0  0  0
    2.1826    3.0167    0.0000 C   0  0  0  0  0  0  0  0  0  0  0  0
    2.0264   -0.0493    0.0000 C   0  0  0  0  0  0  0  0  0  0  0  0
   -2.0264   -0.0493    0.0000 C   0  0  0  0  0  0  0  0  0  0  0  0
    1.7715   -0.8339    0.0000 C   0  0  0  0  0  0  0  0  0  0  0  0
   -1.7715   -0.8339    0.0000 C   0  0  0  0  0  0  0  0  0  0  0  0
    0.6321    6.8907    0.0000 C   0  0  0  0  0  0  0  0  0  0  0  0
    1.8583    5.7867    0.0000 C   0  0  0  0  0  0  0  0  0  0  0  0
   -0.3241    5.8288    0.0000 C   0  0  0  0  0  0  0  0  0  0  0  0
    1.4166    7.1457    0.0000 C   0  0  0  0  0  0  0  0  0  0  0  0
    2.0297    6.5936    0.0000 C   0  0  0  0  0  0  0  0  0  0  0  0
    0.0190    7.4427    0.0000 C   0  0  0  0  0  0  0  0  0  0  0  0
   -0.9372    6.3808    0.0000 C   0  0  0  0  0  0  0  0  0  0  0  0
   -0.7657    7.1878    0.0000 C   0  0  0  0  0  0  0  0  0  0  0  0
  1 12  1  0  0  0  0
  1 17  1  0  0  0  0
  2 18  1  0  0  0  0
  2 22  1  0  0  0  0
  3 17  2  0  0  0  0
  4 18  2  0  0  0  0
  5 11  1  0  0  0  0
  5 17  1  0  0  0  0
  5 22  1  0  0  0  0
  6  7  1  0  0  0  0
  6  8  1  0  0  0  0
  6 12  1  0  0  0  0
  7  9  2  0  0  0  0
  7 13  1  0  0  0  0
  8 10  2  0  0  0  0
  8 14  1  0  0  0  0
  9 10  1  0  0  0  0
  9 15  1  0  0  0  0
 10 16  1  0  0  0  0
 11 18  1  0  0  0  0
 11 20  1  1  0  0  0
 13 23  2  0  0  0  0
 14 24  2  0  0  0  0
 15 25  2  0  0  0  0
 16 26  2  0  0  0  0
 19 20  1  0  0  0  0
 19 21  2  0  0  0  0
 19 28  1  0  0  0  0
 21 27  1  0  0  0  0
 21 29  1  0  0  0  0
 23 25  1  0  0  0  0
 24 26  1  0  0  0  0
 27 30  2  0  0  0  0
 27 32  1  0  0  0  0
 28 31  2  0  0  0  0
 29 33  2  0  0  0  0
 30 31  1  0  0  0  0
 32 34  2  0  0  0  0
 33 34  1  0  0  0  0
M  END
> <PUBCHEM_COMPOUND_ID_TYPE>
0

> <PUBCHEM_TOTAL_CHARGE>
0

> <PUBCHEM_SUBSTANCE_ID>
310930872

> <PUBCHEM_SUBSTANCE_VERSION>
1

> <PUBCHEM_EXT_DATASOURCE_NAME>
4488

> <PUBCHEM_EXT_DATASOURCE_REGID>
SCHEMBL16108170

> <PUBCHEM_SUBSTANCE_COMMENT>
InChI=1S/C29H23NO4/c31-28-27(16-20-10-7-9-19-8-1-2-11-21(19)20)30(18-34-28)29(32)33-17-26-24-14-5-3-12-22(24)23-13-4-6-15-25(23)26/h1-15,26-27H,16-18H2/t27-/m0/s1
InChIKey=WJFNEXTWVZUKFC-MHZLTWQESA-N

> <PUBCHEM_SUBSTANCE_SYNONYM>
SCHEMBL16108170

> <PUBCHEM_XREF_EXT_ID>
SCHEMBL16108170

> <PUBCHEM_EXT_DATASOURCE_URL>
https://www.surechembl.org/

> <PUBCHEM_EXT_SUBSTANCE_URL>
https://www.surechembl.org/chemical/SCHEMBL16108170

> <PUBCHEM_CID_ASSOCIATIONS>
117599850  1

> <PUBCHEM_COORDINATE_TYPE>
1
3

> <PUBCHEM_BONDANNOTATIONS>
11  20  5

$$$$
