310945415
  -OEChem-07211613022D

 24 27  0     0  0  0  0  0  0999 V2000
    2.5814    3.0447    0.0000 F   0  0  0  0  0  0  0  0  0  0  0  0
   -2.5814    1.4709    0.0000 O   0  0  0  0  0  0  0  0  0  0  0  0
   -0.5075   -3.0447    0.0000 O   0  0  0  0  0  0  0  0  0  0  0  0
    0.2427    0.7207    0.0000 N   0  0  0  0  0  0  0  0  0  0  0  0
    2.2725    1.6474    0.0000 N   0  0  0  0  0  0  0  0  0  0  0  0
   -0.5222   -1.3826    0.0000 N   0  0  0  0  0  0  0  0  0  0  0  0
    0.9046    1.2208    0.0000 C   0  0  0  0  0  0  0  0  0  0  0  0
    0.6545    1.9710    0.0000 C   0  0  0  0  0  0  0  0  0  0  0  0
   -0.1692    2.0004    0.0000 C   0  0  0  0  0  0  0  0  0  0  0  0
   -0.4192    1.2061    0.0000 C   0  0  0  0  0  0  0  0  0  0  0  0
    1.7283    1.0296    0.0000 C   0  0  0  0  0  0  0  0  0  0  0  0
    1.2134    2.6034    0.0000 C   0  0  0  0  0  0  0  0  0  0  0  0
   -1.2282    1.0443    0.0000 C   0  0  0  0  0  0  0  0  0  0  0  0
   -0.7134    2.6034    0.0000 C   0  0  0  0  0  0  0  0  0  0  0  0
    0.2280   -0.1471    0.0000 C   0  0  0  0  0  0  0  0  0  0  0  0
    2.0224    2.4417    0.0000 C   0  0  0  0  0  0  0  0  0  0  0  0
   -1.7724    1.6474    0.0000 C   0  0  0  0  0  0  0  0  0  0  0  0
   -1.5224    2.4270    0.0000 C   0  0  0  0  0  0  0  0  0  0  0  0
   -0.5075   -0.5443    0.0000 C   0  0  0  0  0  0  0  0  0  0  0  0
    2.0372    0.1618    0.0000 C   0  0  0  0  0  0  0  0  0  0  0  0
   -1.2282   -1.7798    0.0000 C   0  0  0  0  0  0  0  0  0  0  0  0
    0.1985   -1.7944    0.0000 C   0  0  0  0  0  0  0  0  0  0  0  0
   -1.2282   -2.6182    0.0000 C   0  0  0  0  0  0  0  0  0  0  0  0
    0.1985   -2.6182    0.0000 C   0  0  0  0  0  0  0  0  0  0  0  0
  1 16  1  0  0  0  0
  2 17  1  0  0  0  0
  3 23  1  0  0  0  0
  3 24  1  0  0  0  0
  4  7  1  0  0  0  0
  4 10  1  0  0  0  0
  4 15  1  0  0  0  0
  5 11  2  0  0  0  0
  5 16  1  0  0  0  0
  6 19  1  0  0  0  0
  6 21  1  0  0  0  0
  6 22  1  0  0  0  0
  7  8  2  0  0  0  0
  7 11  1  0  0  0  0
  8  9  1  0  0  0  0
  8 12  1  0  0  0  0
  9 10  2  0  0  0  0
  9 14  1  0  0  0  0
 10 13  1  0  0  0  0
 11 20  1  0  0  0  0
 12 16  2  0  0  0  0
 13 17  2  0  0  0  0
 14 18  2  0  0  0  0
 15 19  1  0  0  0  0
 17 18  1  0  0  0  0
 21 23  1  0  0  0  0
 22 24  1  0  0  0  0
M  END
> <PUBCHEM_COMPOUND_ID_TYPE>
0

> <PUBCHEM_TOTAL_CHARGE>
0

> <PUBCHEM_SUBSTANCE_ID>
310945415

> <PUBCHEM_SUBSTANCE_VERSION>
1

> <PUBCHEM_EXT_DATASOURCE_NAME>
4488

> <PUBCHEM_EXT_DATASOURCE_REGID>
SCHEMBL16123513

> <PUBCHEM_SUBSTANCE_COMMENT>
InChI=1S/C18H20FN3O2/c1-12-18-15(11-17(19)20-12)14-3-2-13(23)10-16(14)22(18)5-4-21-6-8-24-9-7-21/h2-3,10-11,23H,4-9H2,1H3
InChIKey=KTHJIQPLFBLRAP-UHFFFAOYSA-N

> <PUBCHEM_SUBSTANCE_SYNONYM>
SCHEMBL16123513

> <PUBCHEM_XREF_EXT_ID>
SCHEMBL16123513

> <PUBCHEM_EXT_DATASOURCE_URL>
https://www.surechembl.org/

> <PUBCHEM_EXT_SUBSTANCE_URL>
https://www.surechembl.org/chemical/SCHEMBL16123513

> <PUBCHEM_CID_ASSOCIATIONS>
117611461  1

> <PUBCHEM_COORDINATE_TYPE>
1
3

$$$$
