310945795
  -OEChem-07211613022D

 40 43  0     1  0  0  0  0  0999 V2000
    4.0323    0.6859    0.0000 O   0  0  0  0  0  0  0  0  0  0  0  0
    2.8961   -1.2818    0.0000 O   0  0  0  0  0  0  0  0  0  0  0  0
    0.7345    0.7967    0.0000 O   0  0  0  0  0  0  0  0  0  0  0  0
   -1.4272   -1.2818    0.0000 O   0  0  0  0  0  0  0  0  0  0  0  0
   -4.3095   -1.2818    0.0000 O   0  0  0  0  0  0  0  0  0  0  0  0
    2.8961   -2.9446    0.0000 O   0  0  0  0  0  0  0  0  0  0  0  0
   -2.1479   -2.5289    0.0000 O   0  0  0  0  0  0  0  0  0  0  0  0
    1.4550   -0.4365    0.0000 N   0  0  0  0  0  0  0  0  0  0  0  0
   -2.8545   -0.4365    0.0000 N   0  0  3  0  0  0  0  0  0  0  0  0
   -0.7067   -0.0208    0.0000 N   0  0  0  0  0  0  0  0  0  0  0  0
    3.6028   -0.0070    0.0000 C   0  0  3  0  0  0  0  0  0  0  0  0
    2.8822   -0.4226    0.0000 C   0  0  0  0  0  0  0  0  0  0  0  0
    3.2148    0.6859    0.0000 C   0  0  0  0  0  0  0  0  0  0  0  0
    2.1617   -0.0346    0.0000 C   0  0  3  0  0  0  0  0  0  0  0  0
    4.3095   -0.4226    0.0000 C   0  0  0  0  0  0  0  0  0  0  0  0
    2.1755    1.2956    0.0000 C   0  0  0  0  0  0  0  0  0  0  0  0
    0.7205   -0.0485    0.0000 C   0  0  0  0  0  0  0  0  0  0  0  0
    0.0277   -0.4365    0.0000 C   0  0  3  0  0  0  0  0  0  0  0  0
    1.4412    1.7252    0.0000 C   0  0  0  0  0  0  0  0  0  0  0  0
   -2.1479   -0.0208    0.0000 C   0  0  3  0  0  0  0  0  0  0  0  0
   -1.4134   -0.4226    0.0000 C   0  0  0  0  0  0  0  0  0  0  0  0
    0.0138   -1.2679    0.0000 C   0  0  0  0  0  0  0  0  0  0  0  0
   -2.8822   -1.2679    0.0000 C   0  0  3  0  0  0  0  0  0  0  0  0
    0.7483   -1.6836    0.0000 C   0  0  0  0  0  0  0  0  0  0  0  0
   -3.5751   -0.0346    0.0000 C   0  0  0  0  0  0  0  0  0  0  0  0
    1.4550    2.5427    0.0000 C   0  0  0  0  0  0  0  0  0  0  0  0
    0.7483    1.3095    0.0000 C   0  0  0  0  0  0  0  0  0  0  0  0
   -3.5612   -1.6836    0.0000 C   0  0  0  0  0  0  0  0  0  0  0  0
    0.7483   -2.5150    0.0000 C   0  0  0  0  0  0  0  0  0  0  0  0
    1.4688   -1.2818    0.0000 C   0  0  0  0  0  0  0  0  0  0  0  0
   -2.1339    0.7967    0.0000 C   0  0  0  0  0  0  0  0  0  0  0  0
   -2.1339   -1.6974    0.0000 C   0  0  0  0  0  0  0  0  0  0  0  0
   -4.2956   -0.4365    0.0000 C   0  0  0  0  0  0  0  0  0  0  0  0
    0.7345    2.9446    0.0000 C   0  0  0  0  0  0  0  0  0  0  0  0
    0.0277    1.7252    0.0000 C   0  0  0  0  0  0  0  0  0  0  0  0
    2.1617   -2.5150    0.0000 C   0  0  0  0  0  0  0  0  0  0  0  0
    1.4688   -2.9169    0.0000 C   0  0  0  0  0  0  0  0  0  0  0  0
    2.1755   -1.6974    0.0000 C   0  0  0  0  0  0  0  0  0  0  0  0
    0.0277    2.5566    0.0000 C   0  0  0  0  0  0  0  0  0  0  0  0
    3.6305   -2.5012    0.0000 C   0  0  0  0  0  0  0  0  0  0  0  0
  1 11  1  0  0  0  0
  1 13  1  0  0  0  0
  2 12  2  0  0  0  0
  3 17  2  0  0  0  0
  4 21  2  0  0  0  0
  5 28  1  0  0  0  0
  5 33  1  0  0  0  0
  6 36  1  0  0  0  0
  6 40  1  0  0  0  0
  7 32  1  0  0  0  0
 14  8  1  1  0  0  0
  8 17  1  0  0  0  0
  9 20  1  0  0  0  0
  9 23  1  0  0  0  0
  9 25  1  0  0  0  0
 18 10  1  6  0  0  0
 10 21  1  0  0  0  0
 11 12  1  1  0  0  0
 11 13  1  0  0  0  0
 11 15  1  6  0  0  0
 12 14  1  0  0  0  0
 14 16  1  0  0  0  0
 16 19  1  0  0  0  0
 17 18  1  0  0  0  0
 18 22  1  0  0  0  0
 19 26  2  0  0  0  0
 19 27  1  0  0  0  0
 20 21  1  0  0  0  0
 20 31  1  1  0  0  0
 22 24  1  0  0  0  0
 23 28  1  0  0  0  0
 23 32  1  1  0  0  0
 24 29  2  0  0  0  0
 24 30  1  0  0  0  0
 25 33  1  0  0  0  0
 26 34  1  0  0  0  0
 27 35  2  0  0  0  0
 29 37  1  0  0  0  0
 30 38  2  0  0  0  0
 34 39  2  0  0  0  0
 35 39  1  0  0  0  0
 36 37  2  0  0  0  0
 36 38  1  0  0  0  0
M  END
> <PUBCHEM_COMPOUND_ID_TYPE>
0

> <PUBCHEM_TOTAL_CHARGE>
0

> <PUBCHEM_SUBSTANCE_ID>
310945795

> <PUBCHEM_SUBSTANCE_VERSION>
1

> <PUBCHEM_EXT_DATASOURCE_NAME>
4488

> <PUBCHEM_EXT_DATASOURCE_REGID>
SCHEMBL16123899

> <PUBCHEM_SUBSTANCE_COMMENT>
InChI=1S/C30H39N3O7/c1-20(33-13-14-39-18-23(33)17-34)28(36)32-26(16-22-9-11-24(38-3)12-10-22)29(37)31-25(27(35)30(2)19-40-30)15-21-7-5-4-6-8-21/h4-12,20,23,25-26,34H,13-19H2,1-3H3,(H,31,37)(H,32,36)/t20-,23-,25-,26-,30+/m0/s1
InChIKey=VFPFZJMFWGSSAO-RPJGXGINSA-N

> <PUBCHEM_SUBSTANCE_SYNONYM>
SCHEMBL16123899

> <PUBCHEM_XREF_EXT_ID>
SCHEMBL16123899

> <PUBCHEM_EXT_DATASOURCE_URL>
https://www.surechembl.org/

> <PUBCHEM_EXT_SUBSTANCE_URL>
https://www.surechembl.org/chemical/SCHEMBL16123899

> <PUBCHEM_CID_ASSOCIATIONS>
117611782  1

> <PUBCHEM_COORDINATE_TYPE>
1
3

> <PUBCHEM_BONDANNOTATIONS>
18  10  6
11  12  5
11  15  6
20  31  5
23  32  5
14  8  5

$$$$
