310932508
  -OEChem-07211613022D

 29 32  0     0  0  0  0  0  0999 V2000
    2.8875   -2.1214    0.0000 O   0  0  0  0  0  0  0  0  0  0  0  0
    0.1473   -2.3866    0.0000 O   0  0  0  0  0  0  0  0  0  0  0  0
    7.3660   -2.2098    0.0000 O   0  0  0  0  0  0  0  0  0  0  0  0
    8.8392   -4.7143    0.0000 O   0  0  0  0  0  0  0  0  0  0  0  0
    3.7714   -0.9723    0.0000 N   0  0  0  0  0  0  0  0  0  0  0  0
    3.6830   -0.1473    0.0000 N   0  0  0  0  0  0  0  0  0  0  0  0
    5.2151   -0.9723    0.0000 N   0  0  0  0  0  0  0  0  0  0  0  0
    0.0000   -1.0018    0.0000 N   0  0  0  0  0  0  0  0  0  0  0  0
    6.6589   -3.4768    0.0000 N   0  0  0  0  0  0  0  0  0  0  0  0
    2.4455   -0.7071    0.0000 C   0  0  0  0  0  0  0  0  0  0  0  0
    3.0348   -1.3259    0.0000 C   0  0  0  0  0  0  0  0  0  0  0  0
    4.5080   -1.3848    0.0000 C   0  0  0  0  0  0  0  0  0  0  0  0
    1.6500   -0.7955    0.0000 C   0  0  0  0  0  0  0  0  0  0  0  0
    2.8875    0.0000    0.0000 C   0  0  0  0  0  0  0  0  0  0  0  0
    4.5080   -2.2098    0.0000 C   0  0  0  0  0  0  0  0  0  0  0  0
    5.9223   -2.2098    0.0000 C   0  0  0  0  0  0  0  0  0  0  0  0
    1.3259   -1.5910    0.0000 C   0  0  0  0  0  0  0  0  0  0  0  0
    1.1785   -0.1473    0.0000 C   0  0  0  0  0  0  0  0  0  0  0  0
    5.9223   -1.3848    0.0000 C   0  0  0  0  0  0  0  0  0  0  0  0
    5.2151   -2.6223    0.0000 C   0  0  0  0  0  0  0  0  0  0  0  0
    0.4714   -1.6500    0.0000 C   0  0  0  0  0  0  0  0  0  0  0  0
    6.6589   -2.6223    0.0000 C   0  0  0  0  0  0  0  0  0  0  0  0
    0.3241   -0.2062    0.0000 C   0  0  0  0  0  0  0  0  0  0  0  0
    7.3660   -3.8893    0.0000 C   0  0  0  0  0  0  0  0  0  0  0  0
    7.3955   -4.7143    0.0000 C   0  0  0  0  0  0  0  0  0  0  0  0
    8.1026   -3.4768    0.0000 C   0  0  0  0  0  0  0  0  0  0  0  0
    8.1026   -5.1268    0.0000 C   0  0  0  0  0  0  0  0  0  0  0  0
    8.8098   -3.8893    0.0000 C   0  0  0  0  0  0  0  0  0  0  0  0
    0.6187   -3.0643    0.0000 C   0  0  0  0  0  0  0  0  0  0  0  0
  1 11  1  0  0  0  0
  2 21  1  0  0  0  0
  2 29  1  0  0  0  0
  3 22  2  0  0  0  0
  4 27  1  0  0  0  0
  4 28  1  0  0  0  0
  5  6  1  0  0  0  0
  5 11  1  0  0  0  0
  5 12  1  0  0  0  0
  6 14  2  0  0  0  0
  7 12  2  0  0  0  0
  7 19  1  0  0  0  0
  8 21  1  0  0  0  0
  8 23  2  0  0  0  0
  9 22  1  0  0  0  0
  9 24  1  0  0  0  0
 10 11  2  0  0  0  0
 10 13  1  0  0  0  0
 10 14  1  0  0  0  0
 12 15  1  0  0  0  0
 13 17  1  0  0  0  0
 13 18  2  0  0  0  0
 15 20  2  0  0  0  0
 16 19  2  0  0  0  0
 16 20  1  0  0  0  0
 16 22  1  0  0  0  0
 17 21  2  0  0  0  0
 18 23  1  0  0  0  0
 24 25  1  0  0  0  0
 24 26  1  0  0  0  0
 25 27  1  0  0  0  0
 26 28  1  0  0  0  0
M  END
> <PUBCHEM_COMPOUND_ID_TYPE>
0

> <PUBCHEM_TOTAL_CHARGE>
0

> <PUBCHEM_SUBSTANCE_ID>
310932508

> <PUBCHEM_SUBSTANCE_VERSION>
1

> <PUBCHEM_EXT_DATASOURCE_NAME>
4488

> <PUBCHEM_EXT_DATASOURCE_REGID>
SCHEMBL16109881

> <PUBCHEM_SUBSTANCE_COMMENT>
InChI=1S/C20H21N5O4/c1-28-18-10-13(4-7-21-18)16-12-23-25(20(16)27)17-3-2-14(11-22-17)19(26)24-15-5-8-29-9-6-15/h2-4,7,10-12,15,27H,5-6,8-9H2,1H3,(H,24,26)
InChIKey=SKSPEHZHKYGQAO-UHFFFAOYSA-N

> <PUBCHEM_SUBSTANCE_SYNONYM>
SCHEMBL16109881

> <PUBCHEM_XREF_EXT_ID>
SCHEMBL16109881

> <PUBCHEM_EXT_DATASOURCE_URL>
https://www.surechembl.org/

> <PUBCHEM_EXT_SUBSTANCE_URL>
https://www.surechembl.org/chemical/SCHEMBL16109881

> <PUBCHEM_CID_ASSOCIATIONS>
117601043  1

> <PUBCHEM_COORDINATE_TYPE>
1
3

$$$$
