310930946
  -OEChem-07211613022D

 23 25  0     0  0  0  0  0  0999 V2000
    4.2849   -2.0505    0.0000 O   0  0  0  0  0  0  0  0  0  0  0  0
    0.0000   -3.6803    0.0000 O   0  0  0  0  0  0  0  0  0  0  0  0
    1.4196   -4.5215    0.0000 O   0  0  0  0  0  0  0  0  0  0  0  0
    7.8864    0.0000    0.0000 N   0  0  0  0  0  0  0  0  0  0  0  0
    0.7097   -2.4448    0.0000 C   0  0  0  0  0  0  0  0  0  0  0  0
    0.7097   -3.2860    0.0000 C   0  0  0  0  0  0  0  0  0  0  0  0
    1.4196   -3.6803    0.0000 C   0  0  0  0  0  0  0  0  0  0  0  0
    2.1556   -3.2860    0.0000 C   0  0  0  0  0  0  0  0  0  0  0  0
    0.3154   -1.7350    0.0000 C   0  0  0  0  0  0  0  0  0  0  0  0
    1.1304   -1.7087    0.0000 C   0  0  0  0  0  0  0  0  0  0  0  0
    3.5752   -2.4711    0.0000 C   0  0  0  0  0  0  0  0  0  0  0  0
    2.1556   -2.4711    0.0000 C   0  0  0  0  0  0  0  0  0  0  0  0
    2.8654   -3.7066    0.0000 C   0  0  0  0  0  0  0  0  0  0  0  0
    2.8654   -2.0505    0.0000 C   0  0  0  0  0  0  0  0  0  0  0  0
    3.5752   -3.2860    0.0000 C   0  0  0  0  0  0  0  0  0  0  0  0
    5.7307   -2.0767    0.0000 C   0  0  0  0  0  0  0  0  0  0  0  0
    5.0210   -2.4711    0.0000 C   0  0  0  0  0  0  0  0  0  0  0  0
    7.1503   -1.2355    0.0000 C   0  0  0  0  0  0  0  0  0  0  0  0
    5.7307   -1.2355    0.0000 C   0  0  0  0  0  0  0  0  0  0  0  0
    6.4406   -2.4711    0.0000 C   0  0  0  0  0  0  0  0  0  0  0  0
    6.4406   -0.8412    0.0000 C   0  0  0  0  0  0  0  0  0  0  0  0
    7.1503   -2.0767    0.0000 C   0  0  0  0  0  0  0  0  0  0  0  0
    7.8864   -0.8412    0.0000 C   0  0  0  0  0  0  0  0  0  0  0  0
  1 11  1  0  0  0  0
  1 17  1  0  0  0  0
  2  6  2  0  0  0  0
  3  7  2  0  0  0  0
  4 23  3  0  0  0  0
  5  6  1  0  0  0  0
  5  9  1  0  0  0  0
  5 10  1  0  0  0  0
  6  7  1  0  0  0  0
  7  8  1  0  0  0  0
  8 12  2  0  0  0  0
  8 13  1  0  0  0  0
  9 10  1  0  0  0  0
 11 14  2  0  0  0  0
 11 15  1  0  0  0  0
 12 14  1  0  0  0  0
 13 15  2  0  0  0  0
 16 17  1  0  0  0  0
 16 19  2  0  0  0  0
 16 20  1  0  0  0  0
 18 21  2  0  0  0  0
 18 22  1  0  0  0  0
 18 23  1  0  0  0  0
 19 21  1  0  0  0  0
 20 22  2  0  0  0  0
M  END
> <PUBCHEM_COMPOUND_ID_TYPE>
0

> <PUBCHEM_TOTAL_CHARGE>
0

> <PUBCHEM_SUBSTANCE_ID>
310930946

> <PUBCHEM_SUBSTANCE_VERSION>
1

> <PUBCHEM_EXT_DATASOURCE_NAME>
4488

> <PUBCHEM_EXT_DATASOURCE_REGID>
SCHEMBL16108245

> <PUBCHEM_SUBSTANCE_COMMENT>
InChI=1S/C19H15NO3/c20-11-13-1-3-14(4-2-13)12-23-17-9-7-16(8-10-17)19(22)18(21)15-5-6-15/h1-4,7-10,15H,5-6,12H2
InChIKey=HQIYQNFDWZOOHK-UHFFFAOYSA-N

> <PUBCHEM_SUBSTANCE_SYNONYM>
SCHEMBL16108245

> <PUBCHEM_XREF_EXT_ID>
SCHEMBL16108245

> <PUBCHEM_EXT_DATASOURCE_URL>
https://www.surechembl.org/

> <PUBCHEM_EXT_SUBSTANCE_URL>
https://www.surechembl.org/chemical/SCHEMBL16108245

> <PUBCHEM_CID_ASSOCIATIONS>
117599900  1

> <PUBCHEM_COORDINATE_TYPE>
1
3

$$$$
