310946237
  -OEChem-07211613022D

 23 26  0     1  0  0  0  0  0999 V2000
   -0.8599   11.9545    0.0000 O   0  0  0  0  0  0  0  0  0  0  0  0
   -2.2888    9.4795    0.0000 O   0  0  0  0  0  0  0  0  0  0  0  0
   -2.2888   11.9545    0.0000 C   0  0  3  0  0  0  0  0  0  0  0  0
   -2.2888   11.1295    0.0000 C   0  0  3  0  0  0  0  0  0  0  0  0
   -3.0033   11.5420    0.0000 C   0  0  0  0  0  0  0  0  0  0  0  0
   -2.9019   12.5065    0.0000 C   0  0  3  0  0  0  0  0  0  0  0  0
   -1.5743   12.3670    0.0000 C   0  0  3  0  0  0  0  0  0  0  0  0
   -1.5743   10.7170    0.0000 C   0  0  0  0  0  0  0  0  0  0  0  0
   -0.8599   11.1295    0.0000 C   0  0  0  0  0  0  0  0  0  0  0  0
   -2.5664   13.2602    0.0000 C   0  0  0  0  0  0  0  0  0  0  0  0
   -1.7459   13.1739    0.0000 C   0  0  0  0  0  0  0  0  0  0  0  0
   -1.5743    9.8920    0.0000 C   0  0  0  0  0  0  0  0  0  0  0  0
   -1.7916   11.5420    0.0000 C   0  0  0  0  0  0  0  0  0  0  0  0
   -3.4158   10.8275    0.0000 C   0  0  0  0  0  0  0  0  0  0  0  0
   -0.8599   12.7795    0.0000 C   0  0  0  0  0  0  0  0  0  0  0  0
   -0.1454   10.7170    0.0000 C   0  0  0  0  0  0  0  0  0  0  0  0
   -0.1454    9.8920    0.0000 C   0  0  0  0  0  0  0  0  0  0  0  0
   -0.8599    9.4795    0.0000 C   0  0  0  0  0  0  0  0  0  0  0  0
    0.5691    9.4795    0.0000 C   0  0  0  0  0  0  0  0  0  0  0  0
    1.2835    9.8920    0.0000 C   0  0  0  0  0  0  0  0  0  0  0  0
    1.9980    9.4795    0.0000 C   0  0  0  0  0  0  0  0  0  0  0  0
    2.7125    9.8920    0.0000 C   0  0  0  0  0  0  0  0  0  0  0  0
    3.4270    9.4795    0.0000 C   0  0  0  0  0  0  0  0  0  0  0  0
  1  7  1  0  0  0  0
  1  9  1  0  0  0  0
  2 12  1  0  0  0  0
  3  4  1  0  0  0  0
  3  6  1  0  0  0  0
  3  7  1  0  0  0  0
  4  5  1  0  0  0  0
  4  8  1  1  0  0  0
  5  6  1  0  0  0  0
  5 13  1  0  0  0  0
  5 14  1  0  0  0  0
  6 10  1  1  0  0  0
  7 11  1  0  0  0  0
  7 15  1  6  0  0  0
  8  9  2  0  0  0  0
  8 12  1  0  0  0  0
  9 16  1  0  0  0  0
 10 11  1  0  0  0  0
 12 18  2  0  0  0  0
 16 17  2  0  0  0  0
 17 18  1  0  0  0  0
 17 19  1  0  0  0  0
 19 20  1  0  0  0  0
 20 21  1  0  0  0  0
 21 22  1  0  0  0  0
 22 23  1  0  0  0  0
M  END
> <PUBCHEM_COMPOUND_ID_TYPE>
0

> <PUBCHEM_TOTAL_CHARGE>
0

> <PUBCHEM_SUBSTANCE_ID>
310946237

> <PUBCHEM_SUBSTANCE_VERSION>
1

> <PUBCHEM_EXT_DATASOURCE_NAME>
4488

> <PUBCHEM_EXT_DATASOURCE_REGID>
SCHEMBL16124353

> <PUBCHEM_SUBSTANCE_COMMENT>
InChI=1S/C21H30O2/c1-5-6-7-8-13-11-15(22)17-16(12-13)23-21(4)10-9-14-18(21)19(17)20(14,2)3/h11-12,14,18-19,22H,5-10H2,1-4H3/t14-,18?,19+,21+/m0/s1
InChIKey=IGHTZQUIFGUJTG-OKMSJQPXSA-N

> <PUBCHEM_SUBSTANCE_SYNONYM>
SCHEMBL16124353

> <PUBCHEM_XREF_EXT_ID>
SCHEMBL16124353

> <PUBCHEM_EXT_DATASOURCE_URL>
https://www.surechembl.org/

> <PUBCHEM_EXT_SUBSTANCE_URL>
https://www.surechembl.org/chemical/SCHEMBL16124353

> <PUBCHEM_CID_ASSOCIATIONS>
117612185  1

> <PUBCHEM_COORDINATE_TYPE>
1
3

> <PUBCHEM_BONDANNOTATIONS>
4  8  5
6  10  5
7  15  6

$$$$
