310940470
  -OEChem-07211613022D

 31 34  0     0  0  0  0  0  0999 V2000
    2.3898   -1.5505    0.0000 F   0  0  0  0  0  0  0  0  0  0  0  0
    0.1838    2.9573    0.0000 F   0  0  0  0  0  0  0  0  0  0  0  0
    0.5036    1.8863    0.0000 F   0  0  0  0  0  0  0  0  0  0  0  0
   -0.5994    1.5665    0.0000 F   0  0  0  0  0  0  0  0  0  0  0  0
   -2.3898   -1.4387    0.0000 O   0  0  0  0  0  0  0  0  0  0  0  0
   -0.3757   -2.6536    0.0000 N   0  0  0  0  0  0  0  0  0  0  0  0
   -1.0790   -2.2539    0.0000 N   0  0  0  0  0  0  0  0  0  0  0  0
   -1.6705   -0.2078    0.0000 N   0  0  0  0  0  0  0  0  0  0  0  0
   -0.1039   -1.3588    0.0000 C   0  0  0  0  0  0  0  0  0  0  0  0
   -0.9511   -1.4227    0.0000 C   0  0  0  0  0  0  0  0  0  0  0  0
    0.2318   -2.0621    0.0000 C   0  0  0  0  0  0  0  0  0  0  0  0
   -1.6865   -1.0230    0.0000 C   0  0  0  0  0  0  0  0  0  0  0  0
    1.0630   -2.1420    0.0000 C   0  0  0  0  0  0  0  0  0  0  0  0
    0.3917   -0.6714    0.0000 C   0  0  0  0  0  0  0  0  0  0  0  0
   -0.3757   -3.4848    0.0000 C   0  0  0  0  0  0  0  0  0  0  0  0
   -1.6705    2.2859    0.0000 C   0  0  0  0  0  0  0  0  0  0  0  0
   -1.6865    1.4387    0.0000 C   0  0  0  0  0  0  0  0  0  0  0  0
    1.5426   -1.4707    0.0000 C   0  0  0  0  0  0  0  0  0  0  0  0
   -0.9671    2.7015    0.0000 C   0  0  0  0  0  0  0  0  0  0  0  0
    1.2069   -0.7513    0.0000 C   0  0  0  0  0  0  0  0  0  0  0  0
   -0.9511    0.1918    0.0000 C   0  0  0  0  0  0  0  0  0  0  0  0
   -2.3898    0.2078    0.0000 C   0  0  0  0  0  0  0  0  0  0  0  0
   -0.2158    2.2699    0.0000 C   0  0  0  0  0  0  0  0  0  0  0  0
   -0.9511    1.0390    0.0000 C   0  0  0  0  0  0  0  0  0  0  0  0
   -2.3898    1.0230    0.0000 C   0  0  0  0  0  0  0  0  0  0  0  0
   -2.3898    2.6855    0.0000 C   0  0  0  0  0  0  0  0  0  0  0  0
   -0.9511    3.5168    0.0000 C   0  0  0  0  0  0  0  0  0  0  0  0
   -1.0950   -3.9164    0.0000 C   0  0  0  0  0  0  0  0  0  0  0  0
    0.3757   -3.9004    0.0000 C   0  0  0  0  0  0  0  0  0  0  0  0
   -2.3898    3.5008    0.0000 C   0  0  0  0  0  0  0  0  0  0  0  0
   -1.6705    3.9164    0.0000 C   0  0  0  0  0  0  0  0  0  0  0  0
  1 18  1  0  0  0  0
  2 23  1  0  0  0  0
  3 23  1  0  0  0  0
  4 23  1  0  0  0  0
  5 12  2  0  0  0  0
  6  7  1  0  0  0  0
  6 11  1  0  0  0  0
  6 15  1  0  0  0  0
  7 10  2  0  0  0  0
  8 12  1  0  0  0  0
  8 21  1  0  0  0  0
  8 22  1  0  0  0  0
  9 10  1  0  0  0  0
  9 11  2  0  0  0  0
  9 14  1  0  0  0  0
 10 12  1  0  0  0  0
 11 13  1  0  0  0  0
 13 18  2  0  0  0  0
 14 20  2  0  0  0  0
 15 28  1  0  0  0  0
 15 29  1  0  0  0  0
 16 17  1  0  0  0  0
 16 19  2  0  0  0  0
 16 26  1  0  0  0  0
 17 24  1  0  0  0  0
 17 25  1  0  0  0  0
 18 20  1  0  0  0  0
 19 23  1  0  0  0  0
 19 27  1  0  0  0  0
 21 24  1  0  0  0  0
 22 25  1  0  0  0  0
 26 30  2  0  0  0  0
 27 31  2  0  0  0  0
 30 31  1  0  0  0  0
M  END
> <PUBCHEM_COMPOUND_ID_TYPE>
0

> <PUBCHEM_TOTAL_CHARGE>
0

> <PUBCHEM_SUBSTANCE_ID>
310940470

> <PUBCHEM_SUBSTANCE_VERSION>
1

> <PUBCHEM_EXT_DATASOURCE_NAME>
4488

> <PUBCHEM_EXT_DATASOURCE_REGID>
SCHEMBL16118423

> <PUBCHEM_SUBSTANCE_COMMENT>
InChI=1S/C23H23F4N3O/c1-14(2)30-20-13-16(24)7-8-18(20)21(28-30)22(31)29-11-9-15(10-12-29)17-5-3-4-6-19(17)23(25,26)27/h3-8,13-15H,9-12H2,1-2H3
InChIKey=WOTKNMXWRCDJRX-UHFFFAOYSA-N

> <PUBCHEM_SUBSTANCE_SYNONYM>
SCHEMBL16118423

> <PUBCHEM_XREF_EXT_ID>
SCHEMBL16118423

> <PUBCHEM_EXT_DATASOURCE_URL>
https://www.surechembl.org/

> <PUBCHEM_EXT_SUBSTANCE_URL>
https://www.surechembl.org/chemical/SCHEMBL16118423

> <PUBCHEM_CID_ASSOCIATIONS>
117607488  1

> <PUBCHEM_COORDINATE_TYPE>
1
3

$$$$
