310948956
  -OEChem-07211613022D

 16 17  0     0  0  0  0  0  0999 V2000
    2.1421    1.8801    0.0000 Br  0  0  0  0  0  0  0  0  0  0  0  0
   -1.4794   -1.8801    0.0000 Cl  0  0  0  0  0  0  0  0  0  0  0  0
   -0.0308   -1.0479    0.0000 O   0  0  0  0  0  0  0  0  0  0  0  0
    2.1574    0.2157    0.0000 O   0  0  0  0  0  0  0  0  0  0  0  0
   -0.7397   -0.6318    0.0000 C   0  0  0  0  0  0  0  0  0  0  0  0
   -0.7397    0.2003    0.0000 C   0  0  0  0  0  0  0  0  0  0  0  0
    0.7243    0.1849    0.0000 C   0  0  0  0  0  0  0  0  0  0  0  0
    0.6781   -0.6318    0.0000 C   0  0  0  0  0  0  0  0  0  0  0  0
   -0.0462    0.6164    0.0000 C   0  0  0  0  0  0  0  0  0  0  0  0
   -1.4794   -1.0633    0.0000 C   0  0  0  0  0  0  0  0  0  0  0  0
    1.4178    0.6318    0.0000 C   0  0  0  0  0  0  0  0  0  0  0  0
   -1.4794    0.6164    0.0000 C   0  0  0  0  0  0  0  0  0  0  0  0
   -2.1574   -0.6472    0.0000 C   0  0  0  0  0  0  0  0  0  0  0  0
   -2.1574    0.1849    0.0000 C   0  0  0  0  0  0  0  0  0  0  0  0
    1.2790   -0.8938    0.0000 C   0  0  0  0  0  0  0  0  0  0  0  0
    1.4640    1.4640    0.0000 C   0  0  0  0  0  0  0  0  0  0  0  0
  1 16  1  0  0  0  0
  2 10  1  0  0  0  0
  3  5  1  0  0  0  0
  3  8  1  0  0  0  0
  4 11  2  0  0  0  0
  5  6  1  0  0  0  0
  5 10  2  0  0  0  0
  6  9  1  0  0  0  0
  6 12  2  0  0  0  0
  7  8  1  0  0  0  0
  7  9  2  0  0  0  0
  7 11  1  0  0  0  0
  8 15  2  0  0  0  0
 10 13  1  0  0  0  0
 11 16  1  0  0  0  0
 12 14  1  0  0  0  0
 13 14  2  0  0  0  0
M  END
> <PUBCHEM_COMPOUND_ID_TYPE>
0

> <PUBCHEM_TOTAL_CHARGE>
0

> <PUBCHEM_SUBSTANCE_ID>
310948956

> <PUBCHEM_SUBSTANCE_VERSION>
1

> <PUBCHEM_EXT_DATASOURCE_NAME>
4488

> <PUBCHEM_EXT_DATASOURCE_REGID>
SCHEMBL16127144

> <PUBCHEM_SUBSTANCE_COMMENT>
InChI=1S/C12H8BrClO2/c1-7-9(11(15)6-13)5-8-3-2-4-10(14)12(8)16-7/h2-5H,1,6H2
InChIKey=IRBSWDVVVXCHAG-UHFFFAOYSA-N

> <PUBCHEM_SUBSTANCE_SYNONYM>
SCHEMBL16127144

> <PUBCHEM_XREF_EXT_ID>
SCHEMBL16127144

> <PUBCHEM_EXT_DATASOURCE_URL>
https://www.surechembl.org/

> <PUBCHEM_EXT_SUBSTANCE_URL>
https://www.surechembl.org/chemical/SCHEMBL16127144

> <PUBCHEM_CID_ASSOCIATIONS>
117614465  1

> <PUBCHEM_COORDINATE_TYPE>
1
3

$$$$
