310942798
  -OEChem-07211613022D

 57 62  0     1  0  0  0  0  0999 V2000
    3.1340    3.9353    0.0000 I   0  0  0  0  0  0  0  0  0  0  0  0
    1.8697    1.0506    0.0000 F   0  0  0  0  0  0  0  0  0  0  0  0
    2.9915   -3.9353    0.0000 F   0  0  0  0  0  0  0  0  0  0  0  0
    2.4752   -0.0356    0.0000 O   0  0  0  0  0  0  0  0  0  0  0  0
    6.0900   -2.1190    0.0000 O   0  0  0  0  0  0  0  0  0  0  0  0
   -0.4095   -0.8725    0.0000 O   0  0  0  0  0  0  0  0  0  0  0  0
   -5.6626    0.4986    0.0000 O   0  0  0  0  0  0  0  0  0  0  0  0
   -7.1228   -2.0122    0.0000 O   0  0  0  0  0  0  0  0  0  0  0  0
   -1.1218   -2.1013    0.0000 O   0  0  0  0  0  0  0  0  0  0  0  0
   -4.0244   -1.2821    0.0000 O   0  0  0  0  0  0  0  0  0  0  0  0
    4.6120    0.4274    0.0000 N   0  0  0  0  0  0  0  0  0  0  0  0
    3.2053   -1.2821    0.0000 N   0  0  0  0  0  0  0  0  0  0  0  0
    3.2587    0.4274    0.0000 N   0  0  0  0  0  0  0  0  0  0  0  0
    1.7629   -1.2821    0.0000 N   0  0  0  0  0  0  0  0  0  0  0  0
    1.1575   -2.7957    0.0000 N   0  0  0  0  0  0  0  0  0  0  0  0
   -6.1790   -0.8725    0.0000 N   0  0  0  0  0  0  0  0  0  0  0  0
   -1.8520   -0.8725    0.0000 N   0  0  0  0  0  0  0  0  0  0  0  0
    3.9531   -0.0356    0.0000 C   0  0  0  0  0  0  0  0  0  0  0  0
    3.9353   -0.8725    0.0000 C   0  0  3  0  0  0  0  0  0  0  0  0
    3.5258    1.2465    0.0000 C   0  0  0  0  0  0  0  0  0  0  0  0
    4.6654   -1.2821    0.0000 C   0  0  0  0  0  0  0  0  0  0  0  0
    4.3805    1.2109    0.0000 C   0  0  0  0  0  0  0  0  0  0  0  0
    3.0450    1.8875    0.0000 C   0  0  0  0  0  0  0  0  0  0  0  0
    2.4752   -0.8725    0.0000 C   0  0  0  0  0  0  0  0  0  0  0  0
    5.3421    0.0178    0.0000 C   0  0  0  0  0  0  0  0  0  0  0  0
    3.2053   -2.1013    0.0000 C   0  0  0  0  0  0  0  0  0  0  0  0
    2.2081    1.8341    0.0000 C   0  0  0  0  0  0  0  0  0  0  0  0
    3.3833    2.6533    0.0000 C   0  0  0  0  0  0  0  0  0  0  0  0
    2.4929   -2.5108    0.0000 C   0  0  3  0  0  0  0  0  0  0  0  0
    4.6654   -2.1190    0.0000 C   0  0  0  0  0  0  0  0  0  0  0  0
    5.3777   -0.8725    0.0000 C   0  0  0  0  0  0  0  0  0  0  0  0
    6.0544    0.4274    0.0000 C   0  0  0  0  0  0  0  0  0  0  0  0
    2.8847    3.3121    0.0000 C   0  0  0  0  0  0  0  0  0  0  0  0
    1.7451    2.4752    0.0000 C   0  0  0  0  0  0  0  0  0  0  0  0
    2.4040   -3.3299    0.0000 C   0  0  3  0  0  0  0  0  0  0  0  0
    2.0834    3.2408    0.0000 C   0  0  0  0  0  0  0  0  0  0  0  0
    6.1078   -1.2999    0.0000 C   0  0  0  0  0  0  0  0  0  0  0  0
    5.3777   -2.5286    0.0000 C   0  0  0  0  0  0  0  0  0  0  0  0
    1.7273   -2.1902    0.0000 C   0  0  0  0  0  0  0  0  0  0  0  0
    6.7666    0.0178    0.0000 C   0  0  0  0  0  0  0  0  0  0  0  0
    6.0544    1.2286    0.0000 C   0  0  0  0  0  0  0  0  0  0  0  0
    1.0328   -0.8725    0.0000 C   0  0  3  0  0  0  0  0  0  0  0  0
    1.6027   -3.5080    0.0000 C   0  0  0  0  0  0  0  0  0  0  0  0
    7.4967    0.4274    0.0000 C   0  0  0  0  0  0  0  0  0  0  0  0
    6.7844    1.6561    0.0000 C   0  0  0  0  0  0  0  0  0  0  0  0
    0.3384   -1.2643    0.0000 C   0  0  0  0  0  0  0  0  0  0  0  0
    7.4967    1.2286    0.0000 C   0  0  0  0  0  0  0  0  0  0  0  0
    1.0506   -0.0534    0.0000 C   0  0  0  0  0  0  0  0  0  0  0  0
   -6.2859   -0.0534    0.0000 C   0  0  0  0  0  0  0  0  0  0  0  0
   -6.9269   -1.1575    0.0000 C   0  0  0  0  0  0  0  0  0  0  0  0
   -1.1218   -1.2465    0.0000 C   0  0  0  0  0  0  0  0  0  0  0  0
   -7.4967   -0.5877    0.0000 C   0  0  0  0  0  0  0  0  0  0  0  0
   -7.0694    0.1246    0.0000 C   0  0  0  0  0  0  0  0  0  0  0  0
   -5.4312   -1.2643    0.0000 C   0  0  0  0  0  0  0  0  0  0  0  0
   -4.7544   -0.8725    0.0000 C   0  0  0  0  0  0  0  0  0  0  0  0
   -2.5464   -1.2643    0.0000 C   0  0  0  0  0  0  0  0  0  0  0  0
   -3.2943   -0.8725    0.0000 C   0  0  0  0  0  0  0  0  0  0  0  0
  1 33  1  0  0  0  0
  2 27  1  0  0  0  0
 35  3  1  1  0  0  0
  4 24  2  0  0  0  0
  5 37  1  0  0  0  0
  5 38  1  0  0  0  0
  6 46  1  0  0  0  0
  6 51  1  0  0  0  0
  7 49  2  0  0  0  0
  8 50  2  0  0  0  0
  9 51  2  0  0  0  0
 10 55  1  0  0  0  0
 10 57  1  0  0  0  0
 11 18  1  0  0  0  0
 11 22  1  0  0  0  0
 11 25  1  0  0  0  0
 19 12  1  1  0  0  0
 12 24  1  0  0  0  0
 12 26  1  0  0  0  0
 13 18  2  0  0  0  0
 13 20  1  0  0  0  0
 14 24  1  0  0  0  0
 14 42  1  0  0  0  0
 15 39  1  0  0  0  0
 15 43  1  0  0  0  0
 16 49  1  0  0  0  0
 16 50  1  0  0  0  0
 16 54  1  0  0  0  0
 17 51  1  0  0  0  0
 17 56  1  0  0  0  0
 18 19  1  0  0  0  0
 19 21  1  0  0  0  0
 20 22  2  0  0  0  0
 20 23  1  0  0  0  0
 21 30  1  0  0  0  0
 21 31  1  0  0  0  0
 23 27  2  0  0  0  0
 23 28  1  0  0  0  0
 25 32  1  0  0  0  0
 29 26  1  1  0  0  0
 27 34  1  0  0  0  0
 28 33  2  0  0  0  0
 29 35  1  0  0  0  0
 29 39  1  0  0  0  0
 30 38  1  0  0  0  0
 31 37  1  0  0  0  0
 32 40  2  0  0  0  0
 32 41  1  0  0  0  0
 33 36  1  0  0  0  0
 34 36  2  0  0  0  0
 35 43  1  0  0  0  0
 40 44  1  0  0  0  0
 41 45  2  0  0  0  0
 42 46  1  0  0  0  0
 42 48  1  6  0  0  0
 44 47  2  0  0  0  0
 45 47  1  0  0  0  0
 49 53  1  0  0  0  0
 50 52  1  0  0  0  0
 52 53  2  0  0  0  0
 54 55  1  0  0  0  0
 56 57  1  0  0  0  0
M  END
> <PUBCHEM_COMPOUND_ID_TYPE>
0

> <PUBCHEM_TOTAL_CHARGE>
0

> <PUBCHEM_SUBSTANCE_ID>
310942798

> <PUBCHEM_SUBSTANCE_VERSION>
1

> <PUBCHEM_EXT_DATASOURCE_NAME>
4488

> <PUBCHEM_EXT_DATASOURCE_REGID>
SCHEMBL16120851

> <PUBCHEM_SUBSTANCE_COMMENT>
InChI=1S/C40H48F2IN7O7/c1-26(25-57-40(54)45-13-17-56-18-14-49-35(51)9-10-36(49)52)46-39(53)50(23-29-20-44-21-33(29)42)37(28-11-15-55-16-12-28)38-47-34(31-19-30(43)7-8-32(31)41)24-48(38)22-27-5-3-2-4-6-27/h2-10,19,24,26,28-29,33,37,44H,11-18,20-23,25H2,1H3,(H,45,54)(H,46,53)/t26-,29-,33-,37+/m0/s1
InChIKey=PJFQASVEZSWELB-GQNRCETCSA-N

> <PUBCHEM_SUBSTANCE_SYNONYM>
SCHEMBL16120851

> <PUBCHEM_XREF_EXT_ID>
SCHEMBL16120851

> <PUBCHEM_EXT_DATASOURCE_URL>
https://www.surechembl.org/

> <PUBCHEM_EXT_SUBSTANCE_URL>
https://www.surechembl.org/chemical/SCHEMBL16120851

> <PUBCHEM_CID_ASSOCIATIONS>
117609303  1

> <PUBCHEM_COORDINATE_TYPE>
1
3

> <PUBCHEM_BONDANNOTATIONS>
19  12  5
29  26  5
35  3  5
42  48  6

$$$$
