310937473
  -OEChem-07211613022D

 25 28  0     0  0  0  0  0  0999 V2000
    2.5762   -2.9179    0.0000 O   0  0  0  0  0  0  0  0  0  0  0  0
    6.6245   -2.2082    0.0000 O   0  0  0  0  0  0  0  0  0  0  0  0
    0.0000   -3.2860    0.0000 O   0  0  0  0  0  0  0  0  0  0  0  0
    5.3890   -1.8138    0.0000 N   0  0  0  0  0  0  0  0  0  0  0  0
    4.8106   -3.8906    0.0000 N   0  0  0  0  0  0  0  0  0  0  0  0
    6.1513   -2.8916    0.0000 N   0  0  0  0  0  0  0  0  0  0  0  0
    3.4174   -4.0483    0.0000 C   0  0  0  0  0  0  0  0  0  0  0  0
    3.3122   -3.2597    0.0000 C   0  0  0  0  0  0  0  0  0  0  0  0
    4.7055   -3.1020    0.0000 C   0  0  0  0  0  0  0  0  0  0  0  0
    5.3890   -2.6288    0.0000 C   0  0  0  0  0  0  0  0  0  0  0  0
    2.7339   -4.5215    0.0000 C   0  0  0  0  0  0  0  0  0  0  0  0
    6.1513   -1.5509    0.0000 C   0  0  0  0  0  0  0  0  0  0  0  0
    3.9694   -2.7339    0.0000 C   0  0  0  0  0  0  0  0  0  0  0  0
    1.1567   -3.1020    0.0000 C   0  0  0  0  0  0  0  0  0  0  0  0
    4.1535   -4.3900    0.0000 C   0  0  0  0  0  0  0  0  0  0  0  0
    6.4142   -0.7623    0.0000 C   0  0  0  0  0  0  0  0  0  0  0  0
    2.3922   -5.2575    0.0000 C   0  0  0  0  0  0  0  0  0  0  0  0
    1.9190   -4.6003    0.0000 C   0  0  0  0  0  0  0  0  0  0  0  0
    1.9190   -3.4174    0.0000 C   0  0  0  0  0  0  0  0  0  0  0  0
    0.4732   -2.6288    0.0000 C   0  0  0  0  0  0  0  0  0  0  0  0
    0.6835   -3.7854    0.0000 C   0  0  0  0  0  0  0  0  0  0  0  0
    1.3144   -2.2870    0.0000 C   0  0  0  0  0  0  0  0  0  0  0  0
    7.2028   -1.0252    0.0000 C   0  0  0  0  0  0  0  0  0  0  0  0
    6.6770    0.0000    0.0000 C   0  0  0  0  0  0  0  0  0  0  0  0
    5.6518   -0.5258    0.0000 C   0  0  0  0  0  0  0  0  0  0  0  0
  1  8  1  0  0  0  0
  1 19  1  0  0  0  0
  2  6  1  0  0  0  0
  2 12  1  0  0  0  0
  3 20  1  0  0  0  0
  3 21  1  0  0  0  0
  4 10  1  0  0  0  0
  4 12  2  0  0  0  0
  5  9  1  0  0  0  0
  5 15  2  0  0  0  0
  6 10  2  0  0  0  0
  7  8  2  0  0  0  0
  7 11  1  0  0  0  0
  7 15  1  0  0  0  0
  8 13  1  0  0  0  0
  9 10  1  0  0  0  0
  9 13  2  0  0  0  0
 11 17  1  0  0  0  0
 11 18  1  0  0  0  0
 12 16  1  0  0  0  0
 14 19  1  0  0  0  0
 14 20  1  0  0  0  0
 14 21  1  0  0  0  0
 14 22  1  0  0  0  0
 16 23  1  0  0  0  0
 16 24  1  0  0  0  0
 16 25  1  0  0  0  0
 17 18  1  0  0  0  0
M  END
> <PUBCHEM_COMPOUND_ID_TYPE>
0

> <PUBCHEM_TOTAL_CHARGE>
0

> <PUBCHEM_SUBSTANCE_ID>
310937473

> <PUBCHEM_SUBSTANCE_VERSION>
1

> <PUBCHEM_EXT_DATASOURCE_NAME>
4488

> <PUBCHEM_EXT_DATASOURCE_REGID>
SCHEMBL16115243

> <PUBCHEM_SUBSTANCE_COMMENT>
InChI=1S/C19H25N3O3/c1-18(2,3)17-21-16(22-25-17)14-7-15(13(8-20-14)12-5-6-12)24-11-19(4)9-23-10-19/h7-8,12H,5-6,9-11H2,1-4H3
InChIKey=XUBLJNIOGAIIMR-UHFFFAOYSA-N

> <PUBCHEM_SUBSTANCE_SYNONYM>
SCHEMBL16115243

> <PUBCHEM_XREF_EXT_ID>
SCHEMBL16115243

> <PUBCHEM_EXT_DATASOURCE_URL>
https://www.surechembl.org/

> <PUBCHEM_EXT_SUBSTANCE_URL>
https://www.surechembl.org/chemical/SCHEMBL16115243

> <PUBCHEM_CID_ASSOCIATIONS>
86275979  1

> <PUBCHEM_COORDINATE_TYPE>
1
3

$$$$
