310944699
  -OEChem-07211613022D

 13 14  0     0  0  0  0  0  0999 V2000
   -1.8496   -0.4173    0.0000 O   0  0  0  0  0  0  0  0  0  0  0  0
    1.0400    1.2518    0.0000 C   0  0  0  0  0  0  0  0  0  0  0  0
    0.3176    0.8408    0.0000 C   0  0  0  0  0  0  0  0  0  0  0  0
    1.4510    1.9492    0.0000 C   0  0  0  0  0  0  0  0  0  0  0  0
    1.8496    1.2518    0.0000 C   0  0  0  0  0  0  0  0  0  0  0  0
   -0.4048    1.2393    0.0000 C   0  0  0  0  0  0  0  0  0  0  0  0
    0.3176    0.0062    0.0000 C   0  0  0  0  0  0  0  0  0  0  0  0
   -0.3924   -0.4048    0.0000 C   0  0  0  0  0  0  0  0  0  0  0  0
   -1.1272    0.0062    0.0000 C   0  0  0  0  0  0  0  0  0  0  0  0
   -1.1147    0.8283    0.0000 C   0  0  0  0  0  0  0  0  0  0  0  0
    1.4635    0.5293    0.0000 C   0  0  0  0  0  0  0  0  0  0  0  0
   -0.4048    2.0738    0.0000 C   0  0  0  0  0  0  0  0  0  0  0  0
   -0.3924   -2.0738    0.0000 C   0  0  0  0  0  0  0  0  0  0  0  0
  1  9  1  0  0  0  0
  2  3  1  0  0  0  0
  2  4  1  0  0  0  0
  2  5  1  0  0  0  0
  2 11  1  0  0  0  0
  3  6  2  0  0  0  0
  3  7  1  0  0  0  0
  4  5  1  0  0  0  0
  6 10  1  0  0  0  0
  6 12  1  0  0  0  0
  7  8  2  0  0  0  0
  8  9  1  0  0  0  0
  8 13  1  0  0  0  0
  9 10  2  0  0  0  0
M  END
> <PUBCHEM_COMPOUND_ID_TYPE>
0

> <PUBCHEM_TOTAL_CHARGE>
0

> <PUBCHEM_SUBSTANCE_ID>
310944699

> <PUBCHEM_SUBSTANCE_VERSION>
1

> <PUBCHEM_EXT_DATASOURCE_NAME>
4488

> <PUBCHEM_EXT_DATASOURCE_REGID>
SCHEMBL16122778

> <PUBCHEM_SUBSTANCE_COMMENT>
InChI=1S/C12H16O/c1-8-7-11(13)9(2)6-10(8)12(3)4-5-12/h6-7,13H,4-5H2,1-3H3
InChIKey=UOUXUMVDLROUAL-UHFFFAOYSA-N

> <PUBCHEM_SUBSTANCE_SYNONYM>
SCHEMBL16122778

> <PUBCHEM_XREF_EXT_ID>
SCHEMBL16122778

> <PUBCHEM_EXT_DATASOURCE_URL>
https://www.surechembl.org/

> <PUBCHEM_EXT_SUBSTANCE_URL>
https://www.surechembl.org/chemical/SCHEMBL16122778

> <PUBCHEM_CID_ASSOCIATIONS>
117610923  1

> <PUBCHEM_COORDINATE_TYPE>
1
3

$$$$
