310933351
  -OEChem-07211613022D

 33 37  0     0  0  0  0  0  0999 V2000
    3.9957   -5.2575    0.0000 F   0  0  0  0  0  0  0  0  0  0  0  0
    3.9957   -3.8117    0.0000 F   0  0  0  0  0  0  0  0  0  0  0  0
    3.1808   -5.2575    0.0000 F   0  0  0  0  0  0  0  0  0  0  0  0
    6.6245   -4.2849    0.0000 O   0  0  0  0  0  0  0  0  0  0  0  0
    2.9179    0.0000    0.0000 O   0  0  0  0  0  0  0  0  0  0  0  0
    0.7360   -2.0504    0.0000 O   0  5  0  0  0  0  0  0  0  0  0  0
    2.9968   -1.4721    0.0000 N   0  0  0  0  0  0  0  0  0  0  0  0
    4.1272   -0.8149    0.0000 N   0  0  0  0  0  0  0  0  0  0  0  0
    0.7360   -2.8654    0.0000 N   0  3  0  0  0  0  0  0  0  0  0  0
    7.0451   -3.5751    0.0000 N   0  0  0  0  0  0  0  0  0  0  0  0
    3.5751   -2.8654    0.0000 C   0  0  0  0  0  0  0  0  0  0  0  0
    3.5751   -2.0504    0.0000 C   0  0  0  0  0  0  0  0  0  0  0  0
    2.8654   -3.2859    0.0000 C   0  0  0  0  0  0  0  0  0  0  0  0
    4.3112   -1.6298    0.0000 C   0  0  0  0  0  0  0  0  0  0  0  0
    2.8654   -4.1272    0.0000 C   0  0  0  0  0  0  0  0  0  0  0  0
    5.0210   -2.8654    0.0000 C   0  0  0  0  0  0  0  0  0  0  0  0
    4.2849   -3.2859    0.0000 C   0  0  0  0  0  0  0  0  0  0  0  0
    5.0210   -2.0767    0.0000 C   0  0  0  0  0  0  0  0  0  0  0  0
    2.1556   -2.8654    0.0000 C   0  0  0  0  0  0  0  0  0  0  0  0
    1.4458   -3.2859    0.0000 C   0  0  0  0  0  0  0  0  0  0  0  0
    3.3122   -0.7098    0.0000 C   0  0  0  0  0  0  0  0  0  0  0  0
    5.7307   -3.2859    0.0000 C   0  0  0  0  0  0  0  0  0  0  0  0
    3.5751   -4.5215    0.0000 C   0  0  0  0  0  0  0  0  0  0  0  0
    1.4458   -4.1272    0.0000 C   0  0  0  0  0  0  0  0  0  0  0  0
    2.1556   -4.5215    0.0000 C   0  0  0  0  0  0  0  0  0  0  0  0
    5.8096   -4.1009    0.0000 C   0  0  0  0  0  0  0  0  0  0  0  0
    6.4930   -2.9705    0.0000 C   0  0  0  0  0  0  0  0  0  0  0  0
    0.7360   -4.5215    0.0000 C   0  0  0  0  0  0  0  0  0  0  0  0
    2.1819   -1.6298    0.0000 C   0  0  0  0  0  0  0  0  0  0  0  0
    0.0000   -3.2859    0.0000 C   0  0  0  0  0  0  0  0  0  0  0  0
    0.0000   -4.1272    0.0000 C   0  0  0  0  0  0  0  0  0  0  0  0
    5.2049   -4.6529    0.0000 C   0  0  0  0  0  0  0  0  0  0  0  0
    6.6771   -2.1556    0.0000 C   0  0  0  0  0  0  0  0  0  0  0  0
  1 23  1  0  0  0  0
  2 23  1  0  0  0  0
  3 23  1  0  0  0  0
  4 10  1  0  0  0  0
  4 26  1  0  0  0  0
  5 21  2  0  0  0  0
  6  9  1  0  0  0  0
  7 12  1  0  0  0  0
  7 21  1  0  0  0  0
  7 29  1  0  0  0  0
  8 14  1  0  0  0  0
  8 21  1  0  0  0  0
  9 20  2  0  0  0  0
  9 30  1  0  0  0  0
 10 27  2  0  0  0  0
 11 12  1  0  0  0  0
 11 13  1  0  0  0  0
 11 17  2  0  0  0  0
 12 14  2  0  0  0  0
 13 15  1  0  0  0  0
 13 19  2  0  0  0  0
 14 18  1  0  0  0  0
 15 23  1  0  0  0  0
 15 25  2  0  0  0  0
 16 17  1  0  0  0  0
 16 18  2  0  0  0  0
 16 22  1  0  0  0  0
 19 20  1  0  0  0  0
 20 24  1  0  0  0  0
 22 26  2  0  0  0  0
 22 27  1  0  0  0  0
 24 25  1  0  0  0  0
 24 28  2  0  0  0  0
 26 32  1  0  0  0  0
 27 33  1  0  0  0  0
 28 31  1  0  0  0  0
 30 31  2  0  0  0  0
M  CHG  2   6  -1   9   1
M  END
> <PUBCHEM_COMPOUND_ID_TYPE>
0

> <PUBCHEM_TOTAL_CHARGE>
0

> <PUBCHEM_SUBSTANCE_ID>
310933351

> <PUBCHEM_SUBSTANCE_VERSION>
1

> <PUBCHEM_EXT_DATASOURCE_NAME>
4488

> <PUBCHEM_EXT_DATASOURCE_REGID>
SCHEMBL16110764

> <PUBCHEM_SUBSTANCE_COMMENT>
InChI=1S/C23H17F3N4O3/c1-11-20(12(2)33-28-11)14-7-16(21-18(9-14)27-22(31)29(21)3)15-10-19-13(5-4-6-30(19)32)8-17(15)23(24,25)26/h4-10H,1-3H3,(H,27,31)
InChIKey=GRASRSHFFYHUDW-UHFFFAOYSA-N

> <PUBCHEM_SUBSTANCE_SYNONYM>
SCHEMBL16110764

> <PUBCHEM_XREF_EXT_ID>
SCHEMBL16110764

> <PUBCHEM_EXT_DATASOURCE_URL>
https://www.surechembl.org/

> <PUBCHEM_EXT_SUBSTANCE_URL>
https://www.surechembl.org/chemical/SCHEMBL16110764

> <PUBCHEM_CID_ASSOCIATIONS>
117601762  1

> <PUBCHEM_COORDINATE_TYPE>
1
3

$$$$
