310949464
  -OEChem-07211613022D

 21 22  0     0  0  0  0  0  0999 V2000
    0.6762    2.0949    0.0000 Cl  0  0  0  0  0  0  0  0  0  0  0  0
   -0.8908    0.6269    0.0000 S   0  0  0  0  0  0  0  0  0  0  0  0
    0.4949   -3.5960    0.0000 O   0  0  0  0  0  0  0  0  0  0  0  0
   -0.7918    2.8538    0.0000 O   0  0  0  0  0  0  0  0  0  0  0  0
   -1.9464    2.0124    0.0000 O   0  0  0  0  0  0  0  0  0  0  0  0
   -0.2145   -0.6928    0.0000 N   0  0  0  0  0  0  0  0  0  0  0  0
    0.4454    0.6269    0.0000 N   0  0  0  0  0  0  0  0  0  0  0  0
   -0.2310   -2.3589    0.0000 N   0  0  0  0  0  0  0  0  0  0  0  0
   -0.2145    0.1815    0.0000 C   0  0  0  0  0  0  0  0  0  0  0  0
   -0.6433    1.4516    0.0000 C   0  0  0  0  0  0  0  0  0  0  0  0
    0.1815    1.4351    0.0000 C   0  0  0  0  0  0  0  0  0  0  0  0
   -1.1382    2.1279    0.0000 C   0  0  0  0  0  0  0  0  0  0  0  0
    0.4784   -1.0722    0.0000 C   0  0  0  0  0  0  0  0  0  0  0  0
   -0.9402   -1.0722    0.0000 C   0  0  0  0  0  0  0  0  0  0  0  0
    0.4784   -1.9134    0.0000 C   0  0  0  0  0  0  0  0  0  0  0  0
   -0.9567   -1.8970    0.0000 C   0  0  0  0  0  0  0  0  0  0  0  0
    1.2207   -3.1342    0.0000 C   0  0  0  0  0  0  0  0  0  0  0  0
    1.9464   -3.5630    0.0000 C   0  0  0  0  0  0  0  0  0  0  0  0
    1.2041   -2.3094    0.0000 C   0  0  0  0  0  0  0  0  0  0  0  0
    1.9134   -2.7218    0.0000 C   0  0  0  0  0  0  0  0  0  0  0  0
   -1.2207    3.5960    0.0000 C   0  0  0  0  0  0  0  0  0  0  0  0
  1 11  1  0  0  0  0
  2  9  1  0  0  0  0
  2 10  1  0  0  0  0
  3  8  1  0  0  0  0
  3 17  1  0  0  0  0
  4 12  1  0  0  0  0
  4 21  1  0  0  0  0
  5 12  2  0  0  0  0
  6  9  1  0  0  0  0
  6 13  1  0  0  0  0
  6 14  1  0  0  0  0
  7  9  2  0  0  0  0
  7 11  1  0  0  0  0
  8 15  1  0  0  0  0
  8 16  1  0  0  0  0
 10 11  2  0  0  0  0
 10 12  1  0  0  0  0
 13 15  1  0  0  0  0
 14 16  1  0  0  0  0
 17 18  1  0  0  0  0
 17 19  1  0  0  0  0
 17 20  1  0  0  0  0
M  END
> <PUBCHEM_COMPOUND_ID_TYPE>
0

> <PUBCHEM_TOTAL_CHARGE>
0

> <PUBCHEM_SUBSTANCE_ID>
310949464

> <PUBCHEM_SUBSTANCE_VERSION>
1

> <PUBCHEM_EXT_DATASOURCE_NAME>
4488

> <PUBCHEM_EXT_DATASOURCE_REGID>
SCHEMBL16127658

> <PUBCHEM_SUBSTANCE_COMMENT>
InChI=1S/C13H20ClN3O3S/c1-13(2,3)20-17-7-5-16(6-8-17)12-15-10(14)9(21-12)11(18)19-4/h5-8H2,1-4H3
InChIKey=CKMPAXBYJJPDNN-UHFFFAOYSA-N

> <PUBCHEM_SUBSTANCE_SYNONYM>
SCHEMBL16127658

> <PUBCHEM_XREF_EXT_ID>
SCHEMBL16127658

> <PUBCHEM_EXT_DATASOURCE_URL>
https://www.surechembl.org/

> <PUBCHEM_EXT_SUBSTANCE_URL>
https://www.surechembl.org/chemical/SCHEMBL16127658

> <PUBCHEM_CID_ASSOCIATIONS>
117614909  1

> <PUBCHEM_COORDINATE_TYPE>
1
3

> <PUBCHEM_BONDANNOTATIONS>
3  8  3

$$$$
