310936488
  -OEChem-07211613022D

 17 18  0     0  0  0  0  0  0999 V2000
    5.2512   -2.3956    0.0000 Br  0  0  0  0  0  0  0  0  0  0  0  0
    4.3887   -3.8330    0.0000 O   0  0  0  0  0  0  0  0  0  0  0  0
    1.9356   -0.9391    0.0000 N   0  0  0  0  0  0  0  0  0  0  0  0
    1.4373   -0.2683    0.0000 N   0  0  0  0  0  0  0  0  0  0  0  0
    3.1622   -3.1047    0.0000 N   0  0  0  0  0  0  0  0  0  0  0  0
    1.4182   -1.6099    0.0000 N   0  0  0  0  0  0  0  0  0  0  0  0
    0.6516   -1.3415    0.0000 N   0  0  0  0  0  0  0  0  0  0  0  0
    3.1622   -1.6674    0.0000 C   0  0  0  0  0  0  0  0  0  0  0  0
    4.4271   -2.3956    0.0000 C   0  0  0  0  0  0  0  0  0  0  0  0
    3.9863   -3.1047    0.0000 C   0  0  0  0  0  0  0  0  0  0  0  0
    2.7597   -0.9582    0.0000 C   0  0  0  0  0  0  0  0  0  0  0  0
    3.9863   -1.6674    0.0000 C   0  0  0  0  0  0  0  0  0  0  0  0
    2.7214   -2.3956    0.0000 C   0  0  0  0  0  0  0  0  0  0  0  0
    0.6516   -0.4983    0.0000 C   0  0  0  0  0  0  0  0  0  0  0  0
    0.0000    0.0000    0.0000 C   0  0  0  0  0  0  0  0  0  0  0  0
    5.2128   -3.8330    0.0000 C   0  0  0  0  0  0  0  0  0  0  0  0
    5.6345   -3.1239    0.0000 C   0  0  0  0  0  0  0  0  0  0  0  0
  1  9  1  0  0  0  0
  2 10  1  0  0  0  0
  2 16  1  0  0  0  0
  3  4  1  0  0  0  0
  3  6  1  0  0  0  0
  3 11  1  0  0  0  0
  4 14  2  0  0  0  0
  5 10  1  0  0  0  0
  5 13  2  0  0  0  0
  6  7  2  0  0  0  0
  7 14  1  0  0  0  0
  8 11  1  0  0  0  0
  8 12  2  0  0  0  0
  8 13  1  0  0  0  0
  9 10  2  0  0  0  0
  9 12  1  0  0  0  0
 14 15  1  0  0  0  0
 16 17  1  0  0  0  0
M  END
> <PUBCHEM_COMPOUND_ID_TYPE>
0

> <PUBCHEM_TOTAL_CHARGE>
0

> <PUBCHEM_SUBSTANCE_ID>
310936488

> <PUBCHEM_SUBSTANCE_VERSION>
1

> <PUBCHEM_EXT_DATASOURCE_NAME>
4488

> <PUBCHEM_EXT_DATASOURCE_REGID>
SCHEMBL16114137

> <PUBCHEM_SUBSTANCE_COMMENT>
InChI=1S/C10H12BrN5O/c1-3-17-10-9(11)4-8(5-12-10)6-16-14-7(2)13-15-16/h4-5H,3,6H2,1-2H3
InChIKey=GNBPUKOWKCSQQW-UHFFFAOYSA-N

> <PUBCHEM_SUBSTANCE_SYNONYM>
SCHEMBL16114137

> <PUBCHEM_XREF_EXT_ID>
SCHEMBL16114137

> <PUBCHEM_EXT_DATASOURCE_URL>
https://www.surechembl.org/

> <PUBCHEM_EXT_SUBSTANCE_URL>
https://www.surechembl.org/chemical/SCHEMBL16114137

> <PUBCHEM_CID_ASSOCIATIONS>
117604416  1

> <PUBCHEM_COORDINATE_TYPE>
1
3

$$$$
