310944372
  -OEChem-07211613022D

 20 22  0     0  0  0  0  0  0999 V2000
    0.5088    2.0296    0.0000 F   0  0  0  0  0  0  0  0  0  0  0  0
    0.4873   -2.0296    0.0000 N   0  0  0  0  0  0  0  0  0  0  0  0
    2.6616    1.6012    0.0000 N   0  0  0  0  0  0  0  0  0  0  0  0
   -0.2303    0.8300    0.0000 C   0  0  0  0  0  0  0  0  0  0  0  0
   -1.0229    1.0979    0.0000 C   0  0  0  0  0  0  0  0  0  0  0  0
   -0.2410    0.0268    0.0000 C   0  0  0  0  0  0  0  0  0  0  0  0
   -1.5156    0.4338    0.0000 C   0  0  0  0  0  0  0  0  0  0  0  0
   -1.0336   -0.2303    0.0000 C   0  0  0  0  0  0  0  0  0  0  0  0
    0.4873    1.2371    0.0000 C   0  0  0  0  0  0  0  0  0  0  0  0
    0.4873   -0.3803    0.0000 C   0  0  0  0  0  0  0  0  0  0  0  0
    1.2157    0.8300    0.0000 C   0  0  0  0  0  0  0  0  0  0  0  0
    1.2049    0.0268    0.0000 C   0  0  0  0  0  0  0  0  0  0  0  0
   -2.3295    0.3373    0.0000 C   0  0  0  0  0  0  0  0  0  0  0  0
   -1.3549   -0.9586    0.0000 C   0  0  0  0  0  0  0  0  0  0  0  0
   -1.8262    1.2906    0.0000 C   0  0  0  0  0  0  0  0  0  0  0  0
   -0.6052    1.7940    0.0000 C   0  0  0  0  0  0  0  0  0  0  0  0
    0.4873   -1.2157    0.0000 C   0  0  0  0  0  0  0  0  0  0  0  0
   -2.6616   -0.3803    0.0000 C   0  0  0  0  0  0  0  0  0  0  0  0
   -2.1903   -1.0443    0.0000 C   0  0  0  0  0  0  0  0  0  0  0  0
    1.9440    1.2264    0.0000 C   0  0  0  0  0  0  0  0  0  0  0  0
  1  9  1  0  0  0  0
  2 17  3  0  0  0  0
  3 20  3  0  0  0  0
  4  5  1  0  0  0  0
  4  6  2  0  0  0  0
  4  9  1  0  0  0  0
  5  7  1  0  0  0  0
  5 15  1  0  0  0  0
  5 16  1  0  0  0  0
  6  8  1  0  0  0  0
  6 10  1  0  0  0  0
  7  8  2  0  0  0  0
  7 13  1  0  0  0  0
  8 14  1  0  0  0  0
  9 11  2  0  0  0  0
 10 12  2  0  0  0  0
 10 17  1  0  0  0  0
 11 12  1  0  0  0  0
 11 20  1  0  0  0  0
 13 18  2  0  0  0  0
 14 19  2  0  0  0  0
 18 19  1  0  0  0  0
M  END
> <PUBCHEM_COMPOUND_ID_TYPE>
0

> <PUBCHEM_TOTAL_CHARGE>
0

> <PUBCHEM_SUBSTANCE_ID>
310944372

> <PUBCHEM_SUBSTANCE_VERSION>
1

> <PUBCHEM_EXT_DATASOURCE_NAME>
4488

> <PUBCHEM_EXT_DATASOURCE_REGID>
SCHEMBL16122447

> <PUBCHEM_SUBSTANCE_COMMENT>
InChI=1S/C17H11FN2/c1-17(2)13-6-4-3-5-12(13)14-10(8-19)7-11(9-20)16(18)15(14)17/h3-7H,1-2H3
InChIKey=VDWOVPCPYJRBCU-UHFFFAOYSA-N

> <PUBCHEM_SUBSTANCE_SYNONYM>
SCHEMBL16122447

> <PUBCHEM_XREF_EXT_ID>
SCHEMBL16122447

> <PUBCHEM_EXT_DATASOURCE_URL>
https://www.surechembl.org/

> <PUBCHEM_EXT_SUBSTANCE_URL>
https://www.surechembl.org/chemical/SCHEMBL16122447

> <PUBCHEM_CID_ASSOCIATIONS>
117610629  1

> <PUBCHEM_COORDINATE_TYPE>
1
3

$$$$
