310946361
  -OEChem-07211613022D

 18 19  0     0  0  0  0  0  0999 V2000
   -0.4300    7.0130    0.0000 I   0  0  0  0  0  0  0  0  0  0  0  0
    0.9989    9.4880    0.0000 I   0  0  0  0  0  0  0  0  0  0  0  0
   -0.4300    8.6630    0.0000 O   0  0  0  0  0  0  0  0  0  0  0  0
   -3.2879    7.0130    0.0000 O   0  0  0  0  0  0  0  0  0  0  0  0
    0.2844    8.2505    0.0000 C   0  0  0  0  0  0  0  0  0  0  0  0
    0.2844    7.4255    0.0000 C   0  0  0  0  0  0  0  0  0  0  0  0
    0.9989    8.6630    0.0000 C   0  0  0  0  0  0  0  0  0  0  0  0
    1.7134    7.4255    0.0000 C   0  0  0  0  0  0  0  0  0  0  0  0
    0.9989    7.0130    0.0000 C   0  0  0  0  0  0  0  0  0  0  0  0
    1.7134    8.2505    0.0000 C   0  0  0  0  0  0  0  0  0  0  0  0
   -1.1445    8.2505    0.0000 C   0  0  0  0  0  0  0  0  0  0  0  0
   -1.8590    8.6630    0.0000 C   0  0  0  0  0  0  0  0  0  0  0  0
   -1.1445    7.4255    0.0000 C   0  0  0  0  0  0  0  0  0  0  0  0
    2.4278    7.0130    0.0000 C   0  0  0  0  0  0  0  0  0  0  0  0
   -2.5735    7.4255    0.0000 C   0  0  0  0  0  0  0  0  0  0  0  0
   -2.5735    8.2505    0.0000 C   0  0  0  0  0  0  0  0  0  0  0  0
   -1.8590    7.0130    0.0000 C   0  0  0  0  0  0  0  0  0  0  0  0
    3.1423    7.4255    0.0000 C   0  0  0  0  0  0  0  0  0  0  0  0
  1  6  1  0  0  0  0
  2  7  1  0  0  0  0
  3  5  1  0  0  0  0
  3 11  1  0  0  0  0
  4 15  1  0  0  0  0
  5  6  2  0  0  0  0
  5  7  1  0  0  0  0
  6  9  1  0  0  0  0
  7 10  2  0  0  0  0
  8  9  2  0  0  0  0
  8 10  1  0  0  0  0
  8 14  1  0  0  0  0
 11 12  2  0  0  0  0
 11 13  1  0  0  0  0
 12 16  1  0  0  0  0
 13 17  2  0  0  0  0
 14 18  1  0  0  0  0
 15 16  2  0  0  0  0
 15 17  1  0  0  0  0
M  END
> <PUBCHEM_COMPOUND_ID_TYPE>
0

> <PUBCHEM_TOTAL_CHARGE>
0

> <PUBCHEM_SUBSTANCE_ID>
310946361

> <PUBCHEM_SUBSTANCE_VERSION>
1

> <PUBCHEM_EXT_DATASOURCE_NAME>
4488

> <PUBCHEM_EXT_DATASOURCE_REGID>
SCHEMBL16124480

> <PUBCHEM_SUBSTANCE_COMMENT>
InChI=1S/C14H12I2O2/c1-2-9-7-12(15)14(13(16)8-9)18-11-5-3-10(17)4-6-11/h3-8,17H,2H2,1H3
InChIKey=LSZPFBMDLFBJAX-UHFFFAOYSA-N

> <PUBCHEM_SUBSTANCE_SYNONYM>
SCHEMBL16124480

> <PUBCHEM_XREF_EXT_ID>
SCHEMBL16124480

> <PUBCHEM_EXT_DATASOURCE_URL>
https://www.surechembl.org/

> <PUBCHEM_EXT_SUBSTANCE_URL>
https://www.surechembl.org/chemical/SCHEMBL16124480

> <PUBCHEM_CID_ASSOCIATIONS>
23386468  1

> <PUBCHEM_COORDINATE_TYPE>
1
3

$$$$
