310942183
  -OEChem-07211613022D

 29 30  0     1  0  0  0  0  0999 V2000
    1.7625    0.4625    0.0000 Cl  0  0  0  0  0  0  0  0  0  0  0  0
    0.3250   -2.0250    0.0000 F   0  0  0  0  0  0  0  0  0  0  0  0
    1.7501   -1.2000    0.0000 O   0  0  0  0  0  0  0  0  0  0  0  0
   -0.4125    1.7125    0.0000 O   0  0  0  0  0  0  0  0  0  0  0  0
   -1.8376   -0.7750    0.0000 N   0  0  0  0  0  0  0  0  0  0  0  0
   -1.8500    1.7250    0.0000 N   0  0  0  0  0  0  0  0  0  0  0  0
   -3.9251    2.4376    0.0000 N   0  0  0  0  0  0  0  0  0  0  0  0
   -0.4125   -0.7750    0.0000 C   0  0  0  0  0  0  0  0  0  0  0  0
    0.3250   -1.1876    0.0000 C   0  0  0  0  0  0  0  0  0  0  0  0
    1.0375   -0.7750    0.0000 C   0  0  0  0  0  0  0  0  0  0  0  0
    1.0375    0.0625    0.0000 C   0  0  0  0  0  0  0  0  0  0  0  0
   -1.1125   -1.1876    0.0000 C   0  0  3  0  0  0  0  0  0  0  0  0
   -0.3875    0.0500    0.0000 C   0  0  0  0  0  0  0  0  0  0  0  0
    0.3250    0.4625    0.0000 C   0  0  0  0  0  0  0  0  0  0  0  0
    2.4751   -0.7750    0.0000 C   0  0  0  0  0  0  0  0  0  0  0  0
   -1.1250   -2.0376    0.0000 C   0  0  0  0  0  0  0  0  0  0  0  0
   -1.8376    0.0625    0.0000 C   0  0  3  0  0  0  0  0  0  0  0  0
    2.5000    0.0500    0.0000 C   0  0  0  0  0  0  0  0  0  0  0  0
    3.2126   -1.1876    0.0000 C   0  0  0  0  0  0  0  0  0  0  0  0
   -1.1250    0.4625    0.0000 C   0  0  0  0  0  0  0  0  0  0  0  0
   -1.1376    1.3000    0.0000 C   0  0  0  0  0  0  0  0  0  0  0  0
    3.2126    0.4625    0.0000 C   0  0  0  0  0  0  0  0  0  0  0  0
    3.9251   -0.7750    0.0000 C   0  0  0  0  0  0  0  0  0  0  0  0
   -1.8251   -2.4376    0.0000 C   0  0  0  0  0  0  0  0  0  0  0  0
   -2.5501    0.4750    0.0000 C   0  0  0  0  0  0  0  0  0  0  0  0
    3.9251    0.0500    0.0000 C   0  0  0  0  0  0  0  0  0  0  0  0
   -2.6876    1.7376    0.0000 C   0  0  3  0  0  0  0  0  0  0  0  0
   -3.0876    2.4376    0.0000 C   0  0  0  0  0  0  0  0  0  0  0  0
   -3.0876    1.0000    0.0000 C   0  0  0  0  0  0  0  0  0  0  0  0
  1 11  1  0  0  0  0
  2  9  1  0  0  0  0
  3 10  1  0  0  0  0
  3 15  1  0  0  0  0
  4 21  2  0  0  0  0
 12  5  1  1  0  0  0
  5 17  1  0  0  0  0
  6 21  1  0  0  0  0
  6 27  1  0  0  0  0
  7 28  1  0  0  0  0
  8  9  2  0  0  0  0
  8 12  1  0  0  0  0
  8 13  1  0  0  0  0
  9 10  1  0  0  0  0
 10 11  2  0  0  0  0
 11 14  1  0  0  0  0
 12 16  1  0  0  0  0
 13 14  2  0  0  0  0
 15 18  2  0  0  0  0
 15 19  1  0  0  0  0
 16 24  1  0  0  0  0
 17 20  1  0  0  0  0
 17 25  1  1  0  0  0
 18 22  1  0  0  0  0
 19 23  2  0  0  0  0
 20 21  1  0  0  0  0
 22 26  2  0  0  0  0
 23 26  1  0  0  0  0
 27 28  1  0  0  0  0
 27 29  1  1  0  0  0
M  END
> <PUBCHEM_COMPOUND_ID_TYPE>
0

> <PUBCHEM_TOTAL_CHARGE>
0

> <PUBCHEM_SUBSTANCE_ID>
310942183

> <PUBCHEM_SUBSTANCE_VERSION>
1

> <PUBCHEM_EXT_DATASOURCE_NAME>
4488

> <PUBCHEM_EXT_DATASOURCE_REGID>
SCHEMBL16120218

> <PUBCHEM_SUBSTANCE_COMMENT>
InChI=1S/C22H29ClFN3O2/c1-4-19(26-14(2)12-20(28)27-15(3)13-25)17-10-11-18(23)22(21(17)24)29-16-8-6-5-7-9-16/h5-11,14-15,19,26H,4,12-13,25H2,1-3H3,(H,27,28)/t14-,15-,19+/m0/s1
InChIKey=PLLQSBCONQQIDP-YZVOILCLSA-N

> <PUBCHEM_SUBSTANCE_SYNONYM>
SCHEMBL16120218

> <PUBCHEM_XREF_EXT_ID>
SCHEMBL16120218

> <PUBCHEM_EXT_DATASOURCE_URL>
https://www.surechembl.org/

> <PUBCHEM_EXT_SUBSTANCE_URL>
https://www.surechembl.org/chemical/SCHEMBL16120218

> <PUBCHEM_CID_ASSOCIATIONS>
117608834  1

> <PUBCHEM_COORDINATE_TYPE>
1
3

> <PUBCHEM_BONDANNOTATIONS>
17  25  5
27  29  5
12  5  5

$$$$
