310948043
  -OEChem-07211613022D

 43 47  0     0  0  0  0  0  0999 V2000
    3.9782   -2.5324    0.0000 S   0  0  0  0  0  0  0  0  0  0  0  0
   -3.6803    0.4293    0.0000 F   0  0  0  0  0  0  0  0  0  0  0  0
   -2.8566    0.4293    0.0000 F   0  0  0  0  0  0  0  0  0  0  0  0
    4.2411    3.2334    0.0000 F   0  0  0  0  0  0  0  0  0  0  0  0
    3.1019    2.9179    0.0000 F   0  0  0  0  0  0  0  0  0  0  0  0
    4.5040    2.0943    0.0000 F   0  0  0  0  0  0  0  0  0  0  0  0
    3.3998    1.7963    0.0000 O   0  0  0  0  0  0  0  0  0  0  0  0
   -4.6967   -0.3067    0.0000 O   0  0  0  0  0  0  0  0  0  0  0  0
    3.2597   -2.9530    0.0000 O   0  0  0  0  0  0  0  0  0  0  0  0
    4.6967   -2.1293    0.0000 O   0  0  0  0  0  0  0  0  0  0  0  0
   -0.1752    0.3242    0.0000 N   0  0  0  0  0  0  0  0  0  0  0  0
   -1.7174   -1.7613    0.0000 N   0  0  0  0  0  0  0  0  0  0  0  0
   -2.5061   -1.5159    0.0000 N   0  0  0  0  0  0  0  0  0  0  0  0
   -0.9814    0.4118    0.0000 N   0  0  0  0  0  0  0  0  0  0  0  0
   -1.1742    1.2180    0.0000 N   0  0  0  0  0  0  0  0  0  0  0  0
    0.2453   -0.3768    0.0000 C   0  0  0  0  0  0  0  0  0  0  0  0
   -0.1752   -1.0954    0.0000 C   0  0  0  0  0  0  0  0  0  0  0  0
   -1.2443   -1.0779    0.0000 C   0  0  0  0  0  0  0  0  0  0  0  0
    0.1927    1.1129    0.0000 C   0  0  0  0  0  0  0  0  0  0  0  0
   -2.5237   -0.6922    0.0000 C   0  0  0  0  0  0  0  0  0  0  0  0
    1.0691   -0.3768    0.0000 C   0  0  0  0  0  0  0  0  0  0  0  0
    1.4896   -1.0779    0.0000 C   0  0  0  0  0  0  0  0  0  0  0  0
   -1.7525   -0.4118    0.0000 C   0  0  0  0  0  0  0  0  0  0  0  0
    0.2804   -1.8139    0.0000 C   0  0  0  0  0  0  0  0  0  0  0  0
   -3.2597   -0.2716    0.0000 C   0  0  0  0  0  0  0  0  0  0  0  0
    0.9639    1.2881    0.0000 C   0  0  0  0  0  0  0  0  0  0  0  0
    1.1041   -1.7963    0.0000 C   0  0  0  0  0  0  0  0  0  0  0  0
    2.3309   -1.0779    0.0000 C   0  0  0  0  0  0  0  0  0  0  0  0
   -0.4731    1.6386    0.0000 C   0  0  0  0  0  0  0  0  0  0  0  0
    2.7515   -1.7963    0.0000 C   0  0  0  0  0  0  0  0  0  0  0  0
    3.5752   -1.8139    0.0000 C   0  0  0  0  0  0  0  0  0  0  0  0
    1.5422    0.6746    0.0000 C   0  0  0  0  0  0  0  0  0  0  0  0
    1.2618    2.0767    0.0000 C   0  0  0  0  0  0  0  0  0  0  0  0
   -1.4546   -2.5500    0.0000 C   0  0  0  0  0  0  0  0  0  0  0  0
    2.7339   -0.3768    0.0000 C   0  0  0  0  0  0  0  0  0  0  0  0
   -3.9607   -0.6922    0.0000 C   0  0  0  0  0  0  0  0  0  0  0  0
    2.6112    1.6386    0.0000 C   0  0  0  0  0  0  0  0  0  0  0  0
    2.3484    0.8500    0.0000 C   0  0  0  0  0  0  0  0  0  0  0  0
    2.0504    2.2345    0.0000 C   0  0  0  0  0  0  0  0  0  0  0  0
    3.9782   -1.0954    0.0000 C   0  0  0  0  0  0  0  0  0  0  0  0
    3.5752   -0.3593    0.0000 C   0  0  0  0  0  0  0  0  0  0  0  0
    3.8205    2.5149    0.0000 C   0  0  0  0  0  0  0  0  0  0  0  0
    4.3988   -3.2334    0.0000 C   0  0  0  0  0  0  0  0  0  0  0  0
  1  9  2  0  0  0  0
  1 10  2  0  0  0  0
  1 31  1  0  0  0  0
  1 43  1  0  0  0  0
  2 25  1  0  0  0  0
  3 25  1  0  0  0  0
  4 42  1  0  0  0  0
  5 42  1  0  0  0  0
  6 42  1  0  0  0  0
  7 37  1  0  0  0  0
  7 42  1  0  0  0  0
  8 36  1  0  0  0  0
 11 14  1  0  0  0  0
 11 16  1  0  0  0  0
 11 19  1  0  0  0  0
 12 13  1  0  0  0  0
 12 18  1  0  0  0  0
 12 34  1  0  0  0  0
 13 20  2  0  0  0  0
 14 15  2  0  0  0  0
 15 29  1  0  0  0  0
 16 17  2  0  0  0  0
 16 21  1  0  0  0  0
 17 18  1  0  0  0  0
 17 24  1  0  0  0  0
 18 23  2  0  0  0  0
 19 26  1  0  0  0  0
 19 29  2  0  0  0  0
 20 23  1  0  0  0  0
 20 25  1  0  0  0  0
 21 22  2  0  0  0  0
 22 27  1  0  0  0  0
 22 28  1  0  0  0  0
 24 27  2  0  0  0  0
 25 36  1  0  0  0  0
 26 32  2  0  0  0  0
 26 33  1  0  0  0  0
 28 30  1  0  0  0  0
 28 35  2  0  0  0  0
 30 31  2  0  0  0  0
 31 40  1  0  0  0  0
 32 38  1  0  0  0  0
 33 39  2  0  0  0  0
 35 41  1  0  0  0  0
 37 38  2  0  0  0  0
 37 39  1  0  0  0  0
 40 41  2  0  0  0  0
M  END
> <PUBCHEM_COMPOUND_ID_TYPE>
0

> <PUBCHEM_TOTAL_CHARGE>
0

> <PUBCHEM_SUBSTANCE_ID>
310948043

> <PUBCHEM_SUBSTANCE_VERSION>
1

> <PUBCHEM_EXT_DATASOURCE_NAME>
4488

> <PUBCHEM_EXT_DATASOURCE_REGID>
SCHEMBL16126218

> <PUBCHEM_SUBSTANCE_COMMENT>
InChI=1S/C28H22F5N5O4S/c1-37-23(14-26(35-37)27(29,30)16-39)22-11-8-19(18-4-3-5-21(12-18)43(2,40)41)13-24(22)38-25(15-34-36-38)17-6-9-20(10-7-17)42-28(31,32)33/h3-15,39H,16H2,1-2H3
InChIKey=OJZINPVODGZMFQ-UHFFFAOYSA-N

> <PUBCHEM_SUBSTANCE_SYNONYM>
SCHEMBL16126218

> <PUBCHEM_XREF_EXT_ID>
SCHEMBL16126218

> <PUBCHEM_EXT_DATASOURCE_URL>
https://www.surechembl.org/

> <PUBCHEM_EXT_SUBSTANCE_URL>
https://www.surechembl.org/chemical/SCHEMBL16126218

> <PUBCHEM_CID_ASSOCIATIONS>
86276078  1

> <PUBCHEM_COORDINATE_TYPE>
1
3

$$$$
