310944358
  -OEChem-07211613022D

 48 55  0     0  0  0  0  0  0999 V2000
   -0.0171    3.0936    0.0000 F   0  0  0  0  0  0  0  0  0  0  0  0
   -0.0342   -0.2222    0.0000 N   0  0  0  0  0  0  0  0  0  0  0  0
   -2.1706    2.6492    0.0000 N   0  0  0  0  0  0  0  0  0  0  0  0
    2.1535    2.6150    0.0000 N   0  0  0  0  0  0  0  0  0  0  0  0
   -0.0342    0.6324    0.0000 C   0  0  0  0  0  0  0  0  0  0  0  0
   -0.7691   -0.6153    0.0000 C   0  0  0  0  0  0  0  0  0  0  0  0
    0.7179   -0.6153    0.0000 C   0  0  0  0  0  0  0  0  0  0  0  0
   -0.7691   -1.4186    0.0000 C   0  0  0  0  0  0  0  0  0  0  0  0
    0.6666   -1.4357    0.0000 C   0  0  0  0  0  0  0  0  0  0  0  0
    0.6837    1.0426    0.0000 C   0  0  0  0  0  0  0  0  0  0  0  0
   -0.7691    1.0426    0.0000 C   0  0  0  0  0  0  0  0  0  0  0  0
    0.7008    1.8630    0.0000 C   0  0  0  0  0  0  0  0  0  0  0  0
   -0.7691    1.8630    0.0000 C   0  0  0  0  0  0  0  0  0  0  0  0
   -0.0342    2.2732    0.0000 C   0  0  0  0  0  0  0  0  0  0  0  0
    1.5212    0.8204    0.0000 C   0  0  0  0  0  0  0  0  0  0  0  0
   -1.5724    0.8546    0.0000 C   0  0  0  0  0  0  0  0  0  0  0  0
   -1.4870   -0.2222    0.0000 C   0  0  0  0  0  0  0  0  0  0  0  0
    1.4357   -0.2222    0.0000 C   0  0  0  0  0  0  0  0  0  0  0  0
   -1.4357   -1.8459    0.0000 C   0  0  0  0  0  0  0  0  0  0  0  0
    1.4186   -1.8459    0.0000 C   0  0  0  0  0  0  0  0  0  0  0  0
   -2.1877   -1.4528    0.0000 C   0  0  0  0  0  0  0  0  0  0  0  0
    2.1364   -1.4528    0.0000 C   0  0  0  0  0  0  0  0  0  0  0  0
   -2.1706   -0.6153    0.0000 C   0  0  0  0  0  0  0  0  0  0  0  0
    2.1535   -0.6324    0.0000 C   0  0  0  0  0  0  0  0  0  0  0  0
   -1.4699    2.2732    0.0000 C   0  0  0  0  0  0  0  0  0  0  0  0
    1.4186    2.2561    0.0000 C   0  0  0  0  0  0  0  0  0  0  0  0
    1.7433    0.0342    0.0000 C   0  0  0  0  0  0  0  0  0  0  0  0
    2.0851    1.3673    0.0000 C   0  0  0  0  0  0  0  0  0  0  0  0
   -2.1364    1.4015    0.0000 C   0  0  0  0  0  0  0  0  0  0  0  0
   -1.7946    0.0513    0.0000 C   0  0  0  0  0  0  0  0  0  0  0  0
   -2.9055   -1.8630    0.0000 C   0  0  0  0  0  0  0  0  0  0  0  0
    2.9055   -1.8630    0.0000 C   0  0  0  0  0  0  0  0  0  0  0  0
    2.5466   -0.1709    0.0000 C   0  0  0  0  0  0  0  0  0  0  0  0
    2.9055    1.1793    0.0000 C   0  0  0  0  0  0  0  0  0  0  0  0
   -2.9568    1.2135    0.0000 C   0  0  0  0  0  0  0  0  0  0  0  0
   -2.5979   -0.1538    0.0000 C   0  0  0  0  0  0  0  0  0  0  0  0
   -3.6575   -1.4699    0.0000 C   0  0  0  0  0  0  0  0  0  0  0  0
   -2.9226   -2.7005    0.0000 C   0  0  0  0  0  0  0  0  0  0  0  0
    2.9055   -2.7005    0.0000 C   0  0  0  0  0  0  0  0  0  0  0  0
    3.6405   -1.4699    0.0000 C   0  0  0  0  0  0  0  0  0  0  0  0
    3.1107    0.3760    0.0000 C   0  0  0  0  0  0  0  0  0  0  0  0
   -3.1790    0.4273    0.0000 C   0  0  0  0  0  0  0  0  0  0  0  0
   -4.3412   -1.8630    0.0000 C   0  0  0  0  0  0  0  0  0  0  0  0
   -3.6234   -3.0765    0.0000 C   0  0  0  0  0  0  0  0  0  0  0  0
    3.6234   -3.0936    0.0000 C   0  0  0  0  0  0  0  0  0  0  0  0
    4.3412   -1.8630    0.0000 C   0  0  0  0  0  0  0  0  0  0  0  0
   -4.3412   -2.6663    0.0000 C   0  0  0  0  0  0  0  0  0  0  0  0
    4.3412   -2.7005    0.0000 C   0  0  0  0  0  0  0  0  0  0  0  0
  1 14  1  0  0  0  0
  2  5  1  0  0  0  0
  2  6  1  0  0  0  0
  2  7  1  0  0  0  0
  3 25  3  0  0  0  0
  4 26  3  0  0  0  0
  5 10  2  0  0  0  0
  5 11  1  0  0  0  0
  6  8  1  0  0  0  0
  6 17  2  0  0  0  0
  7  9  2  0  0  0  0
  7 18  1  0  0  0  0
  8  9  1  0  0  0  0
  8 19  2  0  0  0  0
  9 20  1  0  0  0  0
 10 12  1  0  0  0  0
 10 15  1  0  0  0  0
 11 13  2  0  0  0  0
 11 16  1  0  0  0  0
 12 14  2  0  0  0  0
 12 26  1  0  0  0  0
 13 14  1  0  0  0  0
 13 25  1  0  0  0  0
 15 27  2  0  0  0  0
 15 28  1  0  0  0  0
 16 29  2  0  0  0  0
 16 30  1  0  0  0  0
 17 23  1  0  0  0  0
 18 24  2  0  0  0  0
 19 21  1  0  0  0  0
 20 22  2  0  0  0  0
 21 23  2  0  0  0  0
 21 31  1  0  0  0  0
 22 24  1  0  0  0  0
 22 32  1  0  0  0  0
 27 33  1  0  0  0  0
 28 34  2  0  0  0  0
 29 35  1  0  0  0  0
 30 36  2  0  0  0  0
 31 37  2  0  0  0  0
 31 38  1  0  0  0  0
 32 39  2  0  0  0  0
 32 40  1  0  0  0  0
 33 41  2  0  0  0  0
 34 41  1  0  0  0  0
 35 42  2  0  0  0  0
 36 42  1  0  0  0  0
 37 43  1  0  0  0  0
 38 44  2  0  0  0  0
 39 45  1  0  0  0  0
 40 46  2  0  0  0  0
 43 47  2  0  0  0  0
 44 47  1  0  0  0  0
 45 48  2  0  0  0  0
 46 48  1  0  0  0  0
M  END
> <PUBCHEM_COMPOUND_ID_TYPE>
0

> <PUBCHEM_TOTAL_CHARGE>
0

> <PUBCHEM_SUBSTANCE_ID>
310944358

> <PUBCHEM_SUBSTANCE_VERSION>
1

> <PUBCHEM_EXT_DATASOURCE_NAME>
4488

> <PUBCHEM_EXT_DATASOURCE_REGID>
SCHEMBL16122433

> <PUBCHEM_SUBSTANCE_COMMENT>
InChI=1S/C44H26FN3/c45-43-37(27-46)41(31-17-9-3-10-18-31)44(42(38(43)28-47)32-19-11-4-12-20-32)48-39-23-21-33(29-13-5-1-6-14-29)25-35(39)36-26-34(22-24-40(36)48)30-15-7-2-8-16-30/h1-26H
InChIKey=SJXMMYGKHNVLSP-UHFFFAOYSA-N

> <PUBCHEM_SUBSTANCE_SYNONYM>
SCHEMBL16122433

> <PUBCHEM_XREF_EXT_ID>
SCHEMBL16122433

> <PUBCHEM_EXT_DATASOURCE_URL>
https://www.surechembl.org/

> <PUBCHEM_EXT_SUBSTANCE_URL>
https://www.surechembl.org/chemical/SCHEMBL16122433

> <PUBCHEM_CID_ASSOCIATIONS>
117610615  1

> <PUBCHEM_COORDINATE_TYPE>
1
3

$$$$
