310948794
  -OEChem-07211613022D

 44 47  0     1  0  0  0  0  0999 V2000
   -2.5443    1.1723    0.0000 O   0  0  0  0  0  0  0  0  0  0  0  0
   -1.1028   -0.4776    0.0000 O   0  0  0  0  0  0  0  0  0  0  0  0
   -2.5443   -1.3112    0.0000 O   0  0  0  0  0  0  0  0  0  0  0  0
   -3.9857   -0.4776    0.0000 O   0  0  0  0  0  0  0  0  0  0  0  0
   -1.0333    1.1202    0.0000 O   0  0  0  0  0  0  0  0  0  0  0  0
    4.0204   -0.2866    0.0000 O   0  0  0  0  0  0  0  0  0  0  0  0
    3.2389    2.5443    0.0000 O   0  0  0  0  0  0  0  0  0  0  0  0
   -4.7151    0.7555    0.0000 O   0  0  0  0  0  0  0  0  0  0  0  0
   -1.0507   -1.9885    0.0000 O   0  0  0  0  0  0  0  0  0  0  0  0
    1.1375    0.7034    0.0000 O   0  0  0  0  0  0  0  0  0  0  0  0
   -3.9162   -1.3459    0.0000 O   0  0  0  0  0  0  0  0  0  0  0  0
   -4.6978    0.7034    0.0000 O   0  0  0  0  0  0  0  0  0  0  0  0
   -5.4272    1.9364    0.0000 O   0  0  0  0  0  0  0  0  0  0  0  0
    3.3779    1.0681    0.0000 N   0  0  0  0  0  0  0  0  0  0  0  0
    0.1824   -1.0507    0.0000 N   0  0  0  0  0  0  0  0  0  0  0  0
   -2.5443   -0.4602    0.0000 C   0  0  3  0  0  0  0  0  0  0  0  0
   -1.8148   -0.0434    0.0000 C   0  0  3  0  0  0  0  0  0  0  0  0
   -3.2563   -0.0434    0.0000 C   0  0  3  0  0  0  0  0  0  0  0  0
   -1.8148    0.7728    0.0000 C   0  0  3  0  0  0  0  0  0  0  0  0
   -3.2563    0.7728    0.0000 C   0  0  3  0  0  0  0  0  0  0  0  0
    4.7151    1.0333    0.0000 C   0  0  0  0  0  0  0  0  0  0  0  0
    4.4894    1.7975    0.0000 C   0  0  0  0  0  0  0  0  0  0  0  0
    4.0204    0.5992    0.0000 C   0  0  0  0  0  0  0  0  0  0  0  0
    3.6731    1.8322    0.0000 C   0  0  0  0  0  0  0  0  0  0  0  0
   -0.6165   -1.2244    0.0000 C   0  0  0  0  0  0  0  0  0  0  0  0
   -3.9857    1.1896    0.0000 C   0  0  0  0  0  0  0  0  0  0  0  0
    5.0798    2.3706    0.0000 C   0  0  0  0  0  0  0  0  0  0  0  0
    5.5314    0.8076    0.0000 C   0  0  0  0  0  0  0  0  0  0  0  0
    2.5964    0.7207    0.0000 C   0  0  0  0  0  0  0  0  0  0  0  0
   -3.2737   -1.7454    0.0000 C   0  0  0  0  0  0  0  0  0  0  0  0
   -4.7151   -0.0608    0.0000 C   0  0  0  0  0  0  0  0  0  0  0  0
    5.8961    2.1622    0.0000 C   0  0  0  0  0  0  0  0  0  0  0  0
    6.1045    1.3807    0.0000 C   0  0  0  0  0  0  0  0  0  0  0  0
   -0.3039    0.7207    0.0000 C   0  0  0  0  0  0  0  0  0  0  0  0
    1.8496    1.1375    0.0000 C   0  0  0  0  0  0  0  0  0  0  0  0
    0.7902   -1.6064    0.0000 C   0  0  0  0  0  0  0  0  0  0  0  0
    0.5297   -0.3039    0.0000 C   0  0  0  0  0  0  0  0  0  0  0  0
    0.4081    1.1375    0.0000 C   0  0  0  0  0  0  0  0  0  0  0  0
   -5.4445    1.1723    0.0000 C   0  0  0  0  0  0  0  0  0  0  0  0
   -3.2563   -2.5443    0.0000 C   0  0  0  0  0  0  0  0  0  0  0  0
    1.5196   -1.2070    0.0000 C   0  0  0  0  0  0  0  0  0  0  0  0
    1.3633   -0.3908    0.0000 C   0  0  0  0  0  0  0  0  0  0  0  0
   -5.3924   -0.4776    0.0000 C   0  0  0  0  0  0  0  0  0  0  0  0
   -6.1045    0.7555    0.0000 C   0  0  0  0  0  0  0  0  0  0  0  0
  1 19  1  0  0  0  0
  1 20  1  0  0  0  0
 17  2  1  1  0  0  0
  2 25  1  0  0  0  0
 16  3  1  1  0  0  0
  3 30  1  0  0  0  0
 18  4  1  6  0  0  0
  4 31  1  0  0  0  0
 19  5  1  6  0  0  0
  5 34  1  0  0  0  0
  6 23  2  0  0  0  0
  7 24  2  0  0  0  0
  8 26  1  0  0  0  0
  8 39  1  0  0  0  0
  9 25  2  0  0  0  0
 10 35  1  0  0  0  0
 10 38  1  0  0  0  0
 11 30  2  0  0  0  0
 12 31  2  0  0  0  0
 13 39  2  0  0  0  0
 14 23  1  0  0  0  0
 14 24  1  0  0  0  0
 14 29  1  0  0  0  0
 15 25  1  0  0  0  0
 15 36  1  0  0  0  0
 15 37  1  0  0  0  0
 16 17  1  0  0  0  0
 16 18  1  0  0  0  0
 17 19  1  0  0  0  0
 18 20  1  0  0  0  0
 20 26  1  1  0  0  0
 21 22  1  0  0  0  0
 21 23  1  0  0  0  0
 21 28  2  0  0  0  0
 22 24  1  0  0  0  0
 22 27  2  0  0  0  0
 27 32  1  0  0  0  0
 28 33  1  0  0  0  0
 29 35  1  0  0  0  0
 30 40  1  0  0  0  0
 31 43  1  0  0  0  0
 32 33  2  0  0  0  0
 34 38  1  0  0  0  0
 36 41  1  0  0  0  0
 37 42  1  0  0  0  0
 39 44  1  0  0  0  0
 41 42  1  0  0  0  0
M  END
> <PUBCHEM_COMPOUND_ID_TYPE>
0

> <PUBCHEM_TOTAL_CHARGE>
0

> <PUBCHEM_SUBSTANCE_ID>
310948794

> <PUBCHEM_SUBSTANCE_VERSION>
1

> <PUBCHEM_EXT_DATASOURCE_NAME>
4488

> <PUBCHEM_EXT_DATASOURCE_REGID>
SCHEMBL16126978

> <PUBCHEM_SUBSTANCE_COMMENT>
InChI=1S/C29H36N2O13/c1-17(32)40-16-22-23(41-18(2)33)24(42-19(3)34)25(44-29(37)30-10-6-7-11-30)28(43-22)39-15-14-38-13-12-31-26(35)20-8-4-5-9-21(20)27(31)36/h4-5,8-9,22-25,28H,6-7,10-16H2,1-3H3/t22-,23-,24+,25+,28+/m1/s1
InChIKey=XAHXNYJPHSFTCD-RIWVVKKCSA-N

> <PUBCHEM_SUBSTANCE_SYNONYM>
SCHEMBL16126978

> <PUBCHEM_XREF_EXT_ID>
SCHEMBL16126978

> <PUBCHEM_EXT_DATASOURCE_URL>
https://www.surechembl.org/

> <PUBCHEM_EXT_SUBSTANCE_URL>
https://www.surechembl.org/chemical/SCHEMBL16126978

> <PUBCHEM_CID_ASSOCIATIONS>
117614333  1

> <PUBCHEM_COORDINATE_TYPE>
1
3

> <PUBCHEM_BONDANNOTATIONS>
17  2  5
20  26  5
16  3  5
18  4  6
19  5  6

$$$$
