310935190
  -OEChem-07211613022D

 19 20  0     1  0  0  0  0  0999 V2000
    0.1119    2.6765    0.0000 F   0  0  0  0  0  0  0  0  0  0  0  0
    3.1270    3.1911    0.0000 O   0  0  0  0  0  0  0  0  0  0  0  0
    1.9324   -0.1436    0.0000 O   0  0  0  0  0  0  0  0  0  0  0  0
    4.1889    2.2349    0.0000 O   0  0  0  0  0  0  0  0  0  0  0  0
    2.8299    1.7934    0.0000 C   0  0  3  0  0  0  0  0  0  0  0  0
    2.2778    2.4065    0.0000 C   0  0  0  0  0  0  0  0  0  0  0  0
    2.1624    1.3085    0.0000 C   0  0  0  0  0  0  0  0  0  0  0  0
    2.4174    0.5238    0.0000 C   0  0  3  0  0  0  0  0  0  0  0  0
    3.3819    2.4065    0.0000 C   0  0  0  0  0  0  0  0  0  0  0  0
    3.4973    1.3085    0.0000 C   0  0  0  0  0  0  0  0  0  0  0  0
    1.4709    2.2349    0.0000 C   0  0  0  0  0  0  0  0  0  0  0  0
    3.2424    0.5238    0.0000 C   0  0  0  0  0  0  0  0  0  0  0  0
    2.5328    3.1911    0.0000 C   0  0  0  0  0  0  0  0  0  0  0  0
    0.9188    2.8480    0.0000 C   0  0  0  0  0  0  0  0  0  0  0  0
    1.9807    3.8042    0.0000 C   0  0  0  0  0  0  0  0  0  0  0  0
    1.1738    3.6327    0.0000 C   0  0  0  0  0  0  0  0  0  0  0  0
    1.2159    1.4503    0.0000 C   0  0  0  0  0  0  0  0  0  0  0  0
    3.6790    3.8042    0.0000 C   0  0  0  0  0  0  0  0  0  0  0  0
    1.6025    0.6529    0.0000 H   0  0  0  0  0  0  0  0  0  0  0  0
  1 14  1  0  0  0  0
  2  9  1  0  0  0  0
  2 18  1  0  0  0  0
  8  3  1  6  0  0  0
  4  9  2  0  0  0  0
  5  6  1  0  0  0  0
  5  7  1  0  0  0  0
  5  9  1  1  0  0  0
  5 10  1  0  0  0  0
  6 11  2  0  0  0  0
  6 13  1  0  0  0  0
  7  8  1  0  0  0  0
  8 12  1  0  0  0  0
  8 19  1  1  0  0  0
 10 12  1  0  0  0  0
 11 14  1  0  0  0  0
 11 17  1  0  0  0  0
 13 15  2  0  0  0  0
 14 16  2  0  0  0  0
 15 16  1  0  0  0  0
M  END
> <PUBCHEM_COMPOUND_ID_TYPE>
0

> <PUBCHEM_TOTAL_CHARGE>
0

> <PUBCHEM_SUBSTANCE_ID>
310935190

> <PUBCHEM_SUBSTANCE_VERSION>
1

> <PUBCHEM_EXT_DATASOURCE_NAME>
4488

> <PUBCHEM_EXT_DATASOURCE_REGID>
SCHEMBL16112718

> <PUBCHEM_SUBSTANCE_COMMENT>
InChI=1S/C14H17FO3/c1-9-11(4-3-5-12(9)15)14(13(17)18-2)7-6-10(16)8-14/h3-5,10,16H,6-8H2,1-2H3/t10-,14-/m0/s1
InChIKey=NTLMCCPQECFZMX-HZMBPMFUSA-N

> <PUBCHEM_SUBSTANCE_SYNONYM>
SCHEMBL16112718

> <PUBCHEM_XREF_EXT_ID>
SCHEMBL16112718

> <PUBCHEM_EXT_DATASOURCE_URL>
https://www.surechembl.org/

> <PUBCHEM_EXT_SUBSTANCE_URL>
https://www.surechembl.org/chemical/SCHEMBL16112718

> <PUBCHEM_CID_ASSOCIATIONS>
117603270  1

> <PUBCHEM_COORDINATE_TYPE>
1
3

> <PUBCHEM_BONDANNOTATIONS>
8  3  6
5  9  5
8  19  5

$$$$
