310929917
  -OEChem-07211613022D

 34 38  0     1  0  0  0  0  0999 V2000
   -3.3014   -2.6767    0.0000 O   0  0  0  0  0  0  0  0  0  0  0  0
   -3.9688   -1.5207    0.0000 O   0  0  0  0  0  0  0  0  0  0  0  0
   -3.9296   -0.6188    0.0000 O   0  0  0  0  0  0  0  0  0  0  0  0
   -4.6440    0.6188    0.0000 O   0  0  0  0  0  0  0  0  0  0  0  0
    2.3680    1.5653    0.0000 N   0  0  0  0  0  0  0  0  0  0  0  0
    0.3572   -0.6188    0.0000 C   0  0  3  0  0  0  0  0  0  0  0  0
    0.3572    0.2063    0.0000 C   0  0  3  0  0  0  0  0  0  0  0  0
   -0.3572   -1.0313    0.0000 C   0  0  3  0  0  0  0  0  0  0  0  0
    1.1419    0.4612    0.0000 C   0  0  3  0  0  0  0  0  0  0  0  0
   -1.0717   -0.6188    0.0000 C   0  0  0  0  0  0  0  0  0  0  0  0
    1.1419   -0.8737    0.0000 C   0  0  0  0  0  0  0  0  0  0  0  0
   -0.3572    0.6188    0.0000 C   0  0  0  0  0  0  0  0  0  0  0  0
   -1.7862   -1.0313    0.0000 C   0  0  0  0  0  0  0  0  0  0  0  0
    1.6268   -0.2063    0.0000 C   0  0  0  0  0  0  0  0  0  0  0  0
   -0.3572   -1.8563    0.0000 C   0  0  0  0  0  0  0  0  0  0  0  0
   -1.0717    0.2063    0.0000 C   0  0  0  0  0  0  0  0  0  0  0  0
   -1.7862   -1.8563    0.0000 C   0  0  0  0  0  0  0  0  0  0  0  0
    0.3572    1.0313    0.0000 C   0  0  0  0  0  0  0  0  0  0  0  0
   -3.2151   -1.8563    0.0000 C   0  0  0  0  0  0  0  0  0  0  0  0
    1.7550    1.0132    0.0000 C   0  0  0  0  0  0  0  0  0  0  0  0
    0.9703    1.2681    0.0000 C   0  0  0  0  0  0  0  0  0  0  0  0
   -1.0717   -2.2688    0.0000 C   0  0  0  0  0  0  0  0  0  0  0  0
   -2.5006   -0.6188    0.0000 C   0  0  0  0  0  0  0  0  0  0  0  0
   -3.2151   -1.0313    0.0000 C   0  0  3  0  0  0  0  0  0  0  0  0
   -2.5006   -2.2688    0.0000 C   0  0  0  0  0  0  0  0  0  0  0  0
    0.1857    1.5231    0.0000 C   0  0  0  0  0  0  0  0  0  0  0  0
   -4.1083   -2.8483    0.0000 C   0  0  0  0  0  0  0  0  0  0  0  0
   -4.5208   -2.1338    0.0000 C   0  0  0  0  0  0  0  0  0  0  0  0
   -3.9296    0.2063    0.0000 C   0  0  3  0  0  0  0  0  0  0  0  0
   -3.2151    0.6188    0.0000 C   0  0  0  0  0  0  0  0  0  0  0  0
   -4.6440    1.4438    0.0000 C   0  0  0  0  0  0  0  0  0  0  0  0
   -5.3586    1.8563    0.0000 C   0  0  0  0  0  0  0  0  0  0  0  0
    0.3572   -1.4438    0.0000 H   0  0  0  0  0  0  0  0  0  0  0  0
   -0.3572   -0.2063    0.0000 H   0  0  0  0  0  0  0  0  0  0  0  0
  1 19  1  0  0  0  0
  1 27  1  0  0  0  0
  2 19  1  0  0  0  0
  2 28  1  0  0  0  0
  3 24  1  0  0  0  0
  3 29  1  0  0  0  0
  4 29  1  0  0  0  0
  4 31  1  0  0  0  0
  5 20  3  0  0  0  0
  6  7  1  0  0  0  0
  6  8  1  0  0  0  0
  6 11  1  0  0  0  0
  6 33  1  6  0  0  0
  7  9  1  0  0  0  0
  7 12  1  0  0  0  0
  7 18  1  1  0  0  0
  8 10  1  0  0  0  0
  8 15  1  0  0  0  0
  8 34  1  1  0  0  0
  9 14  1  0  0  0  0
  9 20  1  1  0  0  0
  9 21  1  6  0  0  0
 10 13  1  0  0  0  0
 10 16  2  0  0  0  0
 11 14  1  0  0  0  0
 12 16  1  0  0  0  0
 13 17  2  0  0  0  0
 13 23  1  0  0  0  0
 15 22  1  0  0  0  0
 17 22  1  0  0  0  0
 17 25  1  0  0  0  0
 19 24  1  0  0  0  0
 19 25  1  0  0  0  0
 21 26  1  0  0  0  0
 23 24  1  0  0  0  0
 27 28  1  0  0  0  0
 29 30  1  0  0  0  0
 31 32  1  0  0  0  0
M  END
> <PUBCHEM_COMPOUND_ID_TYPE>
0

> <PUBCHEM_TOTAL_CHARGE>
0

> <PUBCHEM_SUBSTANCE_ID>
310929917

> <PUBCHEM_SUBSTANCE_VERSION>
1

> <PUBCHEM_EXT_DATASOURCE_NAME>
4488

> <PUBCHEM_EXT_DATASOURCE_REGID>
SCHEMBL16107134

> <PUBCHEM_SUBSTANCE_COMMENT>
InChI=1S/C27H39NO4/c1-5-26(17-28)12-10-23-21-8-7-19-16-27(30-13-14-31-27)24(32-18(3)29-6-2)15-22(19)20(21)9-11-25(23,26)4/h9,18,21,23-24H,5-8,10-16H2,1-4H3/t18?,21-,23+,24?,25+,26-/m1/s1
InChIKey=XSCGJYQEGUPQNV-FVUWAIBZSA-N

> <PUBCHEM_SUBSTANCE_SYNONYM>
SCHEMBL16107134

> <PUBCHEM_XREF_EXT_ID>
SCHEMBL16107134

> <PUBCHEM_EXT_DATASOURCE_URL>
https://www.surechembl.org/

> <PUBCHEM_EXT_SUBSTANCE_URL>
https://www.surechembl.org/chemical/SCHEMBL16107134

> <PUBCHEM_CID_ASSOCIATIONS>
117599179  1

> <PUBCHEM_COORDINATE_TYPE>
1
3

> <PUBCHEM_BONDANNOTATIONS>
6  33  6
7  18  5
8  34  5
9  20  5
9  21  6

$$$$
