310929559
  -OEChem-07211613022D

 25 26  0     0  0  0  0  0  0999 V2000
    9.3194   -4.5429    0.0000 Cl  0  0  0  0  0  0  0  0  0  0  0  0
    9.2861   -1.2359    0.0000 O   0  0  0  0  0  0  0  0  0  0  0  0
    0.0000   -2.5052    0.0000 O   0  0  0  0  0  0  0  0  0  0  0  0
    7.9165   -2.0710    0.0000 N   0  0  0  0  0  0  0  0  0  0  0  0
    8.6180   -2.4718    0.0000 C   0  0  0  0  0  0  0  0  0  0  0  0
    8.6180   -3.3069    0.0000 C   0  0  0  0  0  0  0  0  0  0  0  0
    9.3194   -2.0710    0.0000 C   0  0  0  0  0  0  0  0  0  0  0  0
    9.3194   -3.7411    0.0000 C   0  0  0  0  0  0  0  0  0  0  0  0
    7.1817   -2.5052    0.0000 C   0  0  0  0  0  0  0  0  0  0  0  0
    7.9165   -3.7411    0.0000 C   0  0  0  0  0  0  0  0  0  0  0  0
   10.0209   -2.4718    0.0000 C   0  0  0  0  0  0  0  0  0  0  0  0
   10.0209   -3.3069    0.0000 C   0  0  0  0  0  0  0  0  0  0  0  0
    7.1817   -3.3069    0.0000 C   0  0  0  0  0  0  0  0  0  0  0  0
    6.4802   -2.0710    0.0000 C   0  0  0  0  0  0  0  0  0  0  0  0
    8.5846   -0.8351    0.0000 C   0  0  0  0  0  0  0  0  0  0  0  0
    5.7453   -2.5052    0.0000 C   0  0  0  0  0  0  0  0  0  0  0  0
    8.5512    0.0000    0.0000 C   0  0  0  0  0  0  0  0  0  0  0  0
    7.8832   -1.2359    0.0000 C   0  0  0  0  0  0  0  0  0  0  0  0
    5.0439   -2.0710    0.0000 C   0  0  0  0  0  0  0  0  0  0  0  0
    4.3090   -2.5052    0.0000 C   0  0  0  0  0  0  0  0  0  0  0  0
    3.6075   -2.0710    0.0000 C   0  0  0  0  0  0  0  0  0  0  0  0
    2.8726   -2.5052    0.0000 C   0  0  0  0  0  0  0  0  0  0  0  0
    2.1712   -2.0710    0.0000 C   0  0  0  0  0  0  0  0  0  0  0  0
    1.4364   -2.5052    0.0000 C   0  0  0  0  0  0  0  0  0  0  0  0
    0.7349   -2.0710    0.0000 C   0  0  0  0  0  0  0  0  0  0  0  0
  1  8  1  0  0  0  0
  2  7  1  0  0  0  0
  2 15  1  0  0  0  0
  3 25  1  0  0  0  0
  4  5  2  0  0  0  0
  4  9  1  0  0  0  0
  5  6  1  0  0  0  0
  5  7  1  0  0  0  0
  6  8  1  0  0  0  0
  6 10  2  0  0  0  0
  7 11  2  0  0  0  0
  8 12  2  0  0  0  0
  9 13  2  0  0  0  0
  9 14  1  0  0  0  0
 10 13  1  0  0  0  0
 11 12  1  0  0  0  0
 14 16  1  0  0  0  0
 15 17  1  0  0  0  0
 15 18  1  0  0  0  0
 16 19  1  0  0  0  0
 19 20  1  0  0  0  0
 20 21  1  0  0  0  0
 21 22  1  0  0  0  0
 22 23  1  0  0  0  0
 23 24  1  0  0  0  0
 24 25  1  0  0  0  0
M  END
> <PUBCHEM_COMPOUND_ID_TYPE>
0

> <PUBCHEM_TOTAL_CHARGE>
0

> <PUBCHEM_SUBSTANCE_ID>
310929559

> <PUBCHEM_SUBSTANCE_VERSION>
1

> <PUBCHEM_EXT_DATASOURCE_NAME>
4488

> <PUBCHEM_EXT_DATASOURCE_REGID>
SCHEMBL16106741

> <PUBCHEM_SUBSTANCE_COMMENT>
InChI=1S/C21H30ClNO2/c1-16(2)25-20-14-13-19(22)18-12-11-17(23-21(18)20)10-8-6-4-3-5-7-9-15-24/h11-14,16,24H,3-10,15H2,1-2H3
InChIKey=QFUIKQIJSDCCHP-UHFFFAOYSA-N

> <PUBCHEM_SUBSTANCE_SYNONYM>
SCHEMBL16106741

> <PUBCHEM_XREF_EXT_ID>
SCHEMBL16106741

> <PUBCHEM_EXT_DATASOURCE_URL>
https://www.surechembl.org/

> <PUBCHEM_EXT_SUBSTANCE_URL>
https://www.surechembl.org/chemical/SCHEMBL16106741

> <PUBCHEM_CID_ASSOCIATIONS>
85472449  1

> <PUBCHEM_COORDINATE_TYPE>
1
3

$$$$
