310948392
  -OEChem-07211613022D

 65 74  0     1  0  0  0  0  0999 V2000
   -0.4770   -6.5942    0.0000 Cl  0  0  0  0  0  0  0  0  0  0  0  0
   -2.6058   -2.4884    0.0000 O   0  0  0  0  0  0  0  0  0  0  0  0
   -2.7994   -0.1797    0.0000 O   0  0  0  0  0  0  0  0  0  0  0  0
   -2.4538    8.0734    0.0000 O   0  0  0  0  0  0  0  0  0  0  0  0
    0.0484   -3.1934    0.0000 N   0  0  0  0  0  0  0  0  0  0  0  0
   -0.4355   -3.8708    0.0000 N   0  0  0  0  0  0  0  0  0  0  0  0
    0.2281    7.3822    0.0000 N   0  0  0  0  0  0  0  0  0  0  0  0
   -1.6659   -1.4239    0.0000 N   0  0  0  0  0  0  0  0  0  0  0  0
   -0.2558    6.7048    0.0000 N   0  0  0  0  0  0  0  0  0  0  0  0
   -1.9147   -4.0920    0.0000 N   0  0  0  0  0  0  0  0  0  0  0  0
   -1.7488    6.4836    0.0000 N   0  0  0  0  0  0  0  0  0  0  0  0
   -1.4861    9.1378    0.0000 N   0  0  0  0  0  0  0  0  0  0  0  0
   -2.1635    1.9077    0.0000 N   0  0  0  0  0  0  0  0  0  0  0  0
    0.5737   -5.3500    0.0000 N   0  0  0  0  0  0  0  0  0  0  0  0
   -1.3202    1.9077    0.0000 N   0  0  0  0  0  0  0  0  0  0  0  0
   -2.3293   -8.6955    0.0000 N   0  0  0  0  0  0  0  0  0  0  0  0
    0.7534    5.2394    0.0000 N   0  0  0  0  0  0  0  0  0  0  0  0
   -1.4999   -8.6955    0.0000 N   0  0  0  0  0  0  0  0  0  0  0  0
   -1.2096   -2.7786    0.0000 C   0  0  0  0  0  0  0  0  0  0  0  0
   -0.4493   -2.5298    0.0000 C   0  0  0  0  0  0  0  0  0  0  0  0
   -1.2234   -3.6081    0.0000 C   0  0  0  0  0  0  0  0  0  0  0  0
   -1.8317   -2.2257    0.0000 C   0  0  0  0  0  0  0  0  0  0  0  0
    0.9608   -3.1934    0.0000 C   0  0  3  0  0  0  0  0  0  0  0  0
   -1.0437    7.7969    0.0000 C   0  0  0  0  0  0  0  0  0  0  0  0
   -0.2834    8.0457    0.0000 C   0  0  0  0  0  0  0  0  0  0  0  0
   -1.0575    6.9674    0.0000 C   0  0  0  0  0  0  0  0  0  0  0  0
   -0.2695   -1.7281    0.0000 C   0  0  0  0  0  0  0  0  0  0  0  0
    1.1544    7.3683    0.0000 C   0  0  3  0  0  0  0  0  0  0  0  0
   -0.8917   -1.1751    0.0000 C   0  0  0  0  0  0  0  0  0  0  0  0
    1.4032   -3.8985    0.0000 C   0  0  3  0  0  0  0  0  0  0  0  0
   -1.6659    8.3498    0.0000 C   0  0  0  0  0  0  0  0  0  0  0  0
   -0.1037    8.8476    0.0000 C   0  0  0  0  0  0  0  0  0  0  0  0
   -1.9147   -4.9353    0.0000 C   0  0  0  0  0  0  0  0  0  0  0  0
    1.4170   -2.4884    0.0000 C   0  0  0  0  0  0  0  0  0  0  0  0
    1.5829    6.6771    0.0000 C   0  0  3  0  0  0  0  0  0  0  0  0
   -0.7119    9.3866    0.0000 C   0  0  0  0  0  0  0  0  0  0  0  0
    1.5829    8.0872    0.0000 C   0  0  0  0  0  0  0  0  0  0  0  0
    2.2326   -3.8985    0.0000 C   0  0  0  0  0  0  0  0  0  0  0  0
   -1.7349    5.6541    0.0000 C   0  0  0  0  0  0  0  0  0  0  0  0
   -1.1958   -5.3500    0.0000 C   0  0  0  0  0  0  0  0  0  0  0  0
    0.9884   -4.6173    0.0000 C   0  0  0  0  0  0  0  0  0  0  0  0
    2.2326   -2.4884    0.0000 C   0  0  0  0  0  0  0  0  0  0  0  0
   -2.6335   -5.3500    0.0000 C   0  0  0  0  0  0  0  0  0  0  0  0
   -1.9009   -6.5803    0.0000 C   0  0  0  0  0  0  0  0  0  0  0  0
   -1.2096   -6.1656    0.0000 C   0  0  0  0  0  0  0  0  0  0  0  0
    2.4123    6.6771    0.0000 C   0  0  0  0  0  0  0  0  0  0  0  0
    2.6335   -3.1795    0.0000 C   0  0  0  0  0  0  0  0  0  0  0  0
   -2.6335   -6.1656    0.0000 C   0  0  0  0  0  0  0  0  0  0  0  0
   -2.3156    0.4977    0.0000 C   0  0  0  0  0  0  0  0  0  0  0  0
    1.1544    5.9721    0.0000 C   0  0  0  0  0  0  0  0  0  0  0  0
    2.3985    8.0872    0.0000 C   0  0  0  0  0  0  0  0  0  0  0  0
   -1.9147   -7.4237    0.0000 C   0  0  0  0  0  0  0  0  0  0  0  0
   -2.4538    5.2394    0.0000 C   0  0  0  0  0  0  0  0  0  0  0  0
   -1.0299    5.2394    0.0000 C   0  0  0  0  0  0  0  0  0  0  0  0
   -1.7349    4.0090    0.0000 C   0  0  0  0  0  0  0  0  0  0  0  0
    2.7994    7.3683    0.0000 C   0  0  0  0  0  0  0  0  0  0  0  0
   -1.7488    3.1934    0.0000 C   0  0  0  0  0  0  0  0  0  0  0  0
   -2.4538    4.4238    0.0000 C   0  0  0  0  0  0  0  0  0  0  0  0
   -1.0299    4.4238    0.0000 C   0  0  0  0  0  0  0  0  0  0  0  0
   -2.6335    1.2027    0.0000 C   0  0  0  0  0  0  0  0  0  0  0  0
   -2.4123    2.6957    0.0000 C   0  0  0  0  0  0  0  0  0  0  0  0
   -2.5644   -7.9075    0.0000 C   0  0  0  0  0  0  0  0  0  0  0  0
   -1.2511   -7.9075    0.0000 C   0  0  0  0  0  0  0  0  0  0  0  0
   -1.0714    2.6957    0.0000 C   0  0  0  0  0  0  0  0  0  0  0  0
   -2.7994   -9.3866    0.0000 C   0  0  0  0  0  0  0  0  0  0  0  0
  1 45  1  0  0  0  0
  2 22  2  0  0  0  0
  3  8  1  0  0  0  0
  3 49  1  0  0  0  0
  4 31  2  0  0  0  0
  5  6  1  0  0  0  0
  5 20  1  0  0  0  0
 23  5  1  1  0  0  0
  6 21  2  0  0  0  0
  7  9  1  0  0  0  0
  7 25  1  0  0  0  0
 28  7  1  1  0  0  0
  8 22  1  0  0  0  0
  8 29  1  0  0  0  0
  9 26  2  0  0  0  0
 10 21  1  0  0  0  0
 10 33  1  0  0  0  0
 11 26  1  0  0  0  0
 11 39  1  0  0  0  0
 12 31  1  0  0  0  0
 12 36  1  0  0  0  0
 13 15  1  0  0  0  0
 13 60  1  0  0  0  0
 13 61  1  0  0  0  0
 14 41  3  0  0  0  0
 15 64  2  0  0  0  0
 16 18  1  0  0  0  0
 16 62  1  0  0  0  0
 16 65  1  0  0  0  0
 17 50  3  0  0  0  0
 18 63  2  0  0  0  0
 19 20  2  0  0  0  0
 19 21  1  0  0  0  0
 19 22  1  0  0  0  0
 20 27  1  0  0  0  0
 23 30  1  0  0  0  0
 23 34  1  0  0  0  0
 24 25  2  0  0  0  0
 24 26  1  0  0  0  0
 24 31  1  0  0  0  0
 25 32  1  0  0  0  0
 27 29  2  0  0  0  0
 28 35  1  0  0  0  0
 28 37  1  0  0  0  0
 30 38  1  0  0  0  0
 30 41  1  6  0  0  0
 32 36  2  0  0  0  0
 33 40  1  0  0  0  0
 33 43  2  0  0  0  0
 34 42  1  0  0  0  0
 35 46  1  0  0  0  0
 35 50  1  6  0  0  0
 37 51  1  0  0  0  0
 38 47  1  0  0  0  0
 39 53  2  0  0  0  0
 39 54  1  0  0  0  0
 40 45  2  0  0  0  0
 42 47  1  0  0  0  0
 43 48  1  0  0  0  0
 44 45  1  0  0  0  0
 44 48  2  0  0  0  0
 44 52  1  0  0  0  0
 46 56  1  0  0  0  0
 49 60  1  0  0  0  0
 51 56  1  0  0  0  0
 52 62  2  0  0  0  0
 52 63  1  0  0  0  0
 53 58  1  0  0  0  0
 54 59  2  0  0  0  0
 55 57  1  0  0  0  0
 55 58  2  0  0  0  0
 55 59  1  0  0  0  0
 57 61  2  0  0  0  0
 57 64  1  0  0  0  0
M  END
> <PUBCHEM_COMPOUND_ID_TYPE>
0

> <PUBCHEM_TOTAL_CHARGE>
0

> <PUBCHEM_SUBSTANCE_ID>
310948392

> <PUBCHEM_SUBSTANCE_VERSION>
1

> <PUBCHEM_EXT_DATASOURCE_NAME>
4488

> <PUBCHEM_EXT_DATASOURCE_REGID>
SCHEMBL16126573

> <PUBCHEM_SUBSTANCE_COMMENT>
InChI=1S/C47H45ClN14O3/c1-58-27-33(26-52-58)36-15-14-35(22-37(36)48)55-45-43-41(62(57-45)39-9-5-3-7-31(39)24-50)17-19-60(47(43)64)65-21-20-59-28-32(25-53-59)29-10-12-34(13-11-29)54-44-42-40(16-18-51-46(42)63)61(56-44)38-8-4-2-6-30(38)23-49/h10-19,22,25-28,30-31,38-39H,2-9,20-21H2,1H3,(H,51,63)(H,54,56)(H,55,57)/t30-,31-,38+,39+/m1/s1
InChIKey=DOUVOCOADIYGBN-RUGHRMRMSA-N

> <PUBCHEM_SUBSTANCE_SYNONYM>
SCHEMBL16126573

> <PUBCHEM_XREF_EXT_ID>
SCHEMBL16126573

> <PUBCHEM_EXT_DATASOURCE_URL>
https://www.surechembl.org/

> <PUBCHEM_EXT_SUBSTANCE_URL>
https://www.surechembl.org/chemical/SCHEMBL16126573

> <PUBCHEM_CID_ASSOCIATIONS>
117613953  1

> <PUBCHEM_COORDINATE_TYPE>
1
3

> <PUBCHEM_BONDANNOTATIONS>
30  41  6
35  50  6
23  5  5
28  7  5

$$$$
