310947015
  -OEChem-07211613022D

 41 45  0     0  0  0  0  0  0999 V2000
    0.5623    2.2452    0.0000 S   0  0  0  0  0  0  0  0  0  0  0  0
   -2.7782    0.0383    0.0000 F   0  0  0  0  0  0  0  0  0  0  0  0
   -0.1521    2.6577    0.0000 O   0  0  0  0  0  0  0  0  0  0  0  0
    1.2768    1.8327    0.0000 O   0  0  0  0  0  0  0  0  0  0  0  0
   -4.2071   -0.7867    0.0000 O   0  0  0  0  0  0  0  0  0  0  0  0
   -2.7782   -3.2617    0.0000 O   0  0  0  0  0  0  0  0  0  0  0  0
   -1.3492   -0.7867    0.0000 N   0  0  0  0  0  0  0  0  0  0  0  0
    0.1498    1.5308    0.0000 N   0  0  0  0  0  0  0  0  0  0  0  0
    0.1498    0.1959    0.0000 N   0  0  0  0  0  0  0  0  0  0  0  0
    0.0797   -0.7867    0.0000 N   0  0  0  0  0  0  0  0  0  0  0  0
    0.9748    2.9597    0.0000 N   0  0  0  0  0  0  0  0  0  0  0  0
    1.5086   -0.7867    0.0000 N   0  0  0  0  0  0  0  0  0  0  0  0
    1.5086   -2.4367    0.0000 N   0  0  0  0  0  0  0  0  0  0  0  0
    3.7222    0.2933    0.0000 N   0  0  0  0  0  0  0  0  0  0  0  0
    4.2071   -0.3742    0.0000 N   0  0  0  0  0  0  0  0  0  0  0  0
   -0.6348    0.4508    0.0000 C   0  0  0  0  0  0  0  0  0  0  0  0
   -2.0637   -1.1992    0.0000 C   0  0  0  0  0  0  0  0  0  0  0  0
   -0.6348    1.2758    0.0000 C   0  0  0  0  0  0  0  0  0  0  0  0
   -0.6348   -1.1992    0.0000 C   0  0  0  0  0  0  0  0  0  0  0  0
   -1.3492    0.0383    0.0000 C   0  0  0  0  0  0  0  0  0  0  0  0
   -2.7782   -0.7867    0.0000 C   0  0  0  0  0  0  0  0  0  0  0  0
    0.7942   -1.1992    0.0000 C   0  0  0  0  0  0  0  0  0  0  0  0
    0.6348    0.8633    0.0000 C   0  0  0  0  0  0  0  0  0  0  0  0
    0.7942   -2.0242    0.0000 C   0  0  0  0  0  0  0  0  0  0  0  0
   -2.0637   -2.0242    0.0000 C   0  0  0  0  0  0  0  0  0  0  0  0
   -3.4927   -1.1992    0.0000 C   0  0  0  0  0  0  0  0  0  0  0  0
   -0.6348   -2.0242    0.0000 C   0  0  0  0  0  0  0  0  0  0  0  0
   -2.7782   -2.4367    0.0000 C   0  0  0  0  0  0  0  0  0  0  0  0
    2.2231   -1.1992    0.0000 C   0  0  0  0  0  0  0  0  0  0  0  0
    0.0797   -2.4367    0.0000 C   0  0  0  0  0  0  0  0  0  0  0  0
   -3.4927   -2.0242    0.0000 C   0  0  0  0  0  0  0  0  0  0  0  0
    2.9376   -0.7867    0.0000 C   0  0  0  0  0  0  0  0  0  0  0  0
   -1.3492    1.6883    0.0000 C   0  0  0  0  0  0  0  0  0  0  0  0
    2.2231   -2.0242    0.0000 C   0  0  0  0  0  0  0  0  0  0  0  0
    2.9376    0.0383    0.0000 C   0  0  0  0  0  0  0  0  0  0  0  0
    3.7222   -1.0416    0.0000 C   0  0  0  0  0  0  0  0  0  0  0  0
    1.7998    2.9597    0.0000 C   0  0  0  0  0  0  0  0  0  0  0  0
    0.5623    3.6742    0.0000 C   0  0  0  0  0  0  0  0  0  0  0  0
   -4.2071    0.0383    0.0000 C   0  0  0  0  0  0  0  0  0  0  0  0
   -2.0637   -3.6742    0.0000 C   0  0  0  0  0  0  0  0  0  0  0  0
    4.1347    1.0077    0.0000 C   0  0  0  0  0  0  0  0  0  0  0  0
  1  3  2  0  0  0  0
  1  4  2  0  0  0  0
  1  8  1  0  0  0  0
  1 11  1  0  0  0  0
  2 21  1  0  0  0  0
  5 26  1  0  0  0  0
  5 39  1  0  0  0  0
  6 28  1  0  0  0  0
  6 40  1  0  0  0  0
  7 17  1  0  0  0  0
  7 19  1  0  0  0  0
  7 20  1  0  0  0  0
  8 18  1  0  0  0  0
  8 23  1  0  0  0  0
  9 16  1  0  0  0  0
  9 23  2  0  0  0  0
 10 19  2  0  0  0  0
 10 22  1  0  0  0  0
 11 37  1  0  0  0  0
 11 38  1  0  0  0  0
 12 22  1  0  0  0  0
 12 29  2  0  0  0  0
 13 24  1  0  0  0  0
 13 34  2  0  0  0  0
 14 15  1  0  0  0  0
 14 35  1  0  0  0  0
 14 41  1  0  0  0  0
 15 36  2  0  0  0  0
 16 18  2  0  0  0  0
 16 20  1  0  0  0  0
 17 21  2  0  0  0  0
 17 25  1  0  0  0  0
 18 33  1  0  0  0  0
 19 27  1  0  0  0  0
 21 26  1  0  0  0  0
 22 24  2  0  0  0  0
 24 30  1  0  0  0  0
 25 28  2  0  0  0  0
 26 31  2  0  0  0  0
 27 30  2  0  0  0  0
 28 31  1  0  0  0  0
 29 32  1  0  0  0  0
 29 34  1  0  0  0  0
 32 35  2  0  0  0  0
 32 36  1  0  0  0  0
M  END
> <PUBCHEM_COMPOUND_ID_TYPE>
0

> <PUBCHEM_TOTAL_CHARGE>
0

> <PUBCHEM_SUBSTANCE_ID>
310947015

> <PUBCHEM_SUBSTANCE_VERSION>
1

> <PUBCHEM_EXT_DATASOURCE_NAME>
4488

> <PUBCHEM_EXT_DATASOURCE_REGID>
SCHEMBL16125167

> <PUBCHEM_SUBSTANCE_COMMENT>
InChI=1S/C26H28FN9O4S/c1-16-21(29-15-36(16)41(37,38)33(2)3)14-35(22-9-18(39-5)10-23(40-6)25(22)27)24-8-7-19-26(32-24)31-20(12-28-19)17-11-30-34(4)13-17/h7-13,15H,14H2,1-6H3
InChIKey=DYMABTGNSCHBKR-UHFFFAOYSA-N

> <PUBCHEM_SUBSTANCE_SYNONYM>
SCHEMBL16125167

> <PUBCHEM_XREF_EXT_ID>
SCHEMBL16125167

> <PUBCHEM_EXT_DATASOURCE_URL>
https://www.surechembl.org/

> <PUBCHEM_EXT_SUBSTANCE_URL>
https://www.surechembl.org/chemical/SCHEMBL16125167

> <PUBCHEM_CID_ASSOCIATIONS>
117612867  1

> <PUBCHEM_COORDINATE_TYPE>
1
3

$$$$
