310949233
  -OEChem-07211613022D

 48 56  0     0  0  0  0  0  0999 V2000
    0.0168    1.5410    0.0000 N   0  0  0  0  0  0  0  0  0  0  0  0
   -1.3903   -1.0889    0.0000 N   0  0  0  0  0  0  0  0  0  0  0  0
   -1.8259    3.2832    0.0000 N   0  0  0  0  0  0  0  0  0  0  0  0
   -2.1944    1.0889    0.0000 N   0  0  0  0  0  0  0  0  0  0  0  0
    2.1944    1.0386    0.0000 N   0  0  0  0  0  0  0  0  0  0  0  0
   -0.7538   -0.5192    0.0000 C   0  0  0  0  0  0  0  0  0  0  0  0
   -0.0335    0.7203    0.0000 C   0  0  0  0  0  0  0  0  0  0  0  0
    0.0000   -0.9213    0.0000 C   0  0  0  0  0  0  0  0  0  0  0  0
   -0.7370    0.3183    0.0000 C   0  0  0  0  0  0  0  0  0  0  0  0
   -0.2010   -1.7421    0.0000 C   0  0  0  0  0  0  0  0  0  0  0  0
   -1.0386   -1.8427    0.0000 C   0  0  0  0  0  0  0  0  0  0  0  0
    0.6868    2.0603    0.0000 C   0  0  0  0  0  0  0  0  0  0  0  0
   -0.7035    2.0603    0.0000 C   0  0  0  0  0  0  0  0  0  0  0  0
    0.7370    0.3015    0.0000 C   0  0  0  0  0  0  0  0  0  0  0  0
    0.4522    2.8308    0.0000 C   0  0  0  0  0  0  0  0  0  0  0  0
   -0.4188    2.8644    0.0000 C   0  0  0  0  0  0  0  0  0  0  0  0
    0.7203   -0.5192    0.0000 C   0  0  0  0  0  0  0  0  0  0  0  0
   -2.2111   -0.8878    0.0000 C   0  0  0  0  0  0  0  0  0  0  0  0
    0.3015   -2.4456    0.0000 C   0  0  0  0  0  0  0  0  0  0  0  0
   -1.3735   -2.5796    0.0000 C   0  0  0  0  0  0  0  0  0  0  0  0
   -1.4908    0.7203    0.0000 C   0  0  0  0  0  0  0  0  0  0  0  0
    1.5076    1.8928    0.0000 C   0  0  0  0  0  0  0  0  0  0  0  0
    1.0050    3.4171    0.0000 C   0  0  0  0  0  0  0  0  0  0  0  0
   -1.5410    1.9095    0.0000 C   0  0  0  0  0  0  0  0  0  0  0  0
   -0.0335   -3.1659    0.0000 C   0  0  0  0  0  0  0  0  0  0  0  0
   -0.9883    3.4506    0.0000 C   0  0  0  0  0  0  0  0  0  0  0  0
    1.4573    0.6868    0.0000 C   0  0  0  0  0  0  0  0  0  0  0  0
    1.7924    3.2665    0.0000 C   0  0  0  0  0  0  0  0  0  0  0  0
   -0.8878   -3.2665    0.0000 C   0  0  0  0  0  0  0  0  0  0  0  0
    2.0603    2.4791    0.0000 C   0  0  0  0  0  0  0  0  0  0  0  0
   -2.4624   -0.1340    0.0000 C   0  0  0  0  0  0  0  0  0  0  0  0
   -2.7304   -1.4908    0.0000 C   0  0  0  0  0  0  0  0  0  0  0  0
   -2.0938    2.5127    0.0000 C   0  0  0  0  0  0  0  0  0  0  0  0
    0.4690   -3.8526    0.0000 C   0  0  0  0  0  0  0  0  0  0  0  0
    2.3619    3.9029    0.0000 C   0  0  0  0  0  0  0  0  0  0  0  0
   -3.2329    0.0670    0.0000 C   0  0  0  0  0  0  0  0  0  0  0  0
   -3.5176   -1.3400    0.0000 C   0  0  0  0  0  0  0  0  0  0  0  0
    0.1340   -4.6065    0.0000 C   0  0  0  0  0  0  0  0  0  0  0  0
    1.3066   -3.8024    0.0000 C   0  0  0  0  0  0  0  0  0  0  0  0
   -3.7689   -0.5192    0.0000 C   0  0  0  0  0  0  0  0  0  0  0  0
    3.1994    3.7354    0.0000 C   0  0  0  0  0  0  0  0  0  0  0  0
    2.1273    4.6903    0.0000 C   0  0  0  0  0  0  0  0  0  0  0  0
    0.6197   -5.2764    0.0000 C   0  0  0  0  0  0  0  0  0  0  0  0
    1.7756   -4.4724    0.0000 C   0  0  0  0  0  0  0  0  0  0  0  0
    3.7689    4.3217    0.0000 C   0  0  0  0  0  0  0  0  0  0  0  0
    2.6801    5.2764    0.0000 C   0  0  0  0  0  0  0  0  0  0  0  0
    1.4406   -5.2095    0.0000 C   0  0  0  0  0  0  0  0  0  0  0  0
    3.5008    5.1089    0.0000 C   0  0  0  0  0  0  0  0  0  0  0  0
  1  7  1  0  0  0  0
  1 12  1  0  0  0  0
  1 13  1  0  0  0  0
  2  6  1  0  0  0  0
  2 11  1  0  0  0  0
  2 18  1  0  0  0  0
  3 26  2  0  0  0  0
  3 33  1  0  0  0  0
  4 21  3  0  0  0  0
  5 27  3  0  0  0  0
  6  8  1  0  0  0  0
  6  9  2  0  0  0  0
  7  9  1  0  0  0  0
  7 14  2  0  0  0  0
  8 10  1  0  0  0  0
  8 17  2  0  0  0  0
  9 21  1  0  0  0  0
 10 11  2  0  0  0  0
 10 19  1  0  0  0  0
 11 20  1  0  0  0  0
 12 15  2  0  0  0  0
 12 22  1  0  0  0  0
 13 16  2  0  0  0  0
 13 24  1  0  0  0  0
 14 17  1  0  0  0  0
 14 27  1  0  0  0  0
 15 16  1  0  0  0  0
 15 23  1  0  0  0  0
 16 26  1  0  0  0  0
 18 31  2  0  0  0  0
 18 32  1  0  0  0  0
 19 25  2  0  0  0  0
 20 29  2  0  0  0  0
 22 30  2  0  0  0  0
 23 28  2  0  0  0  0
 24 33  2  0  0  0  0
 25 29  1  0  0  0  0
 25 34  1  0  0  0  0
 28 30  1  0  0  0  0
 28 35  1  0  0  0  0
 31 36  1  0  0  0  0
 32 37  2  0  0  0  0
 34 38  2  0  0  0  0
 34 39  1  0  0  0  0
 35 41  2  0  0  0  0
 35 42  1  0  0  0  0
 36 40  2  0  0  0  0
 37 40  1  0  0  0  0
 38 43  1  0  0  0  0
 39 44  2  0  0  0  0
 41 45  1  0  0  0  0
 42 46  2  0  0  0  0
 43 47  2  0  0  0  0
 44 47  1  0  0  0  0
 45 48  2  0  0  0  0
 46 48  1  0  0  0  0
M  END
> <PUBCHEM_COMPOUND_ID_TYPE>
0

> <PUBCHEM_TOTAL_CHARGE>
0

> <PUBCHEM_SUBSTANCE_ID>
310949233

> <PUBCHEM_SUBSTANCE_VERSION>
1

> <PUBCHEM_EXT_DATASOURCE_NAME>
4488

> <PUBCHEM_EXT_DATASOURCE_REGID>
SCHEMBL16127423

> <PUBCHEM_SUBSTANCE_COMMENT>
InChI=1S/C43H25N5/c44-25-32-24-36-34-22-30(28-10-4-1-5-11-28)16-18-39(34)47(33-14-8-3-9-15-33)43(36)37(26-45)42(32)48-40-19-17-31(29-12-6-2-7-13-29)23-35(40)38-27-46-21-20-41(38)48/h1-24,27H
InChIKey=YCRTXKUFULDXMM-UHFFFAOYSA-N

> <PUBCHEM_SUBSTANCE_SYNONYM>
SCHEMBL16127423

> <PUBCHEM_XREF_EXT_ID>
SCHEMBL16127423

> <PUBCHEM_EXT_DATASOURCE_URL>
https://www.surechembl.org/

> <PUBCHEM_EXT_SUBSTANCE_URL>
https://www.surechembl.org/chemical/SCHEMBL16127423

> <PUBCHEM_CID_ASSOCIATIONS>
117614721  1

> <PUBCHEM_COORDINATE_TYPE>
1
3

$$$$
