310946655
  -OEChem-07211613022D

 17 19  0     0  0  0  0  0  0999 V2000
   -1.5344   -9.9244    0.0000 O   0  0  0  0  0  0  0  0  0  0  0  0
    1.3234   -9.9244    0.0000 O   0  0  0  0  0  0  0  0  0  0  0  0
   -0.8200   -9.5119    0.0000 C   0  0  0  0  0  0  0  0  0  0  0  0
   -0.8200   -8.6869    0.0000 C   0  0  0  0  0  0  0  0  0  0  0  0
    0.6090   -9.5119    0.0000 C   0  0  0  0  0  0  0  0  0  0  0  0
    0.6090   -8.6869    0.0000 C   0  0  0  0  0  0  0  0  0  0  0  0
   -2.2489   -9.5119    0.0000 C   0  0  0  0  0  0  0  0  0  0  0  0
   -0.1055   -9.9244    0.0000 C   0  0  0  0  0  0  0  0  0  0  0  0
   -0.1055   -8.2744    0.0000 C   0  0  0  0  0  0  0  0  0  0  0  0
   -1.5344   -8.2744    0.0000 C   0  0  0  0  0  0  0  0  0  0  0  0
   -2.2489   -8.6869    0.0000 C   0  0  0  0  0  0  0  0  0  0  0  0
    1.3234   -8.2744    0.0000 C   0  0  0  0  0  0  0  0  0  0  0  0
    2.0379   -9.5119    0.0000 C   0  0  0  0  0  0  0  0  0  0  0  0
    2.0379   -8.6869    0.0000 C   0  0  0  0  0  0  0  0  0  0  0  0
   -3.0739   -9.5119    0.0000 C   0  0  0  0  0  0  0  0  0  0  0  0
   -2.6614  -10.2264    0.0000 C   0  0  0  0  0  0  0  0  0  0  0  0
    2.7524   -9.9244    0.0000 C   0  0  0  0  0  0  0  0  0  0  0  0
  1  3  1  0  0  0  0
  1  7  1  0  0  0  0
  2  5  1  0  0  0  0
  2 13  1  0  0  0  0
  3  4  2  0  0  0  0
  3  8  1  0  0  0  0
  4  9  1  0  0  0  0
  4 10  1  0  0  0  0
  5  6  1  0  0  0  0
  5  8  2  0  0  0  0
  6  9  2  0  0  0  0
  6 12  1  0  0  0  0
  7 11  1  0  0  0  0
  7 15  1  0  0  0  0
  7 16  1  0  0  0  0
 10 11  2  0  0  0  0
 12 14  2  0  0  0  0
 13 14  1  0  0  0  0
 13 17  2  0  0  0  0
M  END
> <PUBCHEM_COMPOUND_ID_TYPE>
0

> <PUBCHEM_TOTAL_CHARGE>
0

> <PUBCHEM_SUBSTANCE_ID>
310946655

> <PUBCHEM_SUBSTANCE_VERSION>
1

> <PUBCHEM_EXT_DATASOURCE_NAME>
4488

> <PUBCHEM_EXT_DATASOURCE_REGID>
SCHEMBL16124776

> <PUBCHEM_SUBSTANCE_COMMENT>
InChI=1S/C15H14O2/c1-10-4-5-11-8-12-6-7-15(2,3)17-14(12)9-13(11)16-10/h4-9H,1H2,2-3H3
InChIKey=HPNCUUWFGBHEIV-UHFFFAOYSA-N

> <PUBCHEM_SUBSTANCE_SYNONYM>
SCHEMBL16124776

> <PUBCHEM_XREF_EXT_ID>
SCHEMBL16124776

> <PUBCHEM_EXT_DATASOURCE_URL>
https://www.surechembl.org/

> <PUBCHEM_EXT_SUBSTANCE_URL>
https://www.surechembl.org/chemical/SCHEMBL16124776

> <PUBCHEM_CID_ASSOCIATIONS>
117612555  1

> <PUBCHEM_COORDINATE_TYPE>
1
3

$$$$
