310947545
  -OEChem-07211613022D

 46 51  0     1  0  0  0  0  0999 V2000
    0.1364   -7.8678    0.0000 P   0  0  3  0  0  0  0  0  0  0  0  0
    1.7996  -10.6646    0.0000 F   0  0  0  0  0  0  0  0  0  0  0  0
    2.6246   -8.6806    0.0000 O   0  0  0  0  0  0  0  0  0  0  0  0
    3.4496  -10.6646    0.0000 O   0  0  0  0  0  0  0  0  0  0  0  0
    0.7198   -8.4511    0.0000 O   0  0  0  0  0  0  0  0  0  0  0  0
    4.7911   -6.0233    0.0000 O   0  0  0  0  0  0  0  0  0  0  0  0
   -0.4468   -7.2844    0.0000 O   0  0  0  0  0  0  0  0  0  0  0  0
    0.7198   -7.2844    0.0000 O   0  0  0  0  0  0  0  0  0  0  0  0
   -1.1614  -10.5135    0.0000 O   0  0  0  0  0  0  0  0  0  0  0  0
   -1.8758   -9.2761    0.0000 O   0  0  0  0  0  0  0  0  0  0  0  0
    3.2920   -8.3406    0.0000 N   0  0  0  0  0  0  0  0  0  0  0  0
    3.2920   -7.0058    0.0000 N   0  0  0  0  0  0  0  0  0  0  0  0
    4.7911   -8.4982    0.0000 N   0  0  0  0  0  0  0  0  0  0  0  0
    5.5054   -7.2607    0.0000 N   0  0  0  0  0  0  0  0  0  0  0  0
   -0.4468   -8.4511    0.0000 N   0  0  0  0  0  0  0  0  0  0  0  0
    6.2199   -8.4982    0.0000 N   0  0  0  0  0  0  0  0  0  0  0  0
    3.2920   -9.1656    0.0000 C   0  0  3  0  0  0  0  0  0  0  0  0
    3.0370   -9.9501    0.0000 C   0  0  3  0  0  0  0  0  0  0  0  0
    2.2121   -9.9501    0.0000 C   0  0  3  0  0  0  0  0  0  0  0  0
    4.0766   -8.0857    0.0000 C   0  0  0  0  0  0  0  0  0  0  0  0
    1.9572   -9.1656    0.0000 C   0  0  3  0  0  0  0  0  0  0  0  0
    4.0766   -7.2607    0.0000 C   0  0  0  0  0  0  0  0  0  0  0  0
    2.8071   -7.6733    0.0000 C   0  0  0  0  0  0  0  0  0  0  0  0
    4.7911   -6.8483    0.0000 C   0  0  0  0  0  0  0  0  0  0  0  0
    3.7515   -9.5376    0.0000 C   0  0  0  0  0  0  0  0  0  0  0  0
    1.5447   -8.4511    0.0000 C   0  0  0  0  0  0  0  0  0  0  0  0
    5.5054   -8.0857    0.0000 C   0  0  0  0  0  0  0  0  0  0  0  0
   -0.4468   -6.4595    0.0000 C   0  0  0  0  0  0  0  0  0  0  0  0
   -1.1614   -6.0471    0.0000 C   0  0  0  0  0  0  0  0  0  0  0  0
   -1.1614   -5.2221    0.0000 C   0  0  0  0  0  0  0  0  0  0  0  0
   -0.4468   -9.2761    0.0000 C   0  0  3  0  0  0  0  0  0  0  0  0
    0.2675   -6.0471    0.0000 C   0  0  0  0  0  0  0  0  0  0  0  0
   -1.8758   -6.4595    0.0000 C   0  0  0  0  0  0  0  0  0  0  0  0
    5.5054   -5.6108    0.0000 C   0  0  0  0  0  0  0  0  0  0  0  0
   -0.4468   -4.8096    0.0000 C   0  0  0  0  0  0  0  0  0  0  0  0
   -1.1614   -9.6885    0.0000 C   0  0  0  0  0  0  0  0  0  0  0  0
    0.2675   -5.2221    0.0000 C   0  0  0  0  0  0  0  0  0  0  0  0
   -1.8758   -4.8096    0.0000 C   0  0  0  0  0  0  0  0  0  0  0  0
   -2.5903   -6.0471    0.0000 C   0  0  0  0  0  0  0  0  0  0  0  0
   -2.5903   -5.2221    0.0000 C   0  0  0  0  0  0  0  0  0  0  0  0
    0.2675   -9.6885    0.0000 C   0  0  0  0  0  0  0  0  0  0  0  0
   -1.8758  -10.9260    0.0000 C   0  0  0  0  0  0  0  0  0  0  0  0
   -1.8758  -11.7510    0.0000 C   0  0  0  0  0  0  0  0  0  0  0  0
   -2.6604  -10.6711    0.0000 C   0  0  0  0  0  0  0  0  0  0  0  0
   -3.1452  -11.3384    0.0000 C   0  0  0  0  0  0  0  0  0  0  0  0
   -2.6604  -12.0059    0.0000 C   0  0  0  0  0  0  0  0  0  0  0  0
  1  5  1  0  0  0  0
  1  7  1  0  0  0  0
  1  8  2  0  0  0  0
  1 15  1  0  0  0  0
 19  2  1  6  0  0  0
  3 17  1  0  0  0  0
  3 21  1  0  0  0  0
 18  4  1  6  0  0  0
  5 26  1  0  0  0  0
  6 24  1  0  0  0  0
  6 34  1  0  0  0  0
  7 28  1  0  0  0  0
  9 36  1  0  0  0  0
  9 42  1  0  0  0  0
 10 36  2  0  0  0  0
 11 17  1  0  0  0  0
 11 20  1  0  0  0  0
 11 23  1  0  0  0  0
 12 22  1  0  0  0  0
 12 23  2  0  0  0  0
 13 20  1  0  0  0  0
 13 27  2  0  0  0  0
 14 24  2  0  0  0  0
 14 27  1  0  0  0  0
 15 31  1  0  0  0  0
 16 27  1  0  0  0  0
 17 18  1  0  0  0  0
 18 19  1  0  0  0  0
 18 25  1  1  0  0  0
 19 21  1  0  0  0  0
 20 22  2  0  0  0  0
 21 26  1  1  0  0  0
 22 24  1  0  0  0  0
 28 29  1  0  0  0  0
 28 32  2  0  0  0  0
 29 30  2  0  0  0  0
 29 33  1  0  0  0  0
 30 35  1  0  0  0  0
 30 38  1  0  0  0  0
 31 36  1  0  0  0  0
 31 41  1  1  0  0  0
 32 37  1  0  0  0  0
 33 39  2  0  0  0  0
 35 37  2  0  0  0  0
 38 40  2  0  0  0  0
 39 40  1  0  0  0  0
 42 43  1  0  0  0  0
 42 44  1  0  0  0  0
 43 46  1  0  0  0  0
 44 45  1  0  0  0  0
 45 46  1  0  0  0  0
M  END
> <PUBCHEM_COMPOUND_ID_TYPE>
0

> <PUBCHEM_TOTAL_CHARGE>
0

> <PUBCHEM_SUBSTANCE_ID>
310947545

> <PUBCHEM_SUBSTANCE_VERSION>
1

> <PUBCHEM_EXT_DATASOURCE_NAME>
4488

> <PUBCHEM_EXT_DATASOURCE_REGID>
SCHEMBL16125708

> <PUBCHEM_SUBSTANCE_COMMENT>
InChI=1S/C30H36FN6O8P/c1-17(27(38)43-19-11-5-6-12-19)36-46(40,45-21-14-8-10-18-9-4-7-13-20(18)21)42-15-22-24(31)30(2,39)28(44-22)37-16-33-23-25(37)34-29(32)35-26(23)41-3/h4,7-10,13-14,16-17,19,22,24,28,39H,5-6,11-12,15H2,1-3H3,(H,36,40)(H2,32,34,35)/t17-,22+,24+,28?,30+,46?/m0/s1
InChIKey=USJHBOBBZRFLRT-MDJHEQGOSA-N

> <PUBCHEM_SUBSTANCE_SYNONYM>
SCHEMBL16125708

> <PUBCHEM_XREF_EXT_ID>
SCHEMBL16125708

> <PUBCHEM_EXT_DATASOURCE_URL>
https://www.surechembl.org/

> <PUBCHEM_EXT_SUBSTANCE_URL>
https://www.surechembl.org/chemical/SCHEMBL16125708

> <PUBCHEM_CID_ASSOCIATIONS>
117613267  1

> <PUBCHEM_COORDINATE_TYPE>
1
3

> <PUBCHEM_BONDANNOTATIONS>
18  25  5
19  2  6
21  26  5
31  41  5
18  4  6

$$$$
