310932599
  -OEChem-07211613022D

 29 31  0     0  0  0  0  0  0999 V2000
    3.9930   -2.0790    0.0000 O   0  0  0  0  0  0  0  0  0  0  0  0
    8.4479   -2.1780    0.0000 O   0  0  0  0  0  0  0  0  0  0  0  0
    4.8840   -0.9570    0.0000 N   0  0  0  0  0  0  0  0  0  0  0  0
    4.8179   -0.1320    0.0000 N   0  0  0  0  0  0  0  0  0  0  0  0
    6.3029   -0.9570    0.0000 N   0  0  0  0  0  0  0  0  0  0  0  0
    7.7549   -3.3990    0.0000 N   0  0  0  0  0  0  0  0  0  0  0  0
    0.0000   -1.8150    0.0000 N   0  0  0  0  0  0  0  0  0  0  0  0
    9.1739   -5.8739    0.0000 N   0  0  0  0  0  0  0  0  0  0  0  0
    3.5640   -0.6930    0.0000 C   0  0  0  0  0  0  0  0  0  0  0  0
    4.1579   -1.2870    0.0000 C   0  0  0  0  0  0  0  0  0  0  0  0
    5.6099   -1.3530    0.0000 C   0  0  0  0  0  0  0  0  0  0  0  0
    2.7720   -0.7920    0.0000 C   0  0  0  0  0  0  0  0  0  0  0  0
    3.9930    0.0000    0.0000 C   0  0  0  0  0  0  0  0  0  0  0  0
    5.6099   -2.1780    0.0000 C   0  0  0  0  0  0  0  0  0  0  0  0
    7.0289   -2.1780    0.0000 C   0  0  0  0  0  0  0  0  0  0  0  0
    2.4419   -1.5510    0.0000 C   0  0  0  0  0  0  0  0  0  0  0  0
    2.2770   -0.1320    0.0000 C   0  0  0  0  0  0  0  0  0  0  0  0
    7.0289   -1.3530    0.0000 C   0  0  0  0  0  0  0  0  0  0  0  0
    6.3029   -2.5740    0.0000 C   0  0  0  0  0  0  0  0  0  0  0  0
    7.7549   -2.5740    0.0000 C   0  0  0  0  0  0  0  0  0  0  0  0
    1.1220   -0.9570    0.0000 C   0  0  0  0  0  0  0  0  0  0  0  0
    1.6170   -1.6170    0.0000 C   0  0  0  0  0  0  0  0  0  0  0  0
    1.4520   -0.2310    0.0000 C   0  0  0  0  0  0  0  0  0  0  0  0
    0.3300   -1.0560    0.0000 C   0  0  0  0  0  0  0  0  0  0  0  0
    8.4479   -3.8280    0.0000 C   0  0  0  0  0  0  0  0  0  0  0  0
    8.4479   -4.6530    0.0000 C   0  0  0  0  0  0  0  0  0  0  0  0
    9.1739   -5.0489    0.0000 C   0  0  0  0  0  0  0  0  0  0  0  0
    8.4809   -6.2699    0.0000 C   0  0  0  0  0  0  0  0  0  0  0  0
    9.8999   -6.2699    0.0000 C   0  0  0  0  0  0  0  0  0  0  0  0
  1 10  1  0  0  0  0
  2 20  2  0  0  0  0
  3  4  1  0  0  0  0
  3 10  1  0  0  0  0
  3 11  1  0  0  0  0
  4 13  2  0  0  0  0
  5 11  2  0  0  0  0
  5 18  1  0  0  0  0
  6 20  1  0  0  0  0
  6 25  1  0  0  0  0
  7 24  3  0  0  0  0
  8 27  1  0  0  0  0
  8 28  1  0  0  0  0
  8 29  1  0  0  0  0
  9 10  2  0  0  0  0
  9 12  1  0  0  0  0
  9 13  1  0  0  0  0
 11 14  1  0  0  0  0
 12 16  2  0  0  0  0
 12 17  1  0  0  0  0
 14 19  2  0  0  0  0
 15 18  2  0  0  0  0
 15 19  1  0  0  0  0
 15 20  1  0  0  0  0
 16 22  1  0  0  0  0
 17 23  2  0  0  0  0
 21 22  2  0  0  0  0
 21 23  1  0  0  0  0
 21 24  1  0  0  0  0
 25 26  1  0  0  0  0
 26 27  1  0  0  0  0
M  END
> <PUBCHEM_COMPOUND_ID_TYPE>
0

> <PUBCHEM_TOTAL_CHARGE>
0

> <PUBCHEM_SUBSTANCE_ID>
310932599

> <PUBCHEM_SUBSTANCE_VERSION>
1

> <PUBCHEM_EXT_DATASOURCE_NAME>
4488

> <PUBCHEM_EXT_DATASOURCE_REGID>
SCHEMBL16109977

> <PUBCHEM_SUBSTANCE_COMMENT>
InChI=1S/C21H22N6O2/c1-26(2)11-3-10-23-20(28)17-8-9-19(24-13-17)27-21(29)18(14-25-27)16-6-4-15(12-22)5-7-16/h4-9,13-14,29H,3,10-11H2,1-2H3,(H,23,28)
InChIKey=JDJYTLOQRWNCGD-UHFFFAOYSA-N

> <PUBCHEM_SUBSTANCE_SYNONYM>
SCHEMBL16109977

> <PUBCHEM_XREF_EXT_ID>
SCHEMBL16109977

> <PUBCHEM_EXT_DATASOURCE_URL>
https://www.surechembl.org/

> <PUBCHEM_EXT_SUBSTANCE_URL>
https://www.surechembl.org/chemical/SCHEMBL16109977

> <PUBCHEM_CID_ASSOCIATIONS>
117601121  1

> <PUBCHEM_COORDINATE_TYPE>
1
3

$$$$
