310940312
  -OEChem-07211613022D

 15 16  0     0  0  0  0  0  0999 V2000
   -1.4905   -0.6268    0.0000 O   0  0  0  0  0  0  0  0  0  0  0  0
    0.0000    0.2925    0.0000 N   0  0  0  0  0  0  0  0  0  0  0  0
   -0.7243   -0.9472    0.0000 C   0  0  0  0  0  0  0  0  0  0  0  0
   -2.0476   -1.2397    0.0000 C   0  0  0  0  0  0  0  0  0  0  0  0
    0.7382    0.6965    0.0000 C   0  0  0  0  0  0  0  0  0  0  0  0
   -0.8218   -1.7830    0.0000 C   0  0  0  0  0  0  0  0  0  0  0  0
   -0.0139   -0.5432    0.0000 C   0  0  0  0  0  0  0  0  0  0  0  0
   -1.6297   -1.9501    0.0000 C   0  0  0  0  0  0  0  0  0  0  0  0
    1.4486    0.2925    0.0000 C   0  0  0  0  0  0  0  0  0  0  0  0
    0.7243    1.5461    0.0000 C   0  0  0  0  0  0  0  0  0  0  0  0
    2.1730    1.5461    0.0000 C   0  0  0  0  0  0  0  0  0  0  0  0
    2.1591    0.7104    0.0000 C   0  0  0  0  0  0  0  0  0  0  0  0
    1.4347    1.9501    0.0000 C   0  0  0  0  0  0  0  0  0  0  0  0
   -2.8834   -1.1701    0.0000 C   0  0  0  0  0  0  0  0  0  0  0  0
    2.8834    1.9501    0.0000 C   0  0  0  0  0  0  0  0  0  0  0  0
  1  3  1  0  0  0  0
  1  4  1  0  0  0  0
  2  5  1  0  0  0  0
  2  7  2  0  0  0  0
  3  6  2  0  0  0  0
  3  7  1  0  0  0  0
  4  8  2  0  0  0  0
  4 14  1  0  0  0  0
  5  9  2  0  0  0  0
  5 10  1  0  0  0  0
  6  8  1  0  0  0  0
  9 12  1  0  0  0  0
 10 13  2  0  0  0  0
 11 12  2  0  0  0  0
 11 13  1  0  0  0  0
 11 15  1  0  0  0  0
M  END
> <PUBCHEM_COMPOUND_ID_TYPE>
0

> <PUBCHEM_TOTAL_CHARGE>
0

> <PUBCHEM_SUBSTANCE_ID>
310940312

> <PUBCHEM_SUBSTANCE_VERSION>
1

> <PUBCHEM_EXT_DATASOURCE_NAME>
4488

> <PUBCHEM_EXT_DATASOURCE_REGID>
SCHEMBL16118256

> <PUBCHEM_SUBSTANCE_COMMENT>
InChI=1S/C13H13NO/c1-10-3-6-12(7-4-10)14-9-13-8-5-11(2)15-13/h3-9H,1-2H3/b14-9+
InChIKey=FMZVUQPKTKKTTJ-NTEUORMPSA-N

> <PUBCHEM_SUBSTANCE_SYNONYM>
SCHEMBL16118256

> <PUBCHEM_XREF_EXT_ID>
SCHEMBL16118256

> <PUBCHEM_EXT_DATASOURCE_URL>
https://www.surechembl.org/

> <PUBCHEM_EXT_SUBSTANCE_URL>
https://www.surechembl.org/chemical/SCHEMBL16118256

> <PUBCHEM_CID_ASSOCIATIONS>
794972  1

> <PUBCHEM_COORDINATE_TYPE>
1
3

> <PUBCHEM_BONDANNOTATIONS>
2  5  3

$$$$
