310947077
  -OEChem-07211613022D

 35 38  0     1  0  0  0  0  0999 V2000
    1.6041   -3.1716    0.0000 F   0  0  0  0  0  0  0  0  0  0  0  0
    2.9791   -2.7682    0.0000 F   0  0  0  0  0  0  0  0  0  0  0  0
    2.4108   -3.3550    0.0000 F   0  0  0  0  0  0  0  0  0  0  0  0
   -2.4108    2.7866    0.0000 O   0  0  0  0  0  0  0  0  0  0  0  0
   -3.1074   -1.4300    0.0000 O   0  0  0  0  0  0  0  0  0  0  0  0
   -1.6592    0.9533    0.0000 N   0  0  0  0  0  0  0  0  0  0  0  0
   -1.1641    0.2933    0.0000 N   0  0  0  0  0  0  0  0  0  0  0  0
   -1.3474   -1.1733    0.0000 N   0  0  0  0  0  0  0  0  0  0  0  0
   -3.8591   -0.2017    0.0000 N   0  0  0  0  0  0  0  0  0  0  0  0
    2.4658   -1.1917    0.0000 N   0  0  0  0  0  0  0  0  0  0  0  0
    0.7608    1.5216    0.0000 N   0  0  0  0  0  0  0  0  0  0  0  0
   -2.4291    0.6783    0.0000 C   0  0  0  0  0  0  0  0  0  0  0  0
   -1.4208    1.7600    0.0000 C   0  0  3  0  0  0  0  0  0  0  0  0
   -2.4291   -0.1467    0.0000 C   0  0  0  0  0  0  0  0  0  0  0  0
   -1.6408   -0.3850    0.0000 C   0  0  0  0  0  0  0  0  0  0  0  0
   -3.1257   -0.5683    0.0000 C   0  0  0  0  0  0  0  0  0  0  0  0
   -3.1808    1.0633    0.0000 C   0  0  0  0  0  0  0  0  0  0  0  0
   -2.2091    1.9983    0.0000 C   0  0  0  0  0  0  0  0  0  0  0  0
   -0.8158    2.3283    0.0000 C   0  0  0  0  0  0  0  0  0  0  0  0
   -0.8342    1.1183    0.0000 C   0  0  0  0  0  0  0  0  0  0  0  0
   -0.5408   -1.3200    0.0000 C   0  0  0  0  0  0  0  0  0  0  0  0
   -3.8774    0.6417    0.0000 C   0  0  0  0  0  0  0  0  0  0  0  0
   -0.9992    3.1166    0.0000 C   0  0  0  0  0  0  0  0  0  0  0  0
    1.0724   -1.6316    0.0000 C   0  0  0  0  0  0  0  0  0  0  0  0
    1.8974   -1.7783    0.0000 C   0  0  3  0  0  0  0  0  0  0  0  0
    0.0092   -0.6966    0.0000 C   0  0  0  0  0  0  0  0  0  0  0  0
   -0.2475   -2.1083    0.0000 C   0  0  0  0  0  0  0  0  0  0  0  0
   -0.0642    1.3200    0.0000 C   0  0  0  0  0  0  0  0  0  0  0  0
   -1.8058    3.3550    0.0000 C   0  0  0  0  0  0  0  0  0  0  0  0
    2.1908   -2.5666    0.0000 C   0  0  0  0  0  0  0  0  0  0  0  0
    0.8158   -0.8616    0.0000 C   0  0  0  0  0  0  0  0  0  0  0  0
    0.5408   -2.2550    0.0000 C   0  0  0  0  0  0  0  0  0  0  0  0
    3.2724   -1.3933    0.0000 C   0  0  0  0  0  0  0  0  0  0  0  0
    3.8774   -0.8067    0.0000 C   0  0  0  0  0  0  0  0  0  0  0  0
    3.5291   -2.1999    0.0000 C   0  0  0  0  0  0  0  0  0  0  0  0
  1 30  1  0  0  0  0
  2 30  1  0  0  0  0
  3 30  1  0  0  0  0
  4 18  1  0  0  0  0
  4 29  1  0  0  0  0
  5 16  2  0  0  0  0
  6  7  1  0  0  0  0
  6 12  1  0  0  0  0
  6 13  1  0  0  0  0
  7 15  2  0  0  0  0
  8 15  1  0  0  0  0
  8 21  1  0  0  0  0
  9 16  1  0  0  0  0
  9 22  1  0  0  0  0
 10 25  1  0  0  0  0
 10 33  1  0  0  0  0
 11 28  3  0  0  0  0
 12 14  2  0  0  0  0
 12 17  1  0  0  0  0
 13 18  1  0  0  0  0
 13 19  1  0  0  0  0
 13 20  1  6  0  0  0
 14 15  1  0  0  0  0
 14 16  1  0  0  0  0
 17 22  2  0  0  0  0
 19 23  1  0  0  0  0
 20 28  1  0  0  0  0
 21 26  2  0  0  0  0
 21 27  1  0  0  0  0
 23 29  1  0  0  0  0
 24 25  1  0  0  0  0
 24 31  2  0  0  0  0
 24 32  1  0  0  0  0
 25 30  1  0  0  0  0
 26 31  1  0  0  0  0
 27 32  2  0  0  0  0
 33 34  1  0  0  0  0
 33 35  1  0  0  0  0
M  END
> <PUBCHEM_COMPOUND_ID_TYPE>
0

> <PUBCHEM_TOTAL_CHARGE>
0

> <PUBCHEM_SUBSTANCE_ID>
310947077

> <PUBCHEM_SUBSTANCE_VERSION>
1

> <PUBCHEM_EXT_DATASOURCE_NAME>
4488

> <PUBCHEM_EXT_DATASOURCE_REGID>
SCHEMBL16125231

> <PUBCHEM_SUBSTANCE_COMMENT>
InChI=1S/C24H27F3N6O2/c1-15(2)30-20(24(25,26)27)16-4-6-17(7-5-16)31-21-19-18(8-12-29-22(19)34)33(32-21)23(10-11-28)9-3-13-35-14-23/h4-8,12,15,20,30H,3,9-10,13-14H2,1-2H3,(H,29,34)(H,31,32)/t20?,23-/m0/s1
InChIKey=VDTPJYLVZKBUPO-AKRCKQFNSA-N

> <PUBCHEM_SUBSTANCE_SYNONYM>
SCHEMBL16125231

> <PUBCHEM_XREF_EXT_ID>
SCHEMBL16125231

> <PUBCHEM_EXT_DATASOURCE_URL>
https://www.surechembl.org/

> <PUBCHEM_EXT_SUBSTANCE_URL>
https://www.surechembl.org/chemical/SCHEMBL16125231

> <PUBCHEM_CID_ASSOCIATIONS>
117612929  1

> <PUBCHEM_COORDINATE_TYPE>
1
3

> <PUBCHEM_BONDANNOTATIONS>
13  20  6

$$$$
