310933058
  -OEChem-07211613022D

 11 11  0     0  0  0  0  0  0999 V2000
    3.1953   -1.4448    0.0000 O   0  0  0  0  0  0  0  0  0  0  0  0
    3.1953    0.0000    0.0000 O   0  0  0  0  0  0  0  0  0  0  0  0
    1.4587   -1.4031    0.0000 N   0  0  0  0  0  0  0  0  0  0  0  0
    1.9589   -0.7224    0.0000 C   0  0  0  0  0  0  0  0  0  0  0  0
    0.6807   -1.1253    0.0000 C   0  0  0  0  0  0  0  0  0  0  0  0
    2.7785   -0.7224    0.0000 C   0  0  0  0  0  0  0  0  0  0  0  0
    1.4587   -0.0417    0.0000 C   0  0  0  0  0  0  0  0  0  0  0  0
    0.6807   -0.3056    0.0000 C   0  0  0  0  0  0  0  0  0  0  0  0
    0.0000   -1.6115    0.0000 C   0  0  0  0  0  0  0  0  0  0  0  0
    0.0834   -2.4312    0.0000 C   0  0  0  0  0  0  0  0  0  0  0  0
    0.8474   -2.7785    0.0000 C   0  0  0  0  0  0  0  0  0  0  0  0
  1  6  2  0  0  0  0
  2  6  1  0  0  0  0
  3  4  1  0  0  0  0
  3  5  1  0  0  0  0
  4  6  1  0  0  0  0
  4  7  2  0  0  0  0
  5  8  2  0  0  0  0
  5  9  1  0  0  0  0
  7  8  1  0  0  0  0
  9 10  1  0  0  0  0
 10 11  2  0  0  0  0
M  END
> <PUBCHEM_COMPOUND_ID_TYPE>
0

> <PUBCHEM_TOTAL_CHARGE>
0

> <PUBCHEM_SUBSTANCE_ID>
310933058

> <PUBCHEM_SUBSTANCE_VERSION>
1

> <PUBCHEM_EXT_DATASOURCE_NAME>
4488

> <PUBCHEM_EXT_DATASOURCE_REGID>
SCHEMBL16110459

> <PUBCHEM_SUBSTANCE_COMMENT>
InChI=1S/C8H9NO2/c1-2-3-6-4-5-7(9-6)8(10)11/h2,4-5,9H,1,3H2,(H,10,11)
InChIKey=NQKMQSBNXYBVED-UHFFFAOYSA-N

> <PUBCHEM_SUBSTANCE_SYNONYM>
SCHEMBL16110459

> <PUBCHEM_XREF_EXT_ID>
SCHEMBL16110459

> <PUBCHEM_EXT_DATASOURCE_URL>
https://www.surechembl.org/

> <PUBCHEM_EXT_SUBSTANCE_URL>
https://www.surechembl.org/chemical/SCHEMBL16110459

> <PUBCHEM_CID_ASSOCIATIONS>
44718621  1

> <PUBCHEM_COORDINATE_TYPE>
1
3

$$$$
