310943457
  -OEChem-07211613022D

 37 40  0     1  0  0  0  0  0999 V2000
    4.3573   -2.0720    0.0000 F   0  0  0  0  0  0  0  0  0  0  0  0
    3.5558   -2.8906    0.0000 F   0  0  0  0  0  0  0  0  0  0  0  0
    2.7542   -2.0720    0.0000 F   0  0  0  0  0  0  0  0  0  0  0  0
    1.3899   -0.0086    0.0000 O   0  0  0  0  0  0  0  0  0  0  0  0
   -4.3402    2.4813    0.0000 O   0  0  0  0  0  0  0  0  0  0  0  0
   -0.0427   -2.4984    0.0000 O   0  0  0  0  0  0  0  0  0  0  0  0
   -0.7589    0.4007    0.0000 N   0  0  0  0  0  0  0  0  0  0  0  0
   -2.9077    1.6457    0.0000 N   0  0  0  0  0  0  0  0  0  0  0  0
   -2.1914    0.4007    0.0000 N   0  0  0  0  0  0  0  0  0  0  0  0
    0.6737    2.8906    0.0000 N   0  0  0  0  0  0  0  0  0  0  0  0
    2.1062    1.2364    0.0000 N   0  0  0  0  0  0  0  0  0  0  0  0
   -1.4752   -0.8271    0.0000 N   0  0  0  0  0  0  0  0  0  0  0  0
    4.2550   -0.8271    0.0000 N   0  0  0  0  0  0  0  0  0  0  0  0
   -0.7759    1.2535    0.0000 C   0  0  0  0  0  0  0  0  0  0  0  0
   -0.0768    1.6628    0.0000 C   0  0  0  0  0  0  0  0  0  0  0  0
   -2.2085    1.2364    0.0000 C   0  0  0  0  0  0  0  0  0  0  0  0
   -1.5093    1.6457    0.0000 C   0  0  0  0  0  0  0  0  0  0  0  0
   -0.0427    2.4813    0.0000 C   0  0  0  0  0  0  0  0  0  0  0  0
   -1.4752    0.0086    0.0000 C   0  0  0  0  0  0  0  0  0  0  0  0
    0.6907    1.2535    0.0000 C   0  0  0  0  0  0  0  0  0  0  0  0
    1.3728    1.6628    0.0000 C   0  0  0  0  0  0  0  0  0  0  0  0
    2.8224    0.0086    0.0000 C   0  0  0  0  0  0  0  0  0  0  0  0
    3.5387   -1.2364    0.0000 C   0  0  0  0  0  0  0  0  0  0  0  0
    2.1062    0.4349    0.0000 C   0  0  0  0  0  0  0  0  0  0  0  0
    1.3899    2.4643    0.0000 C   0  0  0  0  0  0  0  0  0  0  0  0
    3.5387   -2.0720    0.0000 C   0  0  0  0  0  0  0  0  0  0  0  0
    2.8224   -0.8271    0.0000 C   0  0  0  0  0  0  0  0  0  0  0  0
    3.5216    0.4179    0.0000 C   0  0  0  0  0  0  0  0  0  0  0  0
   -2.9248    2.4813    0.0000 C   0  0  0  0  0  0  0  0  0  0  0  0
   -3.6240    1.2364    0.0000 C   0  0  0  0  0  0  0  0  0  0  0  0
   -0.7759    2.8736    0.0000 C   0  0  0  0  0  0  0  0  0  0  0  0
    4.2379    0.0086    0.0000 C   0  0  0  0  0  0  0  0  0  0  0  0
   -3.6581    2.8906    0.0000 C   0  0  0  0  0  0  0  0  0  0  0  0
   -4.3573    1.6628    0.0000 C   0  0  0  0  0  0  0  0  0  0  0  0
   -0.7759   -1.2535    0.0000 C   0  0  0  0  0  0  0  0  0  0  0  0
   -0.7759   -2.0720    0.0000 C   0  0  3  0  0  0  0  0  0  0  0  0
   -1.4752   -2.4813    0.0000 C   0  0  0  0  0  0  0  0  0  0  0  0
  1 26  1  0  0  0  0
  2 26  1  0  0  0  0
  3 26  1  0  0  0  0
  4 24  2  0  0  0  0
  5 33  1  0  0  0  0
  5 34  1  0  0  0  0
 36  6  1  6  0  0  0
  7 14  1  0  0  0  0
  7 19  2  0  0  0  0
  8 16  1  0  0  0  0
  8 29  1  0  0  0  0
  8 30  1  0  0  0  0
  9 16  2  0  0  0  0
  9 19  1  0  0  0  0
 10 18  2  0  0  0  0
 10 25  1  0  0  0  0
 11 21  1  0  0  0  0
 11 24  1  0  0  0  0
 12 19  1  0  0  0  0
 12 35  1  0  0  0  0
 13 23  2  0  0  0  0
 13 32  1  0  0  0  0
 14 15  1  0  0  0  0
 14 17  2  0  0  0  0
 15 18  1  0  0  0  0
 15 20  2  0  0  0  0
 16 17  1  0  0  0  0
 18 31  1  0  0  0  0
 20 21  1  0  0  0  0
 21 25  2  0  0  0  0
 22 24  1  0  0  0  0
 22 27  2  0  0  0  0
 22 28  1  0  0  0  0
 23 26  1  0  0  0  0
 23 27  1  0  0  0  0
 28 32  2  0  0  0  0
 29 33  1  0  0  0  0
 30 34  1  0  0  0  0
 35 36  1  0  0  0  0
 36 37  1  0  0  0  0
M  END
> <PUBCHEM_COMPOUND_ID_TYPE>
0

> <PUBCHEM_TOTAL_CHARGE>
0

> <PUBCHEM_SUBSTANCE_ID>
310943457

> <PUBCHEM_SUBSTANCE_VERSION>
1

> <PUBCHEM_EXT_DATASOURCE_NAME>
4488

> <PUBCHEM_EXT_DATASOURCE_REGID>
SCHEMBL16121522

> <PUBCHEM_SUBSTANCE_COMMENT>
InChI=1S/C24H26F3N7O3/c1-14(35)12-30-23-32-19(11-21(33-23)34-5-7-37-8-6-34)18-10-17(13-29-15(18)2)31-22(36)16-3-4-28-20(9-16)24(25,26)27/h3-4,9-11,13-14,35H,5-8,12H2,1-2H3,(H,31,36)(H,30,32,33)/t14-/m1/s1
InChIKey=FNMXZSFHMVHQJX-CQSZACIVSA-N

> <PUBCHEM_SUBSTANCE_SYNONYM>
SCHEMBL16121522

> <PUBCHEM_XREF_EXT_ID>
SCHEMBL16121522

> <PUBCHEM_EXT_DATASOURCE_URL>
https://www.surechembl.org/

> <PUBCHEM_EXT_SUBSTANCE_URL>
https://www.surechembl.org/chemical/SCHEMBL16121522

> <PUBCHEM_CID_ASSOCIATIONS>
117609881  1

> <PUBCHEM_COORDINATE_TYPE>
1
3

> <PUBCHEM_BONDANNOTATIONS>
36  6  6

$$$$
