310929151
  -OEChem-07211613022D

 22 22  0     0  0  0  0  0  0999 V2000
    0.7097    0.0000    0.0000 F   0  0  0  0  0  0  0  0  0  0  0  0
    0.0000   -1.2355    0.0000 F   0  0  0  0  0  0  0  0  0  0  0  0
    1.4195   -1.2355    0.0000 O   0  0  0  0  0  0  0  0  0  0  0  0
    2.8653   -3.7065    0.0000 O   0  0  0  0  0  0  0  0  0  0  0  0
    4.2849   -2.0504    0.0000 O   0  0  0  0  0  0  0  0  0  0  0  0
    6.4405   -2.4447    0.0000 O   0  0  0  0  0  0  0  0  0  0  0  0
    7.1502   -4.4952    0.0000 O   0  0  0  0  0  0  0  0  0  0  0  0
    0.0000   -3.7065    0.0000 N   0  0  0  0  0  0  0  0  0  0  0  0
    1.4195   -2.0504    0.0000 C   0  0  0  0  0  0  0  0  0  0  0  0
    2.1293   -3.2859    0.0000 C   0  0  0  0  0  0  0  0  0  0  0  0
    2.1293   -2.4710    0.0000 C   0  0  0  0  0  0  0  0  0  0  0  0
    0.7097   -3.2859    0.0000 C   0  0  0  0  0  0  0  0  0  0  0  0
    0.7097   -2.4710    0.0000 C   0  0  0  0  0  0  0  0  0  0  0  0
    1.4195   -3.7065    0.0000 C   0  0  0  0  0  0  0  0  0  0  0  0
    0.7097   -0.8149    0.0000 C   0  0  0  0  0  0  0  0  0  0  0  0
    3.5751   -3.2859    0.0000 C   0  0  0  0  0  0  0  0  0  0  0  0
    3.5751   -2.4710    0.0000 C   0  0  0  0  0  0  0  0  0  0  0  0
    4.9947   -2.4447    0.0000 C   0  0  0  0  0  0  0  0  0  0  0  0
    5.7044   -2.0241    0.0000 C   0  0  0  0  0  0  0  0  0  0  0  0
    6.4405   -3.2597    0.0000 C   0  0  0  0  0  0  0  0  0  0  0  0
    7.1502   -3.6540    0.0000 C   0  0  0  0  0  0  0  0  0  0  0  0
    7.8863   -4.8895    0.0000 C   0  0  0  0  0  0  0  0  0  0  0  0
  1 15  1  0  0  0  0
  2 15  1  0  0  0  0
  3  9  1  0  0  0  0
  3 15  1  0  0  0  0
  4 10  1  0  0  0  0
  4 16  1  0  0  0  0
  5 17  1  0  0  0  0
  5 18  1  0  0  0  0
  6 19  1  0  0  0  0
  6 20  1  0  0  0  0
  7 21  1  0  0  0  0
  7 22  1  0  0  0  0
  8 12  1  0  0  0  0
  9 11  2  0  0  0  0
  9 13  1  0  0  0  0
 10 11  1  0  0  0  0
 10 14  2  0  0  0  0
 12 13  2  0  0  0  0
 12 14  1  0  0  0  0
 16 17  1  0  0  0  0
 18 19  1  0  0  0  0
 20 21  1  0  0  0  0
M  END
> <PUBCHEM_COMPOUND_ID_TYPE>
0

> <PUBCHEM_TOTAL_CHARGE>
0

> <PUBCHEM_SUBSTANCE_ID>
310929151

> <PUBCHEM_SUBSTANCE_VERSION>
1

> <PUBCHEM_EXT_DATASOURCE_NAME>
4488

> <PUBCHEM_EXT_DATASOURCE_REGID>
SCHEMBL16106314

> <PUBCHEM_SUBSTANCE_COMMENT>
InChI=1S/C14H21F2NO5/c1-18-2-3-19-4-5-20-6-7-21-12-8-11(17)9-13(10-12)22-14(15)16/h8-10,14H,2-7,17H2,1H3
InChIKey=RNUFJUQFNINHGM-UHFFFAOYSA-N

> <PUBCHEM_SUBSTANCE_SYNONYM>
SCHEMBL16106314

> <PUBCHEM_XREF_EXT_ID>
SCHEMBL16106314

> <PUBCHEM_EXT_DATASOURCE_URL>
https://www.surechembl.org/

> <PUBCHEM_EXT_SUBSTANCE_URL>
https://www.surechembl.org/chemical/SCHEMBL16106314

> <PUBCHEM_CID_ASSOCIATIONS>
117598619  1

> <PUBCHEM_COORDINATE_TYPE>
1
3

$$$$
