310944998
  -OEChem-07211613022D

 36 41  0     0  0  0  0  0  0999 V2000
    4.9274    0.3579    0.0000 O   0  0  0  0  0  0  0  0  0  0  0  0
   -2.0645    1.6792    0.0000 O   0  0  0  0  0  0  0  0  0  0  0  0
    2.3949   -0.8121    0.0000 N   0  0  0  0  0  0  0  0  0  0  0  0
    0.0826    1.2387    0.0000 N   0  0  0  0  0  0  0  0  0  0  0  0
   -2.7802   -1.2250    0.0000 N   0  0  0  0  0  0  0  0  0  0  0  0
   -2.7802    0.4267    0.0000 N   0  0  0  0  0  0  0  0  0  0  0  0
   -4.2117   -2.0370    0.0000 N   0  0  0  0  0  0  0  0  0  0  0  0
    2.2435    0.0000    0.0000 C   0  0  0  0  0  0  0  0  0  0  0  0
    2.9316    0.4129    0.0000 C   0  0  0  0  0  0  0  0  0  0  0  0
    3.5510   -0.1514    0.0000 C   0  0  0  0  0  0  0  0  0  0  0  0
    3.2207   -0.8947    0.0000 C   0  0  0  0  0  0  0  0  0  0  0  0
    1.5002    0.4129    0.0000 C   0  0  0  0  0  0  0  0  0  0  0  0
    1.5278    1.2387    0.0000 C   0  0  0  0  0  0  0  0  0  0  0  0
    4.3493   -0.2615    0.0000 C   0  0  0  0  0  0  0  0  0  0  0  0
    2.9454    1.2112    0.0000 C   0  0  0  0  0  0  0  0  0  0  0  0
    3.8401   -1.4452    0.0000 C   0  0  0  0  0  0  0  0  0  0  0  0
    0.8121    0.0000    0.0000 C   0  0  0  0  0  0  0  0  0  0  0  0
    2.2159    1.6241    0.0000 C   0  0  0  0  0  0  0  0  0  0  0  0
    0.0826    0.4129    0.0000 C   0  0  0  0  0  0  0  0  0  0  0  0
    4.5420   -1.0323    0.0000 C   0  0  0  0  0  0  0  0  0  0  0  0
    0.7983    1.6379    0.0000 C   0  0  0  0  0  0  0  0  0  0  0  0
   -0.6331    0.0138    0.0000 C   0  0  0  0  0  0  0  0  0  0  0  0
    1.8443   -1.4176    0.0000 C   0  0  0  0  0  0  0  0  0  0  0  0
   -2.0508    0.0138    0.0000 C   0  0  0  0  0  0  0  0  0  0  0  0
   -2.0645   -0.8121    0.0000 C   0  0  0  0  0  0  0  0  0  0  0  0
   -1.3626    0.3991    0.0000 C   0  0  0  0  0  0  0  0  0  0  0  0
   -0.6331   -0.8121    0.0000 C   0  0  0  0  0  0  0  0  0  0  0  0
   -1.3488   -1.2250    0.0000 C   0  0  0  0  0  0  0  0  0  0  0  0
   -2.7802   -2.0370    0.0000 C   0  0  0  0  0  0  0  0  0  0  0  0
   -3.5097   -0.8121    0.0000 C   0  0  0  0  0  0  0  0  0  0  0  0
   -2.7940    1.2387    0.0000 C   0  0  0  0  0  0  0  0  0  0  0  0
   -3.4822   -2.4499    0.0000 C   0  0  0  0  0  0  0  0  0  0  0  0
   -4.1979   -1.2112    0.0000 C   0  0  0  0  0  0  0  0  0  0  0  0
   -3.4959    1.6241    0.0000 C   0  0  0  0  0  0  0  0  0  0  0  0
   -4.9274   -2.4637    0.0000 C   0  0  0  0  0  0  0  0  0  0  0  0
   -3.4822    2.4637    0.0000 C   0  0  0  0  0  0  0  0  0  0  0  0
  1 14  2  0  0  0  0
  2 31  2  0  0  0  0
  3  8  1  0  0  0  0
  3 11  1  0  0  0  0
  3 23  1  0  0  0  0
  4 19  2  0  0  0  0
  4 21  1  0  0  0  0
  5 25  1  0  0  0  0
  5 29  1  0  0  0  0
  5 30  1  0  0  0  0
  6 24  1  0  0  0  0
  6 31  1  0  0  0  0
  7 32  1  0  0  0  0
  7 33  1  0  0  0  0
  7 35  1  0  0  0  0
  8  9  2  0  0  0  0
  8 12  1  0  0  0  0
  9 10  1  0  0  0  0
  9 15  1  0  0  0  0
 10 11  2  0  0  0  0
 10 14  1  0  0  0  0
 11 16  1  0  0  0  0
 12 13  1  0  0  0  0
 12 17  2  0  0  0  0
 13 18  1  0  0  0  0
 13 21  2  0  0  0  0
 14 20  1  0  0  0  0
 15 18  2  0  0  0  0
 16 20  1  0  0  0  0
 17 19  1  0  0  0  0
 19 22  1  0  0  0  0
 22 26  2  0  0  0  0
 22 27  1  0  0  0  0
 24 25  2  0  0  0  0
 24 26  1  0  0  0  0
 25 28  1  0  0  0  0
 27 28  2  0  0  0  0
 29 32  1  0  0  0  0
 30 33  1  0  0  0  0
 31 34  1  0  0  0  0
 34 36  2  0  0  0  0
M  END
> <PUBCHEM_COMPOUND_ID_TYPE>
0

> <PUBCHEM_TOTAL_CHARGE>
0

> <PUBCHEM_SUBSTANCE_ID>
310944998

> <PUBCHEM_SUBSTANCE_VERSION>
1

> <PUBCHEM_EXT_DATASOURCE_NAME>
4488

> <PUBCHEM_EXT_DATASOURCE_REGID>
SCHEMBL16123086

> <PUBCHEM_SUBSTANCE_COMMENT>
InChI=1S/C29H29N5O2/c1-4-27(36)31-23-15-18(6-8-24(23)34-13-11-32(2)12-14-34)22-16-21-19(17-30-22)5-7-20-28-25(9-10-26(28)35)33(3)29(20)21/h4-8,15-17H,1,9-14H2,2-3H3,(H,31,36)
InChIKey=ZIQOZCCHCHZPGU-UHFFFAOYSA-N

> <PUBCHEM_SUBSTANCE_SYNONYM>
SCHEMBL16123086

> <PUBCHEM_XREF_EXT_ID>
SCHEMBL16123086

> <PUBCHEM_EXT_DATASOURCE_URL>
https://www.surechembl.org/

> <PUBCHEM_EXT_SUBSTANCE_URL>
https://www.surechembl.org/chemical/SCHEMBL16123086

> <PUBCHEM_CID_ASSOCIATIONS>
117611137  1

> <PUBCHEM_COORDINATE_TYPE>
1
3

$$$$
