310937210
  -OEChem-07211613022D

 17 17  0     0  0  0  0  0  0999 V2000
    1.2168   -1.4149    0.0000 O   0  0  0  0  0  0  0  0  0  0  0  0
    2.0091    0.0000    0.0000 O   0  0  0  0  0  0  0  0  0  0  0  0
    3.2542   -0.7074    0.0000 O   0  0  0  0  0  0  0  0  0  0  0  0
    2.0091   -1.4149    0.0000 N   0  0  0  0  0  0  0  0  0  0  0  0
    2.4336   -0.7074    0.0000 C   0  0  0  0  0  0  0  0  0  0  0  0
    2.4336   -2.1223    0.0000 C   0  0  0  0  0  0  0  0  0  0  0  0
    2.0091   -4.2446    0.0000 C   0  0  0  0  0  0  0  0  0  0  0  0
    2.0091   -2.8298    0.0000 C   0  0  0  0  0  0  0  0  0  0  0  0
    2.4336   -3.5372    0.0000 C   0  0  0  0  0  0  0  0  0  0  0  0
    0.7923   -2.1223    0.0000 C   0  0  0  0  0  0  0  0  0  0  0  0
    2.4336   -4.9520    0.0000 C   0  0  0  0  0  0  0  0  0  0  0  0
    1.2168   -4.2446    0.0000 C   0  0  0  0  0  0  0  0  0  0  0  0
    2.0374   -5.6595    0.0000 C   0  0  0  0  0  0  0  0  0  0  0  0
    0.7923   -4.9520    0.0000 C   0  0  0  0  0  0  0  0  0  0  0  0
    1.2168   -5.6595    0.0000 C   0  0  0  0  0  0  0  0  0  0  0  0
    1.2168   -2.8298    0.0000 C   0  0  0  0  0  0  0  0  0  0  0  0
    0.0000   -2.1223    0.0000 C   0  0  0  0  0  0  0  0  0  0  0  0
  1  4  1  0  0  0  0
  1 10  1  0  0  0  0
  2  5  2  0  0  0  0
  3  5  1  0  0  0  0
  4  5  1  0  0  0  0
  4  6  1  0  0  0  0
  6  8  1  0  0  0  0
  7  9  1  0  0  0  0
  7 11  2  0  0  0  0
  7 12  1  0  0  0  0
  8  9  1  0  0  0  0
 10 16  1  0  0  0  0
 10 17  1  0  0  0  0
 11 13  1  0  0  0  0
 12 14  2  0  0  0  0
 13 15  2  0  0  0  0
 14 15  1  0  0  0  0
M  END
> <PUBCHEM_COMPOUND_ID_TYPE>
0

> <PUBCHEM_TOTAL_CHARGE>
0

> <PUBCHEM_SUBSTANCE_ID>
310937210

> <PUBCHEM_SUBSTANCE_VERSION>
1

> <PUBCHEM_EXT_DATASOURCE_NAME>
4488

> <PUBCHEM_EXT_DATASOURCE_REGID>
SCHEMBL16114941

> <PUBCHEM_SUBSTANCE_COMMENT>
InChI=1S/C13H19NO3/c1-11(2)17-14(13(15)16)10-6-9-12-7-4-3-5-8-12/h3-5,7-8,11H,6,9-10H2,1-2H3,(H,15,16)
InChIKey=KCTLHNVCYKYIFY-UHFFFAOYSA-N

> <PUBCHEM_SUBSTANCE_SYNONYM>
SCHEMBL16114941

> <PUBCHEM_XREF_EXT_ID>
SCHEMBL16114941

> <PUBCHEM_EXT_DATASOURCE_URL>
https://www.surechembl.org/

> <PUBCHEM_EXT_SUBSTANCE_URL>
https://www.surechembl.org/chemical/SCHEMBL16114941

> <PUBCHEM_CID_ASSOCIATIONS>
117605019  1

> <PUBCHEM_COORDINATE_TYPE>
1
3

$$$$
