310942711
  -OEChem-07211613022D

 17 19  0     0  0  0  0  0  0999 V2000
   -1.7157    1.9592    0.0000 Cl  0  0  0  0  0  0  0  0  0  0  0  0
    1.7157    0.9214    0.0000 O   0  0  0  0  0  0  0  0  0  0  0  0
    0.3389   -1.5357    0.0000 N   0  0  0  0  0  0  0  0  0  0  0  0
    1.1650   -1.3450    0.0000 N   0  0  0  0  0  0  0  0  0  0  0  0
   -0.8896   -0.8155    0.0000 N   0  0  0  0  0  0  0  0  0  0  0  0
    0.4872   -0.1589    0.0000 C   0  0  0  0  0  0  0  0  0  0  0  0
   -0.0635   -0.8155    0.0000 C   0  0  0  0  0  0  0  0  0  0  0  0
    0.3177    0.6249    0.0000 C   0  0  0  0  0  0  0  0  0  0  0  0
    1.2497   -0.5401    0.0000 C   0  0  0  0  0  0  0  0  0  0  0  0
    0.9108    1.1967    0.0000 C   0  0  0  0  0  0  0  0  0  0  0  0
   -0.4660    0.8791    0.0000 C   0  0  0  0  0  0  0  0  0  0  0  0
   -0.0635   -2.2559    0.0000 C   0  0  0  0  0  0  0  0  0  0  0  0
   -0.6355    1.7051    0.0000 C   0  0  0  0  0  0  0  0  0  0  0  0
    0.7413    1.9805    0.0000 C   0  0  0  0  0  0  0  0  0  0  0  0
   -1.3133   -1.5357    0.0000 C   0  0  0  0  0  0  0  0  0  0  0  0
   -0.0212    2.2559    0.0000 C   0  0  0  0  0  0  0  0  0  0  0  0
   -0.9108   -2.2347    0.0000 C   0  0  0  0  0  0  0  0  0  0  0  0
  1 13  1  0  0  0  0
  2 10  1  0  0  0  0
  3  4  1  0  0  0  0
  3  7  1  0  0  0  0
  3 12  1  0  0  0  0
  4  9  2  0  0  0  0
  5  7  1  0  0  0  0
  5 15  1  0  0  0  0
  6  7  2  0  0  0  0
  6  8  1  0  0  0  0
  6  9  1  0  0  0  0
  8 10  2  0  0  0  0
  8 11  1  0  0  0  0
 10 14  1  0  0  0  0
 11 13  2  0  0  0  0
 12 17  1  0  0  0  0
 13 16  1  0  0  0  0
 14 16  2  0  0  0  0
 15 17  1  0  0  0  0
M  END
> <PUBCHEM_COMPOUND_ID_TYPE>
0

> <PUBCHEM_TOTAL_CHARGE>
0

> <PUBCHEM_SUBSTANCE_ID>
310942711

> <PUBCHEM_SUBSTANCE_VERSION>
1

> <PUBCHEM_EXT_DATASOURCE_NAME>
4488

> <PUBCHEM_EXT_DATASOURCE_REGID>
SCHEMBL16120757

> <PUBCHEM_SUBSTANCE_COMMENT>
InChI=1S/C12H12ClN3O/c13-8-2-3-11(17)9(6-8)10-7-15-16-5-1-4-14-12(10)16/h2-3,6-7,14,17H,1,4-5H2
InChIKey=SPTBGFAZEIVQNR-UHFFFAOYSA-N

> <PUBCHEM_SUBSTANCE_SYNONYM>
SCHEMBL16120757

> <PUBCHEM_XREF_EXT_ID>
SCHEMBL16120757

> <PUBCHEM_EXT_DATASOURCE_URL>
https://www.surechembl.org/

> <PUBCHEM_EXT_SUBSTANCE_URL>
https://www.surechembl.org/chemical/SCHEMBL16120757

> <PUBCHEM_CID_ASSOCIATIONS>
117609235  1

> <PUBCHEM_COORDINATE_TYPE>
1
3

$$$$
