310945947
  -OEChem-07211613022D

 39 41  0     1  0  0  0  0  0999 V2000
    4.3993    0.6789    0.0000 O   0  0  0  0  0  0  0  0  0  0  0  0
    3.2631   -1.2886    0.0000 O   0  0  0  0  0  0  0  0  0  0  0  0
    1.1016    0.7898    0.0000 O   0  0  0  0  0  0  0  0  0  0  0  0
   -1.0600   -1.2886    0.0000 O   0  0  0  0  0  0  0  0  0  0  0  0
   -3.2215    0.7898    0.0000 O   0  0  0  0  0  0  0  0  0  0  0  0
    3.2631   -2.9513    0.0000 O   0  0  0  0  0  0  0  0  0  0  0  0
    1.8221   -0.4434    0.0000 N   0  0  0  0  0  0  0  0  0  0  0  0
   -0.3395   -0.0277    0.0000 N   0  0  0  0  0  0  0  0  0  0  0  0
   -2.5010   -0.4434    0.0000 N   0  0  0  0  0  0  0  0  0  0  0  0
   -4.6625   -0.8591    0.0000 N   0  0  0  0  0  0  0  0  0  0  0  0
    3.9836    0.0000    0.0000 C   0  0  3  0  0  0  0  0  0  0  0  0
    3.2492   -0.4434    0.0000 C   0  0  0  0  0  0  0  0  0  0  0  0
    3.5956    0.6789    0.0000 C   0  0  0  0  0  0  0  0  0  0  0  0
    2.5426   -0.0277    0.0000 C   0  0  3  0  0  0  0  0  0  0  0  0
    4.6764   -0.4295    0.0000 C   0  0  0  0  0  0  0  0  0  0  0  0
    2.5565    1.2886    0.0000 C   0  0  0  0  0  0  0  0  0  0  0  0
    1.0877   -0.0554    0.0000 C   0  0  0  0  0  0  0  0  0  0  0  0
    0.4088   -0.4434    0.0000 C   0  0  3  0  0  0  0  0  0  0  0  0
    1.8082    1.7182    0.0000 C   0  0  0  0  0  0  0  0  0  0  0  0
    0.3810   -1.2747    0.0000 C   0  0  0  0  0  0  0  0  0  0  0  0
   -1.0600   -0.4157    0.0000 C   0  0  0  0  0  0  0  0  0  0  0  0
    1.1154   -1.6904    0.0000 C   0  0  0  0  0  0  0  0  0  0  0  0
   -1.7943   -0.0277    0.0000 C   0  0  3  0  0  0  0  0  0  0  0  0
    1.8221    2.5495    0.0000 C   0  0  0  0  0  0  0  0  0  0  0  0
    1.1154    1.3024    0.0000 C   0  0  0  0  0  0  0  0  0  0  0  0
   -3.2215   -0.0554    0.0000 C   0  0  0  0  0  0  0  0  0  0  0  0
   -3.9559   -0.4434    0.0000 C   0  0  0  0  0  0  0  0  0  0  0  0
    1.1154   -2.5218    0.0000 C   0  0  0  0  0  0  0  0  0  0  0  0
    1.8359   -1.2886    0.0000 C   0  0  0  0  0  0  0  0  0  0  0  0
    1.1154    2.9513    0.0000 C   0  0  0  0  0  0  0  0  0  0  0  0
    0.3949    1.7182    0.0000 C   0  0  0  0  0  0  0  0  0  0  0  0
    2.5426   -2.5079    0.0000 C   0  0  0  0  0  0  0  0  0  0  0  0
    1.8359   -2.9236    0.0000 C   0  0  0  0  0  0  0  0  0  0  0  0
    2.5426   -1.6904    0.0000 C   0  0  0  0  0  0  0  0  0  0  0  0
    0.3949    2.5495    0.0000 C   0  0  0  0  0  0  0  0  0  0  0  0
   -1.7666    0.7898    0.0000 C   0  0  0  0  0  0  0  0  0  0  0  0
   -3.9282   -1.2886    0.0000 C   0  0  0  0  0  0  0  0  0  0  0  0
   -4.6764   -0.0416    0.0000 C   0  0  0  0  0  0  0  0  0  0  0  0
    4.0113   -2.5357    0.0000 C   0  0  0  0  0  0  0  0  0  0  0  0
  1 11  1  0  0  0  0
  1 13  1  0  0  0  0
  2 12  2  0  0  0  0
  3 17  2  0  0  0  0
  4 21  2  0  0  0  0
  5 26  2  0  0  0  0
  6 32  1  0  0  0  0
  6 39  1  0  0  0  0
 14  7  1  1  0  0  0
  7 17  1  0  0  0  0
 18  8  1  6  0  0  0
  8 21  1  0  0  0  0
  9 23  1  0  0  0  0
  9 26  1  0  0  0  0
 10 27  1  0  0  0  0
 11 12  1  1  0  0  0
 11 13  1  0  0  0  0
 11 15  1  6  0  0  0
 12 14  1  0  0  0  0
 14 16  1  0  0  0  0
 16 19  1  0  0  0  0
 17 18  1  0  0  0  0
 18 20  1  0  0  0  0
 19 24  2  0  0  0  0
 19 25  1  0  0  0  0
 20 22  1  0  0  0  0
 21 23  1  0  0  0  0
 22 28  2  0  0  0  0
 22 29  1  0  0  0  0
 23 36  1  1  0  0  0
 24 30  1  0  0  0  0
 25 31  2  0  0  0  0
 26 27  1  0  0  0  0
 27 37  1  0  0  0  0
 27 38  1  0  0  0  0
 28 33  1  0  0  0  0
 29 34  2  0  0  0  0
 30 35  2  0  0  0  0
 31 35  1  0  0  0  0
 32 33  2  0  0  0  0
 32 34  1  0  0  0  0
M  END
> <PUBCHEM_COMPOUND_ID_TYPE>
0

> <PUBCHEM_TOTAL_CHARGE>
0

> <PUBCHEM_SUBSTANCE_ID>
310945947

> <PUBCHEM_SUBSTANCE_VERSION>
1

> <PUBCHEM_EXT_DATASOURCE_NAME>
4488

> <PUBCHEM_EXT_DATASOURCE_REGID>
SCHEMBL16124052

> <PUBCHEM_SUBSTANCE_COMMENT>
InChI=1S/C29H38N4O6/c1-18(31-27(37)28(2,3)30)25(35)33-23(16-20-11-13-21(38-5)14-12-20)26(36)32-22(24(34)29(4)17-39-29)15-19-9-7-6-8-10-19/h6-14,18,22-23H,15-17,30H2,1-5H3,(H,31,37)(H,32,36)(H,33,35)/t18-,22-,23-,29+/m0/s1
InChIKey=BOOHHAPSRAZHSZ-YCAFDEAISA-N

> <PUBCHEM_SUBSTANCE_SYNONYM>
SCHEMBL16124052

> <PUBCHEM_XREF_EXT_ID>
SCHEMBL16124052

> <PUBCHEM_EXT_DATASOURCE_URL>
https://www.surechembl.org/

> <PUBCHEM_EXT_SUBSTANCE_URL>
https://www.surechembl.org/chemical/SCHEMBL16124052

> <PUBCHEM_CID_ASSOCIATIONS>
117611929  1

> <PUBCHEM_COORDINATE_TYPE>
1
3

> <PUBCHEM_BONDANNOTATIONS>
11  12  5
11  15  6
23  36  5
14  7  5
18  8  6

$$$$
