310930755
  -OEChem-07211613022D

 24 25  0     1  0  0  0  0  0999 V2000
    3.5724    1.6500    0.0000 F   0  0  0  0  0  0  0  0  0  0  0  0
    0.7145    3.3001    0.0000 F   0  0  0  0  0  0  0  0  0  0  0  0
    0.7145    1.6500    0.0000 F   0  0  0  0  0  0  0  0  0  0  0  0
    6.4304    4.1251    0.0000 O   0  0  0  0  0  0  0  0  0  0  0  0
    5.7159    5.3626    0.0000 O   0  0  0  0  0  0  0  0  0  0  0  0
    2.1435    4.1251    0.0000 O   0  0  0  0  0  0  0  0  0  0  0  0
    5.0014    4.1251    0.0000 N   0  0  0  0  0  0  0  0  0  0  0  0
    3.5724    3.3001    0.0000 C   0  0  3  0  0  0  0  0  0  0  0  0
    2.8579    2.8876    0.0000 C   0  0  0  0  0  0  0  0  0  0  0  0
    3.5724    4.1251    0.0000 C   0  0  3  0  0  0  0  0  0  0  0  0
    2.8579    2.0625    0.0000 C   0  0  0  0  0  0  0  0  0  0  0  0
    2.1435    3.3001    0.0000 C   0  0  0  0  0  0  0  0  0  0  0  0
    4.2869    2.8876    0.0000 C   0  0  0  0  0  0  0  0  0  0  0  0
    4.2869    4.5376    0.0000 C   0  0  0  0  0  0  0  0  0  0  0  0
    1.4290    2.8876    0.0000 C   0  0  0  0  0  0  0  0  0  0  0  0
    1.4290    2.0625    0.0000 C   0  0  0  0  0  0  0  0  0  0  0  0
    5.0014    3.3001    0.0000 C   0  0  0  0  0  0  0  0  0  0  0  0
    2.1435    1.6500    0.0000 C   0  0  0  0  0  0  0  0  0  0  0  0
    5.7159    4.5376    0.0000 C   0  0  0  0  0  0  0  0  0  0  0  0
    2.8579    4.5376    0.0000 C   0  0  0  0  0  0  0  0  0  0  0  0
    7.1449    4.5376    0.0000 C   0  0  0  0  0  0  0  0  0  0  0  0
    7.1449    5.3626    0.0000 C   0  0  0  0  0  0  0  0  0  0  0  0
    7.8594    4.9501    0.0000 C   0  0  0  0  0  0  0  0  0  0  0  0
    7.8594    4.1251    0.0000 C   0  0  0  0  0  0  0  0  0  0  0  0
  1 11  1  0  0  0  0
  2 15  1  0  0  0  0
  3 16  1  0  0  0  0
  4 19  1  0  0  0  0
  4 21  1  0  0  0  0
  5 19  2  0  0  0  0
  6 20  1  0  0  0  0
  7 14  1  0  0  0  0
  7 17  1  0  0  0  0
  7 19  1  0  0  0  0
  8  9  1  0  0  0  0
  8 10  1  0  0  0  0
  8 13  1  6  0  0  0
  9 11  1  0  0  0  0
  9 12  2  0  0  0  0
 10 14  1  0  0  0  0
 10 20  1  1  0  0  0
 11 18  2  0  0  0  0
 12 15  1  0  0  0  0
 13 17  1  0  0  0  0
 15 16  2  0  0  0  0
 16 18  1  0  0  0  0
 21 22  1  0  0  0  0
 21 23  1  0  0  0  0
 21 24  1  0  0  0  0
M  END
> <PUBCHEM_COMPOUND_ID_TYPE>
0

> <PUBCHEM_TOTAL_CHARGE>
0

> <PUBCHEM_SUBSTANCE_ID>
310930755

> <PUBCHEM_SUBSTANCE_VERSION>
1

> <PUBCHEM_EXT_DATASOURCE_NAME>
4488

> <PUBCHEM_EXT_DATASOURCE_REGID>
SCHEMBL16108052

> <PUBCHEM_SUBSTANCE_COMMENT>
InChI=1S/C17H22F3NO3/c1-17(2,3)24-16(23)21-5-4-11(10(8-21)9-22)12-6-14(19)15(20)7-13(12)18/h6-7,10-11,22H,4-5,8-9H2,1-3H3/t10-,11+/m1/s1
InChIKey=WENSZNGADAJCLW-MNOVXSKESA-N

> <PUBCHEM_SUBSTANCE_SYNONYM>
SCHEMBL16108052

> <PUBCHEM_XREF_EXT_ID>
SCHEMBL16108052

> <PUBCHEM_EXT_DATASOURCE_URL>
https://www.surechembl.org/

> <PUBCHEM_EXT_SUBSTANCE_URL>
https://www.surechembl.org/chemical/SCHEMBL16108052

> <PUBCHEM_CID_ASSOCIATIONS>
117599774  1

> <PUBCHEM_COORDINATE_TYPE>
1
3

> <PUBCHEM_BONDANNOTATIONS>
10  20  5
8  13  6

$$$$
