310944419
  -OEChem-07211613022D

 15 15  0     0  0  0  0  0  0999 V2000
   -2.5919    0.4102    0.0000 Cl  0  0  0  0  0  0  0  0  0  0  0  0
   -2.5919   -1.2431    0.0000 Cl  0  0  0  0  0  0  0  0  0  0  0  0
    1.8709    1.2431    0.0000 O   0  0  0  0  0  0  0  0  0  0  0  0
    2.5919    0.0000    0.0000 O   0  0  0  0  0  0  0  0  0  0  0  0
    0.4538    0.4227    0.0000 N   0  0  0  0  0  0  0  0  0  0  0  0
   -0.2672    0.0124    0.0000 C   0  0  0  0  0  0  0  0  0  0  0  0
   -0.2672   -0.8205    0.0000 C   0  0  0  0  0  0  0  0  0  0  0  0
   -1.6968    0.0000    0.0000 C   0  0  0  0  0  0  0  0  0  0  0  0
   -1.6968   -0.8205    0.0000 C   0  0  0  0  0  0  0  0  0  0  0  0
   -0.9758    0.4102    0.0000 C   0  0  0  0  0  0  0  0  0  0  0  0
   -0.9882   -1.2307    0.0000 C   0  0  0  0  0  0  0  0  0  0  0  0
    0.4662   -1.2307    0.0000 C   0  0  0  0  0  0  0  0  0  0  0  0
    1.1747    0.0000    0.0000 C   0  0  0  0  0  0  0  0  0  0  0  0
    1.8833    0.4102    0.0000 C   0  0  0  0  0  0  0  0  0  0  0  0
    1.1499   -0.8329    0.0000 C   0  0  0  0  0  0  0  0  0  0  0  0
  1  8  1  0  0  0  0
  2  9  1  0  0  0  0
  3 14  2  0  0  0  0
  4 14  1  0  0  0  0
  5  6  1  0  0  0  0
  5 13  1  0  0  0  0
  6  7  1  0  0  0  0
  6 10  2  0  0  0  0
  7 11  2  0  0  0  0
  7 12  1  0  0  0  0
  8  9  2  0  0  0  0
  8 10  1  0  0  0  0
  9 11  1  0  0  0  0
 12 15  1  0  0  0  0
 13 14  1  0  0  0  0
M  END
> <PUBCHEM_COMPOUND_ID_TYPE>
0

> <PUBCHEM_TOTAL_CHARGE>
0

> <PUBCHEM_SUBSTANCE_ID>
310944419

> <PUBCHEM_SUBSTANCE_VERSION>
1

> <PUBCHEM_EXT_DATASOURCE_NAME>
4488

> <PUBCHEM_EXT_DATASOURCE_REGID>
SCHEMBL16122494

> <PUBCHEM_SUBSTANCE_COMMENT>
InChI=1S/C10H11Cl2NO2/c1-2-6-3-7(11)8(12)4-9(6)13-5-10(14)15/h3-4,13H,2,5H2,1H3,(H,14,15)
InChIKey=SOEBYLGENXLFBF-UHFFFAOYSA-N

> <PUBCHEM_SUBSTANCE_SYNONYM>
SCHEMBL16122494

> <PUBCHEM_XREF_EXT_ID>
SCHEMBL16122494

> <PUBCHEM_EXT_DATASOURCE_URL>
https://www.surechembl.org/

> <PUBCHEM_EXT_SUBSTANCE_URL>
https://www.surechembl.org/chemical/SCHEMBL16122494

> <PUBCHEM_CID_ASSOCIATIONS>
117610675  1

> <PUBCHEM_COORDINATE_TYPE>
1
3

$$$$
