310937082
  -OEChem-07211613022D

 17 17  0     0  0  0  0  0  0999 V2000
    0.7125   -1.2563    0.0000 Br  0  0  0  0  0  0  0  0  0  0  0  0
    2.1563   -3.7501    0.0000 F   0  0  0  0  0  0  0  0  0  0  0  0
    2.1563   -1.2563    0.0000 O   0  0  0  0  0  0  0  0  0  0  0  0
    4.3126   -0.8438    0.0000 O   0  0  0  0  0  0  0  0  0  0  0  0
    2.8688   -0.8250    0.0000 O   0  0  0  0  0  0  0  0  0  0  0  0
    2.8688   -2.4938    0.0000 N   0  0  0  0  0  0  0  0  0  0  0  0
    1.4250   -2.4938    0.0000 C   0  0  0  0  0  0  0  0  0  0  0  0
    2.1563   -2.0813    0.0000 C   0  0  0  0  0  0  0  0  0  0  0  0
    0.7125   -2.0813    0.0000 C   0  0  0  0  0  0  0  0  0  0  0  0
    1.4250   -3.3376    0.0000 C   0  0  0  0  0  0  0  0  0  0  0  0
    0.0000   -2.4938    0.0000 C   0  0  0  0  0  0  0  0  0  0  0  0
    0.7125   -3.7501    0.0000 C   0  0  0  0  0  0  0  0  0  0  0  0
    0.0000   -3.3376    0.0000 C   0  0  0  0  0  0  0  0  0  0  0  0
    3.6000   -2.0813    0.0000 C   0  0  0  0  0  0  0  0  0  0  0  0
    3.6000   -1.2563    0.0000 C   0  0  0  0  0  0  0  0  0  0  0  0
    4.3126    0.0000    0.0000 C   0  0  0  0  0  0  0  0  0  0  0  0
    2.3250   -1.4063    0.0000 C   0  0  0  0  0  0  0  0  0  0  0  0
  1  9  1  0  0  0  0
  2 10  1  0  0  0  0
  3  8  2  0  0  0  0
  4 15  1  0  0  0  0
  4 16  1  0  0  0  0
  5 15  1  0  0  0  0
  5 17  1  0  0  0  0
  6  8  1  0  0  0  0
  6 14  1  0  0  0  0
  7  8  1  0  0  0  0
  7  9  2  0  0  0  0
  7 10  1  0  0  0  0
  9 11  1  0  0  0  0
 10 12  2  0  0  0  0
 11 13  2  0  0  0  0
 12 13  1  0  0  0  0
 14 15  1  0  0  0  0
M  END
> <PUBCHEM_COMPOUND_ID_TYPE>
0

> <PUBCHEM_TOTAL_CHARGE>
0

> <PUBCHEM_SUBSTANCE_ID>
310937082

> <PUBCHEM_SUBSTANCE_VERSION>
1

> <PUBCHEM_EXT_DATASOURCE_NAME>
4488

> <PUBCHEM_EXT_DATASOURCE_REGID>
SCHEMBL16114795

> <PUBCHEM_SUBSTANCE_COMMENT>
InChI=1S/C11H13BrFNO3/c1-16-9(17-2)6-14-11(15)10-7(12)4-3-5-8(10)13/h3-5,9H,6H2,1-2H3,(H,14,15)
InChIKey=HCGXAWRKDSMRAE-UHFFFAOYSA-N

> <PUBCHEM_SUBSTANCE_SYNONYM>
SCHEMBL16114795

> <PUBCHEM_XREF_EXT_ID>
SCHEMBL16114795

> <PUBCHEM_EXT_DATASOURCE_URL>
https://www.surechembl.org/

> <PUBCHEM_EXT_SUBSTANCE_URL>
https://www.surechembl.org/chemical/SCHEMBL16114795

> <PUBCHEM_CID_ASSOCIATIONS>
114559289  1

> <PUBCHEM_COORDINATE_TYPE>
1
3

$$$$
