310934659
  -OEChem-07211613022D

 20 22  0     0  0  0  0  0  0999 V2000
    3.1634   -3.3644    0.0000 O   0  0  0  0  0  0  0  0  0  0  0  0
    1.8044   -3.8059    0.0000 O   0  0  0  0  0  0  0  0  0  0  0  0
    0.7846   -0.6674    0.0000 N   0  0  0  0  0  0  0  0  0  0  0  0
    0.7846    0.6674    0.0000 N   0  0  0  0  0  0  0  0  0  0  0  0
   -0.7145   -0.8250    0.0000 N   0  0  0  0  0  0  0  0  0  0  0  0
   -1.4290    0.4125    0.0000 N   0  0  0  0  0  0  0  0  0  0  0  0
    2.0946    0.0000    0.0000 N   0  0  0  0  0  0  0  0  0  0  0  0
    0.0000   -0.4125    0.0000 C   0  0  0  0  0  0  0  0  0  0  0  0
    0.0000    0.4125    0.0000 C   0  0  0  0  0  0  0  0  0  0  0  0
    1.2696    0.0000    0.0000 C   0  0  0  0  0  0  0  0  0  0  0  0
    1.0396   -1.4521    0.0000 C   0  0  0  0  0  0  0  0  0  0  0  0
   -0.7145    0.8250    0.0000 C   0  0  0  0  0  0  0  0  0  0  0  0
    2.1015   -2.4082    0.0000 C   0  0  0  0  0  0  0  0  0  0  0  0
    2.6114   -3.9774    0.0000 C   0  0  0  0  0  0  0  0  0  0  0  0
    1.8465   -1.6236    0.0000 C   0  0  0  0  0  0  0  0  0  0  0  0
   -1.4290   -0.4125    0.0000 C   0  0  0  0  0  0  0  0  0  0  0  0
    1.5495   -3.0213    0.0000 C   0  0  0  0  0  0  0  0  0  0  0  0
    2.9084   -2.5797    0.0000 C   0  0  0  0  0  0  0  0  0  0  0  0
    3.2245   -4.5295    0.0000 C   0  0  0  0  0  0  0  0  0  0  0  0
    2.4398   -4.7844    0.0000 C   0  0  0  0  0  0  0  0  0  0  0  0
  1 14  1  0  0  0  0
  1 18  1  0  0  0  0
  2 14  1  0  0  0  0
  2 17  1  0  0  0  0
  3  8  1  0  0  0  0
  3 10  1  0  0  0  0
  3 11  1  0  0  0  0
  4  9  1  0  0  0  0
  4 10  2  0  0  0  0
  5  8  2  0  0  0  0
  5 16  1  0  0  0  0
  6 12  1  0  0  0  0
  6 16  2  0  0  0  0
  7 10  1  0  0  0  0
  8  9  1  0  0  0  0
  9 12  2  0  0  0  0
 11 15  1  0  0  0  0
 13 15  1  0  0  0  0
 13 17  1  0  0  0  0
 13 18  1  0  0  0  0
 14 19  1  0  0  0  0
 14 20  1  0  0  0  0
M  END
> <PUBCHEM_COMPOUND_ID_TYPE>
0

> <PUBCHEM_TOTAL_CHARGE>
0

> <PUBCHEM_SUBSTANCE_ID>
310934659

> <PUBCHEM_SUBSTANCE_VERSION>
1

> <PUBCHEM_EXT_DATASOURCE_NAME>
4488

> <PUBCHEM_EXT_DATASOURCE_REGID>
SCHEMBL16112157

> <PUBCHEM_SUBSTANCE_COMMENT>
InChI=1S/C13H19N5O2/c1-13(2)19-6-9(7-20-13)3-4-18-11-10(17-12(18)14)5-15-8-16-11/h5,8-9H,3-4,6-7H2,1-2H3,(H2,14,17)
InChIKey=YUXHDSGUVWXMPB-UHFFFAOYSA-N

> <PUBCHEM_SUBSTANCE_SYNONYM>
SCHEMBL16112157

> <PUBCHEM_XREF_EXT_ID>
SCHEMBL16112157

> <PUBCHEM_EXT_DATASOURCE_URL>
https://www.surechembl.org/

> <PUBCHEM_EXT_SUBSTANCE_URL>
https://www.surechembl.org/chemical/SCHEMBL16112157

> <PUBCHEM_CID_ASSOCIATIONS>
117602825  1

> <PUBCHEM_COORDINATE_TYPE>
1
3

$$$$
