310944330
  -OEChem-07211613022D

 31 35  0     1  0  0  0  0  0999 V2000
    2.4876    0.2709    0.0000 O   0  0  0  0  0  0  0  0  0  0  0  0
    5.0082   -1.2880    0.0000 O   0  0  0  0  0  0  0  0  0  0  0  0
    5.4725    0.1050    0.0000 O   0  0  0  0  0  0  0  0  0  0  0  0
    2.8745   -1.1553    0.0000 N   0  0  0  0  0  0  0  0  0  0  0  0
    0.1327   -0.0498    0.0000 N   0  0  0  0  0  0  0  0  0  0  0  0
   -4.1569    1.6086    0.0000 N   0  0  0  0  0  0  0  0  0  0  0  0
   -3.4494    0.3703    0.0000 N   0  0  0  0  0  0  0  0  0  0  0  0
   -2.0121    1.1996    0.0000 N   0  0  0  0  0  0  0  0  0  0  0  0
   -4.2454    2.4378    0.0000 N   0  0  0  0  0  0  0  0  0  0  0  0
   -5.0635    2.6146    0.0000 N   0  0  0  0  0  0  0  0  0  0  0  0
   -5.4725    1.8961    0.0000 N   0  0  0  0  0  0  0  0  0  0  0  0
    1.5478   -0.8679    0.0000 C   0  0  0  0  0  0  0  0  0  0  0  0
    2.2996   -0.5472    0.0000 C   0  0  0  0  0  0  0  0  0  0  0  0
    2.4433   -1.8740    0.0000 C   0  0  3  0  0  0  0  0  0  0  0  0
    1.6473   -1.6860    0.0000 C   0  0  0  0  0  0  0  0  0  0  0  0
    3.6816   -1.0558    0.0000 C   0  0  0  0  0  0  0  0  0  0  0  0
    0.8623   -1.2770    0.0000 C   0  0  0  0  0  0  0  0  0  0  0  0
    1.5588   -0.0387    0.0000 C   0  0  0  0  0  0  0  0  0  0  0  0
    0.1216   -0.8679    0.0000 C   0  0  0  0  0  0  0  0  0  0  0  0
    0.8292    0.3703    0.0000 C   0  0  0  0  0  0  0  0  0  0  0  0
    4.0685   -0.3262    0.0000 C   0  0  0  0  0  0  0  0  0  0  0  0
    4.2786   -1.6528    0.0000 C   0  0  0  0  0  0  0  0  0  0  0  0
    2.7971   -2.6146    0.0000 C   0  0  0  0  0  0  0  0  0  0  0  0
    4.8756   -0.4809    0.0000 C   0  0  0  0  0  0  0  0  0  0  0  0
   -0.5860    0.3703    0.0000 C   0  0  0  0  0  0  0  0  0  0  0  0
   -3.4494    1.2106    0.0000 C   0  0  0  0  0  0  0  0  0  0  0  0
   -2.0232    0.3814    0.0000 C   0  0  0  0  0  0  0  0  0  0  0  0
   -1.2935   -0.0387    0.0000 C   0  0  0  0  0  0  0  0  0  0  0  0
   -2.7308    1.6197    0.0000 C   0  0  0  0  0  0  0  0  0  0  0  0
   -2.7308   -0.0387    0.0000 C   0  0  0  0  0  0  0  0  0  0  0  0
   -4.9308    1.2880    0.0000 C   0  0  0  0  0  0  0  0  0  0  0  0
  1 13  2  0  0  0  0
  2 22  1  0  0  0  0
  2 24  1  0  0  0  0
  3 24  2  0  0  0  0
  4 13  1  0  0  0  0
  4 14  1  0  0  0  0
  4 16  1  0  0  0  0
  5 19  1  0  0  0  0
  5 20  1  0  0  0  0
  5 25  1  0  0  0  0
  6  9  1  0  0  0  0
  6 26  1  0  0  0  0
  6 31  1  0  0  0  0
  7 26  1  0  0  0  0
  7 30  2  0  0  0  0
  8 27  2  0  0  0  0
  8 29  1  0  0  0  0
  9 10  2  0  0  0  0
 10 11  1  0  0  0  0
 11 31  2  0  0  0  0
 12 13  1  0  0  0  0
 12 15  1  0  0  0  0
 12 17  1  0  0  0  0
 12 18  1  0  0  0  0
 14 15  1  0  0  0  0
 14 23  1  1  0  0  0
 16 21  2  0  0  0  0
 16 22  1  0  0  0  0
 17 19  1  0  0  0  0
 18 20  1  0  0  0  0
 21 24  1  0  0  0  0
 25 28  1  0  0  0  0
 26 29  2  0  0  0  0
 27 28  1  0  0  0  0
 27 30  1  0  0  0  0
M  END
> <PUBCHEM_COMPOUND_ID_TYPE>
0

> <PUBCHEM_TOTAL_CHARGE>
0

> <PUBCHEM_SUBSTANCE_ID>
310944330

> <PUBCHEM_SUBSTANCE_VERSION>
1

> <PUBCHEM_EXT_DATASOURCE_NAME>
4488

> <PUBCHEM_EXT_DATASOURCE_REGID>
SCHEMBL16122405

> <PUBCHEM_SUBSTANCE_COMMENT>
InChI=1S/C20H24N8O3/c1-14-9-20(19(30)28(14)16-8-18(29)31-12-16)3-6-26(7-4-20)5-2-15-10-22-17(11-21-15)27-13-23-24-25-27/h8,10-11,13-14H,2-7,9,12H2,1H3/t14-/m0/s1
InChIKey=WIYZIYPWNQGOKC-AWEZNQCLSA-N

> <PUBCHEM_SUBSTANCE_SYNONYM>
SCHEMBL16122405

> <PUBCHEM_XREF_EXT_ID>
SCHEMBL16122405

> <PUBCHEM_EXT_DATASOURCE_URL>
https://www.surechembl.org/

> <PUBCHEM_EXT_SUBSTANCE_URL>
https://www.surechembl.org/chemical/SCHEMBL16122405

> <PUBCHEM_CID_ASSOCIATIONS>
117610587  1

> <PUBCHEM_COORDINATE_TYPE>
1
3

> <PUBCHEM_BONDANNOTATIONS>
14  23  5

$$$$
