310946773
  -OEChem-07211613022D

 47 52  0     0  0  0  0  0  0999 V2000
   -0.1520    4.2250    0.0000 F   0  0  0  0  0  0  0  0  0  0  0  0
    0.5841    1.4723    0.0000 F   0  0  0  0  0  0  0  0  0  0  0  0
    0.4561   -4.2250    0.0000 O   0  0  0  0  0  0  0  0  0  0  0  0
    2.5686    3.4888    0.0000 O   0  0  0  0  0  0  0  0  0  0  0  0
    0.0240   -2.6566    0.0000 N   0  0  0  0  0  0  0  0  0  0  0  0
   -1.2083   -0.8642    0.0000 N   0  0  0  0  0  0  0  0  0  0  0  0
    0.1841   -0.4961    0.0000 N   0  0  0  0  0  0  0  0  0  0  0  0
   -1.5604   -2.2245    0.0000 N   0  0  0  0  0  0  0  0  0  0  0  0
    1.1923   -1.4883    0.0000 N   0  0  0  0  0  0  0  0  0  0  0  0
   -0.3441    1.1842    0.0000 N   0  0  0  0  0  0  0  0  0  0  0  0
   -0.8402    1.8404    0.0000 N   0  0  0  0  0  0  0  0  0  0  0  0
   -3.9449   -1.6004    0.0000 N   0  0  0  0  0  0  0  0  0  0  0  0
    2.9366    0.2560    0.0000 N   0  0  0  0  0  0  0  0  0  0  0  0
   -0.2001   -1.8404    0.0000 C   0  0  0  0  0  0  0  0  0  0  0  0
   -1.0002   -1.6004    0.0000 C   0  0  0  0  0  0  0  0  0  0  0  0
    0.3921   -1.2323    0.0000 C   0  0  0  0  0  0  0  0  0  0  0  0
   -0.6322   -0.2401    0.0000 C   0  0  0  0  0  0  0  0  0  0  0  0
   -0.8402    0.5601    0.0000 C   0  0  0  0  0  0  0  0  0  0  0  0
   -1.6244    0.8002    0.0000 C   0  0  0  0  0  0  0  0  0  0  0  0
   -1.6084    1.6324    0.0000 C   0  0  0  0  0  0  0  0  0  0  0  0
    0.8082   -2.8326    0.0000 C   0  0  0  0  0  0  0  0  0  0  0  0
   -0.5521   -3.2007    0.0000 C   0  0  0  0  0  0  0  0  0  0  0  0
   -2.3605   -1.9684    0.0000 C   0  0  0  0  0  0  0  0  0  0  0  0
    1.7524   -0.8802    0.0000 C   0  0  0  0  0  0  0  0  0  0  0  0
   -2.3125    0.4001    0.0000 C   0  0  0  0  0  0  0  0  0  0  0  0
   -2.3446    2.0165    0.0000 C   0  0  0  0  0  0  0  0  0  0  0  0
    0.1680    2.8807    0.0000 C   0  0  0  0  0  0  0  0  0  0  0  0
    1.0322   -3.6328    0.0000 C   0  0  0  0  0  0  0  0  0  0  0  0
   -0.3441   -3.9849    0.0000 C   0  0  0  0  0  0  0  0  0  0  0  0
   -0.6001    2.6726    0.0000 C   0  0  0  0  0  0  0  0  0  0  0  0
   -3.0327    0.8002    0.0000 C   0  0  0  0  0  0  0  0  0  0  0  0
    0.4081    3.6649    0.0000 C   0  0  0  0  0  0  0  0  0  0  0  0
    0.7921    2.3046    0.0000 C   0  0  0  0  0  0  0  0  0  0  0  0
   -3.0327    1.6163    0.0000 C   0  0  0  0  0  0  0  0  0  0  0  0
   -2.5686   -1.2323    0.0000 C   0  0  0  0  0  0  0  0  0  0  0  0
   -2.9207   -2.5766    0.0000 C   0  0  0  0  0  0  0  0  0  0  0  0
    1.5923   -0.0640    0.0000 C   0  0  0  0  0  0  0  0  0  0  0  0
    2.5846   -1.1043    0.0000 C   0  0  0  0  0  0  0  0  0  0  0  0
    1.7684    3.3287    0.0000 C   0  0  0  0  0  0  0  0  0  0  0  0
    1.2083    3.8729    0.0000 C   0  0  0  0  0  0  0  0  0  0  0  0
    1.5604    2.5286    0.0000 C   0  0  0  0  0  0  0  0  0  0  0  0
   -3.3528   -1.0082    0.0000 C   0  0  0  0  0  0  0  0  0  0  0  0
   -3.7208   -2.3686    0.0000 C   0  0  0  0  0  0  0  0  0  0  0  0
    2.1525    0.4801    0.0000 C   0  0  0  0  0  0  0  0  0  0  0  0
    3.1607   -0.5121    0.0000 C   0  0  0  0  0  0  0  0  0  0  0  0
    3.1767    2.9447    0.0000 C   0  0  0  0  0  0  0  0  0  0  0  0
    3.9449    3.1207    0.0000 C   0  0  0  0  0  0  0  0  0  0  0  0
  1 32  1  0  0  0  0
  2 33  1  0  0  0  0
  3 28  1  0  0  0  0
  3 29  1  0  0  0  0
  4 39  1  0  0  0  0
  4 46  1  0  0  0  0
  5 14  1  0  0  0  0
  5 21  1  0  0  0  0
  5 22  1  0  0  0  0
  6 15  2  0  0  0  0
  6 17  1  0  0  0  0
  7 16  1  0  0  0  0
  7 17  2  0  0  0  0
  8 15  1  0  0  0  0
  8 23  1  0  0  0  0
  9 16  1  0  0  0  0
  9 24  1  0  0  0  0
 10 18  2  3  0  0  0
 11 20  1  0  0  0  0
 11 30  1  0  0  0  0
 12 42  2  0  0  0  0
 12 43  1  0  0  0  0
 13 44  2  0  0  0  0
 13 45  1  0  0  0  0
 14 15  1  0  0  0  0
 14 16  2  0  0  0  0
 17 18  1  0  0  0  0
 18 19  1  0  0  0  0
 19 20  2  0  0  0  0
 19 25  1  0  0  0  0
 20 26  1  0  0  0  0
 21 28  1  0  0  0  0
 22 29  1  0  0  0  0
 23 35  2  0  0  0  0
 23 36  1  0  0  0  0
 24 37  2  0  0  0  0
 24 38  1  0  0  0  0
 25 31  2  0  0  0  0
 26 34  2  0  0  0  0
 27 30  1  0  0  0  0
 27 32  2  0  0  0  0
 27 33  1  0  0  0  0
 31 34  1  0  0  0  0
 32 40  1  0  0  0  0
 33 41  2  0  0  0  0
 35 42  1  0  0  0  0
 36 43  2  0  0  0  0
 37 44  1  0  0  0  0
 38 45  2  0  0  0  0
 39 40  2  0  0  0  0
 39 41  1  0  0  0  0
 46 47  1  0  0  0  0
M  END
> <PUBCHEM_COMPOUND_ID_TYPE>
0

> <PUBCHEM_TOTAL_CHARGE>
0

> <PUBCHEM_SUBSTANCE_ID>
310946773

> <PUBCHEM_SUBSTANCE_VERSION>
1

> <PUBCHEM_EXT_DATASOURCE_NAME>
4488

> <PUBCHEM_EXT_DATASOURCE_REGID>
SCHEMBL16124897

> <PUBCHEM_SUBSTANCE_COMMENT>
InChI=1S/C34H33F2N9O2/c1-2-47-24-19-27(35)26(28(36)20-24)21-40-29-6-4-3-5-25(29)30(37)32-43-33(41-22-7-11-38-12-8-22)31(45-15-17-46-18-16-45)34(44-32)42-23-9-13-39-14-10-23/h3-14,19-20,37,40H,2,15-18,21H2,1H3,(H2,38,39,41,42,43,44)
InChIKey=XNAUERTUCGKEAM-UHFFFAOYSA-N

> <PUBCHEM_SUBSTANCE_SYNONYM>
SCHEMBL16124897

> <PUBCHEM_XREF_EXT_ID>
SCHEMBL16124897

> <PUBCHEM_EXT_DATASOURCE_URL>
https://www.surechembl.org/

> <PUBCHEM_EXT_SUBSTANCE_URL>
https://www.surechembl.org/chemical/SCHEMBL16124897

> <PUBCHEM_CID_ASSOCIATIONS>
117612639  1

> <PUBCHEM_COORDINATE_TYPE>
1
3

$$$$
