310943455
  -OEChem-07211613022D

 24 26  0     0  0  0  0  0  0999 V2000
   -1.7861   -0.8170    0.0000 O   0  0  0  0  0  0  0  0  0  0  0  0
   -3.2302    1.6721    0.0000 O   0  0  0  0  0  0  0  0  0  0  0  0
   -1.7861    0.8361    0.0000 N   0  0  0  0  0  0  0  0  0  0  0  0
    0.3610   -0.3801    0.0000 N   0  0  0  0  0  0  0  0  0  0  0  0
   -0.3610   -0.7981    0.0000 N   0  0  0  0  0  0  0  0  0  0  0  0
    3.2302    0.4371    0.0000 N   0  0  0  0  0  0  0  0  0  0  0  0
   -1.0641    0.4371    0.0000 C   0  0  0  0  0  0  0  0  0  0  0  0
    0.3610    0.4371    0.0000 C   0  0  0  0  0  0  0  0  0  0  0  0
   -1.1021   -0.3990    0.0000 C   0  0  0  0  0  0  0  0  0  0  0  0
    1.0641    0.8361    0.0000 C   0  0  0  0  0  0  0  0  0  0  0  0
   -0.3610    0.8361    0.0000 C   0  0  0  0  0  0  0  0  0  0  0  0
    1.0831    1.6721    0.0000 C   0  0  0  0  0  0  0  0  0  0  0  0
    1.8051    0.4371    0.0000 C   0  0  0  0  0  0  0  0  0  0  0  0
   -1.8051    1.6721    0.0000 C   0  0  0  0  0  0  0  0  0  0  0  0
   -2.4892    0.4371    0.0000 C   0  0  0  0  0  0  0  0  0  0  0  0
    2.4892    0.8551    0.0000 C   0  0  0  0  0  0  0  0  0  0  0  0
    1.8051    2.0712    0.0000 C   0  0  0  0  0  0  0  0  0  0  0  0
    2.5082    1.6532    0.0000 C   0  0  0  0  0  0  0  0  0  0  0  0
   -1.8051   -1.6341    0.0000 C   0  0  0  0  0  0  0  0  0  0  0  0
   -2.5082    2.0712    0.0000 C   0  0  0  0  0  0  0  0  0  0  0  0
   -3.2302    0.8361    0.0000 C   0  0  0  0  0  0  0  0  0  0  0  0
    0.3420    2.0712    0.0000 C   0  0  0  0  0  0  0  0  0  0  0  0
   -2.5082   -2.0712    0.0000 C   0  0  0  0  0  0  0  0  0  0  0  0
   -1.0641   -2.0522    0.0000 C   0  0  0  0  0  0  0  0  0  0  0  0
  1  9  1  0  0  0  0
  1 19  1  0  0  0  0
  2 20  1  0  0  0  0
  2 21  1  0  0  0  0
  3  7  1  0  0  0  0
  3 14  1  0  0  0  0
  3 15  1  0  0  0  0
  4  5  1  0  0  0  0
  4  8  2  0  0  0  0
  5  9  2  0  0  0  0
  6 16  1  0  0  0  0
  7  9  1  0  0  0  0
  7 11  2  0  0  0  0
  8 10  1  0  0  0  0
  8 11  1  0  0  0  0
 10 12  2  0  0  0  0
 10 13  1  0  0  0  0
 12 17  1  0  0  0  0
 12 22  1  0  0  0  0
 13 16  2  0  0  0  0
 14 20  1  0  0  0  0
 15 21  1  0  0  0  0
 16 18  1  0  0  0  0
 17 18  2  0  0  0  0
 19 23  1  0  0  0  0
 19 24  1  0  0  0  0
M  END
> <PUBCHEM_COMPOUND_ID_TYPE>
0

> <PUBCHEM_TOTAL_CHARGE>
0

> <PUBCHEM_SUBSTANCE_ID>
310943455

> <PUBCHEM_SUBSTANCE_VERSION>
1

> <PUBCHEM_EXT_DATASOURCE_NAME>
4488

> <PUBCHEM_EXT_DATASOURCE_REGID>
SCHEMBL16121519

> <PUBCHEM_SUBSTANCE_COMMENT>
InChI=1S/C18H24N4O2/c1-12(2)24-18-17(22-6-8-23-9-7-22)11-16(20-21-18)15-10-14(19)5-4-13(15)3/h4-5,10-12H,6-9,19H2,1-3H3
InChIKey=LLGZPAKCYXPUJL-UHFFFAOYSA-N

> <PUBCHEM_SUBSTANCE_SYNONYM>
SCHEMBL16121519

> <PUBCHEM_XREF_EXT_ID>
SCHEMBL16121519

> <PUBCHEM_EXT_DATASOURCE_URL>
https://www.surechembl.org/

> <PUBCHEM_EXT_SUBSTANCE_URL>
https://www.surechembl.org/chemical/SCHEMBL16121519

> <PUBCHEM_CID_ASSOCIATIONS>
117609879  1

> <PUBCHEM_COORDINATE_TYPE>
1
3

$$$$
