310932402
  -OEChem-07211613022D

 32 35  0     0  0  0  0  0  0999 V2000
    6.2464   -2.0710    0.0000 O   0  0  0  0  0  0  0  0  0  0  0  0
    2.1378   -3.7745    0.0000 O   0  0  0  0  0  0  0  0  0  0  0  0
    0.5010    0.0000    0.0000 O   0  0  0  0  0  0  0  0  0  0  0  0
    5.8790   -3.4739    0.0000 N   0  0  0  0  0  0  0  0  0  0  0  0
    6.2798   -4.2088    0.0000 N   0  0  0  0  0  0  0  0  0  0  0  0
    4.5762   -4.0418    0.0000 N   0  0  0  0  0  0  0  0  0  0  0  0
    2.2714   -2.3716    0.0000 N   0  0  0  0  0  0  0  0  0  0  0  0
   10.0210   -0.7349    0.0000 N   0  0  0  0  0  0  0  0  0  0  0  0
    7.1817   -3.2067    0.0000 C   0  0  0  0  0  0  0  0  0  0  0  0
    6.4134   -2.8727    0.0000 C   0  0  0  0  0  0  0  0  0  0  0  0
    7.8831   -2.7725    0.0000 C   0  0  0  0  0  0  0  0  0  0  0  0
    5.0439   -3.3737    0.0000 C   0  0  0  0  0  0  0  0  0  0  0  0
    7.0815   -4.0084    0.0000 C   0  0  0  0  0  0  0  0  0  0  0  0
    7.8831   -1.9708    0.0000 C   0  0  0  0  0  0  0  0  0  0  0  0
    3.4405   -3.2067    0.0000 C   0  0  0  0  0  0  0  0  0  0  0  0
    4.7433   -2.6389    0.0000 C   0  0  0  0  0  0  0  0  0  0  0  0
    8.6181   -3.2067    0.0000 C   0  0  0  0  0  0  0  0  0  0  0  0
    2.6054   -3.1065    0.0000 C   0  0  0  0  0  0  0  0  0  0  0  0
    3.7745   -3.9750    0.0000 C   0  0  0  0  0  0  0  0  0  0  0  0
    3.9082   -2.5720    0.0000 C   0  0  0  0  0  0  0  0  0  0  0  0
    8.6181   -1.5366    0.0000 C   0  0  0  0  0  0  0  0  0  0  0  0
    9.3195   -1.9708    0.0000 C   0  0  0  0  0  0  0  0  0  0  0  0
    9.3195   -2.7725    0.0000 C   0  0  0  0  0  0  0  0  0  0  0  0
    7.1817   -1.5366    0.0000 C   0  0  0  0  0  0  0  0  0  0  0  0
    1.4697   -2.2714    0.0000 C   0  0  0  0  0  0  0  0  0  0  0  0
    2.8059   -1.7035    0.0000 C   0  0  0  0  0  0  0  0  0  0  0  0
    1.6368   -0.8685    0.0000 C   0  0  0  0  0  0  0  0  0  0  0  0
   10.0210   -1.5366    0.0000 C   0  0  0  0  0  0  0  0  0  0  0  0
    1.1357   -1.5366    0.0000 C   0  0  0  0  0  0  0  0  0  0  0  0
    2.4719   -0.9687    0.0000 C   0  0  0  0  0  0  0  0  0  0  0  0
    1.3027   -0.1002    0.0000 C   0  0  0  0  0  0  0  0  0  0  0  0
    0.0000   -0.6681    0.0000 C   0  0  0  0  0  0  0  0  0  0  0  0
  1 10  1  0  0  0  0
  2 18  2  0  0  0  0
  3 31  1  0  0  0  0
  3 32  1  0  0  0  0
  4  5  1  0  0  0  0
  4 10  1  0  0  0  0
  4 12  1  0  0  0  0
  5 13  2  0  0  0  0
  6 12  1  0  0  0  0
  6 19  2  0  0  0  0
  7 18  1  0  0  0  0
  7 25  1  0  0  0  0
  7 26  1  0  0  0  0
  8 28  3  0  0  0  0
  9 10  2  0  0  0  0
  9 11  1  0  0  0  0
  9 13  1  0  0  0  0
 11 14  2  0  0  0  0
 11 17  1  0  0  0  0
 12 16  2  0  0  0  0
 14 21  1  0  0  0  0
 14 24  1  0  0  0  0
 15 18  1  0  0  0  0
 15 19  1  0  0  0  0
 15 20  2  0  0  0  0
 16 20  1  0  0  0  0
 17 23  2  0  0  0  0
 21 22  2  0  0  0  0
 22 23  1  0  0  0  0
 22 28  1  0  0  0  0
 25 29  1  0  0  0  0
 26 30  1  0  0  0  0
 27 29  1  0  0  0  0
 27 30  1  0  0  0  0
 27 31  1  0  0  0  0
M  END
> <PUBCHEM_COMPOUND_ID_TYPE>
0

> <PUBCHEM_TOTAL_CHARGE>
0

> <PUBCHEM_SUBSTANCE_ID>
310932402

> <PUBCHEM_SUBSTANCE_VERSION>
1

> <PUBCHEM_EXT_DATASOURCE_NAME>
4488

> <PUBCHEM_EXT_DATASOURCE_REGID>
SCHEMBL16109770

> <PUBCHEM_SUBSTANCE_COMMENT>
InChI=1S/C24H25N5O3/c1-16-11-18(12-25)3-5-20(16)21-14-27-29(24(21)31)22-6-4-19(13-26-22)23(30)28-9-7-17(8-10-28)15-32-2/h3-6,11,13-14,17,31H,7-10,15H2,1-2H3
InChIKey=SRZSLNJNIHQSDO-UHFFFAOYSA-N

> <PUBCHEM_SUBSTANCE_SYNONYM>
SCHEMBL16109770

> <PUBCHEM_XREF_EXT_ID>
SCHEMBL16109770

> <PUBCHEM_EXT_DATASOURCE_URL>
https://www.surechembl.org/

> <PUBCHEM_EXT_SUBSTANCE_URL>
https://www.surechembl.org/chemical/SCHEMBL16109770

> <PUBCHEM_CID_ASSOCIATIONS>
117600956  1

> <PUBCHEM_COORDINATE_TYPE>
1
3

$$$$
