310940736
  -OEChem-07211613022D

 35 39  0     1  0  0  0  0  0999 V2000
    1.4451    3.2145    0.0000 Br  0  0  0  0  0  0  0  0  0  0  0  0
   -1.1648   -0.2359    0.0000 O   0  0  0  0  0  0  0  0  0  0  0  0
    3.5241   -3.2145    0.0000 O   0  0  0  0  0  0  0  0  0  0  0  0
    2.2856   -2.4919    0.0000 O   0  0  0  0  0  0  0  0  0  0  0  0
    1.7842   -0.3834    0.0000 N   0  0  0  0  0  0  0  0  0  0  0  0
    1.7842   -1.7252    0.0000 N   0  0  0  0  0  0  0  0  0  0  0  0
   -3.3177   -0.6341    0.0000 N   0  0  0  0  0  0  0  0  0  0  0  0
    2.2708   -1.0321    0.0000 C   0  0  0  0  0  0  0  0  0  0  0  0
    1.0026   -0.6341    0.0000 C   0  0  0  0  0  0  0  0  0  0  0  0
    0.9879   -1.4451    0.0000 C   0  0  0  0  0  0  0  0  0  0  0  0
    3.1259   -1.0616    0.0000 C   0  0  3  0  0  0  0  0  0  0  0  0
    0.2802   -0.2359    0.0000 C   0  0  0  0  0  0  0  0  0  0  0  0
    3.5389   -1.7399    0.0000 C   0  0  3  0  0  0  0  0  0  0  0  0
    2.0496    0.4129    0.0000 C   0  0  0  0  0  0  0  0  0  0  0  0
    0.2949   -1.8726    0.0000 C   0  0  0  0  0  0  0  0  0  0  0  0
   -0.4424   -0.6341    0.0000 C   0  0  0  0  0  0  0  0  0  0  0  0
    3.5389   -0.3391    0.0000 C   0  0  0  0  0  0  0  0  0  0  0  0
   -0.4276   -1.4598    0.0000 C   0  0  0  0  0  0  0  0  0  0  0  0
    1.4745    1.0321    0.0000 C   0  0  0  0  0  0  0  0  0  0  0  0
    3.0965   -2.4771    0.0000 C   0  0  0  0  0  0  0  0  0  0  0  0
    4.3498   -1.7547    0.0000 C   0  0  0  0  0  0  0  0  0  0  0  0
    4.3498   -0.3391    0.0000 C   0  0  0  0  0  0  0  0  0  0  0  0
    4.7627   -1.0469    0.0000 C   0  0  0  0  0  0  0  0  0  0  0  0
    1.7399    1.8285    0.0000 C   0  0  0  0  0  0  0  0  0  0  0  0
    0.6783    0.8552    0.0000 C   0  0  0  0  0  0  0  0  0  0  0  0
    1.1796    2.4329    0.0000 C   0  0  0  0  0  0  0  0  0  0  0  0
   -1.8579   -0.6341    0.0000 C   0  0  0  0  0  0  0  0  0  0  0  0
    0.1327    1.4745    0.0000 C   0  0  0  0  0  0  0  0  0  0  0  0
   -2.6099   -0.2212    0.0000 C   0  0  0  0  0  0  0  0  0  0  0  0
    0.3834    2.2560    0.0000 C   0  0  0  0  0  0  0  0  0  0  0  0
   -2.5951    0.6193    0.0000 C   0  0  0  0  0  0  0  0  0  0  0  0
   -4.0254    0.6193    0.0000 C   0  0  0  0  0  0  0  0  0  0  0  0
   -4.0254   -0.2212    0.0000 C   0  0  0  0  0  0  0  0  0  0  0  0
   -3.3471    1.0174    0.0000 C   0  0  0  0  0  0  0  0  0  0  0  0
   -4.7627    1.0026    0.0000 C   0  0  0  0  0  0  0  0  0  0  0  0
  1 26  1  0  0  0  0
  2 16  1  0  0  0  0
  2 27  1  0  0  0  0
  3 20  2  0  0  0  0
  4 20  1  0  0  0  0
  5  8  1  0  0  0  0
  5  9  1  0  0  0  0
  5 14  1  0  0  0  0
  6  8  2  0  0  0  0
  6 10  1  0  0  0  0
  7 29  1  0  0  0  0
  7 33  2  0  0  0  0
 11  8  1  6  0  0  0
  9 10  1  0  0  0  0
  9 12  2  0  0  0  0
 10 15  2  0  0  0  0
 11 13  1  0  0  0  0
 11 17  1  0  0  0  0
 12 16  1  0  0  0  0
 13 20  1  1  0  0  0
 13 21  1  0  0  0  0
 14 19  1  0  0  0  0
 15 18  1  0  0  0  0
 16 18  2  0  0  0  0
 17 22  1  0  0  0  0
 19 24  2  0  0  0  0
 19 25  1  0  0  0  0
 21 23  1  0  0  0  0
 22 23  1  0  0  0  0
 24 26  1  0  0  0  0
 25 28  2  0  0  0  0
 26 30  2  0  0  0  0
 27 29  1  0  0  0  0
 28 30  1  0  0  0  0
 29 31  2  0  0  0  0
 31 34  1  0  0  0  0
 32 33  1  0  0  0  0
 32 34  2  0  0  0  0
 32 35  1  0  0  0  0
M  END
> <PUBCHEM_COMPOUND_ID_TYPE>
0

> <PUBCHEM_TOTAL_CHARGE>
0

> <PUBCHEM_SUBSTANCE_ID>
310940736

> <PUBCHEM_SUBSTANCE_VERSION>
1

> <PUBCHEM_EXT_DATASOURCE_NAME>
4488

> <PUBCHEM_EXT_DATASOURCE_REGID>
SCHEMBL16118694

> <PUBCHEM_SUBSTANCE_COMMENT>
InChI=1S/C28H28BrN3O3/c1-18-9-10-21(30-15-18)17-35-22-11-12-25-26(14-22)32(16-19-5-4-6-20(29)13-19)27(31-25)23-7-2-3-8-24(23)28(33)34/h4-6,9-15,23-24H,2-3,7-8,16-17H2,1H3,(H,33,34)/t23-,24-/m1/s1
InChIKey=XXOMUSTZCYMICH-DNQXCXABSA-N

> <PUBCHEM_SUBSTANCE_SYNONYM>
SCHEMBL16118694

> <PUBCHEM_XREF_EXT_ID>
SCHEMBL16118694

> <PUBCHEM_EXT_DATASOURCE_URL>
https://www.surechembl.org/

> <PUBCHEM_EXT_SUBSTANCE_URL>
https://www.surechembl.org/chemical/SCHEMBL16118694

> <PUBCHEM_CID_ASSOCIATIONS>
117607693  1

> <PUBCHEM_COORDINATE_TYPE>
1
3

> <PUBCHEM_BONDANNOTATIONS>
13  20  5
11  8  6

$$$$
