310942451
  -OEChem-07211613022D

 30 32  0     0  0  0  0  0  0999 V2000
    2.5192    0.8738    0.0000 S   0  0  0  0  0  0  0  0  0  0  0  0
    3.9740    1.6987    0.0000 F   0  0  0  0  0  0  0  0  0  0  0  0
    5.4199   -0.7762    0.0000 F   0  0  0  0  0  0  0  0  0  0  0  0
    2.1023    1.5923    0.0000 O   0  0  0  0  0  0  0  0  0  0  0  0
    2.9451    1.5923    0.0000 O   0  0  0  0  0  0  0  0  0  0  0  0
   -4.7103    0.8738    0.0000 O   0  0  0  0  0  0  0  0  0  0  0  0
   -0.3637   -0.7762    0.0000 N   0  0  0  0  0  0  0  0  0  0  0  0
   -1.0911    0.4657    0.0000 N   0  0  0  0  0  0  0  0  0  0  0  0
   -1.8096   -0.7762    0.0000 N   0  0  0  0  0  0  0  0  0  0  0  0
    1.0822   -0.7762    0.0000 N   0  0  0  0  0  0  0  0  0  0  0  0
    3.2644    0.4657    0.0000 C   0  0  0  0  0  0  0  0  0  0  0  0
    3.9740    0.8738    0.0000 C   0  0  0  0  0  0  0  0  0  0  0  0
    1.8096    0.4657    0.0000 C   0  0  0  0  0  0  0  0  0  0  0  0
    0.3637    0.4657    0.0000 C   0  0  0  0  0  0  0  0  0  0  0  0
    3.2644   -0.3593    0.0000 C   0  0  0  0  0  0  0  0  0  0  0  0
    0.3548   -0.3593    0.0000 C   0  0  0  0  0  0  0  0  0  0  0  0
    1.0733    0.8738    0.0000 C   0  0  0  0  0  0  0  0  0  0  0  0
    4.7014    0.4568    0.0000 C   0  0  0  0  0  0  0  0  0  0  0  0
   -1.0911   -0.3593    0.0000 C   0  0  0  0  0  0  0  0  0  0  0  0
    4.6926   -0.3593    0.0000 C   0  0  0  0  0  0  0  0  0  0  0  0
    3.9918   -0.7673    0.0000 C   0  0  0  0  0  0  0  0  0  0  0  0
   -0.3726    0.8738    0.0000 C   0  0  0  0  0  0  0  0  0  0  0  0
   -2.5370   -0.3504    0.0000 C   0  0  0  0  0  0  0  0  0  0  0  0
   -3.2644   -0.7673    0.0000 C   0  0  0  0  0  0  0  0  0  0  0  0
   -2.5370    0.4657    0.0000 C   0  0  0  0  0  0  0  0  0  0  0  0
   -3.9740    0.4657    0.0000 C   0  0  0  0  0  0  0  0  0  0  0  0
   -3.9740   -0.3593    0.0000 C   0  0  0  0  0  0  0  0  0  0  0  0
   -3.2644    0.8649    0.0000 C   0  0  0  0  0  0  0  0  0  0  0  0
    1.0822   -1.6987    0.0000 C   0  0  0  0  0  0  0  0  0  0  0  0
   -5.4199    0.4657    0.0000 C   0  0  0  0  0  0  0  0  0  0  0  0
  1  4  2  0  0  0  0
  1  5  2  0  0  0  0
  1 11  1  0  0  0  0
  1 13  1  0  0  0  0
  2 12  1  0  0  0  0
  3 20  1  0  0  0  0
  6 26  1  0  0  0  0
  6 30  1  0  0  0  0
  7 16  2  0  0  0  0
  7 19  1  0  0  0  0
  8 19  2  0  0  0  0
  8 22  1  0  0  0  0
  9 19  1  0  0  0  0
  9 23  1  0  0  0  0
 10 16  1  0  0  0  0
 10 29  1  0  0  0  0
 11 12  1  0  0  0  0
 11 15  2  0  0  0  0
 12 18  2  0  0  0  0
 13 17  2  0  0  0  0
 14 16  1  0  0  0  0
 14 17  1  0  0  0  0
 14 22  2  0  0  0  0
 15 21  1  0  0  0  0
 18 20  1  0  0  0  0
 20 21  2  0  0  0  0
 23 24  2  0  0  0  0
 23 25  1  0  0  0  0
 24 27  1  0  0  0  0
 25 28  2  0  0  0  0
 26 27  2  0  0  0  0
 26 28  1  0  0  0  0
M  END
> <PUBCHEM_COMPOUND_ID_TYPE>
0

> <PUBCHEM_TOTAL_CHARGE>
0

> <PUBCHEM_SUBSTANCE_ID>
310942451

> <PUBCHEM_SUBSTANCE_VERSION>
1

> <PUBCHEM_EXT_DATASOURCE_NAME>
4488

> <PUBCHEM_EXT_DATASOURCE_REGID>
SCHEMBL16120487

> <PUBCHEM_SUBSTANCE_COMMENT>
InChI=1S/C20H18F2N4O3S/c1-23-19-13(9-10-30(27,28)18-8-3-14(21)11-17(18)22)12-24-20(26-19)25-15-4-6-16(29-2)7-5-15/h3-12H,1-2H3,(H2,23,24,25,26)/b10-9+
InChIKey=QJERVKXSQJDCFM-MDZDMXLPSA-N

> <PUBCHEM_SUBSTANCE_SYNONYM>
SCHEMBL16120487

> <PUBCHEM_XREF_EXT_ID>
SCHEMBL16120487

> <PUBCHEM_EXT_DATASOURCE_URL>
https://www.surechembl.org/

> <PUBCHEM_EXT_SUBSTANCE_URL>
https://www.surechembl.org/chemical/SCHEMBL16120487

> <PUBCHEM_CID_ASSOCIATIONS>
117609039  1

> <PUBCHEM_COORDINATE_TYPE>
1
3

$$$$
