310941530
  -OEChem-07211613022D

 23 24  0     0  0  0  0  0  0999 V2000
    0.7163    0.2055    0.0000 S   0  0  0  0  0  0  0  0  0  0  0  0
    1.1148    0.9279    0.0000 O   0  0  0  0  0  0  0  0  0  0  0  0
    0.2927   -0.5044    0.0000 O   0  0  0  0  0  0  0  0  0  0  0  0
   -3.6060    0.2055    0.0000 O   0  0  0  0  0  0  0  0  0  0  0  0
   -2.8959    1.4511    0.0000 O   0  0  0  0  0  0  0  0  0  0  0  0
   -0.0062    0.6290    0.0000 N   0  0  0  0  0  0  0  0  0  0  0  0
    1.4386   -0.2055    0.0000 C   0  0  0  0  0  0  0  0  0  0  0  0
   -0.7163    0.2180    0.0000 C   0  0  0  0  0  0  0  0  0  0  0  0
   -2.1611    0.2055    0.0000 C   0  0  0  0  0  0  0  0  0  0  0  0
   -1.4386    0.6165    0.0000 C   0  0  0  0  0  0  0  0  0  0  0  0
    2.1611    0.2055    0.0000 C   0  0  0  0  0  0  0  0  0  0  0  0
    1.4511   -1.0276    0.0000 C   0  0  0  0  0  0  0  0  0  0  0  0
   -0.7163   -0.6165    0.0000 C   0  0  0  0  0  0  0  0  0  0  0  0
    2.8586   -1.0276    0.0000 C   0  0  0  0  0  0  0  0  0  0  0  0
   -2.8835    0.6165    0.0000 C   0  0  0  0  0  0  0  0  0  0  0  0
    2.8710   -0.2055    0.0000 C   0  0  0  0  0  0  0  0  0  0  0  0
    2.1487   -1.4386    0.0000 C   0  0  0  0  0  0  0  0  0  0  0  0
   -2.1487   -0.6165    0.0000 C   0  0  0  0  0  0  0  0  0  0  0  0
   -1.4262   -1.0276    0.0000 C   0  0  0  0  0  0  0  0  0  0  0  0
    3.6060   -1.4511    0.0000 C   0  0  0  0  0  0  0  0  0  0  0  0
   -3.5935   -0.6165    0.0000 C   0  0  0  0  0  0  0  0  0  0  0  0
    4.3159   -1.0400    0.0000 C   0  0  0  0  0  0  0  0  0  0  0  0
   -4.3159   -1.0400    0.0000 C   0  0  0  0  0  0  0  0  0  0  0  0
  1  2  2  0  0  0  0
  1  3  2  0  0  0  0
  1  6  1  0  0  0  0
  1  7  1  0  0  0  0
  4 15  1  0  0  0  0
  4 21  1  0  0  0  0
  5 15  2  0  0  0  0
  6  8  1  0  0  0  0
  7 11  2  0  0  0  0
  7 12  1  0  0  0  0
  8 10  2  0  0  0  0
  8 13  1  0  0  0  0
  9 10  1  0  0  0  0
  9 15  1  0  0  0  0
  9 18  2  0  0  0  0
 11 16  1  0  0  0  0
 12 17  2  0  0  0  0
 13 19  2  0  0  0  0
 14 16  2  0  0  0  0
 14 17  1  0  0  0  0
 14 20  1  0  0  0  0
 18 19  1  0  0  0  0
 20 22  1  0  0  0  0
 21 23  1  0  0  0  0
M  END
> <PUBCHEM_COMPOUND_ID_TYPE>
0

> <PUBCHEM_TOTAL_CHARGE>
0

> <PUBCHEM_SUBSTANCE_ID>
310941530

> <PUBCHEM_SUBSTANCE_VERSION>
1

> <PUBCHEM_EXT_DATASOURCE_NAME>
4488

> <PUBCHEM_EXT_DATASOURCE_REGID>
SCHEMBL16119561

> <PUBCHEM_SUBSTANCE_COMMENT>
InChI=1S/C17H19NO4S/c1-3-13-8-10-16(11-9-13)23(20,21)18-15-7-5-6-14(12-15)17(19)22-4-2/h5-12,18H,3-4H2,1-2H3
InChIKey=QASBOMRRVZNIEZ-UHFFFAOYSA-N

> <PUBCHEM_SUBSTANCE_SYNONYM>
SCHEMBL16119561

> <PUBCHEM_XREF_EXT_ID>
SCHEMBL16119561

> <PUBCHEM_EXT_DATASOURCE_URL>
https://www.surechembl.org/

> <PUBCHEM_EXT_SUBSTANCE_URL>
https://www.surechembl.org/chemical/SCHEMBL16119561

> <PUBCHEM_CID_ASSOCIATIONS>
894820  1

> <PUBCHEM_COORDINATE_TYPE>
1
3

$$$$
