310933180
  -OEChem-07211613022D

 29 33  0     0  0  0  0  0  0999 V2000
    0.4178   -0.3900    0.0000 O   0  0  0  0  0  0  0  0  0  0  0  0
    5.5717   -2.2287    0.0000 O   0  0  0  0  0  0  0  0  0  0  0  0
    4.2623   -2.8973    0.0000 N   0  0  0  0  0  0  0  0  0  0  0  0
    4.2623   -1.5601    0.0000 N   0  0  0  0  0  0  0  0  0  0  0  0
    1.9780   -5.1260    0.0000 N   0  0  0  0  0  0  0  0  0  0  0  0
    2.7023   -5.5717    0.0000 N   0  0  0  0  0  0  0  0  0  0  0  0
    0.0000   -1.1143    0.0000 N   0  0  0  0  0  0  0  0  0  0  0  0
    3.4544   -2.6744    0.0000 C   0  0  0  0  0  0  0  0  0  0  0  0
    2.7301   -3.0645    0.0000 C   0  0  0  0  0  0  0  0  0  0  0  0
    3.4544   -1.8108    0.0000 C   0  0  0  0  0  0  0  0  0  0  0  0
    2.7301   -3.9002    0.0000 C   0  0  0  0  0  0  0  0  0  0  0  0
    2.0336   -1.8108    0.0000 C   0  0  0  0  0  0  0  0  0  0  0  0
    2.0336   -2.6744    0.0000 C   0  0  0  0  0  0  0  0  0  0  0  0
    3.4266   -4.3181    0.0000 C   0  0  0  0  0  0  0  0  0  0  0  0
    2.7301   -1.4208    0.0000 C   0  0  0  0  0  0  0  0  0  0  0  0
    1.3093   -1.3929    0.0000 C   0  0  0  0  0  0  0  0  0  0  0  0
    4.7359   -2.2287    0.0000 C   0  0  0  0  0  0  0  0  0  0  0  0
    1.9780   -4.3181    0.0000 C   0  0  0  0  0  0  0  0  0  0  0  0
    3.4266   -5.1538    0.0000 C   0  0  0  0  0  0  0  0  0  0  0  0
    1.2257   -0.5572    0.0000 C   0  0  0  0  0  0  0  0  0  0  0  0
    0.5572   -1.7272    0.0000 C   0  0  0  0  0  0  0  0  0  0  0  0
    4.1509   -3.9280    0.0000 C   0  0  0  0  0  0  0  0  0  0  0  0
    4.5131   -3.6773    0.0000 C   0  0  0  0  0  0  0  0  0  0  0  0
    4.1231   -5.5717    0.0000 C   0  0  0  0  0  0  0  0  0  0  0  0
    1.2815   -3.8723    0.0000 C   0  0  0  0  0  0  0  0  0  0  0  0
    4.8474   -4.3459    0.0000 C   0  0  0  0  0  0  0  0  0  0  0  0
    4.8474   -5.1817    0.0000 C   0  0  0  0  0  0  0  0  0  0  0  0
    1.8386    0.0000    0.0000 C   0  0  0  0  0  0  0  0  0  0  0  0
    0.3900   -2.5351    0.0000 C   0  0  0  0  0  0  0  0  0  0  0  0
  1  7  1  0  0  0  0
  1 20  1  0  0  0  0
  2 17  2  0  0  0  0
  3  8  1  0  0  0  0
  3 17  1  0  0  0  0
  3 23  1  0  0  0  0
  4 10  1  0  0  0  0
  4 17  1  0  0  0  0
  5  6  2  0  0  0  0
  5 18  1  0  0  0  0
  6 19  1  0  0  0  0
  7 21  2  0  0  0  0
  8  9  1  0  0  0  0
  8 10  2  0  0  0  0
  9 11  1  0  0  0  0
  9 13  2  0  0  0  0
 10 15  1  0  0  0  0
 11 14  1  0  0  0  0
 11 18  2  0  0  0  0
 12 13  1  0  0  0  0
 12 15  2  0  0  0  0
 12 16  1  0  0  0  0
 14 19  2  0  0  0  0
 14 22  1  0  0  0  0
 16 20  2  0  0  0  0
 16 21  1  0  0  0  0
 18 25  1  0  0  0  0
 19 24  1  0  0  0  0
 20 28  1  0  0  0  0
 21 29  1  0  0  0  0
 22 26  2  0  0  0  0
 24 27  2  0  0  0  0
 26 27  1  0  0  0  0
M  END
> <PUBCHEM_COMPOUND_ID_TYPE>
0

> <PUBCHEM_TOTAL_CHARGE>
0

> <PUBCHEM_SUBSTANCE_ID>
310933180

> <PUBCHEM_SUBSTANCE_VERSION>
1

> <PUBCHEM_EXT_DATASOURCE_NAME>
4488

> <PUBCHEM_EXT_DATASOURCE_REGID>
SCHEMBL16110589

> <PUBCHEM_SUBSTANCE_COMMENT>
InChI=1S/C22H19N5O2/c1-11-20(15-7-5-6-8-17(15)25-24-11)16-9-14(19-12(2)26-29-13(19)3)10-18-21(16)27(4)22(28)23-18/h5-10H,1-4H3,(H,23,28)
InChIKey=UOCDQFWRCSMQHF-UHFFFAOYSA-N

> <PUBCHEM_SUBSTANCE_SYNONYM>
SCHEMBL16110589

> <PUBCHEM_XREF_EXT_ID>
SCHEMBL16110589

> <PUBCHEM_EXT_DATASOURCE_URL>
https://www.surechembl.org/

> <PUBCHEM_EXT_SUBSTANCE_URL>
https://www.surechembl.org/chemical/SCHEMBL16110589

> <PUBCHEM_CID_ASSOCIATIONS>
117601626  1

> <PUBCHEM_COORDINATE_TYPE>
1
3

$$$$
