310938875
  -OEChem-07211613022D

 38 42  0     1  0  0  0  0  0999 V2000
   -0.3572   13.7050    0.0000 O   0  0  0  0  0  0  0  0  0  0  0  0
   -3.2151   15.3550    0.0000 O   0  0  0  0  0  0  0  0  0  0  0  0
    0.3572   12.4675    0.0000 N   0  0  0  0  0  0  0  0  0  0  0  0
    1.0717   10.4050    0.0000 N   0  0  0  0  0  0  0  0  0  0  0  0
   -1.0717   14.9425    0.0000 N   0  0  0  0  0  0  0  0  0  0  0  0
    1.7862    9.1675    0.0000 N   0  0  0  0  0  0  0  0  0  0  0  0
    1.0717    7.9300    0.0000 N   0  0  0  0  0  0  0  0  0  0  0  0
   -1.0717    9.9925    0.0000 N   0  0  0  0  0  0  0  0  0  0  0  0
   -1.0717   12.4675    0.0000 C   0  0  0  0  0  0  0  0  0  0  0  0
   -0.3572   12.8800    0.0000 C   0  0  0  0  0  0  0  0  0  0  0  0
    0.3572   11.6425    0.0000 C   0  0  0  0  0  0  0  0  0  0  0  0
   -1.0717   11.6425    0.0000 C   0  0  0  0  0  0  0  0  0  0  0  0
   -1.7862   12.8800    0.0000 C   0  0  0  0  0  0  0  0  0  0  0  0
   -0.3572   11.2300    0.0000 C   0  0  0  0  0  0  0  0  0  0  0  0
    1.0717   12.8800    0.0000 C   0  0  0  0  0  0  0  0  0  0  0  0
    1.0717   11.2300    0.0000 C   0  0  3  0  0  0  0  0  0  0  0  0
   -1.7862   13.7050    0.0000 C   0  0  0  0  0  0  0  0  0  0  0  0
   -1.7862   11.2300    0.0000 C   0  0  0  0  0  0  0  0  0  0  0  0
   -2.5006   12.4675    0.0000 C   0  0  0  0  0  0  0  0  0  0  0  0
   -2.5006   11.6425    0.0000 C   0  0  0  0  0  0  0  0  0  0  0  0
    1.7862   12.4675    0.0000 C   0  0  0  0  0  0  0  0  0  0  0  0
    1.0717   13.7050    0.0000 C   0  0  0  0  0  0  0  0  0  0  0  0
   -2.5006   14.1175    0.0000 C   0  0  0  0  0  0  0  0  0  0  0  0
    1.0717    9.5800    0.0000 C   0  0  0  0  0  0  0  0  0  0  0  0
   -1.0717   14.1175    0.0000 C   0  0  0  0  0  0  0  0  0  0  0  0
   -2.5006   14.9425    0.0000 C   0  0  0  0  0  0  0  0  0  0  0  0
    1.7862   11.6425    0.0000 C   0  0  0  0  0  0  0  0  0  0  0  0
    0.3572    9.1675    0.0000 C   0  0  0  0  0  0  0  0  0  0  0  0
    2.5006   12.8800    0.0000 C   0  0  0  0  0  0  0  0  0  0  0  0
    1.7862   14.1175    0.0000 C   0  0  0  0  0  0  0  0  0  0  0  0
   -1.7862   15.3550    0.0000 C   0  0  0  0  0  0  0  0  0  0  0  0
    2.5006   13.7050    0.0000 C   0  0  0  0  0  0  0  0  0  0  0  0
    1.7862    8.3425    0.0000 C   0  0  0  0  0  0  0  0  0  0  0  0
    0.3572    8.3425    0.0000 C   0  0  0  0  0  0  0  0  0  0  0  0
   -0.3572    9.5800    0.0000 C   0  0  0  0  0  0  0  0  0  0  0  0
    2.5006    7.9300    0.0000 C   0  0  0  0  0  0  0  0  0  0  0  0
   -3.2151   16.1800    0.0000 C   0  0  0  0  0  0  0  0  0  0  0  0
   -3.9296   16.5925    0.0000 C   0  0  0  0  0  0  0  0  0  0  0  0
  1 10  2  0  0  0  0
  2 26  1  0  0  0  0
  2 37  1  0  0  0  0
  3 10  1  0  0  0  0
  3 11  1  0  0  0  0
  3 15  1  0  0  0  0
  4 16  1  0  0  0  0
  4 24  1  0  0  0  0
  5 25  1  0  0  0  0
  5 31  2  0  0  0  0
  6 24  1  0  0  0  0
  6 33  2  0  0  0  0
  7 33  1  0  0  0  0
  7 34  2  0  0  0  0
  8 35  3  0  0  0  0
  9 10  1  0  0  0  0
  9 12  1  0  0  0  0
  9 13  2  0  0  0  0
 11 14  2  0  0  0  0
 11 16  1  0  0  0  0
 12 14  1  0  0  0  0
 12 18  2  0  0  0  0
 13 17  1  0  0  0  0
 13 19  1  0  0  0  0
 15 21  2  0  0  0  0
 15 22  1  0  0  0  0
 16 27  1  6  0  0  0
 17 23  1  0  0  0  0
 17 25  2  0  0  0  0
 18 20  1  0  0  0  0
 19 20  2  0  0  0  0
 21 29  1  0  0  0  0
 22 30  2  0  0  0  0
 23 26  2  0  0  0  0
 24 28  2  0  0  0  0
 26 31  1  0  0  0  0
 28 34  1  0  0  0  0
 28 35  1  0  0  0  0
 29 32  2  0  0  0  0
 30 32  1  0  0  0  0
 33 36  1  0  0  0  0
 37 38  1  0  0  0  0
M  END
> <PUBCHEM_COMPOUND_ID_TYPE>
0

> <PUBCHEM_TOTAL_CHARGE>
0

> <PUBCHEM_SUBSTANCE_ID>
310938875

> <PUBCHEM_SUBSTANCE_VERSION>
1

> <PUBCHEM_EXT_DATASOURCE_NAME>
4488

> <PUBCHEM_EXT_DATASOURCE_REGID>
SCHEMBL16116794

> <PUBCHEM_SUBSTANCE_COMMENT>
InChI=1S/C30H26N6O2/c1-4-38-25-13-22(16-32-18-25)26-12-8-9-21-14-27(19(2)34-29-23(15-31)17-33-20(3)35-29)36(30(37)28(21)26)24-10-6-5-7-11-24/h5-14,16-19H,4H2,1-3H3,(H,33,34,35)/t19-/m0/s1
InChIKey=SGAHYLYEAMIRQD-IBGZPJMESA-N

> <PUBCHEM_SUBSTANCE_SYNONYM>
SCHEMBL16116794

> <PUBCHEM_XREF_EXT_ID>
SCHEMBL16116794

> <PUBCHEM_EXT_DATASOURCE_URL>
https://www.surechembl.org/

> <PUBCHEM_EXT_SUBSTANCE_URL>
https://www.surechembl.org/chemical/SCHEMBL16116794

> <PUBCHEM_CID_ASSOCIATIONS>
117606272  1

> <PUBCHEM_COORDINATE_TYPE>
1
3

> <PUBCHEM_BONDANNOTATIONS>
16  27  6

$$$$
