310941619
  -OEChem-07211613022D

 29 32  0     0  0  0  0  0  0999 V2000
    0.2369    1.9830    0.0000 S   0  0  0  0  0  0  0  0  0  0  0  0
   -2.0971   -0.7020    0.0000 O   0  0  0  0  0  0  0  0  0  0  0  0
   -0.6405   -0.6844    0.0000 O   0  0  0  0  0  0  0  0  0  0  0  0
   -4.2027   -1.9830    0.0000 O   0  5  0  0  0  0  0  0  0  0  0  0
   -2.8165   -1.9304    0.0000 O   0  0  0  0  0  0  0  0  0  0  0  0
    4.2554    0.2457    0.0000 O   0  0  0  0  0  0  0  0  0  0  0  0
    4.2730   -1.1582    0.0000 O   0  0  0  0  0  0  0  0  0  0  0  0
    0.1141    0.6494    0.0000 N   0  0  0  0  0  0  0  0  0  0  0  0
   -3.5184   -1.5443    0.0000 N   0  3  0  0  0  0  0  0  0  0  0  0
    1.4828    1.1757    0.0000 N   0  0  0  0  0  0  0  0  0  0  0  0
   -1.3775    0.5791    0.0000 C   0  0  0  0  0  0  0  0  0  0  0  0
   -2.8340   -0.2633    0.0000 C   0  0  0  0  0  0  0  0  0  0  0  0
   -2.8165    0.5616    0.0000 C   0  0  0  0  0  0  0  0  0  0  0  0
   -0.6756    0.9827    0.0000 C   0  0  0  0  0  0  0  0  0  0  0  0
   -1.3951   -0.2457    0.0000 C   0  0  0  0  0  0  0  0  0  0  0  0
   -2.0971    0.9651    0.0000 C   0  0  0  0  0  0  0  0  0  0  0  0
   -3.5359   -0.6844    0.0000 C   0  0  0  0  0  0  0  0  0  0  0  0
    0.6405    1.2810    0.0000 C   0  0  0  0  0  0  0  0  0  0  0  0
   -3.5535    0.9476    0.0000 C   0  0  0  0  0  0  0  0  0  0  0  0
   -0.5703    1.8074    0.0000 C   0  0  0  0  0  0  0  0  0  0  0  0
   -4.2554   -0.2808    0.0000 C   0  0  0  0  0  0  0  0  0  0  0  0
   -4.2730    0.5440    0.0000 C   0  0  0  0  0  0  0  0  0  0  0  0
    1.8163    0.4212    0.0000 C   0  0  0  0  0  0  0  0  0  0  0  0
    2.6409    0.3159    0.0000 C   0  0  0  0  0  0  0  0  0  0  0  0
    2.9920   -0.4212    0.0000 C   0  0  0  0  0  0  0  0  0  0  0  0
    1.3599   -0.2281    0.0000 C   0  0  0  0  0  0  0  0  0  0  0  0
    2.5181   -1.0880    0.0000 C   0  0  0  0  0  0  0  0  0  0  0  0
    1.6934   -1.0177    0.0000 C   0  0  0  0  0  0  0  0  0  0  0  0
    3.8342   -0.4212    0.0000 C   0  0  0  0  0  0  0  0  0  0  0  0
  1 18  1  0  0  0  0
  1 20  1  0  0  0  0
  2 12  1  0  0  0  0
  2 15  1  0  0  0  0
  3 15  2  0  0  0  0
  4  9  1  0  0  0  0
  5  9  2  0  0  0  0
  6 29  2  0  0  0  0
  7 29  1  0  0  0  0
  8 14  1  0  0  0  0
  8 18  2  0  0  0  0
  9 17  1  0  0  0  0
 10 18  1  0  0  0  0
 10 23  1  0  0  0  0
 11 14  1  0  0  0  0
 11 15  1  0  0  0  0
 11 16  2  0  0  0  0
 12 13  1  0  0  0  0
 12 17  2  0  0  0  0
 13 16  1  0  0  0  0
 13 19  2  0  0  0  0
 14 20  2  0  0  0  0
 17 21  1  0  0  0  0
 19 22  1  0  0  0  0
 21 22  2  0  0  0  0
 23 24  1  0  0  0  0
 23 26  2  0  0  0  0
 24 25  2  0  0  0  0
 25 27  1  0  0  0  0
 25 29  1  0  0  0  0
 26 28  1  0  0  0  0
 27 28  2  0  0  0  0
M  CHG  2   4  -1   9   1
M  END
> <PUBCHEM_COMPOUND_ID_TYPE>
0

> <PUBCHEM_TOTAL_CHARGE>
0

> <PUBCHEM_SUBSTANCE_ID>
310941619

> <PUBCHEM_SUBSTANCE_VERSION>
1

> <PUBCHEM_EXT_DATASOURCE_NAME>
4488

> <PUBCHEM_EXT_DATASOURCE_REGID>
SCHEMBL16119650

> <PUBCHEM_SUBSTANCE_COMMENT>
InChI=1S/C19H11N3O6S/c23-17(24)11-4-1-5-12(7-11)20-19-21-14(9-29-19)13-8-10-3-2-6-15(22(26)27)16(10)28-18(13)25/h1-9H,(H,20,21)(H,23,24)
InChIKey=VEGRQBHAMUYAHK-UHFFFAOYSA-N

> <PUBCHEM_SUBSTANCE_SYNONYM>
SCHEMBL16119650

> <PUBCHEM_XREF_EXT_ID>
SCHEMBL16119650

> <PUBCHEM_EXT_DATASOURCE_URL>
https://www.surechembl.org/

> <PUBCHEM_EXT_SUBSTANCE_URL>
https://www.surechembl.org/chemical/SCHEMBL16119650

> <PUBCHEM_CID_ASSOCIATIONS>
117608409  1

> <PUBCHEM_COORDINATE_TYPE>
1
3

$$$$
