310933418
  -OEChem-07211613022D

 20 22  0     0  0  0  0  0  0999 V2000
    0.2471   -5.8976    0.0000 F   0  0  0  0  0  0  0  0  0  0  0  0
    2.9664   -5.0184    0.0000 F   0  0  0  0  0  0  0  0  0  0  0  0
    1.3983   -2.4907    0.0000 O   0  0  0  0  0  0  0  0  0  0  0  0
    0.0386   -2.9303    0.0000 O   0  0  0  0  0  0  0  0  0  0  0  0
    1.8029    0.3168    0.0000 O   0  0  0  0  0  0  0  0  0  0  0  0
    1.1445   -1.7057    0.0000 C   0  0  0  0  0  0  0  0  0  0  0  0
    1.1407   -0.9495    0.0000 C   0  0  0  0  0  0  0  0  0  0  0  0
    0.7366   -0.2235    0.0000 C   0  0  0  0  0  0  0  0  0  0  0  0
    0.5275   -2.3166    0.0000 C   0  0  0  0  0  0  0  0  0  0  0  0
    1.9537   -1.8322    0.0000 C   0  0  0  0  0  0  0  0  0  0  0  0
    0.6709   -1.5755    0.0000 C   0  0  0  0  0  0  0  0  0  0  0  0
    2.0411   -1.1462    0.0000 C   0  0  0  0  0  0  0  0  0  0  0  0
    0.8454   -3.1030    0.0000 C   0  0  0  0  0  0  0  0  0  0  0  0
    1.1062   -0.1252    0.0000 C   0  0  0  0  0  0  0  0  0  0  0  0
    1.0992   -3.8880    0.0000 C   0  0  0  0  0  0  0  0  0  0  0  0
    1.9059   -4.0607    0.0000 C   0  0  0  0  0  0  0  0  0  0  0  0
    0.5463   -4.5003    0.0000 C   0  0  0  0  0  0  0  0  0  0  0  0
    0.8001   -5.2853    0.0000 C   0  0  0  0  0  0  0  0  0  0  0  0
    2.1597   -4.8457    0.0000 C   0  0  0  0  0  0  0  0  0  0  0  0
    1.6068   -5.4580    0.0000 C   0  0  0  0  0  0  0  0  0  0  0  0
  1 18  1  0  0  0  0
  2 19  1  0  0  0  0
  3  6  1  0  0  0  0
  3 13  1  0  0  0  0
  4 13  2  0  0  0  0
  5 14  2  0  0  0  0
  6  8  1  0  0  0  0
  6  9  1  0  0  0  0
  6 10  1  0  0  0  0
  7  8  1  0  0  0  0
  7 11  1  0  0  0  0
  7 12  1  0  0  0  0
  7 14  1  0  0  0  0
  9 11  1  0  0  0  0
 10 12  1  0  0  0  0
 13 15  1  0  0  0  0
 15 16  2  0  0  0  0
 15 17  1  0  0  0  0
 16 19  1  0  0  0  0
 17 18  2  0  0  0  0
 18 20  1  0  0  0  0
 19 20  2  0  0  0  0
M  END
> <PUBCHEM_COMPOUND_ID_TYPE>
0

> <PUBCHEM_TOTAL_CHARGE>
0

> <PUBCHEM_SUBSTANCE_ID>
310933418

> <PUBCHEM_SUBSTANCE_VERSION>
1

> <PUBCHEM_EXT_DATASOURCE_NAME>
4488

> <PUBCHEM_EXT_DATASOURCE_REGID>
SCHEMBL16110835

> <PUBCHEM_SUBSTANCE_COMMENT>
InChI=1S/C15H14F2O3/c16-11-5-10(6-12(17)7-11)13(19)20-15-3-1-14(8-15,9-18)2-4-15/h5-7,9H,1-4,8H2
InChIKey=VZTKPIDIILHZIW-UHFFFAOYSA-N

> <PUBCHEM_SUBSTANCE_SYNONYM>
SCHEMBL16110835

> <PUBCHEM_XREF_EXT_ID>
SCHEMBL16110835

> <PUBCHEM_EXT_DATASOURCE_URL>
https://www.surechembl.org/

> <PUBCHEM_EXT_SUBSTANCE_URL>
https://www.surechembl.org/chemical/SCHEMBL16110835

> <PUBCHEM_CID_ASSOCIATIONS>
117601824  1

> <PUBCHEM_COORDINATE_TYPE>
1
3

$$$$
