310946383
  -OEChem-07211613022D

 30 32  0     0  0  0  0  0  0999 V2000
    0.3572   -1.0313    0.0000 I   0  0  0  0  0  0  0  0  0  0  0  0
    1.7862    1.4438    0.0000 I   0  0  0  0  0  0  0  0  0  0  0  0
    0.3572    0.6188    0.0000 O   0  0  0  0  0  0  0  0  0  0  0  0
   -2.5008   -1.0313    0.0000 O   0  0  0  0  0  0  0  0  0  0  0  0
   -2.5008    1.4438    0.0000 O   0  0  0  0  0  0  0  0  0  0  0  0
    4.6442   -1.8563    0.0000 O   0  0  0  0  0  0  0  0  0  0  0  0
    5.3587   -0.6188    0.0000 O   0  0  0  0  0  0  0  0  0  0  0  0
   -3.2152    0.2063    0.0000 N   0  0  0  0  0  0  0  0  0  0  0  0
    1.0717    0.2063    0.0000 C   0  0  0  0  0  0  0  0  0  0  0  0
   -0.3572    0.2063    0.0000 C   0  0  0  0  0  0  0  0  0  0  0  0
   -1.7862    0.2063    0.0000 C   0  0  0  0  0  0  0  0  0  0  0  0
    1.0717   -0.6188    0.0000 C   0  0  0  0  0  0  0  0  0  0  0  0
    1.7862    0.6188    0.0000 C   0  0  0  0  0  0  0  0  0  0  0  0
   -1.0717    0.6188    0.0000 C   0  0  0  0  0  0  0  0  0  0  0  0
   -1.7862   -0.6188    0.0000 C   0  0  0  0  0  0  0  0  0  0  0  0
    2.5008   -0.6188    0.0000 C   0  0  0  0  0  0  0  0  0  0  0  0
   -2.5008    0.6188    0.0000 C   0  0  0  0  0  0  0  0  0  0  0  0
    1.7862   -1.0313    0.0000 C   0  0  0  0  0  0  0  0  0  0  0  0
    2.5008    0.2063    0.0000 C   0  0  0  0  0  0  0  0  0  0  0  0
   -0.3572   -0.6188    0.0000 C   0  0  0  0  0  0  0  0  0  0  0  0
   -1.0717   -1.0313    0.0000 C   0  0  0  0  0  0  0  0  0  0  0  0
    3.2152   -1.0313    0.0000 C   0  0  0  0  0  0  0  0  0  0  0  0
   -3.9297    0.6188    0.0000 C   0  0  0  0  0  0  0  0  0  0  0  0
    3.9297   -0.6188    0.0000 C   0  0  0  0  0  0  0  0  0  0  0  0
   -3.9297    1.4438    0.0000 C   0  0  0  0  0  0  0  0  0  0  0  0
   -4.6442    0.2063    0.0000 C   0  0  0  0  0  0  0  0  0  0  0  0
    4.6442   -1.0313    0.0000 C   0  0  0  0  0  0  0  0  0  0  0  0
   -4.6442    1.8563    0.0000 C   0  0  0  0  0  0  0  0  0  0  0  0
   -5.3587    0.6188    0.0000 C   0  0  0  0  0  0  0  0  0  0  0  0
   -5.3587    1.4438    0.0000 C   0  0  0  0  0  0  0  0  0  0  0  0
  1 12  1  0  0  0  0
  2 13  1  0  0  0  0
  3  9  1  0  0  0  0
  3 10  1  0  0  0  0
  4 15  1  0  0  0  0
  5 17  2  0  0  0  0
  6 27  2  0  0  0  0
  7 27  1  0  0  0  0
  8 17  1  0  0  0  0
  8 23  1  0  0  0  0
  9 12  2  0  0  0  0
  9 13  1  0  0  0  0
 10 14  2  0  0  0  0
 10 20  1  0  0  0  0
 11 14  1  0  0  0  0
 11 15  2  0  0  0  0
 11 17  1  0  0  0  0
 12 18  1  0  0  0  0
 13 19  2  0  0  0  0
 15 21  1  0  0  0  0
 16 18  2  0  0  0  0
 16 19  1  0  0  0  0
 16 22  1  0  0  0  0
 20 21  2  0  0  0  0
 22 24  1  0  0  0  0
 23 25  2  0  0  0  0
 23 26  1  0  0  0  0
 24 27  1  0  0  0  0
 25 28  1  0  0  0  0
 26 29  2  0  0  0  0
 28 30  2  0  0  0  0
 29 30  1  0  0  0  0
M  END
> <PUBCHEM_COMPOUND_ID_TYPE>
0

> <PUBCHEM_TOTAL_CHARGE>
0

> <PUBCHEM_SUBSTANCE_ID>
310946383

> <PUBCHEM_SUBSTANCE_VERSION>
1

> <PUBCHEM_EXT_DATASOURCE_NAME>
4488

> <PUBCHEM_EXT_DATASOURCE_REGID>
SCHEMBL16124502

> <PUBCHEM_SUBSTANCE_COMMENT>
InChI=1S/C22H17I2NO5/c23-17-10-13(6-9-20(27)28)11-18(24)21(17)30-15-7-8-19(26)16(12-15)22(29)25-14-4-2-1-3-5-14/h1-5,7-8,10-12,26H,6,9H2,(H,25,29)(H,27,28)
InChIKey=UTBNDASWBYKSQD-UHFFFAOYSA-N

> <PUBCHEM_SUBSTANCE_SYNONYM>
SCHEMBL16124502

> <PUBCHEM_XREF_EXT_ID>
SCHEMBL16124502

> <PUBCHEM_EXT_DATASOURCE_URL>
https://www.surechembl.org/

> <PUBCHEM_EXT_SUBSTANCE_URL>
https://www.surechembl.org/chemical/SCHEMBL16124502

> <PUBCHEM_CID_ASSOCIATIONS>
117612305  1

> <PUBCHEM_COORDINATE_TYPE>
1
3

$$$$
