310949637
  -OEChem-07211613022D

 23 24  0     0  0  0  0  0  0999 V2000
    3.5903    0.2032    0.0000 F   0  0  0  0  0  0  0  0  0  0  0  0
    2.8722    1.4497    0.0000 F   0  0  0  0  0  0  0  0  0  0  0  0
    3.5903    1.0432    0.0000 F   0  0  0  0  0  0  0  0  0  0  0  0
    2.1541    0.2167    0.0000 O   0  0  0  0  0  0  0  0  0  0  0  0
   -1.4361    1.4632    0.0000 O   0  0  0  0  0  0  0  0  0  0  0  0
   -1.4361   -1.8561    0.0000 O   0  0  0  0  0  0  0  0  0  0  0  0
   -0.7180    0.2032    0.0000 N   0  0  0  0  0  0  0  0  0  0  0  0
   -2.1677    0.2032    0.0000 C   0  0  0  0  0  0  0  0  0  0  0  0
   -2.1677   -0.6096    0.0000 C   0  0  0  0  0  0  0  0  0  0  0  0
   -1.4497    0.6096    0.0000 C   0  0  0  0  0  0  0  0  0  0  0  0
   -0.0135    0.6367    0.0000 C   0  0  0  0  0  0  0  0  0  0  0  0
    1.4226    0.6367    0.0000 C   0  0  0  0  0  0  0  0  0  0  0  0
    0.6909    0.2167    0.0000 C   0  0  0  0  0  0  0  0  0  0  0  0
    2.8857    0.6367    0.0000 C   0  0  0  0  0  0  0  0  0  0  0  0
   -2.8857    0.6096    0.0000 C   0  0  0  0  0  0  0  0  0  0  0  0
   -1.4361   -1.0026    0.0000 C   0  0  0  0  0  0  0  0  0  0  0  0
    0.0000    1.4497    0.0000 C   0  0  0  0  0  0  0  0  0  0  0  0
   -2.8586   -1.0161    0.0000 C   0  0  0  0  0  0  0  0  0  0  0  0
    1.4226    1.4497    0.0000 C   0  0  0  0  0  0  0  0  0  0  0  0
    0.7044    1.8561    0.0000 C   0  0  0  0  0  0  0  0  0  0  0  0
   -3.5903    0.2032    0.0000 C   0  0  0  0  0  0  0  0  0  0  0  0
   -3.5903   -0.6231    0.0000 C   0  0  0  0  0  0  0  0  0  0  0  0
   -0.9348   -0.7451    0.0000 C   0  0  0  0  0  0  0  0  0  0  0  0
  1 14  1  0  0  0  0
  2 14  1  0  0  0  0
  3 14  1  0  0  0  0
  4 12  1  0  0  0  0
  4 14  1  0  0  0  0
  5 10  2  0  0  0  0
  6 16  2  0  0  0  0
  7 10  1  0  0  0  0
  7 11  1  0  0  0  0
  8  9  1  0  0  0  0
  8 10  1  0  0  0  0
  8 15  2  0  0  0  0
  9 16  1  0  0  0  0
  9 18  2  0  0  0  0
 11 13  2  0  0  0  0
 11 17  1  0  0  0  0
 12 13  1  0  0  0  0
 12 19  2  0  0  0  0
 15 21  1  0  0  0  0
 16 23  1  0  0  0  0
 17 20  2  0  0  0  0
 18 22  1  0  0  0  0
 19 20  1  0  0  0  0
 21 22  2  0  0  0  0
M  END
> <PUBCHEM_COMPOUND_ID_TYPE>
0

> <PUBCHEM_TOTAL_CHARGE>
0

> <PUBCHEM_SUBSTANCE_ID>
310949637

> <PUBCHEM_SUBSTANCE_VERSION>
1

> <PUBCHEM_EXT_DATASOURCE_NAME>
4488

> <PUBCHEM_EXT_DATASOURCE_REGID>
SCHEMBL16127835

> <PUBCHEM_SUBSTANCE_COMMENT>
InChI=1S/C16H12F3NO3/c1-10(21)13-7-2-3-8-14(13)15(22)20-11-5-4-6-12(9-11)23-16(17,18)19/h2-9H,1H3,(H,20,22)
InChIKey=DBYWCDKKESDVCM-UHFFFAOYSA-N

> <PUBCHEM_SUBSTANCE_SYNONYM>
SCHEMBL16127835

> <PUBCHEM_XREF_EXT_ID>
SCHEMBL16127835

> <PUBCHEM_EXT_DATASOURCE_URL>
https://www.surechembl.org/

> <PUBCHEM_EXT_SUBSTANCE_URL>
https://www.surechembl.org/chemical/SCHEMBL16127835

> <PUBCHEM_CID_ASSOCIATIONS>
117615020  1

> <PUBCHEM_COORDINATE_TYPE>
1
3

$$$$
