310947456
  -OEChem-07211613022D

 27 28  0     0  0  0  0  0  0999 V2000
   -1.1129  -10.3241    0.0000 O   0  0  0  0  0  0  0  0  0  0  0  0
    1.7451   -8.6740    0.0000 O   0  0  0  0  0  0  0  0  0  0  0  0
    2.4596   -7.4364    0.0000 O   0  0  0  0  0  0  0  0  0  0  0  0
    3.8887   -7.4364    0.0000 O   0  0  0  0  0  0  0  0  0  0  0  0
   -1.8274  -11.5617    0.0000 N   0  0  0  0  0  0  0  0  0  0  0  0
    2.4596   -9.9117    0.0000 N   0  0  0  0  0  0  0  0  0  0  0  0
    1.5803   -7.9442    0.0000 N   0  0  0  0  0  0  0  0  0  0  0  0
   -1.1129  -11.1491    0.0000 C   0  0  0  0  0  0  0  0  0  0  0  0
   -1.8274  -12.3867    0.0000 C   0  0  0  0  0  0  0  0  0  0  0  0
    0.3161  -11.1491    0.0000 C   0  0  0  0  0  0  0  0  0  0  0  0
   -0.3984  -11.5617    0.0000 C   0  0  0  0  0  0  0  0  0  0  0  0
    1.7451  -10.3241    0.0000 C   0  0  0  0  0  0  0  0  0  0  0  0
    0.3161  -10.3241    0.0000 C   0  0  0  0  0  0  0  0  0  0  0  0
    1.0306  -11.5617    0.0000 C   0  0  0  0  0  0  0  0  0  0  0  0
    1.0306   -9.9117    0.0000 C   0  0  0  0  0  0  0  0  0  0  0  0
    1.7451  -11.1491    0.0000 C   0  0  0  0  0  0  0  0  0  0  0  0
   -2.5419  -11.1491    0.0000 C   0  0  0  0  0  0  0  0  0  0  0  0
   -2.5419  -12.7992    0.0000 C   0  0  0  0  0  0  0  0  0  0  0  0
   -1.1129  -12.7992    0.0000 C   0  0  0  0  0  0  0  0  0  0  0  0
    2.4596   -9.0865    0.0000 C   0  0  0  0  0  0  0  0  0  0  0  0
   -2.5419  -13.6243    0.0000 C   0  0  0  0  0  0  0  0  0  0  0  0
   -1.1129  -13.6243    0.0000 C   0  0  0  0  0  0  0  0  0  0  0  0
    3.1741   -8.6740    0.0000 C   0  0  0  0  0  0  0  0  0  0  0  0
   -1.8274  -14.0368    0.0000 C   0  0  0  0  0  0  0  0  0  0  0  0
   -2.5419  -10.3241    0.0000 C   0  0  0  0  0  0  0  0  0  0  0  0
    3.1741   -7.8490    0.0000 C   0  0  0  0  0  0  0  0  0  0  0  0
   -3.2564   -9.9117    0.0000 C   0  0  0  0  0  0  0  0  0  0  0  0
  1  8  2  0  0  0  0
  2 20  2  0  0  0  0
  3  7  1  0  0  0  0
  3 26  1  0  0  0  0
  4 26  2  0  0  0  0
  5  8  1  0  0  0  0
  5  9  1  0  0  0  0
  5 17  1  0  0  0  0
  6 12  1  0  0  0  0
  6 20  1  0  0  0  0
  8 11  1  0  0  0  0
  9 18  2  0  0  0  0
  9 19  1  0  0  0  0
 10 11  1  0  0  0  0
 10 13  2  0  0  0  0
 10 14  1  0  0  0  0
 12 15  2  0  0  0  0
 12 16  1  0  0  0  0
 13 15  1  0  0  0  0
 14 16  2  0  0  0  0
 17 25  1  0  0  0  0
 18 21  1  0  0  0  0
 19 22  2  0  0  0  0
 20 23  1  0  0  0  0
 21 24  2  0  0  0  0
 22 24  1  0  0  0  0
 23 26  1  0  0  0  0
 25 27  1  0  0  0  0
M  END
> <PUBCHEM_COMPOUND_ID_TYPE>
0

> <PUBCHEM_TOTAL_CHARGE>
0

> <PUBCHEM_SUBSTANCE_ID>
310947456

> <PUBCHEM_SUBSTANCE_VERSION>
1

> <PUBCHEM_EXT_DATASOURCE_NAME>
4488

> <PUBCHEM_EXT_DATASOURCE_REGID>
SCHEMBL16125617

> <PUBCHEM_SUBSTANCE_COMMENT>
InChI=1S/C20H23N3O4/c1-2-12-23(17-6-4-3-5-7-17)19(25)13-15-8-10-16(11-9-15)22-18(24)14-20(26)27-21/h3-11H,2,12-14,21H2,1H3,(H,22,24)
InChIKey=SSUXSVVHGDAZRY-UHFFFAOYSA-N

> <PUBCHEM_SUBSTANCE_SYNONYM>
SCHEMBL16125617

> <PUBCHEM_XREF_EXT_ID>
SCHEMBL16125617

> <PUBCHEM_EXT_DATASOURCE_URL>
https://www.surechembl.org/

> <PUBCHEM_EXT_SUBSTANCE_URL>
https://www.surechembl.org/chemical/SCHEMBL16125617

> <PUBCHEM_CID_ASSOCIATIONS>
117613187  1

> <PUBCHEM_COORDINATE_TYPE>
1
3

$$$$
