310937763
  -OEChem-07211613022D

 26 29  0     0  0  0  0  0  0999 V2000
    0.7363   -0.8590    0.0000 F   0  0  0  0  0  0  0  0  0  0  0  0
    1.4480   -2.0861    0.0000 F   0  0  0  0  0  0  0  0  0  0  0  0
    1.4234   -0.4418    0.0000 F   0  0  0  0  0  0  0  0  0  0  0  0
    3.5341    0.0000    0.0000 O   0  0  0  0  0  0  0  0  0  0  0  0
    2.8714   -1.2517    0.0000 N   0  0  0  0  0  0  0  0  0  0  0  0
    5.0557   -2.3315    0.0000 N   0  0  0  0  0  0  0  0  0  0  0  0
    2.8714   -3.7059    0.0000 N   0  0  0  0  0  0  0  0  0  0  0  0
    5.5221   -1.6689    0.0000 N   0  0  0  0  0  0  0  0  0  0  0  0
    2.8714   -2.0861    0.0000 C   0  0  0  0  0  0  0  0  0  0  0  0
    3.5341   -2.5033    0.0000 C   0  0  0  0  0  0  0  0  0  0  0  0
    4.2704   -2.0861    0.0000 C   0  0  0  0  0  0  0  0  0  0  0  0
    4.2704   -1.2517    0.0000 C   0  0  0  0  0  0  0  0  0  0  0  0
    3.5341   -0.8099    0.0000 C   0  0  0  0  0  0  0  0  0  0  0  0
    2.1352   -2.5033    0.0000 C   0  0  0  0  0  0  0  0  0  0  0  0
    2.1352   -3.2642    0.0000 C   0  0  0  0  0  0  0  0  0  0  0  0
    3.5341   -3.2642    0.0000 C   0  0  0  0  0  0  0  0  0  0  0  0
    2.1597   -0.8345    0.0000 C   0  0  0  0  0  0  0  0  0  0  0  0
    5.0557   -0.9817    0.0000 C   0  0  0  0  0  0  0  0  0  0  0  0
    1.4234   -3.6813    0.0000 C   0  0  0  0  0  0  0  0  0  0  0  0
    1.4480   -1.2517    0.0000 C   0  0  0  0  0  0  0  0  0  0  0  0
    0.7117   -3.2642    0.0000 C   0  0  0  0  0  0  0  0  0  0  0  0
    1.4234   -4.4912    0.0000 C   0  0  0  0  0  0  0  0  0  0  0  0
    0.0000   -3.6813    0.0000 C   0  0  0  0  0  0  0  0  0  0  0  0
    0.7117   -4.9085    0.0000 C   0  0  0  0  0  0  0  0  0  0  0  0
    0.0000   -4.4912    0.0000 C   0  0  0  0  0  0  0  0  0  0  0  0
    0.7117   -2.4543    0.0000 C   0  0  0  0  0  0  0  0  0  0  0  0
  1 20  1  0  0  0  0
  2 20  1  0  0  0  0
  3 20  1  0  0  0  0
  4 13  2  0  0  0  0
  5  9  1  0  0  0  0
  5 13  1  0  0  0  0
  5 17  1  0  0  0  0
  6  8  1  0  0  0  0
  6 11  1  0  0  0  0
  7 15  2  0  0  0  0
  7 16  1  0  0  0  0
  8 18  2  0  0  0  0
  9 10  1  0  0  0  0
  9 14  2  0  0  0  0
 10 11  1  0  0  0  0
 10 16  2  0  0  0  0
 11 12  2  0  0  0  0
 12 13  1  0  0  0  0
 12 18  1  0  0  0  0
 14 15  1  0  0  0  0
 15 19  1  0  0  0  0
 17 20  1  0  0  0  0
 19 21  2  0  0  0  0
 19 22  1  0  0  0  0
 21 23  1  0  0  0  0
 21 26  1  0  0  0  0
 22 24  2  0  0  0  0
 23 25  2  0  0  0  0
 24 25  1  0  0  0  0
M  END
> <PUBCHEM_COMPOUND_ID_TYPE>
0

> <PUBCHEM_TOTAL_CHARGE>
0

> <PUBCHEM_SUBSTANCE_ID>
310937763

> <PUBCHEM_SUBSTANCE_VERSION>
1

> <PUBCHEM_EXT_DATASOURCE_NAME>
4488

> <PUBCHEM_EXT_DATASOURCE_REGID>
SCHEMBL16115571

> <PUBCHEM_SUBSTANCE_COMMENT>
InChI=1S/C18H13F3N4O/c1-10-4-2-3-5-11(10)14-6-15-12(7-22-14)16-13(8-23-24-16)17(26)25(15)9-18(19,20)21/h2-8H,9H2,1H3,(H,23,24)
InChIKey=TYOLKSUYEMKODN-UHFFFAOYSA-N

> <PUBCHEM_SUBSTANCE_SYNONYM>
SCHEMBL16115571

> <PUBCHEM_XREF_EXT_ID>
SCHEMBL16115571

> <PUBCHEM_EXT_DATASOURCE_URL>
https://www.surechembl.org/

> <PUBCHEM_EXT_SUBSTANCE_URL>
https://www.surechembl.org/chemical/SCHEMBL16115571

> <PUBCHEM_CID_ASSOCIATIONS>
86298818  1

> <PUBCHEM_COORDINATE_TYPE>
1
3

$$$$
