310941066
  -OEChem-07211613022D

 43 46  0     1  0  0  0  0  0999 V2000
    5.0707    0.6685    0.0000 O   0  0  0  0  0  0  0  0  0  0  0  0
    3.9328   -1.2801    0.0000 O   0  0  0  0  0  0  0  0  0  0  0  0
    1.7851    0.7823    0.0000 O   0  0  0  0  0  0  0  0  0  0  0  0
   -0.3627   -1.2801    0.0000 O   0  0  0  0  0  0  0  0  0  0  0  0
    3.9328   -2.9301    0.0000 O   0  0  0  0  0  0  0  0  0  0  0  0
   -2.5105    0.7823    0.0000 O   0  0  0  0  0  0  0  0  0  0  0  0
   -1.7993    1.1948    0.0000 O   0  0  0  0  0  0  0  0  0  0  0  0
   -5.3694    0.7823    0.0000 O   0  0  0  0  0  0  0  0  0  0  0  0
    2.5105   -0.4694    0.0000 N   0  0  0  0  0  0  0  0  0  0  0  0
    0.3627   -0.0569    0.0000 N   0  0  0  0  0  0  0  0  0  0  0  0
   -1.7851   -0.4694    0.0000 N   0  0  0  0  0  0  0  0  0  0  0  0
   -3.9328   -0.0569    0.0000 N   0  0  0  0  0  0  0  0  0  0  0  0
    4.6440    0.0000    0.0000 C   0  0  3  0  0  0  0  0  0  0  0  0
    3.9328   -0.4267    0.0000 C   0  0  0  0  0  0  0  0  0  0  0  0
    4.2742    0.6828    0.0000 C   0  0  0  0  0  0  0  0  0  0  0  0
    3.2216   -0.0284    0.0000 C   0  0  3  0  0  0  0  0  0  0  0  0
    5.3694   -0.4267    0.0000 C   0  0  0  0  0  0  0  0  0  0  0  0
    3.2216    1.2944    0.0000 C   0  0  0  0  0  0  0  0  0  0  0  0
    1.7993   -0.0426    0.0000 C   0  0  0  0  0  0  0  0  0  0  0  0
    1.1023   -0.4267    0.0000 C   0  0  3  0  0  0  0  0  0  0  0  0
    2.5105    1.7211    0.0000 C   0  0  0  0  0  0  0  0  0  0  0  0
    1.0597   -1.2801    0.0000 C   0  0  0  0  0  0  0  0  0  0  0  0
   -0.3485   -0.4125    0.0000 C   0  0  0  0  0  0  0  0  0  0  0  0
    1.8135   -1.6784    0.0000 C   0  0  0  0  0  0  0  0  0  0  0  0
    1.7993    1.3086    0.0000 C   0  0  0  0  0  0  0  0  0  0  0  0
    2.5105    2.5318    0.0000 C   0  0  0  0  0  0  0  0  0  0  0  0
   -1.0739   -0.0284    0.0000 C   0  0  3  0  0  0  0  0  0  0  0  0
    2.4962   -1.2801    0.0000 C   0  0  0  0  0  0  0  0  0  0  0  0
    1.8135   -2.5034    0.0000 C   0  0  0  0  0  0  0  0  0  0  0  0
    1.0881    1.7069    0.0000 C   0  0  0  0  0  0  0  0  0  0  0  0
    1.7851    2.9301    0.0000 C   0  0  0  0  0  0  0  0  0  0  0  0
   -2.5105   -0.0426    0.0000 C   0  0  0  0  0  0  0  0  0  0  0  0
    3.2358   -2.4891    0.0000 C   0  0  0  0  0  0  0  0  0  0  0  0
    3.2358   -1.6926    0.0000 C   0  0  0  0  0  0  0  0  0  0  0  0
    2.5105   -2.9016    0.0000 C   0  0  0  0  0  0  0  0  0  0  0  0
   -1.0739    0.8108    0.0000 C   0  0  0  0  0  0  0  0  0  0  0  0
    1.0881    2.5318    0.0000 C   0  0  0  0  0  0  0  0  0  0  0  0
   -3.1932   -0.4267    0.0000 C   0  0  0  0  0  0  0  0  0  0  0  0
   -3.9328    0.7965    0.0000 C   0  0  0  0  0  0  0  0  0  0  0  0
   -4.6298   -0.4267    0.0000 C   0  0  0  0  0  0  0  0  0  0  0  0
   -4.6866    1.2090    0.0000 C   0  0  0  0  0  0  0  0  0  0  0  0
   -5.3552   -0.0284    0.0000 C   0  0  0  0  0  0  0  0  0  0  0  0
    4.6724   -2.5034    0.0000 C   0  0  0  0  0  0  0  0  0  0  0  0
  1 13  1  0  0  0  0
  1 15  1  0  0  0  0
  2 14  2  0  0  0  0
  3 19  2  0  0  0  0
  4 23  2  0  0  0  0
  5 33  1  0  0  0  0
  5 43  1  0  0  0  0
  6 32  2  0  0  0  0
  7 36  1  0  0  0  0
  8 41  1  0  0  0  0
  8 42  1  0  0  0  0
 16  9  1  1  0  0  0
  9 19  1  0  0  0  0
 20 10  1  6  0  0  0
 10 23  1  0  0  0  0
 27 11  1  1  0  0  0
 11 32  1  0  0  0  0
 12 38  1  0  0  0  0
 12 39  1  0  0  0  0
 12 40  1  0  0  0  0
 13 14  1  1  0  0  0
 13 15  1  0  0  0  0
 13 17  1  6  0  0  0
 14 16  1  0  0  0  0
 16 18  1  0  0  0  0
 18 21  1  0  0  0  0
 19 20  1  0  0  0  0
 20 22  1  0  0  0  0
 21 25  2  0  0  0  0
 21 26  1  0  0  0  0
 22 24  1  0  0  0  0
 23 27  1  0  0  0  0
 24 28  2  0  0  0  0
 24 29  1  0  0  0  0
 25 30  1  0  0  0  0
 26 31  1  0  0  0  0
 27 36  1  0  0  0  0
 28 34  1  0  0  0  0
 29 35  2  0  0  0  0
 30 37  1  0  0  0  0
 31 37  1  0  0  0  0
 32 38  1  0  0  0  0
 33 34  2  0  0  0  0
 33 35  1  0  0  0  0
 39 41  1  0  0  0  0
 40 42  1  0  0  0  0
M  END
> <PUBCHEM_COMPOUND_ID_TYPE>
0

> <PUBCHEM_TOTAL_CHARGE>
0

> <PUBCHEM_SUBSTANCE_ID>
310941066

> <PUBCHEM_SUBSTANCE_VERSION>
1

> <PUBCHEM_EXT_DATASOURCE_NAME>
4488

> <PUBCHEM_EXT_DATASOURCE_REGID>
SCHEMBL16119026

> <PUBCHEM_SUBSTANCE_COMMENT>
InChI=1S/C31H44N4O8/c1-31(20-43-31)28(38)24(16-21-6-4-3-5-7-21)33-29(39)25(17-22-8-10-23(41-2)11-9-22)34-30(40)26(19-36)32-27(37)18-35-12-14-42-15-13-35/h6,8-11,24-26,36H,3-5,7,12-20H2,1-2H3,(H,32,37)(H,33,39)(H,34,40)/t24-,25-,26-,31+/m0/s1
InChIKey=GFIMHZBLVAHQQS-WJQRCLFPSA-N

> <PUBCHEM_SUBSTANCE_SYNONYM>
SCHEMBL16119026

> <PUBCHEM_XREF_EXT_ID>
SCHEMBL16119026

> <PUBCHEM_EXT_DATASOURCE_URL>
https://www.surechembl.org/

> <PUBCHEM_EXT_SUBSTANCE_URL>
https://www.surechembl.org/chemical/SCHEMBL16119026

> <PUBCHEM_CID_ASSOCIATIONS>
117607957  1

> <PUBCHEM_COORDINATE_TYPE>
1
3

> <PUBCHEM_BONDANNOTATIONS>
20  10  6
27  11  5
13  14  5
13  17  6
16  9  5

$$$$
