310946530
  -OEChem-07211613022D

 17 17  0     0  0  0  0  0  0999 V2000
   -7.1935  -12.4617    0.0000 O   0  0  0  0  0  0  0  0  0  0  0  0
   -8.6225  -12.4617    0.0000 O   0  0  0  0  0  0  0  0  0  0  0  0
   -8.2100  -15.6512    0.0000 O   0  0  0  0  0  0  0  0  0  0  0  0
   -8.9245  -14.4137    0.0000 O   0  0  0  0  0  0  0  0  0  0  0  0
   -7.9080  -13.6992    0.0000 N   0  0  0  0  0  0  0  0  0  0  0  0
   -6.9800  -11.6648    0.0000 C   0  0  0  0  0  0  0  0  0  0  0  0
   -5.9696  -10.6544    0.0000 C   0  0  0  0  0  0  0  0  0  0  0  0
   -6.1831  -11.4513    0.0000 C   0  0  0  0  0  0  0  0  0  0  0  0
   -7.9080  -12.8742    0.0000 C   0  0  0  0  0  0  0  0  0  0  0  0
   -7.5634  -11.0815    0.0000 C   0  0  0  0  0  0  0  0  0  0  0  0
   -6.5530  -10.0710    0.0000 C   0  0  0  0  0  0  0  0  0  0  0  0
   -7.3499  -10.2846    0.0000 C   0  0  0  0  0  0  0  0  0  0  0  0
   -5.1727  -10.4409    0.0000 C   0  0  0  0  0  0  0  0  0  0  0  0
   -7.4955  -14.4137    0.0000 C   0  0  0  0  0  0  0  0  0  0  0  0
   -8.2100  -14.8262    0.0000 C   0  0  0  0  0  0  0  0  0  0  0  0
   -4.9592   -9.6440    0.0000 C   0  0  0  0  0  0  0  0  0  0  0  0
   -4.1623   -9.4305    0.0000 C   0  0  0  0  0  0  0  0  0  0  0  0
  1  6  1  0  0  0  0
  1  9  1  0  0  0  0
  2  9  2  0  0  0  0
  3 15  2  0  0  0  0
  4 15  1  0  0  0  0
  5  9  1  0  0  0  0
  5 14  1  0  0  0  0
  6  8  2  0  0  0  0
  6 10  1  0  0  0  0
  7  8  1  0  0  0  0
  7 11  2  0  0  0  0
  7 13  1  0  0  0  0
 10 12  2  0  0  0  0
 11 12  1  0  0  0  0
 13 16  1  0  0  0  0
 14 15  1  0  0  0  0
 16 17  1  0  0  0  0
M  END
> <PUBCHEM_COMPOUND_ID_TYPE>
0

> <PUBCHEM_TOTAL_CHARGE>
0

> <PUBCHEM_SUBSTANCE_ID>
310946530

> <PUBCHEM_SUBSTANCE_VERSION>
1

> <PUBCHEM_EXT_DATASOURCE_NAME>
4488

> <PUBCHEM_EXT_DATASOURCE_REGID>
SCHEMBL16124651

> <PUBCHEM_SUBSTANCE_COMMENT>
InChI=1S/C12H15NO4/c1-2-4-9-5-3-6-10(7-9)17-12(16)13-8-11(14)15/h3,5-7H,2,4,8H2,1H3,(H,13,16)(H,14,15)
InChIKey=MZZWDIHLMZIIHD-UHFFFAOYSA-N

> <PUBCHEM_SUBSTANCE_SYNONYM>
SCHEMBL16124651

> <PUBCHEM_XREF_EXT_ID>
SCHEMBL16124651

> <PUBCHEM_EXT_DATASOURCE_URL>
https://www.surechembl.org/

> <PUBCHEM_EXT_SUBSTANCE_URL>
https://www.surechembl.org/chemical/SCHEMBL16124651

> <PUBCHEM_CID_ASSOCIATIONS>
117612435  1

> <PUBCHEM_COORDINATE_TYPE>
1
3

$$$$
