310938603
  -OEChem-07211613022D

 14 14  0     0  0  0  0  0  0999 V2000
   -2.1334   -5.3580    0.0000 Cl  0  0  0  0  0  0  0  0  0  0  0  0
   -2.1334   -7.8330    0.0000 O   0  0  0  0  0  0  0  0  0  0  0  0
   -0.7044   -7.0080    0.0000 N   0  0  0  0  0  0  0  0  0  0  0  0
    0.0100   -5.7705    0.0000 C   0  0  0  0  0  0  0  0  0  0  0  0
   -1.4189   -6.5955    0.0000 C   0  0  0  0  0  0  0  0  0  0  0  0
   -1.4189   -5.7705    0.0000 C   0  0  0  0  0  0  0  0  0  0  0  0
   -0.7044   -5.3580    0.0000 C   0  0  0  0  0  0  0  0  0  0  0  0
    0.0100   -6.5955    0.0000 C   0  0  0  0  0  0  0  0  0  0  0  0
    0.7245   -5.3580    0.0000 C   0  0  0  0  0  0  0  0  0  0  0  0
    1.4390   -5.7705    0.0000 C   0  0  0  0  0  0  0  0  0  0  0  0
   -2.1334   -7.0080    0.0000 C   0  0  0  0  0  0  0  0  0  0  0  0
    1.0265   -6.4849    0.0000 C   0  0  0  0  0  0  0  0  0  0  0  0
    1.8515   -5.0560    0.0000 C   0  0  0  0  0  0  0  0  0  0  0  0
    2.1535   -6.1830    0.0000 C   0  0  0  0  0  0  0  0  0  0  0  0
  1  6  1  0  0  0  0
  2 11  1  0  0  0  0
  3  5  1  0  0  0  0
  3  8  2  0  0  0  0
  4  7  2  0  0  0  0
  4  8  1  0  0  0  0
  4  9  1  0  0  0  0
  5  6  2  0  0  0  0
  5 11  1  0  0  0  0
  6  7  1  0  0  0  0
  9 10  1  0  0  0  0
 10 12  1  0  0  0  0
 10 13  1  0  0  0  0
 10 14  1  0  0  0  0
M  END
> <PUBCHEM_COMPOUND_ID_TYPE>
0

> <PUBCHEM_TOTAL_CHARGE>
0

> <PUBCHEM_SUBSTANCE_ID>
310938603

> <PUBCHEM_SUBSTANCE_VERSION>
1

> <PUBCHEM_EXT_DATASOURCE_NAME>
4488

> <PUBCHEM_EXT_DATASOURCE_REGID>
SCHEMBL16116517

> <PUBCHEM_SUBSTANCE_COMMENT>
InChI=1S/C11H16ClNO/c1-11(2,3)5-8-4-9(12)10(7-14)13-6-8/h4,6,14H,5,7H2,1-3H3
InChIKey=AOEXTVOLGCLQKC-UHFFFAOYSA-N

> <PUBCHEM_SUBSTANCE_SYNONYM>
SCHEMBL16116517

> <PUBCHEM_XREF_EXT_ID>
SCHEMBL16116517

> <PUBCHEM_EXT_DATASOURCE_URL>
https://www.surechembl.org/

> <PUBCHEM_EXT_SUBSTANCE_URL>
https://www.surechembl.org/chemical/SCHEMBL16116517

> <PUBCHEM_CID_ASSOCIATIONS>
117606036  1

> <PUBCHEM_COORDINATE_TYPE>
1
3

> <PUBCHEM_BONDANNOTATIONS>
10  12  3
10  13  3

$$$$
