310949658
  -OEChem-07211613022D

 24 25  0     0  0  0  0  0  0999 V2000
    1.6660    0.3494    0.0000 O   0  0  0  0  0  0  0  0  0  0  0  0
    2.4990    0.3494    0.0000 O   0  0  0  0  0  0  0  0  0  0  0  0
    3.7486   -0.3762    0.0000 O   0  0  0  0  0  0  0  0  0  0  0  0
   -3.7486    1.1017    0.0000 O   0  0  0  0  0  0  0  0  0  0  0  0
   -3.7486   -0.3359    0.0000 O   0  0  0  0  0  0  0  0  0  0  0  0
    0.4165   -0.3628    0.0000 N   0  0  0  0  0  0  0  0  0  0  0  0
   -2.9021    2.5125    0.0000 N   0  0  0  0  0  0  0  0  0  0  0  0
    1.6660   -1.0749    0.0000 C   0  0  0  0  0  0  0  0  0  0  0  0
    2.4990   -1.0883    0.0000 C   0  0  0  0  0  0  0  0  0  0  0  0
   -2.4991    0.3628    0.0000 C   0  0  0  0  0  0  0  0  0  0  0  0
   -2.0826    1.0883    0.0000 C   0  0  0  0  0  0  0  0  0  0  0  0
    1.2361   -0.3762    0.0000 C   0  0  0  0  0  0  0  0  0  0  0  0
   -0.8330    0.3762    0.0000 C   0  0  0  0  0  0  0  0  0  0  0  0
   -1.2496    1.0614    0.0000 C   0  0  0  0  0  0  0  0  0  0  0  0
    2.9156   -0.3762    0.0000 C   0  0  0  0  0  0  0  0  0  0  0  0
    1.2496   -1.8004    0.0000 C   0  0  0  0  0  0  0  0  0  0  0  0
   -2.0826   -0.3494    0.0000 C   0  0  0  0  0  0  0  0  0  0  0  0
   -1.2496   -0.3494    0.0000 C   0  0  0  0  0  0  0  0  0  0  0  0
    0.0000    0.3494    0.0000 C   0  0  0  0  0  0  0  0  0  0  0  0
    2.8887   -1.7735    0.0000 C   0  0  0  0  0  0  0  0  0  0  0  0
   -3.3187    0.3628    0.0000 C   0  0  0  0  0  0  0  0  0  0  0  0
    1.6660   -2.5125    0.0000 C   0  0  0  0  0  0  0  0  0  0  0  0
    2.4856   -2.4990    0.0000 C   0  0  0  0  0  0  0  0  0  0  0  0
   -2.4856    1.7870    0.0000 C   0  0  0  0  0  0  0  0  0  0  0  0
  1 12  2  0  0  0  0
  2 15  2  0  0  0  0
  3 15  1  0  0  0  0
  4 21  2  0  0  0  0
  5 21  1  0  0  0  0
  6 12  1  0  0  0  0
  6 19  1  0  0  0  0
  7 24  3  0  0  0  0
  8  9  2  0  0  0  0
  8 12  1  0  0  0  0
  8 16  1  0  0  0  0
  9 15  1  0  0  0  0
  9 20  1  0  0  0  0
 10 11  2  0  0  0  0
 10 17  1  0  0  0  0
 10 21  1  0  0  0  0
 11 14  1  0  0  0  0
 11 24  1  0  0  0  0
 13 14  2  0  0  0  0
 13 18  1  0  0  0  0
 13 19  1  0  0  0  0
 16 22  2  0  0  0  0
 17 18  2  0  0  0  0
 20 23  2  0  0  0  0
 22 23  1  0  0  0  0
M  END
> <PUBCHEM_COMPOUND_ID_TYPE>
0

> <PUBCHEM_TOTAL_CHARGE>
0

> <PUBCHEM_SUBSTANCE_ID>
310949658

> <PUBCHEM_SUBSTANCE_VERSION>
1

> <PUBCHEM_EXT_DATASOURCE_NAME>
4488

> <PUBCHEM_EXT_DATASOURCE_REGID>
SCHEMBL16127856

> <PUBCHEM_SUBSTANCE_COMMENT>
InChI=1S/C17H12N2O5/c18-8-11-7-10(5-6-12(11)16(21)22)9-19-15(20)13-3-1-2-4-14(13)17(23)24/h1-7H,9H2,(H,19,20)(H,21,22)(H,23,24)
InChIKey=RPFHEWAHVGWWMF-UHFFFAOYSA-N

> <PUBCHEM_SUBSTANCE_SYNONYM>
SCHEMBL16127856

> <PUBCHEM_XREF_EXT_ID>
SCHEMBL16127856

> <PUBCHEM_EXT_DATASOURCE_URL>
https://www.surechembl.org/

> <PUBCHEM_EXT_SUBSTANCE_URL>
https://www.surechembl.org/chemical/SCHEMBL16127856

> <PUBCHEM_CID_ASSOCIATIONS>
117615034  1

> <PUBCHEM_COORDINATE_TYPE>
1
3

$$$$
