310942547
  -OEChem-07211613022D

 42 46  0     1  0  0  0  0  0999 V2000
   -3.6851    0.7752    0.0000 F   0  0  0  0  0  0  0  0  0  0  0  0
    2.7638   -0.3932    0.0000 F   0  0  0  0  0  0  0  0  0  0  0  0
   -3.6851   -2.5728    0.0000 F   0  0  0  0  0  0  0  0  0  0  0  0
    3.0110   -3.6738    0.0000 O   0  0  0  0  0  0  0  0  0  0  0  0
    1.1235    2.3930    0.0000 O   0  0  0  0  0  0  0  0  0  0  0  0
    1.5953   -3.7187    0.0000 O   0  0  0  0  0  0  0  0  0  0  0  0
   -1.3482    0.9325    0.0000 N   0  0  0  0  0  0  0  0  0  0  0  0
   -1.5054   -0.4157    0.0000 N   0  0  0  0  0  0  0  0  0  0  0  0
    0.2921   -0.5056    0.0000 N   0  0  0  0  0  0  0  0  0  0  0  0
    2.1571   -2.4380    0.0000 N   0  0  0  0  0  0  0  0  0  0  0  0
   -0.9662    0.2359    0.0000 C   0  0  0  0  0  0  0  0  0  0  0  0
   -2.2695   -0.0562    0.0000 C   0  0  0  0  0  0  0  0  0  0  0  0
   -0.1348    0.2135    0.0000 C   0  0  3  0  0  0  0  0  0  0  0  0
   -2.9660   -0.4831    0.0000 C   0  0  0  0  0  0  0  0  0  0  0  0
   -2.1571    0.7527    0.0000 C   0  0  0  0  0  0  0  0  0  0  0  0
    0.2921    0.9550    0.0000 C   0  0  0  0  0  0  0  0  0  0  0  0
   -0.9438    1.6740    0.0000 C   0  0  0  0  0  0  0  0  0  0  0  0
   -3.7075   -0.0562    0.0000 C   0  0  0  0  0  0  0  0  0  0  0  0
    1.5504   -1.2246    0.0000 C   0  0  3  0  0  0  0  0  0  0  0  0
   -2.9885   -1.3370    0.0000 C   0  0  0  0  0  0  0  0  0  0  0  0
    1.1235   -0.5280    0.0000 C   0  0  0  0  0  0  0  0  0  0  0  0
    2.3368   -1.1123    0.0000 C   0  0  3  0  0  0  0  0  0  0  0  0
   -1.3706    2.3930    0.0000 C   0  0  0  0  0  0  0  0  0  0  0  0
    1.4380   -2.0335    0.0000 C   0  0  0  0  0  0  0  0  0  0  0  0
   -3.6851   -1.7189    0.0000 C   0  0  0  0  0  0  0  0  0  0  0  0
   -0.1124    1.6515    0.0000 C   0  0  0  0  0  0  0  0  0  0  0  0
    1.1235    0.9325    0.0000 C   0  0  0  0  0  0  0  0  0  0  0  0
    2.7413   -1.8538    0.0000 C   0  0  0  0  0  0  0  0  0  0  0  0
   -4.3816   -0.4831    0.0000 C   0  0  0  0  0  0  0  0  0  0  0  0
    2.2469   -3.2693    0.0000 C   0  0  0  0  0  0  0  0  0  0  0  0
   -4.4040   -1.3145    0.0000 C   0  0  0  0  0  0  0  0  0  0  0  0
    0.2921    2.3706    0.0000 C   0  0  0  0  0  0  0  0  0  0  0  0
    1.5280    1.6515    0.0000 C   0  0  0  0  0  0  0  0  0  0  0  0
   -2.2021    2.4155    0.0000 C   0  0  0  0  0  0  0  0  0  0  0  0
   -0.9662    3.0896    0.0000 C   0  0  0  0  0  0  0  0  0  0  0  0
    3.7300   -3.2469    0.0000 C   0  0  0  0  0  0  0  0  0  0  0  0
   -2.5840    3.0896    0.0000 C   0  0  0  0  0  0  0  0  0  0  0  0
   -1.3482    3.8086    0.0000 C   0  0  0  0  0  0  0  0  0  0  0  0
   -2.1795    3.8086    0.0000 C   0  0  0  0  0  0  0  0  0  0  0  0
    4.1569   -3.8086    0.0000 C   0  0  0  0  0  0  0  0  0  0  0  0
    3.2806   -2.5953    0.0000 C   0  0  0  0  0  0  0  0  0  0  0  0
    4.4040   -2.7525    0.0000 C   0  0  0  0  0  0  0  0  0  0  0  0
  1 18  1  0  0  0  0
 22  2  1  1  0  0  0
  3 25  1  0  0  0  0
  4 30  1  0  0  0  0
  4 36  1  0  0  0  0
  5 32  1  0  0  0  0
  5 33  1  0  0  0  0
  6 30  2  0  0  0  0
  7 11  1  0  0  0  0
  7 15  1  0  0  0  0
  7 17  1  0  0  0  0
  8 11  2  0  0  0  0
  8 12  1  0  0  0  0
 13  9  1  1  0  0  0
  9 21  1  0  0  0  0
 10 24  1  0  0  0  0
 10 28  1  0  0  0  0
 10 30  1  0  0  0  0
 11 13  1  0  0  0  0
 12 14  1  0  0  0  0
 12 15  2  0  0  0  0
 13 16  1  0  0  0  0
 14 18  1  0  0  0  0
 14 20  2  0  0  0  0
 16 26  1  0  0  0  0
 16 27  1  0  0  0  0
 17 23  1  0  0  0  0
 18 29  2  0  0  0  0
 19 21  1  1  0  0  0
 19 22  1  0  0  0  0
 19 24  1  0  0  0  0
 20 25  1  0  0  0  0
 22 28  1  0  0  0  0
 23 34  2  0  0  0  0
 23 35  1  0  0  0  0
 25 31  2  0  0  0  0
 26 32  1  0  0  0  0
 27 33  1  0  0  0  0
 29 31  1  0  0  0  0
 34 37  1  0  0  0  0
 35 38  2  0  0  0  0
 36 40  1  0  0  0  0
 36 41  1  0  0  0  0
 36 42  1  0  0  0  0
 37 39  2  0  0  0  0
 38 39  1  0  0  0  0
M  END
> <PUBCHEM_COMPOUND_ID_TYPE>
0

> <PUBCHEM_TOTAL_CHARGE>
0

> <PUBCHEM_SUBSTANCE_ID>
310942547

> <PUBCHEM_SUBSTANCE_VERSION>
1

> <PUBCHEM_EXT_DATASOURCE_NAME>
4488

> <PUBCHEM_EXT_DATASOURCE_REGID>
SCHEMBL16120588

> <PUBCHEM_SUBSTANCE_COMMENT>
InChI=1S/C32H39F3N4O3/c1-32(2,3)42-31(40)39-18-23(27(35)19-39)16-36-29(22-11-13-41-14-12-22)30-37-28(25-15-24(33)9-10-26(25)34)20-38(30)17-21-7-5-4-6-8-21/h4-10,15,20,22-23,27,29,36H,11-14,16-19H2,1-3H3/t23-,27+,29-/m1/s1
InChIKey=YWZYJXYUSULKOJ-FNHKZSGOSA-N

> <PUBCHEM_SUBSTANCE_SYNONYM>
SCHEMBL16120588

> <PUBCHEM_XREF_EXT_ID>
SCHEMBL16120588

> <PUBCHEM_EXT_DATASOURCE_URL>
https://www.surechembl.org/

> <PUBCHEM_EXT_SUBSTANCE_URL>
https://www.surechembl.org/chemical/SCHEMBL16120588

> <PUBCHEM_CID_ASSOCIATIONS>
117609104  1

> <PUBCHEM_COORDINATE_TYPE>
1
3

> <PUBCHEM_BONDANNOTATIONS>
19  21  5
22  2  5
13  9  5

$$$$
