310932582
  -OEChem-07211613022D

 29 31  0     0  0  0  0  0  0999 V2000
    4.0739   -2.1441    0.0000 O   0  0  0  0  0  0  0  0  0  0  0  0
    8.5767   -2.2157    0.0000 O   0  0  0  0  0  0  0  0  0  0  0  0
   10.0061   -3.8595    0.0000 O   0  0  0  0  0  0  0  0  0  0  0  0
    4.9673   -0.9649    0.0000 N   0  0  0  0  0  0  0  0  0  0  0  0
    4.8958   -0.1430    0.0000 N   0  0  0  0  0  0  0  0  0  0  0  0
    6.3968   -0.9649    0.0000 N   0  0  0  0  0  0  0  0  0  0  0  0
    7.8619   -3.4664    0.0000 N   0  0  0  0  0  0  0  0  0  0  0  0
    0.0000   -1.8225    0.0000 N   0  0  0  0  0  0  0  0  0  0  0  0
    4.2168   -1.3223    0.0000 C   0  0  0  0  0  0  0  0  0  0  0  0
    3.6451   -0.7147    0.0000 C   0  0  0  0  0  0  0  0  0  0  0  0
    5.6821   -1.3937    0.0000 C   0  0  0  0  0  0  0  0  0  0  0  0
    2.8231   -0.7862    0.0000 C   0  0  0  0  0  0  0  0  0  0  0  0
    4.0739    0.0000    0.0000 C   0  0  0  0  0  0  0  0  0  0  0  0
    5.6821   -2.2157    0.0000 C   0  0  0  0  0  0  0  0  0  0  0  0
    7.1115   -2.2157    0.0000 C   0  0  0  0  0  0  0  0  0  0  0  0
    2.5015   -1.5724    0.0000 C   0  0  0  0  0  0  0  0  0  0  0  0
    2.3228   -0.1430    0.0000 C   0  0  0  0  0  0  0  0  0  0  0  0
    7.1115   -1.3937    0.0000 C   0  0  0  0  0  0  0  0  0  0  0  0
    6.3968   -2.6087    0.0000 C   0  0  0  0  0  0  0  0  0  0  0  0
    7.8619   -2.6087    0.0000 C   0  0  0  0  0  0  0  0  0  0  0  0
    1.1793   -1.0006    0.0000 C   0  0  0  0  0  0  0  0  0  0  0  0
    1.6796   -1.6439    0.0000 C   0  0  0  0  0  0  0  0  0  0  0  0
    1.5009   -0.2501    0.0000 C   0  0  0  0  0  0  0  0  0  0  0  0
    9.2914   -3.4664    0.0000 C   0  0  0  0  0  0  0  0  0  0  0  0
    8.5767   -3.8952    0.0000 C   0  0  0  0  0  0  0  0  0  0  0  0
    0.3574   -1.0721    0.0000 C   0  0  0  0  0  0  0  0  0  0  0  0
    9.2914   -2.6445    0.0000 C   0  0  0  0  0  0  0  0  0  0  0  0
    9.2914   -4.2884    0.0000 C   0  0  0  0  0  0  0  0  0  0  0  0
   10.7209   -3.4664    0.0000 C   0  0  0  0  0  0  0  0  0  0  0  0
  1  9  1  0  0  0  0
  2 20  2  0  0  0  0
  3 24  1  0  0  0  0
  3 29  1  0  0  0  0
  4  5  1  0  0  0  0
  4  9  1  0  0  0  0
  4 11  1  0  0  0  0
  5 13  2  0  0  0  0
  6 11  2  0  0  0  0
  6 18  1  0  0  0  0
  7 20  1  0  0  0  0
  7 25  1  0  0  0  0
  8 26  3  0  0  0  0
  9 10  2  0  0  0  0
 10 12  1  0  0  0  0
 10 13  1  0  0  0  0
 11 14  1  0  0  0  0
 12 16  2  0  0  0  0
 12 17  1  0  0  0  0
 14 19  2  0  0  0  0
 15 18  2  0  0  0  0
 15 19  1  0  0  0  0
 15 20  1  0  0  0  0
 16 22  1  0  0  0  0
 17 23  2  0  0  0  0
 21 22  2  0  0  0  0
 21 23  1  0  0  0  0
 21 26  1  0  0  0  0
 24 25  1  0  0  0  0
 24 27  1  0  0  0  0
 24 28  1  0  0  0  0
M  END
> <PUBCHEM_COMPOUND_ID_TYPE>
0

> <PUBCHEM_TOTAL_CHARGE>
0

> <PUBCHEM_SUBSTANCE_ID>
310932582

> <PUBCHEM_SUBSTANCE_VERSION>
1

> <PUBCHEM_EXT_DATASOURCE_NAME>
4488

> <PUBCHEM_EXT_DATASOURCE_REGID>
SCHEMBL16109959

> <PUBCHEM_SUBSTANCE_COMMENT>
InChI=1S/C21H21N5O3/c1-21(2,29-3)13-24-19(27)16-8-9-18(23-11-16)26-20(28)17(12-25-26)15-6-4-14(10-22)5-7-15/h4-9,11-12,28H,13H2,1-3H3,(H,24,27)
InChIKey=WMLUJJMDWXFQKV-UHFFFAOYSA-N

> <PUBCHEM_SUBSTANCE_SYNONYM>
SCHEMBL16109959

> <PUBCHEM_XREF_EXT_ID>
SCHEMBL16109959

> <PUBCHEM_EXT_DATASOURCE_URL>
https://www.surechembl.org/

> <PUBCHEM_EXT_SUBSTANCE_URL>
https://www.surechembl.org/chemical/SCHEMBL16109959

> <PUBCHEM_CID_ASSOCIATIONS>
117601105  1

> <PUBCHEM_COORDINATE_TYPE>
1
3

$$$$
