310943114
  -OEChem-07211613022D

 22 24  0     0  0  0  0  0  0999 V2000
   -0.3560   -1.8668    0.0000 Cl  0  0  0  0  0  0  0  0  0  0  0  0
   -0.3560    1.4500    0.0000 F   0  0  0  0  0  0  0  0  0  0  0  0
   -3.2213    1.4500    0.0000 O   0  0  0  0  0  0  0  0  0  0  0  0
   -1.7800    0.6165    0.0000 N   0  0  0  0  0  0  0  0  0  0  0  0
   -1.0680   -0.6165    0.0000 N   0  0  0  0  0  0  0  0  0  0  0  0
    1.7973    1.8668    0.0000 N   0  0  0  0  0  0  0  0  0  0  0  0
    3.2213    0.1997    0.0000 N   0  0  0  0  0  0  0  0  0  0  0  0
    0.3734    0.2171    0.0000 C   0  0  0  0  0  0  0  0  0  0  0  0
   -0.3560    0.6338    0.0000 C   0  0  0  0  0  0  0  0  0  0  0  0
   -1.0680    0.2171    0.0000 C   0  0  0  0  0  0  0  0  0  0  0  0
    1.0680    0.6165    0.0000 C   0  0  0  0  0  0  0  0  0  0  0  0
    0.3560   -0.6338    0.0000 C   0  0  0  0  0  0  0  0  0  0  0  0
   -0.3386   -1.0159    0.0000 C   0  0  0  0  0  0  0  0  0  0  0  0
    1.0854    1.4674    0.0000 C   0  0  0  0  0  0  0  0  0  0  0  0
    1.8147    0.2171    0.0000 C   0  0  0  0  0  0  0  0  0  0  0  0
    2.4920    0.6338    0.0000 C   0  0  0  0  0  0  0  0  0  0  0  0
   -1.7800    1.4500    0.0000 C   0  0  0  0  0  0  0  0  0  0  0  0
   -2.4746    0.2171    0.0000 C   0  0  0  0  0  0  0  0  0  0  0  0
    2.5267    1.4326    0.0000 C   0  0  0  0  0  0  0  0  0  0  0  0
   -2.4920    1.8668    0.0000 C   0  0  0  0  0  0  0  0  0  0  0  0
   -3.2040    0.6165    0.0000 C   0  0  0  0  0  0  0  0  0  0  0  0
    0.3560    1.8494    0.0000 C   0  0  0  0  0  0  0  0  0  0  0  0
  1 13  1  0  0  0  0
  2  9  1  0  0  0  0
  3 20  1  0  0  0  0
  3 21  1  0  0  0  0
  4 10  1  0  0  0  0
  4 17  1  0  0  0  0
  4 18  1  0  0  0  0
  5 10  2  0  0  0  0
  5 13  1  0  0  0  0
  6 14  2  0  0  0  0
  6 19  1  0  0  0  0
  7 16  1  0  0  0  0
  8  9  2  0  0  0  0
  8 11  1  0  0  0  0
  8 12  1  0  0  0  0
  9 10  1  0  0  0  0
 11 14  1  0  0  0  0
 11 15  2  0  0  0  0
 12 13  2  0  0  0  0
 14 22  1  0  0  0  0
 15 16  1  0  0  0  0
 16 19  2  0  0  0  0
 17 20  1  0  0  0  0
 18 21  1  0  0  0  0
M  END
> <PUBCHEM_COMPOUND_ID_TYPE>
0

> <PUBCHEM_TOTAL_CHARGE>
0

> <PUBCHEM_SUBSTANCE_ID>
310943114

> <PUBCHEM_SUBSTANCE_VERSION>
1

> <PUBCHEM_EXT_DATASOURCE_NAME>
4488

> <PUBCHEM_EXT_DATASOURCE_REGID>
SCHEMBL16121173

> <PUBCHEM_SUBSTANCE_COMMENT>
InChI=1S/C15H16ClFN4O/c1-9-11(6-10(18)8-19-9)12-7-13(16)20-15(14(12)17)21-2-4-22-5-3-21/h6-8H,2-5,18H2,1H3
InChIKey=KSZOHQNGHRFPLM-UHFFFAOYSA-N

> <PUBCHEM_SUBSTANCE_SYNONYM>
SCHEMBL16121173

> <PUBCHEM_XREF_EXT_ID>
SCHEMBL16121173

> <PUBCHEM_EXT_DATASOURCE_URL>
https://www.surechembl.org/

> <PUBCHEM_EXT_SUBSTANCE_URL>
https://www.surechembl.org/chemical/SCHEMBL16121173

> <PUBCHEM_CID_ASSOCIATIONS>
117609543  1

> <PUBCHEM_COORDINATE_TYPE>
1
3

$$$$
