310944816
  -OEChem-07211613022D

 18 19  0     0  0  0  0  0  0999 V2000
   -0.4272    3.0002    0.0000 O   0  0  0  0  0  0  0  0  0  0  0  0
   -0.1360   -1.7769    0.0000 O   0  0  0  0  0  0  0  0  0  0  0  0
    1.1263   -1.0584    0.0000 O   0  0  0  0  0  0  0  0  0  0  0  0
   -0.1360   -0.3398    0.0000 N   0  0  0  0  0  0  0  0  0  0  0  0
   -0.4272    1.0389    0.0000 C   0  0  0  0  0  0  0  0  0  0  0  0
    0.1942    0.4564    0.0000 C   0  0  0  0  0  0  0  0  0  0  0  0
   -0.9904    1.6021    0.0000 C   0  0  0  0  0  0  0  0  0  0  0  0
    0.1553    1.6215    0.0000 C   0  0  0  0  0  0  0  0  0  0  0  0
   -0.4272    2.1653    0.0000 C   0  0  0  0  0  0  0  0  0  0  0  0
   -1.1263    0.5923    0.0000 C   0  0  0  0  0  0  0  0  0  0  0  0
   -0.9709   -0.2039    0.0000 C   0  0  0  0  0  0  0  0  0  0  0  0
    0.2524   -1.0195    0.0000 C   0  0  0  0  0  0  0  0  0  0  0  0
    0.2718   -2.4953    0.0000 C   0  0  0  0  0  0  0  0  0  0  0  0
    0.0777    3.1944    0.0000 C   0  0  0  0  0  0  0  0  0  0  0  0
   -0.1748   -3.1944    0.0000 C   0  0  0  0  0  0  0  0  0  0  0  0
    0.7185   -3.1944    0.0000 C   0  0  0  0  0  0  0  0  0  0  0  0
    1.1263   -2.4760    0.0000 C   0  0  0  0  0  0  0  0  0  0  0  0
    0.0971    2.7478    0.0000 C   0  0  0  0  0  0  0  0  0  0  0  0
  1  9  1  0  0  0  0
  1 14  1  0  0  0  0
  2 12  1  0  0  0  0
  2 13  1  0  0  0  0
  3 12  2  0  0  0  0
  4  6  1  0  0  0  0
  4 11  1  0  0  0  0
  4 12  1  0  0  0  0
  5  6  1  0  0  0  0
  5  7  1  0  0  0  0
  5  8  1  0  0  0  0
  5 10  1  0  0  0  0
  7  9  1  0  0  0  0
  8  9  1  0  0  0  0
 10 11  1  0  0  0  0
 13 15  1  0  0  0  0
 13 16  1  0  0  0  0
 13 17  1  0  0  0  0
 14 18  1  0  0  0  0
M  END
> <PUBCHEM_COMPOUND_ID_TYPE>
0

> <PUBCHEM_TOTAL_CHARGE>
0

> <PUBCHEM_SUBSTANCE_ID>
310944816

> <PUBCHEM_SUBSTANCE_VERSION>
1

> <PUBCHEM_EXT_DATASOURCE_NAME>
4488

> <PUBCHEM_EXT_DATASOURCE_REGID>
SCHEMBL16122895

> <PUBCHEM_SUBSTANCE_COMMENT>
InChI=1S/C14H25NO3/c1-5-17-11-8-14(9-11)6-7-15(10-14)12(16)18-13(2,3)4/h11H,5-10H2,1-4H3
InChIKey=JFZYVLLOYAOVLK-UHFFFAOYSA-N

> <PUBCHEM_SUBSTANCE_SYNONYM>
SCHEMBL16122895

> <PUBCHEM_XREF_EXT_ID>
SCHEMBL16122895

> <PUBCHEM_EXT_DATASOURCE_URL>
https://www.surechembl.org/

> <PUBCHEM_EXT_SUBSTANCE_URL>
https://www.surechembl.org/chemical/SCHEMBL16122895

> <PUBCHEM_CID_ASSOCIATIONS>
117611026  1

> <PUBCHEM_COORDINATE_TYPE>
1
3

$$$$
