310939038
  -OEChem-07211613022D

  8  7  0     0  0  0  0  0  0999 V2000
   -2.3072   -0.2998    0.0000 S   0  0  0  0  0  0  0  0  0  0  0  0
   -3.0217    0.9377    0.0000 S   0  0  0  0  0  0  0  0  0  0  0  0
   -3.7362   -0.2998    0.0000 P   0  0  0  0  0  0  0  0  0  0  0  0
   -3.7362   -1.1248    0.0000 O   0  0  0  0  0  0  0  0  0  0  0  0
   -3.0217    0.1127    0.0000 C   0  0  0  0  0  0  0  0  0  0  0  0
   -4.4507    0.1127    0.0000 C   0  0  0  0  0  0  0  0  0  0  0  0
   -4.4507   -0.7123    0.0000 C   0  0  0  0  0  0  0  0  0  0  0  0
   -1.5928    0.1127    0.0000 C   0  0  0  0  0  0  0  0  0  0  0  0
  1  5  1  0  0  0  0
  1  8  1  0  0  0  0
  2  5  2  0  0  0  0
  3  4  2  0  0  0  0
  3  5  1  0  0  0  0
  3  6  1  0  0  0  0
  3  7  1  0  0  0  0
M  END
> <PUBCHEM_COMPOUND_ID_TYPE>
0

> <PUBCHEM_TOTAL_CHARGE>
0

> <PUBCHEM_SUBSTANCE_ID>
310939038

> <PUBCHEM_SUBSTANCE_VERSION>
1

> <PUBCHEM_EXT_DATASOURCE_NAME>
4488

> <PUBCHEM_EXT_DATASOURCE_REGID>
SCHEMBL16116957

> <PUBCHEM_SUBSTANCE_COMMENT>
InChI=1S/C4H9OPS2/c1-6(2,5)4(7)8-3/h1-3H3
InChIKey=YQTIVEHPJRAJPK-UHFFFAOYSA-N

> <PUBCHEM_SUBSTANCE_SYNONYM>
SCHEMBL16116957

> <PUBCHEM_XREF_EXT_ID>
SCHEMBL16116957

> <PUBCHEM_EXT_DATASOURCE_URL>
https://www.surechembl.org/

> <PUBCHEM_EXT_SUBSTANCE_URL>
https://www.surechembl.org/chemical/SCHEMBL16116957

> <PUBCHEM_CID_ASSOCIATIONS>
18343721  1

> <PUBCHEM_COORDINATE_TYPE>
1
3

$$$$
