310941985
  -OEChem-07211613022D

 21 24  0     0  0  0  0  0  0999 V2000
   -1.9132   -2.7746    0.0000 F   0  0  0  0  0  0  0  0  0  0  0  0
    0.3812    2.4286    0.0000 O   0  0  0  0  0  0  0  0  0  0  0  0
    2.5134    2.2662    0.0000 O   0  0  0  0  0  0  0  0  0  0  0  0
   -0.4801   -0.2895    0.0000 N   0  0  0  0  0  0  0  0  0  0  0  0
   -0.0636    0.9813    0.0000 C   0  0  0  0  0  0  0  0  0  0  0  0
    0.1836    0.1907    0.0000 C   0  0  0  0  0  0  0  0  0  0  0  0
   -0.9036    0.9883    0.0000 C   0  0  0  0  0  0  0  0  0  0  0  0
    0.4801    1.6167    0.0000 C   0  0  0  0  0  0  0  0  0  0  0  0
   -1.1578    0.1977    0.0000 C   0  0  0  0  0  0  0  0  0  0  0  0
    1.2849    1.4473    0.0000 C   0  0  0  0  0  0  0  0  0  0  0  0
    0.9954    0.0282    0.0000 C   0  0  0  0  0  0  0  0  0  0  0  0
    1.6732    2.1674    0.0000 C   0  0  0  0  0  0  0  0  0  0  0  0
    1.5391    0.6354    0.0000 C   0  0  0  0  0  0  0  0  0  0  0  0
   -1.4473    1.5956    0.0000 C   0  0  0  0  0  0  0  0  0  0  0  0
   -1.9626    0.0212    0.0000 C   0  0  0  0  0  0  0  0  0  0  0  0
    1.1225    2.7746    0.0000 C   0  0  0  0  0  0  0  0  0  0  0  0
   -0.4801   -1.1296    0.0000 C   0  0  0  0  0  0  0  0  0  0  0  0
   -2.2521    1.4261    0.0000 C   0  0  0  0  0  0  0  0  0  0  0  0
   -2.5134    0.6354    0.0000 C   0  0  0  0  0  0  0  0  0  0  0  0
   -1.1861   -1.5320    0.0000 C   0  0  0  0  0  0  0  0  0  0  0  0
   -1.2002   -2.3651    0.0000 C   0  0  0  0  0  0  0  0  0  0  0  0
  1 21  1  0  0  0  0
  2  8  1  0  0  0  0
  2 16  1  0  0  0  0
  3 12  2  0  0  0  0
  4  6  1  0  0  0  0
  4  9  1  0  0  0  0
  4 17  1  0  0  0  0
  5  6  2  0  0  0  0
  5  7  1  0  0  0  0
  5  8  1  0  0  0  0
  6 11  1  0  0  0  0
  7  9  1  0  0  0  0
  7 14  2  0  0  0  0
  8 10  2  0  0  0  0
  9 15  2  0  0  0  0
 10 12  1  0  0  0  0
 10 13  1  0  0  0  0
 11 13  2  0  0  0  0
 12 16  1  0  0  0  0
 14 18  1  0  0  0  0
 15 19  1  0  0  0  0
 17 20  1  0  0  0  0
 18 19  2  0  0  0  0
 20 21  1  0  0  0  0
M  END
> <PUBCHEM_COMPOUND_ID_TYPE>
0

> <PUBCHEM_TOTAL_CHARGE>
0

> <PUBCHEM_SUBSTANCE_ID>
310941985

> <PUBCHEM_SUBSTANCE_VERSION>
1

> <PUBCHEM_EXT_DATASOURCE_NAME>
4488

> <PUBCHEM_EXT_DATASOURCE_REGID>
SCHEMBL16120019

> <PUBCHEM_SUBSTANCE_COMMENT>
InChI=1S/C17H14FNO2/c18-8-3-9-19-13-5-2-1-4-11(13)16-14(19)7-6-12-15(20)10-21-17(12)16/h1-2,4-7H,3,8-10H2
InChIKey=DDBPFPNUQONWCD-UHFFFAOYSA-N

> <PUBCHEM_SUBSTANCE_SYNONYM>
SCHEMBL16120019

> <PUBCHEM_XREF_EXT_ID>
SCHEMBL16120019

> <PUBCHEM_EXT_DATASOURCE_URL>
https://www.surechembl.org/

> <PUBCHEM_EXT_SUBSTANCE_URL>
https://www.surechembl.org/chemical/SCHEMBL16120019

> <PUBCHEM_CID_ASSOCIATIONS>
86273330  1

> <PUBCHEM_COORDINATE_TYPE>
1
3

$$$$
