310932896
  -OEChem-07211613022D

 30 34  0     0  0  0  0  0  0999 V2000
    5.5521   -1.0994    0.0000 O   0  0  0  0  0  0  0  0  0  0  0  0
    0.0000   -2.1714    0.0000 O   0  0  0  0  0  0  0  0  0  0  0  0
    1.4018   -3.0234    0.0000 O   0  0  0  0  0  0  0  0  0  0  0  0
    0.6871   -4.2603    0.0000 O   0  0  0  0  0  0  0  0  0  0  0  0
    1.3193   -2.8310    0.0000 N   0  0  0  0  0  0  0  0  0  0  0  0
    1.3193   -1.5117    0.0000 N   0  0  0  0  0  0  0  0  0  0  0  0
    2.0889   -5.0849    0.0000 N   0  0  0  0  0  0  0  0  0  0  0  0
    2.8310   -5.4971    0.0000 N   0  0  0  0  0  0  0  0  0  0  0  0
    5.1399   -0.3848    0.0000 N   0  0  0  0  0  0  0  0  0  0  0  0
    2.8310   -3.0234    0.0000 C   0  0  0  0  0  0  0  0  0  0  0  0
    2.8310   -3.8480    0.0000 C   0  0  0  0  0  0  0  0  0  0  0  0
    2.0889   -2.6111    0.0000 C   0  0  0  0  0  0  0  0  0  0  0  0
    2.1164   -1.7591    0.0000 C   0  0  0  0  0  0  0  0  0  0  0  0
    3.5456   -1.7866    0.0000 C   0  0  0  0  0  0  0  0  0  0  0  0
    3.5456   -4.2603    0.0000 C   0  0  0  0  0  0  0  0  0  0  0  0
    2.0889   -4.2603    0.0000 C   0  0  0  0  0  0  0  0  0  0  0  0
    3.5182   -2.6386    0.0000 C   0  0  0  0  0  0  0  0  0  0  0  0
    4.2328   -1.3743    0.0000 C   0  0  0  0  0  0  0  0  0  0  0  0
    2.8310   -1.3743    0.0000 C   0  0  0  0  0  0  0  0  0  0  0  0
    3.5456   -5.0849    0.0000 C   0  0  0  0  0  0  0  0  0  0  0  0
    0.8246   -2.1714    0.0000 C   0  0  0  0  0  0  0  0  0  0  0  0
    5.0024   -1.7041    0.0000 C   0  0  0  0  0  0  0  0  0  0  0  0
    4.3427   -0.5497    0.0000 C   0  0  0  0  0  0  0  0  0  0  0  0
    1.3743   -3.8480    0.0000 C   0  0  0  0  0  0  0  0  0  0  0  0
    4.2328   -3.8480    0.0000 C   0  0  0  0  0  0  0  0  0  0  0  0
    4.2328   -5.4971    0.0000 C   0  0  0  0  0  0  0  0  0  0  0  0
    4.9474   -4.2603    0.0000 C   0  0  0  0  0  0  0  0  0  0  0  0
    4.9474   -5.0849    0.0000 C   0  0  0  0  0  0  0  0  0  0  0  0
    5.1674   -2.5012    0.0000 C   0  0  0  0  0  0  0  0  0  0  0  0
    3.7381    0.0000    0.0000 C   0  0  0  0  0  0  0  0  0  0  0  0
  1  9  1  0  0  0  0
  1 22  1  0  0  0  0
  2 21  2  0  0  0  0
  3 24  2  0  0  0  0
  4 24  1  0  0  0  0
  5 12  1  0  0  0  0
  5 21  1  0  0  0  0
  6 13  1  0  0  0  0
  6 21  1  0  0  0  0
  7  8  2  0  0  0  0
  7 16  1  0  0  0  0
  8 20  1  0  0  0  0
  9 23  2  0  0  0  0
 10 11  1  0  0  0  0
 10 12  1  0  0  0  0
 10 17  2  0  0  0  0
 11 15  1  0  0  0  0
 11 16  2  0  0  0  0
 12 13  2  0  0  0  0
 13 19  1  0  0  0  0
 14 17  1  0  0  0  0
 14 18  1  0  0  0  0
 14 19  2  0  0  0  0
 15 20  2  0  0  0  0
 15 25  1  0  0  0  0
 16 24  1  0  0  0  0
 18 22  2  0  0  0  0
 18 23  1  0  0  0  0
 20 26  1  0  0  0  0
 22 29  1  0  0  0  0
 23 30  1  0  0  0  0
 25 27  2  0  0  0  0
 26 28  2  0  0  0  0
 27 28  1  0  0  0  0
M  END
> <PUBCHEM_COMPOUND_ID_TYPE>
0

> <PUBCHEM_TOTAL_CHARGE>
0

> <PUBCHEM_SUBSTANCE_ID>
310932896

> <PUBCHEM_SUBSTANCE_VERSION>
1

> <PUBCHEM_EXT_DATASOURCE_NAME>
4488

> <PUBCHEM_EXT_DATASOURCE_REGID>
SCHEMBL16110289

> <PUBCHEM_SUBSTANCE_COMMENT>
InChI=1S/C21H15N5O4/c1-9-16(10(2)30-26-9)11-7-13(18-15(8-11)22-21(29)23-18)17-12-5-3-4-6-14(12)24-25-19(17)20(27)28/h3-8H,1-2H3,(H,27,28)(H2,22,23,29)
InChIKey=UDXDRIZUQGEKSE-UHFFFAOYSA-N

> <PUBCHEM_SUBSTANCE_SYNONYM>
SCHEMBL16110289

> <PUBCHEM_XREF_EXT_ID>
SCHEMBL16110289

> <PUBCHEM_EXT_DATASOURCE_URL>
https://www.surechembl.org/

> <PUBCHEM_EXT_SUBSTANCE_URL>
https://www.surechembl.org/chemical/SCHEMBL16110289

> <PUBCHEM_CID_ASSOCIATIONS>
117601378  1

> <PUBCHEM_COORDINATE_TYPE>
1
3

$$$$
