310933489
  -OEChem-07211613022D

 13 14  0     0  0  0  0  0  0999 V2000
    2.8212   -2.4792    0.0000 Br  0  0  0  0  0  0  0  0  0  0  0  0
    0.0000    0.0000    0.0000 O   0  0  0  0  0  0  0  0  0  0  0  0
    1.4248    0.0000    0.0000 N   0  0  0  0  0  0  0  0  0  0  0  0
    2.1372   -1.2396    0.0000 C   0  0  0  0  0  0  0  0  0  0  0  0
    2.1372   -0.4132    0.0000 C   0  0  0  0  0  0  0  0  0  0  0  0
    2.8354   -1.6528    0.0000 C   0  0  0  0  0  0  0  0  0  0  0  0
    3.5478   -1.2396    0.0000 C   0  0  0  0  0  0  0  0  0  0  0  0
    1.4248   -1.6528    0.0000 C   0  0  0  0  0  0  0  0  0  0  0  0
    2.8354    0.0000    0.0000 C   0  0  0  0  0  0  0  0  0  0  0  0
    0.6981   -0.4132    0.0000 C   0  0  0  0  0  0  0  0  0  0  0  0
    3.5478   -0.4132    0.0000 C   0  0  0  0  0  0  0  0  0  0  0  0
    0.6981   -1.2396    0.0000 C   0  0  0  0  0  0  0  0  0  0  0  0
    4.2744   -1.6528    0.0000 C   0  0  0  0  0  0  0  0  0  0  0  0
  1  6  1  0  0  0  0
  2 10  2  0  0  0  0
  3  5  1  0  0  0  0
  3 10  1  0  0  0  0
  4  5  2  0  0  0  0
  4  6  1  0  0  0  0
  4  8  1  0  0  0  0
  5  9  1  0  0  0  0
  6  7  2  0  0  0  0
  7 11  1  0  0  0  0
  7 13  1  0  0  0  0
  8 12  1  0  0  0  0
  9 11  2  0  0  0  0
 10 12  1  0  0  0  0
M  END
> <PUBCHEM_COMPOUND_ID_TYPE>
0

> <PUBCHEM_TOTAL_CHARGE>
0

> <PUBCHEM_SUBSTANCE_ID>
310933489

> <PUBCHEM_SUBSTANCE_VERSION>
1

> <PUBCHEM_EXT_DATASOURCE_NAME>
4488

> <PUBCHEM_EXT_DATASOURCE_REGID>
SCHEMBL16110909

> <PUBCHEM_SUBSTANCE_COMMENT>
InChI=1S/C10H10BrNO/c1-6-2-4-8-7(10(6)11)3-5-9(13)12-8/h2,4H,3,5H2,1H3,(H,12,13)
InChIKey=ISUKOMCZWYUGTN-UHFFFAOYSA-N

> <PUBCHEM_SUBSTANCE_SYNONYM>
SCHEMBL16110909

> <PUBCHEM_XREF_EXT_ID>
SCHEMBL16110909

> <PUBCHEM_EXT_DATASOURCE_URL>
https://www.surechembl.org/

> <PUBCHEM_EXT_SUBSTANCE_URL>
https://www.surechembl.org/chemical/SCHEMBL16110909

> <PUBCHEM_CID_ASSOCIATIONS>
117601883  1

> <PUBCHEM_COORDINATE_TYPE>
1
3

$$$$
