310937042
  -OEChem-07211613022D

 21 24  0     0  0  0  0  0  0999 V2000
   -2.4377    2.2238    0.0000 O   0  0  0  0  0  0  0  0  0  0  0  0
   -1.1004   -0.3019    0.0000 N   0  0  0  0  0  0  0  0  0  0  0  0
    2.2244   -0.7427    0.0000 N   0  0  0  0  0  0  0  0  0  0  0  0
   -0.4511   -0.8109    0.0000 C   0  0  0  0  0  0  0  0  0  0  0  0
   -0.7347   -1.5857    0.0000 C   0  0  0  0  0  0  0  0  0  0  0  0
    0.3733   -0.8411    0.0000 C   0  0  0  0  0  0  0  0  0  0  0  0
    0.5993   -1.6346    0.0000 C   0  0  0  0  0  0  0  0  0  0  0  0
   -0.0854   -2.0947    0.0000 C   0  0  0  0  0  0  0  0  0  0  0  0
   -1.0701    0.5226    0.0000 C   0  0  0  0  0  0  0  0  0  0  0  0
   -1.7851   -0.7620    0.0000 C   0  0  0  0  0  0  0  0  0  0  0  0
   -1.5591   -1.5554    0.0000 C   0  0  0  0  0  0  0  0  0  0  0  0
    0.8527   -0.1697    0.0000 C   0  0  0  0  0  0  0  0  0  0  0  0
    1.3606   -1.9525    0.0000 C   0  0  0  0  0  0  0  0  0  0  0  0
   -1.7690    0.9610    0.0000 C   0  0  0  0  0  0  0  0  0  0  0  0
   -0.3410    0.9086    0.0000 C   0  0  0  0  0  0  0  0  0  0  0  0
   -1.7388    1.7854    0.0000 C   0  0  0  0  0  0  0  0  0  0  0  0
    1.6765   -0.1259    0.0000 C   0  0  0  0  0  0  0  0  0  0  0  0
    2.0838   -1.5556    0.0000 C   0  0  0  0  0  0  0  0  0  0  0  0
   -0.3108    1.7331    0.0000 C   0  0  0  0  0  0  0  0  0  0  0  0
   -1.0097    2.1715    0.0000 C   0  0  0  0  0  0  0  0  0  0  0  0
   -2.4075    3.0483    0.0000 C   0  0  0  0  0  0  0  0  0  0  0  0
  1 16  1  0  0  0  0
  1 21  1  0  0  0  0
  2  4  1  0  0  0  0
  2  9  1  0  0  0  0
  2 10  1  0  0  0  0
  3 17  2  0  0  0  0
  3 18  1  0  0  0  0
  4  5  2  0  0  0  0
  4  6  1  0  0  0  0
  5  8  1  0  0  0  0
  5 11  1  0  0  0  0
  6  7  1  0  0  0  0
  6 12  2  0  0  0  0
  7  8  2  0  0  0  0
  7 13  1  0  0  0  0
  9 14  2  0  0  0  0
  9 15  1  0  0  0  0
 10 11  2  0  0  0  0
 12 17  1  0  0  0  0
 13 18  2  0  0  0  0
 14 16  1  0  0  0  0
 15 19  2  0  0  0  0
 16 20  2  0  0  0  0
 19 20  1  0  0  0  0
M  END
> <PUBCHEM_COMPOUND_ID_TYPE>
0

> <PUBCHEM_TOTAL_CHARGE>
0

> <PUBCHEM_SUBSTANCE_ID>
310937042

> <PUBCHEM_SUBSTANCE_VERSION>
1

> <PUBCHEM_EXT_DATASOURCE_NAME>
4488

> <PUBCHEM_EXT_DATASOURCE_REGID>
SCHEMBL16114752

> <PUBCHEM_SUBSTANCE_COMMENT>
InChI=1S/C18H14N2O/c1-21-16-4-2-3-15(12-16)20-10-7-14-11-13-5-8-19-9-6-17(13)18(14)20/h2-12H,1H3
InChIKey=KZAFUCYLRQILRU-UHFFFAOYSA-N

> <PUBCHEM_SUBSTANCE_SYNONYM>
SCHEMBL16114752

> <PUBCHEM_XREF_EXT_ID>
SCHEMBL16114752

> <PUBCHEM_EXT_DATASOURCE_URL>
https://www.surechembl.org/

> <PUBCHEM_EXT_SUBSTANCE_URL>
https://www.surechembl.org/chemical/SCHEMBL16114752

> <PUBCHEM_CID_ASSOCIATIONS>
117604888  1

> <PUBCHEM_COORDINATE_TYPE>
1
3

$$$$
