310935356
  -OEChem-07211613022D

 26 28  0     0  0  0  0  0  0999 V2000
    7.4727   -0.8469    0.0000 F   0  0  0  0  0  0  0  0  0  0  0  0
    3.6616   -0.1993    0.0000 O   0  0  0  0  0  0  0  0  0  0  0  0
    0.7473   -1.6938    0.0000 O   0  0  0  0  0  0  0  0  0  0  0  0
    3.3627   -2.9143    0.0000 O   0  0  0  0  0  0  0  0  0  0  0  0
    4.7078   -2.4660    0.0000 O   0  0  0  0  0  0  0  0  0  0  0  0
    2.8645   -1.2703    0.0000 C   0  0  0  0  0  0  0  0  0  0  0  0
    3.6616   -1.5194    0.0000 C   0  0  0  0  0  0  0  0  0  0  0  0
    4.1598   -0.8469    0.0000 C   0  0  0  0  0  0  0  0  0  0  0  0
    2.8645   -0.4235    0.0000 C   0  0  0  0  0  0  0  0  0  0  0  0
    2.1422   -1.6689    0.0000 C   0  0  0  0  0  0  0  0  0  0  0  0
    4.9818   -0.8469    0.0000 C   0  0  0  0  0  0  0  0  0  0  0  0
    1.4447   -1.2703    0.0000 C   0  0  0  0  0  0  0  0  0  0  0  0
    2.1422   -0.0249    0.0000 C   0  0  0  0  0  0  0  0  0  0  0  0
    1.4447   -0.4235    0.0000 C   0  0  0  0  0  0  0  0  0  0  0  0
    3.9107   -2.2916    0.0000 C   0  0  0  0  0  0  0  0  0  0  0  0
    5.4052   -0.1245    0.0000 C   0  0  0  0  0  0  0  0  0  0  0  0
    5.4052   -1.5693    0.0000 C   0  0  0  0  0  0  0  0  0  0  0  0
    0.7473    0.0000    0.0000 C   0  0  0  0  0  0  0  0  0  0  0  0
    6.2272   -0.1245    0.0000 C   0  0  0  0  0  0  0  0  0  0  0  0
    6.2272   -1.5693    0.0000 C   0  0  0  0  0  0  0  0  0  0  0  0
    6.6507   -0.8469    0.0000 C   0  0  0  0  0  0  0  0  0  0  0  0
    0.7224   -2.5407    0.0000 C   0  0  0  0  0  0  0  0  0  0  0  0
    0.0249   -0.4235    0.0000 C   0  0  0  0  0  0  0  0  0  0  0  0
    0.0000   -2.9393    0.0000 C   0  0  0  0  0  0  0  0  0  0  0  0
    1.4447   -2.9393    0.0000 C   0  0  0  0  0  0  0  0  0  0  0  0
    0.0249   -1.2455    0.0000 C   0  0  0  0  0  0  0  0  0  0  0  0
  1 21  1  0  0  0  0
  2  8  1  0  0  0  0
  2  9  1  0  0  0  0
  3 12  1  0  0  0  0
  3 22  1  0  0  0  0
  4 15  2  0  0  0  0
  5 15  1  0  0  0  0
  6  7  1  0  0  0  0
  6  9  2  0  0  0  0
  6 10  1  0  0  0  0
  7  8  2  0  0  0  0
  7 15  1  0  0  0  0
  8 11  1  0  0  0  0
  9 13  1  0  0  0  0
 10 12  2  0  0  0  0
 11 16  2  0  0  0  0
 11 17  1  0  0  0  0
 12 14  1  0  0  0  0
 13 14  2  0  0  0  0
 14 18  1  0  0  0  0
 16 19  1  0  0  0  0
 17 20  2  0  0  0  0
 18 23  1  0  0  0  0
 19 21  2  0  0  0  0
 20 21  1  0  0  0  0
 22 24  1  0  0  0  0
 22 25  1  0  0  0  0
 23 26  1  0  0  0  0
M  END
> <PUBCHEM_COMPOUND_ID_TYPE>
0

> <PUBCHEM_TOTAL_CHARGE>
0

> <PUBCHEM_SUBSTANCE_ID>
310935356

> <PUBCHEM_SUBSTANCE_VERSION>
1

> <PUBCHEM_EXT_DATASOURCE_NAME>
4488

> <PUBCHEM_EXT_DATASOURCE_REGID>
SCHEMBL16112894

> <PUBCHEM_SUBSTANCE_COMMENT>
InChI=1S/C21H21FO4/c1-4-5-14-10-18-16(11-17(14)25-12(2)3)19(21(23)24)20(26-18)13-6-8-15(22)9-7-13/h6-12H,4-5H2,1-3H3,(H,23,24)
InChIKey=NKBHAFXSAPEALC-UHFFFAOYSA-N

> <PUBCHEM_SUBSTANCE_SYNONYM>
SCHEMBL16112894

> <PUBCHEM_XREF_EXT_ID>
SCHEMBL16112894

> <PUBCHEM_EXT_DATASOURCE_URL>
https://www.surechembl.org/

> <PUBCHEM_EXT_SUBSTANCE_URL>
https://www.surechembl.org/chemical/SCHEMBL16112894

> <PUBCHEM_CID_ASSOCIATIONS>
117603410  1

> <PUBCHEM_COORDINATE_TYPE>
1
3

$$$$
