310947250
  -OEChem-07211613022D

 38 43  0     0  0  0  0  0  0999 V2000
   -1.4608    2.4894    0.0000 O   0  0  0  0  0  0  0  0  0  0  0  0
   -2.1753    1.2519    0.0000 N   0  0  0  0  0  0  0  0  0  0  0  0
    1.4672    0.1720    0.0000 N   0  0  0  0  0  0  0  0  0  0  0  0
    1.9522    0.8394    0.0000 N   0  0  0  0  0  0  0  0  0  0  0  0
   -2.8897    1.6644    0.0000 C   0  0  0  0  0  0  0  0  0  0  0  0
   -3.6042    1.2519    0.0000 C   0  0  0  0  0  0  0  0  0  0  0  0
   -2.4772    2.3789    0.0000 C   0  0  0  0  0  0  0  0  0  0  0  0
   -3.3022    2.3789    0.0000 C   0  0  0  0  0  0  0  0  0  0  0  0
    0.6826    1.2519    0.0000 C   0  0  0  0  0  0  0  0  0  0  0  0
    0.6826    0.4269    0.0000 C   0  0  0  0  0  0  0  0  0  0  0  0
   -1.4608    1.6644    0.0000 C   0  0  0  0  0  0  0  0  0  0  0  0
   -0.7463    1.2519    0.0000 C   0  0  0  0  0  0  0  0  0  0  0  0
    1.4672    1.5069    0.0000 C   0  0  0  0  0  0  0  0  0  0  0  0
   -0.0319    1.6644    0.0000 C   0  0  0  0  0  0  0  0  0  0  0  0
   -4.3187    1.6644    0.0000 C   0  0  0  0  0  0  0  0  0  0  0  0
   -3.6042    0.4269    0.0000 C   0  0  0  0  0  0  0  0  0  0  0  0
   -0.0319    0.0144    0.0000 C   0  0  0  0  0  0  0  0  0  0  0  0
   -0.7463    0.4269    0.0000 C   0  0  0  0  0  0  0  0  0  0  0  0
   -5.0332    1.2519    0.0000 C   0  0  0  0  0  0  0  0  0  0  0  0
    1.6808   -0.6249    0.0000 C   0  0  0  0  0  0  0  0  0  0  0  0
   -4.3187    0.0144    0.0000 C   0  0  0  0  0  0  0  0  0  0  0  0
   -5.0332    0.4269    0.0000 C   0  0  0  0  0  0  0  0  0  0  0  0
    2.4777   -0.8384    0.0000 C   0  0  0  0  0  0  0  0  0  0  0  0
   -5.7476    1.6644    0.0000 C   0  0  0  0  0  0  0  0  0  0  0  0
    1.8797    2.2213    0.0000 C   0  0  0  0  0  0  0  0  0  0  0  0
    2.6912   -1.6353    0.0000 C   0  0  0  0  0  0  0  0  0  0  0  0
    3.0610   -0.2551    0.0000 C   0  0  0  0  0  0  0  0  0  0  0  0
    4.0714   -1.2655    0.0000 C   0  0  0  0  0  0  0  0  0  0  0  0
    3.4881   -1.8488    0.0000 C   0  0  0  0  0  0  0  0  0  0  0  0
    3.8579   -0.4686    0.0000 C   0  0  0  0  0  0  0  0  0  0  0  0
    4.8683   -1.4790    0.0000 C   0  0  0  0  0  0  0  0  0  0  0  0
   -6.4621    1.2519    0.0000 C   0  0  0  0  0  0  0  0  0  0  0  0
   -5.7476    2.4894    0.0000 C   0  0  0  0  0  0  0  0  0  0  0  0
    5.0818   -2.2759    0.0000 C   0  0  0  0  0  0  0  0  0  0  0  0
    5.4517   -0.8956    0.0000 C   0  0  0  0  0  0  0  0  0  0  0  0
    5.8787   -2.4894    0.0000 C   0  0  0  0  0  0  0  0  0  0  0  0
    6.2486   -1.1092    0.0000 C   0  0  0  0  0  0  0  0  0  0  0  0
    6.4621   -1.9061    0.0000 C   0  0  0  0  0  0  0  0  0  0  0  0
  1 11  2  0  0  0  0
  2  5  1  0  0  0  0
  2 11  1  0  0  0  0
  3  4  1  0  0  0  0
  3 10  1  0  0  0  0
  3 20  1  0  0  0  0
  4 13  2  0  0  0  0
  5  6  1  0  0  0  0
  5  7  1  0  0  0  0
  5  8  1  0  0  0  0
  6 15  2  0  0  0  0
  6 16  1  0  0  0  0
  7  8  1  0  0  0  0
  9 10  1  0  0  0  0
  9 13  1  0  0  0  0
  9 14  2  0  0  0  0
 10 17  2  0  0  0  0
 11 12  1  0  0  0  0
 12 14  1  0  0  0  0
 12 18  2  0  0  0  0
 13 25  1  0  0  0  0
 15 19  1  0  0  0  0
 16 21  2  0  0  0  0
 17 18  1  0  0  0  0
 19 22  2  0  0  0  0
 19 24  1  0  0  0  0
 20 23  1  0  0  0  0
 21 22  1  0  0  0  0
 23 26  2  0  0  0  0
 23 27  1  0  0  0  0
 24 32  1  0  0  0  0
 24 33  1  0  0  0  0
 26 29  1  0  0  0  0
 27 30  2  0  0  0  0
 28 29  2  0  0  0  0
 28 30  1  0  0  0  0
 28 31  1  0  0  0  0
 31 34  2  0  0  0  0
 31 35  1  0  0  0  0
 34 36  1  0  0  0  0
 35 37  2  0  0  0  0
 36 38  2  0  0  0  0
 37 38  1  0  0  0  0
M  END
> <PUBCHEM_COMPOUND_ID_TYPE>
0

> <PUBCHEM_TOTAL_CHARGE>
0

> <PUBCHEM_SUBSTANCE_ID>
310947250

> <PUBCHEM_SUBSTANCE_VERSION>
1

> <PUBCHEM_EXT_DATASOURCE_NAME>
4488

> <PUBCHEM_EXT_DATASOURCE_REGID>
SCHEMBL16125405

> <PUBCHEM_SUBSTANCE_COMMENT>
InChI=1S/C34H33N3O/c1-23(2)28-10-7-11-30(20-28)34(18-19-34)35-33(38)29-16-17-32-31(21-29)24(3)36-37(32)22-25-12-14-27(15-13-25)26-8-5-4-6-9-26/h4-17,20-21,23H,18-19,22H2,1-3H3,(H,35,38)
InChIKey=ZONNSQRRMVIOEF-UHFFFAOYSA-N

> <PUBCHEM_SUBSTANCE_SYNONYM>
SCHEMBL16125405

> <PUBCHEM_XREF_EXT_ID>
SCHEMBL16125405

> <PUBCHEM_EXT_DATASOURCE_URL>
https://www.surechembl.org/

> <PUBCHEM_EXT_SUBSTANCE_URL>
https://www.surechembl.org/chemical/SCHEMBL16125405

> <PUBCHEM_CID_ASSOCIATIONS>
117613059  1

> <PUBCHEM_COORDINATE_TYPE>
1
3

$$$$
