310948249
  -OEChem-07211613022D

 42 46  0     0  0  0  0  0  0999 V2000
   -4.5128    1.0508    0.0000 Cl  0  0  0  0  0  0  0  0  0  0  0  0
    2.4862   -1.8764    0.0000 S   0  0  0  0  0  0  0  0  0  0  0  0
   -3.8185    2.2329    0.0000 F   0  0  0  0  0  0  0  0  0  0  0  0
   -3.1992    3.1899    0.0000 F   0  0  0  0  0  0  0  0  0  0  0  0
   -2.2423    2.5519    0.0000 F   0  0  0  0  0  0  0  0  0  0  0  0
    3.7435    0.7506    0.0000 F   0  0  0  0  0  0  0  0  0  0  0  0
    4.5128   -0.3941    0.0000 F   0  0  0  0  0  0  0  0  0  0  0  0
   -1.1540    1.5387    0.0000 O   0  0  0  0  0  0  0  0  0  0  0  0
    3.0491   -0.4129    0.0000 O   0  0  0  0  0  0  0  0  0  0  0  0
    3.3119   -2.0452    0.0000 O   0  0  0  0  0  0  0  0  0  0  0  0
    1.7731   -1.6887    0.0000 O   0  0  0  0  0  0  0  0  0  0  0  0
   -2.1860    0.4129    0.0000 N   0  0  0  0  0  0  0  0  0  0  0  0
   -2.0922    1.2384    0.0000 N   0  0  0  0  0  0  0  0  0  0  0  0
    0.0657    2.1016    0.0000 N   0  0  0  0  0  0  0  0  0  0  0  0
    2.3173    0.8443    0.0000 N   0  0  0  0  0  0  0  0  0  0  0  0
   -0.7787    0.1126    0.0000 C   0  0  0  0  0  0  0  0  0  0  0  0
   -1.5481   -0.1501    0.0000 C   0  0  0  0  0  0  0  0  0  0  0  0
   -0.5910    0.9382    0.0000 C   0  0  0  0  0  0  0  0  0  0  0  0
    0.1595    1.2760    0.0000 C   0  0  0  0  0  0  0  0  0  0  0  0
   -2.8615    1.5950    0.0000 C   0  0  0  0  0  0  0  0  0  0  0  0
   -0.1595   -0.4503    0.0000 C   0  0  0  0  0  0  0  0  0  0  0  0
   -0.3284   -1.2572    0.0000 C   0  0  0  0  0  0  0  0  0  0  0  0
   -3.4057    0.9570    0.0000 C   0  0  0  0  0  0  0  0  0  0  0  0
   -2.9928    0.2440    0.0000 C   0  0  0  0  0  0  0  0  0  0  0  0
   -1.7169   -0.9757    0.0000 C   0  0  0  0  0  0  0  0  0  0  0  0
    0.8912    0.8631    0.0000 C   0  0  0  0  0  0  0  0  0  0  0  0
   -3.0303    2.4018    0.0000 C   0  0  0  0  0  0  0  0  0  0  0  0
   -0.7411    2.2892    0.0000 C   0  0  0  0  0  0  0  0  0  0  0  0
   -1.1165   -1.5011    0.0000 C   0  0  0  0  0  0  0  0  0  0  0  0
    0.3097   -1.8201    0.0000 C   0  0  0  0  0  0  0  0  0  0  0  0
    1.0977   -1.5950    0.0000 C   0  0  0  0  0  0  0  0  0  0  0  0
    1.5856    1.2572    0.0000 C   0  0  0  0  0  0  0  0  0  0  0  0
    0.8912    0.0188    0.0000 C   0  0  0  0  0  0  0  0  0  0  0  0
    1.7169   -2.1203    0.0000 C   0  0  0  0  0  0  0  0  0  0  0  0
    0.1408   -2.6458    0.0000 C   0  0  0  0  0  0  0  0  0  0  0  0
   -1.0601    3.0398    0.0000 C   0  0  0  0  0  0  0  0  0  0  0  0
    2.3173    0.0188    0.0000 C   0  0  0  0  0  0  0  0  0  0  0  0
    1.6231   -0.3941    0.0000 C   0  0  0  0  0  0  0  0  0  0  0  0
    1.5293   -2.9459    0.0000 C   0  0  0  0  0  0  0  0  0  0  0  0
    0.7411   -3.1899    0.0000 C   0  0  0  0  0  0  0  0  0  0  0  0
    2.6739   -1.0320    0.0000 C   0  0  0  0  0  0  0  0  0  0  0  0
    3.7622    0.0000    0.0000 C   0  0  0  0  0  0  0  0  0  0  0  0
  1 23  1  0  0  0  0
  2 10  2  0  0  0  0
  2 11  2  0  0  0  0
  2 34  1  0  0  0  0
  2 41  1  0  0  0  0
  3 27  1  0  0  0  0
  4 27  1  0  0  0  0
  5 27  1  0  0  0  0
  6 42  1  0  0  0  0
  7 42  1  0  0  0  0
  8 18  1  0  0  0  0
  8 28  1  0  0  0  0
  9 37  1  0  0  0  0
  9 42  1  0  0  0  0
 12 13  1  0  0  0  0
 12 17  1  0  0  0  0
 12 24  1  0  0  0  0
 13 20  2  0  0  0  0
 14 19  1  0  0  0  0
 14 28  2  0  0  0  0
 15 32  1  0  0  0  0
 15 37  2  0  0  0  0
 16 17  1  0  0  0  0
 16 18  1  0  0  0  0
 16 21  2  0  0  0  0
 17 25  2  0  0  0  0
 18 19  2  0  0  0  0
 19 26  1  0  0  0  0
 20 23  1  0  0  0  0
 20 27  1  0  0  0  0
 21 22  1  0  0  0  0
 22 29  2  0  0  0  0
 22 30  1  0  0  0  0
 23 24  2  0  0  0  0
 25 29  1  0  0  0  0
 26 32  2  0  0  0  0
 26 33  1  0  0  0  0
 28 36  1  0  0  0  0
 30 31  1  0  0  0  0
 30 35  2  0  0  0  0
 31 34  2  0  0  0  0
 33 38  2  0  0  0  0
 34 39  1  0  0  0  0
 35 40  1  0  0  0  0
 37 38  1  0  0  0  0
 39 40  2  0  0  0  0
M  END
> <PUBCHEM_COMPOUND_ID_TYPE>
0

> <PUBCHEM_TOTAL_CHARGE>
0

> <PUBCHEM_SUBSTANCE_ID>
310948249

> <PUBCHEM_SUBSTANCE_VERSION>
1

> <PUBCHEM_EXT_DATASOURCE_NAME>
4488

> <PUBCHEM_EXT_DATASOURCE_REGID>
SCHEMBL16126426

> <PUBCHEM_SUBSTANCE_COMMENT>
InChI=1S/C27H18ClF5N4O4S/c1-14-35-23(17-7-9-22(34-12-17)41-26(29)30)24(40-14)19-11-16(15-4-3-5-18(10-15)42(2,38)39)6-8-21(19)37-13-20(28)25(36-37)27(31,32)33/h3-13,26H,1-2H3
InChIKey=CZENESHJVNHAHQ-UHFFFAOYSA-N

> <PUBCHEM_SUBSTANCE_SYNONYM>
SCHEMBL16126426

> <PUBCHEM_XREF_EXT_ID>
SCHEMBL16126426

> <PUBCHEM_EXT_DATASOURCE_URL>
https://www.surechembl.org/

> <PUBCHEM_EXT_SUBSTANCE_URL>
https://www.surechembl.org/chemical/SCHEMBL16126426

> <PUBCHEM_CID_ASSOCIATIONS>
117613829  1

> <PUBCHEM_COORDINATE_TYPE>
1
3

$$$$
