310943116
  -OEChem-07211613022D

 14 14  0     0  0  0  0  0  0999 V2000
    2.4905   -0.0157    0.0000 O   0  0  0  0  0  0  0  0  0  0  0  0
   -1.7722   -0.0157    0.0000 O   0  0  0  0  0  0  0  0  0  0  0  0
   -1.0696    1.2023    0.0000 O   0  0  0  0  0  0  0  0  0  0  0  0
    1.0539   -0.8275    0.0000 N   0  0  0  0  0  0  0  0  0  0  0  0
    1.0696    0.0000    0.0000 C   0  0  0  0  0  0  0  0  0  0  0  0
    1.7879    0.4060    0.0000 C   0  0  0  0  0  0  0  0  0  0  0  0
   -0.3513    0.0000    0.0000 C   0  0  0  0  0  0  0  0  0  0  0  0
    0.3357    0.3903    0.0000 C   0  0  0  0  0  0  0  0  0  0  0  0
   -1.0696    0.3903    0.0000 C   0  0  0  0  0  0  0  0  0  0  0  0
   -0.3513   -0.8275    0.0000 C   0  0  0  0  0  0  0  0  0  0  0  0
    0.3825   -1.2179    0.0000 C   0  0  0  0  0  0  0  0  0  0  0  0
    1.7722    1.2179    0.0000 C   0  0  0  0  0  0  0  0  0  0  0  0
    2.5061    0.8119    0.0000 C   0  0  0  0  0  0  0  0  0  0  0  0
   -2.5061    0.3903    0.0000 C   0  0  0  0  0  0  0  0  0  0  0  0
  1  6  1  0  0  0  0
  2  9  1  0  0  0  0
  2 14  1  0  0  0  0
  3  9  2  0  0  0  0
  4  5  1  0  0  0  0
  4 11  2  0  0  0  0
  5  6  1  0  0  0  0
  5  8  2  0  0  0  0
  6 12  1  0  0  0  0
  6 13  1  0  0  0  0
  7  8  1  0  0  0  0
  7  9  1  0  0  0  0
  7 10  2  0  0  0  0
 10 11  1  0  0  0  0
M  END
> <PUBCHEM_COMPOUND_ID_TYPE>
0

> <PUBCHEM_TOTAL_CHARGE>
0

> <PUBCHEM_SUBSTANCE_ID>
310943116

> <PUBCHEM_SUBSTANCE_VERSION>
1

> <PUBCHEM_EXT_DATASOURCE_NAME>
4488

> <PUBCHEM_EXT_DATASOURCE_REGID>
SCHEMBL16121175

> <PUBCHEM_SUBSTANCE_COMMENT>
InChI=1S/C10H13NO3/c1-10(2,13)8-6-7(4-5-11-8)9(12)14-3/h4-6,13H,1-3H3
InChIKey=GXYZIIZPZSMKTI-UHFFFAOYSA-N

> <PUBCHEM_SUBSTANCE_SYNONYM>
SCHEMBL16121175

> <PUBCHEM_XREF_EXT_ID>
SCHEMBL16121175

> <PUBCHEM_EXT_DATASOURCE_URL>
https://www.surechembl.org/

> <PUBCHEM_EXT_SUBSTANCE_URL>
https://www.surechembl.org/chemical/SCHEMBL16121175

> <PUBCHEM_CID_ASSOCIATIONS>
117609546  1

> <PUBCHEM_COORDINATE_TYPE>
1
3

$$$$
