310949872
  -OEChem-07211613022D

 28 32  0     1  0  0  0  0  0999 V2000
   -3.2007    1.2401    0.0000 F   0  0  0  0  0  0  0  0  0  0  0  0
   -0.2494    1.3925    0.0000 N   0  0  0  0  0  0  0  0  0  0  0  0
   -0.2494    2.7365    0.0000 N   0  0  0  0  0  0  0  0  0  0  0  0
    0.5126   -0.9630    0.0000 N   0  0  0  0  0  0  0  0  0  0  0  0
    2.3417    1.6558    0.0000 N   0  0  0  0  0  0  0  0  0  0  0  0
   -1.0530    1.6697    0.0000 C   0  0  0  0  0  0  0  0  0  0  0  0
    0.2217    2.0714    0.0000 C   0  0  0  0  0  0  0  0  0  0  0  0
   -1.0530    2.4871    0.0000 C   0  0  0  0  0  0  0  0  0  0  0  0
    0.0000    0.6166    0.0000 C   0  0  0  0  0  0  0  0  0  0  0  0
    1.0669    2.0576    0.0000 C   0  0  3  0  0  0  0  0  0  0  0  0
   -1.7597    1.2401    0.0000 C   0  0  0  0  0  0  0  0  0  0  0  0
   -1.7735    2.8890    0.0000 C   0  0  0  0  0  0  0  0  0  0  0  0
   -2.4802    1.6558    0.0000 C   0  0  0  0  0  0  0  0  0  0  0  0
   -0.5404   -0.0208    0.0000 C   0  0  0  0  0  0  0  0  0  0  0  0
    0.8175    0.4364    0.0000 C   0  0  0  0  0  0  0  0  0  0  0  0
   -2.4802    2.4871    0.0000 C   0  0  0  0  0  0  0  0  0  0  0  0
    1.5796    1.4064    0.0000 C   0  0  0  0  0  0  0  0  0  0  0  0
    1.5380    2.7227    0.0000 C   0  0  0  0  0  0  0  0  0  0  0  0
   -0.3049   -0.7967    0.0000 C   0  0  0  0  0  0  0  0  0  0  0  0
    1.0669   -0.3533    0.0000 C   0  0  0  0  0  0  0  0  0  0  0  0
    2.3417    2.4871    0.0000 C   0  0  0  0  0  0  0  0  0  0  0  0
    0.7759   -1.7527    0.0000 C   0  0  0  0  0  0  0  0  0  0  0  0
    1.5796   -1.9329    0.0000 C   0  0  0  0  0  0  0  0  0  0  0  0
    2.1338   -1.3232    0.0000 C   0  0  0  0  0  0  0  0  0  0  0  0
    1.8428   -2.7088    0.0000 C   0  0  0  0  0  0  0  0  0  0  0  0
    2.9375   -1.4895    0.0000 C   0  0  0  0  0  0  0  0  0  0  0  0
    2.6465   -2.8890    0.0000 C   0  0  0  0  0  0  0  0  0  0  0  0
    3.2007   -2.2793    0.0000 C   0  0  0  0  0  0  0  0  0  0  0  0
  1 13  1  0  0  0  0
  2  6  1  0  0  0  0
  2  7  1  0  0  0  0
  2  9  1  0  0  0  0
  3  7  2  0  0  0  0
  3  8  1  0  0  0  0
  4 19  1  0  0  0  0
  4 20  1  0  0  0  0
  4 22  1  0  0  0  0
  5 17  1  0  0  0  0
  5 21  1  0  0  0  0
  6  8  1  0  0  0  0
  6 11  2  0  0  0  0
 10  7  1  6  0  0  0
  8 12  2  0  0  0  0
  9 14  1  0  0  0  0
  9 15  1  0  0  0  0
 10 17  1  0  0  0  0
 10 18  1  0  0  0  0
 11 13  1  0  0  0  0
 12 16  1  0  0  0  0
 13 16  2  0  0  0  0
 14 19  1  0  0  0  0
 15 20  1  0  0  0  0
 18 21  1  0  0  0  0
 22 23  1  0  0  0  0
 23 24  2  0  0  0  0
 23 25  1  0  0  0  0
 24 26  1  0  0  0  0
 25 27  2  0  0  0  0
 26 28  2  0  0  0  0
 27 28  1  0  0  0  0
M  END
> <PUBCHEM_COMPOUND_ID_TYPE>
0

> <PUBCHEM_TOTAL_CHARGE>
0

> <PUBCHEM_SUBSTANCE_ID>
310949872

> <PUBCHEM_SUBSTANCE_VERSION>
1

> <PUBCHEM_EXT_DATASOURCE_NAME>
4488

> <PUBCHEM_EXT_DATASOURCE_REGID>
SCHEMBL16128078

> <PUBCHEM_SUBSTANCE_COMMENT>
InChI=1S/C23H27FN4/c24-19-6-7-21-22(14-19)28(23(26-21)18-8-11-25-15-18)20-9-12-27(13-10-20)16-17-4-2-1-3-5-17/h1-7,14,18,20,25H,8-13,15-16H2/t18-/m1/s1
InChIKey=XDUYCDQPOWXJKU-GOSISDBHSA-N

> <PUBCHEM_SUBSTANCE_SYNONYM>
SCHEMBL16128078

> <PUBCHEM_XREF_EXT_ID>
SCHEMBL16128078

> <PUBCHEM_EXT_DATASOURCE_URL>
https://www.surechembl.org/

> <PUBCHEM_EXT_SUBSTANCE_URL>
https://www.surechembl.org/chemical/SCHEMBL16128078

> <PUBCHEM_CID_ASSOCIATIONS>
117615169  1

> <PUBCHEM_COORDINATE_TYPE>
1
3

> <PUBCHEM_BONDANNOTATIONS>
10  7  6

$$$$
