310947316
  -OEChem-07211613022D

 27 29  0     1  0  0  0  0  0999 V2000
   -1.7768    2.1691    0.0000 O   0  0  0  0  0  0  0  0  0  0  0  0
   -4.6347    1.3441    0.0000 O   0  0  0  0  0  0  0  0  0  0  0  0
    1.1512   -0.1483    0.0000 N   0  0  0  0  0  0  0  0  0  0  0  0
    1.6361    0.5191    0.0000 N   0  0  0  0  0  0  0  0  0  0  0  0
   -2.4913    0.9316    0.0000 N   0  0  0  0  0  0  0  0  0  0  0  0
    5.3492   -2.0128    0.0000 N   0  0  0  0  0  0  0  0  0  0  0  0
    0.3666    0.1066    0.0000 C   0  0  0  0  0  0  0  0  0  0  0  0
    0.3666    0.9316    0.0000 C   0  0  0  0  0  0  0  0  0  0  0  0
    1.1512    1.1866    0.0000 C   0  0  0  0  0  0  0  0  0  0  0  0
   -0.3479    1.3441    0.0000 C   0  0  0  0  0  0  0  0  0  0  0  0
   -1.0624    0.9316    0.0000 C   0  0  0  0  0  0  0  0  0  0  0  0
   -0.3479   -0.3059    0.0000 C   0  0  0  0  0  0  0  0  0  0  0  0
    1.3647   -0.9452    0.0000 C   0  0  0  0  0  0  0  0  0  0  0  0
   -1.0624    0.1066    0.0000 C   0  0  0  0  0  0  0  0  0  0  0  0
   -1.7768    1.3441    0.0000 C   0  0  0  0  0  0  0  0  0  0  0  0
    2.1616   -1.1587    0.0000 C   0  0  0  0  0  0  0  0  0  0  0  0
    1.5637    1.9010    0.0000 C   0  0  0  0  0  0  0  0  0  0  0  0
    2.3751   -1.9556    0.0000 C   0  0  0  0  0  0  0  0  0  0  0  0
    2.7450   -0.5754    0.0000 C   0  0  0  0  0  0  0  0  0  0  0  0
   -3.2058    1.3441    0.0000 C   0  0  3  0  0  0  0  0  0  0  0  0
    3.7554   -1.5858    0.0000 C   0  0  0  0  0  0  0  0  0  0  0  0
    3.1720   -2.1691    0.0000 C   0  0  0  0  0  0  0  0  0  0  0  0
    3.5419   -0.7889    0.0000 C   0  0  0  0  0  0  0  0  0  0  0  0
   -3.9202    0.9316    0.0000 C   0  0  0  0  0  0  0  0  0  0  0  0
    4.5523   -1.7993    0.0000 C   0  0  0  0  0  0  0  0  0  0  0  0
   -3.2058    2.1691    0.0000 C   0  0  0  0  0  0  0  0  0  0  0  0
   -5.3492    0.9316    0.0000 C   0  0  0  0  0  0  0  0  0  0  0  0
  1 15  2  0  0  0  0
  2 24  1  0  0  0  0
  2 27  1  0  0  0  0
  3  4  1  0  0  0  0
  3  7  1  0  0  0  0
  3 13  1  0  0  0  0
  4  9  2  0  0  0  0
  5 15  1  0  0  0  0
  5 20  1  0  0  0  0
  6 25  3  0  0  0  0
  7  8  1  0  0  0  0
  7 12  2  0  0  0  0
  8  9  1  0  0  0  0
  8 10  2  0  0  0  0
  9 17  1  0  0  0  0
 10 11  1  0  0  0  0
 11 14  2  0  0  0  0
 11 15  1  0  0  0  0
 12 14  1  0  0  0  0
 13 16  1  0  0  0  0
 16 18  2  0  0  0  0
 16 19  1  0  0  0  0
 18 22  1  0  0  0  0
 19 23  2  0  0  0  0
 20 24  1  0  0  0  0
 20 26  1  6  0  0  0
 21 22  2  0  0  0  0
 21 23  1  0  0  0  0
 21 25  1  0  0  0  0
M  END
> <PUBCHEM_COMPOUND_ID_TYPE>
0

> <PUBCHEM_TOTAL_CHARGE>
0

> <PUBCHEM_SUBSTANCE_ID>
310947316

> <PUBCHEM_SUBSTANCE_VERSION>
1

> <PUBCHEM_EXT_DATASOURCE_NAME>
4488

> <PUBCHEM_EXT_DATASOURCE_REGID>
SCHEMBL16125471

> <PUBCHEM_SUBSTANCE_COMMENT>
InChI=1S/C21H22N4O2/c1-14(13-27-3)23-21(26)18-8-9-20-19(10-18)15(2)24-25(20)12-17-6-4-16(11-22)5-7-17/h4-10,14H,12-13H2,1-3H3,(H,23,26)/t14-/m0/s1
InChIKey=RFJQWZLSVYLBMN-AWEZNQCLSA-N

> <PUBCHEM_SUBSTANCE_SYNONYM>
SCHEMBL16125471

> <PUBCHEM_XREF_EXT_ID>
SCHEMBL16125471

> <PUBCHEM_EXT_DATASOURCE_URL>
https://www.surechembl.org/

> <PUBCHEM_EXT_SUBSTANCE_URL>
https://www.surechembl.org/chemical/SCHEMBL16125471

> <PUBCHEM_CID_ASSOCIATIONS>
71577402  1

> <PUBCHEM_COORDINATE_TYPE>
1
3

> <PUBCHEM_BONDANNOTATIONS>
20  26  6

$$$$
