310948216
  -OEChem-07211613022D

 45 49  0     0  0  0  0  0  0999 V2000
    3.1959   -0.0466    0.0000 S   0  0  0  0  0  0  0  0  0  0  0  0
   -4.2580   -1.2392    0.0000 F   0  0  0  0  0  0  0  0  0  0  0  0
   -4.4444   -0.1025    0.0000 F   0  0  0  0  0  0  0  0  0  0  0  0
    3.1959   -2.8791    0.0000 F   0  0  0  0  0  0  0  0  0  0  0  0
    3.1399    2.9350    0.0000 F   0  0  0  0  0  0  0  0  0  0  0  0
    2.0964    2.4132    0.0000 F   0  0  0  0  0  0  0  0  0  0  0  0
    3.6804    1.9101    0.0000 F   0  0  0  0  0  0  0  0  0  0  0  0
    2.4691    0.3447    0.0000 O   0  0  0  0  0  0  0  0  0  0  0  0
    3.9226   -0.4565    0.0000 O   0  0  0  0  0  0  0  0  0  0  0  0
    2.6182    1.3696    0.0000 O   0  0  0  0  0  0  0  0  0  0  0  0
    4.4444   -2.1709    0.0000 O   0  0  0  0  0  0  0  0  0  0  0  0
   -0.9783   -0.0466    0.0000 N   0  0  0  0  0  0  0  0  0  0  0  0
   -1.8169   -1.4628    0.0000 N   0  0  0  0  0  0  0  0  0  0  0  0
   -2.3014   -0.8106    0.0000 N   0  0  0  0  0  0  0  0  0  0  0  0
   -1.8169    0.0280    0.0000 N   0  0  0  0  0  0  0  0  0  0  0  0
   -1.9846    0.8293    0.0000 N   0  0  0  0  0  0  0  0  0  0  0  0
   -0.5497   -0.7547    0.0000 C   0  0  0  0  0  0  0  0  0  0  0  0
   -0.9783   -1.4628    0.0000 C   0  0  0  0  0  0  0  0  0  0  0  0
    0.6988   -1.4628    0.0000 C   0  0  0  0  0  0  0  0  0  0  0  0
   -0.6243    0.7175    0.0000 C   0  0  0  0  0  0  0  0  0  0  0  0
    0.2702   -0.7733    0.0000 C   0  0  0  0  0  0  0  0  0  0  0  0
    1.5374   -1.4628    0.0000 C   0  0  0  0  0  0  0  0  0  0  0  0
   -2.3014   -2.1337    0.0000 C   0  0  0  0  0  0  0  0  0  0  0  0
   -3.0841   -1.0529    0.0000 C   0  0  0  0  0  0  0  0  0  0  0  0
   -0.5497   -2.1709    0.0000 C   0  0  0  0  0  0  0  0  0  0  0  0
    2.7672   -0.7733    0.0000 C   0  0  0  0  0  0  0  0  0  0  0  0
    0.2702   -2.1709    0.0000 C   0  0  0  0  0  0  0  0  0  0  0  0
    0.1956    0.8665    0.0000 C   0  0  0  0  0  0  0  0  0  0  0  0
    3.1959   -1.4628    0.0000 C   0  0  0  0  0  0  0  0  0  0  0  0
   -3.0841   -1.8728    0.0000 C   0  0  0  0  0  0  0  0  0  0  0  0
    1.9473   -0.7733    0.0000 C   0  0  0  0  0  0  0  0  0  0  0  0
   -3.7736   -0.5870    0.0000 C   0  0  0  0  0  0  0  0  0  0  0  0
    2.7859   -2.1709    0.0000 C   0  0  0  0  0  0  0  0  0  0  0  0
    1.9473   -2.1709    0.0000 C   0  0  0  0  0  0  0  0  0  0  0  0
   -1.2578    1.2392    0.0000 C   0  0  0  0  0  0  0  0  0  0  0  0
    0.7733    0.2702    0.0000 C   0  0  0  0  0  0  0  0  0  0  0  0
    0.4379    1.6305    0.0000 C   0  0  0  0  0  0  0  0  0  0  0  0
   -2.0219   -2.9350    0.0000 C   0  0  0  0  0  0  0  0  0  0  0  0
    4.0530   -1.4814    0.0000 C   0  0  0  0  0  0  0  0  0  0  0  0
    1.8169    1.2020    0.0000 C   0  0  0  0  0  0  0  0  0  0  0  0
    1.5560    0.4379    0.0000 C   0  0  0  0  0  0  0  0  0  0  0  0
    1.2765    1.7796    0.0000 C   0  0  0  0  0  0  0  0  0  0  0  0
   -3.2704    0.1025    0.0000 C   0  0  0  0  0  0  0  0  0  0  0  0
    3.6058    0.6615    0.0000 C   0  0  0  0  0  0  0  0  0  0  0  0
    2.8791    2.1523    0.0000 C   0  0  0  0  0  0  0  0  0  0  0  0
  1  8  2  0  0  0  0
  1  9  2  0  0  0  0
  1 26  1  0  0  0  0
  1 44  1  0  0  0  0
  2 32  1  0  0  0  0
  3 32  1  0  0  0  0
  4 33  1  0  0  0  0
  5 45  1  0  0  0  0
  6 45  1  0  0  0  0
  7 45  1  0  0  0  0
 10 40  1  0  0  0  0
 10 45  1  0  0  0  0
 11 39  1  0  0  0  0
 12 15  1  0  0  0  0
 12 17  1  0  0  0  0
 12 20  1  0  0  0  0
 13 14  1  0  0  0  0
 13 18  1  0  0  0  0
 13 23  1  0  0  0  0
 14 24  2  0  0  0  0
 15 16  2  0  0  0  0
 16 35  1  0  0  0  0
 17 18  1  0  0  0  0
 17 21  2  0  0  0  0
 18 25  2  0  0  0  0
 19 21  1  0  0  0  0
 19 22  1  0  0  0  0
 19 27  2  0  0  0  0
 20 28  1  0  0  0  0
 20 35  2  0  0  0  0
 22 31  2  0  0  0  0
 22 34  1  0  0  0  0
 23 30  2  0  0  0  0
 23 38  1  0  0  0  0
 24 30  1  0  0  0  0
 24 32  1  0  0  0  0
 25 27  1  0  0  0  0
 26 29  2  0  0  0  0
 26 31  1  0  0  0  0
 28 36  2  0  0  0  0
 28 37  1  0  0  0  0
 29 33  1  0  0  0  0
 29 39  1  0  0  0  0
 32 43  1  0  0  0  0
 33 34  2  0  0  0  0
 36 41  1  0  0  0  0
 37 42  2  0  0  0  0
 40 41  2  0  0  0  0
 40 42  1  0  0  0  0
M  END
> <PUBCHEM_COMPOUND_ID_TYPE>
0

> <PUBCHEM_TOTAL_CHARGE>
0

> <PUBCHEM_SUBSTANCE_ID>
310948216

> <PUBCHEM_SUBSTANCE_VERSION>
1

> <PUBCHEM_EXT_DATASOURCE_NAME>
4488

> <PUBCHEM_EXT_DATASOURCE_REGID>
SCHEMBL16126393

> <PUBCHEM_SUBSTANCE_COMMENT>
InChI=1S/C29H23F6N5O4S/c1-16-10-27(28(2,31)32)37-39(16)23-9-6-18(19-11-22(30)21(15-41)26(13-19)45(3,42)43)12-24(23)40-25(14-36-38-40)17-4-7-20(8-5-17)44-29(33,34)35/h4-14,41H,15H2,1-3H3
InChIKey=XMVGOZCTBXFVJJ-UHFFFAOYSA-N

> <PUBCHEM_SUBSTANCE_SYNONYM>
SCHEMBL16126393

> <PUBCHEM_XREF_EXT_ID>
SCHEMBL16126393

> <PUBCHEM_EXT_DATASOURCE_URL>
https://www.surechembl.org/

> <PUBCHEM_EXT_SUBSTANCE_URL>
https://www.surechembl.org/chemical/SCHEMBL16126393

> <PUBCHEM_CID_ASSOCIATIONS>
117613796  1

> <PUBCHEM_COORDINATE_TYPE>
1
3

$$$$
