310942355
  -OEChem-07211613022D

 54 59  0     1  0  0  0  0  0999 V2000
    3.5692    1.3953    0.0000 S   0  0  0  0  0  0  0  0  0  0  0  0
   -3.2204    0.9967    0.0000 F   0  0  0  0  0  0  0  0  0  0  0  0
   -3.8184    1.5822    0.0000 F   0  0  0  0  0  0  0  0  0  0  0  0
   -3.5941    2.3794    0.0000 F   0  0  0  0  0  0  0  0  0  0  0  0
    1.8998    1.3953    0.0000 O   0  0  0  0  0  0  0  0  0  0  0  0
    3.1457    2.1179    0.0000 O   0  0  0  0  0  0  0  0  0  0  0  0
    3.9803    2.1179    0.0000 O   0  0  0  0  0  0  0  0  0  0  0  0
    1.0776   -1.4825    0.0000 O   0  0  0  0  0  0  0  0  0  0  0  0
   -1.8500    0.6229    0.0000 O   0  0  0  0  0  0  0  0  0  0  0  0
   -0.1308   -2.4916    0.0000 O   0  0  0  0  0  0  0  0  0  0  0  0
   -3.7560   -2.6536    0.0000 O   0  0  0  0  0  0  0  0  0  0  0  0
   -2.7345   -3.6626    0.0000 O   0  0  0  0  0  0  0  0  0  0  0  0
    1.0901   -0.0374    0.0000 N   0  0  0  0  0  0  0  0  0  0  0  0
    3.2952    0.6852    0.0000 N   0  0  0  0  0  0  0  0  0  0  0  0
   -0.8284   -1.2458    0.0000 N   0  0  0  0  0  0  0  0  0  0  0  0
   -0.8160    1.6320    0.0000 N   0  0  0  0  0  0  0  0  0  0  0  0
   -1.9870    2.8155    0.0000 N   0  0  0  0  0  0  0  0  0  0  0  0
   -2.3608   -2.2798    0.0000 N   0  0  0  0  0  0  0  0  0  0  0  0
    1.9248   -0.0374    0.0000 C   0  0  3  0  0  0  0  0  0  0  0  0
    2.1241   -0.8097    0.0000 C   0  0  3  0  0  0  0  0  0  0  0  0
    2.7096   -0.2492    0.0000 C   0  0  0  0  0  0  0  0  0  0  0  0
    2.3358    0.6977    0.0000 C   0  0  0  0  0  0  0  0  0  0  0  0
    4.4164    1.4077    0.0000 C   0  0  0  0  0  0  0  0  0  0  0  0
    0.6789   -0.7475    0.0000 C   0  0  0  0  0  0  0  0  0  0  0  0
    2.7719   -2.1303    0.0000 C   0  0  0  0  0  0  0  0  0  0  0  0
    5.1264    1.8064    0.0000 C   0  0  0  0  0  0  0  0  0  0  0  0
    5.1264    0.9967    0.0000 C   0  0  0  0  0  0  0  0  0  0  0  0
   -0.1682   -0.7350    0.0000 C   0  0  3  0  0  0  0  0  0  0  0  0
    4.0052    0.6852    0.0000 C   0  0  0  0  0  0  0  0  0  0  0  0
   -0.4173    0.0249    0.0000 C   0  0  0  0  0  0  0  0  0  0  0  0
   -1.2396    0.0374    0.0000 C   0  0  3  0  0  0  0  0  0  0  0  0
   -1.5011   -0.7599    0.0000 C   0  0  0  0  0  0  0  0  0  0  0  0
    2.3483   -2.8529    0.0000 C   0  0  0  0  0  0  0  0  0  0  0  0
   -0.8534   -2.0680    0.0000 C   0  0  0  0  0  0  0  0  0  0  0  0
   -1.6008    1.4327    0.0000 C   0  0  0  0  0  0  0  0  0  0  0  0
   -2.2113    2.0182    0.0000 C   0  0  0  0  0  0  0  0  0  0  0  0
   -1.5510   -2.4916    0.0000 C   0  0  3  0  0  0  0  0  0  0  0  0
   -3.0210    1.8064    0.0000 C   0  0  0  0  0  0  0  0  0  0  0  0
   -0.6042    2.4417    0.0000 C   0  0  0  0  0  0  0  0  0  0  0  0
   -1.2022    3.0273    0.0000 C   0  0  0  0  0  0  0  0  0  0  0  0
    1.5635   -3.0646    0.0000 C   0  0  0  0  0  0  0  0  0  0  0  0
   -1.1274   -3.2141    0.0000 C   0  0  0  0  0  0  0  0  0  0  0  0
    0.1931    2.6536    0.0000 C   0  0  0  0  0  0  0  0  0  0  0  0
   -0.9655    3.8246    0.0000 C   0  0  0  0  0  0  0  0  0  0  0  0
    1.1274   -3.9243    0.0000 C   0  0  0  0  0  0  0  0  0  0  0  0
   -2.9463   -2.8529    0.0000 C   0  0  0  0  0  0  0  0  0  0  0  0
   -0.3052   -3.2141    0.0000 C   0  0  0  0  0  0  0  0  0  0  0  0
    0.4049    3.4508    0.0000 C   0  0  0  0  0  0  0  0  0  0  0  0
   -0.1682    4.0363    0.0000 C   0  0  0  0  0  0  0  0  0  0  0  0
    0.1059   -3.9243    0.0000 C   0  0  0  0  0  0  0  0  0  0  0  0
   -4.3416   -3.2391    0.0000 C   0  0  0  0  0  0  0  0  0  0  0  0
   -5.1264   -3.0273    0.0000 C   0  0  0  0  0  0  0  0  0  0  0  0
   -4.9146   -3.8246    0.0000 C   0  0  0  0  0  0  0  0  0  0  0  0
   -4.1049   -4.0363    0.0000 C   0  0  0  0  0  0  0  0  0  0  0  0
  1  6  2  0  0  0  0
  1  7  2  0  0  0  0
  1 14  1  0  0  0  0
  1 23  1  0  0  0  0
  2 38  1  0  0  0  0
  3 38  1  0  0  0  0
  4 38  1  0  0  0  0
  5 22  2  0  0  0  0
  8 24  2  0  0  0  0
 31  9  1  6  0  0  0
  9 35  1  0  0  0  0
 10 34  2  0  0  0  0
 11 46  1  0  0  0  0
 11 51  1  0  0  0  0
 12 46  2  0  0  0  0
 13 19  1  0  0  0  0
 13 24  1  0  0  0  0
 14 22  1  0  0  0  0
 15 28  1  0  0  0  0
 15 32  1  0  0  0  0
 15 34  1  0  0  0  0
 16 35  2  0  0  0  0
 16 39  1  0  0  0  0
 17 36  2  0  0  0  0
 17 40  1  0  0  0  0
 37 18  1  6  0  0  0
 18 46  1  0  0  0  0
 19 20  1  0  0  0  0
 19 21  1  0  0  0  0
 19 22  1  1  0  0  0
 20 21  1  6  0  0  0
 20 25  1  0  0  0  0
 23 26  1  0  0  0  0
 23 27  1  0  0  0  0
 23 29  1  0  0  0  0
 24 28  1  0  0  0  0
 25 33  2  0  0  0  0
 26 27  1  0  0  0  0
 28 30  1  1  0  0  0
 30 31  1  0  0  0  0
 31 32  1  0  0  0  0
 33 41  1  0  0  0  0
 34 37  1  0  0  0  0
 35 36  1  0  0  0  0
 36 38  1  0  0  0  0
 37 42  1  0  0  0  0
 39 40  2  0  0  0  0
 39 43  1  0  0  0  0
 40 44  1  0  0  0  0
 41 45  1  0  0  0  0
 42 47  1  0  0  0  0
 43 48  2  0  0  0  0
 44 49  2  0  0  0  0
 45 50  1  0  0  0  0
 47 50  1  0  0  0  0
 48 49  1  0  0  0  0
 51 52  1  0  0  0  0
 51 53  1  0  0  0  0
 51 54  1  0  0  0  0
M  END
> <PUBCHEM_COMPOUND_ID_TYPE>
0

> <PUBCHEM_TOTAL_CHARGE>
0

> <PUBCHEM_SUBSTANCE_ID>
310942355

> <PUBCHEM_SUBSTANCE_VERSION>
1

> <PUBCHEM_EXT_DATASOURCE_NAME>
4488

> <PUBCHEM_EXT_DATASOURCE_REGID>
SCHEMBL16120391

> <PUBCHEM_SUBSTANCE_COMMENT>
InChI=1S/C36H45F3N6O8S/c1-33(2,3)53-32(49)42-25-15-9-7-5-6-8-12-21-19-35(21,31(48)44-54(50,51)34(4)16-17-34)43-28(46)26-18-22(20-45(26)30(25)47)52-29-27(36(37,38)39)40-23-13-10-11-14-24(23)41-29/h8,10-14,21-22,25-26H,5-7,9,15-20H2,1-4H3,(H,42,49)(H,43,46)(H,44,48)/b12-8-/t21-,22-,25+,26+,35-/m1/s1
InChIKey=MQZCKCKTDVQEDO-KKGIJGKCSA-N

> <PUBCHEM_SUBSTANCE_SYNONYM>
SCHEMBL16120391

> <PUBCHEM_XREF_EXT_ID>
SCHEMBL16120391

> <PUBCHEM_EXT_DATASOURCE_URL>
https://www.surechembl.org/

> <PUBCHEM_EXT_SUBSTANCE_URL>
https://www.surechembl.org/chemical/SCHEMBL16120391

> <PUBCHEM_CID_ASSOCIATIONS>
117608976  1

> <PUBCHEM_COORDINATE_TYPE>
1
3

> <PUBCHEM_BONDANNOTATIONS>
37  18  6
19  22  5
20  21  6
28  30  5
31  9  6

$$$$
