310943908
  -OEChem-07211613022D

 33 37  0     1  0  0  0  0  0999 V2000
    2.7322    0.8475    0.0000 O   0  0  0  0  0  0  0  0  0  0  0  0
    5.7990    0.5576    0.0000 O   0  0  0  0  0  0  0  0  0  0  0  0
    5.6874    1.9961    0.0000 O   0  0  0  0  0  0  0  0  0  0  0  0
   -0.5353   -1.7174    0.0000 O   0  0  0  0  0  0  0  0  0  0  0  0
    3.7358   -0.2565    0.0000 N   0  0  0  0  0  0  0  0  0  0  0  0
    0.7806   -0.3569    0.0000 N   0  0  0  0  0  0  0  0  0  0  0  0
   -4.3046   -0.2676    0.0000 N   0  0  0  0  0  0  0  0  0  0  0  0
   -2.2527    0.1115    0.0000 N   0  0  0  0  0  0  0  0  0  0  0  0
   -3.0445    0.2342    0.0000 N   0  0  0  0  0  0  0  0  0  0  0  0
   -4.7061    0.5911    0.0000 N   0  0  0  0  0  0  0  0  0  0  0  0
   -5.6540    0.4684    0.0000 N   0  0  0  0  0  0  0  0  0  0  0  0
   -5.7990   -0.4684    0.0000 N   0  0  0  0  0  0  0  0  0  0  0  0
    2.4199   -0.6022    0.0000 C   0  0  0  0  0  0  0  0  0  0  0  0
    2.9552    0.0335    0.0000 C   0  0  0  0  0  0  0  0  0  0  0  0
    4.5276    0.2788    0.0000 C   0  0  0  0  0  0  0  0  0  0  0  0
    2.8771   -1.3048    0.0000 C   0  0  0  0  0  0  0  0  0  0  0  0
    3.6913   -1.0929    0.0000 C   0  0  0  0  0  0  0  0  0  0  0  0
    1.8958   -1.2602    0.0000 C   0  0  0  0  0  0  0  0  0  0  0  0
    2.1189    0.1673    0.0000 C   0  0  0  0  0  0  0  0  0  0  0  0
    4.6057    1.0817    0.0000 C   0  0  0  0  0  0  0  0  0  0  0  0
    5.2748   -0.0446    0.0000 C   0  0  0  0  0  0  0  0  0  0  0  0
    1.0817   -1.1263    0.0000 C   0  0  0  0  0  0  0  0  0  0  0  0
    1.3048    0.3011    0.0000 C   0  0  0  0  0  0  0  0  0  0  0  0
    5.3640    1.2379    0.0000 C   0  0  0  0  0  0  0  0  0  0  0  0
   -1.9627   -0.6134    0.0000 C   0  0  0  0  0  0  0  0  0  0  0  0
   -0.3234   -0.1895    0.0000 C   0  0  0  0  0  0  0  0  0  0  0  0
   -0.9144   -0.7806    0.0000 C   0  0  3  0  0  0  0  0  0  0  0  0
   -2.4757   -1.2379    0.0000 C   0  0  0  0  0  0  0  0  0  0  0  0
   -3.5351   -0.3792    0.0000 C   0  0  0  0  0  0  0  0  0  0  0  0
    3.9812    1.6170    0.0000 C   0  0  0  0  0  0  0  0  0  0  0  0
   -3.2563   -1.1041    0.0000 C   0  0  0  0  0  0  0  0  0  0  0  0
   -4.9514   -0.9144    0.0000 C   0  0  0  0  0  0  0  0  0  0  0  0
   -2.1746   -1.9961    0.0000 C   0  0  0  0  0  0  0  0  0  0  0  0
  1 14  2  0  0  0  0
  2 21  1  0  0  0  0
  2 24  1  0  0  0  0
  3 24  2  0  0  0  0
 27  4  1  6  0  0  0
  5 14  1  0  0  0  0
  5 15  1  0  0  0  0
  5 17  1  0  0  0  0
  6 22  1  0  0  0  0
  6 23  1  0  0  0  0
  6 26  1  0  0  0  0
  7 10  1  0  0  0  0
  7 29  1  0  0  0  0
  7 32  1  0  0  0  0
  8  9  1  0  0  0  0
  8 25  2  0  0  0  0
  9 29  2  0  0  0  0
 10 11  2  0  0  0  0
 11 12  1  0  0  0  0
 12 32  2  0  0  0  0
 13 14  1  0  0  0  0
 13 16  1  0  0  0  0
 13 18  1  0  0  0  0
 13 19  1  0  0  0  0
 15 20  2  0  0  0  0
 15 21  1  0  0  0  0
 16 17  1  0  0  0  0
 18 22  1  0  0  0  0
 19 23  1  0  0  0  0
 20 24  1  0  0  0  0
 20 30  1  0  0  0  0
 25 27  1  0  0  0  0
 25 28  1  0  0  0  0
 26 27  1  0  0  0  0
 28 31  2  0  0  0  0
 28 33  1  0  0  0  0
 29 31  1  0  0  0  0
M  END
> <PUBCHEM_COMPOUND_ID_TYPE>
0

> <PUBCHEM_TOTAL_CHARGE>
0

> <PUBCHEM_SUBSTANCE_ID>
310943908

> <PUBCHEM_SUBSTANCE_VERSION>
1

> <PUBCHEM_EXT_DATASOURCE_NAME>
4488

> <PUBCHEM_EXT_DATASOURCE_REGID>
SCHEMBL16121979

> <PUBCHEM_SUBSTANCE_COMMENT>
InChI=1S/C21H26N8O4/c1-13-9-17(29-12-22-25-26-29)23-24-18(13)16(30)10-27-6-3-21(4-7-27)5-8-28(20(21)32)15-11-33-19(31)14(15)2/h9,12,16,30H,3-8,10-11H2,1-2H3/t16-/m0/s1
InChIKey=NIWRDTAYMUIKEM-INIZCTEOSA-N

> <PUBCHEM_SUBSTANCE_SYNONYM>
SCHEMBL16121979

> <PUBCHEM_XREF_EXT_ID>
SCHEMBL16121979

> <PUBCHEM_EXT_DATASOURCE_URL>
https://www.surechembl.org/

> <PUBCHEM_EXT_SUBSTANCE_URL>
https://www.surechembl.org/chemical/SCHEMBL16121979

> <PUBCHEM_CID_ASSOCIATIONS>
117610224  1

> <PUBCHEM_COORDINATE_TYPE>
1
3

> <PUBCHEM_BONDANNOTATIONS>
27  4  6

$$$$
