310944399
  -OEChem-07211613022D

 25 28  0     0  0  0  0  0  0999 V2000
    0.0000    3.1004    0.0000 F   0  0  0  0  0  0  0  0  0  0  0  0
    2.1794    2.6224    0.0000 N   0  0  0  0  0  0  0  0  0  0  0  0
   -2.1794    2.6224    0.0000 N   0  0  0  0  0  0  0  0  0  0  0  0
   -0.0281   -0.1898    0.0000 C   0  0  0  0  0  0  0  0  0  0  0  0
    0.7172   -0.5976    0.0000 C   0  0  0  0  0  0  0  0  0  0  0  0
    0.7031   -1.4272    0.0000 C   0  0  0  0  0  0  0  0  0  0  0  0
   -0.0141    0.6539    0.0000 C   0  0  0  0  0  0  0  0  0  0  0  0
   -0.0281   -1.8350    0.0000 C   0  0  0  0  0  0  0  0  0  0  0  0
   -0.7452   -1.4412    0.0000 C   0  0  0  0  0  0  0  0  0  0  0  0
   -0.7311   -0.6117    0.0000 C   0  0  0  0  0  0  0  0  0  0  0  0
    0.6890    1.0475    0.0000 C   0  0  0  0  0  0  0  0  0  0  0  0
   -0.7311    1.0616    0.0000 C   0  0  0  0  0  0  0  0  0  0  0  0
    0.7172    1.8912    0.0000 C   0  0  0  0  0  0  0  0  0  0  0  0
   -0.7311    1.8912    0.0000 C   0  0  0  0  0  0  0  0  0  0  0  0
    0.0000    2.2990    0.0000 C   0  0  0  0  0  0  0  0  0  0  0  0
    1.4342   -0.2039    0.0000 C   0  0  0  0  0  0  0  0  0  0  0  0
    1.4342   -1.8209    0.0000 C   0  0  0  0  0  0  0  0  0  0  0  0
   -0.0281   -2.6927    0.0000 C   0  0  0  0  0  0  0  0  0  0  0  0
   -1.4624   -1.8490    0.0000 C   0  0  0  0  0  0  0  0  0  0  0  0
    2.1513   -0.6117    0.0000 C   0  0  0  0  0  0  0  0  0  0  0  0
    2.1373   -1.4272    0.0000 C   0  0  0  0  0  0  0  0  0  0  0  0
   -0.7593   -3.1004    0.0000 C   0  0  0  0  0  0  0  0  0  0  0  0
   -1.4624   -2.6645    0.0000 C   0  0  0  0  0  0  0  0  0  0  0  0
    1.4483    2.2709    0.0000 C   0  0  0  0  0  0  0  0  0  0  0  0
   -1.4624    2.2709    0.0000 C   0  0  0  0  0  0  0  0  0  0  0  0
  1 15  1  0  0  0  0
  2 24  3  0  0  0  0
  3 25  3  0  0  0  0
  4  5  1  0  0  0  0
  4  7  1  0  0  0  0
  4 10  2  0  0  0  0
  5  6  1  0  0  0  0
  5 16  2  0  0  0  0
  6  8  1  0  0  0  0
  6 17  2  0  0  0  0
  7 11  2  0  0  0  0
  7 12  1  0  0  0  0
  8  9  1  0  0  0  0
  8 18  2  0  0  0  0
  9 10  1  0  0  0  0
  9 19  2  0  0  0  0
 11 13  1  0  0  0  0
 12 14  2  0  0  0  0
 13 15  2  0  0  0  0
 13 24  1  0  0  0  0
 14 15  1  0  0  0  0
 14 25  1  0  0  0  0
 16 20  1  0  0  0  0
 17 21  1  0  0  0  0
 18 22  1  0  0  0  0
 19 23  1  0  0  0  0
 20 21  2  0  0  0  0
 22 23  2  0  0  0  0
M  END
> <PUBCHEM_COMPOUND_ID_TYPE>
0

> <PUBCHEM_TOTAL_CHARGE>
0

> <PUBCHEM_SUBSTANCE_ID>
310944399

> <PUBCHEM_SUBSTANCE_VERSION>
1

> <PUBCHEM_EXT_DATASOURCE_NAME>
4488

> <PUBCHEM_EXT_DATASOURCE_REGID>
SCHEMBL16122474

> <PUBCHEM_SUBSTANCE_COMMENT>
InChI=1S/C22H11FN2/c23-22-16(12-24)9-15(10-17(22)13-25)21-11-14-5-1-2-6-18(14)19-7-3-4-8-20(19)21/h1-11H
InChIKey=GLYIYAINRRNGKC-UHFFFAOYSA-N

> <PUBCHEM_SUBSTANCE_SYNONYM>
SCHEMBL16122474

> <PUBCHEM_XREF_EXT_ID>
SCHEMBL16122474

> <PUBCHEM_EXT_DATASOURCE_URL>
https://www.surechembl.org/

> <PUBCHEM_EXT_SUBSTANCE_URL>
https://www.surechembl.org/chemical/SCHEMBL16122474

> <PUBCHEM_CID_ASSOCIATIONS>
117610656  1

> <PUBCHEM_COORDINATE_TYPE>
1
3

$$$$
