310934826
  -OEChem-07211613022D

 22 21  0     0  0  0  0  0  0999 V2000
   13.0818    0.4125    0.0000 O   0  0  0  0  0  0  0  0  0  0  0  0
   13.7963   -0.8250    0.0000 O   0  0  0  0  0  0  0  0  0  0  0  0
   13.0818   -0.4125    0.0000 C   0  0  0  0  0  0  0  0  0  0  0  0
   12.3673   -0.8250    0.0000 C   0  0  0  0  0  0  0  0  0  0  0  0
   11.6529   -0.4125    0.0000 C   0  0  0  0  0  0  0  0  0  0  0  0
   10.9384   -0.8250    0.0000 C   0  0  0  0  0  0  0  0  0  0  0  0
   10.2239   -0.4125    0.0000 C   0  0  0  0  0  0  0  0  0  0  0  0
    9.5094   -0.8250    0.0000 C   0  0  0  0  0  0  0  0  0  0  0  0
    8.7949   -0.4125    0.0000 C   0  0  0  0  0  0  0  0  0  0  0  0
    8.0804   -0.8250    0.0000 C   0  0  0  0  0  0  0  0  0  0  0  0
    5.9369   -0.4125    0.0000 C   0  0  0  0  0  0  0  0  0  0  0  0
    5.1119   -0.4125    0.0000 C   0  0  0  0  0  0  0  0  0  0  0  0
    6.6514   -0.8250    0.0000 C   0  0  0  0  0  0  0  0  0  0  0  0
    7.3659   -0.4125    0.0000 C   0  0  0  0  0  0  0  0  0  0  0  0
    4.3975   -0.8250    0.0000 C   0  0  0  0  0  0  0  0  0  0  0  0
    3.6829   -0.4125    0.0000 C   0  0  0  0  0  0  0  0  0  0  0  0
    2.8579   -0.4125    0.0000 C   0  0  0  0  0  0  0  0  0  0  0  0
    2.1435   -0.8250    0.0000 C   0  0  0  0  0  0  0  0  0  0  0  0
    1.4290   -0.4125    0.0000 C   0  0  0  0  0  0  0  0  0  0  0  0
    0.7145   -0.8250    0.0000 C   0  0  0  0  0  0  0  0  0  0  0  0
    0.0000   -0.4125    0.0000 C   0  0  0  0  0  0  0  0  0  0  0  0
   -0.7145   -0.8250    0.0000 C   0  0  0  0  0  0  0  0  0  0  0  0
  1  3  2  0  0  0  0
  2  3  1  0  0  0  0
  3  4  1  0  0  0  0
  4  5  1  0  0  0  0
  5  6  1  0  0  0  0
  6  7  1  0  0  0  0
  7  8  1  0  0  0  0
  8  9  1  0  0  0  0
  9 10  1  0  0  0  0
 10 14  1  0  0  0  0
 11 12  2  0  0  0  0
 11 13  1  0  0  0  0
 12 15  1  0  0  0  0
 13 14  1  0  0  0  0
 15 16  1  0  0  0  0
 16 17  2  0  0  0  0
 17 18  1  0  0  0  0
 18 19  1  0  0  0  0
 19 20  2  3  0  0  0
 20 21  1  0  0  0  0
 21 22  1  0  0  0  0
M  END
> <PUBCHEM_COMPOUND_ID_TYPE>
0

> <PUBCHEM_TOTAL_CHARGE>
0

> <PUBCHEM_SUBSTANCE_ID>
310934826

> <PUBCHEM_SUBSTANCE_VERSION>
1

> <PUBCHEM_EXT_DATASOURCE_NAME>
4488

> <PUBCHEM_EXT_DATASOURCE_REGID>
SCHEMBL16112332

> <PUBCHEM_SUBSTANCE_COMMENT>
InChI=1S/C20H34O2/c1-2-3-4-5-6-7-8-9-10-11-12-13-14-15-16-17-18-19-20(21)22/h3-4,6-7,9-10H,2,5,8,11-19H2,1H3,(H,21,22)/b4-3+,7-6-,10-9-
InChIKey=AHANXAKGNAKFSK-NSAMXNATSA-N

> <PUBCHEM_SUBSTANCE_SYNONYM>
SCHEMBL16112332

> <PUBCHEM_XREF_EXT_ID>
SCHEMBL16112332

> <PUBCHEM_EXT_DATASOURCE_URL>
https://www.surechembl.org/

> <PUBCHEM_EXT_SUBSTANCE_URL>
https://www.surechembl.org/chemical/SCHEMBL16112332

> <PUBCHEM_CID_ASSOCIATIONS>
117602970  1

> <PUBCHEM_COORDINATE_TYPE>
1
3

> <PUBCHEM_BONDANNOTATIONS>
19  20  1

$$$$
