310929415
  -OEChem-07211613022D

 31 32  0     0  0  0  0  0  0999 V2000
   12.6871    0.0000    0.0000 F   0  0  0  0  0  0  0  0  0  0  0  0
   11.9796   -1.2262    0.0000 F   0  0  0  0  0  0  0  0  0  0  0  0
   12.7342   -1.6507    0.0000 F   0  0  0  0  0  0  0  0  0  0  0  0
   13.3945   -1.2262    0.0000 O   0  0  0  0  0  0  0  0  0  0  0  0
    0.0000   -2.4525    0.0000 O   0  0  0  0  0  0  0  0  0  0  0  0
   12.0267   -2.0281    0.0000 N   0  0  0  0  0  0  0  0  0  0  0  0
   12.7342   -2.4525    0.0000 C   0  0  0  0  0  0  0  0  0  0  0  0
   13.4417   -2.0281    0.0000 C   0  0  0  0  0  0  0  0  0  0  0  0
   12.7342   -3.2543    0.0000 C   0  0  0  0  0  0  0  0  0  0  0  0
   11.3193   -2.4525    0.0000 C   0  0  0  0  0  0  0  0  0  0  0  0
   12.0267   -3.6788    0.0000 C   0  0  0  0  0  0  0  0  0  0  0  0
   14.1491   -2.4525    0.0000 C   0  0  0  0  0  0  0  0  0  0  0  0
   13.4417   -3.6788    0.0000 C   0  0  0  0  0  0  0  0  0  0  0  0
   12.6871   -0.8018    0.0000 C   0  0  0  0  0  0  0  0  0  0  0  0
   11.3193   -3.2543    0.0000 C   0  0  0  0  0  0  0  0  0  0  0  0
   14.1491   -3.2543    0.0000 C   0  0  0  0  0  0  0  0  0  0  0  0
   10.6118   -2.0281    0.0000 C   0  0  0  0  0  0  0  0  0  0  0  0
    9.9044   -2.4525    0.0000 C   0  0  0  0  0  0  0  0  0  0  0  0
    9.1969   -2.0281    0.0000 C   0  0  0  0  0  0  0  0  0  0  0  0
    8.4895   -2.4525    0.0000 C   0  0  0  0  0  0  0  0  0  0  0  0
    7.7820   -2.0281    0.0000 C   0  0  0  0  0  0  0  0  0  0  0  0
    7.0746   -2.4525    0.0000 C   0  0  0  0  0  0  0  0  0  0  0  0
    6.3671   -2.0281    0.0000 C   0  0  0  0  0  0  0  0  0  0  0  0
    5.6597   -2.4525    0.0000 C   0  0  0  0  0  0  0  0  0  0  0  0
    4.9522   -2.0281    0.0000 C   0  0  0  0  0  0  0  0  0  0  0  0
    4.2447   -2.4525    0.0000 C   0  0  0  0  0  0  0  0  0  0  0  0
    3.5373   -2.0281    0.0000 C   0  0  0  0  0  0  0  0  0  0  0  0
    2.8298   -2.4525    0.0000 C   0  0  0  0  0  0  0  0  0  0  0  0
    2.1223   -2.0281    0.0000 C   0  0  0  0  0  0  0  0  0  0  0  0
    1.4149   -2.4525    0.0000 C   0  0  0  0  0  0  0  0  0  0  0  0
    0.7074   -2.0281    0.0000 C   0  0  0  0  0  0  0  0  0  0  0  0
  1 14  1  0  0  0  0
  2 14  1  0  0  0  0
  3 14  1  0  0  0  0
  4  8  1  0  0  0  0
  4 14  1  0  0  0  0
  5 31  1  0  0  0  0
  6  7  2  0  0  0  0
  6 10  1  0  0  0  0
  7  8  1  0  0  0  0
  7  9  1  0  0  0  0
  8 12  2  0  0  0  0
  9 11  2  0  0  0  0
  9 13  1  0  0  0  0
 10 15  2  0  0  0  0
 10 17  1  0  0  0  0
 11 15  1  0  0  0  0
 12 16  1  0  0  0  0
 13 16  2  0  0  0  0
 17 18  1  0  0  0  0
 18 19  1  0  0  0  0
 19 20  1  0  0  0  0
 20 21  1  0  0  0  0
 21 22  1  0  0  0  0
 22 23  1  0  0  0  0
 23 24  1  0  0  0  0
 24 25  1  0  0  0  0
 25 26  1  0  0  0  0
 26 27  1  0  0  0  0
 27 28  1  0  0  0  0
 28 29  1  0  0  0  0
 29 30  1  0  0  0  0
 30 31  1  0  0  0  0
M  END
> <PUBCHEM_COMPOUND_ID_TYPE>
0

> <PUBCHEM_TOTAL_CHARGE>
0

> <PUBCHEM_SUBSTANCE_ID>
310929415

> <PUBCHEM_SUBSTANCE_VERSION>
1

> <PUBCHEM_EXT_DATASOURCE_NAME>
4488

> <PUBCHEM_EXT_DATASOURCE_REGID>
SCHEMBL16106589

> <PUBCHEM_SUBSTANCE_COMMENT>
InChI=1S/C25H36F3NO2/c26-25(27,28)31-23-17-14-15-21-18-19-22(29-24(21)23)16-12-10-8-6-4-2-1-3-5-7-9-11-13-20-30/h14-15,17-19,30H,1-13,16,20H2
InChIKey=MLWSCUOIQMMIMB-UHFFFAOYSA-N

> <PUBCHEM_SUBSTANCE_SYNONYM>
SCHEMBL16106589

> <PUBCHEM_XREF_EXT_ID>
SCHEMBL16106589

> <PUBCHEM_EXT_DATASOURCE_URL>
https://www.surechembl.org/

> <PUBCHEM_EXT_SUBSTANCE_URL>
https://www.surechembl.org/chemical/SCHEMBL16106589

> <PUBCHEM_CID_ASSOCIATIONS>
85472826  1

> <PUBCHEM_COORDINATE_TYPE>
1
3

$$$$
