310944719
  -OEChem-07211613022D

 32 36  0     0  0  0  0  0  0999 V2000
    0.4198   -3.7200    0.0000 O   0  0  0  0  0  0  0  0  0  0  0  0
   -2.5562    3.9326    0.0000 O   0  0  0  0  0  0  0  0  0  0  0  0
   -0.4411    0.8078    0.0000 N   0  0  0  0  0  0  0  0  0  0  0  0
    0.0478    0.1382    0.0000 N   0  0  0  0  0  0  0  0  0  0  0  0
    0.5687   -1.5412    0.0000 N   0  0  0  0  0  0  0  0  0  0  0  0
   -0.8025   -1.9132    0.0000 N   0  0  0  0  0  0  0  0  0  0  0  0
    1.5783   -2.5509    0.0000 N   0  0  0  0  0  0  0  0  0  0  0  0
    2.7688   -0.7759    0.0000 N   0  0  0  0  0  0  0  0  0  0  0  0
    3.3533   -1.3605    0.0000 N   0  0  0  0  0  0  0  0  0  0  0  0
   -0.4411   -0.5208    0.0000 C   0  0  0  0  0  0  0  0  0  0  0  0
   -1.2276   -0.2445    0.0000 C   0  0  0  0  0  0  0  0  0  0  0  0
   -1.2170    0.5740    0.0000 C   0  0  0  0  0  0  0  0  0  0  0  0
   -0.2391   -1.2861    0.0000 C   0  0  0  0  0  0  0  0  0  0  0  0
   -1.9504   -0.6590    0.0000 C   0  0  0  0  0  0  0  0  0  0  0  0
    0.7705   -2.2958    0.0000 C   0  0  0  0  0  0  0  0  0  0  0  0
   -1.9291    0.9672    0.0000 C   0  0  0  0  0  0  0  0  0  0  0  0
   -0.2391    1.6156    0.0000 C   0  0  0  0  0  0  0  0  0  0  0  0
    0.1966   -2.9017    0.0000 C   0  0  0  0  0  0  0  0  0  0  0  0
   -0.6005   -2.6891    0.0000 C   0  0  0  0  0  0  0  0  0  0  0  0
   -0.8238    2.2001    0.0000 C   0  0  0  0  0  0  0  0  0  0  0  0
   -2.6412   -0.2657    0.0000 C   0  0  0  0  0  0  0  0  0  0  0  0
   -2.6412    0.5633    0.0000 C   0  0  0  0  0  0  0  0  0  0  0  0
    2.1523   -1.9450    0.0000 C   0  0  0  0  0  0  0  0  0  0  0  0
   -1.5996    1.9876    0.0000 C   0  0  0  0  0  0  0  0  0  0  0  0
   -0.6005    2.9973    0.0000 C   0  0  0  0  0  0  0  0  0  0  0  0
    2.0461   -1.1267    0.0000 C   0  0  0  0  0  0  0  0  0  0  0  0
    2.9708   -2.0726    0.0000 C   0  0  0  0  0  0  0  0  0  0  0  0
   -1.9716    3.3587    0.0000 C   0  0  0  0  0  0  0  0  0  0  0  0
   -2.1842    2.5615    0.0000 C   0  0  0  0  0  0  0  0  0  0  0  0
   -1.1745    3.5606    0.0000 C   0  0  0  0  0  0  0  0  0  0  0  0
    1.2170   -3.9326    0.0000 C   0  0  0  0  0  0  0  0  0  0  0  0
   -3.3533    3.7200    0.0000 C   0  0  0  0  0  0  0  0  0  0  0  0
  1 18  1  0  0  0  0
  1 31  1  0  0  0  0
  2 28  1  0  0  0  0
  2 32  1  0  0  0  0
  3  4  1  0  0  0  0
  3 12  1  0  0  0  0
  3 17  1  0  0  0  0
  4 10  2  0  0  0  0
  5 13  2  0  0  0  0
  5 15  1  0  0  0  0
  6 13  1  0  0  0  0
  6 19  2  0  0  0  0
  7 15  1  0  0  0  0
  7 23  1  0  0  0  0
  8  9  1  0  0  0  0
  8 26  2  0  0  0  0
  9 27  1  0  0  0  0
 10 11  1  0  0  0  0
 10 13  1  0  0  0  0
 11 12  2  0  0  0  0
 11 14  1  0  0  0  0
 12 16  1  0  0  0  0
 14 21  2  0  0  0  0
 15 18  2  0  0  0  0
 16 22  2  0  0  0  0
 17 20  1  0  0  0  0
 18 19  1  0  0  0  0
 20 24  2  0  0  0  0
 20 25  1  0  0  0  0
 21 22  1  0  0  0  0
 23 26  1  0  0  0  0
 23 27  2  0  0  0  0
 24 29  1  0  0  0  0
 25 30  2  0  0  0  0
 28 29  2  0  0  0  0
 28 30  1  0  0  0  0
M  END
> <PUBCHEM_COMPOUND_ID_TYPE>
0

> <PUBCHEM_TOTAL_CHARGE>
0

> <PUBCHEM_SUBSTANCE_ID>
310944719

> <PUBCHEM_SUBSTANCE_VERSION>
1

> <PUBCHEM_EXT_DATASOURCE_NAME>
4488

> <PUBCHEM_EXT_DATASOURCE_REGID>
SCHEMBL16122798

> <PUBCHEM_SUBSTANCE_COMMENT>
InChI=1S/C23H21N7O2/c1-31-17-9-7-15(8-10-17)14-30-19-6-4-3-5-18(19)21(29-30)23-24-13-20(32-2)22(28-23)27-16-11-25-26-12-16/h3-13H,14H2,1-2H3,(H,25,26)(H,24,27,28)
InChIKey=VOGFGXXVWBRWTN-UHFFFAOYSA-N

> <PUBCHEM_SUBSTANCE_SYNONYM>
SCHEMBL16122798

> <PUBCHEM_XREF_EXT_ID>
SCHEMBL16122798

> <PUBCHEM_EXT_DATASOURCE_URL>
https://www.surechembl.org/

> <PUBCHEM_EXT_SUBSTANCE_URL>
https://www.surechembl.org/chemical/SCHEMBL16122798

> <PUBCHEM_CID_ASSOCIATIONS>
86268714  1

> <PUBCHEM_COORDINATE_TYPE>
1
3

$$$$
