310942530
  -OEChem-07211613022D

 68 76  0     1  0  0  0  0  0999 V2000
    3.2886    1.5273    0.0000 F   0  0  0  0  0  0  0  0  0  0  0  0
   -3.1103    2.6644    0.0000 F   0  0  0  0  0  0  0  0  0  0  0  0
   -3.1103   -0.6578    0.0000 F   0  0  0  0  0  0  0  0  0  0  0  0
    1.5495   -0.4571    0.0000 O   0  0  0  0  0  0  0  0  0  0  0  0
   -0.3902    0.6800    0.0000 O   0  0  0  0  0  0  0  0  0  0  0  0
   -1.8171   -2.4414    0.0000 O   0  0  0  0  0  0  0  0  0  0  0  0
    3.5562   -1.7056    0.0000 O   0  0  0  0  0  0  0  0  0  0  0  0
    1.6611    4.2696    0.0000 O   0  0  0  0  0  0  0  0  0  0  0  0
    2.1516   -1.7948    0.0000 O   0  0  0  0  0  0  0  0  0  0  0  0
   -2.1516   -1.1036    0.0000 O   0  0  0  0  0  0  0  0  0  0  0  0
    0.8361    1.3935    0.0000 N   0  0  0  0  0  0  0  0  0  0  0  0
   -0.8138    2.8428    0.0000 N   0  0  0  0  0  0  0  0  0  0  0  0
   -0.9476    1.5050    0.0000 N   0  0  0  0  0  0  0  0  0  0  0  0
    2.6644   -0.5239    0.0000 N   0  0  0  0  0  0  0  0  0  0  0  0
    0.1226   -1.2820    0.0000 N   0  0  0  0  0  0  0  0  0  0  0  0
    0.4125    2.1293    0.0000 C   0  0  3  0  0  0  0  0  0  0  0  0
   -0.4125    2.1516    0.0000 C   0  0  0  0  0  0  0  0  0  0  0  0
    2.0623    0.7023    0.0000 C   0  0  3  0  0  0  0  0  0  0  0  0
   -1.7279    1.8395    0.0000 C   0  0  0  0  0  0  0  0  0  0  0  0
    2.8651    0.8807    0.0000 C   0  0  3  0  0  0  0  0  0  0  0  0
    0.8361    2.8428    0.0000 C   0  0  0  0  0  0  0  0  0  0  0  0
    0.4348    0.7023    0.0000 C   0  0  0  0  0  0  0  0  0  0  0  0
    1.6611    1.3935    0.0000 C   0  0  0  0  0  0  0  0  0  0  0  0
   -2.6644   -3.5785    0.0000 C   0  0  0  0  0  0  0  0  0  0  0  0
   -3.4447   -3.9352    0.0000 C   0  0  0  0  0  0  0  0  0  0  0  0
   -2.1516   -4.2251    0.0000 C   0  0  0  0  0  0  0  0  0  0  0  0
   -3.3779   -4.7824    0.0000 C   0  0  0  0  0  0  0  0  0  0  0  0
   -2.5529   -4.9608    0.0000 C   0  0  0  0  0  0  0  0  0  0  0  0
   -1.5942    2.6644    0.0000 C   0  0  0  0  0  0  0  0  0  0  0  0
   -2.4191    1.4158    0.0000 C   0  0  0  0  0  0  0  0  0  0  0  0
    1.9732   -0.1003    0.0000 C   0  0  0  0  0  0  0  0  0  0  0  0
    0.8138   -0.0334    0.0000 C   0  0  3  0  0  0  0  0  0  0  0  0
    3.2440    0.0780    0.0000 C   0  0  0  0  0  0  0  0  0  0  0  0
   -0.3902    3.5562    0.0000 C   0  0  0  0  0  0  0  0  0  0  0  0
    0.4348    3.5562    0.0000 C   0  0  0  0  0  0  0  0  0  0  0  0
    1.6611    2.8428    0.0000 C   0  0  0  0  0  0  0  0  0  0  0  0
   -2.5083   -2.8204    0.0000 C   0  0  0  0  0  0  0  0  0  0  0  0
   -3.1103    1.8395    0.0000 C   0  0  0  0  0  0  0  0  0  0  0  0
   -1.3043   -4.2251    0.0000 C   0  0  0  0  0  0  0  0  0  0  0  0
   -4.2251   -3.5785    0.0000 C   0  0  0  0  0  0  0  0  0  0  0  0
   -2.1516   -5.6743    0.0000 C   0  0  0  0  0  0  0  0  0  0  0  0
   -4.0468   -5.2507    0.0000 C   0  0  0  0  0  0  0  0  0  0  0  0
    2.7758   -1.3266    0.0000 C   0  0  0  0  0  0  0  0  0  0  0  0
    0.1450   -0.4348    0.0000 C   0  0  0  0  0  0  0  0  0  0  0  0
   -2.4191    0.5908    0.0000 C   0  0  0  0  0  0  0  0  0  0  0  0
   -0.8138    4.2696    0.0000 C   0  0  0  0  0  0  0  0  0  0  0  0
    2.8651    1.3935    0.0000 C   0  0  0  0  0  0  0  0  0  0  0  0
   -1.6834   -1.6834    0.0000 C   0  0  0  0  0  0  0  0  0  0  0  0
   -0.8807   -4.9608    0.0000 C   0  0  0  0  0  0  0  0  0  0  0  0
   -4.8940   -4.0690    0.0000 C   0  0  0  0  0  0  0  0  0  0  0  0
   -1.3266   -5.6966    0.0000 C   0  0  0  0  0  0  0  0  0  0  0  0
   -4.8271   -4.8940    0.0000 C   0  0  0  0  0  0  0  0  0  0  0  0
   -3.1103    0.1895    0.0000 C   0  0  0  0  0  0  0  0  0  0  0  0
   -3.8015    1.4158    0.0000 C   0  0  0  0  0  0  0  0  0  0  0  0
    0.8361    4.2696    0.0000 C   0  0  0  0  0  0  0  0  0  0  0  0
    2.0623    3.5785    0.0000 C   0  0  0  0  0  0  0  0  0  0  0  0
    0.8361   -1.7056    0.0000 C   0  0  0  0  0  0  0  0  0  0  0  0
    1.5495   -1.2820    0.0000 C   0  0  0  0  0  0  0  0  0  0  0  0
   -3.8015    0.5908    0.0000 C   0  0  0  0  0  0  0  0  0  0  0  0
   -1.6388    4.2920    0.0000 C   0  0  0  0  0  0  0  0  0  0  0  0
   -0.4125    5.0054    0.0000 C   0  0  0  0  0  0  0  0  0  0  0  0
    4.2474   -1.2374    0.0000 C   0  0  0  0  0  0  0  0  0  0  0  0
   -2.0178    4.9831    0.0000 C   0  0  0  0  0  0  0  0  0  0  0  0
   -0.8138    5.6966    0.0000 C   0  0  0  0  0  0  0  0  0  0  0  0
   -1.6165    5.6966    0.0000 C   0  0  0  0  0  0  0  0  0  0  0  0
    4.6933   -1.8171    0.0000 C   0  0  0  0  0  0  0  0  0  0  0  0
    3.7791   -0.6131    0.0000 C   0  0  0  0  0  0  0  0  0  0  0  0
    4.8940   -0.7469    0.0000 C   0  0  0  0  0  0  0  0  0  0  0  0
 20  1  1  1  0  0  0
  2 38  1  0  0  0  0
  3 53  1  0  0  0  0
  4 32  1  0  0  0  0
  4 58  1  0  0  0  0
  5 22  2  0  0  0  0
  6 37  1  0  0  0  0
  6 48  1  0  0  0  0
  7 43  1  0  0  0  0
  7 62  1  0  0  0  0
  8 55  1  0  0  0  0
  8 56  1  0  0  0  0
  9 43  2  0  0  0  0
 10 48  2  0  0  0  0
 16 11  1  1  0  0  0
 11 22  1  0  0  0  0
 11 23  1  0  0  0  0
 12 17  1  0  0  0  0
 12 29  1  0  0  0  0
 12 34  1  0  0  0  0
 13 17  2  0  0  0  0
 13 19  1  0  0  0  0
 14 31  1  0  0  0  0
 14 33  1  0  0  0  0
 14 43  1  0  0  0  0
 15 44  1  0  0  0  0
 15 48  1  0  0  0  0
 15 57  1  0  0  0  0
 16 17  1  0  0  0  0
 16 21  1  0  0  0  0
 18 20  1  0  0  0  0
 18 23  1  1  0  0  0
 18 31  1  0  0  0  0
 19 29  2  0  0  0  0
 19 30  1  0  0  0  0
 20 33  1  0  0  0  0
 20 47  1  6  0  0  0
 21 35  1  0  0  0  0
 21 36  1  0  0  0  0
 32 22  1  1  0  0  0
 24 25  1  0  0  0  0
 24 26  1  0  0  0  0
 24 37  1  0  0  0  0
 25 27  2  0  0  0  0
 25 40  1  0  0  0  0
 26 28  2  0  0  0  0
 26 39  1  0  0  0  0
 27 28  1  0  0  0  0
 27 42  1  0  0  0  0
 28 41  1  0  0  0  0
 30 38  1  0  0  0  0
 30 45  2  0  0  0  0
 32 44  1  0  0  0  0
 34 46  1  0  0  0  0
 35 55  1  0  0  0  0
 36 56  1  0  0  0  0
 38 54  2  0  0  0  0
 39 49  2  0  0  0  0
 40 50  2  0  0  0  0
 41 51  2  0  0  0  0
 42 52  2  0  0  0  0
 45 53  1  0  0  0  0
 46 60  2  0  0  0  0
 46 61  1  0  0  0  0
 49 51  1  0  0  0  0
 50 52  1  0  0  0  0
 53 59  2  0  0  0  0
 54 59  1  0  0  0  0
 57 58  1  0  0  0  0
 60 63  1  0  0  0  0
 61 64  2  0  0  0  0
 62 66  1  0  0  0  0
 62 67  1  0  0  0  0
 62 68  1  0  0  0  0
 63 65  2  0  0  0  0
 64 65  1  0  0  0  0
M  END
> <PUBCHEM_COMPOUND_ID_TYPE>
0

> <PUBCHEM_TOTAL_CHARGE>
0

> <PUBCHEM_SUBSTANCE_ID>
310942530

> <PUBCHEM_SUBSTANCE_VERSION>
1

> <PUBCHEM_EXT_DATASOURCE_NAME>
4488

> <PUBCHEM_EXT_DATASOURCE_REGID>
SCHEMBL16120567

> <PUBCHEM_SUBSTANCE_COMMENT>
InChI=1S/C53H58F3N5O7/c1-52(2,3)68-51(64)60-28-36(53(4,56)33-60)29-61(49(62)46-31-58(22-25-66-46)50(63)67-32-43-40-16-10-8-14-38(40)39-15-9-11-17-41(39)43)47(35-20-23-65-24-21-35)48-57-45(42-26-37(54)18-19-44(42)55)30-59(48)27-34-12-6-5-7-13-34/h5-19,26,30,35-36,43,46-47H,20-25,27-29,31-33H2,1-4H3/t36-,46-,47+,53-/m0/s1
InChIKey=JOIBAYQRGKEFJA-LSVTUHDGSA-N

> <PUBCHEM_SUBSTANCE_SYNONYM>
SCHEMBL16120567

> <PUBCHEM_XREF_EXT_ID>
SCHEMBL16120567

> <PUBCHEM_EXT_DATASOURCE_URL>
https://www.surechembl.org/

> <PUBCHEM_EXT_SUBSTANCE_URL>
https://www.surechembl.org/chemical/SCHEMBL16120567

> <PUBCHEM_CID_ASSOCIATIONS>
117609089  1

> <PUBCHEM_COORDINATE_TYPE>
1
3

> <PUBCHEM_BONDANNOTATIONS>
20  1  5
16  11  5
18  23  5
20  47  6
32  22  5

$$$$
