310948161
  -OEChem-07211613022D

 43 47  0     0  0  0  0  0  0999 V2000
    3.4366   -1.6654    0.0000 S   0  0  0  0  0  0  0  0  0  0  0  0
   -4.1677    1.1618    0.0000 F   0  0  0  0  0  0  0  0  0  0  0  0
   -2.9978    1.3405    0.0000 F   0  0  0  0  0  0  0  0  0  0  0  0
    4.0377    2.6242    0.0000 F   0  0  0  0  0  0  0  0  0  0  0  0
    4.0702    1.5030    0.0000 F   0  0  0  0  0  0  0  0  0  0  0  0
    2.9328    1.4867    0.0000 F   0  0  0  0  0  0  0  0  0  0  0  0
    2.8841    2.6404    0.0000 O   0  0  0  0  0  0  0  0  0  0  0  0
    2.7216   -2.0717    0.0000 O   0  0  0  0  0  0  0  0  0  0  0  0
    4.1677   -1.2430    0.0000 O   0  0  0  0  0  0  0  0  0  0  0  0
   -0.7068    1.2105    0.0000 N   0  0  0  0  0  0  0  0  0  0  0  0
   -2.0392   -0.8856    0.0000 N   0  0  0  0  0  0  0  0  0  0  0  0
   -2.8191   -0.6418    0.0000 N   0  0  0  0  0  0  0  0  0  0  0  0
   -1.5354    1.2917    0.0000 N   0  0  0  0  0  0  0  0  0  0  0  0
   -1.7142    2.1042    0.0000 N   0  0  0  0  0  0  0  0  0  0  0  0
    3.8752   -2.3641    0.0000 N   0  0  0  0  0  0  0  0  0  0  0  0
   -0.2843    0.4955    0.0000 C   0  0  0  0  0  0  0  0  0  0  0  0
   -0.7068   -0.2194    0.0000 C   0  0  0  0  0  0  0  0  0  0  0  0
   -1.5517   -0.2031    0.0000 C   0  0  0  0  0  0  0  0  0  0  0  0
   -0.3656    1.9904    0.0000 C   0  0  0  0  0  0  0  0  0  0  0  0
    0.9505   -0.2031    0.0000 C   0  0  0  0  0  0  0  0  0  0  0  0
    0.5444    0.4955    0.0000 C   0  0  0  0  0  0  0  0  0  0  0  0
   -2.8028    0.2031    0.0000 C   0  0  0  0  0  0  0  0  0  0  0  0
   -2.0229    0.4468    0.0000 C   0  0  0  0  0  0  0  0  0  0  0  0
   -0.2843   -0.9180    0.0000 C   0  0  0  0  0  0  0  0  0  0  0  0
    0.4306    2.1530    0.0000 C   0  0  0  0  0  0  0  0  0  0  0  0
    1.7955   -0.2031    0.0000 C   0  0  0  0  0  0  0  0  0  0  0  0
    0.5444   -0.9180    0.0000 C   0  0  0  0  0  0  0  0  0  0  0  0
   -3.4853    0.6906    0.0000 C   0  0  0  0  0  0  0  0  0  0  0  0
   -0.9830    2.5266    0.0000 C   0  0  0  0  0  0  0  0  0  0  0  0
    2.2017   -0.9180    0.0000 C   0  0  0  0  0  0  0  0  0  0  0  0
    3.0465   -0.9343    0.0000 C   0  0  0  0  0  0  0  0  0  0  0  0
    0.7230    2.9328    0.0000 C   0  0  0  0  0  0  0  0  0  0  0  0
    1.0155    1.5354    0.0000 C   0  0  0  0  0  0  0  0  0  0  0  0
    2.2179    0.4793    0.0000 C   0  0  0  0  0  0  0  0  0  0  0  0
   -1.7467   -1.6980    0.0000 C   0  0  0  0  0  0  0  0  0  0  0  0
    3.4528   -0.2356    0.0000 C   0  0  0  0  0  0  0  0  0  0  0  0
    2.0717    2.4942    0.0000 C   0  0  0  0  0  0  0  0  0  0  0  0
    3.0465    0.4955    0.0000 C   0  0  0  0  0  0  0  0  0  0  0  0
    1.5192    3.0954    0.0000 C   0  0  0  0  0  0  0  0  0  0  0  0
    1.8117    1.7142    0.0000 C   0  0  0  0  0  0  0  0  0  0  0  0
   -3.9727   -0.0081    0.0000 C   0  0  0  0  0  0  0  0  0  0  0  0
    3.4690    2.0554    0.0000 C   0  0  0  0  0  0  0  0  0  0  0  0
    3.4853   -3.0954    0.0000 C   0  0  0  0  0  0  0  0  0  0  0  0
  1  8  2  0  0  0  0
  1  9  2  0  0  0  0
  1 15  1  0  0  0  0
  1 31  1  0  0  0  0
  2 28  1  0  0  0  0
  3 28  1  0  0  0  0
  4 42  1  0  0  0  0
  5 42  1  0  0  0  0
  6 42  1  0  0  0  0
  7 37  1  0  0  0  0
  7 42  1  0  0  0  0
 10 13  1  0  0  0  0
 10 16  1  0  0  0  0
 10 19  1  0  0  0  0
 11 12  1  0  0  0  0
 11 18  1  0  0  0  0
 11 35  1  0  0  0  0
 12 22  2  0  0  0  0
 13 14  2  0  0  0  0
 14 29  1  0  0  0  0
 15 43  1  0  0  0  0
 16 17  1  0  0  0  0
 16 21  2  0  0  0  0
 17 18  1  0  0  0  0
 17 24  2  0  0  0  0
 18 23  2  0  0  0  0
 19 25  1  0  0  0  0
 19 29  2  0  0  0  0
 20 21  1  0  0  0  0
 20 26  1  0  0  0  0
 20 27  2  0  0  0  0
 22 23  1  0  0  0  0
 22 28  1  0  0  0  0
 24 27  1  0  0  0  0
 25 32  2  0  0  0  0
 25 33  1  0  0  0  0
 26 30  1  0  0  0  0
 26 34  2  0  0  0  0
 28 41  1  0  0  0  0
 30 31  2  0  0  0  0
 31 36  1  0  0  0  0
 32 39  1  0  0  0  0
 33 40  2  0  0  0  0
 34 38  1  0  0  0  0
 36 38  2  0  0  0  0
 37 39  2  0  0  0  0
 37 40  1  0  0  0  0
M  END
> <PUBCHEM_COMPOUND_ID_TYPE>
0

> <PUBCHEM_TOTAL_CHARGE>
0

> <PUBCHEM_SUBSTANCE_ID>
310948161

> <PUBCHEM_SUBSTANCE_VERSION>
1

> <PUBCHEM_EXT_DATASOURCE_NAME>
4488

> <PUBCHEM_EXT_DATASOURCE_REGID>
SCHEMBL16126338

> <PUBCHEM_SUBSTANCE_COMMENT>
InChI=1S/C28H23F5N6O3S/c1-27(29,30)26-15-23(38(3)36-26)22-12-9-19(18-5-4-6-21(13-18)43(40,41)34-2)14-24(22)39-25(16-35-37-39)17-7-10-20(11-8-17)42-28(31,32)33/h4-16,34H,1-3H3
InChIKey=SICKTVJAESCHNI-UHFFFAOYSA-N

> <PUBCHEM_SUBSTANCE_SYNONYM>
SCHEMBL16126338

> <PUBCHEM_XREF_EXT_ID>
SCHEMBL16126338

> <PUBCHEM_EXT_DATASOURCE_URL>
https://www.surechembl.org/

> <PUBCHEM_EXT_SUBSTANCE_URL>
https://www.surechembl.org/chemical/SCHEMBL16126338

> <PUBCHEM_CID_ASSOCIATIONS>
86276028  1

> <PUBCHEM_COORDINATE_TYPE>
1
3

$$$$
