310932299
  -OEChem-07211613022D

 38 43  0     1  0  0  0  0  0999 V2000
    0.0512    0.0000    0.0000 F   0  0  0  0  0  0  0  0  0  0  0  0
    4.1442   -5.8326    0.0000 O   0  0  0  0  0  0  0  0  0  0  0  0
    0.7674   -5.7815    0.0000 O   0  0  0  0  0  0  0  0  0  0  0  0
    5.0140   -7.3676    0.0000 O   0  0  0  0  0  0  0  0  0  0  0  0
    1.6372  -10.2327    0.0000 O   0  0  0  0  0  0  0  0  0  0  0  0
    1.2279   -3.6326    0.0000 O   0  0  0  0  0  0  0  0  0  0  0  0
    2.0465   -5.1164    0.0000 N   0  0  0  0  0  0  0  0  0  0  0  0
    3.7350   -7.9815    0.0000 N   0  0  0  0  0  0  0  0  0  0  0  0
    2.5070   -2.9163    0.0000 N   0  0  0  0  0  0  0  0  0  0  0  0
    0.8186   -4.3489    0.0000 N   0  0  0  0  0  0  0  0  0  0  0  0
    0.4605   -2.2000    0.0000 N   0  0  0  0  0  0  0  0  0  0  0  0
    2.4559   -5.8326    0.0000 C   0  0  3  0  0  0  0  0  0  0  0  0
    2.8652   -6.5489    0.0000 C   0  0  0  0  0  0  0  0  0  0  0  0
    2.9163   -5.0652    0.0000 C   0  0  0  0  0  0  0  0  0  0  0  0
    3.7350   -6.5489    0.0000 C   0  0  0  0  0  0  0  0  0  0  0  0
    3.7350   -5.1164    0.0000 C   0  0  0  0  0  0  0  0  0  0  0  0
    1.9953   -6.5489    0.0000 C   0  0  0  0  0  0  0  0  0  0  0  0
    4.1442   -7.3164    0.0000 C   0  0  0  0  0  0  0  0  0  0  0  0
    2.4559   -7.3164    0.0000 C   0  0  0  0  0  0  0  0  0  0  0  0
    2.4559   -4.3489    0.0000 C   0  0  0  0  0  0  0  0  0  0  0  0
    2.8652   -7.9815    0.0000 C   0  0  0  0  0  0  0  0  0  0  0  0
    4.1954   -4.3489    0.0000 C   0  0  0  0  0  0  0  0  0  0  0  0
    1.1768   -5.0652    0.0000 C   0  0  0  0  0  0  0  0  0  0  0  0
    2.9163   -3.6326    0.0000 C   0  0  0  0  0  0  0  0  0  0  0  0
    1.1768   -6.5489    0.0000 C   0  0  0  0  0  0  0  0  0  0  0  0
    3.7350   -3.6838    0.0000 C   0  0  0  0  0  0  0  0  0  0  0  0
    2.4559   -8.7489    0.0000 C   0  0  0  0  0  0  0  0  0  0  0  0
    1.6372   -8.7489    0.0000 C   0  0  0  0  0  0  0  0  0  0  0  0
    2.8652   -9.4652    0.0000 C   0  0  0  0  0  0  0  0  0  0  0  0
    1.6884   -2.9163    0.0000 C   0  0  0  0  0  0  0  0  0  0  0  0
    5.4233   -6.6512    0.0000 C   0  0  0  0  0  0  0  0  0  0  0  0
    1.2791   -2.2000    0.0000 C   0  0  0  0  0  0  0  0  0  0  0  0
    1.2279   -9.4652    0.0000 C   0  0  0  0  0  0  0  0  0  0  0  0
    2.4559  -10.1815    0.0000 C   0  0  0  0  0  0  0  0  0  0  0  0
    1.6884   -1.4326    0.0000 C   0  0  0  0  0  0  0  0  0  0  0  0
    0.0000   -1.4326    0.0000 C   0  0  0  0  0  0  0  0  0  0  0  0
    1.2791   -0.7163    0.0000 C   0  0  0  0  0  0  0  0  0  0  0  0
    0.4605   -0.7163    0.0000 C   0  0  0  0  0  0  0  0  0  0  0  0
  1 38  1  0  0  0  0
  2 15  1  0  0  0  0
  2 16  1  0  0  0  0
  3 23  1  0  0  0  0
  3 25  1  0  0  0  0
  4 18  1  0  0  0  0
  4 31  1  0  0  0  0
  5 33  1  0  0  0  0
  5 34  1  0  0  0  0
  6 30  2  0  0  0  0
 12  7  1  1  0  0  0
  7 23  2  0  0  0  0
  8 18  1  0  0  0  0
  8 21  2  0  0  0  0
  9 24  1  0  0  0  0
  9 30  1  0  0  0  0
 10 23  1  0  0  0  0
 11 32  1  0  0  0  0
 11 36  2  0  0  0  0
 12 13  1  0  0  0  0
 12 14  1  0  0  0  0
 12 17  1  0  0  0  0
 13 15  1  0  0  0  0
 13 19  2  0  0  0  0
 14 16  2  0  0  0  0
 14 20  1  0  0  0  0
 15 18  2  0  0  0  0
 16 22  1  0  0  0  0
 17 25  1  0  0  0  0
 19 21  1  0  0  0  0
 20 24  2  0  0  0  0
 21 27  1  0  0  0  0
 22 26  2  0  0  0  0
 24 26  1  0  0  0  0
 27 28  2  0  0  0  0
 27 29  1  0  0  0  0
 28 33  1  0  0  0  0
 29 34  1  0  0  0  0
 30 32  1  0  0  0  0
 32 35  2  0  0  0  0
 35 37  1  0  0  0  0
 36 38  1  0  0  0  0
 37 38  2  0  0  0  0
M  END
> <PUBCHEM_COMPOUND_ID_TYPE>
0

> <PUBCHEM_TOTAL_CHARGE>
0

> <PUBCHEM_SUBSTANCE_ID>
310932299

> <PUBCHEM_SUBSTANCE_VERSION>
1

> <PUBCHEM_EXT_DATASOURCE_NAME>
4488

> <PUBCHEM_EXT_DATASOURCE_REGID>
SCHEMBL16109663

> <PUBCHEM_SUBSTANCE_COMMENT>
InChI=1S/C27H24FN5O5/c1-35-25-23-19(13-21(32-25)15-6-9-36-10-7-15)27(8-11-37-26(29)33-27)18-12-17(3-5-22(18)38-23)31-24(34)20-4-2-16(28)14-30-20/h2-6,12-14H,7-11H2,1H3,(H2,29,33)(H,31,34)/t27-/m0/s1
InChIKey=GFWSMXIESZYKOW-MHZLTWQESA-N

> <PUBCHEM_SUBSTANCE_SYNONYM>
SCHEMBL16109663

> <PUBCHEM_XREF_EXT_ID>
SCHEMBL16109663

> <PUBCHEM_EXT_DATASOURCE_URL>
https://www.surechembl.org/

> <PUBCHEM_EXT_SUBSTANCE_URL>
https://www.surechembl.org/chemical/SCHEMBL16109663

> <PUBCHEM_CID_ASSOCIATIONS>
71542525  1

> <PUBCHEM_COORDINATE_TYPE>
1
3

> <PUBCHEM_BONDANNOTATIONS>
12  7  5

$$$$
