310943789
  -OEChem-07211613022D

 16 17  0     0  0  0  0  0  0999 V2000
    2.4335   -0.4272    0.0000 O   0  0  0  0  0  0  0  0  0  0  0  0
    2.4582    1.9134    0.0000 O   0  0  0  0  0  0  0  0  0  0  0  0
   -1.1455   -0.9227    0.0000 N   0  0  0  0  0  0  0  0  0  0  0  0
   -0.4272    0.3158    0.0000 N   0  0  0  0  0  0  0  0  0  0  0  0
   -1.9010   -0.5883    0.0000 N   0  0  0  0  0  0  0  0  0  0  0  0
   -2.4582   -1.1951    0.0000 N   0  0  0  0  0  0  0  0  0  0  0  0
   -2.0372   -1.9134    0.0000 N   0  0  0  0  0  0  0  0  0  0  0  0
   -0.4396   -0.5016    0.0000 C   0  0  0  0  0  0  0  0  0  0  0  0
    0.9845   -0.5016    0.0000 C   0  0  0  0  0  0  0  0  0  0  0  0
    1.0093    0.3158    0.0000 C   0  0  0  0  0  0  0  0  0  0  0  0
    0.3034   -0.9103    0.0000 C   0  0  0  0  0  0  0  0  0  0  0  0
    0.2786    0.7245    0.0000 C   0  0  0  0  0  0  0  0  0  0  0  0
   -1.2446   -1.7400    0.0000 C   0  0  0  0  0  0  0  0  0  0  0  0
    1.7400   -0.8855    0.0000 C   0  0  0  0  0  0  0  0  0  0  0  0
    1.7028    0.7245    0.0000 C   0  0  0  0  0  0  0  0  0  0  0  0
    1.7276    1.5542    0.0000 C   0  0  0  0  0  0  0  0  0  0  0  0
  1 14  1  0  0  0  0
  2 16  2  0  0  0  0
  3  5  1  0  0  0  0
  3  8  1  0  0  0  0
  3 13  1  0  0  0  0
  4  8  2  0  0  0  0
  4 12  1  0  0  0  0
  5  6  2  0  0  0  0
  6  7  1  0  0  0  0
  7 13  2  0  0  0  0
  8 11  1  0  0  0  0
  9 10  1  0  0  0  0
  9 11  2  0  0  0  0
  9 14  1  0  0  0  0
 10 12  2  0  0  0  0
 10 15  1  0  0  0  0
 15 16  1  0  0  0  0
M  END
> <PUBCHEM_COMPOUND_ID_TYPE>
0

> <PUBCHEM_TOTAL_CHARGE>
0

> <PUBCHEM_SUBSTANCE_ID>
310943789

> <PUBCHEM_SUBSTANCE_VERSION>
1

> <PUBCHEM_EXT_DATASOURCE_NAME>
4488

> <PUBCHEM_EXT_DATASOURCE_REGID>
SCHEMBL16121859

> <PUBCHEM_SUBSTANCE_COMMENT>
InChI=1S/C9H9N5O2/c15-2-1-7-4-10-9(3-8(7)5-16)14-6-11-12-13-14/h2-4,6,16H,1,5H2
InChIKey=ZSDHYJQYHUPDNI-UHFFFAOYSA-N

> <PUBCHEM_SUBSTANCE_SYNONYM>
SCHEMBL16121859

> <PUBCHEM_XREF_EXT_ID>
SCHEMBL16121859

> <PUBCHEM_EXT_DATASOURCE_URL>
https://www.surechembl.org/

> <PUBCHEM_EXT_SUBSTANCE_URL>
https://www.surechembl.org/chemical/SCHEMBL16121859

> <PUBCHEM_CID_ASSOCIATIONS>
117610148  1

> <PUBCHEM_COORDINATE_TYPE>
1
3

$$$$
