310935463
  -OEChem-07211613022D

 31 33  0     0  0  0  0  0  0999 V2000
    2.7845   -0.1271    0.0000 O   0  0  0  0  0  0  0  0  0  0  0  0
    0.8253   -2.4090    0.0000 O   0  0  0  0  0  0  0  0  0  0  0  0
   -1.8659    2.2374    0.0000 O   0  0  0  0  0  0  0  0  0  0  0  0
    4.2135    0.6979    0.0000 O   0  0  0  0  0  0  0  0  0  0  0  0
   -1.8659    0.8085    0.0000 O   0  0  0  0  0  0  0  0  0  0  0  0
    3.4990    1.9354    0.0000 O   0  0  0  0  0  0  0  0  0  0  0  0
    0.6411    1.9354    0.0000 N   0  0  0  0  0  0  0  0  0  0  0  0
    1.3556   -0.1271    0.0000 N   0  0  0  0  0  0  0  0  0  0  0  0
   -0.1435    2.1904    0.0000 N   0  0  0  0  0  0  0  0  0  0  0  0
    1.3556    0.6979    0.0000 C   0  0  0  0  0  0  0  0  0  0  0  0
    0.6411    1.1104    0.0000 C   0  0  0  0  0  0  0  0  0  0  0  0
    2.0701    1.1104    0.0000 C   0  0  0  0  0  0  0  0  0  0  0  0
    2.0701    1.9354    0.0000 C   0  0  0  0  0  0  0  0  0  0  0  0
   -0.1435    0.8555    0.0000 C   0  0  0  0  0  0  0  0  0  0  0  0
   -0.6284    1.5229    0.0000 C   0  0  0  0  0  0  0  0  0  0  0  0
    1.3556    2.3479    0.0000 C   0  0  0  0  0  0  0  0  0  0  0  0
    2.7845    0.6979    0.0000 C   0  0  0  0  0  0  0  0  0  0  0  0
    2.0701   -0.5396    0.0000 C   0  0  0  0  0  0  0  0  0  0  0  0
    0.6411   -0.5396    0.0000 C   0  0  0  0  0  0  0  0  0  0  0  0
    1.3556   -1.7771    0.0000 C   0  0  0  0  0  0  0  0  0  0  0  0
   -1.4534    1.5229    0.0000 C   0  0  0  0  0  0  0  0  0  0  0  0
    3.4990    1.1104    0.0000 C   0  0  0  0  0  0  0  0  0  0  0  0
    2.0701   -1.3646    0.0000 C   0  0  0  0  0  0  0  0  0  0  0  0
    0.6411   -1.3646    0.0000 C   0  0  0  0  0  0  0  0  0  0  0  0
    2.7845    2.3479    0.0000 C   0  0  0  0  0  0  0  0  0  0  0  0
    1.8859   -2.4090    0.0000 C   0  0  0  0  0  0  0  0  0  0  0  0
    1.1075   -3.1843    0.0000 C   0  0  0  0  0  0  0  0  0  0  0  0
   -2.6909    2.2374    0.0000 C   0  0  0  0  0  0  0  0  0  0  0  0
    4.2135   -0.1271    0.0000 C   0  0  0  0  0  0  0  0  0  0  0  0
    0.5772   -3.8163    0.0000 C   0  0  0  0  0  0  0  0  0  0  0  0
    0.8593   -4.5915    0.0000 C   0  0  0  0  0  0  0  0  0  0  0  0
  1 17  2  0  0  0  0
  2 20  1  0  0  0  0
  2 27  1  0  0  0  0
  3 21  1  0  0  0  0
  3 28  1  0  0  0  0
  4 22  1  0  0  0  0
  4 29  1  0  0  0  0
  5 21  2  0  0  0  0
  6 22  2  0  0  0  0
  7  9  1  0  0  0  0
  7 11  1  0  0  0  0
  7 16  1  0  0  0  0
  8 10  1  0  0  0  0
  8 18  1  0  0  0  0
  8 19  1  0  0  0  0
  9 15  2  0  0  0  0
 10 11  1  0  0  0  0
 10 12  2  0  0  0  0
 11 14  2  0  0  0  0
 12 13  1  0  0  0  0
 12 17  1  0  0  0  0
 13 16  2  0  0  0  0
 13 25  1  0  0  0  0
 14 15  1  0  0  0  0
 15 21  1  0  0  0  0
 17 22  1  0  0  0  0
 18 23  1  0  0  0  0
 19 24  1  0  0  0  0
 20 23  1  0  0  0  0
 20 24  1  0  0  0  0
 20 26  1  0  0  0  0
 27 30  1  0  0  0  0
 30 31  2  0  0  0  0
M  END
> <PUBCHEM_COMPOUND_ID_TYPE>
0

> <PUBCHEM_TOTAL_CHARGE>
0

> <PUBCHEM_SUBSTANCE_ID>
310935463

> <PUBCHEM_SUBSTANCE_VERSION>
1

> <PUBCHEM_EXT_DATASOURCE_NAME>
4488

> <PUBCHEM_EXT_DATASOURCE_REGID>
SCHEMBL16113011

> <PUBCHEM_SUBSTANCE_COMMENT>
InChI=1S/C22H27N3O6/c1-6-11-31-22(3)7-9-24(10-8-22)18-16-12-15(20(27)29-4)23-25(16)13-14(2)17(18)19(26)21(28)30-5/h6,12-13H,1,7-11H2,2-5H3
InChIKey=WNFXCPFNPRRZRY-UHFFFAOYSA-N

> <PUBCHEM_SUBSTANCE_SYNONYM>
SCHEMBL16113011

> <PUBCHEM_XREF_EXT_ID>
SCHEMBL16113011

> <PUBCHEM_EXT_DATASOURCE_URL>
https://www.surechembl.org/

> <PUBCHEM_EXT_SUBSTANCE_URL>
https://www.surechembl.org/chemical/SCHEMBL16113011

> <PUBCHEM_CID_ASSOCIATIONS>
117603503  1

> <PUBCHEM_COORDINATE_TYPE>
1
3

$$$$
