310935819
  -OEChem-07211613022D

 26 28  0     0  0  0  0  0  0999 V2000
    0.0000   -7.4400    0.0000 F   0  0  0  0  0  0  0  0  0  0  0  0
    3.6073   -7.1018    0.0000 O   0  0  0  0  0  0  0  0  0  0  0  0
    5.7867    0.0000    0.0000 O   0  0  0  0  0  0  0  0  0  0  0  0
    4.3212   -5.8242    0.0000 N   0  0  0  0  0  0  0  0  0  0  0  0
    5.0727   -2.0667    0.0000 N   0  0  0  0  0  0  0  0  0  0  0  0
    5.7867   -3.3442    0.0000 N   0  0  0  0  0  0  0  0  0  0  0  0
    6.5006   -2.0667    0.0000 N   0  0  0  0  0  0  0  0  0  0  0  0
    2.8933   -5.8242    0.0000 C   0  0  0  0  0  0  0  0  0  0  0  0
    3.6073   -6.2751    0.0000 C   0  0  0  0  0  0  0  0  0  0  0  0
    2.1794   -6.2375    0.0000 C   0  0  0  0  0  0  0  0  0  0  0  0
    3.6073   -4.5842    0.0000 C   0  0  0  0  0  0  0  0  0  0  0  0
    2.8933   -5.0352    0.0000 C   0  0  0  0  0  0  0  0  0  0  0  0
    4.3212   -5.0352    0.0000 C   0  0  0  0  0  0  0  0  0  0  0  0
    3.6073   -3.7575    0.0000 C   0  0  0  0  0  0  0  0  0  0  0  0
    4.3212   -3.3442    0.0000 C   0  0  0  0  0  0  0  0  0  0  0  0
    2.1418   -7.0642    0.0000 C   0  0  0  0  0  0  0  0  0  0  0  0
    1.4654   -5.8242    0.0000 C   0  0  0  0  0  0  0  0  0  0  0  0
    4.3588   -2.4800    0.0000 C   0  0  0  0  0  0  0  0  0  0  0  0
    5.0727   -3.7200    0.0000 C   0  0  0  0  0  0  0  0  0  0  0  0
    5.7867   -2.4800    0.0000 C   0  0  0  0  0  0  0  0  0  0  0  0
    0.7139   -7.0642    0.0000 C   0  0  0  0  0  0  0  0  0  0  0  0
    1.4278   -7.4776    0.0000 C   0  0  0  0  0  0  0  0  0  0  0  0
    0.7515   -6.2375    0.0000 C   0  0  0  0  0  0  0  0  0  0  0  0
    4.3212   -7.5151    0.0000 C   0  0  0  0  0  0  0  0  0  0  0  0
    6.5006   -1.2400    0.0000 C   0  0  0  0  0  0  0  0  0  0  0  0
    5.7867   -0.8267    0.0000 C   0  0  0  0  0  0  0  0  0  0  0  0
  1 21  1  0  0  0  0
  2  9  1  0  0  0  0
  2 24  1  0  0  0  0
  3 26  1  0  0  0  0
  4  9  2  0  0  0  0
  4 13  1  0  0  0  0
  5 18  1  0  0  0  0
  5 20  2  0  0  0  0
  6 19  2  0  0  0  0
  6 20  1  0  0  0  0
  7 20  1  0  0  0  0
  7 25  1  0  0  0  0
  8  9  1  0  0  0  0
  8 10  1  0  0  0  0
  8 12  2  0  0  0  0
 10 16  2  0  0  0  0
 10 17  1  0  0  0  0
 11 12  1  0  0  0  0
 11 13  2  0  0  0  0
 11 14  1  0  0  0  0
 14 15  1  0  0  0  0
 15 18  2  0  0  0  0
 15 19  1  0  0  0  0
 16 22  1  0  0  0  0
 17 23  2  0  0  0  0
 21 22  2  0  0  0  0
 21 23  1  0  0  0  0
 25 26  1  0  0  0  0
M  END
> <PUBCHEM_COMPOUND_ID_TYPE>
0

> <PUBCHEM_TOTAL_CHARGE>
0

> <PUBCHEM_SUBSTANCE_ID>
310935819

> <PUBCHEM_SUBSTANCE_VERSION>
1

> <PUBCHEM_EXT_DATASOURCE_NAME>
4488

> <PUBCHEM_EXT_DATASOURCE_REGID>
SCHEMBL16113407

> <PUBCHEM_SUBSTANCE_COMMENT>
InChI=1S/C19H19FN4O2/c1-26-18-17(15-2-4-16(20)5-3-15)9-13(10-22-18)8-14-11-23-19(24-12-14)21-6-7-25/h2-5,9-12,25H,6-8H2,1H3,(H,21,23,24)
InChIKey=OQJJUBWGNKNMHD-UHFFFAOYSA-N

> <PUBCHEM_SUBSTANCE_SYNONYM>
SCHEMBL16113407

> <PUBCHEM_XREF_EXT_ID>
SCHEMBL16113407

> <PUBCHEM_EXT_DATASOURCE_URL>
https://www.surechembl.org/

> <PUBCHEM_EXT_SUBSTANCE_URL>
https://www.surechembl.org/chemical/SCHEMBL16113407

> <PUBCHEM_CID_ASSOCIATIONS>
117603810  1

> <PUBCHEM_COORDINATE_TYPE>
1
3

$$$$
