310934412
  -OEChem-07211613022D

 36 41  0     0  0  0  0  0  0999 V2000
   -5.0013    0.8250    0.0000 O   0  0  0  0  0  0  0  0  0  0  0  0
    1.1270   -2.9196    0.0000 N   0  0  0  0  0  0  0  0  0  0  0  0
    0.3020   -2.9196    0.0000 N   0  0  0  0  0  0  0  0  0  0  0  0
    2.1889   -1.9634    0.0000 N   0  0  0  0  0  0  0  0  0  0  0  0
    0.7144    0.8250    0.0000 N   0  0  0  0  0  0  0  0  0  0  0  0
    4.6941   -5.8135    0.0000 N   0  0  0  0  0  0  0  0  0  0  0  0
   -2.8579    0.4125    0.0000 N   0  0  0  0  0  0  0  0  0  0  0  0
    5.7982   -7.0397    0.0000 N   0  0  0  0  0  0  0  0  0  0  0  0
    0.7144   -1.6500    0.0000 C   0  0  0  0  0  0  0  0  0  0  0  0
    1.3819   -2.1349    0.0000 C   0  0  0  0  0  0  0  0  0  0  0  0
    0.7144   -0.8250    0.0000 C   0  0  0  0  0  0  0  0  0  0  0  0
    0.0000   -0.4125    0.0000 C   0  0  0  0  0  0  0  0  0  0  0  0
    0.0470   -2.1349    0.0000 C   0  0  0  0  0  0  0  0  0  0  0  0
    0.0000    0.4125    0.0000 C   0  0  0  0  0  0  0  0  0  0  0  0
    2.4860   -3.3611    0.0000 C   0  0  0  0  0  0  0  0  0  0  0  0
    1.6790   -3.5327    0.0000 C   0  0  0  0  0  0  0  0  0  0  0  0
    1.4290   -0.4125    0.0000 C   0  0  0  0  0  0  0  0  0  0  0  0
    2.7409   -2.5765    0.0000 C   0  0  0  0  0  0  0  0  0  0  0  0
    3.0380   -3.9742    0.0000 C   0  0  0  0  0  0  0  0  0  0  0  0
   -0.7144   -0.8250    0.0000 C   0  0  0  0  0  0  0  0  0  0  0  0
   -0.7144    0.8250    0.0000 C   0  0  0  0  0  0  0  0  0  0  0  0
    1.4290    0.4125    0.0000 C   0  0  0  0  0  0  0  0  0  0  0  0
   -1.4290    0.4125    0.0000 C   0  0  0  0  0  0  0  0  0  0  0  0
   -1.4290   -0.4125    0.0000 C   0  0  0  0  0  0  0  0  0  0  0  0
    2.7831   -4.7588    0.0000 C   0  0  0  0  0  0  0  0  0  0  0  0
    3.8450   -3.8027    0.0000 C   0  0  0  0  0  0  0  0  0  0  0  0
    4.1421   -5.2004    0.0000 C   0  0  0  0  0  0  0  0  0  0  0  0
    3.3351   -5.3719    0.0000 C   0  0  0  0  0  0  0  0  0  0  0  0
    4.3970   -4.4158    0.0000 C   0  0  0  0  0  0  0  0  0  0  0  0
   -2.1434    0.8250    0.0000 C   0  0  0  0  0  0  0  0  0  0  0  0
    5.5011   -5.6419    0.0000 C   0  0  0  0  0  0  0  0  0  0  0  0
    4.4391   -6.5981    0.0000 C   0  0  0  0  0  0  0  0  0  0  0  0
    6.0531   -6.2550    0.0000 C   0  0  0  0  0  0  0  0  0  0  0  0
    4.9912   -7.2112    0.0000 C   0  0  0  0  0  0  0  0  0  0  0  0
   -3.5724    0.8250    0.0000 C   0  0  0  0  0  0  0  0  0  0  0  0
   -4.2868    0.4125    0.0000 C   0  0  0  0  0  0  0  0  0  0  0  0
  1 36  1  0  0  0  0
  2  3  1  0  0  0  0
  2 10  1  0  0  0  0
  2 16  1  0  0  0  0
  3 13  2  0  0  0  0
  4 10  1  0  0  0  0
  4 18  2  0  0  0  0
  5 14  1  0  0  0  0
  5 22  2  0  0  0  0
  6 27  1  0  0  0  0
  6 31  1  0  0  0  0
  6 32  1  0  0  0  0
  7 30  1  0  0  0  0
  7 35  1  0  0  0  0
  8 33  1  0  0  0  0
  8 34  1  0  0  0  0
  9 10  2  0  0  0  0
  9 11  1  0  0  0  0
  9 13  1  0  0  0  0
 11 12  1  0  0  0  0
 11 17  2  0  0  0  0
 12 14  1  0  0  0  0
 12 20  2  0  0  0  0
 14 21  2  0  0  0  0
 15 16  2  0  0  0  0
 15 18  1  0  0  0  0
 15 19  1  0  0  0  0
 17 22  1  0  0  0  0
 19 25  2  0  0  0  0
 19 26  1  0  0  0  0
 20 24  1  0  0  0  0
 21 23  1  0  0  0  0
 23 24  2  0  0  0  0
 23 30  1  0  0  0  0
 25 28  1  0  0  0  0
 26 29  2  0  0  0  0
 27 28  2  0  0  0  0
 27 29  1  0  0  0  0
 31 33  1  0  0  0  0
 32 34  1  0  0  0  0
 35 36  1  0  0  0  0
M  END
> <PUBCHEM_COMPOUND_ID_TYPE>
0

> <PUBCHEM_TOTAL_CHARGE>
0

> <PUBCHEM_SUBSTANCE_ID>
310934412

> <PUBCHEM_SUBSTANCE_VERSION>
1

> <PUBCHEM_EXT_DATASOURCE_NAME>
4488

> <PUBCHEM_EXT_DATASOURCE_REGID>
SCHEMBL16111886

> <PUBCHEM_SUBSTANCE_COMMENT>
InChI=1S/C28H29N7O/c36-14-11-30-16-20-1-6-25-24(7-8-31-27(25)15-20)26-18-33-35-19-22(17-32-28(26)35)21-2-4-23(5-3-21)34-12-9-29-10-13-34/h1-8,15,17-19,29-30,36H,9-14,16H2
InChIKey=FZKAIVDWZQOLKN-UHFFFAOYSA-N

> <PUBCHEM_SUBSTANCE_SYNONYM>
SCHEMBL16111886

> <PUBCHEM_XREF_EXT_ID>
SCHEMBL16111886

> <PUBCHEM_EXT_DATASOURCE_URL>
https://www.surechembl.org/

> <PUBCHEM_EXT_SUBSTANCE_URL>
https://www.surechembl.org/chemical/SCHEMBL16111886

> <PUBCHEM_CID_ASSOCIATIONS>
86275488  1

> <PUBCHEM_COORDINATE_TYPE>
1
3

$$$$
