310943964
  -OEChem-07211613022D

 67 78  0     0  0  0  0  0  0999 V2000
   -0.0093    2.9506    0.0000 F   0  0  0  0  0  0  0  0  0  0  0  0
    1.4707    0.4532    0.0000 N   0  0  0  0  0  0  0  0  0  0  0  0
   -1.4707    0.4532    0.0000 N   0  0  0  0  0  0  0  0  0  0  0  0
   -2.1551    2.4511    0.0000 N   0  0  0  0  0  0  0  0  0  0  0  0
    2.1736    2.4696    0.0000 N   0  0  0  0  0  0  0  0  0  0  0  0
    0.7122    0.8972    0.0000 C   0  0  0  0  0  0  0  0  0  0  0  0
   -0.7307    0.8972    0.0000 C   0  0  0  0  0  0  0  0  0  0  0  0
   -0.0093    0.4717    0.0000 C   0  0  0  0  0  0  0  0  0  0  0  0
    2.2476    0.8047    0.0000 C   0  0  0  0  0  0  0  0  0  0  0  0
    1.5817   -0.3607    0.0000 C   0  0  0  0  0  0  0  0  0  0  0  0
   -2.2476    0.8047    0.0000 C   0  0  0  0  0  0  0  0  0  0  0  0
   -1.5817   -0.3607    0.0000 C   0  0  0  0  0  0  0  0  0  0  0  0
    0.7307    1.7111    0.0000 C   0  0  0  0  0  0  0  0  0  0  0  0
   -0.7307    1.7111    0.0000 C   0  0  0  0  0  0  0  0  0  0  0  0
    2.8211    0.1943    0.0000 C   0  0  0  0  0  0  0  0  0  0  0  0
    2.3771   -0.5272    0.0000 C   0  0  0  0  0  0  0  0  0  0  0  0
   -2.7841    0.1943    0.0000 C   0  0  0  0  0  0  0  0  0  0  0  0
   -2.3771   -0.5272    0.0000 C   0  0  0  0  0  0  0  0  0  0  0  0
   -0.0093    2.1366    0.0000 C   0  0  0  0  0  0  0  0  0  0  0  0
   -0.0093   -0.3607    0.0000 C   0  0  0  0  0  0  0  0  0  0  0  0
    2.5251    1.5817    0.0000 C   0  0  0  0  0  0  0  0  0  0  0  0
    1.0267   -0.9527    0.0000 C   0  0  0  0  0  0  0  0  0  0  0  0
   -2.4881    1.5631    0.0000 C   0  0  0  0  0  0  0  0  0  0  0  0
   -1.0082   -0.9712    0.0000 C   0  0  0  0  0  0  0  0  0  0  0  0
    3.6350    0.3793    0.0000 C   0  0  0  0  0  0  0  0  0  0  0  0
    2.6361   -1.3227    0.0000 C   0  0  0  0  0  0  0  0  0  0  0  0
   -2.6176   -1.3041    0.0000 C   0  0  0  0  0  0  0  0  0  0  0  0
   -3.5980    0.3607    0.0000 C   0  0  0  0  0  0  0  0  0  0  0  0
   -1.4521    2.0996    0.0000 C   0  0  0  0  0  0  0  0  0  0  0  0
    1.4521    2.1181    0.0000 C   0  0  0  0  0  0  0  0  0  0  0  0
    3.3020    1.7666    0.0000 C   0  0  0  0  0  0  0  0  0  0  0  0
    1.2857   -1.7297    0.0000 C   0  0  0  0  0  0  0  0  0  0  0  0
   -3.3206    1.7851    0.0000 C   0  0  0  0  0  0  0  0  0  0  0  0
   -1.2671   -1.7666    0.0000 C   0  0  0  0  0  0  0  0  0  0  0  0
   -0.7122   -0.7677    0.0000 C   0  0  0  0  0  0  0  0  0  0  0  0
    0.7307   -0.7677    0.0000 C   0  0  0  0  0  0  0  0  0  0  0  0
    3.8755    1.1377    0.0000 C   0  0  0  0  0  0  0  0  0  0  0  0
    2.0996   -1.8961    0.0000 C   0  0  0  0  0  0  0  0  0  0  0  0
   -3.8570    1.1007    0.0000 C   0  0  0  0  0  0  0  0  0  0  0  0
   -2.0626   -1.9146    0.0000 C   0  0  0  0  0  0  0  0  0  0  0  0
    3.5795    2.5621    0.0000 C   0  0  0  0  0  0  0  0  0  0  0  0
    1.4891   -2.5621    0.0000 C   0  0  0  0  0  0  0  0  0  0  0  0
   -3.5796    2.5436    0.0000 C   0  0  0  0  0  0  0  0  0  0  0  0
   -1.4707   -2.5621    0.0000 C   0  0  0  0  0  0  0  0  0  0  0  0
   -0.7122   -1.6001    0.0000 C   0  0  0  0  0  0  0  0  0  0  0  0
    0.7307   -1.5817    0.0000 C   0  0  0  0  0  0  0  0  0  0  0  0
    0.0277   -2.0071    0.0000 C   0  0  0  0  0  0  0  0  0  0  0  0
    4.3750    2.7286    0.0000 C   0  0  0  0  0  0  0  0  0  0  0  0
    0.9157   -3.1356    0.0000 C   0  0  0  0  0  0  0  0  0  0  0  0
    3.0246    3.1540    0.0000 C   0  0  0  0  0  0  0  0  0  0  0  0
    2.3031   -2.7841    0.0000 C   0  0  0  0  0  0  0  0  0  0  0  0
   -3.0246    3.1540    0.0000 C   0  0  0  0  0  0  0  0  0  0  0  0
   -2.2476   -2.7656    0.0000 C   0  0  0  0  0  0  0  0  0  0  0  0
   -4.3935    2.7286    0.0000 C   0  0  0  0  0  0  0  0  0  0  0  0
   -0.8972   -3.1356    0.0000 C   0  0  0  0  0  0  0  0  0  0  0  0
    4.6340    3.5056    0.0000 C   0  0  0  0  0  0  0  0  0  0  0  0
    1.1192   -3.9310    0.0000 C   0  0  0  0  0  0  0  0  0  0  0  0
    3.2650    3.9495    0.0000 C   0  0  0  0  0  0  0  0  0  0  0  0
    2.5066   -3.5610    0.0000 C   0  0  0  0  0  0  0  0  0  0  0  0
   -3.2650    3.9495    0.0000 C   0  0  0  0  0  0  0  0  0  0  0  0
   -2.4881   -3.5610    0.0000 C   0  0  0  0  0  0  0  0  0  0  0  0
   -4.6340    3.5056    0.0000 C   0  0  0  0  0  0  0  0  0  0  0  0
   -1.1192   -3.9125    0.0000 C   0  0  0  0  0  0  0  0  0  0  0  0
    4.0790    4.1160    0.0000 C   0  0  0  0  0  0  0  0  0  0  0  0
    1.9331   -4.1160    0.0000 C   0  0  0  0  0  0  0  0  0  0  0  0
   -4.0790    4.1160    0.0000 C   0  0  0  0  0  0  0  0  0  0  0  0
   -1.9146   -4.1160    0.0000 C   0  0  0  0  0  0  0  0  0  0  0  0
  1 19  1  0  0  0  0
  2  6  1  0  0  0  0
  2  9  1  0  0  0  0
  2 10  1  0  0  0  0
  3  7  1  0  0  0  0
  3 11  1  0  0  0  0
  3 12  1  0  0  0  0
  4 29  3  0  0  0  0
  5 30  3  0  0  0  0
  6  8  2  0  0  0  0
  6 13  1  0  0  0  0
  7  8  1  0  0  0  0
  7 14  2  0  0  0  0
  8 20  1  0  0  0  0
  9 15  2  0  0  0  0
  9 21  1  0  0  0  0
 10 16  2  0  0  0  0
 10 22  1  0  0  0  0
 11 17  2  0  0  0  0
 11 23  1  0  0  0  0
 12 18  2  0  0  0  0
 12 24  1  0  0  0  0
 13 19  2  0  0  0  0
 13 30  1  0  0  0  0
 14 19  1  0  0  0  0
 14 29  1  0  0  0  0
 15 16  1  0  0  0  0
 15 25  1  0  0  0  0
 16 26  1  0  0  0  0
 17 18  1  0  0  0  0
 17 28  1  0  0  0  0
 18 27  1  0  0  0  0
 20 35  2  0  0  0  0
 20 36  1  0  0  0  0
 21 31  2  0  0  0  0
 22 32  2  0  0  0  0
 23 33  2  0  0  0  0
 24 34  2  0  0  0  0
 25 37  2  0  0  0  0
 26 38  2  0  0  0  0
 27 40  2  0  0  0  0
 28 39  2  0  0  0  0
 31 37  1  0  0  0  0
 31 41  1  0  0  0  0
 32 38  1  0  0  0  0
 32 42  1  0  0  0  0
 33 39  1  0  0  0  0
 33 43  1  0  0  0  0
 34 40  1  0  0  0  0
 34 44  1  0  0  0  0
 35 45  1  0  0  0  0
 36 46  2  0  0  0  0
 41 48  2  0  0  0  0
 41 50  1  0  0  0  0
 42 49  2  0  0  0  0
 42 51  1  0  0  0  0
 43 52  2  0  0  0  0
 43 54  1  0  0  0  0
 44 53  2  0  0  0  0
 44 55  1  0  0  0  0
 45 47  2  0  0  0  0
 46 47  1  0  0  0  0
 48 56  1  0  0  0  0
 49 57  1  0  0  0  0
 50 58  2  0  0  0  0
 51 59  2  0  0  0  0
 52 60  1  0  0  0  0
 53 61  1  0  0  0  0
 54 62  2  0  0  0  0
 55 63  2  0  0  0  0
 56 64  2  0  0  0  0
 57 65  2  0  0  0  0
 58 64  1  0  0  0  0
 59 65  1  0  0  0  0
 60 66  2  0  0  0  0
 61 67  2  0  0  0  0
 62 66  1  0  0  0  0
 63 67  1  0  0  0  0
M  END
> <PUBCHEM_COMPOUND_ID_TYPE>
0

> <PUBCHEM_TOTAL_CHARGE>
0

> <PUBCHEM_SUBSTANCE_ID>
310943964

> <PUBCHEM_SUBSTANCE_VERSION>
1

> <PUBCHEM_EXT_DATASOURCE_NAME>
4488

> <PUBCHEM_EXT_DATASOURCE_REGID>
SCHEMBL16122035

> <PUBCHEM_SUBSTANCE_COMMENT>
InChI=1S/C62H37FN4/c63-60-53(38-64)61(66-55-34-45(40-16-6-1-7-17-40)26-30-49(55)50-31-27-46(35-56(50)66)41-18-8-2-9-19-41)59(44-24-14-5-15-25-44)62(54(60)39-65)67-57-36-47(42-20-10-3-11-21-42)28-32-51(57)52-33-29-48(37-58(52)67)43-22-12-4-13-23-43/h1-37H
InChIKey=HNGDQWKVZHCDKK-UHFFFAOYSA-N

> <PUBCHEM_SUBSTANCE_SYNONYM>
SCHEMBL16122035

> <PUBCHEM_XREF_EXT_ID>
SCHEMBL16122035

> <PUBCHEM_EXT_DATASOURCE_URL>
https://www.surechembl.org/

> <PUBCHEM_EXT_SUBSTANCE_URL>
https://www.surechembl.org/chemical/SCHEMBL16122035

> <PUBCHEM_CID_ASSOCIATIONS>
117610271  1

> <PUBCHEM_COORDINATE_TYPE>
1
3

$$$$
