310935056
  -OEChem-07211613022D

 35 40  0     0  0  0  0  0  0999 V2000
    5.4086   -6.6385    0.0000 O   0  0  0  0  0  0  0  0  0  0  0  0
    1.8414   -3.7445    0.0000 N   0  0  0  0  0  0  0  0  0  0  0  0
    1.0164   -3.7445    0.0000 N   0  0  0  0  0  0  0  0  0  0  0  0
    2.9034   -2.7884    0.0000 N   0  0  0  0  0  0  0  0  0  0  0  0
    0.0000    0.0000    0.0000 N   0  0  0  0  0  0  0  0  0  0  0  0
    3.4975   -5.5838    0.0000 N   0  0  0  0  0  0  0  0  0  0  0  0
    5.4507   -8.8208    0.0000 N   0  0  0  0  0  0  0  0  0  0  0  0
    1.4289   -2.4750    0.0000 C   0  0  0  0  0  0  0  0  0  0  0  0
    2.0964   -2.9599    0.0000 C   0  0  0  0  0  0  0  0  0  0  0  0
    1.4289   -1.6500    0.0000 C   0  0  0  0  0  0  0  0  0  0  0  0
    0.7145   -1.2375    0.0000 C   0  0  0  0  0  0  0  0  0  0  0  0
    0.7615   -2.9599    0.0000 C   0  0  0  0  0  0  0  0  0  0  0  0
    3.2004   -4.1861    0.0000 C   0  0  0  0  0  0  0  0  0  0  0  0
    0.7145   -0.4125    0.0000 C   0  0  0  0  0  0  0  0  0  0  0  0
    2.3935   -4.3576    0.0000 C   0  0  0  0  0  0  0  0  0  0  0  0
    2.1434   -1.2375    0.0000 C   0  0  0  0  0  0  0  0  0  0  0  0
    3.4554   -3.4015    0.0000 C   0  0  0  0  0  0  0  0  0  0  0  0
    3.7525   -4.7992    0.0000 C   0  0  0  0  0  0  0  0  0  0  0  0
    0.0000   -1.6500    0.0000 C   0  0  0  0  0  0  0  0  0  0  0  0
    1.4289    0.0000    0.0000 C   0  0  0  0  0  0  0  0  0  0  0  0
    2.1434   -0.4125    0.0000 C   0  0  0  0  0  0  0  0  0  0  0  0
   -0.7145   -0.4125    0.0000 C   0  0  0  0  0  0  0  0  0  0  0  0
   -0.7145   -1.2375    0.0000 C   0  0  0  0  0  0  0  0  0  0  0  0
    4.5595   -4.6277    0.0000 C   0  0  0  0  0  0  0  0  0  0  0  0
    4.8565   -6.0254    0.0000 C   0  0  0  0  0  0  0  0  0  0  0  0
    4.0496   -6.1969    0.0000 C   0  0  0  0  0  0  0  0  0  0  0  0
    5.1115   -5.2408    0.0000 C   0  0  0  0  0  0  0  0  0  0  0  0
   -1.4289   -0.0000    0.0000 C   0  0  0  0  0  0  0  0  0  0  0  0
    5.1536   -7.4231    0.0000 C   0  0  0  0  0  0  0  0  0  0  0  0
    5.7057   -8.0362    0.0000 C   0  0  0  0  0  0  0  0  0  0  0  0
    6.0028   -9.4339    0.0000 C   0  0  0  0  0  0  0  0  0  0  0  0
    4.6438   -8.9924    0.0000 C   0  0  0  0  0  0  0  0  0  0  0  0
    5.7478  -10.2185    0.0000 C   0  0  0  0  0  0  0  0  0  0  0  0
    4.3888   -9.7770    0.0000 C   0  0  0  0  0  0  0  0  0  0  0  0
    4.9409  -10.3901    0.0000 C   0  0  0  0  0  0  0  0  0  0  0  0
  1 25  1  0  0  0  0
  1 29  1  0  0  0  0
  2  3  1  0  0  0  0
  2  9  1  0  0  0  0
  2 15  1  0  0  0  0
  3 12  2  0  0  0  0
  4  9  1  0  0  0  0
  4 17  2  0  0  0  0
  5 14  1  0  0  0  0
  5 22  2  0  0  0  0
  6 18  2  0  0  0  0
  6 26  1  0  0  0  0
  7 30  1  0  0  0  0
  7 31  1  0  0  0  0
  7 32  1  0  0  0  0
  8  9  2  0  0  0  0
  8 10  1  0  0  0  0
  8 12  1  0  0  0  0
 10 11  1  0  0  0  0
 10 16  2  0  0  0  0
 11 14  2  0  0  0  0
 11 19  1  0  0  0  0
 13 15  2  0  0  0  0
 13 17  1  0  0  0  0
 13 18  1  0  0  0  0
 14 20  1  0  0  0  0
 16 21  1  0  0  0  0
 18 24  1  0  0  0  0
 19 23  2  0  0  0  0
 20 21  2  0  0  0  0
 22 23  1  0  0  0  0
 22 28  1  0  0  0  0
 24 27  2  0  0  0  0
 25 26  2  0  0  0  0
 25 27  1  0  0  0  0
 29 30  1  0  0  0  0
 31 33  1  0  0  0  0
 32 34  1  0  0  0  0
 33 35  1  0  0  0  0
 34 35  1  0  0  0  0
M  END
> <PUBCHEM_COMPOUND_ID_TYPE>
0

> <PUBCHEM_TOTAL_CHARGE>
0

> <PUBCHEM_SUBSTANCE_ID>
310935056

> <PUBCHEM_SUBSTANCE_VERSION>
1

> <PUBCHEM_EXT_DATASOURCE_NAME>
4488

> <PUBCHEM_EXT_DATASOURCE_REGID>
SCHEMBL16112576

> <PUBCHEM_SUBSTANCE_COMMENT>
InChI=1S/C28H28N6O/c1-20-8-10-24-23(6-5-7-27(24)32-20)25-18-31-34-19-21(16-30-28(25)34)26-11-9-22(17-29-26)35-15-14-33-12-3-2-4-13-33/h5-11,16-19H,2-4,12-15H2,1H3
InChIKey=CLSVHDFWSGQNQH-UHFFFAOYSA-N

> <PUBCHEM_SUBSTANCE_SYNONYM>
SCHEMBL16112576

> <PUBCHEM_XREF_EXT_ID>
SCHEMBL16112576

> <PUBCHEM_EXT_DATASOURCE_URL>
https://www.surechembl.org/

> <PUBCHEM_EXT_SUBSTANCE_URL>
https://www.surechembl.org/chemical/SCHEMBL16112576

> <PUBCHEM_CID_ASSOCIATIONS>
117603156  1

> <PUBCHEM_COORDINATE_TYPE>
1
3

$$$$
