310936774
  -OEChem-07211613022D

 19 20  0     1  0  0  0  0  0999 V2000
    1.3196   -4.1579    0.0000 Cl  0  0  0  0  0  0  0  0  0  0  0  0
    2.7387   -4.9796    0.0000 Cl  0  0  0  0  0  0  0  0  0  0  0  0
    0.4233   -2.6392    0.0000 S   0  0  0  0  0  0  0  0  0  0  0  0
    2.0168   -0.4233    0.0000 O   0  0  0  0  0  0  0  0  0  0  0  0
    3.4608   -0.4233    0.0000 N   0  0  0  0  0  0  0  0  0  0  0  0
    2.7387   -1.6682    0.0000 C   0  0  3  0  0  0  0  0  0  0  0  0
    2.7387   -2.4898    0.0000 C   0  0  0  0  0  0  0  0  0  0  0  0
    2.0168   -1.2449    0.0000 C   0  0  3  0  0  0  0  0  0  0  0  0
    1.2947   -1.6682    0.0000 C   0  0  0  0  0  0  0  0  0  0  0  0
    2.0416   -2.9131    0.0000 C   0  0  0  0  0  0  0  0  0  0  0  0
    2.0416   -3.7347    0.0000 C   0  0  0  0  0  0  0  0  0  0  0  0
    3.4608   -2.9131    0.0000 C   0  0  0  0  0  0  0  0  0  0  0  0
    2.7387   -4.1579    0.0000 C   0  0  0  0  0  0  0  0  0  0  0  0
    3.4608   -1.2449    0.0000 C   0  0  0  0  0  0  0  0  0  0  0  0
    3.4608   -3.7347    0.0000 C   0  0  0  0  0  0  0  0  0  0  0  0
    1.2200   -2.4898    0.0000 C   0  0  0  0  0  0  0  0  0  0  0  0
    0.5727   -1.3196    0.0000 C   0  0  0  0  0  0  0  0  0  0  0  0
    0.0000   -1.9171    0.0000 C   0  0  0  0  0  0  0  0  0  0  0  0
    2.7387    0.0000    0.0000 C   0  0  0  0  0  0  0  0  0  0  0  0
  1 11  1  0  0  0  0
  2 13  1  0  0  0  0
  3 16  1  0  0  0  0
  3 18  1  0  0  0  0
  8  4  1  6  0  0  0
  5 14  1  0  0  0  0
  5 19  1  0  0  0  0
  6  7  1  0  0  0  0
  6  8  1  0  0  0  0
  6 14  1  1  0  0  0
  7 10  1  0  0  0  0
  7 12  2  0  0  0  0
  8  9  1  0  0  0  0
  9 16  2  0  0  0  0
  9 17  1  0  0  0  0
 10 11  2  0  0  0  0
 11 13  1  0  0  0  0
 12 15  1  0  0  0  0
 13 15  2  0  0  0  0
 17 18  2  0  0  0  0
M  END
> <PUBCHEM_COMPOUND_ID_TYPE>
0

> <PUBCHEM_TOTAL_CHARGE>
0

> <PUBCHEM_SUBSTANCE_ID>
310936774

> <PUBCHEM_SUBSTANCE_VERSION>
1

> <PUBCHEM_EXT_DATASOURCE_NAME>
4488

> <PUBCHEM_EXT_DATASOURCE_REGID>
SCHEMBL16114458

> <PUBCHEM_SUBSTANCE_COMMENT>
InChI=1S/C14H15Cl2NOS/c1-17-7-11(14(18)10-4-5-19-8-10)9-2-3-12(15)13(16)6-9/h2-6,8,11,14,17-18H,7H2,1H3/t11-,14-/m0/s1
InChIKey=OBLQTDRIHYWTHA-FZMZJTMJSA-N

> <PUBCHEM_SUBSTANCE_SYNONYM>
SCHEMBL16114458

> <PUBCHEM_XREF_EXT_ID>
SCHEMBL16114458

> <PUBCHEM_EXT_DATASOURCE_URL>
https://www.surechembl.org/

> <PUBCHEM_EXT_SUBSTANCE_URL>
https://www.surechembl.org/chemical/SCHEMBL16114458

> <PUBCHEM_CID_ASSOCIATIONS>
86287816  1

> <PUBCHEM_COORDINATE_TYPE>
1
3

> <PUBCHEM_BONDANNOTATIONS>
8  4  6
6  14  5

$$$$
