310945891
  -OEChem-07211613022D

 32 35  0     1  0  0  0  0  0999 V2000
    1.0641    3.8573    0.0000 F   0  0  0  0  0  0  0  0  0  0  0  0
    1.3681    2.7743    0.0000 F   0  0  0  0  0  0  0  0  0  0  0  0
    0.2660    2.4892    0.0000 F   0  0  0  0  0  0  0  0  0  0  0  0
   -1.5201   -1.4821    0.0000 O   0  0  0  0  0  0  0  0  0  0  0  0
    2.0712   -3.6103    0.0000 O   0  0  0  0  0  0  0  0  0  0  0  0
    1.3681   -4.8074    0.0000 O   0  0  0  0  0  0  0  0  0  0  0  0
   -0.7790    2.3372    0.0000 N   0  0  3  0  0  0  0  0  0  0  0  0
   -0.7790   -0.2090    0.0000 N   0  0  0  0  0  0  0  0  0  0  0  0
   -2.0712    1.0451    0.0000 N   0  0  0  0  0  0  0  0  0  0  0  0
   -0.0950   -1.4441    0.0000 N   0  0  0  0  0  0  0  0  0  0  0  0
    0.6460   -2.7172    0.0000 N   0  0  0  0  0  0  0  0  0  0  0  0
   -0.7981   -2.7172    0.0000 N   0  0  0  0  0  0  0  0  0  0  0  0
   -1.2351    1.1021    0.0000 C   0  0  3  0  0  0  0  0  0  0  0  0
   -0.3990    1.0831    0.0000 C   0  0  3  0  0  0  0  0  0  0  0  0
   -1.4821    1.8621    0.0000 C   0  0  0  0  0  0  0  0  0  0  0  0
   -1.4821    0.2660    0.0000 C   0  0  0  0  0  0  0  0  0  0  0  0
   -0.1330    1.8242    0.0000 C   0  0  0  0  0  0  0  0  0  0  0  0
   -0.7981    3.1923    0.0000 C   0  0  0  0  0  0  0  0  0  0  0  0
   -0.1330    0.2660    0.0000 C   0  0  0  0  0  0  0  0  0  0  0  0
   -0.0570    3.5913    0.0000 C   0  0  0  0  0  0  0  0  0  0  0  0
   -0.7981   -1.0260    0.0000 C   0  0  0  0  0  0  0  0  0  0  0  0
    0.6460    3.1733    0.0000 C   0  0  0  0  0  0  0  0  0  0  0  0
   -1.5011    3.5913    0.0000 C   0  0  0  0  0  0  0  0  0  0  0  0
   -0.0760    4.4084    0.0000 C   0  0  0  0  0  0  0  0  0  0  0  0
   -0.0950   -2.2802    0.0000 C   0  0  0  0  0  0  0  0  0  0  0  0
   -1.5011    4.4084    0.0000 C   0  0  0  0  0  0  0  0  0  0  0  0
   -0.7981    4.8074    0.0000 C   0  0  0  0  0  0  0  0  0  0  0  0
    0.6460   -3.4963    0.0000 C   0  0  0  0  0  0  0  0  0  0  0  0
   -0.8361   -3.5533    0.0000 C   0  0  0  0  0  0  0  0  0  0  0  0
   -0.0760   -3.9523    0.0000 C   0  0  0  0  0  0  0  0  0  0  0  0
    1.3681   -3.9713    0.0000 C   0  0  0  0  0  0  0  0  0  0  0  0
   -1.5582   -3.9333    0.0000 C   0  0  0  0  0  0  0  0  0  0  0  0
  1 22  1  0  0  0  0
  2 22  1  0  0  0  0
  3 22  1  0  0  0  0
  4 21  2  0  0  0  0
  5 31  2  0  0  0  0
  6 31  1  0  0  0  0
  7 15  1  0  0  0  0
  7 17  1  0  0  0  0
  7 18  1  0  0  0  0
  8 16  1  0  0  0  0
  8 19  1  0  0  0  0
  8 21  1  0  0  0  0
 13  9  1  6  0  0  0
 10 21  1  0  0  0  0
 10 25  1  0  0  0  0
 11 25  1  0  0  0  0
 11 28  2  0  0  0  0
 12 25  2  0  0  0  0
 12 29  1  0  0  0  0
 13 14  1  0  0  0  0
 13 15  1  0  0  0  0
 13 16  1  0  0  0  0
 14 17  1  0  0  0  0
 14 19  1  1  0  0  0
 18 20  2  0  0  0  0
 18 23  1  0  0  0  0
 20 22  1  0  0  0  0
 20 24  1  0  0  0  0
 23 26  2  0  0  0  0
 24 27  2  0  0  0  0
 26 27  1  0  0  0  0
 28 30  1  0  0  0  0
 28 31  1  0  0  0  0
 29 30  2  0  0  0  0
 29 32  1  0  0  0  0
M  END
> <PUBCHEM_COMPOUND_ID_TYPE>
0

> <PUBCHEM_TOTAL_CHARGE>
0

> <PUBCHEM_SUBSTANCE_ID>
310945891

> <PUBCHEM_SUBSTANCE_VERSION>
1

> <PUBCHEM_EXT_DATASOURCE_NAME>
4488

> <PUBCHEM_EXT_DATASOURCE_REGID>
SCHEMBL16123996

> <PUBCHEM_SUBSTANCE_COMMENT>
InChI=1S/C20H21F3N6O3/c1-11-6-14(16(30)31)26-17(25-11)27-18(32)29-8-12-7-28(9-19(12,24)10-29)15-5-3-2-4-13(15)20(21,22)23/h2-6,12H,7-10,24H2,1H3,(H,30,31)(H,25,26,27,32)/t12-,19-/m0/s1
InChIKey=OGPGQIYUJSQCMR-BUXKBTBVSA-N

> <PUBCHEM_SUBSTANCE_SYNONYM>
SCHEMBL16123996

> <PUBCHEM_XREF_EXT_ID>
SCHEMBL16123996

> <PUBCHEM_EXT_DATASOURCE_URL>
https://www.surechembl.org/

> <PUBCHEM_EXT_SUBSTANCE_URL>
https://www.surechembl.org/chemical/SCHEMBL16123996

> <PUBCHEM_CID_ASSOCIATIONS>
117611875  1

> <PUBCHEM_COORDINATE_TYPE>
1
3

> <PUBCHEM_BONDANNOTATIONS>
14  19  5
13  9  6

$$$$
