310942814
  -OEChem-07211613022D

 80 84  0     1  0  0  0  0  0999 V2000
    4.6653    0.8359    0.0000 F   0  0  0  0  0  0  0  0  0  0  0  0
    4.9996    4.1318    0.0000 F   0  0  0  0  0  0  0  0  0  0  0  0
    7.6905   -4.1318    0.0000 F   0  0  0  0  0  0  0  0  0  0  0  0
    5.5887   -0.0239    0.0000 O   0  0  0  0  0  0  0  0  0  0  0  0
    4.4901   -1.2499    0.0000 O   0  0  0  0  0  0  0  0  0  0  0  0
    2.9615   -1.2021    0.0000 O   0  0  0  0  0  0  0  0  0  0  0  0
    1.9266   -0.7404    0.0000 O   0  0  0  0  0  0  0  0  0  0  0  0
   -0.0319    1.5683    0.0000 O   0  0  0  0  0  0  0  0  0  0  0  0
   -2.1814   -0.5016    0.0000 O   0  0  0  0  0  0  0  0  0  0  0  0
   -8.1044    2.1097    0.0000 O   0  0  0  0  0  0  0  0  0  0  0  0
   -9.5534   -0.4060    0.0000 O   0  0  0  0  0  0  0  0  0  0  0  0
   -4.3308    1.5683    0.0000 O   0  0  0  0  0  0  0  0  0  0  0  0
   -2.8979   -0.9156    0.0000 O   0  0  0  0  0  0  0  0  0  0  0  0
    7.4517    1.0906    0.0000 N   0  0  0  0  0  0  0  0  0  0  0  0
    6.6555   -0.9792    0.0000 N   0  0  0  0  0  0  0  0  0  0  0  0
    6.1619    0.6767    0.0000 N   0  0  0  0  0  0  0  0  0  0  0  0
    2.6431    0.5016    0.0000 N   0  0  0  0  0  0  0  0  0  0  0  0
    0.4936    0.0875    0.0000 N   0  0  0  0  0  0  0  0  0  0  0  0
    8.7891   -2.8899    0.0000 N   0  0  0  0  0  0  0  0  0  0  0  0
   -1.4648    0.7404    0.0000 N   0  0  0  0  0  0  0  0  0  0  0  0
   -8.6299    0.7404    0.0000 N   0  0  0  0  0  0  0  0  0  0  0  0
   -3.6143    0.3264    0.0000 N   0  0  0  0  0  0  0  0  0  0  0  0
   -2.1814   -2.1575    0.0000 N   0  0  0  0  0  0  0  0  0  0  0  0
   -3.6143   -2.1575    0.0000 N   0  0  0  0  0  0  0  0  0  0  0  0
    6.9580    0.4379    0.0000 C   0  0  0  0  0  0  0  0  0  0  0  0
    7.2128   -0.3264    0.0000 C   0  0  3  0  0  0  0  0  0  0  0  0
    6.1779    1.5206    0.0000 C   0  0  0  0  0  0  0  0  0  0  0  0
    8.0248   -0.5175    0.0000 C   0  0  0  0  0  0  0  0  0  0  0  0
    6.9422    1.7754    0.0000 C   0  0  0  0  0  0  0  0  0  0  0  0
    5.4932    2.0142    0.0000 C   0  0  0  0  0  0  0  0  0  0  0  0
    8.2955    1.1066    0.0000 C   0  0  0  0  0  0  0  0  0  0  0  0
    5.8594   -0.7882    0.0000 C   0  0  0  0  0  0  0  0  0  0  0  0
    4.7448    1.6798    0.0000 C   0  0  0  0  0  0  0  0  0  0  0  0
    6.9262   -1.7435    0.0000 C   0  0  0  0  0  0  0  0  0  0  0  0
    5.5887    2.8262    0.0000 C   0  0  0  0  0  0  0  0  0  0  0  0
    8.6936    1.8390    0.0000 C   0  0  0  0  0  0  0  0  0  0  0  0
    7.7701    0.2627    0.0000 C   0  0  0  0  0  0  0  0  0  0  0  0
    8.5980    0.0875    0.0000 C   0  0  0  0  0  0  0  0  0  0  0  0
    8.3115   -1.3295    0.0000 C   0  0  0  0  0  0  0  0  0  0  0  0
    4.9200    3.3198    0.0000 C   0  0  0  0  0  0  0  0  0  0  0  0
    5.3181   -1.4091    0.0000 C   0  0  0  0  0  0  0  0  0  0  0  0
    4.0761    2.1575    0.0000 C   0  0  0  0  0  0  0  0  0  0  0  0
    4.1717    2.9695    0.0000 C   0  0  0  0  0  0  0  0  0  0  0  0
    7.7382   -1.9346    0.0000 C   0  0  0  0  0  0  0  0  0  0  0  0
    3.4074    0.1831    0.0000 C   0  0  3  0  0  0  0  0  0  0  0  0
    9.5215    1.8231    0.0000 C   0  0  0  0  0  0  0  0  0  0  0  0
    8.2955    2.5396    0.0000 C   0  0  0  0  0  0  0  0  0  0  0  0
    3.5825   -0.6289    0.0000 C   0  0  0  0  0  0  0  0  0  0  0  0
    7.9930   -2.7147    0.0000 C   0  0  3  0  0  0  0  0  0  0  0  0
    1.9266    0.1194    0.0000 C   0  0  0  0  0  0  0  0  0  0  0  0
    3.9487    0.8041    0.0000 C   0  0  0  0  0  0  0  0  0  0  0  0
    9.9355    2.5237    0.0000 C   0  0  0  0  0  0  0  0  0  0  0  0
    8.6936    3.2402    0.0000 C   0  0  0  0  0  0  0  0  0  0  0  0
    2.7386    1.3295    0.0000 C   0  0  0  0  0  0  0  0  0  0  0  0
    1.2101    0.5016    0.0000 C   0  0  3  0  0  0  0  0  0  0  0  0
    3.5507    1.4887    0.0000 C   0  0  0  0  0  0  0  0  0  0  0  0
    9.5215    3.2561    0.0000 C   0  0  0  0  0  0  0  0  0  0  0  0
    7.4198   -3.3198    0.0000 C   0  0  0  0  0  0  0  0  0  0  0  0
   -0.0319    0.7085    0.0000 C   0  0  0  0  0  0  0  0  0  0  0  0
   -0.7165    0.3423    0.0000 C   0  0  3  0  0  0  0  0  0  0  0  0
    1.2101    1.3136    0.0000 C   0  0  0  0  0  0  0  0  0  0  0  0
   -2.1814    0.3582    0.0000 C   0  0  0  0  0  0  0  0  0  0  0  0
   -2.8979    0.7563    0.0000 C   0  0  3  0  0  0  0  0  0  0  0  0
   -0.7165   -0.5016    0.0000 C   0  0  0  0  0  0  0  0  0  0  0  0
   -2.8979    1.6002    0.0000 C   0  0  0  0  0  0  0  0  0  0  0  0
   -9.3782    0.4537    0.0000 C   0  0  0  0  0  0  0  0  0  0  0  0
   -8.7413    1.5365    0.0000 C   0  0  0  0  0  0  0  0  0  0  0  0
   -1.4330   -0.8996    0.0000 C   0  0  0  0  0  0  0  0  0  0  0  0
   -4.3468    0.7244    0.0000 C   0  0  0  0  0  0  0  0  0  0  0  0
   -9.9355    1.0111    0.0000 C   0  0  0  0  0  0  0  0  0  0  0  0
   -9.5215    1.7435    0.0000 C   0  0  0  0  0  0  0  0  0  0  0  0
   -7.8815    0.3423    0.0000 C   0  0  0  0  0  0  0  0  0  0  0  0
   -1.4648   -1.7275    0.0000 C   0  0  0  0  0  0  0  0  0  0  0  0
   -5.0315    0.3423    0.0000 C   0  0  0  0  0  0  0  0  0  0  0  0
   -3.6143    1.9664    0.0000 C   0  0  0  0  0  0  0  0  0  0  0  0
   -2.1655    1.9982    0.0000 C   0  0  0  0  0  0  0  0  0  0  0  0
   -7.1969    0.7404    0.0000 C   0  0  0  0  0  0  0  0  0  0  0  0
   -5.7639    0.7404    0.0000 C   0  0  0  0  0  0  0  0  0  0  0  0
   -6.4486    0.3423    0.0000 C   0  0  0  0  0  0  0  0  0  0  0  0
   -2.8979   -1.7435    0.0000 C   0  0  0  0  0  0  0  0  0  0  0  0
  1 33  1  0  0  0  0
  2 40  1  0  0  0  0
  3 58  1  0  0  0  0
  4 32  2  0  0  0  0
  5 41  1  0  0  0  0
  5 48  1  0  0  0  0
  6 48  2  0  0  0  0
  7 50  2  0  0  0  0
  8 59  2  0  0  0  0
  9 62  2  0  0  0  0
 10 67  2  0  0  0  0
 11 66  2  0  0  0  0
 12 69  2  0  0  0  0
 13 80  2  0  0  0  0
 14 25  1  0  0  0  0
 14 29  1  0  0  0  0
 14 31  1  0  0  0  0
 26 15  1  1  0  0  0
 15 32  1  0  0  0  0
 15 34  1  0  0  0  0
 16 25  2  0  0  0  0
 16 27  1  0  0  0  0
 17 45  1  0  0  0  0
 17 50  1  0  0  0  0
 17 54  1  0  0  0  0
 18 55  1  0  0  0  0
 18 59  1  0  0  0  0
 49 19  1  6  0  0  0
 60 20  1  6  0  0  0
 20 62  1  0  0  0  0
 21 66  1  0  0  0  0
 21 67  1  0  0  0  0
 21 72  1  0  0  0  0
 63 22  1  1  0  0  0
 22 69  1  0  0  0  0
 23 73  1  0  0  0  0
 23 80  1  0  0  0  0
 24 80  1  0  0  0  0
 25 26  1  0  0  0  0
 26 28  1  0  0  0  0
 27 29  2  0  0  0  0
 27 30  1  0  0  0  0
 28 37  1  0  0  0  0
 28 38  1  0  0  0  0
 28 39  1  0  0  0  0
 30 33  1  0  0  0  0
 30 35  2  0  0  0  0
 31 36  1  0  0  0  0
 32 41  1  0  0  0  0
 33 42  2  0  0  0  0
 34 44  1  0  0  0  0
 35 40  1  0  0  0  0
 36 46  2  0  0  0  0
 36 47  1  0  0  0  0
 40 43  2  0  0  0  0
 42 43  1  0  0  0  0
 44 49  1  0  0  0  0
 45 48  1  0  0  0  0
 45 51  1  0  0  0  0
 46 52  1  0  0  0  0
 47 53  2  0  0  0  0
 49 58  1  0  0  0  0
 50 55  1  0  0  0  0
 51 56  1  0  0  0  0
 52 57  2  0  0  0  0
 53 57  1  0  0  0  0
 54 56  1  0  0  0  0
 55 61  1  6  0  0  0
 59 60  1  0  0  0  0
 60 64  1  0  0  0  0
 62 63  1  0  0  0  0
 63 65  1  0  0  0  0
 64 68  1  0  0  0  0
 65 75  1  0  0  0  0
 65 76  1  0  0  0  0
 66 70  1  0  0  0  0
 67 71  1  0  0  0  0
 68 73  1  0  0  0  0
 69 74  1  0  0  0  0
 70 71  2  0  0  0  0
 72 77  1  0  0  0  0
 74 78  1  0  0  0  0
 77 79  1  0  0  0  0
 78 79  1  0  0  0  0
M  END
> <PUBCHEM_COMPOUND_ID_TYPE>
0

> <PUBCHEM_TOTAL_CHARGE>
0

> <PUBCHEM_SUBSTANCE_ID>
310942814

> <PUBCHEM_SUBSTANCE_VERSION>
1

> <PUBCHEM_EXT_DATASOURCE_NAME>
4488

> <PUBCHEM_EXT_DATASOURCE_REGID>
SCHEMBL16120868

> <PUBCHEM_SUBSTANCE_COMMENT>
InChI=1S/C56H76F3N11O10/c1-34(2)48(66-44(71)19-11-8-12-26-69-45(72)22-23-46(69)73)52(76)65-41(17-13-25-62-55(61)79)51(75)63-35(3)53(77)68-27-14-18-43(68)54(78)80-33-47(74)70(28-24-38(60)30-57)49(56(4,5)6)50-64-42(39-29-37(58)20-21-40(39)59)32-67(50)31-36-15-9-7-10-16-36/h7,9-10,15-16,20-23,29,32,34-35,38,41,43,48-49H,8,11-14,17-19,24-28,30-31,33,60H2,1-6H3,(H,63,75)(H,65,76)(H,66,71)(H3,61,62,79)/t35-,38+,41+,43?,48+,49+/m1/s1
InChIKey=NLWBXLLPDHEBHW-BHLGZLMFSA-N

> <PUBCHEM_SUBSTANCE_SYNONYM>
SCHEMBL16120868

> <PUBCHEM_XREF_EXT_ID>
SCHEMBL16120868

> <PUBCHEM_EXT_DATASOURCE_URL>
https://www.surechembl.org/

> <PUBCHEM_EXT_SUBSTANCE_URL>
https://www.surechembl.org/chemical/SCHEMBL16120868

> <PUBCHEM_CID_ASSOCIATIONS>
117609317  1

> <PUBCHEM_COORDINATE_TYPE>
1
3

> <PUBCHEM_BONDANNOTATIONS>
26  15  5
49  19  6
60  20  6
63  22  5
55  61  6

$$$$
