310943386
  -OEChem-07211613022D

 36 39  0     0  0  0  0  0  0999 V2000
   -5.3689    1.6423    0.0000 O   0  0  0  0  0  0  0  0  0  0  0  0
    0.3608   -0.8469    0.0000 O   0  0  0  0  0  0  0  0  0  0  0  0
   -3.9402    0.8322    0.0000 N   0  0  0  0  0  0  0  0  0  0  0  0
   -2.5114   -0.8322    0.0000 N   0  0  0  0  0  0  0  0  0  0  0  0
   -3.9402   -0.8322    0.0000 N   0  0  0  0  0  0  0  0  0  0  0  0
   -0.3608    2.0695    0.0000 N   0  0  0  0  0  0  0  0  0  0  0  0
    1.0679    0.4051    0.0000 N   0  0  0  0  0  0  0  0  0  0  0  0
    3.2184   -1.6571    0.0000 N   0  0  0  0  0  0  0  0  0  0  0  0
    5.3689   -1.2447    0.0000 N   0  0  0  0  0  0  0  0  0  0  0  0
   -3.2184    0.4051    0.0000 C   0  0  0  0  0  0  0  0  0  0  0  0
   -1.7896    0.4198    0.0000 C   0  0  0  0  0  0  0  0  0  0  0  0
   -1.0826    0.8322    0.0000 C   0  0  0  0  0  0  0  0  0  0  0  0
   -3.2332   -0.4198    0.0000 C   0  0  0  0  0  0  0  0  0  0  0  0
   -2.5262    0.8175    0.0000 C   0  0  0  0  0  0  0  0  0  0  0  0
   -1.0679    1.6571    0.0000 C   0  0  0  0  0  0  0  0  0  0  0  0
   -1.8044   -0.4198    0.0000 C   0  0  0  0  0  0  0  0  0  0  0  0
   -0.3462    0.4198    0.0000 C   0  0  0  0  0  0  0  0  0  0  0  0
    0.3462    0.8322    0.0000 C   0  0  0  0  0  0  0  0  0  0  0  0
    1.7896   -0.8322    0.0000 C   0  0  0  0  0  0  0  0  0  0  0  0
    3.2184   -0.8175    0.0000 C   0  0  0  0  0  0  0  0  0  0  0  0
    1.0679   -0.4051    0.0000 C   0  0  0  0  0  0  0  0  0  0  0  0
    3.9255   -0.4051    0.0000 C   0  0  0  0  0  0  0  0  0  0  0  0
    0.3608    1.6571    0.0000 C   0  0  0  0  0  0  0  0  0  0  0  0
    2.4967   -0.4198    0.0000 C   0  0  0  0  0  0  0  0  0  0  0  0
   -3.9402    1.6571    0.0000 C   0  0  0  0  0  0  0  0  0  0  0  0
   -4.6325    0.4198    0.0000 C   0  0  0  0  0  0  0  0  0  0  0  0
    1.7896   -1.6571    0.0000 C   0  0  0  0  0  0  0  0  0  0  0  0
   -1.8044    2.0548    0.0000 C   0  0  0  0  0  0  0  0  0  0  0  0
    2.5114   -2.0695    0.0000 C   0  0  0  0  0  0  0  0  0  0  0  0
   -4.6472    2.0695    0.0000 C   0  0  0  0  0  0  0  0  0  0  0  0
   -5.3689    0.8175    0.0000 C   0  0  0  0  0  0  0  0  0  0  0  0
    4.6472   -0.8322    0.0000 C   0  0  0  0  0  0  0  0  0  0  0  0
   -3.9255   -1.6865    0.0000 C   0  0  0  0  0  0  0  0  0  0  0  0
   -4.6766   -0.4345    0.0000 C   0  0  0  0  0  0  0  0  0  0  0  0
    3.5130    0.3020    0.0000 C   0  0  0  0  0  0  0  0  0  0  0  0
    4.3379    0.3167    0.0000 C   0  0  0  0  0  0  0  0  0  0  0  0
  1 30  1  0  0  0  0
  1 31  1  0  0  0  0
  2 21  2  0  0  0  0
  3 10  1  0  0  0  0
  3 25  1  0  0  0  0
  3 26  1  0  0  0  0
  4 13  2  0  0  0  0
  4 16  1  0  0  0  0
  5 13  1  0  0  0  0
  5 33  1  0  0  0  0
  5 34  1  0  0  0  0
  6 15  1  0  0  0  0
  6 23  2  0  0  0  0
  7 18  1  0  0  0  0
  7 21  1  0  0  0  0
  8 20  1  0  0  0  0
  8 29  2  0  0  0  0
  9 32  3  0  0  0  0
 10 13  1  0  0  0  0
 10 14  2  0  0  0  0
 11 12  1  0  0  0  0
 11 14  1  0  0  0  0
 11 16  2  0  0  0  0
 12 15  2  0  0  0  0
 12 17  1  0  0  0  0
 15 28  1  0  0  0  0
 17 18  2  0  0  0  0
 18 23  1  0  0  0  0
 19 21  1  0  0  0  0
 19 24  1  0  0  0  0
 19 27  2  0  0  0  0
 20 22  1  0  0  0  0
 20 24  2  0  0  0  0
 22 32  1  0  0  0  0
 22 35  1  0  0  0  0
 22 36  1  0  0  0  0
 25 30  1  0  0  0  0
 26 31  1  0  0  0  0
 27 29  1  0  0  0  0
M  END
> <PUBCHEM_COMPOUND_ID_TYPE>
0

> <PUBCHEM_TOTAL_CHARGE>
0

> <PUBCHEM_SUBSTANCE_ID>
310943386

> <PUBCHEM_SUBSTANCE_VERSION>
1

> <PUBCHEM_EXT_DATASOURCE_NAME>
4488

> <PUBCHEM_EXT_DATASOURCE_REGID>
SCHEMBL16121449

> <PUBCHEM_SUBSTANCE_COMMENT>
InChI=1S/C27H31N7O2/c1-18-22(20-12-23(25(31-15-20)33(4)5)34-8-10-36-11-9-34)14-21(16-30-18)32-26(35)19-6-7-29-24(13-19)27(2,3)17-28/h6-7,12-16H,8-11H2,1-5H3,(H,32,35)
InChIKey=OEBVKSDEIZJYDL-UHFFFAOYSA-N

> <PUBCHEM_SUBSTANCE_SYNONYM>
SCHEMBL16121449

> <PUBCHEM_XREF_EXT_ID>
SCHEMBL16121449

> <PUBCHEM_EXT_DATASOURCE_URL>
https://www.surechembl.org/

> <PUBCHEM_EXT_SUBSTANCE_URL>
https://www.surechembl.org/chemical/SCHEMBL16121449

> <PUBCHEM_CID_ASSOCIATIONS>
117609810  1

> <PUBCHEM_COORDINATE_TYPE>
1
3

$$$$
