310945107
  -OEChem-07211613022D

 31 35  0     0  0  0  0  0  0999 V2000
    4.1829    0.7744    0.0000 O   0  0  0  0  0  0  0  0  0  0  0  0
   -0.5462   -1.4795    0.0000 O   0  0  0  0  0  0  0  0  0  0  0  0
   -4.1275    0.5946    0.0000 O   0  0  0  0  0  0  0  0  0  0  0  0
    2.3853   -0.4840    0.0000 N   0  0  0  0  0  0  0  0  0  0  0  0
    4.0308   -0.6499    0.0000 N   0  0  0  0  0  0  0  0  0  0  0  0
   -1.2652   -0.2212    0.0000 N   0  0  0  0  0  0  0  0  0  0  0  0
   -3.4085   -0.6360    0.0000 N   0  0  0  0  0  0  0  0  0  0  0  0
   -2.7033    0.6084    0.0000 N   0  0  0  0  0  0  0  0  0  0  0  0
    2.7033   -1.2445    0.0000 C   0  0  0  0  0  0  0  0  0  0  0  0
    1.5832   -0.2074    0.0000 C   0  0  0  0  0  0  0  0  0  0  0  0
    2.8554    0.1936    0.0000 C   0  0  0  0  0  0  0  0  0  0  0  0
    1.5971    0.6084    0.0000 C   0  0  0  0  0  0  0  0  0  0  0  0
    2.3714    0.8711    0.0000 C   0  0  0  0  0  0  0  0  0  0  0  0
    3.6712    0.0830    0.0000 C   0  0  0  0  0  0  0  0  0  0  0  0
    3.5468   -1.3275    0.0000 C   0  0  0  0  0  0  0  0  0  0  0  0
    1.9151   -1.3827    0.0000 C   0  0  0  0  0  0  0  0  0  0  0  0
    2.8416   -2.0603    0.0000 C   0  0  0  0  0  0  0  0  0  0  0  0
    0.8919   -0.6360    0.0000 C   0  0  0  0  0  0  0  0  0  0  0  0
    2.0396   -2.1848    0.0000 C   0  0  0  0  0  0  0  0  0  0  0  0
    0.1452   -0.2212    0.0000 C   0  0  0  0  0  0  0  0  0  0  0  0
    0.8642    1.0094    0.0000 C   0  0  0  0  0  0  0  0  0  0  0  0
    0.1728    0.6084    0.0000 C   0  0  0  0  0  0  0  0  0  0  0  0
   -0.5600   -0.6084    0.0000 C   0  0  0  0  0  0  0  0  0  0  0  0
   -1.9842   -0.6360    0.0000 C   0  0  0  0  0  0  0  0  0  0  0  0
   -2.7033   -0.2212    0.0000 C   0  0  0  0  0  0  0  0  0  0  0  0
   -1.9842   -1.4795    0.0000 C   0  0  0  0  0  0  0  0  0  0  0  0
   -2.6756   -1.8805    0.0000 C   0  0  0  0  0  0  0  0  0  0  0  0
   -3.4085   -1.4795    0.0000 C   0  0  0  0  0  0  0  0  0  0  0  0
   -3.4085    1.0370    0.0000 C   0  0  0  0  0  0  0  0  0  0  0  0
   -3.4085    1.8529    0.0000 C   0  0  0  0  0  0  0  0  0  0  0  0
   -4.1829    2.1848    0.0000 C   0  0  0  0  0  0  0  0  0  0  0  0
  1 14  2  0  0  0  0
  2 23  2  0  0  0  0
  3 29  2  0  0  0  0
  4  9  1  0  0  0  0
  4 10  1  0  0  0  0
  4 11  1  0  0  0  0
  5 14  1  0  0  0  0
  5 15  1  0  0  0  0
  6 23  1  0  0  0  0
  6 24  1  0  0  0  0
  7 25  1  0  0  0  0
  7 28  2  0  0  0  0
  8 25  1  0  0  0  0
  8 29  1  0  0  0  0
  9 15  1  0  0  0  0
  9 16  1  0  0  0  0
  9 17  1  0  0  0  0
 10 12  1  0  0  0  0
 10 18  2  0  0  0  0
 11 13  2  0  0  0  0
 11 14  1  0  0  0  0
 12 13  1  0  0  0  0
 12 21  2  0  0  0  0
 16 19  1  0  0  0  0
 17 19  1  0  0  0  0
 18 20  1  0  0  0  0
 20 22  2  0  0  0  0
 20 23  1  0  0  0  0
 21 22  1  0  0  0  0
 24 25  2  0  0  0  0
 24 26  1  0  0  0  0
 26 27  2  0  0  0  0
 27 28  1  0  0  0  0
 29 30  1  0  0  0  0
 30 31  2  0  0  0  0
M  END
> <PUBCHEM_COMPOUND_ID_TYPE>
0

> <PUBCHEM_TOTAL_CHARGE>
0

> <PUBCHEM_SUBSTANCE_ID>
310945107

> <PUBCHEM_SUBSTANCE_VERSION>
1

> <PUBCHEM_EXT_DATASOURCE_NAME>
4488

> <PUBCHEM_EXT_DATASOURCE_REGID>
SCHEMBL16123197

> <PUBCHEM_SUBSTANCE_COMMENT>
InChI=1S/C23H21N5O3/c1-2-19(29)27-20-16(5-3-10-24-20)26-21(30)15-7-6-14-11-18-22(31)25-13-23(8-4-9-23)28(18)17(14)12-15/h2-3,5-7,10-12H,1,4,8-9,13H2,(H,25,31)(H,26,30)(H,24,27,29)
InChIKey=XLGKXBZWPMUGNC-UHFFFAOYSA-N

> <PUBCHEM_SUBSTANCE_SYNONYM>
SCHEMBL16123197

> <PUBCHEM_XREF_EXT_ID>
SCHEMBL16123197

> <PUBCHEM_EXT_DATASOURCE_URL>
https://www.surechembl.org/

> <PUBCHEM_EXT_SUBSTANCE_URL>
https://www.surechembl.org/chemical/SCHEMBL16123197

> <PUBCHEM_CID_ASSOCIATIONS>
117611203  1

> <PUBCHEM_COORDINATE_TYPE>
1
3

$$$$
