310941349
  -OEChem-07211613022D

 11 11  0     0  0  0  0  0  0999 V2000
    2.1104    0.7356    0.0000 I   0  0  0  0  0  0  0  0  0  0  0  0
   -2.1104   -0.8318    0.0000 O   0  0  0  0  0  0  0  0  0  0  0  0
    1.4643   -0.4193    0.0000 O   0  0  0  0  0  0  0  0  0  0  0  0
    0.0482    0.4193    0.0000 C   0  0  0  0  0  0  0  0  0  0  0  0
   -1.3818   -0.3918    0.0000 C   0  0  0  0  0  0  0  0  0  0  0  0
   -0.6806    0.8181    0.0000 C   0  0  0  0  0  0  0  0  0  0  0  0
    0.0482   -0.3918    0.0000 C   0  0  0  0  0  0  0  0  0  0  0  0
    0.7494    0.8318    0.0000 C   0  0  0  0  0  0  0  0  0  0  0  0
   -1.3681    0.4331    0.0000 C   0  0  0  0  0  0  0  0  0  0  0  0
   -0.6669   -0.8043    0.0000 C   0  0  0  0  0  0  0  0  0  0  0  0
    1.4780    0.4469    0.0000 C   0  0  0  0  0  0  0  0  0  0  0  0
  1 11  1  0  0  0  0
  2  5  1  0  0  0  0
  3 11  2  0  0  0  0
  4  6  1  0  0  0  0
  4  7  1  0  0  0  0
  4  8  1  0  0  0  0
  5  9  1  0  0  0  0
  5 10  1  0  0  0  0
  6  9  1  0  0  0  0
  7 10  1  0  0  0  0
  8 11  1  0  0  0  0
M  END
> <PUBCHEM_COMPOUND_ID_TYPE>
0

> <PUBCHEM_TOTAL_CHARGE>
0

> <PUBCHEM_SUBSTANCE_ID>
310941349

> <PUBCHEM_SUBSTANCE_VERSION>
1

> <PUBCHEM_EXT_DATASOURCE_NAME>
4488

> <PUBCHEM_EXT_DATASOURCE_REGID>
SCHEMBL16119309

> <PUBCHEM_SUBSTANCE_COMMENT>
InChI=1S/C8H13IO2/c9-8(11)5-6-1-3-7(10)4-2-6/h6-7,10H,1-5H2
InChIKey=KAIJEOKACJEDMJ-UHFFFAOYSA-N

> <PUBCHEM_SUBSTANCE_SYNONYM>
SCHEMBL16119309

> <PUBCHEM_XREF_EXT_ID>
SCHEMBL16119309

> <PUBCHEM_EXT_DATASOURCE_URL>
https://www.surechembl.org/

> <PUBCHEM_EXT_SUBSTANCE_URL>
https://www.surechembl.org/chemical/SCHEMBL16119309

> <PUBCHEM_CID_ASSOCIATIONS>
117608192  1

> <PUBCHEM_COORDINATE_TYPE>
1
3

$$$$
