310944637
  -OEChem-07211613022D

 28 30  0     0  0  0  0  0  0999 V2000
    2.1716    1.8430    0.0000 F   0  0  0  0  0  0  0  0  0  0  0  0
   -2.1716    1.8591    0.0000 F   0  0  0  0  0  0  0  0  0  0  0  0
    4.3352    1.3943    0.0000 N   0  0  0  0  0  0  0  0  0  0  0  0
   -4.3352    1.4104    0.0000 N   0  0  0  0  0  0  0  0  0  0  0  0
    2.1395   -2.2758    0.0000 N   0  0  0  0  0  0  0  0  0  0  0  0
   -2.1716   -2.2598    0.0000 N   0  0  0  0  0  0  0  0  0  0  0  0
    1.4504    0.6411    0.0000 C   0  0  0  0  0  0  0  0  0  0  0  0
   -1.4504    0.6411    0.0000 C   0  0  0  0  0  0  0  0  0  0  0  0
    0.6812    1.0577    0.0000 C   0  0  0  0  0  0  0  0  0  0  0  0
   -0.7453    1.0577    0.0000 C   0  0  0  0  0  0  0  0  0  0  0  0
    2.1395    1.0417    0.0000 C   0  0  0  0  0  0  0  0  0  0  0  0
   -2.1876    1.0417    0.0000 C   0  0  0  0  0  0  0  0  0  0  0  0
    0.0080    0.6571    0.0000 C   0  0  0  0  0  0  0  0  0  0  0  0
    2.8928    0.6251    0.0000 C   0  0  0  0  0  0  0  0  0  0  0  0
   -2.8928    0.6251    0.0000 C   0  0  0  0  0  0  0  0  0  0  0  0
    1.4504   -0.1923    0.0000 C   0  0  0  0  0  0  0  0  0  0  0  0
   -1.4665   -0.1923    0.0000 C   0  0  0  0  0  0  0  0  0  0  0  0
    2.1555   -0.6090    0.0000 C   0  0  0  0  0  0  0  0  0  0  0  0
   -2.1716   -0.5930    0.0000 C   0  0  0  0  0  0  0  0  0  0  0  0
    0.6972    1.8591    0.0000 C   0  0  0  0  0  0  0  0  0  0  0  0
   -0.7132    1.8751    0.0000 C   0  0  0  0  0  0  0  0  0  0  0  0
    2.8767   -0.1923    0.0000 C   0  0  0  0  0  0  0  0  0  0  0  0
   -2.8928   -0.1923    0.0000 C   0  0  0  0  0  0  0  0  0  0  0  0
    0.0080    2.2758    0.0000 C   0  0  0  0  0  0  0  0  0  0  0  0
    3.6140    1.0257    0.0000 C   0  0  0  0  0  0  0  0  0  0  0  0
   -3.6300    1.0417    0.0000 C   0  0  0  0  0  0  0  0  0  0  0  0
    2.1395   -1.4585    0.0000 C   0  0  0  0  0  0  0  0  0  0  0  0
   -2.1716   -1.4424    0.0000 C   0  0  0  0  0  0  0  0  0  0  0  0
  1 11  1  0  0  0  0
  2 12  1  0  0  0  0
  3 25  3  0  0  0  0
  4 26  3  0  0  0  0
  5 27  3  0  0  0  0
  6 28  3  0  0  0  0
  7  9  1  0  0  0  0
  7 11  1  0  0  0  0
  7 16  2  0  0  0  0
  8 10  1  0  0  0  0
  8 12  2  0  0  0  0
  8 17  1  0  0  0  0
  9 13  1  0  0  0  0
  9 20  2  0  0  0  0
 10 13  2  0  0  0  0
 10 21  1  0  0  0  0
 11 14  2  0  0  0  0
 12 15  1  0  0  0  0
 14 22  1  0  0  0  0
 14 25  1  0  0  0  0
 15 23  2  0  0  0  0
 15 26  1  0  0  0  0
 16 18  1  0  0  0  0
 17 19  2  0  0  0  0
 18 22  2  0  0  0  0
 18 27  1  0  0  0  0
 19 23  1  0  0  0  0
 19 28  1  0  0  0  0
 20 24  1  0  0  0  0
 21 24  2  0  0  0  0
M  END
> <PUBCHEM_COMPOUND_ID_TYPE>
0

> <PUBCHEM_TOTAL_CHARGE>
0

> <PUBCHEM_SUBSTANCE_ID>
310944637

> <PUBCHEM_SUBSTANCE_VERSION>
1

> <PUBCHEM_EXT_DATASOURCE_NAME>
4488

> <PUBCHEM_EXT_DATASOURCE_REGID>
SCHEMBL16122715

> <PUBCHEM_SUBSTANCE_COMMENT>
InChI=1S/C22H8F2N4/c23-21-17(11-27)4-13(9-25)6-19(21)15-2-1-3-16(8-15)20-7-14(10-26)5-18(12-28)22(20)24/h1-8H
InChIKey=QZCCSTTYKNDXLW-UHFFFAOYSA-N

> <PUBCHEM_SUBSTANCE_SYNONYM>
SCHEMBL16122715

> <PUBCHEM_XREF_EXT_ID>
SCHEMBL16122715

> <PUBCHEM_EXT_DATASOURCE_URL>
https://www.surechembl.org/

> <PUBCHEM_EXT_SUBSTANCE_URL>
https://www.surechembl.org/chemical/SCHEMBL16122715

> <PUBCHEM_CID_ASSOCIATIONS>
117610867  1

> <PUBCHEM_COORDINATE_TYPE>
1
3

$$$$
