310933653
  -OEChem-07211613022D

 38 41  0     0  0  0  0  0  0999 V2000
    0.0000   -1.6788    0.0000 F   0  0  0  0  0  0  0  0  0  0  0  0
    1.2591   -2.3890    0.0000 F   0  0  0  0  0  0  0  0  0  0  0  0
    0.4197   -0.9685    0.0000 F   0  0  0  0  0  0  0  0  0  0  0  0
    6.5214   -3.2930    0.0000 O   0  0  0  0  0  0  0  0  0  0  0  0
    6.2308   -4.9072    0.0000 O   0  0  0  0  0  0  0  0  0  0  0  0
    0.9685   -4.4229    0.0000 O   0  0  0  0  0  0  0  0  0  0  0  0
    4.3907   -1.2268    0.0000 O   0  0  0  0  0  0  0  0  0  0  0  0
    4.8749   -5.3592    0.0000 O   0  0  0  0  0  0  0  0  0  0  0  0
    5.1978   -3.9387    0.0000 N   0  0  0  0  0  0  0  0  0  0  0  0
    5.1978   -2.6473    0.0000 N   0  0  0  0  0  0  0  0  0  0  0  0
    2.2599   -1.6465    0.0000 N   0  0  0  0  0  0  0  0  0  0  0  0
    1.3882   -5.1332    0.0000 N   0  0  0  0  0  0  0  0  0  0  0  0
    4.3907   -3.7127    0.0000 C   0  0  0  0  0  0  0  0  0  0  0  0
    4.3907   -2.8733    0.0000 C   0  0  0  0  0  0  0  0  0  0  0  0
    3.6804   -2.4859    0.0000 C   0  0  0  0  0  0  0  0  0  0  0  0
    5.6820   -3.2930    0.0000 C   0  0  0  0  0  0  0  0  0  0  0  0
    3.0025   -3.7127    0.0000 C   0  0  0  0  0  0  0  0  0  0  0  0
    3.6804   -4.1324    0.0000 C   0  0  0  0  0  0  0  0  0  0  0  0
    3.0025   -2.8733    0.0000 C   0  0  0  0  0  0  0  0  0  0  0  0
    3.6804   -1.6465    0.0000 C   0  0  0  0  0  0  0  0  0  0  0  0
    2.2922   -4.1324    0.0000 C   0  0  0  0  0  0  0  0  0  0  0  0
    5.4561   -4.7458    0.0000 C   0  0  0  0  0  0  0  0  0  0  0  0
    2.9701   -1.2268    0.0000 C   0  0  0  0  0  0  0  0  0  0  0  0
    1.5174   -3.8095    0.0000 C   0  0  0  0  0  0  0  0  0  0  0  0
    2.1953   -4.9395    0.0000 C   0  0  0  0  0  0  0  0  0  0  0  0
    1.5496   -1.2591    0.0000 C   0  0  0  0  0  0  0  0  0  0  0  0
    2.9701   -0.4197    0.0000 C   0  0  0  0  0  0  0  0  0  0  0  0
    6.4891   -5.6820    0.0000 C   0  0  0  0  0  0  0  0  0  0  0  0
    0.8394   -1.6788    0.0000 C   0  0  0  0  0  0  0  0  0  0  0  0
    6.9088   -2.5827    0.0000 C   0  0  0  0  0  0  0  0  0  0  0  0
    1.5174   -0.4197    0.0000 C   0  0  0  0  0  0  0  0  0  0  0  0
    2.2276    0.0000    0.0000 C   0  0  0  0  0  0  0  0  0  0  0  0
    1.3236   -3.0025    0.0000 C   0  0  0  0  0  0  0  0  0  0  0  0
    2.8087   -5.4883    0.0000 C   0  0  0  0  0  0  0  0  0  0  0  0
    5.7143   -5.9403    0.0000 C   0  0  0  0  0  0  0  0  0  0  0  0
    6.7474   -6.4568    0.0000 C   0  0  0  0  0  0  0  0  0  0  0  0
    7.2640   -5.4237    0.0000 C   0  0  0  0  0  0  0  0  0  0  0  0
    6.5214   -1.8725    0.0000 C   0  0  0  0  0  0  0  0  0  0  0  0
  1 29  1  0  0  0  0
  2 29  1  0  0  0  0
  3 29  1  0  0  0  0
  4 16  1  0  0  0  0
  4 30  1  0  0  0  0
  5 22  1  0  0  0  0
  5 28  1  0  0  0  0
  6 12  1  0  0  0  0
  6 24  1  0  0  0  0
  7 20  2  0  0  0  0
  8 22  2  0  0  0  0
  9 13  1  0  0  0  0
  9 16  1  0  0  0  0
  9 22  1  0  0  0  0
 10 14  1  0  0  0  0
 10 16  2  0  0  0  0
 11 23  1  0  0  0  0
 11 26  2  0  0  0  0
 12 25  2  0  0  0  0
 13 14  2  0  0  0  0
 13 18  1  0  0  0  0
 14 15  1  0  0  0  0
 15 19  2  0  0  0  0
 15 20  1  0  0  0  0
 17 18  2  0  0  0  0
 17 19  1  0  0  0  0
 17 21  1  0  0  0  0
 20 23  1  0  0  0  0
 21 24  2  0  0  0  0
 21 25  1  0  0  0  0
 23 27  2  0  0  0  0
 24 33  1  0  0  0  0
 25 34  1  0  0  0  0
 26 29  1  0  0  0  0
 26 31  1  0  0  0  0
 27 32  1  0  0  0  0
 28 35  1  0  0  0  0
 28 36  1  0  0  0  0
 28 37  1  0  0  0  0
 30 38  1  0  0  0  0
 31 32  2  0  0  0  0
M  END
> <PUBCHEM_COMPOUND_ID_TYPE>
0

> <PUBCHEM_TOTAL_CHARGE>
0

> <PUBCHEM_SUBSTANCE_ID>
310933653

> <PUBCHEM_SUBSTANCE_VERSION>
1

> <PUBCHEM_EXT_DATASOURCE_NAME>
4488

> <PUBCHEM_EXT_DATASOURCE_REGID>
SCHEMBL16111084

> <PUBCHEM_SUBSTANCE_COMMENT>
InChI=1S/C26H25F3N4O5/c1-7-36-23-31-21-16(22(34)17-9-8-10-19(30-17)26(27,28)29)11-15(20-13(2)32-38-14(20)3)12-18(21)33(23)24(35)37-25(4,5)6/h8-12H,7H2,1-6H3
InChIKey=OKAIETMGBWOEFK-UHFFFAOYSA-N

> <PUBCHEM_SUBSTANCE_SYNONYM>
SCHEMBL16111084

> <PUBCHEM_XREF_EXT_ID>
SCHEMBL16111084

> <PUBCHEM_EXT_DATASOURCE_URL>
https://www.surechembl.org/

> <PUBCHEM_EXT_SUBSTANCE_URL>
https://www.surechembl.org/chemical/SCHEMBL16111084

> <PUBCHEM_CID_ASSOCIATIONS>
117602025  1

> <PUBCHEM_COORDINATE_TYPE>
1
3

$$$$
