310936163
  -OEChem-07211613022D

 24 26  0     0  0  0  0  0  0999 V2000
    7.0744   -2.9005    0.0000 Cl  0  0  0  0  0  0  0  0  0  0  0  0
    6.2490   -4.3390    0.0000 F   0  0  0  0  0  0  0  0  0  0  0  0
    3.7258   -4.3390    0.0000 O   0  0  0  0  0  0  0  0  0  0  0  0
    1.2734   -1.4620    0.0000 N   0  0  0  0  0  0  0  0  0  0  0  0
    2.4996   -3.6079    0.0000 N   0  0  0  0  0  0  0  0  0  0  0  0
    0.8018   -2.1459    0.0000 N   0  0  0  0  0  0  0  0  0  0  0  0
    0.0236   -1.0376    0.0000 N   0  0  0  0  0  0  0  0  0  0  0  0
    0.0000   -1.8629    0.0000 N   0  0  0  0  0  0  0  0  0  0  0  0
    3.7494   -2.9005    0.0000 C   0  0  0  0  0  0  0  0  0  0  0  0
    4.5983   -2.9005    0.0000 C   0  0  0  0  0  0  0  0  0  0  0  0
    3.3249   -3.6079    0.0000 C   0  0  0  0  0  0  0  0  0  0  0  0
    2.4996   -2.1930    0.0000 C   0  0  0  0  0  0  0  0  0  0  0  0
    3.3249   -2.1930    0.0000 C   0  0  0  0  0  0  0  0  0  0  0  0
    2.0987   -1.4856    0.0000 C   0  0  0  0  0  0  0  0  0  0  0  0
    4.9992   -3.6079    0.0000 C   0  0  0  0  0  0  0  0  0  0  0  0
    2.0751   -2.9005    0.0000 C   0  0  0  0  0  0  0  0  0  0  0  0
    4.9992   -2.1930    0.0000 C   0  0  0  0  0  0  0  0  0  0  0  0
    5.8246   -3.6079    0.0000 C   0  0  0  0  0  0  0  0  0  0  0  0
    0.8018   -0.7782    0.0000 C   0  0  0  0  0  0  0  0  0  0  0  0
    6.2490   -2.9005    0.0000 C   0  0  0  0  0  0  0  0  0  0  0  0
    5.8246   -2.1930    0.0000 C   0  0  0  0  0  0  0  0  0  0  0  0
    1.0612    0.0000    0.0000 C   0  0  0  0  0  0  0  0  0  0  0  0
    4.5511   -4.3390    0.0000 C   0  0  0  0  0  0  0  0  0  0  0  0
    5.1407   -3.7966    0.0000 C   0  0  0  0  0  0  0  0  0  0  0  0
  1 20  1  0  0  0  0
  2 18  1  0  0  0  0
  3 11  1  0  0  0  0
  3 23  1  0  0  0  0
  4  6  1  0  0  0  0
  4 14  1  0  0  0  0
  4 19  1  0  0  0  0
  5 11  1  0  0  0  0
  5 16  2  0  0  0  0
  6  8  2  0  0  0  0
  7  8  1  0  0  0  0
  7 19  2  0  0  0  0
  9 10  1  0  0  0  0
  9 11  2  0  0  0  0
  9 13  1  0  0  0  0
 10 15  1  0  0  0  0
 10 17  2  0  0  0  0
 12 13  2  0  0  0  0
 12 14  1  0  0  0  0
 12 16  1  0  0  0  0
 15 18  2  0  0  0  0
 17 21  1  0  0  0  0
 18 20  1  0  0  0  0
 19 22  1  0  0  0  0
 20 21  2  0  0  0  0
 23 24  1  0  0  0  0
M  END
> <PUBCHEM_COMPOUND_ID_TYPE>
0

> <PUBCHEM_TOTAL_CHARGE>
0

> <PUBCHEM_SUBSTANCE_ID>
310936163

> <PUBCHEM_SUBSTANCE_VERSION>
1

> <PUBCHEM_EXT_DATASOURCE_NAME>
4488

> <PUBCHEM_EXT_DATASOURCE_REGID>
SCHEMBL16113773

> <PUBCHEM_SUBSTANCE_COMMENT>
InChI=1S/C16H15ClFN5O/c1-3-24-16-13(12-4-5-14(17)15(18)7-12)6-11(8-19-16)9-23-10(2)20-21-22-23/h4-8H,3,9H2,1-2H3
InChIKey=SNALNLAUPLLWEK-UHFFFAOYSA-N

> <PUBCHEM_SUBSTANCE_SYNONYM>
SCHEMBL16113773

> <PUBCHEM_XREF_EXT_ID>
SCHEMBL16113773

> <PUBCHEM_EXT_DATASOURCE_URL>
https://www.surechembl.org/

> <PUBCHEM_EXT_SUBSTANCE_URL>
https://www.surechembl.org/chemical/SCHEMBL16113773

> <PUBCHEM_CID_ASSOCIATIONS>
117604124  1

> <PUBCHEM_COORDINATE_TYPE>
1
3

$$$$
