310936635
  -OEChem-07211613022D

 28 30  0     0  0  0  0  0  0999 V2000
    3.6473   -0.0434    0.0000 Cl  0  0  0  0  0  0  0  0  0  0  0  0
    0.7382   -2.4315    0.0000 O   0  0  0  0  0  0  0  0  0  0  0  0
    5.0368   -7.4249    0.0000 O   0  0  0  0  0  0  0  0  0  0  0  0
    4.2987   -8.6841    0.0000 O   0  0  0  0  0  0  0  0  0  0  0  0
    1.4329   -3.6907    0.0000 N   0  0  0  0  0  0  0  0  0  0  0  0
    2.1710   -2.4750    0.0000 C   0  0  0  0  0  0  0  0  0  0  0  0
    2.1710   -1.6500    0.0000 C   0  0  0  0  0  0  0  0  0  0  0  0
    1.4329   -2.8657    0.0000 C   0  0  0  0  0  0  0  0  0  0  0  0
    2.8657   -3.7341    0.0000 C   0  0  0  0  0  0  0  0  0  0  0  0
    2.8657   -2.8657    0.0000 C   0  0  0  0  0  0  0  0  0  0  0  0
    2.1276   -4.0815    0.0000 C   0  0  0  0  0  0  0  0  0  0  0  0
    2.9092   -1.2592    0.0000 C   0  0  0  0  0  0  0  0  0  0  0  0
    3.6039   -4.1249    0.0000 C   0  0  0  0  0  0  0  0  0  0  0  0
    1.4763   -1.2158    0.0000 C   0  0  0  0  0  0  0  0  0  0  0  0
    3.6039   -4.9499    0.0000 C   0  0  0  0  0  0  0  0  0  0  0  0
    2.9092   -0.4342    0.0000 C   0  0  0  0  0  0  0  0  0  0  0  0
    1.4763   -0.3908    0.0000 C   0  0  0  0  0  0  0  0  0  0  0  0
    2.2145    0.0000    0.0000 C   0  0  0  0  0  0  0  0  0  0  0  0
    2.8657   -5.3841    0.0000 C   0  0  0  0  0  0  0  0  0  0  0  0
    4.2987   -5.3841    0.0000 C   0  0  0  0  0  0  0  0  0  0  0  0
    3.6039   -6.5999    0.0000 C   0  0  0  0  0  0  0  0  0  0  0  0
    2.8657   -6.2091    0.0000 C   0  0  0  0  0  0  0  0  0  0  0  0
    4.2987   -6.2091    0.0000 C   0  0  0  0  0  0  0  0  0  0  0  0
    3.6039   -7.4249    0.0000 C   0  0  0  0  0  0  0  0  0  0  0  0
    0.0000   -2.8657    0.0000 C   0  0  0  0  0  0  0  0  0  0  0  0
    4.2987   -7.8591    0.0000 C   0  0  0  0  0  0  0  0  0  0  0  0
    5.7315   -7.8591    0.0000 C   0  0  0  0  0  0  0  0  0  0  0  0
    6.4697   -7.4249    0.0000 C   0  0  0  0  0  0  0  0  0  0  0  0
  1 16  1  0  0  0  0
  2  8  1  0  0  0  0
  2 25  1  0  0  0  0
  3 26  1  0  0  0  0
  3 27  1  0  0  0  0
  4 26  2  0  0  0  0
  5  8  2  0  0  0  0
  5 11  1  0  0  0  0
  6  7  1  0  0  0  0
  6  8  1  0  0  0  0
  6 10  2  0  0  0  0
  7 12  1  0  0  0  0
  7 14  2  0  0  0  0
  9 10  1  0  0  0  0
  9 11  2  0  0  0  0
  9 13  1  0  0  0  0
 12 16  2  0  0  0  0
 13 15  1  0  0  0  0
 14 17  1  0  0  0  0
 15 19  2  0  0  0  0
 15 20  1  0  0  0  0
 16 18  1  0  0  0  0
 17 18  2  0  0  0  0
 19 22  1  0  0  0  0
 20 23  2  0  0  0  0
 21 22  2  0  0  0  0
 21 23  1  0  0  0  0
 21 24  1  0  0  0  0
 24 26  1  0  0  0  0
 27 28  1  0  0  0  0
M  END
> <PUBCHEM_COMPOUND_ID_TYPE>
0

> <PUBCHEM_TOTAL_CHARGE>
0

> <PUBCHEM_SUBSTANCE_ID>
310936635

> <PUBCHEM_SUBSTANCE_VERSION>
1

> <PUBCHEM_EXT_DATASOURCE_NAME>
4488

> <PUBCHEM_EXT_DATASOURCE_REGID>
SCHEMBL16114297

> <PUBCHEM_SUBSTANCE_COMMENT>
InChI=1S/C23H22ClNO3/c1-3-28-22(26)13-17-9-7-16(8-10-17)11-18-12-21(23(27-2)25-15-18)19-5-4-6-20(24)14-19/h4-10,12,14-15H,3,11,13H2,1-2H3
InChIKey=FGRALLPFZIPSSD-UHFFFAOYSA-N

> <PUBCHEM_SUBSTANCE_SYNONYM>
SCHEMBL16114297

> <PUBCHEM_XREF_EXT_ID>
SCHEMBL16114297

> <PUBCHEM_EXT_DATASOURCE_URL>
https://www.surechembl.org/

> <PUBCHEM_EXT_SUBSTANCE_URL>
https://www.surechembl.org/chemical/SCHEMBL16114297

> <PUBCHEM_CID_ASSOCIATIONS>
117604549  1

> <PUBCHEM_COORDINATE_TYPE>
1
3

$$$$
