310931916
  -OEChem-07211613022D

 36 40  0     0  0  0  0  0  0999 V2000
    8.6035   -7.8571    0.0000 Cl  0  0  0  0  0  0  0  0  0  0  0  0
    5.7357   -7.0321    0.0000 O   0  0  0  0  0  0  0  0  0  0  0  0
    2.1607   -2.4750    0.0000 N   0  0  0  0  0  0  0  0  0  0  0  0
    4.3214   -5.3821    0.0000 N   0  0  0  0  0  0  0  0  0  0  0  0
    2.1607   -4.1249    0.0000 N   0  0  0  0  0  0  0  0  0  0  0  0
    5.7357   -6.2071    0.0000 C   0  0  0  0  0  0  0  0  0  0  0  0
    2.1607   -1.6500    0.0000 C   0  0  0  0  0  0  0  0  0  0  0  0
    6.4428   -6.5999    0.0000 C   0  0  0  0  0  0  0  0  0  0  0  0
    2.8678   -1.2571    0.0000 C   0  0  0  0  0  0  0  0  0  0  0  0
    1.4536   -1.2571    0.0000 C   0  0  0  0  0  0  0  0  0  0  0  0
    5.7357   -5.3821    0.0000 C   0  0  0  0  0  0  0  0  0  0  0  0
    5.0285   -6.5999    0.0000 C   0  0  0  0  0  0  0  0  0  0  0  0
    7.1892   -6.2071    0.0000 C   0  0  0  0  0  0  0  0  0  0  0  0
    6.4821   -7.4249    0.0000 C   0  0  0  0  0  0  0  0  0  0  0  0
    5.0285   -4.9499    0.0000 C   0  0  0  0  0  0  0  0  0  0  0  0
    4.3214   -6.2071    0.0000 C   0  0  0  0  0  0  0  0  0  0  0  0
    1.4536   -2.9071    0.0000 C   0  0  0  0  0  0  0  0  0  0  0  0
    2.8678   -2.9071    0.0000 C   0  0  0  0  0  0  0  0  0  0  0  0
    2.9071   -0.4321    0.0000 C   0  0  0  0  0  0  0  0  0  0  0  0
    0.7072   -1.6500    0.0000 C   0  0  0  0  0  0  0  0  0  0  0  0
    3.6143   -1.6500    0.0000 C   0  0  0  0  0  0  0  0  0  0  0  0
    1.4536   -0.4321    0.0000 C   0  0  0  0  0  0  0  0  0  0  0  0
    2.8678   -3.7321    0.0000 C   0  0  0  0  0  0  0  0  0  0  0  0
    1.4536   -3.7321    0.0000 C   0  0  0  0  0  0  0  0  0  0  0  0
    7.8963   -6.5999    0.0000 C   0  0  0  0  0  0  0  0  0  0  0  0
    7.1499   -7.8571    0.0000 C   0  0  0  0  0  0  0  0  0  0  0  0
    7.8963   -7.4249    0.0000 C   0  0  0  0  0  0  0  0  0  0  0  0
    3.5750   -4.9893    0.0000 C   0  0  0  0  0  0  0  0  0  0  0  0
    2.1607   -4.9893    0.0000 C   0  0  0  0  0  0  0  0  0  0  0  0
    2.8678   -5.3821    0.0000 C   0  0  0  0  0  0  0  0  0  0  0  0
    3.6143    0.0000    0.0000 C   0  0  0  0  0  0  0  0  0  0  0  0
    0.0000   -1.2571    0.0000 C   0  0  0  0  0  0  0  0  0  0  0  0
    4.3214   -1.2571    0.0000 C   0  0  0  0  0  0  0  0  0  0  0  0
    0.7072    0.0000    0.0000 C   0  0  0  0  0  0  0  0  0  0  0  0
    4.3214   -0.4321    0.0000 C   0  0  0  0  0  0  0  0  0  0  0  0
    0.0000   -0.4321    0.0000 C   0  0  0  0  0  0  0  0  0  0  0  0
  1 27  1  0  0  0  0
  2  6  1  0  0  0  0
  3  7  1  0  0  0  0
  3 17  1  0  0  0  0
  3 18  1  0  0  0  0
  4 15  1  0  0  0  0
  4 16  1  0  0  0  0
  4 28  1  0  0  0  0
  5 23  1  0  0  0  0
  5 24  1  0  0  0  0
  5 29  1  0  0  0  0
  6  8  1  0  0  0  0
  6 11  1  0  0  0  0
  6 12  1  0  0  0  0
  7  9  1  0  0  0  0
  7 10  1  0  0  0  0
  8 13  2  0  0  0  0
  8 14  1  0  0  0  0
  9 19  2  0  0  0  0
  9 21  1  0  0  0  0
 10 20  2  0  0  0  0
 10 22  1  0  0  0  0
 11 15  1  0  0  0  0
 12 16  1  0  0  0  0
 13 25  1  0  0  0  0
 14 26  2  0  0  0  0
 17 24  1  0  0  0  0
 18 23  1  0  0  0  0
 19 31  1  0  0  0  0
 20 32  1  0  0  0  0
 21 33  2  0  0  0  0
 22 34  2  0  0  0  0
 25 27  2  0  0  0  0
 26 27  1  0  0  0  0
 28 30  1  0  0  0  0
 29 30  1  0  0  0  0
 31 35  2  0  0  0  0
 32 36  2  0  0  0  0
 33 35  1  0  0  0  0
 34 36  1  0  0  0  0
M  END
> <PUBCHEM_COMPOUND_ID_TYPE>
0

> <PUBCHEM_TOTAL_CHARGE>
0

> <PUBCHEM_SUBSTANCE_ID>
310931916

> <PUBCHEM_SUBSTANCE_VERSION>
1

> <PUBCHEM_EXT_DATASOURCE_NAME>
4488

> <PUBCHEM_EXT_DATASOURCE_REGID>
SCHEMBL16109251

> <PUBCHEM_SUBSTANCE_COMMENT>
InChI=1S/C31H38ClN3O/c32-29-14-12-28(13-15-29)31(36)16-20-33(21-17-31)18-7-19-34-22-24-35(25-23-34)30(26-8-3-1-4-9-26)27-10-5-2-6-11-27/h1-6,8-15,30,36H,7,16-25H2
InChIKey=FQIAKWKXMKZWNZ-UHFFFAOYSA-N

> <PUBCHEM_SUBSTANCE_SYNONYM>
SCHEMBL16109251

> <PUBCHEM_XREF_EXT_ID>
SCHEMBL16109251

> <PUBCHEM_EXT_DATASOURCE_URL>
https://www.surechembl.org/

> <PUBCHEM_EXT_SUBSTANCE_URL>
https://www.surechembl.org/chemical/SCHEMBL16109251

> <PUBCHEM_CID_ASSOCIATIONS>
71487937  1

> <PUBCHEM_COORDINATE_TYPE>
1
3

$$$$
