310941971
  -OEChem-07211613022D

 20 22  0     0  0  0  0  0  0999 V2000
   -1.9729   -2.8229    0.0000 F   0  0  0  0  0  0  0  0  0  0  0  0
    2.5809    1.8675    0.0000 O   0  0  0  0  0  0  0  0  0  0  0  0
   -0.5336   -0.3413    0.0000 N   0  0  0  0  0  0  0  0  0  0  0  0
    0.9430   -0.0186    0.0000 N   0  0  0  0  0  0  0  0  0  0  0  0
   -0.1365    0.9493    0.0000 C   0  0  0  0  0  0  0  0  0  0  0  0
    0.0992    0.1675    0.0000 C   0  0  0  0  0  0  0  0  0  0  0  0
   -0.9679    0.9616    0.0000 C   0  0  0  0  0  0  0  0  0  0  0  0
   -1.2408    0.1675    0.0000 C   0  0  0  0  0  0  0  0  0  0  0  0
    0.4219    1.5696    0.0000 C   0  0  0  0  0  0  0  0  0  0  0  0
    1.2284    1.3959    0.0000 C   0  0  0  0  0  0  0  0  0  0  0  0
   -1.5262    1.5573    0.0000 C   0  0  0  0  0  0  0  0  0  0  0  0
   -2.0350    0.0062    0.0000 C   0  0  0  0  0  0  0  0  0  0  0  0
   -0.5583   -1.1477    0.0000 C   0  0  0  0  0  0  0  0  0  0  0  0
    1.4890    0.6018    0.0000 C   0  0  0  0  0  0  0  0  0  0  0  0
   -2.3203    1.3959    0.0000 C   0  0  0  0  0  0  0  0  0  0  0  0
   -2.5809    0.6018    0.0000 C   0  0  0  0  0  0  0  0  0  0  0  0
    1.7495    2.0536    0.0000 C   0  0  0  0  0  0  0  0  0  0  0  0
   -1.2408   -1.5573    0.0000 C   0  0  0  0  0  0  0  0  0  0  0  0
    1.4765    2.8229    0.0000 C   0  0  0  0  0  0  0  0  0  0  0  0
   -1.2657   -2.3886    0.0000 C   0  0  0  0  0  0  0  0  0  0  0  0
  1 20  1  0  0  0  0
  2 17  2  0  0  0  0
  3  6  1  0  0  0  0
  3  8  1  0  0  0  0
  3 13  1  0  0  0  0
  4  6  1  0  0  0  0
  4 14  2  0  0  0  0
  5  6  2  0  0  0  0
  5  7  1  0  0  0  0
  5  9  1  0  0  0  0
  7  8  1  0  0  0  0
  7 11  2  0  0  0  0
  8 12  2  0  0  0  0
  9 10  2  0  0  0  0
 10 14  1  0  0  0  0
 10 17  1  0  0  0  0
 11 15  1  0  0  0  0
 12 16  1  0  0  0  0
 13 18  1  0  0  0  0
 15 16  2  0  0  0  0
 17 19  1  0  0  0  0
 18 20  1  0  0  0  0
M  END
> <PUBCHEM_COMPOUND_ID_TYPE>
0

> <PUBCHEM_TOTAL_CHARGE>
0

> <PUBCHEM_SUBSTANCE_ID>
310941971

> <PUBCHEM_SUBSTANCE_VERSION>
1

> <PUBCHEM_EXT_DATASOURCE_NAME>
4488

> <PUBCHEM_EXT_DATASOURCE_REGID>
SCHEMBL16120005

> <PUBCHEM_SUBSTANCE_COMMENT>
InChI=1S/C16H15FN2O/c1-11(20)12-9-14-13-5-2-3-6-15(13)19(8-4-7-17)16(14)18-10-12/h2-3,5-6,9-10H,4,7-8H2,1H3
InChIKey=KNWWAODZMUCGIT-UHFFFAOYSA-N

> <PUBCHEM_SUBSTANCE_SYNONYM>
SCHEMBL16120005

> <PUBCHEM_XREF_EXT_ID>
SCHEMBL16120005

> <PUBCHEM_EXT_DATASOURCE_URL>
https://www.surechembl.org/

> <PUBCHEM_EXT_SUBSTANCE_URL>
https://www.surechembl.org/chemical/SCHEMBL16120005

> <PUBCHEM_CID_ASSOCIATIONS>
86271253  1

> <PUBCHEM_COORDINATE_TYPE>
1
3

$$$$
