310931894
  -OEChem-07211613022D

 27 29  0     0  0  0  0  0  0999 V2000
    2.2247   -1.4831    0.0000 S   0  0  0  0  0  0  0  0  0  0  0  0
    1.4420   -1.9775    0.0000 O   0  0  0  0  0  0  0  0  0  0  0  0
    1.4420   -5.3146    0.0000 O   0  0  0  0  0  0  0  0  0  0  0  0
    4.3259   -1.9775    0.0000 O   0  0  0  0  0  0  0  0  0  0  0  0
    5.0675   -3.2135    0.0000 O   0  0  0  0  0  0  0  0  0  0  0  0
    3.5843   -1.4831    0.0000 N   0  0  0  0  0  0  0  0  0  0  0  0
    2.1836   -3.2135    0.0000 C   0  0  0  0  0  0  0  0  0  0  0  0
    2.8839   -2.8016    0.0000 C   0  0  0  0  0  0  0  0  0  0  0  0
    2.8839   -1.9775    0.0000 C   0  0  0  0  0  0  0  0  0  0  0  0
    1.4420   -2.8016    0.0000 C   0  0  0  0  0  0  0  0  0  0  0  0
    2.1836   -4.0787    0.0000 C   0  0  0  0  0  0  0  0  0  0  0  0
    1.4420   -4.4907    0.0000 C   0  0  0  0  0  0  0  0  0  0  0  0
    3.6255   -3.2135    0.0000 C   0  0  0  0  0  0  0  0  0  0  0  0
    0.7416   -3.2135    0.0000 C   0  0  0  0  0  0  0  0  0  0  0  0
    2.4720   -0.7004    0.0000 C   0  0  0  0  0  0  0  0  0  0  0  0
    0.7004   -4.0375    0.0000 C   0  0  0  0  0  0  0  0  0  0  0  0
    3.2959   -0.7004    0.0000 C   0  0  0  0  0  0  0  0  0  0  0  0
    4.3259   -2.8016    0.0000 C   0  0  0  0  0  0  0  0  0  0  0  0
    0.7004   -5.7267    0.0000 C   0  0  0  0  0  0  0  0  0  0  0  0
    2.0188    0.0000    0.0000 C   0  0  0  0  0  0  0  0  0  0  0  0
    0.7004   -6.5506    0.0000 C   0  0  0  0  0  0  0  0  0  0  0  0
    0.7004   -1.5656    0.0000 C   0  0  0  0  0  0  0  0  0  0  0  0
    0.0000   -7.0038    0.0000 C   0  0  0  0  0  0  0  0  0  0  0  0
    1.4420   -7.0038    0.0000 C   0  0  0  0  0  0  0  0  0  0  0  0
    0.0000   -7.8278    0.0000 C   0  0  0  0  0  0  0  0  0  0  0  0
    1.4420   -7.8278    0.0000 C   0  0  0  0  0  0  0  0  0  0  0  0
    0.7004   -8.2398    0.0000 C   0  0  0  0  0  0  0  0  0  0  0  0
  1  9  1  0  0  0  0
  1 15  1  0  0  0  0
  2 10  1  0  0  0  0
  2 22  1  0  0  0  0
  3 12  1  0  0  0  0
  3 19  1  0  0  0  0
  4 18  2  0  0  0  0
  5 18  1  0  0  0  0
  6  9  2  0  0  0  0
  6 17  1  0  0  0  0
  7  8  1  0  0  0  0
  7 10  1  0  0  0  0
  7 11  2  0  0  0  0
  8  9  1  0  0  0  0
  8 13  2  0  0  0  0
 10 14  2  0  0  0  0
 11 12  1  0  0  0  0
 12 16  2  0  0  0  0
 13 18  1  0  0  0  0
 14 16  1  0  0  0  0
 15 17  2  0  0  0  0
 15 20  1  0  0  0  0
 19 21  1  0  0  0  0
 21 23  2  0  0  0  0
 21 24  1  0  0  0  0
 23 25  1  0  0  0  0
 24 26  2  0  0  0  0
 25 27  2  0  0  0  0
 26 27  1  0  0  0  0
M  END
> <PUBCHEM_COMPOUND_ID_TYPE>
0

> <PUBCHEM_TOTAL_CHARGE>
0

> <PUBCHEM_SUBSTANCE_ID>
310931894

> <PUBCHEM_SUBSTANCE_VERSION>
1

> <PUBCHEM_EXT_DATASOURCE_NAME>
4488

> <PUBCHEM_EXT_DATASOURCE_REGID>
SCHEMBL16109229

> <PUBCHEM_SUBSTANCE_COMMENT>
InChI=1S/C21H19NO4S/c1-14-12-22-21(27-14)18(11-20(23)24)17-10-16(8-9-19(17)25-2)26-13-15-6-4-3-5-7-15/h3-12H,13H2,1-2H3,(H,23,24)/b18-11-
InChIKey=ICCJPQKVZCTRFX-WQRHYEAKSA-N

> <PUBCHEM_SUBSTANCE_SYNONYM>
SCHEMBL16109229

> <PUBCHEM_XREF_EXT_ID>
SCHEMBL16109229

> <PUBCHEM_EXT_DATASOURCE_URL>
https://www.surechembl.org/

> <PUBCHEM_EXT_SUBSTANCE_URL>
https://www.surechembl.org/chemical/SCHEMBL16109229

> <PUBCHEM_CID_ASSOCIATIONS>
117600551  1

> <PUBCHEM_COORDINATE_TYPE>
1
3

$$$$
