310934069
  -OEChem-07211613022D

 40 43  0     1  0  0  0  0  0999 V2000
    5.6743   -3.6151    0.0000 S   0  0  0  0  0  0  0  0  0  0  0  0
    2.8829   -3.7981    0.0000 F   0  0  0  0  0  0  0  0  0  0  0  0
    5.0337   -5.0337    0.0000 O   0  0  0  0  0  0  0  0  0  0  0  0
    2.8829   -5.3998    0.0000 O   0  0  0  0  0  0  0  0  0  0  0  0
    4.4845   -1.4186    0.0000 O   0  0  0  0  0  0  0  0  0  0  0  0
    5.0794   -6.6810    0.0000 O   0  0  0  0  0  0  0  0  0  0  0  0
    5.7201   -0.7322    0.0000 O   0  0  0  0  0  0  0  0  0  0  0  0
    2.1507   -4.1642    0.0000 O   0  0  0  0  0  0  0  0  0  0  0  0
    4.3930   -7.9166    0.0000 O   0  0  0  0  0  0  0  0  0  0  0  0
    4.5303   -2.9745    0.0000 N   0  0  0  0  0  0  0  0  0  0  0  0
    5.7658   -2.1507    0.0000 N   0  0  0  0  0  0  0  0  0  0  0  0
    4.3015   -3.7523    0.0000 C   0  0  3  0  0  0  0  0  0  0  0  0
    5.0794   -4.2100    0.0000 C   0  0  3  0  0  0  0  0  0  0  0  0
    3.6151   -4.2100    0.0000 C   0  0  3  0  0  0  0  0  0  0  0  0
    3.6151   -4.9879    0.0000 C   0  0  3  0  0  0  0  0  0  0  0  0
    5.3540   -2.8829    0.0000 C   0  0  0  0  0  0  0  0  0  0  0  0
    4.3473   -5.4455    0.0000 C   0  0  3  0  0  0  0  0  0  0  0  0
    4.3473   -6.2692    0.0000 C   0  0  0  0  0  0  0  0  0  0  0  0
    5.3082   -1.4186    0.0000 C   0  0  0  0  0  0  0  0  0  0  0  0
    2.1507   -4.9879    0.0000 C   0  0  0  0  0  0  0  0  0  0  0  0
    6.5895   -2.1507    0.0000 C   0  0  0  0  0  0  0  0  0  0  0  0
    1.4643   -5.3998    0.0000 C   0  0  0  0  0  0  0  0  0  0  0  0
    4.0727   -0.7322    0.0000 C   0  0  0  0  0  0  0  0  0  0  0  0
    5.0794   -7.5047    0.0000 C   0  0  0  0  0  0  0  0  0  0  0  0
    7.0013   -1.4186    0.0000 C   0  0  0  0  0  0  0  0  0  0  0  0
    0.7322   -4.9879    0.0000 C   0  0  0  0  0  0  0  0  0  0  0  0
    1.4643   -6.2235    0.0000 C   0  0  0  0  0  0  0  0  0  0  0  0
    5.8116   -7.9166    0.0000 C   0  0  0  0  0  0  0  0  0  0  0  0
    0.0000   -5.3998    0.0000 C   0  0  0  0  0  0  0  0  0  0  0  0
    0.7322   -6.6353    0.0000 C   0  0  0  0  0  0  0  0  0  0  0  0
    3.6608    0.0000    0.0000 C   0  0  0  0  0  0  0  0  0  0  0  0
    4.8048   -0.3203    0.0000 C   0  0  0  0  0  0  0  0  0  0  0  0
    3.3863   -1.1440    0.0000 C   0  0  0  0  0  0  0  0  0  0  0  0
    5.8116   -8.7403    0.0000 C   0  0  0  0  0  0  0  0  0  0  0  0
    6.4980   -7.5047    0.0000 C   0  0  0  0  0  0  0  0  0  0  0  0
    0.0000   -6.2235    0.0000 C   0  0  0  0  0  0  0  0  0  0  0  0
    6.5895   -0.7322    0.0000 C   0  0  0  0  0  0  0  0  0  0  0  0
    6.5438   -9.1521    0.0000 C   0  0  0  0  0  0  0  0  0  0  0  0
    7.2302   -7.9166    0.0000 C   0  0  0  0  0  0  0  0  0  0  0  0
    7.2302   -8.7403    0.0000 C   0  0  0  0  0  0  0  0  0  0  0  0
  1 13  1  0  0  0  0
  1 16  1  0  0  0  0
 14  2  1  6  0  0  0
 13  3  1  1  0  0  0
  3 17  1  0  0  0  0
 15  4  1  1  0  0  0
  4 20  1  0  0  0  0
  5 19  1  0  0  0  0
  5 23  1  0  0  0  0
  6 18  1  0  0  0  0
  6 24  1  0  0  0  0
  7 19  2  0  0  0  0
  8 20  2  0  0  0  0
  9 24  2  0  0  0  0
 12 10  1  1  0  0  0
 10 16  2  0  0  0  0
 11 16  1  0  0  0  0
 11 19  1  0  0  0  0
 11 21  1  0  0  0  0
 12 13  1  0  0  0  0
 12 14  1  0  0  0  0
 14 15  1  0  0  0  0
 15 17  1  0  0  0  0
 17 18  1  6  0  0  0
 20 22  1  0  0  0  0
 21 25  1  0  0  0  0
 22 26  2  0  0  0  0
 22 27  1  0  0  0  0
 23 31  1  0  0  0  0
 23 32  1  0  0  0  0
 23 33  1  0  0  0  0
 24 28  1  0  0  0  0
 25 37  2  0  0  0  0
 26 29  1  0  0  0  0
 27 30  2  0  0  0  0
 28 34  2  0  0  0  0
 28 35  1  0  0  0  0
 29 36  2  0  0  0  0
 30 36  1  0  0  0  0
 34 38  1  0  0  0  0
 35 39  2  0  0  0  0
 38 40  2  0  0  0  0
 39 40  1  0  0  0  0
M  END
> <PUBCHEM_COMPOUND_ID_TYPE>
0

> <PUBCHEM_TOTAL_CHARGE>
0

> <PUBCHEM_SUBSTANCE_ID>
310934069

> <PUBCHEM_SUBSTANCE_VERSION>
1

> <PUBCHEM_EXT_DATASOURCE_NAME>
4488

> <PUBCHEM_EXT_DATASOURCE_REGID>
SCHEMBL16111514

> <PUBCHEM_SUBSTANCE_COMMENT>
InChI=1S/C29H31FN2O7S/c1-5-16-32(28(35)39-29(2,3)4)27-31-22-21(30)23(38-25(34)19-14-10-7-11-15-19)20(37-26(22)40-27)17-36-24(33)18-12-8-6-9-13-18/h5-15,20-23,26H,1,16-17H2,2-4H3/t20-,21-,22-,23-,26-/m1/s1
InChIKey=JKODALJEJAWCLN-QSZPGENFSA-N

> <PUBCHEM_SUBSTANCE_SYNONYM>
SCHEMBL16111514

> <PUBCHEM_XREF_EXT_ID>
SCHEMBL16111514

> <PUBCHEM_EXT_DATASOURCE_URL>
https://www.surechembl.org/

> <PUBCHEM_EXT_SUBSTANCE_URL>
https://www.surechembl.org/chemical/SCHEMBL16111514

> <PUBCHEM_CID_ASSOCIATIONS>
117602357  1

> <PUBCHEM_COORDINATE_TYPE>
1
3

> <PUBCHEM_BONDANNOTATIONS>
12  10  5
17  18  6
14  2  6
13  3  5
15  4  5

$$$$
