310942677
  -OEChem-07211613022D

 43 45  0     1  0  0  0  0  0999 V2000
    3.5703    1.5751    0.0000 P   0  0  0  0  0  0  0  0  0  0  0  0
    0.5834   -3.1386    0.0000 F   0  0  0  0  0  0  0  0  0  0  0  0
    1.7734    3.5586    0.0000 F   0  0  0  0  0  0  0  0  0  0  0  0
   -1.5401    3.2085    0.0000 F   0  0  0  0  0  0  0  0  0  0  0  0
    2.9636   -0.9217    0.0000 O   0  0  0  0  0  0  0  0  0  0  0  0
    0.0934    0.7351    0.0000 O   0  0  0  0  0  0  0  0  0  0  0  0
   -3.2669   -2.5785    0.0000 O   0  0  0  0  0  0  0  0  0  0  0  0
   -3.0102   -1.1550    0.0000 O   0  0  0  0  0  0  0  0  0  0  0  0
   -2.0768    1.1550    0.0000 O   0  0  0  0  0  0  0  0  0  0  0  0
    0.7934   -0.5017    0.0000 N   0  0  0  0  0  0  0  0  0  0  0  0
    2.1702    1.2484    0.0000 N   0  0  0  0  0  0  0  0  0  0  0  0
    0.8400    1.2484    0.0000 N   0  0  0  0  0  0  0  0  0  0  0  0
   -1.2368   -2.0185    0.0000 N   0  0  0  0  0  0  0  0  0  0  0  0
   -0.6534   -0.5017    0.0000 N   0  0  0  0  0  0  0  0  0  0  0  0
    1.4934   -0.0817    0.0000 C   0  0  3  0  0  0  0  0  0  0  0  0
    1.5168    0.7584    0.0000 C   0  0  0  0  0  0  0  0  0  0  0  0
    2.2401   -0.5250    0.0000 C   0  0  0  0  0  0  0  0  0  0  0  0
    1.0967    2.0651    0.0000 C   0  0  0  0  0  0  0  0  0  0  0  0
    1.9368    2.0185    0.0000 C   0  0  0  0  0  0  0  0  0  0  0  0
    0.6067    2.6952    0.0000 C   0  0  0  0  0  0  0  0  0  0  0  0
    0.7934   -1.3418    0.0000 C   0  0  0  0  0  0  0  0  0  0  0  0
    0.0700   -0.1050    0.0000 C   0  0  0  0  0  0  0  0  0  0  0  0
    0.0700   -1.7384    0.0000 C   0  0  3  0  0  0  0  0  0  0  0  0
   -0.0233   -2.5785    0.0000 C   0  0  3  0  0  0  0  0  0  0  0  0
    2.9636    0.9684    0.0000 C   0  0  0  0  0  0  0  0  0  0  0  0
    0.9334    3.4886    0.0000 C   0  0  0  0  0  0  0  0  0  0  0  0
   -0.6534   -1.4584    0.0000 C   0  0  0  0  0  0  0  0  0  0  0  0
    2.9636   -0.0817    0.0000 C   0  0  0  0  0  0  0  0  0  0  0  0
    2.2401   -1.3651    0.0000 C   0  0  0  0  0  0  0  0  0  0  0  0
   -0.2100    2.6252    0.0000 C   0  0  0  0  0  0  0  0  0  0  0  0
   -0.8167   -2.7652    0.0000 C   0  0  0  0  0  0  0  0  0  0  0  0
   -2.7302   -1.9018    0.0000 C   0  0  0  0  0  0  0  0  0  0  0  0
   -0.7000    3.3019    0.0000 C   0  0  0  0  0  0  0  0  0  0  0  0
    0.4434    4.1419    0.0000 C   0  0  0  0  0  0  0  0  0  0  0  0
   -0.3500    4.0486    0.0000 C   0  0  0  0  0  0  0  0  0  0  0  0
   -1.3768   -0.0817    0.0000 C   0  0  3  0  0  0  0  0  0  0  0  0
    3.6636   -0.5017    0.0000 C   0  0  0  0  0  0  0  0  0  0  0  0
   -2.9869   -3.3719    0.0000 C   0  0  0  0  0  0  0  0  0  0  0  0
   -1.3535    0.7351    0.0000 C   0  0  0  0  0  0  0  0  0  0  0  0
   -2.0535   -0.5250    0.0000 C   0  0  0  0  0  0  0  0  0  0  0  0
   -3.6636   -3.6752    0.0000 C   0  0  0  0  0  0  0  0  0  0  0  0
   -2.2868   -3.0685    0.0000 C   0  0  0  0  0  0  0  0  0  0  0  0
   -2.6835   -4.1419    0.0000 C   0  0  0  0  0  0  0  0  0  0  0  0
  1 25  1  0  0  0  0
 24  2  1  1  0  0  0
  3 26  1  0  0  0  0
  4 33  1  0  0  0  0
  5 17  1  0  0  0  0
  5 37  1  0  0  0  0
  6 22  2  0  0  0  0
  7 32  1  0  0  0  0
  7 38  1  0  0  0  0
  8 32  2  0  0  0  0
  9 39  1  0  0  0  0
 15 10  1  1  0  0  0
 10 21  1  0  0  0  0
 10 22  1  0  0  0  0
 11 16  1  0  0  0  0
 11 19  1  0  0  0  0
 11 25  1  0  0  0  0
 12 16  2  0  0  0  0
 12 18  1  0  0  0  0
 13 27  1  0  0  0  0
 13 31  1  0  0  0  0
 13 32  1  0  0  0  0
 14 22  1  0  0  0  0
 14 36  1  0  0  0  0
 15 16  1  0  0  0  0
 15 17  1  0  0  0  0
 17 28  1  0  0  0  0
 17 29  1  0  0  0  0
 18 19  2  0  0  0  0
 18 20  1  0  0  0  0
 20 26  1  0  0  0  0
 20 30  2  0  0  0  0
 23 21  1  1  0  0  0
 23 24  1  0  0  0  0
 23 27  1  0  0  0  0
 24 31  1  0  0  0  0
 26 34  2  0  0  0  0
 30 33  1  0  0  0  0
 33 35  2  0  0  0  0
 34 35  1  0  0  0  0
 36 39  1  0  0  0  0
 36 40  1  1  0  0  0
 38 41  1  0  0  0  0
 38 42  1  0  0  0  0
 38 43  1  0  0  0  0
M  END
> <PUBCHEM_COMPOUND_ID_TYPE>
0

> <PUBCHEM_TOTAL_CHARGE>
0

> <PUBCHEM_SUBSTANCE_ID>
310942677

> <PUBCHEM_SUBSTANCE_VERSION>
1

> <PUBCHEM_EXT_DATASOURCE_NAME>
4488

> <PUBCHEM_EXT_DATASOURCE_REGID>
SCHEMBL16120723

> <PUBCHEM_SUBSTANCE_COMMENT>
InChI=1S/C29H43F3N5O5P/c1-17(15-38)33-26(39)37(12-18-11-35(13-22(18)32)27(40)42-28(2,3)4)24(29(5,6)41-7)25-34-23(14-36(25)16-43)20-10-19(30)8-9-21(20)31/h8-10,14,17-18,22,24,38H,11-13,15-16,43H2,1-7H3,(H,33,39)/t17-,18-,22-,24-/m0/s1
InChIKey=UVPDPOINCCBTQY-OVFSYLBISA-N

> <PUBCHEM_SUBSTANCE_SYNONYM>
SCHEMBL16120723

> <PUBCHEM_XREF_EXT_ID>
SCHEMBL16120723

> <PUBCHEM_EXT_DATASOURCE_URL>
https://www.surechembl.org/

> <PUBCHEM_EXT_SUBSTANCE_URL>
https://www.surechembl.org/chemical/SCHEMBL16120723

> <PUBCHEM_CID_ASSOCIATIONS>
117609205  1

> <PUBCHEM_COORDINATE_TYPE>
1
3

> <PUBCHEM_BONDANNOTATIONS>
15  10  5
24  2  5
23  21  5
36  40  5

$$$$
