310932718
  -OEChem-07211613022D

 14 13  0     0  0  0  0  0  0999 V2000
    0.8219   -4.1596    0.0000 P   0  0  0  0  0  0  0  0  0  0  0  0
    2.2666   -0.8469    0.0000 P   0  0  0  0  0  0  0  0  0  0  0  0
    0.8219   -3.3127    0.0000 O   0  0  0  0  0  0  0  0  0  0  0  0
    2.2666   -1.6688    0.0000 O   0  0  0  0  0  0  0  0  0  0  0  0
    0.0000   -4.1596    0.0000 O   0  0  0  0  0  0  0  0  0  0  0  0
    1.6688   -4.1596    0.0000 O   0  0  0  0  0  0  0  0  0  0  0  0
    0.8219   -4.9815    0.0000 O   0  0  0  0  0  0  0  0  0  0  0  0
    3.1134   -0.8219    0.0000 O   0  0  0  0  0  0  0  0  0  0  0  0
    1.4447   -0.8469    0.0000 O   0  0  0  0  0  0  0  0  0  0  0  0
    2.2666    0.0000    0.0000 O   0  0  0  0  0  0  0  0  0  0  0  0
    2.9889   -2.8893    0.0000 N   0  0  0  0  0  0  0  0  0  0  0  0
    1.5442   -2.9142    0.0000 C   0  0  0  0  0  0  0  0  0  0  0  0
    1.5442   -2.0922    0.0000 C   0  0  0  0  0  0  0  0  0  0  0  0
    2.2666   -3.3127    0.0000 C   0  0  0  0  0  0  0  0  0  0  0  0
  1  3  1  0  0  0  0
  1  5  2  0  0  0  0
  1  6  1  0  0  0  0
  1  7  1  0  0  0  0
  2  4  1  0  0  0  0
  2  8  2  0  0  0  0
  2  9  1  0  0  0  0
  2 10  1  0  0  0  0
  3 12  1  0  0  0  0
  4 13  1  0  0  0  0
 11 14  3  0  0  0  0
 12 13  2  0  0  0  0
 12 14  1  0  0  0  0
M  END
> <PUBCHEM_COMPOUND_ID_TYPE>
0

> <PUBCHEM_TOTAL_CHARGE>
0

> <PUBCHEM_SUBSTANCE_ID>
310932718

> <PUBCHEM_SUBSTANCE_VERSION>
1

> <PUBCHEM_EXT_DATASOURCE_NAME>
4488

> <PUBCHEM_EXT_DATASOURCE_REGID>
SCHEMBL16110101

> <PUBCHEM_SUBSTANCE_COMMENT>
InChI=1S/C3H5NO8P2/c4-1-3(12-14(8,9)10)2-11-13(5,6)7/h2H,(H2,5,6,7)(H2,8,9,10)/b3-2+
InChIKey=BKKWGBQWHVAJAH-NSCUHMNNSA-N

> <PUBCHEM_SUBSTANCE_SYNONYM>
SCHEMBL16110101

> <PUBCHEM_XREF_EXT_ID>
SCHEMBL16110101

> <PUBCHEM_EXT_DATASOURCE_URL>
https://www.surechembl.org/

> <PUBCHEM_EXT_SUBSTANCE_URL>
https://www.surechembl.org/chemical/SCHEMBL16110101

> <PUBCHEM_CID_ASSOCIATIONS>
117601225  1

> <PUBCHEM_COORDINATE_TYPE>
1
3

$$$$
