310946021
  -OEChem-07211613022D

 40 43  0     1  0  0  0  0  0999 V2000
    4.8427    0.9768    0.0000 O   0  0  0  0  0  0  0  0  0  0  0  0
    3.7065   -0.9768    0.0000 O   0  0  0  0  0  0  0  0  0  0  0  0
    1.3371    0.9630    0.0000 O   0  0  0  0  0  0  0  0  0  0  0  0
   -0.8245   -1.1016    0.0000 O   0  0  0  0  0  0  0  0  0  0  0  0
   -2.9859    0.9630    0.0000 O   0  0  0  0  0  0  0  0  0  0  0  0
    3.4848   -2.7643    0.0000 O   0  0  0  0  0  0  0  0  0  0  0  0
    2.0576   -0.2702    0.0000 N   0  0  0  0  0  0  0  0  0  0  0  0
   -0.1039    0.1455    0.0000 N   0  0  0  0  0  0  0  0  0  0  0  0
   -2.2516   -0.2702    0.0000 N   0  0  0  0  0  0  0  0  0  0  0  0
   -5.1337   -0.2702    0.0000 N   0  0  0  0  0  0  0  0  0  0  0  0
    4.4270    0.3118    0.0000 C   0  0  3  0  0  0  0  0  0  0  0  0
    3.7065   -0.1178    0.0000 C   0  0  0  0  0  0  0  0  0  0  0  0
    4.0390    0.9907    0.0000 C   0  0  0  0  0  0  0  0  0  0  0  0
    2.9859    0.2840    0.0000 C   0  0  3  0  0  0  0  0  0  0  0  0
    5.1337   -0.1178    0.0000 C   0  0  0  0  0  0  0  0  0  0  0  0
    2.9998    1.3648    0.0000 C   0  0  0  0  0  0  0  0  0  0  0  0
    1.3232    0.1455    0.0000 C   0  0  0  0  0  0  0  0  0  0  0  0
    0.6304   -0.2425    0.0000 C   0  0  3  0  0  0  0  0  0  0  0  0
    2.2654    1.7944    0.0000 C   0  0  0  0  0  0  0  0  0  0  0  0
    0.6027   -1.0877    0.0000 C   0  0  0  0  0  0  0  0  0  0  0  0
   -0.8106   -0.2286    0.0000 C   0  0  0  0  0  0  0  0  0  0  0  0
    1.3510   -1.4895    0.0000 C   0  0  0  0  0  0  0  0  0  0  0  0
    1.5310    1.4480    0.0000 C   0  0  0  0  0  0  0  0  0  0  0  0
    2.1685    2.5980    0.0000 C   0  0  0  0  0  0  0  0  0  0  0  0
   -1.5310    0.1732    0.0000 C   0  0  3  0  0  0  0  0  0  0  0  0
    0.9768    2.0438    0.0000 C   0  0  0  0  0  0  0  0  0  0  0  0
    1.3787    2.7643    0.0000 C   0  0  0  0  0  0  0  0  0  0  0  0
    1.3510   -2.3209    0.0000 C   0  0  0  0  0  0  0  0  0  0  0  0
    2.0438   -1.0877    0.0000 C   0  0  0  0  0  0  0  0  0  0  0  0
   -2.9859    0.1455    0.0000 C   0  0  0  0  0  0  0  0  0  0  0  0
   -3.6788   -0.2425    0.0000 C   0  0  0  0  0  0  0  0  0  0  0  0
    2.7781   -2.3070    0.0000 C   0  0  0  0  0  0  0  0  0  0  0  0
    2.0576   -2.7227    0.0000 C   0  0  0  0  0  0  0  0  0  0  0  0
    2.7781   -1.5034    0.0000 C   0  0  0  0  0  0  0  0  0  0  0  0
   -1.5310    0.9768    0.0000 C   0  0  0  0  0  0  0  0  0  0  0  0
   -4.4409    0.1594    0.0000 C   0  0  0  0  0  0  0  0  0  0  0  0
   -3.6926   -1.0739    0.0000 C   0  0  0  0  0  0  0  0  0  0  0  0
   -4.4131   -1.4757    0.0000 C   0  0  0  0  0  0  0  0  0  0  0  0
   -5.1198   -1.0739    0.0000 C   0  0  0  0  0  0  0  0  0  0  0  0
    4.2330   -2.3347    0.0000 C   0  0  0  0  0  0  0  0  0  0  0  0
  1 11  1  0  0  0  0
  1 13  1  0  0  0  0
  2 12  2  0  0  0  0
  3 17  2  0  0  0  0
  4 21  2  0  0  0  0
  5 30  2  0  0  0  0
  6 32  1  0  0  0  0
  6 40  1  0  0  0  0
 14  7  1  1  0  0  0
  7 17  1  0  0  0  0
 18  8  1  6  0  0  0
  8 21  1  0  0  0  0
  9 25  1  0  0  0  0
  9 30  1  0  0  0  0
 10 36  2  0  0  0  0
 10 39  1  0  0  0  0
 11 12  1  1  0  0  0
 11 13  1  0  0  0  0
 11 15  1  6  0  0  0
 12 14  1  0  0  0  0
 14 16  1  0  0  0  0
 16 19  1  0  0  0  0
 17 18  1  0  0  0  0
 18 20  1  0  0  0  0
 19 23  1  0  0  0  0
 19 24  1  0  0  0  0
 20 22  1  0  0  0  0
 21 25  1  0  0  0  0
 22 28  2  0  0  0  0
 22 29  1  0  0  0  0
 23 26  1  0  0  0  0
 24 27  1  0  0  0  0
 25 35  1  6  0  0  0
 26 27  1  0  0  0  0
 28 33  1  0  0  0  0
 29 34  2  0  0  0  0
 30 31  1  0  0  0  0
 31 36  1  0  0  0  0
 31 37  2  0  0  0  0
 32 33  2  0  0  0  0
 32 34  1  0  0  0  0
 37 38  1  0  0  0  0
 38 39  2  0  0  0  0
M  END
> <PUBCHEM_COMPOUND_ID_TYPE>
0

> <PUBCHEM_TOTAL_CHARGE>
0

> <PUBCHEM_SUBSTANCE_ID>
310946021

> <PUBCHEM_SUBSTANCE_VERSION>
1

> <PUBCHEM_EXT_DATASOURCE_NAME>
4488

> <PUBCHEM_EXT_DATASOURCE_REGID>
SCHEMBL16124127

> <PUBCHEM_SUBSTANCE_COMMENT>
InChI=1S/C30H38N4O6/c1-19(32-28(37)22-9-6-14-31-17-22)27(36)34-25(16-21-10-12-23(39-3)13-11-21)29(38)33-24(15-20-7-4-5-8-20)26(35)30(2)18-40-30/h6,9-14,17,19-20,24-25H,4-5,7-8,15-16,18H2,1-3H3,(H,32,37)(H,33,38)(H,34,36)/t19-,24+,25+,30-/m1/s1
InChIKey=CNDQDDIQHCDGLM-LTNBHBMDSA-N

> <PUBCHEM_SUBSTANCE_SYNONYM>
SCHEMBL16124127

> <PUBCHEM_XREF_EXT_ID>
SCHEMBL16124127

> <PUBCHEM_EXT_DATASOURCE_URL>
https://www.surechembl.org/

> <PUBCHEM_EXT_SUBSTANCE_URL>
https://www.surechembl.org/chemical/SCHEMBL16124127

> <PUBCHEM_CID_ASSOCIATIONS>
117611992  1

> <PUBCHEM_COORDINATE_TYPE>
1
3

> <PUBCHEM_BONDANNOTATIONS>
11  12  5
11  15  6
25  35  6
14  7  5
18  8  6

$$$$
