310945187
  -OEChem-07211613022D

 11 10  0     0  0  0  0  0  0999 V2000
   -3.0139   -0.2098    0.0000 Br  0  0  0  0  0  0  0  0  0  0  0  0
    1.7775    0.6072    0.0000 O   0  0  0  0  0  0  0  0  0  0  0  0
    0.8501    0.1435    0.0000 C   0  0  0  0  0  0  0  0  0  0  0  0
   -0.0773    0.0773    0.0000 C   0  0  0  0  0  0  0  0  0  0  0  0
    0.3864   -0.1214    0.0000 C   0  0  0  0  0  0  0  0  0  0  0  0
   -1.1371    0.6734    0.0000 C   0  0  0  0  0  0  0  0  0  0  0  0
    0.6293    0.8501    0.0000 C   0  0  0  0  0  0  0  0  0  0  0  0
    0.6293   -0.8501    0.0000 C   0  0  0  0  0  0  0  0  0  0  0  0
    0.1435    0.8722    0.0000 C   0  0  0  0  0  0  0  0  0  0  0  0
    0.1656   -0.8722    0.0000 C   0  0  0  0  0  0  0  0  0  0  0  0
    3.0139   -0.0331    0.0000 C   0  0  0  0  0  0  0  0  0  0  0  0
  1  6  1  0  0  0  0
  2  3  1  0  0  0  0
  2 11  1  0  0  0  0
  3  5  1  0  0  0  0
  3  7  1  0  0  0  0
  3  8  1  0  0  0  0
  4  5  1  0  0  0  0
  4  6  1  0  0  0  0
  4  9  1  0  0  0  0
  4 10  1  0  0  0  0
M  END
> <PUBCHEM_COMPOUND_ID_TYPE>
0

> <PUBCHEM_TOTAL_CHARGE>
0

> <PUBCHEM_SUBSTANCE_ID>
310945187

> <PUBCHEM_SUBSTANCE_VERSION>
1

> <PUBCHEM_EXT_DATASOURCE_NAME>
4488

> <PUBCHEM_EXT_DATASOURCE_REGID>
SCHEMBL16123277

> <PUBCHEM_SUBSTANCE_COMMENT>
InChI=1S/C9H19BrO/c1-8(2,7-10)6-9(3,4)11-5/h6-7H2,1-5H3
InChIKey=LHNKATRDSDVMMR-UHFFFAOYSA-N

> <PUBCHEM_SUBSTANCE_SYNONYM>
SCHEMBL16123277

> <PUBCHEM_XREF_EXT_ID>
SCHEMBL16123277

> <PUBCHEM_EXT_DATASOURCE_URL>
https://www.surechembl.org/

> <PUBCHEM_EXT_SUBSTANCE_URL>
https://www.surechembl.org/chemical/SCHEMBL16123277

> <PUBCHEM_CID_ASSOCIATIONS>
117611273  1

> <PUBCHEM_COORDINATE_TYPE>
1
3

$$$$
