310936801
  -OEChem-07211613022D

 33 35  0     1  0  0  0  0  0999 V2000
    3.6130   -2.7026    0.0000 Cl  0  0  0  0  0  0  0  0  0  0  0  0
    4.8078   -5.4053    0.0000 F   0  0  0  0  0  0  0  0  0  0  0  0
    6.2303   -5.2630    0.0000 F   0  0  0  0  0  0  0  0  0  0  0  0
    4.7225   -4.5802    0.0000 F   0  0  0  0  0  0  0  0  0  0  0  0
    8.5346   -3.5846    0.0000 F   0  0  0  0  0  0  0  0  0  0  0  0
    7.7096   -2.4182    0.0000 F   0  0  0  0  0  0  0  0  0  0  0  0
    7.8803   -4.0682    0.0000 F   0  0  0  0  0  0  0  0  0  0  0  0
    0.0000   -1.0242    0.0000 F   0  0  0  0  0  0  0  0  0  0  0  0
    0.2845   -2.4182    0.0000 F   0  0  0  0  0  0  0  0  0  0  0  0
    0.7966   -0.8534    0.0000 F   0  0  0  0  0  0  0  0  0  0  0  0
    5.4337   -1.3087    0.0000 O   0  0  0  0  0  0  0  0  0  0  0  0
    4.7794    0.0000    0.0000 O   0  0  0  0  0  0  0  0  0  0  0  0
    4.0966   -1.3087    0.0000 N   0  0  0  0  0  0  0  0  0  0  0  0
    2.2474   -2.9587    0.0000 N   0  0  0  0  0  0  0  0  0  0  0  0
    5.1777   -2.1052    0.0000 C   0  0  3  0  0  0  0  0  0  0  0  0
    5.6613   -2.7596    0.0000 C   0  0  0  0  0  0  0  0  0  0  0  0
    4.3527   -2.1052    0.0000 C   0  0  3  0  0  0  0  0  0  0  0  0
    4.7794   -0.8250    0.0000 C   0  0  0  0  0  0  0  0  0  0  0  0
    5.8036   -4.1819    0.0000 C   0  0  0  0  0  0  0  0  0  0  0  0
    6.9700   -3.3285    0.0000 C   0  0  0  0  0  0  0  0  0  0  0  0
    6.4863   -2.6742    0.0000 C   0  0  0  0  0  0  0  0  0  0  0  0
    5.3199   -3.5277    0.0000 C   0  0  0  0  0  0  0  0  0  0  0  0
    3.3285   -1.0526    0.0000 C   0  0  0  0  0  0  0  0  0  0  0  0
    6.6286   -4.0966    0.0000 C   0  0  0  0  0  0  0  0  0  0  0  0
    5.4906   -4.9216    0.0000 C   0  0  0  0  0  0  0  0  0  0  0  0
    7.7950   -3.2432    0.0000 C   0  0  0  0  0  0  0  0  0  0  0  0
    2.7026   -1.6216    0.0000 C   0  0  0  0  0  0  0  0  0  0  0  0
    1.3087   -1.9061    0.0000 C   0  0  0  0  0  0  0  0  0  0  0  0
    2.8449   -2.4182    0.0000 C   0  0  0  0  0  0  0  0  0  0  0  0
    1.9061   -1.3656    0.0000 C   0  0  0  0  0  0  0  0  0  0  0  0
    3.8691   -2.7596    0.0000 C   0  0  0  0  0  0  0  0  0  0  0  0
    0.5405   -1.6500    0.0000 C   0  0  0  0  0  0  0  0  0  0  0  0
    1.4509   -2.7311    0.0000 C   0  0  0  0  0  0  0  0  0  0  0  0
  1 29  1  0  0  0  0
  2 25  1  0  0  0  0
  3 25  1  0  0  0  0
  4 25  1  0  0  0  0
  5 26  1  0  0  0  0
  6 26  1  0  0  0  0
  7 26  1  0  0  0  0
  8 32  1  0  0  0  0
  9 32  1  0  0  0  0
 10 32  1  0  0  0  0
 15 11  1  6  0  0  0
 11 18  1  0  0  0  0
 12 18  2  0  0  0  0
 13 17  1  0  0  0  0
 13 18  1  0  0  0  0
 13 23  1  0  0  0  0
 14 29  1  0  0  0  0
 14 33  2  0  0  0  0
 15 16  1  0  0  0  0
 15 17  1  0  0  0  0
 16 21  2  0  0  0  0
 16 22  1  0  0  0  0
 17 31  1  6  0  0  0
 19 22  2  0  0  0  0
 19 24  1  0  0  0  0
 19 25  1  0  0  0  0
 20 21  1  0  0  0  0
 20 24  2  0  0  0  0
 20 26  1  0  0  0  0
 23 27  1  0  0  0  0
 27 29  2  0  0  0  0
 27 30  1  0  0  0  0
 28 30  2  0  0  0  0
 28 32  1  0  0  0  0
 28 33  1  0  0  0  0
M  END
> <PUBCHEM_COMPOUND_ID_TYPE>
0

> <PUBCHEM_TOTAL_CHARGE>
0

> <PUBCHEM_SUBSTANCE_ID>
310936801

> <PUBCHEM_SUBSTANCE_VERSION>
1

> <PUBCHEM_EXT_DATASOURCE_NAME>
4488

> <PUBCHEM_EXT_DATASOURCE_REGID>
SCHEMBL16114487

> <PUBCHEM_SUBSTANCE_COMMENT>
InChI=1S/C19H12ClF9N2O2/c1-8-14(9-2-11(17(21,22)23)5-12(3-9)18(24,25)26)33-16(32)31(8)7-10-4-13(19(27,28)29)6-30-15(10)20/h2-6,8,14H,7H2,1H3/t8-,14-/m0/s1
InChIKey=WWKUPVLJSJYXJR-RTHLEPHNSA-N

> <PUBCHEM_SUBSTANCE_SYNONYM>
SCHEMBL16114487

> <PUBCHEM_XREF_EXT_ID>
SCHEMBL16114487

> <PUBCHEM_EXT_DATASOURCE_URL>
https://www.surechembl.org/

> <PUBCHEM_EXT_SUBSTANCE_URL>
https://www.surechembl.org/chemical/SCHEMBL16114487

> <PUBCHEM_CID_ASSOCIATIONS>
117604695  1

> <PUBCHEM_COORDINATE_TYPE>
1
3

> <PUBCHEM_BONDANNOTATIONS>
15  11  6
17  31  6

$$$$
