310944288
  -OEChem-07211613022D

 24 25  0     0  0  0  0  0  0999 V2000
   -4.0057    1.0014    0.0000 Cl  0  0  0  0  0  0  0  0  0  0  0  0
   -4.0057   -0.6429    0.0000 Cl  0  0  0  0  0  0  0  0  0  0  0  0
    0.4327    1.8298    0.0000 O   0  0  0  0  0  0  0  0  0  0  0  0
    4.0057   -0.2349    0.0000 O   0  0  0  0  0  0  0  0  0  0  0  0
   -0.9891   -1.4713    0.0000 O   0  0  0  0  0  0  0  0  0  0  0  0
    1.1621    0.5934    0.0000 N   0  0  0  0  0  0  0  0  0  0  0  0
   -0.9767    1.0138    0.0000 N   0  0  0  0  0  0  0  0  0  0  0  0
    2.6087   -0.2225    0.0000 N   0  0  0  0  0  0  0  0  0  0  0  0
   -1.6938    0.6058    0.0000 C   0  0  0  0  0  0  0  0  0  0  0  0
   -1.7061   -0.2225    0.0000 C   0  0  0  0  0  0  0  0  0  0  0  0
   -3.1155    0.5934    0.0000 C   0  0  0  0  0  0  0  0  0  0  0  0
   -3.1280   -0.2225    0.0000 C   0  0  0  0  0  0  0  0  0  0  0  0
   -2.3985    1.0014    0.0000 C   0  0  0  0  0  0  0  0  0  0  0  0
    0.4327    1.0014    0.0000 C   0  0  0  0  0  0  0  0  0  0  0  0
   -2.3985   -0.6305    0.0000 C   0  0  0  0  0  0  0  0  0  0  0  0
   -0.2596    0.5934    0.0000 C   0  0  0  0  0  0  0  0  0  0  0  0
    1.1745   -0.2349    0.0000 C   0  0  0  0  0  0  0  0  0  0  0  0
    1.8916    1.0138    0.0000 C   0  0  0  0  0  0  0  0  0  0  0  0
    1.9040   -0.6305    0.0000 C   0  0  0  0  0  0  0  0  0  0  0  0
    2.5963    0.6058    0.0000 C   0  0  0  0  0  0  0  0  0  0  0  0
    3.3010   -0.6429    0.0000 C   0  0  0  0  0  0  0  0  0  0  0  0
   -0.9767   -0.6429    0.0000 C   0  0  0  0  0  0  0  0  0  0  0  0
    3.3134   -1.4713    0.0000 C   0  0  0  0  0  0  0  0  0  0  0  0
    2.5716   -1.8298    0.0000 C   0  0  0  0  0  0  0  0  0  0  0  0
  1 11  1  0  0  0  0
  2 12  1  0  0  0  0
  3 14  2  0  0  0  0
  4 21  2  0  0  0  0
  5 22  1  0  0  0  0
  6 14  1  0  0  0  0
  6 17  1  0  0  0  0
  6 18  1  0  0  0  0
  7  9  1  0  0  0  0
  7 16  1  0  0  0  0
  8 19  1  0  0  0  0
  8 20  1  0  0  0  0
  8 21  1  0  0  0  0
  9 10  1  0  0  0  0
  9 13  2  0  0  0  0
 10 15  2  0  0  0  0
 10 22  1  0  0  0  0
 11 12  2  0  0  0  0
 11 13  1  0  0  0  0
 12 15  1  0  0  0  0
 14 16  1  0  0  0  0
 17 19  1  0  0  0  0
 18 20  1  0  0  0  0
 21 23  1  0  0  0  0
 23 24  2  0  0  0  0
M  END
> <PUBCHEM_COMPOUND_ID_TYPE>
0

> <PUBCHEM_TOTAL_CHARGE>
0

> <PUBCHEM_SUBSTANCE_ID>
310944288

> <PUBCHEM_SUBSTANCE_VERSION>
1

> <PUBCHEM_EXT_DATASOURCE_NAME>
4488

> <PUBCHEM_EXT_DATASOURCE_REGID>
SCHEMBL16122363

> <PUBCHEM_SUBSTANCE_COMMENT>
InChI=1S/C16H19Cl2N3O3/c1-2-15(23)20-3-5-21(6-4-20)16(24)9-19-14-8-13(18)12(17)7-11(14)10-22/h2,7-8,19,22H,1,3-6,9-10H2
InChIKey=VIXBJMLVMALORP-UHFFFAOYSA-N

> <PUBCHEM_SUBSTANCE_SYNONYM>
SCHEMBL16122363

> <PUBCHEM_XREF_EXT_ID>
SCHEMBL16122363

> <PUBCHEM_EXT_DATASOURCE_URL>
https://www.surechembl.org/

> <PUBCHEM_EXT_SUBSTANCE_URL>
https://www.surechembl.org/chemical/SCHEMBL16122363

> <PUBCHEM_CID_ASSOCIATIONS>
117610555  1

> <PUBCHEM_COORDINATE_TYPE>
1
3

$$$$
