310946234
  -OEChem-07211613022D

 24 26  0     1  0  0  0  0  0999 V2000
   -1.7309   -4.5472    0.0000 O   0  0  0  0  0  0  0  0  0  0  0  0
   -1.0164   -1.6597    0.0000 O   0  0  0  0  0  0  0  0  0  0  0  0
   -2.0329   -0.9452    0.0000 O   0  0  0  0  0  0  0  0  0  0  0  0
   -0.3020   -2.0722    0.0000 O   0  0  0  0  0  0  0  0  0  0  0  0
   -1.7309   -2.8972    0.0000 C   0  0  0  0  0  0  0  0  0  0  0  0
   -2.4454   -3.3097    0.0000 C   0  0  0  0  0  0  0  0  0  0  0  0
   -1.0164   -3.3097    0.0000 C   0  0  0  0  0  0  0  0  0  0  0  0
   -2.4454   -4.1347    0.0000 C   0  0  0  0  0  0  0  0  0  0  0  0
   -1.7309   -2.0722    0.0000 C   0  0  3  0  0  0  0  0  0  0  0  0
   -1.0164   -4.1347    0.0000 C   0  0  0  0  0  0  0  0  0  0  0  0
   -2.4454   -1.6597    0.0000 C   0  0  3  0  0  0  0  0  0  0  0  0
   -0.3020   -2.8972    0.0000 C   0  0  0  0  0  0  0  0  0  0  0  0
   -3.1599   -2.8972    0.0000 C   0  0  0  0  0  0  0  0  0  0  0  0
   -3.1599   -2.0722    0.0000 C   0  0  0  0  0  0  0  0  0  0  0  0
   -0.3020   -4.5472    0.0000 C   0  0  0  0  0  0  0  0  0  0  0  0
    0.4125   -4.1347    0.0000 C   0  0  0  0  0  0  0  0  0  0  0  0
    0.4125   -3.3097    0.0000 C   0  0  0  0  0  0  0  0  0  0  0  0
   -3.2704   -4.1347    0.0000 C   0  0  0  0  0  0  0  0  0  0  0  0
   -2.8579   -4.8491    0.0000 C   0  0  0  0  0  0  0  0  0  0  0  0
   -2.8579   -0.9452    0.0000 C   0  0  0  0  0  0  0  0  0  0  0  0
    1.1270   -4.5472    0.0000 C   0  0  0  0  0  0  0  0  0  0  0  0
    1.8414   -4.1347    0.0000 C   0  0  0  0  0  0  0  0  0  0  0  0
    2.5559   -4.5472    0.0000 C   0  0  0  0  0  0  0  0  0  0  0  0
    3.2704   -4.1347    0.0000 C   0  0  0  0  0  0  0  0  0  0  0  0
  1  8  1  0  0  0  0
  1 10  1  0  0  0  0
  9  2  1  1  0  0  0
 11  3  1  1  0  0  0
  4 12  1  0  0  0  0
  5  6  2  0  0  0  0
  5  7  1  0  0  0  0
  5  9  1  0  0  0  0
  6  8  1  0  0  0  0
  6 13  1  0  0  0  0
  7 10  2  0  0  0  0
  7 12  1  0  0  0  0
  8 18  1  0  0  0  0
  8 19  1  0  0  0  0
  9 11  1  0  0  0  0
 10 15  1  0  0  0  0
 11 14  1  0  0  0  0
 11 20  1  6  0  0  0
 12 17  2  0  0  0  0
 13 14  1  0  0  0  0
 15 16  2  0  0  0  0
 16 17  1  0  0  0  0
 16 21  1  0  0  0  0
 21 22  1  0  0  0  0
 22 23  1  0  0  0  0
 23 24  1  0  0  0  0
M  END
> <PUBCHEM_COMPOUND_ID_TYPE>
0

> <PUBCHEM_TOTAL_CHARGE>
0

> <PUBCHEM_SUBSTANCE_ID>
310946234

> <PUBCHEM_SUBSTANCE_VERSION>
1

> <PUBCHEM_EXT_DATASOURCE_NAME>
4488

> <PUBCHEM_EXT_DATASOURCE_REGID>
SCHEMBL16124350

> <PUBCHEM_SUBSTANCE_COMMENT>
InChI=1S/C20H28O4/c1-5-6-7-12-10-14(21)17-15(11-12)24-19(2,3)13-8-9-20(4,23)18(22)16(13)17/h10-11,18,21-23H,5-9H2,1-4H3/t18-,20+/m0/s1
InChIKey=PXESYMJXKGDOTG-AZUAARDMSA-N

> <PUBCHEM_SUBSTANCE_SYNONYM>
SCHEMBL16124350

> <PUBCHEM_XREF_EXT_ID>
SCHEMBL16124350

> <PUBCHEM_EXT_DATASOURCE_URL>
https://www.surechembl.org/

> <PUBCHEM_EXT_SUBSTANCE_URL>
https://www.surechembl.org/chemical/SCHEMBL16124350

> <PUBCHEM_CID_ASSOCIATIONS>
117612182  1

> <PUBCHEM_COORDINATE_TYPE>
1
3

> <PUBCHEM_BONDANNOTATIONS>
11  20  6
9  2  5
11  3  5

$$$$
