310935561
  -OEChem-07211613022D

 32 34  0     0  0  0  0  0  0999 V2000
    8.2499   -1.6500    0.0000 Br  0  0  0  0  0  0  0  0  0  0  0  0
    2.0350   -1.2375    0.0000 S   0  0  0  0  0  0  0  0  0  0  0  0
    0.7975   -0.5225    0.0000 F   0  0  0  0  0  0  0  0  0  0  0  0
    0.8250   -1.9525    0.0000 F   0  0  0  0  0  0  0  0  0  0  0  0
    1.6225   -0.5225    0.0000 F   0  0  0  0  0  0  0  0  0  0  0  0
    2.8600   -1.2375    0.0000 O   0  0  0  0  0  0  0  0  0  0  0  0
    1.6225   -3.3549    0.0000 O   0  0  0  0  0  0  0  0  0  0  0  0
    2.0350   -0.4125    0.0000 O   0  0  0  0  0  0  0  0  0  0  0  0
    2.0350   -2.0625    0.0000 O   0  0  0  0  0  0  0  0  0  0  0  0
    1.6225   -1.9525    0.0000 O   0  0  0  0  0  0  0  0  0  0  0  0
    4.5099   -2.6675    0.0000 N   0  0  0  0  0  0  0  0  0  0  0  0
    5.3349   -2.4749    0.0000 N   0  0  0  0  0  0  0  0  0  0  0  0
    3.2725   -1.9525    0.0000 C   0  0  0  0  0  0  0  0  0  0  0  0
    4.0974   -1.9525    0.0000 C   0  0  0  0  0  0  0  0  0  0  0  0
    2.8600   -2.6675    0.0000 C   0  0  0  0  0  0  0  0  0  0  0  0
    3.2725   -3.3549    0.0000 C   0  0  0  0  0  0  0  0  0  0  0  0
    5.3899   -1.6500    0.0000 C   0  0  0  0  0  0  0  0  0  0  0  0
    4.6474   -1.3200    0.0000 C   0  0  0  0  0  0  0  0  0  0  0  0
    4.0974   -3.3549    0.0000 C   0  0  0  0  0  0  0  0  0  0  0  0
    2.0350   -2.6675    0.0000 C   0  0  0  0  0  0  0  0  0  0  0  0
    1.2100   -1.2375    0.0000 C   0  0  0  0  0  0  0  0  0  0  0  0
    6.1049   -1.2375    0.0000 C   0  0  0  0  0  0  0  0  0  0  0  0
    2.8600   -4.0700    0.0000 C   0  0  0  0  0  0  0  0  0  0  0  0
    6.8199   -1.6500    0.0000 C   0  0  0  0  0  0  0  0  0  0  0  0
    0.8250   -3.3549    0.0000 C   0  0  0  0  0  0  0  0  0  0  0  0
    6.1049   -0.4125    0.0000 C   0  0  0  0  0  0  0  0  0  0  0  0
    7.5349   -1.2375    0.0000 C   0  0  0  0  0  0  0  0  0  0  0  0
    6.8199    0.0000    0.0000 C   0  0  0  0  0  0  0  0  0  0  0  0
    7.5349   -0.4125    0.0000 C   0  0  0  0  0  0  0  0  0  0  0  0
    0.8250   -2.5300    0.0000 C   0  0  0  0  0  0  0  0  0  0  0  0
    0.0000   -3.3549    0.0000 C   0  0  0  0  0  0  0  0  0  0  0  0
    0.8250   -4.1799    0.0000 C   0  0  0  0  0  0  0  0  0  0  0  0
  1 27  1  0  0  0  0
  2  6  1  0  0  0  0
  2  8  2  0  0  0  0
  2  9  2  0  0  0  0
  2 21  1  0  0  0  0
  3 21  1  0  0  0  0
  4 21  1  0  0  0  0
  5 21  1  0  0  0  0
  6 13  1  0  0  0  0
  7 20  1  0  0  0  0
  7 25  1  0  0  0  0
 10 20  2  0  0  0  0
 11 12  1  0  0  0  0
 11 14  1  0  0  0  0
 11 19  1  0  0  0  0
 12 17  2  0  0  0  0
 13 14  1  0  0  0  0
 13 15  2  0  0  0  0
 14 18  2  0  0  0  0
 15 16  1  0  0  0  0
 15 20  1  0  0  0  0
 16 19  2  0  0  0  0
 16 23  1  0  0  0  0
 17 18  1  0  0  0  0
 17 22  1  0  0  0  0
 22 24  1  0  0  0  0
 22 26  2  0  0  0  0
 24 27  2  0  0  0  0
 25 30  1  0  0  0  0
 25 31  1  0  0  0  0
 25 32  1  0  0  0  0
 26 28  1  0  0  0  0
 27 29  1  0  0  0  0
 28 29  2  0  0  0  0
M  END
> <PUBCHEM_COMPOUND_ID_TYPE>
0

> <PUBCHEM_TOTAL_CHARGE>
0

> <PUBCHEM_SUBSTANCE_ID>
310935561

> <PUBCHEM_SUBSTANCE_VERSION>
1

> <PUBCHEM_EXT_DATASOURCE_NAME>
4488

> <PUBCHEM_EXT_DATASOURCE_REGID>
SCHEMBL16113132

> <PUBCHEM_SUBSTANCE_COMMENT>
InChI=1S/C20H18BrF3N2O5S/c1-11-10-26-15(9-14(25-26)12-6-5-7-13(21)8-12)17(31-32(28,29)20(22,23)24)16(11)18(27)30-19(2,3)4/h5-10H,1-4H3
InChIKey=IRFPOVLGHRSXST-UHFFFAOYSA-N

> <PUBCHEM_SUBSTANCE_SYNONYM>
SCHEMBL16113132

> <PUBCHEM_XREF_EXT_ID>
SCHEMBL16113132

> <PUBCHEM_EXT_DATASOURCE_URL>
https://www.surechembl.org/

> <PUBCHEM_EXT_SUBSTANCE_URL>
https://www.surechembl.org/chemical/SCHEMBL16113132

> <PUBCHEM_CID_ASSOCIATIONS>
117603586  1

> <PUBCHEM_COORDINATE_TYPE>
1
3

$$$$
