310935948
  -OEChem-07211613022D

 38 41  0     1  0  0  0  0  0999 V2000
   -8.4683    1.3480    0.0000 Br  0  0  0  0  0  0  0  0  0  0  0  0
   -5.7158   -3.8616    0.0000 O   0  0  0  0  0  0  0  0  0  0  0  0
   -3.5724   -3.4491    0.0000 O   0  0  0  0  0  0  0  0  0  0  0  0
   -8.5736   -3.8616    0.0000 O   0  0  0  0  0  0  0  0  0  0  0  0
   -4.2868   -4.6866    0.0000 O   0  0  0  0  0  0  0  0  0  0  0  0
   -5.0013   -0.9741    0.0000 N   0  0  0  0  0  0  0  0  0  0  0  0
   -6.4302   -2.6241    0.0000 N   0  0  0  0  0  0  0  0  0  0  0  0
   -5.1728   -0.1671    0.0000 N   0  0  0  0  0  0  0  0  0  0  0  0
   -5.7158   -2.2116    0.0000 C   0  0  0  0  0  0  0  0  0  0  0  0
   -5.7158   -1.3866    0.0000 C   0  0  0  0  0  0  0  0  0  0  0  0
   -5.0013   -2.6241    0.0000 C   0  0  0  0  0  0  0  0  0  0  0  0
   -4.2868   -2.2116    0.0000 C   0  0  0  0  0  0  0  0  0  0  0  0
   -5.0013   -3.4491    0.0000 C   0  0  3  0  0  0  0  0  0  0  0  0
   -5.9933   -0.0809    0.0000 C   0  0  0  0  0  0  0  0  0  0  0  0
   -6.3289   -0.8346    0.0000 C   0  0  0  0  0  0  0  0  0  0  0  0
   -4.2868   -1.3866    0.0000 C   0  0  0  0  0  0  0  0  0  0  0  0
   -6.4058    0.6335    0.0000 C   0  0  0  0  0  0  0  0  0  0  0  0
   -6.4302   -3.4491    0.0000 C   0  0  0  0  0  0  0  0  0  0  0  0
   -7.1447   -2.2116    0.0000 C   0  0  0  0  0  0  0  0  0  0  0  0
   -4.2868   -3.8616    0.0000 C   0  0  0  0  0  0  0  0  0  0  0  0
   -7.8592   -3.4491    0.0000 C   0  0  0  0  0  0  0  0  0  0  0  0
   -7.1447   -3.8616    0.0000 C   0  0  0  0  0  0  0  0  0  0  0  0
   -7.8592   -2.6241    0.0000 C   0  0  0  0  0  0  0  0  0  0  0  0
   -3.5724   -2.6241    0.0000 C   0  0  0  0  0  0  0  0  0  0  0  0
   -5.7158   -4.6866    0.0000 C   0  0  0  0  0  0  0  0  0  0  0  0
   -7.2308    0.6335    0.0000 C   0  0  0  0  0  0  0  0  0  0  0  0
   -5.9933    1.3480    0.0000 C   0  0  0  0  0  0  0  0  0  0  0  0
   -7.6433    1.3480    0.0000 C   0  0  0  0  0  0  0  0  0  0  0  0
   -7.8592   -4.2741    0.0000 C   0  0  0  0  0  0  0  0  0  0  0  0
   -6.4058    2.0625    0.0000 C   0  0  0  0  0  0  0  0  0  0  0  0
   -7.2308    2.0625    0.0000 C   0  0  0  0  0  0  0  0  0  0  0  0
   -5.0013   -5.0991    0.0000 C   0  0  0  0  0  0  0  0  0  0  0  0
   -5.7158   -5.5116    0.0000 C   0  0  0  0  0  0  0  0  0  0  0  0
   -6.4302   -5.0991    0.0000 C   0  0  0  0  0  0  0  0  0  0  0  0
   -9.2881   -3.4491    0.0000 C   0  0  0  0  0  0  0  0  0  0  0  0
   -2.8579   -3.8616    0.0000 C   0  0  0  0  0  0  0  0  0  0  0  0
  -10.0026   -3.8616    0.0000 C   0  0  0  0  0  0  0  0  0  0  0  0
  -10.7170   -3.4491    0.0000 C   0  0  0  0  0  0  0  0  0  0  0  0
  1 28  1  0  0  0  0
 13  2  1  1  0  0  0
  2 25  1  0  0  0  0
  3 20  1  0  0  0  0
  3 36  1  0  0  0  0
  4 21  1  0  0  0  0
  4 35  1  0  0  0  0
  5 20  2  0  0  0  0
  6  8  1  0  0  0  0
  6 10  1  0  0  0  0
  6 16  1  0  0  0  0
  7  9  1  0  0  0  0
  7 18  1  0  0  0  0
  7 19  1  0  0  0  0
  8 14  2  0  0  0  0
  9 10  1  0  0  0  0
  9 11  2  0  0  0  0
 10 15  2  0  0  0  0
 11 12  1  0  0  0  0
 11 13  1  0  0  0  0
 12 16  2  0  0  0  0
 12 24  1  0  0  0  0
 13 20  1  0  0  0  0
 14 15  1  0  0  0  0
 14 17  1  0  0  0  0
 17 26  1  0  0  0  0
 17 27  2  0  0  0  0
 18 22  1  0  0  0  0
 19 23  1  0  0  0  0
 21 22  1  0  0  0  0
 21 23  1  0  0  0  0
 21 29  1  0  0  0  0
 25 32  1  0  0  0  0
 25 33  1  0  0  0  0
 25 34  1  0  0  0  0
 26 28  2  0  0  0  0
 27 30  1  0  0  0  0
 28 31  1  0  0  0  0
 30 31  2  0  0  0  0
 35 37  1  0  0  0  0
 37 38  2  0  0  0  0
M  END
> <PUBCHEM_COMPOUND_ID_TYPE>
0

> <PUBCHEM_TOTAL_CHARGE>
0

> <PUBCHEM_SUBSTANCE_ID>
310935948

> <PUBCHEM_SUBSTANCE_VERSION>
1

> <PUBCHEM_EXT_DATASOURCE_NAME>
4488

> <PUBCHEM_EXT_DATASOURCE_REGID>
SCHEMBL16113547

> <PUBCHEM_SUBSTANCE_COMMENT>
InChI=1S/C30H38BrN3O4/c1-8-16-37-30(6)12-14-33(15-13-30)26-24-18-23(21-10-9-11-22(31)17-21)32-34(24)19-20(2)25(26)27(28(35)36-7)38-29(3,4)5/h8-11,17-19,27H,1,12-16H2,2-7H3/t27-/m0/s1
InChIKey=DVKSIYPOGQJVGS-MHZLTWQESA-N

> <PUBCHEM_SUBSTANCE_SYNONYM>
SCHEMBL16113547

> <PUBCHEM_XREF_EXT_ID>
SCHEMBL16113547

> <PUBCHEM_EXT_DATASOURCE_URL>
https://www.surechembl.org/

> <PUBCHEM_EXT_SUBSTANCE_URL>
https://www.surechembl.org/chemical/SCHEMBL16113547

> <PUBCHEM_CID_ASSOCIATIONS>
117603928  1

> <PUBCHEM_COORDINATE_TYPE>
1
3

> <PUBCHEM_BONDANNOTATIONS>
13  2  5

$$$$
