310940575
  -OEChem-07211613022D

 32 36  0     0  0  0  0  0  0999 V2000
    2.7226   -0.5473    0.0000 O   0  0  0  0  0  0  0  0  0  0  0  0
   -1.4756   -0.7135    0.0000 O   0  0  0  0  0  0  0  0  0  0  0  0
   -2.7780   -2.6533    0.0000 O   0  0  0  0  0  0  0  0  0  0  0  0
    2.7780    0.9353    0.0000 O   0  0  0  0  0  0  0  0  0  0  0  0
    2.4455    2.9997    0.0000 O   0  0  0  0  0  0  0  0  0  0  0  0
    1.5588    0.1178    0.0000 N   0  0  0  0  0  0  0  0  0  0  0  0
    1.4063   -2.3762    0.0000 N   0  0  0  0  0  0  0  0  0  0  0  0
   -2.3762   -3.3738    0.0000 N   0  0  0  0  0  0  0  0  0  0  0  0
    1.4063   -0.7413    0.0000 C   0  0  0  0  0  0  0  0  0  0  0  0
    0.6997   -1.1570    0.0000 C   0  0  0  0  0  0  0  0  0  0  0  0
    2.1407   -1.1431    0.0000 C   0  0  0  0  0  0  0  0  0  0  0  0
    0.6859   -1.9883    0.0000 C   0  0  0  0  0  0  0  0  0  0  0  0
   -0.7413   -2.0021    0.0000 C   0  0  0  0  0  0  0  0  0  0  0  0
    2.4178    0.1316    0.0000 C   0  0  0  0  0  0  0  0  0  0  0  0
   -0.7274   -1.1708    0.0000 C   0  0  0  0  0  0  0  0  0  0  0  0
   -0.0208   -0.7690    0.0000 C   0  0  0  0  0  0  0  0  0  0  0  0
   -0.0208   -2.4039    0.0000 C   0  0  0  0  0  0  0  0  0  0  0  0
   -1.4618   -2.4178    0.0000 C   0  0  0  0  0  0  0  0  0  0  0  0
    2.1269   -1.9883    0.0000 C   0  0  0  0  0  0  0  0  0  0  0  0
    0.8937    0.5473    0.0000 C   0  0  0  0  0  0  0  0  0  0  0  0
   -2.2099   -2.0714    0.0000 C   0  0  0  0  0  0  0  0  0  0  0  0
   -1.5449   -3.2491    0.0000 C   0  0  0  0  0  0  0  0  0  0  0  0
    0.9491    1.3786    0.0000 C   0  0  0  0  0  0  0  0  0  0  0  0
    1.6973    1.7250    0.0000 C   0  0  0  0  0  0  0  0  0  0  0  0
    0.2840    1.8359    0.0000 C   0  0  0  0  0  0  0  0  0  0  0  0
   -2.3762   -1.2539    0.0000 C   0  0  0  0  0  0  0  0  0  0  0  0
   -0.9214   -3.8034    0.0000 C   0  0  0  0  0  0  0  0  0  0  0  0
    1.7527    2.5563    0.0000 C   0  0  0  0  0  0  0  0  0  0  0  0
   -1.4618    0.0901    0.0000 C   0  0  0  0  0  0  0  0  0  0  0  0
    0.3533    2.6533    0.0000 C   0  0  0  0  0  0  0  0  0  0  0  0
    1.0877    2.9997    0.0000 C   0  0  0  0  0  0  0  0  0  0  0  0
    2.4594    3.8034    0.0000 C   0  0  0  0  0  0  0  0  0  0  0  0
  1 11  1  0  0  0  0
  1 14  1  0  0  0  0
  2 15  1  0  0  0  0
  2 29  1  0  0  0  0
  3  8  1  0  0  0  0
  3 21  1  0  0  0  0
  4 14  2  0  0  0  0
  5 28  1  0  0  0  0
  5 32  1  0  0  0  0
  6  9  1  0  0  0  0
  6 14  1  0  0  0  0
  6 20  1  0  0  0  0
  7 12  1  0  0  0  0
  7 19  2  0  0  0  0
  8 22  2  0  0  0  0
  9 10  1  0  0  0  0
  9 11  2  0  0  0  0
 10 12  1  0  0  0  0
 10 16  2  0  0  0  0
 11 19  1  0  0  0  0
 12 17  2  0  0  0  0
 13 15  2  0  0  0  0
 13 17  1  0  0  0  0
 13 18  1  0  0  0  0
 15 16  1  0  0  0  0
 18 21  2  0  0  0  0
 18 22  1  0  0  0  0
 20 23  1  0  0  0  0
 21 26  1  0  0  0  0
 22 27  1  0  0  0  0
 23 24  1  0  0  0  0
 23 25  2  0  0  0  0
 24 28  2  0  0  0  0
 25 30  1  0  0  0  0
 28 31  1  0  0  0  0
 30 31  2  0  0  0  0
M  END
> <PUBCHEM_COMPOUND_ID_TYPE>
0

> <PUBCHEM_TOTAL_CHARGE>
0

> <PUBCHEM_SUBSTANCE_ID>
310940575

> <PUBCHEM_SUBSTANCE_VERSION>
1

> <PUBCHEM_EXT_DATASOURCE_NAME>
4488

> <PUBCHEM_EXT_DATASOURCE_REGID>
SCHEMBL16118529

> <PUBCHEM_SUBSTANCE_COMMENT>
InChI=1S/C24H21N3O5/c1-13-22(14(2)32-26-13)18-9-19-17(10-20(18)30-4)23-21(11-25-19)31-24(28)27(23)12-15-6-5-7-16(8-15)29-3/h5-11H,12H2,1-4H3
InChIKey=OFVIYEMKMNBXEN-UHFFFAOYSA-N

> <PUBCHEM_SUBSTANCE_SYNONYM>
SCHEMBL16118529

> <PUBCHEM_XREF_EXT_ID>
SCHEMBL16118529

> <PUBCHEM_EXT_DATASOURCE_URL>
https://www.surechembl.org/

> <PUBCHEM_EXT_SUBSTANCE_URL>
https://www.surechembl.org/chemical/SCHEMBL16118529

> <PUBCHEM_CID_ASSOCIATIONS>
86302950  1

> <PUBCHEM_COORDINATE_TYPE>
1
3

$$$$
