310934766
  -OEChem-07211613022D

 25 27  0     0  0  0  0  0  0999 V2000
    4.4873   -0.7102    0.0000 S   0  0  0  0  0  0  0  0  0  0  0  0
    1.5819   -1.4204    0.0000 O   0  0  0  0  0  0  0  0  0  0  0  0
    1.5819    0.0000    0.0000 O   0  0  0  0  0  0  0  0  0  0  0  0
    2.4212   -1.4204    0.0000 N   0  0  0  0  0  0  0  0  0  0  0  0
    2.8086   -0.7102    0.0000 C   0  0  0  0  0  0  0  0  0  0  0  0
    2.0016   -0.7102    0.0000 C   0  0  0  0  0  0  0  0  0  0  0  0
    3.2606   -1.4204    0.0000 C   0  0  0  0  0  0  0  0  0  0  0  0
    3.2606    0.0000    0.0000 C   0  0  0  0  0  0  0  0  0  0  0  0
    2.8409   -2.1307    0.0000 C   0  0  0  0  0  0  0  0  0  0  0  0
    2.4212   -2.8732    0.0000 C   0  0  0  0  0  0  0  0  0  0  0  0
    4.0676   -1.4204    0.0000 C   0  0  0  0  0  0  0  0  0  0  0  0
    4.0676    0.0000    0.0000 C   0  0  0  0  0  0  0  0  0  0  0  0
    1.6141   -4.2936    0.0000 C   0  0  0  0  0  0  0  0  0  0  0  0
    1.2268   -5.0038    0.0000 C   0  0  0  0  0  0  0  0  0  0  0  0
    1.6141   -2.8732    0.0000 C   0  0  0  0  0  0  0  0  0  0  0  0
    2.8409   -3.5511    0.0000 C   0  0  0  0  0  0  0  0  0  0  0  0
    1.1944   -3.5834    0.0000 C   0  0  0  0  0  0  0  0  0  0  0  0
    2.4535   -4.2936    0.0000 C   0  0  0  0  0  0  0  0  0  0  0  0
    0.7748   -1.4204    0.0000 C   0  0  0  0  0  0  0  0  0  0  0  0
    1.6464   -5.7463    0.0000 C   0  0  0  0  0  0  0  0  0  0  0  0
    0.3874   -5.0361    0.0000 C   0  0  0  0  0  0  0  0  0  0  0  0
    1.2590   -6.4566    0.0000 C   0  0  0  0  0  0  0  0  0  0  0  0
    0.0000   -5.7463    0.0000 C   0  0  0  0  0  0  0  0  0  0  0  0
    0.4197   -6.4566    0.0000 C   0  0  0  0  0  0  0  0  0  0  0  0
    0.3551   -2.1307    0.0000 C   0  0  0  0  0  0  0  0  0  0  0  0
  1 11  1  0  0  0  0
  1 12  1  0  0  0  0
  2  6  1  0  0  0  0
  2 19  1  0  0  0  0
  3  6  2  0  0  0  0
  4  5  1  0  0  0  0
  4  9  1  0  0  0  0
  5  6  1  0  0  0  0
  5  7  1  0  0  0  0
  5  8  1  0  0  0  0
  7 11  1  0  0  0  0
  8 12  1  0  0  0  0
  9 10  1  0  0  0  0
 10 15  2  0  0  0  0
 10 16  1  0  0  0  0
 13 14  1  0  0  0  0
 13 17  2  0  0  0  0
 13 18  1  0  0  0  0
 14 20  2  0  0  0  0
 14 21  1  0  0  0  0
 15 17  1  0  0  0  0
 16 18  2  0  0  0  0
 19 25  1  0  0  0  0
 20 22  1  0  0  0  0
 21 23  2  0  0  0  0
 22 24  2  0  0  0  0
 23 24  1  0  0  0  0
M  END
> <PUBCHEM_COMPOUND_ID_TYPE>
0

> <PUBCHEM_TOTAL_CHARGE>
0

> <PUBCHEM_SUBSTANCE_ID>
310934766

> <PUBCHEM_SUBSTANCE_VERSION>
1

> <PUBCHEM_EXT_DATASOURCE_NAME>
4488

> <PUBCHEM_EXT_DATASOURCE_REGID>
SCHEMBL16112268

> <PUBCHEM_SUBSTANCE_COMMENT>
InChI=1S/C21H25NO2S/c1-2-24-20(23)21(12-14-25-15-13-21)22-16-17-8-10-19(11-9-17)18-6-4-3-5-7-18/h3-11,22H,2,12-16H2,1H3
InChIKey=MEDGKTYLHRPBGG-UHFFFAOYSA-N

> <PUBCHEM_SUBSTANCE_SYNONYM>
SCHEMBL16112268

> <PUBCHEM_XREF_EXT_ID>
SCHEMBL16112268

> <PUBCHEM_EXT_DATASOURCE_URL>
https://www.surechembl.org/

> <PUBCHEM_EXT_SUBSTANCE_URL>
https://www.surechembl.org/chemical/SCHEMBL16112268

> <PUBCHEM_CID_ASSOCIATIONS>
117602916  1

> <PUBCHEM_COORDINATE_TYPE>
1
3

$$$$
