310936581
  -OEChem-07211613022D

 62 73  0     0  0  0  0  0  0999 V2000
    0.7145   -1.6500    0.0000 N   0  0  0  0  0  0  0  0  0  0  0  0
    0.7145    4.1250    0.0000 N   0  0  0  0  0  0  0  0  0  0  0  0
    3.6425   -1.8076    0.0000 C   0  0  0  0  0  0  0  0  0  0  0  0
    2.8579   -2.0625    0.0000 C   0  0  0  0  0  0  0  0  0  0  0  0
   -2.2136    4.2826    0.0000 C   0  0  0  0  0  0  0  0  0  0  0  0
    2.8579   -2.8875    0.0000 C   0  0  0  0  0  0  0  0  0  0  0  0
    4.1274   -2.4750    0.0000 C   0  0  0  0  0  0  0  0  0  0  0  0
   -1.4290    4.5375    0.0000 C   0  0  0  0  0  0  0  0  0  0  0  0
    3.6425   -3.1424    0.0000 C   0  0  0  0  0  0  0  0  0  0  0  0
   -1.4290    5.3625    0.0000 C   0  0  0  0  0  0  0  0  0  0  0  0
   -2.6985    4.9500    0.0000 C   0  0  0  0  0  0  0  0  0  0  0  0
    0.7145    0.8250    0.0000 C   0  0  0  0  0  0  0  0  0  0  0  0
    0.7145   -0.8250    0.0000 C   0  0  0  0  0  0  0  0  0  0  0  0
   -2.2136    5.6174    0.0000 C   0  0  0  0  0  0  0  0  0  0  0  0
    1.4290   -2.0625    0.0000 C   0  0  0  0  0  0  0  0  0  0  0  0
    0.0000    0.4125    0.0000 C   0  0  0  0  0  0  0  0  0  0  0  0
    0.0000   -0.4125    0.0000 C   0  0  0  0  0  0  0  0  0  0  0  0
    1.4290    0.4125    0.0000 C   0  0  0  0  0  0  0  0  0  0  0  0
    0.7145    1.6500    0.0000 C   0  0  0  0  0  0  0  0  0  0  0  0
    2.1434   -1.6500    0.0000 C   0  0  0  0  0  0  0  0  0  0  0  0
    0.0000    4.5375    0.0000 C   0  0  0  0  0  0  0  0  0  0  0  0
    1.4290   -0.4125    0.0000 C   0  0  0  0  0  0  0  0  0  0  0  0
   -0.7145    4.1250    0.0000 C   0  0  0  0  0  0  0  0  0  0  0  0
    1.4290    2.0625    0.0000 C   0  0  0  0  0  0  0  0  0  0  0  0
    2.1434   -3.3000    0.0000 C   0  0  0  0  0  0  0  0  0  0  0  0
    0.7145    3.3000    0.0000 C   0  0  0  0  0  0  0  0  0  0  0  0
    1.4290   -2.8875    0.0000 C   0  0  0  0  0  0  0  0  0  0  0  0
   -0.7145    5.7750    0.0000 C   0  0  0  0  0  0  0  0  0  0  0  0
    0.0000   -2.0625    0.0000 C   0  0  0  0  0  0  0  0  0  0  0  0
    4.9479   -2.5612    0.0000 C   0  0  0  0  0  0  0  0  0  0  0  0
    3.9781   -3.8961    0.0000 C   0  0  0  0  0  0  0  0  0  0  0  0
   -3.5190    5.0362    0.0000 C   0  0  0  0  0  0  0  0  0  0  0  0
    1.4290    2.8875    0.0000 C   0  0  0  0  0  0  0  0  0  0  0  0
    2.1434    0.8250    0.0000 C   0  0  0  0  0  0  0  0  0  0  0  0
    0.0000    5.3625    0.0000 C   0  0  0  0  0  0  0  0  0  0  0  0
   -2.5491    6.3711    0.0000 C   0  0  0  0  0  0  0  0  0  0  0  0
    3.4710   -1.0006    0.0000 C   0  0  0  0  0  0  0  0  0  0  0  0
    4.2556   -1.2555    0.0000 C   0  0  0  0  0  0  0  0  0  0  0  0
    0.0000    2.0625    0.0000 C   0  0  0  0  0  0  0  0  0  0  0  0
    2.1434    1.6500    0.0000 C   0  0  0  0  0  0  0  0  0  0  0  0
   -0.7145    0.8250    0.0000 C   0  0  0  0  0  0  0  0  0  0  0  0
   -0.7145   -0.8250    0.0000 C   0  0  0  0  0  0  0  0  0  0  0  0
   -2.0421    3.4756    0.0000 C   0  0  0  0  0  0  0  0  0  0  0  0
   -2.8267    3.7305    0.0000 C   0  0  0  0  0  0  0  0  0  0  0  0
    0.0000    2.8875    0.0000 C   0  0  0  0  0  0  0  0  0  0  0  0
    1.4290    4.5375    0.0000 C   0  0  0  0  0  0  0  0  0  0  0  0
    5.2835   -3.3149    0.0000 C   0  0  0  0  0  0  0  0  0  0  0  0
    4.7986   -3.9823    0.0000 C   0  0  0  0  0  0  0  0  0  0  0  0
   -3.8545    5.7899    0.0000 C   0  0  0  0  0  0  0  0  0  0  0  0
   -3.3696    6.4573    0.0000 C   0  0  0  0  0  0  0  0  0  0  0  0
   -1.4290    0.4125    0.0000 C   0  0  0  0  0  0  0  0  0  0  0  0
   -1.4290   -0.4125    0.0000 C   0  0  0  0  0  0  0  0  0  0  0  0
   -0.7145   -1.6500    0.0000 C   0  0  0  0  0  0  0  0  0  0  0  0
    0.0000   -2.8875    0.0000 C   0  0  0  0  0  0  0  0  0  0  0  0
    2.1434    4.1250    0.0000 C   0  0  0  0  0  0  0  0  0  0  0  0
    1.4290    5.3625    0.0000 C   0  0  0  0  0  0  0  0  0  0  0  0
   -1.4290   -2.0625    0.0000 C   0  0  0  0  0  0  0  0  0  0  0  0
   -0.7145   -3.3000    0.0000 C   0  0  0  0  0  0  0  0  0  0  0  0
   -1.4290   -2.8875    0.0000 C   0  0  0  0  0  0  0  0  0  0  0  0
    2.8579    4.5375    0.0000 C   0  0  0  0  0  0  0  0  0  0  0  0
    2.1434    5.7750    0.0000 C   0  0  0  0  0  0  0  0  0  0  0  0
    2.8579    5.3625    0.0000 C   0  0  0  0  0  0  0  0  0  0  0  0
  1 13  1  0  0  0  0
  1 15  1  0  0  0  0
  1 29  1  0  0  0  0
  2 21  1  0  0  0  0
  2 26  1  0  0  0  0
  2 46  1  0  0  0  0
  3  4  1  0  0  0  0
  3  7  1  0  0  0  0
  3 37  1  0  0  0  0
  3 38  1  0  0  0  0
  4  6  2  0  0  0  0
  4 20  1  0  0  0  0
  5  8  1  0  0  0  0
  5 11  1  0  0  0  0
  5 43  1  0  0  0  0
  5 44  1  0  0  0  0
  6  9  1  0  0  0  0
  6 25  1  0  0  0  0
  7  9  2  0  0  0  0
  7 30  1  0  0  0  0
  8 10  2  0  0  0  0
  8 23  1  0  0  0  0
  9 31  1  0  0  0  0
 10 14  1  0  0  0  0
 10 28  1  0  0  0  0
 11 14  2  0  0  0  0
 11 32  1  0  0  0  0
 12 16  2  0  0  0  0
 12 18  1  0  0  0  0
 12 19  1  0  0  0  0
 13 17  2  0  0  0  0
 13 22  1  0  0  0  0
 14 36  1  0  0  0  0
 15 20  2  0  0  0  0
 15 27  1  0  0  0  0
 16 17  1  0  0  0  0
 16 41  1  0  0  0  0
 17 42  1  0  0  0  0
 18 22  2  0  0  0  0
 18 34  1  0  0  0  0
 19 24  2  0  0  0  0
 19 39  1  0  0  0  0
 21 23  2  0  0  0  0
 21 35  1  0  0  0  0
 24 33  1  0  0  0  0
 24 40  1  0  0  0  0
 25 27  2  0  0  0  0
 26 33  2  0  0  0  0
 26 45  1  0  0  0  0
 28 35  2  0  0  0  0
 29 53  2  0  0  0  0
 29 54  1  0  0  0  0
 30 47  2  0  0  0  0
 31 48  2  0  0  0  0
 32 49  2  0  0  0  0
 34 40  1  0  0  0  0
 36 50  2  0  0  0  0
 39 45  2  0  0  0  0
 41 51  2  0  0  0  0
 42 52  2  0  0  0  0
 46 55  2  0  0  0  0
 46 56  1  0  0  0  0
 47 48  1  0  0  0  0
 49 50  1  0  0  0  0
 51 52  1  0  0  0  0
 53 57  1  0  0  0  0
 54 58  2  0  0  0  0
 55 60  1  0  0  0  0
 56 61  2  0  0  0  0
 57 59  2  0  0  0  0
 58 59  1  0  0  0  0
 60 62  2  0  0  0  0
 61 62  1  0  0  0  0
M  END
> <PUBCHEM_COMPOUND_ID_TYPE>
0

> <PUBCHEM_TOTAL_CHARGE>
0

> <PUBCHEM_SUBSTANCE_ID>
310936581

> <PUBCHEM_SUBSTANCE_VERSION>
1

> <PUBCHEM_EXT_DATASOURCE_NAME>
4488

> <PUBCHEM_EXT_DATASOURCE_REGID>
SCHEMBL16114240

> <PUBCHEM_SUBSTANCE_COMMENT>
InChI=1S/C60H48N2/c1-59(2)53-25-15-13-21-47(53)49-33-30-44(37-55(49)59)61(41-17-7-5-8-18-41)43-29-32-46-39(35-43)27-28-40-36-57(51-23-11-12-24-52(51)58(40)46)62(42-19-9-6-10-20-42)45-31-34-50-48-22-14-16-26-54(48)60(3,4)56(50)38-45/h5-26,29-38H,27-28H2,1-4H3
InChIKey=JVULHKRLRFNUBG-UHFFFAOYSA-N

> <PUBCHEM_SUBSTANCE_SYNONYM>
SCHEMBL16114240

> <PUBCHEM_XREF_EXT_ID>
SCHEMBL16114240

> <PUBCHEM_EXT_DATASOURCE_URL>
https://www.surechembl.org/

> <PUBCHEM_EXT_SUBSTANCE_URL>
https://www.surechembl.org/chemical/SCHEMBL16114240

> <PUBCHEM_CID_ASSOCIATIONS>
117604500  1

> <PUBCHEM_COORDINATE_TYPE>
1
3

$$$$
