310944522
  -OEChem-07211613022D

 26 29  0     0  0  0  0  0  0999 V2000
    0.4782    2.9906    0.0000 F   0  0  0  0  0  0  0  0  0  0  0  0
   -0.2049   -0.8198    0.0000 N   0  0  0  0  0  0  0  0  0  0  0  0
    1.1614   -0.8046    0.0000 N   0  0  0  0  0  0  0  0  0  0  0  0
    2.6339    2.5200    0.0000 N   0  0  0  0  0  0  0  0  0  0  0  0
   -1.7230    2.5200    0.0000 N   0  0  0  0  0  0  0  0  0  0  0  0
    0.4327   -0.3036    0.0000 C   0  0  0  0  0  0  0  0  0  0  0  0
    0.0532   -1.5788    0.0000 C   0  0  0  0  0  0  0  0  0  0  0  0
    0.8729   -1.5788    0.0000 C   0  0  0  0  0  0  0  0  0  0  0  0
    0.4630    0.5313    0.0000 C   0  0  0  0  0  0  0  0  0  0  0  0
   -1.0399   -0.5465    0.0000 C   0  0  0  0  0  0  0  0  0  0  0  0
    1.1917    0.9260    0.0000 C   0  0  0  0  0  0  0  0  0  0  0  0
   -0.2656    0.9412    0.0000 C   0  0  0  0  0  0  0  0  0  0  0  0
    1.2069    1.7762    0.0000 C   0  0  0  0  0  0  0  0  0  0  0  0
   -0.2656    1.7609    0.0000 C   0  0  0  0  0  0  0  0  0  0  0  0
   -0.3567   -2.2923    0.0000 C   0  0  0  0  0  0  0  0  0  0  0  0
    0.4478    2.1708    0.0000 C   0  0  0  0  0  0  0  0  0  0  0  0
    1.2980   -2.2771    0.0000 C   0  0  0  0  0  0  0  0  0  0  0  0
   -1.2220    0.2581    0.0000 C   0  0  0  0  0  0  0  0  0  0  0  0
   -1.6623   -1.0930    0.0000 C   0  0  0  0  0  0  0  0  0  0  0  0
    0.0683   -2.9906    0.0000 C   0  0  0  0  0  0  0  0  0  0  0  0
    0.9032   -2.9906    0.0000 C   0  0  0  0  0  0  0  0  0  0  0  0
    1.9052    2.1557    0.0000 C   0  0  0  0  0  0  0  0  0  0  0  0
   -1.0095    2.1557    0.0000 C   0  0  0  0  0  0  0  0  0  0  0  0
   -1.9963    0.5010    0.0000 C   0  0  0  0  0  0  0  0  0  0  0  0
   -2.4517   -0.8501    0.0000 C   0  0  0  0  0  0  0  0  0  0  0  0
   -2.6339   -0.0455    0.0000 C   0  0  0  0  0  0  0  0  0  0  0  0
  1 16  1  0  0  0  0
  2  6  1  0  0  0  0
  2  7  1  0  0  0  0
  2 10  1  0  0  0  0
  3  6  2  0  0  0  0
  3  8  1  0  0  0  0
  4 22  3  0  0  0  0
  5 23  3  0  0  0  0
  6  9  1  0  0  0  0
  7  8  2  0  0  0  0
  7 15  1  0  0  0  0
  8 17  1  0  0  0  0
  9 11  2  0  0  0  0
  9 12  1  0  0  0  0
 10 18  2  0  0  0  0
 10 19  1  0  0  0  0
 11 13  1  0  0  0  0
 12 14  2  0  0  0  0
 13 16  2  0  0  0  0
 13 22  1  0  0  0  0
 14 16  1  0  0  0  0
 14 23  1  0  0  0  0
 15 20  2  0  0  0  0
 17 21  2  0  0  0  0
 18 24  1  0  0  0  0
 19 25  2  0  0  0  0
 20 21  1  0  0  0  0
 24 26  2  0  0  0  0
 25 26  1  0  0  0  0
M  END
> <PUBCHEM_COMPOUND_ID_TYPE>
0

> <PUBCHEM_TOTAL_CHARGE>
0

> <PUBCHEM_SUBSTANCE_ID>
310944522

> <PUBCHEM_SUBSTANCE_VERSION>
1

> <PUBCHEM_EXT_DATASOURCE_NAME>
4488

> <PUBCHEM_EXT_DATASOURCE_REGID>
SCHEMBL16122597

> <PUBCHEM_SUBSTANCE_COMMENT>
InChI=1S/C21H11FN4/c22-20-15(12-23)10-14(11-16(20)13-24)21-25-18-8-4-5-9-19(18)26(21)17-6-2-1-3-7-17/h1-11H
InChIKey=RDHDHOWVTNZCHN-UHFFFAOYSA-N

> <PUBCHEM_SUBSTANCE_SYNONYM>
SCHEMBL16122597

> <PUBCHEM_XREF_EXT_ID>
SCHEMBL16122597

> <PUBCHEM_EXT_DATASOURCE_URL>
https://www.surechembl.org/

> <PUBCHEM_EXT_SUBSTANCE_URL>
https://www.surechembl.org/chemical/SCHEMBL16122597

> <PUBCHEM_CID_ASSOCIATIONS>
117610757  1

> <PUBCHEM_COORDINATE_TYPE>
1
3

$$$$
