310941994
  -OEChem-07211613022D

 24 26  0     0  0  0  0  0  0999 V2000
   -1.9850   -3.2835    0.0000 F   0  0  0  0  0  0  0  0  0  0  0  0
   -0.4547    2.0418    0.0000 O   0  0  0  0  0  0  0  0  0  0  0  0
    2.5883    1.3947    0.0000 O   0  0  0  0  0  0  0  0  0  0  0  0
   -0.5509   -0.8089    0.0000 N   0  0  0  0  0  0  0  0  0  0  0  0
   -1.9325    2.4965    0.0000 N   0  0  0  0  0  0  0  0  0  0  0  0
   -0.9793    0.4678    0.0000 C   0  0  0  0  0  0  0  0  0  0  0  0
   -0.1312    0.4591    0.0000 C   0  0  0  0  0  0  0  0  0  0  0  0
   -1.2329   -0.3191    0.0000 C   0  0  0  0  0  0  0  0  0  0  0  0
    0.1224   -0.3104    0.0000 C   0  0  0  0  0  0  0  0  0  0  0  0
   -1.5302    1.0799    0.0000 C   0  0  0  0  0  0  0  0  0  0  0  0
    0.4198    1.0799    0.0000 C   0  0  0  0  0  0  0  0  0  0  0  0
   -2.0374   -0.4940    0.0000 C   0  0  0  0  0  0  0  0  0  0  0  0
    0.9269   -0.4853    0.0000 C   0  0  0  0  0  0  0  0  0  0  0  0
    1.2242    0.9225    0.0000 C   0  0  0  0  0  0  0  0  0  0  0  0
   -1.2766    1.8669    0.0000 C   0  0  0  0  0  0  0  0  0  0  0  0
   -2.3260    0.9051    0.0000 C   0  0  0  0  0  0  0  0  0  0  0  0
   -0.5509   -1.6396    0.0000 C   0  0  0  0  0  0  0  0  0  0  0  0
    1.4865    0.1181    0.0000 C   0  0  0  0  0  0  0  0  0  0  0  0
   -2.5883    0.1181    0.0000 C   0  0  0  0  0  0  0  0  0  0  0  0
    1.7576    1.5609    0.0000 C   0  0  0  0  0  0  0  0  0  0  0  0
   -1.2592   -2.0418    0.0000 C   0  0  0  0  0  0  0  0  0  0  0  0
    1.4953    2.3303    0.0000 C   0  0  0  0  0  0  0  0  0  0  0  0
   -1.2679   -2.8725    0.0000 C   0  0  0  0  0  0  0  0  0  0  0  0
   -1.5565    3.2835    0.0000 C   0  0  0  0  0  0  0  0  0  0  0  0
  1 23  1  0  0  0  0
  2 15  2  0  0  0  0
  3 20  2  0  0  0  0
  4  8  1  0  0  0  0
  4  9  1  0  0  0  0
  4 17  1  0  0  0  0
  5 15  1  0  0  0  0
  5 24  1  0  0  0  0
  6  7  1  0  0  0  0
  6  8  1  0  0  0  0
  6 10  2  0  0  0  0
  7  9  2  0  0  0  0
  7 11  1  0  0  0  0
  8 12  2  0  0  0  0
  9 13  1  0  0  0  0
 10 15  1  0  0  0  0
 10 16  1  0  0  0  0
 11 14  2  0  0  0  0
 12 19  1  0  0  0  0
 13 18  2  0  0  0  0
 14 18  1  0  0  0  0
 14 20  1  0  0  0  0
 16 19  2  0  0  0  0
 17 21  1  0  0  0  0
 20 22  1  0  0  0  0
 21 23  1  0  0  0  0
M  END
> <PUBCHEM_COMPOUND_ID_TYPE>
0

> <PUBCHEM_TOTAL_CHARGE>
0

> <PUBCHEM_SUBSTANCE_ID>
310941994

> <PUBCHEM_SUBSTANCE_VERSION>
1

> <PUBCHEM_EXT_DATASOURCE_NAME>
4488

> <PUBCHEM_EXT_DATASOURCE_REGID>
SCHEMBL16120028

> <PUBCHEM_SUBSTANCE_COMMENT>
InChI=1S/C19H19FN2O2/c1-12(23)13-7-8-16-15(11-13)18-14(19(24)21-2)5-3-6-17(18)22(16)10-4-9-20/h3,5-8,11H,4,9-10H2,1-2H3,(H,21,24)
InChIKey=PVRVPXOSWNRBRM-UHFFFAOYSA-N

> <PUBCHEM_SUBSTANCE_SYNONYM>
SCHEMBL16120028

> <PUBCHEM_XREF_EXT_ID>
SCHEMBL16120028

> <PUBCHEM_EXT_DATASOURCE_URL>
https://www.surechembl.org/

> <PUBCHEM_EXT_SUBSTANCE_URL>
https://www.surechembl.org/chemical/SCHEMBL16120028

> <PUBCHEM_CID_ASSOCIATIONS>
86271526  1

> <PUBCHEM_COORDINATE_TYPE>
1
3

$$$$
