310947822
  -OEChem-07211613022D

 23 24  0     1  0  0  0  0  0999 V2000
   -0.9395   -1.0522    0.0000 O   0  0  0  0  0  0  0  0  0  0  0  0
   -0.7266   -2.8811    0.0000 O   0  0  0  0  0  0  0  0  0  0  0  0
    0.7641   -0.3132    0.0000 O   0  0  0  0  0  0  0  0  0  0  0  0
    0.1378    1.6034    0.0000 O   0  0  0  0  0  0  0  0  0  0  0  0
   -0.1002    0.1628    0.0000 O   0  0  0  0  0  0  0  0  0  0  0  0
   -1.2401    0.9520    0.0000 N   0  0  0  0  0  0  0  0  0  0  0  0
    0.7015   -2.4552    0.0000 C   0  0  0  0  0  0  0  0  0  0  0  0
    1.1024   -1.7412    0.0000 C   0  0  0  0  0  0  0  0  0  0  0  0
   -0.2004   -1.4656    0.0000 C   0  0  0  0  0  0  0  0  0  0  0  0
   -0.1002   -2.2673    0.0000 C   0  0  0  0  0  0  0  0  0  0  0  0
    0.5511   -1.1399    0.0000 C   0  0  0  0  0  0  0  0  0  0  0  0
    1.1149   -3.1817    0.0000 C   0  0  0  0  0  0  0  0  0  0  0  0
    1.9541   -1.7537    0.0000 C   0  0  0  0  0  0  0  0  0  0  0  0
    2.3675   -2.4678    0.0000 C   0  0  0  0  0  0  0  0  0  0  0  0
    1.9541   -3.1817    0.0000 C   0  0  0  0  0  0  0  0  0  0  0  0
   -0.9270   -0.2129    0.0000 C   0  0  0  0  0  0  0  0  0  0  0  0
   -1.6660    0.2129    0.0000 C   0  0  3  0  0  0  0  0  0  0  0  0
   -0.4134    0.9270    0.0000 C   0  0  0  0  0  0  0  0  0  0  0  0
   -0.1628    2.4176    0.0000 C   0  0  0  0  0  0  0  0  0  0  0  0
   -2.3675   -0.2129    0.0000 C   0  0  0  0  0  0  0  0  0  0  0  0
    0.5261    2.7308    0.0000 C   0  0  0  0  0  0  0  0  0  0  0  0
   -0.8894    2.1045    0.0000 C   0  0  0  0  0  0  0  0  0  0  0  0
   -0.5010    3.1817    0.0000 C   0  0  0  0  0  0  0  0  0  0  0  0
  1  9  1  0  0  0  0
  1 16  1  0  0  0  0
  2 10  2  0  0  0  0
  3 11  2  0  0  0  0
  4 18  1  0  0  0  0
  4 19  1  0  0  0  0
  5 18  2  0  0  0  0
  6 17  1  0  0  0  0
  6 18  1  0  0  0  0
  7  8  2  0  0  0  0
  7 10  1  0  0  0  0
  7 12  1  0  0  0  0
  8 11  1  0  0  0  0
  8 13  1  0  0  0  0
  9 10  1  0  0  0  0
  9 11  1  0  0  0  0
 12 15  2  0  0  0  0
 13 14  2  0  0  0  0
 14 15  1  0  0  0  0
 16 17  1  0  0  0  0
 17 20  1  6  0  0  0
 19 21  1  0  0  0  0
 19 22  1  0  0  0  0
 19 23  1  0  0  0  0
M  END
> <PUBCHEM_COMPOUND_ID_TYPE>
0

> <PUBCHEM_TOTAL_CHARGE>
0

> <PUBCHEM_SUBSTANCE_ID>
310947822

> <PUBCHEM_SUBSTANCE_VERSION>
1

> <PUBCHEM_EXT_DATASOURCE_NAME>
4488

> <PUBCHEM_EXT_DATASOURCE_REGID>
SCHEMBL16125994

> <PUBCHEM_SUBSTANCE_COMMENT>
InChI=1S/C17H21NO5/c1-10(18-16(21)23-17(2,3)4)9-22-15-13(19)11-7-5-6-8-12(11)14(15)20/h5-8,10,15H,9H2,1-4H3,(H,18,21)/t10-/m0/s1
InChIKey=YSMXYQQIBFVUAY-JTQLQIEISA-N

> <PUBCHEM_SUBSTANCE_SYNONYM>
SCHEMBL16125994

> <PUBCHEM_XREF_EXT_ID>
SCHEMBL16125994

> <PUBCHEM_EXT_DATASOURCE_URL>
https://www.surechembl.org/

> <PUBCHEM_EXT_SUBSTANCE_URL>
https://www.surechembl.org/chemical/SCHEMBL16125994

> <PUBCHEM_CID_ASSOCIATIONS>
117613490  1

> <PUBCHEM_COORDINATE_TYPE>
1
3

> <PUBCHEM_BONDANNOTATIONS>
17  20  6

$$$$
