310934134
  -OEChem-07211613022D

 34 38  0     0  0  0  0  0  0999 V2000
    4.0774   -6.8730    0.0000 O   0  0  0  0  0  0  0  0  0  0  0  0
    4.7918   -8.1105    0.0000 O   0  0  0  0  0  0  0  0  0  0  0  0
    1.9339   -0.6855    0.0000 N   0  0  0  0  0  0  0  0  0  0  0  0
    3.3629   -9.7605    0.0000 N   0  0  0  0  0  0  0  0  0  0  0  0
    2.6014   -0.2006    0.0000 C   0  0  0  0  0  0  0  0  0  0  0  0
    1.2665   -0.2006    0.0000 C   0  0  0  0  0  0  0  0  0  0  0  0
    2.3464    0.5840    0.0000 C   0  0  0  0  0  0  0  0  0  0  0  0
    1.5214    0.5840    0.0000 C   0  0  0  0  0  0  0  0  0  0  0  0
    1.9339   -1.5105    0.0000 C   0  0  0  0  0  0  0  0  0  0  0  0
    3.4084   -0.3721    0.0000 C   0  0  0  0  0  0  0  0  0  0  0  0
    0.4595   -0.3721    0.0000 C   0  0  0  0  0  0  0  0  0  0  0  0
    2.8985    1.1971    0.0000 C   0  0  0  0  0  0  0  0  0  0  0  0
    0.9694    1.1971    0.0000 C   0  0  0  0  0  0  0  0  0  0  0  0
    1.2195   -1.9230    0.0000 C   0  0  0  0  0  0  0  0  0  0  0  0
    2.6484   -1.9230    0.0000 C   0  0  0  0  0  0  0  0  0  0  0  0
    3.9604    0.2410    0.0000 C   0  0  0  0  0  0  0  0  0  0  0  0
   -0.0925    0.2410    0.0000 C   0  0  0  0  0  0  0  0  0  0  0  0
    3.7054    1.0256    0.0000 C   0  0  0  0  0  0  0  0  0  0  0  0
    0.1624    1.0256    0.0000 C   0  0  0  0  0  0  0  0  0  0  0  0
    1.9339   -3.1605    0.0000 C   0  0  0  0  0  0  0  0  0  0  0  0
    1.2195   -2.7480    0.0000 C   0  0  0  0  0  0  0  0  0  0  0  0
    2.6484   -2.7480    0.0000 C   0  0  0  0  0  0  0  0  0  0  0  0
    1.9339   -3.9855    0.0000 C   0  0  0  0  0  0  0  0  0  0  0  0
    2.6484   -4.3980    0.0000 C   0  0  0  0  0  0  0  0  0  0  0  0
    2.6484   -5.2230    0.0000 C   0  0  0  0  0  0  0  0  0  0  0  0
    2.6484   -6.8730    0.0000 C   0  0  0  0  0  0  0  0  0  0  0  0
    1.9339   -5.6355    0.0000 C   0  0  0  0  0  0  0  0  0  0  0  0
    3.3629   -5.6355    0.0000 C   0  0  0  0  0  0  0  0  0  0  0  0
    1.9339   -6.4605    0.0000 C   0  0  0  0  0  0  0  0  0  0  0  0
    3.3629   -6.4605    0.0000 C   0  0  0  0  0  0  0  0  0  0  0  0
    2.6484   -7.6980    0.0000 C   0  0  0  0  0  0  0  0  0  0  0  0
    3.3629   -8.1105    0.0000 C   0  0  0  0  0  0  0  0  0  0  0  0
    4.0774   -7.6980    0.0000 C   0  0  0  0  0  0  0  0  0  0  0  0
    3.3629   -8.9355    0.0000 C   0  0  0  0  0  0  0  0  0  0  0  0
  1 33  2  0  0  0  0
  2 33  1  0  0  0  0
  3  5  1  0  0  0  0
  3  6  1  0  0  0  0
  3  9  1  0  0  0  0
  4 34  3  0  0  0  0
  5  7  1  0  0  0  0
  5 10  2  0  0  0  0
  6  8  2  0  0  0  0
  6 11  1  0  0  0  0
  7  8  1  0  0  0  0
  7 12  2  0  0  0  0
  8 13  1  0  0  0  0
  9 14  2  0  0  0  0
  9 15  1  0  0  0  0
 10 16  1  0  0  0  0
 11 17  2  0  0  0  0
 12 18  1  0  0  0  0
 13 19  2  0  0  0  0
 14 21  1  0  0  0  0
 15 22  2  0  0  0  0
 16 18  2  0  0  0  0
 17 19  1  0  0  0  0
 20 21  2  0  0  0  0
 20 22  1  0  0  0  0
 20 23  1  0  0  0  0
 23 24  2  0  0  0  0
 24 25  1  0  0  0  0
 25 27  2  0  0  0  0
 25 28  1  0  0  0  0
 26 29  2  0  0  0  0
 26 30  1  0  0  0  0
 26 31  1  0  0  0  0
 27 29  1  0  0  0  0
 28 30  2  0  0  0  0
 31 32  2  0  0  0  0
 32 33  1  0  0  0  0
 32 34  1  0  0  0  0
M  END
> <PUBCHEM_COMPOUND_ID_TYPE>
0

> <PUBCHEM_TOTAL_CHARGE>
0

> <PUBCHEM_SUBSTANCE_ID>
310934134

> <PUBCHEM_SUBSTANCE_VERSION>
1

> <PUBCHEM_EXT_DATASOURCE_NAME>
4488

> <PUBCHEM_EXT_DATASOURCE_REGID>
SCHEMBL16111582

> <PUBCHEM_SUBSTANCE_COMMENT>
InChI=1S/C30H20N2O2/c31-20-24(30(33)34)19-23-13-11-21(12-14-23)9-10-22-15-17-25(18-16-22)32-28-7-3-1-5-26(28)27-6-2-4-8-29(27)32/h1-19H,(H,33,34)/b10-9+,24-19-
InChIKey=GXHDUIZUPGUGMG-XSAHFZMUSA-N

> <PUBCHEM_SUBSTANCE_SYNONYM>
SCHEMBL16111582

> <PUBCHEM_XREF_EXT_ID>
SCHEMBL16111582

> <PUBCHEM_EXT_DATASOURCE_URL>
https://www.surechembl.org/

> <PUBCHEM_EXT_SUBSTANCE_URL>
https://www.surechembl.org/chemical/SCHEMBL16111582

> <PUBCHEM_CID_ASSOCIATIONS>
117602411  1

> <PUBCHEM_COORDINATE_TYPE>
1
3

> <PUBCHEM_BONDANNOTATIONS>
24  25  3
31  26  3

$$$$
