310938536
  -OEChem-07211613022D

 39 42  0     1  0  0  0  0  0999 V2000
   -5.6913   -0.1214    0.0000 Cl  0  0  0  0  0  0  0  0  0  0  0  0
    1.4534   -0.1214    0.0000 O   0  0  0  0  0  0  0  0  0  0  0  0
    4.5949    0.5179    0.0000 O   0  0  0  0  0  0  0  0  0  0  0  0
    2.8823   -1.7714    0.0000 O   0  0  0  0  0  0  0  0  0  0  0  0
    1.0114    1.5860    0.0000 O   0  0  0  0  0  0  0  0  0  0  0  0
    0.0009    2.5964    0.0000 O   0  0  0  0  0  0  0  0  0  0  0  0
    3.5968   -0.5339    0.0000 N   0  0  0  0  0  0  0  0  0  0  0  0
    4.8663   -0.9464    0.0000 N   0  0  0  0  0  0  0  0  0  0  0  0
   -2.1190   -1.3589    0.0000 N   0  0  3  0  0  0  0  0  0  0  0  0
    4.3814   -0.2790    0.0000 C   0  0  0  0  0  0  0  0  0  0  0  0
    3.5968   -1.3589    0.0000 C   0  0  0  0  0  0  0  0  0  0  0  0
    4.3814   -1.6139    0.0000 C   0  0  0  0  0  0  0  0  0  0  0  0
   -2.8334   -1.7714    0.0000 C   0  0  3  0  0  0  0  0  0  0  0  0
   -0.6900   -1.3589    0.0000 C   0  0  0  0  0  0  0  0  0  0  0  0
    0.7389   -0.5339    0.0000 C   0  0  0  0  0  0  0  0  0  0  0  0
    2.8823   -0.1214    0.0000 C   0  0  0  0  0  0  0  0  0  0  0  0
   -1.4045   -1.7714    0.0000 C   0  0  0  0  0  0  0  0  0  0  0  0
   -3.5479   -1.3589    0.0000 C   0  0  0  0  0  0  0  0  0  0  0  0
    0.7389   -1.3589    0.0000 C   0  0  0  0  0  0  0  0  0  0  0  0
   -2.1190   -0.5339    0.0000 C   0  0  0  0  0  0  0  0  0  0  0  0
    0.0244   -1.7714    0.0000 C   0  0  0  0  0  0  0  0  0  0  0  0
   -1.5356    0.0494    0.0000 C   0  0  0  0  0  0  0  0  0  0  0  0
   -0.6900   -0.5339    0.0000 C   0  0  0  0  0  0  0  0  0  0  0  0
    0.0244   -0.1214    0.0000 C   0  0  0  0  0  0  0  0  0  0  0  0
    2.1678   -0.5339    0.0000 C   0  0  0  0  0  0  0  0  0  0  0  0
   -3.5479   -0.5339    0.0000 C   0  0  0  0  0  0  0  0  0  0  0  0
   -4.2624   -1.7714    0.0000 C   0  0  0  0  0  0  0  0  0  0  0  0
    5.6913   -0.9464    0.0000 C   0  0  0  0  0  0  0  0  0  0  0  0
   -0.7387   -0.1641    0.0000 C   0  0  0  0  0  0  0  0  0  0  0  0
   -1.7491    0.8463    0.0000 C   0  0  0  0  0  0  0  0  0  0  0  0
   -0.3689    1.2162    0.0000 C   0  0  0  0  0  0  0  0  0  0  0  0
   -2.8334   -2.5964    0.0000 C   0  0  0  0  0  0  0  0  0  0  0  0
   -4.9769   -0.5339    0.0000 C   0  0  0  0  0  0  0  0  0  0  0  0
   -4.2624   -0.1214    0.0000 C   0  0  0  0  0  0  0  0  0  0  0  0
   -4.9769   -1.3589    0.0000 C   0  0  0  0  0  0  0  0  0  0  0  0
   -0.1554    0.4193    0.0000 C   0  0  0  0  0  0  0  0  0  0  0  0
   -1.1658    1.4297    0.0000 C   0  0  0  0  0  0  0  0  0  0  0  0
    1.4534   -1.7714    0.0000 C   0  0  0  0  0  0  0  0  0  0  0  0
    0.2145    1.7995    0.0000 C   0  0  0  0  0  0  0  0  0  0  0  0
  1 33  1  0  0  0  0
  2 15  1  0  0  0  0
  2 25  1  0  0  0  0
  3 10  2  0  0  0  0
  4 11  2  0  0  0  0
  5 39  2  0  0  0  0
  6 39  1  0  0  0  0
  7 10  1  0  0  0  0
  7 11  1  0  0  0  0
  7 16  1  0  0  0  0
  8 10  1  0  0  0  0
  8 12  1  0  0  0  0
  8 28  1  0  0  0  0
  9 13  1  0  0  0  0
  9 17  1  0  0  0  0
  9 20  1  0  0  0  0
 11 12  1  0  0  0  0
 13 18  1  0  0  0  0
 13 32  1  0  0  0  0
 14 17  1  0  0  0  0
 14 21  2  0  0  0  0
 14 23  1  0  0  0  0
 15 19  2  0  0  0  0
 15 24  1  0  0  0  0
 16 25  1  0  0  0  0
 18 26  2  0  0  0  0
 18 27  1  0  0  0  0
 19 21  1  0  0  0  0
 19 38  1  0  0  0  0
 22 20  1  1  0  0  0
 22 29  1  0  0  0  0
 22 30  1  0  0  0  0
 23 24  2  0  0  0  0
 26 34  1  0  0  0  0
 27 35  2  0  0  0  0
 29 36  1  0  0  0  0
 30 37  1  0  0  0  0
 31 36  1  0  0  0  0
 31 37  1  0  0  0  0
 31 39  1  6  0  0  0
 33 34  2  0  0  0  0
 33 35  1  0  0  0  0
M  END
> <PUBCHEM_COMPOUND_ID_TYPE>
0

> <PUBCHEM_TOTAL_CHARGE>
0

> <PUBCHEM_SUBSTANCE_ID>
310938536

> <PUBCHEM_SUBSTANCE_VERSION>
1

> <PUBCHEM_EXT_DATASOURCE_NAME>
4488

> <PUBCHEM_EXT_DATASOURCE_REGID>
SCHEMBL16116450

> <PUBCHEM_SUBSTANCE_COMMENT>
InChI=1S/C30H38ClN3O5/c1-20-16-23(6-13-27(20)39-15-14-34-28(35)19-32(3)30(34)38)18-33(21(2)24-9-11-26(31)12-10-24)17-22-4-7-25(8-5-22)29(36)37/h6,9-13,16,21-22,25H,4-5,7-8,14-15,17-19H2,1-3H3,(H,36,37)/t21?,22-,25-
InChIKey=WJXGGQVZGZULAQ-BZXXKFBFSA-N

> <PUBCHEM_SUBSTANCE_SYNONYM>
SCHEMBL16116450

> <PUBCHEM_XREF_EXT_ID>
SCHEMBL16116450

> <PUBCHEM_EXT_DATASOURCE_URL>
https://www.surechembl.org/

> <PUBCHEM_EXT_SUBSTANCE_URL>
https://www.surechembl.org/chemical/SCHEMBL16116450

> <PUBCHEM_CID_ASSOCIATIONS>
78122047  1

> <PUBCHEM_COORDINATE_TYPE>
1
3

> <PUBCHEM_BONDANNOTATIONS>
22  20  5
31  39  6

$$$$
