310943948
  -OEChem-07211613022D

 40 43  0     1  0  0  0  0  0999 V2000
    3.6173   -2.3084    0.0000 F   0  0  0  0  0  0  0  0  0  0  0  0
   -0.0159    3.9426    0.0000 F   0  0  0  0  0  0  0  0  0  0  0  0
   -3.6014   -2.3084    0.0000 F   0  0  0  0  0  0  0  0  0  0  0  0
    0.6981    0.1983    0.0000 N   0  0  0  0  0  0  0  0  0  0  0  0
   -0.0159   -1.0550    0.0000 N   0  0  0  0  0  0  0  0  0  0  0  0
   -0.7298    0.1983    0.0000 N   0  0  0  0  0  0  0  0  0  0  0  0
    2.1260   -3.9426    0.0000 N   0  0  0  0  0  0  0  0  0  0  0  0
    4.3313   -0.2777    0.0000 N   0  0  0  0  0  0  0  0  0  0  0  0
    2.1418    3.4824    0.0000 N   0  0  0  0  0  0  0  0  0  0  0  0
   -2.1736   -3.9267    0.0000 N   0  0  0  0  0  0  0  0  0  0  0  0
   -2.1577    3.4824    0.0000 N   0  0  0  0  0  0  0  0  0  0  0  0
   -4.3313   -0.3094    0.0000 N   0  0  0  0  0  0  0  0  0  0  0  0
    1.4437   -1.0392    0.0000 C   0  0  3  0  0  0  0  0  0  0  0  0
    0.6822   -0.6108    0.0000 C   0  0  0  0  0  0  0  0  0  0  0  0
   -0.0476    0.6584    0.0000 C   0  0  0  0  0  0  0  0  0  0  0  0
   -0.7457   -0.6108    0.0000 C   0  0  0  0  0  0  0  0  0  0  0  0
    1.4278   -1.8324    0.0000 C   0  0  0  0  0  0  0  0  0  0  0  0
    2.1418   -0.6426    0.0000 C   0  0  0  0  0  0  0  0  0  0  0  0
   -0.0318    1.4834    0.0000 C   0  0  0  0  0  0  0  0  0  0  0  0
   -1.4596   -1.0233    0.0000 C   0  0  0  0  0  0  0  0  0  0  0  0
    2.1418   -2.2767    0.0000 C   0  0  0  0  0  0  0  0  0  0  0  0
    2.8717   -1.0392    0.0000 C   0  0  0  0  0  0  0  0  0  0  0  0
    2.8558   -1.8642    0.0000 C   0  0  0  0  0  0  0  0  0  0  0  0
    1.6024   -1.4676    0.0000 C   0  0  0  0  0  0  0  0  0  0  0  0
    0.6822    1.8800    0.0000 C   0  0  0  0  0  0  0  0  0  0  0  0
   -1.4755   -1.8642    0.0000 C   0  0  0  0  0  0  0  0  0  0  0  0
   -0.7298    1.8800    0.0000 C   0  0  0  0  0  0  0  0  0  0  0  0
   -2.1736   -0.6267    0.0000 C   0  0  0  0  0  0  0  0  0  0  0  0
    0.6822    2.7050    0.0000 C   0  0  0  0  0  0  0  0  0  0  0  0
   -2.1577   -2.2608    0.0000 C   0  0  0  0  0  0  0  0  0  0  0  0
   -0.7457    2.7209    0.0000 C   0  0  0  0  0  0  0  0  0  0  0  0
   -2.8875   -1.0233    0.0000 C   0  0  0  0  0  0  0  0  0  0  0  0
   -0.0476    3.1334    0.0000 C   0  0  0  0  0  0  0  0  0  0  0  0
   -2.9192   -1.8642    0.0000 C   0  0  0  0  0  0  0  0  0  0  0  0
    2.1260   -3.1334    0.0000 C   0  0  0  0  0  0  0  0  0  0  0  0
    3.6173   -0.6426    0.0000 C   0  0  0  0  0  0  0  0  0  0  0  0
    1.4278    3.1176    0.0000 C   0  0  0  0  0  0  0  0  0  0  0  0
   -2.1736   -3.1176    0.0000 C   0  0  0  0  0  0  0  0  0  0  0  0
   -1.4596    3.1176    0.0000 C   0  0  0  0  0  0  0  0  0  0  0  0
   -3.6173   -0.6426    0.0000 C   0  0  0  0  0  0  0  0  0  0  0  0
  1 23  1  0  0  0  0
  2 33  1  0  0  0  0
  3 34  1  0  0  0  0
  4 14  2  0  0  0  0
  4 15  1  0  0  0  0
  5 14  1  0  0  0  0
  5 16  2  0  0  0  0
  6 15  2  0  0  0  0
  6 16  1  0  0  0  0
  7 35  3  0  0  0  0
  8 36  3  0  0  0  0
  9 37  3  0  0  0  0
 10 38  3  0  0  0  0
 11 39  3  0  0  0  0
 12 40  3  0  0  0  0
 13 14  1  0  0  0  0
 13 17  1  0  0  0  0
 13 18  1  0  0  0  0
 13 24  1  1  0  0  0
 15 19  1  0  0  0  0
 16 20  1  0  0  0  0
 17 21  1  0  0  0  0
 18 22  2  0  0  0  0
 19 25  2  0  0  0  0
 19 27  1  0  0  0  0
 20 26  2  0  0  0  0
 20 28  1  0  0  0  0
 21 23  2  0  0  0  0
 21 35  1  0  0  0  0
 22 23  1  0  0  0  0
 22 36  1  0  0  0  0
 25 29  1  0  0  0  0
 26 30  1  0  0  0  0
 27 31  2  0  0  0  0
 28 32  2  0  0  0  0
 29 33  2  0  0  0  0
 29 37  1  0  0  0  0
 30 34  2  0  0  0  0
 30 38  1  0  0  0  0
 31 33  1  0  0  0  0
 31 39  1  0  0  0  0
 32 34  1  0  0  0  0
 32 40  1  0  0  0  0
M  END
> <PUBCHEM_COMPOUND_ID_TYPE>
0

> <PUBCHEM_TOTAL_CHARGE>
0

> <PUBCHEM_SUBSTANCE_ID>
310943948

> <PUBCHEM_SUBSTANCE_VERSION>
1

> <PUBCHEM_EXT_DATASOURCE_NAME>
4488

> <PUBCHEM_EXT_DATASOURCE_REGID>
SCHEMBL16122019

> <PUBCHEM_SUBSTANCE_COMMENT>
InChI=1S/C28H10F3N9/c1-28(6-20(12-36)24(31)21(7-28)13-37)27-39-25(14-2-16(8-32)22(29)17(3-14)9-33)38-26(40-27)15-4-18(10-34)23(30)19(5-15)11-35/h2-6H,7H2,1H3/t28-/m1/s1
InChIKey=YHROALOSXPGTNH-MUUNZHRXSA-N

> <PUBCHEM_SUBSTANCE_SYNONYM>
SCHEMBL16122019

> <PUBCHEM_XREF_EXT_ID>
SCHEMBL16122019

> <PUBCHEM_EXT_DATASOURCE_URL>
https://www.surechembl.org/

> <PUBCHEM_EXT_SUBSTANCE_URL>
https://www.surechembl.org/chemical/SCHEMBL16122019

> <PUBCHEM_CID_ASSOCIATIONS>
117610256  1

> <PUBCHEM_COORDINATE_TYPE>
1
3

> <PUBCHEM_BONDANNOTATIONS>
13  24  5

$$$$
