310945569
  -OEChem-07211613022D

 19 20  0     0  0  0  0  0  0999 V2000
   -0.0123   -0.1662    0.0000 O   0  0  0  0  0  0  0  0  0  0  0  0
   -3.1022   -0.1662    0.0000 O   0  0  0  0  0  0  0  0  0  0  0  0
   -2.3882   -1.3972    0.0000 O   0  0  0  0  0  0  0  0  0  0  0  0
    3.0899   -0.1662    0.0000 O   0  0  0  0  0  0  0  0  0  0  0  0
    2.3759   -1.3972    0.0000 O   0  0  0  0  0  0  0  0  0  0  0  0
   -1.6495   -0.1416    0.0000 C   0  0  0  0  0  0  0  0  0  0  0  0
    1.6865   -0.1416    0.0000 C   0  0  0  0  0  0  0  0  0  0  0  0
   -0.9602    0.2400    0.0000 C   0  0  0  0  0  0  0  0  0  0  0  0
    0.7140    0.2400    0.0000 C   0  0  0  0  0  0  0  0  0  0  0  0
   -1.6619   -0.9910    0.0000 C   0  0  0  0  0  0  0  0  0  0  0  0
   -2.3882    0.2400    0.0000 C   0  0  0  0  0  0  0  0  0  0  0  0
    1.6742   -0.9787    0.0000 C   0  0  0  0  0  0  0  0  0  0  0  0
    2.3759    0.2400    0.0000 C   0  0  0  0  0  0  0  0  0  0  0  0
   -1.1818    0.7201    0.0000 C   0  0  0  0  0  0  0  0  0  0  0  0
    1.6988    0.5478    0.0000 C   0  0  0  0  0  0  0  0  0  0  0  0
   -3.0776   -0.9910    0.0000 C   0  0  0  0  0  0  0  0  0  0  0  0
    3.1022   -0.9910    0.0000 C   0  0  0  0  0  0  0  0  0  0  0  0
    2.4251    0.9294    0.0000 C   0  0  0  0  0  0  0  0  0  0  0  0
   -1.6003    1.3972    0.0000 C   0  0  0  0  0  0  0  0  0  0  0  0
  1  8  1  0  0  0  0
  1  9  1  0  0  0  0
  2 11  1  0  0  0  0
  2 16  1  0  0  0  0
  3 10  1  0  0  0  0
  3 16  1  0  0  0  0
  4 13  1  0  0  0  0
  4 17  1  0  0  0  0
  5 12  1  0  0  0  0
  5 17  1  0  0  0  0
  6  8  1  0  0  0  0
  6 10  1  0  0  0  0
  6 11  1  0  0  0  0
  6 14  1  0  0  0  0
  7  9  1  0  0  0  0
  7 12  1  0  0  0  0
  7 13  1  0  0  0  0
  7 15  1  0  0  0  0
 14 19  1  0  0  0  0
 15 18  1  0  0  0  0
M  END
> <PUBCHEM_COMPOUND_ID_TYPE>
0

> <PUBCHEM_TOTAL_CHARGE>
0

> <PUBCHEM_SUBSTANCE_ID>
310945569

> <PUBCHEM_SUBSTANCE_VERSION>
1

> <PUBCHEM_EXT_DATASOURCE_NAME>
4488

> <PUBCHEM_EXT_DATASOURCE_REGID>
SCHEMBL16123667

> <PUBCHEM_SUBSTANCE_COMMENT>
InChI=1S/C14H26O5/c1-3-13(7-16-11-17-8-13)5-15-6-14(4-2)9-18-12-19-10-14/h3-12H2,1-2H3
InChIKey=KVGLCDKNJJRFNP-UHFFFAOYSA-N

> <PUBCHEM_SUBSTANCE_SYNONYM>
SCHEMBL16123667

> <PUBCHEM_XREF_EXT_ID>
SCHEMBL16123667

> <PUBCHEM_EXT_DATASOURCE_URL>
https://www.surechembl.org/

> <PUBCHEM_EXT_SUBSTANCE_URL>
https://www.surechembl.org/chemical/SCHEMBL16123667

> <PUBCHEM_CID_ASSOCIATIONS>
101828693  1

> <PUBCHEM_COORDINATE_TYPE>
1
3

$$$$
