310930118
  -OEChem-07211613022D

 31 35  0     0  0  0  0  0  0999 V2000
    7.6912    0.0000    0.0000 F   0  0  0  0  0  0  0  0  0  0  0  0
    0.0000   -6.2001    0.0000 O   0  0  0  0  0  0  0  0  0  0  0  0
    1.4127   -6.2001    0.0000 N   0  0  0  0  0  0  0  0  0  0  0  0
    2.7861   -3.7671    0.0000 N   0  0  0  0  0  0  0  0  0  0  0  0
    2.1190   -6.5925    0.0000 C   0  0  0  0  0  0  0  0  0  0  0  0
    2.8253   -6.2001    0.0000 C   0  0  0  0  0  0  0  0  0  0  0  0
    2.1190   -7.4165    0.0000 C   0  0  0  0  0  0  0  0  0  0  0  0
    2.7861   -5.3760    0.0000 C   0  0  0  0  0  0  0  0  0  0  0  0
    3.5317   -6.5925    0.0000 C   0  0  0  0  0  0  0  0  0  0  0  0
    2.8253   -7.8482    0.0000 C   0  0  0  0  0  0  0  0  0  0  0  0
    1.4127   -7.8482    0.0000 C   0  0  0  0  0  0  0  0  0  0  0  0
    0.7063   -6.5925    0.0000 C   0  0  0  0  0  0  0  0  0  0  0  0
    3.5317   -4.9836    0.0000 C   0  0  0  0  0  0  0  0  0  0  0  0
    2.1190   -4.9836    0.0000 C   0  0  0  0  0  0  0  0  0  0  0  0
    3.5317   -7.4165    0.0000 C   0  0  0  0  0  0  0  0  0  0  0  0
    0.7063   -7.4165    0.0000 C   0  0  0  0  0  0  0  0  0  0  0  0
    3.4924   -4.1595    0.0000 C   0  0  0  0  0  0  0  0  0  0  0  0
    2.0797   -4.1595    0.0000 C   0  0  0  0  0  0  0  0  0  0  0  0
    4.8658   -1.6873    0.0000 C   0  0  0  0  0  0  0  0  0  0  0  0
    3.4924   -2.5114    0.0000 C   0  0  0  0  0  0  0  0  0  0  0  0
    5.5722   -1.2557    0.0000 C   0  0  0  0  0  0  0  0  0  0  0  0
    2.7861   -2.9431    0.0000 C   0  0  0  0  0  0  0  0  0  0  0  0
    4.1595   -1.2949    0.0000 C   0  0  0  0  0  0  0  0  0  0  0  0
    4.9051   -2.5114    0.0000 C   0  0  0  0  0  0  0  0  0  0  0  0
    3.4924   -1.7266    0.0000 C   0  0  0  0  0  0  0  0  0  0  0  0
    4.1987   -2.9431    0.0000 C   0  0  0  0  0  0  0  0  0  0  0  0
    6.2785   -1.6873    0.0000 C   0  0  0  0  0  0  0  0  0  0  0  0
    5.5722   -0.4709    0.0000 C   0  0  0  0  0  0  0  0  0  0  0  0
    6.9849   -0.4317    0.0000 C   0  0  0  0  0  0  0  0  0  0  0  0
    6.9849   -1.2557    0.0000 C   0  0  0  0  0  0  0  0  0  0  0  0
    6.2393   -0.0393    0.0000 C   0  0  0  0  0  0  0  0  0  0  0  0
  1 29  1  0  0  0  0
  2 12  2  0  0  0  0
  3  5  1  0  0  0  0
  3 12  1  0  0  0  0
  4 17  1  0  0  0  0
  4 18  1  0  0  0  0
  4 22  1  0  0  0  0
  5  6  1  0  0  0  0
  5  7  2  0  0  0  0
  6  8  1  0  0  0  0
  6  9  2  0  0  0  0
  7 10  1  0  0  0  0
  7 11  1  0  0  0  0
  8 13  1  0  0  0  0
  8 14  1  0  0  0  0
  9 15  1  0  0  0  0
 10 15  2  0  0  0  0
 11 16  1  0  0  0  0
 12 16  1  0  0  0  0
 13 17  1  0  0  0  0
 14 18  1  0  0  0  0
 19 21  1  0  0  0  0
 19 23  2  0  0  0  0
 19 24  1  0  0  0  0
 20 22  1  0  0  0  0
 20 25  2  0  0  0  0
 20 26  1  0  0  0  0
 21 27  2  0  0  0  0
 21 28  1  0  0  0  0
 23 25  1  0  0  0  0
 24 26  2  0  0  0  0
 27 30  1  0  0  0  0
 28 31  2  0  0  0  0
 29 30  2  0  0  0  0
 29 31  1  0  0  0  0
M  END
> <PUBCHEM_COMPOUND_ID_TYPE>
0

> <PUBCHEM_TOTAL_CHARGE>
0

> <PUBCHEM_SUBSTANCE_ID>
310930118

> <PUBCHEM_SUBSTANCE_VERSION>
1

> <PUBCHEM_EXT_DATASOURCE_NAME>
4488

> <PUBCHEM_EXT_DATASOURCE_REGID>
SCHEMBL16107371

> <PUBCHEM_SUBSTANCE_COMMENT>
InChI=1S/C27H27FN2O/c28-24-11-8-21(9-12-24)20-6-4-19(5-7-20)18-30-16-14-22(15-17-30)25-3-1-2-23-10-13-26(31)29-27(23)25/h1-9,11-12,22H,10,13-18H2,(H,29,31)
InChIKey=BZCJSLIZFLYONH-UHFFFAOYSA-N

> <PUBCHEM_SUBSTANCE_SYNONYM>
SCHEMBL16107371

> <PUBCHEM_XREF_EXT_ID>
SCHEMBL16107371

> <PUBCHEM_EXT_DATASOURCE_URL>
https://www.surechembl.org/

> <PUBCHEM_EXT_SUBSTANCE_URL>
https://www.surechembl.org/chemical/SCHEMBL16107371

> <PUBCHEM_CID_ASSOCIATIONS>
101581308  1

> <PUBCHEM_COORDINATE_TYPE>
1
3

$$$$
