310944408
  -OEChem-07211613022D

 32 34  0     0  0  0  0  0  0999 V2000
   -1.4611    3.0549    0.0000 F   0  0  0  0  0  0  0  0  0  0  0  0
   -0.0210    0.5802    0.0000 N   0  0  0  0  0  0  0  0  0  0  0  0
    0.6920    2.6076    0.0000 N   0  0  0  0  0  0  0  0  0  0  0  0
   -3.6142    2.5656    0.0000 N   0  0  0  0  0  0  0  0  0  0  0  0
   -0.7480    1.0136    0.0000 C   0  0  0  0  0  0  0  0  0  0  0  0
   -0.7340    1.8385    0.0000 C   0  0  0  0  0  0  0  0  0  0  0  0
   -0.0349   -0.2307    0.0000 C   0  0  0  0  0  0  0  0  0  0  0  0
    0.7061    1.0136    0.0000 C   0  0  0  0  0  0  0  0  0  0  0  0
   -1.4471    2.2719    0.0000 C   0  0  0  0  0  0  0  0  0  0  0  0
   -1.4611    0.6082    0.0000 C   0  0  0  0  0  0  0  0  0  0  0  0
   -2.1601    1.8525    0.0000 C   0  0  0  0  0  0  0  0  0  0  0  0
   -0.7200   -0.6361    0.0000 C   0  0  0  0  0  0  0  0  0  0  0  0
    1.4191    0.6222    0.0000 C   0  0  0  0  0  0  0  0  0  0  0  0
    0.7200   -0.6501    0.0000 C   0  0  0  0  0  0  0  0  0  0  0  0
    0.7340    1.8385    0.0000 C   0  0  0  0  0  0  0  0  0  0  0  0
   -2.1741    1.0277    0.0000 C   0  0  0  0  0  0  0  0  0  0  0  0
   -0.0070   -1.8665    0.0000 C   0  0  0  0  0  0  0  0  0  0  0  0
    2.1601    1.8525    0.0000 C   0  0  0  0  0  0  0  0  0  0  0  0
   -0.0210    2.2300    0.0000 C   0  0  0  0  0  0  0  0  0  0  0  0
   -0.7200   -1.4471    0.0000 C   0  0  0  0  0  0  0  0  0  0  0  0
    2.1321    1.0136    0.0000 C   0  0  0  0  0  0  0  0  0  0  0  0
    0.7061   -1.4471    0.0000 C   0  0  0  0  0  0  0  0  0  0  0  0
    1.4191    2.2440    0.0000 C   0  0  0  0  0  0  0  0  0  0  0  0
   -0.0349   -2.6774    0.0000 C   0  0  0  0  0  0  0  0  0  0  0  0
    2.8731    2.2440    0.0000 C   0  0  0  0  0  0  0  0  0  0  0  0
   -2.9011    2.2300    0.0000 C   0  0  0  0  0  0  0  0  0  0  0  0
   -0.8179   -2.4956    0.0000 C   0  0  0  0  0  0  0  0  0  0  0  0
   -0.7200   -3.0969    0.0000 C   0  0  0  0  0  0  0  0  0  0  0  0
    0.7340   -3.0829    0.0000 C   0  0  0  0  0  0  0  0  0  0  0  0
    2.8731    3.0969    0.0000 C   0  0  0  0  0  0  0  0  0  0  0  0
    3.6142    1.8385    0.0000 C   0  0  0  0  0  0  0  0  0  0  0  0
    3.0969    1.4471    0.0000 C   0  0  0  0  0  0  0  0  0  0  0  0
  1  9  1  0  0  0  0
  2  5  1  0  0  0  0
  2  7  1  0  0  0  0
  2  8  1  0  0  0  0
  3 19  3  0  0  0  0
  4 26  3  0  0  0  0
  5  6  1  0  0  0  0
  5 10  2  0  0  0  0
  6  9  2  0  0  0  0
  6 19  1  0  0  0  0
  7 12  2  0  0  0  0
  7 14  1  0  0  0  0
  8 13  2  0  0  0  0
  8 15  1  0  0  0  0
  9 11  1  0  0  0  0
 10 16  1  0  0  0  0
 11 16  2  0  0  0  0
 11 26  1  0  0  0  0
 12 20  1  0  0  0  0
 13 21  1  0  0  0  0
 14 22  2  0  0  0  0
 15 23  2  0  0  0  0
 17 20  2  0  0  0  0
 17 22  1  0  0  0  0
 17 24  1  0  0  0  0
 18 21  2  0  0  0  0
 18 23  1  0  0  0  0
 18 25  1  0  0  0  0
 24 27  1  0  0  0  0
 24 28  1  0  0  0  0
 24 29  1  0  0  0  0
 25 30  1  0  0  0  0
 25 31  1  0  0  0  0
 25 32  1  0  0  0  0
M  END
> <PUBCHEM_COMPOUND_ID_TYPE>
0

> <PUBCHEM_TOTAL_CHARGE>
0

> <PUBCHEM_SUBSTANCE_ID>
310944408

> <PUBCHEM_SUBSTANCE_VERSION>
1

> <PUBCHEM_EXT_DATASOURCE_NAME>
4488

> <PUBCHEM_EXT_DATASOURCE_REGID>
SCHEMBL16122483

> <PUBCHEM_SUBSTANCE_COMMENT>
InChI=1S/C28H28FN3/c1-27(2,3)20-8-12-22(13-9-20)32(23-14-10-21(11-15-23)28(4,5)6)25-16-7-19(17-30)26(29)24(25)18-31/h7-16H,1-6H3
InChIKey=OFKIZLVYKGQVEO-UHFFFAOYSA-N

> <PUBCHEM_SUBSTANCE_SYNONYM>
SCHEMBL16122483

> <PUBCHEM_XREF_EXT_ID>
SCHEMBL16122483

> <PUBCHEM_EXT_DATASOURCE_URL>
https://www.surechembl.org/

> <PUBCHEM_EXT_SUBSTANCE_URL>
https://www.surechembl.org/chemical/SCHEMBL16122483

> <PUBCHEM_CID_ASSOCIATIONS>
117610665  1

> <PUBCHEM_COORDINATE_TYPE>
1
3

$$$$
