310930664
  -OEChem-07211613022D

 32 35  0     0  0  0  0  0  0999 V2000
   -6.4303    0.8250    0.0000 S   0  0  0  0  0  0  0  0  0  0  0  0
   -6.0178    1.5395    0.0000 O   0  0  0  0  0  0  0  0  0  0  0  0
   -6.8428    0.1106    0.0000 O   0  0  0  0  0  0  0  0  0  0  0  0
   -2.1434   -1.6500    0.0000 O   0  0  0  0  0  0  0  0  0  0  0  0
    0.0000   -0.4125    0.0000 N   0  0  0  0  0  0  0  0  0  0  0  0
   -0.7145    0.8250    0.0000 N   0  0  0  0  0  0  0  0  0  0  0  0
    0.7846    0.6674    0.0000 N   0  0  0  0  0  0  0  0  0  0  0  0
   -2.8579   -0.4125    0.0000 N   0  0  0  0  0  0  0  0  0  0  0  0
  -10.0027    1.2375    0.0000 N   0  0  0  0  0  0  0  0  0  0  0  0
   -5.7159    0.4125    0.0000 C   0  0  0  0  0  0  0  0  0  0  0  0
   -7.1448    1.2375    0.0000 C   0  0  0  0  0  0  0  0  0  0  0  0
    0.0000    0.4125    0.0000 C   0  0  0  0  0  0  0  0  0  0  0  0
   -7.8593    0.8250    0.0000 C   0  0  0  0  0  0  0  0  0  0  0  0
   -1.4290   -0.4125    0.0000 C   0  0  0  0  0  0  0  0  0  0  0  0
   -5.0013    0.8250    0.0000 C   0  0  0  0  0  0  0  0  0  0  0  0
   -5.7159   -0.4125    0.0000 C   0  0  0  0  0  0  0  0  0  0  0  0
   -7.1448    2.0625    0.0000 C   0  0  0  0  0  0  0  0  0  0  0  0
   -0.7145   -0.8250    0.0000 C   0  0  0  0  0  0  0  0  0  0  0  0
   -4.2869   -0.4125    0.0000 C   0  0  0  0  0  0  0  0  0  0  0  0
   -8.5738    1.2375    0.0000 C   0  0  0  0  0  0  0  0  0  0  0  0
   -2.1434   -0.8250    0.0000 C   0  0  0  0  0  0  0  0  0  0  0  0
   -4.2869    0.4125    0.0000 C   0  0  0  0  0  0  0  0  0  0  0  0
   -5.0013   -0.8250    0.0000 C   0  0  0  0  0  0  0  0  0  0  0  0
   -1.4290    0.4125    0.0000 C   0  0  0  0  0  0  0  0  0  0  0  0
    0.7846   -0.6674    0.0000 C   0  0  0  0  0  0  0  0  0  0  0  0
   -7.8593    2.4750    0.0000 C   0  0  0  0  0  0  0  0  0  0  0  0
   -8.5738    2.0625    0.0000 C   0  0  0  0  0  0  0  0  0  0  0  0
   -3.5724   -0.8250    0.0000 C   0  0  0  0  0  0  0  0  0  0  0  0
    1.2696    0.0000    0.0000 C   0  0  0  0  0  0  0  0  0  0  0  0
   -9.2883    0.8250    0.0000 C   0  0  0  0  0  0  0  0  0  0  0  0
  -10.0027    2.0625    0.0000 C   0  0  0  0  0  0  0  0  0  0  0  0
  -10.7172    0.8250    0.0000 C   0  0  0  0  0  0  0  0  0  0  0  0
  1  2  2  0  0  0  0
  1  3  2  0  0  0  0
  1 10  1  0  0  0  0
  1 11  1  0  0  0  0
  4 21  2  0  0  0  0
  5 12  1  0  0  0  0
  5 18  1  0  0  0  0
  5 25  1  0  0  0  0
  6 12  1  0  0  0  0
  6 24  2  0  0  0  0
  7 12  2  0  0  0  0
  7 29  1  0  0  0  0
  8 21  1  0  0  0  0
  8 28  1  0  0  0  0
  9 30  1  0  0  0  0
  9 31  1  0  0  0  0
  9 32  1  0  0  0  0
 10 15  2  0  0  0  0
 10 16  1  0  0  0  0
 11 13  1  0  0  0  0
 11 17  2  0  0  0  0
 13 20  2  0  0  0  0
 14 18  2  0  0  0  0
 14 21  1  0  0  0  0
 14 24  1  0  0  0  0
 15 22  1  0  0  0  0
 16 23  2  0  0  0  0
 17 26  1  0  0  0  0
 19 22  2  0  0  0  0
 19 23  1  0  0  0  0
 19 28  1  0  0  0  0
 20 27  1  0  0  0  0
 20 30  1  0  0  0  0
 25 29  2  0  0  0  0
 26 27  2  0  0  0  0
M  END
> <PUBCHEM_COMPOUND_ID_TYPE>
0

> <PUBCHEM_TOTAL_CHARGE>
0

> <PUBCHEM_SUBSTANCE_ID>
310930664

> <PUBCHEM_SUBSTANCE_VERSION>
1

> <PUBCHEM_EXT_DATASOURCE_NAME>
4488

> <PUBCHEM_EXT_DATASOURCE_REGID>
SCHEMBL16107961

> <PUBCHEM_SUBSTANCE_COMMENT>
InChI=1S/C23H23N5O3S/c1-27(2)15-18-4-3-5-21(12-18)32(30,31)20-8-6-17(7-9-20)13-25-22(29)19-14-26-23-24-10-11-28(23)16-19/h3-12,14,16H,13,15H2,1-2H3,(H,25,29)
InChIKey=MRGCTQATVMTTMO-UHFFFAOYSA-N

> <PUBCHEM_SUBSTANCE_SYNONYM>
SCHEMBL16107961

> <PUBCHEM_XREF_EXT_ID>
SCHEMBL16107961

> <PUBCHEM_EXT_DATASOURCE_URL>
https://www.surechembl.org/

> <PUBCHEM_EXT_SUBSTANCE_URL>
https://www.surechembl.org/chemical/SCHEMBL16107961

> <PUBCHEM_CID_ASSOCIATIONS>
117599719  1

> <PUBCHEM_COORDINATE_TYPE>
1
3

$$$$
