310943321
  -OEChem-07211613022D

 31 34  0     0  0  0  0  0  0999 V2000
   -2.7883   -0.5620    0.0000 O   0  0  0  0  0  0  0  0  0  0  0  0
    1.4890   -0.5620    0.0000 O   0  0  0  0  0  0  0  0  0  0  0  0
   -4.2044    1.9198    0.0000 O   0  0  0  0  0  0  0  0  0  0  0  0
   -1.3577   -0.5620    0.0000 N   0  0  0  0  0  0  0  0  0  0  0  0
   -2.7883    1.0876    0.0000 N   0  0  0  0  0  0  0  0  0  0  0  0
    2.1898    0.6788    0.0000 N   0  0  0  0  0  0  0  0  0  0  0  0
    0.7738    2.3285    0.0000 N   0  0  0  0  0  0  0  0  0  0  0  0
    3.7957   -1.5547    0.0000 N   0  0  0  0  0  0  0  0  0  0  0  0
    4.2044   -0.8395    0.0000 N   0  0  0  0  0  0  0  0  0  0  0  0
   -0.6424    0.6788    0.0000 C   0  0  0  0  0  0  0  0  0  0  0  0
    0.0584    1.1022    0.0000 C   0  0  0  0  0  0  0  0  0  0  0  0
   -2.0584    0.6935    0.0000 C   0  0  0  0  0  0  0  0  0  0  0  0
   -2.0584   -0.1386    0.0000 C   0  0  0  0  0  0  0  0  0  0  0  0
   -1.3723    1.0876    0.0000 C   0  0  0  0  0  0  0  0  0  0  0  0
   -0.6570   -0.1532    0.0000 C   0  0  0  0  0  0  0  0  0  0  0  0
    0.0730    1.9198    0.0000 C   0  0  0  0  0  0  0  0  0  0  0  0
    1.4744    1.0876    0.0000 C   0  0  0  0  0  0  0  0  0  0  0  0
    0.7738    0.6935    0.0000 C   0  0  0  0  0  0  0  0  0  0  0  0
    2.9197   -0.5474    0.0000 C   0  0  0  0  0  0  0  0  0  0  0  0
    2.2044   -0.1241    0.0000 C   0  0  0  0  0  0  0  0  0  0  0  0
    3.6351   -0.2116    0.0000 C   0  0  0  0  0  0  0  0  0  0  0  0
    1.4890    1.9198    0.0000 C   0  0  0  0  0  0  0  0  0  0  0  0
    2.9927   -1.3796    0.0000 C   0  0  0  0  0  0  0  0  0  0  0  0
   -2.7883    1.9198    0.0000 C   0  0  0  0  0  0  0  0  0  0  0  0
   -3.4745    0.6788    0.0000 C   0  0  0  0  0  0  0  0  0  0  0  0
   -1.3431   -1.4088    0.0000 C   0  0  0  0  0  0  0  0  0  0  0  0
   -0.6570    2.3139    0.0000 C   0  0  0  0  0  0  0  0  0  0  0  0
   -3.5037    2.3285    0.0000 C   0  0  0  0  0  0  0  0  0  0  0  0
   -4.2044    1.0876    0.0000 C   0  0  0  0  0  0  0  0  0  0  0  0
    3.8249    0.5912    0.0000 C   0  0  0  0  0  0  0  0  0  0  0  0
    4.1460   -2.3285    0.0000 C   0  0  0  0  0  0  0  0  0  0  0  0
  1 13  2  0  0  0  0
  2 20  2  0  0  0  0
  3 28  1  0  0  0  0
  3 29  1  0  0  0  0
  4 13  1  0  0  0  0
  4 15  1  0  0  0  0
  4 26  1  0  0  0  0
  5 12  1  0  0  0  0
  5 24  1  0  0  0  0
  5 25  1  0  0  0  0
  6 17  1  0  0  0  0
  6 20  1  0  0  0  0
  7 16  1  0  0  0  0
  7 22  2  0  0  0  0
  8  9  1  0  0  0  0
  8 23  1  0  0  0  0
  8 31  1  0  0  0  0
  9 21  2  0  0  0  0
 10 11  1  0  0  0  0
 10 14  1  0  0  0  0
 10 15  2  0  0  0  0
 11 16  2  0  0  0  0
 11 18  1  0  0  0  0
 12 13  1  0  0  0  0
 12 14  2  0  0  0  0
 16 27  1  0  0  0  0
 17 18  2  0  0  0  0
 17 22  1  0  0  0  0
 19 20  1  0  0  0  0
 19 21  1  0  0  0  0
 19 23  2  0  0  0  0
 21 30  1  0  0  0  0
 24 28  1  0  0  0  0
 25 29  1  0  0  0  0
M  END
> <PUBCHEM_COMPOUND_ID_TYPE>
0

> <PUBCHEM_TOTAL_CHARGE>
0

> <PUBCHEM_SUBSTANCE_ID>
310943321

> <PUBCHEM_SUBSTANCE_VERSION>
1

> <PUBCHEM_EXT_DATASOURCE_NAME>
4488

> <PUBCHEM_EXT_DATASOURCE_REGID>
SCHEMBL16121383

> <PUBCHEM_SUBSTANCE_COMMENT>
InChI=1S/C22H26N6O3/c1-14-18(10-17(11-23-14)24-21(29)19-13-27(4)25-15(19)2)16-9-20(22(30)26(3)12-16)28-5-7-31-8-6-28/h9-13H,5-8H2,1-4H3,(H,24,29)
InChIKey=NMFNUKPOBXHNSZ-UHFFFAOYSA-N

> <PUBCHEM_SUBSTANCE_SYNONYM>
SCHEMBL16121383

> <PUBCHEM_XREF_EXT_ID>
SCHEMBL16121383

> <PUBCHEM_EXT_DATASOURCE_URL>
https://www.surechembl.org/

> <PUBCHEM_EXT_SUBSTANCE_URL>
https://www.surechembl.org/chemical/SCHEMBL16121383

> <PUBCHEM_CID_ASSOCIATIONS>
117609746  1

> <PUBCHEM_COORDINATE_TYPE>
1
3

$$$$
