310931735
  -OEChem-07211613022D

 44 47  0     1  0  0  0  0  0999 V2000
   -2.1434   -2.0625    0.0000 Cl  0  0  0  0  0  0  0  0  0  0  0  0
   -0.7144    2.0625    0.0000 S   0  0  0  0  0  0  0  0  0  0  0  0
   -0.7144    0.4125    0.0000 F   0  0  0  0  0  0  0  0  0  0  0  0
   -3.5724    2.0625    0.0000 F   0  0  0  0  0  0  0  0  0  0  0  0
    0.0000    5.7750    0.0000 F   0  0  0  0  0  0  0  0  0  0  0  0
   -0.3020    1.3480    0.0000 O   0  0  0  0  0  0  0  0  0  0  0  0
   -1.1270    2.7770    0.0000 O   0  0  0  0  0  0  0  0  0  0  0  0
   -3.5724    0.4125    0.0000 O   0  0  0  0  0  0  0  0  0  0  0  0
    1.4290    2.4750    0.0000 O   0  0  0  0  0  0  0  0  0  0  0  0
   -7.8592    0.4125    0.0000 O   0  0  0  0  0  0  0  0  0  0  0  0
   -7.1447    1.6500    0.0000 O   0  0  0  0  0  0  0  0  0  0  0  0
    0.0000    2.4750    0.0000 N   0  0  0  0  0  0  0  0  0  0  0  0
   -0.7144    3.7125    0.0000 N   0  0  0  0  0  0  0  0  0  0  0  0
   -6.4302    0.4125    0.0000 N   0  0  0  0  0  0  0  0  0  0  0  0
   -1.4290    1.6500    0.0000 C   0  0  0  0  0  0  0  0  0  0  0  0
   -1.4290    0.8250    0.0000 C   0  0  0  0  0  0  0  0  0  0  0  0
   -2.1434    2.0625    0.0000 C   0  0  0  0  0  0  0  0  0  0  0  0
    0.0000    3.3000    0.0000 C   0  0  0  0  0  0  0  0  0  0  0  0
   -2.8579    0.8250    0.0000 C   0  0  0  0  0  0  0  0  0  0  0  0
   -2.8579    1.6500    0.0000 C   0  0  0  0  0  0  0  0  0  0  0  0
   -2.1434    0.4125    0.0000 C   0  0  0  0  0  0  0  0  0  0  0  0
    0.7144    2.0625    0.0000 C   0  0  0  0  0  0  0  0  0  0  0  0
   -5.0013    0.4125    0.0000 C   0  0  3  0  0  0  0  0  0  0  0  0
   -5.0013   -0.4125    0.0000 C   0  0  3  0  0  0  0  0  0  0  0  0
    0.7144    3.7125    0.0000 C   0  0  0  0  0  0  0  0  0  0  0  0
   -4.2868    0.8250    0.0000 C   0  0  0  0  0  0  0  0  0  0  0  0
   -4.2868   -0.8250    0.0000 C   0  0  0  0  0  0  0  0  0  0  0  0
   -5.7158    0.8250    0.0000 C   0  0  0  0  0  0  0  0  0  0  0  0
   -5.7158   -0.8250    0.0000 C   0  0  0  0  0  0  0  0  0  0  0  0
   -0.7144    4.5375    0.0000 C   0  0  0  0  0  0  0  0  0  0  0  0
    0.7144    4.5375    0.0000 C   0  0  0  0  0  0  0  0  0  0  0  0
    0.0000    4.9500    0.0000 C   0  0  0  0  0  0  0  0  0  0  0  0
   -6.4302   -0.4125    0.0000 C   0  0  0  0  0  0  0  0  0  0  0  0
   -7.1447    0.8250    0.0000 C   0  0  0  0  0  0  0  0  0  0  0  0
   -3.5724   -0.4125    0.0000 C   0  0  0  0  0  0  0  0  0  0  0  0
   -4.2868   -1.6500    0.0000 C   0  0  0  0  0  0  0  0  0  0  0  0
   -2.8579   -0.8250    0.0000 C   0  0  0  0  0  0  0  0  0  0  0  0
   -3.5724   -2.0625    0.0000 C   0  0  0  0  0  0  0  0  0  0  0  0
   -2.8579   -1.6500    0.0000 C   0  0  0  0  0  0  0  0  0  0  0  0
   -8.5736    0.8250    0.0000 C   0  0  0  0  0  0  0  0  0  0  0  0
    2.1434    2.0625    0.0000 C   0  0  0  0  0  0  0  0  0  0  0  0
   -8.5736    1.6500    0.0000 C   0  0  0  0  0  0  0  0  0  0  0  0
   -9.2881    1.2375    0.0000 C   0  0  0  0  0  0  0  0  0  0  0  0
   -9.2881    0.4125    0.0000 C   0  0  0  0  0  0  0  0  0  0  0  0
  1 39  1  0  0  0  0
  2  6  2  0  0  0  0
  2  7  2  0  0  0  0
  2 12  1  0  0  0  0
  2 15  1  0  0  0  0
  3 16  1  0  0  0  0
  4 20  1  0  0  0  0
  5 32  1  0  0  0  0
  8 19  1  0  0  0  0
  8 26  1  0  0  0  0
  9 22  1  0  0  0  0
  9 41  1  0  0  0  0
 10 34  1  0  0  0  0
 10 40  1  0  0  0  0
 11 34  2  0  0  0  0
 12 18  1  0  0  0  0
 12 22  1  0  0  0  0
 13 18  2  0  0  0  0
 13 30  1  0  0  0  0
 14 28  1  0  0  0  0
 14 33  1  0  0  0  0
 14 34  1  0  0  0  0
 15 16  2  0  0  0  0
 15 17  1  0  0  0  0
 16 21  1  0  0  0  0
 17 20  2  0  0  0  0
 18 25  1  0  0  0  0
 19 20  1  0  0  0  0
 19 21  2  0  0  0  0
 23 24  1  0  0  0  0
 23 26  1  6  0  0  0
 23 28  1  0  0  0  0
 24 27  1  0  0  0  0
 24 29  1  1  0  0  0
 25 31  2  0  0  0  0
 27 35  2  0  0  0  0
 27 36  1  0  0  0  0
 29 33  1  0  0  0  0
 30 32  2  0  0  0  0
 31 32  1  0  0  0  0
 35 37  1  0  0  0  0
 36 38  2  0  0  0  0
 37 39  2  0  0  0  0
 38 39  1  0  0  0  0
 40 42  1  0  0  0  0
 40 43  1  0  0  0  0
 40 44  1  0  0  0  0
M  END
> <PUBCHEM_COMPOUND_ID_TYPE>
0

> <PUBCHEM_TOTAL_CHARGE>
0

> <PUBCHEM_SUBSTANCE_ID>
310931735

> <PUBCHEM_SUBSTANCE_VERSION>
1

> <PUBCHEM_EXT_DATASOURCE_NAME>
4488

> <PUBCHEM_EXT_DATASOURCE_REGID>
SCHEMBL16109064

> <PUBCHEM_SUBSTANCE_COMMENT>
InChI=1S/C30H33ClF3N3O6S/c1-30(2,3)43-29(38)36-12-11-23(19-5-7-21(31)8-6-19)20(16-36)17-42-26-13-25(34)27(14-24(26)33)44(39,40)37(18-41-4)28-10-9-22(32)15-35-28/h5-10,13-15,20,23H,11-12,16-18H2,1-4H3/t20-,23-/m1/s1
InChIKey=MVCKHSOHBVFKAT-NFBKMPQASA-N

> <PUBCHEM_SUBSTANCE_SYNONYM>
SCHEMBL16109064

> <PUBCHEM_XREF_EXT_ID>
SCHEMBL16109064

> <PUBCHEM_EXT_DATASOURCE_URL>
https://www.surechembl.org/

> <PUBCHEM_EXT_SUBSTANCE_URL>
https://www.surechembl.org/chemical/SCHEMBL16109064

> <PUBCHEM_CID_ASSOCIATIONS>
117600428  1

> <PUBCHEM_COORDINATE_TYPE>
1
3

> <PUBCHEM_BONDANNOTATIONS>
23  26  6
24  29  5

$$$$
