310947418
  -OEChem-07211613022D

 23 26  0     0  0  0  0  0  0999 V2000
    0.9880    1.2906    0.0000 N   0  0  0  0  0  0  0  0  0  0  0  0
   -1.0745    2.0050    0.0000 N   0  0  0  0  0  0  0  0  0  0  0  0
   -0.0920    0.5059    0.0000 N   0  0  0  0  0  0  0  0  0  0  0  0
    0.5755    0.0210    0.0000 N   0  0  0  0  0  0  0  0  0  0  0  0
   -2.7245    2.0050    0.0000 N   0  0  0  0  0  0  0  0  0  0  0  0
    0.1630    1.2906    0.0000 C   0  0  0  0  0  0  0  0  0  0  0  0
   -0.2495    2.0050    0.0000 C   0  0  0  0  0  0  0  0  0  0  0  0
    1.2429    0.5059    0.0000 C   0  0  0  0  0  0  0  0  0  0  0  0
   -1.4870    2.7195    0.0000 C   0  0  0  0  0  0  0  0  0  0  0  0
    1.9574    0.0934    0.0000 C   0  0  0  0  0  0  0  0  0  0  0  0
   -2.3120    2.7195    0.0000 C   0  0  0  0  0  0  0  0  0  0  0  0
    0.1630    2.7195    0.0000 C   0  0  0  0  0  0  0  0  0  0  0  0
   -1.0745    3.4340    0.0000 C   0  0  0  0  0  0  0  0  0  0  0  0
   -0.2495    3.4340    0.0000 C   0  0  0  0  0  0  0  0  0  0  0  0
    1.9574   -0.7316    0.0000 C   0  0  0  0  0  0  0  0  0  0  0  0
    2.6718    0.5059    0.0000 C   0  0  0  0  0  0  0  0  0  0  0  0
   -2.7245    3.4340    0.0000 C   0  0  0  0  0  0  0  0  0  0  0  0
    2.6718   -1.1441    0.0000 C   0  0  0  0  0  0  0  0  0  0  0  0
    3.3863    0.0934    0.0000 C   0  0  0  0  0  0  0  0  0  0  0  0
   -3.5495    2.0050    0.0000 C   0  0  0  0  0  0  0  0  0  0  0  0
   -3.5495    3.4340    0.0000 C   0  0  0  0  0  0  0  0  0  0  0  0
    3.3863   -0.7316    0.0000 C   0  0  0  0  0  0  0  0  0  0  0  0
   -3.9620    2.7195    0.0000 C   0  0  0  0  0  0  0  0  0  0  0  0
  1  6  2  0  0  0  0
  1  8  1  0  0  0  0
  2  7  2  0  0  0  0
  2  9  1  0  0  0  0
  3  4  1  0  0  0  0
  3  6  1  0  0  0  0
  4  8  2  0  0  0  0
  5 11  1  0  0  0  0
  5 20  2  0  0  0  0
  6  7  1  0  0  0  0
  7 12  1  0  0  0  0
  8 10  1  0  0  0  0
  9 11  1  0  0  0  0
  9 13  2  0  0  0  0
 10 15  2  0  0  0  0
 10 16  1  0  0  0  0
 11 17  2  0  0  0  0
 12 14  2  0  0  0  0
 13 14  1  0  0  0  0
 15 18  1  0  0  0  0
 16 19  2  0  0  0  0
 17 21  1  0  0  0  0
 18 22  2  0  0  0  0
 19 22  1  0  0  0  0
 20 23  1  0  0  0  0
 21 23  2  0  0  0  0
M  END
> <PUBCHEM_COMPOUND_ID_TYPE>
0

> <PUBCHEM_TOTAL_CHARGE>
0

> <PUBCHEM_SUBSTANCE_ID>
310947418

> <PUBCHEM_SUBSTANCE_VERSION>
1

> <PUBCHEM_EXT_DATASOURCE_NAME>
4488

> <PUBCHEM_EXT_DATASOURCE_REGID>
SCHEMBL16125579

> <PUBCHEM_SUBSTANCE_COMMENT>
InChI=1S/C18H13N5/c1-2-7-13(8-3-1)17-21-18(23-22-17)16-11-6-10-15(20-16)14-9-4-5-12-19-14/h1-12H,(H,21,22,23)
InChIKey=WESOIOWNIRDAQY-UHFFFAOYSA-N

> <PUBCHEM_SUBSTANCE_SYNONYM>
SCHEMBL16125579

> <PUBCHEM_XREF_EXT_ID>
SCHEMBL16125579

> <PUBCHEM_EXT_DATASOURCE_URL>
https://www.surechembl.org/

> <PUBCHEM_EXT_SUBSTANCE_URL>
https://www.surechembl.org/chemical/SCHEMBL16125579

> <PUBCHEM_CID_ASSOCIATIONS>
117613151  1

> <PUBCHEM_COORDINATE_TYPE>
1
3

$$$$
