310938014
  -OEChem-07211613022D

 17 18  0     0  0  0  0  0  0999 V2000
    0.0000    0.0000    0.0000 Br  0  0  0  0  0  0  0  0  0  0  0  0
    3.1661   -0.1740    0.0000 O   0  0  0  0  0  0  0  0  0  0  0  0
    3.1661   -1.6005    0.0000 O   0  0  0  0  0  0  0  0  0  0  0  0
    1.4613   -1.5657    0.0000 N   0  0  0  0  0  0  0  0  0  0  0  0
    1.9310   -0.8872    0.0000 C   0  0  0  0  0  0  0  0  0  0  0  0
    0.6610   -0.4871    0.0000 C   0  0  0  0  0  0  0  0  0  0  0  0
    1.4613   -0.2261    0.0000 C   0  0  0  0  0  0  0  0  0  0  0  0
    0.6610   -1.3047    0.0000 C   0  0  0  0  0  0  0  0  0  0  0  0
    2.7660   -0.8872    0.0000 C   0  0  0  0  0  0  0  0  0  0  0  0
    1.7048   -2.3485    0.0000 C   0  0  0  0  0  0  0  0  0  0  0  0
    2.5225   -2.5225    0.0000 C   0  0  0  0  0  0  0  0  0  0  0  0
    2.7660   -3.3053    0.0000 C   0  0  0  0  0  0  0  0  0  0  0  0
    3.0792   -1.9136    0.0000 C   0  0  0  0  0  0  0  0  0  0  0  0
    3.5837   -3.4793    0.0000 C   0  0  0  0  0  0  0  0  0  0  0  0
    3.8794   -2.0701    0.0000 C   0  0  0  0  0  0  0  0  0  0  0  0
    4.1403   -2.8704    0.0000 C   0  0  0  0  0  0  0  0  0  0  0  0
    3.9837   -0.1740    0.0000 C   0  0  0  0  0  0  0  0  0  0  0  0
  1  6  1  0  0  0  0
  2  9  1  0  0  0  0
  2 17  1  0  0  0  0
  3  9  2  0  0  0  0
  4  5  1  0  0  0  0
  4  8  1  0  0  0  0
  4 10  1  0  0  0  0
  5  7  2  0  0  0  0
  5  9  1  0  0  0  0
  6  7  1  0  0  0  0
  6  8  2  0  0  0  0
 10 11  1  0  0  0  0
 11 12  2  0  0  0  0
 11 13  1  0  0  0  0
 12 14  1  0  0  0  0
 13 15  2  0  0  0  0
 14 16  2  0  0  0  0
 15 16  1  0  0  0  0
M  END
> <PUBCHEM_COMPOUND_ID_TYPE>
0

> <PUBCHEM_TOTAL_CHARGE>
0

> <PUBCHEM_SUBSTANCE_ID>
310938014

> <PUBCHEM_SUBSTANCE_VERSION>
1

> <PUBCHEM_EXT_DATASOURCE_NAME>
4488

> <PUBCHEM_EXT_DATASOURCE_REGID>
SCHEMBL16115854

> <PUBCHEM_SUBSTANCE_COMMENT>
InChI=1S/C13H12BrNO2/c1-17-13(16)12-7-11(14)9-15(12)8-10-5-3-2-4-6-10/h2-7,9H,8H2,1H3
InChIKey=CNWOUWDBHUWYES-UHFFFAOYSA-N

> <PUBCHEM_SUBSTANCE_SYNONYM>
SCHEMBL16115854

> <PUBCHEM_XREF_EXT_ID>
SCHEMBL16115854

> <PUBCHEM_EXT_DATASOURCE_URL>
https://www.surechembl.org/

> <PUBCHEM_EXT_SUBSTANCE_URL>
https://www.surechembl.org/chemical/SCHEMBL16115854

> <PUBCHEM_CID_ASSOCIATIONS>
117605607  1

> <PUBCHEM_COORDINATE_TYPE>
1
3

$$$$
