310934000
  -OEChem-07211613022D

 34 39  0     0  0  0  0  0  0999 V2000
    4.6957   -6.6784    0.0000 O   0  0  0  0  0  0  0  0  0  0  0  0
    1.0957   -3.7566    0.0000 N   0  0  0  0  0  0  0  0  0  0  0  0
    0.3131   -3.7566    0.0000 N   0  0  0  0  0  0  0  0  0  0  0  0
    2.1913   -2.7653    0.0000 N   0  0  0  0  0  0  0  0  0  0  0  0
    0.7304    0.0000    0.0000 N   0  0  0  0  0  0  0  0  0  0  0  0
    4.3827   -5.2696    0.0000 N   0  0  0  0  0  0  0  0  0  0  0  0
    4.7479   -8.8697    0.0000 N   0  0  0  0  0  0  0  0  0  0  0  0
    4.2261  -10.4349    0.0000 N   0  0  0  0  0  0  0  0  0  0  0  0
    0.7304   -2.4522    0.0000 C   0  0  0  0  0  0  0  0  0  0  0  0
    1.4087   -2.9218    0.0000 C   0  0  0  0  0  0  0  0  0  0  0  0
    0.7304   -1.6696    0.0000 C   0  0  0  0  0  0  0  0  0  0  0  0
    1.4087   -1.2522    0.0000 C   0  0  0  0  0  0  0  0  0  0  0  0
    0.0522   -2.9218    0.0000 C   0  0  0  0  0  0  0  0  0  0  0  0
    2.4522   -4.1740    0.0000 C   0  0  0  0  0  0  0  0  0  0  0  0
    1.6696   -4.3827    0.0000 C   0  0  0  0  0  0  0  0  0  0  0  0
    1.4087   -0.4174    0.0000 C   0  0  0  0  0  0  0  0  0  0  0  0
    0.0000   -1.2522    0.0000 C   0  0  0  0  0  0  0  0  0  0  0  0
    2.7131   -3.3914    0.0000 C   0  0  0  0  0  0  0  0  0  0  0  0
    3.0262   -4.8000    0.0000 C   0  0  0  0  0  0  0  0  0  0  0  0
    2.1392   -1.6696    0.0000 C   0  0  0  0  0  0  0  0  0  0  0  0
    0.0000   -0.4174    0.0000 C   0  0  0  0  0  0  0  0  0  0  0  0
    2.1392    0.0000    0.0000 C   0  0  0  0  0  0  0  0  0  0  0  0
    3.8609   -4.6436    0.0000 C   0  0  0  0  0  0  0  0  0  0  0  0
    2.7653   -5.5827    0.0000 C   0  0  0  0  0  0  0  0  0  0  0  0
    2.8174   -1.2522    0.0000 C   0  0  0  0  0  0  0  0  0  0  0  0
    2.8174   -0.4174    0.0000 C   0  0  0  0  0  0  0  0  0  0  0  0
    4.1218   -6.0522    0.0000 C   0  0  0  0  0  0  0  0  0  0  0  0
    3.2870   -6.2088    0.0000 C   0  0  0  0  0  0  0  0  0  0  0  0
    4.4348   -7.4610    0.0000 C   0  0  0  0  0  0  0  0  0  0  0  0
    5.0088   -8.0871    0.0000 C   0  0  0  0  0  0  0  0  0  0  0  0
    3.9131   -9.0262    0.0000 C   0  0  0  0  0  0  0  0  0  0  0  0
    5.2696   -9.4436    0.0000 C   0  0  0  0  0  0  0  0  0  0  0  0
    5.0088  -10.2784    0.0000 C   0  0  0  0  0  0  0  0  0  0  0  0
    3.6522   -9.8088    0.0000 C   0  0  0  0  0  0  0  0  0  0  0  0
  1 27  1  0  0  0  0
  1 29  1  0  0  0  0
  2  3  1  0  0  0  0
  2 10  1  0  0  0  0
  2 15  1  0  0  0  0
  3 13  2  0  0  0  0
  4 10  1  0  0  0  0
  4 18  2  0  0  0  0
  5 16  2  0  0  0  0
  5 21  1  0  0  0  0
  6 23  1  0  0  0  0
  6 27  2  0  0  0  0
  7 30  1  0  0  0  0
  7 31  1  0  0  0  0
  7 32  1  0  0  0  0
  8 33  1  0  0  0  0
  8 34  1  0  0  0  0
  9 10  2  0  0  0  0
  9 11  1  0  0  0  0
  9 13  1  0  0  0  0
 11 12  2  0  0  0  0
 11 17  1  0  0  0  0
 12 16  1  0  0  0  0
 12 20  1  0  0  0  0
 14 15  2  0  0  0  0
 14 18  1  0  0  0  0
 14 19  1  0  0  0  0
 16 22  1  0  0  0  0
 17 21  2  0  0  0  0
 19 23  2  0  0  0  0
 19 24  1  0  0  0  0
 20 25  2  0  0  0  0
 22 26  2  0  0  0  0
 24 28  2  0  0  0  0
 25 26  1  0  0  0  0
 27 28  1  0  0  0  0
 29 30  1  0  0  0  0
 31 34  1  0  0  0  0
 32 33  1  0  0  0  0
M  END
> <PUBCHEM_COMPOUND_ID_TYPE>
0

> <PUBCHEM_TOTAL_CHARGE>
0

> <PUBCHEM_SUBSTANCE_ID>
310934000

> <PUBCHEM_SUBSTANCE_VERSION>
1

> <PUBCHEM_EXT_DATASOURCE_NAME>
4488

> <PUBCHEM_EXT_DATASOURCE_REGID>
SCHEMBL16111444

> <PUBCHEM_SUBSTANCE_COMMENT>
InChI=1S/C26H25N7O/c1-2-4-24-22(3-1)21(7-8-28-24)23-17-31-33-18-20(16-30-26(23)33)19-5-6-25(29-15-19)34-14-13-32-11-9-27-10-12-32/h1-8,15-18,27H,9-14H2
InChIKey=WMBPMDQTARNBNK-UHFFFAOYSA-N

> <PUBCHEM_SUBSTANCE_SYNONYM>
SCHEMBL16111444

> <PUBCHEM_XREF_EXT_ID>
SCHEMBL16111444

> <PUBCHEM_EXT_DATASOURCE_URL>
https://www.surechembl.org/

> <PUBCHEM_EXT_SUBSTANCE_URL>
https://www.surechembl.org/chemical/SCHEMBL16111444

> <PUBCHEM_CID_ASSOCIATIONS>
117602306  1

> <PUBCHEM_COORDINATE_TYPE>
1
3

$$$$
