310944340
  -OEChem-07211613022D

 13 14  0     0  0  0  0  0  0999 V2000
    2.4501    0.6794    0.0000 Cl  0  0  0  0  0  0  0  0  0  0  0  0
   -2.4501    0.2677    0.0000 O   0  0  0  0  0  0  0  0  0  0  0  0
    1.5991    0.6794    0.0000 N   0  0  0  0  0  0  0  0  0  0  0  0
   -0.9951    0.2677    0.0000 N   0  0  0  0  0  0  0  0  0  0  0  0
    0.2814    0.6932    0.0000 C   0  0  0  0  0  0  0  0  0  0  0  0
    0.8716    1.2696    0.0000 C   0  0  0  0  0  0  0  0  0  0  0  0
    0.8579    0.1029    0.0000 C   0  0  0  0  0  0  0  0  0  0  0  0
   -0.2127    0.0206    0.0000 C   0  0  0  0  0  0  0  0  0  0  0  0
   -0.1990    1.3520    0.0000 C   0  0  0  0  0  0  0  0  0  0  0  0
   -0.9814    1.1050    0.0000 C   0  0  0  0  0  0  0  0  0  0  0  0
   -1.6951   -0.1442    0.0000 C   0  0  0  0  0  0  0  0  0  0  0  0
   -1.7226   -0.9814    0.0000 C   0  0  0  0  0  0  0  0  0  0  0  0
   -2.4364   -1.3520    0.0000 C   0  0  0  0  0  0  0  0  0  0  0  0
  1  3  1  0  0  0  0
  2 11  2  0  0  0  0
  3  6  1  0  0  0  0
  3  7  1  0  0  0  0
  4  8  1  0  0  0  0
  4 10  1  0  0  0  0
  4 11  1  0  0  0  0
  5  6  1  0  0  0  0
  5  7  1  0  0  0  0
  5  8  1  0  0  0  0
  5  9  1  0  0  0  0
  9 10  1  0  0  0  0
 11 12  1  0  0  0  0
 12 13  2  0  0  0  0
M  END
> <PUBCHEM_COMPOUND_ID_TYPE>
0

> <PUBCHEM_TOTAL_CHARGE>
0

> <PUBCHEM_SUBSTANCE_ID>
310944340

> <PUBCHEM_SUBSTANCE_VERSION>
1

> <PUBCHEM_EXT_DATASOURCE_NAME>
4488

> <PUBCHEM_EXT_DATASOURCE_REGID>
SCHEMBL16122415

> <PUBCHEM_SUBSTANCE_COMMENT>
InChI=1S/C9H13ClN2O/c1-2-8(13)11-4-3-9(5-11)6-12(10)7-9/h2H,1,3-7H2
InChIKey=HVMCNTHYJMQTJQ-UHFFFAOYSA-N

> <PUBCHEM_SUBSTANCE_SYNONYM>
SCHEMBL16122415

> <PUBCHEM_XREF_EXT_ID>
SCHEMBL16122415

> <PUBCHEM_EXT_DATASOURCE_URL>
https://www.surechembl.org/

> <PUBCHEM_EXT_SUBSTANCE_URL>
https://www.surechembl.org/chemical/SCHEMBL16122415

> <PUBCHEM_CID_ASSOCIATIONS>
117610597  1

> <PUBCHEM_COORDINATE_TYPE>
1
3

$$$$
