310946963
  -OEChem-07211613022D

 18 20  0     0  0  0  0  0  0999 V2000
   -1.3761   15.9795    0.0000 N   0  0  0  0  0  0  0  0  0  0  0  0
    0.0528   15.9795    0.0000 N   0  0  0  0  0  0  0  0  0  0  0  0
    0.0528   14.3295    0.0000 N   0  0  0  0  0  0  0  0  0  0  0  0
   -2.8051   15.9795    0.0000 N   0  0  0  0  0  0  0  0  0  0  0  0
   -0.6616   15.5670    0.0000 C   0  0  0  0  0  0  0  0  0  0  0  0
   -0.6616   14.7420    0.0000 C   0  0  0  0  0  0  0  0  0  0  0  0
   -2.0906   15.5670    0.0000 C   0  0  0  0  0  0  0  0  0  0  0  0
   -1.3761   14.3295    0.0000 C   0  0  0  0  0  0  0  0  0  0  0  0
   -2.0906   14.7420    0.0000 C   0  0  0  0  0  0  0  0  0  0  0  0
    0.7673   15.5670    0.0000 C   0  0  0  0  0  0  0  0  0  0  0  0
    0.7673   14.7420    0.0000 C   0  0  0  0  0  0  0  0  0  0  0  0
   -3.6020   15.7660    0.0000 C   0  0  0  0  0  0  0  0  0  0  0  0
   -4.1853   16.3494    0.0000 C   0  0  0  0  0  0  0  0  0  0  0  0
   -3.8155   14.9691    0.0000 C   0  0  0  0  0  0  0  0  0  0  0  0
   -4.9822   16.1358    0.0000 C   0  0  0  0  0  0  0  0  0  0  0  0
   -4.6124   14.7556    0.0000 C   0  0  0  0  0  0  0  0  0  0  0  0
   -5.1953   15.3394    0.0000 C   0  0  0  0  0  0  0  0  0  0  0  0
    1.4818   15.9795    0.0000 H   1  0  0  0  0  0  0  0  0  0  0  0
  1  5  2  0  0  0  0
  1  7  1  0  0  0  0
  2  5  1  0  0  0  0
  2 10  2  0  0  0  0
  3  6  1  0  0  0  0
  3 11  2  0  0  0  0
  4  7  1  0  0  0  0
  4 12  1  0  0  0  0
  5  6  1  0  0  0  0
  6  8  2  0  0  0  0
  7  9  2  0  0  0  0
  8  9  1  0  0  0  0
 10 11  1  0  0  0  0
 10 18  1  0  0  0  0
 12 13  2  0  0  0  0
 12 14  1  0  0  0  0
 13 15  1  0  0  0  0
 14 16  2  0  0  0  0
 15 17  2  0  0  0  0
 16 17  1  0  0  0  0
M  ISO  1  18   2
M  END
> <PUBCHEM_COMPOUND_ID_TYPE>
0

> <PUBCHEM_TOTAL_CHARGE>
0

> <PUBCHEM_SUBSTANCE_ID>
310946963

> <PUBCHEM_SUBSTANCE_VERSION>
1

> <PUBCHEM_EXT_DATASOURCE_NAME>
4488

> <PUBCHEM_EXT_DATASOURCE_REGID>
SCHEMBL16125092

> <PUBCHEM_SUBSTANCE_COMMENT>
InChI=1S/C13H10N4/c1-2-4-10(5-3-1)16-12-7-6-11-13(17-12)15-9-8-14-11/h1-9H,(H,15,16,17)/i9D
InChIKey=QNLNGNMQQBLBQC-QOWOAITPSA-N

> <PUBCHEM_SUBSTANCE_SYNONYM>
SCHEMBL16125092

> <PUBCHEM_XREF_EXT_ID>
SCHEMBL16125092

> <PUBCHEM_EXT_DATASOURCE_URL>
https://www.surechembl.org/

> <PUBCHEM_EXT_SUBSTANCE_URL>
https://www.surechembl.org/chemical/SCHEMBL16125092

> <PUBCHEM_CID_ASSOCIATIONS>
117612817  1

> <PUBCHEM_COORDINATE_TYPE>
1
3

$$$$
