310942399
  -OEChem-07211613022D

 33 36  0     0  0  0  0  0  0999 V2000
   -1.0287    0.0415    0.0000 O   0  0  0  0  0  0  0  0  0  0  0  0
   -3.0527   -2.4970    0.0000 O   0  0  0  0  0  0  0  0  0  0  0  0
   -2.3228   -3.7413    0.0000 O   0  0  0  0  0  0  0  0  0  0  0  0
    3.0361    0.7217    0.0000 O   0  0  0  0  0  0  0  0  0  0  0  0
    3.3182   -0.6885    0.0000 O   0  0  0  0  0  0  0  0  0  0  0  0
   -0.3484   -2.0822    0.0000 N   0  0  0  0  0  0  0  0  0  0  0  0
    0.4811   -2.2149    0.0000 N   0  0  0  0  0  0  0  0  0  0  0  0
    1.9412   -0.2074    0.0000 N   0  0  0  0  0  0  0  0  0  0  0  0
   -0.7964   -1.4020    0.0000 C   0  0  0  0  0  0  0  0  0  0  0  0
   -1.6591   -2.4472    0.0000 C   0  0  0  0  0  0  0  0  0  0  0  0
   -0.8628   -2.7459    0.0000 C   0  0  0  0  0  0  0  0  0  0  0  0
   -1.5762   -1.6177    0.0000 C   0  0  0  0  0  0  0  0  0  0  0  0
   -0.4811   -0.6222    0.0000 C   0  0  0  0  0  0  0  0  0  0  0  0
   -2.3228   -2.8785    0.0000 C   0  0  0  0  0  0  0  0  0  0  0  0
   -0.5641   -3.5090    0.0000 C   0  0  0  0  0  0  0  0  0  0  0  0
    0.2986   -0.4729    0.0000 C   0  0  0  0  0  0  0  0  0  0  0  0
   -2.2730   -1.0867    0.0000 C   0  0  0  0  0  0  0  0  0  0  0  0
    0.7798   -2.9947    0.0000 C   0  0  0  0  0  0  0  0  0  0  0  0
    0.2655   -3.6417    0.0000 C   0  0  0  0  0  0  0  0  0  0  0  0
    0.6139    0.3069    0.0000 C   0  0  0  0  0  0  0  0  0  0  0  0
    0.8462   -1.1199    0.0000 C   0  0  0  0  0  0  0  0  0  0  0  0
    1.4269    0.4397    0.0000 C   0  0  0  0  0  0  0  0  0  0  0  0
    1.6591   -0.9872    0.0000 C   0  0  0  0  0  0  0  0  0  0  0  0
    2.7376   -0.0581    0.0000 C   0  0  0  0  0  0  0  0  0  0  0  0
   -3.7164   -2.9449    0.0000 C   0  0  0  0  0  0  0  0  0  0  0  0
    2.5053    1.3356    0.0000 C   0  0  0  0  0  0  0  0  0  0  0  0
   -3.6500   -3.7579    0.0000 C   0  0  0  0  0  0  0  0  0  0  0  0
    2.7210    2.1652    0.0000 C   0  0  0  0  0  0  0  0  0  0  0  0
    3.5173    2.3809    0.0000 C   0  0  0  0  0  0  0  0  0  0  0  0
    2.1403    2.7458    0.0000 C   0  0  0  0  0  0  0  0  0  0  0  0
    3.7164    3.1772    0.0000 C   0  0  0  0  0  0  0  0  0  0  0  0
    2.3560    3.5422    0.0000 C   0  0  0  0  0  0  0  0  0  0  0  0
    3.1523    3.7579    0.0000 C   0  0  0  0  0  0  0  0  0  0  0  0
  1 13  2  0  0  0  0
  2 14  1  0  0  0  0
  2 25  1  0  0  0  0
  3 14  2  0  0  0  0
  4 24  1  0  0  0  0
  4 26  1  0  0  0  0
  5 24  2  0  0  0  0
  6  7  1  0  0  0  0
  6  9  1  0  0  0  0
  6 11  1  0  0  0  0
  7 18  2  0  0  0  0
  8 22  1  0  0  0  0
  8 23  1  0  0  0  0
  8 24  1  0  0  0  0
  9 12  2  0  0  0  0
  9 13  1  0  0  0  0
 10 11  2  0  0  0  0
 10 12  1  0  0  0  0
 10 14  1  0  0  0  0
 11 15  1  0  0  0  0
 12 17  1  0  0  0  0
 13 16  1  0  0  0  0
 15 19  2  0  0  0  0
 16 20  1  0  0  0  0
 16 21  1  0  0  0  0
 18 19  1  0  0  0  0
 20 22  1  0  0  0  0
 21 23  1  0  0  0  0
 25 27  1  0  0  0  0
 26 28  1  0  0  0  0
 28 29  2  0  0  0  0
 28 30  1  0  0  0  0
 29 31  1  0  0  0  0
 30 32  2  0  0  0  0
 31 33  2  0  0  0  0
 32 33  1  0  0  0  0
M  END
> <PUBCHEM_COMPOUND_ID_TYPE>
0

> <PUBCHEM_TOTAL_CHARGE>
0

> <PUBCHEM_SUBSTANCE_ID>
310942399

> <PUBCHEM_SUBSTANCE_VERSION>
1

> <PUBCHEM_EXT_DATASOURCE_NAME>
4488

> <PUBCHEM_EXT_DATASOURCE_REGID>
SCHEMBL16120435

> <PUBCHEM_SUBSTANCE_COMMENT>
InChI=1S/C25H27N3O5/c1-3-32-24(30)21-17(2)22(28-20(21)10-7-13-26-28)23(29)19-11-14-27(15-12-19)25(31)33-16-18-8-5-4-6-9-18/h4-10,13,19H,3,11-12,14-16H2,1-2H3
InChIKey=CQMSVJLXVHEUSZ-UHFFFAOYSA-N

> <PUBCHEM_SUBSTANCE_SYNONYM>
SCHEMBL16120435

> <PUBCHEM_XREF_EXT_ID>
SCHEMBL16120435

> <PUBCHEM_EXT_DATASOURCE_URL>
https://www.surechembl.org/

> <PUBCHEM_EXT_SUBSTANCE_URL>
https://www.surechembl.org/chemical/SCHEMBL16120435

> <PUBCHEM_CID_ASSOCIATIONS>
117609005  1

> <PUBCHEM_COORDINATE_TYPE>
1
3

$$$$
