310947035
  -OEChem-07211613022D

 43 48  0     1  0  0  0  0  0999 V2000
    0.7163   -2.2206    0.0000 S   0  0  0  0  0  0  0  0  0  0  0  0
   -3.8272    1.8522    0.0000 F   0  0  0  0  0  0  0  0  0  0  0  0
    3.3975    0.5628    0.0000 F   0  0  0  0  0  0  0  0  0  0  0  0
    4.4003    1.1564    0.0000 F   0  0  0  0  0  0  0  0  0  0  0  0
    4.9939    0.1331    0.0000 F   0  0  0  0  0  0  0  0  0  0  0  0
    0.9006   -2.9779    0.0000 O   0  0  0  0  0  0  0  0  0  0  0  0
    1.4941   -2.2821    0.0000 O   0  0  0  0  0  0  0  0  0  0  0  0
   -2.0057    2.9779    0.0000 O   0  0  0  0  0  0  0  0  0  0  0  0
   -4.2776   -1.7499    0.0000 O   0  0  0  0  0  0  0  0  0  0  0  0
   -2.7835    0.6037    0.0000 N   0  0  0  0  0  0  0  0  0  0  0  0
    0.9619   -1.4019    0.0000 N   0  0  3  0  0  0  0  0  0  0  0  0
   -2.2922   -0.0716    0.0000 N   0  0  0  0  0  0  0  0  0  0  0  0
   -2.4969   -1.7090    0.0000 N   0  0  0  0  0  0  0  0  0  0  0  0
   -4.9939   -0.4809    0.0000 N   0  0  0  0  0  0  0  0  0  0  0  0
    3.1723   -0.6652    0.0000 N   0  0  0  0  0  0  0  0  0  0  0  0
   -0.3274    1.8522    0.0000 N   0  0  0  0  0  0  0  0  0  0  0  0
   -2.4151    1.3815    0.0000 C   0  0  3  0  0  0  0  0  0  0  0  0
   -3.5407    0.3582    0.0000 C   0  0  0  0  0  0  0  0  0  0  0  0
   -3.5817   -0.4809    0.0000 C   0  0  0  0  0  0  0  0  0  0  0  0
   -2.7835   -0.7471    0.0000 C   0  0  0  0  0  0  0  0  0  0  0  0
   -0.1228   -2.2002    0.0000 C   0  0  0  0  0  0  0  0  0  0  0  0
   -0.3684   -1.4429    0.0000 C   0  0  0  0  0  0  0  0  0  0  0  0
   -3.0496    1.9955    0.0000 C   0  0  3  0  0  0  0  0  0  0  0  0
    0.2866   -0.9313    0.0000 C   0  0  0  0  0  0  0  0  0  0  0  0
   -4.2776   -0.8698    0.0000 C   0  0  0  0  0  0  0  0  0  0  0  0
   -1.7397   -1.8727    0.0000 C   0  0  0  0  0  0  0  0  0  0  0  0
   -1.6987    1.5657    0.0000 C   0  0  0  0  0  0  0  0  0  0  0  0
   -1.1871   -1.2587    0.0000 C   0  0  0  0  0  0  0  0  0  0  0  0
    1.6782   -1.1564    0.0000 C   0  0  0  0  0  0  0  0  0  0  0  0
   -4.2776    0.7675    0.0000 C   0  0  0  0  0  0  0  0  0  0  0  0
   -1.8011    0.9926    0.0000 C   0  0  0  0  0  0  0  0  0  0  0  0
   -0.6549   -2.8142    0.0000 C   0  0  0  0  0  0  0  0  0  0  0  0
   -1.4531   -2.6504    0.0000 C   0  0  0  0  0  0  0  0  0  0  0  0
   -2.8039    2.8142    0.0000 C   0  0  0  0  0  0  0  0  0  0  0  0
   -4.9939    0.3582    0.0000 C   0  0  0  0  0  0  0  0  0  0  0  0
   -1.4531    2.3844    0.0000 C   0  0  0  0  0  0  0  0  0  0  0  0
    2.3127   -1.6885    0.0000 C   0  0  0  0  0  0  0  0  0  0  0  0
    1.8829   -0.3991    0.0000 C   0  0  0  0  0  0  0  0  0  0  0  0
   -1.0029    1.1768    0.0000 C   0  0  0  0  0  0  0  0  0  0  0  0
    2.5788   -0.1535    0.0000 C   0  0  0  0  0  0  0  0  0  0  0  0
    3.0291   -1.4429    0.0000 C   0  0  0  0  0  0  0  0  0  0  0  0
    3.9706   -0.4605    0.0000 C   0  0  0  0  0  0  0  0  0  0  0  0
    4.1957    0.3582    0.0000 C   0  0  0  0  0  0  0  0  0  0  0  0
  1  6  2  0  0  0  0
  1  7  2  0  0  0  0
  1 11  1  0  0  0  0
  1 21  1  0  0  0  0
 23  2  1  6  0  0  0
  3 43  1  0  0  0  0
  4 43  1  0  0  0  0
  5 43  1  0  0  0  0
  8 34  1  0  0  0  0
  8 36  1  0  0  0  0
  9 25  2  0  0  0  0
 10 12  1  0  0  0  0
 10 17  1  0  0  0  0
 10 18  1  0  0  0  0
 11 24  1  0  0  0  0
 11 29  1  0  0  0  0
 12 20  2  0  0  0  0
 13 20  1  0  0  0  0
 13 26  1  0  0  0  0
 14 25  1  0  0  0  0
 14 35  1  0  0  0  0
 15 40  1  0  0  0  0
 15 41  1  0  0  0  0
 15 42  1  0  0  0  0
 16 39  3  0  0  0  0
 17 23  1  0  0  0  0
 17 27  1  0  0  0  0
 17 31  1  1  0  0  0
 18 19  2  0  0  0  0
 18 30  1  0  0  0  0
 19 20  1  0  0  0  0
 19 25  1  0  0  0  0
 21 22  1  0  0  0  0
 21 32  2  0  0  0  0
 22 24  1  0  0  0  0
 22 28  2  0  0  0  0
 23 34  1  0  0  0  0
 26 28  1  0  0  0  0
 26 33  2  0  0  0  0
 27 36  1  0  0  0  0
 29 37  1  0  0  0  0
 29 38  1  0  0  0  0
 30 35  2  0  0  0  0
 31 39  1  0  0  0  0
 32 33  1  0  0  0  0
 37 41  1  0  0  0  0
 38 40  1  0  0  0  0
 42 43  1  0  0  0  0
M  END
> <PUBCHEM_COMPOUND_ID_TYPE>
0

> <PUBCHEM_TOTAL_CHARGE>
0

> <PUBCHEM_SUBSTANCE_ID>
310947035

> <PUBCHEM_SUBSTANCE_VERSION>
1

> <PUBCHEM_EXT_DATASOURCE_NAME>
4488

> <PUBCHEM_EXT_DATASOURCE_REGID>
SCHEMBL16125188

> <PUBCHEM_SUBSTANCE_COMMENT>
InChI=1S/C27H29F4N7O4S/c28-22-15-42-12-7-26(22,6-8-32)38-20-3-9-33-25(39)23(20)24(35-38)34-18-1-2-21-17(13-18)14-37(43(21,40)41)19-4-10-36(11-5-19)16-27(29,30)31/h1-3,9,13,19,22H,4-7,10-12,14-16H2,(H,33,39)(H,34,35)/t22-,26+/m1/s1
InChIKey=AXLSAJBAFIAJCA-GJZUVCINSA-N

> <PUBCHEM_SUBSTANCE_SYNONYM>
SCHEMBL16125188

> <PUBCHEM_XREF_EXT_ID>
SCHEMBL16125188

> <PUBCHEM_EXT_DATASOURCE_URL>
https://www.surechembl.org/

> <PUBCHEM_EXT_SUBSTANCE_URL>
https://www.surechembl.org/chemical/SCHEMBL16125188

> <PUBCHEM_CID_ASSOCIATIONS>
117612886  1

> <PUBCHEM_COORDINATE_TYPE>
1
3

> <PUBCHEM_BONDANNOTATIONS>
17  31  5
23  2  6

$$$$
