310948515
  -OEChem-07211613022D

 29 33  0     1  0  0  0  0  0999 V2000
    2.8783   -3.4185    0.0000 Cl  0  0  0  0  0  0  0  0  0  0  0  0
   -2.1517   -2.8783    0.0000 O   0  0  0  0  0  0  0  0  0  0  0  0
   -0.6427   -0.5310    0.0000 N   0  0  0  0  0  0  0  0  0  0  0  0
   -0.1397   -1.2016    0.0000 N   0  0  0  0  0  0  0  0  0  0  0  0
   -0.3819   -2.6733    0.0000 N   0  0  0  0  0  0  0  0  0  0  0  0
   -2.8783   -1.6301    0.0000 N   0  0  0  0  0  0  0  0  0  0  0  0
    0.3446    2.6547    0.0000 N   0  0  0  0  0  0  0  0  0  0  0  0
    1.5556   -0.8104    0.0000 N   0  0  0  0  0  0  0  0  0  0  0  0
   -1.4251   -0.7917    0.0000 C   0  0  0  0  0  0  0  0  0  0  0  0
   -1.4438   -1.6114    0.0000 C   0  0  0  0  0  0  0  0  0  0  0  0
   -0.6427   -1.8723    0.0000 C   0  0  0  0  0  0  0  0  0  0  0  0
   -0.3819    0.2701    0.0000 C   0  0  3  0  0  0  0  0  0  0  0  0
   -2.1517   -2.0213    0.0000 C   0  0  0  0  0  0  0  0  0  0  0  0
    0.4378    0.4378    0.0000 C   0  0  0  0  0  0  0  0  0  0  0  0
   -2.1704   -0.3819    0.0000 C   0  0  0  0  0  0  0  0  0  0  0  0
   -0.9222    0.8849    0.0000 C   0  0  0  0  0  0  0  0  0  0  0  0
    0.1397    1.8350    0.0000 C   0  0  3  0  0  0  0  0  0  0  0  0
    0.6800    1.2389    0.0000 C   0  0  0  0  0  0  0  0  0  0  0  0
   -2.8596   -0.7731    0.0000 C   0  0  0  0  0  0  0  0  0  0  0  0
   -0.6800    1.6673    0.0000 C   0  0  0  0  0  0  0  0  0  0  0  0
    0.4378   -2.8410    0.0000 C   0  0  0  0  0  0  0  0  0  0  0  0
    1.0712    3.0832    0.0000 C   0  0  0  0  0  0  0  0  0  0  0  0
   -0.0652    3.3813    0.0000 C   0  0  0  0  0  0  0  0  0  0  0  0
    0.6986   -3.6234    0.0000 C   0  0  0  0  0  0  0  0  0  0  0  0
    0.9967   -2.2262    0.0000 C   0  0  0  0  0  0  0  0  0  0  0  0
    0.6427    3.7911    0.0000 C   0  0  0  0  0  0  0  0  0  0  0  0
    1.5370   -3.7911    0.0000 C   0  0  0  0  0  0  0  0  0  0  0  0
    1.7978   -2.4125    0.0000 C   0  0  0  0  0  0  0  0  0  0  0  0
    2.0585   -3.1763    0.0000 C   0  0  0  0  0  0  0  0  0  0  0  0
  1 29  1  0  0  0  0
  2 13  2  0  0  0  0
  3  4  1  0  0  0  0
  3  9  1  0  0  0  0
 12  3  1  1  0  0  0
  4 11  2  0  0  0  0
  5 11  1  0  0  0  0
  5 21  1  0  0  0  0
  6 13  1  0  0  0  0
  6 19  1  0  0  0  0
 17  7  1  1  0  0  0
  7 22  1  0  0  0  0
  7 23  1  0  0  0  0
  8 14  2  3  0  0  0
  9 10  2  0  0  0  0
  9 15  1  0  0  0  0
 10 11  1  0  0  0  0
 10 13  1  0  0  0  0
 12 14  1  0  0  0  0
 12 16  1  0  0  0  0
 14 18  1  0  0  0  0
 15 19  2  0  0  0  0
 16 20  1  0  0  0  0
 17 18  1  0  0  0  0
 17 20  1  0  0  0  0
 21 24  2  0  0  0  0
 21 25  1  0  0  0  0
 22 26  1  0  0  0  0
 23 26  1  0  0  0  0
 24 27  1  0  0  0  0
 25 28  2  0  0  0  0
 27 29  2  0  0  0  0
 28 29  1  0  0  0  0
M  END
> <PUBCHEM_COMPOUND_ID_TYPE>
0

> <PUBCHEM_TOTAL_CHARGE>
0

> <PUBCHEM_SUBSTANCE_ID>
310948515

> <PUBCHEM_SUBSTANCE_VERSION>
1

> <PUBCHEM_EXT_DATASOURCE_NAME>
4488

> <PUBCHEM_EXT_DATASOURCE_REGID>
SCHEMBL16126697

> <PUBCHEM_SUBSTANCE_COMMENT>
InChI=1S/C21H23ClN6O/c22-13-2-4-14(5-3-13)25-20-19-18(8-9-24-21(19)29)28(26-20)17-7-6-15(12-16(17)23)27-10-1-11-27/h2-5,8-9,15,17,23H,1,6-7,10-12H2,(H,24,29)(H,25,26)/t15-,17+/m1/s1
InChIKey=OOEUQOLRFKKZIP-WBVHZDCISA-N

> <PUBCHEM_SUBSTANCE_SYNONYM>
SCHEMBL16126697

> <PUBCHEM_XREF_EXT_ID>
SCHEMBL16126697

> <PUBCHEM_EXT_DATASOURCE_URL>
https://www.surechembl.org/

> <PUBCHEM_EXT_SUBSTANCE_URL>
https://www.surechembl.org/chemical/SCHEMBL16126697

> <PUBCHEM_CID_ASSOCIATIONS>
117614072  1

> <PUBCHEM_COORDINATE_TYPE>
1
3

> <PUBCHEM_BONDANNOTATIONS>
12  3  5
17  7  5

$$$$
