310938343
  -OEChem-07211613022D

 34 37  0     0  0  0  0  0  0999 V2000
    2.3414   -2.6652    0.0000 O   0  0  0  0  0  0  0  0  0  0  0  0
    2.1670   -2.4908    0.0000 O   0  0  0  0  0  0  0  0  0  0  0  0
    2.1670    0.0000    0.0000 O   0  0  0  0  0  0  0  0  0  0  0  0
    1.4696   -1.2454    0.0000 C   0  0  0  0  0  0  0  0  0  0  0  0
    2.8893   -1.2454    0.0000 C   0  0  0  0  0  0  0  0  0  0  0  0
    2.1670   -0.8469    0.0000 C   0  0  0  0  0  0  0  0  0  0  0  0
    1.4696   -2.0674    0.0000 C   0  0  0  0  0  0  0  0  0  0  0  0
    2.8893   -2.0923    0.0000 C   0  0  0  0  0  0  0  0  0  0  0  0
    0.7472   -0.8469    0.0000 C   0  0  0  0  0  0  0  0  0  0  0  0
    3.6117   -0.8469    0.0000 C   0  0  0  0  0  0  0  0  0  0  0  0
    3.0637   -2.2417    0.0000 C   0  0  0  0  0  0  0  0  0  0  0  0
    2.1670   -3.3377    0.0000 C   0  0  0  0  0  0  0  0  0  0  0  0
    0.7472   -2.4908    0.0000 C   0  0  0  0  0  0  0  0  0  0  0  0
    3.6117   -2.4908    0.0000 C   0  0  0  0  0  0  0  0  0  0  0  0
    3.7860   -2.6652    0.0000 C   0  0  0  0  0  0  0  0  0  0  0  0
    1.4447   -3.7362    0.0000 C   0  0  0  0  0  0  0  0  0  0  0  0
    0.0249   -1.2454    0.0000 C   0  0  0  0  0  0  0  0  0  0  0  0
    4.3340   -1.2454    0.0000 C   0  0  0  0  0  0  0  0  0  0  0  0
    0.0249   -2.0674    0.0000 C   0  0  0  0  0  0  0  0  0  0  0  0
    4.3340   -2.0923    0.0000 C   0  0  0  0  0  0  0  0  0  0  0  0
    3.0637   -1.4198    0.0000 C   0  0  0  0  0  0  0  0  0  0  0  0
    2.8645   -3.7362    0.0000 C   0  0  0  0  0  0  0  0  0  0  0  0
    4.5084   -2.2417    0.0000 C   0  0  0  0  0  0  0  0  0  0  0  0
    1.4447   -4.5582    0.0000 C   0  0  0  0  0  0  0  0  0  0  0  0
    3.6366   -3.3377    0.0000 C   0  0  0  0  0  0  0  0  0  0  0  0
    0.7223   -3.3377    0.0000 C   0  0  0  0  0  0  0  0  0  0  0  0
    3.7860   -1.0212    0.0000 C   0  0  0  0  0  0  0  0  0  0  0  0
    2.8645   -4.5582    0.0000 C   0  0  0  0  0  0  0  0  0  0  0  0
    4.5084   -1.4198    0.0000 C   0  0  0  0  0  0  0  0  0  0  0  0
    2.1421   -4.9816    0.0000 C   0  0  0  0  0  0  0  0  0  0  0  0
    4.3589   -3.7362    0.0000 C   0  0  0  0  0  0  0  0  0  0  0  0
    0.0000   -3.7612    0.0000 C   0  0  0  0  0  0  0  0  0  0  0  0
    5.0564   -3.3377    0.0000 C   0  0  0  0  0  0  0  0  0  0  0  0
    0.0000   -4.5831    0.0000 C   0  0  0  0  0  0  0  0  0  0  0  0
  1  7  1  0  0  0  0
  1 11  1  0  0  0  0
  2  8  1  0  0  0  0
  2 12  1  0  0  0  0
  3  6  2  0  0  0  0
  4  6  1  0  0  0  0
  4  7  2  0  0  0  0
  4  9  1  0  0  0  0
  5  6  1  0  0  0  0
  5  8  1  0  0  0  0
  5 10  2  0  0  0  0
  7 13  1  0  0  0  0
  8 14  2  0  0  0  0
  9 17  2  0  0  0  0
 10 18  1  0  0  0  0
 11 15  2  0  0  0  0
 11 21  1  0  0  0  0
 12 16  2  0  0  0  0
 12 22  1  0  0  0  0
 13 19  2  0  0  0  0
 14 20  1  0  0  0  0
 15 23  1  0  0  0  0
 15 25  1  0  0  0  0
 16 24  1  0  0  0  0
 16 26  1  0  0  0  0
 17 19  1  0  0  0  0
 18 20  2  0  0  0  0
 21 27  2  0  0  0  0
 22 28  2  0  0  0  0
 23 29  2  0  0  0  0
 24 30  2  0  0  0  0
 25 31  2  0  0  0  0
 26 32  2  0  0  0  0
 27 29  1  0  0  0  0
 28 30  1  0  0  0  0
 31 33  1  0  0  0  0
 32 34  1  0  0  0  0
M  END
> <PUBCHEM_COMPOUND_ID_TYPE>
0

> <PUBCHEM_TOTAL_CHARGE>
0

> <PUBCHEM_SUBSTANCE_ID>
310938343

> <PUBCHEM_SUBSTANCE_VERSION>
1

> <PUBCHEM_EXT_DATASOURCE_NAME>
4488

> <PUBCHEM_EXT_DATASOURCE_REGID>
SCHEMBL16116225

> <PUBCHEM_SUBSTANCE_COMMENT>
InChI=1S/C31H26O3/c1-3-13-23-15-5-9-19-27(23)33-29-21-11-7-17-25(29)31(32)26-18-8-12-22-30(26)34-28-20-10-6-16-24(28)14-4-2/h3-22H,1-2H3/b13-3-,14-4-
InChIKey=OBJPQFSLYXPTFH-JJNPTMGBSA-N

> <PUBCHEM_SUBSTANCE_SYNONYM>
SCHEMBL16116225

> <PUBCHEM_XREF_EXT_ID>
SCHEMBL16116225

> <PUBCHEM_EXT_DATASOURCE_URL>
https://www.surechembl.org/

> <PUBCHEM_EXT_SUBSTANCE_URL>
https://www.surechembl.org/chemical/SCHEMBL16116225

> <PUBCHEM_CID_ASSOCIATIONS>
117605830  1

> <PUBCHEM_COORDINATE_TYPE>
1
3

$$$$
