310933000
  -OEChem-07211613022D

 33 37  0     1  0  0  0  0  0999 V2000
    5.7432   -1.3327    0.0000 O   0  0  0  0  0  0  0  0  0  0  0  0
    1.6500   -3.0461    0.0000 O   0  0  0  0  0  0  0  0  0  0  0  0
    5.3624   -2.7288    0.0000 N   0  0  0  0  0  0  0  0  0  0  0  0
    1.8086   -1.6183    0.0000 N   0  0  0  0  0  0  0  0  0  0  0  0
    5.7750   -3.4586    0.0000 N   0  0  0  0  0  0  0  0  0  0  0  0
    4.0932   -3.3000    0.0000 N   0  0  0  0  0  0  0  0  0  0  0  0
    0.5394   -2.7923    0.0000 N   0  0  0  0  0  0  0  0  0  0  0  0
    9.5191    0.0000    0.0000 N   0  0  0  0  0  0  0  0  0  0  0  0
    5.9019   -2.1259    0.0000 C   0  0  0  0  0  0  0  0  0  0  0  0
    6.6634   -2.4750    0.0000 C   0  0  0  0  0  0  0  0  0  0  0  0
    4.5692   -2.6653    0.0000 C   0  0  0  0  0  0  0  0  0  0  0  0
    7.3615   -2.0625    0.0000 C   0  0  0  0  0  0  0  0  0  0  0  0
    2.9510   -2.4750    0.0000 C   0  0  0  0  0  0  0  0  0  0  0  0
    2.1259   -2.3798    0.0000 C   0  0  0  0  0  0  0  0  0  0  0  0
    6.5682   -3.2682    0.0000 C   0  0  0  0  0  0  0  0  0  0  0  0
    0.9837   -1.4596    0.0000 C   0  0  3  0  0  0  0  0  0  0  0  0
    4.2519   -1.9038    0.0000 C   0  0  0  0  0  0  0  0  0  0  0  0
    3.2682   -3.2365    0.0000 C   0  0  0  0  0  0  0  0  0  0  0  0
    3.3952   -1.8404    0.0000 C   0  0  0  0  0  0  0  0  0  0  0  0
    2.2212   -0.9202    0.0000 C   0  0  0  0  0  0  0  0  0  0  0  0
    7.3615   -1.2375    0.0000 C   0  0  0  0  0  0  0  0  0  0  0  0
    8.0913   -2.4750    0.0000 C   0  0  0  0  0  0  0  0  0  0  0  0
    0.9202   -0.6346    0.0000 C   0  0  0  0  0  0  0  0  0  0  0  0
    0.3808   -1.9990    0.0000 C   0  0  0  0  0  0  0  0  0  0  0  0
    1.6817   -0.3173    0.0000 C   0  0  0  0  0  0  0  0  0  0  0  0
    8.7893   -1.2375    0.0000 C   0  0  0  0  0  0  0  0  0  0  0  0
    8.0913   -0.8250    0.0000 C   0  0  0  0  0  0  0  0  0  0  0  0
    8.7893   -2.0625    0.0000 C   0  0  0  0  0  0  0  0  0  0  0  0
    1.3010   -3.1413    0.0000 C   0  0  0  0  0  0  0  0  0  0  0  0
    0.0000   -3.4269    0.0000 C   0  0  0  0  0  0  0  0  0  0  0  0
    9.5191   -0.8250    0.0000 C   0  0  0  0  0  0  0  0  0  0  0  0
    1.1740   -3.9663    0.0000 C   0  0  0  0  0  0  0  0  0  0  0  0
    0.4125   -4.1250    0.0000 C   0  0  0  0  0  0  0  0  0  0  0  0
  1  9  1  0  0  0  0
  2 14  2  0  0  0  0
  3  5  1  0  0  0  0
  3  9  1  0  0  0  0
  3 11  1  0  0  0  0
  4 14  1  0  0  0  0
  4 16  1  0  0  0  0
  4 20  1  0  0  0  0
  5 15  2  0  0  0  0
  6 11  1  0  0  0  0
  6 18  2  0  0  0  0
  7 24  1  0  0  0  0
  7 29  1  0  0  0  0
  7 30  1  0  0  0  0
  8 31  3  0  0  0  0
  9 10  2  0  0  0  0
 10 12  1  0  0  0  0
 10 15  1  0  0  0  0
 11 17  2  0  0  0  0
 12 21  2  0  0  0  0
 12 22  1  0  0  0  0
 13 14  1  0  0  0  0
 13 18  1  0  0  0  0
 13 19  2  0  0  0  0
 16 23  1  0  0  0  0
 16 24  1  6  0  0  0
 17 19  1  0  0  0  0
 20 25  1  0  0  0  0
 21 27  1  0  0  0  0
 22 28  2  0  0  0  0
 23 25  1  0  0  0  0
 26 27  2  0  0  0  0
 26 28  1  0  0  0  0
 26 31  1  0  0  0  0
 29 32  1  0  0  0  0
 30 33  1  0  0  0  0
 32 33  1  0  0  0  0
M  END
> <PUBCHEM_COMPOUND_ID_TYPE>
0

> <PUBCHEM_TOTAL_CHARGE>
0

> <PUBCHEM_SUBSTANCE_ID>
310933000

> <PUBCHEM_SUBSTANCE_VERSION>
1

> <PUBCHEM_EXT_DATASOURCE_NAME>
4488

> <PUBCHEM_EXT_DATASOURCE_REGID>
SCHEMBL16110398

> <PUBCHEM_SUBSTANCE_COMMENT>
InChI=1S/C25H26N6O2/c26-14-18-5-7-19(8-6-18)22-16-28-31(25(22)33)23-10-9-20(15-27-23)24(32)30-13-3-4-21(30)17-29-11-1-2-12-29/h5-10,15-16,21,33H,1-4,11-13,17H2/t21-/m0/s1
InChIKey=IYTZTPFDIOGXJI-NRFANRHFSA-N

> <PUBCHEM_SUBSTANCE_SYNONYM>
SCHEMBL16110398

> <PUBCHEM_XREF_EXT_ID>
SCHEMBL16110398

> <PUBCHEM_EXT_DATASOURCE_URL>
https://www.surechembl.org/

> <PUBCHEM_EXT_SUBSTANCE_URL>
https://www.surechembl.org/chemical/SCHEMBL16110398

> <PUBCHEM_CID_ASSOCIATIONS>
117601471  1

> <PUBCHEM_COORDINATE_TYPE>
1
3

> <PUBCHEM_BONDANNOTATIONS>
16  24  6

$$$$
