310941150
  -OEChem-07211613022D

  8  9  0     1  0  0  0  0  0999 V2000
    1.7333   -0.0085    0.0000 O   0  0  0  0  0  0  0  0  0  0  0  0
   -0.4758   -0.3993    0.0000 C   0  0  3  0  0  0  0  0  0  0  0  0
   -0.4078    0.3993    0.0000 C   0  0  3  0  0  0  0  0  0  0  0  0
    0.2378    0.0085    0.0000 C   0  0  3  0  0  0  0  0  0  0  0  0
   -1.2405   -0.6713    0.0000 C   0  0  0  0  0  0  0  0  0  0  0  0
   -1.2405    0.6882    0.0000 C   0  0  0  0  0  0  0  0  0  0  0  0
    1.0365    0.4333    0.0000 C   0  0  0  0  0  0  0  0  0  0  0  0
   -1.7333   -0.0085    0.0000 C   0  0  0  0  0  0  0  0  0  0  0  0
  1  7  2  0  0  0  0
  2  3  1  0  0  0  0
  2  4  1  0  0  0  0
  2  5  1  1  0  0  0
  3  4  1  0  0  0  0
  3  6  1  1  0  0  0
  4  7  1  1  0  0  0
  5  8  2  0  0  0  0
  6  8  1  0  0  0  0
M  END
> <PUBCHEM_COMPOUND_ID_TYPE>
0

> <PUBCHEM_TOTAL_CHARGE>
0

> <PUBCHEM_SUBSTANCE_ID>
310941150

> <PUBCHEM_SUBSTANCE_VERSION>
1

> <PUBCHEM_EXT_DATASOURCE_NAME>
4488

> <PUBCHEM_EXT_DATASOURCE_REGID>
SCHEMBL16119110

> <PUBCHEM_SUBSTANCE_COMMENT>
InChI=1S/C7H8O/c8-4-7-5-2-1-3-6(5)7/h1-2,4-7H,3H2/t5-,6+,7-/m0/s1
InChIKey=DVZTVIVLAFIUFZ-XVMARJQXSA-N

> <PUBCHEM_SUBSTANCE_SYNONYM>
SCHEMBL16119110

> <PUBCHEM_XREF_EXT_ID>
SCHEMBL16119110

> <PUBCHEM_EXT_DATASOURCE_URL>
https://www.surechembl.org/

> <PUBCHEM_EXT_SUBSTANCE_URL>
https://www.surechembl.org/chemical/SCHEMBL16119110

> <PUBCHEM_CID_ASSOCIATIONS>
12251054  1

> <PUBCHEM_COORDINATE_TYPE>
1
3

> <PUBCHEM_BONDANNOTATIONS>
2  5  5
3  6  5
4  7  5

$$$$
