310938147
  -OEChem-07211613022D

 15 16  0     0  0  0  0  0  0999 V2000
    0.0000   -1.4730    0.0000 Cl  0  0  0  0  0  0  0  0  0  0  0  0
    5.3240   -2.9104    0.0000 O   0  0  0  0  0  0  0  0  0  0  0  0
    3.6203   -2.8572    0.0000 N   0  0  0  0  0  0  0  0  0  0  0  0
    0.8518   -0.3549    0.0000 N   0  0  0  0  0  0  0  0  0  0  0  0
    5.3240   -1.4730    0.0000 N   0  0  0  0  0  0  0  0  0  0  0  0
    2.8394   -1.7924    0.0000 C   0  0  0  0  0  0  0  0  0  0  0  0
    2.1651   -1.3132    0.0000 C   0  0  0  0  0  0  0  0  0  0  0  0
    4.0994   -2.1828    0.0000 C   0  0  0  0  0  0  0  0  0  0  0  0
    3.6203   -1.5262    0.0000 C   0  0  0  0  0  0  0  0  0  0  0  0
    2.8394   -2.5910    0.0000 C   0  0  0  0  0  0  0  0  0  0  0  0
    1.4197   -1.6682    0.0000 C   0  0  0  0  0  0  0  0  0  0  0  0
    4.9158   -2.1828    0.0000 C   0  0  0  0  0  0  0  0  0  0  0  0
    2.2538   -0.5146    0.0000 C   0  0  0  0  0  0  0  0  0  0  0  0
    0.7454   -1.1535    0.0000 C   0  0  0  0  0  0  0  0  0  0  0  0
    1.5972    0.0000    0.0000 C   0  0  0  0  0  0  0  0  0  0  0  0
  1 14  1  0  0  0  0
  2 12  2  0  0  0  0
  3  8  1  0  0  0  0
  3 10  1  0  0  0  0
  4 14  1  0  0  0  0
  4 15  2  0  0  0  0
  5 12  1  0  0  0  0
  6  7  1  0  0  0  0
  6  9  1  0  0  0  0
  6 10  2  0  0  0  0
  7 11  1  0  0  0  0
  7 13  2  0  0  0  0
  8  9  2  0  0  0  0
  8 12  1  0  0  0  0
 11 14  2  0  0  0  0
 13 15  1  0  0  0  0
M  END
> <PUBCHEM_COMPOUND_ID_TYPE>
0

> <PUBCHEM_TOTAL_CHARGE>
0

> <PUBCHEM_SUBSTANCE_ID>
310938147

> <PUBCHEM_SUBSTANCE_VERSION>
1

> <PUBCHEM_EXT_DATASOURCE_NAME>
4488

> <PUBCHEM_EXT_DATASOURCE_REGID>
SCHEMBL16115998

> <PUBCHEM_SUBSTANCE_COMMENT>
InChI=1S/C10H8ClN3O/c11-9-4-6(1-2-13-9)7-3-8(10(12)15)14-5-7/h1-5,14H,(H2,12,15)
InChIKey=GLMONEKFMMSNBB-UHFFFAOYSA-N

> <PUBCHEM_SUBSTANCE_SYNONYM>
SCHEMBL16115998

> <PUBCHEM_XREF_EXT_ID>
SCHEMBL16115998

> <PUBCHEM_EXT_DATASOURCE_URL>
https://www.surechembl.org/

> <PUBCHEM_EXT_SUBSTANCE_URL>
https://www.surechembl.org/chemical/SCHEMBL16115998

> <PUBCHEM_CID_ASSOCIATIONS>
86275228  1

> <PUBCHEM_COORDINATE_TYPE>
1
3

$$$$
