310944883
  -OEChem-07211613022D

 37 41  0     0  0  0  0  0  0999 V2000
   -0.7092    2.5620    0.0000 Cl  0  0  0  0  0  0  0  0  0  0  0  0
   -4.0956   -1.2322    0.0000 S   0  0  0  0  0  0  0  0  0  0  0  0
    2.4822    2.5620    0.0000 O   0  0  0  0  0  0  0  0  0  0  0  0
    3.9360   -2.4024    0.0000 O   0  0  0  0  0  0  0  0  0  0  0  0
    4.6630   -1.1613    0.0000 O   0  0  0  0  0  0  0  0  0  0  0  0
   -4.2374   -2.5620    0.0000 N   0  0  0  0  0  0  0  0  0  0  0  0
   -0.4255    0.8954    0.0000 C   0  0  0  0  0  0  0  0  0  0  0  0
   -0.4433    0.0621    0.0000 C   0  0  0  0  0  0  0  0  0  0  0  0
    0.2837    1.3032    0.0000 C   0  0  0  0  0  0  0  0  0  0  0  0
   -1.1702    1.3209    0.0000 C   0  0  0  0  0  0  0  0  0  0  0  0
   -1.1524   -0.3457    0.0000 C   0  0  0  0  0  0  0  0  0  0  0  0
    0.3014   -0.3457    0.0000 C   0  0  0  0  0  0  0  0  0  0  0  0
    0.3014    2.1365    0.0000 C   0  0  0  0  0  0  0  0  0  0  0  0
    1.0106    0.9131    0.0000 C   0  0  0  0  0  0  0  0  0  0  0  0
   -1.9503    1.1081    0.0000 C   0  0  0  0  0  0  0  0  0  0  0  0
   -1.3652    2.0833    0.0000 C   0  0  0  0  0  0  0  0  0  0  0  0
   -1.8616    0.0444    0.0000 C   0  0  0  0  0  0  0  0  0  0  0  0
   -1.1702   -1.1790    0.0000 C   0  0  0  0  0  0  0  0  0  0  0  0
    0.3014   -1.1790    0.0000 C   0  0  0  0  0  0  0  0  0  0  0  0
    1.0461    0.0444    0.0000 C   0  0  0  0  0  0  0  0  0  0  0  0
   -2.6240   -1.1790    0.0000 C   0  0  0  0  0  0  0  0  0  0  0  0
   -2.1630    1.8883    0.0000 C   0  0  0  0  0  0  0  0  0  0  0  0
    1.0283    2.5265    0.0000 C   0  0  0  0  0  0  0  0  0  0  0  0
    1.7553    2.1365    0.0000 C   0  0  0  0  0  0  0  0  0  0  0  0
   -2.5886   -0.3457    0.0000 C   0  0  0  0  0  0  0  0  0  0  0  0
   -1.8971   -1.5691    0.0000 C   0  0  0  0  0  0  0  0  0  0  0  0
    1.7376    1.3032    0.0000 C   0  0  0  0  0  0  0  0  0  0  0  0
   -3.3332   -1.5869    0.0000 C   0  0  0  0  0  0  0  0  0  0  0  0
    1.7376   -1.1613    0.0000 C   0  0  0  0  0  0  0  0  0  0  0  0
    1.0106   -1.5691    0.0000 C   0  0  0  0  0  0  0  0  0  0  0  0
    1.7376   -0.3457    0.0000 C   0  0  0  0  0  0  0  0  0  0  0  0
   -3.4219   -2.4202    0.0000 C   0  0  0  0  0  0  0  0  0  0  0  0
    2.4645   -1.5869    0.0000 C   0  0  0  0  0  0  0  0  0  0  0  0
   -4.6630   -1.8705    0.0000 C   0  0  0  0  0  0  0  0  0  0  0  0
    3.2091   -1.1790    0.0000 C   0  0  0  0  0  0  0  0  0  0  0  0
    3.2268    2.1365    0.0000 C   0  0  0  0  0  0  0  0  0  0  0  0
    3.9360   -1.5691    0.0000 C   0  0  0  0  0  0  0  0  0  0  0  0
  1 13  1  0  0  0  0
  2 28  1  0  0  0  0
  2 34  1  0  0  0  0
  3 24  1  0  0  0  0
  3 36  1  0  0  0  0
  4 37  2  0  0  0  0
  5 37  1  0  0  0  0
  6 32  1  0  0  0  0
  6 34  2  0  0  0  0
  7  8  2  0  0  0  0
  7  9  1  0  0  0  0
  7 10  1  0  0  0  0
  8 11  1  0  0  0  0
  8 12  1  0  0  0  0
  9 13  1  0  0  0  0
  9 14  2  0  0  0  0
 10 15  1  0  0  0  0
 10 16  1  0  0  0  0
 11 17  2  0  0  0  0
 11 18  1  0  0  0  0
 12 19  2  0  0  0  0
 12 20  1  0  0  0  0
 13 23  2  0  0  0  0
 14 27  1  0  0  0  0
 15 22  1  0  0  0  0
 16 22  1  0  0  0  0
 17 25  1  0  0  0  0
 18 26  2  0  0  0  0
 19 30  1  0  0  0  0
 20 31  2  0  0  0  0
 21 25  2  0  0  0  0
 21 26  1  0  0  0  0
 21 28  1  0  0  0  0
 23 24  1  0  0  0  0
 24 27  2  0  0  0  0
 28 32  2  0  0  0  0
 29 30  2  0  0  0  0
 29 31  1  0  0  0  0
 29 33  1  0  0  0  0
 33 35  2  0  0  0  0
 35 37  1  0  0  0  0
M  END
> <PUBCHEM_COMPOUND_ID_TYPE>
0

> <PUBCHEM_TOTAL_CHARGE>
0

> <PUBCHEM_SUBSTANCE_ID>
310944883

> <PUBCHEM_SUBSTANCE_VERSION>
1

> <PUBCHEM_EXT_DATASOURCE_NAME>
4488

> <PUBCHEM_EXT_DATASOURCE_REGID>
SCHEMBL16122967

> <PUBCHEM_SUBSTANCE_COMMENT>
InChI=1S/C31H26ClNO3S/c1-36-25-14-15-26(27(32)17-25)31(22-3-2-4-22)30(23-8-5-20(6-9-23)7-16-29(34)35)24-12-10-21(11-13-24)28-18-33-19-37-28/h5-19,22H,2-4H2,1H3,(H,34,35)/b16-7+,31-30+
InChIKey=APRCULKIVDYADT-SUHJSEOXSA-N

> <PUBCHEM_SUBSTANCE_SYNONYM>
SCHEMBL16122967

> <PUBCHEM_XREF_EXT_ID>
SCHEMBL16122967

> <PUBCHEM_EXT_DATASOURCE_URL>
https://www.surechembl.org/

> <PUBCHEM_EXT_SUBSTANCE_URL>
https://www.surechembl.org/chemical/SCHEMBL16122967

> <PUBCHEM_CID_ASSOCIATIONS>
86271833  1

> <PUBCHEM_COORDINATE_TYPE>
1
3

$$$$
