310931274
  -OEChem-07211613022D

 33 35  0     1  0  0  0  0  0999 V2000
    2.0908   -4.5505    0.0000 F   0  0  0  0  0  0  0  0  0  0  0  0
    0.6764   -3.6896    0.0000 O   0  0  0  0  0  0  0  0  0  0  0  0
    0.0000   -7.3791    0.0000 O   0  0  0  0  0  0  0  0  0  0  0  0
    0.6764  -11.0687    0.0000 O   0  0  0  0  0  0  0  0  0  0  0  0
    1.4143   -9.8388    0.0000 N   0  0  0  0  0  0  0  0  0  0  0  0
    1.4143   -8.2401    0.0000 N   0  0  0  0  0  0  0  0  0  0  0  0
    2.0908  -11.0687    0.0000 N   0  0  0  0  0  0  0  0  0  0  0  0
    2.0908   -1.2299    0.0000 N   0  0  3  0  0  0  0  0  0  0  0  0
    0.6764   -6.1493    0.0000 C   0  0  0  0  0  0  0  0  0  0  0  0
    0.6764   -7.0102    0.0000 C   0  0  0  0  0  0  0  0  0  0  0  0
    0.6764   -4.5505    0.0000 C   0  0  0  0  0  0  0  0  0  0  0  0
    1.4143   -4.9194    0.0000 C   0  0  0  0  0  0  0  0  0  0  0  0
    1.4143   -5.7803    0.0000 C   0  0  0  0  0  0  0  0  0  0  0  0
    1.4143  -10.6997    0.0000 C   0  0  0  0  0  0  0  0  0  0  0  0
    1.4143   -7.3791    0.0000 C   0  0  0  0  0  0  0  0  0  0  0  0
    0.0000   -5.7803    0.0000 C   0  0  0  0  0  0  0  0  0  0  0  0
    0.0000   -4.9194    0.0000 C   0  0  0  0  0  0  0  0  0  0  0  0
    2.0908   -9.4699    0.0000 C   0  0  0  0  0  0  0  0  0  0  0  0
    0.6764   -9.4699    0.0000 C   0  0  0  0  0  0  0  0  0  0  0  0
    0.6764   -8.6090    0.0000 C   0  0  0  0  0  0  0  0  0  0  0  0
    2.0908   -8.6090    0.0000 C   0  0  0  0  0  0  0  0  0  0  0  0
    1.4758   -0.7994    0.0000 C   0  0  3  0  0  0  0  0  0  0  0  0
    1.4143   -3.3206    0.0000 C   0  0  0  0  0  0  0  0  0  0  0  0
    2.0908  -11.8681    0.0000 C   0  0  0  0  0  0  0  0  0  0  0  0
    2.8287  -10.6382    0.0000 C   0  0  0  0  0  0  0  0  0  0  0  0
    2.0908   -2.0908    0.0000 C   0  0  0  0  0  0  0  0  0  0  0  0
    2.7672   -0.7994    0.0000 C   0  0  0  0  0  0  0  0  0  0  0  0
    1.4143   -2.5212    0.0000 C   0  0  0  0  0  0  0  0  0  0  0  0
    1.7218    0.0000    0.0000 C   0  0  0  0  0  0  0  0  0  0  0  0
    2.5212    0.0000    0.0000 C   0  0  0  0  0  0  0  0  0  0  0  0
    0.6764   -1.0454    0.0000 C   0  0  0  0  0  0  0  0  0  0  0  0
    2.8287  -12.2985    0.0000 C   0  0  0  0  0  0  0  0  0  0  0  0
    2.7672   -9.8388    0.0000 C   0  0  0  0  0  0  0  0  0  0  0  0
  1 12  1  0  0  0  0
  2 11  1  0  0  0  0
  2 23  1  0  0  0  0
  3 10  2  0  0  0  0
  4 14  2  0  0  0  0
  5 14  1  0  0  0  0
  5 18  1  0  0  0  0
  5 19  1  0  0  0  0
  6 15  1  0  0  0  0
  6 20  1  0  0  0  0
  6 21  1  0  0  0  0
  7 14  1  0  0  0  0
  7 24  1  0  0  0  0
  7 25  1  0  0  0  0
  8 22  1  0  0  0  0
  8 26  1  0  0  0  0
  8 27  1  0  0  0  0
  9 10  1  0  0  0  0
  9 13  1  0  0  0  0
  9 16  2  0  0  0  0
 10 15  1  0  0  0  0
 11 12  1  0  0  0  0
 11 17  2  0  0  0  0
 12 13  2  0  0  0  0
 16 17  1  0  0  0  0
 18 21  1  0  0  0  0
 19 20  1  0  0  0  0
 22 29  1  0  0  0  0
 22 31  1  6  0  0  0
 23 28  1  0  0  0  0
 24 32  1  0  0  0  0
 25 33  1  0  0  0  0
 26 28  1  0  0  0  0
 27 30  1  0  0  0  0
 29 30  1  0  0  0  0
M  END
> <PUBCHEM_COMPOUND_ID_TYPE>
0

> <PUBCHEM_TOTAL_CHARGE>
0

> <PUBCHEM_SUBSTANCE_ID>
310931274

> <PUBCHEM_SUBSTANCE_VERSION>
1

> <PUBCHEM_EXT_DATASOURCE_NAME>
4488

> <PUBCHEM_EXT_DATASOURCE_REGID>
SCHEMBL16108589

> <PUBCHEM_SUBSTANCE_COMMENT>
InChI=1S/C25H39FN4O3/c1-4-28(5-2)25(32)30-15-13-27(14-16-30)19-23(31)21-9-10-24(22(26)18-21)33-17-7-12-29-11-6-8-20(29)3/h9-10,18,20H,4-8,11-17,19H2,1-3H3/t20-/m1/s1
InChIKey=SBACBDLLOWGHNX-HXUWFJFHSA-N

> <PUBCHEM_SUBSTANCE_SYNONYM>
SCHEMBL16108589

> <PUBCHEM_XREF_EXT_ID>
SCHEMBL16108589

> <PUBCHEM_EXT_DATASOURCE_URL>
https://www.surechembl.org/

> <PUBCHEM_EXT_SUBSTANCE_URL>
https://www.surechembl.org/chemical/SCHEMBL16108589

> <PUBCHEM_CID_ASSOCIATIONS>
117600101  1

> <PUBCHEM_COORDINATE_TYPE>
1
3

> <PUBCHEM_BONDANNOTATIONS>
22  31  6

$$$$
