310940491
  -OEChem-07211613022D

 27 30  0     0  0  0  0  0  0999 V2000
    0.5361    2.6290    0.0000 F   0  0  0  0  0  0  0  0  0  0  0  0
    0.8660    1.5568    0.0000 F   0  0  0  0  0  0  0  0  0  0  0  0
   -0.2268    1.2269    0.0000 F   0  0  0  0  0  0  0  0  0  0  0  0
   -2.0001   -1.8249    0.0000 O   0  0  0  0  0  0  0  0  0  0  0  0
   -1.2578   -0.5671    0.0000 N   0  0  0  0  0  0  0  0  0  0  0  0
    0.2062   -1.2681    0.0000 N   0  0  0  0  0  0  0  0  0  0  0  0
    0.7629   -3.5363    0.0000 N   0  0  0  0  0  0  0  0  0  0  0  0
   -0.5361   -1.8249    0.0000 C   0  0  0  0  0  0  0  0  0  0  0  0
   -1.2784    1.9279    0.0000 C   0  0  0  0  0  0  0  0  0  0  0  0
   -0.5774    2.3403    0.0000 C   0  0  0  0  0  0  0  0  0  0  0  0
   -1.2784   -1.3918    0.0000 C   0  0  0  0  0  0  0  0  0  0  0  0
   -1.2784    1.1032    0.0000 C   0  0  0  0  0  0  0  0  0  0  0  0
    0.2887   -2.8146    0.0000 C   0  0  0  0  0  0  0  0  0  0  0  0
    0.7423   -2.0929    0.0000 C   0  0  0  0  0  0  0  0  0  0  0  0
   -0.4536   -2.6496    0.0000 C   0  0  0  0  0  0  0  0  0  0  0  0
    0.1443    1.9279    0.0000 C   0  0  0  0  0  0  0  0  0  0  0  0
   -0.5568    0.6701    0.0000 C   0  0  0  0  0  0  0  0  0  0  0  0
   -1.9589    0.6907    0.0000 C   0  0  0  0  0  0  0  0  0  0  0  0
   -0.5774   -0.1959    0.0000 C   0  0  0  0  0  0  0  0  0  0  0  0
   -1.9795   -0.1546    0.0000 C   0  0  0  0  0  0  0  0  0  0  0  0
   -1.9795    2.3198    0.0000 C   0  0  0  0  0  0  0  0  0  0  0  0
   -0.5774    3.1651    0.0000 C   0  0  0  0  0  0  0  0  0  0  0  0
    1.6083   -2.1341    0.0000 C   0  0  0  0  0  0  0  0  0  0  0  0
   -2.0001    3.1445    0.0000 C   0  0  0  0  0  0  0  0  0  0  0  0
   -1.2991    3.5570    0.0000 C   0  0  0  0  0  0  0  0  0  0  0  0
    1.5878   -3.5570    0.0000 C   0  0  0  0  0  0  0  0  0  0  0  0
    2.0001   -2.8146    0.0000 C   0  0  0  0  0  0  0  0  0  0  0  0
  1 16  1  0  0  0  0
  2 16  1  0  0  0  0
  3 16  1  0  0  0  0
  4 11  2  0  0  0  0
  5 11  1  0  0  0  0
  5 19  1  0  0  0  0
  5 20  1  0  0  0  0
  6  8  1  0  0  0  0
  6 14  1  0  0  0  0
  7 13  1  0  0  0  0
  7 26  2  0  0  0  0
  8 11  1  0  0  0  0
  8 15  2  0  0  0  0
  9 10  1  0  0  0  0
  9 12  1  0  0  0  0
  9 21  2  0  0  0  0
 10 16  1  0  0  0  0
 10 22  2  0  0  0  0
 12 17  1  0  0  0  0
 12 18  1  0  0  0  0
 13 14  2  0  0  0  0
 13 15  1  0  0  0  0
 14 23  1  0  0  0  0
 17 19  1  0  0  0  0
 18 20  1  0  0  0  0
 21 24  1  0  0  0  0
 22 25  1  0  0  0  0
 23 27  2  0  0  0  0
 24 25  2  0  0  0  0
 26 27  1  0  0  0  0
M  END
> <PUBCHEM_COMPOUND_ID_TYPE>
0

> <PUBCHEM_TOTAL_CHARGE>
0

> <PUBCHEM_SUBSTANCE_ID>
310940491

> <PUBCHEM_SUBSTANCE_VERSION>
1

> <PUBCHEM_EXT_DATASOURCE_NAME>
4488

> <PUBCHEM_EXT_DATASOURCE_REGID>
SCHEMBL16118444

> <PUBCHEM_SUBSTANCE_COMMENT>
InChI=1S/C20H18F3N3O/c21-20(22,23)15-5-2-1-4-14(15)13-7-10-26(11-8-13)19(27)18-12-17-16(25-18)6-3-9-24-17/h1-6,9,12-13,25H,7-8,10-11H2
InChIKey=DYEQISQTKRFFHD-UHFFFAOYSA-N

> <PUBCHEM_SUBSTANCE_SYNONYM>
SCHEMBL16118444

> <PUBCHEM_XREF_EXT_ID>
SCHEMBL16118444

> <PUBCHEM_EXT_DATASOURCE_URL>
https://www.surechembl.org/

> <PUBCHEM_EXT_SUBSTANCE_URL>
https://www.surechembl.org/chemical/SCHEMBL16118444

> <PUBCHEM_CID_ASSOCIATIONS>
117607506  1

> <PUBCHEM_COORDINATE_TYPE>
1
3

$$$$
