310945778
  -OEChem-07211613022D

 42 45  0     1  0  0  0  0  0999 V2000
    5.0925    0.6675    0.0000 O   0  0  0  0  0  0  0  0  0  0  0  0
    3.9501   -1.2731    0.0000 O   0  0  0  0  0  0  0  0  0  0  0  0
    1.8030    0.7776    0.0000 O   0  0  0  0  0  0  0  0  0  0  0  0
   -0.3441   -1.2731    0.0000 O   0  0  0  0  0  0  0  0  0  0  0  0
    3.9501   -2.9247    0.0000 O   0  0  0  0  0  0  0  0  0  0  0  0
   -2.4912    0.7776    0.0000 O   0  0  0  0  0  0  0  0  0  0  0  0
   -5.3678    0.7776    0.0000 O   0  0  0  0  0  0  0  0  0  0  0  0
    2.5325   -0.4473    0.0000 N   0  0  0  0  0  0  0  0  0  0  0  0
    0.3716   -0.0344    0.0000 N   0  0  0  0  0  0  0  0  0  0  0  0
   -3.9226   -0.0344    0.0000 N   0  0  0  0  0  0  0  0  0  0  0  0
    4.6658   -0.0069    0.0000 C   0  0  3  0  0  0  0  0  0  0  0  0
    3.9501   -0.4336    0.0000 C   0  0  0  0  0  0  0  0  0  0  0  0
    4.2804    0.6813    0.0000 C   0  0  0  0  0  0  0  0  0  0  0  0
    3.2482   -0.0206    0.0000 C   0  0  3  0  0  0  0  0  0  0  0  0
    5.3678   -0.4198    0.0000 C   0  0  0  0  0  0  0  0  0  0  0  0
    3.2482    1.2869    0.0000 C   0  0  0  0  0  0  0  0  0  0  0  0
    1.8030   -0.0482    0.0000 C   0  0  0  0  0  0  0  0  0  0  0  0
    1.1148   -0.4336    0.0000 C   0  0  3  0  0  0  0  0  0  0  0  0
    2.5187    1.7135    0.0000 C   0  0  0  0  0  0  0  0  0  0  0  0
    1.0873   -1.2869    0.0000 C   0  0  0  0  0  0  0  0  0  0  0  0
    1.8167   -1.6723    0.0000 C   0  0  0  0  0  0  0  0  0  0  0  0
   -0.3441   -0.4198    0.0000 C   0  0  0  0  0  0  0  0  0  0  0  0
    1.8167    1.2869    0.0000 C   0  0  0  0  0  0  0  0  0  0  0  0
    2.5187    2.5256    0.0000 C   0  0  0  0  0  0  0  0  0  0  0  0
   -1.0598   -0.0344    0.0000 C   0  0  3  0  0  0  0  0  0  0  0  0
    2.5187   -1.2731    0.0000 C   0  0  0  0  0  0  0  0  0  0  0  0
    1.8167   -2.4981    0.0000 C   0  0  0  0  0  0  0  0  0  0  0  0
    1.1010    1.6998    0.0000 C   0  0  0  0  0  0  0  0  0  0  0  0
    1.8167    2.9247    0.0000 C   0  0  0  0  0  0  0  0  0  0  0  0
    3.2344   -2.4981    0.0000 C   0  0  0  0  0  0  0  0  0  0  0  0
   -1.7617   -0.4336    0.0000 C   0  0  0  0  0  0  0  0  0  0  0  0
    3.2344   -1.6723    0.0000 C   0  0  0  0  0  0  0  0  0  0  0  0
    2.5325   -2.9110    0.0000 C   0  0  0  0  0  0  0  0  0  0  0  0
    1.1010    2.5256    0.0000 C   0  0  0  0  0  0  0  0  0  0  0  0
   -2.4912   -0.0344    0.0000 C   0  0  3  0  0  0  0  0  0  0  0  0
   -1.0460    0.7914    0.0000 C   0  0  0  0  0  0  0  0  0  0  0  0
   -3.1931   -0.4336    0.0000 C   0  0  0  0  0  0  0  0  0  0  0  0
   -3.9363    0.7914    0.0000 C   0  0  0  0  0  0  0  0  0  0  0  0
   -4.6245   -0.4336    0.0000 C   0  0  0  0  0  0  0  0  0  0  0  0
   -4.6520    1.2043    0.0000 C   0  0  0  0  0  0  0  0  0  0  0  0
   -5.3539   -0.0344    0.0000 C   0  0  0  0  0  0  0  0  0  0  0  0
    4.6933   -2.4981    0.0000 C   0  0  0  0  0  0  0  0  0  0  0  0
  1 11  1  0  0  0  0
  1 13  1  0  0  0  0
  2 12  2  0  0  0  0
  3 17  2  0  0  0  0
  4 22  2  0  0  0  0
  5 30  1  0  0  0  0
  5 42  1  0  0  0  0
  6 35  1  0  0  0  0
  7 40  1  0  0  0  0
  7 41  1  0  0  0  0
 14  8  1  1  0  0  0
  8 17  1  0  0  0  0
 18  9  1  6  0  0  0
  9 22  1  0  0  0  0
 10 37  1  0  0  0  0
 10 38  1  0  0  0  0
 10 39  1  0  0  0  0
 11 12  1  1  0  0  0
 11 13  1  0  0  0  0
 11 15  1  6  0  0  0
 12 14  1  0  0  0  0
 14 16  1  0  0  0  0
 16 19  1  0  0  0  0
 17 18  1  0  0  0  0
 18 20  1  0  0  0  0
 19 23  2  0  0  0  0
 19 24  1  0  0  0  0
 20 21  1  0  0  0  0
 21 26  2  0  0  0  0
 21 27  1  0  0  0  0
 22 25  1  0  0  0  0
 23 28  1  0  0  0  0
 24 29  2  0  0  0  0
 25 31  1  0  0  0  0
 25 36  1  1  0  0  0
 26 32  1  0  0  0  0
 27 33  2  0  0  0  0
 28 34  2  0  0  0  0
 29 34  1  0  0  0  0
 30 32  2  0  0  0  0
 30 33  1  0  0  0  0
 31 35  1  0  0  0  0
 35 37  1  0  0  0  0
 38 40  1  0  0  0  0
 39 41  1  0  0  0  0
M  END
> <PUBCHEM_COMPOUND_ID_TYPE>
0

> <PUBCHEM_TOTAL_CHARGE>
0

> <PUBCHEM_SUBSTANCE_ID>
310945778

> <PUBCHEM_SUBSTANCE_VERSION>
1

> <PUBCHEM_EXT_DATASOURCE_NAME>
4488

> <PUBCHEM_EXT_DATASOURCE_REGID>
SCHEMBL16123882

> <PUBCHEM_SUBSTANCE_COMMENT>
InChI=1S/C32H43N3O7/c1-22(17-25(36)20-35-13-15-41-16-14-35)30(38)34-28(19-24-9-11-26(40-3)12-10-24)31(39)33-27(29(37)32(2)21-42-32)18-23-7-5-4-6-8-23/h4-12,22,25,27-28,36H,13-21H2,1-3H3,(H,33,39)(H,34,38)/t22-,25?,27+,28+,32-/m1/s1
InChIKey=NGRUILPZGOOXIH-PZDSZFJTSA-N

> <PUBCHEM_SUBSTANCE_SYNONYM>
SCHEMBL16123882

> <PUBCHEM_XREF_EXT_ID>
SCHEMBL16123882

> <PUBCHEM_EXT_DATASOURCE_URL>
https://www.surechembl.org/

> <PUBCHEM_EXT_SUBSTANCE_URL>
https://www.surechembl.org/chemical/SCHEMBL16123882

> <PUBCHEM_CID_ASSOCIATIONS>
117611765  1

> <PUBCHEM_COORDINATE_TYPE>
1
3

> <PUBCHEM_BONDANNOTATIONS>
11  12  5
11  15  6
25  36  5
14  8  5
18  9  6

$$$$
