310931017
  -OEChem-07211613022D

 24 26  0     0  0  0  0  0  0999 V2000
    6.4404   -1.2618    0.0000 O   0  0  0  0  0  0  0  0  0  0  0  0
    4.9946   -2.9178    0.0000 O   0  0  0  0  0  0  0  0  0  0  0  0
    0.0000   -1.6824    0.0000 N   0  0  0  0  0  0  0  0  0  0  0  0
    4.9946   -1.2618    0.0000 C   0  0  0  0  0  0  0  0  0  0  0  0
    3.5750   -1.2618    0.0000 C   0  0  0  0  0  0  0  0  0  0  0  0
    5.7043   -1.6561    0.0000 C   0  0  0  0  0  0  0  0  0  0  0  0
    2.8653   -1.6824    0.0000 C   0  0  0  0  0  0  0  0  0  0  0  0
    5.7306   -2.4973    0.0000 C   0  0  0  0  0  0  0  0  0  0  0  0
    4.2848   -1.6561    0.0000 C   0  0  0  0  0  0  0  0  0  0  0  0
    6.4404   -2.8916    0.0000 C   0  0  0  0  0  0  0  0  0  0  0  0
    4.9946   -0.4206    0.0000 C   0  0  0  0  0  0  0  0  0  0  0  0
    3.5750   -0.4206    0.0000 C   0  0  0  0  0  0  0  0  0  0  0  0
    2.1293   -1.2618    0.0000 C   0  0  0  0  0  0  0  0  0  0  0  0
    4.2848    0.0000    0.0000 C   0  0  0  0  0  0  0  0  0  0  0  0
    2.8653   -2.4973    0.0000 C   0  0  0  0  0  0  0  0  0  0  0  0
    1.4195   -1.6824    0.0000 C   0  0  0  0  0  0  0  0  0  0  0  0
    7.1764   -2.4973    0.0000 C   0  0  0  0  0  0  0  0  0  0  0  0
    6.4404   -3.7328    0.0000 C   0  0  0  0  0  0  0  0  0  0  0  0
    2.1556   -2.9178    0.0000 C   0  0  0  0  0  0  0  0  0  0  0  0
    1.4195   -2.4973    0.0000 C   0  0  0  0  0  0  0  0  0  0  0  0
    7.8862   -2.8916    0.0000 C   0  0  0  0  0  0  0  0  0  0  0  0
    7.1764   -4.1533    0.0000 C   0  0  0  0  0  0  0  0  0  0  0  0
    0.7097   -1.2618    0.0000 C   0  0  0  0  0  0  0  0  0  0  0  0
    7.8862   -3.7328    0.0000 C   0  0  0  0  0  0  0  0  0  0  0  0
  1  6  2  0  0  0  0
  2  8  2  0  0  0  0
  3 23  3  0  0  0  0
  4  6  1  0  0  0  0
  4  9  2  0  0  0  0
  4 11  1  0  0  0  0
  5  7  1  0  0  0  0
  5  9  1  0  0  0  0
  5 12  2  0  0  0  0
  6  8  1  0  0  0  0
  7 13  1  0  0  0  0
  7 15  2  0  0  0  0
  8 10  1  0  0  0  0
 10 17  2  0  0  0  0
 10 18  1  0  0  0  0
 11 14  2  0  0  0  0
 12 14  1  0  0  0  0
 13 16  2  0  0  0  0
 15 19  1  0  0  0  0
 16 20  1  0  0  0  0
 16 23  1  0  0  0  0
 17 21  1  0  0  0  0
 18 22  2  0  0  0  0
 19 20  2  0  0  0  0
 21 24  2  0  0  0  0
 22 24  1  0  0  0  0
M  END
> <PUBCHEM_COMPOUND_ID_TYPE>
0

> <PUBCHEM_TOTAL_CHARGE>
0

> <PUBCHEM_SUBSTANCE_ID>
310931017

> <PUBCHEM_SUBSTANCE_VERSION>
1

> <PUBCHEM_EXT_DATASOURCE_NAME>
4488

> <PUBCHEM_EXT_DATASOURCE_REGID>
SCHEMBL16108317

> <PUBCHEM_SUBSTANCE_COMMENT>
InChI=1S/C21H13NO2/c22-14-15-6-4-9-17(12-15)18-10-5-11-19(13-18)21(24)20(23)16-7-2-1-3-8-16/h1-13H
InChIKey=VFYDBELWZHGHQJ-UHFFFAOYSA-N

> <PUBCHEM_SUBSTANCE_SYNONYM>
SCHEMBL16108317

> <PUBCHEM_XREF_EXT_ID>
SCHEMBL16108317

> <PUBCHEM_EXT_DATASOURCE_URL>
https://www.surechembl.org/

> <PUBCHEM_EXT_SUBSTANCE_URL>
https://www.surechembl.org/chemical/SCHEMBL16108317

> <PUBCHEM_CID_ASSOCIATIONS>
117599941  1

> <PUBCHEM_COORDINATE_TYPE>
1
3

$$$$
