310945205
  -OEChem-07211613022D

 28 30  0     0  0  0  0  0  0999 V2000
   -4.1340   -1.7010    0.0000 Cl  0  0  0  0  0  0  0  0  0  0  0  0
   -3.0883    1.2549    0.0000 O   0  0  0  0  0  0  0  0  0  0  0  0
    3.3950    2.5236    0.0000 O   0  0  0  0  0  0  0  0  0  0  0  0
   -0.9412   -0.0140    0.0000 N   0  0  0  0  0  0  0  0  0  0  0  0
   -1.6941    1.2549    0.0000 N   0  0  0  0  0  0  0  0  0  0  0  0
   -2.3772   -2.5376    0.0000 N   0  0  0  0  0  0  0  0  0  0  0  0
    1.2061    2.0914    0.0000 N   0  0  0  0  0  0  0  0  0  0  0  0
   -1.6801   -0.4043    0.0000 C   0  0  0  0  0  0  0  0  0  0  0  0
   -1.6801   -1.2269    0.0000 C   0  0  0  0  0  0  0  0  0  0  0  0
   -2.3912    0.0140    0.0000 C   0  0  0  0  0  0  0  0  0  0  0  0
   -2.3912   -1.6452    0.0000 C   0  0  0  0  0  0  0  0  0  0  0  0
   -3.1023   -1.2269    0.0000 C   0  0  0  0  0  0  0  0  0  0  0  0
   -3.0883   -0.3904    0.0000 C   0  0  0  0  0  0  0  0  0  0  0  0
   -2.3633    0.8644    0.0000 C   0  0  0  0  0  0  0  0  0  0  0  0
   -0.9550   -1.6452    0.0000 C   0  0  0  0  0  0  0  0  0  0  0  0
   -0.2301   -0.4043    0.0000 C   0  0  0  0  0  0  0  0  0  0  0  0
   -0.2440   -1.2549    0.0000 C   0  0  0  0  0  0  0  0  0  0  0  0
   -0.2440    1.2688    0.0000 C   0  0  0  0  0  0  0  0  0  0  0  0
   -0.9272    0.8644    0.0000 C   0  0  0  0  0  0  0  0  0  0  0  0
    2.6561    2.1193    0.0000 C   0  0  0  0  0  0  0  0  0  0  0  0
    1.9450    2.5376    0.0000 C   0  0  0  0  0  0  0  0  0  0  0  0
    0.5089    0.8644    0.0000 C   0  0  0  0  0  0  0  0  0  0  0  0
   -0.2301    2.1193    0.0000 C   0  0  0  0  0  0  0  0  0  0  0  0
    0.4670    2.5376    0.0000 C   0  0  0  0  0  0  0  0  0  0  0  0
    1.1921    1.2827    0.0000 C   0  0  0  0  0  0  0  0  0  0  0  0
    2.2378    1.3803    0.0000 C   0  0  0  0  0  0  0  0  0  0  0  0
    3.0883    1.3803    0.0000 C   0  0  0  0  0  0  0  0  0  0  0  0
    4.1340    2.1193    0.0000 C   0  0  0  0  0  0  0  0  0  0  0  0
  1 12  1  0  0  0  0
  2 14  2  0  0  0  0
  3 20  1  0  0  0  0
  3 28  1  0  0  0  0
  4  8  1  0  0  0  0
  4 16  2  0  0  0  0
  5 14  1  0  0  0  0
  5 19  1  0  0  0  0
  6 11  1  0  0  0  0
  7 21  1  0  0  0  0
  7 24  1  0  0  0  0
  7 25  1  0  0  0  0
  8  9  1  0  0  0  0
  8 10  2  0  0  0  0
  9 11  2  0  0  0  0
  9 15  1  0  0  0  0
 10 13  1  0  0  0  0
 10 14  1  0  0  0  0
 11 12  1  0  0  0  0
 12 13  2  0  0  0  0
 15 17  2  0  0  0  0
 16 17  1  0  0  0  0
 18 19  1  0  0  0  0
 18 22  1  0  0  0  0
 18 23  1  0  0  0  0
 20 21  1  0  0  0  0
 20 26  1  0  0  0  0
 20 27  1  0  0  0  0
 22 25  1  0  0  0  0
 23 24  1  0  0  0  0
M  END
> <PUBCHEM_COMPOUND_ID_TYPE>
0

> <PUBCHEM_TOTAL_CHARGE>
0

> <PUBCHEM_SUBSTANCE_ID>
310945205

> <PUBCHEM_SUBSTANCE_VERSION>
1

> <PUBCHEM_EXT_DATASOURCE_NAME>
4488

> <PUBCHEM_EXT_DATASOURCE_REGID>
SCHEMBL16123295

> <PUBCHEM_SUBSTANCE_COMMENT>
InChI=1S/C21H29ClN4O2/c1-21(2,28-3)13-26-9-6-14(7-10-26)12-25-20(27)16-11-17(22)18(23)15-5-4-8-24-19(15)16/h4-5,8,11,14H,6-7,9-10,12-13,23H2,1-3H3,(H,25,27)
InChIKey=PIZJZIGDCCYCQH-UHFFFAOYSA-N

> <PUBCHEM_SUBSTANCE_SYNONYM>
SCHEMBL16123295

> <PUBCHEM_XREF_EXT_ID>
SCHEMBL16123295

> <PUBCHEM_EXT_DATASOURCE_URL>
https://www.surechembl.org/

> <PUBCHEM_EXT_SUBSTANCE_URL>
https://www.surechembl.org/chemical/SCHEMBL16123295

> <PUBCHEM_CID_ASSOCIATIONS>
86273794  1

> <PUBCHEM_COORDINATE_TYPE>
1
3

$$$$
