310940524
  -OEChem-07211613022D

 36 40  0     1  0  0  0  0  0999 V2000
    1.5578   -0.1990    0.0000 O   0  0  0  0  0  0  0  0  0  0  0  0
    1.5990    1.2970    0.0000 O   0  0  0  0  0  0  0  0  0  0  0  0
   -2.6146   -0.4186    0.0000 O   0  0  0  0  0  0  0  0  0  0  0  0
    2.4087   -1.5716    0.0000 O   0  0  0  0  0  0  0  0  0  0  0  0
   -3.8500   -2.3402    0.0000 O   0  0  0  0  0  0  0  0  0  0  0  0
    1.7226   -2.8068    0.0000 O   0  0  0  0  0  0  0  0  0  0  0  0
    0.3775    0.4461    0.0000 N   0  0  0  0  0  0  0  0  0  0  0  0
    0.2951   -1.9971    0.0000 N   0  0  0  0  0  0  0  0  0  0  0  0
   -3.4794   -3.0676    0.0000 N   0  0  0  0  0  0  0  0  0  0  0  0
    0.2402   -0.2951    0.0000 C   0  0  0  0  0  0  0  0  0  0  0  0
    0.9813   -0.7069    0.0000 C   0  0  0  0  0  0  0  0  0  0  0  0
   -0.4598   -0.7343    0.0000 C   0  0  0  0  0  0  0  0  0  0  0  0
   -0.4735   -1.5029    0.0000 C   0  0  0  0  0  0  0  0  0  0  0  0
    0.9676   -1.4892    0.0000 C   0  0  0  0  0  0  0  0  0  0  0  0
    1.2009    0.6108    0.0000 C   0  0  0  0  0  0  0  0  0  0  0  0
   -1.9010   -1.6127    0.0000 C   0  0  0  0  0  0  0  0  0  0  0  0
   -1.1872   -0.3226    0.0000 C   0  0  0  0  0  0  0  0  0  0  0  0
   -0.2677    0.9813    0.0000 C   0  0  3  0  0  0  0  0  0  0  0  0
   -1.9010   -0.7481    0.0000 C   0  0  0  0  0  0  0  0  0  0  0  0
   -1.1460   -1.9421    0.0000 C   0  0  0  0  0  0  0  0  0  0  0  0
   -2.5872   -1.9696    0.0000 C   0  0  0  0  0  0  0  0  0  0  0  0
    1.7088   -1.8735    0.0000 C   0  0  0  0  0  0  0  0  0  0  0  0
   -0.2677    1.7637    0.0000 C   0  0  0  0  0  0  0  0  0  0  0  0
   -3.3833   -1.6950    0.0000 C   0  0  0  0  0  0  0  0  0  0  0  0
   -2.6421   -2.8342    0.0000 C   0  0  0  0  0  0  0  0  0  0  0  0
   -0.9676    0.5696    0.0000 C   0  0  0  0  0  0  0  0  0  0  0  0
    0.4872    2.1480    0.0000 C   0  0  0  0  0  0  0  0  0  0  0  0
   -0.9401    2.2442    0.0000 C   0  0  0  0  0  0  0  0  0  0  0  0
   -3.5892   -0.8852    0.0000 C   0  0  0  0  0  0  0  0  0  0  0  0
   -2.0520   -3.3833    0.0000 C   0  0  0  0  0  0  0  0  0  0  0  0
   -2.6146    0.4598    0.0000 C   0  0  0  0  0  0  0  0  0  0  0  0
    3.1499   -1.8872    0.0000 C   0  0  0  0  0  0  0  0  0  0  0  0
    0.5285    2.9853    0.0000 C   0  0  0  0  0  0  0  0  0  0  0  0
   -0.8852    3.0127    0.0000 C   0  0  0  0  0  0  0  0  0  0  0  0
   -0.1716    3.3833    0.0000 C   0  0  0  0  0  0  0  0  0  0  0  0
    3.8500   -1.4617    0.0000 C   0  0  0  0  0  0  0  0  0  0  0  0
  1 11  1  0  0  0  0
  1 15  1  0  0  0  0
  2 15  2  0  0  0  0
  3 19  1  0  0  0  0
  3 31  1  0  0  0  0
  4 22  1  0  0  0  0
  4 32  1  0  0  0  0
  5  9  1  0  0  0  0
  5 24  1  0  0  0  0
  6 22  2  0  0  0  0
  7 10  1  0  0  0  0
  7 15  1  0  0  0  0
  7 18  1  0  0  0  0
  8 13  1  0  0  0  0
  8 14  2  0  0  0  0
  9 25  2  0  0  0  0
 10 11  2  0  0  0  0
 10 12  1  0  0  0  0
 11 14  1  0  0  0  0
 12 13  1  0  0  0  0
 12 17  2  0  0  0  0
 13 20  2  0  0  0  0
 14 22  1  0  0  0  0
 16 19  2  0  0  0  0
 16 20  1  0  0  0  0
 16 21  1  0  0  0  0
 17 19  1  0  0  0  0
 18 23  1  0  0  0  0
 18 26  1  6  0  0  0
 21 24  2  0  0  0  0
 21 25  1  0  0  0  0
 23 27  2  0  0  0  0
 23 28  1  0  0  0  0
 24 29  1  0  0  0  0
 25 30  1  0  0  0  0
 27 33  1  0  0  0  0
 28 34  2  0  0  0  0
 32 36  1  0  0  0  0
 33 35  2  0  0  0  0
 34 35  1  0  0  0  0
M  END
> <PUBCHEM_COMPOUND_ID_TYPE>
0

> <PUBCHEM_TOTAL_CHARGE>
0

> <PUBCHEM_SUBSTANCE_ID>
310940524

> <PUBCHEM_SUBSTANCE_VERSION>
1

> <PUBCHEM_EXT_DATASOURCE_NAME>
4488

> <PUBCHEM_EXT_DATASOURCE_REGID>
SCHEMBL16118478

> <PUBCHEM_SUBSTANCE_COMMENT>
InChI=1S/C27H25N3O6/c1-6-34-26(31)23-25-24(30(27(32)35-25)15(3)17-10-8-7-9-11-17)18-13-21(33-5)19(12-20(18)28-23)22-14(2)29-36-16(22)4/h7-13,15H,6H2,1-5H3/t15-/m1/s1
InChIKey=MLWPXCKMZGTHAX-OAHLLOKOSA-N

> <PUBCHEM_SUBSTANCE_SYNONYM>
SCHEMBL16118478

> <PUBCHEM_XREF_EXT_ID>
SCHEMBL16118478

> <PUBCHEM_EXT_DATASOURCE_URL>
https://www.surechembl.org/

> <PUBCHEM_EXT_SUBSTANCE_URL>
https://www.surechembl.org/chemical/SCHEMBL16118478

> <PUBCHEM_CID_ASSOCIATIONS>
117607535  1

> <PUBCHEM_COORDINATE_TYPE>
1
3

> <PUBCHEM_BONDANNOTATIONS>
18  26  6

$$$$
