310947578
  -OEChem-07211613022D

 50 55  0     1  0  0  0  0  0999 V2000
   -1.0338   13.8852    0.0000 P   0  0  3  0  0  0  0  0  0  0  0  0
    0.7723   11.4329    0.0000 F   0  0  0  0  0  0  0  0  0  0  0  0
    1.5973   13.4169    0.0000 O   0  0  0  0  0  0  0  0  0  0  0  0
    2.4223   11.4329    0.0000 O   0  0  0  0  0  0  0  0  0  0  0  0
   -0.4504   13.3018    0.0000 O   0  0  0  0  0  0  0  0  0  0  0  0
    3.7638   16.0744    0.0000 O   0  0  0  0  0  0  0  0  0  0  0  0
   -1.6172   14.4686    0.0000 O   0  0  0  0  0  0  0  0  0  0  0  0
   -0.4504   14.4686    0.0000 O   0  0  0  0  0  0  0  0  0  0  0  0
   -2.3316   11.2393    0.0000 O   0  0  0  0  0  0  0  0  0  0  0  0
   -3.0461   12.4768    0.0000 O   0  0  0  0  0  0  0  0  0  0  0  0
    2.2647   13.7570    0.0000 N   0  0  0  0  0  0  0  0  0  0  0  0
    2.2647   15.0919    0.0000 N   0  0  0  0  0  0  0  0  0  0  0  0
    3.7638   13.5994    0.0000 N   0  0  0  0  0  0  0  0  0  0  0  0
    4.4783   14.8369    0.0000 N   0  0  0  0  0  0  0  0  0  0  0  0
   -1.6172   13.3018    0.0000 N   0  0  0  0  0  0  0  0  0  0  0  0
    2.2647   12.9320    0.0000 C   0  0  3  0  0  0  0  0  0  0  0  0
    2.0098   12.1474    0.0000 C   0  0  3  0  0  0  0  0  0  0  0  0
    1.1848   12.1474    0.0000 C   0  0  3  0  0  0  0  0  0  0  0  0
    3.0493   14.0119    0.0000 C   0  0  0  0  0  0  0  0  0  0  0  0
    0.9298   12.9320    0.0000 C   0  0  3  0  0  0  0  0  0  0  0  0
    3.0493   14.8369    0.0000 C   0  0  0  0  0  0  0  0  0  0  0  0
    1.7798   14.4244    0.0000 C   0  0  0  0  0  0  0  0  0  0  0  0
    3.7638   15.2494    0.0000 C   0  0  0  0  0  0  0  0  0  0  0  0
    2.8066   12.3609    0.0000 C   0  0  0  0  0  0  0  0  0  0  0  0
    0.3465   13.5154    0.0000 C   0  0  0  0  0  0  0  0  0  0  0  0
    4.4783   14.0119    0.0000 C   0  0  0  0  0  0  0  0  0  0  0  0
   -1.6172   15.2936    0.0000 C   0  0  0  0  0  0  0  0  0  0  0  0
   -2.3316   15.7061    0.0000 C   0  0  0  0  0  0  0  0  0  0  0  0
    5.1927   13.5994    0.0000 C   0  0  0  0  0  0  0  0  0  0  0  0
   -1.6172   12.4768    0.0000 C   0  0  3  0  0  0  0  0  0  0  0  0
   -2.3316   16.5311    0.0000 C   0  0  0  0  0  0  0  0  0  0  0  0
   -0.9027   15.7061    0.0000 C   0  0  0  0  0  0  0  0  0  0  0  0
   -2.3316   12.0643    0.0000 C   0  0  0  0  0  0  0  0  0  0  0  0
    4.4783   16.4869    0.0000 C   0  0  0  0  0  0  0  0  0  0  0  0
   -3.0461   15.2936    0.0000 C   0  0  0  0  0  0  0  0  0  0  0  0
   -0.9027   12.0643    0.0000 C   0  0  0  0  0  0  0  0  0  0  0  0
   -1.6172   16.9436    0.0000 C   0  0  0  0  0  0  0  0  0  0  0  0
   -0.9027   16.5311    0.0000 C   0  0  0  0  0  0  0  0  0  0  0  0
   -3.0461   16.9436    0.0000 C   0  0  0  0  0  0  0  0  0  0  0  0
   -3.7606   15.7061    0.0000 C   0  0  0  0  0  0  0  0  0  0  0  0
   -3.7606   16.5311    0.0000 C   0  0  0  0  0  0  0  0  0  0  0  0
   -0.1882   12.4768    0.0000 C   0  0  0  0  0  0  0  0  0  0  0  0
   -0.9027   11.2393    0.0000 C   0  0  0  0  0  0  0  0  0  0  0  0
   -3.0461   10.8268    0.0000 C   0  0  0  0  0  0  0  0  0  0  0  0
   -3.7606   11.2393    0.0000 C   0  0  0  0  0  0  0  0  0  0  0  0
   -3.7606   12.0643    0.0000 C   0  0  0  0  0  0  0  0  0  0  0  0
   -4.4750   10.8268    0.0000 C   0  0  0  0  0  0  0  0  0  0  0  0
   -4.4750   12.4768    0.0000 C   0  0  0  0  0  0  0  0  0  0  0  0
   -5.1895   11.2393    0.0000 C   0  0  0  0  0  0  0  0  0  0  0  0
   -5.1895   12.0643    0.0000 C   0  0  0  0  0  0  0  0  0  0  0  0
  1  5  1  0  0  0  0
  1  7  1  0  0  0  0
  1  8  2  0  0  0  0
  1 15  1  0  0  0  0
 18  2  1  6  0  0  0
 16  3  1  6  0  0  0
  3 20  1  0  0  0  0
 17  4  1  6  0  0  0
  5 25  1  0  0  0  0
  6 23  1  0  0  0  0
  6 34  1  0  0  0  0
  7 27  1  0  0  0  0
  9 33  1  0  0  0  0
  9 44  1  0  0  0  0
 10 33  2  0  0  0  0
 11 16  1  0  0  0  0
 11 19  1  0  0  0  0
 11 22  1  0  0  0  0
 12 21  1  0  0  0  0
 12 22  2  0  0  0  0
 13 19  1  0  0  0  0
 13 26  2  0  0  0  0
 14 23  2  0  0  0  0
 14 26  1  0  0  0  0
 30 15  1  1  0  0  0
 16 17  1  0  0  0  0
 17 18  1  0  0  0  0
 17 24  1  1  0  0  0
 18 20  1  0  0  0  0
 19 21  2  0  0  0  0
 20 25  1  1  0  0  0
 21 23  1  0  0  0  0
 26 29  1  0  0  0  0
 27 28  1  0  0  0  0
 27 32  2  0  0  0  0
 28 31  2  0  0  0  0
 28 35  1  0  0  0  0
 30 33  1  0  0  0  0
 30 36  1  0  0  0  0
 31 37  1  0  0  0  0
 31 39  1  0  0  0  0
 32 38  1  0  0  0  0
 35 40  2  0  0  0  0
 36 42  1  0  0  0  0
 36 43  1  0  0  0  0
 37 38  2  0  0  0  0
 39 41  2  0  0  0  0
 40 41  1  0  0  0  0
 44 45  1  0  0  0  0
 45 46  2  0  0  0  0
 45 47  1  0  0  0  0
 46 48  1  0  0  0  0
 47 49  2  0  0  0  0
 48 50  2  0  0  0  0
 49 50  1  0  0  0  0
M  END
> <PUBCHEM_COMPOUND_ID_TYPE>
0

> <PUBCHEM_TOTAL_CHARGE>
0

> <PUBCHEM_SUBSTANCE_ID>
310947578

> <PUBCHEM_SUBSTANCE_VERSION>
1

> <PUBCHEM_EXT_DATASOURCE_NAME>
4488

> <PUBCHEM_EXT_DATASOURCE_REGID>
SCHEMBL16125741

> <PUBCHEM_SUBSTANCE_COMMENT>
InChI=1S/C35H39FN5O8P/c1-21(2)28(33(42)46-18-23-12-7-6-8-13-23)40-50(44,49-26-17-11-15-24-14-9-10-16-25(24)26)47-19-27-30(36)35(4,43)34(48-27)41-20-37-29-31(41)38-22(3)39-32(29)45-5/h6-17,20-21,27-28,30,34,43H,18-19H2,1-5H3,(H,40,44)/t27-,28+,30-,34-,35-,50?/m1/s1
InChIKey=XKPFABPFNWHXFA-JSWCMJQYSA-N

> <PUBCHEM_SUBSTANCE_SYNONYM>
SCHEMBL16125741

> <PUBCHEM_XREF_EXT_ID>
SCHEMBL16125741

> <PUBCHEM_EXT_DATASOURCE_URL>
https://www.surechembl.org/

> <PUBCHEM_EXT_SUBSTANCE_URL>
https://www.surechembl.org/chemical/SCHEMBL16125741

> <PUBCHEM_CID_ASSOCIATIONS>
117613300  1

> <PUBCHEM_COORDINATE_TYPE>
1
3

> <PUBCHEM_BONDANNOTATIONS>
30  15  5
17  24  5
18  2  6
20  25  5
16  3  6
17  4  6

$$$$
