310942519
  -OEChem-07211613022D

 43 48  0     1  0  0  0  0  0999 V2000
    1.8187    1.0805    0.0000 O   0  0  0  0  0  0  0  0  0  0  0  0
    2.3208   -1.0653    0.0000 O   0  0  0  0  0  0  0  0  0  0  0  0
    1.0729   -0.9892    0.0000 O   0  0  0  0  0  0  0  0  0  0  0  0
    3.2492    0.7457    0.0000 N   0  0  0  0  0  0  0  0  0  0  0  0
    3.9340   -0.6240    0.0000 N   0  0  0  0  0  0  0  0  0  0  0  0
   -0.3272    0.6392    0.0000 N   0  0  3  0  0  0  0  0  0  0  0  0
    5.3798   -0.5175    0.0000 N   0  0  0  0  0  0  0  0  0  0  0  0
    6.0190    0.7914    0.0000 N   0  0  0  0  0  0  0  0  0  0  0  0
   -2.7013   -0.8827    0.0000 N   0  0  0  0  0  0  0  0  0  0  0  0
   -3.3710   -2.0850    0.0000 N   0  0  0  0  0  0  0  0  0  0  0  0
    3.9036    0.2131    0.0000 C   0  0  0  0  0  0  0  0  0  0  0  0
    2.4426    0.5327    0.0000 C   0  0  3  0  0  0  0  0  0  0  0  0
    4.5733    0.6697    0.0000 C   0  0  0  0  0  0  0  0  0  0  0  0
    4.3602    1.4610    0.0000 C   0  0  0  0  0  0  0  0  0  0  0  0
    2.0927   -0.2435    0.0000 C   0  0  3  0  0  0  0  0  0  0  0  0
    3.5536    1.5219    0.0000 C   0  0  0  0  0  0  0  0  0  0  0  0
    1.1185    0.6545    0.0000 C   0  0  3  0  0  0  0  0  0  0  0  0
    1.2860   -0.1674    0.0000 C   0  0  3  0  0  0  0  0  0  0  0  0
    5.3493    0.3196    0.0000 C   0  0  0  0  0  0  0  0  0  0  0  0
    0.3881    1.0653    0.0000 C   0  0  0  0  0  0  0  0  0  0  0  0
   -0.5555   -0.1979    0.0000 C   0  0  0  0  0  0  0  0  0  0  0  0
    4.8776    2.1307    0.0000 C   0  0  0  0  0  0  0  0  0  0  0  0
    4.6798   -1.0044    0.0000 C   0  0  0  0  0  0  0  0  0  0  0  0
   -0.8294   -1.3088    0.0000 C   0  0  0  0  0  0  0  0  0  0  0  0
   -1.2403   -0.6088    0.0000 C   0  0  0  0  0  0  0  0  0  0  0  0
   -0.1446   -0.9131    0.0000 C   0  0  0  0  0  0  0  0  0  0  0  0
   -1.0577    1.0500    0.0000 C   0  0  0  0  0  0  0  0  0  0  0  0
   -3.5384   -0.7306    0.0000 C   0  0  0  0  0  0  0  0  0  0  0  0
   -3.9340   -1.4610    0.0000 C   0  0  0  0  0  0  0  0  0  0  0  0
   -2.6252   -1.7197    0.0000 C   0  0  0  0  0  0  0  0  0  0  0  0
   -4.7711    0.0000    0.0000 C   0  0  0  0  0  0  0  0  0  0  0  0
   -3.9493   -0.0152    0.0000 C   0  0  0  0  0  0  0  0  0  0  0  0
   -1.0577   -2.1307    0.0000 C   0  0  0  0  0  0  0  0  0  0  0  0
   -5.1972    0.7306    0.0000 C   0  0  0  0  0  0  0  0  0  0  0  0
   -1.9252   -2.1307    0.0000 C   0  0  0  0  0  0  0  0  0  0  0  0
   -4.7711   -1.4610    0.0000 C   0  0  0  0  0  0  0  0  0  0  0  0
    5.6994    1.9480    0.0000 C   0  0  0  0  0  0  0  0  0  0  0  0
   -5.1667   -0.7457    0.0000 C   0  0  0  0  0  0  0  0  0  0  0  0
   -1.0577    1.8719    0.0000 C   0  0  0  0  0  0  0  0  0  0  0  0
   -1.7426    0.6088    0.0000 C   0  0  0  0  0  0  0  0  0  0  0  0
   -6.0190    0.7001    0.0000 C   0  0  0  0  0  0  0  0  0  0  0  0
   -5.6081    1.4458    0.0000 C   0  0  0  0  0  0  0  0  0  0  0  0
   -4.7863    1.4458    0.0000 C   0  0  0  0  0  0  0  0  0  0  0  0
 12  1  1  1  0  0  0
  1 17  1  0  0  0  0
 15  2  1  6  0  0  0
 18  3  1  6  0  0  0
  4 11  1  0  0  0  0
  4 12  1  0  0  0  0
  4 16  1  0  0  0  0
  5 11  1  0  0  0  0
  5 23  2  0  0  0  0
  6 20  1  0  0  0  0
 21  6  1  1  0  0  0
  6 27  1  0  0  0  0
  7 19  2  0  0  0  0
  7 23  1  0  0  0  0
  8 19  1  0  0  0  0
  9 28  1  0  0  0  0
  9 30  2  0  0  0  0
 10 29  1  0  0  0  0
 10 30  1  0  0  0  0
 11 13  2  0  0  0  0
 12 15  1  0  0  0  0
 13 14  1  0  0  0  0
 13 19  1  0  0  0  0
 14 16  2  0  0  0  0
 14 22  1  0  0  0  0
 15 18  1  0  0  0  0
 17 18  1  0  0  0  0
 17 20  1  1  0  0  0
 21 25  1  0  0  0  0
 21 26  1  0  0  0  0
 22 37  2  0  0  0  0
 24 25  1  0  0  0  0
 24 26  1  0  0  0  0
 24 33  1  1  0  0  0
 27 39  1  0  0  0  0
 27 40  1  0  0  0  0
 28 29  2  0  0  0  0
 28 32  1  0  0  0  0
 29 36  1  0  0  0  0
 30 35  1  0  0  0  0
 31 32  2  0  0  0  0
 31 34  1  0  0  0  0
 31 38  1  0  0  0  0
 33 35  1  0  0  0  0
 34 41  1  0  0  0  0
 34 42  1  0  0  0  0
 34 43  1  0  0  0  0
 36 38  2  0  0  0  0
M  END
> <PUBCHEM_COMPOUND_ID_TYPE>
0

> <PUBCHEM_TOTAL_CHARGE>
0

> <PUBCHEM_SUBSTANCE_ID>
310942519

> <PUBCHEM_SUBSTANCE_VERSION>
1

> <PUBCHEM_EXT_DATASOURCE_NAME>
4488

> <PUBCHEM_EXT_DATASOURCE_REGID>
SCHEMBL16120555

> <PUBCHEM_SUBSTANCE_COMMENT>
InChI=1S/C33H45N7O3/c1-7-20-15-40(31-27(20)30(34)35-17-36-31)32-29(42)28(41)25(43-32)16-39(18(2)3)22-12-19(13-22)8-11-26-37-23-10-9-21(33(4,5)6)14-24(23)38-26/h7,9-10,14-15,17-19,22,25,28-29,32,41-42H,1,8,11-13,16H2,2-6H3,(H,37,38)(H2,34,35,36)/t19-,22+,25-,28-,29-,32-/m1/s1
InChIKey=SDAXYDHGYJXMGP-BHFADHLPSA-N

> <PUBCHEM_SUBSTANCE_SYNONYM>
SCHEMBL16120555

> <PUBCHEM_XREF_EXT_ID>
SCHEMBL16120555

> <PUBCHEM_EXT_DATASOURCE_URL>
https://www.surechembl.org/

> <PUBCHEM_EXT_SUBSTANCE_URL>
https://www.surechembl.org/chemical/SCHEMBL16120555

> <PUBCHEM_CID_ASSOCIATIONS>
86272095  1

> <PUBCHEM_COORDINATE_TYPE>
1
3

> <PUBCHEM_BONDANNOTATIONS>
12  1  5
17  20  5
15  2  6
24  33  5
18  3  6
21  6  5

$$$$
