310932476
  -OEChem-07211613022D

 32 35  0     0  0  0  0  0  0999 V2000
    4.0113   -2.7311    0.0000 O   0  0  0  0  0  0  0  0  0  0  0  0
    8.4778   -2.8165    0.0000 O   0  0  0  0  0  0  0  0  0  0  0  0
    4.8932   -1.5932    0.0000 N   0  0  0  0  0  0  0  0  0  0  0  0
    4.8078   -0.7681    0.0000 N   0  0  0  0  0  0  0  0  0  0  0  0
    6.3441   -1.5932    0.0000 N   0  0  0  0  0  0  0  0  0  0  0  0
    7.7666   -4.0397    0.0000 N   0  0  0  0  0  0  0  0  0  0  0  0
    5.6329   -5.2915    0.0000 N   0  0  0  0  0  0  0  0  0  0  0  0
    0.0000   -2.4466    0.0000 N   0  0  0  0  0  0  0  0  0  0  0  0
    3.5846   -1.3371    0.0000 C   0  0  0  0  0  0  0  0  0  0  0  0
    4.1535   -1.9346    0.0000 C   0  0  0  0  0  0  0  0  0  0  0  0
    2.7880   -1.4225    0.0000 C   0  0  0  0  0  0  0  0  0  0  0  0
    5.6044   -1.9915    0.0000 C   0  0  0  0  0  0  0  0  0  0  0  0
    4.0113   -0.6259    0.0000 C   0  0  0  0  0  0  0  0  0  0  0  0
    2.2759   -0.7681    0.0000 C   0  0  0  0  0  0  0  0  0  0  0  0
    7.0269   -2.8165    0.0000 C   0  0  0  0  0  0  0  0  0  0  0  0
    5.6044   -2.8165    0.0000 C   0  0  0  0  0  0  0  0  0  0  0  0
    2.4466   -2.1621    0.0000 C   0  0  0  0  0  0  0  0  0  0  0  0
    7.7666   -3.2147    0.0000 C   0  0  0  0  0  0  0  0  0  0  0  0
    7.0269   -1.9915    0.0000 C   0  0  0  0  0  0  0  0  0  0  0  0
    6.3441   -3.2147    0.0000 C   0  0  0  0  0  0  0  0  0  0  0  0
    1.4794   -0.8535    0.0000 C   0  0  0  0  0  0  0  0  0  0  0  0
    1.1380   -1.5932    0.0000 C   0  0  0  0  0  0  0  0  0  0  0  0
    1.6216   -2.2475    0.0000 C   0  0  0  0  0  0  0  0  0  0  0  0
    7.0553   -4.4665    0.0000 C   0  0  0  0  0  0  0  0  0  0  0  0
    2.6173    0.0000    0.0000 C   0  0  0  0  0  0  0  0  0  0  0  0
    6.3441   -4.0397    0.0000 C   0  0  0  0  0  0  0  0  0  0  0  0
    7.0553   -5.2915    0.0000 C   0  0  0  0  0  0  0  0  0  0  0  0
    0.3129   -1.7070    0.0000 C   0  0  0  0  0  0  0  0  0  0  0  0
    8.4778   -4.4665    0.0000 C   0  0  0  0  0  0  0  0  0  0  0  0
    5.6044   -4.4380    0.0000 C   0  0  0  0  0  0  0  0  0  0  0  0
    6.3441   -5.6898    0.0000 C   0  0  0  0  0  0  0  0  0  0  0  0
    4.9216   -5.6898    0.0000 C   0  0  0  0  0  0  0  0  0  0  0  0
  1 10  1  0  0  0  0
  2 18  2  0  0  0  0
  3  4  1  0  0  0  0
  3 10  1  0  0  0  0
  3 12  1  0  0  0  0
  4 13  2  0  0  0  0
  5 12  2  0  0  0  0
  5 19  1  0  0  0  0
  6 18  1  0  0  0  0
  6 24  1  0  0  0  0
  6 29  1  0  0  0  0
  7 30  1  0  0  0  0
  7 31  1  0  0  0  0
  7 32  1  0  0  0  0
  8 28  3  0  0  0  0
  9 10  2  0  0  0  0
  9 11  1  0  0  0  0
  9 13  1  0  0  0  0
 11 14  1  0  0  0  0
 11 17  2  0  0  0  0
 12 16  1  0  0  0  0
 14 21  2  0  0  0  0
 14 25  1  0  0  0  0
 15 18  1  0  0  0  0
 15 19  2  0  0  0  0
 15 20  1  0  0  0  0
 16 20  2  0  0  0  0
 17 23  1  0  0  0  0
 21 22  1  0  0  0  0
 22 23  2  0  0  0  0
 22 28  1  0  0  0  0
 24 26  1  0  0  0  0
 24 27  1  0  0  0  0
 26 30  1  0  0  0  0
 27 31  1  0  0  0  0
M  END
> <PUBCHEM_COMPOUND_ID_TYPE>
0

> <PUBCHEM_TOTAL_CHARGE>
0

> <PUBCHEM_SUBSTANCE_ID>
310932476

> <PUBCHEM_SUBSTANCE_VERSION>
1

> <PUBCHEM_EXT_DATASOURCE_NAME>
4488

> <PUBCHEM_EXT_DATASOURCE_REGID>
SCHEMBL16109848

> <PUBCHEM_SUBSTANCE_COMMENT>
InChI=1S/C24H26N6O2/c1-16-12-17(13-25)4-6-20(16)21-15-27-30(24(21)32)22-7-5-18(14-26-22)23(31)29(3)19-8-10-28(2)11-9-19/h4-7,12,14-15,19,32H,8-11H2,1-3H3
InChIKey=QGPWHMGSHYCQPB-UHFFFAOYSA-N

> <PUBCHEM_SUBSTANCE_SYNONYM>
SCHEMBL16109848

> <PUBCHEM_XREF_EXT_ID>
SCHEMBL16109848

> <PUBCHEM_EXT_DATASOURCE_URL>
https://www.surechembl.org/

> <PUBCHEM_EXT_SUBSTANCE_URL>
https://www.surechembl.org/chemical/SCHEMBL16109848

> <PUBCHEM_CID_ASSOCIATIONS>
117601017  1

> <PUBCHEM_COORDINATE_TYPE>
1
3

$$$$
