310936024
  -OEChem-07211613022D

 27 30  0     0  0  0  0  0  0999 V2000
    2.9275   -0.0658    0.0000 S   0  0  0  0  0  0  0  0  0  0  0  0
    0.7237   -1.2500    0.0000 O   0  0  0  0  0  0  0  0  0  0  0  0
    4.7696   -1.2829    0.0000 N   0  0  0  0  0  0  0  0  0  0  0  0
    2.2368   -1.2500    0.0000 N   0  0  0  0  0  0  0  0  0  0  0  0
    8.5524   -1.6447    0.0000 N   0  0  0  0  0  0  0  0  0  0  0  0
    9.5063   -2.9933    0.0000 N   0  0  0  0  0  0  0  0  0  0  0  0
    1.4474    0.0000    0.0000 N   0  0  0  0  0  0  0  0  0  0  0  0
    8.2234   -2.4012    0.0000 C   0  0  0  0  0  0  0  0  0  0  0  0
    3.4867   -0.6908    0.0000 C   0  0  0  0  0  0  0  0  0  0  0  0
    8.6840   -3.0591    0.0000 C   0  0  0  0  0  0  0  0  0  0  0  0
    7.0721   -3.2236    0.0000 C   0  0  0  0  0  0  0  0  0  0  0  0
    2.1710   -0.4276    0.0000 C   0  0  0  0  0  0  0  0  0  0  0  0
    7.4011   -2.4670    0.0000 C   0  0  0  0  0  0  0  0  0  0  0  0
    5.7564   -2.6315    0.0000 C   0  0  0  0  0  0  0  0  0  0  0  0
    4.3091   -0.5921    0.0000 C   0  0  0  0  0  0  0  0  0  0  0  0
    6.2169   -3.2894    0.0000 C   0  0  0  0  0  0  0  0  0  0  0  0
    3.0591   -1.4145    0.0000 C   0  0  0  0  0  0  0  0  0  0  0  0
    8.3550   -3.8157    0.0000 C   0  0  0  0  0  0  0  0  0  0  0  0
    7.5327   -3.8815    0.0000 C   0  0  0  0  0  0  0  0  0  0  0  0
    5.6249   -1.1842    0.0000 C   0  0  0  0  0  0  0  0  0  0  0  0
    4.4407   -2.0394    0.0000 C   0  0  0  0  0  0  0  0  0  0  0  0
    6.1183   -1.8421    0.0000 C   0  0  0  0  0  0  0  0  0  0  0  0
    4.9341   -2.6973    0.0000 C   0  0  0  0  0  0  0  0  0  0  0  0
    9.4076   -1.5460    0.0000 C   0  0  0  0  0  0  0  0  0  0  0  0
    9.8682   -2.2368    0.0000 C   0  0  0  0  0  0  0  0  0  0  0  0
    0.7237   -0.4276    0.0000 C   0  0  0  0  0  0  0  0  0  0  0  0
    0.0000    0.0000    0.0000 C   0  0  0  0  0  0  0  0  0  0  0  0
  1  9  1  0  0  0  0
  1 12  1  0  0  0  0
  2 26  2  0  0  0  0
  3 15  1  0  0  0  0
  3 20  1  0  0  0  0
  3 21  1  0  0  0  0
  4 12  2  0  0  0  0
  4 17  1  0  0  0  0
  5  8  2  0  0  0  0
  5 24  1  0  0  0  0
  6 10  2  0  0  0  0
  6 25  1  0  0  0  0
  7 12  1  0  0  0  0
  7 26  1  0  0  0  0
  8 10  1  0  0  0  0
  8 13  1  0  0  0  0
  9 15  1  0  0  0  0
  9 17  2  0  0  0  0
 10 18  1  0  0  0  0
 11 13  2  0  0  0  0
 11 16  1  0  0  0  0
 11 19  1  0  0  0  0
 14 16  1  0  0  0  0
 14 22  1  0  0  0  0
 14 23  1  0  0  0  0
 18 19  2  0  0  0  0
 20 22  1  0  0  0  0
 21 23  1  0  0  0  0
 24 25  2  0  0  0  0
 26 27  1  0  0  0  0
M  END
> <PUBCHEM_COMPOUND_ID_TYPE>
0

> <PUBCHEM_TOTAL_CHARGE>
0

> <PUBCHEM_SUBSTANCE_ID>
310936024

> <PUBCHEM_SUBSTANCE_VERSION>
1

> <PUBCHEM_EXT_DATASOURCE_NAME>
4488

> <PUBCHEM_EXT_DATASOURCE_REGID>
SCHEMBL16113627

> <PUBCHEM_SUBSTANCE_COMMENT>
InChI=1S/C20H23N5OS/c1-14(26)24-20-23-12-17(27-20)13-25-8-4-15(5-9-25)10-16-2-3-18-19(11-16)22-7-6-21-18/h2-3,6-7,11-12,15H,4-5,8-10,13H2,1H3,(H,23,24,26)
InChIKey=YGIHPLLQPCSRIC-UHFFFAOYSA-N

> <PUBCHEM_SUBSTANCE_SYNONYM>
SCHEMBL16113627

> <PUBCHEM_XREF_EXT_ID>
SCHEMBL16113627

> <PUBCHEM_EXT_DATASOURCE_URL>
https://www.surechembl.org/

> <PUBCHEM_EXT_SUBSTANCE_URL>
https://www.surechembl.org/chemical/SCHEMBL16113627

> <PUBCHEM_CID_ASSOCIATIONS>
117603993  1

> <PUBCHEM_COORDINATE_TYPE>
1
3

$$$$
