310949871
  -OEChem-07211613022D

 29 33  0     1  0  0  0  0  0999 V2000
   -1.7599    0.4088    0.0000 F   0  0  0  0  0  0  0  0  0  0  0  0
   -3.2010    1.2402    0.0000 F   0  0  0  0  0  0  0  0  0  0  0  0
   -0.2633    1.4065    0.0000 N   0  0  0  0  0  0  0  0  0  0  0  0
   -0.2633    2.7506    0.0000 N   0  0  0  0  0  0  0  0  0  0  0  0
    0.5127   -0.9631    0.0000 N   0  0  0  0  0  0  0  0  0  0  0  0
    2.3280    1.6559    0.0000 N   0  0  0  0  0  0  0  0  0  0  0  0
   -1.0532    1.6698    0.0000 C   0  0  0  0  0  0  0  0  0  0  0  0
    0.2356    2.0855    0.0000 C   0  0  0  0  0  0  0  0  0  0  0  0
   -1.0532    2.4873    0.0000 C   0  0  0  0  0  0  0  0  0  0  0  0
   -1.7599    1.2541    0.0000 C   0  0  0  0  0  0  0  0  0  0  0  0
    0.0000    0.6166    0.0000 C   0  0  0  0  0  0  0  0  0  0  0  0
    1.0670    2.0578    0.0000 C   0  0  3  0  0  0  0  0  0  0  0  0
   -2.4943    1.6559    0.0000 C   0  0  0  0  0  0  0  0  0  0  0  0
   -1.7737    2.8892    0.0000 C   0  0  0  0  0  0  0  0  0  0  0  0
   -2.4665    2.4873    0.0000 C   0  0  0  0  0  0  0  0  0  0  0  0
   -0.5543   -0.0208    0.0000 C   0  0  0  0  0  0  0  0  0  0  0  0
    0.8176    0.4365    0.0000 C   0  0  0  0  0  0  0  0  0  0  0  0
    1.5520    1.4065    0.0000 C   0  0  0  0  0  0  0  0  0  0  0  0
    1.5520    2.7506    0.0000 C   0  0  0  0  0  0  0  0  0  0  0  0
   -0.3049   -0.7829    0.0000 C   0  0  0  0  0  0  0  0  0  0  0  0
    1.0670   -0.3534    0.0000 C   0  0  0  0  0  0  0  0  0  0  0  0
    2.3418    2.4873    0.0000 C   0  0  0  0  0  0  0  0  0  0  0  0
    0.7760   -1.7529    0.0000 C   0  0  0  0  0  0  0  0  0  0  0  0
    1.5797   -1.9331    0.0000 C   0  0  0  0  0  0  0  0  0  0  0  0
    2.1340   -1.3234    0.0000 C   0  0  0  0  0  0  0  0  0  0  0  0
    1.8430   -2.7091    0.0000 C   0  0  0  0  0  0  0  0  0  0  0  0
    2.9377   -1.4896    0.0000 C   0  0  0  0  0  0  0  0  0  0  0  0
    2.6467   -2.8892    0.0000 C   0  0  0  0  0  0  0  0  0  0  0  0
    3.2010   -2.2795    0.0000 C   0  0  0  0  0  0  0  0  0  0  0  0
  1 10  1  0  0  0  0
  2 13  1  0  0  0  0
  3  7  1  0  0  0  0
  3  8  1  0  0  0  0
  3 11  1  0  0  0  0
  4  8  2  0  0  0  0
  4  9  1  0  0  0  0
  5 20  1  0  0  0  0
  5 21  1  0  0  0  0
  5 23  1  0  0  0  0
  6 18  1  0  0  0  0
  6 22  1  0  0  0  0
  7  9  1  0  0  0  0
  7 10  2  0  0  0  0
 12  8  1  6  0  0  0
  9 14  2  0  0  0  0
 10 13  1  0  0  0  0
 11 16  1  0  0  0  0
 11 17  1  0  0  0  0
 12 18  1  0  0  0  0
 12 19  1  0  0  0  0
 13 15  2  0  0  0  0
 14 15  1  0  0  0  0
 16 20  1  0  0  0  0
 17 21  1  0  0  0  0
 19 22  1  0  0  0  0
 23 24  1  0  0  0  0
 24 25  2  0  0  0  0
 24 26  1  0  0  0  0
 25 27  1  0  0  0  0
 26 28  2  0  0  0  0
 27 29  2  0  0  0  0
 28 29  1  0  0  0  0
M  END
> <PUBCHEM_COMPOUND_ID_TYPE>
0

> <PUBCHEM_TOTAL_CHARGE>
0

> <PUBCHEM_SUBSTANCE_ID>
310949871

> <PUBCHEM_SUBSTANCE_VERSION>
1

> <PUBCHEM_EXT_DATASOURCE_NAME>
4488

> <PUBCHEM_EXT_DATASOURCE_REGID>
SCHEMBL16128077

> <PUBCHEM_SUBSTANCE_COMMENT>
InChI=1S/C23H26F2N4/c24-19-6-7-20-22(21(19)25)29(23(27-20)17-8-11-26-14-17)18-9-12-28(13-10-18)15-16-4-2-1-3-5-16/h1-7,17-18,26H,8-15H2/t17-/m1/s1
InChIKey=GPWXKVAQRHLKKS-QGZVFWFLSA-N

> <PUBCHEM_SUBSTANCE_SYNONYM>
SCHEMBL16128077

> <PUBCHEM_XREF_EXT_ID>
SCHEMBL16128077

> <PUBCHEM_EXT_DATASOURCE_URL>
https://www.surechembl.org/

> <PUBCHEM_EXT_SUBSTANCE_URL>
https://www.surechembl.org/chemical/SCHEMBL16128077

> <PUBCHEM_CID_ASSOCIATIONS>
117615168  1

> <PUBCHEM_COORDINATE_TYPE>
1
3

> <PUBCHEM_BONDANNOTATIONS>
12  8  6

$$$$
