310945361
  -OEChem-07211613022D

 26 28  0     0  0  0  0  0  0999 V2000
   -1.0707    1.3824    0.0000 Cl  0  0  0  0  0  0  0  0  0  0  0  0
   -1.1026   -1.7179    0.0000 Cl  0  0  0  0  0  0  0  0  0  0  0  0
   -3.5158   -0.1678    0.0000 Cl  0  0  0  0  0  0  0  0  0  0  0  0
    0.8790    2.0216    0.0000 F   0  0  0  0  0  0  0  0  0  0  0  0
    2.2054    2.0056    0.0000 F   0  0  0  0  0  0  0  0  0  0  0  0
    2.2693    1.3344    0.0000 F   0  0  0  0  0  0  0  0  0  0  0  0
    2.2852   -1.7499    0.0000 F   0  0  0  0  0  0  0  0  0  0  0  0
    3.5158   -0.6632    0.0000 F   0  0  0  0  0  0  0  0  0  0  0  0
    2.8286   -2.0216    0.0000 F   0  0  0  0  0  0  0  0  0  0  0  0
    0.1279    0.5034    0.0000 N   0  0  0  0  0  0  0  0  0  0  0  0
    0.0959   -0.9349    0.0000 N   0  0  0  0  0  0  0  0  0  0  0  0
    2.1894    0.2317    0.0000 N   0  0  0  0  0  0  0  0  0  0  0  0
    1.5022   -1.1107    0.0000 N   0  0  0  0  0  0  0  0  0  0  0  0
    0.8470    0.1998    0.0000 C   0  0  0  0  0  0  0  0  0  0  0  0
    1.5022    0.6472    0.0000 C   0  0  0  0  0  0  0  0  0  0  0  0
    0.8310   -0.6792    0.0000 C   0  0  0  0  0  0  0  0  0  0  0  0
   -0.3356   -0.2317    0.0000 C   0  0  0  0  0  0  0  0  0  0  0  0
    2.1574   -0.6952    0.0000 C   0  0  0  0  0  0  0  0  0  0  0  0
    1.5341    1.5422    0.0000 C   0  0  0  0  0  0  0  0  0  0  0  0
   -1.0867   -0.1998    0.0000 C   0  0  0  0  0  0  0  0  0  0  0  0
    2.8286   -1.1586    0.0000 C   0  0  0  0  0  0  0  0  0  0  0  0
   -1.4703    0.5673    0.0000 C   0  0  0  0  0  0  0  0  0  0  0  0
   -1.4543   -0.9828    0.0000 C   0  0  0  0  0  0  0  0  0  0  0  0
   -2.2054    0.5673    0.0000 C   0  0  0  0  0  0  0  0  0  0  0  0
   -2.2214   -0.9668    0.0000 C   0  0  0  0  0  0  0  0  0  0  0  0
   -2.6048   -0.1998    0.0000 C   0  0  0  0  0  0  0  0  0  0  0  0
  1 22  1  0  0  0  0
  2 23  1  0  0  0  0
  3 26  1  0  0  0  0
  4 19  1  0  0  0  0
  5 19  1  0  0  0  0
  6 19  1  0  0  0  0
  7 21  1  0  0  0  0
  8 21  1  0  0  0  0
  9 21  1  0  0  0  0
 10 14  1  0  0  0  0
 10 17  2  0  0  0  0
 11 16  1  0  0  0  0
 11 17  1  0  0  0  0
 12 15  2  0  0  0  0
 12 18  1  0  0  0  0
 13 16  1  0  0  0  0
 13 18  2  0  0  0  0
 14 15  1  0  0  0  0
 14 16  2  0  0  0  0
 15 19  1  0  0  0  0
 17 20  1  0  0  0  0
 18 21  1  0  0  0  0
 20 22  2  0  0  0  0
 20 23  1  0  0  0  0
 22 24  1  0  0  0  0
 23 25  2  0  0  0  0
 24 26  2  0  0  0  0
 25 26  1  0  0  0  0
M  END
> <PUBCHEM_COMPOUND_ID_TYPE>
0

> <PUBCHEM_TOTAL_CHARGE>
0

> <PUBCHEM_SUBSTANCE_ID>
310945361

> <PUBCHEM_SUBSTANCE_VERSION>
1

> <PUBCHEM_EXT_DATASOURCE_NAME>
4488

> <PUBCHEM_EXT_DATASOURCE_REGID>
SCHEMBL16123459

> <PUBCHEM_SUBSTANCE_COMMENT>
InChI=1S/C13H3Cl3F6N4/c14-3-1-4(15)6(5(16)2-3)9-23-7-8(12(17,18)19)24-11(13(20,21)22)26-10(7)25-9/h1-2H,(H,23,24,25,26)
InChIKey=BIMSEALRQGUQFV-UHFFFAOYSA-N

> <PUBCHEM_SUBSTANCE_SYNONYM>
SCHEMBL16123459

> <PUBCHEM_XREF_EXT_ID>
SCHEMBL16123459

> <PUBCHEM_EXT_DATASOURCE_URL>
https://www.surechembl.org/

> <PUBCHEM_EXT_SUBSTANCE_URL>
https://www.surechembl.org/chemical/SCHEMBL16123459

> <PUBCHEM_CID_ASSOCIATIONS>
117611419  1

> <PUBCHEM_COORDINATE_TYPE>
1
3

$$$$
