310947354
  -OEChem-07211613022D

 38 42  0     1  0  0  0  0  0999 V2000
   -3.2633    2.4893    0.0000 O   0  0  0  0  0  0  0  0  0  0  0  0
   -0.3352    0.1719    0.0000 N   0  0  0  0  0  0  0  0  0  0  0  0
    0.1496    0.8394    0.0000 N   0  0  0  0  0  0  0  0  0  0  0  0
   -3.9777    1.2519    0.0000 N   0  0  0  0  0  0  0  0  0  0  0  0
   -1.1199    0.4269    0.0000 C   0  0  0  0  0  0  0  0  0  0  0  0
   -1.1199    1.2519    0.0000 C   0  0  0  0  0  0  0  0  0  0  0  0
   -0.3352    1.5068    0.0000 C   0  0  0  0  0  0  0  0  0  0  0  0
   -1.8343    1.6644    0.0000 C   0  0  0  0  0  0  0  0  0  0  0  0
   -2.5488    1.2519    0.0000 C   0  0  0  0  0  0  0  0  0  0  0  0
   -1.8343    0.0144    0.0000 C   0  0  0  0  0  0  0  0  0  0  0  0
   -0.1218   -0.6248    0.0000 C   0  0  0  0  0  0  0  0  0  0  0  0
   -2.5488    0.4269    0.0000 C   0  0  0  0  0  0  0  0  0  0  0  0
    0.6751   -0.8384    0.0000 C   0  0  0  0  0  0  0  0  0  0  0  0
    3.0657   -1.4790    0.0000 C   0  0  0  0  0  0  0  0  0  0  0  0
    2.2688   -1.2655    0.0000 C   0  0  0  0  0  0  0  0  0  0  0  0
    3.6491   -0.8957    0.0000 C   0  0  0  0  0  0  0  0  0  0  0  0
   -3.2633    1.6644    0.0000 C   0  0  0  0  0  0  0  0  0  0  0  0
    3.4355   -0.0988    0.0000 C   0  0  0  0  0  0  0  0  0  0  0  0
    0.0772    2.2213    0.0000 C   0  0  0  0  0  0  0  0  0  0  0  0
    0.8886   -1.6353    0.0000 C   0  0  0  0  0  0  0  0  0  0  0  0
    1.2584   -0.2550    0.0000 C   0  0  0  0  0  0  0  0  0  0  0  0
    1.6855   -1.8488    0.0000 C   0  0  0  0  0  0  0  0  0  0  0  0
    2.0553   -0.4686    0.0000 C   0  0  0  0  0  0  0  0  0  0  0  0
    3.2793   -2.2759    0.0000 C   0  0  0  0  0  0  0  0  0  0  0  0
    4.4460   -1.1091    0.0000 C   0  0  0  0  0  0  0  0  0  0  0  0
   -4.6921    1.6644    0.0000 C   0  0  3  0  0  0  0  0  0  0  0  0
    4.0760   -2.4893    0.0000 C   0  0  0  0  0  0  0  0  0  0  0  0
    4.6594   -1.9060    0.0000 C   0  0  0  0  0  0  0  0  0  0  0  0
   -5.4066    1.2519    0.0000 C   0  0  0  0  0  0  0  0  0  0  0  0
    2.5855   -0.3265    0.0000 C   0  0  0  0  0  0  0  0  0  0  0  0
    3.2078    0.7512    0.0000 C   0  0  0  0  0  0  0  0  0  0  0  0
    4.2855    0.1290    0.0000 C   0  0  0  0  0  0  0  0  0  0  0  0
   -5.4066    0.4269    0.0000 C   0  0  0  0  0  0  0  0  0  0  0  0
   -6.1210    1.6644    0.0000 C   0  0  0  0  0  0  0  0  0  0  0  0
   -4.6921    2.4893    0.0000 C   0  0  0  0  0  0  0  0  0  0  0  0
   -6.8355    1.2519    0.0000 C   0  0  0  0  0  0  0  0  0  0  0  0
   -6.1210    0.0144    0.0000 C   0  0  0  0  0  0  0  0  0  0  0  0
   -6.8355    0.4269    0.0000 C   0  0  0  0  0  0  0  0  0  0  0  0
  1 17  2  0  0  0  0
  2  3  1  0  0  0  0
  2  5  1  0  0  0  0
  2 11  1  0  0  0  0
  3  7  2  0  0  0  0
  4 17  1  0  0  0  0
  4 26  1  0  0  0  0
  5  6  1  0  0  0  0
  5 10  2  0  0  0  0
  6  7  1  0  0  0  0
  6  8  2  0  0  0  0
  7 19  1  0  0  0  0
  8  9  1  0  0  0  0
  9 12  2  0  0  0  0
  9 17  1  0  0  0  0
 10 12  1  0  0  0  0
 11 13  1  0  0  0  0
 13 20  2  0  0  0  0
 13 21  1  0  0  0  0
 14 15  1  0  0  0  0
 14 16  1  0  0  0  0
 14 24  2  0  0  0  0
 15 22  2  0  0  0  0
 15 23  1  0  0  0  0
 16 18  1  0  0  0  0
 16 25  2  0  0  0  0
 18 30  1  0  0  0  0
 18 31  1  0  0  0  0
 18 32  1  0  0  0  0
 20 22  1  0  0  0  0
 21 23  2  0  0  0  0
 24 27  1  0  0  0  0
 25 28  1  0  0  0  0
 26 29  1  0  0  0  0
 26 35  1  6  0  0  0
 27 28  2  0  0  0  0
 29 33  1  0  0  0  0
 29 34  1  0  0  0  0
 33 37  1  0  0  0  0
 34 36  1  0  0  0  0
 36 38  1  0  0  0  0
 37 38  1  0  0  0  0
M  END
> <PUBCHEM_COMPOUND_ID_TYPE>
0

> <PUBCHEM_TOTAL_CHARGE>
0

> <PUBCHEM_SUBSTANCE_ID>
310947354

> <PUBCHEM_SUBSTANCE_VERSION>
1

> <PUBCHEM_EXT_DATASOURCE_NAME>
4488

> <PUBCHEM_EXT_DATASOURCE_REGID>
SCHEMBL16125509

> <PUBCHEM_SUBSTANCE_COMMENT>
InChI=1S/C34H41N3O/c1-23(26-11-7-6-8-12-26)35-33(38)28-19-20-32-30(21-28)24(2)36-37(32)22-25-15-17-27(18-16-25)29-13-9-10-14-31(29)34(3,4)5/h9-10,13-21,23,26H,6-8,11-12,22H2,1-5H3,(H,35,38)/t23-/m0/s1
InChIKey=VJDGIIRCMVQDQX-QHCPKHFHSA-N

> <PUBCHEM_SUBSTANCE_SYNONYM>
SCHEMBL16125509

> <PUBCHEM_XREF_EXT_ID>
SCHEMBL16125509

> <PUBCHEM_EXT_DATASOURCE_URL>
https://www.surechembl.org/

> <PUBCHEM_EXT_SUBSTANCE_URL>
https://www.surechembl.org/chemical/SCHEMBL16125509

> <PUBCHEM_CID_ASSOCIATIONS>
117613099  1

> <PUBCHEM_COORDINATE_TYPE>
1
3

> <PUBCHEM_BONDANNOTATIONS>
26  35  6

$$$$
