310935858
  -OEChem-07211613022D

 12 12  0     0  0  0  0  0  0999 V2000
    3.3026   -1.4359    0.0000 Br  0  0  0  0  0  0  0  0  0  0  0  0
    0.0000    0.0000    0.0000 Cl  0  0  0  0  0  0  0  0  0  0  0  0
    2.4410   -2.8574    0.0000 O   0  0  0  0  0  0  0  0  0  0  0  0
    1.2349   -2.1395    0.0000 N   0  0  0  0  0  0  0  0  0  0  0  0
    2.0390   -2.1395    0.0000 C   0  0  0  0  0  0  0  0  0  0  0  0
    2.4698   -1.4359    0.0000 C   0  0  0  0  0  0  0  0  0  0  0  0
    1.2349   -0.7323    0.0000 C   0  0  0  0  0  0  0  0  0  0  0  0
    2.0390   -0.7323    0.0000 C   0  0  0  0  0  0  0  0  0  0  0  0
    0.7898   -1.4359    0.0000 C   0  0  0  0  0  0  0  0  0  0  0  0
    0.8185   -0.0143    0.0000 C   0  0  0  0  0  0  0  0  0  0  0  0
    3.2595   -2.8718    0.0000 C   0  0  0  0  0  0  0  0  0  0  0  0
    3.6902   -2.1682    0.0000 C   0  0  0  0  0  0  0  0  0  0  0  0
  1  6  1  0  0  0  0
  2 10  1  0  0  0  0
  3  5  1  0  0  0  0
  3 11  1  0  0  0  0
  4  5  1  0  0  0  0
  4  9  2  0  0  0  0
  5  6  2  0  0  0  0
  6  8  1  0  0  0  0
  7  8  2  0  0  0  0
  7  9  1  0  0  0  0
  7 10  1  0  0  0  0
 11 12  1  0  0  0  0
M  END
> <PUBCHEM_COMPOUND_ID_TYPE>
0

> <PUBCHEM_TOTAL_CHARGE>
0

> <PUBCHEM_SUBSTANCE_ID>
310935858

> <PUBCHEM_SUBSTANCE_VERSION>
1

> <PUBCHEM_EXT_DATASOURCE_NAME>
4488

> <PUBCHEM_EXT_DATASOURCE_REGID>
SCHEMBL16113450

> <PUBCHEM_SUBSTANCE_COMMENT>
InChI=1S/C8H9BrClNO/c1-2-12-8-7(9)3-6(4-10)5-11-8/h3,5H,2,4H2,1H3
InChIKey=HDOXRQXIBKDSFC-UHFFFAOYSA-N

> <PUBCHEM_SUBSTANCE_SYNONYM>
SCHEMBL16113450

> <PUBCHEM_XREF_EXT_ID>
SCHEMBL16113450

> <PUBCHEM_EXT_DATASOURCE_URL>
https://www.surechembl.org/

> <PUBCHEM_EXT_SUBSTANCE_URL>
https://www.surechembl.org/chemical/SCHEMBL16113450

> <PUBCHEM_CID_ASSOCIATIONS>
117603848  1

> <PUBCHEM_COORDINATE_TYPE>
1
3

$$$$
