310940101
  -OEChem-07211613022D

 17 17  0     1  0  0  0  0  0999 V2000
   -1.7076   -1.6790    0.0000 F   0  0  0  0  0  0  0  0  0  0  0  0
   -0.6964    1.1066    0.0000 O   0  0  0  0  0  0  0  0  0  0  0  0
    0.7346    0.9731    0.0000 O   0  0  0  0  0  0  0  0  0  0  0  0
   -0.1050   -0.1908    0.0000 N   0  0  0  0  0  0  0  0  0  0  0  0
    1.7076   -2.7666    0.0000 N   0  0  0  0  0  0  0  0  0  0  0  0
   -0.0286    0.6296    0.0000 C   0  0  0  0  0  0  0  0  0  0  0  0
   -0.9445   -1.3547    0.0000 C   0  0  3  0  0  0  0  0  0  0  0  0
   -0.2767   -1.7935    0.0000 C   0  0  3  0  0  0  0  0  0  0  0  0
   -0.8682   -0.5151    0.0000 C   0  0  0  0  0  0  0  0  0  0  0  0
    0.5629   -0.6869    0.0000 C   0  0  0  0  0  0  0  0  0  0  0  0
    0.4674   -1.5074    0.0000 C   0  0  0  0  0  0  0  0  0  0  0  0
   -0.6201    1.9462    0.0000 C   0  0  0  0  0  0  0  0  0  0  0  0
    0.0668   -2.5758    0.0000 C   0  0  0  0  0  0  0  0  0  0  0  0
   -0.5438    2.7666    0.0000 C   0  0  0  0  0  0  0  0  0  0  0  0
   -1.2879    2.4041    0.0000 C   0  0  0  0  0  0  0  0  0  0  0  0
    0.1622    2.2897    0.0000 C   0  0  0  0  0  0  0  0  0  0  0  0
    0.8682   -2.6903    0.0000 C   0  0  0  0  0  0  0  0  0  0  0  0
  7  1  1  6  0  0  0
  2  6  1  0  0  0  0
  2 12  1  0  0  0  0
  3  6  2  0  0  0  0
  4  6  1  0  0  0  0
  4  9  1  0  0  0  0
  4 10  1  0  0  0  0
  5 17  3  0  0  0  0
  7  8  1  0  0  0  0
  7  9  1  0  0  0  0
  8 11  1  0  0  0  0
  8 13  1  1  0  0  0
 10 11  1  0  0  0  0
 12 14  1  0  0  0  0
 12 15  1  0  0  0  0
 12 16  1  0  0  0  0
 13 17  1  0  0  0  0
M  END
> <PUBCHEM_COMPOUND_ID_TYPE>
0

> <PUBCHEM_TOTAL_CHARGE>
0

> <PUBCHEM_SUBSTANCE_ID>
310940101

> <PUBCHEM_SUBSTANCE_VERSION>
1

> <PUBCHEM_EXT_DATASOURCE_NAME>
4488

> <PUBCHEM_EXT_DATASOURCE_REGID>
SCHEMBL16118032

> <PUBCHEM_SUBSTANCE_COMMENT>
InChI=1S/C12H19FN2O2/c1-12(2,3)17-11(16)15-7-5-9(4-6-14)10(13)8-15/h9-10H,4-5,7-8H2,1-3H3/t9-,10-/m1/s1
InChIKey=BLBQDGRRNXEDGC-NXEZZACHSA-N

> <PUBCHEM_SUBSTANCE_SYNONYM>
SCHEMBL16118032

> <PUBCHEM_XREF_EXT_ID>
SCHEMBL16118032

> <PUBCHEM_EXT_DATASOURCE_URL>
https://www.surechembl.org/

> <PUBCHEM_EXT_SUBSTANCE_URL>
https://www.surechembl.org/chemical/SCHEMBL16118032

> <PUBCHEM_CID_ASSOCIATIONS>
105531453  1

> <PUBCHEM_COORDINATE_TYPE>
1
3

> <PUBCHEM_BONDANNOTATIONS>
7  1  6
8  13  5

$$$$
