310939992
  -OEChem-07211613022D

 20 21  0     0  0  0  0  0  0999 V2000
   -2.9124  -11.8030    0.0000 I   0  0  0  0  0  0  0  0  0  0  0  0
   -5.7703  -13.4530    0.0000 Cl  0  0  0  0  0  0  0  0  0  0  0  0
   -5.7703  -11.8030    0.0000 Cl  0  0  0  0  0  0  0  0  0  0  0  0
   -2.9124  -13.4530    0.0000 O   0  0  0  0  0  0  0  0  0  0  0  0
   -1.4834  -10.9781    0.0000 O   0  0  0  0  0  0  0  0  0  0  0  0
   -1.4834  -13.4530    0.0000 N   0  0  0  0  0  0  0  0  0  0  0  0
    0.6600  -10.5655    0.0000 N   0  0  0  0  0  0  0  0  0  0  0  0
   -3.6268  -13.0406    0.0000 C   0  0  0  0  0  0  0  0  0  0  0  0
   -3.6268  -12.2156    0.0000 C   0  0  0  0  0  0  0  0  0  0  0  0
   -5.0558  -13.0406    0.0000 C   0  0  0  0  0  0  0  0  0  0  0  0
   -5.0558  -12.2156    0.0000 C   0  0  0  0  0  0  0  0  0  0  0  0
   -4.3413  -13.4530    0.0000 C   0  0  0  0  0  0  0  0  0  0  0  0
   -2.1978  -13.0406    0.0000 C   0  0  0  0  0  0  0  0  0  0  0  0
   -4.3413  -11.8030    0.0000 C   0  0  0  0  0  0  0  0  0  0  0  0
   -2.1978  -12.2156    0.0000 C   0  0  0  0  0  0  0  0  0  0  0  0
   -1.4834  -11.8030    0.0000 C   0  0  0  0  0  0  0  0  0  0  0  0
   -0.7688  -12.2156    0.0000 C   0  0  0  0  0  0  0  0  0  0  0  0
   -0.7688  -13.0406    0.0000 C   0  0  0  0  0  0  0  0  0  0  0  0
   -0.7688  -10.5655    0.0000 C   0  0  0  0  0  0  0  0  0  0  0  0
   -0.0545  -10.9781    0.0000 C   0  0  0  0  0  0  0  0  0  0  0  0
  1  9  1  0  0  0  0
  2 10  1  0  0  0  0
  3 11  1  0  0  0  0
  4  8  1  0  0  0  0
  4 13  1  0  0  0  0
  5 16  1  0  0  0  0
  5 19  1  0  0  0  0
  6 13  1  0  0  0  0
  6 18  2  0  0  0  0
  7 20  1  0  0  0  0
  8  9  1  0  0  0  0
  8 12  2  0  0  0  0
  9 14  2  0  0  0  0
 10 11  2  0  0  0  0
 10 12  1  0  0  0  0
 11 14  1  0  0  0  0
 13 15  2  0  0  0  0
 15 16  1  0  0  0  0
 16 17  2  0  0  0  0
 17 18  1  0  0  0  0
 19 20  1  0  0  0  0
M  END
> <PUBCHEM_COMPOUND_ID_TYPE>
0

> <PUBCHEM_TOTAL_CHARGE>
0

> <PUBCHEM_SUBSTANCE_ID>
310939992

> <PUBCHEM_SUBSTANCE_VERSION>
1

> <PUBCHEM_EXT_DATASOURCE_NAME>
4488

> <PUBCHEM_EXT_DATASOURCE_REGID>
SCHEMBL16117922

> <PUBCHEM_SUBSTANCE_COMMENT>
InChI=1S/C13H11Cl2IN2O2/c14-9-6-11(16)12(7-10(9)15)20-13-5-8(1-3-18-13)19-4-2-17/h1,3,5-7H,2,4,17H2
InChIKey=PTPYUWWAZYBODK-UHFFFAOYSA-N

> <PUBCHEM_SUBSTANCE_SYNONYM>
SCHEMBL16117922

> <PUBCHEM_XREF_EXT_ID>
SCHEMBL16117922

> <PUBCHEM_EXT_DATASOURCE_URL>
https://www.surechembl.org/

> <PUBCHEM_EXT_SUBSTANCE_URL>
https://www.surechembl.org/chemical/SCHEMBL16117922

> <PUBCHEM_CID_ASSOCIATIONS>
117607155  1

> <PUBCHEM_COORDINATE_TYPE>
1
3

$$$$
