310947998
  -OEChem-07211613022D

 37 42  0     1  0  0  0  0  0999 V2000
   -3.4888   -2.5832    0.0000 P   0  0  0  0  0  0  0  0  0  0  0  0
   -2.4496   -0.1930    0.0000 O   0  0  0  0  0  0  0  0  0  0  0  0
   -2.7465   -2.1675    0.0000 O   0  0  0  0  0  0  0  0  0  0  0  0
   -2.7465    1.9894    0.0000 O   0  0  0  0  0  0  0  0  0  0  0  0
   -3.4739   -3.4146    0.0000 O   0  0  0  0  0  0  0  0  0  0  0  0
    2.3012    1.5737    0.0000 O   0  0  0  0  0  0  0  0  0  0  0  0
    1.5885    2.8356    0.0000 O   0  0  0  0  0  0  0  0  0  0  0  0
    3.8006    0.8165    0.0000 O   0  0  0  0  0  0  0  0  0  0  0  0
    2.5239    3.4146    0.0000 O   0  0  0  0  0  0  0  0  0  0  0  0
    0.8462   -0.9650    0.0000 N   0  0  3  0  0  0  0  0  0  0  0  0
    3.0286    1.9894    0.0000 N   0  0  0  0  0  0  0  0  0  0  0  0
   -1.3213   -0.4602    0.0000 C   0  0  3  0  0  0  0  0  0  0  0  0
   -1.3213    0.3563    0.0000 C   0  0  0  0  0  0  0  0  0  0  0  0
   -2.0339   -0.9056    0.0000 C   0  0  3  0  0  0  0  0  0  0  0  0
   -0.5938   -0.8908    0.0000 C   0  0  3  0  0  0  0  0  0  0  0  0
   -2.0339    0.7720    0.0000 C   0  0  0  0  0  0  0  0  0  0  0  0
   -0.6087    0.7868    0.0000 C   0  0  0  0  0  0  0  0  0  0  0  0
    0.1187   -0.4751    0.0000 C   0  0  3  0  0  0  0  0  0  0  0  0
   -0.7275   -0.0297    0.0000 C   0  0  0  0  0  0  0  0  0  0  0  0
   -2.0339   -1.7073    0.0000 C   0  0  3  0  0  0  0  0  0  0  0  0
    0.1336    0.3414    0.0000 C   0  0  0  0  0  0  0  0  0  0  0  0
   -0.5938    1.6182    0.0000 C   0  0  0  0  0  0  0  0  0  0  0  0
   -2.0339    1.6034    0.0000 C   0  0  0  0  0  0  0  0  0  0  0  0
   -0.6087   -1.7221    0.0000 C   0  0  0  0  0  0  0  0  0  0  0  0
    0.5938   -0.0297    0.0000 C   0  0  0  0  0  0  0  0  0  0  0  0
   -1.3213   -2.1378    0.0000 C   0  0  0  0  0  0  0  0  0  0  0  0
   -1.3213    2.0042    0.0000 C   0  0  0  0  0  0  0  0  0  0  0  0
    0.1040    2.0191    0.0000 C   0  0  0  0  0  0  0  0  0  0  0  0
    1.6776   -0.7126    0.0000 C   0  0  0  0  0  0  0  0  0  0  0  0
    0.8759    1.6182    0.0000 C   0  0  0  0  0  0  0  0  0  0  0  0
    1.5588    2.0042    0.0000 C   0  0  0  0  0  0  0  0  0  0  0  0
   -3.9193   -1.8112    0.0000 C   0  0  0  0  0  0  0  0  0  0  0  0
   -4.3202   -2.3605    0.0000 C   0  0  0  0  0  0  0  0  0  0  0  0
    3.7709    1.7221    0.0000 C   0  0  0  0  0  0  0  0  0  0  0  0
    3.1325    2.8356    0.0000 C   0  0  0  0  0  0  0  0  0  0  0  0
    4.3202    2.3012    0.0000 C   0  0  0  0  0  0  0  0  0  0  0  0
    3.9193    3.0137    0.0000 C   0  0  0  0  0  0  0  0  0  0  0  0
  1  3  1  0  0  0  0
  1  5  2  0  0  0  0
  1 32  1  0  0  0  0
  1 33  1  0  0  0  0
 14  2  1  6  0  0  0
  2 16  1  0  0  0  0
 20  3  1  6  0  0  0
  4 23  1  0  0  0  0
  6 11  1  0  0  0  0
  6 31  1  0  0  0  0
  7 31  2  0  0  0  0
  8 34  2  0  0  0  0
  9 35  2  0  0  0  0
 18 10  1  1  0  0  0
 10 25  1  0  0  0  0
 10 29  1  0  0  0  0
 11 34  1  0  0  0  0
 11 35  1  0  0  0  0
 12 13  1  6  0  0  0
 12 14  1  0  0  0  0
 12 15  1  0  0  0  0
 12 19  1  0  0  0  0
 13 16  1  0  0  0  0
 13 17  2  0  0  0  0
 14 20  1  0  0  0  0
 15 18  1  0  0  0  0
 15 24  1  0  0  0  0
 16 23  2  0  0  0  0
 17 21  1  0  0  0  0
 17 22  1  0  0  0  0
 18 21  1  0  0  0  0
 19 25  1  0  0  0  0
 20 26  1  0  0  0  0
 22 27  2  0  0  0  0
 22 28  1  0  0  0  0
 23 27  1  0  0  0  0
 24 26  2  0  0  0  0
 28 30  1  0  0  0  0
 30 31  1  0  0  0  0
 34 36  1  0  0  0  0
 35 37  1  0  0  0  0
 36 37  1  0  0  0  0
M  END
> <PUBCHEM_COMPOUND_ID_TYPE>
0

> <PUBCHEM_TOTAL_CHARGE>
0

> <PUBCHEM_SUBSTANCE_ID>
310947998

> <PUBCHEM_SUBSTANCE_VERSION>
1

> <PUBCHEM_EXT_DATASOURCE_NAME>
4488

> <PUBCHEM_EXT_DATASOURCE_REGID>
SCHEMBL16126172

> <PUBCHEM_SUBSTANCE_COMMENT>
InChI=1S/C26H31N2O8P/c1-27-11-10-26-16-5-6-19(36-37(2,3)33)25(26)34-24-18(29)12-14(15(23(24)26)13-17(16)27)4-9-22(32)35-28-20(30)7-8-21(28)31/h5-6,12,16-17,19,25,29H,4,7-11,13H2,1-3H3/t16?,17-,19+,25+,26+/m1/s1
InChIKey=XJPYVGGTEDSJKP-LQUHVMDTSA-N

> <PUBCHEM_SUBSTANCE_SYNONYM>
SCHEMBL16126172

> <PUBCHEM_XREF_EXT_ID>
SCHEMBL16126172

> <PUBCHEM_EXT_DATASOURCE_URL>
https://www.surechembl.org/

> <PUBCHEM_EXT_SUBSTANCE_URL>
https://www.surechembl.org/chemical/SCHEMBL16126172

> <PUBCHEM_CID_ASSOCIATIONS>
117613643  1

> <PUBCHEM_COORDINATE_TYPE>
1
3

> <PUBCHEM_BONDANNOTATIONS>
18  10  5
12  13  6
14  2  6
20  3  6

$$$$
