310941744
  -OEChem-07211613022D

 35 38  0     0  0  0  0  0  0999 V2000
   -2.4232    1.2467    0.0000 S   0  0  0  0  0  0  0  0  0  0  0  0
   -0.1903    2.4683    0.0000 O   0  0  0  0  0  0  0  0  0  0  0  0
   -1.6121   -1.6472    0.0000 O   0  0  0  0  0  0  0  0  0  0  0  0
    1.2417    0.8261    0.0000 O   0  0  0  0  0  0  0  0  0  0  0  0
   -1.6121    2.4783    0.0000 N   0  0  0  0  0  0  0  0  0  0  0  0
   -3.6348    1.7874    0.0000 N   0  0  0  0  0  0  0  0  0  0  0  0
   -3.0841    2.3982    0.0000 N   0  0  0  0  0  0  0  0  0  0  0  0
    0.5307   -0.4156    0.0000 N   0  0  0  0  0  0  0  0  0  0  0  0
    2.6836   -0.0050    0.0000 N   0  0  0  0  0  0  0  0  0  0  0  0
    4.1255    0.8161    0.0000 N   0  0  0  0  0  0  0  0  0  0  0  0
   -3.2243    1.0965    0.0000 C   0  0  0  0  0  0  0  0  0  0  0  0
   -0.9012    1.2567    0.0000 C   0  0  0  0  0  0  0  0  0  0  0  0
   -2.3331    2.0777    0.0000 C   0  0  0  0  0  0  0  0  0  0  0  0
   -3.5547    0.3355    0.0000 C   0  0  0  0  0  0  0  0  0  0  0  0
   -0.1903    0.0251    0.0000 C   0  0  0  0  0  0  0  0  0  0  0  0
   -0.9112    2.0678    0.0000 C   0  0  0  0  0  0  0  0  0  0  0  0
   -0.8912   -0.3955    0.0000 C   0  0  0  0  0  0  0  0  0  0  0  0
   -0.1903    0.8361    0.0000 C   0  0  0  0  0  0  0  0  0  0  0  0
   -4.3758    0.2554    0.0000 C   0  0  0  0  0  0  0  0  0  0  0  0
   -1.6121    0.8361    0.0000 C   0  0  0  0  0  0  0  0  0  0  0  0
   -1.6121    0.0150    0.0000 C   0  0  0  0  0  0  0  0  0  0  0  0
   -3.0841   -0.3054    0.0000 C   0  0  0  0  0  0  0  0  0  0  0  0
    1.2417   -0.0050    0.0000 C   0  0  0  0  0  0  0  0  0  0  0  0
   -0.9012   -1.2266    0.0000 C   0  0  0  0  0  0  0  0  0  0  0  0
   -4.6962   -0.5057    0.0000 C   0  0  0  0  0  0  0  0  0  0  0  0
   -3.3945   -1.0564    0.0000 C   0  0  0  0  0  0  0  0  0  0  0  0
    1.9827   -0.3955    0.0000 C   0  0  0  0  0  0  0  0  0  0  0  0
   -4.2156   -1.1465    0.0000 C   0  0  0  0  0  0  0  0  0  0  0  0
   -4.8464    0.9062    0.0000 C   0  0  0  0  0  0  0  0  0  0  0  0
    3.3945   -0.4055    0.0000 C   0  0  0  0  0  0  0  0  0  0  0  0
    2.6836    0.8462    0.0000 C   0  0  0  0  0  0  0  0  0  0  0  0
    4.1155    0.0050    0.0000 C   0  0  0  0  0  0  0  0  0  0  0  0
    3.3945    1.2467    0.0000 C   0  0  0  0  0  0  0  0  0  0  0  0
   -1.6121   -2.4783    0.0000 C   0  0  0  0  0  0  0  0  0  0  0  0
    4.8464    1.2266    0.0000 C   0  0  0  0  0  0  0  0  0  0  0  0
  1 11  1  0  0  0  0
  1 13  1  0  0  0  0
  2 16  2  0  0  0  0
  3 24  1  0  0  0  0
  3 34  1  0  0  0  0
  4 23  2  0  0  0  0
  5 13  1  0  0  0  0
  5 16  1  0  0  0  0
  6  7  1  0  0  0  0
  6 11  2  0  0  0  0
  7 13  2  0  0  0  0
  8 15  1  0  0  0  0
  8 23  1  0  0  0  0
  9 27  1  0  0  0  0
  9 30  1  0  0  0  0
  9 31  1  0  0  0  0
 10 32  1  0  0  0  0
 10 33  1  0  0  0  0
 10 35  1  0  0  0  0
 11 14  1  0  0  0  0
 12 16  1  0  0  0  0
 12 18  2  0  0  0  0
 12 20  1  0  0  0  0
 14 19  2  0  0  0  0
 14 22  1  0  0  0  0
 15 17  2  0  0  0  0
 15 18  1  0  0  0  0
 17 21  1  0  0  0  0
 17 24  1  0  0  0  0
 19 25  1  0  0  0  0
 19 29  1  0  0  0  0
 20 21  2  0  0  0  0
 22 26  2  0  0  0  0
 23 27  1  0  0  0  0
 25 28  2  0  0  0  0
 26 28  1  0  0  0  0
 30 32  1  0  0  0  0
 31 33  1  0  0  0  0
M  END
> <PUBCHEM_COMPOUND_ID_TYPE>
0

> <PUBCHEM_TOTAL_CHARGE>
0

> <PUBCHEM_SUBSTANCE_ID>
310941744

> <PUBCHEM_SUBSTANCE_VERSION>
1

> <PUBCHEM_EXT_DATASOURCE_NAME>
4488

> <PUBCHEM_EXT_DATASOURCE_REGID>
SCHEMBL16119775

> <PUBCHEM_SUBSTANCE_COMMENT>
InChI=1S/C25H30N6O3S/c1-17-6-4-5-7-20(17)24-28-29-25(35-24)27-23(33)18-8-9-19(16-34-3)21(14-18)26-22(32)15-31-12-10-30(2)11-13-31/h4-9,14H,10-13,15-16H2,1-3H3,(H,26,32)(H,27,29,33)
InChIKey=MIVIGGIWTKLWDA-UHFFFAOYSA-N

> <PUBCHEM_SUBSTANCE_SYNONYM>
SCHEMBL16119775

> <PUBCHEM_XREF_EXT_ID>
SCHEMBL16119775

> <PUBCHEM_EXT_DATASOURCE_URL>
https://www.surechembl.org/

> <PUBCHEM_EXT_SUBSTANCE_URL>
https://www.surechembl.org/chemical/SCHEMBL16119775

> <PUBCHEM_CID_ASSOCIATIONS>
90462714  1

> <PUBCHEM_COORDINATE_TYPE>
1
3

$$$$
