310933942
  -OEChem-07211613022D

 40 45  0     1  0  0  0  0  0999 V2000
    5.8071    3.5724    0.0000 Cl  0  0  0  0  0  0  0  0  0  0  0  0
    1.2696    1.4290    0.0000 O   0  0  0  0  0  0  0  0  0  0  0  0
   -2.8579   -0.4125    0.0000 O   0  0  0  0  0  0  0  0  0  0  0  0
   -2.1434   -1.6500    0.0000 O   0  0  0  0  0  0  0  0  0  0  0  0
    2.5071    0.7144    0.0000 N   0  0  0  0  0  0  0  0  0  0  0  0
    0.7846   -0.6674    0.0000 N   0  0  0  0  0  0  0  0  0  0  0  0
    0.7846    0.6674    0.0000 N   0  0  0  0  0  0  0  0  0  0  0  0
    2.5071    3.5724    0.0000 N   0  0  0  0  0  0  0  0  0  0  0  0
    2.0221    2.9049    0.0000 N   0  0  0  0  0  0  0  0  0  0  0  0
    1.2375    3.1599    0.0000 N   0  0  0  0  0  0  0  0  0  0  0  0
    1.2375    3.9849    0.0000 N   0  0  0  0  0  0  0  0  0  0  0  0
    2.0946    0.0000    0.0000 C   0  0  3  0  0  0  0  0  0  0  0  0
    1.2696    0.0000    0.0000 C   0  0  0  0  0  0  0  0  0  0  0  0
    0.0000   -0.4125    0.0000 C   0  0  0  0  0  0  0  0  0  0  0  0
    0.0000    0.4125    0.0000 C   0  0  0  0  0  0  0  0  0  0  0  0
    3.7446    2.8579    0.0000 C   0  0  0  0  0  0  0  0  0  0  0  0
    3.3321    2.1434    0.0000 C   0  0  0  0  0  0  0  0  0  0  0  0
    2.0946    1.4290    0.0000 C   0  0  0  0  0  0  0  0  0  0  0  0
    3.3321    3.5724    0.0000 C   0  0  0  0  0  0  0  0  0  0  0  0
    2.5071    2.1434    0.0000 C   0  0  0  0  0  0  0  0  0  0  0  0
    3.3321    0.7144    0.0000 C   0  0  0  0  0  0  0  0  0  0  0  0
    3.7446    1.4290    0.0000 C   0  0  0  0  0  0  0  0  0  0  0  0
    2.5071   -0.7144    0.0000 C   0  0  0  0  0  0  0  0  0  0  0  0
   -0.7144   -0.8250    0.0000 C   0  0  0  0  0  0  0  0  0  0  0  0
   -1.4290   -0.4125    0.0000 C   0  0  0  0  0  0  0  0  0  0  0  0
   -0.7144    0.8250    0.0000 C   0  0  0  0  0  0  0  0  0  0  0  0
    4.5696    2.8579    0.0000 C   0  0  0  0  0  0  0  0  0  0  0  0
    3.7446    4.2868    0.0000 C   0  0  0  0  0  0  0  0  0  0  0  0
   -1.4290    0.4125    0.0000 C   0  0  0  0  0  0  0  0  0  0  0  0
    4.9821    3.5724    0.0000 C   0  0  0  0  0  0  0  0  0  0  0  0
    3.3321   -0.7144    0.0000 C   0  0  0  0  0  0  0  0  0  0  0  0
    4.5696    4.2868    0.0000 C   0  0  0  0  0  0  0  0  0  0  0  0
   -2.1434   -0.8250    0.0000 C   0  0  0  0  0  0  0  0  0  0  0  0
    2.0221    4.2398    0.0000 C   0  0  0  0  0  0  0  0  0  0  0  0
    3.7446   -1.4290    0.0000 C   0  0  0  0  0  0  0  0  0  0  0  0
    3.7446    0.0000    0.0000 C   0  0  0  0  0  0  0  0  0  0  0  0
    4.5696   -1.4290    0.0000 C   0  0  0  0  0  0  0  0  0  0  0  0
    4.5696    0.0000    0.0000 C   0  0  0  0  0  0  0  0  0  0  0  0
    4.9821   -0.7144    0.0000 C   0  0  0  0  0  0  0  0  0  0  0  0
   -3.5724   -0.8250    0.0000 C   0  0  0  0  0  0  0  0  0  0  0  0
  1 30  1  0  0  0  0
  2 18  2  0  0  0  0
  3 33  1  0  0  0  0
  3 40  1  0  0  0  0
  4 33  2  0  0  0  0
  5 12  1  0  0  0  0
  5 18  1  0  0  0  0
  5 21  1  0  0  0  0
  6 13  2  0  0  0  0
  6 14  1  0  0  0  0
  7 13  1  0  0  0  0
  7 15  1  0  0  0  0
  8  9  1  0  0  0  0
  8 19  1  0  0  0  0
  8 34  1  0  0  0  0
  9 10  2  0  0  0  0
 10 11  1  0  0  0  0
 11 34  2  0  0  0  0
 12 13  1  0  0  0  0
 12 23  1  1  0  0  0
 14 15  1  0  0  0  0
 14 24  2  0  0  0  0
 15 26  2  0  0  0  0
 16 17  1  0  0  0  0
 16 19  1  0  0  0  0
 16 27  2  0  0  0  0
 17 20  2  0  0  0  0
 17 22  1  0  0  0  0
 18 20  1  0  0  0  0
 19 28  2  0  0  0  0
 21 22  2  0  0  0  0
 23 31  1  0  0  0  0
 24 25  1  0  0  0  0
 25 29  2  0  0  0  0
 25 33  1  0  0  0  0
 26 29  1  0  0  0  0
 27 30  1  0  0  0  0
 28 32  1  0  0  0  0
 30 32  2  0  0  0  0
 31 35  2  0  0  0  0
 31 36  1  0  0  0  0
 35 37  1  0  0  0  0
 36 38  2  0  0  0  0
 37 39  2  0  0  0  0
 38 39  1  0  0  0  0
M  END
> <PUBCHEM_COMPOUND_ID_TYPE>
0

> <PUBCHEM_TOTAL_CHARGE>
0

> <PUBCHEM_SUBSTANCE_ID>
310933942

> <PUBCHEM_SUBSTANCE_VERSION>
1

> <PUBCHEM_EXT_DATASOURCE_NAME>
4488

> <PUBCHEM_EXT_DATASOURCE_REGID>
SCHEMBL16111381

> <PUBCHEM_SUBSTANCE_COMMENT>
InChI=1S/C29H22ClN7O3/c1-40-29(39)20-7-9-23-24(14-20)33-28(32-23)26(13-18-5-3-2-4-6-18)36-12-11-19(15-27(36)38)22-16-21(30)8-10-25(22)37-17-31-34-35-37/h2-12,14-17,26H,13H2,1H3,(H,32,33)/t26-/m0/s1
InChIKey=RUFPAXOSFPNOSJ-SANMLTNESA-N

> <PUBCHEM_SUBSTANCE_SYNONYM>
SCHEMBL16111381

> <PUBCHEM_XREF_EXT_ID>
SCHEMBL16111381

> <PUBCHEM_EXT_DATASOURCE_URL>
https://www.surechembl.org/

> <PUBCHEM_EXT_SUBSTANCE_URL>
https://www.surechembl.org/chemical/SCHEMBL16111381

> <PUBCHEM_CID_ASSOCIATIONS>
86301225  1

> <PUBCHEM_COORDINATE_TYPE>
1
3

> <PUBCHEM_BONDANNOTATIONS>
12  23  5

$$$$
