310929675
  -OEChem-07211613022D

 66 73  0     1  0  0  0  0  0999 V2000
    8.9082    4.9833    0.0000 S   0  0  0  0  0  0  0  0  0  0  0  0
    8.4534    6.5694    0.0000 O   0  0  0  0  0  0  0  0  0  0  0  0
    5.4388    6.0031    0.0000 O   0  0  0  0  0  0  0  0  0  0  0  0
    5.4957    2.3479    0.0000 O   0  0  0  0  0  0  0  0  0  0  0  0
    4.0668    5.6479    0.0000 O   0  0  0  0  0  0  0  0  0  0  0  0
    8.7086    4.1828    0.0000 O   0  0  0  0  0  0  0  0  0  0  0  0
    9.1078    5.7838    0.0000 O   0  0  0  0  0  0  0  0  0  0  0  0
    2.6680    2.4606    0.0000 O   0  0  0  0  0  0  0  0  0  0  0  0
    6.9246   -0.1271    0.0000 O   0  0  0  0  0  0  0  0  0  0  0  0
    1.9233    3.5854    0.0000 O   0  0  0  0  0  0  0  0  0  0  0  0
    6.7442    5.4219    0.0000 N   0  0  0  0  0  0  0  0  0  0  0  0
    4.7812    4.4104    0.0000 N   0  0  0  0  0  0  0  0  0  0  0  0
    8.1077    5.1829    0.0000 N   0  0  0  0  0  0  0  0  0  0  0  0
    3.3523    3.5854    0.0000 N   0  0  0  0  0  0  0  0  0  0  0  0
    6.9246    2.3479    0.0000 N   0  0  0  0  0  0  0  0  0  0  0  0
    9.0681   -1.3646    0.0000 N   0  0  0  0  0  0  0  0  0  0  0  0
    7.0798    6.1756    0.0000 C   0  0  3  0  0  0  0  0  0  0  0  0
    6.3958    6.6369    0.0000 C   0  0  3  0  0  0  0  0  0  0  0  0
    7.1373    6.9985    0.0000 C   0  0  0  0  0  0  0  0  0  0  0  0
    7.8803    5.9760    0.0000 C   0  0  0  0  0  0  0  0  0  0  0  0
    5.5882    4.5820    0.0000 C   0  0  3  0  0  0  0  0  0  0  0  0
    5.9238    5.3356    0.0000 C   0  0  0  0  0  0  0  0  0  0  0  0
    5.5728    6.6944    0.0000 C   0  0  0  0  0  0  0  0  0  0  0  0
    5.4957    3.1729    0.0000 C   0  0  3  0  0  0  0  0  0  0  0  0
    6.0007    3.8675    0.0000 C   0  0  0  0  0  0  0  0  0  0  0  0
    4.0668    4.8229    0.0000 C   0  0  0  0  0  0  0  0  0  0  0  0
    4.7812    3.5854    0.0000 C   0  0  0  0  0  0  0  0  0  0  0  0
    3.3523    4.4104    0.0000 C   0  0  3  0  0  0  0  0  0  0  0  0
    9.7087    4.7838    0.0000 C   0  0  0  0  0  0  0  0  0  0  0  0
    5.2112    7.4359    0.0000 C   0  0  0  0  0  0  0  0  0  0  0  0
    2.6378    4.8229    0.0000 C   0  0  0  0  0  0  0  0  0  0  0  0
    6.2102    1.9354    0.0000 C   0  0  0  0  0  0  0  0  0  0  0  0
   10.3021    4.2107    0.0000 C   0  0  0  0  0  0  0  0  0  0  0  0
   10.5017    5.0112    0.0000 C   0  0  0  0  0  0  0  0  0  0  0  0
    6.2102    1.1104    0.0000 C   0  0  0  0  0  0  0  0  0  0  0  0
    2.6378    3.1729    0.0000 C   0  0  0  0  0  0  0  0  0  0  0  0
    6.9246    0.6979    0.0000 C   0  0  0  0  0  0  0  0  0  0  0  0
    2.5516    5.6434    0.0000 C   0  0  0  0  0  0  0  0  0  0  0  0
    1.8841    4.4874    0.0000 C   0  0  0  0  0  0  0  0  0  0  0  0
    3.3523    1.9354    0.0000 C   0  0  3  0  0  0  0  0  0  0  0  0
    7.6391    1.9354    0.0000 C   0  0  0  0  0  0  0  0  0  0  0  0
    7.6391    1.1104    0.0000 C   0  0  0  0  0  0  0  0  0  0  0  0
    3.3523    1.1104    0.0000 C   0  0  3  0  0  0  0  0  0  0  0  0
    5.4957    0.6979    0.0000 C   0  0  0  0  0  0  0  0  0  0  0  0
    1.7446    5.8150    0.0000 C   0  0  0  0  0  0  0  0  0  0  0  0
    1.3321    5.1005    0.0000 C   0  0  0  0  0  0  0  0  0  0  0  0
    2.5677    2.1904    0.0000 C   0  0  0  0  0  0  0  0  0  0  0  0
    2.5677    0.8555    0.0000 C   0  0  0  0  0  0  0  0  0  0  0  0
    8.3536    2.3479    0.0000 C   0  0  0  0  0  0  0  0  0  0  0  0
    8.3536    0.6979    0.0000 C   0  0  0  0  0  0  0  0  0  0  0  0
    4.0668    0.6979    0.0000 C   0  0  0  0  0  0  0  0  0  0  0  0
    2.0827    1.5229    0.0000 C   0  0  0  0  0  0  0  0  0  0  0  0
    5.4957   -0.1271    0.0000 C   0  0  0  0  0  0  0  0  0  0  0  0
    9.0681    1.9354    0.0000 C   0  0  0  0  0  0  0  0  0  0  0  0
    9.0681    1.1104    0.0000 C   0  0  0  0  0  0  0  0  0  0  0  0
    4.0668   -0.1271    0.0000 C   0  0  0  0  0  0  0  0  0  0  0  0
    7.6391   -0.5396    0.0000 C   0  0  0  0  0  0  0  0  0  0  0  0
    4.7812   -0.5396    0.0000 C   0  0  0  0  0  0  0  0  0  0  0  0
    7.6391   -1.3646    0.0000 C   0  0  0  0  0  0  0  0  0  0  0  0
    8.3536   -1.7771    0.0000 C   0  0  0  0  0  0  0  0  0  0  0  0
    6.1272    5.8568    0.0000 H   0  0  0  0  0  0  0  0  0  0  0  0
    6.4121    4.6251    0.0000 H   0  0  0  0  0  0  0  0  0  0  0  0
    6.2803    2.9179    0.0000 H   0  0  0  0  0  0  0  0  0  0  0  0
    3.3523    5.2354    0.0000 H   0  0  0  0  0  0  0  0  0  0  0  0
    3.0399    2.6990    0.0000 H   0  0  0  0  0  0  0  0  0  0  0  0
    3.2660    0.2900    0.0000 H   0  0  0  0  0  0  0  0  0  0  0  0
  1  6  2  0  0  0  0
  1  7  2  0  0  0  0
  1 13  1  0  0  0  0
  1 29  1  0  0  0  0
  2 20  2  0  0  0  0
  3 22  2  0  0  0  0
  4 24  1  0  0  0  0
  4 32  1  0  0  0  0
  5 26  2  0  0  0  0
  8 36  1  0  0  0  0
  8 40  1  0  0  0  0
  9 37  1  0  0  0  0
  9 57  1  0  0  0  0
 10 36  2  0  0  0  0
 17 11  1  1  0  0  0
 11 22  1  0  0  0  0
 12 21  1  0  0  0  0
 12 26  1  0  0  0  0
 12 27  1  0  0  0  0
 13 20  1  0  0  0  0
 14 28  1  0  0  0  0
 14 36  1  0  0  0  0
 15 32  2  0  0  0  0
 15 41  1  0  0  0  0
 16 60  1  0  0  0  0
 17 18  1  0  0  0  0
 17 19  1  0  0  0  0
 17 20  1  6  0  0  0
 18 19  1  0  0  0  0
 18 23  1  6  0  0  0
 18 61  1  1  0  0  0
 21 22  1  0  0  0  0
 21 25  1  0  0  0  0
 21 62  1  1  0  0  0
 23 30  2  0  0  0  0
 24 25  1  0  0  0  0
 24 27  1  0  0  0  0
 24 63  1  6  0  0  0
 26 28  1  0  0  0  0
 28 31  1  0  0  0  0
 28 64  1  6  0  0  0
 29 33  1  0  0  0  0
 29 34  1  0  0  0  0
 31 38  1  0  0  0  0
 31 39  1  0  0  0  0
 32 35  1  0  0  0  0
 33 34  1  0  0  0  0
 35 37  2  0  0  0  0
 35 44  1  0  0  0  0
 37 42  1  0  0  0  0
 38 45  1  0  0  0  0
 39 46  1  0  0  0  0
 40 43  1  0  0  0  0
 40 47  1  0  0  0  0
 40 65  1  6  0  0  0
 41 42  2  0  0  0  0
 41 49  1  0  0  0  0
 42 50  1  0  0  0  0
 43 48  1  0  0  0  0
 43 51  1  0  0  0  0
 43 66  1  1  0  0  0
 44 53  1  0  0  0  0
 45 46  1  0  0  0  0
 47 52  1  0  0  0  0
 48 52  1  0  0  0  0
 49 54  2  0  0  0  0
 50 55  2  0  0  0  0
 51 56  1  0  0  0  0
 53 58  2  0  0  0  0
 54 55  1  0  0  0  0
 56 58  1  0  0  0  0
 57 59  1  0  0  0  0
 59 60  1  0  0  0  0
M  END
> <PUBCHEM_COMPOUND_ID_TYPE>
0

> <PUBCHEM_TOTAL_CHARGE>
0

> <PUBCHEM_SUBSTANCE_ID>
310929675

> <PUBCHEM_SUBSTANCE_VERSION>
1

> <PUBCHEM_EXT_DATASOURCE_NAME>
4488

> <PUBCHEM_EXT_DATASOURCE_REGID>
SCHEMBL16106866

> <PUBCHEM_SUBSTANCE_COMMENT>
InChI=1S/C44H58N6O9S/c1-2-29-25-44(29,42(53)49-60(55,56)31-20-21-31)48-39(51)35-24-30-26-50(35)41(52)37(28-13-6-7-14-28)47-43(54)59-36-19-10-15-27(36)12-4-3-5-17-33-38(57-23-11-22-45)32-16-8-9-18-34(32)46-40(33)58-30/h2-3,5,8-9,16,18,27-31,35-37H,1,4,6-7,10-15,17,19-26,45H2,(H,47,54)(H,48,51)(H,49,53)/t27-,29-,30-,35+,36-,37+,44-/m1/s1
InChIKey=KPOPCGYBAHFBHU-SGXAIHPCSA-N

> <PUBCHEM_SUBSTANCE_SYNONYM>
SCHEMBL16106866

> <PUBCHEM_XREF_EXT_ID>
SCHEMBL16106866

> <PUBCHEM_EXT_DATASOURCE_URL>
https://www.surechembl.org/

> <PUBCHEM_EXT_SUBSTANCE_URL>
https://www.surechembl.org/chemical/SCHEMBL16106866

> <PUBCHEM_CID_ASSOCIATIONS>
117598972  1

> <PUBCHEM_COORDINATE_TYPE>
1
3

> <PUBCHEM_BONDANNOTATIONS>
17  11  5
17  20  6
18  23  6
18  61  5
21  62  5
24  63  6
28  64  6
40  65  6
43  66  5
58  56  3

$$$$
