310944027
  -OEChem-07211613022D

 29 31  0     0  0  0  0  0  0999 V2000
   -0.0156    5.2993    0.0000 F   0  0  0  0  0  0  0  0  0  0  0  0
    0.0000    2.0310    0.0000 O   0  0  0  0  0  0  0  0  0  0  0  0
   -1.4474    2.0310    0.0000 O   0  0  0  0  0  0  0  0  0  0  0  0
    2.1633    4.8480    0.0000 N   0  0  0  0  0  0  0  0  0  0  0  0
   -2.1633    4.8013    0.0000 N   0  0  0  0  0  0  0  0  0  0  0  0
    0.0000    2.8870    0.0000 C   0  0  0  0  0  0  0  0  0  0  0  0
   -0.0156    4.4901    0.0000 C   0  0  0  0  0  0  0  0  0  0  0  0
    0.7159    4.1010    0.0000 C   0  0  0  0  0  0  0  0  0  0  0  0
   -0.7314    4.1010    0.0000 C   0  0  0  0  0  0  0  0  0  0  0  0
    0.7003    3.2761    0.0000 C   0  0  0  0  0  0  0  0  0  0  0  0
   -0.7159    3.2761    0.0000 C   0  0  0  0  0  0  0  0  0  0  0  0
   -0.7470    0.8172    0.0000 C   0  0  0  0  0  0  0  0  0  0  0  0
   -0.7159    1.6419    0.0000 C   0  0  0  0  0  0  0  0  0  0  0  0
   -0.7159   -0.8016    0.0000 C   0  0  0  0  0  0  0  0  0  0  0  0
   -0.7159   -1.6419    0.0000 C   0  0  0  0  0  0  0  0  0  0  0  0
   -1.4630    0.3813    0.0000 C   0  0  0  0  0  0  0  0  0  0  0  0
   -0.0156    0.4124    0.0000 C   0  0  0  0  0  0  0  0  0  0  0  0
   -1.4318   -0.3968    0.0000 C   0  0  0  0  0  0  0  0  0  0  0  0
    0.0000   -0.3968    0.0000 C   0  0  0  0  0  0  0  0  0  0  0  0
    1.4474    4.4901    0.0000 C   0  0  0  0  0  0  0  0  0  0  0  0
   -1.4474    4.4745    0.0000 C   0  0  0  0  0  0  0  0  0  0  0  0
   -1.4318   -2.0622    0.0000 C   0  0  0  0  0  0  0  0  0  0  0  0
    0.0156   -2.0622    0.0000 C   0  0  0  0  0  0  0  0  0  0  0  0
   -0.7003   -3.2605    0.0000 C   0  0  0  0  0  0  0  0  0  0  0  0
   -1.4318   -2.8559    0.0000 C   0  0  0  0  0  0  0  0  0  0  0  0
    0.0156   -2.8404    0.0000 C   0  0  0  0  0  0  0  0  0  0  0  0
   -0.7159   -4.0854    0.0000 C   0  0  0  0  0  0  0  0  0  0  0  0
   -1.4163   -4.4901    0.0000 C   0  0  0  0  0  0  0  0  0  0  0  0
   -1.4163   -5.2993    0.0000 C   0  0  0  0  0  0  0  0  0  0  0  0
  1  7  1  0  0  0  0
  2  6  1  0  0  0  0
  2 13  1  0  0  0  0
  3 13  2  0  0  0  0
  4 20  3  0  0  0  0
  5 21  3  0  0  0  0
  6 10  2  0  0  0  0
  6 11  1  0  0  0  0
  7  8  2  0  0  0  0
  7  9  1  0  0  0  0
  8 10  1  0  0  0  0
  8 20  1  0  0  0  0
  9 11  2  0  0  0  0
  9 21  1  0  0  0  0
 12 13  1  0  0  0  0
 12 16  2  0  0  0  0
 12 17  1  0  0  0  0
 14 15  1  0  0  0  0
 14 18  2  0  0  0  0
 14 19  1  0  0  0  0
 15 22  1  0  0  0  0
 15 23  1  0  0  0  0
 16 18  1  0  0  0  0
 17 19  2  0  0  0  0
 22 25  1  0  0  0  0
 23 26  1  0  0  0  0
 24 25  1  0  0  0  0
 24 26  1  0  0  0  0
 24 27  1  0  0  0  0
 27 28  1  0  0  0  0
 28 29  1  0  0  0  0
M  END
> <PUBCHEM_COMPOUND_ID_TYPE>
0

> <PUBCHEM_TOTAL_CHARGE>
0

> <PUBCHEM_SUBSTANCE_ID>
310944027

> <PUBCHEM_SUBSTANCE_VERSION>
1

> <PUBCHEM_EXT_DATASOURCE_NAME>
4488

> <PUBCHEM_EXT_DATASOURCE_REGID>
SCHEMBL16122100

> <PUBCHEM_SUBSTANCE_COMMENT>
InChI=1S/C24H23FN2O2/c1-2-3-16-4-6-17(7-5-16)18-8-10-19(11-9-18)24(28)29-22-12-20(14-26)23(25)21(13-22)15-27/h8-13,16-17H,2-7H2,1H3
InChIKey=RHTCZSFAWUUVIT-UHFFFAOYSA-N

> <PUBCHEM_SUBSTANCE_SYNONYM>
SCHEMBL16122100

> <PUBCHEM_XREF_EXT_ID>
SCHEMBL16122100

> <PUBCHEM_EXT_DATASOURCE_URL>
https://www.surechembl.org/

> <PUBCHEM_EXT_SUBSTANCE_URL>
https://www.surechembl.org/chemical/SCHEMBL16122100

> <PUBCHEM_CID_ASSOCIATIONS>
117610328  1

> <PUBCHEM_COORDINATE_TYPE>
1
3

$$$$
