310949994
  -OEChem-07211613022D

 30 35  0     1  0  0  0  0  0999 V2000
   -0.8938    1.3887    0.0000 N   0  0  0  0  0  0  0  0  0  0  0  0
   -0.8938    2.7227    0.0000 N   0  0  0  0  0  0  0  0  0  0  0  0
   -0.1375   -0.9626    0.0000 N   0  0  0  0  0  0  0  0  0  0  0  0
    1.6776    1.6364    0.0000 N   0  0  0  0  0  0  0  0  0  0  0  0
    2.2963   -1.4713    0.0000 C   0  0  0  0  0  0  0  0  0  0  0  0
    1.4852   -1.3200    0.0000 C   0  0  3  0  0  0  0  0  0  0  0  0
    2.5439   -2.2551    0.0000 C   0  0  3  0  0  0  0  0  0  0  0  0
   -0.4124    2.0626    0.0000 C   0  0  0  0  0  0  0  0  0  0  0  0
   -1.6776    1.6501    0.0000 C   0  0  0  0  0  0  0  0  0  0  0  0
    0.9350   -1.9251    0.0000 C   0  0  3  0  0  0  0  0  0  0  0  0
   -1.6639    2.4752    0.0000 C   0  0  0  0  0  0  0  0  0  0  0  0
    1.7464   -2.0351    0.0000 C   0  0  0  0  0  0  0  0  0  0  0  0
   -0.6464    0.6188    0.0000 C   0  0  0  0  0  0  0  0  0  0  0  0
    0.4124    2.0488    0.0000 C   0  0  3  0  0  0  0  0  0  0  0  0
    1.9938   -2.8602    0.0000 C   0  0  0  0  0  0  0  0  0  0  0  0
    1.1963   -2.6952    0.0000 C   0  0  0  0  0  0  0  0  0  0  0  0
    0.1238   -1.7464    0.0000 C   0  0  0  0  0  0  0  0  0  0  0  0
   -2.3788    1.2375    0.0000 C   0  0  0  0  0  0  0  0  0  0  0  0
   -1.1688   -0.0137    0.0000 C   0  0  0  0  0  0  0  0  0  0  0  0
    0.1787    0.4263    0.0000 C   0  0  0  0  0  0  0  0  0  0  0  0
    2.4476   -0.6601    0.0000 C   0  0  0  0  0  0  0  0  0  0  0  0
    3.0939   -1.2100    0.0000 C   0  0  0  0  0  0  0  0  0  0  0  0
   -2.4063    2.8602    0.0000 C   0  0  0  0  0  0  0  0  0  0  0  0
   -0.9350   -0.7838    0.0000 C   0  0  0  0  0  0  0  0  0  0  0  0
    0.4124   -0.3575    0.0000 C   0  0  0  0  0  0  0  0  0  0  0  0
    0.9213    1.3887    0.0000 C   0  0  0  0  0  0  0  0  0  0  0  0
    0.9076    2.7227    0.0000 C   0  0  0  0  0  0  0  0  0  0  0  0
   -3.0939    1.6501    0.0000 C   0  0  0  0  0  0  0  0  0  0  0  0
   -3.0939    2.4615    0.0000 C   0  0  0  0  0  0  0  0  0  0  0  0
    1.6913    2.4615    0.0000 C   0  0  0  0  0  0  0  0  0  0  0  0
  1  8  1  0  0  0  0
  1  9  1  0  0  0  0
  1 13  1  0  0  0  0
  2  8  2  0  0  0  0
  2 11  1  0  0  0  0
  3 17  1  0  0  0  0
  3 24  1  0  0  0  0
  3 25  1  0  0  0  0
  4 26  1  0  0  0  0
  4 30  1  0  0  0  0
  5  6  1  0  0  0  0
  5  7  1  0  0  0  0
  5 21  1  0  0  0  0
  5 22  1  0  0  0  0
  6 10  1  0  0  0  0
  6 12  1  6  0  0  0
  7 12  1  6  0  0  0
  7 15  1  0  0  0  0
 14  8  1  1  0  0  0
  9 11  1  0  0  0  0
  9 18  2  0  0  0  0
 10 16  1  0  0  0  0
 10 17  1  1  0  0  0
 11 23  2  0  0  0  0
 13 19  1  0  0  0  0
 13 20  1  0  0  0  0
 14 26  1  0  0  0  0
 14 27  1  0  0  0  0
 15 16  1  0  0  0  0
 18 28  1  0  0  0  0
 19 24  1  0  0  0  0
 20 25  1  0  0  0  0
 23 29  1  0  0  0  0
 27 30  1  0  0  0  0
 28 29  2  0  0  0  0
M  END
> <PUBCHEM_COMPOUND_ID_TYPE>
0

> <PUBCHEM_TOTAL_CHARGE>
0

> <PUBCHEM_SUBSTANCE_ID>
310949994

> <PUBCHEM_SUBSTANCE_VERSION>
1

> <PUBCHEM_EXT_DATASOURCE_NAME>
4488

> <PUBCHEM_EXT_DATASOURCE_REGID>
SCHEMBL16128223

> <PUBCHEM_SUBSTANCE_COMMENT>
InChI=1S/C26H38N4/c1-26(2)20-8-7-19(22(26)15-20)17-29-13-10-21(11-14-29)30-24-6-4-3-5-23(24)28-25(30)18-9-12-27-16-18/h3-6,18-22,27H,7-17H2,1-2H3/t18-,19-,20-,22-/m0/s1
InChIKey=VDXRJGGDODEJQL-XWUOBKMESA-N

> <PUBCHEM_SUBSTANCE_SYNONYM>
SCHEMBL16128223

> <PUBCHEM_XREF_EXT_ID>
SCHEMBL16128223

> <PUBCHEM_EXT_DATASOURCE_URL>
https://www.surechembl.org/

> <PUBCHEM_EXT_SUBSTANCE_URL>
https://www.surechembl.org/chemical/SCHEMBL16128223

> <PUBCHEM_CID_ASSOCIATIONS>
117615232  1

> <PUBCHEM_COORDINATE_TYPE>
1
3

> <PUBCHEM_BONDANNOTATIONS>
10  17  5
6  12  6
7  12  6
14  8  5

$$$$
