310932595
  -OEChem-07211613022D

 31 34  0     0  0  0  0  0  0999 V2000
    2.8791   -2.1305    0.0000 O   0  0  0  0  0  0  0  0  0  0  0  0
    7.3704   -2.2169    0.0000 O   0  0  0  0  0  0  0  0  0  0  0  0
    0.1440   -2.3897    0.0000 O   0  0  0  0  0  0  0  0  0  0  0  0
    7.4856   -5.2975    0.0000 O   0  0  0  0  0  0  0  0  0  0  0  0
    3.7716   -0.9789    0.0000 N   0  0  0  0  0  0  0  0  0  0  0  0
    3.6852   -0.1440    0.0000 N   0  0  0  0  0  0  0  0  0  0  0  0
    5.2112   -0.9789    0.0000 N   0  0  0  0  0  0  0  0  0  0  0  0
    6.6507   -3.4549    0.0000 N   0  0  0  0  0  0  0  0  0  0  0  0
    0.0000   -0.9789    0.0000 N   0  0  0  0  0  0  0  0  0  0  0  0
    2.4760   -0.6910    0.0000 C   0  0  0  0  0  0  0  0  0  0  0  0
    3.0230   -1.2956    0.0000 C   0  0  0  0  0  0  0  0  0  0  0  0
    4.4913   -1.3820    0.0000 C   0  0  0  0  0  0  0  0  0  0  0  0
    1.6411   -0.8061    0.0000 C   0  0  0  0  0  0  0  0  0  0  0  0
    2.8791    0.0000    0.0000 C   0  0  0  0  0  0  0  0  0  0  0  0
    7.3704   -3.8580    0.0000 C   0  0  0  0  0  0  0  0  0  0  0  0
    5.9309   -2.2169    0.0000 C   0  0  0  0  0  0  0  0  0  0  0  0
    6.6507   -2.6200    0.0000 C   0  0  0  0  0  0  0  0  0  0  0  0
    4.4913   -2.2169    0.0000 C   0  0  0  0  0  0  0  0  0  0  0  0
    1.3244   -1.5835    0.0000 C   0  0  0  0  0  0  0  0  0  0  0  0
    5.9309   -1.3820    0.0000 C   0  0  0  0  0  0  0  0  0  0  0  0
    5.2112   -2.6200    0.0000 C   0  0  0  0  0  0  0  0  0  0  0  0
    1.1804   -0.1440    0.0000 C   0  0  0  0  0  0  0  0  0  0  0  0
    7.8311   -3.1670    0.0000 C   0  0  0  0  0  0  0  0  0  0  0  0
    7.8599   -4.5201    0.0000 C   0  0  0  0  0  0  0  0  0  0  0  0
    0.4894   -1.6411    0.0000 C   0  0  0  0  0  0  0  0  0  0  0  0
    7.0250   -4.6065    0.0000 C   0  0  0  0  0  0  0  0  0  0  0  0
    0.3455   -0.2015    0.0000 C   0  0  0  0  0  0  0  0  0  0  0  0
    8.6373   -3.4261    0.0000 C   0  0  0  0  0  0  0  0  0  0  0  0
    8.6373   -4.2323    0.0000 C   0  0  0  0  0  0  0  0  0  0  0  0
    0.6046   -3.0518    0.0000 C   0  0  0  0  0  0  0  0  0  0  0  0
    8.3205   -5.2399    0.0000 C   0  0  0  0  0  0  0  0  0  0  0  0
  1 11  1  0  0  0  0
  2 17  2  0  0  0  0
  3 25  1  0  0  0  0
  3 30  1  0  0  0  0
  4 26  1  0  0  0  0
  4 31  1  0  0  0  0
  5  6  1  0  0  0  0
  5 11  1  0  0  0  0
  5 12  1  0  0  0  0
  6 14  2  0  0  0  0
  7 12  2  0  0  0  0
  7 20  1  0  0  0  0
  8 15  1  0  0  0  0
  8 17  1  0  0  0  0
  9 25  1  0  0  0  0
  9 27  2  0  0  0  0
 10 11  2  0  0  0  0
 10 13  1  0  0  0  0
 10 14  1  0  0  0  0
 12 18  1  0  0  0  0
 13 19  1  0  0  0  0
 13 22  2  0  0  0  0
 15 23  1  0  0  0  0
 15 24  1  0  0  0  0
 15 26  1  0  0  0  0
 16 17  1  0  0  0  0
 16 20  2  0  0  0  0
 16 21  1  0  0  0  0
 18 21  2  0  0  0  0
 19 25  2  0  0  0  0
 22 27  1  0  0  0  0
 23 28  1  0  0  0  0
 24 29  1  0  0  0  0
 28 29  1  0  0  0  0
M  END
> <PUBCHEM_COMPOUND_ID_TYPE>
0

> <PUBCHEM_TOTAL_CHARGE>
0

> <PUBCHEM_SUBSTANCE_ID>
310932595

> <PUBCHEM_SUBSTANCE_VERSION>
1

> <PUBCHEM_EXT_DATASOURCE_NAME>
4488

> <PUBCHEM_EXT_DATASOURCE_REGID>
SCHEMBL16109973

> <PUBCHEM_SUBSTANCE_COMMENT>
InChI=1S/C22H25N5O4/c1-30-14-22(8-3-4-9-22)26-20(28)16-5-6-18(24-12-16)27-21(29)17(13-25-27)15-7-10-23-19(11-15)31-2/h5-7,10-13,29H,3-4,8-9,14H2,1-2H3,(H,26,28)
InChIKey=NXIVTPMJADOWRO-UHFFFAOYSA-N

> <PUBCHEM_SUBSTANCE_SYNONYM>
SCHEMBL16109973

> <PUBCHEM_XREF_EXT_ID>
SCHEMBL16109973

> <PUBCHEM_EXT_DATASOURCE_URL>
https://www.surechembl.org/

> <PUBCHEM_EXT_SUBSTANCE_URL>
https://www.surechembl.org/chemical/SCHEMBL16109973

> <PUBCHEM_CID_ASSOCIATIONS>
117601117  1

> <PUBCHEM_COORDINATE_TYPE>
1
3

$$$$
