310945604
  -OEChem-07211613022D

 75 83  0     1  0  0  0  0  0999 V2000
   -3.3976   -0.5049    0.0000 O   0  0  0  0  0  0  0  0  0  0  0  0
    6.0740   -0.5049    0.0000 O   0  0  0  0  0  0  0  0  0  0  0  0
   -0.8173    2.0594    0.0000 O   0  0  0  0  0  0  0  0  0  0  0  0
    3.4938    2.0594    0.0000 O   0  0  0  0  0  0  0  0  0  0  0  0
   -0.8173    0.4087    0.0000 O   0  0  0  0  0  0  0  0  0  0  0  0
    3.4777    0.4087    0.0000 O   0  0  0  0  0  0  0  0  0  0  0  0
   11.2826   -1.3542    0.0000 O   0  0  0  0  0  0  0  0  0  0  0  0
   -9.3274   -0.1042    0.0000 O   0  0  0  0  0  0  0  0  0  0  0  0
  -12.9173    0.3125    0.0000 O   0  0  0  0  0  0  0  0  0  0  0  0
  -14.8405   -1.9152    0.0000 O   0  0  0  0  0  0  0  0  0  0  0  0
   -4.3913    0.4888    0.0000 N   0  0  0  0  0  0  0  0  0  0  0  0
    7.1157    0.4888    0.0000 N   0  0  0  0  0  0  0  0  0  0  0  0
   -3.5899    2.1716    0.0000 N   0  0  0  0  0  0  0  0  0  0  0  0
    6.3144    2.1716    0.0000 N   0  0  0  0  0  0  0  0  0  0  0  0
   -8.5902   -1.3542    0.0000 N   0  0  0  0  0  0  0  0  0  0  0  0
  -13.6064   -0.9375    0.0000 N   0  0  0  0  0  0  0  0  0  0  0  0
   14.1834   -1.3542    0.0000 N   0  0  0  0  0  0  0  0  0  0  0  0
   -2.9489    0.8253    0.0000 C   0  0  0  0  0  0  0  0  0  0  0  0
    5.6413    0.8253    0.0000 C   0  0  0  0  0  0  0  0  0  0  0  0
   -3.6060    0.3125    0.0000 C   0  0  0  0  0  0  0  0  0  0  0  0
    6.3144    0.3286    0.0000 C   0  0  0  0  0  0  0  0  0  0  0  0
   -4.7599    1.2261    0.0000 C   0  0  3  0  0  0  0  0  0  0  0  0
    7.4684    1.2420    0.0000 C   0  0  3  0  0  0  0  0  0  0  0  0
   -2.9489    1.6427    0.0000 C   0  0  0  0  0  0  0  0  0  0  0  0
    5.6574    1.6587    0.0000 C   0  0  0  0  0  0  0  0  0  0  0  0
   -5.7374    0.3125    0.0000 C   0  0  0  0  0  0  0  0  0  0  0  0
    8.4299    0.3125    0.0000 C   0  0  0  0  0  0  0  0  0  0  0  0
   -5.0003   -0.0882    0.0000 C   0  0  0  0  0  0  0  0  0  0  0  0
    7.7247   -0.0882    0.0000 C   0  0  0  0  0  0  0  0  0  0  0  0
   -5.5772    1.1298    0.0000 C   0  0  0  0  0  0  0  0  0  0  0  0
    8.2857    1.1138    0.0000 C   0  0  0  0  0  0  0  0  0  0  0  0
   -2.2277    0.4087    0.0000 C   0  0  0  0  0  0  0  0  0  0  0  0
    4.9201    0.4247    0.0000 C   0  0  0  0  0  0  0  0  0  0  0  0
   -4.3913    1.9793    0.0000 C   0  0  0  0  0  0  0  0  0  0  0  0
    7.1157    1.9793    0.0000 C   0  0  0  0  0  0  0  0  0  0  0  0
   -1.5225    0.8253    0.0000 C   0  0  0  0  0  0  0  0  0  0  0  0
    4.2150    0.8253    0.0000 C   0  0  0  0  0  0  0  0  0  0  0  0
   -1.5225    1.6587    0.0000 C   0  0  0  0  0  0  0  0  0  0  0  0
    4.2310    1.6427    0.0000 C   0  0  0  0  0  0  0  0  0  0  0  0
   -2.2277    2.0434    0.0000 C   0  0  0  0  0  0  0  0  0  0  0  0
    4.9201    2.0434    0.0000 C   0  0  0  0  0  0  0  0  0  0  0  0
   -6.4427   -0.1042    0.0000 C   0  0  0  0  0  0  0  0  0  0  0  0
    9.1511   -0.1042    0.0000 C   0  0  0  0  0  0  0  0  0  0  0  0
   -7.1638    0.2965    0.0000 C   0  0  0  0  0  0  0  0  0  0  0  0
   -6.4586   -0.9375    0.0000 C   0  0  0  0  0  0  0  0  0  0  0  0
    9.1671   -0.9375    0.0000 C   0  0  0  0  0  0  0  0  0  0  0  0
    9.8883    0.2965    0.0000 C   0  0  0  0  0  0  0  0  0  0  0  0
   -7.8850   -0.9375    0.0000 C   0  0  0  0  0  0  0  0  0  0  0  0
   -7.8690   -0.1042    0.0000 C   0  0  0  0  0  0  0  0  0  0  0  0
   -7.1478   -1.3382    0.0000 C   0  0  0  0  0  0  0  0  0  0  0  0
    9.8883   -1.3382    0.0000 C   0  0  0  0  0  0  0  0  0  0  0  0
   10.5935   -0.1042    0.0000 C   0  0  0  0  0  0  0  0  0  0  0  0
   10.5775   -0.9215    0.0000 C   0  0  0  0  0  0  0  0  0  0  0  0
   -0.0641    1.6587    0.0000 C   0  0  0  0  0  0  0  0  0  0  0  0
    2.8046    1.6587    0.0000 C   0  0  0  0  0  0  0  0  0  0  0  0
   -0.8173   -0.4087    0.0000 C   0  0  0  0  0  0  0  0  0  0  0  0
    3.4617   -0.4087    0.0000 C   0  0  0  0  0  0  0  0  0  0  0  0
    0.6251    2.0594    0.0000 C   0  0  0  0  0  0  0  0  0  0  0  0
    2.0514    2.0594    0.0000 C   0  0  0  0  0  0  0  0  0  0  0  0
    1.3622    1.6427    0.0000 C   0  0  0  0  0  0  0  0  0  0  0  0
   -9.3274   -0.9536    0.0000 C   0  0  0  0  0  0  0  0  0  0  0  0
   12.0038   -0.9375    0.0000 C   0  0  0  0  0  0  0  0  0  0  0  0
  -10.0165   -1.3382    0.0000 C   0  0  0  0  0  0  0  0  0  0  0  0
   12.7571   -1.3382    0.0000 C   0  0  0  0  0  0  0  0  0  0  0  0
  -10.7698   -0.9375    0.0000 C   0  0  0  0  0  0  0  0  0  0  0  0
  -14.3917   -1.1619    0.0000 C   0  0  0  0  0  0  0  0  0  0  0  0
  -13.6225   -0.1042    0.0000 C   0  0  0  0  0  0  0  0  0  0  0  0
  -14.8886   -0.5208    0.0000 C   0  0  0  0  0  0  0  0  0  0  0  0
  -14.4078    0.1522    0.0000 C   0  0  0  0  0  0  0  0  0  0  0  0
  -12.8852   -1.3382    0.0000 C   0  0  0  0  0  0  0  0  0  0  0  0
   13.4462   -0.9375    0.0000 C   0  0  0  0  0  0  0  0  0  0  0  0
  -11.4428   -1.3382    0.0000 C   0  0  0  0  0  0  0  0  0  0  0  0
  -12.1961   -0.9375    0.0000 C   0  0  0  0  0  0  0  0  0  0  0  0
   14.8886   -0.9375    0.0000 C   0  0  0  0  0  0  0  0  0  0  0  0
   14.1834   -2.1716    0.0000 C   0  0  0  0  0  0  0  0  0  0  0  0
  1 20  2  0  0  0  0
  2 21  2  0  0  0  0
  3 38  1  0  0  0  0
  3 54  1  0  0  0  0
  4 39  1  0  0  0  0
  4 55  1  0  0  0  0
  5 36  1  0  0  0  0
  5 56  1  0  0  0  0
  6 37  1  0  0  0  0
  6 57  1  0  0  0  0
  7 53  1  0  0  0  0
  7 62  1  0  0  0  0
  8 61  2  0  0  0  0
  9 67  2  0  0  0  0
 10 66  2  0  0  0  0
 11 20  1  0  0  0  0
 22 11  1  1  0  0  0
 11 28  1  0  0  0  0
 12 21  1  0  0  0  0
 23 12  1  6  0  0  0
 12 29  1  0  0  0  0
 13 24  1  0  0  0  0
 13 34  2  0  0  0  0
 14 25  1  0  0  0  0
 14 35  2  0  0  0  0
 15 48  1  0  0  0  0
 15 61  1  0  0  0  0
 16 66  1  0  0  0  0
 16 67  1  0  0  0  0
 16 70  1  0  0  0  0
 17 71  1  0  0  0  0
 17 74  1  0  0  0  0
 17 75  1  0  0  0  0
 18 20  1  0  0  0  0
 18 24  2  0  0  0  0
 18 32  1  0  0  0  0
 19 21  1  0  0  0  0
 19 25  1  0  0  0  0
 19 33  2  0  0  0  0
 22 30  1  0  0  0  0
 22 34  1  0  0  0  0
 23 31  1  0  0  0  0
 23 35  1  0  0  0  0
 24 40  1  0  0  0  0
 25 41  2  0  0  0  0
 26 28  2  0  0  0  0
 26 30  1  0  0  0  0
 26 42  1  0  0  0  0
 27 29  2  0  0  0  0
 27 31  1  0  0  0  0
 27 43  1  0  0  0  0
 32 36  2  0  0  0  0
 33 37  1  0  0  0  0
 36 38  1  0  0  0  0
 37 39  2  0  0  0  0
 38 40  2  0  0  0  0
 39 41  1  0  0  0  0
 42 44  2  0  0  0  0
 42 45  1  0  0  0  0
 43 46  2  0  0  0  0
 43 47  1  0  0  0  0
 44 49  1  0  0  0  0
 45 50  2  0  0  0  0
 46 51  1  0  0  0  0
 47 52  2  0  0  0  0
 48 49  2  0  0  0  0
 48 50  1  0  0  0  0
 51 53  2  0  0  0  0
 52 53  1  0  0  0  0
 54 58  1  0  0  0  0
 55 59  1  0  0  0  0
 58 60  1  0  0  0  0
 59 60  1  0  0  0  0
 61 63  1  0  0  0  0
 62 64  1  0  0  0  0
 63 65  1  0  0  0  0
 64 71  1  0  0  0  0
 65 72  1  0  0  0  0
 66 68  1  0  0  0  0
 67 69  1  0  0  0  0
 68 69  2  0  0  0  0
 70 73  1  0  0  0  0
 72 73  1  0  0  0  0
M  END
> <PUBCHEM_COMPOUND_ID_TYPE>
0

> <PUBCHEM_TOTAL_CHARGE>
0

> <PUBCHEM_SUBSTANCE_ID>
310945604

> <PUBCHEM_SUBSTANCE_VERSION>
1

> <PUBCHEM_EXT_DATASOURCE_NAME>
4488

> <PUBCHEM_EXT_DATASOURCE_REGID>
SCHEMBL16123703

> <PUBCHEM_SUBSTANCE_COMMENT>
InChI=1S/C58H63N7O10/c1-62(2)23-11-27-73-45-19-15-39(16-20-45)41-29-44-35-60-49-33-53(51(72-4)31-47(49)58(70)65(44)37-41)75-26-10-6-9-25-74-52-32-48-46(30-50(52)71-3)57(69)64-36-40(28-43(64)34-59-48)38-13-17-42(18-14-38)61-54(66)12-7-5-8-24-63-55(67)21-22-56(63)68/h13-22,30-37,43-44H,5-12,23-29H2,1-4H3,(H,61,66)/t43-,44-/m0/s1
InChIKey=KXONXRURYUKQRL-CXNSMIOJSA-N

> <PUBCHEM_SUBSTANCE_SYNONYM>
SCHEMBL16123703

> <PUBCHEM_XREF_EXT_ID>
SCHEMBL16123703

> <PUBCHEM_EXT_DATASOURCE_URL>
https://www.surechembl.org/

> <PUBCHEM_EXT_SUBSTANCE_URL>
https://www.surechembl.org/chemical/SCHEMBL16123703

> <PUBCHEM_CID_ASSOCIATIONS>
117611626  1

> <PUBCHEM_COORDINATE_TYPE>
1
3

> <PUBCHEM_BONDANNOTATIONS>
22  11  5
23  12  6

$$$$
