310942956
  -OEChem-07211613022D

 35 38  0     1  0  0  0  0  0999 V2000
    2.1201   -0.2575    0.0000 F   0  0  0  0  0  0  0  0  0  0  0  0
    3.1157   -0.4292    0.0000 F   0  0  0  0  0  0  0  0  0  0  0  0
    3.3045   -0.8068    0.0000 F   0  0  0  0  0  0  0  0  0  0  0  0
   -3.0127   -1.2532    0.0000 O   0  0  0  0  0  0  0  0  0  0  0  0
   -1.6566    3.2959    0.0000 O   0  0  0  0  0  0  0  0  0  0  0  0
   -1.5536    1.1158    0.0000 N   0  0  0  0  0  0  0  0  0  0  0  0
   -1.0557    0.4635    0.0000 N   0  0  0  0  0  0  0  0  0  0  0  0
   -1.2617   -0.9957    0.0000 N   0  0  0  0  0  0  0  0  0  0  0  0
   -3.7509   -0.0172    0.0000 N   0  0  0  0  0  0  0  0  0  0  0  0
    2.2574   -2.4033    0.0000 N   0  0  0  0  0  0  0  0  0  0  0  0
    0.6095    0.8926    0.0000 N   0  0  0  0  0  0  0  0  0  0  0  0
   -2.3432    0.0172    0.0000 C   0  0  0  0  0  0  0  0  0  0  0  0
   -2.3261    0.8411    0.0000 C   0  0  0  0  0  0  0  0  0  0  0  0
   -1.5364   -0.2232    0.0000 C   0  0  0  0  0  0  0  0  0  0  0  0
   -1.3132    1.9227    0.0000 C   0  0  3  0  0  0  0  0  0  0  0  0
   -3.0299   -0.3948    0.0000 C   0  0  0  0  0  0  0  0  0  0  0  0
   -3.0814    1.2360    0.0000 C   0  0  0  0  0  0  0  0  0  0  0  0
   -0.5236    2.0943    0.0000 C   0  0  3  0  0  0  0  0  0  0  0  0
   -0.4550   -1.1502    0.0000 C   0  0  0  0  0  0  0  0  0  0  0  0
   -3.7681    0.8239    0.0000 C   0  0  0  0  0  0  0  0  0  0  0  0
   -1.8798    2.5063    0.0000 C   0  0  0  0  0  0  0  0  0  0  0  0
    1.9656   -1.6309    0.0000 C   0  0  3  0  0  0  0  0  0  0  0  0
    1.1587   -1.4592    0.0000 C   0  0  0  0  0  0  0  0  0  0  0  0
    2.5492   -0.9613    0.0000 C   0  0  0  0  0  0  0  0  0  0  0  0
   -0.2833    2.9012    0.0000 C   0  0  0  0  0  0  0  0  0  0  0  0
   -0.1803   -1.9227    0.0000 C   0  0  0  0  0  0  0  0  0  0  0  0
    0.0773   -0.5493    0.0000 C   0  0  0  0  0  0  0  0  0  0  0  0
    0.6438   -2.0771    0.0000 C   0  0  0  0  0  0  0  0  0  0  0  0
    0.9012   -0.6866    0.0000 C   0  0  0  0  0  0  0  0  0  0  0  0
    0.0429    1.4935    0.0000 C   0  0  0  0  0  0  0  0  0  0  0  0
   -0.8497    3.4848    0.0000 C   0  0  0  0  0  0  0  0  0  0  0  0
    3.0471   -2.6437    0.0000 C   0  0  0  0  0  0  0  0  0  0  0  0
    3.6651   -2.0943    0.0000 C   0  0  0  0  0  0  0  0  0  0  0  0
    3.7681   -3.0557    0.0000 C   0  0  0  0  0  0  0  0  0  0  0  0
    3.0299   -3.4848    0.0000 C   0  0  0  0  0  0  0  0  0  0  0  0
  1 24  1  0  0  0  0
  2 24  1  0  0  0  0
  3 24  1  0  0  0  0
  4 16  2  0  0  0  0
  5 21  1  0  0  0  0
  5 31  1  0  0  0  0
  6  7  1  0  0  0  0
  6 13  1  0  0  0  0
 15  6  1  1  0  0  0
  7 14  2  0  0  0  0
  8 14  1  0  0  0  0
  8 19  1  0  0  0  0
  9 16  1  0  0  0  0
  9 20  1  0  0  0  0
 10 22  1  0  0  0  0
 10 32  1  0  0  0  0
 11 30  3  0  0  0  0
 12 13  2  0  0  0  0
 12 14  1  0  0  0  0
 12 16  1  0  0  0  0
 13 17  1  0  0  0  0
 15 18  1  0  0  0  0
 15 21  1  0  0  0  0
 17 20  2  0  0  0  0
 18 25  1  0  0  0  0
 18 30  1  6  0  0  0
 19 26  2  0  0  0  0
 19 27  1  0  0  0  0
 22 23  1  0  0  0  0
 22 24  1  0  0  0  0
 23 28  2  0  0  0  0
 23 29  1  0  0  0  0
 25 31  1  0  0  0  0
 26 28  1  0  0  0  0
 27 29  2  0  0  0  0
 32 33  1  0  0  0  0
 32 34  1  0  0  0  0
 32 35  1  0  0  0  0
M  END
> <PUBCHEM_COMPOUND_ID_TYPE>
0

> <PUBCHEM_TOTAL_CHARGE>
0

> <PUBCHEM_SUBSTANCE_ID>
310942956

> <PUBCHEM_SUBSTANCE_VERSION>
1

> <PUBCHEM_EXT_DATASOURCE_NAME>
4488

> <PUBCHEM_EXT_DATASOURCE_REGID>
SCHEMBL16121015

> <PUBCHEM_SUBSTANCE_COMMENT>
InChI=1S/C24H27F3N6O2/c1-23(2,3)31-20(24(25,26)27)14-4-6-16(7-5-14)30-21-19-17(8-10-29-22(19)34)33(32-21)18-13-35-11-9-15(18)12-28/h4-8,10,15,18,20,31H,9,11,13H2,1-3H3,(H,29,34)(H,30,32)/t15-,18+,20?/m1/s1
InChIKey=GPNFXQCGICTFHZ-GSPDCJABSA-N

> <PUBCHEM_SUBSTANCE_SYNONYM>
SCHEMBL16121015

> <PUBCHEM_XREF_EXT_ID>
SCHEMBL16121015

> <PUBCHEM_EXT_DATASOURCE_URL>
https://www.surechembl.org/

> <PUBCHEM_EXT_SUBSTANCE_URL>
https://www.surechembl.org/chemical/SCHEMBL16121015

> <PUBCHEM_CID_ASSOCIATIONS>
117609418  1

> <PUBCHEM_COORDINATE_TYPE>
1
3

> <PUBCHEM_BONDANNOTATIONS>
18  30  6
15  6  5

$$$$
