310944016
  -OEChem-07211613022D

 24 26  0     1  0  0  0  0  0999 V2000
   -2.4740    2.2886    0.0000 O   0  0  0  0  0  0  0  0  0  0  0  0
   -1.2920   -1.9449    0.0000 N   0  0  0  0  0  0  0  0  0  0  0  0
   -0.6735   -2.4947    0.0000 N   0  0  0  0  0  0  0  0  0  0  0  0
    1.2233   -0.8315    0.0000 N   0  0  3  0  0  0  0  0  0  0  0  0
    3.1888    0.1306    0.0000 N   0  0  0  0  0  0  0  0  0  0  0  0
   -2.2130    0.9965    0.0000 C   0  0  0  0  0  0  0  0  0  0  0  0
   -1.8556    1.7525    0.0000 C   0  0  0  0  0  0  0  0  0  0  0  0
   -2.6115    0.2818    0.0000 C   0  0  0  0  0  0  0  0  0  0  0  0
   -1.3882    0.9827    0.0000 C   0  0  0  0  0  0  0  0  0  0  0  0
   -1.3882   -0.4330    0.0000 C   0  0  0  0  0  0  0  0  0  0  0  0
   -3.0239    1.0927    0.0000 C   0  0  0  0  0  0  0  0  0  0  0  0
   -0.9621   -1.1889    0.0000 C   0  0  0  0  0  0  0  0  0  0  0  0
   -2.2130   -0.4192    0.0000 C   0  0  0  0  0  0  0  0  0  0  0  0
   -0.9759    0.2818    0.0000 C   0  0  0  0  0  0  0  0  0  0  0  0
   -0.1512   -1.2301    0.0000 C   0  0  0  0  0  0  0  0  0  0  0  0
   -3.1888    1.9175    0.0000 C   0  0  0  0  0  0  0  0  0  0  0  0
   -1.4432    2.4947    0.0000 C   0  0  0  0  0  0  0  0  0  0  0  0
   -1.0721    1.4638    0.0000 C   0  0  0  0  0  0  0  0  0  0  0  0
    0.0137   -2.0686    0.0000 C   0  0  0  0  0  0  0  0  0  0  0  0
    0.3986   -0.6392    0.0000 C   0  0  0  0  0  0  0  0  0  0  0  0
    1.7731   -0.2268    0.0000 C   0  0  0  0  0  0  0  0  0  0  0  0
    1.4707   -1.6288    0.0000 C   0  0  0  0  0  0  0  0  0  0  0  0
    2.5840   -0.4330    0.0000 C   0  0  0  0  0  0  0  0  0  0  0  0
    2.9277    0.9553    0.0000 C   0  0  0  0  0  0  0  0  0  0  0  0
  1  7  1  0  0  0  0
  1 16  1  0  0  0  0
  2  3  1  0  0  0  0
  2 12  2  0  0  0  0
  3 19  1  0  0  0  0
  4 20  1  0  0  0  0
  4 21  1  0  0  0  0
  4 22  1  0  0  0  0
  5 23  1  0  0  0  0
  5 24  1  0  0  0  0
  6  7  1  0  0  0  0
  6  8  1  0  0  0  0
  6  9  1  0  0  0  0
  6 11  1  1  0  0  0
  7 17  1  0  0  0  0
  7 18  1  0  0  0  0
  8 13  1  0  0  0  0
  9 14  1  0  0  0  0
 10 12  1  1  0  0  0
 10 13  1  0  0  0  0
 10 14  1  0  0  0  0
 11 16  1  0  0  0  0
 12 15  1  0  0  0  0
 15 19  2  0  0  0  0
 15 20  1  0  0  0  0
 21 23  1  0  0  0  0
M  END
> <PUBCHEM_COMPOUND_ID_TYPE>
0

> <PUBCHEM_TOTAL_CHARGE>
0

> <PUBCHEM_SUBSTANCE_ID>
310944016

> <PUBCHEM_SUBSTANCE_VERSION>
1

> <PUBCHEM_EXT_DATASOURCE_NAME>
4488

> <PUBCHEM_EXT_DATASOURCE_REGID>
SCHEMBL16122087

> <PUBCHEM_SUBSTANCE_COMMENT>
InChI=1S/C19H34N4O/c1-18(2)19(9-12-24-18)7-5-15(6-8-19)17-16(13-21-22-17)14-23(4)11-10-20-3/h13,15,20H,5-12,14H2,1-4H3,(H,21,22)/t15-,19-
InChIKey=JTSUHVKYZCGXFL-RHDGDCLCSA-N

> <PUBCHEM_SUBSTANCE_SYNONYM>
SCHEMBL16122087

> <PUBCHEM_XREF_EXT_ID>
SCHEMBL16122087

> <PUBCHEM_EXT_DATASOURCE_URL>
https://www.surechembl.org/

> <PUBCHEM_EXT_SUBSTANCE_URL>
https://www.surechembl.org/chemical/SCHEMBL16122087

> <PUBCHEM_CID_ASSOCIATIONS>
90461186  1

> <PUBCHEM_COORDINATE_TYPE>
1
3

> <PUBCHEM_BONDANNOTATIONS>
10  12  5
6  11  5

$$$$
