310934511
  -OEChem-07211613022D

 22 24  0     0  0  0  0  0  0999 V2000
    6.5539   -0.7333    0.0000 S   0  0  0  0  0  0  0  0  0  0  0  0
    2.9561   -3.4832    0.0000 O   0  0  0  0  0  0  0  0  0  0  0  0
    3.6436    0.0000    0.0000 O   0  0  0  0  0  0  0  0  0  0  0  0
    3.6436   -1.4437    0.0000 O   0  0  0  0  0  0  0  0  0  0  0  0
    4.4686   -1.4437    0.0000 N   0  0  0  0  0  0  0  0  0  0  0  0
    3.5749   -2.9103    0.0000 N   0  0  0  0  0  0  0  0  0  0  0  0
    4.8582   -0.7333    0.0000 C   0  0  0  0  0  0  0  0  0  0  0  0
    4.0332   -0.7333    0.0000 C   0  0  0  0  0  0  0  0  0  0  0  0
    3.2311   -2.1770    0.0000 C   0  0  0  0  0  0  0  0  0  0  0  0
    5.2936   -1.4437    0.0000 C   0  0  0  0  0  0  0  0  0  0  0  0
    5.2936   -0.0229    0.0000 C   0  0  0  0  0  0  0  0  0  0  0  0
    2.2458   -3.0707    0.0000 C   0  0  0  0  0  0  0  0  0  0  0  0
    3.8041   -1.6041    0.0000 C   0  0  0  0  0  0  0  0  0  0  0  0
    2.4061   -2.2687    0.0000 C   0  0  0  0  0  0  0  0  0  0  0  0
    1.4896   -3.4144    0.0000 C   0  0  0  0  0  0  0  0  0  0  0  0
    6.1186   -1.4437    0.0000 C   0  0  0  0  0  0  0  0  0  0  0  0
    6.1186   -0.0229    0.0000 C   0  0  0  0  0  0  0  0  0  0  0  0
    1.4208   -4.2394    0.0000 C   0  0  0  0  0  0  0  0  0  0  0  0
    0.8250   -2.9561    0.0000 C   0  0  0  0  0  0  0  0  0  0  0  0
    0.6875   -4.5832    0.0000 C   0  0  0  0  0  0  0  0  0  0  0  0
    0.0916   -3.2999    0.0000 C   0  0  0  0  0  0  0  0  0  0  0  0
    0.0000   -4.1020    0.0000 C   0  0  0  0  0  0  0  0  0  0  0  0
  1 16  1  0  0  0  0
  1 17  1  0  0  0  0
  2  6  1  0  0  0  0
  2 12  1  0  0  0  0
  3  8  2  0  0  0  0
  4  8  1  0  0  0  0
  5  7  1  0  0  0  0
  5 13  1  0  0  0  0
  6  9  2  0  0  0  0
  7  8  1  0  0  0  0
  7 10  1  0  0  0  0
  7 11  1  0  0  0  0
  9 13  1  0  0  0  0
  9 14  1  0  0  0  0
 10 16  1  0  0  0  0
 11 17  1  0  0  0  0
 12 14  2  0  0  0  0
 12 15  1  0  0  0  0
 15 18  2  0  0  0  0
 15 19  1  0  0  0  0
 18 20  1  0  0  0  0
 19 21  2  0  0  0  0
 20 22  2  0  0  0  0
 21 22  1  0  0  0  0
M  END
> <PUBCHEM_COMPOUND_ID_TYPE>
0

> <PUBCHEM_TOTAL_CHARGE>
0

> <PUBCHEM_SUBSTANCE_ID>
310934511

> <PUBCHEM_SUBSTANCE_VERSION>
1

> <PUBCHEM_EXT_DATASOURCE_NAME>
4488

> <PUBCHEM_EXT_DATASOURCE_REGID>
SCHEMBL16111996

> <PUBCHEM_SUBSTANCE_COMMENT>
InChI=1S/C16H18N2O3S/c19-15(20)16(6-8-22-9-7-16)17-11-13-10-14(21-18-13)12-4-2-1-3-5-12/h1-5,10,17H,6-9,11H2,(H,19,20)
InChIKey=OMTRQNBPKDPXCS-UHFFFAOYSA-N

> <PUBCHEM_SUBSTANCE_SYNONYM>
SCHEMBL16111996

> <PUBCHEM_XREF_EXT_ID>
SCHEMBL16111996

> <PUBCHEM_EXT_DATASOURCE_URL>
https://www.surechembl.org/

> <PUBCHEM_EXT_SUBSTANCE_URL>
https://www.surechembl.org/chemical/SCHEMBL16111996

> <PUBCHEM_CID_ASSOCIATIONS>
117602709  1

> <PUBCHEM_COORDINATE_TYPE>
1
3

$$$$
