310945382
  -OEChem-07211613022D

 29 32  0     0  0  0  0  0  0999 V2000
   -3.9046   -1.7323    0.0000 F   0  0  0  0  0  0  0  0  0  0  0  0
   -3.2310    1.1686    0.0000 O   0  0  0  0  0  0  0  0  0  0  0  0
    3.9046    1.2649    0.0000 O   0  0  0  0  0  0  0  0  0  0  0  0
   -1.0999   -0.0412    0.0000 N   0  0  0  0  0  0  0  0  0  0  0  0
   -1.8561    1.1824    0.0000 N   0  0  0  0  0  0  0  0  0  0  0  0
   -2.5023   -2.5435    0.0000 N   0  0  0  0  0  0  0  0  0  0  0  0
    1.0174    2.0623    0.0000 N   0  0  0  0  0  0  0  0  0  0  0  0
   -1.8011   -0.4400    0.0000 C   0  0  0  0  0  0  0  0  0  0  0  0
   -1.8011   -1.2649    0.0000 C   0  0  0  0  0  0  0  0  0  0  0  0
   -2.5298   -0.0412    0.0000 C   0  0  0  0  0  0  0  0  0  0  0  0
   -2.5298   -1.6773    0.0000 C   0  0  0  0  0  0  0  0  0  0  0  0
   -3.2310   -1.2786    0.0000 C   0  0  0  0  0  0  0  0  0  0  0  0
   -3.2172   -0.4537    0.0000 C   0  0  0  0  0  0  0  0  0  0  0  0
   -2.5160    0.7837    0.0000 C   0  0  0  0  0  0  0  0  0  0  0  0
   -1.0862   -1.6773    0.0000 C   0  0  0  0  0  0  0  0  0  0  0  0
   -0.3712   -0.4125    0.0000 C   0  0  0  0  0  0  0  0  0  0  0  0
   -0.3712   -1.2374    0.0000 C   0  0  0  0  0  0  0  0  0  0  0  0
   -1.0724    0.8111    0.0000 C   0  0  0  0  0  0  0  0  0  0  0  0
   -0.3987    1.2374    0.0000 C   0  0  0  0  0  0  0  0  0  0  0  0
   -0.4125    2.0623    0.0000 C   0  0  0  0  0  0  0  0  0  0  0  0
    0.3162    0.8525    0.0000 C   0  0  0  0  0  0  0  0  0  0  0  0
    0.3025    2.4885    0.0000 C   0  0  0  0  0  0  0  0  0  0  0  0
    1.0449    1.2649    0.0000 C   0  0  0  0  0  0  0  0  0  0  0  0
    1.7186    2.5160    0.0000 C   0  0  0  0  0  0  0  0  0  0  0  0
    2.4472    2.1173    0.0000 C   0  0  0  0  0  0  0  0  0  0  0  0
    2.4747    1.2786    0.0000 C   0  0  0  0  0  0  0  0  0  0  0  0
    3.1347    2.5435    0.0000 C   0  0  0  0  0  0  0  0  0  0  0  0
    3.8771    2.1311    0.0000 C   0  0  0  0  0  0  0  0  0  0  0  0
    3.1897    0.8799    0.0000 C   0  0  0  0  0  0  0  0  0  0  0  0
  1 12  1  0  0  0  0
  2 14  2  0  0  0  0
  3 28  1  0  0  0  0
  3 29  1  0  0  0  0
  4  8  1  0  0  0  0
  4 16  2  0  0  0  0
  5 14  1  0  0  0  0
  5 18  1  0  0  0  0
  6 11  1  0  0  0  0
  7 22  1  0  0  0  0
  7 23  1  0  0  0  0
  7 24  1  0  0  0  0
  8  9  1  0  0  0  0
  8 10  2  0  0  0  0
  9 11  2  0  0  0  0
  9 15  1  0  0  0  0
 10 13  1  0  0  0  0
 10 14  1  0  0  0  0
 11 12  1  0  0  0  0
 12 13  2  0  0  0  0
 15 17  2  0  0  0  0
 16 17  1  0  0  0  0
 18 19  1  0  0  0  0
 19 20  1  0  0  0  0
 19 21  1  0  0  0  0
 20 22  1  0  0  0  0
 21 23  1  0  0  0  0
 24 25  1  0  0  0  0
 25 26  1  0  0  0  0
 25 27  1  0  0  0  0
 26 29  1  0  0  0  0
 27 28  1  0  0  0  0
M  END
> <PUBCHEM_COMPOUND_ID_TYPE>
0

> <PUBCHEM_TOTAL_CHARGE>
0

> <PUBCHEM_SUBSTANCE_ID>
310945382

> <PUBCHEM_SUBSTANCE_VERSION>
1

> <PUBCHEM_EXT_DATASOURCE_NAME>
4488

> <PUBCHEM_EXT_DATASOURCE_REGID>
SCHEMBL16123480

> <PUBCHEM_SUBSTANCE_COMMENT>
InChI=1S/C22H29FN4O2/c23-19-12-18(21-17(20(19)24)2-1-7-25-21)22(28)26-13-15-3-8-27(9-4-15)14-16-5-10-29-11-6-16/h1-2,7,12,15-16H,3-6,8-11,13-14,24H2,(H,26,28)
InChIKey=CTNAKLCSRDDHPV-UHFFFAOYSA-N

> <PUBCHEM_SUBSTANCE_SYNONYM>
SCHEMBL16123480

> <PUBCHEM_XREF_EXT_ID>
SCHEMBL16123480

> <PUBCHEM_EXT_DATASOURCE_URL>
https://www.surechembl.org/

> <PUBCHEM_EXT_SUBSTANCE_URL>
https://www.surechembl.org/chemical/SCHEMBL16123480

> <PUBCHEM_CID_ASSOCIATIONS>
86275706  1

> <PUBCHEM_COORDINATE_TYPE>
1
3

$$$$
