310931386
  -OEChem-07211613022D

 51 56  0     1  0  0  0  0  0999 V2000
   -4.5204   -6.4777    0.0000 Cl  0  0  0  0  0  0  0  0  0  0  0  0
    0.0000   -2.4750    0.0000 S   0  0  0  0  0  0  0  0  0  0  0  0
   -1.4681   -1.5731    0.0000 S   0  0  0  0  0  0  0  0  0  0  0  0
    1.4289   -3.3000    0.0000 F   0  0  0  0  0  0  0  0  0  0  0  0
   -1.4289   -4.9500    0.0000 F   0  0  0  0  0  0  0  0  0  0  0  0
    0.0000   -5.7750    0.0000 O   0  0  0  0  0  0  0  0  0  0  0  0
    0.8250   -2.4750    0.0000 O   0  0  0  0  0  0  0  0  0  0  0  0
   -0.8250   -2.4750    0.0000 O   0  0  0  0  0  0  0  0  0  0  0  0
    2.1434   -0.4125    0.0000 O   0  0  0  0  0  0  0  0  0  0  0  0
    0.7145    2.0625    0.0000 O   0  0  0  0  0  0  0  0  0  0  0  0
   -0.3020   -8.2820    0.0000 N   0  0  3  0  0  0  0  0  0  0  0  0
    0.0000   -1.6500    0.0000 N   0  0  0  0  0  0  0  0  0  0  0  0
   -0.8007   -0.4170    0.0000 N   0  0  0  0  0  0  0  0  0  0  0  0
   -2.0202   -0.9600    0.0000 N   0  0  0  0  0  0  0  0  0  0  0  0
   -1.3819   -7.4974    0.0000 C   0  0  3  0  0  0  0  0  0  0  0  0
   -0.7145   -7.0125    0.0000 C   0  0  3  0  0  0  0  0  0  0  0  0
   -2.1665   -7.2425    0.0000 C   0  0  0  0  0  0  0  0  0  0  0  0
   -1.1270   -8.2820    0.0000 C   0  0  0  0  0  0  0  0  0  0  0  0
   -0.0470   -7.4974    0.0000 C   0  0  0  0  0  0  0  0  0  0  0  0
   -0.7145   -6.1875    0.0000 C   0  0  0  0  0  0  0  0  0  0  0  0
    0.0000   -3.3000    0.0000 C   0  0  0  0  0  0  0  0  0  0  0  0
    0.0000   -4.9500    0.0000 C   0  0  0  0  0  0  0  0  0  0  0  0
    0.7145   -3.7125    0.0000 C   0  0  0  0  0  0  0  0  0  0  0  0
   -2.3381   -6.4355    0.0000 C   0  0  0  0  0  0  0  0  0  0  0  0
   -2.7796   -7.7945    0.0000 C   0  0  0  0  0  0  0  0  0  0  0  0
    0.1830   -8.9495    0.0000 C   0  0  0  0  0  0  0  0  0  0  0  0
   -0.7145   -4.5375    0.0000 C   0  0  0  0  0  0  0  0  0  0  0  0
   -0.7145   -3.7125    0.0000 C   0  0  0  0  0  0  0  0  0  0  0  0
    0.7145   -4.5375    0.0000 C   0  0  0  0  0  0  0  0  0  0  0  0
   -0.7145   -1.2375    0.0000 C   0  0  0  0  0  0  0  0  0  0  0  0
    0.7145   -1.2375    0.0000 C   0  0  0  0  0  0  0  0  0  0  0  0
   -3.1227   -6.1806    0.0000 C   0  0  0  0  0  0  0  0  0  0  0  0
   -3.5642   -7.5396    0.0000 C   0  0  0  0  0  0  0  0  0  0  0  0
   -0.1526   -9.7032    0.0000 C   0  0  0  0  0  0  0  0  0  0  0  0
    0.7145   -0.4125    0.0000 C   0  0  0  0  0  0  0  0  0  0  0  0
   -3.7358   -6.7326    0.0000 C   0  0  0  0  0  0  0  0  0  0  0  0
    1.4289   -0.0000    0.0000 C   0  0  0  0  0  0  0  0  0  0  0  0
    0.0000   -0.0000    0.0000 C   0  0  0  0  0  0  0  0  0  0  0  0
   -1.6077   -0.2455    0.0000 C   0  0  0  0  0  0  0  0  0  0  0  0
   -0.9731   -9.7894    0.0000 C   0  0  0  0  0  0  0  0  0  0  0  0
    0.3323  -10.3706    0.0000 C   0  0  0  0  0  0  0  0  0  0  0  0
    1.4289    0.8250    0.0000 C   0  0  0  0  0  0  0  0  0  0  0  0
    0.7145    1.2375    0.0000 C   0  0  0  0  0  0  0  0  0  0  0  0
    0.0000    0.8250    0.0000 C   0  0  0  0  0  0  0  0  0  0  0  0
   -1.3086  -10.5431    0.0000 C   0  0  0  0  0  0  0  0  0  0  0  0
   -0.0032  -11.1243    0.0000 C   0  0  0  0  0  0  0  0  0  0  0  0
   -0.8237  -11.2105    0.0000 C   0  0  0  0  0  0  0  0  0  0  0  0
    2.8579   -0.0000    0.0000 C   0  0  0  0  0  0  0  0  0  0  0  0
    0.0000    2.4750    0.0000 C   0  0  0  0  0  0  0  0  0  0  0  0
   -1.5110   -6.6826    0.0000 H   0  0  0  0  0  0  0  0  0  0  0  0
    0.0206   -6.6380    0.0000 H   0  0  0  0  0  0  0  0  0  0  0  0
  1 36  1  0  0  0  0
  2  7  2  0  0  0  0
  2  8  2  0  0  0  0
  2 12  1  0  0  0  0
  2 21  1  0  0  0  0
  3 14  1  0  0  0  0
  3 30  1  0  0  0  0
  4 23  1  0  0  0  0
  5 27  1  0  0  0  0
  6 20  1  0  0  0  0
  6 22  1  0  0  0  0
  9 37  1  0  0  0  0
  9 48  1  0  0  0  0
 10 43  1  0  0  0  0
 10 49  1  0  0  0  0
 11 18  1  0  0  0  0
 11 19  1  0  0  0  0
 11 26  1  0  0  0  0
 12 30  1  0  0  0  0
 12 31  1  0  0  0  0
 13 30  2  0  0  0  0
 13 39  1  0  0  0  0
 14 39  2  0  0  0  0
 15 16  1  0  0  0  0
 15 17  1  0  0  0  0
 15 18  1  0  0  0  0
 15 50  1  6  0  0  0
 16 19  1  0  0  0  0
 16 20  1  0  0  0  0
 16 51  1  1  0  0  0
 17 24  2  0  0  0  0
 17 25  1  0  0  0  0
 21 23  2  0  0  0  0
 21 28  1  0  0  0  0
 22 27  1  0  0  0  0
 22 29  2  0  0  0  0
 23 29  1  0  0  0  0
 24 32  1  0  0  0  0
 25 33  2  0  0  0  0
 26 34  1  0  0  0  0
 27 28  2  0  0  0  0
 31 35  1  0  0  0  0
 32 36  2  0  0  0  0
 33 36  1  0  0  0  0
 34 40  2  0  0  0  0
 34 41  1  0  0  0  0
 35 37  2  0  0  0  0
 35 38  1  0  0  0  0
 37 42  1  0  0  0  0
 38 44  2  0  0  0  0
 40 45  1  0  0  0  0
 41 46  2  0  0  0  0
 42 43  2  0  0  0  0
 43 44  1  0  0  0  0
 45 47  2  0  0  0  0
 46 47  1  0  0  0  0
M  END
> <PUBCHEM_COMPOUND_ID_TYPE>
0

> <PUBCHEM_TOTAL_CHARGE>
0

> <PUBCHEM_SUBSTANCE_ID>
310931386

> <PUBCHEM_SUBSTANCE_VERSION>
1

> <PUBCHEM_EXT_DATASOURCE_NAME>
4488

> <PUBCHEM_EXT_DATASOURCE_REGID>
SCHEMBL16108710

> <PUBCHEM_SUBSTANCE_COMMENT>
InChI=1S/C35H33ClF2N4O5S2/c1-45-28-13-10-25(32(14-28)46-2)19-42(35-39-22-40-48-35)49(43,44)34-16-30(37)33(15-31(34)38)47-21-26-18-41(17-23-6-4-3-5-7-23)20-29(26)24-8-11-27(36)12-9-24/h3-16,22,26,29H,17-21H2,1-2H3/t26-,29-/m0/s1
InChIKey=SDWNFHSPKTUZFF-WNJJXGMVSA-N

> <PUBCHEM_SUBSTANCE_SYNONYM>
SCHEMBL16108710

> <PUBCHEM_XREF_EXT_ID>
SCHEMBL16108710

> <PUBCHEM_EXT_DATASOURCE_URL>
https://www.surechembl.org/

> <PUBCHEM_EXT_SUBSTANCE_URL>
https://www.surechembl.org/chemical/SCHEMBL16108710

> <PUBCHEM_CID_ASSOCIATIONS>
117600178  1

> <PUBCHEM_COORDINATE_TYPE>
1
3

> <PUBCHEM_BONDANNOTATIONS>
15  50  6
16  51  5

$$$$
