310942428
  -OEChem-07211613022D

 20 20  0     0  0  0  0  0  0999 V2000
   -0.3574   -0.0894    0.0000 S   0  0  0  0  0  0  0  0  0  0  0  0
    1.0724   -0.0756    0.0000 P   0  0  0  0  0  0  0  0  0  0  0  0
   -1.7873    0.7356    0.0000 F   0  0  0  0  0  0  0  0  0  0  0  0
   -3.2172   -1.7117    0.0000 F   0  0  0  0  0  0  0  0  0  0  0  0
    0.0550    0.6256    0.0000 O   0  0  0  0  0  0  0  0  0  0  0  0
   -0.7699    0.6256    0.0000 O   0  0  0  0  0  0  0  0  0  0  0  0
    1.7873    0.3231    0.0000 O   0  0  0  0  0  0  0  0  0  0  0  0
    1.7873   -0.5018    0.0000 O   0  0  0  0  0  0  0  0  0  0  0  0
    1.0724    0.7356    0.0000 O   0  0  0  0  0  0  0  0  0  0  0  0
   -1.0724   -0.4881    0.0000 C   0  0  0  0  0  0  0  0  0  0  0  0
    0.3712   -0.4881    0.0000 C   0  0  0  0  0  0  0  0  0  0  0  0
   -1.7873   -0.0894    0.0000 C   0  0  0  0  0  0  0  0  0  0  0  0
   -1.0861   -1.3130    0.0000 C   0  0  0  0  0  0  0  0  0  0  0  0
   -2.4885   -0.4881    0.0000 C   0  0  0  0  0  0  0  0  0  0  0  0
   -2.5023   -1.3130    0.0000 C   0  0  0  0  0  0  0  0  0  0  0  0
   -1.7736   -1.7117    0.0000 C   0  0  0  0  0  0  0  0  0  0  0  0
    2.3648    0.9143    0.0000 C   0  0  0  0  0  0  0  0  0  0  0  0
    2.5160   -0.9005    0.0000 C   0  0  0  0  0  0  0  0  0  0  0  0
    2.1448    1.7117    0.0000 C   0  0  0  0  0  0  0  0  0  0  0  0
    3.2172   -0.4881    0.0000 C   0  0  0  0  0  0  0  0  0  0  0  0
  1  5  2  0  0  0  0
  1  6  2  0  0  0  0
  1 10  1  0  0  0  0
  1 11  1  0  0  0  0
  2  7  1  0  0  0  0
  2  8  1  0  0  0  0
  2  9  2  0  0  0  0
  2 11  1  0  0  0  0
  3 12  1  0  0  0  0
  4 15  1  0  0  0  0
  7 17  1  0  0  0  0
  8 18  1  0  0  0  0
 10 12  2  0  0  0  0
 10 13  1  0  0  0  0
 12 14  1  0  0  0  0
 13 16  2  0  0  0  0
 14 15  2  0  0  0  0
 15 16  1  0  0  0  0
 17 19  1  0  0  0  0
 18 20  1  0  0  0  0
M  END
> <PUBCHEM_COMPOUND_ID_TYPE>
0

> <PUBCHEM_TOTAL_CHARGE>
0

> <PUBCHEM_SUBSTANCE_ID>
310942428

> <PUBCHEM_SUBSTANCE_VERSION>
1

> <PUBCHEM_EXT_DATASOURCE_NAME>
4488

> <PUBCHEM_EXT_DATASOURCE_REGID>
SCHEMBL16120464

> <PUBCHEM_SUBSTANCE_COMMENT>
InChI=1S/C11H15F2O5PS/c1-3-17-19(14,18-4-2)8-20(15,16)11-6-5-9(12)7-10(11)13/h5-7H,3-4,8H2,1-2H3
InChIKey=GLFWSZKDYJNERY-UHFFFAOYSA-N

> <PUBCHEM_SUBSTANCE_SYNONYM>
SCHEMBL16120464

> <PUBCHEM_XREF_EXT_ID>
SCHEMBL16120464

> <PUBCHEM_EXT_DATASOURCE_URL>
https://www.surechembl.org/

> <PUBCHEM_EXT_SUBSTANCE_URL>
https://www.surechembl.org/chemical/SCHEMBL16120464

> <PUBCHEM_CID_ASSOCIATIONS>
117609026  1

> <PUBCHEM_COORDINATE_TYPE>
1
3

$$$$
