310929207
  -OEChem-07211613022D

 30 33  0     0  0  0  0  0  0999 V2000
    5.3789   -2.1450    0.0000 O   0  0  0  0  0  0  0  0  0  0  0  0
    0.4290   -1.9800    0.0000 O   0  0  0  0  0  0  0  0  0  0  0  0
    8.6458   -0.7590    0.0000 O   0  0  0  0  0  0  0  0  0  0  0  0
    9.8998   -1.4850    0.0000 O   0  0  0  0  0  0  0  0  0  0  0  0
    8.6458   -2.1780    0.0000 N   0  0  0  0  0  0  0  0  0  0  0  0
    2.9370   -0.6600    0.0000 N   0  0  0  0  0  0  0  0  0  0  0  0
    4.1909    0.0000    0.0000 N   0  0  0  0  0  0  0  0  0  0  0  0
    6.5999   -1.4850    0.0000 C   0  0  0  0  0  0  0  0  0  0  0  0
    7.4249   -1.4850    0.0000 C   0  0  0  0  0  0  0  0  0  0  0  0
    6.2039   -2.1780    0.0000 C   0  0  0  0  0  0  0  0  0  0  0  0
    7.8208   -2.1780    0.0000 C   0  0  0  0  0  0  0  0  0  0  0  0
    6.5999   -2.8710    0.0000 C   0  0  0  0  0  0  0  0  0  0  0  0
    7.4249   -2.8710    0.0000 C   0  0  0  0  0  0  0  0  0  0  0  0
    4.9829   -1.4520    0.0000 C   0  0  0  0  0  0  0  0  0  0  0  0
    6.2039   -0.7590    0.0000 C   0  0  0  0  0  0  0  0  0  0  0  0
    7.8538   -0.7920    0.0000 C   0  0  0  0  0  0  0  0  0  0  0  0
    3.7620   -0.6930    0.0000 C   0  0  0  0  0  0  0  0  0  0  0  0
    4.1579   -1.4520    0.0000 C   0  0  0  0  0  0  0  0  0  0  0  0
    6.6329   -0.0330    0.0000 C   0  0  0  0  0  0  0  0  0  0  0  0
    7.4579   -0.0660    0.0000 C   0  0  0  0  0  0  0  0  0  0  0  0
    5.4119   -0.7590    0.0000 C   0  0  0  0  0  0  0  0  0  0  0  0
    2.5079   -1.3530    0.0000 C   0  0  0  0  0  0  0  0  0  0  0  0
    9.0749   -1.4850    0.0000 C   0  0  0  0  0  0  0  0  0  0  0  0
    5.0159    0.0000    0.0000 C   0  0  0  0  0  0  0  0  0  0  0  0
    1.6830   -1.3530    0.0000 C   0  0  0  0  0  0  0  0  0  0  0  0
    1.2540   -2.0130    0.0000 C   0  0  0  0  0  0  0  0  0  0  0  0
    2.9040   -2.0790    0.0000 C   0  0  0  0  0  0  0  0  0  0  0  0
    1.6500   -2.7390    0.0000 C   0  0  0  0  0  0  0  0  0  0  0  0
    2.4749   -2.7720    0.0000 C   0  0  0  0  0  0  0  0  0  0  0  0
    0.0000   -2.7060    0.0000 C   0  0  0  0  0  0  0  0  0  0  0  0
  1 10  1  0  0  0  0
  1 14  1  0  0  0  0
  2 26  1  0  0  0  0
  2 30  1  0  0  0  0
  3 23  2  0  0  0  0
  4 23  1  0  0  0  0
  5 11  1  0  0  0  0
  5 23  1  0  0  0  0
  6 17  1  0  0  0  0
  6 22  1  0  0  0  0
  7 17  1  0  0  0  0
  7 24  2  0  0  0  0
  8  9  2  0  0  0  0
  8 10  1  0  0  0  0
  8 15  1  0  0  0  0
  9 11  1  0  0  0  0
  9 16  1  0  0  0  0
 10 12  2  0  0  0  0
 11 13  2  0  0  0  0
 12 13  1  0  0  0  0
 14 18  1  0  0  0  0
 14 21  2  0  0  0  0
 15 19  2  0  0  0  0
 16 20  2  0  0  0  0
 17 18  2  0  0  0  0
 19 20  1  0  0  0  0
 21 24  1  0  0  0  0
 22 25  1  0  0  0  0
 22 27  2  0  0  0  0
 25 26  2  0  0  0  0
 26 28  1  0  0  0  0
 27 29  1  0  0  0  0
 28 29  2  0  0  0  0
M  END
> <PUBCHEM_COMPOUND_ID_TYPE>
0

> <PUBCHEM_TOTAL_CHARGE>
0

> <PUBCHEM_SUBSTANCE_ID>
310929207

> <PUBCHEM_SUBSTANCE_VERSION>
1

> <PUBCHEM_EXT_DATASOURCE_NAME>
4488

> <PUBCHEM_EXT_DATASOURCE_REGID>
SCHEMBL16106370

> <PUBCHEM_SUBSTANCE_COMMENT>
InChI=1S/C23H19N3O4/c1-29-16-6-4-5-15(13-16)25-22-14-17(11-12-24-22)30-21-10-9-20(26-23(27)28)18-7-2-3-8-19(18)21/h2-14,26H,1H3,(H,24,25)(H,27,28)
InChIKey=LWEVLBWZLWTRHP-UHFFFAOYSA-N

> <PUBCHEM_SUBSTANCE_SYNONYM>
SCHEMBL16106370

> <PUBCHEM_XREF_EXT_ID>
SCHEMBL16106370

> <PUBCHEM_EXT_DATASOURCE_URL>
https://www.surechembl.org/

> <PUBCHEM_EXT_SUBSTANCE_URL>
https://www.surechembl.org/chemical/SCHEMBL16106370

> <PUBCHEM_CID_ASSOCIATIONS>
117598656  1

> <PUBCHEM_COORDINATE_TYPE>
1
3

$$$$
