310929289
  -OEChem-07211613022D

 27 29  0     0  0  0  0  0  0999 V2000
    5.3034   -2.7770    0.0000 Cl  0  0  0  0  0  0  0  0  0  0  0  0
    5.3034    0.5231    0.0000 O   0  0  0  0  0  0  0  0  0  0  0  0
   -3.9850   -0.7145    0.0000 O   0  0  0  0  0  0  0  0  0  0  0  0
    3.8744   -0.3020    0.0000 N   0  0  0  0  0  0  0  0  0  0  0  0
    2.4454   -0.3020    0.0000 N   0  0  0  0  0  0  0  0  0  0  0  0
    4.5889   -0.7145    0.0000 C   0  0  0  0  0  0  0  0  0  0  0  0
    4.5889   -1.5395    0.0000 C   0  0  0  0  0  0  0  0  0  0  0  0
    5.3034   -0.3020    0.0000 C   0  0  0  0  0  0  0  0  0  0  0  0
    5.3034   -1.9520    0.0000 C   0  0  0  0  0  0  0  0  0  0  0  0
    3.1599   -0.7145    0.0000 C   0  0  0  0  0  0  0  0  0  0  0  0
    3.8744   -1.9520    0.0000 C   0  0  0  0  0  0  0  0  0  0  0  0
    6.0179   -0.7145    0.0000 C   0  0  0  0  0  0  0  0  0  0  0  0
    3.1599   -1.5395    0.0000 C   0  0  0  0  0  0  0  0  0  0  0  0
    6.0179   -1.5395    0.0000 C   0  0  0  0  0  0  0  0  0  0  0  0
    6.0179    0.9356    0.0000 C   0  0  0  0  0  0  0  0  0  0  0  0
    6.0179    1.7606    0.0000 C   0  0  0  0  0  0  0  0  0  0  0  0
    1.7309   -0.7145    0.0000 C   0  0  0  0  0  0  0  0  0  0  0  0
    5.6054    2.4751    0.0000 C   0  0  0  0  0  0  0  0  0  0  0  0
    6.4304    2.4751    0.0000 C   0  0  0  0  0  0  0  0  0  0  0  0
    2.4454    0.5231    0.0000 C   0  0  0  0  0  0  0  0  0  0  0  0
    1.0165   -0.3020    0.0000 C   0  0  0  0  0  0  0  0  0  0  0  0
    0.3020   -0.7145    0.0000 C   0  0  0  0  0  0  0  0  0  0  0  0
   -0.4125   -0.3020    0.0000 C   0  0  0  0  0  0  0  0  0  0  0  0
   -1.1270   -0.7145    0.0000 C   0  0  0  0  0  0  0  0  0  0  0  0
   -1.8415   -0.3020    0.0000 C   0  0  0  0  0  0  0  0  0  0  0  0
   -2.5560   -0.7145    0.0000 C   0  0  0  0  0  0  0  0  0  0  0  0
   -3.2704   -0.3020    0.0000 C   0  0  0  0  0  0  0  0  0  0  0  0
  1  9  1  0  0  0  0
  2  8  1  0  0  0  0
  2 15  1  0  0  0  0
  3 27  1  0  0  0  0
  4  6  1  0  0  0  0
  4 10  2  0  0  0  0
  5 10  1  0  0  0  0
  5 17  1  0  0  0  0
  5 20  1  0  0  0  0
  6  7  1  0  0  0  0
  6  8  2  0  0  0  0
  7  9  2  0  0  0  0
  7 11  1  0  0  0  0
  8 12  1  0  0  0  0
  9 14  1  0  0  0  0
 10 13  1  0  0  0  0
 11 13  2  0  0  0  0
 12 14  2  0  0  0  0
 15 16  1  0  0  0  0
 16 18  1  0  0  0  0
 16 19  1  0  0  0  0
 17 21  1  0  0  0  0
 18 19  1  0  0  0  0
 21 22  1  0  0  0  0
 22 23  1  0  0  0  0
 23 24  1  0  0  0  0
 24 25  1  0  0  0  0
 25 26  1  0  0  0  0
 26 27  1  0  0  0  0
M  END
> <PUBCHEM_COMPOUND_ID_TYPE>
0

> <PUBCHEM_TOTAL_CHARGE>
0

> <PUBCHEM_SUBSTANCE_ID>
310929289

> <PUBCHEM_SUBSTANCE_VERSION>
1

> <PUBCHEM_EXT_DATASOURCE_NAME>
4488

> <PUBCHEM_EXT_DATASOURCE_REGID>
SCHEMBL16106453

> <PUBCHEM_SUBSTANCE_COMMENT>
InChI=1S/C22H31ClN2O2/c1-25(14-6-4-2-3-5-7-15-26)21-13-10-18-19(23)11-12-20(22(18)24-21)27-16-17-8-9-17/h10-13,17,26H,2-9,14-16H2,1H3
InChIKey=UAEABKRFZLQWBO-UHFFFAOYSA-N

> <PUBCHEM_SUBSTANCE_SYNONYM>
SCHEMBL16106453

> <PUBCHEM_XREF_EXT_ID>
SCHEMBL16106453

> <PUBCHEM_EXT_DATASOURCE_URL>
https://www.surechembl.org/

> <PUBCHEM_EXT_SUBSTANCE_URL>
https://www.surechembl.org/chemical/SCHEMBL16106453

> <PUBCHEM_CID_ASSOCIATIONS>
85472828  1

> <PUBCHEM_COORDINATE_TYPE>
1
3

$$$$
