310934677
  -OEChem-07211613022D

 20 22  0     0  0  0  0  0  0999 V2000
    2.6818    0.0000    0.0000 Cl  0  0  0  0  0  0  0  0  0  0  0  0
    3.4980   -4.3725    0.0000 O   0  0  0  0  0  0  0  0  0  0  0  0
    2.4486   -5.8300    0.0000 O   0  0  0  0  0  0  0  0  0  0  0  0
    2.2154   -3.7312    0.0000 N   0  0  0  0  0  0  0  0  0  0  0  0
    1.4283   -3.9936    0.0000 C   0  0  0  0  0  0  0  0  0  0  0  0
    1.4283   -4.7806    0.0000 C   0  0  0  0  0  0  0  0  0  0  0  0
    2.6818   -4.3725    0.0000 C   0  0  0  0  0  0  0  0  0  0  0  0
    2.2154   -5.0430    0.0000 C   0  0  0  0  0  0  0  0  0  0  0  0
    0.6996   -3.5563    0.0000 C   0  0  0  0  0  0  0  0  0  0  0  0
    2.4486   -2.9441    0.0000 C   0  0  0  0  0  0  0  0  0  0  0  0
    0.6996   -5.1887    0.0000 C   0  0  0  0  0  0  0  0  0  0  0  0
    0.0000   -3.9936    0.0000 C   0  0  0  0  0  0  0  0  0  0  0  0
    0.0000   -4.7806    0.0000 C   0  0  0  0  0  0  0  0  0  0  0  0
    3.2648   -2.7692    0.0000 C   0  0  0  0  0  0  0  0  0  0  0  0
    3.5271   -1.9822    0.0000 C   0  0  0  0  0  0  0  0  0  0  0  0
    2.9733   -1.3701    0.0000 C   0  0  0  0  0  0  0  0  0  0  0  0
    4.3142   -1.8364    0.0000 C   0  0  0  0  0  0  0  0  0  0  0  0
    3.2357   -0.6122    0.0000 C   0  0  0  0  0  0  0  0  0  0  0  0
    4.5765   -1.0494    0.0000 C   0  0  0  0  0  0  0  0  0  0  0  0
    4.0227   -0.4373    0.0000 C   0  0  0  0  0  0  0  0  0  0  0  0
  1 18  1  0  0  0  0
  2  7  2  0  0  0  0
  3  8  2  0  0  0  0
  4  5  1  0  0  0  0
  4  7  1  0  0  0  0
  4 10  1  0  0  0  0
  5  6  2  0  0  0  0
  5  9  1  0  0  0  0
  6  8  1  0  0  0  0
  6 11  1  0  0  0  0
  7  8  1  0  0  0  0
  9 12  2  0  0  0  0
 10 14  1  0  0  0  0
 11 13  2  0  0  0  0
 12 13  1  0  0  0  0
 14 15  1  0  0  0  0
 15 16  2  0  0  0  0
 15 17  1  0  0  0  0
 16 18  1  0  0  0  0
 17 19  2  0  0  0  0
 18 20  2  0  0  0  0
 19 20  1  0  0  0  0
M  END
> <PUBCHEM_COMPOUND_ID_TYPE>
0

> <PUBCHEM_TOTAL_CHARGE>
0

> <PUBCHEM_SUBSTANCE_ID>
310934677

> <PUBCHEM_SUBSTANCE_VERSION>
1

> <PUBCHEM_EXT_DATASOURCE_NAME>
4488

> <PUBCHEM_EXT_DATASOURCE_REGID>
SCHEMBL16112176

> <PUBCHEM_SUBSTANCE_COMMENT>
InChI=1S/C16H12ClNO2/c17-12-5-3-4-11(10-12)8-9-18-14-7-2-1-6-13(14)15(19)16(18)20/h1-7,10H,8-9H2
InChIKey=OXDMAPZZIMIQKG-UHFFFAOYSA-N

> <PUBCHEM_SUBSTANCE_SYNONYM>
SCHEMBL16112176

> <PUBCHEM_XREF_EXT_ID>
SCHEMBL16112176

> <PUBCHEM_EXT_DATASOURCE_URL>
https://www.surechembl.org/

> <PUBCHEM_EXT_SUBSTANCE_URL>
https://www.surechembl.org/chemical/SCHEMBL16112176

> <PUBCHEM_CID_ASSOCIATIONS>
117602842  1

> <PUBCHEM_COORDINATE_TYPE>
1
3

$$$$
