310931057
  -OEChem-07211613022D

 26 28  0     0  0  0  0  0  0999 V2000
    6.4600   -3.3018    0.0000 F   0  0  0  0  0  0  0  0  0  0  0  0
    0.7178    0.0000    0.0000 F   0  0  0  0  0  0  0  0  0  0  0  0
    0.0239   -1.2441    0.0000 F   0  0  0  0  0  0  0  0  0  0  0  0
    0.0000   -0.4306    0.0000 F   0  0  0  0  0  0  0  0  0  0  0  0
    5.0484   -3.3018    0.0000 O   0  0  0  0  0  0  0  0  0  0  0  0
    1.4595   -2.0816    0.0000 O   0  0  0  0  0  0  0  0  0  0  0  0
    4.3067   -2.0576    0.0000 N   0  0  0  0  0  0  0  0  0  0  0  0
    5.0484   -0.8135    0.0000 N   0  0  0  0  0  0  0  0  0  0  0  0
    2.8711   -1.2441    0.0000 N   0  0  0  0  0  0  0  0  0  0  0  0
    5.7661   -2.0576    0.0000 C   0  0  0  0  0  0  0  0  0  0  0  0
    5.0484   -2.4883    0.0000 C   0  0  0  0  0  0  0  0  0  0  0  0
    5.7661   -1.2441    0.0000 C   0  0  0  0  0  0  0  0  0  0  0  0
    4.3067   -1.2441    0.0000 C   0  0  0  0  0  0  0  0  0  0  0  0
    3.6128   -2.4883    0.0000 C   0  0  0  0  0  0  0  0  0  0  0  0
    6.4600   -2.4883    0.0000 C   0  0  0  0  0  0  0  0  0  0  0  0
    6.4600   -0.8135    0.0000 C   0  0  0  0  0  0  0  0  0  0  0  0
    2.8711   -2.0816    0.0000 C   0  0  0  0  0  0  0  0  0  0  0  0
    3.6128   -3.3257    0.0000 C   0  0  0  0  0  0  0  0  0  0  0  0
    2.1773   -2.4883    0.0000 C   0  0  0  0  0  0  0  0  0  0  0  0
    7.1777   -2.0576    0.0000 C   0  0  0  0  0  0  0  0  0  0  0  0
    3.6128   -0.8135    0.0000 C   0  0  0  0  0  0  0  0  0  0  0  0
    7.1777   -1.2441    0.0000 C   0  0  0  0  0  0  0  0  0  0  0  0
    2.8950   -3.7324    0.0000 C   0  0  0  0  0  0  0  0  0  0  0  0
    2.1773   -3.3257    0.0000 C   0  0  0  0  0  0  0  0  0  0  0  0
    1.4595   -1.2441    0.0000 C   0  0  0  0  0  0  0  0  0  0  0  0
    0.7178   -0.8374    0.0000 C   0  0  0  0  0  0  0  0  0  0  0  0
  1 15  1  0  0  0  0
  2 26  1  0  0  0  0
  3 26  1  0  0  0  0
  4 26  1  0  0  0  0
  5 11  2  0  0  0  0
  6 19  1  0  0  0  0
  6 25  1  0  0  0  0
  7 11  1  0  0  0  0
  7 13  1  0  0  0  0
  7 14  1  0  0  0  0
  8 12  1  0  0  0  0
  8 13  2  0  0  0  0
  9 21  1  0  0  0  0
 10 11  1  0  0  0  0
 10 12  2  0  0  0  0
 10 15  1  0  0  0  0
 12 16  1  0  0  0  0
 13 21  1  0  0  0  0
 14 17  1  0  0  0  0
 14 18  2  0  0  0  0
 15 20  2  0  0  0  0
 16 22  2  0  0  0  0
 17 19  2  0  0  0  0
 18 23  1  0  0  0  0
 19 24  1  0  0  0  0
 20 22  1  0  0  0  0
 23 24  2  0  0  0  0
 25 26  1  0  0  0  0
M  END
> <PUBCHEM_COMPOUND_ID_TYPE>
0

> <PUBCHEM_TOTAL_CHARGE>
0

> <PUBCHEM_SUBSTANCE_ID>
310931057

> <PUBCHEM_SUBSTANCE_VERSION>
1

> <PUBCHEM_EXT_DATASOURCE_NAME>
4488

> <PUBCHEM_EXT_DATASOURCE_REGID>
SCHEMBL16108359

> <PUBCHEM_SUBSTANCE_COMMENT>
InChI=1S/C17H13F4N3O2/c18-12-5-2-6-13-15(12)16(25)24(14(8-22)23-13)10-3-1-4-11(7-10)26-9-17(19,20)21/h1-7H,8-9,22H2
InChIKey=WDJGFBUDAUKCRD-UHFFFAOYSA-N

> <PUBCHEM_SUBSTANCE_SYNONYM>
SCHEMBL16108359

> <PUBCHEM_XREF_EXT_ID>
SCHEMBL16108359

> <PUBCHEM_EXT_DATASOURCE_URL>
https://www.surechembl.org/

> <PUBCHEM_EXT_SUBSTANCE_URL>
https://www.surechembl.org/chemical/SCHEMBL16108359

> <PUBCHEM_CID_ASSOCIATIONS>
117599965  1

> <PUBCHEM_COORDINATE_TYPE>
1
3

$$$$
