310934942
  -OEChem-07211613022D

 39 44  0     0  0  0  0  0  0999 V2000
    4.9195   -2.0908    0.0000 O   0  0  0  0  0  0  0  0  0  0  0  0
    1.9678  -10.6383    0.0000 O   0  0  0  0  0  0  0  0  0  0  0  0
    0.5534  -10.6383    0.0000 O   0  0  0  0  0  0  0  0  0  0  0  0
    0.6149   -3.2591    0.0000 N   0  0  0  0  0  0  0  0  0  0  0  0
    0.0000   -2.6442    0.0000 N   0  0  0  0  0  0  0  0  0  0  0  0
    2.0293   -3.2591    0.0000 N   0  0  0  0  0  0  0  0  0  0  0  0
    2.7672   -0.1845    0.0000 N   0  0  0  0  0  0  0  0  0  0  0  0
    1.2913   -7.7481    0.0000 N   0  0  0  0  0  0  0  0  0  0  0  0
    1.2913   -9.4085    0.0000 N   0  0  0  0  0  0  0  0  0  0  0  0
    1.1684   -2.0293    0.0000 C   0  0  0  0  0  0  0  0  0  0  0  0
    1.3529   -2.8287    0.0000 C   0  0  0  0  0  0  0  0  0  0  0  0
    1.6603   -1.4144    0.0000 C   0  0  0  0  0  0  0  0  0  0  0  0
    2.5212   -1.5988    0.0000 C   0  0  0  0  0  0  0  0  0  0  0  0
    0.3075   -1.9063    0.0000 C   0  0  0  0  0  0  0  0  0  0  0  0
    1.2913   -4.4890    0.0000 C   0  0  0  0  0  0  0  0  0  0  0  0
    3.0746   -0.9839    0.0000 C   0  0  0  0  0  0  0  0  0  0  0  0
    0.6149   -4.0586    0.0000 C   0  0  0  0  0  0  0  0  0  0  0  0
    1.4144   -0.6149    0.0000 C   0  0  0  0  0  0  0  0  0  0  0  0
    1.2913   -5.2884    0.0000 C   0  0  0  0  0  0  0  0  0  0  0  0
    2.0293   -4.0586    0.0000 C   0  0  0  0  0  0  0  0  0  0  0  0
    2.7672   -2.3367    0.0000 C   0  0  0  0  0  0  0  0  0  0  0  0
    3.8741   -1.1069    0.0000 C   0  0  0  0  0  0  0  0  0  0  0  0
    1.9678    0.0000    0.0000 C   0  0  0  0  0  0  0  0  0  0  0  0
    4.1200   -1.9063    0.0000 C   0  0  0  0  0  0  0  0  0  0  0  0
    1.2913   -6.9488    0.0000 C   0  0  0  0  0  0  0  0  0  0  0  0
    0.5534   -5.7189    0.0000 C   0  0  0  0  0  0  0  0  0  0  0  0
    1.9678   -5.7189    0.0000 C   0  0  0  0  0  0  0  0  0  0  0  0
    3.5666   -2.5212    0.0000 C   0  0  0  0  0  0  0  0  0  0  0  0
    0.5534   -6.5183    0.0000 C   0  0  0  0  0  0  0  0  0  0  0  0
    1.9678   -6.5183    0.0000 C   0  0  0  0  0  0  0  0  0  0  0  0
    0.5534   -8.1786    0.0000 C   0  0  0  0  0  0  0  0  0  0  0  0
    2.0293   -8.1786    0.0000 C   0  0  0  0  0  0  0  0  0  0  0  0
    2.0293   -9.0395    0.0000 C   0  0  0  0  0  0  0  0  0  0  0  0
    0.5534   -9.0395    0.0000 C   0  0  0  0  0  0  0  0  0  0  0  0
    1.2913  -10.2694    0.0000 C   0  0  0  0  0  0  0  0  0  0  0  0
    1.9678  -11.4992    0.0000 C   0  0  0  0  0  0  0  0  0  0  0  0
    1.1684  -11.4992    0.0000 C   0  0  0  0  0  0  0  0  0  0  0  0
    1.9678  -12.2987    0.0000 C   0  0  0  0  0  0  0  0  0  0  0  0
    2.8287  -11.4992    0.0000 C   0  0  0  0  0  0  0  0  0  0  0  0
  1 24  1  0  0  0  0
  2 35  1  0  0  0  0
  2 36  1  0  0  0  0
  3 35  2  0  0  0  0
  4  5  1  0  0  0  0
  4 11  1  0  0  0  0
  4 17  1  0  0  0  0
  5 14  2  0  0  0  0
  6 11  1  0  0  0  0
  6 20  2  0  0  0  0
  7 16  2  0  0  0  0
  7 23  1  0  0  0  0
  8 25  1  0  0  0  0
  8 31  1  0  0  0  0
  8 32  1  0  0  0  0
  9 33  1  0  0  0  0
  9 34  1  0  0  0  0
  9 35  1  0  0  0  0
 10 11  2  0  0  0  0
 10 12  1  0  0  0  0
 10 14  1  0  0  0  0
 12 13  2  0  0  0  0
 12 18  1  0  0  0  0
 13 16  1  0  0  0  0
 13 21  1  0  0  0  0
 15 17  2  0  0  0  0
 15 19  1  0  0  0  0
 15 20  1  0  0  0  0
 16 22  1  0  0  0  0
 18 23  2  0  0  0  0
 19 26  2  0  0  0  0
 19 27  1  0  0  0  0
 21 28  2  0  0  0  0
 22 24  2  0  0  0  0
 24 28  1  0  0  0  0
 25 29  2  0  0  0  0
 25 30  1  0  0  0  0
 26 29  1  0  0  0  0
 27 30  2  0  0  0  0
 31 34  1  0  0  0  0
 32 33  1  0  0  0  0
 36 37  1  0  0  0  0
 36 38  1  0  0  0  0
 36 39  1  0  0  0  0
M  END
> <PUBCHEM_COMPOUND_ID_TYPE>
0

> <PUBCHEM_TOTAL_CHARGE>
0

> <PUBCHEM_SUBSTANCE_ID>
310934942

> <PUBCHEM_SUBSTANCE_VERSION>
1

> <PUBCHEM_EXT_DATASOURCE_NAME>
4488

> <PUBCHEM_EXT_DATASOURCE_REGID>
SCHEMBL16112457

> <PUBCHEM_SUBSTANCE_COMMENT>
InChI=1S/C30H30N6O3/c1-30(2,3)39-29(38)35-14-12-34(13-15-35)22-6-4-20(5-7-22)21-17-32-28-26(18-33-36(28)19-21)24-10-11-31-27-16-23(37)8-9-25(24)27/h4-11,16-19,37H,12-15H2,1-3H3
InChIKey=BINYOMWDXUXRPX-UHFFFAOYSA-N

> <PUBCHEM_SUBSTANCE_SYNONYM>
SCHEMBL16112457

> <PUBCHEM_XREF_EXT_ID>
SCHEMBL16112457

> <PUBCHEM_EXT_DATASOURCE_URL>
https://www.surechembl.org/

> <PUBCHEM_EXT_SUBSTANCE_URL>
https://www.surechembl.org/chemical/SCHEMBL16112457

> <PUBCHEM_CID_ASSOCIATIONS>
117603064  1

> <PUBCHEM_COORDINATE_TYPE>
1
3

$$$$
