310943334
  -OEChem-07211613022D

 25 27  0     0  0  0  0  0  0999 V2000
   -1.1172    1.2945    0.0000 Cl  0  0  0  0  0  0  0  0  0  0  0  0
   -3.6137   -0.2003    0.0000 Cl  0  0  0  0  0  0  0  0  0  0  0  0
    0.8707    1.9572    0.0000 F   0  0  0  0  0  0  0  0  0  0  0  0
    2.2268    1.9572    0.0000 F   0  0  0  0  0  0  0  0  0  0  0  0
    2.3193    1.2945    0.0000 F   0  0  0  0  0  0  0  0  0  0  0  0
    2.3655   -1.6951    0.0000 F   0  0  0  0  0  0  0  0  0  0  0  0
    3.6137   -0.6472    0.0000 F   0  0  0  0  0  0  0  0  0  0  0  0
    2.9203   -1.9572    0.0000 F   0  0  0  0  0  0  0  0  0  0  0  0
    0.1002    0.4931    0.0000 N   0  0  0  0  0  0  0  0  0  0  0  0
    0.1002   -0.9093    0.0000 N   0  0  0  0  0  0  0  0  0  0  0  0
    0.8553    0.2003    0.0000 C   0  0  0  0  0  0  0  0  0  0  0  0
    1.5488    0.6165    0.0000 C   0  0  0  0  0  0  0  0  0  0  0  0
    0.8553   -0.6781    0.0000 C   0  0  0  0  0  0  0  0  0  0  0  0
   -0.3467   -0.2312    0.0000 C   0  0  0  0  0  0  0  0  0  0  0  0
    2.2268   -0.6781    0.0000 C   0  0  0  0  0  0  0  0  0  0  0  0
    1.5796    1.4948    0.0000 C   0  0  0  0  0  0  0  0  0  0  0  0
    2.2268    0.1849    0.0000 C   0  0  0  0  0  0  0  0  0  0  0  0
    1.5642   -1.1095    0.0000 C   0  0  0  0  0  0  0  0  0  0  0  0
   -1.1327   -0.2312    0.0000 C   0  0  0  0  0  0  0  0  0  0  0  0
    2.9203   -1.1249    0.0000 C   0  0  0  0  0  0  0  0  0  0  0  0
   -1.5025    0.5240    0.0000 C   0  0  0  0  0  0  0  0  0  0  0  0
   -1.5025   -0.9709    0.0000 C   0  0  0  0  0  0  0  0  0  0  0  0
   -2.2884    0.4931    0.0000 C   0  0  0  0  0  0  0  0  0  0  0  0
   -2.6583   -0.2312    0.0000 C   0  0  0  0  0  0  0  0  0  0  0  0
   -2.2730   -0.9863    0.0000 C   0  0  0  0  0  0  0  0  0  0  0  0
  1 21  1  0  0  0  0
  2 24  1  0  0  0  0
  3 16  1  0  0  0  0
  4 16  1  0  0  0  0
  5 16  1  0  0  0  0
  6 20  1  0  0  0  0
  7 20  1  0  0  0  0
  8 20  1  0  0  0  0
  9 11  1  0  0  0  0
  9 14  2  0  0  0  0
 10 13  1  0  0  0  0
 10 14  1  0  0  0  0
 11 12  1  0  0  0  0
 11 13  2  0  0  0  0
 12 16  1  0  0  0  0
 12 17  2  0  0  0  0
 13 18  1  0  0  0  0
 14 19  1  0  0  0  0
 15 17  1  0  0  0  0
 15 18  2  0  0  0  0
 15 20  1  0  0  0  0
 19 21  2  0  0  0  0
 19 22  1  0  0  0  0
 21 23  1  0  0  0  0
 22 25  2  0  0  0  0
 23 24  2  0  0  0  0
 24 25  1  0  0  0  0
M  END
> <PUBCHEM_COMPOUND_ID_TYPE>
0

> <PUBCHEM_TOTAL_CHARGE>
0

> <PUBCHEM_SUBSTANCE_ID>
310943334

> <PUBCHEM_SUBSTANCE_VERSION>
1

> <PUBCHEM_EXT_DATASOURCE_NAME>
4488

> <PUBCHEM_EXT_DATASOURCE_REGID>
SCHEMBL16121397

> <PUBCHEM_SUBSTANCE_COMMENT>
InChI=1S/C15H6Cl2F6N2/c16-7-1-2-8(10(17)5-7)13-24-11-4-6(14(18,19)20)3-9(12(11)25-13)15(21,22)23/h1-5H,(H,24,25)
InChIKey=ZTINJCUNENALMI-UHFFFAOYSA-N

> <PUBCHEM_SUBSTANCE_SYNONYM>
SCHEMBL16121397

> <PUBCHEM_XREF_EXT_ID>
SCHEMBL16121397

> <PUBCHEM_EXT_DATASOURCE_URL>
https://www.surechembl.org/

> <PUBCHEM_EXT_SUBSTANCE_URL>
https://www.surechembl.org/chemical/SCHEMBL16121397

> <PUBCHEM_CID_ASSOCIATIONS>
117609759  1

> <PUBCHEM_COORDINATE_TYPE>
1
3

$$$$
