310934001
  -OEChem-07211613022D

 26 28  0     0  0  0  0  0  0999 V2000
   -1.9919   -4.8682    0.0000 F   0  0  0  0  0  0  0  0  0  0  0  0
    1.0222   -2.7373    0.0000 O   0  0  0  0  0  0  0  0  0  0  0  0
   -1.8939   -2.0120    0.0000 O   0  0  0  0  0  0  0  0  0  0  0  0
    3.0571   -2.8067    0.0000 O   0  0  0  0  0  0  0  0  0  0  0  0
    2.4814   -1.4988    0.0000 O   0  0  0  0  0  0  0  0  0  0  0  0
    1.1480   -1.6761    0.0000 C   0  0  0  0  0  0  0  0  0  0  0  0
    0.9228   -1.0102    0.0000 C   0  0  0  0  0  0  0  0  0  0  0  0
    1.8965   -2.0230    0.0000 C   0  0  0  0  0  0  0  0  0  0  0  0
    0.2262   -2.1175    0.0000 C   0  0  0  0  0  0  0  0  0  0  0  0
    1.2052   -0.7200    0.0000 C   0  0  0  0  0  0  0  0  0  0  0  0
    1.6614   -1.3425    0.0000 C   0  0  0  0  0  0  0  0  0  0  0  0
    0.1190   -1.3621    0.0000 C   0  0  0  0  0  0  0  0  0  0  0  0
    0.9605   -0.1141    0.0000 C   0  0  0  0  0  0  0  0  0  0  0  0
    0.8545   -2.0780    0.0000 C   0  0  0  0  0  0  0  0  0  0  0  0
    0.5306   -3.5250    0.0000 C   0  0  0  0  0  0  0  0  0  0  0  0
   -0.2939   -3.4967    0.0000 C   0  0  0  0  0  0  0  0  0  0  0  0
    1.6366   -2.6513    0.0000 C   0  0  0  0  0  0  0  0  0  0  0  0
   -0.6816   -2.7685    0.0000 C   0  0  0  0  0  0  0  0  0  0  0  0
   -1.5061   -2.7402    0.0000 C   0  0  0  0  0  0  0  0  0  0  0  0
   -0.7306   -4.1966    0.0000 C   0  0  0  0  0  0  0  0  0  0  0  0
   -1.5552   -4.1683    0.0000 C   0  0  0  0  0  0  0  0  0  0  0  0
   -1.9429   -3.4401    0.0000 C   0  0  0  0  0  0  0  0  0  0  0  0
    2.3917   -2.3189    0.0000 C   0  0  0  0  0  0  0  0  0  0  0  0
   -2.7184   -1.9836    0.0000 C   0  0  0  0  0  0  0  0  0  0  0  0
   -3.1061   -1.2554    0.0000 C   0  0  0  0  0  0  0  0  0  0  0  0
   -3.1552   -2.6835    0.0000 C   0  0  0  0  0  0  0  0  0  0  0  0
  1 21  1  0  0  0  0
  2  6  1  0  0  0  0
  2 15  1  0  0  0  0
  3 19  1  0  0  0  0
  3 24  1  0  0  0  0
  4 23  2  0  0  0  0
  5 23  1  0  0  0  0
  6  8  1  0  0  0  0
  6  9  1  0  0  0  0
  6 10  1  0  0  0  0
  7 11  1  0  0  0  0
  7 12  1  0  0  0  0
  7 13  1  0  0  0  0
  7 14  1  0  0  0  0
  8 11  1  0  0  0  0
  9 12  1  0  0  0  0
 10 13  1  0  0  0  0
 14 17  1  0  0  0  0
 15 16  1  0  0  0  0
 16 18  1  0  0  0  0
 16 20  2  0  0  0  0
 17 23  1  0  0  0  0
 18 19  2  0  0  0  0
 19 22  1  0  0  0  0
 20 21  1  0  0  0  0
 21 22  2  0  0  0  0
 24 25  1  0  0  0  0
 24 26  1  0  0  0  0
M  END
> <PUBCHEM_COMPOUND_ID_TYPE>
0

> <PUBCHEM_TOTAL_CHARGE>
0

> <PUBCHEM_SUBSTANCE_ID>
310934001

> <PUBCHEM_SUBSTANCE_VERSION>
1

> <PUBCHEM_EXT_DATASOURCE_NAME>
4488

> <PUBCHEM_EXT_DATASOURCE_REGID>
SCHEMBL16111445

> <PUBCHEM_SUBSTANCE_COMMENT>
InChI=1S/C21H29FO4/c1-15(2)26-18-12-16(11-17(22)13-18)14-25-21-8-5-20(6-9-21,7-10-21)4-3-19(23)24/h11-13,15H,3-10,14H2,1-2H3,(H,23,24)
InChIKey=KMCZZBBPMBMVFO-UHFFFAOYSA-N

> <PUBCHEM_SUBSTANCE_SYNONYM>
SCHEMBL16111445

> <PUBCHEM_XREF_EXT_ID>
SCHEMBL16111445

> <PUBCHEM_EXT_DATASOURCE_URL>
https://www.surechembl.org/

> <PUBCHEM_EXT_SUBSTANCE_URL>
https://www.surechembl.org/chemical/SCHEMBL16111445

> <PUBCHEM_CID_ASSOCIATIONS>
86288732  1

> <PUBCHEM_COORDINATE_TYPE>
1
3

$$$$
