310944364
  -OEChem-07211613022D

 29 33  0     0  0  0  0  0  0999 V2000
    1.3640    1.2867    0.0000 F   0  0  0  0  0  0  0  0  0  0  0  0
    1.3500   -2.8054    0.0000 N   0  0  0  0  0  0  0  0  0  0  0  0
   -0.1969    0.3445    0.0000 C   0  0  0  0  0  0  0  0  0  0  0  0
    0.6328    0.0773    0.0000 C   0  0  0  0  0  0  0  0  0  0  0  0
   -0.6750   -0.3305    0.0000 C   0  0  0  0  0  0  0  0  0  0  0  0
    0.6047   -0.7383    0.0000 C   0  0  0  0  0  0  0  0  0  0  0  0
   -0.1969   -0.9913    0.0000 C   0  0  0  0  0  0  0  0  0  0  0  0
   -0.1687    1.1742    0.0000 C   0  0  0  0  0  0  0  0  0  0  0  0
   -0.9984    0.5695    0.0000 C   0  0  0  0  0  0  0  0  0  0  0  0
    1.3500    0.4851    0.0000 C   0  0  0  0  0  0  0  0  0  0  0  0
    1.3500   -1.1601    0.0000 C   0  0  0  0  0  0  0  0  0  0  0  0
   -1.4906   -0.4289    0.0000 C   0  0  0  0  0  0  0  0  0  0  0  0
    2.0812    0.0633    0.0000 C   0  0  0  0  0  0  0  0  0  0  0  0
   -0.5485   -1.7366    0.0000 C   0  0  0  0  0  0  0  0  0  0  0  0
    2.0812   -0.7523    0.0000 C   0  0  0  0  0  0  0  0  0  0  0  0
    0.5485    1.5820    0.0000 C   0  0  0  0  0  0  0  0  0  0  0  0
   -1.1953    1.3570    0.0000 C   0  0  0  0  0  0  0  0  0  0  0  0
   -0.9000    1.5820    0.0000 C   0  0  0  0  0  0  0  0  0  0  0  0
   -1.5750   -0.0070    0.0000 C   0  0  0  0  0  0  0  0  0  0  0  0
   -1.8281   -1.1742    0.0000 C   0  0  0  0  0  0  0  0  0  0  0  0
   -1.3500   -1.8211    0.0000 C   0  0  0  0  0  0  0  0  0  0  0  0
    1.3500   -2.0038    0.0000 C   0  0  0  0  0  0  0  0  0  0  0  0
    0.5485    2.3976    0.0000 C   0  0  0  0  0  0  0  0  0  0  0  0
   -2.0109    1.5820    0.0000 C   0  0  0  0  0  0  0  0  0  0  0  0
   -0.9140    2.3695    0.0000 C   0  0  0  0  0  0  0  0  0  0  0  0
   -2.3765    0.2180    0.0000 C   0  0  0  0  0  0  0  0  0  0  0  0
    2.5874    0.3586    0.0000 C   0  0  0  0  0  0  0  0  0  0  0  0
   -0.1828    2.8054    0.0000 C   0  0  0  0  0  0  0  0  0  0  0  0
   -2.5874    1.0195    0.0000 C   0  0  0  0  0  0  0  0  0  0  0  0
  1 10  1  0  0  0  0
  2 22  3  0  0  0  0
  3  4  1  0  0  0  0
  3  5  1  0  0  0  0
  3  8  1  0  0  0  0
  3  9  1  0  0  0  0
  4  6  2  0  0  0  0
  4 10  1  0  0  0  0
  5  7  2  0  0  0  0
  5 12  1  0  0  0  0
  6  7  1  0  0  0  0
  6 11  1  0  0  0  0
  7 14  1  0  0  0  0
  8 16  2  0  0  0  0
  8 18  1  0  0  0  0
  9 17  2  0  0  0  0
  9 19  1  0  0  0  0
 10 13  2  0  0  0  0
 11 15  2  0  0  0  0
 11 22  1  0  0  0  0
 12 20  2  0  0  0  0
 13 15  1  0  0  0  0
 13 27  1  0  0  0  0
 14 21  2  0  0  0  0
 16 23  1  0  0  0  0
 17 24  1  0  0  0  0
 18 25  2  0  0  0  0
 19 26  2  0  0  0  0
 20 21  1  0  0  0  0
 23 28  2  0  0  0  0
 24 29  2  0  0  0  0
 25 28  1  0  0  0  0
 26 29  1  0  0  0  0
M  END
> <PUBCHEM_COMPOUND_ID_TYPE>
0

> <PUBCHEM_TOTAL_CHARGE>
0

> <PUBCHEM_SUBSTANCE_ID>
310944364

> <PUBCHEM_SUBSTANCE_VERSION>
1

> <PUBCHEM_EXT_DATASOURCE_NAME>
4488

> <PUBCHEM_EXT_DATASOURCE_REGID>
SCHEMBL16122439

> <PUBCHEM_SUBSTANCE_COMMENT>
InChI=1S/C27H18FN/c1-18-16-19(17-29)24-22-14-8-9-15-23(22)27(25(24)26(18)28,20-10-4-2-5-11-20)21-12-6-3-7-13-21/h2-16H,1H3
InChIKey=IUWSPERIIXFJNC-UHFFFAOYSA-N

> <PUBCHEM_SUBSTANCE_SYNONYM>
SCHEMBL16122439

> <PUBCHEM_XREF_EXT_ID>
SCHEMBL16122439

> <PUBCHEM_EXT_DATASOURCE_URL>
https://www.surechembl.org/

> <PUBCHEM_EXT_SUBSTANCE_URL>
https://www.surechembl.org/chemical/SCHEMBL16122439

> <PUBCHEM_CID_ASSOCIATIONS>
117610621  1

> <PUBCHEM_COORDINATE_TYPE>
1
3

$$$$
