310939827
  -OEChem-07211613022D

 32 34  0     0  0  0  0  0  0999 V2000
    1.4289    2.6260    0.0000 Cl  0  0  0  0  0  0  0  0  0  0  0  0
   -2.8579   -3.1490    0.0000 S   0  0  0  0  0  0  0  0  0  0  0  0
    0.0000    0.1510    0.0000 O   0  0  0  0  0  0  0  0  0  0  0  0
    1.4289   -2.3240    0.0000 O   0  0  0  0  0  0  0  0  0  0  0  0
   -2.4454   -2.4345    0.0000 O   0  0  0  0  0  0  0  0  0  0  0  0
   -3.2704   -3.8635    0.0000 O   0  0  0  0  0  0  0  0  0  0  0  0
    1.4289   -0.6740    0.0000 N   0  0  0  0  0  0  0  0  0  0  0  0
    0.0000   -2.3240    0.0000 N   0  0  0  0  0  0  0  0  0  0  0  0
   -2.1434   -3.5615    0.0000 N   0  0  0  0  0  0  0  0  0  0  0  0
    2.1434    1.3885    0.0000 C   0  0  0  0  0  0  0  0  0  0  0  0
    1.4289    0.1510    0.0000 C   0  0  0  0  0  0  0  0  0  0  0  0
    1.4289    1.8010    0.0000 C   0  0  0  0  0  0  0  0  0  0  0  0
    0.7145    0.5635    0.0000 C   0  0  0  0  0  0  0  0  0  0  0  0
    2.8579    1.8010    0.0000 C   0  0  0  0  0  0  0  0  0  0  0  0
    2.1434    0.5635    0.0000 C   0  0  0  0  0  0  0  0  0  0  0  0
    0.7145    1.3885    0.0000 C   0  0  0  0  0  0  0  0  0  0  0  0
    2.8579    2.6260    0.0000 C   0  0  0  0  0  0  0  0  0  0  0  0
    0.7145   -1.9115    0.0000 C   0  0  0  0  0  0  0  0  0  0  0  0
    3.5724    1.3885    0.0000 C   0  0  0  0  0  0  0  0  0  0  0  0
   -1.4289   -3.1490    0.0000 C   0  0  0  0  0  0  0  0  0  0  0  0
    0.7145   -1.0865    0.0000 C   0  0  0  0  0  0  0  0  0  0  0  0
    3.5724    3.0385    0.0000 C   0  0  0  0  0  0  0  0  0  0  0  0
   -0.7145   -1.9115    0.0000 C   0  0  0  0  0  0  0  0  0  0  0  0
    0.0000   -3.1490    0.0000 C   0  0  0  0  0  0  0  0  0  0  0  0
   -1.4289   -2.3240    0.0000 C   0  0  0  0  0  0  0  0  0  0  0  0
   -0.7145   -3.5615    0.0000 C   0  0  0  0  0  0  0  0  0  0  0  0
    4.2868    1.8010    0.0000 C   0  0  0  0  0  0  0  0  0  0  0  0
    4.2868    2.6260    0.0000 C   0  0  0  0  0  0  0  0  0  0  0  0
   -3.5724   -2.7365    0.0000 C   0  0  0  0  0  0  0  0  0  0  0  0
   -0.7145    0.5635    0.0000 C   0  0  0  0  0  0  0  0  0  0  0  0
    3.5724    3.8635    0.0000 C   0  0  0  0  0  0  0  0  0  0  0  0
   -4.2868   -3.1490    0.0000 C   0  0  0  0  0  0  0  0  0  0  0  0
  1 12  1  0  0  0  0
  2  5  2  0  0  0  0
  2  6  2  0  0  0  0
  2  9  1  0  0  0  0
  2 29  1  0  0  0  0
  3 13  1  0  0  0  0
  3 30  1  0  0  0  0
  4 18  2  0  0  0  0
  7 11  1  0  0  0  0
  7 21  1  0  0  0  0
  8 18  1  0  0  0  0
  8 23  1  0  0  0  0
  8 24  1  0  0  0  0
  9 20  1  0  0  0  0
 10 12  2  0  0  0  0
 10 14  1  0  0  0  0
 10 15  1  0  0  0  0
 11 13  1  0  0  0  0
 11 15  2  0  0  0  0
 12 16  1  0  0  0  0
 13 16  2  0  0  0  0
 14 17  1  0  0  0  0
 14 19  2  0  0  0  0
 17 22  2  0  0  0  0
 18 21  1  0  0  0  0
 19 27  1  0  0  0  0
 20 25  1  0  0  0  0
 20 26  1  0  0  0  0
 22 28  1  0  0  0  0
 22 31  1  0  0  0  0
 23 25  1  0  0  0  0
 24 26  1  0  0  0  0
 27 28  2  0  0  0  0
 29 32  2  0  0  0  0
M  END
> <PUBCHEM_COMPOUND_ID_TYPE>
0

> <PUBCHEM_TOTAL_CHARGE>
0

> <PUBCHEM_SUBSTANCE_ID>
310939827

> <PUBCHEM_SUBSTANCE_VERSION>
1

> <PUBCHEM_EXT_DATASOURCE_NAME>
4488

> <PUBCHEM_EXT_DATASOURCE_REGID>
SCHEMBL16117757

> <PUBCHEM_SUBSTANCE_COMMENT>
InChI=1S/C23H28ClN3O4S/c1-4-32(29,30)26-18-8-10-27(11-9-18)23(28)15-25-21-13-19(20(24)14-22(21)31-3)17-7-5-6-16(2)12-17/h4-7,12-14,18,25-26H,1,8-11,15H2,2-3H3
InChIKey=VUKPXXJMASEOMV-UHFFFAOYSA-N

> <PUBCHEM_SUBSTANCE_SYNONYM>
SCHEMBL16117757

> <PUBCHEM_XREF_EXT_ID>
SCHEMBL16117757

> <PUBCHEM_EXT_DATASOURCE_URL>
https://www.surechembl.org/

> <PUBCHEM_EXT_SUBSTANCE_URL>
https://www.surechembl.org/chemical/SCHEMBL16117757

> <PUBCHEM_CID_ASSOCIATIONS>
117607044  1

> <PUBCHEM_COORDINATE_TYPE>
1
3

$$$$
