310935739
  -OEChem-07211613022D

 37 40  0     1  0  0  0  0  0999 V2000
    3.2565    0.0000    0.0000 Br  0  0  0  0  0  0  0  0  0  0  0  0
    3.5605   -6.6433    0.0000 O   0  0  0  0  0  0  0  0  0  0  0  0
    0.6947   -6.5999    0.0000 O   0  0  0  0  0  0  0  0  0  0  0  0
    4.9933   -7.4683    0.0000 O   0  0  0  0  0  0  0  0  0  0  0  0
    5.6880   -6.2091    0.0000 O   0  0  0  0  0  0  0  0  0  0  0  0
    4.2551   -3.7341    0.0000 N   0  0  0  0  0  0  0  0  0  0  0  0
    2.8657   -5.3841    0.0000 N   0  0  0  0  0  0  0  0  0  0  0  0
    4.0815   -2.9092    0.0000 N   0  0  0  0  0  0  0  0  0  0  0  0
    3.5605   -4.9933    0.0000 C   0  0  0  0  0  0  0  0  0  0  0  0
    3.5605   -4.1683    0.0000 C   0  0  0  0  0  0  0  0  0  0  0  0
    4.2551   -5.3841    0.0000 C   0  0  0  0  0  0  0  0  0  0  0  0
    4.9933   -4.9933    0.0000 C   0  0  0  0  0  0  0  0  0  0  0  0
    4.2551   -6.2091    0.0000 C   0  0  3  0  0  0  0  0  0  0  0  0
    3.2565   -2.8657    0.0000 C   0  0  0  0  0  0  0  0  0  0  0  0
    2.9525   -3.6038    0.0000 C   0  0  0  0  0  0  0  0  0  0  0  0
    4.9933   -4.1683    0.0000 C   0  0  0  0  0  0  0  0  0  0  0  0
    2.8657   -2.1276    0.0000 C   0  0  0  0  0  0  0  0  0  0  0  0
    2.8657   -6.2091    0.0000 C   0  0  0  0  0  0  0  0  0  0  0  0
    2.1276   -4.9933    0.0000 C   0  0  0  0  0  0  0  0  0  0  0  0
    4.9933   -6.6433    0.0000 C   0  0  0  0  0  0  0  0  0  0  0  0
    1.4329   -6.2091    0.0000 C   0  0  0  0  0  0  0  0  0  0  0  0
    2.1276   -6.6433    0.0000 C   0  0  0  0  0  0  0  0  0  0  0  0
    1.4329   -5.3841    0.0000 C   0  0  0  0  0  0  0  0  0  0  0  0
    5.6880   -5.3841    0.0000 C   0  0  0  0  0  0  0  0  0  0  0  0
    3.5605   -7.4683    0.0000 C   0  0  0  0  0  0  0  0  0  0  0  0
    3.2565   -1.4329    0.0000 C   0  0  0  0  0  0  0  0  0  0  0  0
    2.0407   -2.1276    0.0000 C   0  0  0  0  0  0  0  0  0  0  0  0
    2.8657   -0.7381    0.0000 C   0  0  0  0  0  0  0  0  0  0  0  0
    0.6947   -5.7749    0.0000 C   0  0  0  0  0  0  0  0  0  0  0  0
    1.6066   -1.4329    0.0000 C   0  0  0  0  0  0  0  0  0  0  0  0
    2.0407   -0.7381    0.0000 C   0  0  0  0  0  0  0  0  0  0  0  0
    3.5170   -8.2933    0.0000 C   0  0  0  0  0  0  0  0  0  0  0  0
    2.7355   -7.4248    0.0000 C   0  0  0  0  0  0  0  0  0  0  0  0
    4.3854   -7.4683    0.0000 C   0  0  0  0  0  0  0  0  0  0  0  0
    0.6947   -7.4248    0.0000 C   0  0  0  0  0  0  0  0  0  0  0  0
    0.0000   -7.8590    0.0000 C   0  0  0  0  0  0  0  0  0  0  0  0
    0.0000   -8.6840    0.0000 C   0  0  0  0  0  0  0  0  0  0  0  0
  1 28  1  0  0  0  0
 13  2  1  1  0  0  0
  2 25  1  0  0  0  0
  3 21  1  0  0  0  0
  3 35  1  0  0  0  0
  4 20  2  0  0  0  0
  5 20  1  0  0  0  0
  6  8  1  0  0  0  0
  6 10  1  0  0  0  0
  6 16  1  0  0  0  0
  7  9  1  0  0  0  0
  7 18  1  0  0  0  0
  7 19  1  0  0  0  0
  8 14  2  0  0  0  0
  9 10  1  0  0  0  0
  9 11  2  0  0  0  0
 10 15  2  0  0  0  0
 11 12  1  0  0  0  0
 11 13  1  0  0  0  0
 12 16  2  0  0  0  0
 12 24  1  0  0  0  0
 13 20  1  0  0  0  0
 14 15  1  0  0  0  0
 14 17  1  0  0  0  0
 17 26  1  0  0  0  0
 17 27  2  0  0  0  0
 18 22  1  0  0  0  0
 19 23  1  0  0  0  0
 21 22  1  0  0  0  0
 21 23  1  0  0  0  0
 21 29  1  0  0  0  0
 25 32  1  0  0  0  0
 25 33  1  0  0  0  0
 25 34  1  0  0  0  0
 26 28  2  0  0  0  0
 27 30  1  0  0  0  0
 28 31  1  0  0  0  0
 30 31  2  0  0  0  0
 35 36  1  0  0  0  0
 36 37  2  0  0  0  0
M  END
> <PUBCHEM_COMPOUND_ID_TYPE>
0

> <PUBCHEM_TOTAL_CHARGE>
0

> <PUBCHEM_SUBSTANCE_ID>
310935739

> <PUBCHEM_SUBSTANCE_VERSION>
1

> <PUBCHEM_EXT_DATASOURCE_NAME>
4488

> <PUBCHEM_EXT_DATASOURCE_REGID>
SCHEMBL16113323

> <PUBCHEM_SUBSTANCE_COMMENT>
InChI=1S/C29H36BrN3O4/c1-7-15-36-29(6)11-13-32(14-12-29)25-23-17-22(20-9-8-10-21(30)16-20)31-33(23)18-19(2)24(25)26(27(34)35)37-28(3,4)5/h7-10,16-18,26H,1,11-15H2,2-6H3,(H,34,35)/t26-/m0/s1
InChIKey=ULHWBJXCIRQVCU-SANMLTNESA-N

> <PUBCHEM_SUBSTANCE_SYNONYM>
SCHEMBL16113323

> <PUBCHEM_XREF_EXT_ID>
SCHEMBL16113323

> <PUBCHEM_EXT_DATASOURCE_URL>
https://www.surechembl.org/

> <PUBCHEM_EXT_SUBSTANCE_URL>
https://www.surechembl.org/chemical/SCHEMBL16113323

> <PUBCHEM_CID_ASSOCIATIONS>
86300175  1

> <PUBCHEM_COORDINATE_TYPE>
1
3

> <PUBCHEM_BONDANNOTATIONS>
13  2  5

$$$$
