310949907
  -OEChem-07211613022D

 30 34  0     1  0  0  0  0  0999 V2000
    0.9384   -1.8011    0.0000 O   0  0  0  0  0  0  0  0  0  0  0  0
   -1.4353    0.9039    0.0000 N   0  0  0  0  0  0  0  0  0  0  0  0
   -1.4353    2.2565    0.0000 N   0  0  0  0  0  0  0  0  0  0  0  0
   -0.6763   -1.4422    0.0000 N   0  0  0  0  0  0  0  0  0  0  0  0
    1.1455    1.1662    0.0000 N   0  0  0  0  0  0  0  0  0  0  0  0
   -0.9661    1.5940    0.0000 C   0  0  0  0  0  0  0  0  0  0  0  0
   -2.2358    1.1800    0.0000 C   0  0  0  0  0  0  0  0  0  0  0  0
   -2.2358    1.9943    0.0000 C   0  0  0  0  0  0  0  0  0  0  0  0
   -1.2007    0.1449    0.0000 C   0  0  0  0  0  0  0  0  0  0  0  0
   -0.1242    1.5664    0.0000 C   0  0  3  0  0  0  0  0  0  0  0  0
   -2.9258    0.7660    0.0000 C   0  0  0  0  0  0  0  0  0  0  0  0
   -2.9672    2.3945    0.0000 C   0  0  0  0  0  0  0  0  0  0  0  0
   -1.7390   -0.5176    0.0000 C   0  0  0  0  0  0  0  0  0  0  0  0
   -0.3727   -0.0483    0.0000 C   0  0  0  0  0  0  0  0  0  0  0  0
    0.3727    0.9177    0.0000 C   0  0  0  0  0  0  0  0  0  0  0  0
    0.3450    2.2289    0.0000 C   0  0  0  0  0  0  0  0  0  0  0  0
   -3.6573    1.1662    0.0000 C   0  0  0  0  0  0  0  0  0  0  0  0
   -3.6573    1.9805    0.0000 C   0  0  0  0  0  0  0  0  0  0  0  0
   -1.4905   -1.2628    0.0000 C   0  0  0  0  0  0  0  0  0  0  0  0
   -0.1242   -0.8350    0.0000 C   0  0  0  0  0  0  0  0  0  0  0  0
    1.1455    1.9943    0.0000 C   0  0  0  0  0  0  0  0  0  0  0  0
   -0.4279   -2.2289    0.0000 C   0  0  0  0  0  0  0  0  0  0  0  0
    0.3865   -2.3945    0.0000 C   0  0  0  0  0  0  0  0  0  0  0  0
    2.3048   -1.3180    0.0000 C   0  0  0  0  0  0  0  0  0  0  0  0
    1.7528   -1.9529    0.0000 C   0  0  0  0  0  0  0  0  0  0  0  0
    2.0564   -0.5590    0.0000 C   0  0  0  0  0  0  0  0  0  0  0  0
    3.1191   -1.5112    0.0000 C   0  0  0  0  0  0  0  0  0  0  0  0
    2.6085    0.0483    0.0000 C   0  0  0  0  0  0  0  0  0  0  0  0
    3.6573   -0.9040    0.0000 C   0  0  0  0  0  0  0  0  0  0  0  0
    3.4089   -0.1173    0.0000 C   0  0  0  0  0  0  0  0  0  0  0  0
  1 23  1  0  0  0  0
  1 25  1  0  0  0  0
  2  6  1  0  0  0  0
  2  7  1  0  0  0  0
  2  9  1  0  0  0  0
  3  6  2  0  0  0  0
  3  8  1  0  0  0  0
  4 19  1  0  0  0  0
  4 20  1  0  0  0  0
  4 22  1  0  0  0  0
  5 15  1  0  0  0  0
  5 21  1  0  0  0  0
 10  6  1  6  0  0  0
  7  8  1  0  0  0  0
  7 11  2  0  0  0  0
  8 12  2  0  0  0  0
  9 13  1  0  0  0  0
  9 14  1  0  0  0  0
 10 15  1  0  0  0  0
 10 16  1  0  0  0  0
 11 17  1  0  0  0  0
 12 18  1  0  0  0  0
 13 19  1  0  0  0  0
 14 20  1  0  0  0  0
 16 21  1  0  0  0  0
 17 18  2  0  0  0  0
 22 23  1  0  0  0  0
 24 25  1  0  0  0  0
 24 26  2  0  0  0  0
 24 27  1  0  0  0  0
 26 28  1  0  0  0  0
 27 29  2  0  0  0  0
 28 30  2  0  0  0  0
 29 30  1  0  0  0  0
M  END
> <PUBCHEM_COMPOUND_ID_TYPE>
0

> <PUBCHEM_TOTAL_CHARGE>
0

> <PUBCHEM_SUBSTANCE_ID>
310949907

> <PUBCHEM_SUBSTANCE_VERSION>
1

> <PUBCHEM_EXT_DATASOURCE_NAME>
4488

> <PUBCHEM_EXT_DATASOURCE_REGID>
SCHEMBL16128128

> <PUBCHEM_SUBSTANCE_COMMENT>
InChI=1S/C25H32N4O/c1-2-6-20(7-3-1)19-30-17-16-28-14-11-22(12-15-28)29-24-9-5-4-8-23(24)27-25(29)21-10-13-26-18-21/h1-9,21-22,26H,10-19H2/t21-/m1/s1
InChIKey=NBGDTMOHGUYUDD-OAQYLSRUSA-N

> <PUBCHEM_SUBSTANCE_SYNONYM>
SCHEMBL16128128

> <PUBCHEM_XREF_EXT_ID>
SCHEMBL16128128

> <PUBCHEM_EXT_DATASOURCE_URL>
https://www.surechembl.org/

> <PUBCHEM_EXT_SUBSTANCE_URL>
https://www.surechembl.org/chemical/SCHEMBL16128128

> <PUBCHEM_CID_ASSOCIATIONS>
117615189  1

> <PUBCHEM_COORDINATE_TYPE>
1
3

> <PUBCHEM_BONDANNOTATIONS>
10  6  6

$$$$
