310931804
  -OEChem-07211613022D

 40 42  0     1  0  0  0  0  0999 V2000
    1.5304   -7.8482    0.0000 Cl  0  0  0  0  0  0  0  0  0  0  0  0
    6.5532   -5.8076    0.0000 S   0  0  0  0  0  0  0  0  0  0  0  0
    6.5532   -4.1203    0.0000 F   0  0  0  0  0  0  0  0  0  0  0  0
    3.6887   -5.7684    0.0000 F   0  0  0  0  0  0  0  0  0  0  0  0
    3.6887   -4.1203    0.0000 O   0  0  0  0  0  0  0  0  0  0  0  0
    6.1216   -6.5140    0.0000 O   0  0  0  0  0  0  0  0  0  0  0  0
    7.2595   -6.2393    0.0000 O   0  0  0  0  0  0  0  0  0  0  0  0
    0.8241   -1.6481    0.0000 O   0  0  0  0  0  0  0  0  0  0  0  0
    8.2013   -5.8469    0.0000 O   0  0  0  0  0  0  0  0  0  0  0  0
    2.2760   -1.6481    0.0000 O   0  0  0  0  0  0  0  0  0  0  0  0
    6.9849   -5.1013    0.0000 N   0  0  0  0  0  0  0  0  0  0  0  0
    1.5304   -2.8646    0.0000 N   0  0  0  0  0  0  0  0  0  0  0  0
    8.2406   -4.3950    0.0000 N   0  0  0  0  0  0  0  0  0  0  0  0
    5.8469   -5.3760    0.0000 C   0  0  0  0  0  0  0  0  0  0  0  0
    5.8469   -4.5520    0.0000 C   0  0  0  0  0  0  0  0  0  0  0  0
    4.4342   -4.5520    0.0000 C   0  0  0  0  0  0  0  0  0  0  0  0
    4.3950   -5.3760    0.0000 C   0  0  0  0  0  0  0  0  0  0  0  0
    5.1406   -5.7684    0.0000 C   0  0  0  0  0  0  0  0  0  0  0  0
    5.1406   -4.1203    0.0000 C   0  0  0  0  0  0  0  0  0  0  0  0
    2.2760   -4.1203    0.0000 C   0  0  3  0  0  0  0  0  0  0  0  0
    1.5304   -4.5127    0.0000 C   0  0  3  0  0  0  0  0  0  0  0  0
    1.5304   -5.3368    0.0000 C   0  0  0  0  0  0  0  0  0  0  0  0
    2.9823   -4.5127    0.0000 C   0  0  0  0  0  0  0  0  0  0  0  0
    2.2760   -3.2962    0.0000 C   0  0  0  0  0  0  0  0  0  0  0  0
    0.8241   -4.1203    0.0000 C   0  0  0  0  0  0  0  0  0  0  0  0
    7.8089   -5.1013    0.0000 C   0  0  0  0  0  0  0  0  0  0  0  0
    0.8241   -3.2962    0.0000 C   0  0  0  0  0  0  0  0  0  0  0  0
    1.5304   -2.0405    0.0000 C   0  0  0  0  0  0  0  0  0  0  0  0
    2.2760   -5.7684    0.0000 C   0  0  0  0  0  0  0  0  0  0  0  0
    0.8241   -5.7684    0.0000 C   0  0  0  0  0  0  0  0  0  0  0  0
    0.8241   -0.8241    0.0000 C   0  0  0  0  0  0  0  0  0  0  0  0
    2.2760   -6.5925    0.0000 C   0  0  0  0  0  0  0  0  0  0  0  0
    0.8241   -6.5925    0.0000 C   0  0  0  0  0  0  0  0  0  0  0  0
    1.5304   -7.0241    0.0000 C   0  0  0  0  0  0  0  0  0  0  0  0
    9.0646   -4.3950    0.0000 C   0  0  0  0  0  0  0  0  0  0  0  0
    1.6874   -0.8241    0.0000 C   0  0  0  0  0  0  0  0  0  0  0  0
    0.8241    0.0000    0.0000 C   0  0  0  0  0  0  0  0  0  0  0  0
    0.0000   -0.8241    0.0000 C   0  0  0  0  0  0  0  0  0  0  0  0
    9.4963   -3.6887    0.0000 C   0  0  0  0  0  0  0  0  0  0  0  0
    9.4571   -5.1406    0.0000 C   0  0  0  0  0  0  0  0  0  0  0  0
  1 34  1  0  0  0  0
  2  6  2  0  0  0  0
  2  7  2  0  0  0  0
  2 11  1  0  0  0  0
  2 14  1  0  0  0  0
  3 15  1  0  0  0  0
  4 17  1  0  0  0  0
  5 16  1  0  0  0  0
  5 23  1  0  0  0  0
  8 28  1  0  0  0  0
  8 31  1  0  0  0  0
  9 26  2  0  0  0  0
 10 28  2  0  0  0  0
 11 26  1  0  0  0  0
 12 24  1  0  0  0  0
 12 27  1  0  0  0  0
 12 28  1  0  0  0  0
 13 26  1  0  0  0  0
 13 35  1  0  0  0  0
 14 15  1  0  0  0  0
 14 18  2  0  0  0  0
 15 19  2  0  0  0  0
 16 17  2  0  0  0  0
 16 19  1  0  0  0  0
 17 18  1  0  0  0  0
 20 21  1  0  0  0  0
 20 23  1  6  0  0  0
 20 24  1  0  0  0  0
 21 22  1  0  0  0  0
 21 25  1  1  0  0  0
 22 29  2  0  0  0  0
 22 30  1  0  0  0  0
 25 27  1  0  0  0  0
 29 32  1  0  0  0  0
 30 33  2  0  0  0  0
 31 36  1  0  0  0  0
 31 37  1  0  0  0  0
 31 38  1  0  0  0  0
 32 34  2  0  0  0  0
 33 34  1  0  0  0  0
 35 39  1  0  0  0  0
 35 40  1  0  0  0  0
M  END
> <PUBCHEM_COMPOUND_ID_TYPE>
0

> <PUBCHEM_TOTAL_CHARGE>
0

> <PUBCHEM_SUBSTANCE_ID>
310931804

> <PUBCHEM_SUBSTANCE_VERSION>
1

> <PUBCHEM_EXT_DATASOURCE_NAME>
4488

> <PUBCHEM_EXT_DATASOURCE_REGID>
SCHEMBL16109137

> <PUBCHEM_SUBSTANCE_COMMENT>
InChI=1S/C27H34ClF2N3O6S/c1-16(2)31-25(34)32-40(36,37)24-13-21(29)23(12-22(24)30)38-15-18-14-33(26(35)39-27(3,4)5)11-10-20(18)17-6-8-19(28)9-7-17/h6-9,12-13,16,18,20H,10-11,14-15H2,1-5H3,(H2,31,32,34)/t18-,20-/m1/s1
InChIKey=YOOAAHFEVIMMBG-UYAOXDASSA-N

> <PUBCHEM_SUBSTANCE_SYNONYM>
SCHEMBL16109137

> <PUBCHEM_XREF_EXT_ID>
SCHEMBL16109137

> <PUBCHEM_EXT_DATASOURCE_URL>
https://www.surechembl.org/

> <PUBCHEM_EXT_SUBSTANCE_URL>
https://www.surechembl.org/chemical/SCHEMBL16109137

> <PUBCHEM_CID_ASSOCIATIONS>
117600481  1

> <PUBCHEM_COORDINATE_TYPE>
1
3

> <PUBCHEM_BONDANNOTATIONS>
20  23  6
21  25  5

$$$$
