310934083
  -OEChem-07211613022D

 30 34  0     0  0  0  0  0  0999 V2000
   -6.5615   -5.3818    0.0000 Cl  0  0  0  0  0  0  0  0  0  0  0  0
   -2.8490   -3.2384    0.0000 S   0  0  0  0  0  0  0  0  0  0  0  0
   -2.0240   -4.6673    0.0000 O   0  0  0  0  0  0  0  0  0  0  0  0
    1.3889   -2.4134    0.0000 O   0  0  0  0  0  0  0  0  0  0  0  0
   -3.2615   -5.3818    0.0000 N   0  0  0  0  0  0  0  0  0  0  0  0
   -1.5391   -2.5710    0.0000 N   0  0  0  0  0  0  0  0  0  0  0  0
   -1.5391   -3.9058    0.0000 N   0  0  0  0  0  0  0  0  0  0  0  0
   -4.0865   -3.9529    0.0000 C   0  0  0  0  0  0  0  0  0  0  0  0
   -3.2615   -3.9529    0.0000 C   0  0  0  0  0  0  0  0  0  0  0  0
   -4.4990   -4.6673    0.0000 C   0  0  0  0  0  0  0  0  0  0  0  0
   -4.0865   -5.3818    0.0000 C   0  0  0  0  0  0  0  0  0  0  0  0
   -2.8490   -4.6673    0.0000 C   0  0  0  0  0  0  0  0  0  0  0  0
   -4.4990   -3.2384    0.0000 C   0  0  0  0  0  0  0  0  0  0  0  0
   -2.0240   -3.2384    0.0000 C   0  0  0  0  0  0  0  0  0  0  0  0
   -0.7545   -2.8259    0.0000 C   0  0  0  0  0  0  0  0  0  0  0  0
   -0.7545   -3.6509    0.0000 C   0  0  0  0  0  0  0  0  0  0  0  0
   -5.3240   -4.6673    0.0000 C   0  0  0  0  0  0  0  0  0  0  0  0
   -4.4990   -6.0963    0.0000 C   0  0  0  0  0  0  0  0  0  0  0  0
   -5.7365   -5.3818    0.0000 C   0  0  0  0  0  0  0  0  0  0  0  0
   -0.0400   -2.4134    0.0000 C   0  0  0  0  0  0  0  0  0  0  0  0
   -5.3240   -3.2384    0.0000 C   0  0  0  0  0  0  0  0  0  0  0  0
   -4.0865   -2.5239    0.0000 C   0  0  0  0  0  0  0  0  0  0  0  0
   -5.3240   -6.0963    0.0000 C   0  0  0  0  0  0  0  0  0  0  0  0
   -0.0400   -4.0634    0.0000 C   0  0  0  0  0  0  0  0  0  0  0  0
    0.6745   -2.8259    0.0000 C   0  0  0  0  0  0  0  0  0  0  0  0
    0.6745   -3.6509    0.0000 C   0  0  0  0  0  0  0  0  0  0  0  0
   -5.7365   -2.5239    0.0000 C   0  0  0  0  0  0  0  0  0  0  0  0
   -4.4990   -1.8095    0.0000 C   0  0  0  0  0  0  0  0  0  0  0  0
   -5.3240   -1.8095    0.0000 C   0  0  0  0  0  0  0  0  0  0  0  0
    2.1034   -2.8259    0.0000 C   0  0  0  0  0  0  0  0  0  0  0  0
  1 19  1  0  0  0  0
  2  9  1  0  0  0  0
  2 14  1  0  0  0  0
  3 12  2  0  0  0  0
  4 25  1  0  0  0  0
  4 30  1  0  0  0  0
  5 11  1  0  0  0  0
  5 12  1  0  0  0  0
  6 14  2  0  0  0  0
  6 15  1  0  0  0  0
  7 14  1  0  0  0  0
  7 16  1  0  0  0  0
  8  9  2  0  0  0  0
  8 10  1  0  0  0  0
  8 13  1  0  0  0  0
  9 12  1  0  0  0  0
 10 11  2  0  0  0  0
 10 17  1  0  0  0  0
 11 18  1  0  0  0  0
 13 21  2  0  0  0  0
 13 22  1  0  0  0  0
 15 16  1  0  0  0  0
 15 20  2  0  0  0  0
 16 24  2  0  0  0  0
 17 19  2  0  0  0  0
 18 23  2  0  0  0  0
 19 23  1  0  0  0  0
 20 25  1  0  0  0  0
 21 27  1  0  0  0  0
 22 28  2  0  0  0  0
 24 26  1  0  0  0  0
 25 26  2  0  0  0  0
 27 29  2  0  0  0  0
 28 29  1  0  0  0  0
M  END
> <PUBCHEM_COMPOUND_ID_TYPE>
0

> <PUBCHEM_TOTAL_CHARGE>
0

> <PUBCHEM_SUBSTANCE_ID>
310934083

> <PUBCHEM_SUBSTANCE_VERSION>
1

> <PUBCHEM_EXT_DATASOURCE_NAME>
4488

> <PUBCHEM_EXT_DATASOURCE_REGID>
SCHEMBL16111529

> <PUBCHEM_SUBSTANCE_COMMENT>
InChI=1S/C23H16ClN3O2S/c1-29-15-8-10-18-19(12-15)27-23(26-18)30-21-20(13-5-3-2-4-6-13)16-11-14(24)7-9-17(16)25-22(21)28/h2-12H,1H3,(H,25,28)(H,26,27)
InChIKey=QSOHSTJPIHRANR-UHFFFAOYSA-N

> <PUBCHEM_SUBSTANCE_SYNONYM>
SCHEMBL16111529

> <PUBCHEM_XREF_EXT_ID>
SCHEMBL16111529

> <PUBCHEM_EXT_DATASOURCE_URL>
https://www.surechembl.org/

> <PUBCHEM_EXT_SUBSTANCE_URL>
https://www.surechembl.org/chemical/SCHEMBL16111529

> <PUBCHEM_CID_ASSOCIATIONS>
1555962  1

> <PUBCHEM_COORDINATE_TYPE>
1
3

$$$$
