310945060
  -OEChem-07211613022D

 33 36  0     0  0  0  0  0  0999 V2000
    3.9782   -2.2707    0.0000 O   0  0  0  0  0  0  0  0  0  0  0  0
    4.7112   -1.0191    0.0000 O   0  0  0  0  0  0  0  0  0  0  0  0
   -3.2630   -1.4303    0.0000 N   0  0  0  0  0  0  0  0  0  0  0  0
   -0.3844    0.2146    0.0000 C   0  0  0  0  0  0  0  0  0  0  0  0
   -1.0817   -0.1967    0.0000 C   0  0  0  0  0  0  0  0  0  0  0  0
   -0.3666    1.0549    0.0000 C   0  0  0  0  0  0  0  0  0  0  0  0
    0.3666   -0.1967    0.0000 C   0  0  0  0  0  0  0  0  0  0  0  0
    0.3666    1.4661    0.0000 C   0  0  0  0  0  0  0  0  0  0  0  0
   -1.8326    0.1967    0.0000 C   0  0  0  0  0  0  0  0  0  0  0  0
   -1.0996   -1.0370    0.0000 C   0  0  0  0  0  0  0  0  0  0  0  0
   -2.5478   -1.0370    0.0000 C   0  0  0  0  0  0  0  0  0  0  0  0
    0.3844   -1.0370    0.0000 C   0  0  0  0  0  0  0  0  0  0  0  0
    1.0639    0.1967    0.0000 C   0  0  0  0  0  0  0  0  0  0  0  0
   -2.5120   -0.1967    0.0000 C   0  0  0  0  0  0  0  0  0  0  0  0
   -1.8147   -1.4482    0.0000 C   0  0  0  0  0  0  0  0  0  0  0  0
   -1.0817    1.4482    0.0000 C   0  0  0  0  0  0  0  0  0  0  0  0
    1.8147   -1.0370    0.0000 C   0  0  0  0  0  0  0  0  0  0  0  0
    1.0817   -1.4482    0.0000 C   0  0  0  0  0  0  0  0  0  0  0  0
    1.7969   -0.2146    0.0000 C   0  0  0  0  0  0  0  0  0  0  0  0
    1.0817    1.0549    0.0000 C   0  0  0  0  0  0  0  0  0  0  0  0
    0.3844    2.2885    0.0000 C   0  0  0  0  0  0  0  0  0  0  0  0
   -4.0139   -1.0549    0.0000 C   0  0  0  0  0  0  0  0  0  0  0  0
   -3.2809   -2.3064    0.0000 C   0  0  0  0  0  0  0  0  0  0  0  0
    1.7969    1.4661    0.0000 C   0  0  0  0  0  0  0  0  0  0  0  0
    1.0639    2.6998    0.0000 C   0  0  0  0  0  0  0  0  0  0  0  0
    2.5657   -1.4482    0.0000 C   0  0  0  0  0  0  0  0  0  0  0  0
    1.7969    2.2885    0.0000 C   0  0  0  0  0  0  0  0  0  0  0  0
   -1.0996    2.3064    0.0000 C   0  0  0  0  0  0  0  0  0  0  0  0
   -4.6933   -1.4482    0.0000 C   0  0  0  0  0  0  0  0  0  0  0  0
   -3.9603   -2.6998    0.0000 C   0  0  0  0  0  0  0  0  0  0  0  0
   -4.7112   -2.2885    0.0000 C   0  0  0  0  0  0  0  0  0  0  0  0
    3.2451   -1.0549    0.0000 C   0  0  0  0  0  0  0  0  0  0  0  0
    3.9782   -1.4303    0.0000 C   0  0  0  0  0  0  0  0  0  0  0  0
  1 33  2  0  0  0  0
  2 33  1  0  0  0  0
  3 11  1  0  0  0  0
  3 22  1  0  0  0  0
  3 23  1  0  0  0  0
  4  5  1  0  0  0  0
  4  6  2  0  0  0  0
  4  7  1  0  0  0  0
  5  9  2  0  0  0  0
  5 10  1  0  0  0  0
  6  8  1  0  0  0  0
  6 16  1  0  0  0  0
  7 12  2  0  0  0  0
  7 13  1  0  0  0  0
  8 20  2  0  0  0  0
  8 21  1  0  0  0  0
  9 14  1  0  0  0  0
 10 15  2  0  0  0  0
 11 14  2  0  0  0  0
 11 15  1  0  0  0  0
 12 18  1  0  0  0  0
 13 19  2  0  0  0  0
 16 28  1  0  0  0  0
 17 18  2  0  0  0  0
 17 19  1  0  0  0  0
 17 26  1  0  0  0  0
 20 24  1  0  0  0  0
 21 25  2  0  0  0  0
 22 29  1  0  0  0  0
 23 30  1  0  0  0  0
 24 27  2  0  0  0  0
 25 27  1  0  0  0  0
 26 32  2  0  0  0  0
 29 31  1  0  0  0  0
 30 31  1  0  0  0  0
 32 33  1  0  0  0  0
M  END
> <PUBCHEM_COMPOUND_ID_TYPE>
0

> <PUBCHEM_TOTAL_CHARGE>
0

> <PUBCHEM_SUBSTANCE_ID>
310945060

> <PUBCHEM_SUBSTANCE_VERSION>
1

> <PUBCHEM_EXT_DATASOURCE_NAME>
4488

> <PUBCHEM_EXT_DATASOURCE_REGID>
SCHEMBL16123149

> <PUBCHEM_SUBSTANCE_COMMENT>
InChI=1S/C30H31NO2/c1-2-28(24-9-5-3-6-10-24)30(25-14-11-23(12-15-25)13-20-29(32)33)26-16-18-27(19-17-26)31-21-7-4-8-22-31/h3,5-6,9-20H,2,4,7-8,21-22H2,1H3,(H,32,33)/b20-13+,30-28+
InChIKey=GHVVRDBAHDZAEU-WQRSJGRTSA-N

> <PUBCHEM_SUBSTANCE_SYNONYM>
SCHEMBL16123149

> <PUBCHEM_XREF_EXT_ID>
SCHEMBL16123149

> <PUBCHEM_EXT_DATASOURCE_URL>
https://www.surechembl.org/

> <PUBCHEM_EXT_SUBSTANCE_URL>
https://www.surechembl.org/chemical/SCHEMBL16123149

> <PUBCHEM_CID_ASSOCIATIONS>
86271285  1

> <PUBCHEM_COORDINATE_TYPE>
1
3

$$$$
