310944049
  -OEChem-07211613022D

 15 16  0     0  0  0  0  0  0999 V2000
    1.7368   -0.5272    0.0000 O   0  0  0  0  0  0  0  0  0  0  0  0
    2.4470    0.7157    0.0000 O   0  0  0  0  0  0  0  0  0  0  0  0
   -1.1375   -0.5161    0.0000 N   0  0  0  0  0  0  0  0  0  0  0  0
   -1.8920   -0.1831    0.0000 N   0  0  0  0  0  0  0  0  0  0  0  0
   -2.4470   -0.7935    0.0000 N   0  0  0  0  0  0  0  0  0  0  0  0
   -2.0363   -1.5149    0.0000 N   0  0  0  0  0  0  0  0  0  0  0  0
   -0.4162   -0.1055    0.0000 C   0  0  0  0  0  0  0  0  0  0  0  0
    1.0043   -0.0944    0.0000 C   0  0  0  0  0  0  0  0  0  0  0  0
    0.3052   -0.5161    0.0000 C   0  0  0  0  0  0  0  0  0  0  0  0
    1.0154    0.7157    0.0000 C   0  0  0  0  0  0  0  0  0  0  0  0
   -0.4051    0.7157    0.0000 C   0  0  0  0  0  0  0  0  0  0  0  0
    0.2830    1.1153    0.0000 C   0  0  0  0  0  0  0  0  0  0  0  0
   -1.2263   -1.3372    0.0000 C   0  0  0  0  0  0  0  0  0  0  0  0
    2.4470    1.5149    0.0000 C   0  0  0  0  0  0  0  0  0  0  0  0
    1.7368   -1.3928    0.0000 C   0  0  0  0  0  0  0  0  0  0  0  0
  1  8  1  0  0  0  0
  1 15  1  0  0  0  0
  2 14  1  0  0  0  0
  3  4  1  0  0  0  0
  3  7  1  0  0  0  0
  3 13  1  0  0  0  0
  4  5  2  0  0  0  0
  5  6  1  0  0  0  0
  6 13  2  0  0  0  0
  7  9  1  0  0  0  0
  7 11  2  0  0  0  0
  8  9  2  0  0  0  0
  8 10  1  0  0  0  0
 10 12  2  0  0  0  0
 10 14  1  0  0  0  0
 11 12  1  0  0  0  0
M  END
> <PUBCHEM_COMPOUND_ID_TYPE>
0

> <PUBCHEM_TOTAL_CHARGE>
0

> <PUBCHEM_SUBSTANCE_ID>
310944049

> <PUBCHEM_SUBSTANCE_VERSION>
1

> <PUBCHEM_EXT_DATASOURCE_NAME>
4488

> <PUBCHEM_EXT_DATASOURCE_REGID>
SCHEMBL16122122

> <PUBCHEM_SUBSTANCE_COMMENT>
InChI=1S/C9H10N4O2/c1-15-9-4-8(3-2-7(9)5-14)13-6-10-11-12-13/h2-4,6,14H,5H2,1H3
InChIKey=BZYTTZJHZVDGRE-UHFFFAOYSA-N

> <PUBCHEM_SUBSTANCE_SYNONYM>
SCHEMBL16122122

> <PUBCHEM_XREF_EXT_ID>
SCHEMBL16122122

> <PUBCHEM_EXT_DATASOURCE_URL>
https://www.surechembl.org/

> <PUBCHEM_EXT_SUBSTANCE_URL>
https://www.surechembl.org/chemical/SCHEMBL16122122

> <PUBCHEM_CID_ASSOCIATIONS>
117610345  1

> <PUBCHEM_COORDINATE_TYPE>
1
3

$$$$
