310940624
  -OEChem-07211613022D

 34 38  0     0  0  0  0  0  0999 V2000
    2.3234   -0.7493    0.0000 O   0  0  0  0  0  0  0  0  0  0  0  0
   -1.8698   -0.8730    0.0000 O   0  0  0  0  0  0  0  0  0  0  0  0
    2.5434    0.6668    0.0000 O   0  0  0  0  0  0  0  0  0  0  0  0
   -3.1483   -2.8115    0.0000 O   0  0  0  0  0  0  0  0  0  0  0  0
    3.1483   -2.1241    0.0000 O   0  0  0  0  0  0  0  0  0  0  0  0
    1.1961   -0.0619    0.0000 N   0  0  0  0  0  0  0  0  0  0  0  0
    1.0311   -2.5503    0.0000 N   0  0  0  0  0  0  0  0  0  0  0  0
   -2.7359   -3.5402    0.0000 N   0  0  0  0  0  0  0  0  0  0  0  0
   -0.7287    3.8976    0.0000 N   0  0  0  0  0  0  0  0  0  0  0  0
    0.9898   -0.8043    0.0000 C   0  0  0  0  0  0  0  0  0  0  0  0
    0.2887   -1.2305    0.0000 C   0  0  0  0  0  0  0  0  0  0  0  0
    1.7185   -1.2305    0.0000 C   0  0  0  0  0  0  0  0  0  0  0  0
    0.2749   -2.0554    0.0000 C   0  0  0  0  0  0  0  0  0  0  0  0
    1.7048   -2.0554    0.0000 C   0  0  0  0  0  0  0  0  0  0  0  0
   -1.1686   -2.0554    0.0000 C   0  0  0  0  0  0  0  0  0  0  0  0
    1.9660    0.0619    0.0000 C   0  0  0  0  0  0  0  0  0  0  0  0
   -0.4537   -0.8180    0.0000 C   0  0  0  0  0  0  0  0  0  0  0  0
   -1.1549   -1.2305    0.0000 C   0  0  0  0  0  0  0  0  0  0  0  0
   -0.4400   -2.4678    0.0000 C   0  0  0  0  0  0  0  0  0  0  0  0
   -1.8835   -2.4815    0.0000 C   0  0  0  0  0  0  0  0  0  0  0  0
    0.5912    0.5706    0.0000 C   0  0  0  0  0  0  0  0  0  0  0  0
   -2.6397   -2.1104    0.0000 C   0  0  0  0  0  0  0  0  0  0  0  0
   -1.9660   -3.3064    0.0000 C   0  0  0  0  0  0  0  0  0  0  0  0
    2.4334   -2.4678    0.0000 C   0  0  0  0  0  0  0  0  0  0  0  0
    0.7974    1.4092    0.0000 C   0  0  0  0  0  0  0  0  0  0  0  0
    0.2199    1.9592    0.0000 C   0  0  0  0  0  0  0  0  0  0  0  0
    1.5948    1.6154    0.0000 C   0  0  0  0  0  0  0  0  0  0  0  0
   -2.7909   -1.3130    0.0000 C   0  0  0  0  0  0  0  0  0  0  0  0
   -1.3611   -3.8976    0.0000 C   0  0  0  0  0  0  0  0  0  0  0  0
    0.4262    2.7840    0.0000 C   0  0  0  0  0  0  0  0  0  0  0  0
   -1.8835    0.0344    0.0000 C   0  0  0  0  0  0  0  0  0  0  0  0
    1.8010    2.4128    0.0000 C   0  0  0  0  0  0  0  0  0  0  0  0
    1.2236    2.9765    0.0000 C   0  0  0  0  0  0  0  0  0  0  0  0
   -0.1512    3.3614    0.0000 C   0  0  0  0  0  0  0  0  0  0  0  0
  1 12  1  0  0  0  0
  1 16  1  0  0  0  0
  2 18  1  0  0  0  0
  2 31  1  0  0  0  0
  3 16  2  0  0  0  0
  4  8  1  0  0  0  0
  4 22  1  0  0  0  0
  5 24  1  0  0  0  0
  6 10  1  0  0  0  0
  6 16  1  0  0  0  0
  6 21  1  0  0  0  0
  7 13  2  0  0  0  0
  7 14  1  0  0  0  0
  8 23  2  0  0  0  0
  9 34  3  0  0  0  0
 10 11  2  0  0  0  0
 10 12  1  0  0  0  0
 11 13  1  0  0  0  0
 11 17  1  0  0  0  0
 12 14  2  0  0  0  0
 13 19  1  0  0  0  0
 14 24  1  0  0  0  0
 15 18  1  0  0  0  0
 15 19  2  0  0  0  0
 15 20  1  0  0  0  0
 17 18  2  0  0  0  0
 20 22  2  0  0  0  0
 20 23  1  0  0  0  0
 21 25  1  0  0  0  0
 22 28  1  0  0  0  0
 23 29  1  0  0  0  0
 25 26  2  0  0  0  0
 25 27  1  0  0  0  0
 26 30  1  0  0  0  0
 27 32  2  0  0  0  0
 30 33  2  0  0  0  0
 30 34  1  0  0  0  0
 32 33  1  0  0  0  0
M  END
> <PUBCHEM_COMPOUND_ID_TYPE>
0

> <PUBCHEM_TOTAL_CHARGE>
0

> <PUBCHEM_SUBSTANCE_ID>
310940624

> <PUBCHEM_SUBSTANCE_VERSION>
1

> <PUBCHEM_EXT_DATASOURCE_NAME>
4488

> <PUBCHEM_EXT_DATASOURCE_REGID>
SCHEMBL16118579

> <PUBCHEM_SUBSTANCE_COMMENT>
InChI=1S/C25H20N4O5/c1-13-22(14(2)34-28-13)18-8-19-17(9-21(18)32-3)23-24(20(12-30)27-19)33-25(31)29(23)11-16-6-4-5-15(7-16)10-26/h4-9,30H,11-12H2,1-3H3
InChIKey=ZKFPYHVTCOCTND-UHFFFAOYSA-N

> <PUBCHEM_SUBSTANCE_SYNONYM>
SCHEMBL16118579

> <PUBCHEM_XREF_EXT_ID>
SCHEMBL16118579

> <PUBCHEM_EXT_DATASOURCE_URL>
https://www.surechembl.org/

> <PUBCHEM_EXT_SUBSTANCE_URL>
https://www.surechembl.org/chemical/SCHEMBL16118579

> <PUBCHEM_CID_ASSOCIATIONS>
117607606  1

> <PUBCHEM_COORDINATE_TYPE>
1
3

$$$$
