310930147
  -OEChem-07211613022D

 23 23  0     0  0  0  0  0  0999 V2000
    2.7770   -5.8559    0.0000 O   0  0  0  0  0  0  0  0  0  0  0  0
    4.0145   -5.1414    0.0000 O   0  0  0  0  0  0  0  0  0  0  0  0
    5.2520   -5.8559    0.0000 O   0  5  0  0  0  0  0  0  0  0  0  0
    6.4895   -5.1414    0.0000 O   0  0  0  0  0  0  0  0  0  0  0  0
    1.9520   -2.9980    0.0000 O   0  0  0  0  0  0  0  0  0  0  0  0
    2.7770   -4.4270    0.0000 N   0  0  0  0  0  0  0  0  0  0  0  0
    1.9520   -4.4270    0.0000 N   0  0  0  0  0  0  0  0  0  0  0  0
    5.6645   -5.1414    0.0000 N   0  3  0  0  0  0  0  0  0  0  0  0
    4.0145   -3.7125    0.0000 C   0  0  0  0  0  0  0  0  0  0  0  0
    3.1895   -5.1414    0.0000 C   0  0  0  0  0  0  0  0  0  0  0  0
    3.1895   -3.7125    0.0000 C   0  0  0  0  0  0  0  0  0  0  0  0
    5.2520   -4.4270    0.0000 C   0  0  0  0  0  0  0  0  0  0  0  0
    4.4270   -4.4270    0.0000 C   0  0  0  0  0  0  0  0  0  0  0  0
    3.1895   -6.5704    0.0000 C   0  0  0  0  0  0  0  0  0  0  0  0
    4.4270   -2.9980    0.0000 C   0  0  0  0  0  0  0  0  0  0  0  0
    5.6645   -3.7125    0.0000 C   0  0  0  0  0  0  0  0  0  0  0  0
    5.2520   -2.9980    0.0000 C   0  0  0  0  0  0  0  0  0  0  0  0
    1.5395   -3.7125    0.0000 C   0  0  0  0  0  0  0  0  0  0  0  0
    3.6020   -7.2849    0.0000 C   0  0  0  0  0  0  0  0  0  0  0  0
    3.9039   -6.1579    0.0000 C   0  0  0  0  0  0  0  0  0  0  0  0
    2.4750   -6.9829    0.0000 C   0  0  0  0  0  0  0  0  0  0  0  0
    0.7145   -3.7125    0.0000 C   0  0  0  0  0  0  0  0  0  0  0  0
    0.3020   -4.4270    0.0000 C   0  0  0  0  0  0  0  0  0  0  0  0
  1 10  1  0  0  0  0
  1 14  1  0  0  0  0
  2 10  2  0  0  0  0
  3  8  1  0  0  0  0
  4  8  2  0  0  0  0
  5 18  2  0  0  0  0
  6  7  1  0  0  0  0
  6 10  1  0  0  0  0
  6 11  1  0  0  0  0
  7 18  1  0  0  0  0
  8 12  1  0  0  0  0
  9 11  1  0  0  0  0
  9 13  1  0  0  0  0
  9 15  2  0  0  0  0
 12 13  2  0  0  0  0
 12 16  1  0  0  0  0
 14 19  1  0  0  0  0
 14 20  1  0  0  0  0
 14 21  1  0  0  0  0
 15 17  1  0  0  0  0
 16 17  2  0  0  0  0
 18 22  1  0  0  0  0
 22 23  2  0  0  0  0
M  CHG  2   3  -1   8   1
M  END
> <PUBCHEM_COMPOUND_ID_TYPE>
0

> <PUBCHEM_TOTAL_CHARGE>
0

> <PUBCHEM_SUBSTANCE_ID>
310930147

> <PUBCHEM_SUBSTANCE_VERSION>
1

> <PUBCHEM_EXT_DATASOURCE_NAME>
4488

> <PUBCHEM_EXT_DATASOURCE_REGID>
SCHEMBL16107405

> <PUBCHEM_SUBSTANCE_COMMENT>
InChI=1S/C15H19N3O5/c1-5-13(19)16-17(14(20)23-15(2,3)4)10-11-7-6-8-12(9-11)18(21)22/h5-9H,1,10H2,2-4H3,(H,16,19)
InChIKey=OYTDJRCFRWFCFM-UHFFFAOYSA-N

> <PUBCHEM_SUBSTANCE_SYNONYM>
SCHEMBL16107405

> <PUBCHEM_XREF_EXT_ID>
SCHEMBL16107405

> <PUBCHEM_EXT_DATASOURCE_URL>
https://www.surechembl.org/

> <PUBCHEM_EXT_SUBSTANCE_URL>
https://www.surechembl.org/chemical/SCHEMBL16107405

> <PUBCHEM_CID_ASSOCIATIONS>
117599373  1

> <PUBCHEM_COORDINATE_TYPE>
1
3

$$$$
