310933870
  -OEChem-07211613022D

 33 35  0     0  0  0  0  0  0999 V2000
    5.7749   -5.7749    0.0000 O   0  0  0  0  0  0  0  0  0  0  0  0
    4.2986   -5.7749    0.0000 O   0  0  0  0  0  0  0  0  0  0  0  0
    4.3421   -1.6500    0.0000 O   0  0  0  0  0  0  0  0  0  0  0  0
    5.7749   -1.6500    0.0000 O   0  0  0  0  0  0  0  0  0  0  0  0
    2.9092   -4.9499    0.0000 O   0  0  0  0  0  0  0  0  0  0  0  0
    5.0368   -2.9092    0.0000 N   0  0  0  0  0  0  0  0  0  0  0  0
    3.6039   -6.2092    0.0000 N   0  0  0  0  0  0  0  0  0  0  0  0
    5.0368   -4.5592    0.0000 C   0  0  0  0  0  0  0  0  0  0  0  0
    5.0368   -5.3842    0.0000 C   0  0  0  0  0  0  0  0  0  0  0  0
    5.7749   -4.1249    0.0000 C   0  0  0  0  0  0  0  0  0  0  0  0
    4.3421   -4.1249    0.0000 C   0  0  0  0  0  0  0  0  0  0  0  0
    4.2986   -4.9499    0.0000 C   0  0  0  0  0  0  0  0  0  0  0  0
    5.7749   -3.3000    0.0000 C   0  0  0  0  0  0  0  0  0  0  0  0
    4.3421   -3.3000    0.0000 C   0  0  0  0  0  0  0  0  0  0  0  0
    4.4723   -5.9486    0.0000 C   0  0  0  0  0  0  0  0  0  0  0  0
    5.0368   -2.0842    0.0000 C   0  0  0  0  0  0  0  0  0  0  0  0
    2.9092   -5.7749    0.0000 C   0  0  0  0  0  0  0  0  0  0  0  0
    2.1710   -7.0342    0.0000 C   0  0  0  0  0  0  0  0  0  0  0  0
    2.1710   -6.1657    0.0000 C   0  0  0  0  0  0  0  0  0  0  0  0
    3.6039   -7.0342    0.0000 C   0  0  0  0  0  0  0  0  0  0  0  0
    1.4329   -7.4249    0.0000 C   0  0  0  0  0  0  0  0  0  0  0  0
    2.8658   -7.4249    0.0000 C   0  0  0  0  0  0  0  0  0  0  0  0
    4.3421   -0.8250    0.0000 C   0  0  0  0  0  0  0  0  0  0  0  0
    5.7749   -6.5999    0.0000 C   0  0  0  0  0  0  0  0  0  0  0  0
    1.4329   -8.2933    0.0000 C   0  0  0  0  0  0  0  0  0  0  0  0
    0.7382   -7.0342    0.0000 C   0  0  0  0  0  0  0  0  0  0  0  0
    0.7382   -8.6842    0.0000 C   0  0  0  0  0  0  0  0  0  0  0  0
    0.0000   -7.4249    0.0000 C   0  0  0  0  0  0  0  0  0  0  0  0
    5.1671   -0.8250    0.0000 C   0  0  0  0  0  0  0  0  0  0  0  0
    4.3421    0.0000    0.0000 C   0  0  0  0  0  0  0  0  0  0  0  0
    3.5171   -0.8250    0.0000 C   0  0  0  0  0  0  0  0  0  0  0  0
    0.0000   -8.2499    0.0000 C   0  0  0  0  0  0  0  0  0  0  0  0
    6.4697   -7.0342    0.0000 C   0  0  0  0  0  0  0  0  0  0  0  0
  1  9  1  0  0  0  0
  1 24  1  0  0  0  0
  2  9  2  0  0  0  0
  3 16  1  0  0  0  0
  3 23  1  0  0  0  0
  4 16  2  0  0  0  0
  5 17  2  0  0  0  0
  6 13  1  0  0  0  0
  6 14  1  0  0  0  0
  6 16  1  0  0  0  0
  7 15  1  0  0  0  0
  7 17  1  0  0  0  0
  7 20  1  0  0  0  0
  8  9  1  0  0  0  0
  8 10  1  0  0  0  0
  8 11  1  0  0  0  0
  8 12  1  0  0  0  0
 10 13  1  0  0  0  0
 11 14  1  0  0  0  0
 12 15  1  0  0  0  0
 17 19  1  0  0  0  0
 18 19  2  0  0  0  0
 18 21  1  0  0  0  0
 18 22  1  0  0  0  0
 20 22  2  0  0  0  0
 21 25  2  0  0  0  0
 21 26  1  0  0  0  0
 23 29  1  0  0  0  0
 23 30  1  0  0  0  0
 23 31  1  0  0  0  0
 24 33  1  0  0  0  0
 25 27  1  0  0  0  0
 26 28  2  0  0  0  0
 27 32  2  0  0  0  0
 28 32  1  0  0  0  0
M  END
> <PUBCHEM_COMPOUND_ID_TYPE>
0

> <PUBCHEM_TOTAL_CHARGE>
0

> <PUBCHEM_SUBSTANCE_ID>
310933870

> <PUBCHEM_SUBSTANCE_VERSION>
1

> <PUBCHEM_EXT_DATASOURCE_NAME>
4488

> <PUBCHEM_EXT_DATASOURCE_REGID>
SCHEMBL16111309

> <PUBCHEM_SUBSTANCE_COMMENT>
InChI=1S/C26H34N2O5/c1-5-32-23(30)26(13-17-28(18-14-26)24(31)33-25(2,3)4)12-16-27-15-11-21(19-22(27)29)20-9-7-6-8-10-20/h6-11,15,19H,5,12-14,16-18H2,1-4H3
InChIKey=LMXRHUMGZBFYCD-UHFFFAOYSA-N

> <PUBCHEM_SUBSTANCE_SYNONYM>
SCHEMBL16111309

> <PUBCHEM_XREF_EXT_ID>
SCHEMBL16111309

> <PUBCHEM_EXT_DATASOURCE_URL>
https://www.surechembl.org/

> <PUBCHEM_EXT_SUBSTANCE_URL>
https://www.surechembl.org/chemical/SCHEMBL16111309

> <PUBCHEM_CID_ASSOCIATIONS>
117602207  1

> <PUBCHEM_COORDINATE_TYPE>
1
3

$$$$
