310933914
  -OEChem-07211613022D

 24 27  0     0  0  0  0  0  0999 V2000
    0.7846    0.6674    0.0000 S   0  0  0  0  0  0  0  0  0  0  0  0
   -2.4324    3.5008    0.0000 O   0  0  0  0  0  0  0  0  0  0  0  0
   -1.2763    4.3407    0.0000 O   0  0  0  0  0  0  0  0  0  0  0  0
   -0.0470    2.1349    0.0000 N   0  0  0  0  0  0  0  0  0  0  0  0
   -0.3020    2.9196    0.0000 N   0  0  0  0  0  0  0  0  0  0  0  0
   -0.7144    1.6500    0.0000 C   0  0  0  0  0  0  0  0  0  0  0  0
   -1.3819    2.1349    0.0000 C   0  0  0  0  0  0  0  0  0  0  0  0
   -0.7144    0.8250    0.0000 C   0  0  0  0  0  0  0  0  0  0  0  0
   -1.1270    2.9196    0.0000 C   0  0  0  0  0  0  0  0  0  0  0  0
    0.0000    0.4125    0.0000 C   0  0  0  0  0  0  0  0  0  0  0  0
   -2.1665    1.8800    0.0000 C   0  0  0  0  0  0  0  0  0  0  0  0
    0.0000   -0.4125    0.0000 C   0  0  0  0  0  0  0  0  0  0  0  0
   -1.6119    3.5870    0.0000 C   0  0  0  0  0  0  0  0  0  0  0  0
   -1.4290    0.4125    0.0000 C   0  0  0  0  0  0  0  0  0  0  0  0
   -0.7144   -0.8250    0.0000 C   0  0  0  0  0  0  0  0  0  0  0  0
    0.7846   -0.6674    0.0000 C   0  0  0  0  0  0  0  0  0  0  0  0
   -1.4290   -0.4125    0.0000 C   0  0  0  0  0  0  0  0  0  0  0  0
   -2.7796    2.4320    0.0000 C   0  0  0  0  0  0  0  0  0  0  0  0
   -2.3380    1.0730    0.0000 C   0  0  0  0  0  0  0  0  0  0  0  0
    1.2696    0.0000    0.0000 C   0  0  0  0  0  0  0  0  0  0  0  0
   -3.5642    2.1771    0.0000 C   0  0  0  0  0  0  0  0  0  0  0  0
   -3.1227    0.8180    0.0000 C   0  0  0  0  0  0  0  0  0  0  0  0
   -3.7358    1.3701    0.0000 C   0  0  0  0  0  0  0  0  0  0  0  0
   -2.9173    4.1682    0.0000 C   0  0  0  0  0  0  0  0  0  0  0  0
  1 10  1  0  0  0  0
  1 20  1  0  0  0  0
  2 13  1  0  0  0  0
  2 24  1  0  0  0  0
  3 13  2  0  0  0  0
  4  5  1  0  0  0  0
  4  6  2  0  0  0  0
  5  9  1  0  0  0  0
  6  7  1  0  0  0  0
  6  8  1  0  0  0  0
  7  9  2  0  0  0  0
  7 11  1  0  0  0  0
  8 10  2  0  0  0  0
  8 14  1  0  0  0  0
  9 13  1  0  0  0  0
 10 12  1  0  0  0  0
 11 18  2  0  0  0  0
 11 19  1  0  0  0  0
 12 15  2  0  0  0  0
 12 16  1  0  0  0  0
 14 17  2  0  0  0  0
 15 17  1  0  0  0  0
 16 20  2  0  0  0  0
 18 21  1  0  0  0  0
 19 22  2  0  0  0  0
 21 23  2  0  0  0  0
 22 23  1  0  0  0  0
M  END
> <PUBCHEM_COMPOUND_ID_TYPE>
0

> <PUBCHEM_TOTAL_CHARGE>
0

> <PUBCHEM_SUBSTANCE_ID>
310933914

> <PUBCHEM_SUBSTANCE_VERSION>
1

> <PUBCHEM_EXT_DATASOURCE_NAME>
4488

> <PUBCHEM_EXT_DATASOURCE_REGID>
SCHEMBL16111353

> <PUBCHEM_SUBSTANCE_COMMENT>
InChI=1S/C19H14N2O2S/c1-23-19(22)17-15(12-6-3-2-4-7-12)16(20-21-17)14-9-5-8-13-10-11-24-18(13)14/h2-11H,1H3,(H,20,21)
InChIKey=KMSROCXEOBNSOZ-UHFFFAOYSA-N

> <PUBCHEM_SUBSTANCE_SYNONYM>
SCHEMBL16111353

> <PUBCHEM_XREF_EXT_ID>
SCHEMBL16111353

> <PUBCHEM_EXT_DATASOURCE_URL>
https://www.surechembl.org/

> <PUBCHEM_EXT_SUBSTANCE_URL>
https://www.surechembl.org/chemical/SCHEMBL16111353

> <PUBCHEM_CID_ASSOCIATIONS>
117602242  1

> <PUBCHEM_COORDINATE_TYPE>
1
3

$$$$
