310938952
  -OEChem-07211613022D

 38 43  0     1  0  0  0  0  0999 V2000
    1.1270   -0.3572    0.0000 N   0  0  0  0  0  0  0  0  0  0  0  0
   -1.1270   -0.3572    0.0000 N   0  0  0  0  0  0  0  0  0  0  0  0
    0.0000    1.5947    0.0000 N   0  0  0  0  0  0  0  0  0  0  0  0
   -0.4125    0.0553    0.0000 C   0  0  0  0  0  0  0  0  0  0  0  0
    0.4125    0.0553    0.0000 C   0  0  0  0  0  0  0  0  0  0  0  0
    0.0000    0.7697    0.0000 C   0  0  0  0  0  0  0  0  0  0  0  0
    1.1270   -1.1822    0.0000 C   0  0  0  0  0  0  0  0  0  0  0  0
    1.8414    0.0553    0.0000 C   0  0  0  0  0  0  0  0  0  0  0  0
   -1.8414    0.0553    0.0000 C   0  0  0  0  0  0  0  0  0  0  0  0
   -1.1270   -1.1822    0.0000 C   0  0  0  0  0  0  0  0  0  0  0  0
    0.7145    2.0072    0.0000 C   0  0  3  0  0  0  0  0  0  0  0  0
    0.4125   -1.5947    0.0000 C   0  0  0  0  0  0  0  0  0  0  0  0
    1.8414   -1.5947    0.0000 C   0  0  0  0  0  0  0  0  0  0  0  0
    2.5559   -0.3572    0.0000 C   0  0  0  0  0  0  0  0  0  0  0  0
    1.8414    0.8803    0.0000 C   0  0  0  0  0  0  0  0  0  0  0  0
   -1.8414    0.8803    0.0000 C   0  0  0  0  0  0  0  0  0  0  0  0
   -2.5559   -0.3572    0.0000 C   0  0  0  0  0  0  0  0  0  0  0  0
   -1.8414   -1.5947    0.0000 C   0  0  0  0  0  0  0  0  0  0  0  0
   -0.4125   -1.5947    0.0000 C   0  0  0  0  0  0  0  0  0  0  0  0
    1.4289    1.5947    0.0000 C   0  0  0  0  0  0  0  0  0  0  0  0
    0.7145    2.8322    0.0000 C   0  0  0  0  0  0  0  0  0  0  0  0
    0.4125   -2.4197    0.0000 C   0  0  0  0  0  0  0  0  0  0  0  0
    1.8414   -2.4197    0.0000 C   0  0  0  0  0  0  0  0  0  0  0  0
    3.2704    0.0553    0.0000 C   0  0  0  0  0  0  0  0  0  0  0  0
    2.5559    1.2928    0.0000 C   0  0  0  0  0  0  0  0  0  0  0  0
   -2.5559    1.2928    0.0000 C   0  0  0  0  0  0  0  0  0  0  0  0
   -3.2704    0.0553    0.0000 C   0  0  0  0  0  0  0  0  0  0  0  0
   -1.8414   -2.4197    0.0000 C   0  0  0  0  0  0  0  0  0  0  0  0
   -0.4125   -2.4197    0.0000 C   0  0  0  0  0  0  0  0  0  0  0  0
    1.4289    0.7697    0.0000 C   0  0  0  0  0  0  0  0  0  0  0  0
    2.1434    2.0072    0.0000 C   0  0  0  0  0  0  0  0  0  0  0  0
    1.1270   -2.8322    0.0000 C   0  0  0  0  0  0  0  0  0  0  0  0
    3.2704    0.8803    0.0000 C   0  0  0  0  0  0  0  0  0  0  0  0
   -3.2704    0.8803    0.0000 C   0  0  0  0  0  0  0  0  0  0  0  0
   -1.1270   -2.8322    0.0000 C   0  0  0  0  0  0  0  0  0  0  0  0
    2.1434    0.3572    0.0000 C   0  0  0  0  0  0  0  0  0  0  0  0
    2.8579    1.5947    0.0000 C   0  0  0  0  0  0  0  0  0  0  0  0
    2.8579    0.7697    0.0000 C   0  0  0  0  0  0  0  0  0  0  0  0
  1  5  1  0  0  0  0
  1  7  1  0  0  0  0
  1  8  1  0  0  0  0
  2  4  1  0  0  0  0
  2  9  1  0  0  0  0
  2 10  1  0  0  0  0
  3  6  2  0  0  0  0
  3 11  1  0  0  0  0
  4  5  2  0  0  0  0
  4  6  1  0  0  0  0
  5  6  1  0  0  0  0
  7 12  1  0  0  0  0
  7 13  1  0  0  0  0
  8 14  1  0  0  0  0
  8 15  1  0  0  0  0
  9 16  1  0  0  0  0
  9 17  1  0  0  0  0
 10 18  1  0  0  0  0
 10 19  1  0  0  0  0
 11 20  1  0  0  0  0
 11 21  1  1  0  0  0
 12 22  1  0  0  0  0
 13 23  1  0  0  0  0
 14 24  1  0  0  0  0
 15 25  1  0  0  0  0
 16 26  1  0  0  0  0
 17 27  1  0  0  0  0
 18 28  1  0  0  0  0
 19 29  1  0  0  0  0
 20 30  2  0  0  0  0
 20 31  1  0  0  0  0
 22 32  1  0  0  0  0
 23 32  1  0  0  0  0
 24 33  1  0  0  0  0
 25 33  1  0  0  0  0
 26 34  1  0  0  0  0
 27 34  1  0  0  0  0
 28 35  1  0  0  0  0
 29 35  1  0  0  0  0
 30 36  1  0  0  0  0
 31 37  2  0  0  0  0
 36 38  2  0  0  0  0
 37 38  1  0  0  0  0
M  END
> <PUBCHEM_COMPOUND_ID_TYPE>
0

> <PUBCHEM_TOTAL_CHARGE>
0

> <PUBCHEM_SUBSTANCE_ID>
310938952

> <PUBCHEM_SUBSTANCE_VERSION>
1

> <PUBCHEM_EXT_DATASOURCE_NAME>
4488

> <PUBCHEM_EXT_DATASOURCE_REGID>
SCHEMBL16116871

> <PUBCHEM_SUBSTANCE_COMMENT>
InChI=1S/C35H53N3/c1-27(28-17-7-2-8-18-28)36-33-34(37(29-19-9-3-10-20-29)30-21-11-4-12-22-30)35(33)38(31-23-13-5-14-24-31)32-25-15-6-16-26-32/h2,7-8,17-18,27,29-32H,3-6,9-16,19-26H2,1H3/t27-/m0/s1
InChIKey=WQTLMNPRNLYUMU-MHZLTWQESA-N

> <PUBCHEM_SUBSTANCE_SYNONYM>
SCHEMBL16116871

> <PUBCHEM_XREF_EXT_ID>
SCHEMBL16116871

> <PUBCHEM_EXT_DATASOURCE_URL>
https://www.surechembl.org/

> <PUBCHEM_EXT_SUBSTANCE_URL>
https://www.surechembl.org/chemical/SCHEMBL16116871

> <PUBCHEM_CID_ASSOCIATIONS>
101562395  1

> <PUBCHEM_COORDINATE_TYPE>
1
3

> <PUBCHEM_BONDANNOTATIONS>
11  21  5

$$$$
