310936272
  -OEChem-07211613022D

 22 24  0     1  0  0  0  0  0999 V2000
    0.0865   -0.5966    0.0000 O   0  0  0  0  0  0  0  0  0  0  0  0
   -1.8505    0.3009    0.0000 O   0  0  0  0  0  0  0  0  0  0  0  0
   -1.8505   -1.4940    0.0000 O   0  0  0  0  0  0  0  0  0  0  0  0
    1.3556    3.1729    0.0000 O   0  0  0  0  0  0  0  0  0  0  0  0
   -0.1435    0.8555    0.0000 N   0  0  0  0  0  0  0  0  0  0  0  0
   -0.1435    2.1904    0.0000 N   0  0  0  0  0  0  0  0  0  0  0  0
    1.3556    0.6979    0.0000 N   0  0  0  0  0  0  0  0  0  0  0  0
    2.0701    1.9354    0.0000 N   0  0  0  0  0  0  0  0  0  0  0  0
    2.7845    0.6979    0.0000 N   0  0  0  0  0  0  0  0  0  0  0  0
   -0.6955   -2.6617    0.0000 N   0  0  0  0  0  0  0  0  0  0  0  0
   -0.4406   -3.4463    0.0000 N   0  3  0  0  0  0  0  0  0  0  0  0
   -0.1857   -4.2310    0.0000 N   0  5  0  0  0  0  0  0  0  0  0  0
   -0.3984    0.0709    0.0000 C   0  0  3  0  0  0  0  0  0  0  0  0
    0.6411    1.1104    0.0000 C   0  0  0  0  0  0  0  0  0  0  0  0
    0.6411    1.9354    0.0000 C   0  0  0  0  0  0  0  0  0  0  0  0
   -1.1831   -0.1841    0.0000 C   0  0  3  0  0  0  0  0  0  0  0  0
   -1.1831   -1.0091    0.0000 C   0  0  3  0  0  0  0  0  0  0  0  0
   -0.3984   -1.2640    0.0000 C   0  0  3  0  0  0  0  0  0  0  0  0
   -0.6284    1.5229    0.0000 C   0  0  0  0  0  0  0  0  0  0  0  0
    1.3556    2.3479    0.0000 C   0  0  0  0  0  0  0  0  0  0  0  0
    2.0701    1.1104    0.0000 C   0  0  0  0  0  0  0  0  0  0  0  0
   -0.1435   -2.0486    0.0000 C   0  0  0  0  0  0  0  0  0  0  0  0
 13  1  1  6  0  0  0
  1 18  1  0  0  0  0
 16  2  1  6  0  0  0
 17  3  1  1  0  0  0
  4 20  2  0  0  0  0
  5 13  1  0  0  0  0
  5 14  1  0  0  0  0
  5 19  1  0  0  0  0
  6 15  1  0  0  0  0
  6 19  2  0  0  0  0
  7 14  1  0  0  0  0
  7 21  2  0  0  0  0
  8 20  1  0  0  0  0
  8 21  1  0  0  0  0
  9 21  1  0  0  0  0
 10 11  2  0  0  0  0
 10 22  1  0  0  0  0
 11 12  2  0  0  0  0
 13 16  1  0  0  0  0
 14 15  2  0  0  0  0
 15 20  1  0  0  0  0
 16 17  1  0  0  0  0
 17 18  1  0  0  0  0
 18 22  1  6  0  0  0
M  CHG  2  11   1  12  -1
M  END
> <PUBCHEM_COMPOUND_ID_TYPE>
0

> <PUBCHEM_TOTAL_CHARGE>
0

> <PUBCHEM_SUBSTANCE_ID>
310936272

> <PUBCHEM_SUBSTANCE_VERSION>
1

> <PUBCHEM_EXT_DATASOURCE_NAME>
4488

> <PUBCHEM_EXT_DATASOURCE_REGID>
SCHEMBL16113892

> <PUBCHEM_SUBSTANCE_COMMENT>
InChI=1S/C10H12N8O4/c11-10-15-7-4(8(21)16-10)13-2-18(7)9-6(20)5(19)3(22-9)1-14-17-12/h2-3,5-6,9,19-20H,1H2,(H3,11,15,16,21)/t3-,5-,6+,9-/m1/s1
InChIKey=IURRXTYHKBREQT-FJFJXFQQSA-N

> <PUBCHEM_SUBSTANCE_SYNONYM>
SCHEMBL16113892

> <PUBCHEM_XREF_EXT_ID>
SCHEMBL16113892

> <PUBCHEM_EXT_DATASOURCE_URL>
https://www.surechembl.org/

> <PUBCHEM_EXT_SUBSTANCE_URL>
https://www.surechembl.org/chemical/SCHEMBL16113892

> <PUBCHEM_CID_ASSOCIATIONS>
117604216  1

> <PUBCHEM_COORDINATE_TYPE>
1
3

> <PUBCHEM_BONDANNOTATIONS>
13  1  6
18  22  6
16  2  6
17  3  5

$$$$
