310930347
  -OEChem-07211613022D

 32 35  0     0  0  0  0  0  0999 V2000
   -6.4302    0.8250    0.0000 S   0  0  0  0  0  0  0  0  0  0  0  0
   -6.0177    1.5395    0.0000 O   0  0  0  0  0  0  0  0  0  0  0  0
   -6.8427    0.1106    0.0000 O   0  0  0  0  0  0  0  0  0  0  0  0
   -7.8592    0.0000    0.0000 O   0  0  0  0  0  0  0  0  0  0  0  0
   -9.2881    0.8250    0.0000 O   0  0  0  0  0  0  0  0  0  0  0  0
   -2.1434   -1.6500    0.0000 O   0  0  0  0  0  0  0  0  0  0  0  0
   -0.7144    0.8250    0.0000 N   0  0  0  0  0  0  0  0  0  0  0  0
    0.7846    0.6674    0.0000 N   0  0  0  0  0  0  0  0  0  0  0  0
   -2.8579   -0.4125    0.0000 N   0  0  0  0  0  0  0  0  0  0  0  0
    1.2696    0.0000    0.0000 N   0  0  0  0  0  0  0  0  0  0  0  0
   -7.1447    1.2375    0.0000 C   0  0  0  0  0  0  0  0  0  0  0  0
   -5.7158    0.4125    0.0000 C   0  0  0  0  0  0  0  0  0  0  0  0
   -7.8592    0.8250    0.0000 C   0  0  0  0  0  0  0  0  0  0  0  0
   -8.5736    1.2375    0.0000 C   0  0  0  0  0  0  0  0  0  0  0  0
   -7.1447    2.0625    0.0000 C   0  0  0  0  0  0  0  0  0  0  0  0
   -5.0013    0.8250    0.0000 C   0  0  0  0  0  0  0  0  0  0  0  0
   -5.7158   -0.4125    0.0000 C   0  0  0  0  0  0  0  0  0  0  0  0
   -8.5736    2.0625    0.0000 C   0  0  0  0  0  0  0  0  0  0  0  0
   -7.8592    2.4750    0.0000 C   0  0  0  0  0  0  0  0  0  0  0  0
    0.0000   -0.4125    0.0000 C   0  0  0  0  0  0  0  0  0  0  0  0
   -4.2868   -0.4125    0.0000 C   0  0  0  0  0  0  0  0  0  0  0  0
    0.0000    0.4125    0.0000 C   0  0  0  0  0  0  0  0  0  0  0  0
   -1.4290   -0.4125    0.0000 C   0  0  0  0  0  0  0  0  0  0  0  0
   -4.2868    0.4125    0.0000 C   0  0  0  0  0  0  0  0  0  0  0  0
   -5.0013   -0.8250    0.0000 C   0  0  0  0  0  0  0  0  0  0  0  0
   -0.7144   -0.8250    0.0000 C   0  0  0  0  0  0  0  0  0  0  0  0
   -2.1434   -0.8250    0.0000 C   0  0  0  0  0  0  0  0  0  0  0  0
   -1.4290    0.4125    0.0000 C   0  0  0  0  0  0  0  0  0  0  0  0
    0.7846   -0.6674    0.0000 C   0  0  0  0  0  0  0  0  0  0  0  0
   -3.5724   -0.8250    0.0000 C   0  0  0  0  0  0  0  0  0  0  0  0
   -8.5736   -0.4125    0.0000 C   0  0  0  0  0  0  0  0  0  0  0  0
  -10.0026    1.2375    0.0000 C   0  0  0  0  0  0  0  0  0  0  0  0
  1  2  2  0  0  0  0
  1  3  2  0  0  0  0
  1 11  1  0  0  0  0
  1 12  1  0  0  0  0
  4 13  1  0  0  0  0
  4 31  1  0  0  0  0
  5 14  1  0  0  0  0
  5 32  1  0  0  0  0
  6 27  2  0  0  0  0
  7 22  2  0  0  0  0
  7 28  1  0  0  0  0
  8 10  1  0  0  0  0
  8 22  1  0  0  0  0
  9 27  1  0  0  0  0
  9 30  1  0  0  0  0
 10 29  2  0  0  0  0
 11 13  1  0  0  0  0
 11 15  2  0  0  0  0
 12 16  2  0  0  0  0
 12 17  1  0  0  0  0
 13 14  2  0  0  0  0
 14 18  1  0  0  0  0
 15 19  1  0  0  0  0
 16 24  1  0  0  0  0
 17 25  2  0  0  0  0
 18 19  2  0  0  0  0
 20 22  1  0  0  0  0
 20 26  2  0  0  0  0
 20 29  1  0  0  0  0
 21 24  2  0  0  0  0
 21 25  1  0  0  0  0
 21 30  1  0  0  0  0
 23 26  1  0  0  0  0
 23 27  1  0  0  0  0
 23 28  2  0  0  0  0
M  END
> <PUBCHEM_COMPOUND_ID_TYPE>
0

> <PUBCHEM_TOTAL_CHARGE>
0

> <PUBCHEM_SUBSTANCE_ID>
310930347

> <PUBCHEM_SUBSTANCE_VERSION>
1

> <PUBCHEM_EXT_DATASOURCE_NAME>
4488

> <PUBCHEM_EXT_DATASOURCE_REGID>
SCHEMBL16107631

> <PUBCHEM_SUBSTANCE_COMMENT>
InChI=1S/C22H20N4O5S/c1-30-18-4-3-5-19(20(18)31-2)32(28,29)17-8-6-14(7-9-17)11-24-22(27)16-10-15-13-25-26-21(15)23-12-16/h3-10,12-13H,11H2,1-2H3,(H,24,27)(H,23,25,26)
InChIKey=VLZJYPLTWRQGRP-UHFFFAOYSA-N

> <PUBCHEM_SUBSTANCE_SYNONYM>
SCHEMBL16107631

> <PUBCHEM_XREF_EXT_ID>
SCHEMBL16107631

> <PUBCHEM_EXT_DATASOURCE_URL>
https://www.surechembl.org/

> <PUBCHEM_EXT_SUBSTANCE_URL>
https://www.surechembl.org/chemical/SCHEMBL16107631

> <PUBCHEM_CID_ASSOCIATIONS>
66614757  1

> <PUBCHEM_COORDINATE_TYPE>
1
3

$$$$
