310943454
  -OEChem-07211613022D

 42 46  0     0  0  0  0  0  0999 V2000
    0.3558   -0.6226    0.0000 O   0  0  0  0  0  0  0  0  0  0  0  0
   -4.6093    2.2723    0.0000 O   0  0  0  0  0  0  0  0  0  0  0  0
    1.0674   -0.2021    0.0000 O   0  0  0  0  0  0  0  0  0  0  0  0
   -0.3558   -2.6928    0.0000 O   0  0  0  0  0  0  0  0  0  0  0  0
   -1.0674    0.2021    0.0000 N   0  0  0  0  0  0  0  0  0  0  0  0
   -2.4744    0.2021    0.0000 N   0  0  0  0  0  0  0  0  0  0  0  0
   -1.7790   -1.0270    0.0000 N   0  0  0  0  0  0  0  0  0  0  0  0
   -3.1861    1.4475    0.0000 N   0  0  0  0  0  0  0  0  0  0  0  0
    0.3558    2.6928    0.0000 N   0  0  0  0  0  0  0  0  0  0  0  0
    1.7790    1.0432    0.0000 N   0  0  0  0  0  0  0  0  0  0  0  0
    3.9139   -1.0270    0.0000 N   0  0  0  0  0  0  0  0  0  0  0  0
    4.6093   -1.4960    0.0000 N   0  0  0  0  0  0  0  0  0  0  0  0
   -1.0513    1.0432    0.0000 C   0  0  0  0  0  0  0  0  0  0  0  0
   -0.3558    1.4475    0.0000 C   0  0  0  0  0  0  0  0  0  0  0  0
   -1.7628   -0.2021    0.0000 C   0  0  0  0  0  0  0  0  0  0  0  0
   -2.4744    1.0432    0.0000 C   0  0  0  0  0  0  0  0  0  0  0  0
   -1.0674   -1.4475    0.0000 C   0  0  0  0  0  0  0  0  0  0  0  0
   -1.7952    1.4475    0.0000 C   0  0  0  0  0  0  0  0  0  0  0  0
   -0.3396    2.2884    0.0000 C   0  0  0  0  0  0  0  0  0  0  0  0
    0.3558    1.0432    0.0000 C   0  0  0  0  0  0  0  0  0  0  0  0
    1.0513    1.4475    0.0000 C   0  0  0  0  0  0  0  0  0  0  0  0
   -1.0350   -0.6065    0.0000 C   0  0  0  0  0  0  0  0  0  0  0  0
   -0.3558   -1.8518    0.0000 C   0  0  0  0  0  0  0  0  0  0  0  0
    1.0836    2.2723    0.0000 C   0  0  0  0  0  0  0  0  0  0  0  0
    2.4907   -0.2021    0.0000 C   0  0  0  0  0  0  0  0  0  0  0  0
    1.7790    0.2345    0.0000 C   0  0  0  0  0  0  0  0  0  0  0  0
   -1.0513   -2.2723    0.0000 C   0  0  0  0  0  0  0  0  0  0  0  0
    3.2022   -1.4313    0.0000 C   0  0  0  0  0  0  0  0  0  0  0  0
    3.2022   -2.2561    0.0000 C   0  0  0  0  0  0  0  0  0  0  0  0
   -3.1861    2.2723    0.0000 C   0  0  0  0  0  0  0  0  0  0  0  0
   -3.8815    1.0432    0.0000 C   0  0  0  0  0  0  0  0  0  0  0  0
    2.4907   -1.0270    0.0000 C   0  0  0  0  0  0  0  0  0  0  0  0
   -1.0513    2.7090    0.0000 C   0  0  0  0  0  0  0  0  0  0  0  0
   -0.3558   -0.2021    0.0000 C   0  0  0  0  0  0  0  0  0  0  0  0
    0.3558   -1.4313    0.0000 C   0  0  0  0  0  0  0  0  0  0  0  0
    3.1861    0.2021    0.0000 C   0  0  0  0  0  0  0  0  0  0  0  0
   -3.8976    2.6928    0.0000 C   0  0  0  0  0  0  0  0  0  0  0  0
   -4.6093    1.4475    0.0000 C   0  0  0  0  0  0  0  0  0  0  0  0
    3.9139   -0.2021    0.0000 C   0  0  0  0  0  0  0  0  0  0  0  0
    3.8976   -1.8680    0.0000 C   0  0  0  0  0  0  0  0  0  0  0  0
    2.4907   -2.7090    0.0000 C   0  0  0  0  0  0  0  0  0  0  0  0
    3.9139   -2.7090    0.0000 C   0  0  0  0  0  0  0  0  0  0  0  0
  1 34  1  0  0  0  0
  1 35  1  0  0  0  0
  2 37  1  0  0  0  0
  2 38  1  0  0  0  0
  3 26  2  0  0  0  0
  4 27  1  0  0  0  0
  5 13  1  0  0  0  0
  5 15  2  0  0  0  0
  6 15  1  0  0  0  0
  6 16  2  0  0  0  0
  7 15  1  0  0  0  0
  7 17  1  0  0  0  0
  8 16  1  0  0  0  0
  8 30  1  0  0  0  0
  8 31  1  0  0  0  0
  9 19  2  0  0  0  0
  9 24  1  0  0  0  0
 10 21  1  0  0  0  0
 10 26  1  0  0  0  0
 11 28  2  0  0  0  0
 11 39  1  0  0  0  0
 12 40  3  0  0  0  0
 13 14  1  0  0  0  0
 13 18  2  0  0  0  0
 14 19  1  0  0  0  0
 14 20  2  0  0  0  0
 16 18  1  0  0  0  0
 17 22  1  0  0  0  0
 17 23  1  0  0  0  0
 17 27  1  0  0  0  0
 19 33  1  0  0  0  0
 20 21  1  0  0  0  0
 21 24  2  0  0  0  0
 22 34  1  0  0  0  0
 23 35  1  0  0  0  0
 25 26  1  0  0  0  0
 25 32  2  0  0  0  0
 25 36  1  0  0  0  0
 28 29  1  0  0  0  0
 28 32  1  0  0  0  0
 29 40  1  0  0  0  0
 29 41  1  0  0  0  0
 29 42  1  0  0  0  0
 30 37  1  0  0  0  0
 31 38  1  0  0  0  0
 36 39  2  0  0  0  0
M  END
> <PUBCHEM_COMPOUND_ID_TYPE>
0

> <PUBCHEM_TOTAL_CHARGE>
0

> <PUBCHEM_SUBSTANCE_ID>
310943454

> <PUBCHEM_SUBSTANCE_VERSION>
1

> <PUBCHEM_EXT_DATASOURCE_NAME>
4488

> <PUBCHEM_EXT_DATASOURCE_REGID>
SCHEMBL16121518

> <PUBCHEM_SUBSTANCE_COMMENT>
InChI=1S/C30H36N8O4/c1-20-23(15-22(17-33-20)34-27(40)21-4-7-32-25(14-21)29(2,3)18-31)24-16-26(38-8-12-42-13-9-38)36-28(35-24)37-30(19-39)5-10-41-11-6-30/h4,7,14-17,39H,5-6,8-13,19H2,1-3H3,(H,34,40)(H,35,36,37)
InChIKey=KWEXOHKZEAHJIT-UHFFFAOYSA-N

> <PUBCHEM_SUBSTANCE_SYNONYM>
SCHEMBL16121518

> <PUBCHEM_XREF_EXT_ID>
SCHEMBL16121518

> <PUBCHEM_EXT_DATASOURCE_URL>
https://www.surechembl.org/

> <PUBCHEM_EXT_SUBSTANCE_URL>
https://www.surechembl.org/chemical/SCHEMBL16121518

> <PUBCHEM_CID_ASSOCIATIONS>
117609878  1

> <PUBCHEM_COORDINATE_TYPE>
1
3

$$$$
