310936458
  -OEChem-07211613022D

 32 34  0     1  0  0  0  0  0999 V2000
    1.4299   -1.6466    0.0000 O   0  0  0  0  0  0  0  0  0  0  0  0
    0.7150   -3.7264    0.0000 O   0  0  0  0  0  0  0  0  0  0  0  0
    0.0000   -2.4698    0.0000 O   0  0  0  0  0  0  0  0  0  0  0  0
    6.1095   -4.0514    0.0000 O   0  0  0  0  0  0  0  0  0  0  0  0
    6.1095   -2.5998    0.0000 O   0  0  0  0  0  0  0  0  0  0  0  0
    3.5747   -2.8815    0.0000 N   0  0  0  0  0  0  0  0  0  0  0  0
    2.8381   -4.1597    0.0000 N   0  0  0  0  0  0  0  0  0  0  0  0
    4.3547   -2.6648    0.0000 N   0  0  0  0  0  0  0  0  0  0  0  0
    2.8381   -2.4915    0.0000 C   0  0  0  0  0  0  0  0  0  0  0  0
    2.1448   -2.8815    0.0000 C   0  0  0  0  0  0  0  0  0  0  0  0
    3.5747   -3.7481    0.0000 C   0  0  0  0  0  0  0  0  0  0  0  0
    2.8381   -1.6682    0.0000 C   0  0  0  0  0  0  0  0  0  0  0  0
    2.1448   -3.7481    0.0000 C   0  0  0  0  0  0  0  0  0  0  0  0
    1.4299   -2.4698    0.0000 C   0  0  3  0  0  0  0  0  0  0  0  0
    4.8530   -3.3147    0.0000 C   0  0  0  0  0  0  0  0  0  0  0  0
    4.3547   -3.9864    0.0000 C   0  0  0  0  0  0  0  0  0  0  0  0
    3.5530   -1.2349    0.0000 C   0  0  0  0  0  0  0  0  0  0  0  0
    0.7150   -2.8815    0.0000 C   0  0  0  0  0  0  0  0  0  0  0  0
    2.1015   -1.2349    0.0000 C   0  0  0  0  0  0  0  0  0  0  0  0
    5.6979   -3.3147    0.0000 C   0  0  0  0  0  0  0  0  0  0  0  0
    1.6032   -4.3330    0.0000 C   0  0  0  0  0  0  0  0  0  0  0  0
    0.7150   -1.2132    0.0000 C   0  0  0  0  0  0  0  0  0  0  0  0
    3.5314   -0.4117    0.0000 C   0  0  0  0  0  0  0  0  0  0  0  0
    2.1015   -0.4333    0.0000 C   0  0  0  0  0  0  0  0  0  0  0  0
    4.2680   -1.6249    0.0000 C   0  0  0  0  0  0  0  0  0  0  0  0
    2.8165    0.0000    0.0000 C   0  0  0  0  0  0  0  0  0  0  0  0
    0.0000   -0.7799    0.0000 C   0  0  0  0  0  0  0  0  0  0  0  0
    1.1482   -0.4983    0.0000 C   0  0  0  0  0  0  0  0  0  0  0  0
    0.2816   -1.9282    0.0000 C   0  0  0  0  0  0  0  0  0  0  0  0
    1.4082   -4.1380    0.0000 C   0  0  0  0  0  0  0  0  0  0  0  0
    4.9830   -1.2132    0.0000 C   0  0  0  0  0  0  0  0  0  0  0  0
    2.2965   -3.8997    0.0000 C   0  0  0  0  0  0  0  0  0  0  0  0
 14  1  1  1  0  0  0
  1 22  1  0  0  0  0
  2 18  1  0  0  0  0
  2 30  1  0  0  0  0
  3 18  2  0  0  0  0
  4 20  2  0  0  0  0
  5 20  1  0  0  0  0
  6  8  1  0  0  0  0
  6  9  1  0  0  0  0
  6 11  1  0  0  0  0
  7 11  1  0  0  0  0
  7 13  2  0  0  0  0
  8 15  2  0  0  0  0
  9 10  2  0  0  0  0
  9 12  1  0  0  0  0
 10 13  1  0  0  0  0
 10 14  1  0  0  0  0
 11 16  2  0  0  0  0
 12 17  1  0  0  0  0
 12 19  2  0  0  0  0
 13 21  1  0  0  0  0
 14 18  1  0  0  0  0
 15 16  1  0  0  0  0
 15 20  1  0  0  0  0
 17 23  2  0  0  0  0
 17 25  1  0  0  0  0
 19 24  1  0  0  0  0
 22 27  1  0  0  0  0
 22 28  1  0  0  0  0
 22 29  1  0  0  0  0
 23 26  1  0  0  0  0
 24 26  2  0  0  0  0
 25 31  2  0  0  0  0
 30 32  1  0  0  0  0
M  END
> <PUBCHEM_COMPOUND_ID_TYPE>
0

> <PUBCHEM_TOTAL_CHARGE>
0

> <PUBCHEM_SUBSTANCE_ID>
310936458

> <PUBCHEM_SUBSTANCE_VERSION>
1

> <PUBCHEM_EXT_DATASOURCE_NAME>
4488

> <PUBCHEM_EXT_DATASOURCE_REGID>
SCHEMBL16114101

> <PUBCHEM_SUBSTANCE_COMMENT>
InChI=1S/C24H27N3O5/c1-7-15-11-9-10-12-16(15)20-19(21(23(30)31-8-2)32-24(4,5)6)14(3)25-18-13-17(22(28)29)26-27(18)20/h7,9-13,21H,1,8H2,2-6H3,(H,28,29)/t21-/m0/s1
InChIKey=ALFWBYNFSARDQM-NRFANRHFSA-N

> <PUBCHEM_SUBSTANCE_SYNONYM>
SCHEMBL16114101

> <PUBCHEM_XREF_EXT_ID>
SCHEMBL16114101

> <PUBCHEM_EXT_DATASOURCE_URL>
https://www.surechembl.org/

> <PUBCHEM_EXT_SUBSTANCE_URL>
https://www.surechembl.org/chemical/SCHEMBL16114101

> <PUBCHEM_CID_ASSOCIATIONS>
117604389  1

> <PUBCHEM_COORDINATE_TYPE>
1
3

> <PUBCHEM_BONDANNOTATIONS>
14  1  5

$$$$
