310948391
  -OEChem-07211613022D

 30 33  0     1  0  0  0  0  0999 V2000
    2.7634   -1.8010    0.0000 S   0  0  0  0  0  0  0  0  0  0  0  0
    0.6461   -0.8936    0.0000 O   0  0  0  0  0  0  0  0  0  0  0  0
    3.4370   -1.3198    0.0000 O   0  0  0  0  0  0  0  0  0  0  0  0
    3.2445   -2.4609    0.0000 O   0  0  0  0  0  0  0  0  0  0  0  0
   -1.3061    1.0586    0.0000 N   0  0  0  0  0  0  0  0  0  0  0  0
   -0.5499    1.3886    0.0000 N   0  0  0  0  0  0  0  0  0  0  0  0
    0.8111    0.8661    0.0000 N   0  0  0  0  0  0  0  0  0  0  0  0
   -0.7149   -1.3336    0.0000 N   0  0  0  0  0  0  0  0  0  0  0  0
    2.0897   -2.2822    0.0000 N   0  0  0  0  0  0  0  0  0  0  0  0
   -0.6049    3.1208    0.0000 N   0  0  0  0  0  0  0  0  0  0  0  0
   -0.4262    0.0687    0.0000 C   0  0  0  0  0  0  0  0  0  0  0  0
   -1.2236    0.2612    0.0000 C   0  0  0  0  0  0  0  0  0  0  0  0
    0.0137    0.7836    0.0000 C   0  0  0  0  0  0  0  0  0  0  0  0
   -2.0209    1.4848    0.0000 C   0  0  3  0  0  0  0  0  0  0  0  0
   -0.1787   -0.7011    0.0000 C   0  0  0  0  0  0  0  0  0  0  0  0
   -1.7735   -0.3712    0.0000 C   0  0  0  0  0  0  0  0  0  0  0  0
   -2.0209    2.2822    0.0000 C   0  0  3  0  0  0  0  0  0  0  0  0
    1.2923    0.2062    0.0000 C   0  0  0  0  0  0  0  0  0  0  0  0
   -1.5123   -1.1548    0.0000 C   0  0  0  0  0  0  0  0  0  0  0  0
   -2.7221    1.0586    0.0000 C   0  0  0  0  0  0  0  0  0  0  0  0
    2.2822   -1.1273    0.0000 C   0  0  0  0  0  0  0  0  0  0  0  0
    2.1447    0.2750    0.0000 C   0  0  0  0  0  0  0  0  0  0  0  0
    0.9898   -0.5499    0.0000 C   0  0  0  0  0  0  0  0  0  0  0  0
   -2.7359    2.6946    0.0000 C   0  0  0  0  0  0  0  0  0  0  0  0
    2.6122   -0.3712    0.0000 C   0  0  0  0  0  0  0  0  0  0  0  0
    1.4573   -1.2098    0.0000 C   0  0  0  0  0  0  0  0  0  0  0  0
   -1.3061    2.6946    0.0000 C   0  0  0  0  0  0  0  0  0  0  0  0
   -3.4370    1.4711    0.0000 C   0  0  0  0  0  0  0  0  0  0  0  0
   -3.4370    2.2822    0.0000 C   0  0  0  0  0  0  0  0  0  0  0  0
    2.1997   -3.1208    0.0000 C   0  0  0  0  0  0  0  0  0  0  0  0
  1  3  2  0  0  0  0
  1  4  2  0  0  0  0
  1  9  1  0  0  0  0
  1 21  1  0  0  0  0
  2 15  2  0  0  0  0
  5  6  1  0  0  0  0
  5 12  1  0  0  0  0
 14  5  1  1  0  0  0
  6 13  2  0  0  0  0
  7 13  1  0  0  0  0
  7 18  1  0  0  0  0
  8 15  1  0  0  0  0
  8 19  1  0  0  0  0
  9 30  1  0  0  0  0
 10 27  3  0  0  0  0
 11 12  2  0  0  0  0
 11 13  1  0  0  0  0
 11 15  1  0  0  0  0
 12 16  1  0  0  0  0
 14 17  1  0  0  0  0
 14 20  1  0  0  0  0
 16 19  2  0  0  0  0
 17 24  1  0  0  0  0
 17 27  1  6  0  0  0
 18 22  2  0  0  0  0
 18 23  1  0  0  0  0
 20 28  1  0  0  0  0
 21 25  2  0  0  0  0
 21 26  1  0  0  0  0
 22 25  1  0  0  0  0
 23 26  2  0  0  0  0
 24 29  1  0  0  0  0
 28 29  1  0  0  0  0
M  END
> <PUBCHEM_COMPOUND_ID_TYPE>
0

> <PUBCHEM_TOTAL_CHARGE>
0

> <PUBCHEM_SUBSTANCE_ID>
310948391

> <PUBCHEM_SUBSTANCE_VERSION>
1

> <PUBCHEM_EXT_DATASOURCE_NAME>
4488

> <PUBCHEM_EXT_DATASOURCE_REGID>
SCHEMBL16126572

> <PUBCHEM_SUBSTANCE_COMMENT>
InChI=1S/C20H22N6O3S/c1-22-30(28,29)15-8-6-14(7-9-15)24-19-18-17(10-11-23-20(18)27)26(25-19)16-5-3-2-4-13(16)12-21/h6-11,13,16,22H,2-5H2,1H3,(H,23,27)(H,24,25)/t13-,16+/m1/s1
InChIKey=KZSVYQJBEHAKQX-CJNGLKHVSA-N

> <PUBCHEM_SUBSTANCE_SYNONYM>
SCHEMBL16126572

> <PUBCHEM_XREF_EXT_ID>
SCHEMBL16126572

> <PUBCHEM_EXT_DATASOURCE_URL>
https://www.surechembl.org/

> <PUBCHEM_EXT_SUBSTANCE_URL>
https://www.surechembl.org/chemical/SCHEMBL16126572

> <PUBCHEM_CID_ASSOCIATIONS>
117613952  1

> <PUBCHEM_COORDINATE_TYPE>
1
3

> <PUBCHEM_BONDANNOTATIONS>
17  27  6
14  5  5

$$$$
