310932103
  -OEChem-07211613022D

 31 33  0     0  0  0  0  0  0999 V2000
   -0.3633   -4.0231    0.0000 O   0  0  0  0  0  0  0  0  0  0  0  0
   -1.7137   -6.7781    0.0000 O   0  0  0  0  0  0  0  0  0  0  0  0
    4.1342   -4.7532    0.0000 O   0  0  0  0  0  0  0  0  0  0  0  0
    0.5619   -5.1657    0.0000 N   0  0  0  0  0  0  0  0  0  0  0  0
    0.4756   -5.9861    0.0000 N   0  0  0  0  0  0  0  0  0  0  0  0
   -1.5643   -5.3570    0.0000 N   0  0  0  0  0  0  0  0  0  0  0  0
   -2.0492   -6.0244    0.0000 N   0  0  0  0  0  0  0  0  0  0  0  0
   -0.7438   -5.4432    0.0000 C   0  0  0  0  0  0  0  0  0  0  0  0
   -0.1918   -4.8301    0.0000 C   0  0  0  0  0  0  0  0  0  0  0  0
   -0.3313   -6.1577    0.0000 C   0  0  0  0  0  0  0  0  0  0  0  0
   -2.8697   -5.9382    0.0000 C   0  0  0  0  0  0  0  0  0  0  0  0
    1.2763   -4.7532    0.0000 C   0  0  0  0  0  0  0  0  0  0  0  0
   -3.3546   -6.6056    0.0000 C   0  0  0  0  0  0  0  0  0  0  0  0
   -4.1751   -6.5194    0.0000 C   0  0  0  0  0  0  0  0  0  0  0  0
   -0.6669   -6.9113    0.0000 C   0  0  0  0  0  0  0  0  0  0  0  0
   -3.2053   -5.1845    0.0000 C   0  0  0  0  0  0  0  0  0  0  0  0
   -5.6299   -8.5217    0.0000 C   0  0  0  0  0  0  0  0  0  0  0  0
   -4.5107   -5.7657    0.0000 C   0  0  0  0  0  0  0  0  0  0  0  0
   -4.6601   -7.1868    0.0000 C   0  0  0  0  0  0  0  0  0  0  0  0
   -4.0258   -5.0983    0.0000 C   0  0  0  0  0  0  0  0  0  0  0  0
   -6.4504   -8.4354    0.0000 C   0  0  0  0  0  0  0  0  0  0  0  0
   -5.2943   -9.2754    0.0000 C   0  0  0  0  0  0  0  0  0  0  0  0
   -5.1450   -7.8542    0.0000 C   0  0  0  0  0  0  0  0  0  0  0  0
    1.9908   -5.1657    0.0000 C   0  0  0  0  0  0  0  0  0  0  0  0
   -6.9353   -9.1029    0.0000 C   0  0  0  0  0  0  0  0  0  0  0  0
   -5.7793   -9.9428    0.0000 C   0  0  0  0  0  0  0  0  0  0  0  0
   -6.5997   -9.8566    0.0000 C   0  0  0  0  0  0  0  0  0  0  0  0
    2.7053   -4.7532    0.0000 C   0  0  0  0  0  0  0  0  0  0  0  0
   -6.7859   -7.6818    0.0000 C   0  0  0  0  0  0  0  0  0  0  0  0
   -4.4739   -9.3616    0.0000 C   0  0  0  0  0  0  0  0  0  0  0  0
    3.4197   -5.1657    0.0000 C   0  0  0  0  0  0  0  0  0  0  0  0
  1  9  2  0  0  0  0
  2  7  1  0  0  0  0
  3 31  1  0  0  0  0
  4  5  1  0  0  0  0
  4  9  1  0  0  0  0
  4 12  1  0  0  0  0
  5 10  2  0  0  0  0
  6  7  1  0  0  0  0
  6  8  2  0  0  0  0
  7 11  1  0  0  0  0
  8  9  1  0  0  0  0
  8 10  1  0  0  0  0
 10 15  1  0  0  0  0
 11 13  2  0  0  0  0
 11 16  1  0  0  0  0
 12 24  1  0  0  0  0
 13 14  1  0  0  0  0
 14 18  2  0  0  0  0
 14 19  1  0  0  0  0
 16 20  2  0  0  0  0
 17 21  1  0  0  0  0
 17 22  2  0  0  0  0
 17 23  1  0  0  0  0
 18 20  1  0  0  0  0
 19 23  3  0  0  0  0
 21 25  2  0  0  0  0
 21 29  1  0  0  0  0
 22 26  1  0  0  0  0
 22 30  1  0  0  0  0
 24 28  1  0  0  0  0
 25 27  1  0  0  0  0
 26 27  2  0  0  0  0
 28 31  1  0  0  0  0
M  END
> <PUBCHEM_COMPOUND_ID_TYPE>
0

> <PUBCHEM_TOTAL_CHARGE>
0

> <PUBCHEM_SUBSTANCE_ID>
310932103

> <PUBCHEM_SUBSTANCE_VERSION>
1

> <PUBCHEM_EXT_DATASOURCE_NAME>
4488

> <PUBCHEM_EXT_DATASOURCE_REGID>
SCHEMBL16109451

> <PUBCHEM_SUBSTANCE_COMMENT>
InChI=1S/C24H26N4O3/c1-17-8-6-9-18(2)22(17)13-12-20-10-7-11-21(16-20)28(31)26-23-19(3)25-27(24(23)30)14-4-5-15-29/h6-11,16,29,31H,4-5,14-15H2,1-3H3
InChIKey=QIIMGKYKAPYCAG-UHFFFAOYSA-N

> <PUBCHEM_SUBSTANCE_SYNONYM>
SCHEMBL16109451

> <PUBCHEM_XREF_EXT_ID>
SCHEMBL16109451

> <PUBCHEM_EXT_DATASOURCE_URL>
https://www.surechembl.org/

> <PUBCHEM_EXT_SUBSTANCE_URL>
https://www.surechembl.org/chemical/SCHEMBL16109451

> <PUBCHEM_CID_ASSOCIATIONS>
117600722  1

> <PUBCHEM_COORDINATE_TYPE>
1
3

> <PUBCHEM_BONDANNOTATIONS>
6  7  3

$$$$
