310935471
  -OEChem-07211613022D

 35 37  0     1  0  0  0  0  0999 V2000
   -0.3467   -9.0372    0.0000 Cl  0  0  0  0  0  0  0  0  0  0  0  0
    0.8416   -3.4463    0.0000 P   0  0  3  0  0  0  0  0  0  0  0  0
    0.5445   -4.8441    0.0000 P   0  0  3  0  0  0  0  0  0  0  0  0
    1.3687   -0.5966    0.0000 O   0  0  0  0  0  0  0  0  0  0  0  0
    0.5867   -2.6617    0.0000 O   0  0  0  0  0  0  0  0  0  0  0  0
    1.0966   -4.2310    0.0000 O   0  0  0  0  0  0  0  0  0  0  0  0
   -0.5683    0.3009    0.0000 O   0  0  0  0  0  0  0  0  0  0  0  0
   -0.5683   -1.4940    0.0000 O   0  0  0  0  0  0  0  0  0  0  0  0
    2.6378    3.1729    0.0000 O   0  0  0  0  0  0  0  0  0  0  0  0
   -0.0075   -5.4571    0.0000 O   0  0  0  0  0  0  0  0  0  0  0  0
    1.6262   -3.1914    0.0000 O   0  0  0  0  0  0  0  0  0  0  0  0
    0.0570   -3.7013    0.0000 O   0  0  0  0  0  0  0  0  0  0  0  0
    1.1576   -5.3961    0.0000 O   0  0  0  0  0  0  0  0  0  0  0  0
   -0.0686   -4.2920    0.0000 O   0  0  0  0  0  0  0  0  0  0  0  0
    0.7573   -7.8110    0.0000 O   0  0  0  0  0  0  0  0  0  0  0  0
    1.1387    0.8555    0.0000 N   0  0  0  0  0  0  0  0  0  0  0  0
    1.1387    2.1904    0.0000 N   0  0  0  0  0  0  0  0  0  0  0  0
    2.6378    0.6979    0.0000 N   0  0  0  0  0  0  0  0  0  0  0  0
    3.3523    1.9354    0.0000 N   0  0  0  0  0  0  0  0  0  0  0  0
    4.0668    0.6979    0.0000 N   0  0  0  0  0  0  0  0  0  0  0  0
   -0.3046   -6.8549    0.0000 N   0  0  0  0  0  0  0  0  0  0  0  0
    0.8838    0.0709    0.0000 C   0  0  3  0  0  0  0  0  0  0  0  0
    1.9233    1.1104    0.0000 C   0  0  0  0  0  0  0  0  0  0  0  0
    0.0992   -0.1841    0.0000 C   0  0  3  0  0  0  0  0  0  0  0  0
    1.9233    1.9354    0.0000 C   0  0  0  0  0  0  0  0  0  0  0  0
    0.8838   -1.2640    0.0000 C   0  0  3  0  0  0  0  0  0  0  0  0
    0.0992   -1.0091    0.0000 C   0  0  3  0  0  0  0  0  0  0  0  0
    0.6538    1.5229    0.0000 C   0  0  0  0  0  0  0  0  0  0  0  0
    2.6378    2.3479    0.0000 C   0  0  0  0  0  0  0  0  0  0  0  0
    1.1387   -2.0486    0.0000 C   0  0  0  0  0  0  0  0  0  0  0  0
    3.3523    1.1104    0.0000 C   0  0  0  0  0  0  0  0  0  0  0  0
    0.2474   -6.2418    0.0000 C   0  0  3  0  0  0  0  0  0  0  0  0
   -0.0497   -7.6395    0.0000 C   0  0  0  0  0  0  0  0  0  0  0  0
    1.0544   -6.4133    0.0000 C   0  0  0  0  0  0  0  0  0  0  0  0
   -0.6017   -8.2526    0.0000 C   0  0  0  0  0  0  0  0  0  0  0  0
  1 35  1  0  0  0  0
  2  5  1  0  0  0  0
  2  6  1  0  0  0  0
  2 11  2  0  0  0  0
  2 12  1  0  0  0  0
  3  6  1  0  0  0  0
  3 10  1  0  0  0  0
  3 13  2  0  0  0  0
  3 14  1  0  0  0  0
  4 22  1  0  0  0  0
  4 26  1  0  0  0  0
  5 30  1  0  0  0  0
 24  7  1  1  0  0  0
 27  8  1  1  0  0  0
  9 29  2  0  0  0  0
 10 32  1  0  0  0  0
 15 33  2  0  0  0  0
 22 16  1  6  0  0  0
 16 23  1  0  0  0  0
 16 28  1  0  0  0  0
 17 25  1  0  0  0  0
 17 28  2  0  0  0  0
 18 23  1  0  0  0  0
 18 31  2  0  0  0  0
 19 29  1  0  0  0  0
 19 31  1  0  0  0  0
 20 31  1  0  0  0  0
 21 32  1  0  0  0  0
 21 33  1  0  0  0  0
 22 24  1  0  0  0  0
 23 25  2  0  0  0  0
 24 27  1  0  0  0  0
 25 29  1  0  0  0  0
 26 27  1  0  0  0  0
 26 30  1  6  0  0  0
 32 34  1  0  0  0  0
 33 35  1  0  0  0  0
M  END
> <PUBCHEM_COMPOUND_ID_TYPE>
0

> <PUBCHEM_TOTAL_CHARGE>
0

> <PUBCHEM_SUBSTANCE_ID>
310935471

> <PUBCHEM_SUBSTANCE_VERSION>
1

> <PUBCHEM_EXT_DATASOURCE_NAME>
4488

> <PUBCHEM_EXT_DATASOURCE_REGID>
SCHEMBL16113023

> <PUBCHEM_SUBSTANCE_COMMENT>
InChI=1S/C14H21ClN6O12P2/c1-5(18-7(22)2-15)32-35(28,29)33-34(26,27)30-3-6-9(23)10(24)13(31-6)21-4-17-8-11(21)19-14(16)20-12(8)25/h4-6,9-10,13,23-24H,2-3H2,1H3,(H,18,22)(H,26,27)(H,28,29)(H3,16,19,20,25)/t5?,6-,9-,10-,13-/m1/s1
InChIKey=IACHFPKWZFPWNR-DPXQIYNJSA-N

> <PUBCHEM_SUBSTANCE_SYNONYM>
SCHEMBL16113023

> <PUBCHEM_XREF_EXT_ID>
SCHEMBL16113023

> <PUBCHEM_EXT_DATASOURCE_URL>
https://www.surechembl.org/

> <PUBCHEM_EXT_SUBSTANCE_URL>
https://www.surechembl.org/chemical/SCHEMBL16113023

> <PUBCHEM_CID_ASSOCIATIONS>
117603509  1

> <PUBCHEM_COORDINATE_TYPE>
1
3

> <PUBCHEM_BONDANNOTATIONS>
22  16  6
26  30  6
24  7  5
27  8  5

$$$$
