310934657
  -OEChem-07211613022D

 24 26  0     0  0  0  0  0  0999 V2000
    3.7246   -5.8671    0.0000 S   0  0  0  0  0  0  0  0  0  0  0  0
    0.6922   -2.8346    0.0000 O   0  0  0  0  0  0  0  0  0  0  0  0
    0.8240   -5.1748    0.0000 O   0  0  0  0  0  0  0  0  0  0  0  0
    0.0000   -6.5922    0.0000 O   0  0  0  0  0  0  0  0  0  0  0  0
    1.6480   -5.1748    0.0000 N   0  0  0  0  0  0  0  0  0  0  0  0
    0.8570   -3.6586    0.0000 N   0  0  0  0  0  0  0  0  0  0  0  0
    0.8240   -6.5922    0.0000 N   0  0  0  0  0  0  0  0  0  0  0  0
    2.0435   -5.8671    0.0000 C   0  0  0  0  0  0  0  0  0  0  0  0
    1.2195   -5.8671    0.0000 C   0  0  0  0  0  0  0  0  0  0  0  0
    1.6480   -3.7246    0.0000 C   0  0  0  0  0  0  0  0  0  0  0  0
    2.5050   -6.5922    0.0000 C   0  0  0  0  0  0  0  0  0  0  0  0
    2.5050   -5.1748    0.0000 C   0  0  0  0  0  0  0  0  0  0  0  0
    1.4173   -2.4391    0.0000 C   0  0  0  0  0  0  0  0  0  0  0  0
    2.0765   -4.4497    0.0000 C   0  0  0  0  0  0  0  0  0  0  0  0
    2.0106   -2.9994    0.0000 C   0  0  0  0  0  0  0  0  0  0  0  0
    1.4832   -1.6151    0.0000 C   0  0  0  0  0  0  0  0  0  0  0  0
    3.2961   -6.5922    0.0000 C   0  0  0  0  0  0  0  0  0  0  0  0
    3.2961   -5.1748    0.0000 C   0  0  0  0  0  0  0  0  0  0  0  0
    2.2413   -1.2854    0.0000 C   0  0  0  0  0  0  0  0  0  0  0  0
    0.8240   -1.1537    0.0000 C   0  0  0  0  0  0  0  0  0  0  0  0
    2.3402   -0.4944    0.0000 C   0  0  0  0  0  0  0  0  0  0  0  0
    0.9229   -0.3296    0.0000 C   0  0  0  0  0  0  0  0  0  0  0  0
    1.6810    0.0000    0.0000 C   0  0  0  0  0  0  0  0  0  0  0  0
    3.0983   -0.1319    0.0000 C   0  0  0  0  0  0  0  0  0  0  0  0
  1 17  1  0  0  0  0
  1 18  1  0  0  0  0
  2  6  1  0  0  0  0
  2 13  1  0  0  0  0
  3  9  2  0  0  0  0
  4  7  1  0  0  0  0
  5  8  1  0  0  0  0
  5 14  1  0  0  0  0
  6 10  2  0  0  0  0
  7  9  1  0  0  0  0
  8  9  1  0  0  0  0
  8 11  1  0  0  0  0
  8 12  1  0  0  0  0
 10 14  1  0  0  0  0
 10 15  1  0  0  0  0
 11 17  1  0  0  0  0
 12 18  1  0  0  0  0
 13 15  2  0  0  0  0
 13 16  1  0  0  0  0
 16 19  1  0  0  0  0
 16 20  2  0  0  0  0
 19 21  2  0  0  0  0
 20 22  1  0  0  0  0
 21 23  1  0  0  0  0
 21 24  1  0  0  0  0
 22 23  2  0  0  0  0
M  END
> <PUBCHEM_COMPOUND_ID_TYPE>
0

> <PUBCHEM_TOTAL_CHARGE>
0

> <PUBCHEM_SUBSTANCE_ID>
310934657

> <PUBCHEM_SUBSTANCE_VERSION>
1

> <PUBCHEM_EXT_DATASOURCE_NAME>
4488

> <PUBCHEM_EXT_DATASOURCE_REGID>
SCHEMBL16112155

> <PUBCHEM_SUBSTANCE_COMMENT>
InChI=1S/C17H21N3O3S/c1-12-3-2-4-13(9-12)15-10-14(20-23-15)11-18-17(16(21)19-22)5-7-24-8-6-17/h2-4,9-10,18,22H,5-8,11H2,1H3,(H,19,21)
InChIKey=TUGFNXPHYLXWBR-UHFFFAOYSA-N

> <PUBCHEM_SUBSTANCE_SYNONYM>
SCHEMBL16112155

> <PUBCHEM_XREF_EXT_ID>
SCHEMBL16112155

> <PUBCHEM_EXT_DATASOURCE_URL>
https://www.surechembl.org/

> <PUBCHEM_EXT_SUBSTANCE_URL>
https://www.surechembl.org/chemical/SCHEMBL16112155

> <PUBCHEM_CID_ASSOCIATIONS>
117602824  1

> <PUBCHEM_COORDINATE_TYPE>
1
3

$$$$
