310939751
  -OEChem-07211613022D

 15 15  0     0  0  0  0  0  0999 V2000
    3.0564   -6.6322    0.0000 S   0  0  0  0  0  0  0  0  0  0  0  0
    2.6439   -5.9178    0.0000 O   0  0  0  0  0  0  0  0  0  0  0  0
    3.4689   -7.3467    0.0000 O   0  0  0  0  0  0  0  0  0  0  0  0
    0.1985   -8.2822    0.0000 O   0  0  0  0  0  0  0  0  0  0  0  0
    1.6274   -8.2822    0.0000 C   0  0  0  0  0  0  0  0  0  0  0  0
    2.3419   -7.0447    0.0000 C   0  0  0  0  0  0  0  0  0  0  0  0
    2.3419   -7.8697    0.0000 C   0  0  0  0  0  0  0  0  0  0  0  0
    1.6274   -9.1072    0.0000 C   0  0  0  0  0  0  0  0  0  0  0  0
    0.9130   -7.8697    0.0000 C   0  0  0  0  0  0  0  0  0  0  0  0
    1.6274   -6.6322    0.0000 C   0  0  0  0  0  0  0  0  0  0  0  0
    0.9130   -7.0447    0.0000 C   0  0  0  0  0  0  0  0  0  0  0  0
    3.7709   -6.2197    0.0000 C   0  0  0  0  0  0  0  0  0  0  0  0
    2.4524   -9.1072    0.0000 C   0  0  0  0  0  0  0  0  0  0  0  0
    0.8024   -9.1072    0.0000 C   0  0  0  0  0  0  0  0  0  0  0  0
    1.6274   -9.9322    0.0000 C   0  0  0  0  0  0  0  0  0  0  0  0
  1  2  2  0  0  0  0
  1  3  2  0  0  0  0
  1  6  1  0  0  0  0
  1 12  1  0  0  0  0
  4  9  1  0  0  0  0
  5  7  2  0  0  0  0
  5  8  1  0  0  0  0
  5  9  1  0  0  0  0
  6  7  1  0  0  0  0
  6 10  2  0  0  0  0
  8 13  1  0  0  0  0
  8 14  1  0  0  0  0
  8 15  1  0  0  0  0
  9 11  2  0  0  0  0
 10 11  1  0  0  0  0
M  END
> <PUBCHEM_COMPOUND_ID_TYPE>
0

> <PUBCHEM_TOTAL_CHARGE>
0

> <PUBCHEM_SUBSTANCE_ID>
310939751

> <PUBCHEM_SUBSTANCE_VERSION>
1

> <PUBCHEM_EXT_DATASOURCE_NAME>
4488

> <PUBCHEM_EXT_DATASOURCE_REGID>
SCHEMBL16117681

> <PUBCHEM_SUBSTANCE_COMMENT>
InChI=1S/C11H16O3S/c1-11(2,3)9-7-8(15(4,13)14)5-6-10(9)12/h5-7,12H,1-4H3
InChIKey=XZHMMCVBSPHHAS-UHFFFAOYSA-N

> <PUBCHEM_SUBSTANCE_SYNONYM>
SCHEMBL16117681

> <PUBCHEM_XREF_EXT_ID>
SCHEMBL16117681

> <PUBCHEM_EXT_DATASOURCE_URL>
https://www.surechembl.org/

> <PUBCHEM_EXT_SUBSTANCE_URL>
https://www.surechembl.org/chemical/SCHEMBL16117681

> <PUBCHEM_CID_ASSOCIATIONS>
117606974  1

> <PUBCHEM_COORDINATE_TYPE>
1
3

> <PUBCHEM_BONDANNOTATIONS>
8  13  3
8  14  3

$$$$
