310944317
  -OEChem-07211613022D

 28 30  0     0  0  0  0  0  0999 V2000
   -3.5002   -0.7750    0.0000 Cl  0  0  0  0  0  0  0  0  0  0  0  0
   -0.4500   -0.7750    0.0000 O   0  0  0  0  0  0  0  0  0  0  0  0
    1.0000    1.7251    0.0000 O   0  0  0  0  0  0  0  0  0  0  0  0
    4.6002   -0.3500    0.0000 O   0  0  0  0  0  0  0  0  0  0  0  0
   -0.4375    0.9001    0.0000 N   0  0  0  0  0  0  0  0  0  0  0  0
    1.7376    0.4750    0.0000 N   0  0  0  0  0  0  0  0  0  0  0  0
    3.1751   -0.3500    0.0000 N   0  0  0  0  0  0  0  0  0  0  0  0
   -2.6001    0.4750    0.0000 C   0  0  0  0  0  0  0  0  0  0  0  0
   -1.1626    0.4875    0.0000 C   0  0  0  0  0  0  0  0  0  0  0  0
   -2.6001   -0.3500    0.0000 C   0  0  0  0  0  0  0  0  0  0  0  0
   -1.1626   -0.3375    0.0000 C   0  0  0  0  0  0  0  0  0  0  0  0
   -1.8751    0.8876    0.0000 C   0  0  0  0  0  0  0  0  0  0  0  0
   -3.3376    0.9126    0.0000 C   0  0  0  0  0  0  0  0  0  0  0  0
   -1.8626   -0.7625    0.0000 C   0  0  0  0  0  0  0  0  0  0  0  0
    1.0000    0.8876    0.0000 C   0  0  0  0  0  0  0  0  0  0  0  0
    0.3000    0.4875    0.0000 C   0  0  0  0  0  0  0  0  0  0  0  0
   -4.1127    0.6501    0.0000 C   0  0  0  0  0  0  0  0  0  0  0  0
   -3.3252    1.7251    0.0000 C   0  0  0  0  0  0  0  0  0  0  0  0
    2.4626    0.9001    0.0000 C   0  0  0  0  0  0  0  0  0  0  0  0
    1.7376   -0.3500    0.0000 C   0  0  0  0  0  0  0  0  0  0  0  0
    3.1751    0.4750    0.0000 C   0  0  0  0  0  0  0  0  0  0  0  0
    2.4626   -0.7625    0.0000 C   0  0  0  0  0  0  0  0  0  0  0  0
    3.8876   -0.7750    0.0000 C   0  0  0  0  0  0  0  0  0  0  0  0
   -4.6002    1.3125    0.0000 C   0  0  0  0  0  0  0  0  0  0  0  0
   -4.1127    1.9751    0.0000 C   0  0  0  0  0  0  0  0  0  0  0  0
    3.8876   -1.6126    0.0000 C   0  0  0  0  0  0  0  0  0  0  0  0
    0.2875   -0.3500    0.0000 C   0  0  0  0  0  0  0  0  0  0  0  0
    3.1501   -1.9751    0.0000 C   0  0  0  0  0  0  0  0  0  0  0  0
  1 10  1  0  0  0  0
  2 11  1  0  0  0  0
  2 27  1  0  0  0  0
  3 15  2  0  0  0  0
  4 23  2  0  0  0  0
  5  9  1  0  0  0  0
  5 16  1  0  0  0  0
  6 15  1  0  0  0  0
  6 19  1  0  0  0  0
  6 20  1  0  0  0  0
  7 21  1  0  0  0  0
  7 22  1  0  0  0  0
  7 23  1  0  0  0  0
  8 10  2  0  0  0  0
  8 12  1  0  0  0  0
  8 13  1  0  0  0  0
  9 11  1  0  0  0  0
  9 12  2  0  0  0  0
 10 14  1  0  0  0  0
 11 14  2  0  0  0  0
 13 17  1  0  0  0  0
 13 18  1  0  0  0  0
 15 16  1  0  0  0  0
 17 24  1  0  0  0  0
 18 25  1  0  0  0  0
 19 21  1  0  0  0  0
 20 22  1  0  0  0  0
 23 26  1  0  0  0  0
 24 25  1  0  0  0  0
 26 28  2  0  0  0  0
M  END
> <PUBCHEM_COMPOUND_ID_TYPE>
0

> <PUBCHEM_TOTAL_CHARGE>
0

> <PUBCHEM_SUBSTANCE_ID>
310944317

> <PUBCHEM_SUBSTANCE_VERSION>
1

> <PUBCHEM_EXT_DATASOURCE_NAME>
4488

> <PUBCHEM_EXT_DATASOURCE_REGID>
SCHEMBL16122392

> <PUBCHEM_SUBSTANCE_COMMENT>
InChI=1S/C21H28ClN3O3/c1-3-20(26)24-8-10-25(11-9-24)21(27)14-23-18-12-16(15-6-4-5-7-15)17(22)13-19(18)28-2/h3,12-13,15,23H,1,4-11,14H2,2H3
InChIKey=KUYOBVKMBKTJCE-UHFFFAOYSA-N

> <PUBCHEM_SUBSTANCE_SYNONYM>
SCHEMBL16122392

> <PUBCHEM_XREF_EXT_ID>
SCHEMBL16122392

> <PUBCHEM_EXT_DATASOURCE_URL>
https://www.surechembl.org/

> <PUBCHEM_EXT_SUBSTANCE_URL>
https://www.surechembl.org/chemical/SCHEMBL16122392

> <PUBCHEM_CID_ASSOCIATIONS>
117610578  1

> <PUBCHEM_COORDINATE_TYPE>
1
3

$$$$
