310929210
  -OEChem-07211613022D

 60 65  0     0  0  0  0  0  0999 V2000
    3.5474  -12.3745    0.0000 O   0  0  0  0  0  0  0  0  0  0  0  0
    0.7424   -9.8996    0.0000 O   0  0  0  0  0  0  0  0  0  0  0  0
    5.0323  -12.3745    0.0000 O   0  0  0  0  0  0  0  0  0  0  0  0
    1.4025  -14.4369    0.0000 O   0  0  0  0  0  0  0  0  0  0  0  0
    5.6923  -15.5919    0.0000 O   0  0  0  0  0  0  0  0  0  0  0  0
    3.7948   -5.0323    0.0000 O   0  0  0  0  0  0  0  0  0  0  0  0
    5.1148   -7.5897    0.0000 O   0  0  0  0  0  0  0  0  0  0  0  0
    1.6499   -4.5373    0.0000 O   0  0  0  0  0  0  0  0  0  0  0  0
    0.9900   -2.3924    0.0000 O   0  0  0  0  0  0  0  0  0  0  0  0
    2.4749   -0.8249    0.0000 O   0  0  0  0  0  0  0  0  0  0  0  0
    2.1449  -13.1994    0.0000 N   0  0  0  0  0  0  0  0  0  0  0  0
    0.7424  -13.1994    0.0000 N   0  0  0  0  0  0  0  0  0  0  0  0
    5.7747  -13.6120    0.0000 N   0  0  0  0  0  0  0  0  0  0  0  0
    2.2274   -7.4247    0.0000 N   0  0  0  0  0  0  0  0  0  0  0  0
    2.8874   -8.7446    0.0000 N   0  0  0  0  0  0  0  0  0  0  0  0
    4.2898  -13.6120    0.0000 C   0  0  0  0  0  0  0  0  0  0  0  0
    3.5474  -13.1994    0.0000 C   0  0  0  0  0  0  0  0  0  0  0  0
    2.8874  -13.6120    0.0000 C   0  0  0  0  0  0  0  0  0  0  0  0
    3.5474  -14.8494    0.0000 C   0  0  0  0  0  0  0  0  0  0  0  0
    1.4025  -11.9620    0.0000 C   0  0  0  0  0  0  0  0  0  0  0  0
    1.4025  -11.1370    0.0000 C   0  0  0  0  0  0  0  0  0  0  0  0
    4.2898  -14.4369    0.0000 C   0  0  0  0  0  0  0  0  0  0  0  0
    0.7424  -12.3745    0.0000 C   0  0  0  0  0  0  0  0  0  0  0  0
    2.8874  -14.4369    0.0000 C   0  0  0  0  0  0  0  0  0  0  0  0
    3.5474  -15.6744    0.0000 C   0  0  0  0  0  0  0  0  0  0  0  0
    0.7424  -10.7246    0.0000 C   0  0  0  0  0  0  0  0  0  0  0  0
    5.0323  -13.1994    0.0000 C   0  0  0  0  0  0  0  0  0  0  0  0
    1.4025  -13.6120    0.0000 C   0  0  0  0  0  0  0  0  0  0  0  0
    0.0000  -11.9620    0.0000 C   0  0  0  0  0  0  0  0  0  0  0  0
    0.0000  -11.1370    0.0000 C   0  0  0  0  0  0  0  0  0  0  0  0
    2.1449  -12.3745    0.0000 C   0  0  0  0  0  0  0  0  0  0  0  0
    2.1449  -10.7246    0.0000 C   0  0  0  0  0  0  0  0  0  0  0  0
    1.4849   -9.4871    0.0000 C   0  0  0  0  0  0  0  0  0  0  0  0
    5.7747  -14.4369    0.0000 C   0  0  0  0  0  0  0  0  0  0  0  0
    3.0524  -12.1270    0.0000 C   0  0  0  0  0  0  0  0  0  0  0  0
    2.8874  -11.1370    0.0000 C   0  0  0  0  0  0  0  0  0  0  0  0
    2.7224  -15.6744    0.0000 C   0  0  0  0  0  0  0  0  0  0  0  0
    3.5474  -16.4993    0.0000 C   0  0  0  0  0  0  0  0  0  0  0  0
    4.3723  -15.6744    0.0000 C   0  0  0  0  0  0  0  0  0  0  0  0
    1.4849   -8.6622    0.0000 C   0  0  0  0  0  0  0  0  0  0  0  0
    2.2274   -8.2497    0.0000 C   0  0  0  0  0  0  0  0  0  0  0  0
    2.1449   -9.8996    0.0000 C   0  0  0  0  0  0  0  0  0  0  0  0
    5.1148  -15.0144    0.0000 C   0  0  0  0  0  0  0  0  0  0  0  0
    6.3523  -15.0144    0.0000 C   0  0  0  0  0  0  0  0  0  0  0  0
    2.8874  -11.9620    0.0000 C   0  0  0  0  0  0  0  0  0  0  0  0
    2.9699   -7.0947    0.0000 C   0  0  0  0  0  0  0  0  0  0  0  0
    2.8874   -9.5696    0.0000 C   0  0  0  0  0  0  0  0  0  0  0  0
    2.9699   -6.2698    0.0000 C   0  0  0  0  0  0  0  0  0  0  0  0
    3.7123   -5.8572    0.0000 C   0  0  0  0  0  0  0  0  0  0  0  0
    3.7123   -7.5072    0.0000 C   0  0  0  0  0  0  0  0  0  0  0  0
    4.3723   -7.0947    0.0000 C   0  0  0  0  0  0  0  0  0  0  0  0
    4.4548   -6.2698    0.0000 C   0  0  0  0  0  0  0  0  0  0  0  0
    3.0524   -4.6198    0.0000 C   0  0  0  0  0  0  0  0  0  0  0  0
    5.8572   -7.1772    0.0000 C   0  0  0  0  0  0  0  0  0  0  0  0
    2.3099   -4.9498    0.0000 C   0  0  0  0  0  0  0  0  0  0  0  0
    1.6499   -3.7123    0.0000 C   0  0  0  0  0  0  0  0  0  0  0  0
    0.9900   -3.2999    0.0000 C   0  0  0  0  0  0  0  0  0  0  0  0
    1.7324   -2.0624    0.0000 C   0  0  0  0  0  0  0  0  0  0  0  0
    1.7324   -1.2375    0.0000 C   0  0  0  0  0  0  0  0  0  0  0  0
    2.4749    0.0000    0.0000 C   0  0  0  0  0  0  0  0  0  0  0  0
  1 17  1  0  0  0  0
  1 45  1  0  0  0  0
  2 26  1  0  0  0  0
  2 33  1  0  0  0  0
  3 27  2  0  0  0  0
  4 28  2  0  0  0  0
  5 43  1  0  0  0  0
  5 44  1  0  0  0  0
  6 49  1  0  0  0  0
  6 53  1  0  0  0  0
  7 51  1  0  0  0  0
  7 54  1  0  0  0  0
  8 55  1  0  0  0  0
  8 56  1  0  0  0  0
  9 57  1  0  0  0  0
  9 58  1  0  0  0  0
 10 59  1  0  0  0  0
 10 60  1  0  0  0  0
 11 18  1  0  0  0  0
 11 28  1  0  0  0  0
 12 23  1  0  0  0  0
 12 28  1  0  0  0  0
 13 27  1  0  0  0  0
 13 34  1  0  0  0  0
 14 41  1  0  0  0  0
 14 46  1  0  0  0  0
 15 41  1  0  0  0  0
 15 47  2  0  0  0  0
 16 17  2  0  0  0  0
 16 22  1  0  0  0  0
 16 27  1  0  0  0  0
 17 18  1  0  0  0  0
 18 24  2  0  0  0  0
 19 22  2  0  0  0  0
 19 24  1  0  0  0  0
 19 25  1  0  0  0  0
 20 21  2  0  0  0  0
 20 23  1  0  0  0  0
 20 31  1  0  0  0  0
 21 26  1  0  0  0  0
 21 32  1  0  0  0  0
 23 29  2  0  0  0  0
 25 37  1  0  0  0  0
 25 38  1  0  0  0  0
 25 39  1  0  0  0  0
 26 30  2  0  0  0  0
 29 30  1  0  0  0  0
 31 35  2  0  0  0  0
 32 36  2  0  0  0  0
 33 40  1  0  0  0  0
 33 42  2  0  0  0  0
 34 43  1  0  0  0  0
 34 44  1  0  0  0  0
 35 36  1  0  0  0  0
 40 41  2  0  0  0  0
 42 47  1  0  0  0  0
 46 48  2  0  0  0  0
 46 50  1  0  0  0  0
 48 49  1  0  0  0  0
 49 52  2  0  0  0  0
 50 51  2  0  0  0  0
 51 52  1  0  0  0  0
 53 55  1  0  0  0  0
 56 57  1  0  0  0  0
 58 59  1  0  0  0  0
M  END
> <PUBCHEM_COMPOUND_ID_TYPE>
0

> <PUBCHEM_TOTAL_CHARGE>
0

> <PUBCHEM_SUBSTANCE_ID>
310929210

> <PUBCHEM_SUBSTANCE_VERSION>
1

> <PUBCHEM_EXT_DATASOURCE_NAME>
4488

> <PUBCHEM_EXT_DATASOURCE_REGID>
SCHEMBL16106373

> <PUBCHEM_SUBSTANCE_COMMENT>
InChI=1S/C45H53N5O10/c1-45(2,3)29-21-37(43(51)48-31-27-58-28-31)42(55-6)39(22-29)50-44(52)49-38-11-12-40(36-10-8-7-9-35(36)38)60-32-13-14-46-41(26-32)47-30-23-33(54-5)25-34(24-30)59-20-19-57-18-17-56-16-15-53-4/h7-14,21-26,31H,15-20,27-28H2,1-6H3,(H,46,47)(H,48,51)(H2,49,50,52)
InChIKey=UMXBELQMJUPJRY-UHFFFAOYSA-N

> <PUBCHEM_SUBSTANCE_SYNONYM>
SCHEMBL16106373

> <PUBCHEM_XREF_EXT_ID>
SCHEMBL16106373

> <PUBCHEM_EXT_DATASOURCE_URL>
https://www.surechembl.org/

> <PUBCHEM_EXT_SUBSTANCE_URL>
https://www.surechembl.org/chemical/SCHEMBL16106373

> <PUBCHEM_CID_ASSOCIATIONS>
86272357  1

> <PUBCHEM_COORDINATE_TYPE>
1
3

$$$$
