310944168
  -OEChem-07211613022D

 32 36  0     1  0  0  0  0  0999 V2000
    2.4939    0.3935    0.0000 O   0  0  0  0  0  0  0  0  0  0  0  0
    5.0210   -1.1583    0.0000 O   0  0  0  0  0  0  0  0  0  0  0  0
    5.4866    0.2383    0.0000 O   0  0  0  0  0  0  0  0  0  0  0  0
   -1.3079   -0.7482    0.0000 O   0  0  0  0  0  0  0  0  0  0  0  0
    2.8819   -1.0253    0.0000 N   0  0  0  0  0  0  0  0  0  0  0  0
    0.1330    0.0832    0.0000 N   0  0  0  0  0  0  0  0  0  0  0  0
   -4.1676    0.0832    0.0000 N   0  0  0  0  0  0  0  0  0  0  0  0
   -3.4582    1.3134    0.0000 N   0  0  0  0  0  0  0  0  0  0  0  0
   -4.9324    0.4157    0.0000 N   0  0  0  0  0  0  0  0  0  0  0  0
   -5.4866   -0.2050    0.0000 N   0  0  0  0  0  0  0  0  0  0  0  0
   -5.0654   -0.9144    0.0000 N   0  0  0  0  0  0  0  0  0  0  0  0
    1.5628   -0.7371    0.0000 C   0  0  0  0  0  0  0  0  0  0  0  0
    2.3055   -0.4157    0.0000 C   0  0  0  0  0  0  0  0  0  0  0  0
    3.7131   -0.9366    0.0000 C   0  0  0  0  0  0  0  0  0  0  0  0
    1.6515   -1.5573    0.0000 C   0  0  0  0  0  0  0  0  0  0  0  0
    2.4607   -1.7347    0.0000 C   0  0  0  0  0  0  0  0  0  0  0  0
    0.8645   -1.1472    0.0000 C   0  0  0  0  0  0  0  0  0  0  0  0
    1.5628    0.0832    0.0000 C   0  0  0  0  0  0  0  0  0  0  0  0
    4.0789   -0.1829    0.0000 C   0  0  0  0  0  0  0  0  0  0  0  0
    4.2895   -1.5241    0.0000 C   0  0  0  0  0  0  0  0  0  0  0  0
    4.8770   -0.3491    0.0000 C   0  0  0  0  0  0  0  0  0  0  0  0
    0.1330   -0.7371    0.0000 C   0  0  0  0  0  0  0  0  0  0  0  0
    0.8313    0.4933    0.0000 C   0  0  0  0  0  0  0  0  0  0  0  0
   -0.5874    0.4933    0.0000 C   0  0  0  0  0  0  0  0  0  0  0  0
   -1.2968    0.0942    0.0000 C   0  0  3  0  0  0  0  0  0  0  0  0
   -2.0284    0.5043    0.0000 C   0  0  0  0  0  0  0  0  0  0  0  0
    3.7020    0.5486    0.0000 C   0  0  0  0  0  0  0  0  0  0  0  0
   -3.4582    0.5043    0.0000 C   0  0  0  0  0  0  0  0  0  0  0  0
   -2.7156    0.0942    0.0000 C   0  0  0  0  0  0  0  0  0  0  0  0
   -2.0173    1.3245    0.0000 C   0  0  0  0  0  0  0  0  0  0  0  0
   -2.7488    1.7347    0.0000 C   0  0  0  0  0  0  0  0  0  0  0  0
   -4.2673   -0.7371    0.0000 C   0  0  0  0  0  0  0  0  0  0  0  0
  1 13  2  0  0  0  0
  2 20  1  0  0  0  0
  2 21  1  0  0  0  0
  3 21  2  0  0  0  0
 25  4  1  1  0  0  0
  5 13  1  0  0  0  0
  5 14  1  0  0  0  0
  5 16  1  0  0  0  0
  6 22  1  0  0  0  0
  6 23  1  0  0  0  0
  6 24  1  0  0  0  0
  7  9  1  0  0  0  0
  7 28  1  0  0  0  0
  7 32  1  0  0  0  0
  8 28  1  0  0  0  0
  8 31  2  0  0  0  0
  9 10  2  0  0  0  0
 10 11  1  0  0  0  0
 11 32  2  0  0  0  0
 12 13  1  0  0  0  0
 12 15  1  0  0  0  0
 12 17  1  0  0  0  0
 12 18  1  0  0  0  0
 14 19  2  0  0  0  0
 14 20  1  0  0  0  0
 15 16  1  0  0  0  0
 17 22  1  0  0  0  0
 18 23  1  0  0  0  0
 19 21  1  0  0  0  0
 19 27  1  0  0  0  0
 24 25  1  0  0  0  0
 25 26  1  0  0  0  0
 26 29  1  0  0  0  0
 26 30  2  0  0  0  0
 28 29  2  0  0  0  0
 30 31  1  0  0  0  0
M  END
> <PUBCHEM_COMPOUND_ID_TYPE>
0

> <PUBCHEM_TOTAL_CHARGE>
0

> <PUBCHEM_SUBSTANCE_ID>
310944168

> <PUBCHEM_SUBSTANCE_VERSION>
1

> <PUBCHEM_EXT_DATASOURCE_NAME>
4488

> <PUBCHEM_EXT_DATASOURCE_REGID>
SCHEMBL16122243

> <PUBCHEM_SUBSTANCE_COMMENT>
InChI=1S/C21H25N7O4/c1-14-16(12-32-19(14)30)27-9-5-21(20(27)31)3-7-26(8-4-21)11-17(29)15-2-6-22-18(10-15)28-13-23-24-25-28/h2,6,10,13,17,29H,3-5,7-9,11-12H2,1H3/t17-/m1/s1
InChIKey=KWLXKWWRAGQACQ-QGZVFWFLSA-N

> <PUBCHEM_SUBSTANCE_SYNONYM>
SCHEMBL16122243

> <PUBCHEM_XREF_EXT_ID>
SCHEMBL16122243

> <PUBCHEM_EXT_DATASOURCE_URL>
https://www.surechembl.org/

> <PUBCHEM_EXT_SUBSTANCE_URL>
https://www.surechembl.org/chemical/SCHEMBL16122243

> <PUBCHEM_CID_ASSOCIATIONS>
117610447  1

> <PUBCHEM_COORDINATE_TYPE>
1
3

> <PUBCHEM_BONDANNOTATIONS>
25  4  5

$$$$
