310949566
  -OEChem-07211613022D

 41 46  0     0  0  0  0  0  0999 V2000
   -1.4937    2.5067    0.0000 O   0  0  0  0  0  0  0  0  0  0  0  0
    4.5106    0.0665    0.0000 O   0  0  0  0  0  0  0  0  0  0  0  0
    5.8268    0.4954    0.0000 O   0  0  0  0  0  0  0  0  0  0  0  0
   -2.1887    1.2497    0.0000 N   0  0  0  0  0  0  0  0  0  0  0  0
    1.4788    0.1701    0.0000 N   0  0  0  0  0  0  0  0  0  0  0  0
    1.9669    0.8356    0.0000 N   0  0  0  0  0  0  0  0  0  0  0  0
   -2.9430    1.6785    0.0000 C   0  0  0  0  0  0  0  0  0  0  0  0
   -3.6528    1.2645    0.0000 C   0  0  0  0  0  0  0  0  0  0  0  0
   -3.3274    2.3736    0.0000 C   0  0  0  0  0  0  0  0  0  0  0  0
   -2.5141    2.3736    0.0000 C   0  0  0  0  0  0  0  0  0  0  0  0
    0.6803    1.2645    0.0000 C   0  0  0  0  0  0  0  0  0  0  0  0
    0.6655    0.4363    0.0000 C   0  0  0  0  0  0  0  0  0  0  0  0
   -1.4937    1.6637    0.0000 C   0  0  0  0  0  0  0  0  0  0  0  0
   -0.7542    1.2497    0.0000 C   0  0  0  0  0  0  0  0  0  0  0  0
    1.4640    1.5159    0.0000 C   0  0  0  0  0  0  0  0  0  0  0  0
   -0.0296    1.6637    0.0000 C   0  0  0  0  0  0  0  0  0  0  0  0
   -4.3627    1.6637    0.0000 C   0  0  0  0  0  0  0  0  0  0  0  0
   -3.6528    0.4215    0.0000 C   0  0  0  0  0  0  0  0  0  0  0  0
   -0.0296    0.0222    0.0000 C   0  0  0  0  0  0  0  0  0  0  0  0
   -0.7542    0.4363    0.0000 C   0  0  0  0  0  0  0  0  0  0  0  0
   -5.0725    1.2645    0.0000 C   0  0  0  0  0  0  0  0  0  0  0  0
    1.6859   -0.6285    0.0000 C   0  0  0  0  0  0  0  0  0  0  0  0
   -4.3479    0.0222    0.0000 C   0  0  0  0  0  0  0  0  0  0  0  0
    2.4845   -0.8503    0.0000 C   0  0  0  0  0  0  0  0  0  0  0  0
   -5.0725    0.4215    0.0000 C   0  0  0  0  0  0  0  0  0  0  0  0
   -5.8268    1.6785    0.0000 C   0  0  0  0  0  0  0  0  0  0  0  0
    1.8782    2.2257    0.0000 C   0  0  0  0  0  0  0  0  0  0  0  0
    4.0817   -1.2645    0.0000 C   0  0  0  0  0  0  0  0  0  0  0  0
    4.8950   -1.5011    0.0000 C   0  0  0  0  0  0  0  0  0  0  0  0
    2.7211   -1.6489    0.0000 C   0  0  0  0  0  0  0  0  0  0  0  0
    3.0908   -0.2736    0.0000 C   0  0  0  0  0  0  0  0  0  0  0  0
    5.4866   -0.9095    0.0000 C   0  0  0  0  0  0  0  0  0  0  0  0
    3.5049   -1.8708    0.0000 C   0  0  0  0  0  0  0  0  0  0  0  0
    3.8746   -0.4807    0.0000 C   0  0  0  0  0  0  0  0  0  0  0  0
    5.1317   -2.2997    0.0000 C   0  0  0  0  0  0  0  0  0  0  0  0
    5.2648   -0.1109    0.0000 C   0  0  0  0  0  0  0  0  0  0  0  0
    6.2852   -1.1313    0.0000 C   0  0  0  0  0  0  0  0  0  0  0  0
   -6.5070    1.2497    0.0000 C   0  0  0  0  0  0  0  0  0  0  0  0
   -5.8120    2.4919    0.0000 C   0  0  0  0  0  0  0  0  0  0  0  0
    5.9303   -2.5067    0.0000 C   0  0  0  0  0  0  0  0  0  0  0  0
    6.5070   -1.9299    0.0000 C   0  0  0  0  0  0  0  0  0  0  0  0
  1 13  2  0  0  0  0
  2 36  2  0  0  0  0
  3 36  1  0  0  0  0
  4  7  1  0  0  0  0
  4 13  1  0  0  0  0
  5  6  1  0  0  0  0
  5 12  1  0  0  0  0
  5 22  1  0  0  0  0
  6 15  2  0  0  0  0
  7  8  1  0  0  0  0
  7  9  1  0  0  0  0
  7 10  1  0  0  0  0
  8 17  2  0  0  0  0
  8 18  1  0  0  0  0
  9 10  1  0  0  0  0
 11 12  1  0  0  0  0
 11 15  1  0  0  0  0
 11 16  2  0  0  0  0
 12 19  2  0  0  0  0
 13 14  1  0  0  0  0
 14 16  1  0  0  0  0
 14 20  2  0  0  0  0
 15 27  1  0  0  0  0
 17 21  1  0  0  0  0
 18 23  2  0  0  0  0
 19 20  1  0  0  0  0
 21 25  2  0  0  0  0
 21 26  1  0  0  0  0
 22 24  1  0  0  0  0
 23 25  1  0  0  0  0
 24 30  2  0  0  0  0
 24 31  1  0  0  0  0
 26 38  1  0  0  0  0
 26 39  1  0  0  0  0
 28 29  1  0  0  0  0
 28 33  2  0  0  0  0
 28 34  1  0  0  0  0
 29 32  1  0  0  0  0
 29 35  2  0  0  0  0
 30 33  1  0  0  0  0
 31 34  2  0  0  0  0
 32 36  1  0  0  0  0
 32 37  2  0  0  0  0
 35 40  1  0  0  0  0
 37 41  1  0  0  0  0
 40 41  2  0  0  0  0
M  END
> <PUBCHEM_COMPOUND_ID_TYPE>
0

> <PUBCHEM_TOTAL_CHARGE>
0

> <PUBCHEM_SUBSTANCE_ID>
310949566

> <PUBCHEM_SUBSTANCE_VERSION>
1

> <PUBCHEM_EXT_DATASOURCE_NAME>
4488

> <PUBCHEM_EXT_DATASOURCE_REGID>
SCHEMBL16127761

> <PUBCHEM_SUBSTANCE_COMMENT>
InChI=1S/C35H33N3O3/c1-22(2)26-7-6-8-28(19-26)35(17-18-35)36-33(39)27-15-16-32-31(20-27)23(3)37-38(32)21-24-11-13-25(14-12-24)29-9-4-5-10-30(29)34(40)41/h4-16,19-20,22H,17-18,21H2,1-3H3,(H,36,39)(H,40,41)
InChIKey=CKFBSRDAGDSXSC-UHFFFAOYSA-N

> <PUBCHEM_SUBSTANCE_SYNONYM>
SCHEMBL16127761

> <PUBCHEM_XREF_EXT_ID>
SCHEMBL16127761

> <PUBCHEM_EXT_DATASOURCE_URL>
https://www.surechembl.org/

> <PUBCHEM_EXT_SUBSTANCE_URL>
https://www.surechembl.org/chemical/SCHEMBL16127761

> <PUBCHEM_CID_ASSOCIATIONS>
71578060  1

> <PUBCHEM_COORDINATE_TYPE>
1
3

$$$$
