310945097
  -OEChem-07211613022D

 33 36  0     0  0  0  0  0  0999 V2000
    3.9897   -2.2414    0.0000 O   0  0  0  0  0  0  0  0  0  0  0  0
    4.7249   -1.0041    0.0000 O   0  0  0  0  0  0  0  0  0  0  0  0
   -4.0076   -2.6538    0.0000 N   0  0  0  0  0  0  0  0  0  0  0  0
   -0.3855    0.2152    0.0000 C   0  0  0  0  0  0  0  0  0  0  0  0
   -1.0849   -0.1972    0.0000 C   0  0  0  0  0  0  0  0  0  0  0  0
   -0.3676    1.0400    0.0000 C   0  0  0  0  0  0  0  0  0  0  0  0
    0.3676   -0.1972    0.0000 C   0  0  0  0  0  0  0  0  0  0  0  0
    0.3676    1.4524    0.0000 C   0  0  0  0  0  0  0  0  0  0  0  0
   -1.8380    0.1972    0.0000 C   0  0  0  0  0  0  0  0  0  0  0  0
   -1.1028   -1.0220    0.0000 C   0  0  0  0  0  0  0  0  0  0  0  0
   -2.5372   -1.0220    0.0000 C   0  0  0  0  0  0  0  0  0  0  0  0
    0.3676   -1.0400    0.0000 C   0  0  0  0  0  0  0  0  0  0  0  0
    1.0849    0.1972    0.0000 C   0  0  0  0  0  0  0  0  0  0  0  0
   -2.5193   -0.1972    0.0000 C   0  0  0  0  0  0  0  0  0  0  0  0
   -1.8380   -1.4344    0.0000 C   0  0  0  0  0  0  0  0  0  0  0  0
   -1.0849    1.4344    0.0000 C   0  0  0  0  0  0  0  0  0  0  0  0
   -3.2724   -1.4344    0.0000 C   0  0  0  0  0  0  0  0  0  0  0  0
    1.8200   -1.0220    0.0000 C   0  0  0  0  0  0  0  0  0  0  0  0
    1.0669   -1.4344    0.0000 C   0  0  0  0  0  0  0  0  0  0  0  0
    1.8020   -0.2152    0.0000 C   0  0  0  0  0  0  0  0  0  0  0  0
    1.0849    1.0400    0.0000 C   0  0  0  0  0  0  0  0  0  0  0  0
    0.3855    2.2593    0.0000 C   0  0  0  0  0  0  0  0  0  0  0  0
   -3.2903   -2.2773    0.0000 C   0  0  0  0  0  0  0  0  0  0  0  0
   -4.0255   -1.0400    0.0000 C   0  0  0  0  0  0  0  0  0  0  0  0
    1.8020    1.4344    0.0000 C   0  0  0  0  0  0  0  0  0  0  0  0
    1.1028    2.6538    0.0000 C   0  0  0  0  0  0  0  0  0  0  0  0
    2.5552   -1.4344    0.0000 C   0  0  0  0  0  0  0  0  0  0  0  0
    1.8020    2.2593    0.0000 C   0  0  0  0  0  0  0  0  0  0  0  0
   -1.1028    2.2773    0.0000 C   0  0  0  0  0  0  0  0  0  0  0  0
   -4.7069   -1.4344    0.0000 C   0  0  0  0  0  0  0  0  0  0  0  0
   -4.7248   -2.2593    0.0000 C   0  0  0  0  0  0  0  0  0  0  0  0
    3.2545   -1.0400    0.0000 C   0  0  0  0  0  0  0  0  0  0  0  0
    3.9897   -1.4165    0.0000 C   0  0  0  0  0  0  0  0  0  0  0  0
  1 33  2  0  0  0  0
  2 33  1  0  0  0  0
  3 23  2  0  0  0  0
  3 31  1  0  0  0  0
  4  5  1  0  0  0  0
  4  6  2  0  0  0  0
  4  7  1  0  0  0  0
  5  9  2  0  0  0  0
  5 10  1  0  0  0  0
  6  8  1  0  0  0  0
  6 16  1  0  0  0  0
  7 12  2  0  0  0  0
  7 13  1  0  0  0  0
  8 21  2  0  0  0  0
  8 22  1  0  0  0  0
  9 14  1  0  0  0  0
 10 15  2  0  0  0  0
 11 14  2  0  0  0  0
 11 15  1  0  0  0  0
 11 17  1  0  0  0  0
 12 19  1  0  0  0  0
 13 20  2  0  0  0  0
 16 29  1  0  0  0  0
 17 23  1  0  0  0  0
 17 24  2  0  0  0  0
 18 19  2  0  0  0  0
 18 20  1  0  0  0  0
 18 27  1  0  0  0  0
 21 25  1  0  0  0  0
 22 26  2  0  0  0  0
 24 30  1  0  0  0  0
 25 28  2  0  0  0  0
 26 28  1  0  0  0  0
 27 32  2  0  0  0  0
 30 31  2  0  0  0  0
 32 33  1  0  0  0  0
M  END
> <PUBCHEM_COMPOUND_ID_TYPE>
0

> <PUBCHEM_TOTAL_CHARGE>
0

> <PUBCHEM_SUBSTANCE_ID>
310945097

> <PUBCHEM_SUBSTANCE_VERSION>
1

> <PUBCHEM_EXT_DATASOURCE_NAME>
4488

> <PUBCHEM_EXT_DATASOURCE_REGID>
SCHEMBL16123187

> <PUBCHEM_SUBSTANCE_COMMENT>
InChI=1S/C30H25NO2/c1-2-28(24-7-4-3-5-8-24)30(25-13-10-22(11-14-25)12-19-29(32)33)26-17-15-23(16-18-26)27-9-6-20-31-21-27/h3-21H,2H2,1H3,(H,32,33)/b19-12+,30-28+
InChIKey=VORINWPVXAVXFK-OUJXHPNBSA-N

> <PUBCHEM_SUBSTANCE_SYNONYM>
SCHEMBL16123187

> <PUBCHEM_XREF_EXT_ID>
SCHEMBL16123187

> <PUBCHEM_EXT_DATASOURCE_URL>
https://www.surechembl.org/

> <PUBCHEM_EXT_SUBSTANCE_URL>
https://www.surechembl.org/chemical/SCHEMBL16123187

> <PUBCHEM_CID_ASSOCIATIONS>
86271090  1

> <PUBCHEM_COORDINATE_TYPE>
1
3

$$$$
