310943819
  -OEChem-07211613022D

 34 38  0     1  0  0  0  0  0999 V2000
    2.4860    0.7578    0.0000 O   0  0  0  0  0  0  0  0  0  0  0  0
    2.1698   -2.1207    0.0000 O   0  0  0  0  0  0  0  0  0  0  0  0
    5.3973    0.6924    0.0000 O   0  0  0  0  0  0  0  0  0  0  0  0
    5.0920    2.1207    0.0000 O   0  0  0  0  0  0  0  0  0  0  0  0
   -1.2648   -1.6301    0.0000 O   0  0  0  0  0  0  0  0  0  0  0  0
    3.5110   -0.2671    0.0000 N   0  0  0  0  0  0  0  0  0  0  0  0
    0.4797   -0.6814    0.0000 N   0  0  3  0  0  0  0  0  0  0  0  0
   -4.0998    0.8232    0.0000 N   0  0  0  0  0  0  0  0  0  0  0  0
   -3.3910   -0.4089    0.0000 N   0  0  0  0  0  0  0  0  0  0  0  0
   -4.1870    1.6301    0.0000 N   0  0  0  0  0  0  0  0  0  0  0  0
   -4.9829    1.8046    0.0000 N   0  0  0  0  0  0  0  0  0  0  0  0
   -5.3973    1.0958    0.0000 N   0  0  0  0  0  0  0  0  0  0  0  0
    2.1916   -0.6706    0.0000 C   0  0  3  0  0  0  0  0  0  0  0  0
    2.7041   -0.0164    0.0000 C   0  0  0  0  0  0  0  0  0  0  0  0
    1.7555   -1.4120    0.0000 C   0  0  3  0  0  0  0  0  0  0  0  0
    2.7477   -1.3575    0.0000 C   0  0  0  0  0  0  0  0  0  0  0  0
    4.1652    0.2344    0.0000 C   0  0  0  0  0  0  0  0  0  0  0  0
    1.7664    0.0600    0.0000 C   0  0  0  0  0  0  0  0  0  0  0  0
    3.5328   -1.1613    0.0000 C   0  0  0  0  0  0  0  0  0  0  0  0
    0.9050   -1.4011    0.0000 C   0  0  0  0  0  0  0  0  0  0  0  0
    4.1325    1.0522    0.0000 C   0  0  0  0  0  0  0  0  0  0  0  0
    0.9159    0.0708    0.0000 C   0  0  0  0  0  0  0  0  0  0  0  0
    4.9612    0.0272    0.0000 C   0  0  0  0  0  0  0  0  0  0  0  0
    4.8739    1.3139    0.0000 C   0  0  0  0  0  0  0  0  0  0  0  0
   -0.5560   -0.3980    0.0000 C   0  0  0  0  0  0  0  0  0  0  0  0
   -1.2539   -0.8014    0.0000 C   0  0  3  0  0  0  0  0  0  0  0  0
    3.4346    1.5101    0.0000 C   0  0  0  0  0  0  0  0  0  0  0  0
   -1.9736   -0.3871    0.0000 C   0  0  0  0  0  0  0  0  0  0  0  0
    2.9985   -2.0990    0.0000 C   0  0  0  0  0  0  0  0  0  0  0  0
   -3.3910    0.4307    0.0000 C   0  0  0  0  0  0  0  0  0  0  0  0
   -2.6605   -0.8014    0.0000 C   0  0  0  0  0  0  0  0  0  0  0  0
   -1.9736    0.4198    0.0000 C   0  0  0  0  0  0  0  0  0  0  0  0
   -2.6932    0.8232    0.0000 C   0  0  0  0  0  0  0  0  0  0  0  0
   -4.8303    0.4961    0.0000 C   0  0  0  0  0  0  0  0  0  0  0  0
  1 14  2  0  0  0  0
  2 15  1  0  0  0  0
  2 29  1  0  0  0  0
  3 23  1  0  0  0  0
  3 24  1  0  0  0  0
  4 24  2  0  0  0  0
 26  5  1  6  0  0  0
  6 14  1  0  0  0  0
  6 17  1  0  0  0  0
  6 19  1  0  0  0  0
  7 20  1  0  0  0  0
  7 22  1  0  0  0  0
  7 25  1  0  0  0  0
  8 10  1  0  0  0  0
  8 30  1  0  0  0  0
  8 34  1  0  0  0  0
  9 30  2  0  0  0  0
  9 31  1  0  0  0  0
 10 11  2  0  0  0  0
 11 12  1  0  0  0  0
 12 34  2  0  0  0  0
 13 14  1  0  0  0  0
 13 15  1  0  0  0  0
 13 16  1  0  0  0  0
 13 18  1  0  0  0  0
 15 20  1  0  0  0  0
 16 19  1  0  0  0  0
 17 21  2  0  0  0  0
 17 23  1  0  0  0  0
 18 22  1  0  0  0  0
 21 24  1  0  0  0  0
 21 27  1  0  0  0  0
 25 26  1  0  0  0  0
 26 28  1  0  0  0  0
 28 31  2  0  0  0  0
 28 32  1  0  0  0  0
 30 33  1  0  0  0  0
 32 33  2  0  0  0  0
M  END
> <PUBCHEM_COMPOUND_ID_TYPE>
0

> <PUBCHEM_TOTAL_CHARGE>
0

> <PUBCHEM_SUBSTANCE_ID>
310943819

> <PUBCHEM_SUBSTANCE_VERSION>
1

> <PUBCHEM_EXT_DATASOURCE_NAME>
4488

> <PUBCHEM_EXT_DATASOURCE_REGID>
SCHEMBL16121890

> <PUBCHEM_SUBSTANCE_COMMENT>
InChI=1S/C22H27N7O5/c1-14-16(12-34-20(14)31)28-8-6-22(21(28)32)5-7-27(11-18(22)33-2)10-17(30)15-3-4-19(23-9-15)29-13-24-25-26-29/h3-4,9,13,17-18,30H,5-8,10-12H2,1-2H3/t17-,18?,22?/m0/s1
InChIKey=LWWABFSKLRUTGY-LYGNXSNRSA-N

> <PUBCHEM_SUBSTANCE_SYNONYM>
SCHEMBL16121890

> <PUBCHEM_XREF_EXT_ID>
SCHEMBL16121890

> <PUBCHEM_EXT_DATASOURCE_URL>
https://www.surechembl.org/

> <PUBCHEM_EXT_SUBSTANCE_URL>
https://www.surechembl.org/chemical/SCHEMBL16121890

> <PUBCHEM_CID_ASSOCIATIONS>
86270788  1

> <PUBCHEM_COORDINATE_TYPE>
1
3

> <PUBCHEM_BONDANNOTATIONS>
26  5  6

$$$$
