310941978
  -OEChem-07211613022D

 21 24  0     0  0  0  0  0  0999 V2000
    2.4362    1.4894    0.0000 S   0  0  0  0  0  0  0  0  0  0  0  0
   -0.7574   -0.7321    0.0000 N   0  0  0  0  0  0  0  0  0  0  0  0
    1.4516    2.3984    0.0000 N   0  0  0  0  0  0  0  0  0  0  0  0
    2.1712    2.8149    0.0000 N   0  0  0  0  0  0  0  0  0  0  0  0
   -0.3282    0.5554    0.0000 C   0  0  0  0  0  0  0  0  0  0  0  0
   -0.0757   -0.2146    0.0000 C   0  0  0  0  0  0  0  0  0  0  0  0
   -1.1613    0.5806    0.0000 C   0  0  0  0  0  0  0  0  0  0  0  0
   -1.4516   -0.2146    0.0000 C   0  0  0  0  0  0  0  0  0  0  0  0
    0.2272    1.1487    0.0000 C   0  0  0  0  0  0  0  0  0  0  0  0
    1.0351    0.9846    0.0000 C   0  0  0  0  0  0  0  0  0  0  0  0
    0.7321   -0.4165    0.0000 C   0  0  0  0  0  0  0  0  0  0  0  0
   -1.7040    1.1866    0.0000 C   0  0  0  0  0  0  0  0  0  0  0  0
    1.2875    0.1767    0.0000 C   0  0  0  0  0  0  0  0  0  0  0  0
   -2.2343   -0.3787    0.0000 C   0  0  0  0  0  0  0  0  0  0  0  0
    1.6031    1.6157    0.0000 C   0  0  0  0  0  0  0  0  0  0  0  0
   -0.7701   -1.5652    0.0000 C   0  0  0  0  0  0  0  0  0  0  0  0
   -2.5120    1.0225    0.0000 C   0  0  0  0  0  0  0  0  0  0  0  0
   -2.7770    0.2272    0.0000 C   0  0  0  0  0  0  0  0  0  0  0  0
   -1.4894   -1.9691    0.0000 C   0  0  0  0  0  0  0  0  0  0  0  0
    2.7770    2.2595    0.0000 C   0  0  0  0  0  0  0  0  0  0  0  0
   -1.5021   -2.8149    0.0000 C   0  0  0  0  0  0  0  0  0  0  0  0
  1 15  1  0  0  0  0
  1 20  1  0  0  0  0
  2  6  1  0  0  0  0
  2  8  1  0  0  0  0
  2 16  1  0  0  0  0
  3  4  1  0  0  0  0
  3 15  2  0  0  0  0
  4 20  2  0  0  0  0
  5  6  2  0  0  0  0
  5  7  1  0  0  0  0
  5  9  1  0  0  0  0
  6 11  1  0  0  0  0
  7  8  2  0  0  0  0
  7 12  1  0  0  0  0
  8 14  1  0  0  0  0
  9 10  2  0  0  0  0
 10 13  1  0  0  0  0
 10 15  1  0  0  0  0
 11 13  2  0  0  0  0
 12 17  2  0  0  0  0
 14 18  2  0  0  0  0
 16 19  1  0  0  0  0
 17 18  1  0  0  0  0
 19 21  1  0  0  0  0
M  END
> <PUBCHEM_COMPOUND_ID_TYPE>
0

> <PUBCHEM_TOTAL_CHARGE>
0

> <PUBCHEM_SUBSTANCE_ID>
310941978

> <PUBCHEM_SUBSTANCE_VERSION>
1

> <PUBCHEM_EXT_DATASOURCE_NAME>
4488

> <PUBCHEM_EXT_DATASOURCE_REGID>
SCHEMBL16120012

> <PUBCHEM_SUBSTANCE_COMMENT>
InChI=1S/C17H15N3S/c1-2-9-20-15-6-4-3-5-13(15)14-10-12(7-8-16(14)20)17-19-18-11-21-17/h3-8,10-11H,2,9H2,1H3
InChIKey=UFUQVYIETIVEMA-UHFFFAOYSA-N

> <PUBCHEM_SUBSTANCE_SYNONYM>
SCHEMBL16120012

> <PUBCHEM_XREF_EXT_ID>
SCHEMBL16120012

> <PUBCHEM_EXT_DATASOURCE_URL>
https://www.surechembl.org/

> <PUBCHEM_EXT_SUBSTANCE_URL>
https://www.surechembl.org/chemical/SCHEMBL16120012

> <PUBCHEM_CID_ASSOCIATIONS>
86271149  1

> <PUBCHEM_COORDINATE_TYPE>
1
3

$$$$
