310933391
  -OEChem-07211613022D

 31 35  0     0  0  0  0  0  0999 V2000
    0.4401   -1.6776    0.0000 F   0  0  0  0  0  0  0  0  0  0  0  0
    1.6776   -2.3927    0.0000 F   0  0  0  0  0  0  0  0  0  0  0  0
    0.8251   -0.9626    0.0000 F   0  0  0  0  0  0  0  0  0  0  0  0
    0.0000   -4.4278    0.0000 O   0  0  0  0  0  0  0  0  0  0  0  0
    5.5004   -3.3002    0.0000 O   0  0  0  0  0  0  0  0  0  0  0  0
    4.1803   -2.6402    0.0000 N   0  0  0  0  0  0  0  0  0  0  0  0
    4.1803   -3.9603    0.0000 N   0  0  0  0  0  0  0  0  0  0  0  0
    2.6677   -0.0275    0.0000 N   0  0  0  0  0  0  0  0  0  0  0  0
    0.3850   -5.1429    0.0000 N   0  0  0  0  0  0  0  0  0  0  0  0
    2.6677   -1.6501    0.0000 C   0  0  0  0  0  0  0  0  0  0  0  0
    2.6952   -2.4752    0.0000 C   0  0  0  0  0  0  0  0  0  0  0  0
    3.4102   -2.8602    0.0000 C   0  0  0  0  0  0  0  0  0  0  0  0
    1.9526   -1.2651    0.0000 C   0  0  0  0  0  0  0  0  0  0  0  0
    3.3827   -1.2376    0.0000 C   0  0  0  0  0  0  0  0  0  0  0  0
    3.4102   -3.7402    0.0000 C   0  0  0  0  0  0  0  0  0  0  0  0
    2.0076   -3.7402    0.0000 C   0  0  0  0  0  0  0  0  0  0  0  0
    2.0076   -2.8602    0.0000 C   0  0  0  0  0  0  0  0  0  0  0  0
    1.2926   -4.1253    0.0000 C   0  0  0  0  0  0  0  0  0  0  0  0
    3.3827   -0.4125    0.0000 C   0  0  0  0  0  0  0  0  0  0  0  0
    1.2376   -1.6776    0.0000 C   0  0  0  0  0  0  0  0  0  0  0  0
    2.6952   -4.1253    0.0000 C   0  0  0  0  0  0  0  0  0  0  0  0
    1.9526   -0.4401    0.0000 C   0  0  0  0  0  0  0  0  0  0  0  0
    4.6754   -3.3002    0.0000 C   0  0  0  0  0  0  0  0  0  0  0  0
    0.5226   -3.8228    0.0000 C   0  0  0  0  0  0  0  0  0  0  0  0
    1.2101   -4.9504    0.0000 C   0  0  0  0  0  0  0  0  0  0  0  0
    4.0703   -1.6501    0.0000 C   0  0  0  0  0  0  0  0  0  0  0  0
    4.0703    0.0000    0.0000 C   0  0  0  0  0  0  0  0  0  0  0  0
    4.7854   -1.2101    0.0000 C   0  0  0  0  0  0  0  0  0  0  0  0
    4.7854   -0.4125    0.0000 C   0  0  0  0  0  0  0  0  0  0  0  0
    0.3575   -3.0252    0.0000 C   0  0  0  0  0  0  0  0  0  0  0  0
    1.8151   -5.5004    0.0000 C   0  0  0  0  0  0  0  0  0  0  0  0
  1 20  1  0  0  0  0
  2 20  1  0  0  0  0
  3 20  1  0  0  0  0
  4  9  1  0  0  0  0
  4 24  1  0  0  0  0
  5 23  2  0  0  0  0
  6 12  1  0  0  0  0
  6 23  1  0  0  0  0
  7 15  1  0  0  0  0
  7 23  1  0  0  0  0
  8 19  2  0  0  0  0
  8 22  1  0  0  0  0
  9 25  2  0  0  0  0
 10 11  1  0  0  0  0
 10 13  1  0  0  0  0
 10 14  2  0  0  0  0
 11 12  1  0  0  0  0
 11 17  2  0  0  0  0
 12 15  2  0  0  0  0
 13 20  1  0  0  0  0
 13 22  2  0  0  0  0
 14 19  1  0  0  0  0
 14 26  1  0  0  0  0
 15 21  1  0  0  0  0
 16 17  1  0  0  0  0
 16 18  1  0  0  0  0
 16 21  2  0  0  0  0
 18 24  2  0  0  0  0
 18 25  1  0  0  0  0
 19 27  1  0  0  0  0
 24 30  1  0  0  0  0
 25 31  1  0  0  0  0
 26 28  2  0  0  0  0
 27 29  2  0  0  0  0
 28 29  1  0  0  0  0
M  END
> <PUBCHEM_COMPOUND_ID_TYPE>
0

> <PUBCHEM_TOTAL_CHARGE>
0

> <PUBCHEM_SUBSTANCE_ID>
310933391

> <PUBCHEM_SUBSTANCE_VERSION>
1

> <PUBCHEM_EXT_DATASOURCE_NAME>
4488

> <PUBCHEM_EXT_DATASOURCE_REGID>
SCHEMBL16110807

> <PUBCHEM_SUBSTANCE_COMMENT>
InChI=1S/C22H15F3N4O2/c1-10-18(11(2)31-29-10)12-7-14(20-17(8-12)27-21(30)28-20)19-13-5-3-4-6-16(13)26-9-15(19)22(23,24)25/h3-9H,1-2H3,(H2,27,28,30)
InChIKey=MAKWJGUBODKFLO-UHFFFAOYSA-N

> <PUBCHEM_SUBSTANCE_SYNONYM>
SCHEMBL16110807

> <PUBCHEM_XREF_EXT_ID>
SCHEMBL16110807

> <PUBCHEM_EXT_DATASOURCE_URL>
https://www.surechembl.org/

> <PUBCHEM_EXT_SUBSTANCE_URL>
https://www.surechembl.org/chemical/SCHEMBL16110807

> <PUBCHEM_CID_ASSOCIATIONS>
117601802  1

> <PUBCHEM_COORDINATE_TYPE>
1
3

$$$$
