310947123
  -OEChem-07211613022D

 40 43  0     1  0  0  0  0  0999 V2000
    2.1435   -4.6680    0.0000 F   0  0  0  0  0  0  0  0  0  0  0  0
    3.4722   -4.1365    0.0000 F   0  0  0  0  0  0  0  0  0  0  0  0
    2.9585   -4.7743    0.0000 F   0  0  0  0  0  0  0  0  0  0  0  0
   -2.0904    1.2135    0.0000 O   0  0  0  0  0  0  0  0  0  0  0  0
   -2.6927   -3.0028    0.0000 O   0  0  0  0  0  0  0  0  0  0  0  0
   -1.1515    3.1799    0.0000 O   0  0  0  0  0  0  0  0  0  0  0  0
   -2.5333    2.7902    0.0000 O   0  0  0  0  0  0  0  0  0  0  0  0
    2.8522   -2.5953    0.0000 O   0  0  0  0  0  0  0  0  0  0  0  0
   -1.2932   -0.6112    0.0000 N   0  0  0  0  0  0  0  0  0  0  0  0
   -0.7617   -1.2843    0.0000 N   0  0  0  0  0  0  0  0  0  0  0  0
   -0.9389   -2.7724    0.0000 N   0  0  0  0  0  0  0  0  0  0  0  0
   -3.4545   -1.7804    0.0000 N   0  0  0  0  0  0  0  0  0  0  0  0
    1.0984    0.0443    0.0000 N   0  0  0  0  0  0  0  0  0  0  0  0
   -1.0984    0.1860    0.0000 C   0  0  3  0  0  0  0  0  0  0  0  0
   -2.0372   -0.9123    0.0000 C   0  0  0  0  0  0  0  0  0  0  0  0
   -2.0195   -1.7273    0.0000 C   0  0  0  0  0  0  0  0  0  0  0  0
   -1.2400   -2.0107    0.0000 C   0  0  0  0  0  0  0  0  0  0  0  0
   -2.7104   -2.1524    0.0000 C   0  0  0  0  0  0  0  0  0  0  0  0
   -1.9310    0.3986    0.0000 C   0  0  0  0  0  0  0  0  0  0  0  0
   -0.5137    0.7529    0.0000 C   0  0  0  0  0  0  0  0  0  0  0  0
   -2.7813   -0.5226    0.0000 C   0  0  0  0  0  0  0  0  0  0  0  0
   -0.5137   -0.4163    0.0000 C   0  0  0  0  0  0  0  0  0  0  0  0
   -1.5412    1.7981    0.0000 C   0  0  3  0  0  0  0  0  0  0  0  0
   -0.6732    1.5678    0.0000 C   0  0  0  0  0  0  0  0  0  0  0  0
   -3.4722   -0.9478    0.0000 C   0  0  0  0  0  0  0  0  0  0  0  0
   -0.1240   -2.8964    0.0000 C   0  0  0  0  0  0  0  0  0  0  0  0
   -1.7183    2.5776    0.0000 C   0  0  0  0  0  0  0  0  0  0  0  0
    0.2834   -0.2037    0.0000 C   0  0  0  0  0  0  0  0  0  0  0  0
    0.1949   -3.6582    0.0000 C   0  0  0  0  0  0  0  0  0  0  0  0
    0.4074   -2.2587    0.0000 C   0  0  0  0  0  0  0  0  0  0  0  0
    1.5058   -3.1267    0.0000 C   0  0  0  0  0  0  0  0  0  0  0  0
    2.3561   -3.2685    0.0000 C   0  0  3  0  0  0  0  0  0  0  0  0
    1.0275   -3.7645    0.0000 C   0  0  0  0  0  0  0  0  0  0  0  0
    1.2224   -2.3650    0.0000 C   0  0  0  0  0  0  0  0  0  0  0  0
    2.6573   -4.0125    0.0000 C   0  0  0  0  0  0  0  0  0  0  0  0
   -1.3818    3.9948    0.0000 C   0  0  0  0  0  0  0  0  0  0  0  0
   -1.5767    4.7743    0.0000 C   0  0  0  0  0  0  0  0  0  0  0  0
   -2.1790    4.1542    0.0000 C   0  0  0  0  0  0  0  0  0  0  0  0
   -0.7795    4.5262    0.0000 C   0  0  0  0  0  0  0  0  0  0  0  0
    2.5333   -1.8335    0.0000 C   0  0  0  0  0  0  0  0  0  0  0  0
  1 35  1  0  0  0  0
  2 35  1  0  0  0  0
  3 35  1  0  0  0  0
  4 19  1  0  0  0  0
  4 23  1  0  0  0  0
  5 18  2  0  0  0  0
  6 27  1  0  0  0  0
  6 36  1  0  0  0  0
  7 27  2  0  0  0  0
 32  8  1  6  0  0  0
  8 40  1  0  0  0  0
  9 10  1  0  0  0  0
  9 14  1  0  0  0  0
  9 15  1  0  0  0  0
 10 17  2  0  0  0  0
 11 17  1  0  0  0  0
 11 26  1  0  0  0  0
 12 18  1  0  0  0  0
 12 25  1  0  0  0  0
 13 28  3  0  0  0  0
 14 19  1  0  0  0  0
 14 20  1  0  0  0  0
 14 22  1  6  0  0  0
 15 16  2  0  0  0  0
 15 21  1  0  0  0  0
 16 17  1  0  0  0  0
 16 18  1  0  0  0  0
 20 24  1  0  0  0  0
 21 25  2  0  0  0  0
 22 28  1  0  0  0  0
 23 24  1  0  0  0  0
 23 27  1  6  0  0  0
 26 29  2  0  0  0  0
 26 30  1  0  0  0  0
 29 33  1  0  0  0  0
 30 34  2  0  0  0  0
 31 32  1  0  0  0  0
 31 33  2  0  0  0  0
 31 34  1  0  0  0  0
 32 35  1  0  0  0  0
 36 37  1  0  0  0  0
 36 38  1  0  0  0  0
 36 39  1  0  0  0  0
M  END
> <PUBCHEM_COMPOUND_ID_TYPE>
0

> <PUBCHEM_TOTAL_CHARGE>
0

> <PUBCHEM_SUBSTANCE_ID>
310947123

> <PUBCHEM_SUBSTANCE_VERSION>
1

> <PUBCHEM_EXT_DATASOURCE_NAME>
4488

> <PUBCHEM_EXT_DATASOURCE_REGID>
SCHEMBL16125277

> <PUBCHEM_SUBSTANCE_COMMENT>
InChI=1S/C27H30F3N5O5/c1-25(2,3)40-24(37)19-9-11-26(12-13-31,15-39-19)35-18-10-14-32-23(36)20(18)22(34-35)33-17-7-5-16(6-8-17)21(38-4)27(28,29)30/h5-8,10,14,19,21H,9,11-12,15H2,1-4H3,(H,32,36)(H,33,34)/t19-,21-,26-/m0/s1
InChIKey=WFMQVPRFASCYTH-ZVOVDXHFSA-N

> <PUBCHEM_SUBSTANCE_SYNONYM>
SCHEMBL16125277

> <PUBCHEM_XREF_EXT_ID>
SCHEMBL16125277

> <PUBCHEM_EXT_DATASOURCE_URL>
https://www.surechembl.org/

> <PUBCHEM_EXT_SUBSTANCE_URL>
https://www.surechembl.org/chemical/SCHEMBL16125277

> <PUBCHEM_CID_ASSOCIATIONS>
117612971  1

> <PUBCHEM_COORDINATE_TYPE>
1
3

> <PUBCHEM_BONDANNOTATIONS>
14  22  6
23  27  6
32  8  6

$$$$
