310945082
  -OEChem-07211613022D

 33 36  0     0  0  0  0  0  0999 V2000
    3.8640   -2.0426    0.0000 O   0  0  0  0  0  0  0  0  0  0  0  0
    4.5891   -0.7692    0.0000 O   0  0  0  0  0  0  0  0  0  0  0  0
   -4.1823   -2.2017    0.0000 N   0  0  0  0  0  0  0  0  0  0  0  0
   -4.5891   -1.4590    0.0000 N   0  0  0  0  0  0  0  0  0  0  0  0
   -0.4332    0.4863    0.0000 C   0  0  0  0  0  0  0  0  0  0  0  0
   -1.1407    0.0619    0.0000 C   0  0  0  0  0  0  0  0  0  0  0  0
   -0.4156    1.3352    0.0000 C   0  0  0  0  0  0  0  0  0  0  0  0
    0.2918    0.0619    0.0000 C   0  0  0  0  0  0  0  0  0  0  0  0
   -2.5908   -0.7870    0.0000 C   0  0  0  0  0  0  0  0  0  0  0  0
    0.2918    1.7596    0.0000 C   0  0  0  0  0  0  0  0  0  0  0  0
   -1.8657    0.4687    0.0000 C   0  0  0  0  0  0  0  0  0  0  0  0
   -1.1583   -0.7870    0.0000 C   0  0  0  0  0  0  0  0  0  0  0  0
   -3.2805   -1.1937    0.0000 C   0  0  0  0  0  0  0  0  0  0  0  0
   -2.5554    0.0619    0.0000 C   0  0  0  0  0  0  0  0  0  0  0  0
   -1.8480   -1.1937    0.0000 C   0  0  0  0  0  0  0  0  0  0  0  0
    0.2918   -0.7870    0.0000 C   0  0  0  0  0  0  0  0  0  0  0  0
    0.9992    0.4687    0.0000 C   0  0  0  0  0  0  0  0  0  0  0  0
   -1.1407    1.7596    0.0000 C   0  0  0  0  0  0  0  0  0  0  0  0
    1.7066   -0.7692    0.0000 C   0  0  0  0  0  0  0  0  0  0  0  0
   -3.3866   -2.0426    0.0000 C   0  0  0  0  0  0  0  0  0  0  0  0
    0.9992   -1.1937    0.0000 C   0  0  0  0  0  0  0  0  0  0  0  0
    1.7066    0.0619    0.0000 C   0  0  0  0  0  0  0  0  0  0  0  0
    0.9992    1.3352    0.0000 C   0  0  0  0  0  0  0  0  0  0  0  0
    0.3094    2.5908    0.0000 C   0  0  0  0  0  0  0  0  0  0  0  0
   -4.0409   -0.8753    0.0000 C   0  0  0  0  0  0  0  0  0  0  0  0
    1.7066    1.7419    0.0000 C   0  0  0  0  0  0  0  0  0  0  0  0
    0.9992    2.9975    0.0000 C   0  0  0  0  0  0  0  0  0  0  0  0
    2.4670   -1.1937    0.0000 C   0  0  0  0  0  0  0  0  0  0  0  0
   -1.1407    2.6085    0.0000 C   0  0  0  0  0  0  0  0  0  0  0  0
    1.7066    2.5908    0.0000 C   0  0  0  0  0  0  0  0  0  0  0  0
   -4.5360   -2.9975    0.0000 C   0  0  0  0  0  0  0  0  0  0  0  0
    3.1390   -0.7870    0.0000 C   0  0  0  0  0  0  0  0  0  0  0  0
    3.8640   -1.1760    0.0000 C   0  0  0  0  0  0  0  0  0  0  0  0
  1 33  2  0  0  0  0
  2 33  1  0  0  0  0
  3  4  1  0  0  0  0
  3 20  1  0  0  0  0
  3 31  1  0  0  0  0
  4 25  2  0  0  0  0
  5  6  1  0  0  0  0
  5  7  2  0  0  0  0
  5  8  1  0  0  0  0
  6 11  2  0  0  0  0
  6 12  1  0  0  0  0
  7 10  1  0  0  0  0
  7 18  1  0  0  0  0
  8 16  2  0  0  0  0
  8 17  1  0  0  0  0
  9 13  1  0  0  0  0
  9 14  2  0  0  0  0
  9 15  1  0  0  0  0
 10 23  2  0  0  0  0
 10 24  1  0  0  0  0
 11 14  1  0  0  0  0
 12 15  2  0  0  0  0
 13 20  2  0  0  0  0
 13 25  1  0  0  0  0
 16 21  1  0  0  0  0
 17 22  2  0  0  0  0
 18 29  1  0  0  0  0
 19 21  2  0  0  0  0
 19 22  1  0  0  0  0
 19 28  1  0  0  0  0
 23 26  1  0  0  0  0
 24 27  2  0  0  0  0
 26 30  2  0  0  0  0
 27 30  1  0  0  0  0
 28 32  2  0  0  0  0
 32 33  1  0  0  0  0
M  END
> <PUBCHEM_COMPOUND_ID_TYPE>
0

> <PUBCHEM_TOTAL_CHARGE>
0

> <PUBCHEM_SUBSTANCE_ID>
310945082

> <PUBCHEM_SUBSTANCE_VERSION>
1

> <PUBCHEM_EXT_DATASOURCE_NAME>
4488

> <PUBCHEM_EXT_DATASOURCE_REGID>
SCHEMBL16123172

> <PUBCHEM_SUBSTANCE_COMMENT>
InChI=1S/C29H26N2O2/c1-3-27(23-7-5-4-6-8-23)29(24-12-9-21(10-13-24)11-18-28(32)33)25-16-14-22(15-17-25)26-19-30-31(2)20-26/h4-20H,3H2,1-2H3,(H,32,33)/b18-11+,29-27+
InChIKey=GRUHCIMMJIKBLQ-KUJLGXCKSA-N

> <PUBCHEM_SUBSTANCE_SYNONYM>
SCHEMBL16123172

> <PUBCHEM_XREF_EXT_ID>
SCHEMBL16123172

> <PUBCHEM_EXT_DATASOURCE_URL>
https://www.surechembl.org/

> <PUBCHEM_EXT_SUBSTANCE_URL>
https://www.surechembl.org/chemical/SCHEMBL16123172

> <PUBCHEM_CID_ASSOCIATIONS>
86271281  1

> <PUBCHEM_COORDINATE_TYPE>
1
3

$$$$
