310939468
  -OEChem-07211613022D

 28 29  0     0  0  0  0  0  0999 V2000
   -0.4799   14.4617    0.0000 O   0  0  0  0  0  0  0  0  0  0  0  0
   -3.3377   13.6367    0.0000 O   0  0  0  0  0  0  0  0  0  0  0  0
   -0.4799   11.1617    0.0000 O   0  0  0  0  0  0  0  0  0  0  0  0
    0.9491   16.9367    0.0000 O   0  0  0  0  0  0  0  0  0  0  0  0
    2.3780   16.1117    0.0000 O   0  0  0  0  0  0  0  0  0  0  0  0
    1.6636   15.6992    0.0000 N   0  0  0  0  0  0  0  0  0  0  0  0
   -1.1943   14.8742    0.0000 C   0  0  0  0  0  0  0  0  0  0  0  0
   -1.9088   14.4617    0.0000 C   0  0  0  0  0  0  0  0  0  0  0  0
   -1.1943   15.6992    0.0000 C   0  0  0  0  0  0  0  0  0  0  0  0
   -2.6233   14.8742    0.0000 C   0  0  0  0  0  0  0  0  0  0  0  0
   -1.9088   16.1117    0.0000 C   0  0  0  0  0  0  0  0  0  0  0  0
   -2.6233   15.6992    0.0000 C   0  0  0  0  0  0  0  0  0  0  0  0
   -0.4799   13.6367    0.0000 C   0  0  0  0  0  0  0  0  0  0  0  0
   -1.9088   13.6367    0.0000 C   0  0  0  0  0  0  0  0  0  0  0  0
   -0.4799   16.1117    0.0000 C   0  0  0  0  0  0  0  0  0  0  0  0
   -3.3377   14.4617    0.0000 C   0  0  0  0  0  0  0  0  0  0  0  0
   -1.1943   13.2242    0.0000 C   0  0  0  0  0  0  0  0  0  0  0  0
    0.2346   13.2242    0.0000 C   0  0  0  0  0  0  0  0  0  0  0  0
   -0.4799   11.9867    0.0000 C   0  0  0  0  0  0  0  0  0  0  0  0
   -2.6233   13.2242    0.0000 C   0  0  0  0  0  0  0  0  0  0  0  0
    0.2346   15.6992    0.0000 C   0  0  0  0  0  0  0  0  0  0  0  0
   -1.1943   12.3992    0.0000 C   0  0  0  0  0  0  0  0  0  0  0  0
    0.2346   12.3992    0.0000 C   0  0  0  0  0  0  0  0  0  0  0  0
    0.9491   16.1117    0.0000 C   0  0  0  0  0  0  0  0  0  0  0  0
   -2.6233   12.3992    0.0000 C   0  0  0  0  0  0  0  0  0  0  0  0
   -3.3377   11.9867    0.0000 C   0  0  0  0  0  0  0  0  0  0  0  0
   -1.9088   11.9867    0.0000 C   0  0  0  0  0  0  0  0  0  0  0  0
    0.2346   10.7492    0.0000 C   0  0  0  0  0  0  0  0  0  0  0  0
  1  7  1  0  0  0  0
  1 13  1  0  0  0  0
  2 16  1  0  0  0  0
  3 19  1  0  0  0  0
  3 28  1  0  0  0  0
  4 24  2  0  0  0  0
  5  6  1  0  0  0  0
  6 24  1  0  0  0  0
  7  8  2  0  0  0  0
  7  9  1  0  0  0  0
  8 10  1  0  0  0  0
  8 14  1  0  0  0  0
  9 11  2  0  0  0  0
  9 15  1  0  0  0  0
 10 12  2  0  0  0  0
 10 16  1  0  0  0  0
 11 12  1  0  0  0  0
 13 17  2  0  0  0  0
 13 18  1  0  0  0  0
 14 20  1  0  0  0  0
 15 21  2  0  0  0  0
 17 22  1  0  0  0  0
 18 23  2  0  0  0  0
 19 22  2  0  0  0  0
 19 23  1  0  0  0  0
 20 25  2  0  0  0  0
 21 24  1  0  0  0  0
 25 26  1  0  0  0  0
 25 27  1  0  0  0  0
M  END
> <PUBCHEM_COMPOUND_ID_TYPE>
0

> <PUBCHEM_TOTAL_CHARGE>
0

> <PUBCHEM_SUBSTANCE_ID>
310939468

> <PUBCHEM_SUBSTANCE_VERSION>
1

> <PUBCHEM_EXT_DATASOURCE_NAME>
4488

> <PUBCHEM_EXT_DATASOURCE_REGID>
SCHEMBL16117395

> <PUBCHEM_SUBSTANCE_COMMENT>
InChI=1S/C22H25NO5/c1-15(2)4-12-20-17(14-24)6-5-16(7-13-21(25)23-26)22(20)28-19-10-8-18(27-3)9-11-19/h4-11,13,24,26H,12,14H2,1-3H3,(H,23,25)/b13-7+
InChIKey=TUIFXTRFPFDWGA-NTUHNPAUSA-N

> <PUBCHEM_SUBSTANCE_SYNONYM>
SCHEMBL16117395

> <PUBCHEM_XREF_EXT_ID>
SCHEMBL16117395

> <PUBCHEM_EXT_DATASOURCE_URL>
https://www.surechembl.org/

> <PUBCHEM_EXT_SUBSTANCE_URL>
https://www.surechembl.org/chemical/SCHEMBL16117395

> <PUBCHEM_CID_ASSOCIATIONS>
117606782  1

> <PUBCHEM_COORDINATE_TYPE>
1
3

$$$$
