310932022
  -OEChem-07211613022D

 33 37  0     1  0  0  0  0  0999 V2000
    3.2947   -4.2317    0.0000 S   0  0  0  0  0  0  0  0  0  0  0  0
    0.0302   -1.2997    0.0000 F   0  0  0  0  0  0  0  0  0  0  0  0
    1.6927   -1.3300    0.0000 O   0  0  0  0  0  0  0  0  0  0  0  0
    0.0000   -4.1108    0.0000 O   0  0  0  0  0  0  0  0  0  0  0  0
    4.9572    0.0000    0.0000 O   0  0  0  0  0  0  0  0  0  0  0  0
    8.6750   -0.6952    0.0000 O   0  0  0  0  0  0  0  0  0  0  0  0
    2.0856   -3.5063    0.0000 N   0  0  0  0  0  0  0  0  0  0  0  0
    4.9572   -1.4206    0.0000 N   0  0  0  0  0  0  0  0  0  0  0  0
    2.0252   -4.8967    0.0000 N   0  0  0  0  0  0  0  0  0  0  0  0
    6.6196   -1.4206    0.0000 N   0  0  0  0  0  0  0  0  0  0  0  0
    7.4055    0.0000    0.0000 N   0  0  0  0  0  0  0  0  0  0  0  0
    2.4786   -2.7808    0.0000 C   0  0  3  0  0  0  0  0  0  0  0  0
    1.6624   -2.7808    0.0000 C   0  0  0  0  0  0  0  0  0  0  0  0
    2.9319   -2.0856    0.0000 C   0  0  0  0  0  0  0  0  0  0  0  0
    1.2695   -2.0554    0.0000 C   0  0  0  0  0  0  0  0  0  0  0  0
    2.5390   -1.3602    0.0000 C   0  0  0  0  0  0  0  0  0  0  0  0
    3.3249   -2.8413    0.0000 C   0  0  0  0  0  0  0  0  0  0  0  0
    3.7481   -2.0856    0.0000 C   0  0  0  0  0  0  0  0  0  0  0  0
    1.2090   -3.4760    0.0000 C   0  0  0  0  0  0  0  0  0  0  0  0
    0.4231   -2.0252    0.0000 C   0  0  0  0  0  0  0  0  0  0  0  0
    2.9622   -0.6348    0.0000 C   0  0  0  0  0  0  0  0  0  0  0  0
    4.1410   -1.4206    0.0000 C   0  0  0  0  0  0  0  0  0  0  0  0
    2.4483   -4.2014    0.0000 C   0  0  0  0  0  0  0  0  0  0  0  0
    0.4231   -3.4156    0.0000 C   0  0  0  0  0  0  0  0  0  0  0  0
    0.0302   -2.7204    0.0000 C   0  0  0  0  0  0  0  0  0  0  0  0
    3.6877   -3.5365    0.0000 C   0  0  0  0  0  0  0  0  0  0  0  0
    3.7481   -0.6952    0.0000 C   0  0  0  0  0  0  0  0  0  0  0  0
    5.3501   -0.6952    0.0000 C   0  0  0  0  0  0  0  0  0  0  0  0
    6.1662   -0.6952    0.0000 C   0  0  0  0  0  0  0  0  0  0  0  0
    6.6196    0.0000    0.0000 C   0  0  0  0  0  0  0  0  0  0  0  0
    7.8589   -0.6952    0.0000 C   0  0  0  0  0  0  0  0  0  0  0  0
    7.4055   -1.4206    0.0000 C   0  0  0  0  0  0  0  0  0  0  0  0
    9.0679    0.0000    0.0000 C   0  0  0  0  0  0  0  0  0  0  0  0
  1 23  1  0  0  0  0
  1 26  1  0  0  0  0
  2 20  1  0  0  0  0
  3 15  1  0  0  0  0
  3 16  1  0  0  0  0
  4 24  1  0  0  0  0
  5 28  2  0  0  0  0
  6 31  1  0  0  0  0
  6 33  1  0  0  0  0
 12  7  1  6  0  0  0
  7 23  2  0  0  0  0
  8 22  1  0  0  0  0
  8 28  1  0  0  0  0
  9 23  1  0  0  0  0
 10 29  2  0  0  0  0
 10 32  1  0  0  0  0
 11 30  2  0  0  0  0
 11 31  1  0  0  0  0
 12 13  1  0  0  0  0
 12 14  1  0  0  0  0
 12 17  1  0  0  0  0
 13 15  2  0  0  0  0
 13 19  1  0  0  0  0
 14 16  2  0  0  0  0
 14 18  1  0  0  0  0
 15 20  1  0  0  0  0
 16 21  1  0  0  0  0
 17 26  1  0  0  0  0
 18 22  2  0  0  0  0
 19 24  2  0  0  0  0
 20 25  2  0  0  0  0
 21 27  2  0  0  0  0
 22 27  1  0  0  0  0
 24 25  1  0  0  0  0
 28 29  1  0  0  0  0
 29 30  1  0  0  0  0
 31 32  2  0  0  0  0
M  END
> <PUBCHEM_COMPOUND_ID_TYPE>
0

> <PUBCHEM_TOTAL_CHARGE>
0

> <PUBCHEM_SUBSTANCE_ID>
310932022

> <PUBCHEM_SUBSTANCE_VERSION>
1

> <PUBCHEM_EXT_DATASOURCE_NAME>
4488

> <PUBCHEM_EXT_DATASOURCE_REGID>
SCHEMBL16109364

> <PUBCHEM_SUBSTANCE_COMMENT>
InChI=1S/C22H18FN5O4S/c1-31-18-10-25-16(9-26-18)20(30)27-11-2-3-17-13(6-11)22(4-5-33-21(24)28-22)14-7-12(29)8-15(23)19(14)32-17/h2-3,6-10,29H,4-5H2,1H3,(H2,24,28)(H,27,30)/t22-/m0/s1
InChIKey=HJUXEBNQECCPRT-QFIPXVFZSA-N

> <PUBCHEM_SUBSTANCE_SYNONYM>
SCHEMBL16109364

> <PUBCHEM_XREF_EXT_ID>
SCHEMBL16109364

> <PUBCHEM_EXT_DATASOURCE_URL>
https://www.surechembl.org/

> <PUBCHEM_EXT_SUBSTANCE_URL>
https://www.surechembl.org/chemical/SCHEMBL16109364

> <PUBCHEM_CID_ASSOCIATIONS>
117600659  1

> <PUBCHEM_COORDINATE_TYPE>
1
3

> <PUBCHEM_BONDANNOTATIONS>
12  7  6

$$$$
