310938930
  -OEChem-07211613022D

 20 21  0     1  0  0  0  0  0999 V2000
    0.1775    0.3899    0.0000 N   0  0  0  0  0  0  0  0  0  0  0  0
   -0.9495    2.3419    0.0000 N   0  0  0  0  0  0  0  0  0  0  0  0
   -0.5370    0.8024    0.0000 C   0  0  0  0  0  0  0  0  0  0  0  0
   -0.9495    1.5169    0.0000 C   0  0  0  0  0  0  0  0  0  0  0  0
   -1.3620    0.8024    0.0000 C   0  0  0  0  0  0  0  0  0  0  0  0
   -0.2350    2.7544    0.0000 C   0  0  3  0  0  0  0  0  0  0  0  0
   -2.0765    0.3899    0.0000 C   0  0  0  0  0  0  0  0  0  0  0  0
    0.8920    0.8024    0.0000 C   0  0  0  0  0  0  0  0  0  0  0  0
    0.1775   -0.4351    0.0000 C   0  0  0  0  0  0  0  0  0  0  0  0
   -0.2350    3.5794    0.0000 C   0  0  0  0  0  0  0  0  0  0  0  0
    0.4795    3.9919    0.0000 C   0  0  0  0  0  0  0  0  0  0  0  0
    0.4795    2.3419    0.0000 C   0  0  0  0  0  0  0  0  0  0  0  0
    0.8920    1.6274    0.0000 C   0  0  0  0  0  0  0  0  0  0  0  0
   -0.5370   -0.8476    0.0000 C   0  0  0  0  0  0  0  0  0  0  0  0
    1.1939    3.5794    0.0000 C   0  0  0  0  0  0  0  0  0  0  0  0
    0.4795    4.8169    0.0000 C   0  0  0  0  0  0  0  0  0  0  0  0
    1.9084    3.9919    0.0000 C   0  0  0  0  0  0  0  0  0  0  0  0
    1.1939    5.2294    0.0000 C   0  0  0  0  0  0  0  0  0  0  0  0
    1.1939    2.7544    0.0000 C   0  0  0  0  0  0  0  0  0  0  0  0
    1.9084    4.8169    0.0000 C   0  0  0  0  0  0  0  0  0  0  0  0
  1  3  1  0  0  0  0
  1  8  1  0  0  0  0
  1  9  1  0  0  0  0
  2  4  2  0  0  0  0
  6  2  1  1  0  0  0
  3  4  1  0  0  0  0
  3  5  2  0  0  0  0
  4  5  1  0  0  0  0
  5  7  1  0  0  0  0
  6 10  1  0  0  0  0
  6 12  1  0  0  0  0
  8 13  1  0  0  0  0
  9 14  1  0  0  0  0
 10 11  1  0  0  0  0
 11 15  2  0  0  0  0
 11 16  1  0  0  0  0
 12 19  1  0  0  0  0
 15 17  1  0  0  0  0
 16 18  2  0  0  0  0
 17 20  2  0  0  0  0
 18 20  1  0  0  0  0
M  END
> <PUBCHEM_COMPOUND_ID_TYPE>
0

> <PUBCHEM_TOTAL_CHARGE>
0

> <PUBCHEM_SUBSTANCE_ID>
310938930

> <PUBCHEM_SUBSTANCE_VERSION>
1

> <PUBCHEM_EXT_DATASOURCE_NAME>
4488

> <PUBCHEM_EXT_DATASOURCE_REGID>
SCHEMBL16116849

> <PUBCHEM_SUBSTANCE_COMMENT>
InChI=1S/C18H26N2/c1-5-16(13-15-11-9-8-10-12-15)19-17-14(4)18(17)20(6-2)7-3/h8-12,16H,5-7,13H2,1-4H3/b19-17-/t16-/m1/s1
InChIKey=MEIQSTNJPBJNFM-CWFNNOHCSA-N

> <PUBCHEM_SUBSTANCE_SYNONYM>
SCHEMBL16116849

> <PUBCHEM_XREF_EXT_ID>
SCHEMBL16116849

> <PUBCHEM_EXT_DATASOURCE_URL>
https://www.surechembl.org/

> <PUBCHEM_EXT_SUBSTANCE_URL>
https://www.surechembl.org/chemical/SCHEMBL16116849

> <PUBCHEM_CID_ASSOCIATIONS>
117606327  1

> <PUBCHEM_COORDINATE_TYPE>
1
3

> <PUBCHEM_BONDANNOTATIONS>
6  2  5

$$$$
