310933952
  -OEChem-07211613022D

 19 20  0     0  0  0  0  0  0999 V2000
    0.1876    1.7850    0.0000 S   0  0  0  0  0  0  0  0  0  0  0  0
    0.7710    2.3684    0.0000 O   0  0  0  0  0  0  0  0  0  0  0  0
   -0.3958    1.2017    0.0000 O   0  0  0  0  0  0  0  0  0  0  0  0
    1.6077    1.4045    0.0000 N   0  0  0  0  0  0  0  0  0  0  0  0
    0.8007    1.2330    0.0000 C   0  0  0  0  0  0  0  0  0  0  0  0
   -0.3958    2.3684    0.0000 C   0  0  0  0  0  0  0  0  0  0  0  0
    0.7144    0.4125    0.0000 C   0  0  0  0  0  0  0  0  0  0  0  0
    1.4681    0.0770    0.0000 C   0  0  0  0  0  0  0  0  0  0  0  0
   -0.1822    3.1653    0.0000 C   0  0  0  0  0  0  0  0  0  0  0  0
   -1.1927    2.1548    0.0000 C   0  0  0  0  0  0  0  0  0  0  0  0
    2.0202    0.6901    0.0000 C   0  0  0  0  0  0  0  0  0  0  0  0
    0.0000    0.0000    0.0000 C   0  0  0  0  0  0  0  0  0  0  0  0
   -0.7656    3.7486    0.0000 C   0  0  0  0  0  0  0  0  0  0  0  0
   -1.7760    2.7382    0.0000 C   0  0  0  0  0  0  0  0  0  0  0  0
   -1.5625    3.5351    0.0000 C   0  0  0  0  0  0  0  0  0  0  0  0
   -0.7144    0.4125    0.0000 C   0  0  0  0  0  0  0  0  0  0  0  0
   -1.4290    0.0000    0.0000 C   0  0  0  0  0  0  0  0  0  0  0  0
   -2.1434    0.4125    0.0000 C   0  0  0  0  0  0  0  0  0  0  0  0
   -2.8579    0.0000    0.0000 C   0  0  0  0  0  0  0  0  0  0  0  0
  1  2  2  0  0  0  0
  1  3  2  0  0  0  0
  1  5  1  0  0  0  0
  1  6  1  0  0  0  0
  4  5  1  0  0  0  0
  4 11  1  0  0  0  0
  5  7  2  0  0  0  0
  6  9  2  0  0  0  0
  6 10  1  0  0  0  0
  7  8  1  0  0  0  0
  7 12  1  0  0  0  0
  8 11  2  0  0  0  0
  9 13  1  0  0  0  0
 10 14  2  0  0  0  0
 12 16  1  0  0  0  0
 13 15  2  0  0  0  0
 14 15  1  0  0  0  0
 16 17  1  0  0  0  0
 17 18  1  0  0  0  0
 18 19  1  0  0  0  0
M  END
> <PUBCHEM_COMPOUND_ID_TYPE>
0

> <PUBCHEM_TOTAL_CHARGE>
0

> <PUBCHEM_SUBSTANCE_ID>
310933952

> <PUBCHEM_SUBSTANCE_VERSION>
1

> <PUBCHEM_EXT_DATASOURCE_NAME>
4488

> <PUBCHEM_EXT_DATASOURCE_REGID>
SCHEMBL16111391

> <PUBCHEM_SUBSTANCE_COMMENT>
InChI=1S/C15H19NO2S/c1-2-3-5-8-13-11-12-16-15(13)19(17,18)14-9-6-4-7-10-14/h4,6-7,9-12,16H,2-3,5,8H2,1H3
InChIKey=ZROBSOLKQGBJKN-UHFFFAOYSA-N

> <PUBCHEM_SUBSTANCE_SYNONYM>
SCHEMBL16111391

> <PUBCHEM_XREF_EXT_ID>
SCHEMBL16111391

> <PUBCHEM_EXT_DATASOURCE_URL>
https://www.surechembl.org/

> <PUBCHEM_EXT_SUBSTANCE_URL>
https://www.surechembl.org/chemical/SCHEMBL16111391

> <PUBCHEM_CID_ASSOCIATIONS>
117602270  1

> <PUBCHEM_COORDINATE_TYPE>
1
3

$$$$
