310941698
  -OEChem-07211613022D

 17 16  0     1  0  0  0  0  0999 V2000
    1.0730    0.3932    0.0000 O   0  0  0  0  0  0  0  0  0  0  0  0
    0.3427    0.8201    0.0000 O   0  0  0  0  0  0  0  0  0  0  0  0
   -1.0730    0.8201    0.0000 O   0  0  0  0  0  0  0  0  0  0  0  0
    1.7695   -0.8314    0.0000 O   0  0  0  0  0  0  0  0  0  0  0  0
    0.3427   -0.8314    0.0000 N   0  0  0  0  0  0  0  0  0  0  0  0
   -3.9492    0.0000    0.0000 N   0  0  0  0  0  0  0  0  0  0  0  0
   -0.3764   -0.4157    0.0000 C   0  0  3  0  0  0  0  0  0  0  0  0
   -0.3764    0.4157    0.0000 C   0  0  0  0  0  0  0  0  0  0  0  0
    1.0505   -0.3932    0.0000 C   0  0  0  0  0  0  0  0  0  0  0  0
   -1.0842   -0.8089    0.0000 C   0  0  0  0  0  0  0  0  0  0  0  0
   -1.8033   -0.4045    0.0000 C   0  0  0  0  0  0  0  0  0  0  0  0
    1.7695    0.8314    0.0000 C   0  0  0  0  0  0  0  0  0  0  0  0
   -2.4998   -0.8089    0.0000 C   0  0  0  0  0  0  0  0  0  0  0  0
    2.5110    0.4269    0.0000 C   0  0  0  0  0  0  0  0  0  0  0  0
   -3.2189   -0.4157    0.0000 C   0  0  0  0  0  0  0  0  0  0  0  0
    3.2077    0.8314    0.0000 C   0  0  0  0  0  0  0  0  0  0  0  0
    3.9492    0.4045    0.0000 C   0  0  0  0  0  0  0  0  0  0  0  0
  1  9  1  0  0  0  0
  1 12  1  0  0  0  0
  2  8  2  0  0  0  0
  3  8  1  0  0  0  0
  4  9  2  0  0  0  0
  7  5  1  6  0  0  0
  5  9  1  0  0  0  0
  6 15  3  0  0  0  0
  7  8  1  0  0  0  0
  7 10  1  0  0  0  0
 10 11  1  0  0  0  0
 11 13  1  0  0  0  0
 12 14  1  0  0  0  0
 13 15  1  0  0  0  0
 14 16  1  0  0  0  0
 16 17  1  0  0  0  0
M  END
> <PUBCHEM_COMPOUND_ID_TYPE>
0

> <PUBCHEM_TOTAL_CHARGE>
0

> <PUBCHEM_SUBSTANCE_ID>
310941698

> <PUBCHEM_SUBSTANCE_VERSION>
1

> <PUBCHEM_EXT_DATASOURCE_NAME>
4488

> <PUBCHEM_EXT_DATASOURCE_REGID>
SCHEMBL16119729

> <PUBCHEM_SUBSTANCE_COMMENT>
InChI=1S/C11H18N2O4/c1-2-3-8-17-11(16)13-9(10(14)15)6-4-5-7-12/h9H,2-6,8H2,1H3,(H,13,16)(H,14,15)/t9-/m1/s1
InChIKey=IFNIQJJFAAYGEI-SECBINFHSA-N

> <PUBCHEM_SUBSTANCE_SYNONYM>
SCHEMBL16119729

> <PUBCHEM_XREF_EXT_ID>
SCHEMBL16119729

> <PUBCHEM_EXT_DATASOURCE_URL>
https://www.surechembl.org/

> <PUBCHEM_EXT_SUBSTANCE_URL>
https://www.surechembl.org/chemical/SCHEMBL16119729

> <PUBCHEM_CID_ASSOCIATIONS>
117608471  1

> <PUBCHEM_COORDINATE_TYPE>
1
3

> <PUBCHEM_BONDANNOTATIONS>
7  5  6

$$$$
