310934129
  -OEChem-07211613022D

 62 66  0     1  0  0  0  0  0999 V2000
    2.1229   -9.5835    0.0000 O   0  0  0  0  0  0  0  0  0  0  0  0
    1.0918   -8.6130    0.0000 O   0  0  0  0  0  0  0  0  0  0  0  0
    2.1836   -7.3999    0.0000 O   0  0  0  0  0  0  0  0  0  0  0  0
    3.7606   -7.7638    0.0000 O   0  0  0  0  0  0  0  0  0  0  0  0
    4.3065   -9.3409    0.0000 O   0  0  0  0  0  0  0  0  0  0  0  0
    4.0032  -10.7359    0.0000 O   0  0  0  0  0  0  0  0  0  0  0  0
    2.4868   -6.0048    0.0000 O   0  0  0  0  0  0  0  0  0  0  0  0
    5.1556   -7.2786    0.0000 O   0  0  0  0  0  0  0  0  0  0  0  0
    5.3376  -10.2507    0.0000 O   0  0  0  0  0  0  0  0  0  0  0  0
    5.0950  -11.6457    0.0000 O   0  0  0  0  0  0  0  0  0  0  0  0
   10.2507   -2.8508    0.0000 O   0  0  0  0  0  0  0  0  0  0  0  0
   11.0998    0.0000    0.0000 O   0  0  0  0  0  0  0  0  0  0  0  0
   12.3736   -0.7279    0.0000 O   0  0  0  0  0  0  0  0  0  0  0  0
    0.0000   -7.5818    0.0000 N   0  0  0  0  0  0  0  0  0  0  0  0
    0.0606   -6.7327    0.0000 N   0  0  0  0  0  0  0  0  0  0  0  0
    6.2475   -2.8508    0.0000 N   0  0  3  0  0  0  0  0  0  0  0  0
    9.0376   -2.1836    0.0000 N   0  0  0  0  0  0  0  0  0  0  0  0
   11.0998   -1.4557    0.0000 N   0  0  0  0  0  0  0  0  0  0  0  0
    2.4262   -8.1884    0.0000 C   0  0  3  0  0  0  0  0  0  0  0  0
    3.2147   -8.3704    0.0000 C   0  0  3  0  0  0  0  0  0  0  0  0
    1.8803   -8.7949    0.0000 C   0  0  3  0  0  0  0  0  0  0  0  0
    3.5180   -9.1589    0.0000 C   0  0  3  0  0  0  0  0  0  0  0  0
    2.9114   -9.7654    0.0000 C   0  0  3  0  0  0  0  0  0  0  0  0
    0.7885   -7.8245    0.0000 C   0  0  0  0  0  0  0  0  0  0  0  0
    1.2737   -7.1573    0.0000 C   0  0  0  0  0  0  0  0  0  0  0  0
    0.7885   -6.4901    0.0000 C   0  0  0  0  0  0  0  0  0  0  0  0
    2.1229   -7.1573    0.0000 C   0  0  0  0  0  0  0  0  0  0  0  0
    3.2147  -10.5540    0.0000 C   0  0  0  0  0  0  0  0  0  0  0  0
    1.0918   -5.7016    0.0000 C   0  0  0  0  0  0  0  0  0  0  0  0
    2.5475   -6.4901    0.0000 C   0  0  0  0  0  0  0  0  0  0  0  0
    2.7294   -6.7933    0.0000 C   0  0  0  0  0  0  0  0  0  0  0  0
    4.6098   -7.9458    0.0000 C   0  0  0  0  0  0  0  0  0  0  0  0
    4.5491  -10.0687    0.0000 C   0  0  0  0  0  0  0  0  0  0  0  0
    7.5212   -2.1836    0.0000 C   0  0  0  0  0  0  0  0  0  0  0  0
    2.1229   -5.7622    0.0000 C   0  0  0  0  0  0  0  0  0  0  0  0
    3.3967   -6.4901    0.0000 C   0  0  0  0  0  0  0  0  0  0  0  0
    7.0966   -2.8508    0.0000 C   0  0  0  0  0  0  0  0  0  0  0  0
    2.5475   -5.0344    0.0000 C   0  0  0  0  0  0  0  0  0  0  0  0
    7.7638   -1.3951    0.0000 C   0  0  0  0  0  0  0  0  0  0  0  0
    7.8245   -2.8508    0.0000 C   0  0  0  0  0  0  0  0  0  0  0  0
    3.3967   -5.0344    0.0000 C   0  0  0  0  0  0  0  0  0  0  0  0
    7.0966   -1.3951    0.0000 C   0  0  0  0  0  0  0  0  0  0  0  0
    0.4852   -5.0950    0.0000 C   0  0  0  0  0  0  0  0  0  0  0  0
    1.8803   -5.5196    0.0000 C   0  0  0  0  0  0  0  0  0  0  0  0
    3.7606   -5.7622    0.0000 C   0  0  0  0  0  0  0  0  0  0  0  0
    4.2459  -11.5244    0.0000 C   0  0  0  0  0  0  0  0  0  0  0  0
    8.6130   -1.4557    0.0000 C   0  0  0  0  0  0  0  0  0  0  0  0
    8.6130   -2.8508    0.0000 C   0  0  0  0  0  0  0  0  0  0  0  0
    3.5180   -6.9753    0.0000 C   0  0  0  0  0  0  0  0  0  0  0  0
    4.8524   -8.7343    0.0000 C   0  0  0  0  0  0  0  0  0  0  0  0
    4.1852  -10.8572    0.0000 C   0  0  0  0  0  0  0  0  0  0  0  0
    6.2475   -1.3951    0.0000 C   0  0  0  0  0  0  0  0  0  0  0  0
    5.8229   -2.1229    0.0000 C   0  0  0  0  0  0  0  0  0  0  0  0
    1.3344   -5.7622    0.0000 C   0  0  0  0  0  0  0  0  0  0  0  0
    9.8867   -2.1836    0.0000 C   0  0  0  0  0  0  0  0  0  0  0  0
    3.7606   -4.3065    0.0000 C   0  0  0  0  0  0  0  0  0  0  0  0
    5.8835   -3.5787    0.0000 C   0  0  0  0  0  0  0  0  0  0  0  0
    4.6098   -4.3065    0.0000 C   0  0  0  0  0  0  0  0  0  0  0  0
    5.0344   -3.5787    0.0000 C   0  0  0  0  0  0  0  0  0  0  0  0
    3.6999  -12.1309    0.0000 C   0  0  0  0  0  0  0  0  0  0  0  0
   10.2507   -1.4557    0.0000 C   0  0  0  0  0  0  0  0  0  0  0  0
   11.5244   -0.7279    0.0000 C   0  0  0  0  0  0  0  0  0  0  0  0
  1 21  1  0  0  0  0
  1 23  1  0  0  0  0
 21  2  1  1  0  0  0
  2 24  1  0  0  0  0
 19  3  1  6  0  0  0
  3 31  1  0  0  0  0
 20  4  1  1  0  0  0
  4 32  1  0  0  0  0
 22  5  1  6  0  0  0
  5 33  1  0  0  0  0
  6 28  1  0  0  0  0
  6 46  1  0  0  0  0
  7 31  2  0  0  0  0
  8 32  2  0  0  0  0
  9 33  2  0  0  0  0
 10 46  2  0  0  0  0
 11 55  2  0  0  0  0
 12 62  2  0  0  0  0
 13 62  1  0  0  0  0
 14 15  1  0  0  0  0
 14 24  2  0  0  0  0
 15 26  1  0  0  0  0
 16 37  1  0  0  0  0
 16 53  1  0  0  0  0
 16 57  1  0  0  0  0
 17 47  1  0  0  0  0
 17 48  1  0  0  0  0
 17 55  1  0  0  0  0
 18 61  1  0  0  0  0
 18 62  1  0  0  0  0
 19 20  1  0  0  0  0
 19 21  1  0  0  0  0
 20 22  1  0  0  0  0
 22 23  1  0  0  0  0
 23 28  1  1  0  0  0
 24 25  1  0  0  0  0
 25 26  2  0  0  0  0
 25 27  1  0  0  0  0
 26 29  1  0  0  0  0
 27 30  1  0  0  0  0
 29 43  1  0  0  0  0
 29 44  1  0  0  0  0
 30 35  1  0  0  0  0
 30 36  2  0  0  0  0
 31 49  1  0  0  0  0
 32 50  1  0  0  0  0
 33 51  1  0  0  0  0
 34 37  1  0  0  0  0
 34 39  1  0  0  0  0
 34 40  1  0  0  0  0
 34 42  1  0  0  0  0
 35 38  2  0  0  0  0
 35 54  1  0  0  0  0
 36 45  1  0  0  0  0
 38 41  1  0  0  0  0
 39 47  1  0  0  0  0
 40 48  1  0  0  0  0
 41 45  2  0  0  0  0
 41 56  1  0  0  0  0
 42 52  1  0  0  0  0
 46 60  1  0  0  0  0
 52 53  1  0  0  0  0
 55 61  1  0  0  0  0
 56 58  2  0  0  0  0
 57 59  1  0  0  0  0
 58 59  1  0  0  0  0
M  END
> <PUBCHEM_COMPOUND_ID_TYPE>
0

> <PUBCHEM_TOTAL_CHARGE>
0

> <PUBCHEM_SUBSTANCE_ID>
310934129

> <PUBCHEM_SUBSTANCE_VERSION>
1

> <PUBCHEM_EXT_DATASOURCE_NAME>
4488

> <PUBCHEM_EXT_DATASOURCE_REGID>
SCHEMBL16111575

> <PUBCHEM_SUBSTANCE_COMMENT>
InChI=1S/C44H61N5O13/c1-26(2)37-34(41(47-46-37)62-42-40(60-31(7)53)39(59-30(6)52)38(58-29(5)51)35(61-42)24-57-28(4)50)22-33-13-12-32(21-27(33)3)11-8-9-17-48-18-10-14-44(25-48)15-19-49(20-16-44)36(54)23-45-43(55)56/h8,11-13,21,26,35,38-40,42,45H,9-10,14-20,22-25H2,1-7H3,(H,46,47)(H,55,56)/b11-8+/t35-,38-,39+,40-,42+/m1/s1
InChIKey=IZYQLWGFCIAEJQ-XTICVDCQSA-N

> <PUBCHEM_SUBSTANCE_SYNONYM>
SCHEMBL16111575

> <PUBCHEM_XREF_EXT_ID>
SCHEMBL16111575

> <PUBCHEM_EXT_DATASOURCE_URL>
https://www.surechembl.org/

> <PUBCHEM_EXT_SUBSTANCE_URL>
https://www.surechembl.org/chemical/SCHEMBL16111575

> <PUBCHEM_CID_ASSOCIATIONS>
117602407  1

> <PUBCHEM_COORDINATE_TYPE>
1
3

> <PUBCHEM_BONDANNOTATIONS>
21  2  5
23  28  5
19  3  6
20  4  5
22  5  6

$$$$
