310936914
  -OEChem-07211613022D

 26 29  0     0  0  0  0  0  0999 V2000
    3.7666   -5.2152    0.0000 Cl  0  0  0  0  0  0  0  0  0  0  0  0
    2.0808   -2.9237    0.0000 O   0  0  0  0  0  0  0  0  0  0  0  0
    6.1635   -2.2125    0.0000 O   0  0  0  0  0  0  0  0  0  0  0  0
    0.0790   -4.4514    0.0000 O   0  0  0  0  0  0  0  0  0  0  0  0
    4.3197   -3.8983    0.0000 N   0  0  0  0  0  0  0  0  0  0  0  0
    4.8992   -1.8174    0.0000 N   0  0  0  0  0  0  0  0  0  0  0  0
    5.6894   -2.8974    0.0000 N   0  0  0  0  0  0  0  0  0  0  0  0
    2.9237   -4.0563    0.0000 C   0  0  0  0  0  0  0  0  0  0  0  0
    2.8183   -3.2661    0.0000 C   0  0  0  0  0  0  0  0  0  0  0  0
    4.2407   -3.1081    0.0000 C   0  0  0  0  0  0  0  0  0  0  0  0
    2.2389   -4.5305    0.0000 C   0  0  0  0  0  0  0  0  0  0  0  0
    3.6612   -4.3988    0.0000 C   0  0  0  0  0  0  0  0  0  0  0  0
    4.8992   -2.6340    0.0000 C   0  0  0  0  0  0  0  0  0  0  0  0
    3.4768   -2.7393    0.0000 C   0  0  0  0  0  0  0  0  0  0  0  0
    5.6894   -1.5541    0.0000 C   0  0  0  0  0  0  0  0  0  0  0  0
    1.9228   -5.2679    0.0000 C   0  0  0  0  0  0  0  0  0  0  0  0
    1.4224   -4.6095    0.0000 C   0  0  0  0  0  0  0  0  0  0  0  0
    5.9264   -0.7639    0.0000 C   0  0  0  0  0  0  0  0  0  0  0  0
    1.4224   -3.4242    0.0000 C   0  0  0  0  0  0  0  0  0  0  0  0
    6.7166   -1.0273    0.0000 C   0  0  0  0  0  0  0  0  0  0  0  0
    6.1898    0.0000    0.0000 C   0  0  0  0  0  0  0  0  0  0  0  0
    5.1626   -0.5268    0.0000 C   0  0  0  0  0  0  0  0  0  0  0  0
    0.6585   -3.1081    0.0000 C   0  0  0  0  0  0  0  0  0  0  0  0
    1.5014   -4.2671    0.0000 C   0  0  0  0  0  0  0  0  0  0  0  0
    0.0000   -3.6085    0.0000 C   0  0  0  0  0  0  0  0  0  0  0  0
    0.8429   -4.7412    0.0000 C   0  0  0  0  0  0  0  0  0  0  0  0
  1 12  1  0  0  0  0
  2  9  1  0  0  0  0
  2 19  1  0  0  0  0
  3  7  1  0  0  0  0
  3 15  1  0  0  0  0
  4 25  1  0  0  0  0
  4 26  1  0  0  0  0
  5 10  1  0  0  0  0
  5 12  2  0  0  0  0
  6 13  1  0  0  0  0
  6 15  2  0  0  0  0
  7 13  2  0  0  0  0
  8  9  2  0  0  0  0
  8 11  1  0  0  0  0
  8 12  1  0  0  0  0
  9 14  1  0  0  0  0
 10 13  1  0  0  0  0
 10 14  2  0  0  0  0
 11 16  1  0  0  0  0
 11 17  1  0  0  0  0
 15 18  1  0  0  0  0
 16 17  1  0  0  0  0
 18 20  1  0  0  0  0
 18 21  1  0  0  0  0
 18 22  1  0  0  0  0
 19 23  1  0  0  0  0
 19 24  1  0  0  0  0
 23 25  1  0  0  0  0
 24 26  1  0  0  0  0
M  END
> <PUBCHEM_COMPOUND_ID_TYPE>
0

> <PUBCHEM_TOTAL_CHARGE>
0

> <PUBCHEM_SUBSTANCE_ID>
310936914

> <PUBCHEM_SUBSTANCE_VERSION>
1

> <PUBCHEM_EXT_DATASOURCE_NAME>
4488

> <PUBCHEM_EXT_DATASOURCE_REGID>
SCHEMBL16114615

> <PUBCHEM_SUBSTANCE_COMMENT>
InChI=1S/C19H24ClN3O3/c1-19(2,3)18-22-17(23-26-18)13-10-14(25-12-6-8-24-9-7-12)15(11-4-5-11)16(20)21-13/h10-12H,4-9H2,1-3H3
InChIKey=HQYNXYZZLHRXKT-UHFFFAOYSA-N

> <PUBCHEM_SUBSTANCE_SYNONYM>
SCHEMBL16114615

> <PUBCHEM_XREF_EXT_ID>
SCHEMBL16114615

> <PUBCHEM_EXT_DATASOURCE_URL>
https://www.surechembl.org/

> <PUBCHEM_EXT_SUBSTANCE_URL>
https://www.surechembl.org/chemical/SCHEMBL16114615

> <PUBCHEM_CID_ASSOCIATIONS>
117604797  1

> <PUBCHEM_COORDINATE_TYPE>
1
3

$$$$
