310941703
  -OEChem-07211613022D

 39 43  0     1  0  0  0  0  0999 V2000
    4.1450   -2.8339    0.0000 F   0  0  0  0  0  0  0  0  0  0  0  0
    5.0328   -2.0964    0.0000 F   0  0  0  0  0  0  0  0  0  0  0  0
    4.8006   -2.7247    0.0000 F   0  0  0  0  0  0  0  0  0  0  0  0
   -5.0328   -1.1677    0.0000 F   0  0  0  0  0  0  0  0  0  0  0  0
    0.9082    2.9022    0.0000 O   0  0  0  0  0  0  0  0  0  0  0  0
    3.8309   -1.6047    0.0000 O   0  0  0  0  0  0  0  0  0  0  0  0
    1.5638    0.1707    0.0000 O   0  0  0  0  0  0  0  0  0  0  0  0
    0.2390   -0.9492    0.0000 O   0  0  0  0  0  0  0  0  0  0  0  0
    1.9462    1.7003    0.0000 N   0  0  3  0  0  0  0  0  0  0  0  0
    2.7520   -0.3346    0.0000 N   0  0  0  0  0  0  0  0  0  0  0  0
    0.5668   -2.1784    0.0000 N   0  0  0  0  0  0  0  0  0  0  0  0
   -2.1510   -1.2224    0.0000 N   0  0  0  0  0  0  0  0  0  0  0  0
    1.1950    1.6047    0.0000 C   0  0  3  0  0  0  0  0  0  0  0  0
    1.7003    3.0524    0.0000 C   0  0  3  0  0  0  0  0  0  0  0  0
    2.4925    1.0858    0.0000 C   0  0  3  0  0  0  0  0  0  0  0  0
    2.2194    2.5061    0.0000 C   0  0  0  0  0  0  0  0  0  0  0  0
    1.8643    2.1510    0.0000 C   0  0  0  0  0  0  0  0  0  0  0  0
    2.2057    0.3073    0.0000 C   0  0  0  0  0  0  0  0  0  0  0  0
    2.4652   -1.0858    0.0000 C   0  0  0  0  0  0  0  0  0  0  0  0
    0.6487    2.1510    0.0000 C   0  0  0  0  0  0  0  0  0  0  0  0
    3.0115   -1.7140    0.0000 C   0  0  0  0  0  0  0  0  0  0  0  0
    1.3863   -2.0145    0.0000 C   0  0  0  0  0  0  0  0  0  0  0  0
    1.6731   -1.2496    0.0000 C   0  0  0  0  0  0  0  0  0  0  0  0
    2.7383   -2.5061    0.0000 C   0  0  0  0  0  0  0  0  0  0  0  0
    1.9189   -2.6427    0.0000 C   0  0  0  0  0  0  0  0  0  0  0  0
    3.1480    1.1814    0.0000 C   0  0  0  0  0  0  0  0  0  0  0  0
    0.0205   -1.5501    0.0000 C   0  0  0  0  0  0  0  0  0  0  0  0
    4.3909   -2.2194    0.0000 C   0  0  0  0  0  0  0  0  0  0  0  0
   -0.7990   -1.6867    0.0000 C   0  0  0  0  0  0  0  0  0  0  0  0
   -2.4379   -1.9872    0.0000 C   0  0  0  0  0  0  0  0  0  0  0  0
   -3.2436   -2.1101    0.0000 C   0  0  0  0  0  0  0  0  0  0  0  0
   -1.3316   -1.0584    0.0000 C   0  0  0  0  0  0  0  0  0  0  0  0
   -1.0721   -2.4652    0.0000 C   0  0  0  0  0  0  0  0  0  0  0  0
   -1.8916   -2.6155    0.0000 C   0  0  0  0  0  0  0  0  0  0  0  0
   -3.7899   -1.5229    0.0000 C   0  0  0  0  0  0  0  0  0  0  0  0
   -3.5305   -2.8886    0.0000 C   0  0  0  0  0  0  0  0  0  0  0  0
   -4.5957   -1.6457    0.0000 C   0  0  0  0  0  0  0  0  0  0  0  0
   -4.3499   -3.0524    0.0000 C   0  0  0  0  0  0  0  0  0  0  0  0
   -4.8689   -2.4379    0.0000 C   0  0  0  0  0  0  0  0  0  0  0  0
  1 28  1  0  0  0  0
  2 28  1  0  0  0  0
  3 28  1  0  0  0  0
  4 37  1  0  0  0  0
  5 14  1  0  0  0  0
  5 20  1  0  0  0  0
  6 21  1  0  0  0  0
  6 28  1  0  0  0  0
  7 18  2  0  0  0  0
  8 27  2  0  0  0  0
 13  9  1  6  0  0  0
  9 15  1  0  0  0  0
  9 16  1  0  0  0  0
 10 18  1  0  0  0  0
 10 19  1  0  0  0  0
 11 22  1  0  0  0  0
 11 27  1  0  0  0  0
 12 30  2  0  0  0  0
 12 32  1  0  0  0  0
 13 17  1  0  0  0  0
 13 20  1  0  0  0  0
 14 16  1  0  0  0  0
 14 17  1  1  0  0  0
 15 18  1  0  0  0  0
 15 26  1  0  0  0  0
 19 21  2  0  0  0  0
 19 23  1  0  0  0  0
 21 24  1  0  0  0  0
 22 23  2  0  0  0  0
 22 25  1  0  0  0  0
 24 25  2  0  0  0  0
 27 29  1  0  0  0  0
 29 32  2  0  0  0  0
 29 33  1  0  0  0  0
 30 31  1  0  0  0  0
 30 34  1  0  0  0  0
 31 35  1  0  0  0  0
 31 36  2  0  0  0  0
 33 34  2  0  0  0  0
 35 37  2  0  0  0  0
 36 38  1  0  0  0  0
 37 39  1  0  0  0  0
 38 39  2  0  0  0  0
M  END
> <PUBCHEM_COMPOUND_ID_TYPE>
0

> <PUBCHEM_TOTAL_CHARGE>
0

> <PUBCHEM_SUBSTANCE_ID>
310941703

> <PUBCHEM_SUBSTANCE_VERSION>
1

> <PUBCHEM_EXT_DATASOURCE_NAME>
4488

> <PUBCHEM_EXT_DATASOURCE_REGID>
SCHEMBL16119734

> <PUBCHEM_SUBSTANCE_COMMENT>
InChI=1S/C27H24F4N4O4/c1-15(35-13-21-11-20(35)14-38-21)25(36)34-23-10-19(6-8-24(23)39-27(29,30)31)33-26(37)17-5-7-22(32-12-17)16-3-2-4-18(28)9-16/h2-10,12,15,20-21H,11,13-14H2,1H3,(H,33,37)(H,34,36)/t15?,20-,21-/m0/s1
InChIKey=IUQPGUXQWQGVHA-LBTAZEDMSA-N

> <PUBCHEM_SUBSTANCE_SYNONYM>
SCHEMBL16119734

> <PUBCHEM_XREF_EXT_ID>
SCHEMBL16119734

> <PUBCHEM_EXT_DATASOURCE_URL>
https://www.surechembl.org/

> <PUBCHEM_EXT_SUBSTANCE_URL>
https://www.surechembl.org/chemical/SCHEMBL16119734

> <PUBCHEM_CID_ASSOCIATIONS>
117608476  1

> <PUBCHEM_COORDINATE_TYPE>
1
3

> <PUBCHEM_BONDANNOTATIONS>
14  17  5
13  9  6

$$$$
