310947323
  -OEChem-07211613022D

 33 36  0     0  0  0  0  0  0999 V2000
   -2.1753    2.4894    0.0000 O   0  0  0  0  0  0  0  0  0  0  0  0
    4.0227    0.3419    0.0000 O   0  0  0  0  0  0  0  0  0  0  0  0
    5.4517    0.3419    0.0000 O   0  0  0  0  0  0  0  0  0  0  0  0
    0.7528    0.1720    0.0000 N   0  0  0  0  0  0  0  0  0  0  0  0
    1.2377    0.8394    0.0000 N   0  0  0  0  0  0  0  0  0  0  0  0
   -2.8897    1.2519    0.0000 N   0  0  0  0  0  0  0  0  0  0  0  0
   -0.0319    0.4269    0.0000 C   0  0  0  0  0  0  0  0  0  0  0  0
   -0.0319    1.2519    0.0000 C   0  0  0  0  0  0  0  0  0  0  0  0
    0.7528    1.5069    0.0000 C   0  0  0  0  0  0  0  0  0  0  0  0
   -0.7463    1.6644    0.0000 C   0  0  0  0  0  0  0  0  0  0  0  0
   -1.4608    1.2519    0.0000 C   0  0  0  0  0  0  0  0  0  0  0  0
   -0.7463    0.0144    0.0000 C   0  0  0  0  0  0  0  0  0  0  0  0
    0.9663   -0.6249    0.0000 C   0  0  0  0  0  0  0  0  0  0  0  0
   -1.4608    0.4269    0.0000 C   0  0  0  0  0  0  0  0  0  0  0  0
    1.7632   -0.8384    0.0000 C   0  0  0  0  0  0  0  0  0  0  0  0
    3.3570   -1.2655    0.0000 C   0  0  0  0  0  0  0  0  0  0  0  0
    4.1538   -1.4790    0.0000 C   0  0  0  0  0  0  0  0  0  0  0  0
   -2.1753    1.6644    0.0000 C   0  0  0  0  0  0  0  0  0  0  0  0
    4.7372   -0.8956    0.0000 C   0  0  0  0  0  0  0  0  0  0  0  0
    1.1653    2.2213    0.0000 C   0  0  0  0  0  0  0  0  0  0  0  0
    1.9767   -1.6353    0.0000 C   0  0  0  0  0  0  0  0  0  0  0  0
    2.3465   -0.2551    0.0000 C   0  0  0  0  0  0  0  0  0  0  0  0
    2.7736   -1.8488    0.0000 C   0  0  0  0  0  0  0  0  0  0  0  0
    3.1434   -0.4686    0.0000 C   0  0  0  0  0  0  0  0  0  0  0  0
    4.3674   -2.2759    0.0000 C   0  0  0  0  0  0  0  0  0  0  0  0
    4.7372   -0.0706    0.0000 C   0  0  0  0  0  0  0  0  0  0  0  0
    5.5341   -1.1092    0.0000 C   0  0  0  0  0  0  0  0  0  0  0  0
    5.1643   -2.4894    0.0000 C   0  0  0  0  0  0  0  0  0  0  0  0
    5.7476   -1.9061    0.0000 C   0  0  0  0  0  0  0  0  0  0  0  0
   -3.6042    1.6644    0.0000 C   0  0  0  0  0  0  0  0  0  0  0  0
   -4.3187    1.2519    0.0000 C   0  0  0  0  0  0  0  0  0  0  0  0
   -5.0332    1.6644    0.0000 C   0  0  0  0  0  0  0  0  0  0  0  0
   -5.7476    1.2519    0.0000 C   0  0  0  0  0  0  0  0  0  0  0  0
  1 18  2  0  0  0  0
  2 26  2  0  0  0  0
  3 26  1  0  0  0  0
  4  5  1  0  0  0  0
  4  7  1  0  0  0  0
  4 13  1  0  0  0  0
  5  9  2  0  0  0  0
  6 18  1  0  0  0  0
  6 30  1  0  0  0  0
  7  8  1  0  0  0  0
  7 12  2  0  0  0  0
  8  9  1  0  0  0  0
  8 10  2  0  0  0  0
  9 20  1  0  0  0  0
 10 11  1  0  0  0  0
 11 14  2  0  0  0  0
 11 18  1  0  0  0  0
 12 14  1  0  0  0  0
 13 15  1  0  0  0  0
 15 21  2  0  0  0  0
 15 22  1  0  0  0  0
 16 17  1  0  0  0  0
 16 23  2  0  0  0  0
 16 24  1  0  0  0  0
 17 19  1  0  0  0  0
 17 25  2  0  0  0  0
 19 26  1  0  0  0  0
 19 27  2  0  0  0  0
 21 23  1  0  0  0  0
 22 24  2  0  0  0  0
 25 28  1  0  0  0  0
 27 29  1  0  0  0  0
 28 29  2  0  0  0  0
 30 31  1  0  0  0  0
 31 32  1  0  0  0  0
 32 33  1  0  0  0  0
M  END
> <PUBCHEM_COMPOUND_ID_TYPE>
0

> <PUBCHEM_TOTAL_CHARGE>
0

> <PUBCHEM_SUBSTANCE_ID>
310947323

> <PUBCHEM_SUBSTANCE_VERSION>
1

> <PUBCHEM_EXT_DATASOURCE_NAME>
4488

> <PUBCHEM_EXT_DATASOURCE_REGID>
SCHEMBL16125478

> <PUBCHEM_SUBSTANCE_COMMENT>
InChI=1S/C27H27N3O3/c1-3-4-15-28-26(31)21-13-14-25-24(16-21)18(2)29-30(25)17-19-9-11-20(12-10-19)22-7-5-6-8-23(22)27(32)33/h5-14,16H,3-4,15,17H2,1-2H3,(H,28,31)(H,32,33)
InChIKey=WKWQJZMYFASJMN-UHFFFAOYSA-N

> <PUBCHEM_SUBSTANCE_SYNONYM>
SCHEMBL16125478

> <PUBCHEM_XREF_EXT_ID>
SCHEMBL16125478

> <PUBCHEM_EXT_DATASOURCE_URL>
https://www.surechembl.org/

> <PUBCHEM_EXT_SUBSTANCE_URL>
https://www.surechembl.org/chemical/SCHEMBL16125478

> <PUBCHEM_CID_ASSOCIATIONS>
71577064  1

> <PUBCHEM_COORDINATE_TYPE>
1
3

$$$$
