310948644
  -OEChem-07211613022D

 27 30  0     1  0  0  0  0  0999 V2000
   -2.4523    2.1768    0.0000 O   0  0  0  0  0  0  0  0  0  0  0  0
    0.1378    1.1481    0.0000 N   0  0  0  0  0  0  0  0  0  0  0  0
   -0.4317    0.5419    0.0000 N   0  0  0  0  0  0  0  0  0  0  0  0
   -1.9012    0.4868    0.0000 N   0  0  0  0  0  0  0  0  0  0  0  0
   -1.3685    3.1320    0.0000 N   0  0  0  0  0  0  0  0  0  0  0  0
    0.3215   -1.0195    0.0000 N   0  0  0  0  0  0  0  0  0  0  0  0
   -1.2399   -3.2789    0.0000 N   0  0  0  0  0  0  0  0  0  0  0  0
   -1.0746    1.7175    0.0000 C   0  0  0  0  0  0  0  0  0  0  0  0
   -0.2663    1.8828    0.0000 C   0  0  0  0  0  0  0  0  0  0  0  0
   -1.1848    0.9093    0.0000 C   0  0  0  0  0  0  0  0  0  0  0  0
    0.9644    1.0562    0.0000 C   0  0  3  0  0  0  0  0  0  0  0  0
   -1.6256    2.3605    0.0000 C   0  0  0  0  0  0  0  0  0  0  0  0
   -0.0092    2.6911    0.0000 C   0  0  0  0  0  0  0  0  0  0  0  0
    1.3134    0.3031    0.0000 C   0  0  3  0  0  0  0  0  0  0  0  0
   -0.5235    3.2789    0.0000 C   0  0  0  0  0  0  0  0  0  0  0  0
    1.4787    1.7175    0.0000 C   0  0  0  0  0  0  0  0  0  0  0  0
   -1.9012   -0.3215    0.0000 C   0  0  0  0  0  0  0  0  0  0  0  0
    2.1400    0.2296    0.0000 C   0  0  0  0  0  0  0  0  0  0  0  0
    0.7991   -0.3766    0.0000 C   0  0  0  0  0  0  0  0  0  0  0  0
    2.2870    1.6256    0.0000 C   0  0  0  0  0  0  0  0  0  0  0  0
   -2.5993   -0.7256    0.0000 C   0  0  0  0  0  0  0  0  0  0  0  0
   -1.2032   -0.7440    0.0000 C   0  0  0  0  0  0  0  0  0  0  0  0
    2.6176    0.8726    0.0000 C   0  0  0  0  0  0  0  0  0  0  0  0
   -1.9196   -1.9747    0.0000 C   0  0  0  0  0  0  0  0  0  0  0  0
   -2.6176   -1.5706    0.0000 C   0  0  0  0  0  0  0  0  0  0  0  0
   -1.2032   -1.5706    0.0000 C   0  0  0  0  0  0  0  0  0  0  0  0
   -1.9196   -2.8197    0.0000 C   0  0  0  0  0  0  0  0  0  0  0  0
  1 12  2  0  0  0  0
  2  3  1  0  0  0  0
  2  9  1  0  0  0  0
 11  2  1  1  0  0  0
  3 10  2  0  0  0  0
  4 10  1  0  0  0  0
  4 17  1  0  0  0  0
  5 12  1  0  0  0  0
  5 15  1  0  0  0  0
  6 19  3  0  0  0  0
  7 27  1  0  0  0  0
  8  9  2  0  0  0  0
  8 10  1  0  0  0  0
  8 12  1  0  0  0  0
  9 13  1  0  0  0  0
 11 14  1  0  0  0  0
 11 16  1  0  0  0  0
 13 15  2  0  0  0  0
 14 18  1  0  0  0  0
 14 19  1  6  0  0  0
 16 20  1  0  0  0  0
 17 21  2  0  0  0  0
 17 22  1  0  0  0  0
 18 23  1  0  0  0  0
 20 23  1  0  0  0  0
 21 25  1  0  0  0  0
 22 26  2  0  0  0  0
 24 25  2  0  0  0  0
 24 26  1  0  0  0  0
 24 27  1  0  0  0  0
M  END
> <PUBCHEM_COMPOUND_ID_TYPE>
0

> <PUBCHEM_TOTAL_CHARGE>
0

> <PUBCHEM_SUBSTANCE_ID>
310948644

> <PUBCHEM_SUBSTANCE_VERSION>
1

> <PUBCHEM_EXT_DATASOURCE_NAME>
4488

> <PUBCHEM_EXT_DATASOURCE_REGID>
SCHEMBL16126828

> <PUBCHEM_SUBSTANCE_COMMENT>
InChI=1S/C20H22N6O/c21-11-13-5-7-15(8-6-13)24-19-18-17(9-10-23-20(18)27)26(25-19)16-4-2-1-3-14(16)12-22/h5-10,14,16H,1-4,11,21H2,(H,23,27)(H,24,25)/t14-,16+/m1/s1
InChIKey=ZOVJWSJAJOZSHM-ZBFHGGJFSA-N

> <PUBCHEM_SUBSTANCE_SYNONYM>
SCHEMBL16126828

> <PUBCHEM_XREF_EXT_ID>
SCHEMBL16126828

> <PUBCHEM_EXT_DATASOURCE_URL>
https://www.surechembl.org/

> <PUBCHEM_EXT_SUBSTANCE_URL>
https://www.surechembl.org/chemical/SCHEMBL16126828

> <PUBCHEM_CID_ASSOCIATIONS>
117614188  1

> <PUBCHEM_COORDINATE_TYPE>
1
3

> <PUBCHEM_BONDANNOTATIONS>
14  19  6
11  2  5

$$$$
