310929443
  -OEChem-07211613022D

 25 26  0     0  0  0  0  0  0999 V2000
   10.5601   -0.3758    0.0000 O   0  0  0  0  0  0  0  0  0  0  0  0
    0.0000   -1.6160    0.0000 O   0  0  0  0  0  0  0  0  0  0  0  0
    9.1696   -1.2026    0.0000 N   0  0  0  0  0  0  0  0  0  0  0  0
    9.8836   -1.6160    0.0000 C   0  0  0  0  0  0  0  0  0  0  0  0
    9.8836   -2.4052    0.0000 C   0  0  0  0  0  0  0  0  0  0  0  0
   10.5601   -1.2026    0.0000 C   0  0  0  0  0  0  0  0  0  0  0  0
   10.5976   -2.8185    0.0000 C   0  0  0  0  0  0  0  0  0  0  0  0
    8.4556   -1.6160    0.0000 C   0  0  0  0  0  0  0  0  0  0  0  0
    9.2072   -2.8185    0.0000 C   0  0  0  0  0  0  0  0  0  0  0  0
   11.2741   -1.5784    0.0000 C   0  0  0  0  0  0  0  0  0  0  0  0
   11.2741   -2.4052    0.0000 C   0  0  0  0  0  0  0  0  0  0  0  0
    8.4932   -2.4052    0.0000 C   0  0  0  0  0  0  0  0  0  0  0  0
    7.7791   -1.2026    0.0000 C   0  0  0  0  0  0  0  0  0  0  0  0
   10.5601   -3.6453    0.0000 C   0  0  0  0  0  0  0  0  0  0  0  0
    7.0651   -1.6160    0.0000 C   0  0  0  0  0  0  0  0  0  0  0  0
    9.8460    0.0000    0.0000 C   0  0  0  0  0  0  0  0  0  0  0  0
    6.3511   -1.2026    0.0000 C   0  0  0  0  0  0  0  0  0  0  0  0
    5.6371   -1.6160    0.0000 C   0  0  0  0  0  0  0  0  0  0  0  0
    4.9606   -1.2026    0.0000 C   0  0  0  0  0  0  0  0  0  0  0  0
    4.2466   -1.6160    0.0000 C   0  0  0  0  0  0  0  0  0  0  0  0
    3.5325   -1.2026    0.0000 C   0  0  0  0  0  0  0  0  0  0  0  0
    2.8185   -1.6160    0.0000 C   0  0  0  0  0  0  0  0  0  0  0  0
    2.1045   -1.2026    0.0000 C   0  0  0  0  0  0  0  0  0  0  0  0
    1.4280   -1.6160    0.0000 C   0  0  0  0  0  0  0  0  0  0  0  0
    0.7140   -1.2026    0.0000 C   0  0  0  0  0  0  0  0  0  0  0  0
  1  6  1  0  0  0  0
  1 16  1  0  0  0  0
  2 25  1  0  0  0  0
  3  4  2  0  0  0  0
  3  8  1  0  0  0  0
  4  5  1  0  0  0  0
  4  6  1  0  0  0  0
  5  7  1  0  0  0  0
  5  9  2  0  0  0  0
  6 10  2  0  0  0  0
  7 11  2  0  0  0  0
  7 14  1  0  0  0  0
  8 12  2  0  0  0  0
  8 13  1  0  0  0  0
  9 12  1  0  0  0  0
 10 11  1  0  0  0  0
 13 15  1  0  0  0  0
 15 17  1  0  0  0  0
 17 18  1  0  0  0  0
 18 19  1  0  0  0  0
 19 20  1  0  0  0  0
 20 21  1  0  0  0  0
 21 22  1  0  0  0  0
 22 23  1  0  0  0  0
 23 24  1  0  0  0  0
 24 25  1  0  0  0  0
M  END
> <PUBCHEM_COMPOUND_ID_TYPE>
0

> <PUBCHEM_TOTAL_CHARGE>
0

> <PUBCHEM_SUBSTANCE_ID>
310929443

> <PUBCHEM_SUBSTANCE_VERSION>
1

> <PUBCHEM_EXT_DATASOURCE_NAME>
4488

> <PUBCHEM_EXT_DATASOURCE_REGID>
SCHEMBL16106617

> <PUBCHEM_SUBSTANCE_COMMENT>
InChI=1S/C22H33NO2/c1-18-13-16-21(25-2)22-20(18)15-14-19(23-22)12-10-8-6-4-3-5-7-9-11-17-24/h13-16,24H,3-12,17H2,1-2H3
InChIKey=DNVCFEZJAFKCHG-UHFFFAOYSA-N

> <PUBCHEM_SUBSTANCE_SYNONYM>
SCHEMBL16106617

> <PUBCHEM_XREF_EXT_ID>
SCHEMBL16106617

> <PUBCHEM_EXT_DATASOURCE_URL>
https://www.surechembl.org/

> <PUBCHEM_EXT_SUBSTANCE_URL>
https://www.surechembl.org/chemical/SCHEMBL16106617

> <PUBCHEM_CID_ASSOCIATIONS>
85471780  1

> <PUBCHEM_COORDINATE_TYPE>
1
3

$$$$
