310936386
  -OEChem-07211613022D

 51 53  0     1  0  0  0  0  0999 V2000
   -0.7633    8.6494    0.0000 P   0  0  3  0  0  0  0  0  0  0  0  0
   -2.1922    8.6494    0.0000 P   0  0  3  0  0  0  0  0  0  0  0  0
    2.1338    8.7263    0.0000 O   0  0  0  0  0  0  0  0  0  0  0  0
    2.6089   10.8076    0.0000 O   0  0  0  0  0  0  0  0  0  0  0  0
   -0.0488    9.0619    0.0000 O   0  0  0  0  0  0  0  0  0  0  0  0
    0.8533   10.4344    0.0000 O   0  0  0  0  0  0  0  0  0  0  0  0
   -1.4778    8.2369    0.0000 O   0  0  0  0  0  0  0  0  0  0  0  0
    6.0848    8.2687    0.0000 O   0  0  0  0  0  0  0  0  0  0  0  0
   -2.6047    7.9349    0.0000 O   0  0  0  0  0  0  0  0  0  0  0  0
   -0.3508    7.9349    0.0000 O   0  0  0  0  0  0  0  0  0  0  0  0
   -1.1758    9.3639    0.0000 O   0  0  0  0  0  0  0  0  0  0  0  0
   -1.7797    9.3639    0.0000 O   0  0  0  0  0  0  0  0  0  0  0  0
   -5.0501    8.6494    0.0000 O   0  0  0  0  0  0  0  0  0  0  0  0
   -4.3357    9.8869    0.0000 O   0  0  0  0  0  0  0  0  0  0  0  0
   -2.1922    4.3626    0.0000 O   0  0  0  0  0  0  0  0  0  0  0  0
   -3.4297    5.0770    0.0000 O   0  0  0  0  0  0  0  0  0  0  0  0
    3.5063    9.2532    0.0000 N   0  0  0  0  0  0  0  0  0  0  0  0
    4.8120    9.5307    0.0000 N   0  0  0  0  0  0  0  0  0  0  0  0
    3.6639    7.7541    0.0000 N   0  0  0  0  0  0  0  0  0  0  0  0
    5.0229    7.3125    0.0000 N   0  0  0  0  0  0  0  0  0  0  0  0
    3.9610    6.3564    0.0000 N   0  0  0  0  0  0  0  0  0  0  0  0
   -2.9067    9.0619    0.0000 N   0  0  0  0  0  0  0  0  0  0  0  0
   -2.1922    5.7915    0.0000 N   0  0  0  0  0  0  0  0  0  0  0  0
    2.6858    9.3394    0.0000 C   0  0  3  0  0  0  0  0  0  0  0  0
    3.9188    8.5387    0.0000 C   0  0  0  0  0  0  0  0  0  0  0  0
    4.7258    8.7103    0.0000 C   0  0  0  0  0  0  0  0  0  0  0  0
    2.2733   10.0539    0.0000 C   0  0  3  0  0  0  0  0  0  0  0  0
    1.4663    9.8824    0.0000 C   0  0  3  0  0  0  0  0  0  0  0  0
    1.3801    9.0619    0.0000 C   0  0  3  0  0  0  0  0  0  0  0  0
    4.0583    9.8663    0.0000 C   0  0  0  0  0  0  0  0  0  0  0  0
    5.2778    8.0972    0.0000 C   0  0  0  0  0  0  0  0  0  0  0  0
    4.2159    7.1410    0.0000 C   0  0  0  0  0  0  0  0  0  0  0  0
    0.6656    8.6494    0.0000 C   0  0  0  0  0  0  0  0  0  0  0  0
   -3.6212    8.6494    0.0000 C   0  0  3  0  0  0  0  0  0  0  0  0
   -4.3357    9.0619    0.0000 C   0  0  0  0  0  0  0  0  0  0  0  0
   -2.1922    7.2205    0.0000 C   0  0  0  0  0  0  0  0  0  0  0  0
   -3.6212    7.8244    0.0000 C   0  0  0  0  0  0  0  0  0  0  0  0
   -2.6047    6.5060    0.0000 C   0  0  0  0  0  0  0  0  0  0  0  0
   -5.7646    9.0619    0.0000 C   0  0  0  0  0  0  0  0  0  0  0  0
   -2.6047    5.0770    0.0000 C   0  0  0  0  0  0  0  0  0  0  0  0
   -6.4791    8.6494    0.0000 C   0  0  0  0  0  0  0  0  0  0  0  0
   -1.3672    4.3626    0.0000 C   0  0  0  0  0  0  0  0  0  0  0  0
   -7.1935    9.0619    0.0000 C   0  0  0  0  0  0  0  0  0  0  0  0
   -6.4791    7.8244    0.0000 C   0  0  0  0  0  0  0  0  0  0  0  0
   -0.5422    4.3626    0.0000 C   0  0  0  0  0  0  0  0  0  0  0  0
   -1.3672    3.5376    0.0000 C   0  0  0  0  0  0  0  0  0  0  0  0
   -1.3672    5.1876    0.0000 C   0  0  0  0  0  0  0  0  0  0  0  0
   -7.9080    8.6494    0.0000 C   0  0  0  0  0  0  0  0  0  0  0  0
   -5.7646    7.4119    0.0000 C   0  0  0  0  0  0  0  0  0  0  0  0
   -8.6225    9.0619    0.0000 C   0  0  0  0  0  0  0  0  0  0  0  0
   -5.7646    6.5869    0.0000 C   0  0  0  0  0  0  0  0  0  0  0  0
  1  5  1  0  0  0  0
  1  7  1  0  0  0  0
  1 10  2  0  0  0  0
  1 11  1  0  0  0  0
  2  7  1  0  0  0  0
  2  9  1  0  0  0  0
  2 12  2  0  0  0  0
  2 22  1  0  0  0  0
  3 24  1  0  0  0  0
  3 29  1  0  0  0  0
 27  4  1  1  0  0  0
  5 33  1  0  0  0  0
 28  6  1  1  0  0  0
  8 31  2  0  0  0  0
  9 36  1  0  0  0  0
 13 35  1  0  0  0  0
 13 39  1  0  0  0  0
 14 35  2  0  0  0  0
 15 40  1  0  0  0  0
 15 42  1  0  0  0  0
 16 40  2  0  0  0  0
 24 17  1  6  0  0  0
 17 25  1  0  0  0  0
 17 30  1  0  0  0  0
 18 26  1  0  0  0  0
 18 30  2  0  0  0  0
 19 25  1  0  0  0  0
 19 32  2  0  0  0  0
 20 31  1  0  0  0  0
 20 32  1  0  0  0  0
 21 32  1  0  0  0  0
 22 34  1  0  0  0  0
 23 38  1  0  0  0  0
 23 40  1  0  0  0  0
 24 27  1  0  0  0  0
 25 26  2  0  0  0  0
 26 31  1  0  0  0  0
 27 28  1  0  0  0  0
 28 29  1  0  0  0  0
 29 33  1  6  0  0  0
 34 35  1  0  0  0  0
 34 37  1  1  0  0  0
 36 38  1  0  0  0  0
 39 41  1  0  0  0  0
 41 43  1  0  0  0  0
 41 44  1  0  0  0  0
 42 45  1  0  0  0  0
 42 46  1  0  0  0  0
 42 47  1  0  0  0  0
 43 48  1  0  0  0  0
 44 49  1  0  0  0  0
 48 50  1  0  0  0  0
 49 51  1  0  0  0  0
M  END
> <PUBCHEM_COMPOUND_ID_TYPE>
0

> <PUBCHEM_TOTAL_CHARGE>
0

> <PUBCHEM_SUBSTANCE_ID>
310936386

> <PUBCHEM_SUBSTANCE_VERSION>
1

> <PUBCHEM_EXT_DATASOURCE_NAME>
4488

> <PUBCHEM_EXT_DATASOURCE_REGID>
SCHEMBL16114024

> <PUBCHEM_SUBSTANCE_COMMENT>
InChI=1S/C28H49N7O14P2/c1-7-9-17(10-8-2)13-44-25(39)16(3)34-50(41,45-12-11-30-27(40)48-28(4,5)6)49-51(42,43)46-14-18-20(36)21(37)24(47-18)35-15-31-19-22(35)32-26(29)33-23(19)38/h15-18,20-21,24,36-37H,7-14H2,1-6H3,(H,30,40)(H,34,41)(H,42,43)(H3,29,32,33,38)/t16-,18+,20+,21+,24+,50?/m0/s1
InChIKey=KXINUBHVQCPWIH-FHYDCFPFSA-N

> <PUBCHEM_SUBSTANCE_SYNONYM>
SCHEMBL16114024

> <PUBCHEM_XREF_EXT_ID>
SCHEMBL16114024

> <PUBCHEM_EXT_DATASOURCE_URL>
https://www.surechembl.org/

> <PUBCHEM_EXT_SUBSTANCE_URL>
https://www.surechembl.org/chemical/SCHEMBL16114024

> <PUBCHEM_CID_ASSOCIATIONS>
117604327  1

> <PUBCHEM_COORDINATE_TYPE>
1
3

> <PUBCHEM_BONDANNOTATIONS>
24  17  6
29  33  6
34  37  5
27  4  5
28  6  5

$$$$
