310948146
  -OEChem-07211613022D

 47 52  0     0  0  0  0  0  0999 V2000
    3.3095   -2.6880    0.0000 S   0  0  0  0  0  0  0  0  0  0  0  0
    2.6799    3.4144    0.0000 F   0  0  0  0  0  0  0  0  0  0  0  0
    3.4225    2.5912    0.0000 F   0  0  0  0  0  0  0  0  0  0  0  0
   -4.2620    0.1372    0.0000 F   0  0  0  0  0  0  0  0  0  0  0  0
   -3.0997    0.3148    0.0000 F   0  0  0  0  0  0  0  0  0  0  0  0
    3.3095    0.1857    0.0000 F   0  0  0  0  0  0  0  0  0  0  0  0
   -1.6467    0.2502    0.0000 O   0  0  0  0  0  0  0  0  0  0  0  0
    1.7920    2.7526    0.0000 O   0  0  0  0  0  0  0  0  0  0  0  0
    2.6799    1.7516    0.0000 O   0  0  0  0  0  0  0  0  0  0  0  0
    2.5831   -3.1077    0.0000 O   0  0  0  0  0  0  0  0  0  0  0  0
    3.7132   -3.4144    0.0000 O   0  0  0  0  0  0  0  0  0  0  0  0
    4.5526   -0.5408    0.0000 O   0  0  0  0  0  0  0  0  0  0  0  0
   -2.1310   -1.9131    0.0000 N   0  0  0  0  0  0  0  0  0  0  0  0
   -1.0979    1.4933    0.0000 N   0  0  0  0  0  0  0  0  0  0  0  0
   -2.9221   -1.6709    0.0000 N   0  0  0  0  0  0  0  0  0  0  0  0
   -4.5526   -1.6870    0.0000 N   0  0  0  0  0  0  0  0  0  0  0  0
   -0.4197   -0.5247    0.0000 C   0  0  0  0  0  0  0  0  0  0  0  0
   -0.8234    0.1857    0.0000 C   0  0  0  0  0  0  0  0  0  0  0  0
   -0.8234   -1.2512    0.0000 C   0  0  0  0  0  0  0  0  0  0  0  0
   -0.4843    0.9283    0.0000 C   0  0  0  0  0  0  0  0  0  0  0  0
   -1.6467   -1.2512    0.0000 C   0  0  0  0  0  0  0  0  0  0  0  0
    0.3228    1.1059    0.0000 C   0  0  0  0  0  0  0  0  0  0  0  0
    0.8234   -1.2350    0.0000 C   0  0  0  0  0  0  0  0  0  0  0  0
    0.4197   -0.5408    0.0000 C   0  0  0  0  0  0  0  0  0  0  0  0
    1.3884    2.0584    0.0000 C   0  0  0  0  0  0  0  0  0  0  0  0
    1.6467   -1.2512    0.0000 C   0  0  0  0  0  0  0  0  0  0  0  0
   -2.9060   -0.8315    0.0000 C   0  0  0  0  0  0  0  0  0  0  0  0
   -0.4036   -1.9615    0.0000 C   0  0  0  0  0  0  0  0  0  0  0  0
    1.9373    1.4449    0.0000 C   0  0  0  0  0  0  0  0  0  0  0  0
   -2.1471   -0.5892    0.0000 C   0  0  0  0  0  0  0  0  0  0  0  0
   -1.8081    1.0736    0.0000 C   0  0  0  0  0  0  0  0  0  0  0  0
    0.5650    1.8808    0.0000 C   0  0  0  0  0  0  0  0  0  0  0  0
    0.4197   -1.9615    0.0000 C   0  0  0  0  0  0  0  0  0  0  0  0
    2.5992    2.6073    0.0000 C   0  0  0  0  0  0  0  0  0  0  0  0
    2.9060   -1.9615    0.0000 C   0  0  0  0  0  0  0  0  0  0  0  0
    0.8556    0.4924    0.0000 C   0  0  0  0  0  0  0  0  0  0  0  0
   -3.5840   -0.3471    0.0000 C   0  0  0  0  0  0  0  0  0  0  0  0
    2.0825   -1.9454    0.0000 C   0  0  0  0  0  0  0  0  0  0  0  0
    3.2934   -1.2350    0.0000 C   0  0  0  0  0  0  0  0  0  0  0  0
    1.6790    0.6538    0.0000 C   0  0  0  0  0  0  0  0  0  0  0  0
    2.0664   -0.5408    0.0000 C   0  0  0  0  0  0  0  0  0  0  0  0
    2.8898   -0.5408    0.0000 C   0  0  0  0  0  0  0  0  0  0  0  0
   -1.8404   -2.7365    0.0000 C   0  0  0  0  0  0  0  0  0  0  0  0
   -2.5831    1.3965    0.0000 C   0  0  0  0  0  0  0  0  0  0  0  0
   -4.0683   -1.0252    0.0000 C   0  0  0  0  0  0  0  0  0  0  0  0
    4.1329   -1.2350    0.0000 C   0  0  0  0  0  0  0  0  0  0  0  0
    4.0361   -2.2360    0.0000 C   0  0  0  0  0  0  0  0  0  0  0  0
  1 10  2  0  0  0  0
  1 11  2  0  0  0  0
  1 35  1  0  0  0  0
  1 47  1  0  0  0  0
  2 34  1  0  0  0  0
  3 34  1  0  0  0  0
  4 37  1  0  0  0  0
  5 37  1  0  0  0  0
  6 42  1  0  0  0  0
  7 18  1  0  0  0  0
  7 31  1  0  0  0  0
  8 25  1  0  0  0  0
  8 34  1  0  0  0  0
  9 29  1  0  0  0  0
  9 34  1  0  0  0  0
 12 46  1  0  0  0  0
 13 15  1  0  0  0  0
 13 21  1  0  0  0  0
 13 43  1  0  0  0  0
 14 20  1  0  0  0  0
 14 31  2  0  0  0  0
 15 27  2  0  0  0  0
 16 45  3  0  0  0  0
 17 18  1  0  0  0  0
 17 19  1  0  0  0  0
 17 24  2  0  0  0  0
 18 20  2  0  0  0  0
 19 21  1  0  0  0  0
 19 28  2  0  0  0  0
 20 22  1  0  0  0  0
 21 30  2  0  0  0  0
 22 32  1  0  0  0  0
 22 36  2  0  0  0  0
 23 24  1  0  0  0  0
 23 26  1  0  0  0  0
 23 33  2  0  0  0  0
 25 29  1  0  0  0  0
 25 32  2  0  0  0  0
 26 38  2  0  0  0  0
 26 41  1  0  0  0  0
 27 30  1  0  0  0  0
 27 37  1  0  0  0  0
 28 33  1  0  0  0  0
 29 40  2  0  0  0  0
 31 44  1  0  0  0  0
 35 38  1  0  0  0  0
 35 39  2  0  0  0  0
 36 40  1  0  0  0  0
 37 45  1  0  0  0  0
 39 42  1  0  0  0  0
 39 46  1  0  0  0  0
 41 42  2  0  0  0  0
M  END
> <PUBCHEM_COMPOUND_ID_TYPE>
0

> <PUBCHEM_TOTAL_CHARGE>
0

> <PUBCHEM_SUBSTANCE_ID>
310948146

> <PUBCHEM_SUBSTANCE_VERSION>
1

> <PUBCHEM_EXT_DATASOURCE_NAME>
4488

> <PUBCHEM_EXT_DATASOURCE_REGID>
SCHEMBL16126323

> <PUBCHEM_SUBSTANCE_COMMENT>
InChI=1S/C31H21F5N4O6S/c1-15-38-28(17-5-7-24-25(10-17)46-31(35,36)45-24)29(44-15)20-8-16(18-9-22(32)21(13-41)26(11-18)47(3,42)43)4-6-19(20)23-12-27(39-40(23)2)30(33,34)14-37/h4-12,41H,13H2,1-3H3
InChIKey=STPYZDUCBIVNCL-UHFFFAOYSA-N

> <PUBCHEM_SUBSTANCE_SYNONYM>
SCHEMBL16126323

> <PUBCHEM_XREF_EXT_ID>
SCHEMBL16126323

> <PUBCHEM_EXT_DATASOURCE_URL>
https://www.surechembl.org/

> <PUBCHEM_EXT_SUBSTANCE_URL>
https://www.surechembl.org/chemical/SCHEMBL16126323

> <PUBCHEM_CID_ASSOCIATIONS>
86275879  1

> <PUBCHEM_COORDINATE_TYPE>
1
3

$$$$
