310933769
  -OEChem-07211613022D

 35 38  0     0  0  0  0  0  0999 V2000
    0.7071   -2.8678    0.0000 Cl  0  0  0  0  0  0  0  0  0  0  0  0
    5.7356   -2.4749    0.0000 S   0  0  0  0  0  0  0  0  0  0  0  0
    6.1285   -3.1821    0.0000 O   0  0  0  0  0  0  0  0  0  0  0  0
    5.3035   -1.7678    0.0000 O   0  0  0  0  0  0  0  0  0  0  0  0
    2.1607   -2.8678    0.0000 O   0  0  0  0  0  0  0  0  0  0  0  0
    2.8678   -7.4249    0.0000 O   0  0  0  0  0  0  0  0  0  0  0  0
    2.8678   -4.1249    0.0000 N   0  0  0  0  0  0  0  0  0  0  0  0
    5.0285   -2.9071    0.0000 N   0  0  0  0  0  0  0  0  0  0  0  0
    3.5750   -3.7321    0.0000 C   0  0  0  0  0  0  0  0  0  0  0  0
    2.1607   -3.7321    0.0000 C   0  0  0  0  0  0  0  0  0  0  0  0
    6.4428   -2.0821    0.0000 C   0  0  0  0  0  0  0  0  0  0  0  0
    2.8678   -4.9499    0.0000 C   0  0  0  0  0  0  0  0  0  0  0  0
    1.4535   -4.1249    0.0000 C   0  0  0  0  0  0  0  0  0  0  0  0
    5.0285   -3.7321    0.0000 C   0  0  0  0  0  0  0  0  0  0  0  0
    4.3214   -2.4749    0.0000 C   0  0  0  0  0  0  0  0  0  0  0  0
    4.3214   -4.1249    0.0000 C   0  0  0  0  0  0  0  0  0  0  0  0
    3.5750   -2.9071    0.0000 C   0  0  0  0  0  0  0  0  0  0  0  0
    0.7071   -3.7321    0.0000 C   0  0  0  0  0  0  0  0  0  0  0  0
    6.4428   -1.2178    0.0000 C   0  0  0  0  0  0  0  0  0  0  0  0
    7.1499   -2.4749    0.0000 C   0  0  0  0  0  0  0  0  0  0  0  0
    3.5750   -5.3820    0.0000 C   0  0  0  0  0  0  0  0  0  0  0  0
    2.1607   -5.3820    0.0000 C   0  0  0  0  0  0  0  0  0  0  0  0
    1.4535   -4.9499    0.0000 C   0  0  0  0  0  0  0  0  0  0  0  0
    7.8570   -1.2571    0.0000 C   0  0  0  0  0  0  0  0  0  0  0  0
    7.1499   -0.8250    0.0000 C   0  0  0  0  0  0  0  0  0  0  0  0
    7.8570   -2.0821    0.0000 C   0  0  0  0  0  0  0  0  0  0  0  0
    2.8678   -6.5999    0.0000 C   0  0  0  0  0  0  0  0  0  0  0  0
    3.5750   -6.2070    0.0000 C   0  0  0  0  0  0  0  0  0  0  0  0
    2.1607   -6.2070    0.0000 C   0  0  0  0  0  0  0  0  0  0  0  0
    0.0000   -4.1249    0.0000 C   0  0  0  0  0  0  0  0  0  0  0  0
    0.7071   -5.3820    0.0000 C   0  0  0  0  0  0  0  0  0  0  0  0
    0.0000   -4.9499    0.0000 C   0  0  0  0  0  0  0  0  0  0  0  0
    8.6034   -0.8250    0.0000 C   0  0  0  0  0  0  0  0  0  0  0  0
    8.6034    0.0000    0.0000 C   0  0  0  0  0  0  0  0  0  0  0  0
    3.5750   -7.8570    0.0000 C   0  0  0  0  0  0  0  0  0  0  0  0
  1 18  1  0  0  0  0
  2  3  2  0  0  0  0
  2  4  2  0  0  0  0
  2  8  1  0  0  0  0
  2 11  1  0  0  0  0
  5 10  2  0  0  0  0
  6 27  1  0  0  0  0
  6 35  1  0  0  0  0
  7  9  1  0  0  0  0
  7 10  1  0  0  0  0
  7 12  1  0  0  0  0
  8 14  1  0  0  0  0
  8 15  1  0  0  0  0
  9 16  1  0  0  0  0
  9 17  1  0  0  0  0
 10 13  1  0  0  0  0
 11 19  2  0  0  0  0
 11 20  1  0  0  0  0
 12 21  2  0  0  0  0
 12 22  1  0  0  0  0
 13 18  2  0  0  0  0
 13 23  1  0  0  0  0
 14 16  1  0  0  0  0
 15 17  1  0  0  0  0
 18 30  1  0  0  0  0
 19 25  1  0  0  0  0
 20 26  2  0  0  0  0
 21 28  1  0  0  0  0
 22 29  2  0  0  0  0
 23 31  2  0  0  0  0
 24 25  2  0  0  0  0
 24 26  1  0  0  0  0
 24 33  1  0  0  0  0
 27 28  2  0  0  0  0
 27 29  1  0  0  0  0
 30 32  2  0  0  0  0
 31 32  1  0  0  0  0
 33 34  1  0  0  0  0
M  END
> <PUBCHEM_COMPOUND_ID_TYPE>
0

> <PUBCHEM_TOTAL_CHARGE>
0

> <PUBCHEM_SUBSTANCE_ID>
310933769

> <PUBCHEM_SUBSTANCE_VERSION>
1

> <PUBCHEM_EXT_DATASOURCE_NAME>
4488

> <PUBCHEM_EXT_DATASOURCE_REGID>
SCHEMBL16111205

> <PUBCHEM_SUBSTANCE_COMMENT>
InChI=1S/C27H29ClN2O4S/c1-3-20-8-14-24(15-9-20)35(32,33)29-18-16-22(17-19-29)30(21-10-12-23(34-2)13-11-21)27(31)25-6-4-5-7-26(25)28/h4-15,22H,3,16-19H2,1-2H3
InChIKey=NLEDJJQUNKRRFK-UHFFFAOYSA-N

> <PUBCHEM_SUBSTANCE_SYNONYM>
SCHEMBL16111205

> <PUBCHEM_XREF_EXT_ID>
SCHEMBL16111205

> <PUBCHEM_EXT_DATASOURCE_URL>
https://www.surechembl.org/

> <PUBCHEM_EXT_SUBSTANCE_URL>
https://www.surechembl.org/chemical/SCHEMBL16111205

> <PUBCHEM_CID_ASSOCIATIONS>
117602123  1

> <PUBCHEM_COORDINATE_TYPE>
1
3

$$$$
