310943298
  -OEChem-07211613022D

 38 42  0     1  0  0  0  0  0999 V2000
    4.6250    2.2692    0.0000 F   0  0  0  0  0  0  0  0  0  0  0  0
    5.3342    1.8595    0.0000 F   0  0  0  0  0  0  0  0  0  0  0  0
    5.3342    1.0243    0.0000 F   0  0  0  0  0  0  0  0  0  0  0  0
   -3.1911   -1.4497    0.0000 O   0  0  0  0  0  0  0  0  0  0  0  0
   -1.7728   -2.2849    0.0000 O   0  0  0  0  0  0  0  0  0  0  0  0
    1.7886    2.2535    0.0000 O   0  0  0  0  0  0  0  0  0  0  0  0
   -5.3342    2.2692    0.0000 O   0  0  0  0  0  0  0  0  0  0  0  0
   -3.1911    0.2049    0.0000 N   0  0  0  0  0  0  0  0  0  0  0  0
   -3.9002    1.4497    0.0000 N   0  0  0  0  0  0  0  0  0  0  0  0
    1.0795    1.0243    0.0000 N   0  0  0  0  0  0  0  0  0  0  0  0
    3.9159    0.2049    0.0000 N   0  0  0  0  0  0  0  0  0  0  0  0
   -1.7728    1.0400    0.0000 C   0  0  0  0  0  0  0  0  0  0  0  0
   -1.0795    1.4340    0.0000 C   0  0  0  0  0  0  0  0  0  0  0  0
   -2.4820   -0.2049    0.0000 C   0  0  0  0  0  0  0  0  0  0  0  0
   -3.1911    1.0400    0.0000 C   0  0  0  0  0  0  0  0  0  0  0  0
   -1.7886    0.1891    0.0000 C   0  0  0  0  0  0  0  0  0  0  0  0
   -2.4977    1.4340    0.0000 C   0  0  0  0  0  0  0  0  0  0  0  0
   -1.0637    2.2692    0.0000 C   0  0  0  0  0  0  0  0  0  0  0  0
   -0.3388    1.0400    0.0000 C   0  0  0  0  0  0  0  0  0  0  0  0
   -2.4977   -1.0243    0.0000 C   0  0  3  0  0  0  0  0  0  0  0  0
    0.3546    1.4655    0.0000 C   0  0  0  0  0  0  0  0  0  0  0  0
    2.4977    1.0400    0.0000 C   0  0  3  0  0  0  0  0  0  0  0  0
    3.9159    1.0400    0.0000 C   0  0  3  0  0  0  0  0  0  0  0  0
    1.7570    1.4340    0.0000 C   0  0  0  0  0  0  0  0  0  0  0  0
   -0.3546    2.6632    0.0000 C   0  0  0  0  0  0  0  0  0  0  0  0
    0.3546    2.2692    0.0000 C   0  0  0  0  0  0  0  0  0  0  0  0
    4.6566    1.4655    0.0000 C   0  0  0  0  0  0  0  0  0  0  0  0
    3.1911    1.4340    0.0000 C   0  0  0  0  0  0  0  0  0  0  0  0
   -1.7728   -1.4497    0.0000 C   0  0  0  0  0  0  0  0  0  0  0  0
   -3.9159    2.2692    0.0000 C   0  0  0  0  0  0  0  0  0  0  0  0
   -4.5936    1.0400    0.0000 C   0  0  0  0  0  0  0  0  0  0  0  0
    2.4977    0.2049    0.0000 C   0  0  0  0  0  0  0  0  0  0  0  0
   -1.7886    2.6632    0.0000 C   0  0  0  0  0  0  0  0  0  0  0  0
    3.2068   -0.2049    0.0000 C   0  0  0  0  0  0  0  0  0  0  0  0
   -3.1911   -2.2692    0.0000 C   0  0  0  0  0  0  0  0  0  0  0  0
   -4.6408    2.6789    0.0000 C   0  0  0  0  0  0  0  0  0  0  0  0
   -5.3342    1.4497    0.0000 C   0  0  0  0  0  0  0  0  0  0  0  0
   -2.4662   -2.6789    0.0000 C   0  0  0  0  0  0  0  0  0  0  0  0
  1 27  1  0  0  0  0
  2 27  1  0  0  0  0
  3 27  1  0  0  0  0
  4 20  1  0  0  0  0
  4 35  1  0  0  0  0
  5 29  1  0  0  0  0
  5 38  1  0  0  0  0
  6 24  2  0  0  0  0
  7 36  1  0  0  0  0
  7 37  1  0  0  0  0
  8 14  1  0  0  0  0
  8 15  2  0  0  0  0
  9 15  1  0  0  0  0
  9 30  1  0  0  0  0
  9 31  1  0  0  0  0
 10 21  1  0  0  0  0
 10 24  1  0  0  0  0
 11 23  1  0  0  0  0
 11 34  1  0  0  0  0
 12 13  1  0  0  0  0
 12 16  1  0  0  0  0
 12 17  2  0  0  0  0
 13 18  1  0  0  0  0
 13 19  2  0  0  0  0
 14 16  2  0  0  0  0
 14 20  1  0  0  0  0
 15 17  1  0  0  0  0
 18 25  2  0  0  0  0
 18 33  1  0  0  0  0
 19 21  1  0  0  0  0
 20 29  1  0  0  0  0
 21 26  2  0  0  0  0
 22 24  1  1  0  0  0
 22 28  1  0  0  0  0
 22 32  1  0  0  0  0
 23 27  1  1  0  0  0
 23 28  1  0  0  0  0
 25 26  1  0  0  0  0
 30 36  1  0  0  0  0
 31 37  1  0  0  0  0
 32 34  1  0  0  0  0
 35 38  1  0  0  0  0
M  END
> <PUBCHEM_COMPOUND_ID_TYPE>
0

> <PUBCHEM_TOTAL_CHARGE>
0

> <PUBCHEM_SUBSTANCE_ID>
310943298

> <PUBCHEM_SUBSTANCE_VERSION>
1

> <PUBCHEM_EXT_DATASOURCE_NAME>
4488

> <PUBCHEM_EXT_DATASOURCE_REGID>
SCHEMBL16121360

> <PUBCHEM_SUBSTANCE_COMMENT>
InChI=1S/C27H33F3N4O4/c1-17-2-3-20(32-26(35)18-4-5-31-24(13-18)27(28,29)30)15-21(17)19-12-22(23-16-37-10-11-38-23)33-25(14-19)34-6-8-36-9-7-34/h2-3,12,14-15,18,23-24,31H,4-11,13,16H2,1H3,(H,32,35)/t18-,23?,24+/m1/s1
InChIKey=JOXHQDCNYIRBSA-VRMQIKBVSA-N

> <PUBCHEM_SUBSTANCE_SYNONYM>
SCHEMBL16121360

> <PUBCHEM_XREF_EXT_ID>
SCHEMBL16121360

> <PUBCHEM_EXT_DATASOURCE_URL>
https://www.surechembl.org/

> <PUBCHEM_EXT_SUBSTANCE_URL>
https://www.surechembl.org/chemical/SCHEMBL16121360

> <PUBCHEM_CID_ASSOCIATIONS>
117609723  1

> <PUBCHEM_COORDINATE_TYPE>
1
3

> <PUBCHEM_BONDANNOTATIONS>
22  24  5
23  27  5

$$$$
