310936198
  -OEChem-07211613022D

 40 43  0     1  0  0  0  0  0999 V2000
    7.1465    0.7516    0.0000 O   0  0  0  0  0  0  0  0  0  0  0  0
    4.5731    2.2435    0.0000 O   0  0  0  0  0  0  0  0  0  0  0  0
    7.5404   -0.6219    0.0000 O   0  0  0  0  0  0  0  0  0  0  0  0
    5.9596    1.8978    0.0000 O   0  0  0  0  0  0  0  0  0  0  0  0
    0.9694    1.1971    0.0000 N   0  0  0  0  0  0  0  0  0  0  0  0
    4.4703   -1.3283    0.0000 N   0  0  0  0  0  0  0  0  0  0  0  0
    4.7252   -2.1129    0.0000 N   0  3  0  0  0  0  0  0  0  0  0  0
    4.9801   -2.8975    0.0000 N   0  5  0  0  0  0  0  0  0  0  0  0
    2.3464    0.5840    0.0000 C   0  0  3  0  0  0  0  0  0  0  0  0
    2.6014   -0.2006    0.0000 C   0  0  3  0  0  0  0  0  0  0  0  0
    3.4084   -0.3721    0.0000 C   0  0  3  0  0  0  0  0  0  0  0  0
    3.9604    0.2410    0.0000 C   0  0  3  0  0  0  0  0  0  0  0  0
    1.5214    0.5840    0.0000 C   0  0  0  0  0  0  0  0  0  0  0  0
    4.7674    0.0694    0.0000 C   0  0  3  0  0  0  0  0  0  0  0  0
    1.2665   -0.2006    0.0000 C   0  0  0  0  0  0  0  0  0  0  0  0
    1.9339   -0.6855    0.0000 C   0  0  0  0  0  0  0  0  0  0  0  0
    2.8985    1.1971    0.0000 C   0  0  0  0  0  0  0  0  0  0  0  0
    3.7054    1.0256    0.0000 C   0  0  0  0  0  0  0  0  0  0  0  0
    4.9669    0.8699    0.0000 C   0  0  3  0  0  0  0  0  0  0  0  0
    2.0109    1.3377    0.0000 C   0  0  0  0  0  0  0  0  0  0  0  0
    5.3608   -0.5036    0.0000 C   0  0  0  0  0  0  0  0  0  0  0  0
    3.6633   -1.1567    0.0000 C   0  0  0  0  0  0  0  0  0  0  0  0
    0.4595   -0.3721    0.0000 C   0  0  0  0  0  0  0  0  0  0  0  0
    5.7600    1.0973    0.0000 C   0  0  0  0  0  0  0  0  0  0  0  0
    4.1739   -0.5036    0.0000 C   0  0  0  0  0  0  0  0  0  0  0  0
    6.3534    0.5242    0.0000 C   0  0  3  0  0  0  0  0  0  0  0  0
    6.1539   -0.2762    0.0000 C   0  0  0  0  0  0  0  0  0  0  0  0
    4.3735    1.4430    0.0000 C   0  0  0  0  0  0  0  0  0  0  0  0
    0.1624    1.0256    0.0000 C   0  0  0  0  0  0  0  0  0  0  0  0
   -0.0925    0.2410    0.0000 C   0  0  0  0  0  0  0  0  0  0  0  0
    7.7399    0.1786    0.0000 C   0  0  0  0  0  0  0  0  0  0  0  0
    5.3661    2.4709    0.0000 C   0  0  0  0  0  0  0  0  0  0  0  0
    8.5330    0.4060    0.0000 C   0  0  0  0  0  0  0  0  0  0  0  0
    5.5657    3.2714    0.0000 C   0  0  0  0  0  0  0  0  0  0  0  0
    9.3260    0.6334    0.0000 C   0  0  0  0  0  0  0  0  0  0  0  0
    8.7604   -0.3871    0.0000 C   0  0  0  0  0  0  0  0  0  0  0  0
    8.3056    1.1990    0.0000 C   0  0  0  0  0  0  0  0  0  0  0  0
    5.7653    4.0719    0.0000 C   0  0  0  0  0  0  0  0  0  0  0  0
    6.3662    3.0718    0.0000 C   0  0  0  0  0  0  0  0  0  0  0  0
    4.7652    3.4710    0.0000 C   0  0  0  0  0  0  0  0  0  0  0  0
 26  1  1  1  0  0  0
  1 31  1  0  0  0  0
  2 28  1  0  0  0  0
  2 32  1  0  0  0  0
  3 31  2  0  0  0  0
  4 32  2  0  0  0  0
  5 13  2  0  0  0  0
  5 29  1  0  0  0  0
  6  7  2  0  0  0  0
  6 22  1  0  0  0  0
  7  8  2  0  0  0  0
  9 10  1  0  0  0  0
  9 13  1  0  0  0  0
  9 17  1  0  0  0  0
  9 20  1  6  0  0  0
 10 11  1  0  0  0  0
 10 16  1  6  0  0  0
 11 12  1  0  0  0  0
 11 22  1  1  0  0  0
 12 14  1  0  0  0  0
 12 18  1  6  0  0  0
 13 15  1  0  0  0  0
 14 19  1  0  0  0  0
 14 21  1  0  0  0  0
 14 25  1  1  0  0  0
 15 16  1  0  0  0  0
 15 23  2  0  0  0  0
 17 18  1  0  0  0  0
 19 24  1  0  0  0  0
 19 28  1  1  0  0  0
 21 27  1  0  0  0  0
 23 30  1  0  0  0  0
 24 26  1  0  0  0  0
 26 27  1  0  0  0  0
 29 30  2  0  0  0  0
 31 33  1  0  0  0  0
 32 34  1  0  0  0  0
 33 35  1  0  0  0  0
 33 36  1  0  0  0  0
 33 37  1  0  0  0  0
 34 38  1  0  0  0  0
 34 39  1  0  0  0  0
 34 40  1  0  0  0  0
M  CHG  2   7   1   8  -1
M  END
> <PUBCHEM_COMPOUND_ID_TYPE>
0

> <PUBCHEM_TOTAL_CHARGE>
0

> <PUBCHEM_SUBSTANCE_ID>
310936198

> <PUBCHEM_SUBSTANCE_VERSION>
1

> <PUBCHEM_EXT_DATASOURCE_NAME>
4488

> <PUBCHEM_EXT_DATASOURCE_REGID>
SCHEMBL16113810

> <PUBCHEM_SUBSTANCE_COMMENT>
InChI=1S/C32H48N4O4/c1-29(2,3)27(37)39-19-21-17-22(40-28(38)30(4,5)6)11-13-31(21,7)24-12-14-32(8)25(23(24)18-35-36-33)16-20-10-9-15-34-26(20)32/h9-10,15,21-25H,11-14,16-19H2,1-8H3/t21-,22+,23-,24+,25+,31+,32+/m1/s1
InChIKey=STMZOHFGMPGQRD-RVGFIQROSA-N

> <PUBCHEM_SUBSTANCE_SYNONYM>
SCHEMBL16113810

> <PUBCHEM_XREF_EXT_ID>
SCHEMBL16113810

> <PUBCHEM_EXT_DATASOURCE_URL>
https://www.surechembl.org/

> <PUBCHEM_EXT_SUBSTANCE_URL>
https://www.surechembl.org/chemical/SCHEMBL16113810

> <PUBCHEM_CID_ASSOCIATIONS>
117604152  1

> <PUBCHEM_COORDINATE_TYPE>
1
3

> <PUBCHEM_BONDANNOTATIONS>
26  1  5
10  16  6
11  22  5
12  18  6
14  25  5
19  28  5
9  20  6

$$$$
