310945110
  -OEChem-07211613022D

 20 20  0     0  0  0  0  0  0999 V2000
    2.8804    2.1595    0.0000 Br  0  0  0  0  0  0  0  0  0  0  0  0
    0.0099    0.4768    0.0000 O   0  0  0  0  0  0  0  0  0  0  0  0
   -0.8532   -1.3398    0.0000 O   0  0  0  0  0  0  0  0  0  0  0  0
   -1.3517   -2.1595    0.0000 O   0  0  0  0  0  0  0  0  0  0  0  0
    0.0099    2.1595    0.0000 N   0  0  0  0  0  0  0  0  0  0  0  0
   -2.8804    0.4768    0.0000 N   0  0  0  0  0  0  0  0  0  0  0  0
    0.7027    0.8925    0.0000 C   0  0  0  0  0  0  0  0  0  0  0  0
    0.7226    1.7437    0.0000 C   0  0  0  0  0  0  0  0  0  0  0  0
    2.1677    1.7437    0.0000 C   0  0  0  0  0  0  0  0  0  0  0  0
    1.4154    2.1397    0.0000 C   0  0  0  0  0  0  0  0  0  0  0  0
    1.4550    0.4966    0.0000 C   0  0  0  0  0  0  0  0  0  0  0  0
   -0.8421   -0.7859    0.0000 C   0  0  0  0  0  0  0  0  0  0  0  0
    2.1479    0.8925    0.0000 C   0  0  0  0  0  0  0  0  0  0  0  0
   -1.3517   -1.6278    0.0000 C   0  0  0  0  0  0  0  0  0  0  0  0
   -0.7226    0.8925    0.0000 C   0  0  0  0  0  0  0  0  0  0  0  0
   -1.4352    0.4768    0.0000 C   0  0  0  0  0  0  0  0  0  0  0  0
   -2.1677    0.8925    0.0000 C   0  0  0  0  0  0  0  0  0  0  0  0
   -0.3437   -0.7638    0.0000 C   0  0  0  0  0  0  0  0  0  0  0  0
   -1.3517   -0.7859    0.0000 C   0  0  0  0  0  0  0  0  0  0  0  0
   -0.8532   -0.2432    0.0000 C   0  0  0  0  0  0  0  0  0  0  0  0
  1  9  1  0  0  0  0
  2  7  1  0  0  0  0
  2 15  1  0  0  0  0
  3 12  1  0  0  0  0
  3 14  1  0  0  0  0
  4 14  2  0  0  0  0
  5  8  1  0  0  0  0
  6 14  1  0  0  0  0
  6 17  1  0  0  0  0
  7  8  2  0  0  0  0
  7 11  1  0  0  0  0
  8 10  1  0  0  0  0
  9 10  2  0  0  0  0
  9 13  1  0  0  0  0
 11 13  2  0  0  0  0
 12 18  1  0  0  0  0
 12 19  1  0  0  0  0
 12 20  1  0  0  0  0
 15 16  1  0  0  0  0
 16 17  1  0  0  0  0
M  END
> <PUBCHEM_COMPOUND_ID_TYPE>
0

> <PUBCHEM_TOTAL_CHARGE>
0

> <PUBCHEM_SUBSTANCE_ID>
310945110

> <PUBCHEM_SUBSTANCE_VERSION>
1

> <PUBCHEM_EXT_DATASOURCE_NAME>
4488

> <PUBCHEM_EXT_DATASOURCE_REGID>
SCHEMBL16123200

> <PUBCHEM_SUBSTANCE_COMMENT>
InChI=1S/C14H21BrN2O3/c1-14(2,3)20-13(18)17-7-4-8-19-12-6-5-10(15)9-11(12)16/h5-6,9H,4,7-8,16H2,1-3H3,(H,17,18)
InChIKey=UKSKXGJGUYVGDI-UHFFFAOYSA-N

> <PUBCHEM_SUBSTANCE_SYNONYM>
SCHEMBL16123200

> <PUBCHEM_XREF_EXT_ID>
SCHEMBL16123200

> <PUBCHEM_EXT_DATASOURCE_URL>
https://www.surechembl.org/

> <PUBCHEM_EXT_SUBSTANCE_URL>
https://www.surechembl.org/chemical/SCHEMBL16123200

> <PUBCHEM_CID_ASSOCIATIONS>
117611206  1

> <PUBCHEM_COORDINATE_TYPE>
1
3

$$$$
