310943639
  -OEChem-07211613022D

 37 41  0     0  0  0  0  0  0999 V2000
    4.6498    2.4502    0.0000 F   0  0  0  0  0  0  0  0  0  0  0  0
    5.3614    2.0459    0.0000 F   0  0  0  0  0  0  0  0  0  0  0  0
    5.3614    1.2211    0.0000 F   0  0  0  0  0  0  0  0  0  0  0  0
   -2.4987   -2.8708    0.0000 O   0  0  0  0  0  0  0  0  0  0  0  0
    1.7872    2.4502    0.0000 O   0  0  0  0  0  0  0  0  0  0  0  0
   -5.3614    2.4502    0.0000 O   0  0  0  0  0  0  0  0  0  0  0  0
   -2.4987   -0.8653    0.0000 N   0  0  0  0  0  0  0  0  0  0  0  0
   -3.2104    0.3801    0.0000 N   0  0  0  0  0  0  0  0  0  0  0  0
   -3.9382    1.6254    0.0000 N   0  0  0  0  0  0  0  0  0  0  0  0
   -0.3639    2.8708    0.0000 N   0  0  0  0  0  0  0  0  0  0  0  0
    1.0755    1.2211    0.0000 N   0  0  0  0  0  0  0  0  0  0  0  0
    3.9220    0.3801    0.0000 N   0  0  0  0  0  0  0  0  0  0  0  0
   -1.7872    1.2211    0.0000 C   0  0  0  0  0  0  0  0  0  0  0  0
   -2.4987   -0.0243    0.0000 C   0  0  0  0  0  0  0  0  0  0  0  0
   -1.0917    1.6254    0.0000 C   0  0  0  0  0  0  0  0  0  0  0  0
   -3.2104    1.2211    0.0000 C   0  0  0  0  0  0  0  0  0  0  0  0
   -1.8033    0.3801    0.0000 C   0  0  0  0  0  0  0  0  0  0  0  0
   -2.5149    1.6254    0.0000 C   0  0  0  0  0  0  0  0  0  0  0  0
   -1.0593    2.4664    0.0000 C   0  0  0  0  0  0  0  0  0  0  0  0
   -0.3477    1.2211    0.0000 C   0  0  0  0  0  0  0  0  0  0  0  0
    0.3477    1.6254    0.0000 C   0  0  0  0  0  0  0  0  0  0  0  0
   -3.0810   -1.4475    0.0000 C   0  0  0  0  0  0  0  0  0  0  0  0
   -1.9327   -1.4637    0.0000 C   0  0  0  0  0  0  0  0  0  0  0  0
   -2.4987   -2.0136    0.0000 C   0  0  0  0  0  0  0  0  0  0  0  0
    2.4987    1.2211    0.0000 C   0  0  0  0  0  0  0  0  0  0  0  0
    1.7710    1.6092    0.0000 C   0  0  0  0  0  0  0  0  0  0  0  0
    3.9382    1.2211    0.0000 C   0  0  0  0  0  0  0  0  0  0  0  0
    0.3639    2.4502    0.0000 C   0  0  0  0  0  0  0  0  0  0  0  0
    4.6498    1.6416    0.0000 C   0  0  0  0  0  0  0  0  0  0  0  0
    3.1942    1.6254    0.0000 C   0  0  0  0  0  0  0  0  0  0  0  0
   -3.9220    2.4502    0.0000 C   0  0  0  0  0  0  0  0  0  0  0  0
   -4.6336    1.2211    0.0000 C   0  0  0  0  0  0  0  0  0  0  0  0
    2.4987    0.3962    0.0000 C   0  0  0  0  0  0  0  0  0  0  0  0
   -1.8033    2.8708    0.0000 C   0  0  0  0  0  0  0  0  0  0  0  0
    3.2265   -0.0243    0.0000 C   0  0  0  0  0  0  0  0  0  0  0  0
   -4.6659    2.8708    0.0000 C   0  0  0  0  0  0  0  0  0  0  0  0
   -5.3614    1.6416    0.0000 C   0  0  0  0  0  0  0  0  0  0  0  0
  1 29  1  0  0  0  0
  2 29  1  0  0  0  0
  3 29  1  0  0  0  0
  4 24  1  0  0  0  0
  5 26  2  0  0  0  0
  6 36  1  0  0  0  0
  6 37  1  0  0  0  0
  7 14  1  0  0  0  0
  7 22  1  0  0  0  0
  7 23  1  0  0  0  0
  8 14  1  0  0  0  0
  8 16  2  0  0  0  0
  9 16  1  0  0  0  0
  9 31  1  0  0  0  0
  9 32  1  0  0  0  0
 10 19  2  0  0  0  0
 10 28  1  0  0  0  0
 11 21  1  0  0  0  0
 11 26  1  0  0  0  0
 12 27  1  0  0  0  0
 12 35  2  0  0  0  0
 13 15  1  0  0  0  0
 13 17  1  0  0  0  0
 13 18  2  0  0  0  0
 14 17  2  0  0  0  0
 15 19  1  0  0  0  0
 15 20  2  0  0  0  0
 16 18  1  0  0  0  0
 19 34  1  0  0  0  0
 20 21  1  0  0  0  0
 21 28  2  0  0  0  0
 22 24  1  0  0  0  0
 23 24  1  0  0  0  0
 25 26  1  0  0  0  0
 25 30  1  0  0  0  0
 25 33  2  0  0  0  0
 27 29  1  0  0  0  0
 27 30  2  0  0  0  0
 31 36  1  0  0  0  0
 32 37  1  0  0  0  0
 33 35  1  0  0  0  0
M  END
> <PUBCHEM_COMPOUND_ID_TYPE>
0

> <PUBCHEM_TOTAL_CHARGE>
0

> <PUBCHEM_SUBSTANCE_ID>
310943639

> <PUBCHEM_SUBSTANCE_VERSION>
1

> <PUBCHEM_EXT_DATASOURCE_NAME>
4488

> <PUBCHEM_EXT_DATASOURCE_REGID>
SCHEMBL16121707

> <PUBCHEM_SUBSTANCE_COMMENT>
InChI=1S/C25H25F3N6O3/c1-15-20(11-18(12-30-15)31-24(36)16-2-3-29-21(8-16)25(26,27)28)17-9-22(33-4-6-37-7-5-33)32-23(10-17)34-13-19(35)14-34/h2-3,8-12,19,35H,4-7,13-14H2,1H3,(H,31,36)
InChIKey=UYADXEZXSBXAIC-UHFFFAOYSA-N

> <PUBCHEM_SUBSTANCE_SYNONYM>
SCHEMBL16121707

> <PUBCHEM_XREF_EXT_ID>
SCHEMBL16121707

> <PUBCHEM_EXT_DATASOURCE_URL>
https://www.surechembl.org/

> <PUBCHEM_EXT_SUBSTANCE_URL>
https://www.surechembl.org/chemical/SCHEMBL16121707

> <PUBCHEM_CID_ASSOCIATIONS>
117610030  1

> <PUBCHEM_COORDINATE_TYPE>
1
3

$$$$
