310944822
  -OEChem-07211613022D

 34 38  0     0  0  0  0  0  0999 V2000
    0.6170   -3.9145    0.0000 O   0  0  0  0  0  0  0  0  0  0  0  0
   -0.2333    0.6170    0.0000 N   0  0  0  0  0  0  0  0  0  0  0  0
    0.2541   -0.0571    0.0000 N   0  0  0  0  0  0  0  0  0  0  0  0
    0.7829   -1.7369    0.0000 N   0  0  0  0  0  0  0  0  0  0  0  0
   -0.6066   -2.1102    0.0000 N   0  0  0  0  0  0  0  0  0  0  0  0
    1.7887   -2.7427    0.0000 N   0  0  0  0  0  0  0  0  0  0  0  0
    3.1782   -2.3694    0.0000 N   0  0  0  0  0  0  0  0  0  0  0  0
    3.5411   -0.9903    0.0000 N   0  0  0  0  0  0  0  0  0  0  0  0
   -0.2437   -0.6999    0.0000 C   0  0  0  0  0  0  0  0  0  0  0  0
   -1.0318   -0.4303    0.0000 C   0  0  0  0  0  0  0  0  0  0  0  0
   -1.0318    0.3889    0.0000 C   0  0  0  0  0  0  0  0  0  0  0  0
   -0.0363   -1.4984    0.0000 C   0  0  0  0  0  0  0  0  0  0  0  0
   -1.7369   -0.8555    0.0000 C   0  0  0  0  0  0  0  0  0  0  0  0
    0.9799   -2.5042    0.0000 C   0  0  0  0  0  0  0  0  0  0  0  0
   -1.7576    0.7829    0.0000 C   0  0  0  0  0  0  0  0  0  0  0  0
   -0.0363    1.4465    0.0000 C   0  0  0  0  0  0  0  0  0  0  0  0
    0.3889   -3.0953    0.0000 C   0  0  0  0  0  0  0  0  0  0  0  0
   -0.3992   -2.8775    0.0000 C   0  0  0  0  0  0  0  0  0  0  0  0
   -2.4420   -0.4510    0.0000 C   0  0  0  0  0  0  0  0  0  0  0  0
   -0.6273    2.0272    0.0000 C   0  0  0  0  0  0  0  0  0  0  0  0
   -2.4420    0.3784    0.0000 C   0  0  0  0  0  0  0  0  0  0  0  0
    2.3591   -2.1309    0.0000 C   0  0  0  0  0  0  0  0  0  0  0  0
   -1.4050    1.8094    0.0000 C   0  0  0  0  0  0  0  0  0  0  0  0
   -0.4096    2.8257    0.0000 C   0  0  0  0  0  0  0  0  0  0  0  0
   -1.7784    3.1782    0.0000 C   0  0  0  0  0  0  0  0  0  0  0  0
   -1.9857    2.3902    0.0000 C   0  0  0  0  0  0  0  0  0  0  0  0
   -0.9799    3.3856    0.0000 C   0  0  0  0  0  0  0  0  0  0  0  0
    2.1516   -1.3429    0.0000 C   0  0  0  0  0  0  0  0  0  0  0  0
    1.4155   -4.1218    0.0000 C   0  0  0  0  0  0  0  0  0  0  0  0
    3.7382   -1.7576    0.0000 C   0  0  0  0  0  0  0  0  0  0  0  0
    2.7323   -0.7518    0.0000 C   0  0  0  0  0  0  0  0  0  0  0  0
   -2.3694    3.7589    0.0000 C   0  0  0  0  0  0  0  0  0  0  0  0
   -3.1782    3.5619    0.0000 C   0  0  0  0  0  0  0  0  0  0  0  0
   -3.7382    4.1218    0.0000 C   0  0  0  0  0  0  0  0  0  0  0  0
  1 17  1  0  0  0  0
  1 29  1  0  0  0  0
  2  3  1  0  0  0  0
  2 11  1  0  0  0  0
  2 16  1  0  0  0  0
  3  9  2  0  0  0  0
  4 12  2  0  0  0  0
  4 14  1  0  0  0  0
  5 12  1  0  0  0  0
  5 18  2  0  0  0  0
  6 14  1  0  0  0  0
  6 22  1  0  0  0  0
  7 22  1  0  0  0  0
  7 30  2  0  0  0  0
  8 30  1  0  0  0  0
  8 31  2  0  0  0  0
  9 10  1  0  0  0  0
  9 12  1  0  0  0  0
 10 11  2  0  0  0  0
 10 13  1  0  0  0  0
 11 15  1  0  0  0  0
 13 19  2  0  0  0  0
 14 17  2  0  0  0  0
 15 21  2  0  0  0  0
 16 20  1  0  0  0  0
 17 18  1  0  0  0  0
 19 21  1  0  0  0  0
 20 23  2  0  0  0  0
 20 24  1  0  0  0  0
 22 28  2  0  0  0  0
 23 26  1  0  0  0  0
 24 27  2  0  0  0  0
 25 26  2  0  0  0  0
 25 27  1  0  0  0  0
 25 32  1  0  0  0  0
 28 31  1  0  0  0  0
 32 33  1  0  0  0  0
 33 34  1  0  0  0  0
M  END
> <PUBCHEM_COMPOUND_ID_TYPE>
0

> <PUBCHEM_TOTAL_CHARGE>
0

> <PUBCHEM_SUBSTANCE_ID>
310944822

> <PUBCHEM_SUBSTANCE_VERSION>
1

> <PUBCHEM_EXT_DATASOURCE_NAME>
4488

> <PUBCHEM_EXT_DATASOURCE_REGID>
SCHEMBL16122901

> <PUBCHEM_SUBSTANCE_COMMENT>
InChI=1S/C26H25N7O/c1-3-6-18-9-11-19(12-10-18)16-33-21-8-5-4-7-20(21)24(32-33)26-28-15-22(34-2)25(31-26)30-23-13-14-27-17-29-23/h4-5,7-15,17H,3,6,16H2,1-2H3,(H,27,28,29,30,31)
InChIKey=VUHIKZQMWCYORL-UHFFFAOYSA-N

> <PUBCHEM_SUBSTANCE_SYNONYM>
SCHEMBL16122901

> <PUBCHEM_XREF_EXT_ID>
SCHEMBL16122901

> <PUBCHEM_EXT_DATASOURCE_URL>
https://www.surechembl.org/

> <PUBCHEM_EXT_SUBSTANCE_URL>
https://www.surechembl.org/chemical/SCHEMBL16122901

> <PUBCHEM_CID_ASSOCIATIONS>
86268110  1

> <PUBCHEM_COORDINATE_TYPE>
1
3

$$$$
