310947174
  -OEChem-07211613022D

 18 19  0     0  0  0  0  0  0999 V2000
   -0.0224    7.6755    0.0000 S   0  0  0  0  0  0  0  0  0  0  0  0
    2.8355   10.1505    0.0000 O   0  0  0  0  0  0  0  0  0  0  0  0
   -2.8803    9.3255    0.0000 O   0  0  0  0  0  0  0  0  0  0  0  0
    0.6920    8.0880    0.0000 C   0  0  0  0  0  0  0  0  0  0  0  0
   -0.7369    8.0880    0.0000 C   0  0  0  0  0  0  0  0  0  0  0  0
    2.1210    8.9130    0.0000 C   0  0  0  0  0  0  0  0  0  0  0  0
    0.6920    8.9130    0.0000 C   0  0  0  0  0  0  0  0  0  0  0  0
    1.4065    7.6755    0.0000 C   0  0  0  0  0  0  0  0  0  0  0  0
    1.4065    9.3255    0.0000 C   0  0  0  0  0  0  0  0  0  0  0  0
    2.1210    8.0880    0.0000 C   0  0  0  0  0  0  0  0  0  0  0  0
    2.8355    9.3255    0.0000 C   0  0  0  0  0  0  0  0  0  0  0  0
   -0.7369    8.9130    0.0000 C   0  0  0  0  0  0  0  0  0  0  0  0
   -1.4514    7.6755    0.0000 C   0  0  0  0  0  0  0  0  0  0  0  0
   -2.1658    8.9130    0.0000 C   0  0  0  0  0  0  0  0  0  0  0  0
   -1.4514    9.3255    0.0000 C   0  0  0  0  0  0  0  0  0  0  0  0
   -2.1658    8.0880    0.0000 C   0  0  0  0  0  0  0  0  0  0  0  0
    3.5499    8.9130    0.0000 C   0  0  0  0  0  0  0  0  0  0  0  0
    4.2644    9.3255    0.0000 C   0  0  0  0  0  0  0  0  0  0  0  0
  1  4  1  0  0  0  0
  1  5  1  0  0  0  0
  2 11  2  0  0  0  0
  3 14  1  0  0  0  0
  4  7  2  0  0  0  0
  4  8  1  0  0  0  0
  5 12  2  0  0  0  0
  5 13  1  0  0  0  0
  6  9  2  0  0  0  0
  6 10  1  0  0  0  0
  6 11  1  0  0  0  0
  7  9  1  0  0  0  0
  8 10  2  0  0  0  0
 11 17  1  0  0  0  0
 12 15  1  0  0  0  0
 13 16  2  0  0  0  0
 14 15  2  0  0  0  0
 14 16  1  0  0  0  0
 17 18  1  0  0  0  0
M  END
> <PUBCHEM_COMPOUND_ID_TYPE>
0

> <PUBCHEM_TOTAL_CHARGE>
0

> <PUBCHEM_SUBSTANCE_ID>
310947174

> <PUBCHEM_SUBSTANCE_VERSION>
1

> <PUBCHEM_EXT_DATASOURCE_NAME>
4488

> <PUBCHEM_EXT_DATASOURCE_REGID>
SCHEMBL16125328

> <PUBCHEM_SUBSTANCE_COMMENT>
InChI=1S/C15H14O2S/c1-2-15(17)11-3-7-13(8-4-11)18-14-9-5-12(16)6-10-14/h3-10,16H,2H2,1H3
InChIKey=OQTOZWFCVBPQFT-UHFFFAOYSA-N

> <PUBCHEM_SUBSTANCE_SYNONYM>
SCHEMBL16125328

> <PUBCHEM_XREF_EXT_ID>
SCHEMBL16125328

> <PUBCHEM_EXT_DATASOURCE_URL>
https://www.surechembl.org/

> <PUBCHEM_EXT_SUBSTANCE_URL>
https://www.surechembl.org/chemical/SCHEMBL16125328

> <PUBCHEM_CID_ASSOCIATIONS>
101524908  1

> <PUBCHEM_COORDINATE_TYPE>
1
3

$$$$
