310936531
  -OEChem-07211613022D

 32 36  0     0  0  0  0  0  0999 V2000
    1.4644   -1.2357    0.0000 N   0  0  0  0  0  0  0  0  0  0  0  0
    0.7780   -2.4712    0.0000 N   0  0  0  0  0  0  0  0  0  0  0  0
    1.4644   -3.7069    0.0000 N   0  0  0  0  0  0  0  0  0  0  0  0
    1.4644   -6.2239    0.0000 N   0  0  0  0  0  0  0  0  0  0  0  0
    5.0798    0.0000    0.0000 N   0  0  0  0  0  0  0  0  0  0  0  0
    0.7323   -9.1071    0.0000 N   0  0  0  0  0  0  0  0  0  0  0  0
    2.1967   -2.4712    0.0000 C   0  0  0  0  0  0  0  0  0  0  0  0
    2.1967   -1.6475    0.0000 C   0  0  0  0  0  0  0  0  0  0  0  0
    1.4644   -2.8831    0.0000 C   0  0  0  0  0  0  0  0  0  0  0  0
    3.6154   -1.6475    0.0000 C   0  0  0  0  0  0  0  0  0  0  0  0
    2.8831   -1.2357    0.0000 C   0  0  0  0  0  0  0  0  0  0  0  0
    2.8831   -2.8831    0.0000 C   0  0  0  0  0  0  0  0  0  0  0  0
    4.3476   -1.2357    0.0000 C   0  0  0  0  0  0  0  0  0  0  0  0
    3.6154   -2.4712    0.0000 C   0  0  0  0  0  0  0  0  0  0  0  0
    0.7780   -1.6475    0.0000 C   0  0  0  0  0  0  0  0  0  0  0  0
    0.7323   -6.6358    0.0000 C   0  0  0  0  0  0  0  0  0  0  0  0
    0.7780   -4.9425    0.0000 C   0  0  0  0  0  0  0  0  0  0  0  0
    5.0798   -1.6475    0.0000 C   0  0  0  0  0  0  0  0  0  0  0  0
    0.7323   -7.4595    0.0000 C   0  0  0  0  0  0  0  0  0  0  0  0
    0.7780   -4.1188    0.0000 C   0  0  0  0  0  0  0  0  0  0  0  0
    4.3476   -0.4119    0.0000 C   0  0  0  0  0  0  0  0  0  0  0  0
    5.7663   -1.2357    0.0000 C   0  0  0  0  0  0  0  0  0  0  0  0
    0.0458   -6.2239    0.0000 C   0  0  0  0  0  0  0  0  0  0  0  0
    1.4644   -5.4002    0.0000 C   0  0  0  0  0  0  0  0  0  0  0  0
    0.0458   -5.4002    0.0000 C   0  0  0  0  0  0  0  0  0  0  0  0
    1.4644   -7.8714    0.0000 C   0  0  0  0  0  0  0  0  0  0  0  0
    0.0458   -7.8714    0.0000 C   0  0  0  0  0  0  0  0  0  0  0  0
    5.8121   -0.4119    0.0000 C   0  0  0  0  0  0  0  0  0  0  0  0
    1.4187   -8.6952    0.0000 C   0  0  0  0  0  0  0  0  0  0  0  0
    0.0000   -8.6952    0.0000 C   0  0  0  0  0  0  0  0  0  0  0  0
    6.4985   -1.6475    0.0000 C   0  0  0  0  0  0  0  0  0  0  0  0
    2.1509   -9.1528    0.0000 C   0  0  0  0  0  0  0  0  0  0  0  0
  1  8  2  0  0  0  0
  1 15  1  0  0  0  0
  2  9  1  0  0  0  0
  2 15  2  0  0  0  0
  3  9  1  0  0  0  0
  3 20  1  0  0  0  0
  4 16  2  0  0  0  0
  4 24  1  0  0  0  0
  5 21  1  0  0  0  0
  5 28  2  0  0  0  0
  6 29  1  0  0  0  0
  6 30  2  0  0  0  0
  7  8  1  0  0  0  0
  7  9  2  0  0  0  0
  7 12  1  0  0  0  0
  8 11  1  0  0  0  0
 10 11  2  0  0  0  0
 10 13  1  0  0  0  0
 10 14  1  0  0  0  0
 12 14  2  0  0  0  0
 13 18  1  0  0  0  0
 13 21  2  0  0  0  0
 16 19  1  0  0  0  0
 16 23  1  0  0  0  0
 17 20  1  0  0  0  0
 17 24  2  0  0  0  0
 17 25  1  0  0  0  0
 18 22  2  0  0  0  0
 19 26  1  0  0  0  0
 19 27  2  0  0  0  0
 22 28  1  0  0  0  0
 22 31  1  0  0  0  0
 23 25  2  0  0  0  0
 26 29  2  0  0  0  0
 27 30  1  0  0  0  0
 29 32  1  0  0  0  0
M  END
> <PUBCHEM_COMPOUND_ID_TYPE>
0

> <PUBCHEM_TOTAL_CHARGE>
0

> <PUBCHEM_SUBSTANCE_ID>
310936531

> <PUBCHEM_SUBSTANCE_VERSION>
1

> <PUBCHEM_EXT_DATASOURCE_NAME>
4488

> <PUBCHEM_EXT_DATASOURCE_REGID>
SCHEMBL16114182

> <PUBCHEM_SUBSTANCE_COMMENT>
InChI=1S/C26H22N6/c1-17-9-22(15-27-12-17)20-4-5-23-25(11-20)31-16-32-26(23)30-14-19-3-6-24(29-13-19)21-7-8-28-18(2)10-21/h3-13,15-16H,14H2,1-2H3,(H,30,31,32)
InChIKey=OZDBTAAZRBFXQC-UHFFFAOYSA-N

> <PUBCHEM_SUBSTANCE_SYNONYM>
SCHEMBL16114182

> <PUBCHEM_XREF_EXT_ID>
SCHEMBL16114182

> <PUBCHEM_EXT_DATASOURCE_URL>
https://www.surechembl.org/

> <PUBCHEM_EXT_SUBSTANCE_URL>
https://www.surechembl.org/chemical/SCHEMBL16114182

> <PUBCHEM_CID_ASSOCIATIONS>
57413962  1

> <PUBCHEM_COORDINATE_TYPE>
1
3

$$$$
