310948234
  -OEChem-07211613022D

 26 29  0     1  0  0  0  0  0999 V2000
    2.8764   -2.3680    0.0000 F   0  0  0  0  0  0  0  0  0  0  0  0
   -2.1521   -1.8944    0.0000 O   0  0  0  0  0  0  0  0  0  0  0  0
   -0.6338    0.4596    0.0000 N   0  0  0  0  0  0  0  0  0  0  0  0
   -0.1463   -0.2229    0.0000 N   0  0  0  0  0  0  0  0  0  0  0  0
   -0.3830   -1.6854    0.0000 N   0  0  0  0  0  0  0  0  0  0  0  0
   -2.8764   -0.6408    0.0000 N   0  0  0  0  0  0  0  0  0  0  0  0
    1.5531    0.1811    0.0000 N   0  0  0  0  0  0  0  0  0  0  0  0
   -1.4417   -0.6408    0.0000 C   0  0  0  0  0  0  0  0  0  0  0  0
   -1.4139    0.1950    0.0000 C   0  0  0  0  0  0  0  0  0  0  0  0
   -0.6477   -0.8915    0.0000 C   0  0  0  0  0  0  0  0  0  0  0  0
   -0.3691    1.2536    0.0000 C   0  0  3  0  0  0  0  0  0  0  0  0
   -2.1521   -1.0308    0.0000 C   0  0  0  0  0  0  0  0  0  0  0  0
   -2.1660    0.6129    0.0000 C   0  0  0  0  0  0  0  0  0  0  0  0
    0.4249    1.4208    0.0000 C   0  0  3  0  0  0  0  0  0  0  0  0
   -2.8625    0.1950    0.0000 C   0  0  0  0  0  0  0  0  0  0  0  0
   -0.9263    1.8666    0.0000 C   0  0  0  0  0  0  0  0  0  0  0  0
    0.4388   -1.8526    0.0000 C   0  0  0  0  0  0  0  0  0  0  0  0
    0.6895    2.2148    0.0000 C   0  0  0  0  0  0  0  0  0  0  0  0
    0.9960    0.7940    0.0000 C   0  0  0  0  0  0  0  0  0  0  0  0
   -0.6756    2.6466    0.0000 C   0  0  0  0  0  0  0  0  0  0  0  0
    0.7035   -2.6326    0.0000 C   0  0  0  0  0  0  0  0  0  0  0  0
    0.9960   -1.2536    0.0000 C   0  0  0  0  0  0  0  0  0  0  0  0
    0.1323    2.8138    0.0000 C   0  0  0  0  0  0  0  0  0  0  0  0
    1.5114   -2.8138    0.0000 C   0  0  0  0  0  0  0  0  0  0  0  0
    1.7900   -1.4068    0.0000 C   0  0  0  0  0  0  0  0  0  0  0  0
    2.0546   -2.2008    0.0000 C   0  0  0  0  0  0  0  0  0  0  0  0
  1 26  1  0  0  0  0
  2 12  2  0  0  0  0
  3  4  1  0  0  0  0
  3  9  1  0  0  0  0
 11  3  1  1  0  0  0
  4 10  2  0  0  0  0
  5 10  1  0  0  0  0
  5 17  1  0  0  0  0
  6 12  1  0  0  0  0
  6 15  1  0  0  0  0
  7 19  3  0  0  0  0
  8  9  2  0  0  0  0
  8 10  1  0  0  0  0
  8 12  1  0  0  0  0
  9 13  1  0  0  0  0
 11 14  1  0  0  0  0
 11 16  1  0  0  0  0
 13 15  2  0  0  0  0
 14 18  1  0  0  0  0
 14 19  1  1  0  0  0
 16 20  1  0  0  0  0
 17 21  2  0  0  0  0
 17 22  1  0  0  0  0
 18 23  1  0  0  0  0
 20 23  1  0  0  0  0
 21 24  1  0  0  0  0
 22 25  2  0  0  0  0
 24 26  2  0  0  0  0
 25 26  1  0  0  0  0
M  END
> <PUBCHEM_COMPOUND_ID_TYPE>
0

> <PUBCHEM_TOTAL_CHARGE>
0

> <PUBCHEM_SUBSTANCE_ID>
310948234

> <PUBCHEM_SUBSTANCE_VERSION>
1

> <PUBCHEM_EXT_DATASOURCE_NAME>
4488

> <PUBCHEM_EXT_DATASOURCE_REGID>
SCHEMBL16126411

> <PUBCHEM_SUBSTANCE_COMMENT>
InChI=1S/C19H18FN5O/c20-13-5-7-14(8-6-13)23-18-17-16(9-10-22-19(17)26)25(24-18)15-4-2-1-3-12(15)11-21/h5-10,12,15H,1-4H2,(H,22,26)(H,23,24)/t12-,15-/m0/s1
InChIKey=CPSWKXQLHRUVAH-WFASDCNBSA-N

> <PUBCHEM_SUBSTANCE_SYNONYM>
SCHEMBL16126411

> <PUBCHEM_XREF_EXT_ID>
SCHEMBL16126411

> <PUBCHEM_EXT_DATASOURCE_URL>
https://www.surechembl.org/

> <PUBCHEM_EXT_SUBSTANCE_URL>
https://www.surechembl.org/chemical/SCHEMBL16126411

> <PUBCHEM_CID_ASSOCIATIONS>
117613814  1

> <PUBCHEM_COORDINATE_TYPE>
1
3

> <PUBCHEM_BONDANNOTATIONS>
14  19  5
11  3  5

$$$$
