310947621
  -OEChem-07211613022D

 32 35  0     1  0  0  0  0  0999 V2000
   -3.3463   -1.4618    0.0000 Cl  0  0  0  0  0  0  0  0  0  0  0  0
    1.9329   -2.7088    0.0000 Cl  0  0  0  0  0  0  0  0  0  0  0  0
   -3.0830    0.2148    0.0000 F   0  0  0  0  0  0  0  0  0  0  0  0
    1.2124    0.2009    0.0000 O   0  0  0  0  0  0  0  0  0  0  0  0
    0.5057    2.2932    0.0000 O   0  0  0  0  0  0  0  0  0  0  0  0
   -1.6419    2.7088    0.0000 O   0  0  0  0  0  0  0  0  0  0  0  0
   -0.2148    1.0462    0.0000 N   0  0  0  0  0  0  0  0  0  0  0  0
   -0.2009    0.2148    0.0000 C   0  0  3  0  0  0  0  0  0  0  0  0
    1.2263    1.0600    0.0000 C   0  0  3  0  0  0  0  0  0  0  0  0
    0.4919    1.4480    0.0000 C   0  0  0  0  0  0  0  0  0  0  0  0
    0.5057   -0.2009    0.0000 C   0  0  3  0  0  0  0  0  0  0  0  0
   -0.9214    1.4757    0.0000 C   0  0  3  0  0  0  0  0  0  0  0  0
   -0.9353   -0.2148    0.0000 C   0  0  0  0  0  0  0  0  0  0  0  0
    0.4919   -1.0462    0.0000 C   0  0  0  0  0  0  0  0  0  0  0  0
   -1.6974    1.0184    0.0000 C   0  0  0  0  0  0  0  0  0  0  0  0
    1.9329    1.4618    0.0000 C   0  0  0  0  0  0  0  0  0  0  0  0
   -1.6558    0.2009    0.0000 C   0  0  0  0  0  0  0  0  0  0  0  0
    1.4341    1.8359    0.0000 C   0  0  0  0  0  0  0  0  0  0  0  0
   -2.4594    1.0323    0.0000 C   0  0  0  0  0  0  0  0  0  0  0  0
   -2.0576    0.3533    0.0000 C   0  0  0  0  0  0  0  0  0  0  0  0
   -0.9353   -1.0323    0.0000 C   0  0  0  0  0  0  0  0  0  0  0  0
   -0.9214    2.2932    0.0000 C   0  0  0  0  0  0  0  0  0  0  0  0
    1.2124   -1.4618    0.0000 C   0  0  0  0  0  0  0  0  0  0  0  0
   -0.2009   -1.4618    0.0000 C   0  0  0  0  0  0  0  0  0  0  0  0
   -2.3486   -0.2009    0.0000 C   0  0  0  0  0  0  0  0  0  0  0  0
   -2.3625   -1.0462    0.0000 C   0  0  0  0  0  0  0  0  0  0  0  0
   -1.6419   -1.4480    0.0000 C   0  0  0  0  0  0  0  0  0  0  0  0
    1.2124   -2.2793    0.0000 C   0  0  0  0  0  0  0  0  0  0  0  0
    2.6673    1.0462    0.0000 C   0  0  0  0  0  0  0  0  0  0  0  0
   -0.2009   -2.2932    0.0000 C   0  0  0  0  0  0  0  0  0  0  0  0
    0.5196   -2.6950    0.0000 C   0  0  0  0  0  0  0  0  0  0  0  0
    3.3463    1.5450    0.0000 C   0  0  0  0  0  0  0  0  0  0  0  0
  1 26  1  0  0  0  0
  2 28  1  0  0  0  0
  3 25  1  0  0  0  0
  4  9  1  0  0  0  0
 11  4  1  6  0  0  0
  5 10  2  0  0  0  0
  6 22  1  0  0  0  0
  8  7  1  1  0  0  0
  7 10  1  0  0  0  0
  7 12  1  0  0  0  0
  8 11  1  0  0  0  0
  8 13  1  0  0  0  0
  9 10  1  0  0  0  0
  9 16  1  1  0  0  0
  9 18  1  6  0  0  0
 11 14  1  0  0  0  0
 12 15  1  0  0  0  0
 12 22  1  1  0  0  0
 13 17  2  0  0  0  0
 13 21  1  0  0  0  0
 14 23  1  0  0  0  0
 14 24  2  0  0  0  0
 15 19  1  0  0  0  0
 15 20  1  0  0  0  0
 16 29  1  0  0  0  0
 17 25  1  0  0  0  0
 19 20  1  0  0  0  0
 21 27  2  0  0  0  0
 23 28  2  0  0  0  0
 24 30  1  0  0  0  0
 25 26  2  0  0  0  0
 26 27  1  0  0  0  0
 28 31  1  0  0  0  0
 29 32  2  0  0  0  0
 30 31  2  0  0  0  0
M  END
> <PUBCHEM_COMPOUND_ID_TYPE>
0

> <PUBCHEM_TOTAL_CHARGE>
0

> <PUBCHEM_SUBSTANCE_ID>
310947621

> <PUBCHEM_SUBSTANCE_VERSION>
1

> <PUBCHEM_EXT_DATASOURCE_NAME>
4488

> <PUBCHEM_EXT_DATASOURCE_REGID>
SCHEMBL16125787

> <PUBCHEM_SUBSTANCE_COMMENT>
InChI=1S/C25H26Cl2FNO3/c1-3-11-25(2)24(31)29(21(14-30)15-7-8-15)22(16-9-10-19(27)20(28)13-16)23(32-25)17-5-4-6-18(26)12-17/h3-6,9-10,12-13,15,21-23,30H,1,7-8,11,14H2,2H3/t21-,22-,23-,25-/m1/s1
InChIKey=WNPSSFSXORYRAN-VWBWNGLSSA-N

> <PUBCHEM_SUBSTANCE_SYNONYM>
SCHEMBL16125787

> <PUBCHEM_XREF_EXT_ID>
SCHEMBL16125787

> <PUBCHEM_EXT_DATASOURCE_URL>
https://www.surechembl.org/

> <PUBCHEM_EXT_SUBSTANCE_URL>
https://www.surechembl.org/chemical/SCHEMBL16125787

> <PUBCHEM_CID_ASSOCIATIONS>
117613339  1

> <PUBCHEM_COORDINATE_TYPE>
1
3

> <PUBCHEM_BONDANNOTATIONS>
12  22  5
11  4  6
8  7  5
9  16  5
9  18  6

$$$$
