310944041
  -OEChem-07211613022D

 15 16  0     0  0  0  0  0  0999 V2000
    2.4356    0.6983    0.0000 O   0  0  0  0  0  0  0  0  0  0  0  0
   -1.1381   -0.5223    0.0000 N   0  0  0  0  0  0  0  0  0  0  0  0
   -0.4234    0.7092    0.0000 N   0  0  0  0  0  0  0  0  0  0  0  0
   -1.8858   -0.1814    0.0000 N   0  0  0  0  0  0  0  0  0  0  0  0
    0.2914    1.1161    0.0000 N   0  0  0  0  0  0  0  0  0  0  0  0
   -2.4356   -0.7972    0.0000 N   0  0  0  0  0  0  0  0  0  0  0  0
   -2.0288   -1.5009    0.0000 N   0  0  0  0  0  0  0  0  0  0  0  0
   -0.4343   -0.1155    0.0000 C   0  0  0  0  0  0  0  0  0  0  0  0
    0.9951   -0.1155    0.0000 C   0  0  0  0  0  0  0  0  0  0  0  0
    0.3024   -0.5113    0.0000 C   0  0  0  0  0  0  0  0  0  0  0  0
    1.0171    0.7092    0.0000 C   0  0  0  0  0  0  0  0  0  0  0  0
   -1.2260   -1.3360    0.0000 C   0  0  0  0  0  0  0  0  0  0  0  0
    2.0508    1.2920    0.0000 C   0  0  0  0  0  0  0  0  0  0  0  0
    1.7429   -0.5223    0.0000 C   0  0  0  0  0  0  0  0  0  0  0  0
    2.4356    1.5009    0.0000 C   0  0  0  0  0  0  0  0  0  0  0  0
  1 15  1  0  0  0  0
  2  4  1  0  0  0  0
  2  8  1  0  0  0  0
  2 12  1  0  0  0  0
  3  5  1  0  0  0  0
  3  8  2  0  0  0  0
  4  6  2  0  0  0  0
  5 11  2  0  0  0  0
  6  7  1  0  0  0  0
  7 12  2  0  0  0  0
  8 10  1  0  0  0  0
  9 10  2  0  0  0  0
  9 11  1  0  0  0  0
  9 14  1  0  0  0  0
 11 13  1  0  0  0  0
 13 15  1  0  0  0  0
M  END
> <PUBCHEM_COMPOUND_ID_TYPE>
0

> <PUBCHEM_TOTAL_CHARGE>
0

> <PUBCHEM_SUBSTANCE_ID>
310944041

> <PUBCHEM_SUBSTANCE_VERSION>
1

> <PUBCHEM_EXT_DATASOURCE_NAME>
4488

> <PUBCHEM_EXT_DATASOURCE_REGID>
SCHEMBL16122114

> <PUBCHEM_SUBSTANCE_COMMENT>
InChI=1S/C8H10N6O/c1-6-4-8(14-5-9-12-13-14)11-10-7(6)2-3-15/h4-5,15H,2-3H2,1H3
InChIKey=VFXZSEWVCAOILQ-UHFFFAOYSA-N

> <PUBCHEM_SUBSTANCE_SYNONYM>
SCHEMBL16122114

> <PUBCHEM_XREF_EXT_ID>
SCHEMBL16122114

> <PUBCHEM_EXT_DATASOURCE_URL>
https://www.surechembl.org/

> <PUBCHEM_EXT_SUBSTANCE_URL>
https://www.surechembl.org/chemical/SCHEMBL16122114

> <PUBCHEM_CID_ASSOCIATIONS>
117610337  1

> <PUBCHEM_COORDINATE_TYPE>
1
3

$$$$
