310931948
  -OEChem-07211613022D

 32 35  0     1  0  0  0  0  0999 V2000
    5.7434   -2.0625    0.0000 O   0  0  0  0  0  0  0  0  0  0  0  0
    1.6183   -3.7760    0.0000 O   0  0  0  0  0  0  0  0  0  0  0  0
    5.3626   -3.4587    0.0000 N   0  0  0  0  0  0  0  0  0  0  0  0
    5.7751   -4.1885    0.0000 N   0  0  0  0  0  0  0  0  0  0  0  0
    1.7769   -2.3481    0.0000 N   0  0  0  0  0  0  0  0  0  0  0  0
    4.0933   -4.0299    0.0000 N   0  0  0  0  0  0  0  0  0  0  0  0
    1.1423   -0.8567    0.0000 N   0  0  3  0  0  0  0  0  0  0  0  0
    9.5194   -0.7298    0.0000 N   0  0  0  0  0  0  0  0  0  0  0  0
    6.6635   -3.1731    0.0000 C   0  0  0  0  0  0  0  0  0  0  0  0
    5.9020   -2.8558    0.0000 C   0  0  0  0  0  0  0  0  0  0  0  0
    4.5375   -3.3635    0.0000 C   0  0  0  0  0  0  0  0  0  0  0  0
    7.3616   -2.7606    0.0000 C   0  0  0  0  0  0  0  0  0  0  0  0
    6.5683   -3.9982    0.0000 C   0  0  0  0  0  0  0  0  0  0  0  0
    2.9192   -3.2048    0.0000 C   0  0  0  0  0  0  0  0  0  0  0  0
    2.0943   -3.1097    0.0000 C   0  0  0  0  0  0  0  0  0  0  0  0
    7.3616   -1.9673    0.0000 C   0  0  0  0  0  0  0  0  0  0  0  0
    4.2202   -2.6020    0.0000 C   0  0  0  0  0  0  0  0  0  0  0  0
    3.2366   -3.9664    0.0000 C   0  0  0  0  0  0  0  0  0  0  0  0
    3.3952   -2.5385    0.0000 C   0  0  0  0  0  0  0  0  0  0  0  0
    8.0914   -3.1731    0.0000 C   0  0  0  0  0  0  0  0  0  0  0  0
    0.9837   -2.2529    0.0000 C   0  0  3  0  0  0  0  0  0  0  0  0
    8.0914   -1.5549    0.0000 C   0  0  0  0  0  0  0  0  0  0  0  0
    8.7895   -1.9673    0.0000 C   0  0  0  0  0  0  0  0  0  0  0  0
    2.2847   -1.7135    0.0000 C   0  0  0  0  0  0  0  0  0  0  0  0
    8.7895   -2.7606    0.0000 C   0  0  0  0  0  0  0  0  0  0  0  0
    0.6346   -1.4913    0.0000 C   0  0  0  0  0  0  0  0  0  0  0  0
    1.9673   -0.9519    0.0000 C   0  0  0  0  0  0  0  0  0  0  0  0
    6.6635   -1.5549    0.0000 C   0  0  0  0  0  0  0  0  0  0  0  0
    0.5077   -2.9192    0.0000 C   0  0  0  0  0  0  0  0  0  0  0  0
    9.5194   -1.5549    0.0000 C   0  0  0  0  0  0  0  0  0  0  0  0
    0.7933   -0.0952    0.0000 C   0  0  0  0  0  0  0  0  0  0  0  0
    0.0000    0.0000    0.0000 C   0  0  0  0  0  0  0  0  0  0  0  0
  1 10  1  0  0  0  0
  2 15  2  0  0  0  0
  3  4  1  0  0  0  0
  3 10  1  0  0  0  0
  3 11  1  0  0  0  0
  4 13  2  0  0  0  0
  5 15  1  0  0  0  0
  5 21  1  0  0  0  0
  5 24  1  0  0  0  0
  6 11  1  0  0  0  0
  6 18  2  0  0  0  0
  7 26  1  0  0  0  0
  7 27  1  0  0  0  0
  7 31  1  0  0  0  0
  8 30  3  0  0  0  0
  9 10  2  0  0  0  0
  9 12  1  0  0  0  0
  9 13  1  0  0  0  0
 11 17  2  0  0  0  0
 12 16  2  0  0  0  0
 12 20  1  0  0  0  0
 14 15  1  0  0  0  0
 14 18  1  0  0  0  0
 14 19  2  0  0  0  0
 16 22  1  0  0  0  0
 16 28  1  0  0  0  0
 17 19  1  0  0  0  0
 20 25  2  0  0  0  0
 21 26  1  0  0  0  0
 21 29  1  6  0  0  0
 22 23  2  0  0  0  0
 23 25  1  0  0  0  0
 23 30  1  0  0  0  0
 24 27  1  0  0  0  0
 31 32  1  0  0  0  0
M  END
> <PUBCHEM_COMPOUND_ID_TYPE>
0

> <PUBCHEM_TOTAL_CHARGE>
0

> <PUBCHEM_SUBSTANCE_ID>
310931948

> <PUBCHEM_SUBSTANCE_VERSION>
1

> <PUBCHEM_EXT_DATASOURCE_NAME>
4488

> <PUBCHEM_EXT_DATASOURCE_REGID>
SCHEMBL16109285

> <PUBCHEM_SUBSTANCE_COMMENT>
InChI=1S/C24H26N6O2/c1-4-28-9-10-29(17(3)15-28)23(31)19-6-8-22(26-13-19)30-24(32)21(14-27-30)20-7-5-18(12-25)11-16(20)2/h5-8,11,13-14,17,32H,4,9-10,15H2,1-3H3/t17-/m1/s1
InChIKey=OCESGFVEORXWLG-QGZVFWFLSA-N

> <PUBCHEM_SUBSTANCE_SYNONYM>
SCHEMBL16109285

> <PUBCHEM_XREF_EXT_ID>
SCHEMBL16109285

> <PUBCHEM_EXT_DATASOURCE_URL>
https://www.surechembl.org/

> <PUBCHEM_EXT_SUBSTANCE_URL>
https://www.surechembl.org/chemical/SCHEMBL16109285

> <PUBCHEM_CID_ASSOCIATIONS>
117600597  1

> <PUBCHEM_COORDINATE_TYPE>
1
3

> <PUBCHEM_BONDANNOTATIONS>
21  29  6

$$$$
