310943141
  -OEChem-07211613022D

 34 38  0     0  0  0  0  0  0999 V2000
   -2.8577   -0.0731    0.0000 O   0  0  0  0  0  0  0  0  0  0  0  0
   -4.2903    2.4119    0.0000 O   0  0  0  0  0  0  0  0  0  0  0  0
    1.4398   -0.0731    0.0000 O   0  0  0  0  0  0  0  0  0  0  0  0
   -2.8724    1.5933    0.0000 N   0  0  0  0  0  0  0  0  0  0  0  0
   -1.4398   -0.0731    0.0000 N   0  0  0  0  0  0  0  0  0  0  0  0
    0.7089    2.8212    0.0000 N   0  0  0  0  0  0  0  0  0  0  0  0
    2.1415    1.1694    0.0000 N   0  0  0  0  0  0  0  0  0  0  0  0
    4.2903   -0.8917    0.0000 N   0  0  0  0  0  0  0  0  0  0  0  0
   -0.7089    1.1840    0.0000 C   0  0  0  0  0  0  0  0  0  0  0  0
   -0.0220    1.5933    0.0000 C   0  0  0  0  0  0  0  0  0  0  0  0
   -2.1415    1.1840    0.0000 C   0  0  0  0  0  0  0  0  0  0  0  0
   -2.1561    0.3509    0.0000 C   0  0  0  0  0  0  0  0  0  0  0  0
   -1.4398    1.5933    0.0000 C   0  0  0  0  0  0  0  0  0  0  0  0
   -0.0073    2.4265    0.0000 C   0  0  0  0  0  0  0  0  0  0  0  0
    0.7236    1.1840    0.0000 C   0  0  0  0  0  0  0  0  0  0  0  0
    1.4106    1.5933    0.0000 C   0  0  0  0  0  0  0  0  0  0  0  0
   -0.7236    0.3509    0.0000 C   0  0  0  0  0  0  0  0  0  0  0  0
    3.5740   -1.3010    0.0000 C   0  0  0  0  0  0  0  0  0  0  0  0
    3.5594   -2.1488    0.0000 C   0  0  0  0  0  0  0  0  0  0  0  0
    2.8577   -0.0584    0.0000 C   0  0  0  0  0  0  0  0  0  0  0  0
    2.1415    0.3655    0.0000 C   0  0  0  0  0  0  0  0  0  0  0  0
    1.4252    2.4119    0.0000 C   0  0  0  0  0  0  0  0  0  0  0  0
    2.8577   -0.8917    0.0000 C   0  0  0  0  0  0  0  0  0  0  0  0
   -2.8724    2.4119    0.0000 C   0  0  0  0  0  0  0  0  0  0  0  0
   -3.5740    1.1840    0.0000 C   0  0  0  0  0  0  0  0  0  0  0  0
    3.1793   -2.8358    0.0000 C   0  0  0  0  0  0  0  0  0  0  0  0
    3.9687   -2.8212    0.0000 C   0  0  0  0  0  0  0  0  0  0  0  0
    3.5740    0.3509    0.0000 C   0  0  0  0  0  0  0  0  0  0  0  0
   -0.7382    2.8212    0.0000 C   0  0  0  0  0  0  0  0  0  0  0  0
    4.2903   -0.0584    0.0000 C   0  0  0  0  0  0  0  0  0  0  0  0
   -3.5886    2.8358    0.0000 C   0  0  0  0  0  0  0  0  0  0  0  0
   -4.2903    1.5933    0.0000 C   0  0  0  0  0  0  0  0  0  0  0  0
   -3.5886    0.3509    0.0000 C   0  0  0  0  0  0  0  0  0  0  0  0
   -4.2903   -0.0877    0.0000 C   0  0  0  0  0  0  0  0  0  0  0  0
  1 12  1  0  0  0  0
  1 33  1  0  0  0  0
  2 31  1  0  0  0  0
  2 32  1  0  0  0  0
  3 21  2  0  0  0  0
  4 11  1  0  0  0  0
  4 24  1  0  0  0  0
  4 25  1  0  0  0  0
  5 12  2  0  0  0  0
  5 17  1  0  0  0  0
  6 14  1  0  0  0  0
  6 22  2  0  0  0  0
  7 16  1  0  0  0  0
  7 21  1  0  0  0  0
  8 18  2  0  0  0  0
  8 30  1  0  0  0  0
  9 10  1  0  0  0  0
  9 13  1  0  0  0  0
  9 17  2  0  0  0  0
 10 14  2  0  0  0  0
 10 15  1  0  0  0  0
 11 12  1  0  0  0  0
 11 13  2  0  0  0  0
 14 29  1  0  0  0  0
 15 16  2  0  0  0  0
 16 22  1  0  0  0  0
 18 19  1  0  0  0  0
 18 23  1  0  0  0  0
 19 26  1  0  0  0  0
 19 27  1  0  0  0  0
 20 21  1  0  0  0  0
 20 23  2  0  0  0  0
 20 28  1  0  0  0  0
 24 31  1  0  0  0  0
 25 32  1  0  0  0  0
 26 27  1  0  0  0  0
 28 30  2  0  0  0  0
 33 34  1  0  0  0  0
M  END
> <PUBCHEM_COMPOUND_ID_TYPE>
0

> <PUBCHEM_TOTAL_CHARGE>
0

> <PUBCHEM_SUBSTANCE_ID>
310943141

> <PUBCHEM_SUBSTANCE_VERSION>
1

> <PUBCHEM_EXT_DATASOURCE_NAME>
4488

> <PUBCHEM_EXT_DATASOURCE_REGID>
SCHEMBL16121201

> <PUBCHEM_SUBSTANCE_COMMENT>
InChI=1S/C26H29N5O3/c1-3-34-26-24(31-8-10-33-11-9-31)13-20(15-29-26)22-14-21(16-28-17(22)2)30-25(32)19-6-7-27-23(12-19)18-4-5-18/h6-7,12-16,18H,3-5,8-11H2,1-2H3,(H,30,32)
InChIKey=JNUVEXMQPTVVSO-UHFFFAOYSA-N

> <PUBCHEM_SUBSTANCE_SYNONYM>
SCHEMBL16121201

> <PUBCHEM_XREF_EXT_ID>
SCHEMBL16121201

> <PUBCHEM_EXT_DATASOURCE_URL>
https://www.surechembl.org/

> <PUBCHEM_EXT_SUBSTANCE_URL>
https://www.surechembl.org/chemical/SCHEMBL16121201

> <PUBCHEM_CID_ASSOCIATIONS>
117609571  1

> <PUBCHEM_COORDINATE_TYPE>
1
3

$$$$
