310940680
  -OEChem-07211613022D

 13 13  0     1  0  0  0  0  0999 V2000
   -0.3168    1.1193    0.0000 O   0  0  0  0  0  0  0  0  0  0  0  0
    0.8659    0.3168    0.0000 O   0  0  0  0  0  0  0  0  0  0  0  0
   -0.2464    2.6260    0.0000 O   0  0  0  0  0  0  0  0  0  0  0  0
   -1.1616   -0.3872    0.0000 N   0  0  0  0  0  0  0  0  0  0  0  0
    0.1479    1.9360    0.0000 N   0  0  0  0  0  0  0  0  0  0  0  0
   -0.3449   -0.4013    0.0000 C   0  0  3  0  0  0  0  0  0  0  0  0
   -0.0211   -1.1757    0.0000 C   0  0  0  0  0  0  0  0  0  0  0  0
    0.0352    0.3309    0.0000 C   0  0  0  0  0  0  0  0  0  0  0  0
   -0.4295   -1.8938    0.0000 C   0  0  0  0  0  0  0  0  0  0  0  0
    0.7814   -1.2320    0.0000 C   0  0  0  0  0  0  0  0  0  0  0  0
   -0.0634   -2.5978    0.0000 C   0  0  0  0  0  0  0  0  0  0  0  0
    1.1616   -1.9642    0.0000 C   0  0  0  0  0  0  0  0  0  0  0  0
    0.7392   -2.6260    0.0000 C   0  0  0  0  0  0  0  0  0  0  0  0
  1  5  1  0  0  0  0
  1  8  1  0  0  0  0
  2  8  2  0  0  0  0
  3  5  2  0  0  0  0
  6  4  1  1  0  0  0
  6  7  1  0  0  0  0
  6  8  1  0  0  0  0
  7  9  2  0  0  0  0
  7 10  1  0  0  0  0
  9 11  1  0  0  0  0
 10 12  2  0  0  0  0
 11 13  2  0  0  0  0
 12 13  1  0  0  0  0
M  END
> <PUBCHEM_COMPOUND_ID_TYPE>
0

> <PUBCHEM_TOTAL_CHARGE>
0

> <PUBCHEM_SUBSTANCE_ID>
310940680

> <PUBCHEM_SUBSTANCE_VERSION>
1

> <PUBCHEM_EXT_DATASOURCE_NAME>
4488

> <PUBCHEM_EXT_DATASOURCE_REGID>
SCHEMBL16118635

> <PUBCHEM_SUBSTANCE_COMMENT>
InChI=1S/C8H8N2O3/c9-7(8(11)13-10-12)6-4-2-1-3-5-6/h1-5,7H,9H2/t7-/m1/s1
InChIKey=TUJNQZUXAFDEDD-SSDOTTSWSA-N

> <PUBCHEM_SUBSTANCE_SYNONYM>
SCHEMBL16118635

> <PUBCHEM_XREF_EXT_ID>
SCHEMBL16118635

> <PUBCHEM_EXT_DATASOURCE_URL>
https://www.surechembl.org/

> <PUBCHEM_EXT_SUBSTANCE_URL>
https://www.surechembl.org/chemical/SCHEMBL16118635

> <PUBCHEM_CID_ASSOCIATIONS>
117607653  1

> <PUBCHEM_COORDINATE_TYPE>
1
3

> <PUBCHEM_BONDANNOTATIONS>
6  4  5

$$$$
