310937294
  -OEChem-07211613022D

 19 20  0     0  0  0  0  0  0999 V2000
    0.0250   -2.1499    0.0000 Cl  0  0  0  0  0  0  0  0  0  0  0  0
    1.2250    0.0000    0.0000 Cl  0  0  0  0  0  0  0  0  0  0  0  0
    2.9000   -3.6749    0.0000 F   0  0  0  0  0  0  0  0  0  0  0  0
    3.5999   -2.3999    0.0000 F   0  0  0  0  0  0  0  0  0  0  0  0
    2.2000   -3.2499    0.0000 F   0  0  0  0  0  0  0  0  0  0  0  0
    1.6499   -4.9999    0.0000 O   0  0  0  0  0  0  0  0  0  0  0  0
    0.4250   -4.2749    0.0000 N   0  0  0  0  0  0  0  0  0  0  0  0
    1.6499   -2.1499    0.0000 C   0  0  0  0  0  0  0  0  0  0  0  0
    2.4749   -2.1250    0.0000 C   0  0  0  0  0  0  0  0  0  0  0  0
    1.2500   -2.8749    0.0000 C   0  0  0  0  0  0  0  0  0  0  0  0
    2.9000   -2.8499    0.0000 C   0  0  0  0  0  0  0  0  0  0  0  0
    0.4250   -2.8749    0.0000 C   0  0  0  0  0  0  0  0  0  0  0  0
    1.2250   -1.4250    0.0000 C   0  0  0  0  0  0  0  0  0  0  0  0
    2.8749   -1.4000    0.0000 C   0  0  0  0  0  0  0  0  0  0  0  0
    1.6750   -3.5749    0.0000 C   0  0  0  0  0  0  0  0  0  0  0  0
    1.6250   -0.7000    0.0000 C   0  0  0  0  0  0  0  0  0  0  0  0
    2.4500   -0.7000    0.0000 C   0  0  0  0  0  0  0  0  0  0  0  0
    1.2500   -4.2749    0.0000 C   0  0  0  0  0  0  0  0  0  0  0  0
    0.0000   -3.5749    0.0000 C   0  0  0  0  0  0  0  0  0  0  0  0
  1 12  1  0  0  0  0
  2 16  1  0  0  0  0
  3 11  1  0  0  0  0
  4 11  1  0  0  0  0
  5 11  1  0  0  0  0
  6 18  2  0  0  0  0
  7 18  1  0  0  0  0
  7 19  1  0  0  0  0
  8  9  1  0  0  0  0
  8 10  1  0  0  0  0
  8 13  2  0  0  0  0
  9 11  1  0  0  0  0
  9 14  2  0  0  0  0
 10 12  1  0  0  0  0
 10 15  2  0  0  0  0
 12 19  2  0  0  0  0
 13 16  1  0  0  0  0
 14 17  1  0  0  0  0
 15 18  1  0  0  0  0
 16 17  2  0  0  0  0
M  END
> <PUBCHEM_COMPOUND_ID_TYPE>
0

> <PUBCHEM_TOTAL_CHARGE>
0

> <PUBCHEM_SUBSTANCE_ID>
310937294

> <PUBCHEM_SUBSTANCE_VERSION>
1

> <PUBCHEM_EXT_DATASOURCE_NAME>
4488

> <PUBCHEM_EXT_DATASOURCE_REGID>
SCHEMBL16115041

> <PUBCHEM_SUBSTANCE_COMMENT>
InChI=1S/C12H6Cl2F3NO/c13-6-1-2-9(12(15,16)17)7(3-6)8-4-11(19)18-5-10(8)14/h1-5H,(H,18,19)
InChIKey=VMVQADANSAKQSC-UHFFFAOYSA-N

> <PUBCHEM_SUBSTANCE_SYNONYM>
SCHEMBL16115041

> <PUBCHEM_XREF_EXT_ID>
SCHEMBL16115041

> <PUBCHEM_EXT_DATASOURCE_URL>
https://www.surechembl.org/

> <PUBCHEM_EXT_SUBSTANCE_URL>
https://www.surechembl.org/chemical/SCHEMBL16115041

> <PUBCHEM_CID_ASSOCIATIONS>
117605078  1

> <PUBCHEM_COORDINATE_TYPE>
1
3

$$$$
