310940123
  -OEChem-07211613022D

 50 59  0     0  0  0  0  0  0999 V2000
   -7.5203    8.5632    0.0000 Br  0  0  0  0  0  0  0  0  0  0  0  0
   -4.2619    8.8630    0.0000 O   0  0  0  0  0  0  0  0  0  0  0  0
   -1.9078    4.2665    0.0000 N   0  0  0  0  0  0  0  0  0  0  0  0
   -5.6056    3.1105    0.0000 N   0  0  0  0  0  0  0  0  0  0  0  0
   -2.5752    3.1105    0.0000 N   0  0  0  0  0  0  0  0  0  0  0  0
   -6.2730    4.2665    0.0000 N   0  0  0  0  0  0  0  0  0  0  0  0
   -2.6615    3.9310    0.0000 C   0  0  0  0  0  0  0  0  0  0  0  0
   -5.5193    3.9310    0.0000 C   0  0  0  0  0  0  0  0  0  0  0  0
   -3.3759    4.3435    0.0000 C   0  0  0  0  0  0  0  0  0  0  0  0
   -4.8049    4.3435    0.0000 C   0  0  0  0  0  0  0  0  0  0  0  0
   -1.3557    3.6534    0.0000 C   0  0  0  0  0  0  0  0  0  0  0  0
   -6.4125    2.9390    0.0000 C   0  0  0  0  0  0  0  0  0  0  0  0
   -4.0904    5.5810    0.0000 C   0  0  0  0  0  0  0  0  0  0  0  0
   -4.0904    3.9310    0.0000 C   0  0  0  0  0  0  0  0  0  0  0  0
   -1.7682    2.9390    0.0000 C   0  0  0  0  0  0  0  0  0  0  0  0
   -6.8250    3.6534    0.0000 C   0  0  0  0  0  0  0  0  0  0  0  0
   -4.8049    7.6435    0.0000 C   0  0  0  0  0  0  0  0  0  0  0  0
   -4.0904    6.4060    0.0000 C   0  0  0  0  0  0  0  0  0  0  0  0
   -3.3759    5.1685    0.0000 C   0  0  0  0  0  0  0  0  0  0  0  0
   -4.8049    5.1685    0.0000 C   0  0  0  0  0  0  0  0  0  0  0  0
   -5.4180    8.1955    0.0000 C   0  0  0  0  0  0  0  0  0  0  0  0
   -4.0904    8.0560    0.0000 C   0  0  0  0  0  0  0  0  0  0  0  0
   -1.6943    5.0634    0.0000 C   0  0  0  0  0  0  0  0  0  0  0  0
   -5.0222    2.5271    0.0000 C   0  0  0  0  0  0  0  0  0  0  0  0
   -4.8049    6.8185    0.0000 C   0  0  0  0  0  0  0  0  0  0  0  0
   -5.0824    8.9492    0.0000 C   0  0  0  0  0  0  0  0  0  0  0  0
   -3.3759    6.8185    0.0000 C   0  0  0  0  0  0  0  0  0  0  0  0
   -0.5307    3.6534    0.0000 C   0  0  0  0  0  0  0  0  0  0  0  0
   -6.8250    2.2245    0.0000 C   0  0  0  0  0  0  0  0  0  0  0  0
   -3.3759    7.6435    0.0000 C   0  0  0  0  0  0  0  0  0  0  0  0
   -1.3557    2.2245    0.0000 C   0  0  0  0  0  0  0  0  0  0  0  0
   -7.6500    3.6534    0.0000 C   0  0  0  0  0  0  0  0  0  0  0  0
   -6.2384    8.1093    0.0000 C   0  0  0  0  0  0  0  0  0  0  0  0
   -0.8974    5.2770    0.0000 C   0  0  0  0  0  0  0  0  0  0  0  0
   -2.2776    5.6468    0.0000 C   0  0  0  0  0  0  0  0  0  0  0  0
   -5.2357    1.7303    0.0000 C   0  0  0  0  0  0  0  0  0  0  0  0
   -4.2253    2.7407    0.0000 C   0  0  0  0  0  0  0  0  0  0  0  0
   -5.5673    9.6166    0.0000 C   0  0  0  0  0  0  0  0  0  0  0  0
   -6.7234    8.7767    0.0000 C   0  0  0  0  0  0  0  0  0  0  0  0
   -0.1182    2.9390    0.0000 C   0  0  0  0  0  0  0  0  0  0  0  0
   -7.6500    2.2245    0.0000 C   0  0  0  0  0  0  0  0  0  0  0  0
   -0.5307    2.2245    0.0000 C   0  0  0  0  0  0  0  0  0  0  0  0
   -8.0625    2.9390    0.0000 C   0  0  0  0  0  0  0  0  0  0  0  0
   -6.3878    9.5304    0.0000 C   0  0  0  0  0  0  0  0  0  0  0  0
   -0.6838    6.0738    0.0000 C   0  0  0  0  0  0  0  0  0  0  0  0
   -2.0641    6.4437    0.0000 C   0  0  0  0  0  0  0  0  0  0  0  0
   -4.6524    1.1469    0.0000 C   0  0  0  0  0  0  0  0  0  0  0  0
   -3.6420    2.1573    0.0000 C   0  0  0  0  0  0  0  0  0  0  0  0
   -1.2672    6.6572    0.0000 C   0  0  0  0  0  0  0  0  0  0  0  0
   -3.8555    1.3604    0.0000 C   0  0  0  0  0  0  0  0  0  0  0  0
  1 39  1  0  0  0  0
  2 22  1  0  0  0  0
  2 26  1  0  0  0  0
  3  7  1  0  0  0  0
  3 11  1  0  0  0  0
  3 23  1  0  0  0  0
  4  8  1  0  0  0  0
  4 12  1  0  0  0  0
  4 24  1  0  0  0  0
  5  7  2  0  0  0  0
  5 15  1  0  0  0  0
  6  8  2  0  0  0  0
  6 16  1  0  0  0  0
  7  9  1  0  0  0  0
  8 10  1  0  0  0  0
  9 14  2  0  0  0  0
  9 19  1  0  0  0  0
 10 14  1  0  0  0  0
 10 20  2  0  0  0  0
 11 15  1  0  0  0  0
 11 28  2  0  0  0  0
 12 16  1  0  0  0  0
 12 29  2  0  0  0  0
 13 18  1  0  0  0  0
 13 19  2  0  0  0  0
 13 20  1  0  0  0  0
 15 31  2  0  0  0  0
 16 32  2  0  0  0  0
 17 21  1  0  0  0  0
 17 22  1  0  0  0  0
 17 25  2  0  0  0  0
 18 25  1  0  0  0  0
 18 27  2  0  0  0  0
 21 26  2  0  0  0  0
 21 33  1  0  0  0  0
 22 30  2  0  0  0  0
 23 34  2  0  0  0  0
 23 35  1  0  0  0  0
 24 36  2  0  0  0  0
 24 37  1  0  0  0  0
 26 38  1  0  0  0  0
 27 30  1  0  0  0  0
 28 40  1  0  0  0  0
 29 41  1  0  0  0  0
 31 42  1  0  0  0  0
 32 43  1  0  0  0  0
 33 39  2  0  0  0  0
 34 45  1  0  0  0  0
 35 46  2  0  0  0  0
 36 47  1  0  0  0  0
 37 48  2  0  0  0  0
 38 44  2  0  0  0  0
 39 44  1  0  0  0  0
 40 42  2  0  0  0  0
 41 43  2  0  0  0  0
 45 49  2  0  0  0  0
 46 49  1  0  0  0  0
 47 50  2  0  0  0  0
 48 50  1  0  0  0  0
M  END
> <PUBCHEM_COMPOUND_ID_TYPE>
0

> <PUBCHEM_TOTAL_CHARGE>
0

> <PUBCHEM_SUBSTANCE_ID>
310940123

> <PUBCHEM_SUBSTANCE_VERSION>
1

> <PUBCHEM_EXT_DATASOURCE_NAME>
4488

> <PUBCHEM_EXT_DATASOURCE_REGID>
SCHEMBL16118055

> <PUBCHEM_SUBSTANCE_COMMENT>
InChI=1S/C44H27BrN4O/c45-32-20-22-42-36(27-32)35-26-28(19-21-41(35)50-42)29-23-30(43-46-37-15-7-9-17-39(37)48(43)33-11-3-1-4-12-33)25-31(24-29)44-47-38-16-8-10-18-40(38)49(44)34-13-5-2-6-14-34/h1-27H
InChIKey=YNVAXXKJKFFZIG-UHFFFAOYSA-N

> <PUBCHEM_SUBSTANCE_SYNONYM>
SCHEMBL16118055

> <PUBCHEM_XREF_EXT_ID>
SCHEMBL16118055

> <PUBCHEM_EXT_DATASOURCE_URL>
https://www.surechembl.org/

> <PUBCHEM_EXT_SUBSTANCE_URL>
https://www.surechembl.org/chemical/SCHEMBL16118055

> <PUBCHEM_CID_ASSOCIATIONS>
117607250  1

> <PUBCHEM_COORDINATE_TYPE>
1
3

$$$$
