310948091
  -OEChem-07211613022D

 44 48  0     0  0  0  0  0  0999 V2000
   -2.2090   -3.4398    0.0000 S   0  0  0  0  0  0  0  0  0  0  0  0
   -0.5135    3.9616    0.0000 F   0  0  0  0  0  0  0  0  0  0  0  0
    0.5951    4.1408    0.0000 F   0  0  0  0  0  0  0  0  0  0  0  0
    0.7581    3.0160    0.0000 F   0  0  0  0  0  0  0  0  0  0  0  0
    2.7796   -3.8800    0.0000 F   0  0  0  0  0  0  0  0  0  0  0  0
    2.4862   -2.7388    0.0000 F   0  0  0  0  0  0  0  0  0  0  0  0
    1.6547   -4.1246    0.0000 F   0  0  0  0  0  0  0  0  0  0  0  0
    0.8233    1.5325    0.0000 O   0  0  0  0  0  0  0  0  0  0  0  0
    1.3612   -3.0160    0.0000 O   0  0  0  0  0  0  0  0  0  0  0  0
   -2.6003   -2.7715    0.0000 O   0  0  0  0  0  0  0  0  0  0  0  0
   -1.8014   -4.1408    0.0000 O   0  0  0  0  0  0  0  0  0  0  0  0
   -0.7744    1.5487    0.0000 N   0  0  0  0  0  0  0  0  0  0  0  0
    1.9808    0.8640    0.0000 N   0  0  0  0  0  0  0  0  0  0  0  0
   -0.1059    2.0379    0.0000 N   0  0  0  0  0  0  0  0  0  0  0  0
   -0.0571    0.3098    0.0000 C   0  0  0  0  0  0  0  0  0  0  0  0
    0.6439    0.7336    0.0000 C   0  0  0  0  0  0  0  0  0  0  0  0
   -0.7744    0.7173    0.0000 C   0  0  0  0  0  0  0  0  0  0  0  0
    1.3776    0.3098    0.0000 C   0  0  0  0  0  0  0  0  0  0  0  0
   -0.0571   -0.5217    0.0000 C   0  0  0  0  0  0  0  0  0  0  0  0
    1.6547    1.6139    0.0000 C   0  0  0  0  0  0  0  0  0  0  0  0
   -0.7744   -0.9292    0.0000 C   0  0  0  0  0  0  0  0  0  0  0  0
    1.3612   -0.5217    0.0000 C   0  0  0  0  0  0  0  0  0  0  0  0
   -1.4754    0.3098    0.0000 C   0  0  0  0  0  0  0  0  0  0  0  0
   -0.3668    2.8204    0.0000 C   0  0  0  0  0  0  0  0  0  0  0  0
   -0.7907   -1.7607    0.0000 C   0  0  0  0  0  0  0  0  0  0  0  0
   -1.4591   -0.5217    0.0000 C   0  0  0  0  0  0  0  0  0  0  0  0
   -1.4265    2.0379    0.0000 C   0  0  0  0  0  0  0  0  0  0  0  0
    2.0623    2.3639    0.0000 C   0  0  0  0  0  0  0  0  0  0  0  0
    0.1223    3.4888    0.0000 C   0  0  0  0  0  0  0  0  0  0  0  0
   -1.1819    2.8367    0.0000 C   0  0  0  0  0  0  0  0  0  0  0  0
    0.6603   -0.9456    0.0000 C   0  0  0  0  0  0  0  0  0  0  0  0
    2.0786   -0.9456    0.0000 C   0  0  0  0  0  0  0  0  0  0  0  0
   -1.4591   -2.1683    0.0000 C   0  0  0  0  0  0  0  0  0  0  0  0
   -1.4917   -3.0160    0.0000 C   0  0  0  0  0  0  0  0  0  0  0  0
   -0.0571   -2.1845    0.0000 C   0  0  0  0  0  0  0  0  0  0  0  0
    1.3776   -2.1683    0.0000 C   0  0  0  0  0  0  0  0  0  0  0  0
    0.6765   -1.7607    0.0000 C   0  0  0  0  0  0  0  0  0  0  0  0
    2.0786   -1.7607    0.0000 C   0  0  0  0  0  0  0  0  0  0  0  0
   -0.7581   -3.4072    0.0000 C   0  0  0  0  0  0  0  0  0  0  0  0
   -0.0571   -3.0160    0.0000 C   0  0  0  0  0  0  0  0  0  0  0  0
    1.6547    3.0812    0.0000 C   0  0  0  0  0  0  0  0  0  0  0  0
    2.8774    2.5758    0.0000 C   0  0  0  0  0  0  0  0  0  0  0  0
    2.0786   -3.4398    0.0000 C   0  0  0  0  0  0  0  0  0  0  0  0
   -2.8774   -3.8474    0.0000 C   0  0  0  0  0  0  0  0  0  0  0  0
  1 10  2  0  0  0  0
  1 11  2  0  0  0  0
  1 34  1  0  0  0  0
  1 44  1  0  0  0  0
  2 29  1  0  0  0  0
  3 29  1  0  0  0  0
  4 29  1  0  0  0  0
  5 43  1  0  0  0  0
  6 43  1  0  0  0  0
  7 43  1  0  0  0  0
  8 16  1  0  0  0  0
  8 20  1  0  0  0  0
  9 36  1  0  0  0  0
  9 43  1  0  0  0  0
 12 14  1  0  0  0  0
 12 17  1  0  0  0  0
 12 27  1  0  0  0  0
 13 18  1  0  0  0  0
 13 20  2  0  0  0  0
 14 24  2  0  0  0  0
 15 16  1  0  0  0  0
 15 17  1  0  0  0  0
 15 19  2  0  0  0  0
 16 18  2  0  0  0  0
 17 23  2  0  0  0  0
 18 22  1  0  0  0  0
 19 21  1  0  0  0  0
 20 28  1  0  0  0  0
 21 25  1  0  0  0  0
 21 26  2  0  0  0  0
 22 31  2  0  0  0  0
 22 32  1  0  0  0  0
 23 26  1  0  0  0  0
 24 29  1  0  0  0  0
 24 30  1  0  0  0  0
 25 33  2  0  0  0  0
 25 35  1  0  0  0  0
 27 30  2  0  0  0  0
 28 41  1  0  0  0  0
 28 42  1  0  0  0  0
 31 37  1  0  0  0  0
 32 38  2  0  0  0  0
 33 34  1  0  0  0  0
 34 39  2  0  0  0  0
 35 40  2  0  0  0  0
 36 37  2  0  0  0  0
 36 38  1  0  0  0  0
 39 40  1  0  0  0  0
M  END
> <PUBCHEM_COMPOUND_ID_TYPE>
0

> <PUBCHEM_TOTAL_CHARGE>
0

> <PUBCHEM_SUBSTANCE_ID>
310948091

> <PUBCHEM_SUBSTANCE_VERSION>
1

> <PUBCHEM_EXT_DATASOURCE_NAME>
4488

> <PUBCHEM_EXT_DATASOURCE_REGID>
SCHEMBL16126267

> <PUBCHEM_SUBSTANCE_COMMENT>
InChI=1S/C30H23F6N3O4S/c1-17(2)28-37-26(18-7-10-21(11-8-18)43-30(34,35)36)27(42-28)23-16-20(19-5-4-6-22(15-19)44(3,40)41)9-12-24(23)39-14-13-25(38-39)29(31,32)33/h4-17H,1-3H3
InChIKey=BONNDVIWMMFGHA-UHFFFAOYSA-N

> <PUBCHEM_SUBSTANCE_SYNONYM>
SCHEMBL16126267

> <PUBCHEM_XREF_EXT_ID>
SCHEMBL16126267

> <PUBCHEM_EXT_DATASOURCE_URL>
https://www.surechembl.org/

> <PUBCHEM_EXT_SUBSTANCE_URL>
https://www.surechembl.org/chemical/SCHEMBL16126267

> <PUBCHEM_CID_ASSOCIATIONS>
117613710  1

> <PUBCHEM_COORDINATE_TYPE>
1
3

$$$$
