310938546
  -OEChem-07211613022D

 41 45  0     1  0  0  0  0  0999 V2000
   -5.8736   -1.0030    0.0000 Cl  0  0  0  0  0  0  0  0  0  0  0  0
   -5.3245   -2.5536    0.0000 F   0  0  0  0  0  0  0  0  0  0  0  0
    1.6357    0.0060    0.0000 O   0  0  0  0  0  0  0  0  0  0  0  0
    4.7772    0.6454    0.0000 O   0  0  0  0  0  0  0  0  0  0  0  0
    3.0646   -1.6440    0.0000 O   0  0  0  0  0  0  0  0  0  0  0  0
    1.1937    1.7135    0.0000 O   0  0  0  0  0  0  0  0  0  0  0  0
    0.1832    2.7239    0.0000 O   0  0  0  0  0  0  0  0  0  0  0  0
   -1.9367   -1.2315    0.0000 N   0  0  3  0  0  0  0  0  0  0  0  0
    3.7791   -0.4065    0.0000 N   0  0  0  0  0  0  0  0  0  0  0  0
    5.0486   -0.8190    0.0000 N   0  0  0  0  0  0  0  0  0  0  0  0
   -3.4358   -1.3890    0.0000 C   0  0  0  0  0  0  0  0  0  0  0  0
   -2.6512   -1.6440    0.0000 C   0  0  3  0  0  0  0  0  0  0  0  0
   -3.9207   -2.0565    0.0000 C   0  0  0  0  0  0  0  0  0  0  0  0
   -4.7412   -1.9702    0.0000 C   0  0  0  0  0  0  0  0  0  0  0  0
   -2.6512   -2.4690    0.0000 C   0  0  0  0  0  0  0  0  0  0  0  0
   -3.4358   -2.7239    0.0000 C   0  0  0  0  0  0  0  0  0  0  0  0
   -3.7713   -0.6353    0.0000 C   0  0  0  0  0  0  0  0  0  0  0  0
   -5.0767   -1.2165    0.0000 C   0  0  0  0  0  0  0  0  0  0  0  0
   -4.5918   -0.5491    0.0000 C   0  0  0  0  0  0  0  0  0  0  0  0
   -1.2222   -1.6440    0.0000 C   0  0  0  0  0  0  0  0  0  0  0  0
   -1.9367   -0.4065    0.0000 C   0  0  0  0  0  0  0  0  0  0  0  0
   -0.5077   -1.2315    0.0000 C   0  0  0  0  0  0  0  0  0  0  0  0
   -1.3533    0.1769    0.0000 C   0  0  0  0  0  0  0  0  0  0  0  0
    4.5637   -0.1515    0.0000 C   0  0  0  0  0  0  0  0  0  0  0  0
    3.7791   -1.2315    0.0000 C   0  0  0  0  0  0  0  0  0  0  0  0
    0.2067   -1.6440    0.0000 C   0  0  0  0  0  0  0  0  0  0  0  0
    0.9212   -0.4065    0.0000 C   0  0  0  0  0  0  0  0  0  0  0  0
    0.9212   -1.2315    0.0000 C   0  0  0  0  0  0  0  0  0  0  0  0
   -0.5077   -0.4065    0.0000 C   0  0  0  0  0  0  0  0  0  0  0  0
    4.5637   -1.4864    0.0000 C   0  0  0  0  0  0  0  0  0  0  0  0
    0.2067    0.0060    0.0000 C   0  0  0  0  0  0  0  0  0  0  0  0
    3.0646    0.0060    0.0000 C   0  0  0  0  0  0  0  0  0  0  0  0
   -0.5564   -0.0366    0.0000 C   0  0  0  0  0  0  0  0  0  0  0  0
   -1.5668    0.9738    0.0000 C   0  0  0  0  0  0  0  0  0  0  0  0
    2.3501   -0.4065    0.0000 C   0  0  0  0  0  0  0  0  0  0  0  0
   -0.1866    1.3436    0.0000 C   0  0  0  0  0  0  0  0  0  0  0  0
    0.0269    0.5467    0.0000 C   0  0  0  0  0  0  0  0  0  0  0  0
   -0.9835    1.5572    0.0000 C   0  0  0  0  0  0  0  0  0  0  0  0
    5.8736   -0.8190    0.0000 C   0  0  0  0  0  0  0  0  0  0  0  0
    1.6357   -1.6440    0.0000 C   0  0  0  0  0  0  0  0  0  0  0  0
    0.3968    1.9270    0.0000 C   0  0  0  0  0  0  0  0  0  0  0  0
  1 18  1  0  0  0  0
  2 14  1  0  0  0  0
  3 27  1  0  0  0  0
  3 35  1  0  0  0  0
  4 24  2  0  0  0  0
  5 25  2  0  0  0  0
  6 41  2  0  0  0  0
  7 41  1  0  0  0  0
 12  8  1  1  0  0  0
  8 20  1  0  0  0  0
  8 21  1  0  0  0  0
  9 24  1  0  0  0  0
  9 25  1  0  0  0  0
  9 32  1  0  0  0  0
 10 24  1  0  0  0  0
 10 30  1  0  0  0  0
 10 39  1  0  0  0  0
 11 12  1  0  0  0  0
 11 13  2  0  0  0  0
 11 17  1  0  0  0  0
 12 15  1  0  0  0  0
 13 14  1  0  0  0  0
 13 16  1  0  0  0  0
 14 18  2  0  0  0  0
 15 16  1  0  0  0  0
 17 19  2  0  0  0  0
 18 19  1  0  0  0  0
 20 22  1  0  0  0  0
 23 21  1  1  0  0  0
 22 26  2  0  0  0  0
 22 29  1  0  0  0  0
 23 33  1  0  0  0  0
 23 34  1  0  0  0  0
 25 30  1  0  0  0  0
 26 28  1  0  0  0  0
 27 28  2  0  0  0  0
 27 31  1  0  0  0  0
 28 40  1  0  0  0  0
 29 31  2  0  0  0  0
 32 35  1  0  0  0  0
 33 37  1  0  0  0  0
 34 38  1  0  0  0  0
 36 37  1  0  0  0  0
 36 38  1  0  0  0  0
 36 41  1  6  0  0  0
M  END
> <PUBCHEM_COMPOUND_ID_TYPE>
0

> <PUBCHEM_TOTAL_CHARGE>
0

> <PUBCHEM_SUBSTANCE_ID>
310938546

> <PUBCHEM_SUBSTANCE_VERSION>
1

> <PUBCHEM_EXT_DATASOURCE_NAME>
4488

> <PUBCHEM_EXT_DATASOURCE_REGID>
SCHEMBL16116460

> <PUBCHEM_SUBSTANCE_COMMENT>
InChI=1S/C31H37ClFN3O5/c1-19-15-21(5-12-27(19)41-14-13-36-28(37)18-34(2)31(36)40)17-35(16-20-3-6-22(7-4-20)30(38)39)26-11-9-24-23(26)8-10-25(32)29(24)33/h5,8,10,12,15,20,22,26H,3-4,6-7,9,11,13-14,16-18H2,1-2H3,(H,38,39)/t20-,22-,26-/m0/s1
InChIKey=PFYLDNWHZSKJLS-YBXDKENTSA-N

> <PUBCHEM_SUBSTANCE_SYNONYM>
SCHEMBL16116460

> <PUBCHEM_XREF_EXT_ID>
SCHEMBL16116460

> <PUBCHEM_EXT_DATASOURCE_URL>
https://www.surechembl.org/

> <PUBCHEM_EXT_SUBSTANCE_URL>
https://www.surechembl.org/chemical/SCHEMBL16116460

> <PUBCHEM_CID_ASSOCIATIONS>
89626940  1

> <PUBCHEM_COORDINATE_TYPE>
1
3

> <PUBCHEM_BONDANNOTATIONS>
23  21  5
36  41  6
12  8  5

$$$$
