310939825
  -OEChem-07211613022D

 12 12  0     0  0  0  0  0  0999 V2000
    0.1205    1.6272    0.0000 Cl  0  0  0  0  0  0  0  0  0  0  0  0
   -1.5450   -0.8163    0.0000 Cl  0  0  0  0  0  0  0  0  0  0  0  0
    1.5450    1.6272    0.0000 Cl  0  0  0  0  0  0  0  0  0  0  0  0
    1.5340    0.8163    0.0000 O   0  0  0  0  0  0  0  0  0  0  0  0
    1.4574   -1.6272    0.0000 O   0  0  0  0  0  0  0  0  0  0  0  0
    0.1095   -0.8163    0.0000 N   0  0  0  0  0  0  0  0  0  0  0  0
   -0.6027    0.3999    0.0000 N   0  0  0  0  0  0  0  0  0  0  0  0
    0.8328    0.4109    0.0000 C   0  0  0  0  0  0  0  0  0  0  0  0
    0.8109   -0.4109    0.0000 C   0  0  0  0  0  0  0  0  0  0  0  0
    0.1095    0.8163    0.0000 C   0  0  0  0  0  0  0  0  0  0  0  0
   -0.6136   -0.3999    0.0000 C   0  0  0  0  0  0  0  0  0  0  0  0
    1.5340   -0.8163    0.0000 C   0  0  0  0  0  0  0  0  0  0  0  0
  1 10  1  0  0  0  0
  2 11  1  0  0  0  0
  3  4  1  0  0  0  0
  4  8  1  0  0  0  0
  5 12  2  0  0  0  0
  6  9  2  0  0  0  0
  6 11  1  0  0  0  0
  7 10  1  0  0  0  0
  7 11  2  0  0  0  0
  8  9  1  0  0  0  0
  8 10  2  0  0  0  0
  9 12  1  0  0  0  0
M  END
> <PUBCHEM_COMPOUND_ID_TYPE>
0

> <PUBCHEM_TOTAL_CHARGE>
0

> <PUBCHEM_SUBSTANCE_ID>
310939825

> <PUBCHEM_SUBSTANCE_VERSION>
1

> <PUBCHEM_EXT_DATASOURCE_NAME>
4488

> <PUBCHEM_EXT_DATASOURCE_REGID>
SCHEMBL16117755

> <PUBCHEM_SUBSTANCE_COMMENT>
InChI=1S/C5HCl3N2O2/c6-4-3(12-8)2(1-11)9-5(7)10-4/h1H
InChIKey=HRMIYTNAFGXOAR-UHFFFAOYSA-N

> <PUBCHEM_SUBSTANCE_SYNONYM>
SCHEMBL16117755

> <PUBCHEM_XREF_EXT_ID>
SCHEMBL16117755

> <PUBCHEM_EXT_DATASOURCE_URL>
https://www.surechembl.org/

> <PUBCHEM_EXT_SUBSTANCE_URL>
https://www.surechembl.org/chemical/SCHEMBL16117755

> <PUBCHEM_CID_ASSOCIATIONS>
117607042  1

> <PUBCHEM_COORDINATE_TYPE>
1
3

$$$$
