310936113
  -OEChem-07211613022D

 35 37  0     1  0  0  0  0  0999 V2000
   -4.2868   -3.5596    0.0000 O   0  0  0  0  0  0  0  0  0  0  0  0
   -6.4302   -3.1471    0.0000 O   0  0  0  0  0  0  0  0  0  0  0  0
   -1.4290   -3.5596    0.0000 O   0  0  0  0  0  0  0  0  0  0  0  0
   -2.7718    0.9356    0.0000 O   0  0  0  0  0  0  0  0  0  0  0  0
   -5.7158   -4.3846    0.0000 O   0  0  0  0  0  0  0  0  0  0  0  0
   -4.0093    1.6500    0.0000 O   0  0  0  0  0  0  0  0  0  0  0  0
   -5.0013   -0.6721    0.0000 N   0  0  0  0  0  0  0  0  0  0  0  0
   -3.5724   -2.3221    0.0000 N   0  0  0  0  0  0  0  0  0  0  0  0
   -4.8298    0.1348    0.0000 N   0  0  0  0  0  0  0  0  0  0  0  0
   -4.2868   -1.9096    0.0000 C   0  0  0  0  0  0  0  0  0  0  0  0
   -4.2868   -1.0846    0.0000 C   0  0  0  0  0  0  0  0  0  0  0  0
   -5.0013   -2.3221    0.0000 C   0  0  0  0  0  0  0  0  0  0  0  0
   -5.7158   -1.9096    0.0000 C   0  0  0  0  0  0  0  0  0  0  0  0
   -5.0013   -3.1471    0.0000 C   0  0  3  0  0  0  0  0  0  0  0  0
   -3.6737   -0.5326    0.0000 C   0  0  0  0  0  0  0  0  0  0  0  0
   -5.7158   -1.0846    0.0000 C   0  0  0  0  0  0  0  0  0  0  0  0
   -4.0093    0.2210    0.0000 C   0  0  0  0  0  0  0  0  0  0  0  0
   -3.5724   -3.1471    0.0000 C   0  0  0  0  0  0  0  0  0  0  0  0
   -2.8579   -1.9096    0.0000 C   0  0  0  0  0  0  0  0  0  0  0  0
   -5.7158   -3.5596    0.0000 C   0  0  0  0  0  0  0  0  0  0  0  0
   -2.1434   -3.1471    0.0000 C   0  0  0  0  0  0  0  0  0  0  0  0
   -3.5968    0.9356    0.0000 C   0  0  0  0  0  0  0  0  0  0  0  0
   -2.8579   -3.5596    0.0000 C   0  0  0  0  0  0  0  0  0  0  0  0
   -2.1434   -2.3221    0.0000 C   0  0  0  0  0  0  0  0  0  0  0  0
   -6.4302   -2.3221    0.0000 C   0  0  0  0  0  0  0  0  0  0  0  0
   -4.2868   -4.3846    0.0000 C   0  0  0  0  0  0  0  0  0  0  0  0
   -2.1434   -3.9721    0.0000 C   0  0  0  0  0  0  0  0  0  0  0  0
   -5.0013   -4.7971    0.0000 C   0  0  0  0  0  0  0  0  0  0  0  0
   -4.2868   -5.2096    0.0000 C   0  0  0  0  0  0  0  0  0  0  0  0
   -3.5724   -4.7971    0.0000 C   0  0  0  0  0  0  0  0  0  0  0  0
   -0.7145   -3.1471    0.0000 C   0  0  0  0  0  0  0  0  0  0  0  0
   -7.1447   -3.5596    0.0000 C   0  0  0  0  0  0  0  0  0  0  0  0
   -2.3593    1.6500    0.0000 C   0  0  0  0  0  0  0  0  0  0  0  0
    0.0000   -3.5596    0.0000 C   0  0  0  0  0  0  0  0  0  0  0  0
    0.7145   -3.1471    0.0000 C   0  0  0  0  0  0  0  0  0  0  0  0
 14  1  1  6  0  0  0
  1 26  1  0  0  0  0
  2 20  1  0  0  0  0
  2 32  1  0  0  0  0
  3 21  1  0  0  0  0
  3 31  1  0  0  0  0
  4 22  1  0  0  0  0
  4 33  1  0  0  0  0
  5 20  2  0  0  0  0
  6 22  2  0  0  0  0
  7  9  1  0  0  0  0
  7 11  1  0  0  0  0
  7 16  1  0  0  0  0
  8 10  1  0  0  0  0
  8 18  1  0  0  0  0
  8 19  1  0  0  0  0
  9 17  2  0  0  0  0
 10 11  1  0  0  0  0
 10 12  2  0  0  0  0
 11 15  2  0  0  0  0
 12 13  1  0  0  0  0
 12 14  1  0  0  0  0
 13 16  2  0  0  0  0
 13 25  1  0  0  0  0
 14 20  1  0  0  0  0
 15 17  1  0  0  0  0
 17 22  1  0  0  0  0
 18 23  1  0  0  0  0
 19 24  1  0  0  0  0
 21 23  1  0  0  0  0
 21 24  1  0  0  0  0
 21 27  1  0  0  0  0
 26 28  1  0  0  0  0
 26 29  1  0  0  0  0
 26 30  1  0  0  0  0
 31 34  1  0  0  0  0
 34 35  2  0  0  0  0
M  END
> <PUBCHEM_COMPOUND_ID_TYPE>
0

> <PUBCHEM_TOTAL_CHARGE>
0

> <PUBCHEM_SUBSTANCE_ID>
310936113

> <PUBCHEM_SUBSTANCE_VERSION>
1

> <PUBCHEM_EXT_DATASOURCE_NAME>
4488

> <PUBCHEM_EXT_DATASOURCE_REGID>
SCHEMBL16113720

> <PUBCHEM_SUBSTANCE_COMMENT>
InChI=1S/C26H37N3O6/c1-9-14-34-26(6)10-12-28(13-11-26)21-19-15-18(23(30)32-7)27-29(19)16-17(2)20(21)22(24(31)33-8)35-25(3,4)5/h9,15-16,22H,1,10-14H2,2-8H3/t22-/m0/s1
InChIKey=IBIGDPRJYKIZAV-QFIPXVFZSA-N

> <PUBCHEM_SUBSTANCE_SYNONYM>
SCHEMBL16113720

> <PUBCHEM_XREF_EXT_ID>
SCHEMBL16113720

> <PUBCHEM_EXT_DATASOURCE_URL>
https://www.surechembl.org/

> <PUBCHEM_EXT_SUBSTANCE_URL>
https://www.surechembl.org/chemical/SCHEMBL16113720

> <PUBCHEM_CID_ASSOCIATIONS>
117604078  1

> <PUBCHEM_COORDINATE_TYPE>
1
3

> <PUBCHEM_BONDANNOTATIONS>
14  1  6

$$$$
