310942513
  -OEChem-07211613022D

 42 47  0     1  0  0  0  0  0999 V2000
    1.8125    1.0784    0.0000 O   0  0  0  0  0  0  0  0  0  0  0  0
    2.3067   -1.0635    0.0000 O   0  0  0  0  0  0  0  0  0  0  0  0
    1.0635   -0.9886    0.0000 O   0  0  0  0  0  0  0  0  0  0  0  0
    3.2205    0.7190    0.0000 N   0  0  0  0  0  0  0  0  0  0  0  0
    3.8945   -0.6442    0.0000 N   0  0  0  0  0  0  0  0  0  0  0  0
   -0.3296    0.6142    0.0000 N   0  0  3  0  0  0  0  0  0  0  0  0
    5.3026   -0.5393    0.0000 N   0  0  0  0  0  0  0  0  0  0  0  0
    4.8231    2.1419    0.0000 N   0  0  0  0  0  0  0  0  0  0  0  0
    5.9317    0.7638    0.0000 N   0  0  0  0  0  0  0  0  0  0  0  0
   -2.6662   -0.9137    0.0000 N   0  0  0  0  0  0  0  0  0  0  0  0
   -3.3104   -2.0970    0.0000 N   0  0  0  0  0  0  0  0  0  0  0  0
    2.4265    0.5243    0.0000 C   0  0  3  0  0  0  0  0  0  0  0  0
    3.8795    0.2247    0.0000 C   0  0  0  0  0  0  0  0  0  0  0  0
    4.5237    0.6741    0.0000 C   0  0  0  0  0  0  0  0  0  0  0  0
    2.0820   -0.2547    0.0000 C   0  0  3  0  0  0  0  0  0  0  0  0
    4.3140    1.4829    0.0000 C   0  0  0  0  0  0  0  0  0  0  0  0
    1.1084    0.6741    0.0000 C   0  0  3  0  0  0  0  0  0  0  0  0
    3.5200    1.5279    0.0000 C   0  0  0  0  0  0  0  0  0  0  0  0
    1.2732   -0.1647    0.0000 C   0  0  3  0  0  0  0  0  0  0  0  0
    5.2725    0.3146    0.0000 C   0  0  0  0  0  0  0  0  0  0  0  0
    0.3745    1.0485    0.0000 C   0  0  0  0  0  0  0  0  0  0  0  0
   -0.5393   -0.1947    0.0000 C   0  0  0  0  0  0  0  0  0  0  0  0
    4.6435   -1.0036    0.0000 C   0  0  0  0  0  0  0  0  0  0  0  0
   -0.8088   -1.3182    0.0000 C   0  0  0  0  0  0  0  0  0  0  0  0
   -1.2282   -0.6142    0.0000 C   0  0  0  0  0  0  0  0  0  0  0  0
   -0.1348   -0.9137    0.0000 C   0  0  0  0  0  0  0  0  0  0  0  0
   -1.0336    1.0485    0.0000 C   0  0  0  0  0  0  0  0  0  0  0  0
   -3.4750   -0.7339    0.0000 C   0  0  0  0  0  0  0  0  0  0  0  0
   -3.8645   -1.4679    0.0000 C   0  0  0  0  0  0  0  0  0  0  0  0
   -2.5764   -1.7226    0.0000 C   0  0  0  0  0  0  0  0  0  0  0  0
   -4.7184    0.0000    0.0000 C   0  0  0  0  0  0  0  0  0  0  0  0
   -1.0336   -2.1419    0.0000 C   0  0  0  0  0  0  0  0  0  0  0  0
   -3.8795   -0.0150    0.0000 C   0  0  0  0  0  0  0  0  0  0  0  0
   -1.8724   -2.1419    0.0000 C   0  0  0  0  0  0  0  0  0  0  0  0
   -5.1228    0.7339    0.0000 C   0  0  0  0  0  0  0  0  0  0  0  0
   -4.6884   -1.4530    0.0000 C   0  0  0  0  0  0  0  0  0  0  0  0
   -5.0928   -0.7489    0.0000 C   0  0  0  0  0  0  0  0  0  0  0  0
   -1.0485    1.8874    0.0000 C   0  0  0  0  0  0  0  0  0  0  0  0
   -1.7226    0.6142    0.0000 C   0  0  0  0  0  0  0  0  0  0  0  0
   -5.9317    0.6890    0.0000 C   0  0  0  0  0  0  0  0  0  0  0  0
   -5.5272    1.4230    0.0000 C   0  0  0  0  0  0  0  0  0  0  0  0
   -4.7035    1.4530    0.0000 C   0  0  0  0  0  0  0  0  0  0  0  0
 12  1  1  1  0  0  0
  1 17  1  0  0  0  0
 15  2  1  6  0  0  0
 19  3  1  6  0  0  0
  4 12  1  0  0  0  0
  4 13  1  0  0  0  0
  4 18  1  0  0  0  0
  5 13  1  0  0  0  0
  5 23  2  0  0  0  0
  6 21  1  0  0  0  0
 22  6  1  1  0  0  0
  6 27  1  0  0  0  0
  7 20  2  0  0  0  0
  7 23  1  0  0  0  0
  8 16  1  0  0  0  0
  9 20  1  0  0  0  0
 10 28  1  0  0  0  0
 10 30  2  0  0  0  0
 11 29  1  0  0  0  0
 11 30  1  0  0  0  0
 12 15  1  0  0  0  0
 13 14  2  0  0  0  0
 14 16  1  0  0  0  0
 14 20  1  0  0  0  0
 15 19  1  0  0  0  0
 16 18  2  0  0  0  0
 17 19  1  0  0  0  0
 17 21  1  1  0  0  0
 22 25  1  0  0  0  0
 22 26  1  0  0  0  0
 24 25  1  0  0  0  0
 24 26  1  0  0  0  0
 24 32  1  1  0  0  0
 27 38  1  0  0  0  0
 27 39  1  0  0  0  0
 28 29  2  0  0  0  0
 28 33  1  0  0  0  0
 29 36  1  0  0  0  0
 30 34  1  0  0  0  0
 31 33  2  0  0  0  0
 31 35  1  0  0  0  0
 31 37  1  0  0  0  0
 32 34  1  0  0  0  0
 35 40  1  0  0  0  0
 35 41  1  0  0  0  0
 35 42  1  0  0  0  0
 36 37  2  0  0  0  0
M  END
> <PUBCHEM_COMPOUND_ID_TYPE>
0

> <PUBCHEM_TOTAL_CHARGE>
0

> <PUBCHEM_SUBSTANCE_ID>
310942513

> <PUBCHEM_SUBSTANCE_VERSION>
1

> <PUBCHEM_EXT_DATASOURCE_NAME>
4488

> <PUBCHEM_EXT_DATASOURCE_REGID>
SCHEMBL16120549

> <PUBCHEM_SUBSTANCE_COMMENT>
InChI=1S/C31H44N8O3/c1-16(2)38(14-23-26(40)27(41)30(42-23)39-13-20(32)25-28(33)34-15-35-29(25)39)19-10-17(11-19)6-9-24-36-21-8-7-18(31(3,4)5)12-22(21)37-24/h7-8,12-13,15-17,19,23,26-27,30,40-41H,6,9-11,14,32H2,1-5H3,(H,36,37)(H2,33,34,35)/t17-,19+,23-,26-,27-,30-/m1/s1
InChIKey=BIKQBOPCKMWRFX-JFARKCADSA-N

> <PUBCHEM_SUBSTANCE_SYNONYM>
SCHEMBL16120549

> <PUBCHEM_XREF_EXT_ID>
SCHEMBL16120549

> <PUBCHEM_EXT_DATASOURCE_URL>
https://www.surechembl.org/

> <PUBCHEM_EXT_SUBSTANCE_URL>
https://www.surechembl.org/chemical/SCHEMBL16120549

> <PUBCHEM_CID_ASSOCIATIONS>
86272809  1

> <PUBCHEM_COORDINATE_TYPE>
1
3

> <PUBCHEM_BONDANNOTATIONS>
12  1  5
17  21  5
15  2  6
24  32  5
19  3  6
22  6  5

$$$$
