310943031
  -OEChem-07211613022D

 33 36  0     1  0  0  0  0  0999 V2000
    3.3083   -2.3290    0.0000 F   0  0  0  0  0  0  0  0  0  0  0  0
    2.8142   -3.3348    0.0000 F   0  0  0  0  0  0  0  0  0  0  0  0
    1.7909   -2.8231    0.0000 F   0  0  0  0  0  0  0  0  0  0  0  0
    3.0966   -1.8350    0.0000 O   0  0  0  0  0  0  0  0  0  0  0  0
   -2.7790   -1.3586    0.0000 O   0  0  0  0  0  0  0  0  0  0  0  0
   -1.2792    3.1760    0.0000 O   0  0  0  0  0  0  0  0  0  0  0  0
   -1.2616    0.9704    0.0000 N   0  0  0  0  0  0  0  0  0  0  0  0
   -0.7675    0.2999    0.0000 N   0  0  0  0  0  0  0  0  0  0  0  0
   -1.0145   -1.1645    0.0000 N   0  0  0  0  0  0  0  0  0  0  0  0
   -3.5024   -0.1058    0.0000 N   0  0  0  0  0  0  0  0  0  0  0  0
    0.9263    0.7058    0.0000 N   0  0  0  0  0  0  0  0  0  0  0  0
   -2.0556   -0.1058    0.0000 C   0  0  0  0  0  0  0  0  0  0  0  0
   -2.0379    0.7234    0.0000 C   0  0  0  0  0  0  0  0  0  0  0  0
   -1.2616   -0.3882    0.0000 C   0  0  0  0  0  0  0  0  0  0  0  0
   -0.9792    1.7821    0.0000 C   0  0  3  0  0  0  0  0  0  0  0  0
    2.2673   -1.7821    0.0000 C   0  0  3  0  0  0  0  0  0  0  0  0
   -2.7790   -0.4940    0.0000 C   0  0  0  0  0  0  0  0  0  0  0  0
    1.4203   -1.6233    0.0000 C   0  0  0  0  0  0  0  0  0  0  0  0
    2.5319   -2.5760    0.0000 C   0  0  0  0  0  0  0  0  0  0  0  0
   -2.7790    1.1292    0.0000 C   0  0  0  0  0  0  0  0  0  0  0  0
   -0.2029   -1.3410    0.0000 C   0  0  0  0  0  0  0  0  0  0  0  0
   -0.1853    1.9233    0.0000 C   0  0  3  0  0  0  0  0  0  0  0  0
   -3.4671    0.7410    0.0000 C   0  0  0  0  0  0  0  0  0  0  0  0
   -1.5439    2.3820    0.0000 C   0  0  0  0  0  0  0  0  0  0  0  0
    0.9087   -2.2585    0.0000 C   0  0  0  0  0  0  0  0  0  0  0  0
    1.1557   -0.8646    0.0000 C   0  0  0  0  0  0  0  0  0  0  0  0
    0.0794   -2.1173    0.0000 C   0  0  0  0  0  0  0  0  0  0  0  0
    0.3441   -0.7234    0.0000 C   0  0  0  0  0  0  0  0  0  0  0  0
    2.5143   -1.0057    0.0000 C   0  0  0  0  0  0  0  0  0  0  0  0
    0.0794    2.7172    0.0000 C   0  0  0  0  0  0  0  0  0  0  0  0
    0.3794    1.3057    0.0000 C   0  0  0  0  0  0  0  0  0  0  0  0
   -0.4676    3.3348    0.0000 C   0  0  0  0  0  0  0  0  0  0  0  0
    3.5024   -2.5408    0.0000 C   0  0  0  0  0  0  0  0  0  0  0  0
  1 19  1  0  0  0  0
  2 19  1  0  0  0  0
  3 19  1  0  0  0  0
  4 16  1  0  0  0  0
  4 33  1  0  0  0  0
  5 17  2  0  0  0  0
  6 24  1  0  0  0  0
  6 32  1  0  0  0  0
  7  8  1  0  0  0  0
  7 13  1  0  0  0  0
 15  7  1  1  0  0  0
  8 14  2  0  0  0  0
  9 14  1  0  0  0  0
  9 21  1  0  0  0  0
 10 17  1  0  0  0  0
 10 23  1  0  0  0  0
 11 31  3  0  0  0  0
 12 13  2  0  0  0  0
 12 14  1  0  0  0  0
 12 17  1  0  0  0  0
 13 20  1  0  0  0  0
 15 22  1  0  0  0  0
 15 24  1  0  0  0  0
 16 18  1  0  0  0  0
 16 19  1  0  0  0  0
 16 29  1  0  0  0  0
 18 25  2  0  0  0  0
 18 26  1  0  0  0  0
 20 23  2  0  0  0  0
 21 27  2  0  0  0  0
 21 28  1  0  0  0  0
 22 30  1  0  0  0  0
 22 31  1  6  0  0  0
 25 27  1  0  0  0  0
 26 28  2  0  0  0  0
 30 32  1  0  0  0  0
M  END
> <PUBCHEM_COMPOUND_ID_TYPE>
0

> <PUBCHEM_TOTAL_CHARGE>
0

> <PUBCHEM_SUBSTANCE_ID>
310943031

> <PUBCHEM_SUBSTANCE_VERSION>
1

> <PUBCHEM_EXT_DATASOURCE_NAME>
4488

> <PUBCHEM_EXT_DATASOURCE_REGID>
SCHEMBL16121090

> <PUBCHEM_SUBSTANCE_COMMENT>
InChI=1S/C22H22F3N5O3/c1-21(32-2,22(23,24)25)14-3-5-15(6-4-14)28-19-18-16(7-9-27-20(18)31)30(29-19)17-12-33-10-8-13(17)11-26/h3-7,9,13,17H,8,10,12H2,1-2H3,(H,27,31)(H,28,29)/t13-,17+,21?/m1/s1
InChIKey=SJYUNPKZVYAKTA-IAYPABFCSA-N

> <PUBCHEM_SUBSTANCE_SYNONYM>
SCHEMBL16121090

> <PUBCHEM_XREF_EXT_ID>
SCHEMBL16121090

> <PUBCHEM_EXT_DATASOURCE_URL>
https://www.surechembl.org/

> <PUBCHEM_EXT_SUBSTANCE_URL>
https://www.surechembl.org/chemical/SCHEMBL16121090

> <PUBCHEM_CID_ASSOCIATIONS>
117609476  1

> <PUBCHEM_COORDINATE_TYPE>
1
3

> <PUBCHEM_BONDANNOTATIONS>
22  31  6
15  7  5

$$$$
