310929239
  -OEChem-07211613022D

 19 19  0     0  0  0  0  0  0999 V2000
    2.4801   -0.7055    0.0000 O   0  0  0  0  0  0  0  0  0  0  0  0
    1.2400    0.0000    0.0000 O   0  0  0  0  0  0  0  0  0  0  0  0
    3.3139   -0.7055    0.0000 O   0  0  0  0  0  0  0  0  0  0  0  0
    4.5539   -1.4324    0.0000 O   0  0  0  0  0  0  0  0  0  0  0  0
    3.3139   -2.1380    0.0000 N   0  0  0  0  0  0  0  0  0  0  0  0
    0.0000   -0.7055    0.0000 N   0  0  0  0  0  0  0  0  0  0  0  0
    2.0524   -1.4324    0.0000 C   0  0  0  0  0  0  0  0  0  0  0  0
    1.2400   -1.4324    0.0000 C   0  0  0  0  0  0  0  0  0  0  0  0
    2.4801   -2.1380    0.0000 C   0  0  0  0  0  0  0  0  0  0  0  0
    1.2400   -2.8649    0.0000 C   0  0  0  0  0  0  0  0  0  0  0  0
    0.8338   -2.1380    0.0000 C   0  0  0  0  0  0  0  0  0  0  0  0
    2.0524   -2.8649    0.0000 C   0  0  0  0  0  0  0  0  0  0  0  0
    0.8125   -3.5704    0.0000 C   0  0  0  0  0  0  0  0  0  0  0  0
    0.8338   -0.7055    0.0000 C   0  0  0  0  0  0  0  0  0  0  0  0
    3.7201   -1.4324    0.0000 C   0  0  0  0  0  0  0  0  0  0  0  0
    0.0855   -3.1428    0.0000 C   0  0  0  0  0  0  0  0  0  0  0  0
    0.4276   -4.2760    0.0000 C   0  0  0  0  0  0  0  0  0  0  0  0
    1.5394   -3.9767    0.0000 C   0  0  0  0  0  0  0  0  0  0  0  0
    2.0524    0.0000    0.0000 C   0  0  0  0  0  0  0  0  0  0  0  0
  1  7  1  0  0  0  0
  1 19  1  0  0  0  0
  2 14  2  0  0  0  0
  3 15  2  0  0  0  0
  4 15  1  0  0  0  0
  5  9  1  0  0  0  0
  5 15  1  0  0  0  0
  6 14  1  0  0  0  0
  7  8  2  0  0  0  0
  7  9  1  0  0  0  0
  8 11  1  0  0  0  0
  8 14  1  0  0  0  0
  9 12  2  0  0  0  0
 10 11  2  0  0  0  0
 10 12  1  0  0  0  0
 10 13  1  0  0  0  0
 13 16  1  0  0  0  0
 13 17  1  0  0  0  0
 13 18  1  0  0  0  0
M  END
> <PUBCHEM_COMPOUND_ID_TYPE>
0

> <PUBCHEM_TOTAL_CHARGE>
0

> <PUBCHEM_SUBSTANCE_ID>
310929239

> <PUBCHEM_SUBSTANCE_VERSION>
1

> <PUBCHEM_EXT_DATASOURCE_NAME>
4488

> <PUBCHEM_EXT_DATASOURCE_REGID>
SCHEMBL16106403

> <PUBCHEM_SUBSTANCE_COMMENT>
InChI=1S/C13H18N2O4/c1-13(2,3)7-5-8(11(14)16)10(19-4)9(6-7)15-12(17)18/h5-6,15H,1-4H3,(H2,14,16)(H,17,18)
InChIKey=LFRVWRCUGOGGFU-UHFFFAOYSA-N

> <PUBCHEM_SUBSTANCE_SYNONYM>
SCHEMBL16106403

> <PUBCHEM_XREF_EXT_ID>
SCHEMBL16106403

> <PUBCHEM_EXT_DATASOURCE_URL>
https://www.surechembl.org/

> <PUBCHEM_EXT_SUBSTANCE_URL>
https://www.surechembl.org/chemical/SCHEMBL16106403

> <PUBCHEM_CID_ASSOCIATIONS>
117598676  1

> <PUBCHEM_COORDINATE_TYPE>
1
3

$$$$
