310938209
  -OEChem-07211613022D

 14 14  0     0  0  0  0  0  0999 V2000
    0.7185   -3.6848    0.0000 O   0  0  0  0  0  0  0  0  0  0  0  0
    2.8557   -2.4504    0.0000 N   0  0  0  0  0  0  0  0  0  0  0  0
    1.4371    0.0000    0.0000 N   0  0  0  0  0  0  0  0  0  0  0  0
    1.4371   -2.4504    0.0000 C   0  0  0  0  0  0  0  0  0  0  0  0
    1.4371   -1.6213    0.0000 C   0  0  0  0  0  0  0  0  0  0  0  0
    0.7185   -2.8557    0.0000 C   0  0  0  0  0  0  0  0  0  0  0  0
    2.1372   -2.8557    0.0000 C   0  0  0  0  0  0  0  0  0  0  0  0
    2.1188   -1.2344    0.0000 C   0  0  0  0  0  0  0  0  0  0  0  0
    0.7001   -1.2344    0.0000 C   0  0  0  0  0  0  0  0  0  0  0  0
    2.1556   -0.4053    0.0000 C   0  0  0  0  0  0  0  0  0  0  0  0
    0.7369   -0.3869    0.0000 C   0  0  0  0  0  0  0  0  0  0  0  0
    0.0000   -2.4504    0.0000 C   0  0  0  0  0  0  0  0  0  0  0  0
    3.5743   -2.8557    0.0000 C   0  0  0  0  0  0  0  0  0  0  0  0
    2.8557   -1.6213    0.0000 C   0  0  0  0  0  0  0  0  0  0  0  0
  1  6  2  0  0  0  0
  2  7  1  0  0  0  0
  2 13  1  0  0  0  0
  2 14  1  0  0  0  0
  3 10  2  0  0  0  0
  3 11  1  0  0  0  0
  4  5  1  0  0  0  0
  4  6  1  0  0  0  0
  4  7  2  0  0  0  0
  5  8  2  0  0  0  0
  5  9  1  0  0  0  0
  6 12  1  0  0  0  0
  8 10  1  0  0  0  0
  9 11  2  0  0  0  0
M  END
> <PUBCHEM_COMPOUND_ID_TYPE>
0

> <PUBCHEM_TOTAL_CHARGE>
0

> <PUBCHEM_SUBSTANCE_ID>
310938209

> <PUBCHEM_SUBSTANCE_VERSION>
1

> <PUBCHEM_EXT_DATASOURCE_NAME>
4488

> <PUBCHEM_EXT_DATASOURCE_REGID>
SCHEMBL16116066

> <PUBCHEM_SUBSTANCE_COMMENT>
InChI=1S/C11H14N2O/c1-9(14)11(8-13(2)3)10-4-6-12-7-5-10/h4-8H,1-3H3/b11-8-
InChIKey=QEJJLSDONYSIPV-FLIBITNWSA-N

> <PUBCHEM_SUBSTANCE_SYNONYM>
SCHEMBL16116066

> <PUBCHEM_XREF_EXT_ID>
SCHEMBL16116066

> <PUBCHEM_EXT_DATASOURCE_URL>
https://www.surechembl.org/

> <PUBCHEM_EXT_SUBSTANCE_URL>
https://www.surechembl.org/chemical/SCHEMBL16116066

> <PUBCHEM_CID_ASSOCIATIONS>
20514910  1

> <PUBCHEM_COORDINATE_TYPE>
1
3

$$$$
