310929410
  -OEChem-07211613022D

 31 33  0     0  0  0  0  0  0999 V2000
   13.3945   -1.9809    0.0000 O   0  0  0  0  0  0  0  0  0  0  0  0
    0.0000   -3.2071    0.0000 O   0  0  0  0  0  0  0  0  0  0  0  0
   12.0268   -2.7827    0.0000 N   0  0  0  0  0  0  0  0  0  0  0  0
   12.7342   -3.2071    0.0000 C   0  0  0  0  0  0  0  0  0  0  0  0
   12.7342   -4.0089    0.0000 C   0  0  0  0  0  0  0  0  0  0  0  0
   13.4417   -2.7827    0.0000 C   0  0  0  0  0  0  0  0  0  0  0  0
   11.3193   -3.2071    0.0000 C   0  0  0  0  0  0  0  0  0  0  0  0
   12.0268   -4.4334    0.0000 C   0  0  0  0  0  0  0  0  0  0  0  0
   13.4417   -4.4334    0.0000 C   0  0  0  0  0  0  0  0  0  0  0  0
   14.1491   -3.1600    0.0000 C   0  0  0  0  0  0  0  0  0  0  0  0
   11.3193   -4.0089    0.0000 C   0  0  0  0  0  0  0  0  0  0  0  0
   14.1491   -4.0089    0.0000 C   0  0  0  0  0  0  0  0  0  0  0  0
   12.6870   -0.7546    0.0000 C   0  0  0  0  0  0  0  0  0  0  0  0
   12.6870   -1.5564    0.0000 C   0  0  0  0  0  0  0  0  0  0  0  0
   10.6118   -2.7827    0.0000 C   0  0  0  0  0  0  0  0  0  0  0  0
   12.2625   -0.0472    0.0000 C   0  0  0  0  0  0  0  0  0  0  0  0
   13.0644    0.0000    0.0000 C   0  0  0  0  0  0  0  0  0  0  0  0
    9.9044   -3.2071    0.0000 C   0  0  0  0  0  0  0  0  0  0  0  0
    9.1969   -2.7827    0.0000 C   0  0  0  0  0  0  0  0  0  0  0  0
    8.4895   -3.2071    0.0000 C   0  0  0  0  0  0  0  0  0  0  0  0
    7.7820   -2.7827    0.0000 C   0  0  0  0  0  0  0  0  0  0  0  0
    7.0745   -3.2071    0.0000 C   0  0  0  0  0  0  0  0  0  0  0  0
    6.3671   -2.7827    0.0000 C   0  0  0  0  0  0  0  0  0  0  0  0
    5.6597   -3.2071    0.0000 C   0  0  0  0  0  0  0  0  0  0  0  0
    4.9522   -2.7827    0.0000 C   0  0  0  0  0  0  0  0  0  0  0  0
    4.2447   -3.2071    0.0000 C   0  0  0  0  0  0  0  0  0  0  0  0
    3.5373   -2.7827    0.0000 C   0  0  0  0  0  0  0  0  0  0  0  0
    2.8298   -3.2071    0.0000 C   0  0  0  0  0  0  0  0  0  0  0  0
    2.1224   -2.7827    0.0000 C   0  0  0  0  0  0  0  0  0  0  0  0
    1.4149   -3.2071    0.0000 C   0  0  0  0  0  0  0  0  0  0  0  0
    0.7074   -2.7827    0.0000 C   0  0  0  0  0  0  0  0  0  0  0  0
  1  6  1  0  0  0  0
  1 14  1  0  0  0  0
  2 31  1  0  0  0  0
  3  4  2  0  0  0  0
  3  7  1  0  0  0  0
  4  5  1  0  0  0  0
  4  6  1  0  0  0  0
  5  8  2  0  0  0  0
  5  9  1  0  0  0  0
  6 10  2  0  0  0  0
  7 11  2  0  0  0  0
  7 15  1  0  0  0  0
  8 11  1  0  0  0  0
  9 12  2  0  0  0  0
 10 12  1  0  0  0  0
 13 14  1  0  0  0  0
 13 16  1  0  0  0  0
 13 17  1  0  0  0  0
 15 18  1  0  0  0  0
 16 17  1  0  0  0  0
 18 19  1  0  0  0  0
 19 20  1  0  0  0  0
 20 21  1  0  0  0  0
 21 22  1  0  0  0  0
 22 23  1  0  0  0  0
 23 24  1  0  0  0  0
 24 25  1  0  0  0  0
 25 26  1  0  0  0  0
 26 27  1  0  0  0  0
 27 28  1  0  0  0  0
 28 29  1  0  0  0  0
 29 30  1  0  0  0  0
 30 31  1  0  0  0  0
M  END
> <PUBCHEM_COMPOUND_ID_TYPE>
0

> <PUBCHEM_TOTAL_CHARGE>
0

> <PUBCHEM_SUBSTANCE_ID>
310929410

> <PUBCHEM_SUBSTANCE_VERSION>
1

> <PUBCHEM_EXT_DATASOURCE_NAME>
4488

> <PUBCHEM_EXT_DATASOURCE_REGID>
SCHEMBL16106584

> <PUBCHEM_SUBSTANCE_COMMENT>
InChI=1S/C28H43NO2/c30-22-13-11-9-7-5-3-1-2-4-6-8-10-12-16-26-21-20-25-15-14-17-27(28(25)29-26)31-23-24-18-19-24/h14-15,17,20-21,24,30H,1-13,16,18-19,22-23H2
InChIKey=PVNQJXVDGNWIOS-UHFFFAOYSA-N

> <PUBCHEM_SUBSTANCE_SYNONYM>
SCHEMBL16106584

> <PUBCHEM_XREF_EXT_ID>
SCHEMBL16106584

> <PUBCHEM_EXT_DATASOURCE_URL>
https://www.surechembl.org/

> <PUBCHEM_EXT_SUBSTANCE_URL>
https://www.surechembl.org/chemical/SCHEMBL16106584

> <PUBCHEM_CID_ASSOCIATIONS>
85472579  1

> <PUBCHEM_COORDINATE_TYPE>
1
3

$$$$
