310940137
  -OEChem-07211613022D

 34 37  0     1  0  0  0  0  0999 V2000
   -0.8871    0.0603    0.0000 F   0  0  0  0  0  0  0  0  0  0  0  0
   -2.0932   -2.5065    0.0000 O   0  0  0  0  0  0  0  0  0  0  0  0
    0.1120    2.8338    0.0000 O   0  0  0  0  0  0  0  0  0  0  0  0
    1.5418    2.6788    0.0000 O   0  0  0  0  0  0  0  0  0  0  0  0
    0.0431   -0.7666    0.0000 N   0  0  0  0  0  0  0  0  0  0  0  0
    0.3015   -1.5418    0.0000 N   0  0  0  0  0  0  0  0  0  0  0  0
    0.6978    1.5418    0.0000 N   0  0  0  0  0  0  0  0  0  0  0  0
   -0.3704   -2.8510    0.0000 N   0  0  0  0  0  0  0  0  0  0  0  0
   -2.4032   -1.1111    0.0000 N   0  0  0  0  0  0  0  0  0  0  0  0
    2.4893   -1.0249    0.0000 N   0  0  0  0  0  0  0  0  0  0  0  0
    0.5427   -0.1464    0.0000 C   0  0  3  0  0  0  0  0  0  0  0  0
   -0.7838   -0.7493    0.0000 C   0  0  0  0  0  0  0  0  0  0  0  0
   -1.0594   -1.5418    0.0000 C   0  0  0  0  0  0  0  0  0  0  0  0
   -0.3704   -2.0242    0.0000 C   0  0  0  0  0  0  0  0  0  0  0  0
   -0.1292    0.3704    0.0000 C   0  0  3  0  0  0  0  0  0  0  0  0
    1.2661    0.2326    0.0000 C   0  0  0  0  0  0  0  0  0  0  0  0
   -1.8519   -1.6969    0.0000 C   0  0  0  0  0  0  0  0  0  0  0  0
    0.8699   -0.8527    0.0000 C   0  0  0  0  0  0  0  0  0  0  0  0
   -1.3178   -0.1637    0.0000 C   0  0  0  0  0  0  0  0  0  0  0  0
   -0.0603    1.1972    0.0000 C   0  0  0  0  0  0  0  0  0  0  0  0
    1.3695    1.0594    0.0000 C   0  0  0  0  0  0  0  0  0  0  0  0
   -2.1276   -0.3187    0.0000 C   0  0  0  0  0  0  0  0  0  0  0  0
    0.7666    2.3515    0.0000 C   0  0  0  0  0  0  0  0  0  0  0  0
   -1.0766   -3.2645    0.0000 C   0  0  0  0  0  0  0  0  0  0  0  0
    1.6624   -0.9560    0.0000 C   0  0  0  0  0  0  0  0  0  0  0  0
   -1.8003   -2.8683    0.0000 C   0  0  0  0  0  0  0  0  0  0  0  0
   -1.0939   -4.0914    0.0000 C   0  0  0  0  0  0  0  0  0  0  0  0
    0.2154    3.6780    0.0000 C   0  0  0  0  0  0  0  0  0  0  0  0
   -2.4893   -3.2645    0.0000 C   0  0  0  0  0  0  0  0  0  0  0  0
   -1.7658   -4.4876    0.0000 C   0  0  0  0  0  0  0  0  0  0  0  0
   -2.4893   -4.0914    0.0000 C   0  0  0  0  0  0  0  0  0  0  0  0
    0.2843    4.4876    0.0000 C   0  0  0  0  0  0  0  0  0  0  0  0
   -0.4566    4.1603    0.0000 C   0  0  0  0  0  0  0  0  0  0  0  0
    0.9733    4.0053    0.0000 C   0  0  0  0  0  0  0  0  0  0  0  0
 15  1  1  6  0  0  0
  2 17  2  0  0  0  0
  3 23  1  0  0  0  0
  3 28  1  0  0  0  0
  4 23  2  0  0  0  0
  5  6  1  0  0  0  0
  5 11  1  0  0  0  0
  5 12  1  0  0  0  0
  6 14  2  0  0  0  0
  7 20  1  0  0  0  0
  7 21  1  0  0  0  0
  7 23  1  0  0  0  0
  8 14  1  0  0  0  0
  8 24  1  0  0  0  0
  9 17  1  0  0  0  0
  9 22  1  0  0  0  0
 10 25  3  0  0  0  0
 11 15  1  0  0  0  0
 11 16  1  0  0  0  0
 11 18  1  1  0  0  0
 12 13  2  0  0  0  0
 12 19  1  0  0  0  0
 13 14  1  0  0  0  0
 13 17  1  0  0  0  0
 15 20  1  0  0  0  0
 16 21  1  0  0  0  0
 18 25  1  0  0  0  0
 19 22  2  0  0  0  0
 24 26  2  0  0  0  0
 24 27  1  0  0  0  0
 26 29  1  0  0  0  0
 27 30  2  0  0  0  0
 28 32  1  0  0  0  0
 28 33  1  0  0  0  0
 28 34  1  0  0  0  0
 29 31  2  0  0  0  0
 30 31  1  0  0  0  0
M  END
> <PUBCHEM_COMPOUND_ID_TYPE>
0

> <PUBCHEM_TOTAL_CHARGE>
0

> <PUBCHEM_SUBSTANCE_ID>
310940137

> <PUBCHEM_SUBSTANCE_VERSION>
1

> <PUBCHEM_EXT_DATASOURCE_NAME>
4488

> <PUBCHEM_EXT_DATASOURCE_REGID>
SCHEMBL16118070

> <PUBCHEM_SUBSTANCE_COMMENT>
InChI=1S/C24H27FN6O3/c1-23(2,3)34-22(33)30-14-11-24(10-12-26,18(25)15-30)31-17-9-13-27-21(32)19(17)20(29-31)28-16-7-5-4-6-8-16/h4-9,13,18H,10-11,14-15H2,1-3H3,(H,27,32)(H,28,29)/t18-,24+/m1/s1
InChIKey=SNNXBVPXCIVTOK-KOSHJBKYSA-N

> <PUBCHEM_SUBSTANCE_SYNONYM>
SCHEMBL16118070

> <PUBCHEM_XREF_EXT_ID>
SCHEMBL16118070

> <PUBCHEM_EXT_DATASOURCE_URL>
https://www.surechembl.org/

> <PUBCHEM_EXT_SUBSTANCE_URL>
https://www.surechembl.org/chemical/SCHEMBL16118070

> <PUBCHEM_CID_ASSOCIATIONS>
117607262  1

> <PUBCHEM_COORDINATE_TYPE>
1
3

> <PUBCHEM_BONDANNOTATIONS>
15  1  6
11  18  5

$$$$
