310936800
  -OEChem-07211613022D

 24 25  0     1  0  0  0  0  0999 V2000
    2.8224   -4.0986    0.0000 Cl  0  0  0  0  0  0  0  0  0  0  0  0
    4.2459   -4.9085    0.0000 Cl  0  0  0  0  0  0  0  0  0  0  0  0
    0.6872   -1.2271    0.0000 S   0  0  0  0  0  0  0  0  0  0  0  0
    3.5341   -0.4173    0.0000 O   0  0  0  0  0  0  0  0  0  0  0  0
    1.1044   -0.5154    0.0000 O   0  0  0  0  0  0  0  0  0  0  0  0
    0.2700   -1.9389    0.0000 O   0  0  0  0  0  0  0  0  0  0  0  0
    4.9331   -0.4173    0.0000 N   0  0  0  0  0  0  0  0  0  0  0  0
    4.2459   -1.6443    0.0000 C   0  0  3  0  0  0  0  0  0  0  0  0
    3.5341   -1.2271    0.0000 C   0  0  3  0  0  0  0  0  0  0  0  0
    2.8224   -1.6443    0.0000 C   0  0  0  0  0  0  0  0  0  0  0  0
    4.2459   -2.4543    0.0000 C   0  0  0  0  0  0  0  0  0  0  0  0
    1.3989   -1.6443    0.0000 C   0  0  0  0  0  0  0  0  0  0  0  0
    2.1107   -1.2271    0.0000 C   0  0  0  0  0  0  0  0  0  0  0  0
    3.5341   -2.8715    0.0000 C   0  0  0  0  0  0  0  0  0  0  0  0
    3.5341   -3.6814    0.0000 C   0  0  0  0  0  0  0  0  0  0  0  0
    2.7979   -2.4543    0.0000 C   0  0  0  0  0  0  0  0  0  0  0  0
    4.9576   -2.8715    0.0000 C   0  0  0  0  0  0  0  0  0  0  0  0
    4.2459   -4.0986    0.0000 C   0  0  0  0  0  0  0  0  0  0  0  0
    1.3989   -2.4543    0.0000 C   0  0  0  0  0  0  0  0  0  0  0  0
    4.9331   -1.2271    0.0000 C   0  0  0  0  0  0  0  0  0  0  0  0
    4.9576   -3.6814    0.0000 C   0  0  0  0  0  0  0  0  0  0  0  0
    2.1107   -2.8715    0.0000 C   0  0  0  0  0  0  0  0  0  0  0  0
    0.0000   -0.8099    0.0000 C   0  0  0  0  0  0  0  0  0  0  0  0
    4.2459    0.0000    0.0000 C   0  0  0  0  0  0  0  0  0  0  0  0
  1 15  1  0  0  0  0
  2 18  1  0  0  0  0
  3  5  2  0  0  0  0
  3  6  2  0  0  0  0
  3 12  1  0  0  0  0
  3 23  1  0  0  0  0
  9  4  1  1  0  0  0
  7 20  1  0  0  0  0
  7 24  1  0  0  0  0
  8  9  1  0  0  0  0
  8 11  1  0  0  0  0
  8 20  1  6  0  0  0
  9 10  1  0  0  0  0
 10 13  1  0  0  0  0
 10 16  2  0  0  0  0
 11 14  1  0  0  0  0
 11 17  2  0  0  0  0
 12 13  2  0  0  0  0
 12 19  1  0  0  0  0
 14 15  2  0  0  0  0
 15 18  1  0  0  0  0
 16 22  1  0  0  0  0
 17 21  1  0  0  0  0
 18 21  2  0  0  0  0
 19 22  2  0  0  0  0
M  END
> <PUBCHEM_COMPOUND_ID_TYPE>
0

> <PUBCHEM_TOTAL_CHARGE>
0

> <PUBCHEM_SUBSTANCE_ID>
310936800

> <PUBCHEM_SUBSTANCE_VERSION>
1

> <PUBCHEM_EXT_DATASOURCE_NAME>
4488

> <PUBCHEM_EXT_DATASOURCE_REGID>
SCHEMBL16114486

> <PUBCHEM_SUBSTANCE_COMMENT>
InChI=1S/C17H19Cl2NO3S/c1-20-10-14(11-6-7-15(18)16(19)9-11)17(21)12-4-3-5-13(8-12)24(2,22)23/h3-9,14,17,20-21H,10H2,1-2H3/t14-,17-/m1/s1
InChIKey=AKUSYDITVBVASQ-RHSMWYFYSA-N

> <PUBCHEM_SUBSTANCE_SYNONYM>
SCHEMBL16114486

> <PUBCHEM_XREF_EXT_ID>
SCHEMBL16114486

> <PUBCHEM_EXT_DATASOURCE_URL>
https://www.surechembl.org/

> <PUBCHEM_EXT_SUBSTANCE_URL>
https://www.surechembl.org/chemical/SCHEMBL16114486

> <PUBCHEM_CID_ASSOCIATIONS>
117604694  1

> <PUBCHEM_COORDINATE_TYPE>
1
3

> <PUBCHEM_BONDANNOTATIONS>
9  4  5
8  20  6

$$$$
