310934230
  -OEChem-07211613022D

 26 28  0     0  0  0  0  0  0999 V2000
    7.3602   -0.7097    0.0000 S   0  0  0  0  0  0  0  0  0  0  0  0
    0.2103   -2.8127    0.0000 F   0  0  0  0  0  0  0  0  0  0  0  0
    3.7852   -3.4698    0.0000 O   0  0  0  0  0  0  0  0  0  0  0  0
    4.4424    0.0000    0.0000 O   0  0  0  0  0  0  0  0  0  0  0  0
    0.0788   -4.4424    0.0000 O   0  0  0  0  0  0  0  0  0  0  0  0
    3.6013   -1.4195    0.0000 O   0  0  0  0  0  0  0  0  0  0  0  0
    5.2573   -1.4458    0.0000 N   0  0  0  0  0  0  0  0  0  0  0  0
    4.3898   -2.9178    0.0000 N   0  0  0  0  0  0  0  0  0  0  0  0
    4.4424   -1.4195    0.0000 N   0  0  0  0  0  0  0  0  0  0  0  0
    5.6779   -0.7097    0.0000 C   0  0  0  0  0  0  0  0  0  0  0  0
    3.0755   -3.0492    0.0000 C   0  0  0  0  0  0  0  0  0  0  0  0
    4.8367   -0.7097    0.0000 C   0  0  0  0  0  0  0  0  0  0  0  0
    2.3132   -3.3910    0.0000 C   0  0  0  0  0  0  0  0  0  0  0  0
    4.0481   -2.1555    0.0000 C   0  0  0  0  0  0  0  0  0  0  0  0
    6.0985   -1.4195    0.0000 C   0  0  0  0  0  0  0  0  0  0  0  0
    6.0985    0.0000    0.0000 C   0  0  0  0  0  0  0  0  0  0  0  0
    3.2069   -2.2606    0.0000 C   0  0  0  0  0  0  0  0  0  0  0  0
    4.6264   -1.6035    0.0000 C   0  0  0  0  0  0  0  0  0  0  0  0
    1.6560   -2.9441    0.0000 C   0  0  0  0  0  0  0  0  0  0  0  0
    0.8937   -3.2858    0.0000 C   0  0  0  0  0  0  0  0  0  0  0  0
    2.2343   -4.2322    0.0000 C   0  0  0  0  0  0  0  0  0  0  0  0
    0.8149   -4.0744    0.0000 C   0  0  0  0  0  0  0  0  0  0  0  0
    6.9133   -1.4195    0.0000 C   0  0  0  0  0  0  0  0  0  0  0  0
    6.9133    0.0000    0.0000 C   0  0  0  0  0  0  0  0  0  0  0  0
    1.4983   -4.5739    0.0000 C   0  0  0  0  0  0  0  0  0  0  0  0
    0.0000   -5.2573    0.0000 C   0  0  0  0  0  0  0  0  0  0  0  0
  1 23  1  0  0  0  0
  1 24  1  0  0  0  0
  2 20  1  0  0  0  0
  3  8  1  0  0  0  0
  3 11  1  0  0  0  0
  4 12  2  0  0  0  0
  5 22  1  0  0  0  0
  5 26  1  0  0  0  0
  6  9  1  0  0  0  0
  7 10  1  0  0  0  0
  7 18  1  0  0  0  0
  8 14  2  0  0  0  0
  9 12  1  0  0  0  0
 10 12  1  0  0  0  0
 10 15  1  0  0  0  0
 10 16  1  0  0  0  0
 11 13  1  0  0  0  0
 11 17  2  0  0  0  0
 13 19  1  0  0  0  0
 13 21  2  0  0  0  0
 14 17  1  0  0  0  0
 14 18  1  0  0  0  0
 15 23  1  0  0  0  0
 16 24  1  0  0  0  0
 19 20  2  0  0  0  0
 20 22  1  0  0  0  0
 21 25  1  0  0  0  0
 22 25  2  0  0  0  0
M  END
> <PUBCHEM_COMPOUND_ID_TYPE>
0

> <PUBCHEM_TOTAL_CHARGE>
0

> <PUBCHEM_SUBSTANCE_ID>
310934230

> <PUBCHEM_SUBSTANCE_VERSION>
1

> <PUBCHEM_EXT_DATASOURCE_NAME>
4488

> <PUBCHEM_EXT_DATASOURCE_REGID>
SCHEMBL16111686

> <PUBCHEM_SUBSTANCE_COMMENT>
InChI=1S/C17H20FN3O4S/c1-24-14-3-2-11(8-13(14)18)15-9-12(21-25-15)10-19-17(16(22)20-23)4-6-26-7-5-17/h2-3,8-9,19,23H,4-7,10H2,1H3,(H,20,22)
InChIKey=SPLIPIDKZZASRB-UHFFFAOYSA-N

> <PUBCHEM_SUBSTANCE_SYNONYM>
SCHEMBL16111686

> <PUBCHEM_XREF_EXT_ID>
SCHEMBL16111686

> <PUBCHEM_EXT_DATASOURCE_URL>
https://www.surechembl.org/

> <PUBCHEM_EXT_SUBSTANCE_URL>
https://www.surechembl.org/chemical/SCHEMBL16111686

> <PUBCHEM_CID_ASSOCIATIONS>
117602492  1

> <PUBCHEM_COORDINATE_TYPE>
1
3

$$$$
