310947147
  -OEChem-07211613022D

 21 22  0     1  0  0  0  0  0999 V2000
    0.4327   12.9399    0.0000 F   0  0  0  0  0  0  0  0  0  0  0  0
   -0.3923   14.9240    0.0000 O   0  0  0  0  0  0  0  0  0  0  0  0
   -1.2173   12.9399    0.0000 O   0  0  0  0  0  0  0  0  0  0  0  0
    1.8689   14.0120    0.0000 O   0  0  0  0  0  0  0  0  0  0  0  0
   -2.4887   14.4390    0.0000 O   0  0  0  0  0  0  0  0  0  0  0  0
    2.6086   16.7725    0.0000 O   0  0  0  0  0  0  0  0  0  0  0  0
    0.8585   15.0224    0.0000 N   0  0  0  0  0  0  0  0  0  0  0  0
    2.2387   15.3922    0.0000 N   0  0  0  0  0  0  0  0  0  0  0  0
    0.0202   13.6544    0.0000 C   0  0  3  0  0  0  0  0  0  0  0  0
    0.2751   14.4390    0.0000 C   0  0  3  0  0  0  0  0  0  0  0  0
   -0.8048   13.6544    0.0000 C   0  0  3  0  0  0  0  0  0  0  0  0
   -1.0597   14.4390    0.0000 C   0  0  3  0  0  0  0  0  0  0  0  0
    1.6554   14.8089    0.0000 C   0  0  0  0  0  0  0  0  0  0  0  0
    0.8452   13.6544    0.0000 C   0  0  0  0  0  0  0  0  0  0  0  0
    0.6450   15.8193    0.0000 C   0  0  0  0  0  0  0  0  0  0  0  0
   -1.7742   14.8515    0.0000 C   0  0  0  0  0  0  0  0  0  0  0  0
    2.0252   16.1891    0.0000 C   0  0  0  0  0  0  0  0  0  0  0  0
    1.2283   16.4027    0.0000 C   0  0  0  0  0  0  0  0  0  0  0  0
   -3.2032   14.8515    0.0000 C   0  0  0  0  0  0  0  0  0  0  0  0
   -2.7907   15.5660    0.0000 C   0  0  0  0  0  0  0  0  0  0  0  0
   -3.6157   14.1371    0.0000 C   0  0  0  0  0  0  0  0  0  0  0  0
  9  1  1  6  0  0  0
 10  2  1  1  0  0  0
  2 12  1  0  0  0  0
 11  3  1  6  0  0  0
  4 13  2  0  0  0  0
  5 16  1  0  0  0  0
  5 19  1  0  0  0  0
  6 17  2  0  0  0  0
  7 10  1  0  0  0  0
  7 13  1  0  0  0  0
  7 15  1  0  0  0  0
  8 13  1  0  0  0  0
  8 17  1  0  0  0  0
  9 10  1  0  0  0  0
  9 11  1  0  0  0  0
  9 14  1  1  0  0  0
 11 12  1  0  0  0  0
 12 16  1  1  0  0  0
 15 18  2  0  0  0  0
 17 18  1  0  0  0  0
 19 20  1  0  0  0  0
 19 21  1  0  0  0  0
M  END
> <PUBCHEM_COMPOUND_ID_TYPE>
0

> <PUBCHEM_TOTAL_CHARGE>
0

> <PUBCHEM_SUBSTANCE_ID>
310947147

> <PUBCHEM_SUBSTANCE_VERSION>
1

> <PUBCHEM_EXT_DATASOURCE_NAME>
4488

> <PUBCHEM_EXT_DATASOURCE_REGID>
SCHEMBL16125301

> <PUBCHEM_SUBSTANCE_COMMENT>
InChI=1S/C13H19FN2O5/c1-7(2)20-6-8-10(18)13(3,14)11(21-8)16-5-4-9(17)15-12(16)19/h4-5,7-8,10-11,18H,6H2,1-3H3,(H,15,17,19)/t8-,10-,11-,13-/m1/s1
InChIKey=SGMUIABMLMNQFW-UORFTKCHSA-N

> <PUBCHEM_SUBSTANCE_SYNONYM>
SCHEMBL16125301

> <PUBCHEM_XREF_EXT_ID>
SCHEMBL16125301

> <PUBCHEM_EXT_DATASOURCE_URL>
https://www.surechembl.org/

> <PUBCHEM_EXT_SUBSTANCE_URL>
https://www.surechembl.org/chemical/SCHEMBL16125301

> <PUBCHEM_CID_ASSOCIATIONS>
117612982  1

> <PUBCHEM_COORDINATE_TYPE>
1
3

> <PUBCHEM_BONDANNOTATIONS>
9  1  6
12  16  5
19  20  3
19  21  3
10  2  5
11  3  6
9  14  5

$$$$
