310938273
  -OEChem-07211613022D

 21 21  0     0  0  0  0  0  0999 V2000
    2.2606   -3.1806    0.0000 S   0  0  0  0  0  0  0  0  0  0  0  0
    1.2354    0.0000    0.0000 F   0  0  0  0  0  0  0  0  0  0  0  0
    0.0000   -0.7097    0.0000 F   0  0  0  0  0  0  0  0  0  0  0  0
    1.6560   -0.7097    0.0000 F   0  0  0  0  0  0  0  0  0  0  0  0
    1.8400   -3.8903    0.0000 O   0  0  0  0  0  0  0  0  0  0  0  0
    2.6812   -2.4446    0.0000 O   0  0  0  0  0  0  0  0  0  0  0  0
    0.1051   -4.4423    0.0000 O   0  0  0  0  0  0  0  0  0  0  0  0
    2.2606   -4.0218    0.0000 O   0  0  0  0  0  0  0  0  0  0  0  0
    1.5509   -5.2572    0.0000 O   0  0  0  0  0  0  0  0  0  0  0  0
    1.5246   -2.7600    0.0000 C   0  0  0  0  0  0  0  0  0  0  0  0
    0.8149   -3.1806    0.0000 C   0  0  0  0  0  0  0  0  0  0  0  0
    0.8149   -1.5246    0.0000 C   0  0  0  0  0  0  0  0  0  0  0  0
    1.5246   -1.9452    0.0000 C   0  0  0  0  0  0  0  0  0  0  0  0
    0.8149   -4.0218    0.0000 C   0  0  0  0  0  0  0  0  0  0  0  0
    0.8149   -0.7097    0.0000 C   0  0  0  0  0  0  0  0  0  0  0  0
    0.1051   -2.7600    0.0000 C   0  0  0  0  0  0  0  0  0  0  0  0
    0.1051   -1.9452    0.0000 C   0  0  0  0  0  0  0  0  0  0  0  0
    1.5509   -4.4423    0.0000 C   0  0  0  0  0  0  0  0  0  0  0  0
    2.9703   -3.5749    0.0000 C   0  0  0  0  0  0  0  0  0  0  0  0
    2.9703   -4.4423    0.0000 C   0  0  0  0  0  0  0  0  0  0  0  0
    3.6800   -4.0218    0.0000 C   0  0  0  0  0  0  0  0  0  0  0  0
  1  5  2  0  0  0  0
  1  6  2  0  0  0  0
  1 10  1  0  0  0  0
  1 19  1  0  0  0  0
  2 15  1  0  0  0  0
  3 15  1  0  0  0  0
  4 15  1  0  0  0  0
  7 14  2  0  0  0  0
  8 18  1  0  0  0  0
  8 20  1  0  0  0  0
  9 18  2  0  0  0  0
 10 11  1  0  0  0  0
 10 13  2  0  0  0  0
 11 14  1  0  0  0  0
 11 16  2  0  0  0  0
 12 13  1  0  0  0  0
 12 15  1  0  0  0  0
 12 17  2  0  0  0  0
 14 18  1  0  0  0  0
 16 17  1  0  0  0  0
 20 21  1  0  0  0  0
M  END
> <PUBCHEM_COMPOUND_ID_TYPE>
0

> <PUBCHEM_TOTAL_CHARGE>
0

> <PUBCHEM_SUBSTANCE_ID>
310938273

> <PUBCHEM_SUBSTANCE_VERSION>
1

> <PUBCHEM_EXT_DATASOURCE_NAME>
4488

> <PUBCHEM_EXT_DATASOURCE_REGID>
SCHEMBL16116142

> <PUBCHEM_SUBSTANCE_COMMENT>
InChI=1S/C12H11F3O5S/c1-3-20-11(17)10(16)8-5-4-7(12(13,14)15)6-9(8)21(2,18)19/h4-6H,3H2,1-2H3
InChIKey=UKQDRQYULAQVDX-UHFFFAOYSA-N

> <PUBCHEM_SUBSTANCE_SYNONYM>
SCHEMBL16116142

> <PUBCHEM_XREF_EXT_ID>
SCHEMBL16116142

> <PUBCHEM_EXT_DATASOURCE_URL>
https://www.surechembl.org/

> <PUBCHEM_EXT_SUBSTANCE_URL>
https://www.surechembl.org/chemical/SCHEMBL16116142

> <PUBCHEM_CID_ASSOCIATIONS>
117605783  1

> <PUBCHEM_COORDINATE_TYPE>
1
3

$$$$
