310937451
  -OEChem-07211613022D

 22 24  0     0  0  0  0  0  0999 V2000
    2.4102   -4.5259    0.0000 S   0  0  0  0  0  0  0  0  0  0  0  0
    6.3202   -2.2228    0.0000 O   0  0  0  0  0  0  0  0  0  0  0  0
    2.2228   -2.9458    0.0000 O   0  0  0  0  0  0  0  0  0  0  0  0
    5.0615   -1.8211    0.0000 N   0  0  0  0  0  0  0  0  0  0  0  0
    5.8381   -2.8923    0.0000 N   0  0  0  0  0  0  0  0  0  0  0  0
    4.4723   -3.9099    0.0000 N   0  0  0  0  0  0  0  0  0  0  0  0
    5.0615   -2.6245    0.0000 C   0  0  0  0  0  0  0  0  0  0  0  0
    4.3920   -3.1065    0.0000 C   0  0  0  0  0  0  0  0  0  0  0  0
    5.8381   -1.5533    0.0000 C   0  0  0  0  0  0  0  0  0  0  0  0
    2.9727   -3.2672    0.0000 C   0  0  0  0  0  0  0  0  0  0  0  0
    6.0792   -0.7766    0.0000 C   0  0  0  0  0  0  0  0  0  0  0  0
    3.6421   -2.7584    0.0000 C   0  0  0  0  0  0  0  0  0  0  0  0
    3.0798   -4.0706    0.0000 C   0  0  0  0  0  0  0  0  0  0  0  0
    3.8296   -4.4188    0.0000 C   0  0  0  0  0  0  0  0  0  0  0  0
    0.8034   -3.1065    0.0000 C   0  0  0  0  0  0  0  0  0  0  0  0
    1.5801   -3.4279    0.0000 C   0  0  0  0  0  0  0  0  0  0  0  0
    6.8826   -1.0445    0.0000 C   0  0  0  0  0  0  0  0  0  0  0  0
    6.3470    0.0000    0.0000 C   0  0  0  0  0  0  0  0  0  0  0  0
    5.3293   -0.5089    0.0000 C   0  0  0  0  0  0  0  0  0  0  0  0
    0.0000   -3.2137    0.0000 C   0  0  0  0  0  0  0  0  0  0  0  0
    0.2946   -2.4370    0.0000 C   0  0  0  0  0  0  0  0  0  0  0  0
    2.4906   -5.3561    0.0000 C   0  0  0  0  0  0  0  0  0  0  0  0
  1 13  1  0  0  0  0
  1 22  1  0  0  0  0
  2  5  1  0  0  0  0
  2  9  1  0  0  0  0
  3 10  1  0  0  0  0
  3 16  1  0  0  0  0
  4  7  1  0  0  0  0
  4  9  2  0  0  0  0
  5  7  2  0  0  0  0
  6  8  1  0  0  0  0
  6 14  2  0  0  0  0
  7  8  1  0  0  0  0
  8 12  2  0  0  0  0
  9 11  1  0  0  0  0
 10 12  1  0  0  0  0
 10 13  2  0  0  0  0
 11 17  1  0  0  0  0
 11 18  1  0  0  0  0
 11 19  1  0  0  0  0
 13 14  1  0  0  0  0
 15 16  1  0  0  0  0
 15 20  1  0  0  0  0
 15 21  1  0  0  0  0
 20 21  1  0  0  0  0
M  END
> <PUBCHEM_COMPOUND_ID_TYPE>
0

> <PUBCHEM_TOTAL_CHARGE>
0

> <PUBCHEM_SUBSTANCE_ID>
310937451

> <PUBCHEM_SUBSTANCE_VERSION>
1

> <PUBCHEM_EXT_DATASOURCE_NAME>
4488

> <PUBCHEM_EXT_DATASOURCE_REGID>
SCHEMBL16115219

> <PUBCHEM_SUBSTANCE_COMMENT>
InChI=1S/C16H21N3O2S/c1-16(2,3)15-18-14(19-21-15)11-7-12(13(22-4)8-17-11)20-9-10-5-6-10/h7-8,10H,5-6,9H2,1-4H3
InChIKey=HIRMAOBGQGBIRZ-UHFFFAOYSA-N

> <PUBCHEM_SUBSTANCE_SYNONYM>
SCHEMBL16115219

> <PUBCHEM_XREF_EXT_ID>
SCHEMBL16115219

> <PUBCHEM_EXT_DATASOURCE_URL>
https://www.surechembl.org/

> <PUBCHEM_EXT_SUBSTANCE_URL>
https://www.surechembl.org/chemical/SCHEMBL16115219

> <PUBCHEM_CID_ASSOCIATIONS>
117605195  1

> <PUBCHEM_COORDINATE_TYPE>
1
3

$$$$
