310942828
  -OEChem-07211613022D

 51 55  0     1  0  0  0  0  0999 V2000
   -2.8693    4.4137    0.0000 F   0  0  0  0  0  0  0  0  0  0  0  0
    3.5888    3.2730    0.0000 F   0  0  0  0  0  0  0  0  0  0  0  0
   -2.8693    1.0969    0.0000 F   0  0  0  0  0  0  0  0  0  0  0  0
    1.6935    3.9925    0.0000 O   0  0  0  0  0  0  0  0  0  0  0  0
    1.9392    6.0282    0.0000 O   0  0  0  0  0  0  0  0  0  0  0  0
   -0.1316    2.4306    0.0000 O   0  0  0  0  0  0  0  0  0  0  0  0
   -0.5352    0.2896    0.0000 O   0  0  0  0  0  0  0  0  0  0  0  0
   -3.1501   -4.2031    0.0000 O   0  0  0  0  0  0  0  0  0  0  0  0
   -0.6230   -5.6597    0.0000 O   0  0  0  0  0  0  0  0  0  0  0  0
   -1.7812    1.0091    0.0000 O   0  0  0  0  0  0  0  0  0  0  0  0
   -1.3601   -2.5710    0.0000 O   0  0  0  0  0  0  0  0  0  0  0  0
    1.1144    3.1501    0.0000 N   0  0  0  0  0  0  0  0  0  0  0  0
   -0.6932    3.2554    0.0000 N   0  0  0  0  0  0  0  0  0  0  0  0
   -0.5528    4.5892    0.0000 N   0  0  0  0  0  0  0  0  0  0  0  0
    1.1144    1.7286    0.0000 N   0  0  0  0  0  0  0  0  0  0  0  0
    2.9571    1.2372    0.0000 N   0  0  0  0  0  0  0  0  0  0  0  0
   -1.7812   -4.7296    0.0000 N   0  0  0  0  0  0  0  0  0  0  0  0
   -1.7812   -0.4300    0.0000 N   0  0  0  0  0  0  0  0  0  0  0  0
    0.6932    3.8696    0.0000 C   0  0  3  0  0  0  0  0  0  0  0  0
    1.1144    4.5892    0.0000 C   0  0  0  0  0  0  0  0  0  0  0  0
   -0.1491    3.9047    0.0000 C   0  0  0  0  0  0  0  0  0  0  0  0
   -1.4654    3.6064    0.0000 C   0  0  0  0  0  0  0  0  0  0  0  0
    0.7107    2.4481    0.0000 C   0  0  0  0  0  0  0  0  0  0  0  0
    0.6932    5.3087    0.0000 C   0  0  0  0  0  0  0  0  0  0  0  0
    1.9392    4.5892    0.0000 C   0  0  0  0  0  0  0  0  0  0  0  0
    1.9392    3.1501    0.0000 C   0  0  0  0  0  0  0  0  0  0  0  0
   -2.1673    3.1852    0.0000 C   0  0  0  0  0  0  0  0  0  0  0  0
   -1.3425    4.4312    0.0000 C   0  0  0  0  0  0  0  0  0  0  0  0
    2.3428    2.4657    0.0000 C   0  0  3  0  0  0  0  0  0  0  0  0
   -2.8868    3.6064    0.0000 C   0  0  0  0  0  0  0  0  0  0  0  0
    1.0969    6.0282    0.0000 C   0  0  0  0  0  0  0  0  0  0  0  0
    2.3428    5.3262    0.0000 C   0  0  0  0  0  0  0  0  0  0  0  0
   -2.1849    2.3604    0.0000 C   0  0  0  0  0  0  0  0  0  0  0  0
    3.1677    2.5710    0.0000 C   0  0  3  0  0  0  0  0  0  0  0  0
    2.2551    1.6584    0.0000 C   0  0  0  0  0  0  0  0  0  0  0  0
   -2.8868    1.9567    0.0000 C   0  0  0  0  0  0  0  0  0  0  0  0
   -3.5888    3.1852    0.0000 C   0  0  0  0  0  0  0  0  0  0  0  0
    0.6932    1.0091    0.0000 C   0  0  3  0  0  0  0  0  0  0  0  0
    3.5362    1.8339    0.0000 C   0  0  0  0  0  0  0  0  0  0  0  0
   -3.5888    2.3428    0.0000 C   0  0  0  0  0  0  0  0  0  0  0  0
   -0.1316    1.0091    0.0000 C   0  0  0  0  0  0  0  0  0  0  0  0
    1.1144    0.2896    0.0000 C   0  0  0  0  0  0  0  0  0  0  0  0
   -2.5885   -4.7998    0.0000 C   0  0  0  0  0  0  0  0  0  0  0  0
   -1.4654   -5.4491    0.0000 C   0  0  0  0  0  0  0  0  0  0  0  0
   -2.7640   -5.6246    0.0000 C   0  0  0  0  0  0  0  0  0  0  0  0
   -2.0621   -6.0282    0.0000 C   0  0  0  0  0  0  0  0  0  0  0  0
   -1.3776    0.2896    0.0000 C   0  0  0  0  0  0  0  0  0  0  0  0
   -1.3776   -3.9925    0.0000 C   0  0  0  0  0  0  0  0  0  0  0  0
   -1.7812   -3.2905    0.0000 C   0  0  0  0  0  0  0  0  0  0  0  0
   -1.3776   -1.1320    0.0000 C   0  0  0  0  0  0  0  0  0  0  0  0
   -1.7812   -1.8515    0.0000 C   0  0  0  0  0  0  0  0  0  0  0  0
  1 30  1  0  0  0  0
 34  2  1  1  0  0  0
  3 36  1  0  0  0  0
  4 20  1  0  0  0  0
  5 31  1  0  0  0  0
  5 32  1  0  0  0  0
  6 23  2  0  0  0  0
  7 41  1  0  0  0  0
  7 47  1  0  0  0  0
  8 43  2  0  0  0  0
  9 44  2  0  0  0  0
 10 47  2  0  0  0  0
 11 49  1  0  0  0  0
 11 51  1  0  0  0  0
 19 12  1  1  0  0  0
 12 23  1  0  0  0  0
 12 26  1  0  0  0  0
 13 21  2  0  0  0  0
 13 22  1  0  0  0  0
 14 21  1  0  0  0  0
 14 28  1  0  0  0  0
 15 23  1  0  0  0  0
 15 38  1  0  0  0  0
 16 35  1  0  0  0  0
 16 39  1  0  0  0  0
 17 43  1  0  0  0  0
 17 44  1  0  0  0  0
 17 48  1  0  0  0  0
 18 47  1  0  0  0  0
 18 50  1  0  0  0  0
 19 20  1  0  0  0  0
 19 21  1  0  0  0  0
 20 24  1  0  0  0  0
 20 25  1  0  0  0  0
 22 27  1  0  0  0  0
 22 28  2  0  0  0  0
 24 31  1  0  0  0  0
 25 32  1  0  0  0  0
 29 26  1  1  0  0  0
 27 30  1  0  0  0  0
 27 33  2  0  0  0  0
 29 34  1  0  0  0  0
 29 35  1  0  0  0  0
 30 37  2  0  0  0  0
 33 36  1  0  0  0  0
 34 39  1  0  0  0  0
 36 40  2  0  0  0  0
 37 40  1  0  0  0  0
 38 41  1  0  0  0  0
 38 42  1  1  0  0  0
 43 45  1  0  0  0  0
 44 46  1  0  0  0  0
 45 46  2  0  0  0  0
 48 49  1  0  0  0  0
 50 51  1  0  0  0  0
M  END
> <PUBCHEM_COMPOUND_ID_TYPE>
0

> <PUBCHEM_TOTAL_CHARGE>
0

> <PUBCHEM_SUBSTANCE_ID>
310942828

> <PUBCHEM_SUBSTANCE_VERSION>
1

> <PUBCHEM_EXT_DATASOURCE_NAME>
4488

> <PUBCHEM_EXT_DATASOURCE_REGID>
SCHEMBL16120883

> <PUBCHEM_SUBSTANCE_COMMENT>
InChI=1S/C33H42F3N7O8/c1-20(19-51-32(47)38-8-12-50-13-9-42-27(44)4-5-28(42)45)40-31(46)43(18-21-15-37-16-25(21)36)29(33(48)6-10-49-11-7-33)30-39-17-26(41-30)23-14-22(34)2-3-24(23)35/h2-5,14,17,20-21,25,29,37,48H,6-13,15-16,18-19H2,1H3,(H,38,47)(H,39,41)(H,40,46)/t20-,21-,25-,29-/m0/s1
InChIKey=QYSXCZFHBDZJDI-MEBOPQTQSA-N

> <PUBCHEM_SUBSTANCE_SYNONYM>
SCHEMBL16120883

> <PUBCHEM_XREF_EXT_ID>
SCHEMBL16120883

> <PUBCHEM_EXT_DATASOURCE_URL>
https://www.surechembl.org/

> <PUBCHEM_EXT_SUBSTANCE_URL>
https://www.surechembl.org/chemical/SCHEMBL16120883

> <PUBCHEM_CID_ASSOCIATIONS>
117609328  1

> <PUBCHEM_COORDINATE_TYPE>
1
3

> <PUBCHEM_BONDANNOTATIONS>
19  12  5
34  2  5
29  26  5
38  42  5

$$$$
