310948728
  -OEChem-07211613022D

 35 39  0     1  0  0  0  0  0999 V2000
   -2.9663    1.6582    0.0000 O   0  0  0  0  0  0  0  0  0  0  0  0
    0.9580   -2.9663    0.0000 O   0  0  0  0  0  0  0  0  0  0  0  0
   -0.2948    0.9396    0.0000 N   0  0  0  0  0  0  0  0  0  0  0  0
   -0.7738    0.2763    0.0000 N   0  0  0  0  0  0  0  0  0  0  0  0
   -2.2294    0.0369    0.0000 N   0  0  0  0  0  0  0  0  0  0  0  0
   -2.0082    2.7268    0.0000 N   0  0  0  0  0  0  0  0  0  0  0  0
    0.1474   -1.1976    0.0000 N   0  0  0  0  0  0  0  0  0  0  0  0
    0.1290   -1.7872    0.0000 N   0  0  0  0  0  0  0  0  0  0  0  0
    2.3030   -1.9898    0.0000 N   0  0  0  0  0  0  0  0  0  0  0  0
    1.4555   -0.8107    0.0000 N   0  0  0  0  0  0  0  0  0  0  0  0
   -1.5292    1.3634    0.0000 C   0  0  0  0  0  0  0  0  0  0  0  0
   -0.7923    1.6213    0.0000 C   0  0  0  0  0  0  0  0  0  0  0  0
   -1.5661    0.5343    0.0000 C   0  0  0  0  0  0  0  0  0  0  0  0
    0.5343    0.9765    0.0000 C   0  0  3  0  0  0  0  0  0  0  0  0
   -2.1741    1.9345    0.0000 C   0  0  0  0  0  0  0  0  0  0  0  0
   -0.6080    2.4320    0.0000 C   0  0  0  0  0  0  0  0  0  0  0  0
    0.9580    0.2395    0.0000 C   0  0  3  0  0  0  0  0  0  0  0  0
   -1.2160    2.9663    0.0000 C   0  0  0  0  0  0  0  0  0  0  0  0
    0.9580    1.6582    0.0000 C   0  0  0  0  0  0  0  0  0  0  0  0
   -2.1557   -0.7923    0.0000 C   0  0  0  0  0  0  0  0  0  0  0  0
    1.7872    0.2395    0.0000 C   0  0  0  0  0  0  0  0  0  0  0  0
    0.5343   -0.4975    0.0000 C   0  0  0  0  0  0  0  0  0  0  0  0
    1.7872    1.6582    0.0000 C   0  0  0  0  0  0  0  0  0  0  0  0
   -1.4002   -1.1055    0.0000 C   0  0  0  0  0  0  0  0  0  0  0  0
   -2.8005   -1.2712    0.0000 C   0  0  0  0  0  0  0  0  0  0  0  0
    2.1925    0.9396    0.0000 C   0  0  0  0  0  0  0  0  0  0  0  0
   -1.3081   -1.9345    0.0000 C   0  0  0  0  0  0  0  0  0  0  0  0
   -2.7083   -2.0819    0.0000 C   0  0  0  0  0  0  0  0  0  0  0  0
   -1.9529   -2.4136    0.0000 C   0  0  0  0  0  0  0  0  0  0  0  0
   -0.5343   -2.2662    0.0000 C   0  0  0  0  0  0  0  0  0  0  0  0
    0.8843   -2.1004    0.0000 C   0  0  0  0  0  0  0  0  0  0  0  0
    1.5477   -1.6397    0.0000 C   0  0  0  0  0  0  0  0  0  0  0  0
    2.9663   -1.4924    0.0000 C   0  0  0  0  0  0  0  0  0  0  0  0
    2.1188   -0.3316    0.0000 C   0  0  0  0  0  0  0  0  0  0  0  0
    2.8926   -0.6817    0.0000 C   0  0  0  0  0  0  0  0  0  0  0  0
  1 15  2  0  0  0  0
  2 31  2  0  0  0  0
  3  4  1  0  0  0  0
  3 12  1  0  0  0  0
 14  3  1  1  0  0  0
  4 13  2  0  0  0  0
  5 13  1  0  0  0  0
  5 20  1  0  0  0  0
  6 15  1  0  0  0  0
  6 18  1  0  0  0  0
  7 22  3  0  0  0  0
  8 30  1  0  0  0  0
  8 31  1  0  0  0  0
  9 32  2  0  0  0  0
  9 33  1  0  0  0  0
 10 32  1  0  0  0  0
 10 34  2  0  0  0  0
 11 12  2  0  0  0  0
 11 13  1  0  0  0  0
 11 15  1  0  0  0  0
 12 16  1  0  0  0  0
 14 17  1  0  0  0  0
 14 19  1  0  0  0  0
 16 18  2  0  0  0  0
 17 21  1  0  0  0  0
 17 22  1  6  0  0  0
 19 23  1  0  0  0  0
 20 24  1  0  0  0  0
 20 25  2  0  0  0  0
 21 26  1  0  0  0  0
 23 26  1  0  0  0  0
 24 27  2  0  0  0  0
 25 28  1  0  0  0  0
 27 29  1  0  0  0  0
 27 30  1  0  0  0  0
 28 29  2  0  0  0  0
 31 32  1  0  0  0  0
 33 35  2  0  0  0  0
 34 35  1  0  0  0  0
M  END
> <PUBCHEM_COMPOUND_ID_TYPE>
0

> <PUBCHEM_TOTAL_CHARGE>
0

> <PUBCHEM_SUBSTANCE_ID>
310948728

> <PUBCHEM_SUBSTANCE_VERSION>
1

> <PUBCHEM_EXT_DATASOURCE_NAME>
4488

> <PUBCHEM_EXT_DATASOURCE_REGID>
SCHEMBL16126912

> <PUBCHEM_SUBSTANCE_COMMENT>
InChI=1S/C25H24N8O2/c26-14-17-6-1-2-8-19(17)33-20-9-12-29-24(34)21(20)22(32-33)31-18-7-3-5-16(13-18)15-30-25(35)23-27-10-4-11-28-23/h3-5,7,9-13,17,19H,1-2,6,8,15H2,(H,29,34)(H,30,35)(H,31,32)/t17-,19+/m1/s1
InChIKey=HUTCBQJYCVVCAW-MJGOQNOKSA-N

> <PUBCHEM_SUBSTANCE_SYNONYM>
SCHEMBL16126912

> <PUBCHEM_XREF_EXT_ID>
SCHEMBL16126912

> <PUBCHEM_EXT_DATASOURCE_URL>
https://www.surechembl.org/

> <PUBCHEM_EXT_SUBSTANCE_URL>
https://www.surechembl.org/chemical/SCHEMBL16126912

> <PUBCHEM_CID_ASSOCIATIONS>
117614269  1

> <PUBCHEM_COORDINATE_TYPE>
1
3

> <PUBCHEM_BONDANNOTATIONS>
17  22  6
14  3  5

$$$$
