310949527
  -OEChem-07211613022D

 21 22  0     0  0  0  0  0  0999 V2000
    1.8551   -1.0998    0.0000 O   0  0  0  0  0  0  0  0  0  0  0  0
    3.1139   -0.4108    0.0000 O   0  0  0  0  0  0  0  0  0  0  0  0
   -0.6493    0.3181    0.0000 O   0  0  0  0  0  0  0  0  0  0  0  0
    0.6095   -0.4240    0.0000 N   0  0  0  0  0  0  0  0  0  0  0  0
   -0.6228   -1.1131    0.0000 N   0  0  0  0  0  0  0  0  0  0  0  0
    1.0468    0.3843    0.0000 C   0  0  0  0  0  0  0  0  0  0  0  0
    1.8684    0.3710    0.0000 C   0  0  0  0  0  0  0  0  0  0  0  0
    2.2659   -0.3445    0.0000 C   0  0  0  0  0  0  0  0  0  0  0  0
   -0.1988   -0.3710    0.0000 C   0  0  0  0  0  0  0  0  0  0  0  0
   -1.4709   -1.0733    0.0000 C   0  0  0  0  0  0  0  0  0  0  0  0
    0.6360    1.0866    0.0000 C   0  0  0  0  0  0  0  0  0  0  0  0
    2.2791    1.1131    0.0000 C   0  0  0  0  0  0  0  0  0  0  0  0
   -1.8816   -0.3578    0.0000 C   0  0  0  0  0  0  0  0  0  0  0  0
    1.0335    1.8021    0.0000 C   0  0  0  0  0  0  0  0  0  0  0  0
    1.8684    1.8021    0.0000 C   0  0  0  0  0  0  0  0  0  0  0  0
   -1.8816   -1.8021    0.0000 C   0  0  0  0  0  0  0  0  0  0  0  0
   -2.7031   -0.3578    0.0000 C   0  0  0  0  0  0  0  0  0  0  0  0
   -2.7031   -1.8021    0.0000 C   0  0  0  0  0  0  0  0  0  0  0  0
   -3.1139   -1.0866    0.0000 C   0  0  0  0  0  0  0  0  0  0  0  0
   -1.4576    0.3975    0.0000 C   0  0  0  0  0  0  0  0  0  0  0  0
    2.3056   -1.8021    0.0000 C   0  0  0  0  0  0  0  0  0  0  0  0
  1  8  1  0  0  0  0
  1 21  1  0  0  0  0
  2  8  2  0  0  0  0
  3  9  2  0  0  0  0
  4  6  1  0  0  0  0
  4  9  1  0  0  0  0
  5  9  1  0  0  0  0
  5 10  1  0  0  0  0
  6  7  1  0  0  0  0
  6 11  2  0  0  0  0
  7  8  1  0  0  0  0
  7 12  2  0  0  0  0
 10 13  2  0  0  0  0
 10 16  1  0  0  0  0
 11 14  1  0  0  0  0
 12 15  1  0  0  0  0
 13 17  1  0  0  0  0
 13 20  1  0  0  0  0
 14 15  2  0  0  0  0
 16 18  2  0  0  0  0
 17 19  2  0  0  0  0
 18 19  1  0  0  0  0
M  END
> <PUBCHEM_COMPOUND_ID_TYPE>
0

> <PUBCHEM_TOTAL_CHARGE>
0

> <PUBCHEM_SUBSTANCE_ID>
310949527

> <PUBCHEM_SUBSTANCE_VERSION>
1

> <PUBCHEM_EXT_DATASOURCE_NAME>
4488

> <PUBCHEM_EXT_DATASOURCE_REGID>
SCHEMBL16127722

> <PUBCHEM_SUBSTANCE_COMMENT>
InChI=1S/C16H16N2O3/c1-11-7-3-5-9-13(11)17-16(20)18-14-10-6-4-8-12(14)15(19)21-2/h3-10H,1-2H3,(H2,17,18,20)
InChIKey=DRAWFZOBWLSJRV-UHFFFAOYSA-N

> <PUBCHEM_SUBSTANCE_SYNONYM>
SCHEMBL16127722

> <PUBCHEM_XREF_EXT_ID>
SCHEMBL16127722

> <PUBCHEM_EXT_DATASOURCE_URL>
https://www.surechembl.org/

> <PUBCHEM_EXT_SUBSTANCE_URL>
https://www.surechembl.org/chemical/SCHEMBL16127722

> <PUBCHEM_CID_ASSOCIATIONS>
2263164  1

> <PUBCHEM_COORDINATE_TYPE>
1
3

$$$$
