310932157
  -OEChem-07211613022D

 13 14  0     0  0  0  0  0  0999 V2000
    2.6057   -2.8792    0.0000 O   0  0  0  0  0  0  0  0  0  0  0  0
    3.9589   -2.4330    0.0000 O   0  0  0  0  0  0  0  0  0  0  0  0
    2.9080   -1.4828    0.0000 N   0  0  0  0  0  0  0  0  0  0  0  0
    3.3974   -0.8349    0.0000 N   0  0  0  0  0  0  0  0  0  0  0  0
    0.0000   -1.6700    0.0000 N   0  0  0  0  0  0  0  0  0  0  0  0
    2.1162   -1.2525    0.0000 C   0  0  0  0  0  0  0  0  0  0  0  0
    2.1162   -0.4031    0.0000 C   0  0  0  0  0  0  0  0  0  0  0  0
    2.9080   -0.1728    0.0000 C   0  0  0  0  0  0  0  0  0  0  0  0
    3.1671   -2.2746    0.0000 C   0  0  0  0  0  0  0  0  0  0  0  0
    1.3964   -1.6555    0.0000 C   0  0  0  0  0  0  0  0  0  0  0  0
    1.3964    0.0000    0.0000 C   0  0  0  0  0  0  0  0  0  0  0  0
    0.7054   -1.2525    0.0000 C   0  0  0  0  0  0  0  0  0  0  0  0
    0.7054   -0.4031    0.0000 C   0  0  0  0  0  0  0  0  0  0  0  0
  1  9  2  0  0  0  0
  2  9  1  0  0  0  0
  3  4  1  0  0  0  0
  3  6  1  0  0  0  0
  3  9  1  0  0  0  0
  4  8  2  0  0  0  0
  5 12  1  0  0  0  0
  6  7  2  0  0  0  0
  6 10  1  0  0  0  0
  7  8  1  0  0  0  0
  7 11  1  0  0  0  0
 10 12  2  0  0  0  0
 11 13  2  0  0  0  0
 12 13  1  0  0  0  0
M  END
> <PUBCHEM_COMPOUND_ID_TYPE>
0

> <PUBCHEM_TOTAL_CHARGE>
0

> <PUBCHEM_SUBSTANCE_ID>
310932157

> <PUBCHEM_SUBSTANCE_VERSION>
1

> <PUBCHEM_EXT_DATASOURCE_NAME>
4488

> <PUBCHEM_EXT_DATASOURCE_REGID>
SCHEMBL16109510

> <PUBCHEM_SUBSTANCE_COMMENT>
InChI=1S/C8H7N3O2/c9-6-2-1-5-4-10-11(8(12)13)7(5)3-6/h1-4H,9H2,(H,12,13)
InChIKey=JOLUNJNFAZAPOV-UHFFFAOYSA-N

> <PUBCHEM_SUBSTANCE_SYNONYM>
SCHEMBL16109510

> <PUBCHEM_XREF_EXT_ID>
SCHEMBL16109510

> <PUBCHEM_EXT_DATASOURCE_URL>
https://www.surechembl.org/

> <PUBCHEM_EXT_SUBSTANCE_URL>
https://www.surechembl.org/chemical/SCHEMBL16109510

> <PUBCHEM_CID_ASSOCIATIONS>
53966291  1

> <PUBCHEM_COORDINATE_TYPE>
1
3

$$$$
