310940913
  -OEChem-07211613022D

 11 11  0     0  0  0  0  0  0999 V2000
    2.0090   -0.2217    0.0000 I   0  0  0  0  0  0  0  0  0  0  0  0
   -1.2192    1.3994    0.0000 O   0  0  0  0  0  0  0  0  0  0  0  0
    1.3578   -1.3994    0.0000 O   0  0  0  0  0  0  0  0  0  0  0  0
   -0.8036    0.7066    0.0000 C   0  0  0  0  0  0  0  0  0  0  0  0
    0.6512   -0.1247    0.0000 C   0  0  0  0  0  0  0  0  0  0  0  0
   -0.7759   -0.1385    0.0000 C   0  0  0  0  0  0  0  0  0  0  0  0
   -0.0832    1.1084    0.0000 C   0  0  0  0  0  0  0  0  0  0  0  0
   -0.0693   -0.5403    0.0000 C   0  0  0  0  0  0  0  0  0  0  0  0
    0.6512    0.6928    0.0000 C   0  0  0  0  0  0  0  0  0  0  0  0
    1.3717   -0.5265    0.0000 C   0  0  0  0  0  0  0  0  0  0  0  0
   -2.0090    0.4711    0.0000 C   0  0  0  0  0  0  0  0  0  0  0  0
  1 10  1  0  0  0  0
  2  4  1  0  0  0  0
  3 10  2  0  0  0  0
  4  6  1  0  0  0  0
  4  7  1  0  0  0  0
  4 11  1  0  0  0  0
  5  8  1  0  0  0  0
  5  9  1  0  0  0  0
  5 10  1  0  0  0  0
  6  8  1  0  0  0  0
  7  9  1  0  0  0  0
M  END
> <PUBCHEM_COMPOUND_ID_TYPE>
0

> <PUBCHEM_TOTAL_CHARGE>
0

> <PUBCHEM_SUBSTANCE_ID>
310940913

> <PUBCHEM_SUBSTANCE_VERSION>
1

> <PUBCHEM_EXT_DATASOURCE_NAME>
4488

> <PUBCHEM_EXT_DATASOURCE_REGID>
SCHEMBL16118872

> <PUBCHEM_SUBSTANCE_COMMENT>
InChI=1S/C8H13IO2/c1-8(11)4-2-6(3-5-8)7(9)10/h6,11H,2-5H2,1H3
InChIKey=GYKOPLQMLCPMJO-UHFFFAOYSA-N

> <PUBCHEM_SUBSTANCE_SYNONYM>
SCHEMBL16118872

> <PUBCHEM_XREF_EXT_ID>
SCHEMBL16118872

> <PUBCHEM_EXT_DATASOURCE_URL>
https://www.surechembl.org/

> <PUBCHEM_EXT_SUBSTANCE_URL>
https://www.surechembl.org/chemical/SCHEMBL16118872

> <PUBCHEM_CID_ASSOCIATIONS>
117607822  1

> <PUBCHEM_COORDINATE_TYPE>
1
3

$$$$
