310948186
  -OEChem-07211613022D

 47 52  0     0  0  0  0  0  0999 V2000
    3.4551   -2.7054    0.0000 S   0  0  0  0  0  0  0  0  0  0  0  0
   -3.7973   -1.1082    0.0000 F   0  0  0  0  0  0  0  0  0  0  0  0
   -4.2211   -0.0978    0.0000 F   0  0  0  0  0  0  0  0  0  0  0  0
    2.8358    3.4225    0.0000 F   0  0  0  0  0  0  0  0  0  0  0  0
    3.5854    2.6076    0.0000 F   0  0  0  0  0  0  0  0  0  0  0  0
    3.4714    0.1793    0.0000 F   0  0  0  0  0  0  0  0  0  0  0  0
   -1.5157    0.2608    0.0000 O   0  0  0  0  0  0  0  0  0  0  0  0
    1.9394    2.7706    0.0000 O   0  0  0  0  0  0  0  0  0  0  0  0
    2.8358    1.7602    0.0000 O   0  0  0  0  0  0  0  0  0  0  0  0
   -2.5424    0.7497    0.0000 O   0  0  0  0  0  0  0  0  0  0  0  0
    2.7380   -3.1291    0.0000 O   0  0  0  0  0  0  0  0  0  0  0  0
    3.8788   -3.4225    0.0000 O   0  0  0  0  0  0  0  0  0  0  0  0
   -1.9883   -1.9394    0.0000 N   0  0  0  0  0  0  0  0  0  0  0  0
   -0.9616    1.4831    0.0000 N   0  0  0  0  0  0  0  0  0  0  0  0
   -2.7706   -1.6786    0.0000 N   0  0  0  0  0  0  0  0  0  0  0  0
   -3.9603    0.9778    0.0000 N   0  0  0  0  0  0  0  0  0  0  0  0
   -0.2771   -0.5378    0.0000 C   0  0  0  0  0  0  0  0  0  0  0  0
   -0.6845    0.1793    0.0000 C   0  0  0  0  0  0  0  0  0  0  0  0
   -0.6845   -1.2712    0.0000 C   0  0  0  0  0  0  0  0  0  0  0  0
   -0.3423    0.9290    0.0000 C   0  0  0  0  0  0  0  0  0  0  0  0
   -1.5157   -1.2549    0.0000 C   0  0  0  0  0  0  0  0  0  0  0  0
    0.4727    1.1082    0.0000 C   0  0  0  0  0  0  0  0  0  0  0  0
   -2.7543   -0.8312    0.0000 C   0  0  0  0  0  0  0  0  0  0  0  0
    0.5704   -0.5541    0.0000 C   0  0  0  0  0  0  0  0  0  0  0  0
    0.9778   -1.2549    0.0000 C   0  0  0  0  0  0  0  0  0  0  0  0
   -1.9557   -0.6193    0.0000 C   0  0  0  0  0  0  0  0  0  0  0  0
    1.5320    2.0535    0.0000 C   0  0  0  0  0  0  0  0  0  0  0  0
   -3.4551   -0.3585    0.0000 C   0  0  0  0  0  0  0  0  0  0  0  0
   -0.2608   -1.9720    0.0000 C   0  0  0  0  0  0  0  0  0  0  0  0
    2.0861    1.4505    0.0000 C   0  0  0  0  0  0  0  0  0  0  0  0
   -1.6624    1.0919    0.0000 C   0  0  0  0  0  0  0  0  0  0  0  0
    0.7334    1.8905    0.0000 C   0  0  0  0  0  0  0  0  0  0  0  0
    2.7543    2.6076    0.0000 C   0  0  0  0  0  0  0  0  0  0  0  0
    1.8090   -1.2549    0.0000 C   0  0  0  0  0  0  0  0  0  0  0  0
    0.5704   -1.9720    0.0000 C   0  0  0  0  0  0  0  0  0  0  0  0
    1.0104    0.4889    0.0000 C   0  0  0  0  0  0  0  0  0  0  0  0
    1.8253    0.6519    0.0000 C   0  0  0  0  0  0  0  0  0  0  0  0
   -3.3247    0.4563    0.0000 C   0  0  0  0  0  0  0  0  0  0  0  0
    2.2165   -1.9557    0.0000 C   0  0  0  0  0  0  0  0  0  0  0  0
    3.0477   -1.9720    0.0000 C   0  0  0  0  0  0  0  0  0  0  0  0
    2.2165   -0.5541    0.0000 C   0  0  0  0  0  0  0  0  0  0  0  0
   -1.6950   -2.7543    0.0000 C   0  0  0  0  0  0  0  0  0  0  0  0
    3.0477   -0.5541    0.0000 C   0  0  0  0  0  0  0  0  0  0  0  0
   -2.4120    1.4179    0.0000 C   0  0  0  0  0  0  0  0  0  0  0  0
    3.4551   -1.2549    0.0000 C   0  0  0  0  0  0  0  0  0  0  0  0
    4.2211   -2.2653    0.0000 C   0  0  0  0  0  0  0  0  0  0  0  0
   -3.8462    1.8090    0.0000 C   0  0  0  0  0  0  0  0  0  0  0  0
  1 11  2  0  0  0  0
  1 12  2  0  0  0  0
  1 40  1  0  0  0  0
  1 46  1  0  0  0  0
  2 28  1  0  0  0  0
  3 28  1  0  0  0  0
  4 33  1  0  0  0  0
  5 33  1  0  0  0  0
  6 43  1  0  0  0  0
  7 18  1  0  0  0  0
  7 31  1  0  0  0  0
  8 27  1  0  0  0  0
  8 33  1  0  0  0  0
  9 30  1  0  0  0  0
  9 33  1  0  0  0  0
 10 38  2  0  0  0  0
 13 15  1  0  0  0  0
 13 21  1  0  0  0  0
 13 42  1  0  0  0  0
 14 20  1  0  0  0  0
 14 31  2  0  0  0  0
 15 23  2  0  0  0  0
 16 38  1  0  0  0  0
 16 47  1  0  0  0  0
 17 18  1  0  0  0  0
 17 19  1  0  0  0  0
 17 24  2  0  0  0  0
 18 20  2  0  0  0  0
 19 21  1  0  0  0  0
 19 29  2  0  0  0  0
 20 22  1  0  0  0  0
 21 26  2  0  0  0  0
 22 32  1  0  0  0  0
 22 36  2  0  0  0  0
 23 26  1  0  0  0  0
 23 28  1  0  0  0  0
 24 25  1  0  0  0  0
 25 34  1  0  0  0  0
 25 35  2  0  0  0  0
 27 30  1  0  0  0  0
 27 32  2  0  0  0  0
 28 38  1  0  0  0  0
 29 35  1  0  0  0  0
 30 37  2  0  0  0  0
 31 44  1  0  0  0  0
 34 39  2  0  0  0  0
 34 41  1  0  0  0  0
 36 37  1  0  0  0  0
 39 40  1  0  0  0  0
 40 45  2  0  0  0  0
 41 43  2  0  0  0  0
 43 45  1  0  0  0  0
M  END
> <PUBCHEM_COMPOUND_ID_TYPE>
0

> <PUBCHEM_TOTAL_CHARGE>
0

> <PUBCHEM_SUBSTANCE_ID>
310948186

> <PUBCHEM_SUBSTANCE_VERSION>
1

> <PUBCHEM_EXT_DATASOURCE_NAME>
4488

> <PUBCHEM_EXT_DATASOURCE_REGID>
SCHEMBL16126363

> <PUBCHEM_SUBSTANCE_COMMENT>
InChI=1S/C31H23F5N4O6S/c1-15-38-27(17-6-8-24-25(12-17)46-31(35,36)45-24)28(44-15)22-11-16(18-9-19(32)13-20(10-18)47(4,42)43)5-7-21(22)23-14-26(39-40(23)3)30(33,34)29(41)37-2/h5-14H,1-4H3,(H,37,41)
InChIKey=UWZPKSKSDWNIFI-UHFFFAOYSA-N

> <PUBCHEM_SUBSTANCE_SYNONYM>
SCHEMBL16126363

> <PUBCHEM_XREF_EXT_ID>
SCHEMBL16126363

> <PUBCHEM_EXT_DATASOURCE_URL>
https://www.surechembl.org/

> <PUBCHEM_EXT_SUBSTANCE_URL>
https://www.surechembl.org/chemical/SCHEMBL16126363

> <PUBCHEM_CID_ASSOCIATIONS>
86276031  1

> <PUBCHEM_COORDINATE_TYPE>
1
3

$$$$
