310948293
  -OEChem-07211613022D

 28 29  0     0  0  0  0  0  0999 V2000
   -3.6447   -1.1506    0.0000 F   0  0  0  0  0  0  0  0  0  0  0  0
   -4.0010   -0.0817    0.0000 F   0  0  0  0  0  0  0  0  0  0  0  0
   -2.9173    0.2747    0.0000 F   0  0  0  0  0  0  0  0  0  0  0  0
   -1.0021   -2.9173    0.0000 F   0  0  0  0  0  0  0  0  0  0  0  0
   -1.7890   -3.7338    0.0000 F   0  0  0  0  0  0  0  0  0  0  0  0
   -2.6054   -2.9321    0.0000 F   0  0  0  0  0  0  0  0  0  0  0  0
    2.8281    2.2640    0.0000 O   0  0  0  0  0  0  0  0  0  0  0  0
    1.5217    2.8578    0.0000 O   0  0  0  0  0  0  0  0  0  0  0  0
   -0.2895    0.4083    0.0000 N   0  0  0  0  0  0  0  0  0  0  0  0
    0.5270    0.5864    0.0000 N   0  0  0  0  0  0  0  0  0  0  0  0
    0.3786   -0.7497    0.0000 N   0  0  0  0  0  0  0  0  0  0  0  0
    0.9427   -0.1410    0.0000 N   0  0  0  0  0  0  0  0  0  0  0  0
   -1.0912   -0.8091    0.0000 C   0  0  0  0  0  0  0  0  0  0  0  0
   -2.5610   -0.8091    0.0000 C   0  0  0  0  0  0  0  0  0  0  0  0
   -1.8334   -2.0561    0.0000 C   0  0  0  0  0  0  0  0  0  0  0  0
   -0.3934   -0.3934    0.0000 C   0  0  0  0  0  0  0  0  0  0  0  0
   -1.1209   -1.6405    0.0000 C   0  0  0  0  0  0  0  0  0  0  0  0
   -1.8334   -0.4083    0.0000 C   0  0  0  0  0  0  0  0  0  0  0  0
   -2.5461   -1.6405    0.0000 C   0  0  0  0  0  0  0  0  0  0  0  0
   -3.2884   -0.4231    0.0000 C   0  0  0  0  0  0  0  0  0  0  0  0
   -1.8186   -2.9173    0.0000 C   0  0  0  0  0  0  0  0  0  0  0  0
    0.8388    1.3733    0.0000 C   0  0  0  0  0  0  0  0  0  0  0  0
    1.6553    1.4771    0.0000 C   0  0  0  0  0  0  0  0  0  0  0  0
    2.0116    2.2046    0.0000 C   0  0  0  0  0  0  0  0  0  0  0  0
    2.1601    0.7794    0.0000 C   0  0  0  0  0  0  0  0  0  0  0  0
    3.1844    3.0657    0.0000 C   0  0  0  0  0  0  0  0  0  0  0  0
    4.0010    3.1400    0.0000 C   0  0  0  0  0  0  0  0  0  0  0  0
    2.6648    3.7338    0.0000 C   0  0  0  0  0  0  0  0  0  0  0  0
  1 20  1  0  0  0  0
  2 20  1  0  0  0  0
  3 20  1  0  0  0  0
  4 21  1  0  0  0  0
  5 21  1  0  0  0  0
  6 21  1  0  0  0  0
  7 24  1  0  0  0  0
  7 26  1  0  0  0  0
  8 24  2  0  0  0  0
  9 10  1  0  0  0  0
  9 16  2  0  0  0  0
 10 12  1  0  0  0  0
 10 22  1  0  0  0  0
 11 12  2  0  0  0  0
 11 16  1  0  0  0  0
 13 16  1  0  0  0  0
 13 17  2  0  0  0  0
 13 18  1  0  0  0  0
 14 18  2  0  0  0  0
 14 19  1  0  0  0  0
 14 20  1  0  0  0  0
 15 17  1  0  0  0  0
 15 19  2  0  0  0  0
 15 21  1  0  0  0  0
 22 23  1  0  0  0  0
 23 24  1  0  0  0  0
 23 25  2  0  0  0  0
 26 27  1  0  0  0  0
 26 28  1  0  0  0  0
M  END
> <PUBCHEM_COMPOUND_ID_TYPE>
0

> <PUBCHEM_TOTAL_CHARGE>
0

> <PUBCHEM_SUBSTANCE_ID>
310948293

> <PUBCHEM_SUBSTANCE_VERSION>
1

> <PUBCHEM_EXT_DATASOURCE_NAME>
4488

> <PUBCHEM_EXT_DATASOURCE_REGID>
SCHEMBL16126470

> <PUBCHEM_SUBSTANCE_COMMENT>
InChI=1S/C16H14F6N4O2/c1-8(2)28-14(27)9(3)7-26-24-13(23-25-26)10-4-11(15(17,18)19)6-12(5-10)16(20,21)22/h4-6,8H,3,7H2,1-2H3
InChIKey=SKPMDXGGVFSLJY-UHFFFAOYSA-N

> <PUBCHEM_SUBSTANCE_SYNONYM>
SCHEMBL16126470

> <PUBCHEM_XREF_EXT_ID>
SCHEMBL16126470

> <PUBCHEM_EXT_DATASOURCE_URL>
https://www.surechembl.org/

> <PUBCHEM_EXT_SUBSTANCE_URL>
https://www.surechembl.org/chemical/SCHEMBL16126470

> <PUBCHEM_CID_ASSOCIATIONS>
86294540  1

> <PUBCHEM_COORDINATE_TYPE>
1
3

$$$$
