310937782
  -OEChem-07211613022D

 26 29  0     0  0  0  0  0  0999 V2000
    7.0461   -2.2251    0.0000 O   0  0  0  0  0  0  0  0  0  0  0  0
    2.9403   -2.9403    0.0000 O   0  0  0  0  0  0  0  0  0  0  0  0
    5.7746   -1.8278    0.0000 N   0  0  0  0  0  0  0  0  0  0  0  0
    5.1918   -3.9204    0.0000 N   0  0  0  0  0  0  0  0  0  0  0  0
    6.5693   -2.9138    0.0000 N   0  0  0  0  0  0  0  0  0  0  0  0
    0.8742   -3.6025    0.0000 N   0  0  0  0  0  0  0  0  0  0  0  0
    3.7879   -4.0793    0.0000 C   0  0  0  0  0  0  0  0  0  0  0  0
    5.1124   -3.1257    0.0000 C   0  0  0  0  0  0  0  0  0  0  0  0
    5.7746   -2.6489    0.0000 C   0  0  0  0  0  0  0  0  0  0  0  0
    3.6819   -3.2847    0.0000 C   0  0  0  0  0  0  0  0  0  0  0  0
    3.0992   -4.5561    0.0000 C   0  0  0  0  0  0  0  0  0  0  0  0
    6.5693   -1.5629    0.0000 C   0  0  0  0  0  0  0  0  0  0  0  0
    4.3442   -2.7549    0.0000 C   0  0  0  0  0  0  0  0  0  0  0  0
    6.8077   -0.7682    0.0000 C   0  0  0  0  0  0  0  0  0  0  0  0
    4.5296   -4.4237    0.0000 C   0  0  0  0  0  0  0  0  0  0  0  0
    2.7549   -5.2978    0.0000 C   0  0  0  0  0  0  0  0  0  0  0  0
    2.2781   -4.6356    0.0000 C   0  0  0  0  0  0  0  0  0  0  0  0
    2.2781   -3.4436    0.0000 C   0  0  0  0  0  0  0  0  0  0  0  0
    7.6289   -1.0331    0.0000 C   0  0  0  0  0  0  0  0  0  0  0  0
    7.0726    0.0000    0.0000 C   0  0  0  0  0  0  0  0  0  0  0  0
    6.0395   -0.5298    0.0000 C   0  0  0  0  0  0  0  0  0  0  0  0
    1.5099   -3.1257    0.0000 C   0  0  0  0  0  0  0  0  0  0  0  0
    1.4304   -2.3045    0.0000 C   0  0  0  0  0  0  0  0  0  0  0  0
    0.0795   -3.3111    0.0000 C   0  0  0  0  0  0  0  0  0  0  0  0
    0.6357   -1.9867    0.0000 C   0  0  0  0  0  0  0  0  0  0  0  0
    0.0000   -2.4900    0.0000 C   0  0  0  0  0  0  0  0  0  0  0  0
  1  5  1  0  0  0  0
  1 12  1  0  0  0  0
  2 10  1  0  0  0  0
  2 18  1  0  0  0  0
  3  9  1  0  0  0  0
  3 12  2  0  0  0  0
  4  8  1  0  0  0  0
  4 15  2  0  0  0  0
  5  9  2  0  0  0  0
  6 22  1  0  0  0  0
  6 24  2  0  0  0  0
  7 10  2  0  0  0  0
  7 11  1  0  0  0  0
  7 15  1  0  0  0  0
  8  9  1  0  0  0  0
  8 13  2  0  0  0  0
 10 13  1  0  0  0  0
 11 16  1  0  0  0  0
 11 17  1  0  0  0  0
 12 14  1  0  0  0  0
 14 19  1  0  0  0  0
 14 20  1  0  0  0  0
 14 21  1  0  0  0  0
 16 17  1  0  0  0  0
 18 22  1  0  0  0  0
 22 23  2  0  0  0  0
 23 25  1  0  0  0  0
 24 26  1  0  0  0  0
 25 26  2  0  0  0  0
M  END
> <PUBCHEM_COMPOUND_ID_TYPE>
0

> <PUBCHEM_TOTAL_CHARGE>
0

> <PUBCHEM_SUBSTANCE_ID>
310937782

> <PUBCHEM_SUBSTANCE_VERSION>
1

> <PUBCHEM_EXT_DATASOURCE_NAME>
4488

> <PUBCHEM_EXT_DATASOURCE_REGID>
SCHEMBL16115595

> <PUBCHEM_SUBSTANCE_COMMENT>
InChI=1S/C20H22N4O2/c1-20(2,3)19-23-18(24-26-19)16-10-17(15(11-22-16)13-7-8-13)25-12-14-6-4-5-9-21-14/h4-6,9-11,13H,7-8,12H2,1-3H3
InChIKey=GDDHNUCZXMGHLT-UHFFFAOYSA-N

> <PUBCHEM_SUBSTANCE_SYNONYM>
SCHEMBL16115595

> <PUBCHEM_XREF_EXT_ID>
SCHEMBL16115595

> <PUBCHEM_EXT_DATASOURCE_URL>
https://www.surechembl.org/

> <PUBCHEM_EXT_SUBSTANCE_URL>
https://www.surechembl.org/chemical/SCHEMBL16115595

> <PUBCHEM_CID_ASSOCIATIONS>
117605436  1

> <PUBCHEM_COORDINATE_TYPE>
1
3

$$$$
