310936830
  -OEChem-07211613022D

 25 27  0     0  0  0  0  0  0999 V2000
    2.3391   -7.9292    0.0000 F   0  0  0  0  0  0  0  0  0  0  0  0
    4.1232   -4.7972    0.0000 O   0  0  0  0  0  0  0  0  0  0  0  0
    0.0000    0.0000    0.0000 O   0  0  0  0  0  0  0  0  0  0  0  0
    1.5066   -2.0219    0.0000 N   0  0  0  0  0  0  0  0  0  0  0  0
    3.5285   -3.4888    0.0000 N   0  0  0  0  0  0  0  0  0  0  0  0
    0.9119   -1.4669    0.0000 N   0  0  0  0  0  0  0  0  0  0  0  0
    2.0616   -0.7929    0.0000 N   0  0  0  0  0  0  0  0  0  0  0  0
    2.6959   -4.6386    0.0000 C   0  0  0  0  0  0  0  0  0  0  0  0
    2.6166   -5.4711    0.0000 C   0  0  0  0  0  0  0  0  0  0  0  0
    3.4888   -4.3214    0.0000 C   0  0  0  0  0  0  0  0  0  0  0  0
    2.1012   -3.3303    0.0000 C   0  0  0  0  0  0  0  0  0  0  0  0
    2.0616   -4.1628    0.0000 C   0  0  0  0  0  0  0  0  0  0  0  0
    1.4272   -2.8545    0.0000 C   0  0  0  0  0  0  0  0  0  0  0  0
    1.8634   -5.7883    0.0000 C   0  0  0  0  0  0  0  0  0  0  0  0
    2.8941   -3.0131    0.0000 C   0  0  0  0  0  0  0  0  0  0  0  0
    3.2906   -5.9865    0.0000 C   0  0  0  0  0  0  0  0  0  0  0  0
    1.7444   -6.6209    0.0000 C   0  0  0  0  0  0  0  0  0  0  0  0
    2.4184   -7.0966    0.0000 C   0  0  0  0  0  0  0  0  0  0  0  0
    1.2290   -0.7136    0.0000 C   0  0  0  0  0  0  0  0  0  0  0  0
    3.1717   -6.7794    0.0000 C   0  0  0  0  0  0  0  0  0  0  0  0
    2.2202   -1.6255    0.0000 C   0  0  0  0  0  0  0  0  0  0  0  0
    0.8326    0.0000    0.0000 C   0  0  0  0  0  0  0  0  0  0  0  0
    4.9161   -4.4800    0.0000 C   0  0  0  0  0  0  0  0  0  0  0  0
    0.9912   -6.9380    0.0000 C   0  0  0  0  0  0  0  0  0  0  0  0
    4.9954   -3.6474    0.0000 C   0  0  0  0  0  0  0  0  0  0  0  0
  1 18  1  0  0  0  0
  2 10  1  0  0  0  0
  2 23  1  0  0  0  0
  3 22  1  0  0  0  0
  4  6  1  0  0  0  0
  4 13  1  0  0  0  0
  4 21  1  0  0  0  0
  5 10  2  0  0  0  0
  5 15  1  0  0  0  0
  6 19  2  0  0  0  0
  7 19  1  0  0  0  0
  7 21  2  0  0  0  0
  8  9  1  0  0  0  0
  8 10  1  0  0  0  0
  8 12  2  0  0  0  0
  9 14  1  0  0  0  0
  9 16  2  0  0  0  0
 11 12  1  0  0  0  0
 11 13  1  0  0  0  0
 11 15  2  0  0  0  0
 14 17  2  0  0  0  0
 16 20  1  0  0  0  0
 17 18  1  0  0  0  0
 17 24  1  0  0  0  0
 18 20  2  0  0  0  0
 19 22  1  0  0  0  0
 23 25  1  0  0  0  0
M  END
> <PUBCHEM_COMPOUND_ID_TYPE>
0

> <PUBCHEM_TOTAL_CHARGE>
0

> <PUBCHEM_SUBSTANCE_ID>
310936830

> <PUBCHEM_SUBSTANCE_VERSION>
1

> <PUBCHEM_EXT_DATASOURCE_NAME>
4488

> <PUBCHEM_EXT_DATASOURCE_REGID>
SCHEMBL16114520

> <PUBCHEM_SUBSTANCE_COMMENT>
InChI=1S/C18H19FN4O2/c1-3-25-18-15(14-4-5-16(19)12(2)6-14)7-13(8-20-18)9-23-11-21-17(10-24)22-23/h4-8,11,24H,3,9-10H2,1-2H3
InChIKey=MQLTZQAENPFCQL-UHFFFAOYSA-N

> <PUBCHEM_SUBSTANCE_SYNONYM>
SCHEMBL16114520

> <PUBCHEM_XREF_EXT_ID>
SCHEMBL16114520

> <PUBCHEM_EXT_DATASOURCE_URL>
https://www.surechembl.org/

> <PUBCHEM_EXT_SUBSTANCE_URL>
https://www.surechembl.org/chemical/SCHEMBL16114520

> <PUBCHEM_CID_ASSOCIATIONS>
117604725  1

> <PUBCHEM_COORDINATE_TYPE>
1
3

$$$$
