310933970
  -OEChem-07211613022D

 14 15  0     0  0  0  0  0  0999 V2000
    0.6639   -1.7935    0.0000 O   0  0  0  0  0  0  0  0  0  0  0  0
    1.0285   -4.2333    0.0000 O   0  0  0  0  0  0  0  0  0  0  0  0
    2.4573   -4.2547    0.0000 O   0  0  0  0  0  0  0  0  0  0  0  0
    1.0655   -1.7586    0.0000 C   0  0  0  0  0  0  0  0  0  0  0  0
    0.9228   -1.0102    0.0000 C   0  0  0  0  0  0  0  0  0  0  0  0
    1.8140   -2.1055    0.0000 C   0  0  0  0  0  0  0  0  0  0  0  0
    0.2262   -2.1175    0.0000 C   0  0  0  0  0  0  0  0  0  0  0  0
    1.2052   -0.7200    0.0000 C   0  0  0  0  0  0  0  0  0  0  0  0
    1.6614   -1.3425    0.0000 C   0  0  0  0  0  0  0  0  0  0  0  0
    0.1190   -1.3621    0.0000 C   0  0  0  0  0  0  0  0  0  0  0  0
    0.9605   -0.1141    0.0000 C   0  0  0  0  0  0  0  0  0  0  0  0
    1.0532   -2.5835    0.0000 C   0  0  0  0  0  0  0  0  0  0  0  0
    1.7614   -3.0066    0.0000 C   0  0  0  0  0  0  0  0  0  0  0  0
    1.7491   -3.8316    0.0000 C   0  0  0  0  0  0  0  0  0  0  0  0
  1  5  1  0  0  0  0
  2 14  2  0  0  0  0
  3 14  1  0  0  0  0
  4  6  1  0  0  0  0
  4  7  1  0  0  0  0
  4  8  1  0  0  0  0
  4 12  1  0  0  0  0
  5  9  1  0  0  0  0
  5 10  1  0  0  0  0
  5 11  1  0  0  0  0
  6  9  1  0  0  0  0
  7 10  1  0  0  0  0
  8 11  1  0  0  0  0
 12 13  1  0  0  0  0
 13 14  1  0  0  0  0
M  END
> <PUBCHEM_COMPOUND_ID_TYPE>
0

> <PUBCHEM_TOTAL_CHARGE>
0

> <PUBCHEM_SUBSTANCE_ID>
310933970

> <PUBCHEM_SUBSTANCE_VERSION>
1

> <PUBCHEM_EXT_DATASOURCE_NAME>
4488

> <PUBCHEM_EXT_DATASOURCE_REGID>
SCHEMBL16111410

> <PUBCHEM_SUBSTANCE_COMMENT>
InChI=1S/C11H18O3/c12-9(13)1-2-10-3-6-11(14,7-4-10)8-5-10/h14H,1-8H2,(H,12,13)
InChIKey=JVZUDWBDYYGORV-UHFFFAOYSA-N

> <PUBCHEM_SUBSTANCE_SYNONYM>
SCHEMBL16111410

> <PUBCHEM_XREF_EXT_ID>
SCHEMBL16111410

> <PUBCHEM_EXT_DATASOURCE_URL>
https://www.surechembl.org/

> <PUBCHEM_EXT_SUBSTANCE_URL>
https://www.surechembl.org/chemical/SCHEMBL16111410

> <PUBCHEM_CID_ASSOCIATIONS>
117602286  1

> <PUBCHEM_COORDINATE_TYPE>
1
3

$$$$
