310934132
  -OEChem-07211613022D

 34 38  0     0  0  0  0  0  0999 V2000
    9.4337    0.0000    0.0000 O   0  0  0  0  0  0  0  0  0  0  0  0
   10.1205   -1.2289    0.0000 O   0  0  0  0  0  0  0  0  0  0  0  0
    2.3494   -4.8795    0.0000 N   0  0  0  0  0  0  0  0  0  0  0  0
    9.4337   -2.4578    0.0000 N   0  0  0  0  0  0  0  0  0  0  0  0
    1.6265   -4.5542    0.0000 C   0  0  0  0  0  0  0  0  0  0  0  0
    2.2410   -5.7109    0.0000 C   0  0  0  0  0  0  0  0  0  0  0  0
    1.0482   -5.1325    0.0000 C   0  0  0  0  0  0  0  0  0  0  0  0
    1.4458   -5.8193    0.0000 C   0  0  0  0  0  0  0  0  0  0  0  0
    3.0361   -4.4819    0.0000 C   0  0  0  0  0  0  0  0  0  0  0  0
    2.7470   -6.3253    0.0000 C   0  0  0  0  0  0  0  0  0  0  0  0
    1.3735   -3.7229    0.0000 C   0  0  0  0  0  0  0  0  0  0  0  0
    0.2169   -4.9156    0.0000 C   0  0  0  0  0  0  0  0  0  0  0  0
    1.1927   -6.6145    0.0000 C   0  0  0  0  0  0  0  0  0  0  0  0
    3.0361   -3.6506    0.0000 C   0  0  0  0  0  0  0  0  0  0  0  0
    3.7590   -4.8795    0.0000 C   0  0  0  0  0  0  0  0  0  0  0  0
    0.5783   -3.5422    0.0000 C   0  0  0  0  0  0  0  0  0  0  0  0
    2.4578   -7.0843    0.0000 C   0  0  0  0  0  0  0  0  0  0  0  0
    0.0000   -4.1566    0.0000 C   0  0  0  0  0  0  0  0  0  0  0  0
    1.6988   -7.2289    0.0000 C   0  0  0  0  0  0  0  0  0  0  0  0
    4.4458   -3.6506    0.0000 C   0  0  0  0  0  0  0  0  0  0  0  0
    3.7590   -3.2530    0.0000 C   0  0  0  0  0  0  0  0  0  0  0  0
    4.4819   -4.4819    0.0000 C   0  0  0  0  0  0  0  0  0  0  0  0
    5.1686   -3.2530    0.0000 C   0  0  0  0  0  0  0  0  0  0  0  0
    5.1686   -2.4578    0.0000 C   0  0  0  0  0  0  0  0  0  0  0  0
    5.8554   -2.0241    0.0000 C   0  0  0  0  0  0  0  0  0  0  0  0
    7.3012   -1.2289    0.0000 C   0  0  0  0  0  0  0  0  0  0  0  0
    6.5783   -2.4578    0.0000 C   0  0  0  0  0  0  0  0  0  0  0  0
    5.8916   -1.2289    0.0000 C   0  0  0  0  0  0  0  0  0  0  0  0
    7.3012   -2.0603    0.0000 C   0  0  0  0  0  0  0  0  0  0  0  0
    6.5783   -0.8313    0.0000 C   0  0  0  0  0  0  0  0  0  0  0  0
    7.9879   -0.7952    0.0000 C   0  0  0  0  0  0  0  0  0  0  0  0
    8.7108   -1.2289    0.0000 C   0  0  0  0  0  0  0  0  0  0  0  0
    9.4337   -0.8313    0.0000 C   0  0  0  0  0  0  0  0  0  0  0  0
    8.7108   -2.0603    0.0000 C   0  0  0  0  0  0  0  0  0  0  0  0
  1 33  2  0  0  0  0
  2 33  1  0  0  0  0
  3  5  1  0  0  0  0
  3  6  1  0  0  0  0
  3  9  1  0  0  0  0
  4 34  3  0  0  0  0
  5  7  2  0  0  0  0
  5 11  1  0  0  0  0
  6  8  2  0  0  0  0
  6 10  1  0  0  0  0
  7  8  1  0  0  0  0
  7 12  1  0  0  0  0
  8 13  1  0  0  0  0
  9 14  2  0  0  0  0
  9 15  1  0  0  0  0
 10 17  2  0  0  0  0
 11 16  2  0  0  0  0
 12 18  2  0  0  0  0
 13 19  2  0  0  0  0
 14 21  1  0  0  0  0
 15 22  2  0  0  0  0
 16 18  1  0  0  0  0
 17 19  1  0  0  0  0
 20 21  2  0  0  0  0
 20 22  1  0  0  0  0
 20 23  1  0  0  0  0
 23 24  2  0  0  0  0
 24 25  1  0  0  0  0
 25 27  2  0  0  0  0
 25 28  1  0  0  0  0
 26 29  2  0  0  0  0
 26 30  1  0  0  0  0
 26 31  1  0  0  0  0
 27 29  1  0  0  0  0
 28 30  2  0  0  0  0
 31 32  2  0  0  0  0
 32 33  1  0  0  0  0
 32 34  1  0  0  0  0
M  END
> <PUBCHEM_COMPOUND_ID_TYPE>
0

> <PUBCHEM_TOTAL_CHARGE>
0

> <PUBCHEM_SUBSTANCE_ID>
310934132

> <PUBCHEM_SUBSTANCE_VERSION>
1

> <PUBCHEM_EXT_DATASOURCE_NAME>
4488

> <PUBCHEM_EXT_DATASOURCE_REGID>
SCHEMBL16111579

> <PUBCHEM_SUBSTANCE_COMMENT>
InChI=1S/C30H20N2O2/c31-20-24(30(33)34)19-23-13-11-21(12-14-23)9-10-22-15-17-25(18-16-22)32-28-7-3-1-5-26(28)27-6-2-4-8-29(27)32/h1-19H,(H,33,34)/b10-9+,24-19+
InChIKey=GXHDUIZUPGUGMG-KTCMJUHESA-N

> <PUBCHEM_SUBSTANCE_SYNONYM>
SCHEMBL16111579

> <PUBCHEM_XREF_EXT_ID>
SCHEMBL16111579

> <PUBCHEM_EXT_DATASOURCE_URL>
https://www.surechembl.org/

> <PUBCHEM_EXT_SUBSTANCE_URL>
https://www.surechembl.org/chemical/SCHEMBL16111579

> <PUBCHEM_CID_ASSOCIATIONS>
117602409  1

> <PUBCHEM_COORDINATE_TYPE>
1
3

$$$$
