310942605
  -OEChem-07211613022D

 30 33  0     0  0  0  0  0  0999 V2000
    1.4547   -0.3947    0.0000 N   0  0  0  0  0  0  0  0  0  0  0  0
   -2.8827    1.2551    0.0000 N   0  0  0  0  0  0  0  0  0  0  0  0
    0.0089   -0.3947    0.0000 N   0  0  0  0  0  0  0  0  0  0  0  0
    0.7362    0.8382    0.0000 N   0  0  0  0  0  0  0  0  0  0  0  0
    2.9005   -0.3947    0.0000 N   0  0  0  0  0  0  0  0  0  0  0  0
   -4.3285    2.0800    0.0000 N   0  0  0  0  0  0  0  0  0  0  0  0
    5.0558    1.6542    0.0000 N   0  0  0  0  0  0  0  0  0  0  0  0
    2.1820    0.0221    0.0000 C   0  0  0  0  0  0  0  0  0  0  0  0
    0.7362    0.0221    0.0000 C   0  0  0  0  0  0  0  0  0  0  0  0
    2.1909    0.8471    0.0000 C   0  0  0  0  0  0  0  0  0  0  0  0
   -2.1465    0.8471    0.0000 C   0  0  0  0  0  0  0  0  0  0  0  0
   -0.7096    0.0221    0.0000 C   0  0  0  0  0  0  0  0  0  0  0  0
    1.4547    1.2551    0.0000 C   0  0  0  0  0  0  0  0  0  0  0  0
   -2.1465    0.0221    0.0000 C   0  0  0  0  0  0  0  0  0  0  0  0
   -1.4369    1.2463    0.0000 C   0  0  0  0  0  0  0  0  0  0  0  0
   -1.4192   -0.3858    0.0000 C   0  0  0  0  0  0  0  0  0  0  0  0
   -0.7096    0.8382    0.0000 C   0  0  0  0  0  0  0  0  0  0  0  0
    2.8916   -1.2196    0.0000 C   0  0  0  0  0  0  0  0  0  0  0  0
    2.9005    1.2551    0.0000 C   0  0  0  0  0  0  0  0  0  0  0  0
   -3.5834    0.8471    0.0000 C   0  0  0  0  0  0  0  0  0  0  0  0
   -2.8827    2.0800    0.0000 C   0  0  0  0  0  0  0  0  0  0  0  0
   -4.3197    1.2551    0.0000 C   0  0  0  0  0  0  0  0  0  0  0  0
   -3.6012    2.4880    0.0000 C   0  0  0  0  0  0  0  0  0  0  0  0
    2.2263   -1.7163    0.0000 C   0  0  0  0  0  0  0  0  0  0  0  0
    3.5657   -1.7075    0.0000 C   0  0  0  0  0  0  0  0  0  0  0  0
    3.6456    0.8471    0.0000 C   0  0  0  0  0  0  0  0  0  0  0  0
    2.4836   -2.4880    0.0000 C   0  0  0  0  0  0  0  0  0  0  0  0
    3.2996   -2.4880    0.0000 C   0  0  0  0  0  0  0  0  0  0  0  0
   -5.0558    2.4880    0.0000 C   0  0  0  0  0  0  0  0  0  0  0  0
    4.3463    1.2551    0.0000 C   0  0  0  0  0  0  0  0  0  0  0  0
  1  8  2  0  0  0  0
  1  9  1  0  0  0  0
  2 11  1  0  0  0  0
  2 20  1  0  0  0  0
  2 21  1  0  0  0  0
  3  9  1  0  0  0  0
  3 12  1  0  0  0  0
  4  9  2  0  0  0  0
  4 13  1  0  0  0  0
  5  8  1  0  0  0  0
  5 18  1  0  0  0  0
  6 22  1  0  0  0  0
  6 23  1  0  0  0  0
  6 29  1  0  0  0  0
  7 30  3  0  0  0  0
  8 10  1  0  0  0  0
 10 13  2  0  0  0  0
 10 19  1  0  0  0  0
 11 14  2  0  0  0  0
 11 15  1  0  0  0  0
 12 16  2  0  0  0  0
 12 17  1  0  0  0  0
 14 16  1  0  0  0  0
 15 17  2  0  0  0  0
 18 24  1  0  0  0  0
 18 25  1  0  0  0  0
 19 26  2  0  0  0  0
 20 22  1  0  0  0  0
 21 23  1  0  0  0  0
 24 27  1  0  0  0  0
 25 28  1  0  0  0  0
 26 30  1  0  0  0  0
 27 28  1  0  0  0  0
M  END
> <PUBCHEM_COMPOUND_ID_TYPE>
0

> <PUBCHEM_TOTAL_CHARGE>
0

> <PUBCHEM_SUBSTANCE_ID>
310942605

> <PUBCHEM_SUBSTANCE_VERSION>
1

> <PUBCHEM_EXT_DATASOURCE_NAME>
4488

> <PUBCHEM_EXT_DATASOURCE_REGID>
SCHEMBL16120651

> <PUBCHEM_SUBSTANCE_COMMENT>
InChI=1S/C23H29N7/c1-29-13-15-30(16-14-29)21-10-8-20(9-11-21)27-23-25-17-18(5-4-12-24)22(28-23)26-19-6-2-3-7-19/h4-5,8-11,17,19H,2-3,6-7,13-16H2,1H3,(H2,25,26,27,28)/b5-4+
InChIKey=JYZYPDJPZMTQLU-SNAWJCMRSA-N

> <PUBCHEM_SUBSTANCE_SYNONYM>
SCHEMBL16120651

> <PUBCHEM_XREF_EXT_ID>
SCHEMBL16120651

> <PUBCHEM_EXT_DATASOURCE_URL>
https://www.surechembl.org/

> <PUBCHEM_EXT_SUBSTANCE_URL>
https://www.surechembl.org/chemical/SCHEMBL16120651

> <PUBCHEM_CID_ASSOCIATIONS>
85470871  1

> <PUBCHEM_COORDINATE_TYPE>
1
3

$$$$
