310944508
  -OEChem-07211613022D

 31 35  0     1  0  0  0  0  0999 V2000
    2.4976   -0.0999    0.0000 O   0  0  0  0  0  0  0  0  0  0  0  0
    5.0285   -1.6539    0.0000 O   0  0  0  0  0  0  0  0  0  0  0  0
    5.4947   -0.2664    0.0000 O   0  0  0  0  0  0  0  0  0  0  0  0
   -1.3099   -1.2433    0.0000 O   0  0  0  0  0  0  0  0  0  0  0  0
    2.8861   -1.5207    0.0000 N   0  0  0  0  0  0  0  0  0  0  0  0
    0.1221   -0.4107    0.0000 N   0  0  0  0  0  0  0  0  0  0  0  0
   -4.1738    1.2433    0.0000 N   0  0  0  0  0  0  0  0  0  0  0  0
   -2.7418    1.2433    0.0000 N   0  0  0  0  0  0  0  0  0  0  0  0
   -4.2626    2.0646    0.0000 N   0  0  0  0  0  0  0  0  0  0  0  0
   -5.0729    2.2312    0.0000 N   0  0  0  0  0  0  0  0  0  0  0  0
   -5.4947    1.5207    0.0000 N   0  0  0  0  0  0  0  0  0  0  0  0
    1.5651   -1.2322    0.0000 C   0  0  0  0  0  0  0  0  0  0  0  0
    2.3089   -0.9102    0.0000 C   0  0  0  0  0  0  0  0  0  0  0  0
    1.6539   -2.0535    0.0000 C   0  0  0  0  0  0  0  0  0  0  0  0
    3.6965   -1.4209    0.0000 C   0  0  0  0  0  0  0  0  0  0  0  0
    2.4643   -2.2312    0.0000 C   0  0  0  0  0  0  0  0  0  0  0  0
    0.8659   -1.6428    0.0000 C   0  0  0  0  0  0  0  0  0  0  0  0
    1.5651   -0.4107    0.0000 C   0  0  0  0  0  0  0  0  0  0  0  0
    0.1221   -1.2322    0.0000 C   0  0  0  0  0  0  0  0  0  0  0  0
    0.8326    0.0000    0.0000 C   0  0  0  0  0  0  0  0  0  0  0  0
    4.0960   -0.6993    0.0000 C   0  0  0  0  0  0  0  0  0  0  0  0
    4.2848   -2.0203    0.0000 C   0  0  0  0  0  0  0  0  0  0  0  0
    4.8952   -0.8437    0.0000 C   0  0  0  0  0  0  0  0  0  0  0  0
   -0.5994    0.0000    0.0000 C   0  0  0  0  0  0  0  0  0  0  0  0
   -1.2988   -0.3996    0.0000 C   0  0  3  0  0  0  0  0  0  0  0  0
   -2.0314    0.0111    0.0000 C   0  0  0  0  0  0  0  0  0  0  0  0
   -3.4522    0.8326    0.0000 C   0  0  0  0  0  0  0  0  0  0  0  0
   -2.0203    0.8326    0.0000 C   0  0  0  0  0  0  0  0  0  0  0  0
   -2.7529   -0.3996    0.0000 C   0  0  0  0  0  0  0  0  0  0  0  0
   -3.4633    0.0111    0.0000 C   0  0  0  0  0  0  0  0  0  0  0  0
   -4.9286    0.9102    0.0000 C   0  0  0  0  0  0  0  0  0  0  0  0
  1 13  2  0  0  0  0
  2 22  1  0  0  0  0
  2 23  1  0  0  0  0
  3 23  2  0  0  0  0
 25  4  1  1  0  0  0
  5 13  1  0  0  0  0
  5 15  1  0  0  0  0
  5 16  1  0  0  0  0
  6 19  1  0  0  0  0
  6 20  1  0  0  0  0
  6 24  1  0  0  0  0
  7  9  1  0  0  0  0
  7 27  1  0  0  0  0
  7 31  1  0  0  0  0
  8 27  2  0  0  0  0
  8 28  1  0  0  0  0
  9 10  2  0  0  0  0
 10 11  1  0  0  0  0
 11 31  2  0  0  0  0
 12 13  1  0  0  0  0
 12 14  1  0  0  0  0
 12 17  1  0  0  0  0
 12 18  1  0  0  0  0
 14 16  2  0  0  0  0
 15 21  2  0  0  0  0
 15 22  1  0  0  0  0
 17 19  1  0  0  0  0
 18 20  1  0  0  0  0
 21 23  1  0  0  0  0
 24 25  1  0  0  0  0
 25 26  1  0  0  0  0
 26 28  2  0  0  0  0
 26 29  1  0  0  0  0
 27 30  1  0  0  0  0
 29 30  2  0  0  0  0
M  END
> <PUBCHEM_COMPOUND_ID_TYPE>
0

> <PUBCHEM_TOTAL_CHARGE>
0

> <PUBCHEM_SUBSTANCE_ID>
310944508

> <PUBCHEM_SUBSTANCE_VERSION>
1

> <PUBCHEM_EXT_DATASOURCE_NAME>
4488

> <PUBCHEM_EXT_DATASOURCE_REGID>
SCHEMBL16122583

> <PUBCHEM_SUBSTANCE_COMMENT>
InChI=1S/C20H21N7O4/c28-16(14-1-2-17(21-10-14)27-13-22-23-24-27)11-25-6-3-20(4-7-25)5-8-26(19(20)30)15-9-18(29)31-12-15/h1-2,5,8-10,13,16,28H,3-4,6-7,11-12H2/t16-/m1/s1
InChIKey=QOAVDJFUNLXKFB-MRXNPFEDSA-N

> <PUBCHEM_SUBSTANCE_SYNONYM>
SCHEMBL16122583

> <PUBCHEM_XREF_EXT_ID>
SCHEMBL16122583

> <PUBCHEM_EXT_DATASOURCE_URL>
https://www.surechembl.org/

> <PUBCHEM_EXT_SUBSTANCE_URL>
https://www.surechembl.org/chemical/SCHEMBL16122583

> <PUBCHEM_CID_ASSOCIATIONS>
86270691  1

> <PUBCHEM_COORDINATE_TYPE>
1
3

> <PUBCHEM_BONDANNOTATIONS>
25  4  5

$$$$
