310942543
  -OEChem-07211613022D

 35 39  0     0  0  0  0  0  0999 V2000
    2.0592    1.5632    0.0000 S   0  0  0  0  0  0  0  0  0  0  0  0
    1.6518    2.2718    0.0000 O   0  0  0  0  0  0  0  0  0  0  0  0
    2.4843    2.2718    0.0000 O   0  0  0  0  0  0  0  0  0  0  0  0
    4.9554   -0.0842    0.0000 O   0  0  0  0  0  0  0  0  0  0  0  0
   -0.8192   -0.0842    0.0000 N   0  0  0  0  0  0  0  0  0  0  0  0
   -2.2629   -0.0842    0.0000 N   0  0  0  0  0  0  0  0  0  0  0  0
   -1.5455    1.1470    0.0000 N   0  0  0  0  0  0  0  0  0  0  0  0
    0.6244   -0.0842    0.0000 N   0  0  0  0  0  0  0  0  0  0  0  0
   -5.2211    1.4038    0.0000 N   0  0  0  0  0  0  0  0  0  0  0  0
   -0.0842    1.1470    0.0000 C   0  0  0  0  0  0  0  0  0  0  0  0
   -0.0930    0.3322    0.0000 C   0  0  0  0  0  0  0  0  0  0  0  0
    2.8031    1.1470    0.0000 C   0  0  0  0  0  0  0  0  0  0  0  0
   -1.5366    0.3322    0.0000 C   0  0  0  0  0  0  0  0  0  0  0  0
   -4.4328    0.3322    0.0000 C   0  0  0  0  0  0  0  0  0  0  0  0
   -2.9803    0.3322    0.0000 C   0  0  0  0  0  0  0  0  0  0  0  0
   -4.4151    1.1470    0.0000 C   0  0  0  0  0  0  0  0  0  0  0  0
    1.3595    1.1558    0.0000 C   0  0  0  0  0  0  0  0  0  0  0  0
    0.6155    1.5544    0.0000 C   0  0  0  0  0  0  0  0  0  0  0  0
   -0.8281    1.5544    0.0000 C   0  0  0  0  0  0  0  0  0  0  0  0
   -3.7065   -0.0752    0.0000 C   0  0  0  0  0  0  0  0  0  0  0  0
   -2.9803    1.1470    0.0000 C   0  0  0  0  0  0  0  0  0  0  0  0
   -3.6977    1.5544    0.0000 C   0  0  0  0  0  0  0  0  0  0  0  0
    2.8031    0.3232    0.0000 C   0  0  0  0  0  0  0  0  0  0  0  0
    3.5205    1.5544    0.0000 C   0  0  0  0  0  0  0  0  0  0  0  0
    0.6155   -0.9964    0.0000 C   0  0  0  0  0  0  0  0  0  0  0  0
   -5.2122    0.0752    0.0000 C   0  0  0  0  0  0  0  0  0  0  0  0
    4.2380    0.3322    0.0000 C   0  0  0  0  0  0  0  0  0  0  0  0
   -5.6993    0.7307    0.0000 C   0  0  0  0  0  0  0  0  0  0  0  0
    3.5117   -0.0752    0.0000 C   0  0  0  0  0  0  0  0  0  0  0  0
    4.2380    1.1470    0.0000 C   0  0  0  0  0  0  0  0  0  0  0  0
   -0.0399   -1.5013    0.0000 C   0  0  0  0  0  0  0  0  0  0  0  0
    1.2975   -1.5013    0.0000 C   0  0  0  0  0  0  0  0  0  0  0  0
    0.2436   -2.2718    0.0000 C   0  0  0  0  0  0  0  0  0  0  0  0
    1.0672   -2.2718    0.0000 C   0  0  0  0  0  0  0  0  0  0  0  0
    5.6993    0.3322    0.0000 C   0  0  0  0  0  0  0  0  0  0  0  0
  1  2  2  0  0  0  0
  1  3  2  0  0  0  0
  1 12  1  0  0  0  0
  1 17  1  0  0  0  0
  4 27  1  0  0  0  0
  4 35  1  0  0  0  0
  5 11  2  0  0  0  0
  5 13  1  0  0  0  0
  6 13  1  0  0  0  0
  6 15  1  0  0  0  0
  7 13  2  0  0  0  0
  7 19  1  0  0  0  0
  8 11  1  0  0  0  0
  8 25  1  0  0  0  0
  9 16  1  0  0  0  0
  9 28  1  0  0  0  0
 10 11  1  0  0  0  0
 10 18  1  0  0  0  0
 10 19  2  0  0  0  0
 12 23  2  0  0  0  0
 12 24  1  0  0  0  0
 14 16  2  0  0  0  0
 14 20  1  0  0  0  0
 14 26  1  0  0  0  0
 15 20  2  0  0  0  0
 15 21  1  0  0  0  0
 16 22  1  0  0  0  0
 17 18  2  0  0  0  0
 21 22  2  0  0  0  0
 23 29  1  0  0  0  0
 24 30  2  0  0  0  0
 25 31  1  0  0  0  0
 25 32  1  0  0  0  0
 26 28  2  0  0  0  0
 27 29  2  0  0  0  0
 27 30  1  0  0  0  0
 31 33  1  0  0  0  0
 32 34  1  0  0  0  0
 33 34  1  0  0  0  0
M  END
> <PUBCHEM_COMPOUND_ID_TYPE>
0

> <PUBCHEM_TOTAL_CHARGE>
0

> <PUBCHEM_SUBSTANCE_ID>
310942543

> <PUBCHEM_SUBSTANCE_VERSION>
1

> <PUBCHEM_EXT_DATASOURCE_NAME>
4488

> <PUBCHEM_EXT_DATASOURCE_REGID>
SCHEMBL16120583

> <PUBCHEM_SUBSTANCE_COMMENT>
InChI=1S/C26H27N5O3S/c1-34-22-7-9-23(10-8-22)35(32,33)15-13-19-17-28-26(31-25(19)29-20-4-2-3-5-20)30-21-6-11-24-18(16-21)12-14-27-24/h6-17,20,27H,2-5H2,1H3,(H2,28,29,30,31)/b15-13+
InChIKey=JXTHBRKJJKFIBH-FYWRMAATSA-N

> <PUBCHEM_SUBSTANCE_SYNONYM>
SCHEMBL16120583

> <PUBCHEM_XREF_EXT_ID>
SCHEMBL16120583

> <PUBCHEM_EXT_DATASOURCE_URL>
https://www.surechembl.org/

> <PUBCHEM_EXT_SUBSTANCE_URL>
https://www.surechembl.org/chemical/SCHEMBL16120583

> <PUBCHEM_CID_ASSOCIATIONS>
117609101  1

> <PUBCHEM_COORDINATE_TYPE>
1
3

$$$$
