310932752
  -OEChem-07211613022D

 22 24  0     1  0  0  0  0  0999 V2000
    0.9851    0.0000    0.0000 F   0  0  0  0  0  0  0  0  0  0  0  0
    0.0000   -1.0169    0.0000 F   0  0  0  0  0  0  0  0  0  0  0  0
    1.5571   -0.5720    0.0000 F   0  0  0  0  0  0  0  0  0  0  0  0
    4.7031   -6.0695    0.0000 O   0  0  0  0  0  0  0  0  0  0  0  0
    2.5104   -4.2264    0.0000 N   0  0  0  0  0  0  0  0  0  0  0  0
    1.6842   -5.2751    0.0000 N   0  0  0  0  0  0  0  0  0  0  0  0
    3.3049   -4.6395    0.0000 N   0  0  0  0  0  0  0  0  0  0  0  0
    3.8769   -5.2433    0.0000 C   0  0  0  0  0  0  0  0  0  0  0  0
    3.1460   -5.5293    0.0000 C   0  0  3  0  0  0  0  0  0  0  0  0
    2.4787   -5.0526    0.0000 C   0  0  0  0  0  0  0  0  0  0  0  0
    1.7160   -3.9404    0.0000 C   0  0  0  0  0  0  0  0  0  0  0  0
    1.4935   -3.1460    0.0000 C   0  0  0  0  0  0  0  0  0  0  0  0
    3.8769   -6.0695    0.0000 C   0  0  0  0  0  0  0  0  0  0  0  0
    4.7031   -5.2433    0.0000 C   0  0  0  0  0  0  0  0  0  0  0  0
    1.2076   -4.6077    0.0000 C   0  0  0  0  0  0  0  0  0  0  0  0
    1.0169   -1.5889    0.0000 C   0  0  0  0  0  0  0  0  0  0  0  0
    0.7626   -0.7944    0.0000 C   0  0  0  0  0  0  0  0  0  0  0  0
    0.6991   -2.9553    0.0000 C   0  0  0  0  0  0  0  0  0  0  0  0
    2.0338   -2.5740    0.0000 C   0  0  0  0  0  0  0  0  0  0  0  0
    0.4449   -2.1927    0.0000 C   0  0  0  0  0  0  0  0  0  0  0  0
    1.8113   -1.7795    0.0000 C   0  0  0  0  0  0  0  0  0  0  0  0
    3.0188   -6.3555    0.0000 C   0  0  0  0  0  0  0  0  0  0  0  0
  1 17  1  0  0  0  0
  2 17  1  0  0  0  0
  3 17  1  0  0  0  0
  4 13  1  0  0  0  0
  4 14  1  0  0  0  0
  5 10  2  0  0  0  0
  5 11  1  0  0  0  0
  6 10  1  0  0  0  0
  6 15  1  0  0  0  0
  7  8  1  0  0  0  0
  8  9  1  0  0  0  0
  8 13  1  0  0  0  0
  8 14  1  0  0  0  0
  9 10  1  0  0  0  0
  9 22  1  1  0  0  0
 11 12  1  0  0  0  0
 11 15  2  0  0  0  0
 12 18  2  0  0  0  0
 12 19  1  0  0  0  0
 16 17  1  0  0  0  0
 16 20  2  0  0  0  0
 16 21  1  0  0  0  0
 18 20  1  0  0  0  0
 19 21  2  0  0  0  0
M  END
> <PUBCHEM_COMPOUND_ID_TYPE>
0

> <PUBCHEM_TOTAL_CHARGE>
0

> <PUBCHEM_SUBSTANCE_ID>
310932752

> <PUBCHEM_SUBSTANCE_VERSION>
1

> <PUBCHEM_EXT_DATASOURCE_NAME>
4488

> <PUBCHEM_EXT_DATASOURCE_REGID>
SCHEMBL16110138

> <PUBCHEM_SUBSTANCE_COMMENT>
InChI=1S/C15H16F3N3O/c1-9(14(19)7-22-8-14)13-20-6-12(21-13)10-2-4-11(5-3-10)15(16,17)18/h2-6,9H,7-8,19H2,1H3,(H,20,21)/t9-/m0/s1
InChIKey=WEAFAWYVJKPGDN-VIFPVBQESA-N

> <PUBCHEM_SUBSTANCE_SYNONYM>
SCHEMBL16110138

> <PUBCHEM_XREF_EXT_ID>
SCHEMBL16110138

> <PUBCHEM_EXT_DATASOURCE_URL>
https://www.surechembl.org/

> <PUBCHEM_EXT_SUBSTANCE_URL>
https://www.surechembl.org/chemical/SCHEMBL16110138

> <PUBCHEM_CID_ASSOCIATIONS>
71522248  1

> <PUBCHEM_COORDINATE_TYPE>
1
3

> <PUBCHEM_BONDANNOTATIONS>
9  22  5

$$$$
