310936159
  -OEChem-07211613022D

 28 31  0     1  0  0  0  0  0999 V2000
    0.5314    0.5279    0.0000 O   0  0  0  0  0  0  0  0  0  0  0  0
    2.0519    1.1217    0.0000 O   0  0  0  0  0  0  0  0  0  0  0  0
    6.2102   -2.7604    0.0000 O   0  0  0  0  0  0  0  0  0  0  0  0
    2.6378   -3.9979    0.0000 O   0  0  0  0  0  0  0  0  0  0  0  0
    1.9233   -2.7604    0.0000 N   0  0  0  0  0  0  0  0  0  0  0  0
    1.9233   -0.2854    0.0000 C   0  0  3  0  0  0  0  0  0  0  0  0
    1.1387   -0.0305    0.0000 C   0  0  3  0  0  0  0  0  0  0  0  0
    1.9233   -1.1104    0.0000 C   0  0  3  0  0  0  0  0  0  0  0  0
    2.6378   -1.5229    0.0000 C   0  0  3  0  0  0  0  0  0  0  0  0
    1.3018    0.7782    0.0000 C   0  0  0  0  0  0  0  0  0  0  0  0
    0.6538   -0.6979    0.0000 C   0  0  0  0  0  0  0  0  0  0  0  0
    2.6378    0.1271    0.0000 C   0  0  0  0  0  0  0  0  0  0  0  0
    1.1387   -1.3654    0.0000 C   0  0  0  0  0  0  0  0  0  0  0  0
    3.3523   -1.1104    0.0000 C   0  0  3  0  0  0  0  0  0  0  0  0
    3.3523   -0.2854    0.0000 C   0  0  0  0  0  0  0  0  0  0  0  0
    1.8371    0.5350    0.0000 C   0  0  0  0  0  0  0  0  0  0  0  0
    4.0668   -1.5229    0.0000 C   0  0  3  0  0  0  0  0  0  0  0  0
    0.7434    1.3855    0.0000 C   0  0  0  0  0  0  0  0  0  0  0  0
    2.6378   -2.3479    0.0000 C   0  0  0  0  0  0  0  0  0  0  0  0
    4.0668   -2.3479    0.0000 C   0  0  3  0  0  0  0  0  0  0  0  0
    4.7812   -1.1104    0.0000 C   0  0  0  0  0  0  0  0  0  0  0  0
    1.9571    1.9412    0.0000 C   0  0  0  0  0  0  0  0  0  0  0  0
    1.1484    2.1043    0.0000 C   0  0  0  0  0  0  0  0  0  0  0  0
    4.7812   -2.7604    0.0000 C   0  0  0  0  0  0  0  0  0  0  0  0
    5.4957   -1.5229    0.0000 C   0  0  0  0  0  0  0  0  0  0  0  0
    5.4957   -2.3479    0.0000 C   0  0  3  0  0  0  0  0  0  0  0  0
    3.3523   -2.7604    0.0000 C   0  0  0  0  0  0  0  0  0  0  0  0
    3.3523   -3.5854    0.0000 C   0  0  0  0  0  0  0  0  0  0  0  0
  7  1  1  6  0  0  0
  2 10  1  0  0  0  0
  2 22  1  0  0  0  0
 26  3  1  6  0  0  0
  4 28  1  0  0  0  0
  5 19  1  0  0  0  0
  6  7  1  0  0  0  0
  6  8  1  0  0  0  0
  6 12  1  0  0  0  0
  6 16  1  6  0  0  0
  7 10  1  0  0  0  0
  7 11  1  0  0  0  0
  8  9  1  0  0  0  0
  8 13  1  6  0  0  0
  9 14  1  0  0  0  0
  9 19  1  1  0  0  0
 10 18  2  0  0  0  0
 11 13  1  0  0  0  0
 12 15  1  0  0  0  0
 14 15  1  1  0  0  0
 14 17  1  0  0  0  0
 17 20  1  0  0  0  0
 17 21  1  6  0  0  0
 18 23  1  0  0  0  0
 20 24  1  0  0  0  0
 20 27  1  6  0  0  0
 21 25  1  0  0  0  0
 22 23  2  0  0  0  0
 24 26  1  0  0  0  0
 25 26  1  0  0  0  0
 27 28  1  0  0  0  0
M  END
> <PUBCHEM_COMPOUND_ID_TYPE>
0

> <PUBCHEM_TOTAL_CHARGE>
0

> <PUBCHEM_SUBSTANCE_ID>
310936159

> <PUBCHEM_SUBSTANCE_VERSION>
1

> <PUBCHEM_EXT_DATASOURCE_NAME>
4488

> <PUBCHEM_EXT_DATASOURCE_REGID>
SCHEMBL16113769

> <PUBCHEM_SUBSTANCE_COMMENT>
InChI=1S/C23H37NO4/c1-22-9-6-18(17-5-4-16(26)13-15(17)8-11-25)19(14-24)20(22)7-10-23(22,27)21-3-2-12-28-21/h2-3,12,15-20,25-27H,4-11,13-14,24H2,1H3/t15-,16-,17+,18-,19+,20-,22-,23+/m0/s1
InChIKey=GLOSWDRQBFKWCK-IYSWJXECSA-N

> <PUBCHEM_SUBSTANCE_SYNONYM>
SCHEMBL16113769

> <PUBCHEM_XREF_EXT_ID>
SCHEMBL16113769

> <PUBCHEM_EXT_DATASOURCE_URL>
https://www.surechembl.org/

> <PUBCHEM_EXT_SUBSTANCE_URL>
https://www.surechembl.org/chemical/SCHEMBL16113769

> <PUBCHEM_CID_ASSOCIATIONS>
117604120  1

> <PUBCHEM_COORDINATE_TYPE>
1
3

> <PUBCHEM_BONDANNOTATIONS>
7  1  6
14  15  5
17  21  6
20  27  6
26  3  6
6  16  6
8  13  6
9  19  5

$$$$
