310932680
  -OEChem-07211613022D

 31 35  0     0  0  0  0  0  0999 V2000
    4.5372   -2.3373    0.0000 F   0  0  0  0  0  0  0  0  0  0  0  0
    4.5097   -0.9075    0.0000 F   0  0  0  0  0  0  0  0  0  0  0  0
    3.7398   -2.3373    0.0000 F   0  0  0  0  0  0  0  0  0  0  0  0
    0.0000   -4.3998    0.0000 O   0  0  0  0  0  0  0  0  0  0  0  0
    5.5272   -3.2998    0.0000 O   0  0  0  0  0  0  0  0  0  0  0  0
    4.2073   -2.6399    0.0000 N   0  0  0  0  0  0  0  0  0  0  0  0
    4.2073   -3.9598    0.0000 N   0  0  0  0  0  0  0  0  0  0  0  0
    1.2374   -0.0275    0.0000 N   0  0  0  0  0  0  0  0  0  0  0  0
    0.4125   -5.1422    0.0000 N   0  0  0  0  0  0  0  0  0  0  0  0
    2.6949   -2.4749    0.0000 C   0  0  0  0  0  0  0  0  0  0  0  0
    2.6949   -1.6499    0.0000 C   0  0  0  0  0  0  0  0  0  0  0  0
    3.4098   -2.8598    0.0000 C   0  0  0  0  0  0  0  0  0  0  0  0
    3.4098   -1.2099    0.0000 C   0  0  0  0  0  0  0  0  0  0  0  0
    1.9799   -1.2649    0.0000 C   0  0  0  0  0  0  0  0  0  0  0  0
    3.4098   -3.7123    0.0000 C   0  0  0  0  0  0  0  0  0  0  0  0
    2.0074   -3.7123    0.0000 C   0  0  0  0  0  0  0  0  0  0  0  0
    2.0074   -2.8598    0.0000 C   0  0  0  0  0  0  0  0  0  0  0  0
    1.2924   -4.1248    0.0000 C   0  0  0  0  0  0  0  0  0  0  0  0
    2.6949   -4.1248    0.0000 C   0  0  0  0  0  0  0  0  0  0  0  0
    1.9799   -0.4400    0.0000 C   0  0  0  0  0  0  0  0  0  0  0  0
    4.1248   -1.6224    0.0000 C   0  0  0  0  0  0  0  0  0  0  0  0
    3.3823   -0.3850    0.0000 C   0  0  0  0  0  0  0  0  0  0  0  0
    4.7022   -3.2998    0.0000 C   0  0  0  0  0  0  0  0  0  0  0  0
    2.6674    0.0000    0.0000 C   0  0  0  0  0  0  0  0  0  0  0  0
    0.5499   -3.8222    0.0000 C   0  0  0  0  0  0  0  0  0  0  0  0
    1.2099   -4.9497    0.0000 C   0  0  0  0  0  0  0  0  0  0  0  0
    1.2924   -1.6774    0.0000 C   0  0  0  0  0  0  0  0  0  0  0  0
    0.5499   -1.2649    0.0000 C   0  0  0  0  0  0  0  0  0  0  0  0
    0.5225   -0.4400    0.0000 C   0  0  0  0  0  0  0  0  0  0  0  0
    0.3575   -2.9973    0.0000 C   0  0  0  0  0  0  0  0  0  0  0  0
    1.8149   -5.4997    0.0000 C   0  0  0  0  0  0  0  0  0  0  0  0
  1 21  1  0  0  0  0
  2 21  1  0  0  0  0
  3 21  1  0  0  0  0
  4  9  1  0  0  0  0
  4 25  1  0  0  0  0
  5 23  2  0  0  0  0
  6 12  1  0  0  0  0
  6 23  1  0  0  0  0
  7 15  1  0  0  0  0
  7 23  1  0  0  0  0
  8 20  2  0  0  0  0
  8 29  1  0  0  0  0
  9 26  2  0  0  0  0
 10 11  1  0  0  0  0
 10 12  1  0  0  0  0
 10 17  2  0  0  0  0
 11 13  2  0  0  0  0
 11 14  1  0  0  0  0
 12 15  2  0  0  0  0
 13 21  1  0  0  0  0
 13 22  1  0  0  0  0
 14 20  1  0  0  0  0
 14 27  2  0  0  0  0
 15 19  1  0  0  0  0
 16 17  1  0  0  0  0
 16 18  1  0  0  0  0
 16 19  2  0  0  0  0
 18 25  2  0  0  0  0
 18 26  1  0  0  0  0
 20 24  1  0  0  0  0
 22 24  2  0  0  0  0
 25 30  1  0  0  0  0
 26 31  1  0  0  0  0
 27 28  1  0  0  0  0
 28 29  2  0  0  0  0
M  END
> <PUBCHEM_COMPOUND_ID_TYPE>
0

> <PUBCHEM_TOTAL_CHARGE>
0

> <PUBCHEM_SUBSTANCE_ID>
310932680

> <PUBCHEM_SUBSTANCE_VERSION>
1

> <PUBCHEM_EXT_DATASOURCE_NAME>
4488

> <PUBCHEM_EXT_DATASOURCE_REGID>
SCHEMBL16110060

> <PUBCHEM_SUBSTANCE_COMMENT>
InChI=1S/C22H15F3N4O2/c1-10-18(11(2)31-29-10)12-8-14(20-17(9-12)27-21(30)28-20)19-13-4-3-7-26-16(13)6-5-15(19)22(23,24)25/h3-9H,1-2H3,(H2,27,28,30)
InChIKey=RHUOKHUEZSAQMU-UHFFFAOYSA-N

> <PUBCHEM_SUBSTANCE_SYNONYM>
SCHEMBL16110060

> <PUBCHEM_XREF_EXT_ID>
SCHEMBL16110060

> <PUBCHEM_EXT_DATASOURCE_URL>
https://www.surechembl.org/

> <PUBCHEM_EXT_SUBSTANCE_URL>
https://www.surechembl.org/chemical/SCHEMBL16110060

> <PUBCHEM_CID_ASSOCIATIONS>
117601193  1

> <PUBCHEM_COORDINATE_TYPE>
1
3

$$$$
