310943901
  -OEChem-07211613022D

 34 38  0     1  0  0  0  0  0999 V2000
    2.0145    1.5317    0.0000 F   0  0  0  0  0  0  0  0  0  0  0  0
    2.7248    1.2764    0.0000 O   0  0  0  0  0  0  0  0  0  0  0  0
    5.2998   -0.2109    0.0000 O   0  0  0  0  0  0  0  0  0  0  0  0
    5.7437    1.1765    0.0000 O   0  0  0  0  0  0  0  0  0  0  0  0
   -0.8158   -0.9767    0.0000 O   0  0  0  0  0  0  0  0  0  0  0  0
    3.1577   -0.1110    0.0000 N   0  0  0  0  0  0  0  0  0  0  0  0
    0.1831    0.3330    0.0000 N   0  0  3  0  0  0  0  0  0  0  0  0
   -3.2798   -0.6548    0.0000 N   0  0  0  0  0  0  0  0  0  0  0  0
   -4.4230    0.1998    0.0000 N   0  0  0  0  0  0  0  0  0  0  0  0
   -4.9890   -0.3996    0.0000 N   0  0  0  0  0  0  0  0  0  0  0  0
   -5.7437   -0.0444    0.0000 N   0  0  0  0  0  0  0  0  0  0  0  0
   -5.6328    0.7659    0.0000 N   0  0  0  0  0  0  0  0  0  0  0  0
    1.8369    0.1221    0.0000 C   0  0  3  0  0  0  0  0  0  0  0  0
    2.5694    0.4662    0.0000 C   0  0  0  0  0  0  0  0  0  0  0  0
    1.5039    0.8879    0.0000 C   0  0  3  0  0  0  0  0  0  0  0  0
    1.9479   -0.6771    0.0000 C   0  0  0  0  0  0  0  0  0  0  0  0
    3.9790    0.0000    0.0000 C   0  0  0  0  0  0  0  0  0  0  0  0
    1.3263   -0.5217    0.0000 C   0  0  0  0  0  0  0  0  0  0  0  0
    2.7581   -0.8325    0.0000 C   0  0  0  0  0  0  0  0  0  0  0  0
    0.6937    0.9878    0.0000 C   0  0  0  0  0  0  0  0  0  0  0  0
    4.3453    0.7437    0.0000 C   0  0  0  0  0  0  0  0  0  0  0  0
    0.5050   -0.4107    0.0000 C   0  0  0  0  0  0  0  0  0  0  0  0
    4.5673   -0.5771    0.0000 C   0  0  0  0  0  0  0  0  0  0  0  0
    5.1555    0.5771    0.0000 C   0  0  0  0  0  0  0  0  0  0  0  0
   -0.6382    0.4439    0.0000 C   0  0  0  0  0  0  0  0  0  0  0  0
   -1.1377   -0.2109    0.0000 C   0  0  3  0  0  0  0  0  0  0  0  0
   -1.9590   -0.0888    0.0000 C   0  0  0  0  0  0  0  0  0  0  0  0
   -2.4696   -0.7659    0.0000 C   0  0  0  0  0  0  0  0  0  0  0  0
    3.9568    1.4762    0.0000 C   0  0  0  0  0  0  0  0  0  0  0  0
   -3.6017    0.0999    0.0000 C   0  0  0  0  0  0  0  0  0  0  0  0
   -2.2697    0.6438    0.0000 C   0  0  0  0  0  0  0  0  0  0  0  0
   -3.1022    0.7547    0.0000 C   0  0  0  0  0  0  0  0  0  0  0  0
   -4.8225    0.9212    0.0000 C   0  0  0  0  0  0  0  0  0  0  0  0
   -2.1255   -1.5317    0.0000 C   0  0  0  0  0  0  0  0  0  0  0  0
  1 15  1  0  0  0  0
  2 14  2  0  0  0  0
  3 23  1  0  0  0  0
  3 24  1  0  0  0  0
  4 24  2  0  0  0  0
 26  5  1  6  0  0  0
  6 14  1  0  0  0  0
  6 17  1  0  0  0  0
  6 19  1  0  0  0  0
  7 20  1  0  0  0  0
  7 22  1  0  0  0  0
  7 25  1  0  0  0  0
  8 28  2  0  0  0  0
  8 30  1  0  0  0  0
  9 10  1  0  0  0  0
  9 30  1  0  0  0  0
  9 33  1  0  0  0  0
 10 11  2  0  0  0  0
 11 12  1  0  0  0  0
 12 33  2  0  0  0  0
 13 14  1  0  0  0  0
 13 15  1  0  0  0  0
 13 16  1  0  0  0  0
 13 18  1  0  0  0  0
 15 20  1  0  0  0  0
 16 19  1  0  0  0  0
 17 21  2  0  0  0  0
 17 23  1  0  0  0  0
 18 22  1  0  0  0  0
 21 24  1  0  0  0  0
 21 29  1  0  0  0  0
 25 26  1  0  0  0  0
 26 27  1  0  0  0  0
 27 28  1  0  0  0  0
 27 31  2  0  0  0  0
 28 34  1  0  0  0  0
 30 32  2  0  0  0  0
 31 32  1  0  0  0  0
M  END
> <PUBCHEM_COMPOUND_ID_TYPE>
0

> <PUBCHEM_TOTAL_CHARGE>
0

> <PUBCHEM_SUBSTANCE_ID>
310943901

> <PUBCHEM_SUBSTANCE_VERSION>
1

> <PUBCHEM_EXT_DATASOURCE_NAME>
4488

> <PUBCHEM_EXT_DATASOURCE_REGID>
SCHEMBL16121972

> <PUBCHEM_SUBSTANCE_COMMENT>
InChI=1S/C22H26FN7O4/c1-13-16(11-34-20(13)32)29-8-6-22(21(29)33)5-7-28(10-18(22)23)9-17(31)15-3-4-19(25-14(15)2)30-12-24-26-27-30/h3-4,12,17-18,31H,5-11H2,1-2H3/t17-,18?,22?/m0/s1
InChIKey=WHEYKWIQPCOSIW-LYGNXSNRSA-N

> <PUBCHEM_SUBSTANCE_SYNONYM>
SCHEMBL16121972

> <PUBCHEM_XREF_EXT_ID>
SCHEMBL16121972

> <PUBCHEM_EXT_DATASOURCE_URL>
https://www.surechembl.org/

> <PUBCHEM_EXT_SUBSTANCE_URL>
https://www.surechembl.org/chemical/SCHEMBL16121972

> <PUBCHEM_CID_ASSOCIATIONS>
117610219  1

> <PUBCHEM_COORDINATE_TYPE>
1
3

> <PUBCHEM_BONDANNOTATIONS>
26  5  6

$$$$
