310939983
  -OEChem-07211613022D

 27 29  0     0  0  0  0  0  0999 V2000
   -2.5009    1.0312    0.0000 Cl  0  0  0  0  0  0  0  0  0  0  0  0
   -4.6443   -0.2063    0.0000 Cl  0  0  0  0  0  0  0  0  0  0  0  0
    0.3570    1.8562    0.0000 O   0  0  0  0  0  0  0  0  0  0  0  0
    0.3570   -0.6187    0.0000 O   0  0  0  0  0  0  0  0  0  0  0  0
    3.2148   -1.4438    0.0000 O   0  0  0  0  0  0  0  0  0  0  0  0
    1.0714    0.6187    0.0000 N   0  0  0  0  0  0  0  0  0  0  0  0
    2.5004   -0.2063    0.0000 N   0  0  0  0  0  0  0  0  0  0  0  0
   -0.3575    0.6187    0.0000 C   0  0  0  0  0  0  0  0  0  0  0  0
   -1.7865   -0.2063    0.0000 C   0  0  0  0  0  0  0  0  0  0  0  0
    0.3570    1.0312    0.0000 C   0  0  0  0  0  0  0  0  0  0  0  0
   -0.3575   -0.2063    0.0000 C   0  0  0  0  0  0  0  0  0  0  0  0
   -1.7865    0.6187    0.0000 C   0  0  0  0  0  0  0  0  0  0  0  0
   -1.0720    1.0312    0.0000 C   0  0  0  0  0  0  0  0  0  0  0  0
   -1.0720   -0.6188    0.0000 C   0  0  0  0  0  0  0  0  0  0  0  0
   -2.5009   -0.6188    0.0000 C   0  0  0  0  0  0  0  0  0  0  0  0
    1.0714   -0.2063    0.0000 C   0  0  0  0  0  0  0  0  0  0  0  0
    1.7859    1.0312    0.0000 C   0  0  0  0  0  0  0  0  0  0  0  0
   -3.2154   -0.2063    0.0000 C   0  0  0  0  0  0  0  0  0  0  0  0
   -2.5009   -1.4437    0.0000 C   0  0  0  0  0  0  0  0  0  0  0  0
    1.7859   -0.6188    0.0000 C   0  0  0  0  0  0  0  0  0  0  0  0
    2.5004    0.6187    0.0000 C   0  0  0  0  0  0  0  0  0  0  0  0
   -3.9299   -0.6188    0.0000 C   0  0  0  0  0  0  0  0  0  0  0  0
    3.2148   -0.6188    0.0000 C   0  0  0  0  0  0  0  0  0  0  0  0
   -3.2154   -1.8562    0.0000 C   0  0  0  0  0  0  0  0  0  0  0  0
   -3.9299   -1.4437    0.0000 C   0  0  0  0  0  0  0  0  0  0  0  0
    3.9299   -0.2063    0.0000 C   0  0  0  0  0  0  0  0  0  0  0  0
    4.6443   -0.6188    0.0000 C   0  0  0  0  0  0  0  0  0  0  0  0
  1 12  1  0  0  0  0
  2 22  1  0  0  0  0
  3 10  2  0  0  0  0
  4 11  1  0  0  0  0
  5 23  2  0  0  0  0
  6 10  1  0  0  0  0
  6 16  1  0  0  0  0
  6 17  1  0  0  0  0
  7 20  1  0  0  0  0
  7 21  1  0  0  0  0
  7 23  1  0  0  0  0
  8 10  1  0  0  0  0
  8 11  1  0  0  0  0
  8 13  2  0  0  0  0
  9 12  2  0  0  0  0
  9 14  1  0  0  0  0
  9 15  1  0  0  0  0
 11 14  2  0  0  0  0
 12 13  1  0  0  0  0
 15 18  2  0  0  0  0
 15 19  1  0  0  0  0
 16 20  1  0  0  0  0
 17 21  1  0  0  0  0
 18 22  1  0  0  0  0
 19 24  2  0  0  0  0
 22 25  2  0  0  0  0
 23 26  1  0  0  0  0
 24 25  1  0  0  0  0
 26 27  2  0  0  0  0
M  END
> <PUBCHEM_COMPOUND_ID_TYPE>
0

> <PUBCHEM_TOTAL_CHARGE>
0

> <PUBCHEM_SUBSTANCE_ID>
310939983

> <PUBCHEM_SUBSTANCE_VERSION>
1

> <PUBCHEM_EXT_DATASOURCE_NAME>
4488

> <PUBCHEM_EXT_DATASOURCE_REGID>
SCHEMBL16117913

> <PUBCHEM_SUBSTANCE_COMMENT>
InChI=1S/C20H18Cl2N2O3/c1-2-19(26)23-6-8-24(9-7-23)20(27)16-11-17(22)15(12-18(16)25)13-4-3-5-14(21)10-13/h2-5,10-12,25H,1,6-9H2
InChIKey=MIMGTDQXWDSUSB-UHFFFAOYSA-N

> <PUBCHEM_SUBSTANCE_SYNONYM>
SCHEMBL16117913

> <PUBCHEM_XREF_EXT_ID>
SCHEMBL16117913

> <PUBCHEM_EXT_DATASOURCE_URL>
https://www.surechembl.org/

> <PUBCHEM_EXT_SUBSTANCE_URL>
https://www.surechembl.org/chemical/SCHEMBL16117913

> <PUBCHEM_CID_ASSOCIATIONS>
117607149  1

> <PUBCHEM_COORDINATE_TYPE>
1
3

$$$$
