310932211
  -OEChem-07211613022D

 30 34  0     0  0  0  0  0  0999 V2000
   10.8536   -1.3386    0.0000 Cl  0  0  0  0  0  0  0  0  0  0  0  0
    5.9695   -0.3256    0.0000 O   0  0  0  0  0  0  0  0  0  0  0  0
    7.1996   -1.0492    0.0000 N   0  0  0  0  0  0  0  0  0  0  0  0
    2.6410   -2.7134    0.0000 N   0  0  0  0  0  0  0  0  0  0  0  0
    3.4008   -3.0390    0.0000 N   0  0  0  0  0  0  0  0  0  0  0  0
    5.9695   -1.7366    0.0000 N   0  0  0  0  0  0  0  0  0  0  0  0
    4.7394   -1.0130    0.0000 N   0  0  0  0  0  0  0  0  0  0  0  0
    0.9406   -0.2895    0.0000 N   0  0  0  0  0  0  0  0  0  0  0  0
    7.5975   -1.7366    0.0000 C   0  0  0  0  0  0  0  0  0  0  0  0
    8.4296   -1.6642    0.0000 C   0  0  0  0  0  0  0  0  0  0  0  0
    7.9231   -2.4963    0.0000 C   0  0  0  0  0  0  0  0  0  0  0  0
    7.0910   -2.4240    0.0000 C   0  0  0  0  0  0  0  0  0  0  0  0
    3.5455   -1.7004    0.0000 C   0  0  0  0  0  0  0  0  0  0  0  0
    2.7496   -1.9175    0.0000 C   0  0  0  0  0  0  0  0  0  0  0  0
    3.9435   -2.4240    0.0000 C   0  0  0  0  0  0  0  0  0  0  0  0
    6.4036   -1.0492    0.0000 C   0  0  0  0  0  0  0  0  0  0  0  0
    5.1735   -1.7366    0.0000 C   0  0  0  0  0  0  0  0  0  0  0  0
    2.1345   -1.3748    0.0000 C   0  0  0  0  0  0  0  0  0  0  0  0
    4.7756   -2.4240    0.0000 C   0  0  0  0  0  0  0  0  0  0  0  0
    3.9435   -1.0130    0.0000 C   0  0  0  0  0  0  0  0  0  0  0  0
    8.7552   -0.9044    0.0000 C   0  0  0  0  0  0  0  0  0  0  0  0
    8.9000   -2.2792    0.0000 C   0  0  0  0  0  0  0  0  0  0  0  0
    1.3748   -1.6280    0.0000 C   0  0  0  0  0  0  0  0  0  0  0  0
    9.5512   -0.7960    0.0000 C   0  0  0  0  0  0  0  0  0  0  0  0
    9.7320   -2.2069    0.0000 C   0  0  0  0  0  0  0  0  0  0  0  0
    2.3154   -0.5789    0.0000 C   0  0  0  0  0  0  0  0  0  0  0  0
   10.0577   -1.4472    0.0000 C   0  0  0  0  0  0  0  0  0  0  0  0
    0.7598   -1.0492    0.0000 C   0  0  0  0  0  0  0  0  0  0  0  0
    1.7366    0.0000    0.0000 C   0  0  0  0  0  0  0  0  0  0  0  0
    0.0000   -1.3024    0.0000 C   0  0  0  0  0  0  0  0  0  0  0  0
  1 27  1  0  0  0  0
  2 16  2  0  0  0  0
  3  9  1  0  0  0  0
  3 16  1  0  0  0  0
  4  5  1  0  0  0  0
  4 14  2  0  0  0  0
  5 15  1  0  0  0  0
  6 16  1  0  0  0  0
  6 17  1  0  0  0  0
  7 17  2  0  0  0  0
  7 20  1  0  0  0  0
  8 28  1  0  0  0  0
  8 29  2  0  0  0  0
  9 10  1  0  0  0  0
  9 11  1  0  0  0  0
  9 12  1  0  0  0  0
 10 21  2  0  0  0  0
 10 22  1  0  0  0  0
 11 12  1  0  0  0  0
 13 14  1  0  0  0  0
 13 15  1  0  0  0  0
 13 20  2  0  0  0  0
 14 18  1  0  0  0  0
 15 19  2  0  0  0  0
 17 19  1  0  0  0  0
 18 23  1  0  0  0  0
 18 26  2  0  0  0  0
 21 24  1  0  0  0  0
 22 25  2  0  0  0  0
 23 28  2  0  0  0  0
 24 27  2  0  0  0  0
 25 27  1  0  0  0  0
 26 29  1  0  0  0  0
 28 30  1  0  0  0  0
M  END
> <PUBCHEM_COMPOUND_ID_TYPE>
0

> <PUBCHEM_TOTAL_CHARGE>
0

> <PUBCHEM_SUBSTANCE_ID>
310932211

> <PUBCHEM_SUBSTANCE_VERSION>
1

> <PUBCHEM_EXT_DATASOURCE_NAME>
4488

> <PUBCHEM_EXT_DATASOURCE_REGID>
SCHEMBL16109568

> <PUBCHEM_SUBSTANCE_COMMENT>
InChI=1S/C22H19ClN6O/c1-13-10-14(6-9-24-13)20-17-12-25-19(11-18(17)28-29-20)26-21(30)27-22(7-8-22)15-2-4-16(23)5-3-15/h2-6,9-12H,7-8H2,1H3,(H,28,29)(H2,25,26,27,30)
InChIKey=CNBHQEJEMHPPLE-UHFFFAOYSA-N

> <PUBCHEM_SUBSTANCE_SYNONYM>
SCHEMBL16109568

> <PUBCHEM_XREF_EXT_ID>
SCHEMBL16109568

> <PUBCHEM_EXT_DATASOURCE_URL>
https://www.surechembl.org/

> <PUBCHEM_EXT_SUBSTANCE_URL>
https://www.surechembl.org/chemical/SCHEMBL16109568

> <PUBCHEM_CID_ASSOCIATIONS>
71554945  1

> <PUBCHEM_COORDINATE_TYPE>
1
3

$$$$
