310946135
  -OEChem-07211613022D

 14 14  0     0  0  0  0  0  0999 V2000
   -3.0689    2.2658    0.0000 O   0  0  0  0  0  0  0  0  0  0  0  0
    4.0287    2.1933    0.0000 O   0  0  0  0  0  0  0  0  0  0  0  0
   -2.4015    1.7808    0.0000 C   0  0  0  0  0  0  0  0  0  0  0  0
   -2.6564    0.9962    0.0000 C   0  0  0  0  0  0  0  0  0  0  0  0
   -1.6870    2.1933    0.0000 C   0  0  0  0  0  0  0  0  0  0  0  0
   -3.7364    1.7808    0.0000 C   0  0  0  0  0  0  0  0  0  0  0  0
   -3.4814    0.9962    0.0000 C   0  0  0  0  0  0  0  0  0  0  0  0
   -0.9726    1.7808    0.0000 C   0  0  0  0  0  0  0  0  0  0  0  0
   -0.2581    2.1933    0.0000 C   0  0  0  0  0  0  0  0  0  0  0  0
    0.4564    1.7808    0.0000 C   0  0  0  0  0  0  0  0  0  0  0  0
    1.1709    2.1933    0.0000 C   0  0  0  0  0  0  0  0  0  0  0  0
    1.8853    1.7808    0.0000 C   0  0  0  0  0  0  0  0  0  0  0  0
    2.5998    2.1933    0.0000 C   0  0  0  0  0  0  0  0  0  0  0  0
    3.3143    1.7808    0.0000 C   0  0  0  0  0  0  0  0  0  0  0  0
  1  3  1  0  0  0  0
  1  6  1  0  0  0  0
  2 14  1  0  0  0  0
  3  4  2  0  0  0  0
  3  5  1  0  0  0  0
  4  7  1  0  0  0  0
  5  8  1  0  0  0  0
  6  7  2  0  0  0  0
  8  9  1  0  0  0  0
  9 10  1  0  0  0  0
 10 11  1  0  0  0  0
 11 12  1  0  0  0  0
 12 13  1  0  0  0  0
 13 14  1  0  0  0  0
M  END
> <PUBCHEM_COMPOUND_ID_TYPE>
0

> <PUBCHEM_TOTAL_CHARGE>
0

> <PUBCHEM_SUBSTANCE_ID>
310946135

> <PUBCHEM_SUBSTANCE_VERSION>
1

> <PUBCHEM_EXT_DATASOURCE_NAME>
4488

> <PUBCHEM_EXT_DATASOURCE_REGID>
SCHEMBL16124244

> <PUBCHEM_SUBSTANCE_COMMENT>
InChI=1S/C12H20O2/c13-10-6-4-2-1-3-5-8-12-9-7-11-14-12/h7,9,11,13H,1-6,8,10H2
InChIKey=BCDXGTMSEAWHMM-UHFFFAOYSA-N

> <PUBCHEM_SUBSTANCE_SYNONYM>
SCHEMBL16124244

> <PUBCHEM_XREF_EXT_ID>
SCHEMBL16124244

> <PUBCHEM_EXT_DATASOURCE_URL>
https://www.surechembl.org/

> <PUBCHEM_EXT_SUBSTANCE_URL>
https://www.surechembl.org/chemical/SCHEMBL16124244

> <PUBCHEM_CID_ASSOCIATIONS>
10943420  1

> <PUBCHEM_COORDINATE_TYPE>
1
3

$$$$
