310937727
  -OEChem-07211613022D

 28 31  0     0  0  0  0  0  0999 V2000
    1.3115    3.6846    0.0000 F   0  0  0  0  0  0  0  0  0  0  0  0
    2.4639    3.5021    0.0000 F   0  0  0  0  0  0  0  0  0  0  0  0
    2.5935   -0.3785    0.0000 F   0  0  0  0  0  0  0  0  0  0  0  0
    4.2231   -0.6367    0.0000 F   0  0  0  0  0  0  0  0  0  0  0  0
    3.2792   -1.3224    0.0000 F   0  0  0  0  0  0  0  0  0  0  0  0
    1.3065   -2.7130    0.0000 O   0  0  0  0  0  0  0  0  0  0  0  0
   -0.0917   -4.3340    0.0000 O   0  0  0  0  0  0  0  0  0  0  0  0
    2.8962    0.8264    0.0000 O   0  0  0  0  0  0  0  0  0  0  0  0
    1.6139    1.8648    0.0000 N   0  0  0  0  0  0  0  0  0  0  0  0
    0.3626   -1.7691    0.0000 N   0  0  0  0  0  0  0  0  0  0  0  0
    0.5856   -0.0605    0.0000 N   0  0  0  0  0  0  0  0  0  0  0  0
    1.6811   -1.9779    0.0000 N   0  0  0  0  0  0  0  0  0  0  0  0
   -0.0917   -3.1673    0.0000 C   0  0  0  0  0  0  0  0  0  0  0  0
    1.4849    1.0500    0.0000 C   0  0  0  0  0  0  0  0  0  0  0  0
    0.4917   -2.5839    0.0000 C   0  0  0  0  0  0  0  0  0  0  0  0
    1.7964    3.0172    0.0000 C   0  0  0  0  0  0  0  0  0  0  0  0
    1.0977   -1.3946    0.0000 C   0  0  0  0  0  0  0  0  0  0  0  0
    2.1260    0.5308    0.0000 C   0  0  0  0  0  0  0  0  0  0  0  0
    1.2267   -0.5797    0.0000 C   0  0  0  0  0  0  0  0  0  0  0  0
    1.1290    2.5323    0.0000 C   0  0  0  0  0  0  0  0  0  0  0  0
    2.2814    2.3497    0.0000 C   0  0  0  0  0  0  0  0  0  0  0  0
    1.9970   -0.2841    0.0000 C   0  0  0  0  0  0  0  0  0  0  0  0
    0.7147    0.7543    0.0000 C   0  0  0  0  0  0  0  0  0  0  0  0
    0.4917   -3.7507    0.0000 C   0  0  0  0  0  0  0  0  0  0  0  0
   -0.6751   -3.7507    0.0000 C   0  0  0  0  0  0  0  0  0  0  0  0
   -0.6751   -2.5839    0.0000 C   0  0  0  0  0  0  0  0  0  0  0  0
    3.5374    0.3073    0.0000 C   0  0  0  0  0  0  0  0  0  0  0  0
    3.4083   -0.5076    0.0000 C   0  0  0  0  0  0  0  0  0  0  0  0
  1 16  1  0  0  0  0
  2 16  1  0  0  0  0
  3 28  1  0  0  0  0
  4 28  1  0  0  0  0
  5 28  1  0  0  0  0
  6 12  1  0  0  0  0
  6 15  1  0  0  0  0
  7 24  1  0  0  0  0
  7 25  1  0  0  0  0
  8 18  1  0  0  0  0
  8 27  1  0  0  0  0
  9 14  1  0  0  0  0
  9 20  1  0  0  0  0
  9 21  1  0  0  0  0
 10 15  2  0  0  0  0
 10 17  1  0  0  0  0
 11 19  2  0  0  0  0
 11 23  1  0  0  0  0
 12 17  2  0  0  0  0
 13 15  1  0  0  0  0
 13 24  1  0  0  0  0
 13 25  1  0  0  0  0
 13 26  1  0  0  0  0
 14 18  1  0  0  0  0
 14 23  2  0  0  0  0
 16 20  1  0  0  0  0
 16 21  1  0  0  0  0
 17 19  1  0  0  0  0
 18 22  2  0  0  0  0
 19 22  1  0  0  0  0
 27 28  1  0  0  0  0
M  END
> <PUBCHEM_COMPOUND_ID_TYPE>
0

> <PUBCHEM_TOTAL_CHARGE>
0

> <PUBCHEM_SUBSTANCE_ID>
310937727

> <PUBCHEM_SUBSTANCE_VERSION>
1

> <PUBCHEM_EXT_DATASOURCE_NAME>
4488

> <PUBCHEM_EXT_DATASOURCE_REGID>
SCHEMBL16115526

> <PUBCHEM_SUBSTANCE_COMMENT>
InChI=1S/C16H15F5N4O3/c1-14(6-26-7-14)13-23-12(24-28-13)9-2-11(27-8-16(19,20)21)10(3-22-9)25-4-15(17,18)5-25/h2-3H,4-8H2,1H3
InChIKey=NBFYLLZYWUQAFK-UHFFFAOYSA-N

> <PUBCHEM_SUBSTANCE_SYNONYM>
SCHEMBL16115526

> <PUBCHEM_XREF_EXT_ID>
SCHEMBL16115526

> <PUBCHEM_EXT_DATASOURCE_URL>
https://www.surechembl.org/

> <PUBCHEM_EXT_SUBSTANCE_URL>
https://www.surechembl.org/chemical/SCHEMBL16115526

> <PUBCHEM_CID_ASSOCIATIONS>
86275961  1

> <PUBCHEM_COORDINATE_TYPE>
1
3

$$$$
