310944480
  -OEChem-07211613022D

 32 36  0     1  0  0  0  0  0999 V2000
    2.6000    1.0378    0.0000 O   0  0  0  0  0  0  0  0  0  0  0  0
    5.4263    0.1877    0.0000 O   0  0  0  0  0  0  0  0  0  0  0  0
    5.5036    1.6561    0.0000 O   0  0  0  0  0  0  0  0  0  0  0  0
   -0.7894   -1.0046    0.0000 O   0  0  0  0  0  0  0  0  0  0  0  0
    3.3176   -0.2429    0.0000 N   0  0  0  0  0  0  0  0  0  0  0  0
    0.3920    0.1546    0.0000 N   0  0  0  0  0  0  0  0  0  0  0  0
   -4.1677    0.6845    0.0000 N   0  0  0  0  0  0  0  0  0  0  0  0
   -3.1741   -0.3422    0.0000 N   0  0  0  0  0  0  0  0  0  0  0  0
   -4.4548    1.4573    0.0000 N   0  0  0  0  0  0  0  0  0  0  0  0
   -5.2828    1.4242    0.0000 N   0  0  0  0  0  0  0  0  0  0  0  0
   -5.5036    0.6293    0.0000 N   0  0  0  0  0  0  0  0  0  0  0  0
    1.9818   -0.2981    0.0000 C   0  0  0  0  0  0  0  0  0  0  0  0
    2.6331    0.2097    0.0000 C   0  0  0  0  0  0  0  0  0  0  0  0
    3.0968   -1.0268    0.0000 C   0  0  3  0  0  0  0  0  0  0  0  0
    2.2909   -1.0599    0.0000 C   0  0  0  0  0  0  0  0  0  0  0  0
    4.0904    0.0662    0.0000 C   0  0  0  0  0  0  0  0  0  0  0  0
    1.3966   -0.8612    0.0000 C   0  0  0  0  0  0  0  0  0  0  0  0
    1.7830    0.5079    0.0000 C   0  0  0  0  0  0  0  0  0  0  0  0
    0.6017   -0.6404    0.0000 C   0  0  0  0  0  0  0  0  0  0  0  0
    0.9770    0.7287    0.0000 C   0  0  0  0  0  0  0  0  0  0  0  0
    4.2671    0.8612    0.0000 C   0  0  0  0  0  0  0  0  0  0  0  0
    4.8191   -0.3533    0.0000 C   0  0  0  0  0  0  0  0  0  0  0  0
    3.6047   -1.6561    0.0000 C   0  0  0  0  0  0  0  0  0  0  0  0
    5.0731    0.9274    0.0000 C   0  0  0  0  0  0  0  0  0  0  0  0
   -0.4029    0.3754    0.0000 C   0  0  0  0  0  0  0  0  0  0  0  0
   -0.9992   -0.1988    0.0000 C   0  0  3  0  0  0  0  0  0  0  0  0
   -1.7941    0.0442    0.0000 C   0  0  0  0  0  0  0  0  0  0  0  0
   -3.3728    0.4637    0.0000 C   0  0  0  0  0  0  0  0  0  0  0  0
   -2.3792   -0.5521    0.0000 C   0  0  0  0  0  0  0  0  0  0  0  0
   -1.9927    0.8280    0.0000 C   0  0  0  0  0  0  0  0  0  0  0  0
   -2.7876    1.0488    0.0000 C   0  0  0  0  0  0  0  0  0  0  0  0
   -4.8081    0.1877    0.0000 C   0  0  0  0  0  0  0  0  0  0  0  0
  1 13  2  0  0  0  0
  2 22  1  0  0  0  0
  2 24  1  0  0  0  0
  3 24  2  0  0  0  0
 26  4  1  1  0  0  0
  5 13  1  0  0  0  0
  5 14  1  0  0  0  0
  5 16  1  0  0  0  0
  6 19  1  0  0  0  0
  6 20  1  0  0  0  0
  6 25  1  0  0  0  0
  7  9  1  0  0  0  0
  7 28  1  0  0  0  0
  7 32  1  0  0  0  0
  8 28  1  0  0  0  0
  8 29  2  0  0  0  0
  9 10  2  0  0  0  0
 10 11  1  0  0  0  0
 11 32  2  0  0  0  0
 12 13  1  0  0  0  0
 12 15  1  0  0  0  0
 12 17  1  0  0  0  0
 12 18  1  0  0  0  0
 14 15  1  0  0  0  0
 14 23  1  6  0  0  0
 16 21  2  0  0  0  0
 16 22  1  0  0  0  0
 17 19  1  0  0  0  0
 18 20  1  0  0  0  0
 21 24  1  0  0  0  0
 25 26  1  0  0  0  0
 26 27  1  0  0  0  0
 27 29  1  0  0  0  0
 27 30  2  0  0  0  0
 28 31  2  0  0  0  0
 30 31  1  0  0  0  0
M  END
> <PUBCHEM_COMPOUND_ID_TYPE>
0

> <PUBCHEM_TOTAL_CHARGE>
0

> <PUBCHEM_SUBSTANCE_ID>
310944480

> <PUBCHEM_SUBSTANCE_VERSION>
1

> <PUBCHEM_EXT_DATASOURCE_NAME>
4488

> <PUBCHEM_EXT_DATASOURCE_REGID>
SCHEMBL16122555

> <PUBCHEM_SUBSTANCE_COMMENT>
InChI=1S/C21H25N7O4/c1-14-9-21(20(31)28(14)16-8-19(30)32-12-16)4-6-26(7-5-21)11-17(29)15-2-3-18(22-10-15)27-13-23-24-25-27/h2-3,8,10,13-14,17,29H,4-7,9,11-12H2,1H3/t14-,17-/m1/s1
InChIKey=QHFGCRSFXLOXTP-RHSMWYFYSA-N

> <PUBCHEM_SUBSTANCE_SYNONYM>
SCHEMBL16122555

> <PUBCHEM_XREF_EXT_ID>
SCHEMBL16122555

> <PUBCHEM_EXT_DATASOURCE_URL>
https://www.surechembl.org/

> <PUBCHEM_EXT_SUBSTANCE_URL>
https://www.surechembl.org/chemical/SCHEMBL16122555

> <PUBCHEM_CID_ASSOCIATIONS>
86271914  1

> <PUBCHEM_COORDINATE_TYPE>
1
3

> <PUBCHEM_BONDANNOTATIONS>
14  23  6
26  4  5

$$$$
