310933070
  -OEChem-07211613022D

 35 38  0     0  0  0  0  0  0999 V2000
   12.0197   -5.6893    0.0000 F   0  0  0  0  0  0  0  0  0  0  0  0
   11.2985   -4.4472    0.0000 F   0  0  0  0  0  0  0  0  0  0  0  0
   11.2985   -6.0900    0.0000 F   0  0  0  0  0  0  0  0  0  0  0  0
    4.0065   -2.7244    0.0000 O   0  0  0  0  0  0  0  0  0  0  0  0
    8.4538   -2.8046    0.0000 O   0  0  0  0  0  0  0  0  0  0  0  0
    4.8880   -1.6026    0.0000 N   0  0  0  0  0  0  0  0  0  0  0  0
    4.8079   -0.7613    0.0000 N   0  0  0  0  0  0  0  0  0  0  0  0
    6.3303   -1.6026    0.0000 N   0  0  0  0  0  0  0  0  0  0  0  0
    7.7727   -4.0466    0.0000 N   0  0  0  0  0  0  0  0  0  0  0  0
    9.8961   -5.2886    0.0000 N   0  0  0  0  0  0  0  0  0  0  0  0
    0.0000   -2.4440    0.0000 N   0  0  0  0  0  0  0  0  0  0  0  0
    3.6059   -1.3222    0.0000 C   0  0  0  0  0  0  0  0  0  0  0  0
    4.1668   -1.9232    0.0000 C   0  0  0  0  0  0  0  0  0  0  0  0
    2.7645   -1.4023    0.0000 C   0  0  0  0  0  0  0  0  0  0  0  0
    5.6091   -2.0033    0.0000 C   0  0  0  0  0  0  0  0  0  0  0  0
    4.0065   -0.6010    0.0000 C   0  0  0  0  0  0  0  0  0  0  0  0
    2.2837   -0.7613    0.0000 C   0  0  0  0  0  0  0  0  0  0  0  0
    2.4440   -2.1635    0.0000 C   0  0  0  0  0  0  0  0  0  0  0  0
    5.6091   -2.8046    0.0000 C   0  0  0  0  0  0  0  0  0  0  0  0
    7.0515   -2.8046    0.0000 C   0  0  0  0  0  0  0  0  0  0  0  0
    1.4824   -0.8414    0.0000 C   0  0  0  0  0  0  0  0  0  0  0  0
    7.0515   -2.0033    0.0000 C   0  0  0  0  0  0  0  0  0  0  0  0
    6.3303   -3.2053    0.0000 C   0  0  0  0  0  0  0  0  0  0  0  0
    1.1619   -1.6026    0.0000 C   0  0  0  0  0  0  0  0  0  0  0  0
    7.7727   -3.2053    0.0000 C   0  0  0  0  0  0  0  0  0  0  0  0
    1.6427   -2.2437    0.0000 C   0  0  0  0  0  0  0  0  0  0  0  0
    8.4538   -4.4472    0.0000 C   0  0  0  0  0  0  0  0  0  0  0  0
    2.6043    0.0000    0.0000 C   0  0  0  0  0  0  0  0  0  0  0  0
    0.3205   -1.6827    0.0000 C   0  0  0  0  0  0  0  0  0  0  0  0
    8.4538   -5.2886    0.0000 C   0  0  0  0  0  0  0  0  0  0  0  0
    9.1750   -4.0466    0.0000 C   0  0  0  0  0  0  0  0  0  0  0  0
    9.1750   -5.6893    0.0000 C   0  0  0  0  0  0  0  0  0  0  0  0
    9.8961   -4.4472    0.0000 C   0  0  0  0  0  0  0  0  0  0  0  0
   10.5773   -5.6893    0.0000 C   0  0  0  0  0  0  0  0  0  0  0  0
   11.2985   -5.2486    0.0000 C   0  0  0  0  0  0  0  0  0  0  0  0
  1 35  1  0  0  0  0
  2 35  1  0  0  0  0
  3 35  1  0  0  0  0
  4 13  1  0  0  0  0
  5 25  2  0  0  0  0
  6  7  1  0  0  0  0
  6 13  1  0  0  0  0
  6 15  1  0  0  0  0
  7 16  2  0  0  0  0
  8 15  2  0  0  0  0
  8 22  1  0  0  0  0
  9 25  1  0  0  0  0
  9 27  1  0  0  0  0
 10 32  1  0  0  0  0
 10 33  1  0  0  0  0
 10 34  1  0  0  0  0
 11 29  3  0  0  0  0
 12 13  2  0  0  0  0
 12 14  1  0  0  0  0
 12 16  1  0  0  0  0
 14 17  1  0  0  0  0
 14 18  2  0  0  0  0
 15 19  1  0  0  0  0
 17 21  2  0  0  0  0
 17 28  1  0  0  0  0
 18 26  1  0  0  0  0
 19 23  2  0  0  0  0
 20 22  2  0  0  0  0
 20 23  1  0  0  0  0
 20 25  1  0  0  0  0
 21 24  1  0  0  0  0
 24 26  2  0  0  0  0
 24 29  1  0  0  0  0
 27 30  1  0  0  0  0
 27 31  1  0  0  0  0
 30 32  1  0  0  0  0
 31 33  1  0  0  0  0
 34 35  1  0  0  0  0
M  END
> <PUBCHEM_COMPOUND_ID_TYPE>
0

> <PUBCHEM_TOTAL_CHARGE>
0

> <PUBCHEM_SUBSTANCE_ID>
310933070

> <PUBCHEM_SUBSTANCE_VERSION>
1

> <PUBCHEM_EXT_DATASOURCE_NAME>
4488

> <PUBCHEM_EXT_DATASOURCE_REGID>
SCHEMBL16110472

> <PUBCHEM_SUBSTANCE_COMMENT>
InChI=1S/C24H23F3N6O2/c1-15-10-16(11-28)2-4-19(15)20-13-30-33(23(20)35)21-5-3-17(12-29-21)22(34)31-18-6-8-32(9-7-18)14-24(25,26)27/h2-5,10,12-13,18,35H,6-9,14H2,1H3,(H,31,34)
InChIKey=QIQAADRMNHQAHQ-UHFFFAOYSA-N

> <PUBCHEM_SUBSTANCE_SYNONYM>
SCHEMBL16110472

> <PUBCHEM_XREF_EXT_ID>
SCHEMBL16110472

> <PUBCHEM_EXT_DATASOURCE_URL>
https://www.surechembl.org/

> <PUBCHEM_EXT_SUBSTANCE_URL>
https://www.surechembl.org/chemical/SCHEMBL16110472

> <PUBCHEM_CID_ASSOCIATIONS>
117601530  1

> <PUBCHEM_COORDINATE_TYPE>
1
3

$$$$
