310938290
  -OEChem-07211613022D

 15 17  0     0  0  0  0  0  0999 V2000
    1.4564   -1.0887    0.0000 N   0  3  0  0  0  0  0  0  0  0  0  0
    2.2067   -2.1626    0.0000 C   0  0  0  0  0  0  0  0  0  0  0  0
    2.7217   -1.5006    0.0000 C   0  0  0  0  0  0  0  0  0  0  0  0
    1.4564   -1.9272    0.0000 C   0  0  0  0  0  0  0  0  0  0  0  0
    2.2067   -0.8533    0.0000 C   0  0  0  0  0  0  0  0  0  0  0  0
    3.5161   -1.4123    0.0000 C   0  0  0  0  0  0  0  0  0  0  0  0
    0.7061   -2.3538    0.0000 C   0  0  0  0  0  0  0  0  0  0  0  0
    2.5745   -0.1030    0.0000 C   0  0  0  0  0  0  0  0  0  0  0  0
    0.7061   -0.6620    0.0000 C   0  0  0  0  0  0  0  0  0  0  0  0
    2.4421   -2.9423    0.0000 C   0  0  0  0  0  0  0  0  0  0  0  0
    1.6182   -2.7511    0.0000 C   0  0  0  0  0  0  0  0  0  0  0  0
    3.8544   -0.6620    0.0000 C   0  0  0  0  0  0  0  0  0  0  0  0
    0.0000   -1.9272    0.0000 C   0  0  0  0  0  0  0  0  0  0  0  0
    3.3836    0.0000    0.0000 C   0  0  0  0  0  0  0  0  0  0  0  0
    0.0000   -1.0887    0.0000 C   0  0  0  0  0  0  0  0  0  0  0  0
  1  4  2  0  0  0  0
  1  5  1  0  0  0  0
  1  9  1  0  0  0  0
  2  3  1  0  0  0  0
  2  4  1  0  0  0  0
  2 10  1  0  0  0  0
  2 11  1  0  0  0  0
  3  5  2  0  0  0  0
  3  6  1  0  0  0  0
  4  7  1  0  0  0  0
  5  8  1  0  0  0  0
  6 12  2  0  0  0  0
  7 13  1  0  0  0  0
  8 14  2  0  0  0  0
  9 15  1  0  0  0  0
 12 14  1  0  0  0  0
 13 15  1  0  0  0  0
M  CHG  1   1   1
M  END
> <PUBCHEM_COMPOUND_ID_TYPE>
0

> <PUBCHEM_TOTAL_CHARGE>
1

> <PUBCHEM_SUBSTANCE_ID>
310938290

> <PUBCHEM_SUBSTANCE_VERSION>
1

> <PUBCHEM_EXT_DATASOURCE_NAME>
4488

> <PUBCHEM_EXT_DATASOURCE_REGID>
SCHEMBL16116160

> <PUBCHEM_SUBSTANCE_COMMENT>
InChI=1S/C14H18N/c1-14(2)11-7-3-4-8-12(11)15-10-6-5-9-13(14)15/h3-4,7-8H,5-6,9-10H2,1-2H3/q+1
InChIKey=OJWUCFBOSWBHEX-UHFFFAOYSA-N

> <PUBCHEM_SUBSTANCE_SYNONYM>
SCHEMBL16116160

> <PUBCHEM_XREF_EXT_ID>
SCHEMBL16116160

> <PUBCHEM_EXT_DATASOURCE_URL>
https://www.surechembl.org/

> <PUBCHEM_EXT_SUBSTANCE_URL>
https://www.surechembl.org/chemical/SCHEMBL16116160

> <PUBCHEM_CID_ASSOCIATIONS>
12545832  1

> <PUBCHEM_COORDINATE_TYPE>
1
3

$$$$
