310949655
  -OEChem-07211613022D

 22 23  0     0  0  0  0  0  0999 V2000
   -1.4155   -1.6422    0.0000 O   0  0  0  0  0  0  0  0  0  0  0  0
   -1.3880    1.6422    0.0000 O   0  0  0  0  0  0  0  0  0  0  0  0
   -0.7421    0.4192    0.0000 O   0  0  0  0  0  0  0  0  0  0  0  0
    3.5455   -0.4467    0.0000 O   0  0  0  0  0  0  0  0  0  0  0  0
    2.8309   -1.6285    0.0000 O   0  0  0  0  0  0  0  0  0  0  0  0
   -0.7146   -0.4054    0.0000 N   0  0  0  0  0  0  0  0  0  0  0  0
   -2.1301   -0.3092    0.0000 C   0  0  0  0  0  0  0  0  0  0  0  0
   -2.1163    0.5291    0.0000 C   0  0  0  0  0  0  0  0  0  0  0  0
   -1.4155   -0.7215    0.0000 C   0  0  0  0  0  0  0  0  0  0  0  0
   -1.4292    0.8726    0.0000 C   0  0  0  0  0  0  0  0  0  0  0  0
   -2.8446   -0.7352    0.0000 C   0  0  0  0  0  0  0  0  0  0  0  0
    0.7009   -0.3229    0.0000 C   0  0  0  0  0  0  0  0  0  0  0  0
   -2.8446    0.9413    0.0000 C   0  0  0  0  0  0  0  0  0  0  0  0
    2.1163   -0.3092    0.0000 C   0  0  0  0  0  0  0  0  0  0  0  0
   -0.0137   -0.7352    0.0000 C   0  0  0  0  0  0  0  0  0  0  0  0
    1.4155   -0.7352    0.0000 C   0  0  0  0  0  0  0  0  0  0  0  0
   -3.5455   -0.3092    0.0000 C   0  0  0  0  0  0  0  0  0  0  0  0
   -3.5455    0.5291    0.0000 C   0  0  0  0  0  0  0  0  0  0  0  0
    0.7146    0.5291    0.0000 C   0  0  0  0  0  0  0  0  0  0  0  0
    2.1301    0.5291    0.0000 C   0  0  0  0  0  0  0  0  0  0  0  0
    2.8446   -0.8039    0.0000 C   0  0  0  0  0  0  0  0  0  0  0  0
    1.4155    0.9413    0.0000 C   0  0  0  0  0  0  0  0  0  0  0  0
  1  9  2  0  0  0  0
  2 10  2  0  0  0  0
  3 10  1  0  0  0  0
  4 21  2  0  0  0  0
  5 21  1  0  0  0  0
  6  9  1  0  0  0  0
  6 15  1  0  0  0  0
  7  8  1  0  0  0  0
  7  9  1  0  0  0  0
  7 11  2  0  0  0  0
  8 10  1  0  0  0  0
  8 13  2  0  0  0  0
 11 17  1  0  0  0  0
 12 15  1  0  0  0  0
 12 16  2  0  0  0  0
 12 19  1  0  0  0  0
 13 18  1  0  0  0  0
 14 16  1  0  0  0  0
 14 20  2  0  0  0  0
 14 21  1  0  0  0  0
 17 18  2  0  0  0  0
 19 22  2  0  0  0  0
 20 22  1  0  0  0  0
M  END
> <PUBCHEM_COMPOUND_ID_TYPE>
0

> <PUBCHEM_TOTAL_CHARGE>
0

> <PUBCHEM_SUBSTANCE_ID>
310949655

> <PUBCHEM_SUBSTANCE_VERSION>
1

> <PUBCHEM_EXT_DATASOURCE_NAME>
4488

> <PUBCHEM_EXT_DATASOURCE_REGID>
SCHEMBL16127853

> <PUBCHEM_SUBSTANCE_COMMENT>
InChI=1S/C16H13NO5/c18-14(12-6-1-2-7-13(12)16(21)22)17-9-10-4-3-5-11(8-10)15(19)20/h1-8H,9H2,(H,17,18)(H,19,20)(H,21,22)
InChIKey=CCBYPAVRPKREHX-UHFFFAOYSA-N

> <PUBCHEM_SUBSTANCE_SYNONYM>
SCHEMBL16127853

> <PUBCHEM_XREF_EXT_ID>
SCHEMBL16127853

> <PUBCHEM_EXT_DATASOURCE_URL>
https://www.surechembl.org/

> <PUBCHEM_EXT_SUBSTANCE_URL>
https://www.surechembl.org/chemical/SCHEMBL16127853

> <PUBCHEM_CID_ASSOCIATIONS>
117615032  1

> <PUBCHEM_COORDINATE_TYPE>
1
3

$$$$
