310941169
  -OEChem-07211613022D

 42 45  0     1  0  0  0  0  0999 V2000
    5.2659    0.9869    0.0000 O   0  0  0  0  0  0  0  0  0  0  0  0
    4.1170   -0.9869    0.0000 O   0  0  0  0  0  0  0  0  0  0  0  0
    1.7455    0.9722    0.0000 O   0  0  0  0  0  0  0  0  0  0  0  0
   -0.4198   -1.1195    0.0000 O   0  0  0  0  0  0  0  0  0  0  0  0
   -2.5851    0.9722    0.0000 O   0  0  0  0  0  0  0  0  0  0  0  0
   -5.1480   -1.8412    0.0000 O   0  0  0  0  0  0  0  0  0  0  0  0
    3.9107   -2.7839    0.0000 O   0  0  0  0  0  0  0  0  0  0  0  0
    2.4672   -0.2799    0.0000 N   0  0  0  0  0  0  0  0  0  0  0  0
    0.3020    0.1326    0.0000 N   0  0  0  0  0  0  0  0  0  0  0  0
   -1.8486   -0.2799    0.0000 N   0  0  0  0  0  0  0  0  0  0  0  0
    4.8387    0.2946    0.0000 C   0  0  3  0  0  0  0  0  0  0  0  0
    4.1170   -0.1178    0.0000 C   0  0  0  0  0  0  0  0  0  0  0  0
    4.4557    0.9869    0.0000 C   0  0  0  0  0  0  0  0  0  0  0  0
    3.4099    0.2799    0.0000 C   0  0  3  0  0  0  0  0  0  0  0  0
    5.5605   -0.1178    0.0000 C   0  0  0  0  0  0  0  0  0  0  0  0
    3.4099    1.3698    0.0000 C   0  0  0  0  0  0  0  0  0  0  0  0
    1.7308    0.1326    0.0000 C   0  0  0  0  0  0  0  0  0  0  0  0
    1.0532   -0.2504    0.0000 C   0  0  3  0  0  0  0  0  0  0  0  0
    2.6734    1.7970    0.0000 C   0  0  0  0  0  0  0  0  0  0  0  0
    1.0237   -1.1195    0.0000 C   0  0  0  0  0  0  0  0  0  0  0  0
   -0.4050   -0.2357    0.0000 C   0  0  0  0  0  0  0  0  0  0  0  0
    1.7602   -1.5024    0.0000 C   0  0  0  0  0  0  0  0  0  0  0  0
    2.5998    2.6072    0.0000 C   0  0  0  0  0  0  0  0  0  0  0  0
    1.9222    1.4582    0.0000 C   0  0  0  0  0  0  0  0  0  0  0  0
   -3.2921   -0.2504    0.0000 C   0  0  0  0  0  0  0  0  0  0  0  0
   -1.1415    0.1473    0.0000 C   0  0  3  0  0  0  0  0  0  0  0  0
   -2.5704    0.1473    0.0000 C   0  0  0  0  0  0  0  0  0  0  0  0
   -4.7503   -1.0900    0.0000 C   0  0  0  0  0  0  0  0  0  0  0  0
   -4.0139    0.1326    0.0000 C   0  0  0  0  0  0  0  0  0  0  0  0
   -3.2921   -1.0900    0.0000 C   0  0  0  0  0  0  0  0  0  0  0  0
    1.7897    2.7839    0.0000 C   0  0  0  0  0  0  0  0  0  0  0  0
    1.3919    2.0621    0.0000 C   0  0  0  0  0  0  0  0  0  0  0  0
   -4.7209   -0.2652    0.0000 C   0  0  0  0  0  0  0  0  0  0  0  0
   -4.0139   -1.5024    0.0000 C   0  0  0  0  0  0  0  0  0  0  0  0
    1.7602   -2.3420    0.0000 C   0  0  0  0  0  0  0  0  0  0  0  0
    2.4672   -1.1195    0.0000 C   0  0  0  0  0  0  0  0  0  0  0  0
    3.1743   -2.3420    0.0000 C   0  0  0  0  0  0  0  0  0  0  0  0
    2.4672   -2.7544    0.0000 C   0  0  0  0  0  0  0  0  0  0  0  0
    3.1890   -1.5172    0.0000 C   0  0  0  0  0  0  0  0  0  0  0  0
   -1.1268    0.9722    0.0000 C   0  0  0  0  0  0  0  0  0  0  0  0
   -5.5605   -1.1048    0.0000 C   0  0  0  0  0  0  0  0  0  0  0  0
    4.6472   -2.3273    0.0000 C   0  0  0  0  0  0  0  0  0  0  0  0
  1 11  1  0  0  0  0
  1 13  1  0  0  0  0
  2 12  2  0  0  0  0
  3 17  2  0  0  0  0
  4 21  2  0  0  0  0
  5 27  2  0  0  0  0
 28  6  1  6  0  0  0
  7 37  1  0  0  0  0
  7 42  1  0  0  0  0
 14  8  1  1  0  0  0
  8 17  1  0  0  0  0
 18  9  1  6  0  0  0
  9 21  1  0  0  0  0
 10 26  1  0  0  0  0
 10 27  1  0  0  0  0
 11 12  1  1  0  0  0
 11 13  1  0  0  0  0
 11 15  1  6  0  0  0
 12 14  1  0  0  0  0
 14 16  1  0  0  0  0
 16 19  1  0  0  0  0
 17 18  1  0  0  0  0
 18 20  1  0  0  0  0
 19 23  2  0  0  0  0
 19 24  1  0  0  0  0
 20 22  1  0  0  0  0
 21 26  1  0  0  0  0
 22 35  2  0  0  0  0
 22 36  1  0  0  0  0
 23 31  1  0  0  0  0
 24 32  1  0  0  0  0
 25 27  1  1  0  0  0
 25 29  1  0  0  0  0
 25 30  1  0  0  0  0
 26 40  1  6  0  0  0
 28 33  1  0  0  0  0
 28 34  1  0  0  0  0
 28 41  1  1  0  0  0
 29 33  1  0  0  0  0
 30 34  1  0  0  0  0
 31 32  1  0  0  0  0
 35 38  1  0  0  0  0
 36 39  2  0  0  0  0
 37 38  2  0  0  0  0
 37 39  1  0  0  0  0
M  END
> <PUBCHEM_COMPOUND_ID_TYPE>
0

> <PUBCHEM_TOTAL_CHARGE>
0

> <PUBCHEM_SUBSTANCE_ID>
310941169

> <PUBCHEM_SUBSTANCE_VERSION>
1

> <PUBCHEM_EXT_DATASOURCE_NAME>
4488

> <PUBCHEM_EXT_DATASOURCE_REGID>
SCHEMBL16119129

> <PUBCHEM_SUBSTANCE_COMMENT>
InChI=1S/C32H45N3O7/c1-20(33-29(38)23-13-15-31(2,40)16-14-23)28(37)35-26(18-22-9-11-24(41-4)12-10-22)30(39)34-25(17-21-7-5-6-8-21)27(36)32(3)19-42-32/h7,9-12,20,23,25-26,40H,5-6,8,13-19H2,1-4H3,(H,33,38)(H,34,39)(H,35,37)/t20-,23-,25+,26+,31-,32-/m1/s1
InChIKey=DQKJGJYVIQBVBH-QLNHLMKGSA-N

> <PUBCHEM_SUBSTANCE_SYNONYM>
SCHEMBL16119129

> <PUBCHEM_XREF_EXT_ID>
SCHEMBL16119129

> <PUBCHEM_EXT_DATASOURCE_URL>
https://www.surechembl.org/

> <PUBCHEM_EXT_SUBSTANCE_URL>
https://www.surechembl.org/chemical/SCHEMBL16119129

> <PUBCHEM_CID_ASSOCIATIONS>
117607995  1

> <PUBCHEM_COORDINATE_TYPE>
1
3

> <PUBCHEM_BONDANNOTATIONS>
11  12  5
11  15  6
25  27  5
26  40  6
28  41  5
28  6  6
14  8  5
18  9  6

$$$$
