310942580
  -OEChem-07211613022D

 42 47  0     1  0  0  0  0  0999 V2000
    4.8315    2.1374    0.0000 Cl  0  0  0  0  0  0  0  0  0  0  0  0
    1.8061    1.0686    0.0000 O   0  0  0  0  0  0  0  0  0  0  0  0
    2.3179   -1.0837    0.0000 O   0  0  0  0  0  0  0  0  0  0  0  0
    1.0686   -0.9934    0.0000 O   0  0  0  0  0  0  0  0  0  0  0  0
    3.2210    0.7225    0.0000 N   0  0  0  0  0  0  0  0  0  0  0  0
    3.9134   -0.6472    0.0000 N   0  0  0  0  0  0  0  0  0  0  0  0
   -0.3160    0.6170    0.0000 N   0  0  3  0  0  0  0  0  0  0  0  0
    5.3433   -0.5569    0.0000 N   0  0  0  0  0  0  0  0  0  0  0  0
    5.9604    0.7676    0.0000 N   0  0  0  0  0  0  0  0  0  0  0  0
   -2.6490   -0.9031    0.0000 N   0  0  0  0  0  0  0  0  0  0  0  0
   -3.3264   -2.0921    0.0000 N   0  0  0  0  0  0  0  0  0  0  0  0
    2.4233    0.5268    0.0000 C   0  0  3  0  0  0  0  0  0  0  0  0
    3.8532    0.2258    0.0000 C   0  0  0  0  0  0  0  0  0  0  0  0
    4.5305    0.6774    0.0000 C   0  0  0  0  0  0  0  0  0  0  0  0
    2.1072   -0.2408    0.0000 C   0  0  3  0  0  0  0  0  0  0  0  0
    4.3198    1.4750    0.0000 C   0  0  0  0  0  0  0  0  0  0  0  0
    1.0988    0.6623    0.0000 C   0  0  3  0  0  0  0  0  0  0  0  0
    3.5220    1.5352    0.0000 C   0  0  0  0  0  0  0  0  0  0  0  0
    1.2644   -0.1505    0.0000 C   0  0  3  0  0  0  0  0  0  0  0  0
    5.2830    0.2860    0.0000 C   0  0  0  0  0  0  0  0  0  0  0  0
    0.3612    1.0686    0.0000 C   0  0  0  0  0  0  0  0  0  0  0  0
   -0.5268   -0.1956    0.0000 C   0  0  0  0  0  0  0  0  0  0  0  0
    4.6660   -0.9934    0.0000 C   0  0  0  0  0  0  0  0  0  0  0  0
   -0.8128   -1.3095    0.0000 C   0  0  0  0  0  0  0  0  0  0  0  0
   -1.2191   -0.6321    0.0000 C   0  0  0  0  0  0  0  0  0  0  0  0
   -0.1355   -0.9031    0.0000 C   0  0  0  0  0  0  0  0  0  0  0  0
   -1.0536    1.0536    0.0000 C   0  0  0  0  0  0  0  0  0  0  0  0
   -3.4769   -0.7225    0.0000 C   0  0  0  0  0  0  0  0  0  0  0  0
   -3.8833   -1.4600    0.0000 C   0  0  0  0  0  0  0  0  0  0  0  0
   -2.5889   -1.7309    0.0000 C   0  0  0  0  0  0  0  0  0  0  0  0
   -4.7413    0.0000    0.0000 C   0  0  0  0  0  0  0  0  0  0  0  0
   -1.0386   -2.1374    0.0000 C   0  0  0  0  0  0  0  0  0  0  0  0
   -3.8833   -0.0150    0.0000 C   0  0  0  0  0  0  0  0  0  0  0  0
   -1.8814   -2.1374    0.0000 C   0  0  0  0  0  0  0  0  0  0  0  0
   -5.1476    0.7526    0.0000 C   0  0  0  0  0  0  0  0  0  0  0  0
   -4.7111   -1.4449    0.0000 C   0  0  0  0  0  0  0  0  0  0  0  0
   -5.1024   -0.7225    0.0000 C   0  0  0  0  0  0  0  0  0  0  0  0
   -1.0536    1.8964    0.0000 C   0  0  0  0  0  0  0  0  0  0  0  0
   -1.7610    0.6321    0.0000 C   0  0  0  0  0  0  0  0  0  0  0  0
   -5.9604    0.7075    0.0000 C   0  0  0  0  0  0  0  0  0  0  0  0
   -5.5539    1.4299    0.0000 C   0  0  0  0  0  0  0  0  0  0  0  0
   -4.7413    1.4600    0.0000 C   0  0  0  0  0  0  0  0  0  0  0  0
  1 16  1  0  0  0  0
 12  2  1  1  0  0  0
  2 17  1  0  0  0  0
 15  3  1  6  0  0  0
 19  4  1  6  0  0  0
  5 12  1  0  0  0  0
  5 13  1  0  0  0  0
  5 18  1  0  0  0  0
  6 13  1  0  0  0  0
  6 23  2  0  0  0  0
  7 21  1  0  0  0  0
  7 22  1  0  0  0  0
  7 27  1  0  0  0  0
  8 20  2  0  0  0  0
  8 23  1  0  0  0  0
  9 20  1  0  0  0  0
 10 28  1  0  0  0  0
 10 30  2  0  0  0  0
 11 29  1  0  0  0  0
 11 30  1  0  0  0  0
 12 15  1  0  0  0  0
 13 14  2  0  0  0  0
 14 16  1  0  0  0  0
 14 20  1  0  0  0  0
 15 19  1  0  0  0  0
 16 18  2  0  0  0  0
 17 19  1  0  0  0  0
 17 21  1  1  0  0  0
 22 25  1  0  0  0  0
 22 26  1  0  0  0  0
 24 25  1  0  0  0  0
 24 26  1  0  0  0  0
 24 32  1  0  0  0  0
 27 38  1  0  0  0  0
 27 39  1  0  0  0  0
 28 29  2  0  0  0  0
 28 33  1  0  0  0  0
 29 36  1  0  0  0  0
 30 34  1  0  0  0  0
 31 33  2  0  0  0  0
 31 35  1  0  0  0  0
 31 37  1  0  0  0  0
 32 34  1  0  0  0  0
 35 40  1  0  0  0  0
 35 41  1  0  0  0  0
 35 42  1  0  0  0  0
 36 37  2  0  0  0  0
M  END
> <PUBCHEM_COMPOUND_ID_TYPE>
0

> <PUBCHEM_TOTAL_CHARGE>
0

> <PUBCHEM_SUBSTANCE_ID>
310942580

> <PUBCHEM_SUBSTANCE_VERSION>
1

> <PUBCHEM_EXT_DATASOURCE_NAME>
4488

> <PUBCHEM_EXT_DATASOURCE_REGID>
SCHEMBL16120625

> <PUBCHEM_SUBSTANCE_COMMENT>
InChI=1S/C31H42ClN7O3/c1-16(2)38(14-23-26(40)27(41)30(42-23)39-13-20(32)25-28(33)34-15-35-29(25)39)19-10-17(11-19)6-9-24-36-21-8-7-18(31(3,4)5)12-22(21)37-24/h7-8,12-13,15-17,19,23,26-27,30,40-41H,6,9-11,14H2,1-5H3,(H,36,37)(H2,33,34,35)/t17?,19?,23-,26-,27-,30-/m1/s1
InChIKey=QPYYGFKHHVHHQR-RMBSYEQGSA-N

> <PUBCHEM_SUBSTANCE_SYNONYM>
SCHEMBL16120625

> <PUBCHEM_XREF_EXT_ID>
SCHEMBL16120625

> <PUBCHEM_EXT_DATASOURCE_URL>
https://www.surechembl.org/

> <PUBCHEM_EXT_SUBSTANCE_URL>
https://www.surechembl.org/chemical/SCHEMBL16120625

> <PUBCHEM_CID_ASSOCIATIONS>
86274722  1

> <PUBCHEM_COORDINATE_TYPE>
1
3

> <PUBCHEM_BONDANNOTATIONS>
17  21  5
12  2  5
15  3  6
19  4  6

$$$$
