310933856
  -OEChem-07211613022D

 29 32  0     0  0  0  0  0  0999 V2000
    0.2718    2.7299    0.0000 F   0  0  0  0  0  0  0  0  0  0  0  0
    1.1062   -0.1252    0.0000 O   0  0  0  0  0  0  0  0  0  0  0  0
    1.3983   -2.4907    0.0000 O   0  0  0  0  0  0  0  0  0  0  0  0
    3.1272    2.8493    0.0000 O   0  0  0  0  0  0  0  0  0  0  0  0
   -0.2605   -4.3276    0.0000 O   0  0  0  0  0  0  0  0  0  0  0  0
    0.8001   -5.2853    0.0000 O   0  0  0  0  0  0  0  0  0  0  0  0
    1.1407   -0.9495    0.0000 C   0  0  0  0  0  0  0  0  0  0  0  0
    1.1445   -1.7057    0.0000 C   0  0  0  0  0  0  0  0  0  0  0  0
    0.7366   -0.2235    0.0000 C   0  0  0  0  0  0  0  0  0  0  0  0
    0.6709   -1.5755    0.0000 C   0  0  0  0  0  0  0  0  0  0  0  0
    2.0411   -1.1462    0.0000 C   0  0  0  0  0  0  0  0  0  0  0  0
    0.5275   -2.3166    0.0000 C   0  0  0  0  0  0  0  0  0  0  0  0
    1.9537   -1.8322    0.0000 C   0  0  0  0  0  0  0  0  0  0  0  0
    1.8029    0.3168    0.0000 C   0  0  0  0  0  0  0  0  0  0  0  0
    1.7684    1.1410    0.0000 C   0  0  0  0  0  0  0  0  0  0  0  0
    0.8454   -3.1030    0.0000 C   0  0  0  0  0  0  0  0  0  0  0  0
    2.4650    1.5830    0.0000 C   0  0  0  0  0  0  0  0  0  0  0  0
    2.4306    2.4073    0.0000 C   0  0  0  0  0  0  0  0  0  0  0  0
    1.0373    1.5233    0.0000 C   0  0  0  0  0  0  0  0  0  0  0  0
    1.0029    2.3476    0.0000 C   0  0  0  0  0  0  0  0  0  0  0  0
    1.6995    2.7896    0.0000 C   0  0  0  0  0  0  0  0  0  0  0  0
    1.0992   -3.8880    0.0000 C   0  0  0  0  0  0  0  0  0  0  0  0
    3.0927    3.6736    0.0000 C   0  0  0  0  0  0  0  0  0  0  0  0
    0.5463   -4.5003    0.0000 C   0  0  0  0  0  0  0  0  0  0  0  0
    2.3617    4.0559    0.0000 C   0  0  0  0  0  0  0  0  0  0  0  0
    3.7894    4.1155    0.0000 C   0  0  0  0  0  0  0  0  0  0  0  0
    2.3272    4.8801    0.0000 C   0  0  0  0  0  0  0  0  0  0  0  0
    3.7549    4.9398    0.0000 C   0  0  0  0  0  0  0  0  0  0  0  0
    3.0238    5.3221    0.0000 C   0  0  0  0  0  0  0  0  0  0  0  0
  1 20  1  0  0  0  0
  2  7  1  0  0  0  0
  2 14  1  0  0  0  0
  3  8  1  0  0  0  0
  3 16  1  0  0  0  0
  4 18  1  0  0  0  0
  4 23  1  0  0  0  0
  5 24  2  0  0  0  0
  6 24  1  0  0  0  0
  7  9  1  0  0  0  0
  7 10  1  0  0  0  0
  7 11  1  0  0  0  0
  8  9  1  0  0  0  0
  8 12  1  0  0  0  0
  8 13  1  0  0  0  0
 10 12  1  0  0  0  0
 11 13  1  0  0  0  0
 14 15  1  0  0  0  0
 15 17  1  0  0  0  0
 15 19  2  0  0  0  0
 16 22  1  0  0  0  0
 17 18  2  0  0  0  0
 18 21  1  0  0  0  0
 19 20  1  0  0  0  0
 20 21  2  0  0  0  0
 22 24  1  0  0  0  0
 23 25  2  0  0  0  0
 23 26  1  0  0  0  0
 25 27  1  0  0  0  0
 26 28  2  0  0  0  0
 27 29  2  0  0  0  0
 28 29  1  0  0  0  0
M  END
> <PUBCHEM_COMPOUND_ID_TYPE>
0

> <PUBCHEM_TOTAL_CHARGE>
0

> <PUBCHEM_SUBSTANCE_ID>
310933856

> <PUBCHEM_SUBSTANCE_VERSION>
1

> <PUBCHEM_EXT_DATASOURCE_NAME>
4488

> <PUBCHEM_EXT_DATASOURCE_REGID>
SCHEMBL16111294

> <PUBCHEM_SUBSTANCE_COMMENT>
InChI=1S/C23H25FO5/c24-18-12-17(13-20(14-18)29-19-4-2-1-3-5-19)15-28-23-9-7-22(16-23,8-10-23)27-11-6-21(25)26/h1-5,12-14H,6-11,15-16H2,(H,25,26)
InChIKey=KFMGNIDRIXGFAE-UHFFFAOYSA-N

> <PUBCHEM_SUBSTANCE_SYNONYM>
SCHEMBL16111294

> <PUBCHEM_XREF_EXT_ID>
SCHEMBL16111294

> <PUBCHEM_EXT_DATASOURCE_URL>
https://www.surechembl.org/

> <PUBCHEM_EXT_SUBSTANCE_URL>
https://www.surechembl.org/chemical/SCHEMBL16111294

> <PUBCHEM_CID_ASSOCIATIONS>
86300076  1

> <PUBCHEM_COORDINATE_TYPE>
1
3

$$$$
