310937766
  -OEChem-07211613022D

 21 23  0     1  0  0  0  0  0999 V2000
    4.9629   -1.0011    0.0000 Cl  0  0  0  0  0  0  0  0  0  0  0  0
    0.0570    2.0200    0.0000 S   0  0  0  0  0  0  0  0  0  0  0  0
    0.4999   -0.1173    0.0000 N   0  0  0  0  0  0  0  0  0  0  0  0
    3.7519   -2.8171    0.0000 N   0  0  0  0  0  0  0  0  0  0  0  0
    1.9176   -2.9957    0.0000 N   0  0  0  0  0  0  0  0  0  0  0  0
    2.1275   -1.3591    0.0000 C   0  0  0  0  0  0  0  0  0  0  0  0
    0.6396   -0.9304    0.0000 C   0  0  3  0  0  0  0  0  0  0  0  0
    1.0605   -0.5572    0.0000 C   0  0  3  0  0  0  0  0  0  0  0  0
    2.8880   -1.6789    0.0000 C   0  0  0  0  0  0  0  0  0  0  0  0
    1.6113   -0.9304    0.0000 C   0  0  0  0  0  0  0  0  0  0  0  0
    1.9893   -0.5417    0.0000 C   0  0  0  0  0  0  0  0  0  0  0  0
    0.1197   -1.6427    0.0000 C   0  0  0  0  0  0  0  0  0  0  0  0
    0.7400   -1.2658    0.0000 C   0  0  0  0  0  0  0  0  0  0  0  0
    2.0225   -2.1774    0.0000 C   0  0  0  0  0  0  0  0  0  0  0  0
    3.5452   -1.1801    0.0000 C   0  0  0  0  0  0  0  0  0  0  0  0
    2.9914   -2.4974    0.0000 C   0  0  0  0  0  0  0  0  0  0  0  0
    0.0773    0.5912    0.0000 C   0  0  0  0  0  0  0  0  0  0  0  0
    4.3057   -1.4999    0.0000 C   0  0  0  0  0  0  0  0  0  0  0  0
    4.4090   -2.3184    0.0000 C   0  0  0  0  0  0  0  0  0  0  0  0
    0.4796    1.3115    0.0000 C   0  0  0  0  0  0  0  0  0  0  0  0
    0.4593    2.7403    0.0000 C   0  0  0  0  0  0  0  0  0  0  0  0
  1 18  1  0  0  0  0
  2 20  1  0  0  0  0
  2 21  1  0  0  0  0
  7  3  1  1  0  0  0
  8  3  1  6  0  0  0
  3 17  1  0  0  0  0
  4 16  2  0  0  0  0
  4 19  1  0  0  0  0
  5 14  3  0  0  0  0
  6  9  1  0  0  0  0
  6 10  1  0  0  0  0
  6 11  1  0  0  0  0
  6 14  1  0  0  0  0
  7 10  1  0  0  0  0
  7 12  1  0  0  0  0
  8 11  1  0  0  0  0
  8 13  1  0  0  0  0
  9 15  2  0  0  0  0
  9 16  1  0  0  0  0
 12 13  1  0  0  0  0
 15 18  1  0  0  0  0
 17 20  1  0  0  0  0
 18 19  2  0  0  0  0
M  END
> <PUBCHEM_COMPOUND_ID_TYPE>
0

> <PUBCHEM_TOTAL_CHARGE>
0

> <PUBCHEM_SUBSTANCE_ID>
310937766

> <PUBCHEM_SUBSTANCE_VERSION>
1

> <PUBCHEM_EXT_DATASOURCE_NAME>
4488

> <PUBCHEM_EXT_DATASOURCE_REGID>
SCHEMBL16115574

> <PUBCHEM_SUBSTANCE_COMMENT>
InChI=1S/C16H20ClN3S/c1-21-5-4-20-14-2-3-15(20)8-16(7-14,11-18)12-6-13(17)10-19-9-12/h6,9-10,14-15H,2-5,7-8H2,1H3/t14-,15+,16?
InChIKey=PJGGZUAZAPKXBE-XYPWUTKMSA-N

> <PUBCHEM_SUBSTANCE_SYNONYM>
SCHEMBL16115574

> <PUBCHEM_XREF_EXT_ID>
SCHEMBL16115574

> <PUBCHEM_EXT_DATASOURCE_URL>
https://www.surechembl.org/

> <PUBCHEM_EXT_SUBSTANCE_URL>
https://www.surechembl.org/chemical/SCHEMBL16115574

> <PUBCHEM_CID_ASSOCIATIONS>
117605422  1

> <PUBCHEM_COORDINATE_TYPE>
1
3

> <PUBCHEM_BONDANNOTATIONS>
7  3  5
8  3  6

$$$$
