310942836
  -OEChem-07211613022D

 36 41  0     0  0  0  0  0  0999 V2000
    5.0894    1.7401    0.0000 S   0  0  0  0  0  0  0  0  0  0  0  0
   -4.4256   -0.9354    0.0000 O   0  0  0  0  0  0  0  0  0  0  0  0
   -4.4256    1.5791    0.0000 O   0  0  0  0  0  0  0  0  0  0  0  0
   -1.5489   -0.9354    0.0000 O   0  0  0  0  0  0  0  0  0  0  0  0
    3.4801    0.3118    0.0000 N   0  0  0  0  0  0  0  0  0  0  0  0
    4.2848    1.5590    0.0000 N   0  0  0  0  0  0  0  0  0  0  0  0
    2.0519   -0.5129    0.0000 N   0  0  0  0  0  0  0  0  0  0  0  0
   -5.1297   -0.4929    0.0000 C   0  0  0  0  0  0  0  0  0  0  0  0
   -3.6813   -0.5129    0.0000 C   0  0  0  0  0  0  0  0  0  0  0  0
   -3.6813    0.3319    0.0000 C   0  0  0  0  0  0  0  0  0  0  0  0
   -4.4256    0.7343    0.0000 C   0  0  0  0  0  0  0  0  0  0  0  0
   -5.1096    0.3319    0.0000 C   0  0  0  0  0  0  0  0  0  0  0  0
    4.1842    0.7544    0.0000 C   0  0  0  0  0  0  0  0  0  0  0  0
    4.9486    0.4124    0.0000 C   0  0  0  0  0  0  0  0  0  0  0  0
    5.4917    1.0360    0.0000 C   0  0  0  0  0  0  0  0  0  0  0  0
   -5.8538   -0.1107    0.0000 C   0  0  0  0  0  0  0  0  0  0  0  0
   -5.1297   -1.3377    0.0000 C   0  0  0  0  0  0  0  0  0  0  0  0
   -2.9772   -0.9153    0.0000 C   0  0  0  0  0  0  0  0  0  0  0  0
   -2.9772    0.7343    0.0000 C   0  0  0  0  0  0  0  0  0  0  0  0
   -2.2530   -0.4929    0.0000 C   0  0  0  0  0  0  0  0  0  0  0  0
   -2.2731    0.3319    0.0000 C   0  0  0  0  0  0  0  0  0  0  0  0
    5.2101   -0.3923    0.0000 C   0  0  0  0  0  0  0  0  0  0  0  0
    6.3165    0.8348    0.0000 C   0  0  0  0  0  0  0  0  0  0  0  0
   -6.5378   -0.5129    0.0000 C   0  0  0  0  0  0  0  0  0  0  0  0
   -5.8337   -1.7401    0.0000 C   0  0  0  0  0  0  0  0  0  0  0  0
    3.4801   -0.5129    0.0000 C   0  0  0  0  0  0  0  0  0  0  0  0
    2.7560    0.7343    0.0000 C   0  0  0  0  0  0  0  0  0  0  0  0
   -6.5579   -1.3377    0.0000 C   0  0  0  0  0  0  0  0  0  0  0  0
    6.0148   -0.5532    0.0000 C   0  0  0  0  0  0  0  0  0  0  0  0
    6.5579    0.0704    0.0000 C   0  0  0  0  0  0  0  0  0  0  0  0
    2.7761   -0.9354    0.0000 C   0  0  0  0  0  0  0  0  0  0  0  0
    2.0519    0.3319    0.0000 C   0  0  0  0  0  0  0  0  0  0  0  0
    1.3478   -0.9354    0.0000 C   0  0  0  0  0  0  0  0  0  0  0  0
   -0.8449   -0.5129    0.0000 C   0  0  0  0  0  0  0  0  0  0  0  0
    0.6035   -0.5129    0.0000 C   0  0  0  0  0  0  0  0  0  0  0  0
   -0.1006   -0.9354    0.0000 C   0  0  0  0  0  0  0  0  0  0  0  0
  1  6  1  0  0  0  0
  1 15  1  0  0  0  0
  2  8  1  0  0  0  0
  2  9  1  0  0  0  0
  3 11  2  0  0  0  0
  4 20  1  0  0  0  0
  4 34  1  0  0  0  0
  5 13  1  0  0  0  0
  5 26  1  0  0  0  0
  5 27  1  0  0  0  0
  6 13  2  0  0  0  0
  7 31  1  0  0  0  0
  7 32  1  0  0  0  0
  7 33  1  0  0  0  0
  8 12  1  0  0  0  0
  8 16  1  0  0  0  0
  8 17  1  0  0  0  0
  9 10  2  0  0  0  0
  9 18  1  0  0  0  0
 10 11  1  0  0  0  0
 10 19  1  0  0  0  0
 11 12  1  0  0  0  0
 13 14  1  0  0  0  0
 14 15  2  0  0  0  0
 14 22  1  0  0  0  0
 15 23  1  0  0  0  0
 16 24  1  0  0  0  0
 17 25  1  0  0  0  0
 18 20  2  0  0  0  0
 19 21  2  0  0  0  0
 20 21  1  0  0  0  0
 22 29  2  0  0  0  0
 23 30  2  0  0  0  0
 24 28  1  0  0  0  0
 25 28  1  0  0  0  0
 26 31  1  0  0  0  0
 27 32  1  0  0  0  0
 29 30  1  0  0  0  0
 33 35  1  0  0  0  0
 34 36  1  0  0  0  0
 35 36  1  0  0  0  0
M  END
> <PUBCHEM_COMPOUND_ID_TYPE>
0

> <PUBCHEM_TOTAL_CHARGE>
0

> <PUBCHEM_SUBSTANCE_ID>
310942836

> <PUBCHEM_SUBSTANCE_VERSION>
1

> <PUBCHEM_EXT_DATASOURCE_NAME>
4488

> <PUBCHEM_EXT_DATASOURCE_REGID>
SCHEMBL16120891

> <PUBCHEM_SUBSTANCE_COMMENT>
InChI=1S/C29H35N3O3S/c33-25-21-29(12-4-1-5-13-29)35-26-20-22(10-11-23(25)26)34-19-7-6-14-31-15-17-32(18-16-31)28-24-8-2-3-9-27(24)36-30-28/h2-3,8-11,20H,1,4-7,12-19,21H2
InChIKey=MVVMJBIMCXARLG-UHFFFAOYSA-N

> <PUBCHEM_SUBSTANCE_SYNONYM>
SCHEMBL16120891

> <PUBCHEM_XREF_EXT_ID>
SCHEMBL16120891

> <PUBCHEM_EXT_DATASOURCE_URL>
https://www.surechembl.org/

> <PUBCHEM_EXT_SUBSTANCE_URL>
https://www.surechembl.org/chemical/SCHEMBL16120891

> <PUBCHEM_CID_ASSOCIATIONS>
86275199  1

> <PUBCHEM_COORDINATE_TYPE>
1
3

$$$$
