310948760
  -OEChem-07211613022D

 31 35  0     1  0  0  0  0  0999 V2000
   -2.5889    1.3175    0.0000 O   0  0  0  0  0  0  0  0  0  0  0  0
    0.1566    1.1517    0.0000 N   0  0  0  0  0  0  0  0  0  0  0  0
   -0.1751    0.4145    0.0000 N   0  0  0  0  0  0  0  0  0  0  0  0
   -1.5569   -0.1013    0.0000 N   0  0  0  0  0  0  0  0  0  0  0  0
   -1.8703    2.5704    0.0000 N   0  0  0  0  0  0  0  0  0  0  0  0
    1.0043   -2.3125    0.0000 N   0  0  0  0  0  0  0  0  0  0  0  0
    0.7463   -0.7094    0.0000 N   0  0  0  0  0  0  0  0  0  0  0  0
    1.5017   -1.6491    0.0000 N   0  0  0  0  0  0  0  0  0  0  0  0
    1.5017   -2.9758    0.0000 N   0  0  0  0  0  0  0  0  0  0  0  0
   -1.1332    1.3359    0.0000 C   0  0  0  0  0  0  0  0  0  0  0  0
   -0.4514    1.7412    0.0000 C   0  0  0  0  0  0  0  0  0  0  0  0
   -1.0043    0.5435    0.0000 C   0  0  0  0  0  0  0  0  0  0  0  0
    0.9674    1.3359    0.0000 C   0  0  3  0  0  0  0  0  0  0  0  0
   -1.8703    1.7412    0.0000 C   0  0  0  0  0  0  0  0  0  0  0  0
   -0.4330    2.5520    0.0000 C   0  0  0  0  0  0  0  0  0  0  0  0
    1.5385    0.7094    0.0000 C   0  0  3  0  0  0  0  0  0  0  0  0
   -1.3175   -0.8753    0.0000 C   0  0  0  0  0  0  0  0  0  0  0  0
   -1.1701    2.9758    0.0000 C   0  0  0  0  0  0  0  0  0  0  0  0
    1.2437    2.1098    0.0000 C   0  0  0  0  0  0  0  0  0  0  0  0
    2.3309    0.8753    0.0000 C   0  0  0  0  0  0  0  0  0  0  0  0
   -0.5067   -1.0963    0.0000 C   0  0  0  0  0  0  0  0  0  0  0  0
    1.1332   -0.0092    0.0000 C   0  0  0  0  0  0  0  0  0  0  0  0
    2.0361    2.2756    0.0000 C   0  0  0  0  0  0  0  0  0  0  0  0
   -0.2487   -1.8703    0.0000 C   0  0  0  0  0  0  0  0  0  0  0  0
   -1.8518   -1.5201    0.0000 C   0  0  0  0  0  0  0  0  0  0  0  0
    2.5889    1.6859    0.0000 C   0  0  0  0  0  0  0  0  0  0  0  0
   -0.8016   -2.4783    0.0000 C   0  0  0  0  0  0  0  0  0  0  0  0
   -1.6123   -2.2940    0.0000 C   0  0  0  0  0  0  0  0  0  0  0  0
    0.5619   -1.6675    0.0000 C   0  0  0  0  0  0  0  0  0  0  0  0
    2.2572   -2.7178    0.0000 C   0  0  0  0  0  0  0  0  0  0  0  0
    2.2756   -1.8887    0.0000 C   0  0  0  0  0  0  0  0  0  0  0  0
  1 14  2  0  0  0  0
  2  3  1  0  0  0  0
  2 11  1  0  0  0  0
 13  2  1  1  0  0  0
  3 12  2  0  0  0  0
  4 12  1  0  0  0  0
  4 17  1  0  0  0  0
  5 14  1  0  0  0  0
  5 18  1  0  0  0  0
  6  8  1  0  0  0  0
  6  9  1  0  0  0  0
  6 29  1  0  0  0  0
  7 22  3  0  0  0  0
  8 31  2  0  0  0  0
  9 30  2  0  0  0  0
 10 11  2  0  0  0  0
 10 12  1  0  0  0  0
 10 14  1  0  0  0  0
 11 15  1  0  0  0  0
 13 16  1  0  0  0  0
 13 19  1  0  0  0  0
 15 18  2  0  0  0  0
 16 20  1  0  0  0  0
 16 22  1  6  0  0  0
 17 21  1  0  0  0  0
 17 25  2  0  0  0  0
 19 23  1  0  0  0  0
 20 26  1  0  0  0  0
 21 24  2  0  0  0  0
 23 26  1  0  0  0  0
 24 27  1  0  0  0  0
 24 29  1  0  0  0  0
 25 28  1  0  0  0  0
 27 28  2  0  0  0  0
 30 31  1  0  0  0  0
M  END
> <PUBCHEM_COMPOUND_ID_TYPE>
0

> <PUBCHEM_TOTAL_CHARGE>
0

> <PUBCHEM_SUBSTANCE_ID>
310948760

> <PUBCHEM_SUBSTANCE_VERSION>
1

> <PUBCHEM_EXT_DATASOURCE_NAME>
4488

> <PUBCHEM_EXT_DATASOURCE_REGID>
SCHEMBL16126944

> <PUBCHEM_SUBSTANCE_COMMENT>
InChI=1S/C22H22N8O/c23-13-16-5-1-2-7-18(16)30-19-8-9-24-22(31)20(19)21(28-30)27-17-6-3-4-15(12-17)14-29-25-10-11-26-29/h3-4,6,8-12,16,18H,1-2,5,7,14H2,(H,24,31)(H,27,28)/t16-,18+/m1/s1
InChIKey=LHPWDKXYOIBCOY-AEFFLSMTSA-N

> <PUBCHEM_SUBSTANCE_SYNONYM>
SCHEMBL16126944

> <PUBCHEM_XREF_EXT_ID>
SCHEMBL16126944

> <PUBCHEM_EXT_DATASOURCE_URL>
https://www.surechembl.org/

> <PUBCHEM_EXT_SUBSTANCE_URL>
https://www.surechembl.org/chemical/SCHEMBL16126944

> <PUBCHEM_CID_ASSOCIATIONS>
117614302  1

> <PUBCHEM_COORDINATE_TYPE>
1
3

> <PUBCHEM_BONDANNOTATIONS>
16  22  6
13  2  5

$$$$
