310938643
  -OEChem-07211613022D

 24 23  0     0  0  0  0  0  0999 V2000
   11.8847   -7.7635    0.0000 O   0  0  0  0  0  0  0  0  0  0  0  0
   10.4557   -7.7635    0.0000 O   0  0  0  0  0  0  0  0  0  0  0  0
    8.2827    1.3332    0.0000 C   0  0  0  0  0  0  0  0  0  0  0  0
    8.6952    0.6188    0.0000 C   0  0  0  0  0  0  0  0  0  0  0  0
    7.8702    2.0477    0.0000 C   0  0  0  0  0  0  0  0  0  0  0  0
    9.1077   -0.0957    0.0000 C   0  0  0  0  0  0  0  0  0  0  0  0
    7.4577    2.7622    0.0000 C   0  0  0  0  0  0  0  0  0  0  0  0
    9.5202   -0.8102    0.0000 C   0  0  0  0  0  0  0  0  0  0  0  0
    7.0452    3.4766    0.0000 C   0  0  0  0  0  0  0  0  0  0  0  0
    9.9327   -1.5247    0.0000 C   0  0  0  0  0  0  0  0  0  0  0  0
   11.1702   -7.3510    0.0000 C   0  0  0  0  0  0  0  0  0  0  0  0
   11.1702   -6.5260    0.0000 C   0  0  0  0  0  0  0  0  0  0  0  0
   10.3452   -2.2391    0.0000 C   0  0  0  0  0  0  0  0  0  0  0  0
   10.7577   -5.8115    0.0000 C   0  0  0  0  0  0  0  0  0  0  0  0
   10.7577   -2.9536    0.0000 C   0  0  0  0  0  0  0  0  0  0  0  0
    6.6327    4.1911    0.0000 C   0  0  0  0  0  0  0  0  0  0  0  0
   11.1702   -5.0970    0.0000 C   0  0  0  0  0  0  0  0  0  0  0  0
   11.1702   -3.6681    0.0000 C   0  0  0  0  0  0  0  0  0  0  0  0
   10.7577   -4.3825    0.0000 C   0  0  0  0  0  0  0  0  0  0  0  0
    6.2202    4.9056    0.0000 C   0  0  0  0  0  0  0  0  0  0  0  0
    5.8077    5.6200    0.0000 C   0  0  0  0  0  0  0  0  0  0  0  0
    5.3952    6.3345    0.0000 C   0  0  0  0  0  0  0  0  0  0  0  0
    4.9827    7.0490    0.0000 C   0  0  0  0  0  0  0  0  0  0  0  0
    4.5702    7.7635    0.0000 C   0  0  0  0  0  0  0  0  0  0  0  0
  1 11  2  0  0  0  0
  2 11  1  0  0  0  0
  3  4  1  0  0  0  0
  3  5  3  0  0  0  0
  4  6  3  0  0  0  0
  5  7  1  0  0  0  0
  6  8  1  0  0  0  0
  7  9  3  0  0  0  0
  8 10  3  0  0  0  0
  9 16  1  0  0  0  0
 10 13  1  0  0  0  0
 11 12  1  0  0  0  0
 12 14  1  0  0  0  0
 13 15  3  0  0  0  0
 14 17  1  0  0  0  0
 15 18  1  0  0  0  0
 16 20  3  0  0  0  0
 17 19  1  0  0  0  0
 18 19  1  0  0  0  0
 20 21  1  0  0  0  0
 21 22  3  0  0  0  0
 22 23  1  0  0  0  0
 23 24  3  0  0  0  0
M  END
> <PUBCHEM_COMPOUND_ID_TYPE>
0

> <PUBCHEM_TOTAL_CHARGE>
0

> <PUBCHEM_SUBSTANCE_ID>
310938643

> <PUBCHEM_SUBSTANCE_VERSION>
1

> <PUBCHEM_EXT_DATASOURCE_NAME>
4488

> <PUBCHEM_EXT_DATASOURCE_REGID>
SCHEMBL16116557

> <PUBCHEM_SUBSTANCE_COMMENT>
InChI=1S/C22H12O2/c1-2-3-4-5-6-7-8-9-10-11-12-13-14-15-16-17-18-19-20-21-22(23)24/h1H,17-21H2,(H,23,24)
InChIKey=IADPNAOQFOLTPM-UHFFFAOYSA-N

> <PUBCHEM_SUBSTANCE_SYNONYM>
SCHEMBL16116557

> <PUBCHEM_XREF_EXT_ID>
SCHEMBL16116557

> <PUBCHEM_EXT_DATASOURCE_URL>
https://www.surechembl.org/

> <PUBCHEM_EXT_SUBSTANCE_URL>
https://www.surechembl.org/chemical/SCHEMBL16116557

> <PUBCHEM_CID_ASSOCIATIONS>
117606075  1

> <PUBCHEM_COORDINATE_TYPE>
1
3

$$$$
