310942124
  -OEChem-07211613022D

 26 29  0     1  0  0  0  0  0999 V2000
   -2.5611    1.0567    0.0000 S   0  0  0  0  0  0  0  0  0  0  0  0
   -0.3941   -1.0208    0.0000 O   0  0  0  0  0  0  0  0  0  0  0  0
   -3.3849    1.0567    0.0000 O   0  0  0  0  0  0  0  0  0  0  0  0
   -2.9730    1.7910    0.0000 O   0  0  0  0  0  0  0  0  0  0  0  0
   -1.8268    1.4686    0.0000 N   0  0  0  0  0  0  0  0  0  0  0  0
   -2.5611    0.2328    0.0000 N   0  0  0  0  0  0  0  0  0  0  0  0
   -1.8268   -1.0208    0.0000 N   0  0  0  0  0  0  0  0  0  0  0  0
   -1.1104    0.2507    0.0000 C   0  0  0  0  0  0  0  0  0  0  0  0
   -1.0925    1.0925    0.0000 C   0  0  0  0  0  0  0  0  0  0  0  0
   -0.3761   -0.1612    0.0000 C   0  0  0  0  0  0  0  0  0  0  0  0
   -1.8268   -0.1433    0.0000 C   0  0  0  0  0  0  0  0  0  0  0  0
    1.0388   -1.2000    0.0000 C   0  0  0  0  0  0  0  0  0  0  0  0
   -0.3761    1.4686    0.0000 C   0  0  0  0  0  0  0  0  0  0  0  0
    0.3403    0.2507    0.0000 C   0  0  0  0  0  0  0  0  0  0  0  0
    0.3045   -1.4327    0.0000 C   0  0  0  0  0  0  0  0  0  0  0  0
    1.6298   -1.7910    0.0000 C   0  0  0  0  0  0  0  0  0  0  0  0
    1.2358   -0.4477    0.0000 C   0  0  0  0  0  0  0  0  0  0  0  0
    2.0955   -0.1970    0.0000 C   0  0  3  0  0  0  0  0  0  0  0  0
    2.3641   -1.5761    0.0000 C   0  0  3  0  0  0  0  0  0  0  0  0
    0.3403    1.0746    0.0000 C   0  0  0  0  0  0  0  0  0  0  0  0
    1.8089   -1.0030    0.0000 C   0  0  0  0  0  0  0  0  0  0  0  0
    2.8298   -0.0179    0.0000 C   0  0  0  0  0  0  0  0  0  0  0  0
    3.1879   -1.3969    0.0000 C   0  0  0  0  0  0  0  0  0  0  0  0
    3.3849   -0.5910    0.0000 C   0  0  0  0  0  0  0  0  0  0  0  0
    1.9342   -1.2537    0.0000 C   0  0  0  0  0  0  0  0  0  0  0  0
    2.2029   -1.2895    0.0000 C   0  0  0  0  0  0  0  0  0  0  0  0
  1  3  2  0  0  0  0
  1  4  2  0  0  0  0
  1  5  1  0  0  0  0
  1  6  1  0  0  0  0
  2 10  1  0  0  0  0
  2 15  1  0  0  0  0
  5  9  1  0  0  0  0
  6 11  2  0  0  0  0
  7 11  1  0  0  0  0
  8  9  1  0  0  0  0
  8 10  2  0  0  0  0
  8 11  1  0  0  0  0
  9 13  2  0  0  0  0
 10 14  1  0  0  0  0
 12 15  1  0  0  0  0
 12 16  1  0  0  0  0
 12 17  1  0  0  0  0
 12 25  1  0  0  0  0
 13 20  1  0  0  0  0
 14 20  2  0  0  0  0
 16 19  1  0  0  0  0
 17 18  1  0  0  0  0
 18 21  1  0  0  0  0
 18 22  1  0  0  0  0
 19 21  1  0  0  0  0
 19 23  1  0  0  0  0
 22 24  1  0  0  0  0
 23 24  1  0  0  0  0
 24 26  1  1  0  0  0
M  END
> <PUBCHEM_COMPOUND_ID_TYPE>
0

> <PUBCHEM_TOTAL_CHARGE>
0

> <PUBCHEM_SUBSTANCE_ID>
310942124

> <PUBCHEM_SUBSTANCE_VERSION>
1

> <PUBCHEM_EXT_DATASOURCE_NAME>
4488

> <PUBCHEM_EXT_DATASOURCE_REGID>
SCHEMBL16120159

> <PUBCHEM_SUBSTANCE_COMMENT>
InChI=1S/C19H27N3O3S/c1-12-6-13-8-14(7-12)10-19(2,9-13)11-25-16-5-3-4-15-17(16)18(20)22-26(23,24)21-15/h3-5,12-14,21H,6-11H2,1-2H3,(H2,20,22)/t12-,13?,14?,19?
InChIKey=RVJUNLYKDLUMAW-ZXLMDNOXSA-N

> <PUBCHEM_SUBSTANCE_SYNONYM>
SCHEMBL16120159

> <PUBCHEM_XREF_EXT_ID>
SCHEMBL16120159

> <PUBCHEM_EXT_DATASOURCE_URL>
https://www.surechembl.org/

> <PUBCHEM_EXT_SUBSTANCE_URL>
https://www.surechembl.org/chemical/SCHEMBL16120159

> <PUBCHEM_CID_ASSOCIATIONS>
117608784  1

> <PUBCHEM_COORDINATE_TYPE>
1
3

> <PUBCHEM_BONDANNOTATIONS>
24  26  5

$$$$
