310941754
  -OEChem-07211613022D

 32 38  0     1  0  0  0  0  0999 V2000
    3.6062   -1.3939    0.0000 S   0  0  0  0  0  0  0  0  0  0  0  0
   -0.4161    1.0888    0.0000 O   0  0  0  0  0  0  0  0  0  0  0  0
    4.4106   -1.1720    0.0000 O   0  0  0  0  0  0  0  0  0  0  0  0
    3.6062   -0.5618    0.0000 O   0  0  0  0  0  0  0  0  0  0  0  0
    1.7476   -0.1595    0.0000 N   0  0  0  0  0  0  0  0  0  0  0  0
    2.8018   -1.2136    0.0000 N   0  0  0  0  0  0  0  0  0  0  0  0
    2.5521    0.9224    0.0000 N   0  0  0  0  0  0  0  0  0  0  0  0
    3.0375    0.2566    0.0000 N   0  0  0  0  0  0  0  0  0  0  0  0
    3.8559   -2.1845    0.0000 N   0  0  0  0  0  0  0  0  0  0  0  0
    0.2913   -0.1595    0.0000 C   0  0  0  0  0  0  0  0  0  0  0  0
    1.7754    0.6727    0.0000 C   0  0  0  0  0  0  0  0  0  0  0  0
    2.5382   -0.4230    0.0000 C   0  0  0  0  0  0  0  0  0  0  0  0
   -3.1763    1.3801    0.0000 C   0  0  3  0  0  0  0  0  0  0  0  0
   -2.7740    2.0736    0.0000 C   0  0  3  0  0  0  0  0  0  0  0  0
    0.3190    0.6727    0.0000 C   0  0  0  0  0  0  0  0  0  0  0  0
    1.0403   -0.5756    0.0000 C   0  0  0  0  0  0  0  0  0  0  0  0
   -3.9114    1.7546    0.0000 C   0  0  3  0  0  0  0  0  0  0  0  0
   -3.4814    2.5174    0.0000 C   0  0  3  0  0  0  0  0  0  0  0  0
   -0.4161   -0.5756    0.0000 C   0  0  0  0  0  0  0  0  0  0  0  0
    1.0125    1.0888    0.0000 C   0  0  0  0  0  0  0  0  0  0  0  0
   -1.8724    1.1027    0.0000 C   0  0  0  0  0  0  0  0  0  0  0  0
   -3.9530    3.2941    0.0000 C   0  0  0  0  0  0  0  0  0  0  0  0
   -2.6075    0.7559    0.0000 C   0  0  0  0  0  0  0  0  0  0  0  0
   -1.9556    1.9071    0.0000 C   0  0  0  0  0  0  0  0  0  0  0  0
   -0.8322   -1.2691    0.0000 C   0  0  0  0  0  0  0  0  0  0  0  0
   -1.2205   -0.5895    0.0000 C   0  0  0  0  0  0  0  0  0  0  0  0
   -4.5910    1.3662    0.0000 C   0  0  0  0  0  0  0  0  0  0  0  0
   -4.1888    2.1291    0.0000 C   0  0  0  0  0  0  0  0  0  0  0  0
   -1.1096    0.6866    0.0000 C   0  0  0  0  0  0  0  0  0  0  0  0
    3.4953   -2.9196    0.0000 C   0  0  0  0  0  0  0  0  0  0  0  0
    4.5910   -2.5729    0.0000 C   0  0  0  0  0  0  0  0  0  0  0  0
    4.2304   -3.2941    0.0000 C   0  0  0  0  0  0  0  0  0  0  0  0
  1  3  2  0  0  0  0
  1  4  2  0  0  0  0
  1  6  1  0  0  0  0
  1  9  1  0  0  0  0
  2 15  1  0  0  0  0
  2 29  1  0  0  0  0
  5 11  1  0  0  0  0
  5 12  1  0  0  0  0
  5 16  1  0  0  0  0
  6 12  1  0  0  0  0
  7  8  1  0  0  0  0
  7 11  2  0  0  0  0
  8 12  2  0  0  0  0
  9 30  1  0  0  0  0
  9 31  1  0  0  0  0
 10 15  1  0  0  0  0
 10 16  2  0  0  0  0
 10 19  1  0  0  0  0
 11 20  1  0  0  0  0
 13 14  1  0  0  0  0
 13 17  1  0  0  0  0
 13 23  1  0  0  0  0
 14 18  1  0  0  0  0
 14 24  1  0  0  0  0
 15 20  2  0  0  0  0
 17 22  1  0  0  0  0
 17 27  1  0  0  0  0
 18 22  1  0  0  0  0
 18 28  1  0  0  0  0
 19 25  1  0  0  0  0
 19 26  1  0  0  0  0
 21 23  1  0  0  0  0
 21 24  1  0  0  0  0
 21 29  1  1  0  0  0
 25 26  1  0  0  0  0
 27 28  1  0  0  0  0
 30 32  1  0  0  0  0
 31 32  1  0  0  0  0
M  END
> <PUBCHEM_COMPOUND_ID_TYPE>
0

> <PUBCHEM_TOTAL_CHARGE>
0

> <PUBCHEM_SUBSTANCE_ID>
310941754

> <PUBCHEM_SUBSTANCE_VERSION>
1

> <PUBCHEM_EXT_DATASOURCE_NAME>
4488

> <PUBCHEM_EXT_DATASOURCE_REGID>
SCHEMBL16119785

> <PUBCHEM_SUBSTANCE_COMMENT>
InChI=1S/C23H31N5O3S/c29-32(30,27-6-1-7-27)26-23-25-24-22-11-21(20(12-28(22)23)15-2-3-15)31-13-14-8-18-16-4-5-17(10-16)19(18)9-14/h11-12,14-19H,1-10,13H2,(H,25,26)
InChIKey=PLKGGLPHMDCRHP-UHFFFAOYSA-N

> <PUBCHEM_SUBSTANCE_SYNONYM>
SCHEMBL16119785

> <PUBCHEM_XREF_EXT_ID>
SCHEMBL16119785

> <PUBCHEM_EXT_DATASOURCE_URL>
https://www.surechembl.org/

> <PUBCHEM_EXT_SUBSTANCE_URL>
https://www.surechembl.org/chemical/SCHEMBL16119785

> <PUBCHEM_CID_ASSOCIATIONS>
117608513  1

> <PUBCHEM_COORDINATE_TYPE>
1
3

> <PUBCHEM_BONDANNOTATIONS>
21  29  5

$$$$
