310937941
  -OEChem-07211613022D

 23 25  0     0  0  0  0  0  0999 V2000
    4.9071   -3.4106    0.0000 Cl  0  0  0  0  0  0  0  0  0  0  0  0
    3.6890   -1.1833    0.0000 O   0  0  0  0  0  0  0  0  0  0  0  0
    2.4709   -4.8375    0.0000 O   0  0  0  0  0  0  0  0  0  0  0  0
    1.6357   -2.0185    0.0000 O   0  0  0  0  0  0  0  0  0  0  0  0
    2.5405   -0.5220    0.0000 N   0  0  0  0  0  0  0  0  0  0  0  0
    3.1322    0.0000    0.0000 N   0  0  0  0  0  0  0  0  0  0  0  0
    2.8537   -2.7146    0.0000 C   0  0  0  0  0  0  0  0  0  0  0  0
    2.4709   -2.0185    0.0000 C   0  0  0  0  0  0  0  0  0  0  0  0
    2.8537   -1.2877    0.0000 C   0  0  0  0  0  0  0  0  0  0  0  0
    2.4709   -3.4106    0.0000 C   0  0  0  0  0  0  0  0  0  0  0  0
    2.8537   -4.1414    0.0000 C   0  0  0  0  0  0  0  0  0  0  0  0
    3.6890   -2.7146    0.0000 C   0  0  0  0  0  0  0  0  0  0  0  0
    4.1067   -3.4106    0.0000 C   0  0  0  0  0  0  0  0  0  0  0  0
    3.8630   -0.4176    0.0000 C   0  0  0  0  0  0  0  0  0  0  0  0
    3.6890   -4.1414    0.0000 C   0  0  0  0  0  0  0  0  0  0  0  0
    1.6357   -4.8375    0.0000 C   0  0  0  0  0  0  0  0  0  0  0  0
    1.2181   -5.5335    0.0000 C   0  0  0  0  0  0  0  0  0  0  0  0
    4.5939   -0.0696    0.0000 C   0  0  0  0  0  0  0  0  0  0  0  0
    0.4176   -5.5335    0.0000 C   0  0  0  0  0  0  0  0  0  0  0  0
    1.6357   -6.2643    0.0000 C   0  0  0  0  0  0  0  0  0  0  0  0
    0.0000   -6.2643    0.0000 C   0  0  0  0  0  0  0  0  0  0  0  0
    1.2181   -6.9604    0.0000 C   0  0  0  0  0  0  0  0  0  0  0  0
    0.3828   -6.9604    0.0000 C   0  0  0  0  0  0  0  0  0  0  0  0
  1 13  1  0  0  0  0
  2  9  1  0  0  0  0
  2 14  1  0  0  0  0
  3 11  1  0  0  0  0
  3 16  1  0  0  0  0
  4  8  2  0  0  0  0
  5  6  1  0  0  0  0
  5  9  2  0  0  0  0
  6 14  2  0  0  0  0
  7  8  1  0  0  0  0
  7 10  1  0  0  0  0
  7 12  2  0  0  0  0
  8  9  1  0  0  0  0
 10 11  2  0  0  0  0
 11 15  1  0  0  0  0
 12 13  1  0  0  0  0
 13 15  2  0  0  0  0
 14 18  1  0  0  0  0
 16 17  1  0  0  0  0
 17 19  2  0  0  0  0
 17 20  1  0  0  0  0
 19 21  1  0  0  0  0
 20 22  2  0  0  0  0
 21 23  2  0  0  0  0
 22 23  1  0  0  0  0
M  END
> <PUBCHEM_COMPOUND_ID_TYPE>
0

> <PUBCHEM_TOTAL_CHARGE>
0

> <PUBCHEM_SUBSTANCE_ID>
310937941

> <PUBCHEM_SUBSTANCE_VERSION>
1

> <PUBCHEM_EXT_DATASOURCE_NAME>
4488

> <PUBCHEM_EXT_DATASOURCE_REGID>
SCHEMBL16115770

> <PUBCHEM_SUBSTANCE_COMMENT>
InChI=1S/C17H13ClN2O3/c1-11-19-20-17(23-11)16(21)13-7-14(18)9-15(8-13)22-10-12-5-3-2-4-6-12/h2-9H,10H2,1H3
InChIKey=AYCHOCSZLKGCQF-UHFFFAOYSA-N

> <PUBCHEM_SUBSTANCE_SYNONYM>
SCHEMBL16115770

> <PUBCHEM_XREF_EXT_ID>
SCHEMBL16115770

> <PUBCHEM_EXT_DATASOURCE_URL>
https://www.surechembl.org/

> <PUBCHEM_EXT_SUBSTANCE_URL>
https://www.surechembl.org/chemical/SCHEMBL16115770

> <PUBCHEM_CID_ASSOCIATIONS>
117605546  1

> <PUBCHEM_COORDINATE_TYPE>
1
3

$$$$
