310933682
  -OEChem-07211613022D

 33 37  0     0  0  0  0  0  0999 V2000
    3.5499    0.0000    0.0000 O   0  0  0  0  0  0  0  0  0  0  0  0
    2.8249   -3.7249    0.0000 O   0  0  0  0  0  0  0  0  0  0  0  0
    5.0498   -1.0000    0.0000 N   0  0  0  0  0  0  0  0  0  0  0  0
    2.8499   -1.2500    0.0000 N   0  0  0  0  0  0  0  0  0  0  0  0
    2.8499   -2.0999    0.0000 N   0  0  0  0  0  0  0  0  0  0  0  0
    4.2499   -3.7499    0.0000 N   0  0  0  0  0  0  0  0  0  0  0  0
    4.2999   -2.0999    0.0000 C   0  0  0  0  0  0  0  0  0  0  0  0
    4.2999   -1.2500    0.0000 C   0  0  0  0  0  0  0  0  0  0  0  0
    5.0498   -2.3249    0.0000 C   0  0  0  0  0  0  0  0  0  0  0  0
    3.5499   -2.5000    0.0000 C   0  0  0  0  0  0  0  0  0  0  0  0
    5.5498   -1.6750    0.0000 C   0  0  0  0  0  0  0  0  0  0  0  0
    3.5499   -0.8250    0.0000 C   0  0  0  0  0  0  0  0  0  0  0  0
    3.5499   -3.3249    0.0000 C   0  0  0  0  0  0  0  0  0  0  0  0
    5.4248   -3.0749    0.0000 C   0  0  0  0  0  0  0  0  0  0  0  0
    6.3498   -1.7500    0.0000 C   0  0  0  0  0  0  0  0  0  0  0  0
    2.1250   -0.8500    0.0000 C   0  0  0  0  0  0  0  0  0  0  0  0
    5.2748   -0.2250    0.0000 C   0  0  0  0  0  0  0  0  0  0  0  0
    6.1998   -3.1749    0.0000 C   0  0  0  0  0  0  0  0  0  0  0  0
    6.6748   -2.5000    0.0000 C   0  0  0  0  0  0  0  0  0  0  0  0
    4.9499   -3.3499    0.0000 C   0  0  0  0  0  0  0  0  0  0  0  0
    1.4249   -1.2749    0.0000 C   0  0  0  0  0  0  0  0  0  0  0  0
    4.2249   -4.5749    0.0000 C   0  0  0  0  0  0  0  0  0  0  0  0
    4.9748   -2.5249    0.0000 C   0  0  0  0  0  0  0  0  0  0  0  0
    5.6749   -3.7749    0.0000 C   0  0  0  0  0  0  0  0  0  0  0  0
    0.7000   -0.8750    0.0000 C   0  0  0  0  0  0  0  0  0  0  0  0
    1.4249   -2.0999    0.0000 C   0  0  0  0  0  0  0  0  0  0  0  0
    5.6998   -2.1250    0.0000 C   0  0  0  0  0  0  0  0  0  0  0  0
    6.3748   -3.3999    0.0000 C   0  0  0  0  0  0  0  0  0  0  0  0
    4.9249   -4.9999    0.0000 C   0  0  0  0  0  0  0  0  0  0  0  0
    0.0000   -1.2749    0.0000 C   0  0  0  0  0  0  0  0  0  0  0  0
    0.7250   -2.5000    0.0000 C   0  0  0  0  0  0  0  0  0  0  0  0
    6.3998   -2.5749    0.0000 C   0  0  0  0  0  0  0  0  0  0  0  0
    0.0000   -2.0999    0.0000 C   0  0  0  0  0  0  0  0  0  0  0  0
  1 12  2  0  0  0  0
  2 13  2  0  0  0  0
  3  8  1  0  0  0  0
  3 11  1  0  0  0  0
  3 17  1  0  0  0  0
  4  5  1  0  0  0  0
  4 12  1  0  0  0  0
  4 16  1  0  0  0  0
  5 10  2  0  0  0  0
  6 13  1  0  0  0  0
  6 20  1  0  0  0  0
  6 22  1  0  0  0  0
  7  8  2  0  0  0  0
  7  9  1  0  0  0  0
  7 10  1  0  0  0  0
  8 12  1  0  0  0  0
  9 11  2  0  0  0  0
  9 14  1  0  0  0  0
 10 13  1  0  0  0  0
 11 15  1  0  0  0  0
 14 18  2  0  0  0  0
 15 19  2  0  0  0  0
 16 21  1  0  0  0  0
 18 19  1  0  0  0  0
 20 23  2  0  0  0  0
 20 24  1  0  0  0  0
 21 25  2  0  0  0  0
 21 26  1  0  0  0  0
 22 29  1  0  0  0  0
 23 27  1  0  0  0  0
 24 28  2  0  0  0  0
 25 30  1  0  0  0  0
 26 31  2  0  0  0  0
 27 32  2  0  0  0  0
 28 32  1  0  0  0  0
 30 33  2  0  0  0  0
 31 33  1  0  0  0  0
M  END
> <PUBCHEM_COMPOUND_ID_TYPE>
0

> <PUBCHEM_TOTAL_CHARGE>
0

> <PUBCHEM_SUBSTANCE_ID>
310933682

> <PUBCHEM_SUBSTANCE_VERSION>
1

> <PUBCHEM_EXT_DATASOURCE_NAME>
4488

> <PUBCHEM_EXT_DATASOURCE_REGID>
SCHEMBL16111116

> <PUBCHEM_SUBSTANCE_COMMENT>
InChI=1S/C27H24N4O2/c1-3-30(20-14-8-5-9-15-20)26(32)24-23-21-16-10-11-17-22(21)29(2)25(23)27(33)31(28-24)18-19-12-6-4-7-13-19/h4-17H,3,18H2,1-2H3
InChIKey=LNFYJQAPEPHWHA-UHFFFAOYSA-N

> <PUBCHEM_SUBSTANCE_SYNONYM>
SCHEMBL16111116

> <PUBCHEM_XREF_EXT_ID>
SCHEMBL16111116

> <PUBCHEM_EXT_DATASOURCE_URL>
https://www.surechembl.org/

> <PUBCHEM_EXT_SUBSTANCE_URL>
https://www.surechembl.org/chemical/SCHEMBL16111116

> <PUBCHEM_CID_ASSOCIATIONS>
117602050  1

> <PUBCHEM_COORDINATE_TYPE>
1
3

$$$$
