310944429
  -OEChem-07211613022D

 13 14  0     1  0  0  0  0  0999 V2000
    1.0611   -0.8626    0.0000 O   0  0  0  0  0  0  0  0  0  0  0  0
   -2.5573    0.4962    0.0000 N   0  0  0  0  0  0  0  0  0  0  0  0
   -2.5421   -0.3435    0.0000 C   0  0  3  0  0  0  0  0  0  0  0  0
   -1.7787    0.8626    0.0000 C   0  0  3  0  0  0  0  0  0  0  0  0
   -1.1221   -0.3893    0.0000 C   0  0  0  0  0  0  0  0  0  0  0  0
   -1.8855   -0.7863    0.0000 C   0  0  0  0  0  0  0  0  0  0  0  0
   -1.0916    0.4351    0.0000 C   0  0  0  0  0  0  0  0  0  0  0  0
   -1.8092   -0.3893    0.0000 C   0  0  0  0  0  0  0  0  0  0  0  0
   -1.4428    0.2366    0.0000 C   0  0  0  0  0  0  0  0  0  0  0  0
   -0.3893   -0.8474    0.0000 C   0  0  0  0  0  0  0  0  0  0  0  0
    0.3282   -0.4351    0.0000 C   0  0  0  0  0  0  0  0  0  0  0  0
    1.8092   -0.4351    0.0000 C   0  0  0  0  0  0  0  0  0  0  0  0
    2.5573   -0.8626    0.0000 C   0  0  0  0  0  0  0  0  0  0  0  0
  1 11  1  0  0  0  0
  1 12  1  0  0  0  0
  2  3  1  0  0  0  0
  4  2  1  6  0  0  0
  3  6  1  6  0  0  0
  3  8  1  0  0  0  0
  4  7  1  0  0  0  0
  4  9  1  0  0  0  0
  5  6  1  0  0  0  0
  5  7  1  0  0  0  0
  5 10  1  1  0  0  0
  8  9  1  0  0  0  0
 10 11  1  0  0  0  0
 12 13  1  0  0  0  0
M  END
> <PUBCHEM_COMPOUND_ID_TYPE>
0

> <PUBCHEM_TOTAL_CHARGE>
0

> <PUBCHEM_SUBSTANCE_ID>
310944429

> <PUBCHEM_SUBSTANCE_VERSION>
1

> <PUBCHEM_EXT_DATASOURCE_NAME>
4488

> <PUBCHEM_EXT_DATASOURCE_REGID>
SCHEMBL16122504

> <PUBCHEM_SUBSTANCE_COMMENT>
InChI=1S/C11H21NO/c1-2-13-6-5-9-7-10-3-4-11(8-9)12-10/h9-12H,2-8H2,1H3/t9-,10+,11-
InChIKey=WOCDIZJMCHZVIH-JGPRNRPPSA-N

> <PUBCHEM_SUBSTANCE_SYNONYM>
SCHEMBL16122504

> <PUBCHEM_XREF_EXT_ID>
SCHEMBL16122504

> <PUBCHEM_EXT_DATASOURCE_URL>
https://www.surechembl.org/

> <PUBCHEM_EXT_SUBSTANCE_URL>
https://www.surechembl.org/chemical/SCHEMBL16122504

> <PUBCHEM_CID_ASSOCIATIONS>
117610683  1

> <PUBCHEM_COORDINATE_TYPE>
1
3

> <PUBCHEM_BONDANNOTATIONS>
4  2  6
3  6  6
5  10  5

$$$$
