310941685
  -OEChem-07211613022D

 26 29  0     0  0  0  0  0  0999 V2000
   -2.7222    0.6744    0.0000 Br  0  0  0  0  0  0  0  0  0  0  0  0
   -0.1891   -3.0759    0.0000 O   0  0  0  0  0  0  0  0  0  0  0  0
    0.2384    1.1349    0.0000 O   0  0  0  0  0  0  0  0  0  0  0  0
    0.9129   -1.7106    0.0000 N   0  0  0  0  0  0  0  0  0  0  0  0
   -1.5380   -2.5331    0.0000 N   0  0  0  0  0  0  0  0  0  0  0  0
   -0.1727    0.1480    0.0000 N   0  0  0  0  0  0  0  0  0  0  0  0
    2.0972    2.2864    0.0000 N   0  0  0  0  0  0  0  0  0  0  0  0
   -0.5510   -1.6284    0.0000 C   0  0  0  0  0  0  0  0  0  0  0  0
    0.1891   -1.2830    0.0000 C   0  0  0  0  0  0  0  0  0  0  0  0
   -1.2748   -1.2007    0.0000 C   0  0  0  0  0  0  0  0  0  0  0  0
    0.3700   -0.4606    0.0000 C   0  0  0  0  0  0  0  0  0  0  0  0
    1.1925   -0.3783    0.0000 C   0  0  0  0  0  0  0  0  0  0  0  0
   -0.7484   -2.4180    0.0000 C   0  0  0  0  0  0  0  0  0  0  0  0
   -1.8669   -1.7600    0.0000 C   0  0  0  0  0  0  0  0  0  0  0  0
    1.5215   -1.1349    0.0000 C   0  0  0  0  0  0  0  0  0  0  0  0
   -1.4393   -0.4111    0.0000 C   0  0  0  0  0  0  0  0  0  0  0  0
   -2.6565   -1.4969    0.0000 C   0  0  0  0  0  0  0  0  0  0  0  0
    1.6860    0.2796    0.0000 C   0  0  0  0  0  0  0  0  0  0  0  0
    2.3440   -1.2171    0.0000 C   0  0  0  0  0  0  0  0  0  0  0  0
   -2.2124   -0.1316    0.0000 C   0  0  0  0  0  0  0  0  0  0  0  0
   -2.8209   -0.6909    0.0000 C   0  0  0  0  0  0  0  0  0  0  0  0
    2.4920    0.1973    0.0000 C   0  0  0  0  0  0  0  0  0  0  0  0
    2.8209   -0.5757    0.0000 C   0  0  0  0  0  0  0  0  0  0  0  0
    1.0444    1.3159    0.0000 C   0  0  0  0  0  0  0  0  0  0  0  0
    1.3077    2.1054    0.0000 C   0  0  0  0  0  0  0  0  0  0  0  0
    2.3440    3.0759    0.0000 C   0  0  0  0  0  0  0  0  0  0  0  0
  1 20  1  0  0  0  0
  2 13  2  0  0  0  0
  3  6  1  0  0  0  0
  3 24  1  0  0  0  0
  4  9  1  0  0  0  0
  4 15  1  0  0  0  0
  5 13  1  0  0  0  0
  5 14  1  0  0  0  0
  6 11  2  0  0  0  0
  7 25  1  0  0  0  0
  7 26  1  0  0  0  0
  8  9  2  0  0  0  0
  8 10  1  0  0  0  0
  8 13  1  0  0  0  0
  9 11  1  0  0  0  0
 10 14  2  0  0  0  0
 10 16  1  0  0  0  0
 11 12  1  0  0  0  0
 12 15  2  0  0  0  0
 12 18  1  0  0  0  0
 14 17  1  0  0  0  0
 15 19  1  0  0  0  0
 16 20  2  0  0  0  0
 17 21  2  0  0  0  0
 18 22  2  0  0  0  0
 19 23  2  0  0  0  0
 20 21  1  0  0  0  0
 22 23  1  0  0  0  0
 24 25  1  0  0  0  0
M  END
> <PUBCHEM_COMPOUND_ID_TYPE>
0

> <PUBCHEM_TOTAL_CHARGE>
0

> <PUBCHEM_SUBSTANCE_ID>
310941685

> <PUBCHEM_SUBSTANCE_VERSION>
1

> <PUBCHEM_EXT_DATASOURCE_NAME>
4488

> <PUBCHEM_EXT_DATASOURCE_REGID>
SCHEMBL16119716

> <PUBCHEM_SUBSTANCE_COMMENT>
InChI=1S/C19H17BrN4O2/c1-21-8-9-26-24-17-12-4-2-3-5-14(12)22-18(17)16-13-10-11(20)6-7-15(13)23-19(16)25/h2-7,10,21-22H,8-9H2,1H3,(H,23,25)/b18-16-,24-17+
InChIKey=GIPZUJQFRDEXFM-PLWLMNJCSA-N

> <PUBCHEM_SUBSTANCE_SYNONYM>
SCHEMBL16119716

> <PUBCHEM_XREF_EXT_ID>
SCHEMBL16119716

> <PUBCHEM_EXT_DATASOURCE_URL>
https://www.surechembl.org/

> <PUBCHEM_EXT_SUBSTANCE_URL>
https://www.surechembl.org/chemical/SCHEMBL16119716

> <PUBCHEM_CID_ASSOCIATIONS>
117608460  1

> <PUBCHEM_COORDINATE_TYPE>
1
3

$$$$
