310939404
  -OEChem-07211613022D

 40 47  0     0  0  0  0  0  0999 V2000
   -2.4750    0.7145    0.0000 O   0  0  0  0  0  0  0  0  0  0  0  0
    2.4750    0.7145    0.0000 O   0  0  0  0  0  0  0  0  0  0  0  0
   -2.8875    0.0000    0.0000 C   0  0  0  0  0  0  0  0  0  0  0  0
    2.8875    0.0000    0.0000 C   0  0  0  0  0  0  0  0  0  0  0  0
   -3.3000    0.7145    0.0000 C   0  0  0  0  0  0  0  0  0  0  0  0
   -3.3000   -0.7145    0.0000 C   0  0  0  0  0  0  0  0  0  0  0  0
    3.3000    0.7145    0.0000 C   0  0  0  0  0  0  0  0  0  0  0  0
    3.3000   -0.7145    0.0000 C   0  0  0  0  0  0  0  0  0  0  0  0
   -4.1250    0.7145    0.0000 C   0  0  0  0  0  0  0  0  0  0  0  0
   -4.1250   -0.7145    0.0000 C   0  0  0  0  0  0  0  0  0  0  0  0
    4.1250    0.7145    0.0000 C   0  0  0  0  0  0  0  0  0  0  0  0
    4.1250   -0.7145    0.0000 C   0  0  0  0  0  0  0  0  0  0  0  0
   -2.0625    0.0000    0.0000 C   0  0  0  0  0  0  0  0  0  0  0  0
    2.0625    0.0000    0.0000 C   0  0  0  0  0  0  0  0  0  0  0  0
   -2.8875    1.4289    0.0000 C   0  0  0  0  0  0  0  0  0  0  0  0
   -2.8875   -1.4289    0.0000 C   0  0  0  0  0  0  0  0  0  0  0  0
    2.8875   -1.4289    0.0000 C   0  0  0  0  0  0  0  0  0  0  0  0
    2.8875    1.4289    0.0000 C   0  0  0  0  0  0  0  0  0  0  0  0
   -4.5375    1.4289    0.0000 C   0  0  0  0  0  0  0  0  0  0  0  0
   -4.5375   -1.4289    0.0000 C   0  0  0  0  0  0  0  0  0  0  0  0
    4.5375   -1.4289    0.0000 C   0  0  0  0  0  0  0  0  0  0  0  0
    4.5375    1.4289    0.0000 C   0  0  0  0  0  0  0  0  0  0  0  0
   -1.6500    0.7145    0.0000 C   0  0  0  0  0  0  0  0  0  0  0  0
    1.6500    0.7145    0.0000 C   0  0  0  0  0  0  0  0  0  0  0  0
   -1.6500   -0.7145    0.0000 C   0  0  0  0  0  0  0  0  0  0  0  0
    1.6500   -0.7145    0.0000 C   0  0  0  0  0  0  0  0  0  0  0  0
   -0.4125    0.0000    0.0000 C   0  0  0  0  0  0  0  0  0  0  0  0
    0.4125    0.0000    0.0000 C   0  0  0  0  0  0  0  0  0  0  0  0
   -0.8250    0.7145    0.0000 C   0  0  0  0  0  0  0  0  0  0  0  0
    0.8250    0.7145    0.0000 C   0  0  0  0  0  0  0  0  0  0  0  0
   -0.8250   -0.7145    0.0000 C   0  0  0  0  0  0  0  0  0  0  0  0
    0.8250   -0.7145    0.0000 C   0  0  0  0  0  0  0  0  0  0  0  0
   -3.3000    2.1434    0.0000 C   0  0  0  0  0  0  0  0  0  0  0  0
   -3.3000   -2.1434    0.0000 C   0  0  0  0  0  0  0  0  0  0  0  0
    3.3000   -2.1434    0.0000 C   0  0  0  0  0  0  0  0  0  0  0  0
    3.3000    2.1434    0.0000 C   0  0  0  0  0  0  0  0  0  0  0  0
   -4.1250    2.1434    0.0000 C   0  0  0  0  0  0  0  0  0  0  0  0
   -4.1250   -2.1434    0.0000 C   0  0  0  0  0  0  0  0  0  0  0  0
    4.1250   -2.1434    0.0000 C   0  0  0  0  0  0  0  0  0  0  0  0
    4.1250    2.1434    0.0000 C   0  0  0  0  0  0  0  0  0  0  0  0
  1  3  1  0  0  0  0
  2  4  1  0  0  0  0
  3  5  1  0  0  0  0
  3  6  1  0  0  0  0
  3 13  1  0  0  0  0
  4  7  1  0  0  0  0
  4  8  1  0  0  0  0
  4 14  1  0  0  0  0
  5  9  2  0  0  0  0
  5 15  1  0  0  0  0
  6 10  2  0  0  0  0
  6 16  1  0  0  0  0
  7 11  2  0  0  0  0
  7 18  1  0  0  0  0
  8 12  2  0  0  0  0
  8 17  1  0  0  0  0
  9 10  1  0  0  0  0
  9 19  1  0  0  0  0
 10 20  1  0  0  0  0
 11 12  1  0  0  0  0
 11 22  1  0  0  0  0
 12 21  1  0  0  0  0
 13 23  2  0  0  0  0
 13 25  1  0  0  0  0
 14 24  2  0  0  0  0
 14 26  1  0  0  0  0
 15 33  2  0  0  0  0
 16 34  2  0  0  0  0
 17 35  2  0  0  0  0
 18 36  2  0  0  0  0
 19 37  2  0  0  0  0
 20 38  2  0  0  0  0
 21 39  2  0  0  0  0
 22 40  2  0  0  0  0
 23 29  1  0  0  0  0
 24 30  1  0  0  0  0
 25 31  1  0  0  0  0
 26 32  1  0  0  0  0
 27 28  1  0  0  0  0
 27 29  2  0  0  0  0
 27 31  1  0  0  0  0
 28 30  2  0  0  0  0
 28 32  1  0  0  0  0
 33 37  1  0  0  0  0
 34 38  1  0  0  0  0
 35 39  1  0  0  0  0
 36 40  1  0  0  0  0
M  END
> <PUBCHEM_COMPOUND_ID_TYPE>
0

> <PUBCHEM_TOTAL_CHARGE>
0

> <PUBCHEM_SUBSTANCE_ID>
310939404

> <PUBCHEM_SUBSTANCE_VERSION>
1

> <PUBCHEM_EXT_DATASOURCE_NAME>
4488

> <PUBCHEM_EXT_DATASOURCE_REGID>
SCHEMBL16117325

> <PUBCHEM_SUBSTANCE_COMMENT>
InChI=1S/C38H30O2/c39-37(33-13-5-1-9-29(33)30-10-2-6-14-34(30)37)27-21-17-25(18-22-27)26-19-23-28(24-20-26)38(40)35-15-7-3-11-31(35)32-12-4-8-16-36(32)38/h1-17,19,21,23,39-40H,18,20,22,24H2
InChIKey=IZDHAXKSFROYQC-UHFFFAOYSA-N

> <PUBCHEM_SUBSTANCE_SYNONYM>
SCHEMBL16117325

> <PUBCHEM_XREF_EXT_ID>
SCHEMBL16117325

> <PUBCHEM_EXT_DATASOURCE_URL>
https://www.surechembl.org/

> <PUBCHEM_EXT_SUBSTANCE_URL>
https://www.surechembl.org/chemical/SCHEMBL16117325

> <PUBCHEM_CID_ASSOCIATIONS>
117606731  1

> <PUBCHEM_COORDINATE_TYPE>
1
3

$$$$
