310931683
  -OEChem-07211613022D

 18 19  0     0  0  0  0  0  0999 V2000
    0.4319   -4.2615    0.0000 O   0  0  0  0  0  0  0  0  0  0  0  0
    2.8794   -5.7300    0.0000 O   0  0  0  0  0  0  0  0  0  0  0  0
    1.7276   -2.1308    0.0000 N   0  0  0  0  0  0  0  0  0  0  0  0
    0.5183   -1.4109    0.0000 N   0  0  0  0  0  0  0  0  0  0  0  0
    1.6988   -3.5704    0.0000 C   0  0  0  0  0  0  0  0  0  0  0  0
    1.2669   -4.2615    0.0000 C   0  0  0  0  0  0  0  0  0  0  0  0
    2.4762   -5.0101    0.0000 C   0  0  0  0  0  0  0  0  0  0  0  0
    1.6412   -5.0101    0.0000 C   0  0  0  0  0  0  0  0  0  0  0  0
    2.5050   -3.5992    0.0000 C   0  0  0  0  0  0  0  0  0  0  0  0
    1.2957   -2.8506    0.0000 C   0  0  0  0  0  0  0  0  0  0  0  0
    2.9081   -4.2903    0.0000 C   0  0  0  0  0  0  0  0  0  0  0  0
    1.3245   -1.4109    0.0000 C   0  0  0  0  0  0  0  0  0  0  0  0
    1.7564   -0.7198    0.0000 C   0  0  0  0  0  0  0  0  0  0  0  0
    0.0864   -0.7198    0.0000 C   0  0  0  0  0  0  0  0  0  0  0  0
    1.3245    0.0000    0.0000 C   0  0  0  0  0  0  0  0  0  0  0  0
    0.5183    0.0000    0.0000 C   0  0  0  0  0  0  0  0  0  0  0  0
    0.0000   -4.9525    0.0000 C   0  0  0  0  0  0  0  0  0  0  0  0
    3.6856   -5.7587    0.0000 C   0  0  0  0  0  0  0  0  0  0  0  0
  1  6  1  0  0  0  0
  1 17  1  0  0  0  0
  2  7  1  0  0  0  0
  2 18  1  0  0  0  0
  3 10  1  0  0  0  0
  3 12  1  0  0  0  0
  4 12  1  0  0  0  0
  4 14  2  0  0  0  0
  5  6  2  0  0  0  0
  5  9  1  0  0  0  0
  5 10  1  0  0  0  0
  6  8  1  0  0  0  0
  7  8  2  0  0  0  0
  7 11  1  0  0  0  0
  9 11  2  0  0  0  0
 12 13  2  0  0  0  0
 13 15  1  0  0  0  0
 14 16  1  0  0  0  0
 15 16  2  0  0  0  0
M  END
> <PUBCHEM_COMPOUND_ID_TYPE>
0

> <PUBCHEM_TOTAL_CHARGE>
0

> <PUBCHEM_SUBSTANCE_ID>
310931683

> <PUBCHEM_SUBSTANCE_VERSION>
1

> <PUBCHEM_EXT_DATASOURCE_NAME>
4488

> <PUBCHEM_EXT_DATASOURCE_REGID>
SCHEMBL16109009

> <PUBCHEM_SUBSTANCE_COMMENT>
InChI=1S/C14H16N2O2/c1-17-12-7-6-11(13(9-12)18-2)10-16-14-5-3-4-8-15-14/h3-9H,10H2,1-2H3,(H,15,16)
InChIKey=BZBCWKSTQUBJEE-UHFFFAOYSA-N

> <PUBCHEM_SUBSTANCE_SYNONYM>
SCHEMBL16109009

> <PUBCHEM_XREF_EXT_ID>
SCHEMBL16109009

> <PUBCHEM_EXT_DATASOURCE_URL>
https://www.surechembl.org/

> <PUBCHEM_EXT_SUBSTANCE_URL>
https://www.surechembl.org/chemical/SCHEMBL16109009

> <PUBCHEM_CID_ASSOCIATIONS>
28338897  1

> <PUBCHEM_COORDINATE_TYPE>
1
3

$$$$
