310942000
  -OEChem-07211613022D

 23 26  0     0  0  0  0  0  0999 V2000
   -1.9782   -3.1031    0.0000 F   0  0  0  0  0  0  0  0  0  0  0  0
    2.5827    1.5420    0.0000 O   0  0  0  0  0  0  0  0  0  0  0  0
   -0.5396   -0.6390    0.0000 N   0  0  0  0  0  0  0  0  0  0  0  0
   -1.5114    1.2435    0.0000 N   0  0  0  0  0  0  0  0  0  0  0  0
    1.5114    2.4756    0.0000 N   0  0  0  0  0  0  0  0  0  0  0  0
    0.7003    2.6286    0.0000 N   0  0  0  0  0  0  0  0  0  0  0  0
   -0.1262    0.6313    0.0000 C   0  0  0  0  0  0  0  0  0  0  0  0
    0.1262   -0.1492    0.0000 C   0  0  0  0  0  0  0  0  0  0  0  0
   -0.9680    0.6313    0.0000 C   0  0  0  0  0  0  0  0  0  0  0  0
    0.4247    1.2512    0.0000 C   0  0  0  0  0  0  0  0  0  0  0  0
   -1.2206   -0.1492    0.0000 C   0  0  0  0  0  0  0  0  0  0  0  0
    1.2282    1.0828    0.0000 C   0  0  0  0  0  0  0  0  0  0  0  0
    0.9374   -0.3175    0.0000 C   0  0  0  0  0  0  0  0  0  0  0  0
    1.7563    1.7028    0.0000 C   0  0  0  0  0  0  0  0  0  0  0  0
    1.4808    0.2793    0.0000 C   0  0  0  0  0  0  0  0  0  0  0  0
    0.1645    1.9936    0.0000 C   0  0  0  0  0  0  0  0  0  0  0  0
   -2.0242   -0.3329    0.0000 C   0  0  0  0  0  0  0  0  0  0  0  0
   -0.5472   -1.4654    0.0000 C   0  0  0  0  0  0  0  0  0  0  0  0
   -2.3149    1.0752    0.0000 C   0  0  0  0  0  0  0  0  0  0  0  0
   -2.5827    0.2869    0.0000 C   0  0  0  0  0  0  0  0  0  0  0  0
   -1.2512   -1.8711    0.0000 C   0  0  0  0  0  0  0  0  0  0  0  0
    2.0471    3.1031    0.0000 C   0  0  0  0  0  0  0  0  0  0  0  0
   -1.2588   -2.6976    0.0000 C   0  0  0  0  0  0  0  0  0  0  0  0
  1 23  1  0  0  0  0
  2 14  2  0  0  0  0
  3  8  1  0  0  0  0
  3 11  1  0  0  0  0
  3 18  1  0  0  0  0
  4  9  2  0  0  0  0
  4 19  1  0  0  0  0
  5  6  1  0  0  0  0
  5 14  1  0  0  0  0
  5 22  1  0  0  0  0
  6 16  2  0  0  0  0
  7  8  2  0  0  0  0
  7  9  1  0  0  0  0
  7 10  1  0  0  0  0
  8 13  1  0  0  0  0
  9 11  1  0  0  0  0
 10 12  2  0  0  0  0
 10 16  1  0  0  0  0
 11 17  2  0  0  0  0
 12 14  1  0  0  0  0
 12 15  1  0  0  0  0
 13 15  2  0  0  0  0
 17 20  1  0  0  0  0
 18 21  1  0  0  0  0
 19 20  2  0  0  0  0
 21 23  1  0  0  0  0
M  END
> <PUBCHEM_COMPOUND_ID_TYPE>
0

> <PUBCHEM_TOTAL_CHARGE>
0

> <PUBCHEM_SUBSTANCE_ID>
310942000

> <PUBCHEM_SUBSTANCE_VERSION>
1

> <PUBCHEM_EXT_DATASOURCE_NAME>
4488

> <PUBCHEM_EXT_DATASOURCE_REGID>
SCHEMBL16120034

> <PUBCHEM_SUBSTANCE_COMMENT>
InChI=1S/C17H15FN4O/c1-21-17(23)11-5-6-13-15(12(11)10-20-21)16-14(4-2-8-19-16)22(13)9-3-7-18/h2,4-6,8,10H,3,7,9H2,1H3
InChIKey=ZLRGDKLGPVSSJV-UHFFFAOYSA-N

> <PUBCHEM_SUBSTANCE_SYNONYM>
SCHEMBL16120034

> <PUBCHEM_XREF_EXT_ID>
SCHEMBL16120034

> <PUBCHEM_EXT_DATASOURCE_URL>
https://www.surechembl.org/

> <PUBCHEM_EXT_SUBSTANCE_URL>
https://www.surechembl.org/chemical/SCHEMBL16120034

> <PUBCHEM_CID_ASSOCIATIONS>
86274289  1

> <PUBCHEM_COORDINATE_TYPE>
1
3

$$$$
