310947789
  -OEChem-07211613022D

 21 20  0     0  0  0  0  0  0999 V2000
   -0.3832   16.0072    0.0000 S   0  0  0  0  0  0  0  0  0  0  0  0
   -1.5102   14.8802    0.0000 F   0  0  0  0  0  0  0  0  0  0  0  0
   -0.6852   14.8802    0.0000 F   0  0  0  0  0  0  0  0  0  0  0  0
   -1.3997   16.7216    0.0000 F   0  0  0  0  0  0  0  0  0  0  0  0
   -2.2247   16.7216    0.0000 F   0  0  0  0  0  0  0  0  0  0  0  0
   -2.5266   15.5947    0.0000 O   0  0  0  0  0  0  0  0  0  0  0  0
   -0.7957   16.7216    0.0000 O   0  0  0  0  0  0  0  0  0  0  0  0
    0.0293   15.2927    0.0000 O   0  0  0  0  0  0  0  0  0  0  0  0
    0.3313   16.4197    0.0000 O   0  0  0  0  0  0  0  0  0  0  0  0
   -1.8122   16.8322    0.0000 O   0  0  0  0  0  0  0  0  0  0  0  0
   -2.5266   18.0697    0.0000 O   0  0  0  0  0  0  0  0  0  0  0  0
   -1.0977   15.5947    0.0000 C   0  0  0  0  0  0  0  0  0  0  0  0
   -1.8122   16.0072    0.0000 C   0  0  0  0  0  0  0  0  0  0  0  0
   -3.2411   16.0072    0.0000 C   0  0  0  0  0  0  0  0  0  0  0  0
   -3.2411   16.8322    0.0000 C   0  0  0  0  0  0  0  0  0  0  0  0
   -2.5266   17.2447    0.0000 C   0  0  0  0  0  0  0  0  0  0  0  0
   -1.0977   17.2447    0.0000 C   0  0  0  0  0  0  0  0  0  0  0  0
   -3.9556   17.2447    0.0000 C   0  0  0  0  0  0  0  0  0  0  0  0
   -0.3832   16.8322    0.0000 C   0  0  0  0  0  0  0  0  0  0  0  0
   -1.5102   17.9591    0.0000 C   0  0  0  0  0  0  0  0  0  0  0  0
   -0.3832   17.6572    0.0000 C   0  0  0  0  0  0  0  0  0  0  0  0
  1  7  2  0  0  0  0
  1  8  2  0  0  0  0
  1  9  1  0  0  0  0
  1 12  1  0  0  0  0
  2 12  1  0  0  0  0
  3 12  1  0  0  0  0
  4 13  1  0  0  0  0
  5 13  1  0  0  0  0
  6 13  1  0  0  0  0
  6 14  1  0  0  0  0
 10 16  1  0  0  0  0
 10 17  1  0  0  0  0
 11 16  2  0  0  0  0
 12 13  1  0  0  0  0
 14 15  1  0  0  0  0
 15 16  1  0  0  0  0
 15 18  2  0  0  0  0
 17 19  1  0  0  0  0
 17 20  1  0  0  0  0
 17 21  1  0  0  0  0
M  END
> <PUBCHEM_COMPOUND_ID_TYPE>
0

> <PUBCHEM_TOTAL_CHARGE>
0

> <PUBCHEM_SUBSTANCE_ID>
310947789

> <PUBCHEM_SUBSTANCE_VERSION>
1

> <PUBCHEM_EXT_DATASOURCE_NAME>
4488

> <PUBCHEM_EXT_DATASOURCE_REGID>
SCHEMBL16125961

> <PUBCHEM_SUBSTANCE_COMMENT>
InChI=1S/C10H14F4O6S/c1-6(7(15)20-8(2,3)4)5-19-9(11,12)10(13,14)21(16,17)18/h1,5H2,2-4H3,(H,16,17,18)
InChIKey=CBELFHHBMPPXAR-UHFFFAOYSA-N

> <PUBCHEM_SUBSTANCE_SYNONYM>
SCHEMBL16125961

> <PUBCHEM_XREF_EXT_ID>
SCHEMBL16125961

> <PUBCHEM_EXT_DATASOURCE_URL>
https://www.surechembl.org/

> <PUBCHEM_EXT_SUBSTANCE_URL>
https://www.surechembl.org/chemical/SCHEMBL16125961

> <PUBCHEM_CID_ASSOCIATIONS>
117613458  1

> <PUBCHEM_COORDINATE_TYPE>
1
3

$$$$
