310942134
  -OEChem-07211613022D

 25 26  0     1  0  0  0  0  0999 V2000
    1.7873    1.4499    0.0000 Cl  0  0  0  0  0  0  0  0  0  0  0  0
    0.3500   -1.0499    0.0000 F   0  0  0  0  0  0  0  0  0  0  0  0
    1.7873   -0.2125    0.0000 O   0  0  0  0  0  0  0  0  0  0  0  0
   -3.2246    0.2250    0.0000 O   0  0  0  0  0  0  0  0  0  0  0  0
   -1.8123    0.1999    0.0000 N   0  0  0  0  0  0  0  0  0  0  0  0
    3.9621    1.0374    0.0000 N   0  0  0  0  0  0  0  0  0  0  0  0
   -3.9621    1.4624    0.0000 N   0  0  0  0  0  0  0  0  0  0  0  0
    1.0624    0.2125    0.0000 C   0  0  0  0  0  0  0  0  0  0  0  0
    0.3500   -0.1999    0.0000 C   0  0  0  0  0  0  0  0  0  0  0  0
   -0.3750    0.2125    0.0000 C   0  0  0  0  0  0  0  0  0  0  0  0
    1.0749    1.0499    0.0000 C   0  0  0  0  0  0  0  0  0  0  0  0
   -1.0874   -0.1999    0.0000 C   0  0  3  0  0  0  0  0  0  0  0  0
   -0.3625    1.0374    0.0000 C   0  0  0  0  0  0  0  0  0  0  0  0
    0.3375    1.4374    0.0000 C   0  0  0  0  0  0  0  0  0  0  0  0
    2.4997    0.2125    0.0000 C   0  0  0  0  0  0  0  0  0  0  0  0
   -1.0874   -1.0499    0.0000 C   0  0  0  0  0  0  0  0  0  0  0  0
   -1.8123    1.0374    0.0000 C   0  0  3  0  0  0  0  0  0  0  0  0
    3.2496   -0.2125    0.0000 C   0  0  0  0  0  0  0  0  0  0  0  0
    2.5247    1.0499    0.0000 C   0  0  0  0  0  0  0  0  0  0  0  0
    3.9621    0.1999    0.0000 C   0  0  0  0  0  0  0  0  0  0  0  0
    3.2246    1.4499    0.0000 C   0  0  0  0  0  0  0  0  0  0  0  0
   -2.5372    1.4499    0.0000 C   0  0  0  0  0  0  0  0  0  0  0  0
   -0.3750   -1.4624    0.0000 C   0  0  0  0  0  0  0  0  0  0  0  0
   -1.0999    1.4499    0.0000 C   0  0  0  0  0  0  0  0  0  0  0  0
   -3.2496    1.0374    0.0000 C   0  0  0  0  0  0  0  0  0  0  0  0
  1 11  1  0  0  0  0
  2  9  1  0  0  0  0
  3  8  1  0  0  0  0
  3 15  1  0  0  0  0
  4 25  2  0  0  0  0
 12  5  1  1  0  0  0
  5 17  1  0  0  0  0
  6 20  2  0  0  0  0
  6 21  1  0  0  0  0
  7 25  1  0  0  0  0
  8  9  2  0  0  0  0
  8 11  1  0  0  0  0
  9 10  1  0  0  0  0
 10 12  1  0  0  0  0
 10 13  2  0  0  0  0
 11 14  2  0  0  0  0
 12 16  1  0  0  0  0
 13 14  1  0  0  0  0
 15 18  2  0  0  0  0
 15 19  1  0  0  0  0
 16 23  1  0  0  0  0
 17 22  1  0  0  0  0
 17 24  1  6  0  0  0
 18 20  1  0  0  0  0
 19 21  2  0  0  0  0
 22 25  1  0  0  0  0
M  END
> <PUBCHEM_COMPOUND_ID_TYPE>
0

> <PUBCHEM_TOTAL_CHARGE>
0

> <PUBCHEM_SUBSTANCE_ID>
310942134

> <PUBCHEM_SUBSTANCE_VERSION>
1

> <PUBCHEM_EXT_DATASOURCE_NAME>
4488

> <PUBCHEM_EXT_DATASOURCE_REGID>
SCHEMBL16120169

> <PUBCHEM_SUBSTANCE_COMMENT>
InChI=1S/C18H21ClFN3O2/c1-3-15(23-11(2)10-16(21)24)13-4-5-14(19)18(17(13)20)25-12-6-8-22-9-7-12/h4-9,11,15,23H,3,10H2,1-2H3,(H2,21,24)/t11-,15+/m0/s1
InChIKey=UMDMZUKKOZDWFP-XHDPSFHLSA-N

> <PUBCHEM_SUBSTANCE_SYNONYM>
SCHEMBL16120169

> <PUBCHEM_XREF_EXT_ID>
SCHEMBL16120169

> <PUBCHEM_EXT_DATASOURCE_URL>
https://www.surechembl.org/

> <PUBCHEM_EXT_SUBSTANCE_URL>
https://www.surechembl.org/chemical/SCHEMBL16120169

> <PUBCHEM_CID_ASSOCIATIONS>
117608793  1

> <PUBCHEM_COORDINATE_TYPE>
1
3

> <PUBCHEM_BONDANNOTATIONS>
17  24  6
12  5  5

$$$$
