310949232
  -OEChem-07211613022D

 46 53  0     0  0  0  0  0  0999 V2000
   -1.1611   -3.2924    0.0000 S   0  0  0  0  0  0  0  0  0  0  0  0
    0.2322    1.7498    0.0000 N   0  0  0  0  0  0  0  0  0  0  0  0
    2.3884    1.2357    0.0000 N   0  0  0  0  0  0  0  0  0  0  0  0
   -1.9572    1.2688    0.0000 N   0  0  0  0  0  0  0  0  0  0  0  0
    0.8957    2.2475    0.0000 C   0  0  0  0  0  0  0  0  0  0  0  0
   -0.4810    2.2640    0.0000 C   0  0  0  0  0  0  0  0  0  0  0  0
    0.6303    3.0105    0.0000 C   0  0  0  0  0  0  0  0  0  0  0  0
   -0.1990    3.0436    0.0000 C   0  0  0  0  0  0  0  0  0  0  0  0
    0.1990    0.9537    0.0000 C   0  0  0  0  0  0  0  0  0  0  0  0
    0.9454    0.5225    0.0000 C   0  0  0  0  0  0  0  0  0  0  0  0
   -0.4976    0.5556    0.0000 C   0  0  0  0  0  0  0  0  0  0  0  0
    1.1942    3.5909    0.0000 C   0  0  0  0  0  0  0  0  0  0  0  0
   -0.7796    3.6241    0.0000 C   0  0  0  0  0  0  0  0  0  0  0  0
    1.7250    2.0650    0.0000 C   0  0  0  0  0  0  0  0  0  0  0  0
   -1.2771    2.0982    0.0000 C   0  0  0  0  0  0  0  0  0  0  0  0
    1.9903    3.4251    0.0000 C   0  0  0  0  0  0  0  0  0  0  0  0
   -1.5923    3.4748    0.0000 C   0  0  0  0  0  0  0  0  0  0  0  0
    0.1990   -0.6884    0.0000 C   0  0  0  0  0  0  0  0  0  0  0  0
    0.9289   -0.2903    0.0000 C   0  0  0  0  0  0  0  0  0  0  0  0
   -0.5142   -0.2737    0.0000 C   0  0  0  0  0  0  0  0  0  0  0  0
    2.2723    2.6456    0.0000 C   0  0  0  0  0  0  0  0  0  0  0  0
   -1.8411    2.6787    0.0000 C   0  0  0  0  0  0  0  0  0  0  0  0
    0.1990   -1.5177    0.0000 C   0  0  0  0  0  0  0  0  0  0  0  0
    2.5875    4.0388    0.0000 C   0  0  0  0  0  0  0  0  0  0  0  0
    0.1990   -3.1431    0.0000 C   0  0  0  0  0  0  0  0  0  0  0  0
   -0.5473   -2.7450    0.0000 C   0  0  0  0  0  0  0  0  0  0  0  0
    0.0166   -3.9393    0.0000 C   0  0  0  0  0  0  0  0  0  0  0  0
   -2.1562    4.0720    0.0000 C   0  0  0  0  0  0  0  0  0  0  0  0
    1.6587    0.8874    0.0000 C   0  0  0  0  0  0  0  0  0  0  0  0
   -1.2440    0.9372    0.0000 C   0  0  0  0  0  0  0  0  0  0  0  0
   -0.5142   -1.9157    0.0000 C   0  0  0  0  0  0  0  0  0  0  0  0
   -0.8293   -4.0388    0.0000 C   0  0  0  0  0  0  0  0  0  0  0  0
    0.9122   -1.9324    0.0000 C   0  0  0  0  0  0  0  0  0  0  0  0
    0.9122   -2.7616    0.0000 C   0  0  0  0  0  0  0  0  0  0  0  0
    0.4976   -4.6194    0.0000 C   0  0  0  0  0  0  0  0  0  0  0  0
   -1.8909    4.8516    0.0000 C   0  0  0  0  0  0  0  0  0  0  0  0
   -2.9192    3.9393    0.0000 C   0  0  0  0  0  0  0  0  0  0  0  0
   -1.1444   -4.8018    0.0000 C   0  0  0  0  0  0  0  0  0  0  0  0
    2.3221    4.8018    0.0000 C   0  0  0  0  0  0  0  0  0  0  0  0
    3.4334    3.8564    0.0000 C   0  0  0  0  0  0  0  0  0  0  0  0
    3.0519    3.3422    0.0000 C   0  0  0  0  0  0  0  0  0  0  0  0
    0.1659   -5.3491    0.0000 C   0  0  0  0  0  0  0  0  0  0  0  0
   -0.6800   -5.4320    0.0000 C   0  0  0  0  0  0  0  0  0  0  0  0
   -2.4216    5.4320    0.0000 C   0  0  0  0  0  0  0  0  0  0  0  0
   -3.4334    4.4866    0.0000 C   0  0  0  0  0  0  0  0  0  0  0  0
   -3.1680    5.2828    0.0000 C   0  0  0  0  0  0  0  0  0  0  0  0
  1 26  1  0  0  0  0
  1 32  1  0  0  0  0
  2  5  1  0  0  0  0
  2  6  1  0  0  0  0
  2  9  1  0  0  0  0
  3 29  3  0  0  0  0
  4 30  3  0  0  0  0
  5  7  2  0  0  0  0
  5 14  1  0  0  0  0
  6  8  2  0  0  0  0
  6 15  1  0  0  0  0
  7  8  1  0  0  0  0
  7 12  1  0  0  0  0
  8 13  1  0  0  0  0
  9 10  2  0  0  0  0
  9 11  1  0  0  0  0
 10 19  1  0  0  0  0
 10 29  1  0  0  0  0
 11 20  2  0  0  0  0
 11 30  1  0  0  0  0
 12 16  2  0  0  0  0
 13 17  2  0  0  0  0
 14 21  2  0  0  0  0
 15 22  2  0  0  0  0
 16 21  1  0  0  0  0
 16 24  1  0  0  0  0
 17 22  1  0  0  0  0
 17 28  1  0  0  0  0
 18 19  2  0  0  0  0
 18 20  1  0  0  0  0
 18 23  1  0  0  0  0
 23 31  2  0  0  0  0
 23 33  1  0  0  0  0
 24 39  1  0  0  0  0
 24 40  1  0  0  0  0
 24 41  1  0  0  0  0
 25 26  2  0  0  0  0
 25 27  1  0  0  0  0
 25 34  1  0  0  0  0
 26 31  1  0  0  0  0
 27 32  2  0  0  0  0
 27 35  1  0  0  0  0
 28 36  2  0  0  0  0
 28 37  1  0  0  0  0
 32 38  1  0  0  0  0
 33 34  2  0  0  0  0
 35 42  2  0  0  0  0
 36 44  1  0  0  0  0
 37 45  2  0  0  0  0
 38 43  2  0  0  0  0
 42 43  1  0  0  0  0
 44 46  2  0  0  0  0
 45 46  1  0  0  0  0
M  END
> <PUBCHEM_COMPOUND_ID_TYPE>
0

> <PUBCHEM_TOTAL_CHARGE>
0

> <PUBCHEM_SUBSTANCE_ID>
310949232

> <PUBCHEM_SUBSTANCE_VERSION>
1

> <PUBCHEM_EXT_DATASOURCE_NAME>
4488

> <PUBCHEM_EXT_DATASOURCE_REGID>
SCHEMBL16127422

> <PUBCHEM_SUBSTANCE_COMMENT>
InChI=1S/C42H29N3S/c1-42(2,3)32-15-18-38-36(23-32)35-21-27(26-9-5-4-6-10-26)14-17-37(35)45(38)41-30(24-43)19-29(20-31(41)25-44)28-13-16-34-33-11-7-8-12-39(33)46-40(34)22-28/h4-23H,1-3H3
InChIKey=BIWIAUUARBNENZ-UHFFFAOYSA-N

> <PUBCHEM_SUBSTANCE_SYNONYM>
SCHEMBL16127422

> <PUBCHEM_XREF_EXT_ID>
SCHEMBL16127422

> <PUBCHEM_EXT_DATASOURCE_URL>
https://www.surechembl.org/

> <PUBCHEM_EXT_SUBSTANCE_URL>
https://www.surechembl.org/chemical/SCHEMBL16127422

> <PUBCHEM_CID_ASSOCIATIONS>
117614720  1

> <PUBCHEM_COORDINATE_TYPE>
1
3

$$$$
