310934384
  -OEChem-07211613022D

 25 28  0     0  0  0  0  0  0999 V2000
    8.2450   -2.1712    0.0000 Cl  0  0  0  0  0  0  0  0  0  0  0  0
    0.9619   -2.1162    0.0000 O   0  0  0  0  0  0  0  0  0  0  0  0
    3.9026   -0.4947    0.0000 O   0  0  0  0  0  0  0  0  0  0  0  0
    5.3592   -0.4947    0.0000 N   0  0  0  0  0  0  0  0  0  0  0  0
    1.6490   -0.9344    0.0000 N   0  0  0  0  0  0  0  0  0  0  0  0
    3.1606   -3.4079    0.0000 N   0  0  0  0  0  0  0  0  0  0  0  0
    4.6172   -1.7589    0.0000 C   0  0  0  0  0  0  0  0  0  0  0  0
    3.9026   -2.1712    0.0000 C   0  0  0  0  0  0  0  0  0  0  0  0
    2.4460   -2.1712    0.0000 C   0  0  0  0  0  0  0  0  0  0  0  0
    6.0738   -1.7589    0.0000 C   0  0  0  0  0  0  0  0  0  0  0  0
    1.7315   -1.7589    0.0000 C   0  0  0  0  0  0  0  0  0  0  0  0
    4.6172   -0.9070    0.0000 C   0  0  0  0  0  0  0  0  0  0  0  0
    6.0738   -0.9070    0.0000 C   0  0  0  0  0  0  0  0  0  0  0  0
    5.3592   -2.1712    0.0000 C   0  0  0  0  0  0  0  0  0  0  0  0
    3.1606   -1.7589    0.0000 C   0  0  0  0  0  0  0  0  0  0  0  0
    0.8520   -0.7420    0.0000 C   0  0  0  0  0  0  0  0  0  0  0  0
    3.8751   -2.9957    0.0000 C   0  0  0  0  0  0  0  0  0  0  0  0
    0.4122   -1.4566    0.0000 C   0  0  0  0  0  0  0  0  0  0  0  0
    2.4186   -3.0232    0.0000 C   0  0  0  0  0  0  0  0  0  0  0  0
    6.7884   -2.1712    0.0000 C   0  0  0  0  0  0  0  0  0  0  0  0
    6.7884   -0.4947    0.0000 C   0  0  0  0  0  0  0  0  0  0  0  0
    7.5030   -1.7589    0.0000 C   0  0  0  0  0  0  0  0  0  0  0  0
    7.5030   -0.9070    0.0000 C   0  0  0  0  0  0  0  0  0  0  0  0
    0.4947    0.0000    0.0000 C   0  0  0  0  0  0  0  0  0  0  0  0
    0.0000   -0.7146    0.0000 C   0  0  0  0  0  0  0  0  0  0  0  0
  1 22  1  0  0  0  0
  2 11  1  0  0  0  0
  2 18  1  0  0  0  0
  3 12  2  0  0  0  0
  4 12  1  0  0  0  0
  4 13  1  0  0  0  0
  5 11  2  0  0  0  0
  5 16  1  0  0  0  0
  6 17  1  0  0  0  0
  6 19  2  0  0  0  0
  7  8  1  0  0  0  0
  7 12  1  0  0  0  0
  7 14  2  0  0  0  0
  8 15  1  0  0  0  0
  8 17  2  0  0  0  0
  9 11  1  0  0  0  0
  9 15  2  0  0  0  0
  9 19  1  0  0  0  0
 10 13  2  0  0  0  0
 10 14  1  0  0  0  0
 10 20  1  0  0  0  0
 13 21  1  0  0  0  0
 16 18  1  0  0  0  0
 16 24  1  0  0  0  0
 16 25  1  0  0  0  0
 20 22  2  0  0  0  0
 21 23  2  0  0  0  0
 22 23  1  0  0  0  0
M  END
> <PUBCHEM_COMPOUND_ID_TYPE>
0

> <PUBCHEM_TOTAL_CHARGE>
0

> <PUBCHEM_SUBSTANCE_ID>
310934384

> <PUBCHEM_SUBSTANCE_VERSION>
1

> <PUBCHEM_EXT_DATASOURCE_NAME>
4488

> <PUBCHEM_EXT_DATASOURCE_REGID>
SCHEMBL16111855

> <PUBCHEM_SUBSTANCE_COMMENT>
InChI=1S/C19H16ClN3O2/c1-19(2)10-25-18(23-19)13-5-12(8-21-9-13)15-7-11-6-14(20)3-4-16(11)22-17(15)24/h3-9H,10H2,1-2H3,(H,22,24)
InChIKey=ZFRJZQARECYXBY-UHFFFAOYSA-N

> <PUBCHEM_SUBSTANCE_SYNONYM>
SCHEMBL16111855

> <PUBCHEM_XREF_EXT_ID>
SCHEMBL16111855

> <PUBCHEM_EXT_DATASOURCE_URL>
https://www.surechembl.org/

> <PUBCHEM_EXT_SUBSTANCE_URL>
https://www.surechembl.org/chemical/SCHEMBL16111855

> <PUBCHEM_CID_ASSOCIATIONS>
117602608  1

> <PUBCHEM_COORDINATE_TYPE>
1
3

$$$$
