310943637
  -OEChem-07211613022D

 37 41  0     0  0  0  0  0  0999 V2000
    4.3732   -2.0881    0.0000 F   0  0  0  0  0  0  0  0  0  0  0  0
    3.5694   -2.9076    0.0000 F   0  0  0  0  0  0  0  0  0  0  0  0
    2.7658   -2.0881    0.0000 F   0  0  0  0  0  0  0  0  0  0  0  0
   -1.4892   -2.8445    0.0000 O   0  0  0  0  0  0  0  0  0  0  0  0
   -4.3732    2.4820    0.0000 O   0  0  0  0  0  0  0  0  0  0  0  0
    1.3946   -0.0079    0.0000 O   0  0  0  0  0  0  0  0  0  0  0  0
   -1.4892   -0.8431    0.0000 N   0  0  0  0  0  0  0  0  0  0  0  0
   -0.7644    0.4018    0.0000 N   0  0  0  0  0  0  0  0  0  0  0  0
   -2.2142    0.4018    0.0000 N   0  0  0  0  0  0  0  0  0  0  0  0
   -2.9234    1.6626    0.0000 N   0  0  0  0  0  0  0  0  0  0  0  0
    2.1196    1.2371    0.0000 N   0  0  0  0  0  0  0  0  0  0  0  0
   -0.7644    1.2529    0.0000 C   0  0  0  0  0  0  0  0  0  0  0  0
   -1.4892   -0.0079    0.0000 C   0  0  0  0  0  0  0  0  0  0  0  0
   -0.0394    1.6626    0.0000 C   0  0  0  0  0  0  0  0  0  0  0  0
   -2.1984    1.2529    0.0000 C   0  0  0  0  0  0  0  0  0  0  0  0
   -1.4892    1.6626    0.0000 C   0  0  0  0  0  0  0  0  0  0  0  0
   -0.0394    2.4978    0.0000 C   0  0  0  0  0  0  0  0  0  0  0  0
    0.6698    1.2529    0.0000 C   0  0  0  0  0  0  0  0  0  0  0  0
   -2.0724   -1.4262    0.0000 C   0  0  0  0  0  0  0  0  0  0  0  0
   -0.9061   -1.4419    0.0000 C   0  0  0  0  0  0  0  0  0  0  0  0
   -1.4892   -1.9935    0.0000 C   0  0  0  0  0  0  0  0  0  0  0  0
    1.3789    1.6784    0.0000 C   0  0  0  0  0  0  0  0  0  0  0  0
    0.6698    2.8918    0.0000 C   0  0  0  0  0  0  0  0  0  0  0  0
    1.3789    2.4820    0.0000 C   0  0  0  0  0  0  0  0  0  0  0  0
    2.8288    0.0079    0.0000 C   0  0  0  0  0  0  0  0  0  0  0  0
    2.1196    0.4333    0.0000 C   0  0  0  0  0  0  0  0  0  0  0  0
    3.5536   -1.2371    0.0000 C   0  0  0  0  0  0  0  0  0  0  0  0
   -2.9234    2.4820    0.0000 C   0  0  0  0  0  0  0  0  0  0  0  0
   -3.6326    1.2529    0.0000 C   0  0  0  0  0  0  0  0  0  0  0  0
    3.5536   -2.0881    0.0000 C   0  0  0  0  0  0  0  0  0  0  0  0
    2.8445   -0.8274    0.0000 C   0  0  0  0  0  0  0  0  0  0  0  0
   -0.7801    2.8918    0.0000 C   0  0  0  0  0  0  0  0  0  0  0  0
    3.5536    0.4018    0.0000 C   0  0  0  0  0  0  0  0  0  0  0  0
    4.2628   -0.8274    0.0000 C   0  0  0  0  0  0  0  0  0  0  0  0
   -3.6483    2.9076    0.0000 C   0  0  0  0  0  0  0  0  0  0  0  0
   -4.3732    1.6626    0.0000 C   0  0  0  0  0  0  0  0  0  0  0  0
    4.2628   -0.0079    0.0000 C   0  0  0  0  0  0  0  0  0  0  0  0
  1 30  1  0  0  0  0
  2 30  1  0  0  0  0
  3 30  1  0  0  0  0
  4 21  1  0  0  0  0
  5 35  1  0  0  0  0
  5 36  1  0  0  0  0
  6 26  2  0  0  0  0
  7 13  1  0  0  0  0
  7 19  1  0  0  0  0
  7 20  1  0  0  0  0
  8 12  1  0  0  0  0
  8 13  2  0  0  0  0
  9 13  1  0  0  0  0
  9 15  2  0  0  0  0
 10 15  1  0  0  0  0
 10 28  1  0  0  0  0
 10 29  1  0  0  0  0
 11 22  1  0  0  0  0
 11 26  1  0  0  0  0
 12 14  1  0  0  0  0
 12 16  2  0  0  0  0
 14 17  1  0  0  0  0
 14 18  2  0  0  0  0
 15 16  1  0  0  0  0
 17 23  2  0  0  0  0
 17 32  1  0  0  0  0
 18 22  1  0  0  0  0
 19 21  1  0  0  0  0
 20 21  1  0  0  0  0
 22 24  2  0  0  0  0
 23 24  1  0  0  0  0
 25 26  1  0  0  0  0
 25 31  2  0  0  0  0
 25 33  1  0  0  0  0
 27 30  1  0  0  0  0
 27 31  1  0  0  0  0
 27 34  2  0  0  0  0
 28 35  1  0  0  0  0
 29 36  1  0  0  0  0
 33 37  2  0  0  0  0
 34 37  1  0  0  0  0
M  END
> <PUBCHEM_COMPOUND_ID_TYPE>
0

> <PUBCHEM_TOTAL_CHARGE>
0

> <PUBCHEM_SUBSTANCE_ID>
310943637

> <PUBCHEM_SUBSTANCE_VERSION>
1

> <PUBCHEM_EXT_DATASOURCE_NAME>
4488

> <PUBCHEM_EXT_DATASOURCE_REGID>
SCHEMBL16121705

> <PUBCHEM_SUBSTANCE_COMMENT>
InChI=1S/C26H26F3N5O3/c1-16-5-6-19(30-24(36)17-3-2-4-18(11-17)26(27,28)29)12-21(16)22-13-23(33-7-9-37-10-8-33)32-25(31-22)34-14-20(35)15-34/h2-6,11-13,20,35H,7-10,14-15H2,1H3,(H,30,36)
InChIKey=MLKYIUISVCNUMF-UHFFFAOYSA-N

> <PUBCHEM_SUBSTANCE_SYNONYM>
SCHEMBL16121705

> <PUBCHEM_XREF_EXT_ID>
SCHEMBL16121705

> <PUBCHEM_EXT_DATASOURCE_URL>
https://www.surechembl.org/

> <PUBCHEM_EXT_SUBSTANCE_URL>
https://www.surechembl.org/chemical/SCHEMBL16121705

> <PUBCHEM_CID_ASSOCIATIONS>
117610028  1

> <PUBCHEM_COORDINATE_TYPE>
1
3

$$$$
