310944849
  -OEChem-07211613022D

 10 10  0     0  0  0  0  0  0999 V2000
   -0.1497    1.0854    0.0000 S   0  0  0  0  0  0  0  0  0  0  0  0
    0.5539   -0.1871    0.0000 N   0  0  0  0  0  0  0  0  0  0  0  0
    1.9312   -0.4716    0.0000 N   0  0  0  0  0  0  0  0  0  0  0  0
   -0.8683   -0.1871    0.0000 N   0  0  0  0  0  0  0  0  0  0  0  0
   -0.1796    0.3069    0.0000 C   0  0  0  0  0  0  0  0  0  0  0  0
    1.3324    0.2171    0.0000 C   0  0  0  0  0  0  0  0  0  0  0  0
    0.6587   -0.9207    0.0000 C   0  0  0  0  0  0  0  0  0  0  0  0
    1.4671   -1.0854    0.0000 C   0  0  0  0  0  0  0  0  0  0  0  0
   -1.6618    0.2320    0.0000 C   0  0  0  0  0  0  0  0  0  0  0  0
   -1.9312   -0.1871    0.0000 C   0  0  0  0  0  0  0  0  0  0  0  0
  1  5  2  0  0  0  0
  2  5  1  0  0  0  0
  2  6  1  0  0  0  0
  2  7  1  0  0  0  0
  3  6  2  0  0  0  0
  3  8  1  0  0  0  0
  4  5  1  0  0  0  0
  4  9  1  0  0  0  0
  7  8  2  0  0  0  0
  9 10  2  0  0  0  0
M  END
> <PUBCHEM_COMPOUND_ID_TYPE>
0

> <PUBCHEM_TOTAL_CHARGE>
0

> <PUBCHEM_SUBSTANCE_ID>
310944849

> <PUBCHEM_SUBSTANCE_VERSION>
1

> <PUBCHEM_EXT_DATASOURCE_NAME>
4488

> <PUBCHEM_EXT_DATASOURCE_REGID>
SCHEMBL16122931

> <PUBCHEM_SUBSTANCE_COMMENT>
InChI=1S/C6H7N3S/c1-2-8-6(10)9-4-3-7-5-9/h2-5H,1H2,(H,8,10)
InChIKey=HLQSTLKCNWBBQL-UHFFFAOYSA-N

> <PUBCHEM_SUBSTANCE_SYNONYM>
SCHEMBL16122931

> <PUBCHEM_XREF_EXT_ID>
SCHEMBL16122931

> <PUBCHEM_EXT_DATASOURCE_URL>
https://www.surechembl.org/

> <PUBCHEM_EXT_SUBSTANCE_URL>
https://www.surechembl.org/chemical/SCHEMBL16122931

> <PUBCHEM_CID_ASSOCIATIONS>
117611048  1

> <PUBCHEM_COORDINATE_TYPE>
1
3

$$$$
