310946302
  -OEChem-07211613022D

 25 26  0     0  0  0  0  0  0999 V2000
   -1.1802   -2.3490    0.0000 I   0  0  0  0  0  0  0  0  0  0  0  0
    0.2488    0.1260    0.0000 I   0  0  0  0  0  0  0  0  0  0  0  0
   -4.0380   -0.6990    0.0000 I   0  0  0  0  0  0  0  0  0  0  0  0
    3.8211   -1.9365    0.0000 S   0  0  0  0  0  0  0  0  0  0  0  0
   -1.1802   -0.6990    0.0000 O   0  0  0  0  0  0  0  0  0  0  0  0
    2.3922   -1.1115    0.0000 O   0  0  0  0  0  0  0  0  0  0  0  0
   -4.0380   -2.3490    0.0000 O   0  0  0  0  0  0  0  0  0  0  0  0
    3.4086   -1.2220    0.0000 O   0  0  0  0  0  0  0  0  0  0  0  0
    4.2336   -2.6510    0.0000 O   0  0  0  0  0  0  0  0  0  0  0  0
    3.1067   -2.3490    0.0000 N   0  0  0  0  0  0  0  0  0  0  0  0
   -0.4657   -1.1115    0.0000 C   0  0  0  0  0  0  0  0  0  0  0  0
   -0.4657   -1.9365    0.0000 C   0  0  0  0  0  0  0  0  0  0  0  0
    0.2488   -0.6990    0.0000 C   0  0  0  0  0  0  0  0  0  0  0  0
    0.9632   -1.9365    0.0000 C   0  0  0  0  0  0  0  0  0  0  0  0
   -1.8946   -1.1115    0.0000 C   0  0  0  0  0  0  0  0  0  0  0  0
    0.2488   -2.3490    0.0000 C   0  0  0  0  0  0  0  0  0  0  0  0
    0.9632   -1.1115    0.0000 C   0  0  0  0  0  0  0  0  0  0  0  0
    1.6777   -2.3490    0.0000 C   0  0  0  0  0  0  0  0  0  0  0  0
   -2.6091   -0.6990    0.0000 C   0  0  0  0  0  0  0  0  0  0  0  0
   -3.3236   -1.1115    0.0000 C   0  0  0  0  0  0  0  0  0  0  0  0
    2.3922   -1.9365    0.0000 C   0  0  0  0  0  0  0  0  0  0  0  0
   -1.8946   -1.9365    0.0000 C   0  0  0  0  0  0  0  0  0  0  0  0
   -3.3236   -1.9365    0.0000 C   0  0  0  0  0  0  0  0  0  0  0  0
   -2.6091   -2.3490    0.0000 C   0  0  0  0  0  0  0  0  0  0  0  0
    4.5356   -1.5240    0.0000 C   0  0  0  0  0  0  0  0  0  0  0  0
  1 12  1  0  0  0  0
  2 13  1  0  0  0  0
  3 20  1  0  0  0  0
  4  8  2  0  0  0  0
  4  9  2  0  0  0  0
  4 10  1  0  0  0  0
  4 25  1  0  0  0  0
  5 11  1  0  0  0  0
  5 15  1  0  0  0  0
  6 21  2  0  0  0  0
  7 23  1  0  0  0  0
 10 21  1  0  0  0  0
 11 12  2  0  0  0  0
 11 13  1  0  0  0  0
 12 16  1  0  0  0  0
 13 17  2  0  0  0  0
 14 16  2  0  0  0  0
 14 17  1  0  0  0  0
 14 18  1  0  0  0  0
 15 19  2  0  0  0  0
 15 22  1  0  0  0  0
 18 21  1  0  0  0  0
 19 20  1  0  0  0  0
 20 23  2  0  0  0  0
 22 24  2  0  0  0  0
 23 24  1  0  0  0  0
M  END
> <PUBCHEM_COMPOUND_ID_TYPE>
0

> <PUBCHEM_TOTAL_CHARGE>
0

> <PUBCHEM_SUBSTANCE_ID>
310946302

> <PUBCHEM_SUBSTANCE_VERSION>
1

> <PUBCHEM_EXT_DATASOURCE_NAME>
4488

> <PUBCHEM_EXT_DATASOURCE_REGID>
SCHEMBL16124421

> <PUBCHEM_SUBSTANCE_COMMENT>
InChI=1S/C15H12I3NO5S/c1-25(22,23)19-14(21)6-8-4-11(17)15(12(18)5-8)24-9-2-3-13(20)10(16)7-9/h2-5,7,20H,6H2,1H3,(H,19,21)
InChIKey=WPQOERVDOKVKFA-UHFFFAOYSA-N

> <PUBCHEM_SUBSTANCE_SYNONYM>
SCHEMBL16124421

> <PUBCHEM_XREF_EXT_ID>
SCHEMBL16124421

> <PUBCHEM_EXT_DATASOURCE_URL>
https://www.surechembl.org/

> <PUBCHEM_EXT_SUBSTANCE_URL>
https://www.surechembl.org/chemical/SCHEMBL16124421

> <PUBCHEM_CID_ASSOCIATIONS>
71583867  1

> <PUBCHEM_COORDINATE_TYPE>
1
3

$$$$
