310943217
  -OEChem-07211613022D

 37 40  0     0  0  0  0  0  0999 V2000
   -1.0799   -0.6139    0.0000 O   0  0  0  0  0  0  0  0  0  0  0  0
   -4.6453    2.2561    0.0000 O   0  0  0  0  0  0  0  0  0  0  0  0
    1.0651   -0.1998    0.0000 O   0  0  0  0  0  0  0  0  0  0  0  0
   -1.0799    0.2146    0.0000 N   0  0  0  0  0  0  0  0  0  0  0  0
   -2.5149    0.2146    0.0000 N   0  0  0  0  0  0  0  0  0  0  0  0
   -3.2251    1.4424    0.0000 N   0  0  0  0  0  0  0  0  0  0  0  0
    1.7753    1.0429    0.0000 N   0  0  0  0  0  0  0  0  0  0  0  0
    3.9204   -1.0134    0.0000 N   0  0  0  0  0  0  0  0  0  0  0  0
    4.6453   -1.4867    0.0000 N   0  0  0  0  0  0  0  0  0  0  0  0
   -1.0799    1.0429    0.0000 C   0  0  0  0  0  0  0  0  0  0  0  0
   -0.3699    1.4572    0.0000 C   0  0  0  0  0  0  0  0  0  0  0  0
   -1.7901   -0.1998    0.0000 C   0  0  0  0  0  0  0  0  0  0  0  0
   -2.5001    1.0429    0.0000 C   0  0  0  0  0  0  0  0  0  0  0  0
   -1.8048    1.4424    0.0000 C   0  0  0  0  0  0  0  0  0  0  0  0
   -1.7901   -0.9986    0.0000 C   0  0  0  0  0  0  0  0  0  0  0  0
   -0.3551    2.2709    0.0000 C   0  0  0  0  0  0  0  0  0  0  0  0
    0.3551    1.0429    0.0000 C   0  0  0  0  0  0  0  0  0  0  0  0
    1.0504    1.4572    0.0000 C   0  0  0  0  0  0  0  0  0  0  0  0
    0.3551    2.6703    0.0000 C   0  0  0  0  0  0  0  0  0  0  0  0
    2.5001   -0.1849    0.0000 C   0  0  0  0  0  0  0  0  0  0  0  0
    3.2103   -1.4275    0.0000 C   0  0  0  0  0  0  0  0  0  0  0  0
    1.0504    2.2709    0.0000 C   0  0  0  0  0  0  0  0  0  0  0  0
    1.7753    0.2293    0.0000 C   0  0  0  0  0  0  0  0  0  0  0  0
    3.2103   -2.2265    0.0000 C   0  0  0  0  0  0  0  0  0  0  0  0
    2.4853   -1.0134    0.0000 C   0  0  0  0  0  0  0  0  0  0  0  0
   -3.2251    2.2709    0.0000 C   0  0  0  0  0  0  0  0  0  0  0  0
   -3.9204    1.0429    0.0000 C   0  0  0  0  0  0  0  0  0  0  0  0
   -2.5001   -1.4572    0.0000 C   0  0  0  0  0  0  0  0  0  0  0  0
   -1.0651   -1.4275    0.0000 C   0  0  0  0  0  0  0  0  0  0  0  0
    3.1955    0.2146    0.0000 C   0  0  0  0  0  0  0  0  0  0  0  0
   -1.0947    2.6703    0.0000 C   0  0  0  0  0  0  0  0  0  0  0  0
    3.9204   -0.1998    0.0000 C   0  0  0  0  0  0  0  0  0  0  0  0
   -3.9351    2.6851    0.0000 C   0  0  0  0  0  0  0  0  0  0  0  0
   -4.6453    1.4424    0.0000 C   0  0  0  0  0  0  0  0  0  0  0  0
    3.9204   -1.8418    0.0000 C   0  0  0  0  0  0  0  0  0  0  0  0
    2.4853   -2.6851    0.0000 C   0  0  0  0  0  0  0  0  0  0  0  0
    3.9351   -2.6703    0.0000 C   0  0  0  0  0  0  0  0  0  0  0  0
  1 15  1  0  0  0  0
  2 33  1  0  0  0  0
  2 34  1  0  0  0  0
  3 23  2  0  0  0  0
  4 10  1  0  0  0  0
  4 12  2  0  0  0  0
  5 12  1  0  0  0  0
  5 13  2  0  0  0  0
  6 13  1  0  0  0  0
  6 26  1  0  0  0  0
  6 27  1  0  0  0  0
  7 18  1  0  0  0  0
  7 23  1  0  0  0  0
  8 21  2  0  0  0  0
  8 32  1  0  0  0  0
  9 35  3  0  0  0  0
 10 11  1  0  0  0  0
 10 14  2  0  0  0  0
 11 16  1  0  0  0  0
 11 17  2  0  0  0  0
 12 15  1  0  0  0  0
 13 14  1  0  0  0  0
 15 28  1  0  0  0  0
 15 29  1  0  0  0  0
 16 19  2  0  0  0  0
 16 31  1  0  0  0  0
 17 18  1  0  0  0  0
 18 22  2  0  0  0  0
 19 22  1  0  0  0  0
 20 23  1  0  0  0  0
 20 25  2  0  0  0  0
 20 30  1  0  0  0  0
 21 24  1  0  0  0  0
 21 25  1  0  0  0  0
 24 35  1  0  0  0  0
 24 36  1  0  0  0  0
 24 37  1  0  0  0  0
 26 33  1  0  0  0  0
 27 34  1  0  0  0  0
 30 32  2  0  0  0  0
M  END
> <PUBCHEM_COMPOUND_ID_TYPE>
0

> <PUBCHEM_TOTAL_CHARGE>
0

> <PUBCHEM_SUBSTANCE_ID>
310943217

> <PUBCHEM_SUBSTANCE_VERSION>
1

> <PUBCHEM_EXT_DATASOURCE_NAME>
4488

> <PUBCHEM_EXT_DATASOURCE_REGID>
SCHEMBL16121278

> <PUBCHEM_SUBSTANCE_COMMENT>
InChI=1S/C28H32N6O3/c1-18-6-7-20(31-25(35)19-8-9-30-23(14-19)27(2,3)17-29)15-21(18)22-16-24(34-10-12-37-13-11-34)33-26(32-22)28(4,5)36/h6-9,14-16,36H,10-13H2,1-5H3,(H,31,35)
InChIKey=QTQRBYBQGAANDG-UHFFFAOYSA-N

> <PUBCHEM_SUBSTANCE_SYNONYM>
SCHEMBL16121278

> <PUBCHEM_XREF_EXT_ID>
SCHEMBL16121278

> <PUBCHEM_EXT_DATASOURCE_URL>
https://www.surechembl.org/

> <PUBCHEM_EXT_SUBSTANCE_URL>
https://www.surechembl.org/chemical/SCHEMBL16121278

> <PUBCHEM_CID_ASSOCIATIONS>
117609643  1

> <PUBCHEM_COORDINATE_TYPE>
1
3

$$$$
