310943188
  -OEChem-07211613022D

 36 39  0     0  0  0  0  0  0999 V2000
    4.6344   -1.6520    0.0000 F   0  0  0  0  0  0  0  0  0  0  0  0
   -3.2163   -0.4239    0.0000 O   0  0  0  0  0  0  0  0  0  0  0  0
   -4.6490    2.0613    0.0000 O   0  0  0  0  0  0  0  0  0  0  0  0
    2.4854    2.0613    0.0000 O   0  0  0  0  0  0  0  0  0  0  0  0
   -3.9327   -2.4854    0.0000 O   0  0  0  0  0  0  0  0  0  0  0  0
   -3.2309    1.2426    0.0000 N   0  0  0  0  0  0  0  0  0  0  0  0
   -1.0819    0.0000    0.0000 N   0  0  0  0  0  0  0  0  0  0  0  0
   -1.7982   -0.4093    0.0000 N   0  0  0  0  0  0  0  0  0  0  0  0
    1.7690    0.8187    0.0000 N   0  0  0  0  0  0  0  0  0  0  0  0
    4.6198    0.0000    0.0000 N   0  0  0  0  0  0  0  0  0  0  0  0
   -1.0819    0.8334    0.0000 C   0  0  0  0  0  0  0  0  0  0  0  0
   -2.5000    0.8334    0.0000 C   0  0  0  0  0  0  0  0  0  0  0  0
   -0.3654    1.2426    0.0000 C   0  0  0  0  0  0  0  0  0  0  0  0
   -2.5146    0.0000    0.0000 C   0  0  0  0  0  0  0  0  0  0  0  0
   -1.7982    1.2426    0.0000 C   0  0  0  0  0  0  0  0  0  0  0  0
   -0.3654    2.0613    0.0000 C   0  0  0  0  0  0  0  0  0  0  0  0
    0.3508    0.8334    0.0000 C   0  0  0  0  0  0  0  0  0  0  0  0
    1.0526    1.2573    0.0000 C   0  0  0  0  0  0  0  0  0  0  0  0
    3.2017    0.8334    0.0000 C   0  0  0  0  0  0  0  0  0  0  0  0
    0.3508    2.4708    0.0000 C   0  0  0  0  0  0  0  0  0  0  0  0
    2.4708    1.2280    0.0000 C   0  0  0  0  0  0  0  0  0  0  0  0
    1.0526    2.0613    0.0000 C   0  0  0  0  0  0  0  0  0  0  0  0
    3.9180   -0.4093    0.0000 C   0  0  0  0  0  0  0  0  0  0  0  0
   -3.2309    2.0613    0.0000 C   0  0  0  0  0  0  0  0  0  0  0  0
   -3.9180    0.8334    0.0000 C   0  0  0  0  0  0  0  0  0  0  0  0
    3.9180   -1.2280    0.0000 C   0  0  0  0  0  0  0  0  0  0  0  0
    3.2017    0.0000    0.0000 C   0  0  0  0  0  0  0  0  0  0  0  0
    3.9034    1.2426    0.0000 C   0  0  0  0  0  0  0  0  0  0  0  0
   -1.0965    2.4708    0.0000 C   0  0  0  0  0  0  0  0  0  0  0  0
   -3.9327    2.4854    0.0000 C   0  0  0  0  0  0  0  0  0  0  0  0
   -4.6490    1.2426    0.0000 C   0  0  0  0  0  0  0  0  0  0  0  0
    4.6344    0.8187    0.0000 C   0  0  0  0  0  0  0  0  0  0  0  0
   -3.2309   -1.2426    0.0000 C   0  0  0  0  0  0  0  0  0  0  0  0
    3.2017   -1.6666    0.0000 C   0  0  0  0  0  0  0  0  0  0  0  0
    4.6490   -0.8334    0.0000 C   0  0  0  0  0  0  0  0  0  0  0  0
   -3.9327   -1.6520    0.0000 C   0  0  0  0  0  0  0  0  0  0  0  0
  1 26  1  0  0  0  0
  2 14  1  0  0  0  0
  2 33  1  0  0  0  0
  3 30  1  0  0  0  0
  3 31  1  0  0  0  0
  4 21  2  0  0  0  0
  5 36  1  0  0  0  0
  6 12  1  0  0  0  0
  6 24  1  0  0  0  0
  6 25  1  0  0  0  0
  7  8  1  0  0  0  0
  7 11  2  0  0  0  0
  8 14  2  0  0  0  0
  9 18  1  0  0  0  0
  9 21  1  0  0  0  0
 10 23  2  0  0  0  0
 10 32  1  0  0  0  0
 11 13  1  0  0  0  0
 11 15  1  0  0  0  0
 12 14  1  0  0  0  0
 12 15  2  0  0  0  0
 13 16  1  0  0  0  0
 13 17  2  0  0  0  0
 16 20  2  0  0  0  0
 16 29  1  0  0  0  0
 17 18  1  0  0  0  0
 18 22  2  0  0  0  0
 19 21  1  0  0  0  0
 19 27  2  0  0  0  0
 19 28  1  0  0  0  0
 20 22  1  0  0  0  0
 23 26  1  0  0  0  0
 23 27  1  0  0  0  0
 24 30  1  0  0  0  0
 25 31  1  0  0  0  0
 26 34  1  0  0  0  0
 26 35  1  0  0  0  0
 28 32  2  0  0  0  0
 33 36  1  0  0  0  0
M  END
> <PUBCHEM_COMPOUND_ID_TYPE>
0

> <PUBCHEM_TOTAL_CHARGE>
0

> <PUBCHEM_SUBSTANCE_ID>
310943188

> <PUBCHEM_SUBSTANCE_VERSION>
1

> <PUBCHEM_EXT_DATASOURCE_NAME>
4488

> <PUBCHEM_EXT_DATASOURCE_REGID>
SCHEMBL16121249

> <PUBCHEM_SUBSTANCE_COMMENT>
InChI=1S/C26H30FN5O4/c1-17-4-5-19(29-24(34)18-6-7-28-23(14-18)26(2,3)27)15-20(17)21-16-22(32-8-11-35-12-9-32)25(31-30-21)36-13-10-33/h4-7,14-16,33H,8-13H2,1-3H3,(H,29,34)
InChIKey=HVWIIQBUQNFOCS-UHFFFAOYSA-N

> <PUBCHEM_SUBSTANCE_SYNONYM>
SCHEMBL16121249

> <PUBCHEM_XREF_EXT_ID>
SCHEMBL16121249

> <PUBCHEM_EXT_DATASOURCE_URL>
https://www.surechembl.org/

> <PUBCHEM_EXT_SUBSTANCE_URL>
https://www.surechembl.org/chemical/SCHEMBL16121249

> <PUBCHEM_CID_ASSOCIATIONS>
117609616  1

> <PUBCHEM_COORDINATE_TYPE>
1
3

$$$$
