310936240
  -OEChem-07211613022D

 17 18  0     0  0  0  0  0  0999 V2000
    0.0000   -3.3439    0.0000 F   0  0  0  0  0  0  0  0  0  0  0  0
    1.4474    0.0000    0.0000 F   0  0  0  0  0  0  0  0  0  0  0  0
    2.8698   -2.5204    0.0000 O   0  0  0  0  0  0  0  0  0  0  0  0
    3.5934   -3.7432    0.0000 O   0  0  0  0  0  0  0  0  0  0  0  0
    2.1461   -2.0713    0.0000 N   0  0  0  0  0  0  0  0  0  0  0  0
    0.7237   -2.0713    0.0000 N   0  0  0  0  0  0  0  0  0  0  0  0
    1.4474   -3.3439    0.0000 C   0  0  0  0  0  0  0  0  0  0  0  0
    1.4474   -2.5204    0.0000 C   0  0  0  0  0  0  0  0  0  0  0  0
    2.1461   -3.7432    0.0000 C   0  0  0  0  0  0  0  0  0  0  0  0
    0.7237   -3.7432    0.0000 C   0  0  0  0  0  0  0  0  0  0  0  0
    2.8698   -3.3439    0.0000 C   0  0  0  0  0  0  0  0  0  0  0  0
    2.1461   -4.5667    0.0000 C   0  0  0  0  0  0  0  0  0  0  0  0
    0.7237   -4.5667    0.0000 C   0  0  0  0  0  0  0  0  0  0  0  0
    1.4474   -4.9909    0.0000 C   0  0  0  0  0  0  0  0  0  0  0  0
    1.4474   -0.8235    0.0000 C   0  0  0  0  0  0  0  0  0  0  0  0
    2.1461   -1.2727    0.0000 C   0  0  0  0  0  0  0  0  0  0  0  0
    0.7237   -1.2727    0.0000 C   0  0  0  0  0  0  0  0  0  0  0  0
  1 10  1  0  0  0  0
  2 15  1  0  0  0  0
  3 11  2  0  0  0  0
  4 11  1  0  0  0  0
  5  8  2  0  0  0  0
  5 16  1  0  0  0  0
  6  8  1  0  0  0  0
  6 17  2  0  0  0  0
  7  8  1  0  0  0  0
  7  9  2  0  0  0  0
  7 10  1  0  0  0  0
  9 11  1  0  0  0  0
  9 12  1  0  0  0  0
 10 13  2  0  0  0  0
 12 14  2  0  0  0  0
 13 14  1  0  0  0  0
 15 16  2  0  0  0  0
 15 17  1  0  0  0  0
M  END
> <PUBCHEM_COMPOUND_ID_TYPE>
0

> <PUBCHEM_TOTAL_CHARGE>
0

> <PUBCHEM_SUBSTANCE_ID>
310936240

> <PUBCHEM_SUBSTANCE_VERSION>
1

> <PUBCHEM_EXT_DATASOURCE_NAME>
4488

> <PUBCHEM_EXT_DATASOURCE_REGID>
SCHEMBL16113855

> <PUBCHEM_SUBSTANCE_COMMENT>
InChI=1S/C11H6F2N2O2/c12-6-4-14-10(15-5-6)9-7(11(16)17)2-1-3-8(9)13/h1-5H,(H,16,17)
InChIKey=DANBALWSTBOWMQ-UHFFFAOYSA-N

> <PUBCHEM_SUBSTANCE_SYNONYM>
SCHEMBL16113855

> <PUBCHEM_XREF_EXT_ID>
SCHEMBL16113855

> <PUBCHEM_EXT_DATASOURCE_URL>
https://www.surechembl.org/

> <PUBCHEM_EXT_SUBSTANCE_URL>
https://www.surechembl.org/chemical/SCHEMBL16113855

> <PUBCHEM_CID_ASSOCIATIONS>
117604189  1

> <PUBCHEM_COORDINATE_TYPE>
1
3

$$$$
