310934263
  -OEChem-07211613022D

 30 33  0     0  0  0  0  0  0999 V2000
    5.5305   -3.3183    0.0000 O   0  0  0  0  0  0  0  0  0  0  0  0
    0.0000   -4.4520    0.0000 O   0  0  0  0  0  0  0  0  0  0  0  0
    1.9910   -1.2444    0.0000 O   0  0  0  0  0  0  0  0  0  0  0  0
    3.8990   -5.3646    0.0000 O   0  0  0  0  0  0  0  0  0  0  0  0
    5.2816   -4.9221    0.0000 O   0  0  0  0  0  0  0  0  0  0  0  0
    4.2308   -3.9819    0.0000 N   0  0  0  0  0  0  0  0  0  0  0  0
    4.2308   -2.6547    0.0000 N   0  0  0  0  0  0  0  0  0  0  0  0
    0.3871   -5.1710    0.0000 N   0  0  0  0  0  0  0  0  0  0  0  0
    4.1479   -1.6315    0.0000 N   0  0  0  0  0  0  0  0  0  0  0  0
    4.1202    0.0000    0.0000 N   0  0  0  0  0  0  0  0  0  0  0  0
    3.4289   -3.7608    0.0000 C   0  0  0  0  0  0  0  0  0  0  0  0
    3.4289   -2.8758    0.0000 C   0  0  0  0  0  0  0  0  0  0  0  0
    2.7099   -2.4887    0.0000 C   0  0  0  0  0  0  0  0  0  0  0  0
    2.0186   -3.7608    0.0000 C   0  0  0  0  0  0  0  0  0  0  0  0
    4.7009   -3.3183    0.0000 C   0  0  0  0  0  0  0  0  0  0  0  0
    2.7099   -4.1479    0.0000 C   0  0  0  0  0  0  0  0  0  0  0  0
    2.0186   -2.8758    0.0000 C   0  0  0  0  0  0  0  0  0  0  0  0
    1.2996   -4.1755    0.0000 C   0  0  0  0  0  0  0  0  0  0  0  0
    2.7099   -1.6592    0.0000 C   0  0  0  0  0  0  0  0  0  0  0  0
    4.4797   -4.7562    0.0000 C   0  0  0  0  0  0  0  0  0  0  0  0
    0.5531   -3.8437    0.0000 C   0  0  0  0  0  0  0  0  0  0  0  0
    1.2167   -4.9775    0.0000 C   0  0  0  0  0  0  0  0  0  0  0  0
    3.4013   -1.2444    0.0000 C   0  0  0  0  0  0  0  0  0  0  0  0
    3.4289   -0.4148    0.0000 C   0  0  0  0  0  0  0  0  0  0  0  0
    5.9453   -2.5993    0.0000 C   0  0  0  0  0  0  0  0  0  0  0  0
    0.3595   -3.0418    0.0000 C   0  0  0  0  0  0  0  0  0  0  0  0
    1.8251   -5.5305    0.0000 C   0  0  0  0  0  0  0  0  0  0  0  0
    4.8392   -1.2167    0.0000 C   0  0  0  0  0  0  0  0  0  0  0  0
    4.8668   -0.3871    0.0000 C   0  0  0  0  0  0  0  0  0  0  0  0
    5.5305   -1.8804    0.0000 C   0  0  0  0  0  0  0  0  0  0  0  0
  1 15  1  0  0  0  0
  1 25  1  0  0  0  0
  2  8  1  0  0  0  0
  2 21  1  0  0  0  0
  3 19  2  0  0  0  0
  4 20  2  0  0  0  0
  5 20  1  0  0  0  0
  6 11  1  0  0  0  0
  6 15  1  0  0  0  0
  6 20  1  0  0  0  0
  7 12  1  0  0  0  0
  7 15  2  0  0  0  0
  8 22  2  0  0  0  0
  9 23  2  0  0  0  0
  9 28  1  0  0  0  0
 10 24  2  0  0  0  0
 10 29  1  0  0  0  0
 11 12  2  0  0  0  0
 11 16  1  0  0  0  0
 12 13  1  0  0  0  0
 13 17  2  0  0  0  0
 13 19  1  0  0  0  0
 14 16  2  0  0  0  0
 14 17  1  0  0  0  0
 14 18  1  0  0  0  0
 18 21  2  0  0  0  0
 18 22  1  0  0  0  0
 19 23  1  0  0  0  0
 21 26  1  0  0  0  0
 22 27  1  0  0  0  0
 23 24  1  0  0  0  0
 25 30  1  0  0  0  0
 28 29  2  0  0  0  0
M  END
> <PUBCHEM_COMPOUND_ID_TYPE>
0

> <PUBCHEM_TOTAL_CHARGE>
0

> <PUBCHEM_SUBSTANCE_ID>
310934263

> <PUBCHEM_SUBSTANCE_VERSION>
1

> <PUBCHEM_EXT_DATASOURCE_NAME>
4488

> <PUBCHEM_EXT_DATASOURCE_REGID>
SCHEMBL16111721

> <PUBCHEM_SUBSTANCE_COMMENT>
InChI=1S/C20H17N5O5/c1-4-29-19-23-17-13(18(26)14-9-21-5-6-22-14)7-12(8-15(17)25(19)20(27)28)16-10(2)24-30-11(16)3/h5-9H,4H2,1-3H3,(H,27,28)
InChIKey=XHNYPULNCGRVJT-UHFFFAOYSA-N

> <PUBCHEM_SUBSTANCE_SYNONYM>
SCHEMBL16111721

> <PUBCHEM_XREF_EXT_ID>
SCHEMBL16111721

> <PUBCHEM_EXT_DATASOURCE_URL>
https://www.surechembl.org/

> <PUBCHEM_EXT_SUBSTANCE_URL>
https://www.surechembl.org/chemical/SCHEMBL16111721

> <PUBCHEM_CID_ASSOCIATIONS>
117602519  1

> <PUBCHEM_COORDINATE_TYPE>
1
3

$$$$
