310949117
  -OEChem-07211613022D

 15 15  0     0  0  0  0  0  0999 V2000
   -1.0633    2.1523    0.0000 N   0  0  0  0  0  0  0  0  0  0  0  0
   -1.1019   -2.1137    0.0000 N   0  0  0  0  0  0  0  0  0  0  0  0
    1.3855    2.1395    0.0000 N   0  0  0  0  0  0  0  0  0  0  0  0
    1.3469   -2.1524    0.0000 N   0  0  0  0  0  0  0  0  0  0  0  0
   -0.2256    0.7475    0.0000 C   0  0  0  0  0  0  0  0  0  0  0  0
   -0.2642   -0.6831    0.0000 C   0  0  0  0  0  0  0  0  0  0  0  0
   -0.6638    0.0387    0.0000 C   0  0  0  0  0  0  0  0  0  0  0  0
    0.5864    0.7346    0.0000 C   0  0  0  0  0  0  0  0  0  0  0  0
    0.5606   -0.6960    0.0000 C   0  0  0  0  0  0  0  0  0  0  0  0
    0.9860    0.0000    0.0000 C   0  0  0  0  0  0  0  0  0  0  0  0
   -0.6638    1.4822    0.0000 C   0  0  0  0  0  0  0  0  0  0  0  0
   -0.7024   -1.4177    0.0000 C   0  0  0  0  0  0  0  0  0  0  0  0
    0.9860    1.4564    0.0000 C   0  0  0  0  0  0  0  0  0  0  0  0
    0.9602   -1.4435    0.0000 C   0  0  0  0  0  0  0  0  0  0  0  0
   -1.3855    0.0129    0.0000 C   0  0  0  0  0  0  0  0  0  0  0  0
  1 11  3  0  0  0  0
  2 12  3  0  0  0  0
  3 13  3  0  0  0  0
  4 14  3  0  0  0  0
  5  7  1  0  0  0  0
  5  8  2  0  0  0  0
  5 11  1  0  0  0  0
  6  7  2  0  0  0  0
  6  9  1  0  0  0  0
  6 12  1  0  0  0  0
  7 15  1  0  0  0  0
  8 10  1  0  0  0  0
  8 13  1  0  0  0  0
  9 10  2  0  0  0  0
  9 14  1  0  0  0  0
M  END
> <PUBCHEM_COMPOUND_ID_TYPE>
0

> <PUBCHEM_TOTAL_CHARGE>
0

> <PUBCHEM_SUBSTANCE_ID>
310949117

> <PUBCHEM_SUBSTANCE_VERSION>
1

> <PUBCHEM_EXT_DATASOURCE_NAME>
4488

> <PUBCHEM_EXT_DATASOURCE_REGID>
SCHEMBL16127307

> <PUBCHEM_SUBSTANCE_COMMENT>
InChI=1S/C11H4N4/c1-7-10(5-14)8(3-12)2-9(4-13)11(7)6-15/h2H,1H3
InChIKey=QTUXYXXGWICJRM-UHFFFAOYSA-N

> <PUBCHEM_SUBSTANCE_SYNONYM>
SCHEMBL16127307

> <PUBCHEM_XREF_EXT_ID>
SCHEMBL16127307

> <PUBCHEM_EXT_DATASOURCE_URL>
https://www.surechembl.org/

> <PUBCHEM_EXT_SUBSTANCE_URL>
https://www.surechembl.org/chemical/SCHEMBL16127307

> <PUBCHEM_CID_ASSOCIATIONS>
117614614  1

> <PUBCHEM_COORDINATE_TYPE>
1
3

$$$$
