310939136
  -OEChem-07211613022D

 23 24  0     1  0  0  0  0  0999 V2000
   -0.3572   -1.4437    0.0000 F   0  0  0  0  0  0  0  0  0  0  0  0
    1.0717    1.0313    0.0000 F   0  0  0  0  0  0  0  0  0  0  0  0
    1.0717   -0.6187    0.0000 O   0  0  0  0  0  0  0  0  0  0  0  0
   -1.7862    1.8563    0.0000 O   0  0  0  0  0  0  0  0  0  0  0  0
   -2.5006   -0.2062    0.0000 N   0  0  0  0  0  0  0  0  0  0  0  0
    0.3572   -0.2062    0.0000 C   0  0  0  0  0  0  0  0  0  0  0  0
   -0.3572   -0.6187    0.0000 C   0  0  0  0  0  0  0  0  0  0  0  0
   -1.0717   -0.2062    0.0000 C   0  0  0  0  0  0  0  0  0  0  0  0
    0.3572    0.6187    0.0000 C   0  0  0  0  0  0  0  0  0  0  0  0
   -1.7862   -0.6187    0.0000 C   0  0  3  0  0  0  0  0  0  0  0  0
   -1.0717    0.6187    0.0000 C   0  0  0  0  0  0  0  0  0  0  0  0
   -0.3572    1.0313    0.0000 C   0  0  0  0  0  0  0  0  0  0  0  0
    1.7862   -0.2062    0.0000 C   0  0  0  0  0  0  0  0  0  0  0  0
   -1.7862   -1.4437    0.0000 C   0  0  0  0  0  0  0  0  0  0  0  0
   -2.5006    0.6187    0.0000 C   0  0  3  0  0  0  0  0  0  0  0  0
    2.5006   -0.6187    0.0000 C   0  0  0  0  0  0  0  0  0  0  0  0
    1.7862    0.6187    0.0000 C   0  0  0  0  0  0  0  0  0  0  0  0
    3.2151   -0.2062    0.0000 C   0  0  0  0  0  0  0  0  0  0  0  0
    2.5006    1.0313    0.0000 C   0  0  0  0  0  0  0  0  0  0  0  0
   -2.5006   -1.8563    0.0000 C   0  0  0  0  0  0  0  0  0  0  0  0
    3.2151    0.6187    0.0000 C   0  0  0  0  0  0  0  0  0  0  0  0
   -1.7862    1.0313    0.0000 C   0  0  0  0  0  0  0  0  0  0  0  0
   -3.2151    1.0313    0.0000 C   0  0  0  0  0  0  0  0  0  0  0  0
  1  7  1  0  0  0  0
  2  9  1  0  0  0  0
  3  6  1  0  0  0  0
  3 13  1  0  0  0  0
  4 22  1  0  0  0  0
 10  5  1  1  0  0  0
  5 15  1  0  0  0  0
  6  7  2  0  0  0  0
  6  9  1  0  0  0  0
  7  8  1  0  0  0  0
  8 10  1  0  0  0  0
  8 11  2  0  0  0  0
  9 12  2  0  0  0  0
 10 14  1  0  0  0  0
 11 12  1  0  0  0  0
 13 16  2  0  0  0  0
 13 17  1  0  0  0  0
 14 20  1  0  0  0  0
 15 22  1  0  0  0  0
 15 23  1  1  0  0  0
 16 18  1  0  0  0  0
 17 19  2  0  0  0  0
 18 21  2  0  0  0  0
 19 21  1  0  0  0  0
M  END
> <PUBCHEM_COMPOUND_ID_TYPE>
0

> <PUBCHEM_TOTAL_CHARGE>
0

> <PUBCHEM_SUBSTANCE_ID>
310939136

> <PUBCHEM_SUBSTANCE_VERSION>
1

> <PUBCHEM_EXT_DATASOURCE_NAME>
4488

> <PUBCHEM_EXT_DATASOURCE_REGID>
SCHEMBL16117057

> <PUBCHEM_SUBSTANCE_COMMENT>
InChI=1S/C18H21F2NO2/c1-3-16(21-12(2)11-22)14-9-10-15(19)18(17(14)20)23-13-7-5-4-6-8-13/h4-10,12,16,21-22H,3,11H2,1-2H3/t12-,16+/m0/s1
InChIKey=GDQWLZHJTHDEEH-BLLLJJGKSA-N

> <PUBCHEM_SUBSTANCE_SYNONYM>
SCHEMBL16117057

> <PUBCHEM_XREF_EXT_ID>
SCHEMBL16117057

> <PUBCHEM_EXT_DATASOURCE_URL>
https://www.surechembl.org/

> <PUBCHEM_EXT_SUBSTANCE_URL>
https://www.surechembl.org/chemical/SCHEMBL16117057

> <PUBCHEM_CID_ASSOCIATIONS>
117606491  1

> <PUBCHEM_COORDINATE_TYPE>
1
3

> <PUBCHEM_BONDANNOTATIONS>
15  23  5
10  5  5

$$$$
