310946520
  -OEChem-07211613022D

 25 27  0     1  0  0  0  0  0999 V2000
   -2.1637   -1.5044    0.0000 O   0  0  0  0  0  0  0  0  0  0  0  0
    1.4394    2.2288    0.0000 O   0  0  0  0  0  0  0  0  0  0  0  0
   -2.8695   -0.2414    0.0000 O   0  0  0  0  0  0  0  0  0  0  0  0
    2.8695    2.2288    0.0000 O   0  0  0  0  0  0  0  0  0  0  0  0
   -0.0650   -0.2600    0.0000 C   0  0  3  0  0  0  0  0  0  0  0  0
    0.6965    0.1486    0.0000 C   0  0  0  0  0  0  0  0  0  0  0  0
   -0.0650   -1.0958    0.0000 C   0  0  3  0  0  0  0  0  0  0  0  0
    1.4208   -0.2786    0.0000 C   0  0  3  0  0  0  0  0  0  0  0  0
   -0.7707   -1.5044    0.0000 C   0  0  0  0  0  0  0  0  0  0  0  0
   -0.7336    0.1486    0.0000 C   0  0  0  0  0  0  0  0  0  0  0  0
   -1.4765   -1.0772    0.0000 C   0  0  0  0  0  0  0  0  0  0  0  0
    0.6965   -1.5044    0.0000 C   0  0  0  0  0  0  0  0  0  0  0  0
   -1.4579   -0.2600    0.0000 C   0  0  0  0  0  0  0  0  0  0  0  0
    1.4023   -1.0958    0.0000 C   0  0  0  0  0  0  0  0  0  0  0  0
    0.7150    0.9844    0.0000 C   0  0  0  0  0  0  0  0  0  0  0  0
    2.1266    0.1486    0.0000 C   0  0  0  0  0  0  0  0  0  0  0  0
   -0.0278    0.5757    0.0000 C   0  0  0  0  0  0  0  0  0  0  0  0
    2.1266    0.9844    0.0000 C   0  0  0  0  0  0  0  0  0  0  0  0
    1.4208    1.3744    0.0000 C   0  0  0  0  0  0  0  0  0  0  0  0
    2.1080   -0.6872    0.0000 C   0  0  0  0  0  0  0  0  0  0  0  0
   -0.3807   -2.2101    0.0000 C   0  0  0  0  0  0  0  0  0  0  0  0
   -1.1980   -2.2288    0.0000 C   0  0  0  0  0  0  0  0  0  0  0  0
   -2.1823    0.1672    0.0000 C   0  0  0  0  0  0  0  0  0  0  0  0
    2.8324    1.3930    0.0000 C   0  0  0  0  0  0  0  0  0  0  0  0
    2.8324   -1.1143    0.0000 C   0  0  0  0  0  0  0  0  0  0  0  0
  1 11  2  0  0  0  0
  2 19  2  0  0  0  0
  3 23  1  0  0  0  0
  4 24  1  0  0  0  0
  5  6  1  0  0  0  0
  5  7  1  0  0  0  0
  5 10  1  0  0  0  0
  5 17  1  1  0  0  0
  6  8  1  0  0  0  0
  6 15  2  0  0  0  0
  7  9  1  0  0  0  0
  7 12  1  0  0  0  0
  8 14  1  0  0  0  0
  8 16  1  0  0  0  0
  8 20  1  1  0  0  0
  9 11  1  0  0  0  0
  9 21  1  0  0  0  0
  9 22  1  0  0  0  0
 10 13  1  0  0  0  0
 11 13  1  0  0  0  0
 12 14  1  0  0  0  0
 13 23  2  0  0  0  0
 15 19  1  0  0  0  0
 16 18  1  0  0  0  0
 18 19  1  0  0  0  0
 18 24  2  0  0  0  0
 20 25  3  0  0  0  0
M  END
> <PUBCHEM_COMPOUND_ID_TYPE>
0

> <PUBCHEM_TOTAL_CHARGE>
0

> <PUBCHEM_SUBSTANCE_ID>
310946520

> <PUBCHEM_SUBSTANCE_VERSION>
1

> <PUBCHEM_EXT_DATASOURCE_NAME>
4488

> <PUBCHEM_EXT_DATASOURCE_REGID>
SCHEMBL16124641

> <PUBCHEM_SUBSTANCE_COMMENT>
InChI=1S/C21H24O4/c1-5-21-7-6-16-19(2,3)18(25)14(12-23)9-20(16,4)17(21)8-15(24)13(10-21)11-22/h1,8,11-12,16,22-23H,6-7,9-10H2,2-4H3/b13-11-,14-12-/t16?,20-,21-/m0/s1
InChIKey=JYFQPDKSCRLTIX-RTJMHSQZSA-N

> <PUBCHEM_SUBSTANCE_SYNONYM>
SCHEMBL16124641

> <PUBCHEM_XREF_EXT_ID>
SCHEMBL16124641

> <PUBCHEM_EXT_DATASOURCE_URL>
https://www.surechembl.org/

> <PUBCHEM_EXT_SUBSTANCE_URL>
https://www.surechembl.org/chemical/SCHEMBL16124641

> <PUBCHEM_CID_ASSOCIATIONS>
117612425  1

> <PUBCHEM_COORDINATE_TYPE>
1
3

> <PUBCHEM_BONDANNOTATIONS>
5  17  5
8  20  5

$$$$
