310944896
  -OEChem-07211613022D

 32 35  0     0  0  0  0  0  0999 V2000
    3.9692   -2.3869    0.0000 O   0  0  0  0  0  0  0  0  0  0  0  0
    4.7023   -1.1353    0.0000 O   0  0  0  0  0  0  0  0  0  0  0  0
   -3.4507   -2.3691    0.0000 N   0  0  0  0  0  0  0  0  0  0  0  0
   -4.2911   -2.5478    0.0000 N   0  0  0  0  0  0  0  0  0  0  0  0
   -0.4470    0.0805    0.0000 C   0  0  0  0  0  0  0  0  0  0  0  0
   -1.1622   -0.3308    0.0000 C   0  0  0  0  0  0  0  0  0  0  0  0
   -0.4291    0.9208    0.0000 C   0  0  0  0  0  0  0  0  0  0  0  0
    0.3040   -0.3308    0.0000 C   0  0  0  0  0  0  0  0  0  0  0  0
    0.3040    1.3320    0.0000 C   0  0  0  0  0  0  0  0  0  0  0  0
   -2.6283   -1.1532    0.0000 C   0  0  0  0  0  0  0  0  0  0  0  0
   -1.9131    0.0805    0.0000 C   0  0  0  0  0  0  0  0  0  0  0  0
   -1.1801   -1.1532    0.0000 C   0  0  0  0  0  0  0  0  0  0  0  0
    0.3218   -1.1532    0.0000 C   0  0  0  0  0  0  0  0  0  0  0  0
    1.0191    0.0805    0.0000 C   0  0  0  0  0  0  0  0  0  0  0  0
   -3.3613   -1.5644    0.0000 C   0  0  0  0  0  0  0  0  0  0  0  0
   -2.6104   -0.3308    0.0000 C   0  0  0  0  0  0  0  0  0  0  0  0
   -1.8952   -1.5644    0.0000 C   0  0  0  0  0  0  0  0  0  0  0  0
   -1.1622    1.3320    0.0000 C   0  0  0  0  0  0  0  0  0  0  0  0
    1.7700   -1.1532    0.0000 C   0  0  0  0  0  0  0  0  0  0  0  0
    1.0370   -1.5644    0.0000 C   0  0  0  0  0  0  0  0  0  0  0  0
    1.7521   -0.3308    0.0000 C   0  0  0  0  0  0  0  0  0  0  0  0
    1.0370    0.9208    0.0000 C   0  0  0  0  0  0  0  0  0  0  0  0
    0.3218    2.1545    0.0000 C   0  0  0  0  0  0  0  0  0  0  0  0
   -4.1480   -1.2426    0.0000 C   0  0  0  0  0  0  0  0  0  0  0  0
    1.7521    1.3320    0.0000 C   0  0  0  0  0  0  0  0  0  0  0  0
    1.0370    2.5478    0.0000 C   0  0  0  0  0  0  0  0  0  0  0  0
   -4.7023   -1.8505    0.0000 C   0  0  0  0  0  0  0  0  0  0  0  0
    2.5031   -1.5644    0.0000 C   0  0  0  0  0  0  0  0  0  0  0  0
   -1.1622    2.1723    0.0000 C   0  0  0  0  0  0  0  0  0  0  0  0
    1.7521    2.1545    0.0000 C   0  0  0  0  0  0  0  0  0  0  0  0
    3.2183   -1.1711    0.0000 C   0  0  0  0  0  0  0  0  0  0  0  0
    3.9692   -1.5466    0.0000 C   0  0  0  0  0  0  0  0  0  0  0  0
  1 32  2  0  0  0  0
  2 32  1  0  0  0  0
  3  4  1  0  0  0  0
  3 15  1  0  0  0  0
  4 27  2  0  0  0  0
  5  6  1  0  0  0  0
  5  7  2  0  0  0  0
  5  8  1  0  0  0  0
  6 11  2  0  0  0  0
  6 12  1  0  0  0  0
  7  9  1  0  0  0  0
  7 18  1  0  0  0  0
  8 13  2  0  0  0  0
  8 14  1  0  0  0  0
  9 22  2  0  0  0  0
  9 23  1  0  0  0  0
 10 15  1  0  0  0  0
 10 16  2  0  0  0  0
 10 17  1  0  0  0  0
 11 16  1  0  0  0  0
 12 17  2  0  0  0  0
 13 20  1  0  0  0  0
 14 21  2  0  0  0  0
 15 24  2  0  0  0  0
 18 29  1  0  0  0  0
 19 20  2  0  0  0  0
 19 21  1  0  0  0  0
 19 28  1  0  0  0  0
 22 25  1  0  0  0  0
 23 26  2  0  0  0  0
 24 27  1  0  0  0  0
 25 30  2  0  0  0  0
 26 30  1  0  0  0  0
 28 31  2  0  0  0  0
 31 32  1  0  0  0  0
M  END
> <PUBCHEM_COMPOUND_ID_TYPE>
0

> <PUBCHEM_TOTAL_CHARGE>
0

> <PUBCHEM_SUBSTANCE_ID>
310944896

> <PUBCHEM_SUBSTANCE_VERSION>
1

> <PUBCHEM_EXT_DATASOURCE_NAME>
4488

> <PUBCHEM_EXT_DATASOURCE_REGID>
SCHEMBL16122980

> <PUBCHEM_SUBSTANCE_COMMENT>
InChI=1S/C28H24N2O2/c1-2-25(21-6-4-3-5-7-21)28(23-11-8-20(9-12-23)10-17-27(31)32)24-15-13-22(14-16-24)26-18-19-29-30-26/h3-19H,2H2,1H3,(H,29,30)(H,31,32)/b17-10+,28-25+
InChIKey=BXYRCNCGUCJPBH-CCUDOUGISA-N

> <PUBCHEM_SUBSTANCE_SYNONYM>
SCHEMBL16122980

> <PUBCHEM_XREF_EXT_ID>
SCHEMBL16122980

> <PUBCHEM_EXT_DATASOURCE_URL>
https://www.surechembl.org/

> <PUBCHEM_EXT_SUBSTANCE_URL>
https://www.surechembl.org/chemical/SCHEMBL16122980

> <PUBCHEM_CID_ASSOCIATIONS>
86270988  1

> <PUBCHEM_COORDINATE_TYPE>
1
3

$$$$
