310932498
  -OEChem-07211613022D

 32 35  0     0  0  0  0  0  0999 V2000
    4.0193   -2.7388    0.0000 O   0  0  0  0  0  0  0  0  0  0  0  0
    8.5010   -2.8100    0.0000 O   0  0  0  0  0  0  0  0  0  0  0  0
   10.6707   -3.2368    0.0000 O   0  0  0  0  0  0  0  0  0  0  0  0
    4.9085   -1.6006    0.0000 N   0  0  0  0  0  0  0  0  0  0  0  0
    4.8374   -0.7825    0.0000 N   0  0  0  0  0  0  0  0  0  0  0  0
    6.3668   -1.6006    0.0000 N   0  0  0  0  0  0  0  0  0  0  0  0
    7.7896   -4.0549    0.0000 N   0  0  0  0  0  0  0  0  0  0  0  0
    0.0000   -2.4543    0.0000 N   0  0  0  0  0  0  0  0  0  0  0  0
    3.6280   -1.3160    0.0000 C   0  0  0  0  0  0  0  0  0  0  0  0
    4.1971   -1.9207    0.0000 C   0  0  0  0  0  0  0  0  0  0  0  0
    2.8100   -1.4227    0.0000 C   0  0  0  0  0  0  0  0  0  0  0  0
    5.6554   -1.9919    0.0000 C   0  0  0  0  0  0  0  0  0  0  0  0
    4.0193   -0.6047    0.0000 C   0  0  0  0  0  0  0  0  0  0  0  0
    2.3120   -0.7470    0.0000 C   0  0  0  0  0  0  0  0  0  0  0  0
    2.4898   -2.1697    0.0000 C   0  0  0  0  0  0  0  0  0  0  0  0
    5.6554   -2.8100    0.0000 C   0  0  0  0  0  0  0  0  0  0  0  0
    7.0783   -2.8100    0.0000 C   0  0  0  0  0  0  0  0  0  0  0  0
    1.4939   -0.8537    0.0000 C   0  0  0  0  0  0  0  0  0  0  0  0
    1.1738   -1.6006    0.0000 C   0  0  0  0  0  0  0  0  0  0  0  0
    7.0783   -1.9919    0.0000 C   0  0  0  0  0  0  0  0  0  0  0  0
    6.3668   -3.2368    0.0000 C   0  0  0  0  0  0  0  0  0  0  0  0
    1.6361   -2.2764    0.0000 C   0  0  0  0  0  0  0  0  0  0  0  0
    7.7896   -3.2368    0.0000 C   0  0  0  0  0  0  0  0  0  0  0  0
    2.6321    0.0000    0.0000 C   0  0  0  0  0  0  0  0  0  0  0  0
    4.6596   -3.2723    0.0000 C   0  0  0  0  0  0  0  0  0  0  0  0
    0.3557   -1.7073    0.0000 C   0  0  0  0  0  0  0  0  0  0  0  0
    8.5010   -4.4817    0.0000 C   0  0  0  0  0  0  0  0  0  0  0  0
    9.2124   -4.0549    0.0000 C   0  0  0  0  0  0  0  0  0  0  0  0
    9.9593   -4.4461    0.0000 C   0  0  0  0  0  0  0  0  0  0  0  0
    9.2480   -3.2368    0.0000 C   0  0  0  0  0  0  0  0  0  0  0  0
   10.6707   -4.0549    0.0000 C   0  0  0  0  0  0  0  0  0  0  0  0
    9.9593   -2.8100    0.0000 C   0  0  0  0  0  0  0  0  0  0  0  0
  1 10  1  0  0  0  0
  1 25  1  0  0  0  0
  2 23  2  0  0  0  0
  3 31  1  0  0  0  0
  3 32  1  0  0  0  0
  4  5  1  0  0  0  0
  4 10  1  0  0  0  0
  4 12  1  0  0  0  0
  5 13  2  0  0  0  0
  6 12  2  0  0  0  0
  6 20  1  0  0  0  0
  7 23  1  0  0  0  0
  7 27  1  0  0  0  0
  8 26  3  0  0  0  0
  9 10  2  0  0  0  0
  9 11  1  0  0  0  0
  9 13  1  0  0  0  0
 11 14  1  0  0  0  0
 11 15  2  0  0  0  0
 12 16  1  0  0  0  0
 14 18  2  0  0  0  0
 14 24  1  0  0  0  0
 15 22  1  0  0  0  0
 16 21  2  0  0  0  0
 17 20  2  0  0  0  0
 17 21  1  0  0  0  0
 17 23  1  0  0  0  0
 18 19  1  0  0  0  0
 19 22  2  0  0  0  0
 19 26  1  0  0  0  0
 27 28  1  0  0  0  0
 28 29  1  0  0  0  0
 28 30  1  0  0  0  0
 29 31  1  0  0  0  0
 30 32  1  0  0  0  0
M  END
> <PUBCHEM_COMPOUND_ID_TYPE>
0

> <PUBCHEM_TOTAL_CHARGE>
0

> <PUBCHEM_SUBSTANCE_ID>
310932498

> <PUBCHEM_SUBSTANCE_VERSION>
1

> <PUBCHEM_EXT_DATASOURCE_NAME>
4488

> <PUBCHEM_EXT_DATASOURCE_REGID>
SCHEMBL16109870

> <PUBCHEM_SUBSTANCE_COMMENT>
InChI=1S/C24H25N5O3/c1-16-11-18(12-25)3-5-20(16)21-15-28-29(24(21)31-2)22-6-4-19(14-26-22)23(30)27-13-17-7-9-32-10-8-17/h3-6,11,14-15,17H,7-10,13H2,1-2H3,(H,27,30)
InChIKey=JEGXOPNDOUMXBA-UHFFFAOYSA-N

> <PUBCHEM_SUBSTANCE_SYNONYM>
SCHEMBL16109870

> <PUBCHEM_XREF_EXT_ID>
SCHEMBL16109870

> <PUBCHEM_EXT_DATASOURCE_URL>
https://www.surechembl.org/

> <PUBCHEM_EXT_SUBSTANCE_URL>
https://www.surechembl.org/chemical/SCHEMBL16109870

> <PUBCHEM_CID_ASSOCIATIONS>
117601034  1

> <PUBCHEM_COORDINATE_TYPE>
1
3

$$$$
