310934997
  -OEChem-07211613022D

 33 36  0     1  0  0  0  0  0999 V2000
   -4.2869   -2.0625    0.0000 O   0  0  0  0  0  0  0  0  0  0  0  0
    4.2869   -2.0625    0.0000 O   0  0  0  0  0  0  0  0  0  0  0  0
    0.7145   -1.6500    0.0000 N   0  0  3  0  0  0  0  0  0  0  0  0
    0.7145    0.8250    0.0000 N   0  0  0  0  0  0  0  0  0  0  0  0
    1.4290   -0.4125    0.0000 N   0  0  0  0  0  0  0  0  0  0  0  0
   -3.5724   -0.8250    0.0000 N   0  0  0  0  0  0  0  0  0  0  0  0
    2.8579   -2.8876    0.0000 N   0  0  0  0  0  0  0  0  0  0  0  0
    5.0014   -3.3001    0.0000 N   0  0  0  0  0  0  0  0  0  0  0  0
    0.0000   -0.4125    0.0000 C   0  0  0  0  0  0  0  0  0  0  0  0
    0.0000    0.4125    0.0000 C   0  0  0  0  0  0  0  0  0  0  0  0
    0.7145   -0.8250    0.0000 C   0  0  0  0  0  0  0  0  0  0  0  0
   -1.4290   -0.4125    0.0000 C   0  0  0  0  0  0  0  0  0  0  0  0
   -0.7145    0.8250    0.0000 C   0  0  0  0  0  0  0  0  0  0  0  0
   -0.7145   -0.8250    0.0000 C   0  0  0  0  0  0  0  0  0  0  0  0
   -1.4290    0.4125    0.0000 C   0  0  0  0  0  0  0  0  0  0  0  0
   -2.1435   -0.8250    0.0000 C   0  0  0  0  0  0  0  0  0  0  0  0
    1.4290    0.4125    0.0000 C   0  0  0  0  0  0  0  0  0  0  0  0
    1.4290   -2.0625    0.0000 C   0  0  0  0  0  0  0  0  0  0  0  0
    0.0000   -2.0625    0.0000 C   0  0  0  0  0  0  0  0  0  0  0  0
    1.4290   -2.8876    0.0000 C   0  0  3  0  0  0  0  0  0  0  0  0
   -2.8579   -0.4125    0.0000 C   0  0  0  0  0  0  0  0  0  0  0  0
   -2.1435   -1.6500    0.0000 C   0  0  0  0  0  0  0  0  0  0  0  0
   -0.7145    1.6500    0.0000 C   0  0  0  0  0  0  0  0  0  0  0  0
    0.0000   -2.8876    0.0000 C   0  0  0  0  0  0  0  0  0  0  0  0
    0.7145   -3.3001    0.0000 C   0  0  0  0  0  0  0  0  0  0  0  0
    2.1435   -3.3001    0.0000 C   0  0  0  0  0  0  0  0  0  0  0  0
    3.5724   -3.3001    0.0000 C   0  0  0  0  0  0  0  0  0  0  0  0
   -3.5724   -1.6500    0.0000 C   0  0  0  0  0  0  0  0  0  0  0  0
   -2.8579   -2.0625    0.0000 C   0  0  0  0  0  0  0  0  0  0  0  0
    4.2869   -2.8876    0.0000 C   0  0  0  0  0  0  0  0  0  0  0  0
    3.9850   -4.0145    0.0000 C   0  0  0  0  0  0  0  0  0  0  0  0
    3.1599   -4.0145    0.0000 C   0  0  0  0  0  0  0  0  0  0  0  0
   -5.0014   -1.6500    0.0000 C   0  0  0  0  0  0  0  0  0  0  0  0
  1 28  1  0  0  0  0
  1 33  1  0  0  0  0
  2 30  2  0  0  0  0
  3 11  1  0  0  0  0
  3 18  1  0  0  0  0
  3 19  1  0  0  0  0
  4 10  2  0  0  0  0
  4 17  1  0  0  0  0
  5 11  1  0  0  0  0
  5 17  2  0  0  0  0
  6 21  2  0  0  0  0
  6 28  1  0  0  0  0
  7 26  1  0  0  0  0
  7 27  1  0  0  0  0
  8 30  1  0  0  0  0
  9 10  1  0  0  0  0
  9 11  2  0  0  0  0
  9 14  1  0  0  0  0
 10 13  1  0  0  0  0
 12 14  2  0  0  0  0
 12 15  1  0  0  0  0
 12 16  1  0  0  0  0
 13 15  2  0  0  0  0
 13 23  1  0  0  0  0
 16 21  1  0  0  0  0
 16 22  2  0  0  0  0
 18 20  1  0  0  0  0
 19 24  1  0  0  0  0
 20 25  1  0  0  0  0
 20 26  1  6  0  0  0
 22 29  1  0  0  0  0
 24 25  1  0  0  0  0
 27 30  1  0  0  0  0
 27 31  1  0  0  0  0
 27 32  1  0  0  0  0
 28 29  2  0  0  0  0
M  END
> <PUBCHEM_COMPOUND_ID_TYPE>
0

> <PUBCHEM_TOTAL_CHARGE>
0

> <PUBCHEM_SUBSTANCE_ID>
310934997

> <PUBCHEM_SUBSTANCE_VERSION>
1

> <PUBCHEM_EXT_DATASOURCE_NAME>
4488

> <PUBCHEM_EXT_DATASOURCE_REGID>
SCHEMBL16112515

> <PUBCHEM_SUBSTANCE_COMMENT>
InChI=1S/C25H32N6O2/c1-16-10-19(18-7-8-21(33-4)27-13-18)11-20-22(16)28-15-29-23(20)31-9-5-6-17(14-31)12-30-25(2,3)24(26)32/h7-8,10-11,13,15,17,30H,5-6,9,12,14H2,1-4H3,(H2,26,32)/t17-/m0/s1
InChIKey=XXFBBBUKFDVGQZ-KRWDZBQOSA-N

> <PUBCHEM_SUBSTANCE_SYNONYM>
SCHEMBL16112515

> <PUBCHEM_XREF_EXT_ID>
SCHEMBL16112515

> <PUBCHEM_EXT_DATASOURCE_URL>
https://www.surechembl.org/

> <PUBCHEM_EXT_SUBSTANCE_URL>
https://www.surechembl.org/chemical/SCHEMBL16112515

> <PUBCHEM_CID_ASSOCIATIONS>
117603111  1

> <PUBCHEM_COORDINATE_TYPE>
1
3

> <PUBCHEM_BONDANNOTATIONS>
20  26  6

$$$$
