310943561
  -OEChem-07211613022D

 35 39  0     0  0  0  0  0  0999 V2000
    3.5335   -2.2398    0.0000 S   0  0  0  0  0  0  0  0  0  0  0  0
   -4.2937    2.4501    0.0000 O   0  0  0  0  0  0  0  0  0  0  0  0
    1.3181   -0.0727    0.0000 O   0  0  0  0  0  0  0  0  0  0  0  0
    2.9352   -2.8543    0.0000 O   0  0  0  0  0  0  0  0  0  0  0  0
    2.7088   -2.0135    0.0000 O   0  0  0  0  0  0  0  0  0  0  0  0
   -1.4635    1.6253    0.0000 N   0  0  0  0  0  0  0  0  0  0  0  0
   -2.8705    1.6253    0.0000 N   0  0  0  0  0  0  0  0  0  0  0  0
   -2.7735   -0.1698    0.0000 N   0  0  0  0  0  0  0  0  0  0  0  0
   -1.6414   -0.8328    0.0000 N   0  0  0  0  0  0  0  0  0  0  0  0
    0.6550    2.8543    0.0000 N   0  0  0  0  0  0  0  0  0  0  0  0
    2.0620    1.2048    0.0000 N   0  0  0  0  0  0  0  0  0  0  0  0
    4.2775   -0.9460    0.0000 N   0  0  0  0  0  0  0  0  0  0  0  0
   -2.1913    0.3962    0.0000 C   0  0  0  0  0  0  0  0  0  0  0  0
   -2.1751    1.2210    0.0000 C   0  0  0  0  0  0  0  0  0  0  0  0
   -0.7519    1.2210    0.0000 C   0  0  0  0  0  0  0  0  0  0  0  0
   -1.4635   -0.0081    0.0000 C   0  0  0  0  0  0  0  0  0  0  0  0
   -0.0727    1.6253    0.0000 C   0  0  0  0  0  0  0  0  0  0  0  0
   -0.7681    0.3962    0.0000 C   0  0  0  0  0  0  0  0  0  0  0  0
   -0.0566    2.4501    0.0000 C   0  0  0  0  0  0  0  0  0  0  0  0
    0.6550    1.2210    0.0000 C   0  0  0  0  0  0  0  0  0  0  0  0
    1.3342    1.6253    0.0000 C   0  0  0  0  0  0  0  0  0  0  0  0
   -2.4501   -0.8975    0.0000 C   0  0  0  0  0  0  0  0  0  0  0  0
   -2.8867    2.4501    0.0000 C   0  0  0  0  0  0  0  0  0  0  0  0
   -3.5659    1.2210    0.0000 C   0  0  0  0  0  0  0  0  0  0  0  0
    2.8059   -0.0727    0.0000 C   0  0  0  0  0  0  0  0  0  0  0  0
    1.3504    2.4501    0.0000 C   0  0  0  0  0  0  0  0  0  0  0  0
    2.0620    0.3801    0.0000 C   0  0  0  0  0  0  0  0  0  0  0  0
    3.5335   -1.3665    0.0000 C   0  0  0  0  0  0  0  0  0  0  0  0
    2.8059   -0.9460    0.0000 C   0  0  0  0  0  0  0  0  0  0  0  0
   -0.7681    2.8382    0.0000 C   0  0  0  0  0  0  0  0  0  0  0  0
    3.5012    0.3477    0.0000 C   0  0  0  0  0  0  0  0  0  0  0  0
   -3.5983    2.8543    0.0000 C   0  0  0  0  0  0  0  0  0  0  0  0
   -4.2775    1.6253    0.0000 C   0  0  0  0  0  0  0  0  0  0  0  0
    4.2613   -0.0727    0.0000 C   0  0  0  0  0  0  0  0  0  0  0  0
    4.2937   -2.6764    0.0000 C   0  0  0  0  0  0  0  0  0  0  0  0
  1  4  2  0  0  0  0
  1  5  2  0  0  0  0
  1 28  1  0  0  0  0
  1 35  1  0  0  0  0
  2 32  1  0  0  0  0
  2 33  1  0  0  0  0
  3 27  2  0  0  0  0
  6 14  2  0  0  0  0
  6 15  1  0  0  0  0
  7 14  1  0  0  0  0
  7 23  1  0  0  0  0
  7 24  1  0  0  0  0
  8 13  1  0  0  0  0
  8 22  2  0  0  0  0
  9 16  1  0  0  0  0
  9 22  1  0  0  0  0
 10 19  1  0  0  0  0
 10 26  2  0  0  0  0
 11 21  1  0  0  0  0
 11 27  1  0  0  0  0
 12 28  2  0  0  0  0
 12 34  1  0  0  0  0
 13 14  1  0  0  0  0
 13 16  2  0  0  0  0
 15 17  1  0  0  0  0
 15 18  2  0  0  0  0
 16 18  1  0  0  0  0
 17 19  2  0  0  0  0
 17 20  1  0  0  0  0
 19 30  1  0  0  0  0
 20 21  2  0  0  0  0
 21 26  1  0  0  0  0
 23 32  1  0  0  0  0
 24 33  1  0  0  0  0
 25 27  1  0  0  0  0
 25 29  2  0  0  0  0
 25 31  1  0  0  0  0
 28 29  1  0  0  0  0
 31 34  2  0  0  0  0
M  END
> <PUBCHEM_COMPOUND_ID_TYPE>
0

> <PUBCHEM_TOTAL_CHARGE>
0

> <PUBCHEM_SUBSTANCE_ID>
310943561

> <PUBCHEM_SUBSTANCE_VERSION>
1

> <PUBCHEM_EXT_DATASOURCE_NAME>
4488

> <PUBCHEM_EXT_DATASOURCE_REGID>
SCHEMBL16121628

> <PUBCHEM_SUBSTANCE_COMMENT>
InChI=1S/C23H23N7O4S/c1-14-17(18-11-19-21(27-13-26-19)22(29-18)30-5-7-34-8-6-30)10-16(12-25-14)28-23(31)15-3-4-24-20(9-15)35(2,32)33/h3-4,9-13H,5-8H2,1-2H3,(H,26,27)(H,28,31)
InChIKey=COCBCTNHHCFGCB-UHFFFAOYSA-N

> <PUBCHEM_SUBSTANCE_SYNONYM>
SCHEMBL16121628

> <PUBCHEM_XREF_EXT_ID>
SCHEMBL16121628

> <PUBCHEM_EXT_DATASOURCE_URL>
https://www.surechembl.org/

> <PUBCHEM_EXT_SUBSTANCE_URL>
https://www.surechembl.org/chemical/SCHEMBL16121628

> <PUBCHEM_CID_ASSOCIATIONS>
117609971  1

> <PUBCHEM_COORDINATE_TYPE>
1
3

$$$$
