310937431
  -OEChem-07211613022D

 26 29  0     0  0  0  0  0  0999 V2000
   -3.0367   -1.4045    0.0000 O   0  0  0  0  0  0  0  0  0  0  0  0
    0.7145   -0.4125    0.0000 O   0  0  0  0  0  0  0  0  0  0  0  0
   -2.8972   -0.0770    0.0000 N   0  0  0  0  0  0  0  0  0  0  0  0
   -1.4290    0.8250    0.0000 N   0  0  0  0  0  0  0  0  0  0  0  0
   -2.2297   -1.2330    0.0000 N   0  0  0  0  0  0  0  0  0  0  0  0
    2.8579   -1.6500    0.0000 N   0  0  0  0  0  0  0  0  0  0  0  0
    0.0000    0.8250    0.0000 C   0  0  0  0  0  0  0  0  0  0  0  0
   -1.4290    0.0000    0.0000 C   0  0  0  0  0  0  0  0  0  0  0  0
   -2.1435   -0.4125    0.0000 C   0  0  0  0  0  0  0  0  0  0  0  0
    0.0000    0.0000    0.0000 C   0  0  0  0  0  0  0  0  0  0  0  0
    0.7145    1.2375    0.0000 C   0  0  0  0  0  0  0  0  0  0  0  0
   -3.4492   -0.6901    0.0000 C   0  0  0  0  0  0  0  0  0  0  0  0
   -0.7145   -0.4125    0.0000 C   0  0  0  0  0  0  0  0  0  0  0  0
   -4.2697   -0.6038    0.0000 C   0  0  0  0  0  0  0  0  0  0  0  0
   -0.7145    1.2375    0.0000 C   0  0  0  0  0  0  0  0  0  0  0  0
    1.1270    1.9520    0.0000 C   0  0  0  0  0  0  0  0  0  0  0  0
    1.5395    1.2375    0.0000 C   0  0  0  0  0  0  0  0  0  0  0  0
    1.4290    0.0000    0.0000 C   0  0  0  0  0  0  0  0  0  0  0  0
   -5.0902   -0.5176    0.0000 C   0  0  0  0  0  0  0  0  0  0  0  0
   -4.6053    0.1499    0.0000 C   0  0  0  0  0  0  0  0  0  0  0  0
   -4.7546   -1.2713    0.0000 C   0  0  0  0  0  0  0  0  0  0  0  0
    2.1435   -0.4125    0.0000 C   0  0  0  0  0  0  0  0  0  0  0  0
    2.1435   -1.2375    0.0000 C   0  0  0  0  0  0  0  0  0  0  0  0
    2.8579    0.0000    0.0000 C   0  0  0  0  0  0  0  0  0  0  0  0
    3.5724   -0.4125    0.0000 C   0  0  0  0  0  0  0  0  0  0  0  0
    3.5724   -1.2375    0.0000 C   0  0  0  0  0  0  0  0  0  0  0  0
  1  5  1  0  0  0  0
  1 12  1  0  0  0  0
  2 10  1  0  0  0  0
  2 18  1  0  0  0  0
  3  9  1  0  0  0  0
  3 12  2  0  0  0  0
  4  8  2  0  0  0  0
  4 15  1  0  0  0  0
  5  9  2  0  0  0  0
  6 23  2  0  0  0  0
  6 26  1  0  0  0  0
  7 10  1  0  0  0  0
  7 11  1  0  0  0  0
  7 15  2  0  0  0  0
  8  9  1  0  0  0  0
  8 13  1  0  0  0  0
 10 13  2  0  0  0  0
 11 16  1  0  0  0  0
 11 17  1  0  0  0  0
 12 14  1  0  0  0  0
 14 19  1  0  0  0  0
 14 20  1  0  0  0  0
 14 21  1  0  0  0  0
 16 17  1  0  0  0  0
 18 22  1  0  0  0  0
 22 23  1  0  0  0  0
 22 24  2  0  0  0  0
 24 25  1  0  0  0  0
 25 26  2  0  0  0  0
M  END
> <PUBCHEM_COMPOUND_ID_TYPE>
0

> <PUBCHEM_TOTAL_CHARGE>
0

> <PUBCHEM_SUBSTANCE_ID>
310937431

> <PUBCHEM_SUBSTANCE_VERSION>
1

> <PUBCHEM_EXT_DATASOURCE_NAME>
4488

> <PUBCHEM_EXT_DATASOURCE_REGID>
SCHEMBL16115195

> <PUBCHEM_SUBSTANCE_COMMENT>
InChI=1S/C20H22N4O2/c1-20(2,3)19-23-18(24-26-19)16-9-17(15(11-22-16)14-6-7-14)25-12-13-5-4-8-21-10-13/h4-5,8-11,14H,6-7,12H2,1-3H3
InChIKey=IWDOHNFAQZIYQL-UHFFFAOYSA-N

> <PUBCHEM_SUBSTANCE_SYNONYM>
SCHEMBL16115195

> <PUBCHEM_XREF_EXT_ID>
SCHEMBL16115195

> <PUBCHEM_EXT_DATASOURCE_URL>
https://www.surechembl.org/

> <PUBCHEM_EXT_SUBSTANCE_URL>
https://www.surechembl.org/chemical/SCHEMBL16115195

> <PUBCHEM_CID_ASSOCIATIONS>
117605183  1

> <PUBCHEM_COORDINATE_TYPE>
1
3

$$$$
