310937986
  -OEChem-07211613022D

 38 41  0     0  0  0  0  0  0999 V2000
   10.7508   -4.0853    0.0000 O   0  0  0  0  0  0  0  0  0  0  0  0
    8.6723   -6.1279    0.0000 O   0  0  0  0  0  0  0  0  0  0  0  0
    7.2388   -6.1279    0.0000 O   0  0  0  0  0  0  0  0  0  0  0  0
    1.4693   -1.2184    0.0000 O   0  0  0  0  0  0  0  0  0  0  0  0
    2.1502    0.0000    0.0000 O   0  0  0  0  0  0  0  0  0  0  0  0
    9.4607   -3.4044    0.0000 N   0  0  0  0  0  0  0  0  0  0  0  0
    5.0887   -3.2611    0.0000 N   0  0  0  0  0  0  0  0  0  0  0  0
    4.3361   -2.0426    0.0000 N   0  0  0  0  0  0  0  0  0  0  0  0
    2.8668   -1.2184    0.0000 N   0  0  0  0  0  0  0  0  0  0  0  0
    8.6723   -4.4795    0.0000 C   0  0  0  0  0  0  0  0  0  0  0  0
    9.4607   -4.7662    0.0000 C   0  0  0  0  0  0  0  0  0  0  0  0
    8.6723   -3.6911    0.0000 C   0  0  0  0  0  0  0  0  0  0  0  0
    9.9265   -4.0853    0.0000 C   0  0  0  0  0  0  0  0  0  0  0  0
    7.9555   -4.9095    0.0000 C   0  0  0  0  0  0  0  0  0  0  0  0
    7.9555   -3.2611    0.0000 C   0  0  0  0  0  0  0  0  0  0  0  0
    7.2388   -3.6911    0.0000 C   0  0  0  0  0  0  0  0  0  0  0  0
    7.2388   -4.4795    0.0000 C   0  0  0  0  0  0  0  0  0  0  0  0
    9.7115   -2.6160    0.0000 C   0  0  0  0  0  0  0  0  0  0  0  0
    7.9555   -5.7338    0.0000 C   0  0  0  0  0  0  0  0  0  0  0  0
    9.7115   -5.5187    0.0000 C   0  0  0  0  0  0  0  0  0  0  0  0
   10.2849   -4.8737    0.0000 C   0  0  0  0  0  0  0  0  0  0  0  0
    6.5221   -3.2611    0.0000 C   0  0  0  0  0  0  0  0  0  0  0  0
    5.7696   -3.6911    0.0000 C   0  0  0  0  0  0  0  0  0  0  0  0
    6.4863   -2.4369    0.0000 C   0  0  0  0  0  0  0  0  0  0  0  0
    9.1381   -2.0068    0.0000 C   0  0  0  0  0  0  0  0  0  0  0  0
   10.4999   -2.4369    0.0000 C   0  0  0  0  0  0  0  0  0  0  0  0
    5.0529   -2.4369    0.0000 C   0  0  0  0  0  0  0  0  0  0  0  0
    5.7696   -2.0426    0.0000 C   0  0  0  0  0  0  0  0  0  0  0  0
    4.3361   -1.2184    0.0000 C   0  0  0  0  0  0  0  0  0  0  0  0
    3.6194   -2.4727    0.0000 C   0  0  0  0  0  0  0  0  0  0  0  0
    8.6723   -6.9522    0.0000 C   0  0  0  0  0  0  0  0  0  0  0  0
    2.9027   -2.0426    0.0000 C   0  0  0  0  0  0  0  0  0  0  0  0
    3.5836   -0.7884    0.0000 C   0  0  0  0  0  0  0  0  0  0  0  0
    2.1502   -0.8242    0.0000 C   0  0  0  0  0  0  0  0  0  0  0  0
    0.7167   -0.8242    0.0000 C   0  0  0  0  0  0  0  0  0  0  0  0
    0.0000   -0.4300    0.0000 C   0  0  0  0  0  0  0  0  0  0  0  0
    1.1467   -0.1075    0.0000 C   0  0  0  0  0  0  0  0  0  0  0  0
    0.3225   -1.5410    0.0000 C   0  0  0  0  0  0  0  0  0  0  0  0
  1 13  2  0  0  0  0
  2 19  1  0  0  0  0
  2 31  1  0  0  0  0
  3 19  2  0  0  0  0
  4 34  1  0  0  0  0
  4 35  1  0  0  0  0
  5 34  2  0  0  0  0
  6 12  1  0  0  0  0
  6 13  1  0  0  0  0
  6 18  1  0  0  0  0
  7 23  1  0  0  0  0
  7 27  2  0  0  0  0
  8 27  1  0  0  0  0
  8 29  1  0  0  0  0
  8 30  1  0  0  0  0
  9 32  1  0  0  0  0
  9 33  1  0  0  0  0
  9 34  1  0  0  0  0
 10 11  1  0  0  0  0
 10 12  2  0  0  0  0
 10 14  1  0  0  0  0
 11 13  1  0  0  0  0
 11 20  1  0  0  0  0
 11 21  1  0  0  0  0
 12 15  1  0  0  0  0
 14 17  2  0  0  0  0
 14 19  1  0  0  0  0
 15 16  2  0  0  0  0
 16 17  1  0  0  0  0
 16 22  1  0  0  0  0
 18 25  1  0  0  0  0
 18 26  1  0  0  0  0
 22 23  2  0  0  0  0
 22 24  1  0  0  0  0
 24 28  2  0  0  0  0
 27 28  1  0  0  0  0
 29 33  1  0  0  0  0
 30 32  1  0  0  0  0
 35 36  1  0  0  0  0
 35 37  1  0  0  0  0
 35 38  1  0  0  0  0
M  END
> <PUBCHEM_COMPOUND_ID_TYPE>
0

> <PUBCHEM_TOTAL_CHARGE>
0

> <PUBCHEM_SUBSTANCE_ID>
310937986

> <PUBCHEM_SUBSTANCE_VERSION>
1

> <PUBCHEM_EXT_DATASOURCE_NAME>
4488

> <PUBCHEM_EXT_DATASOURCE_REGID>
SCHEMBL16115822

> <PUBCHEM_SUBSTANCE_COMMENT>
InChI=1S/C29H38N4O5/c1-18(2)33-22-16-20(15-21(25(34)37-8)24(22)29(6,7)26(33)35)19-9-10-23(30-17-19)31-11-13-32(14-12-31)27(36)38-28(3,4)5/h9-10,15-18H,11-14H2,1-8H3
InChIKey=XJSNEOWMOBONLE-UHFFFAOYSA-N

> <PUBCHEM_SUBSTANCE_SYNONYM>
SCHEMBL16115822

> <PUBCHEM_XREF_EXT_ID>
SCHEMBL16115822

> <PUBCHEM_EXT_DATASOURCE_URL>
https://www.surechembl.org/

> <PUBCHEM_EXT_SUBSTANCE_URL>
https://www.surechembl.org/chemical/SCHEMBL16115822

> <PUBCHEM_CID_ASSOCIATIONS>
117605584  1

> <PUBCHEM_COORDINATE_TYPE>
1
3

$$$$
