310934349
  -OEChem-07211613022D

 28 32  0     0  0  0  0  0  0999 V2000
    2.8580    0.0000    0.0000 O   0  0  0  0  0  0  0  0  0  0  0  0
    4.3003   -2.4840    0.0000 O   0  0  0  0  0  0  0  0  0  0  0  0
    1.4424   -1.6561    0.0000 O   0  0  0  0  0  0  0  0  0  0  0  0
    2.8580   -1.6561    0.0000 N   0  0  0  0  0  0  0  0  0  0  0  0
    3.5525   -3.7127    0.0000 N   0  0  0  0  0  0  0  0  0  0  0  0
    2.8580   -2.4840    0.0000 C   0  0  0  0  0  0  0  0  0  0  0  0
    2.1635   -2.8847    0.0000 C   0  0  0  0  0  0  0  0  0  0  0  0
    2.1368   -3.7127    0.0000 C   0  0  0  0  0  0  0  0  0  0  0  0
    3.5791   -1.2554    0.0000 C   0  0  0  0  0  0  0  0  0  0  0  0
    3.5791   -2.8847    0.0000 C   0  0  0  0  0  0  0  0  0  0  0  0
    2.8580   -4.1401    0.0000 C   0  0  0  0  0  0  0  0  0  0  0  0
    2.1368   -1.2554    0.0000 C   0  0  0  0  0  0  0  0  0  0  0  0
    1.4424   -2.4840    0.0000 C   0  0  0  0  0  0  0  0  0  0  0  0
    3.5791   -0.4273    0.0000 C   0  0  0  0  0  0  0  0  0  0  0  0
    1.4424   -4.1134    0.0000 C   0  0  0  0  0  0  0  0  0  0  0  0
    2.1368   -0.4273    0.0000 C   0  0  0  0  0  0  0  0  0  0  0  0
    4.2737   -1.6561    0.0000 C   0  0  0  0  0  0  0  0  0  0  0  0
    2.8580   -4.9414    0.0000 C   0  0  0  0  0  0  0  0  0  0  0  0
    0.7212   -2.8847    0.0000 C   0  0  0  0  0  0  0  0  0  0  0  0
    1.6026   -1.8163    0.0000 C   0  0  0  0  0  0  0  0  0  0  0  0
    4.2737    0.0000    0.0000 C   0  0  0  0  0  0  0  0  0  0  0  0
    1.4424   -4.9414    0.0000 C   0  0  0  0  0  0  0  0  0  0  0  0
    4.9948   -1.2554    0.0000 C   0  0  0  0  0  0  0  0  0  0  0  0
    2.1635   -5.3420    0.0000 C   0  0  0  0  0  0  0  0  0  0  0  0
    4.9948   -0.4273    0.0000 C   0  0  0  0  0  0  0  0  0  0  0  0
    0.0000   -2.4840    0.0000 C   0  0  0  0  0  0  0  0  0  0  0  0
    0.7212   -1.2554    0.0000 C   0  0  0  0  0  0  0  0  0  0  0  0
    0.0000   -1.6561    0.0000 C   0  0  0  0  0  0  0  0  0  0  0  0
  1 14  1  0  0  0  0
  1 16  1  0  0  0  0
  2 10  2  0  0  0  0
  3 12  2  0  0  0  0
  4  6  1  0  0  0  0
  4  9  1  0  0  0  0
  4 12  1  0  0  0  0
  5 10  1  0  0  0  0
  5 11  1  0  0  0  0
  6  7  2  0  0  0  0
  6 10  1  0  0  0  0
  7  8  1  0  0  0  0
  7 13  1  0  0  0  0
  8 11  2  0  0  0  0
  8 15  1  0  0  0  0
  9 14  2  0  0  0  0
  9 17  1  0  0  0  0
 11 18  1  0  0  0  0
 12 16  1  0  0  0  0
 13 19  2  0  0  0  0
 13 20  1  0  0  0  0
 14 21  1  0  0  0  0
 15 22  2  0  0  0  0
 17 23  2  0  0  0  0
 18 24  2  0  0  0  0
 19 26  1  0  0  0  0
 20 27  2  0  0  0  0
 21 25  2  0  0  0  0
 22 24  1  0  0  0  0
 23 25  1  0  0  0  0
 26 28  2  0  0  0  0
 27 28  1  0  0  0  0
M  END
> <PUBCHEM_COMPOUND_ID_TYPE>
0

> <PUBCHEM_TOTAL_CHARGE>
0

> <PUBCHEM_SUBSTANCE_ID>
310934349

> <PUBCHEM_SUBSTANCE_VERSION>
1

> <PUBCHEM_EXT_DATASOURCE_NAME>
4488

> <PUBCHEM_EXT_DATASOURCE_REGID>
SCHEMBL16111813

> <PUBCHEM_SUBSTANCE_COMMENT>
InChI=1S/C23H16N2O3/c26-20-14-28-19-13-7-6-12-18(19)25(20)22-21(15-8-2-1-3-9-15)16-10-4-5-11-17(16)24-23(22)27/h1-13H,14H2,(H,24,27)
InChIKey=PSVXKWLOICQTME-UHFFFAOYSA-N

> <PUBCHEM_SUBSTANCE_SYNONYM>
SCHEMBL16111813

> <PUBCHEM_XREF_EXT_ID>
SCHEMBL16111813

> <PUBCHEM_EXT_DATASOURCE_URL>
https://www.surechembl.org/

> <PUBCHEM_EXT_SUBSTANCE_URL>
https://www.surechembl.org/chemical/SCHEMBL16111813

> <PUBCHEM_CID_ASSOCIATIONS>
17634732  1

> <PUBCHEM_COORDINATE_TYPE>
1
3

$$$$
