310935392
  -OEChem-07211613022D

 34 37  0     0  0  0  0  0  0999 V2000
    3.3749   -6.7874    0.0000 S   0  0  0  0  0  0  0  0  0  0  0  0
    0.0000    0.0000    0.0000 F   0  0  0  0  0  0  0  0  0  0  0  0
    1.3500   -3.6749    0.0000 O   0  0  0  0  0  0  0  0  0  0  0  0
    3.8999   -2.5500    0.0000 O   0  0  0  0  0  0  0  0  0  0  0  0
    2.9625   -7.4999    0.0000 O   0  0  0  0  0  0  0  0  0  0  0  0
    3.8249   -6.0374    0.0000 O   0  0  0  0  0  0  0  0  0  0  0  0
    6.3374   -4.2374    0.0000 O   0  0  0  0  0  0  0  0  0  0  0  0
    7.0499   -5.5124    0.0000 O   0  0  0  0  0  0  0  0  0  0  0  0
    2.8125   -1.6124    0.0000 N   0  0  0  0  0  0  0  0  0  0  0  0
    2.6999   -3.8249    0.0000 C   0  0  0  0  0  0  0  0  0  0  0  0
    2.5125   -3.0374    0.0000 C   0  0  0  0  0  0  0  0  0  0  0  0
    1.9500   -4.2749    0.0000 C   0  0  0  0  0  0  0  0  0  0  0  0
    1.6500   -2.9250    0.0000 C   0  0  0  0  0  0  0  0  0  0  0  0
    3.4125   -5.0624    0.0000 C   0  0  0  0  0  0  0  0  0  0  0  0
    2.6625   -5.5124    0.0000 C   0  0  0  0  0  0  0  0  0  0  0  0
    3.4125   -4.2749    0.0000 C   0  0  0  0  0  0  0  0  0  0  0  0
    1.9500   -5.0999    0.0000 C   0  0  0  0  0  0  0  0  0  0  0  0
    1.2375   -2.1749    0.0000 C   0  0  0  0  0  0  0  0  0  0  0  0
    3.0749   -2.4000    0.0000 C   0  0  0  0  0  0  0  0  0  0  0  0
    4.1249   -5.5124    0.0000 C   0  0  0  0  0  0  0  0  0  0  0  0
    2.6625   -6.3374    0.0000 C   0  0  0  0  0  0  0  0  0  0  0  0
    0.4125   -2.1749    0.0000 C   0  0  0  0  0  0  0  0  0  0  0  0
    1.6500   -1.4625    0.0000 C   0  0  0  0  0  0  0  0  0  0  0  0
    4.8750   -5.0624    0.0000 C   0  0  0  0  0  0  0  0  0  0  0  0
    4.1249   -6.3374    0.0000 C   0  0  0  0  0  0  0  0  0  0  0  0
    5.5874   -5.5124    0.0000 C   0  0  0  0  0  0  0  0  0  0  0  0
    0.0000   -1.4625    0.0000 C   0  0  0  0  0  0  0  0  0  0  0  0
    1.2375   -0.7500    0.0000 C   0  0  0  0  0  0  0  0  0  0  0  0
    0.4125   -0.7500    0.0000 C   0  0  0  0  0  0  0  0  0  0  0  0
    4.8750   -6.7499    0.0000 C   0  0  0  0  0  0  0  0  0  0  0  0
    5.5874   -6.3374    0.0000 C   0  0  0  0  0  0  0  0  0  0  0  0
    6.3374   -5.0624    0.0000 C   0  0  0  0  0  0  0  0  0  0  0  0
    4.0874   -7.1999    0.0000 C   0  0  0  0  0  0  0  0  0  0  0  0
    3.3749   -0.9750    0.0000 C   0  0  0  0  0  0  0  0  0  0  0  0
  1  5  2  0  0  0  0
  1  6  2  0  0  0  0
  1 21  1  0  0  0  0
  1 33  1  0  0  0  0
  2 29  1  0  0  0  0
  3 12  1  0  0  0  0
  3 13  1  0  0  0  0
  4 19  2  0  0  0  0
  7 32  2  0  0  0  0
  8 32  1  0  0  0  0
  9 19  1  0  0  0  0
  9 34  1  0  0  0  0
 10 11  1  0  0  0  0
 10 12  2  0  0  0  0
 10 16  1  0  0  0  0
 11 13  2  0  0  0  0
 11 19  1  0  0  0  0
 12 17  1  0  0  0  0
 13 18  1  0  0  0  0
 14 15  1  0  0  0  0
 14 16  2  0  0  0  0
 14 20  1  0  0  0  0
 15 17  2  0  0  0  0
 15 21  1  0  0  0  0
 18 22  2  0  0  0  0
 18 23  1  0  0  0  0
 20 24  1  0  0  0  0
 20 25  2  0  0  0  0
 22 27  1  0  0  0  0
 23 28  2  0  0  0  0
 24 26  2  0  0  0  0
 25 30  1  0  0  0  0
 26 31  1  0  0  0  0
 26 32  1  0  0  0  0
 27 29  2  0  0  0  0
 28 29  1  0  0  0  0
 30 31  2  0  0  0  0
M  END
> <PUBCHEM_COMPOUND_ID_TYPE>
0

> <PUBCHEM_TOTAL_CHARGE>
0

> <PUBCHEM_SUBSTANCE_ID>
310935392

> <PUBCHEM_SUBSTANCE_VERSION>
1

> <PUBCHEM_EXT_DATASOURCE_NAME>
4488

> <PUBCHEM_EXT_DATASOURCE_REGID>
SCHEMBL16112932

> <PUBCHEM_SUBSTANCE_COMMENT>
InChI=1S/C25H20FNO6S/c1-27-24(28)22-20-12-19(15-4-3-5-16(10-15)25(29)30)17(13-34(2,31)32)11-21(20)33-23(22)14-6-8-18(26)9-7-14/h3-12H,13H2,1-2H3,(H,27,28)(H,29,30)
InChIKey=ZKAQMTYZCNQCDW-UHFFFAOYSA-N

> <PUBCHEM_SUBSTANCE_SYNONYM>
SCHEMBL16112932

> <PUBCHEM_XREF_EXT_ID>
SCHEMBL16112932

> <PUBCHEM_EXT_DATASOURCE_URL>
https://www.surechembl.org/

> <PUBCHEM_EXT_SUBSTANCE_URL>
https://www.surechembl.org/chemical/SCHEMBL16112932

> <PUBCHEM_CID_ASSOCIATIONS>
117603442  1

> <PUBCHEM_COORDINATE_TYPE>
1
3

$$$$
