310947684
  -OEChem-07211613022D

 43 47  0     1  0  0  0  0  0999 V2000
    0.8313   -3.5605    0.0000 Cl  0  0  0  0  0  0  0  0  0  0  0  0
   -4.4611   -2.2998    0.0000 Cl  0  0  0  0  0  0  0  0  0  0  0  0
   -2.7570    1.8703    0.0000 S   0  0  0  0  0  0  0  0  0  0  0  0
    0.1247   -0.6373    0.0000 O   0  0  0  0  0  0  0  0  0  0  0  0
   -0.5957    1.4547    0.0000 O   0  0  0  0  0  0  0  0  0  0  0  0
    3.7268   -1.8842    0.0000 O   0  0  0  0  0  0  0  0  0  0  0  0
    4.4333   -0.6373    0.0000 O   0  0  0  0  0  0  0  0  0  0  0  0
   -1.3161    0.2078    0.0000 N   0  0  0  0  0  0  0  0  0  0  0  0
    2.2859    0.6234    0.0000 N   0  0  0  0  0  0  0  0  0  0  0  0
   -1.3023   -0.6234    0.0000 C   0  0  3  0  0  0  0  0  0  0  0  0
    0.1109    0.2217    0.0000 C   0  0  3  0  0  0  0  0  0  0  0  0
   -0.6096    0.6096    0.0000 C   0  0  0  0  0  0  0  0  0  0  0  0
   -0.5957   -1.0391    0.0000 C   0  0  3  0  0  0  0  0  0  0  0  0
   -2.0366    0.6373    0.0000 C   0  0  3  0  0  0  0  0  0  0  0  0
   -2.0504   -1.0391    0.0000 C   0  0  0  0  0  0  0  0  0  0  0  0
   -2.7986    0.1801    0.0000 C   0  0  0  0  0  0  0  0  0  0  0  0
   -0.6096   -1.8980    0.0000 C   0  0  0  0  0  0  0  0  0  0  0  0
    0.8313    0.6096    0.0000 C   0  0  0  0  0  0  0  0  0  0  0  0
    0.3464    1.0114    0.0000 C   0  0  0  0  0  0  0  0  0  0  0  0
   -2.0366    1.4547    0.0000 C   0  0  0  0  0  0  0  0  0  0  0  0
   -3.5605    0.2078    0.0000 C   0  0  0  0  0  0  0  0  0  0  0  0
   -3.1588   -0.4987    0.0000 C   0  0  0  0  0  0  0  0  0  0  0  0
    1.5655    0.2078    0.0000 C   0  0  0  0  0  0  0  0  0  0  0  0
   -2.7431   -0.6373    0.0000 C   0  0  0  0  0  0  0  0  0  0  0  0
   -2.0366   -1.8703    0.0000 C   0  0  0  0  0  0  0  0  0  0  0  0
    0.1109   -2.2998    0.0000 C   0  0  0  0  0  0  0  0  0  0  0  0
   -1.3023   -2.2998    0.0000 C   0  0  0  0  0  0  0  0  0  0  0  0
    0.1109   -3.1172    0.0000 C   0  0  0  0  0  0  0  0  0  0  0  0
   -3.4636   -1.0391    0.0000 C   0  0  0  0  0  0  0  0  0  0  0  0
   -2.7431   -2.2859    0.0000 C   0  0  0  0  0  0  0  0  0  0  0  0
    1.5655   -0.6234    0.0000 C   0  0  0  0  0  0  0  0  0  0  0  0
   -3.4774   -1.8703    0.0000 C   0  0  0  0  0  0  0  0  0  0  0  0
   -1.3023   -3.1311    0.0000 C   0  0  0  0  0  0  0  0  0  0  0  0
   -2.7431    2.7293    0.0000 C   0  0  0  0  0  0  0  0  0  0  0  0
   -0.5818   -3.5328    0.0000 C   0  0  0  0  0  0  0  0  0  0  0  0
    2.9925   -0.6234    0.0000 C   0  0  0  0  0  0  0  0  0  0  0  0
    3.0063    0.2078    0.0000 C   0  0  0  0  0  0  0  0  0  0  0  0
    2.2859   -1.0391    0.0000 C   0  0  0  0  0  0  0  0  0  0  0  0
    3.7130   -1.0391    0.0000 C   0  0  0  0  0  0  0  0  0  0  0  0
   -2.7570    3.5605    0.0000 C   0  0  0  0  0  0  0  0  0  0  0  0
   -3.4774    3.1311    0.0000 C   0  0  0  0  0  0  0  0  0  0  0  0
   -2.0227    3.1311    0.0000 C   0  0  0  0  0  0  0  0  0  0  0  0
    4.4611   -2.3137    0.0000 C   0  0  0  0  0  0  0  0  0  0  0  0
  1 28  1  0  0  0  0
  2 32  1  0  0  0  0
  3 20  1  0  0  0  0
  3 34  1  0  0  0  0
  4 11  1  0  0  0  0
 13  4  1  6  0  0  0
  5 12  2  0  0  0  0
  6 39  1  0  0  0  0
  6 43  1  0  0  0  0
  7 39  2  0  0  0  0
 10  8  1  1  0  0  0
  8 12  1  0  0  0  0
  8 14  1  0  0  0  0
  9 23  1  0  0  0  0
  9 37  2  0  0  0  0
 10 13  1  0  0  0  0
 10 15  1  0  0  0  0
 11 12  1  0  0  0  0
 11 18  1  6  0  0  0
 11 19  1  1  0  0  0
 13 17  1  0  0  0  0
 14 16  1  0  0  0  0
 14 20  1  1  0  0  0
 15 24  2  0  0  0  0
 15 25  1  0  0  0  0
 16 21  1  0  0  0  0
 16 22  1  0  0  0  0
 17 26  1  0  0  0  0
 17 27  2  0  0  0  0
 18 23  1  0  0  0  0
 21 22  1  0  0  0  0
 23 31  2  0  0  0  0
 24 29  1  0  0  0  0
 25 30  2  0  0  0  0
 26 28  2  0  0  0  0
 27 33  1  0  0  0  0
 28 35  1  0  0  0  0
 29 32  2  0  0  0  0
 30 32  1  0  0  0  0
 31 38  1  0  0  0  0
 33 35  2  0  0  0  0
 34 40  1  0  0  0  0
 34 41  1  0  0  0  0
 34 42  1  0  0  0  0
 36 37  1  0  0  0  0
 36 38  2  0  0  0  0
 36 39  1  0  0  0  0
M  END
> <PUBCHEM_COMPOUND_ID_TYPE>
0

> <PUBCHEM_TOTAL_CHARGE>
0

> <PUBCHEM_SUBSTANCE_ID>
310947684

> <PUBCHEM_SUBSTANCE_VERSION>
1

> <PUBCHEM_EXT_DATASOURCE_NAME>
4488

> <PUBCHEM_EXT_DATASOURCE_REGID>
SCHEMBL16125852

> <PUBCHEM_SUBSTANCE_COMMENT>
InChI=1S/C34H38Cl2N2O4S/c1-33(2,3)43-20-28(21-9-10-21)38-29(22-11-14-25(35)15-12-22)30(23-7-6-8-26(36)17-23)42-34(4,32(38)40)18-27-16-13-24(19-37-27)31(39)41-5/h6-8,11-17,19,21,28-30H,9-10,18,20H2,1-5H3/t28-,29-,30-,34+/m1/s1
InChIKey=QBOFQCNQORNAQE-JCUDBWTNSA-N

> <PUBCHEM_SUBSTANCE_SYNONYM>
SCHEMBL16125852

> <PUBCHEM_XREF_EXT_ID>
SCHEMBL16125852

> <PUBCHEM_EXT_DATASOURCE_URL>
https://www.surechembl.org/

> <PUBCHEM_EXT_SUBSTANCE_URL>
https://www.surechembl.org/chemical/SCHEMBL16125852

> <PUBCHEM_CID_ASSOCIATIONS>
117613399  1

> <PUBCHEM_COORDINATE_TYPE>
1
3

> <PUBCHEM_BONDANNOTATIONS>
11  18  6
11  19  5
14  20  5
13  4  6
10  8  5

$$$$
