310947989
  -OEChem-07211613022D

 27 31  0     1  0  0  0  0  0999 V2000
   -1.1488   -0.1178    0.0000 O   0  0  0  0  0  0  0  0  0  0  0  0
   -1.4581    2.0620    0.0000 O   0  0  0  0  0  0  0  0  0  0  0  0
   -2.1799   -0.8248    0.0000 O   0  0  0  0  0  0  0  0  0  0  0  0
   -2.1799    0.8248    0.0000 O   0  0  0  0  0  0  0  0  0  0  0  0
    2.1209   -0.8837    0.0000 N   0  0  3  0  0  0  0  0  0  0  0  0
   -1.4729   -2.0620    0.0000 N   0  0  0  0  0  0  0  0  0  0  0  0
   -0.0295   -0.3829    0.0000 C   0  0  3  0  0  0  0  0  0  0  0  0
   -0.0295    0.4271    0.0000 C   0  0  0  0  0  0  0  0  0  0  0  0
   -0.7512   -0.8100    0.0000 C   0  0  3  0  0  0  0  0  0  0  0  0
    0.6923   -0.8100    0.0000 C   0  0  3  0  0  0  0  0  0  0  0  0
   -0.7512    0.8248    0.0000 C   0  0  0  0  0  0  0  0  0  0  0  0
    0.6776    0.8543    0.0000 C   0  0  0  0  0  0  0  0  0  0  0  0
    1.3845   -0.3977    0.0000 C   0  0  3  0  0  0  0  0  0  0  0  0
    0.5450    0.0589    0.0000 C   0  0  0  0  0  0  0  0  0  0  0  0
   -0.7512   -1.6349    0.0000 C   0  0  3  0  0  0  0  0  0  0  0  0
    1.3845    0.4271    0.0000 C   0  0  0  0  0  0  0  0  0  0  0  0
   -0.7512    1.6643    0.0000 C   0  0  0  0  0  0  0  0  0  0  0  0
    0.6776   -1.6349    0.0000 C   0  0  0  0  0  0  0  0  0  0  0  0
    1.8559    0.0442    0.0000 C   0  0  0  0  0  0  0  0  0  0  0  0
   -0.0442   -2.0326    0.0000 C   0  0  0  0  0  0  0  0  0  0  0  0
    0.6776    1.6497    0.0000 C   0  0  0  0  0  0  0  0  0  0  0  0
   -0.0442    2.0620    0.0000 C   0  0  0  0  0  0  0  0  0  0  0  0
    2.9311   -0.6333    0.0000 C   0  0  0  0  0  0  0  0  0  0  0  0
   -2.1946   -1.6497    0.0000 C   0  0  0  0  0  0  0  0  0  0  0  0
   -2.1799    1.6791    0.0000 C   0  0  0  0  0  0  0  0  0  0  0  0
   -2.9016   -2.0768    0.0000 C   0  0  0  0  0  0  0  0  0  0  0  0
   -2.9311    2.0768    0.0000 C   0  0  0  0  0  0  0  0  0  0  0  0
  9  1  1  6  0  0  0
  1 11  1  0  0  0  0
  2 17  1  0  0  0  0
  2 25  1  0  0  0  0
  3 24  2  0  0  0  0
  4 25  2  0  0  0  0
 13  5  1  1  0  0  0
  5 19  1  0  0  0  0
  5 23  1  0  0  0  0
 15  6  1  6  0  0  0
  6 24  1  0  0  0  0
  7  8  1  6  0  0  0
  7  9  1  0  0  0  0
  7 10  1  0  0  0  0
  7 14  1  0  0  0  0
  8 11  1  0  0  0  0
  8 12  2  0  0  0  0
  9 15  1  0  0  0  0
 10 13  1  0  0  0  0
 10 18  1  0  0  0  0
 11 17  2  0  0  0  0
 12 16  1  0  0  0  0
 12 21  1  0  0  0  0
 13 16  1  0  0  0  0
 14 19  1  0  0  0  0
 15 20  1  0  0  0  0
 17 22  1  0  0  0  0
 18 20  1  0  0  0  0
 21 22  2  0  0  0  0
 24 26  1  0  0  0  0
 25 27  1  0  0  0  0
M  END
> <PUBCHEM_COMPOUND_ID_TYPE>
0

> <PUBCHEM_TOTAL_CHARGE>
0

> <PUBCHEM_SUBSTANCE_ID>
310947989

> <PUBCHEM_SUBSTANCE_VERSION>
1

> <PUBCHEM_EXT_DATASOURCE_NAME>
4488

> <PUBCHEM_EXT_DATASOURCE_REGID>
SCHEMBL16126163

> <PUBCHEM_SUBSTANCE_COMMENT>
InChI=1S/C21H26N2O4/c1-11(24)22-15-6-5-14-16-10-13-4-7-17(26-12(2)25)19-18(13)21(14,20(15)27-19)8-9-23(16)3/h4,7,14-16,20H,5-6,8-10H2,1-3H3,(H,22,24)/t14?,15-,16+,20-,21-/m0/s1
InChIKey=QMHDEEXRISTVOG-DGTJNESVSA-N

> <PUBCHEM_SUBSTANCE_SYNONYM>
SCHEMBL16126163

> <PUBCHEM_XREF_EXT_ID>
SCHEMBL16126163

> <PUBCHEM_EXT_DATASOURCE_URL>
https://www.surechembl.org/

> <PUBCHEM_EXT_SUBSTANCE_URL>
https://www.surechembl.org/chemical/SCHEMBL16126163

> <PUBCHEM_CID_ASSOCIATIONS>
117613635  1

> <PUBCHEM_COORDINATE_TYPE>
1
3

> <PUBCHEM_BONDANNOTATIONS>
9  1  6
13  5  5
15  6  6
7  8  6

$$$$
