310931367
  -OEChem-07211613022D

 25 28  0     0  0  0  0  0  0999 V2000
    0.7511   -2.7341    0.0000 O   0  0  0  0  0  0  0  0  0  0  0  0
    2.2234   -2.5238    0.0000 N   0  0  0  0  0  0  0  0  0  0  0  0
    2.6139   -3.7857    0.0000 N   0  0  0  0  0  0  0  0  0  0  0  0
    3.6655   -2.7341    0.0000 N   0  0  0  0  0  0  0  0  0  0  0  0
    1.8027   -3.7857    0.0000 C   0  0  0  0  0  0  0  0  0  0  0  0
    1.5624   -3.0045    0.0000 C   0  0  0  0  0  0  0  0  0  0  0  0
    1.3220   -4.4467    0.0000 C   0  0  0  0  0  0  0  0  0  0  0  0
    2.1633   -4.5368    0.0000 C   0  0  0  0  0  0  0  0  0  0  0  0
    2.8843   -3.0045    0.0000 C   0  0  0  0  0  0  0  0  0  0  0  0
    2.2234   -1.6825    0.0000 C   0  0  0  0  0  0  0  0  0  0  0  0
    1.6525   -5.2279    0.0000 C   0  0  0  0  0  0  0  0  0  0  0  0
    3.0045   -4.5669    0.0000 C   0  0  0  0  0  0  0  0  0  0  0  0
    0.4807   -4.3866    0.0000 C   0  0  0  0  0  0  0  0  0  0  0  0
    1.8928   -5.3781    0.0000 C   0  0  0  0  0  0  0  0  0  0  0  0
    1.5023   -1.2619    0.0000 C   0  0  0  0  0  0  0  0  0  0  0  0
    2.9144   -1.2619    0.0000 C   0  0  0  0  0  0  0  0  0  0  0  0
    1.1718   -5.8888    0.0000 C   0  0  0  0  0  0  0  0  0  0  0  0
    3.3651   -5.3180    0.0000 C   0  0  0  0  0  0  0  0  0  0  0  0
    0.0000   -5.0476    0.0000 C   0  0  0  0  0  0  0  0  0  0  0  0
    2.1032   -5.9489    0.0000 C   0  0  0  0  0  0  0  0  0  0  0  0
    0.3305   -5.7987    0.0000 C   0  0  0  0  0  0  0  0  0  0  0  0
    2.9144   -6.0090    0.0000 C   0  0  0  0  0  0  0  0  0  0  0  0
    1.5023   -0.4507    0.0000 C   0  0  0  0  0  0  0  0  0  0  0  0
    2.9144   -0.4507    0.0000 C   0  0  0  0  0  0  0  0  0  0  0  0
    2.2234    0.0000    0.0000 C   0  0  0  0  0  0  0  0  0  0  0  0
  1  6  2  0  0  0  0
  2  6  1  0  0  0  0
  2  9  1  0  0  0  0
  2 10  1  0  0  0  0
  3  5  1  0  0  0  0
  3  9  1  0  0  0  0
  4  9  2  3  0  0  0
  5  6  1  0  0  0  0
  5  7  1  0  0  0  0
  5  8  1  0  0  0  0
  7 11  2  0  0  0  0
  7 13  1  0  0  0  0
  8 12  2  0  0  0  0
  8 14  1  0  0  0  0
 10 15  1  0  0  0  0
 10 16  1  0  0  0  0
 11 17  1  0  0  0  0
 12 18  1  0  0  0  0
 13 19  2  0  0  0  0
 14 20  2  0  0  0  0
 15 23  1  0  0  0  0
 16 24  1  0  0  0  0
 17 21  2  0  0  0  0
 18 22  2  0  0  0  0
 19 21  1  0  0  0  0
 20 22  1  0  0  0  0
 23 25  1  0  0  0  0
 24 25  1  0  0  0  0
M  END
> <PUBCHEM_COMPOUND_ID_TYPE>
0

> <PUBCHEM_TOTAL_CHARGE>
0

> <PUBCHEM_SUBSTANCE_ID>
310931367

> <PUBCHEM_SUBSTANCE_VERSION>
1

> <PUBCHEM_EXT_DATASOURCE_NAME>
4488

> <PUBCHEM_EXT_DATASOURCE_REGID>
SCHEMBL16108690

> <PUBCHEM_SUBSTANCE_COMMENT>
InChI=1S/C21H23N3O/c22-20-23-21(16-10-4-1-5-11-16,17-12-6-2-7-13-17)19(25)24(20)18-14-8-3-9-15-18/h1-2,4-7,10-13,18H,3,8-9,14-15H2,(H2,22,23)
InChIKey=LEKJIUIIENTICB-UHFFFAOYSA-N

> <PUBCHEM_SUBSTANCE_SYNONYM>
SCHEMBL16108690

> <PUBCHEM_XREF_EXT_ID>
SCHEMBL16108690

> <PUBCHEM_EXT_DATASOURCE_URL>
https://www.surechembl.org/

> <PUBCHEM_EXT_SUBSTANCE_URL>
https://www.surechembl.org/chemical/SCHEMBL16108690

> <PUBCHEM_CID_ASSOCIATIONS>
44530523  1

> <PUBCHEM_COORDINATE_TYPE>
1
3

$$$$
