310933623
  -OEChem-07211613022D

 31 34  0     0  0  0  0  0  0999 V2000
   -5.0013   -1.6500    0.0000 Cl  0  0  0  0  0  0  0  0  0  0  0  0
    1.9840   -0.4125    0.0000 F   0  0  0  0  0  0  0  0  0  0  0  0
    1.9840    0.4125    0.0000 F   0  0  0  0  0  0  0  0  0  0  0  0
    0.7846   -0.6674    0.0000 O   0  0  0  0  0  0  0  0  0  0  0  0
    0.7846    0.6674    0.0000 O   0  0  0  0  0  0  0  0  0  0  0  0
   -2.8579    0.4125    0.0000 O   0  0  0  0  0  0  0  0  0  0  0  0
   -6.4302    0.8250    0.0000 O   0  0  0  0  0  0  0  0  0  0  0  0
   -2.1434   -0.8250    0.0000 N   0  0  0  0  0  0  0  0  0  0  0  0
   -4.2868    0.4125    0.0000 N   0  0  0  0  0  0  0  0  0  0  0  0
   -5.0013    0.8250    0.0000 N   0  0  0  0  0  0  0  0  0  0  0  0
    0.0000   -0.4125    0.0000 C   0  0  0  0  0  0  0  0  0  0  0  0
    0.0000    0.4125    0.0000 C   0  0  0  0  0  0  0  0  0  0  0  0
    1.2696    0.0000    0.0000 C   0  0  0  0  0  0  0  0  0  0  0  0
   -1.4290   -0.4125    0.0000 C   0  0  0  0  0  0  0  0  0  0  0  0
   -0.7144   -0.8250    0.0000 C   0  0  0  0  0  0  0  0  0  0  0  0
   -5.7158   -0.4125    0.0000 C   0  0  0  0  0  0  0  0  0  0  0  0
   -5.0013   -0.8250    0.0000 C   0  0  0  0  0  0  0  0  0  0  0  0
   -0.7144    0.8250    0.0000 C   0  0  0  0  0  0  0  0  0  0  0  0
   -4.2868   -0.4125    0.0000 C   0  0  0  0  0  0  0  0  0  0  0  0
   -1.4290    0.4125    0.0000 C   0  0  0  0  0  0  0  0  0  0  0  0
   -2.8579   -0.4125    0.0000 C   0  0  0  0  0  0  0  0  0  0  0  0
   -5.7158    0.4125    0.0000 C   0  0  0  0  0  0  0  0  0  0  0  0
   -6.4302   -0.8250    0.0000 C   0  0  0  0  0  0  0  0  0  0  0  0
   -3.5724   -0.8250    0.0000 C   0  0  0  0  0  0  0  0  0  0  0  0
   -2.1434   -1.6500    0.0000 C   0  0  0  0  0  0  0  0  0  0  0  0
   -7.1447   -0.4125    0.0000 C   0  0  0  0  0  0  0  0  0  0  0  0
   -6.4302   -1.6500    0.0000 C   0  0  0  0  0  0  0  0  0  0  0  0
   -7.8592   -0.8250    0.0000 C   0  0  0  0  0  0  0  0  0  0  0  0
   -7.1447   -2.0625    0.0000 C   0  0  0  0  0  0  0  0  0  0  0  0
   -1.4290   -2.0625    0.0000 C   0  0  0  0  0  0  0  0  0  0  0  0
   -7.8592   -1.6500    0.0000 C   0  0  0  0  0  0  0  0  0  0  0  0
  1 17  1  0  0  0  0
  2 13  1  0  0  0  0
  3 13  1  0  0  0  0
  4 11  1  0  0  0  0
  4 13  1  0  0  0  0
  5 12  1  0  0  0  0
  5 13  1  0  0  0  0
  6 21  2  0  0  0  0
  7 22  2  0  0  0  0
  8 14  1  0  0  0  0
  8 21  1  0  0  0  0
  8 25  1  0  0  0  0
  9 10  1  0  0  0  0
  9 19  2  0  0  0  0
 10 22  1  0  0  0  0
 11 12  1  0  0  0  0
 11 15  2  0  0  0  0
 12 18  2  0  0  0  0
 14 15  1  0  0  0  0
 14 20  2  0  0  0  0
 16 17  2  0  0  0  0
 16 22  1  0  0  0  0
 16 23  1  0  0  0  0
 17 19  1  0  0  0  0
 18 20  1  0  0  0  0
 19 24  1  0  0  0  0
 21 24  1  0  0  0  0
 23 26  2  0  0  0  0
 23 27  1  0  0  0  0
 25 30  1  0  0  0  0
 26 28  1  0  0  0  0
 27 29  2  0  0  0  0
 28 31  2  0  0  0  0
 29 31  1  0  0  0  0
M  END
> <PUBCHEM_COMPOUND_ID_TYPE>
0

> <PUBCHEM_TOTAL_CHARGE>
0

> <PUBCHEM_SUBSTANCE_ID>
310933623

> <PUBCHEM_SUBSTANCE_VERSION>
1

> <PUBCHEM_EXT_DATASOURCE_NAME>
4488

> <PUBCHEM_EXT_DATASOURCE_REGID>
SCHEMBL16111053

> <PUBCHEM_SUBSTANCE_COMMENT>
InChI=1S/C21H16ClF2N3O4/c1-2-27(13-8-9-15-16(10-13)31-21(23,24)30-15)17(28)11-14-19(22)18(20(29)26-25-14)12-6-4-3-5-7-12/h3-10H,2,11H2,1H3,(H,26,29)
InChIKey=MMKWMDSNIUZXQK-UHFFFAOYSA-N

> <PUBCHEM_SUBSTANCE_SYNONYM>
SCHEMBL16111053

> <PUBCHEM_XREF_EXT_ID>
SCHEMBL16111053

> <PUBCHEM_EXT_DATASOURCE_URL>
https://www.surechembl.org/

> <PUBCHEM_EXT_SUBSTANCE_URL>
https://www.surechembl.org/chemical/SCHEMBL16111053

> <PUBCHEM_CID_ASSOCIATIONS>
117601997  1

> <PUBCHEM_COORDINATE_TYPE>
1
3

$$$$
