310931720
  -OEChem-07211613022D

 15 16  0     0  0  0  0  0  0999 V2000
    2.2735   -2.4891    0.0000 O   0  0  0  0  0  0  0  0  0  0  0  0
    1.5679   -0.4312    0.0000 O   0  0  0  0  0  0  0  0  0  0  0  0
    5.1545   -1.6659    0.0000 O   0  0  0  0  0  0  0  0  0  0  0  0
    1.5679   -1.2543    0.0000 C   0  0  0  0  0  0  0  0  0  0  0  0
    2.2735   -1.6659    0.0000 C   0  0  0  0  0  0  0  0  0  0  0  0
    0.8427   -1.6659    0.0000 C   0  0  0  0  0  0  0  0  0  0  0  0
    2.9987   -1.2543    0.0000 C   0  0  0  0  0  0  0  0  0  0  0  0
    0.4312   -2.3715    0.0000 C   0  0  0  0  0  0  0  0  0  0  0  0
    0.0000   -1.6855    0.0000 C   0  0  0  0  0  0  0  0  0  0  0  0
    3.7238   -1.6659    0.0000 C   0  0  0  0  0  0  0  0  0  0  0  0
    4.4294   -1.2543    0.0000 C   0  0  0  0  0  0  0  0  0  0  0  0
    3.0182   -0.4116    0.0000 C   0  0  0  0  0  0  0  0  0  0  0  0
    4.4294   -0.4312    0.0000 C   0  0  0  0  0  0  0  0  0  0  0  0
    3.7238    0.0000    0.0000 C   0  0  0  0  0  0  0  0  0  0  0  0
    5.8797   -1.2543    0.0000 C   0  0  0  0  0  0  0  0  0  0  0  0
  1  5  2  0  0  0  0
  2  4  2  0  0  0  0
  3 11  1  0  0  0  0
  3 15  1  0  0  0  0
  4  5  1  0  0  0  0
  4  6  1  0  0  0  0
  5  7  1  0  0  0  0
  6  8  1  0  0  0  0
  6  9  1  0  0  0  0
  7 10  1  0  0  0  0
  7 12  2  0  0  0  0
  8  9  1  0  0  0  0
 10 11  2  0  0  0  0
 11 13  1  0  0  0  0
 12 14  1  0  0  0  0
 13 14  2  0  0  0  0
M  END
> <PUBCHEM_COMPOUND_ID_TYPE>
0

> <PUBCHEM_TOTAL_CHARGE>
0

> <PUBCHEM_SUBSTANCE_ID>
310931720

> <PUBCHEM_SUBSTANCE_VERSION>
1

> <PUBCHEM_EXT_DATASOURCE_NAME>
4488

> <PUBCHEM_EXT_DATASOURCE_REGID>
SCHEMBL16109049

> <PUBCHEM_SUBSTANCE_COMMENT>
InChI=1S/C12H12O3/c1-15-10-4-2-3-9(7-10)12(14)11(13)8-5-6-8/h2-4,7-8H,5-6H2,1H3
InChIKey=FEADJRVHUIKZRY-UHFFFAOYSA-N

> <PUBCHEM_SUBSTANCE_SYNONYM>
SCHEMBL16109049

> <PUBCHEM_XREF_EXT_ID>
SCHEMBL16109049

> <PUBCHEM_EXT_DATASOURCE_URL>
https://www.surechembl.org/

> <PUBCHEM_EXT_SUBSTANCE_URL>
https://www.surechembl.org/chemical/SCHEMBL16109049

> <PUBCHEM_CID_ASSOCIATIONS>
117600417  1

> <PUBCHEM_COORDINATE_TYPE>
1
3

$$$$
