310938738
  -OEChem-07211613022D

 16 17  0     0  0  0  0  0  0999 V2000
    2.9004    1.5861    0.0000 S   0  0  0  0  0  0  0  0  0  0  0  0
   -0.0277   -0.7313    0.0000 N   0  0  0  0  0  0  0  0  0  0  0  0
    0.7570   -0.4764    0.0000 N   0  0  0  0  0  0  0  0  0  0  0  0
   -2.4879   -0.3166    0.0000 N   0  0  0  0  0  0  0  0  0  0  0  0
   -2.7428   -1.1012    0.0000 N   0  0  0  0  0  0  0  0  0  0  0  0
    1.4714    0.7611    0.0000 N   0  0  0  0  0  0  0  0  0  0  0  0
   -1.4079   -1.1012    0.0000 C   0  0  0  0  0  0  0  0  0  0  0  0
    0.7570    0.3486    0.0000 C   0  0  0  0  0  0  0  0  0  0  0  0
   -0.6110   -1.3147    0.0000 C   0  0  0  0  0  0  0  0  0  0  0  0
   -0.5126   -0.0639    0.0000 C   0  0  0  0  0  0  0  0  0  0  0  0
   -1.6629   -0.3166    0.0000 C   0  0  0  0  0  0  0  0  0  0  0  0
   -0.0277    0.6035    0.0000 C   0  0  0  0  0  0  0  0  0  0  0  0
   -2.0754   -1.5861    0.0000 C   0  0  0  0  0  0  0  0  0  0  0  0
    2.1412    1.1478    0.0000 C   0  0  0  0  0  0  0  0  0  0  0  0
   -2.9004    0.3979    0.0000 C   0  0  0  0  0  0  0  0  0  0  0  0
    2.2305    1.1994    0.0000 C   0  0  0  0  0  0  0  0  0  0  0  0
  1 16  2  0  0  0  0
  2  3  1  0  0  0  0
  2  9  1  0  0  0  0
  2 10  1  0  0  0  0
  3  8  2  0  0  0  0
  4  5  1  0  0  0  0
  4 11  1  0  0  0  0
  4 15  1  0  0  0  0
  5 13  2  0  0  0  0
  6  8  1  0  0  0  0
  6 14  2  3  0  0  0
  7  9  1  0  0  0  0
  7 11  2  0  0  0  0
  7 13  1  0  0  0  0
  8 12  1  0  0  0  0
 10 12  2  0  0  0  0
 14 16  1  0  0  0  0
M  END
> <PUBCHEM_COMPOUND_ID_TYPE>
0

> <PUBCHEM_TOTAL_CHARGE>
0

> <PUBCHEM_SUBSTANCE_ID>
310938738

> <PUBCHEM_SUBSTANCE_VERSION>
1

> <PUBCHEM_EXT_DATASOURCE_NAME>
4488

> <PUBCHEM_EXT_DATASOURCE_REGID>
SCHEMBL16116653

> <PUBCHEM_SUBSTANCE_COMMENT>
InChI=1S/C10H11N5S/c1-14-7-9(6-12-14)8-15-4-2-10(13-15)11-3-5-16/h2-7H,8H2,1H3
InChIKey=LBANVRPPRXQQSO-UHFFFAOYSA-N

> <PUBCHEM_SUBSTANCE_SYNONYM>
SCHEMBL16116653

> <PUBCHEM_XREF_EXT_ID>
SCHEMBL16116653

> <PUBCHEM_EXT_DATASOURCE_URL>
https://www.surechembl.org/

> <PUBCHEM_EXT_SUBSTANCE_URL>
https://www.surechembl.org/chemical/SCHEMBL16116653

> <PUBCHEM_CID_ASSOCIATIONS>
117606157  1

> <PUBCHEM_COORDINATE_TYPE>
1
3

$$$$
