310949946
  -OEChem-07211613022D

 27 31  0     1  0  0  0  0  0999 V2000
   -0.6042    1.3938    0.0000 N   0  0  0  0  0  0  0  0  0  0  0  0
   -0.6042    2.7396    0.0000 N   0  0  0  0  0  0  0  0  0  0  0  0
    0.1648   -0.9681    0.0000 N   0  0  0  0  0  0  0  0  0  0  0  0
    1.9636    1.6547    0.0000 N   0  0  0  0  0  0  0  0  0  0  0  0
   -0.1236    2.0804    0.0000 C   0  0  0  0  0  0  0  0  0  0  0  0
   -1.4007    1.6685    0.0000 C   0  0  0  0  0  0  0  0  0  0  0  0
   -1.3870    2.4787    0.0000 C   0  0  0  0  0  0  0  0  0  0  0  0
   -0.3570    0.6247    0.0000 C   0  0  0  0  0  0  0  0  0  0  0  0
    0.7141    2.0529    0.0000 C   0  0  3  0  0  0  0  0  0  0  0  0
   -2.0872    1.2427    0.0000 C   0  0  0  0  0  0  0  0  0  0  0  0
   -2.0872    2.8906    0.0000 C   0  0  0  0  0  0  0  0  0  0  0  0
   -0.9063   -0.0206    0.0000 C   0  0  0  0  0  0  0  0  0  0  0  0
    0.4669    0.4325    0.0000 C   0  0  0  0  0  0  0  0  0  0  0  0
    1.1810    1.4076    0.0000 C   0  0  0  0  0  0  0  0  0  0  0  0
    1.1672    2.7258    0.0000 C   0  0  0  0  0  0  0  0  0  0  0  0
   -2.8151    1.6547    0.0000 C   0  0  0  0  0  0  0  0  0  0  0  0
   -2.8151    2.4787    0.0000 C   0  0  0  0  0  0  0  0  0  0  0  0
   -0.6454   -0.7897    0.0000 C   0  0  0  0  0  0  0  0  0  0  0  0
    0.7003   -0.3638    0.0000 C   0  0  0  0  0  0  0  0  0  0  0  0
    1.9636    2.4787    0.0000 C   0  0  0  0  0  0  0  0  0  0  0  0
    0.4119   -1.7508    0.0000 C   0  0  0  0  0  0  0  0  0  0  0  0
    1.2085   -1.9294    0.0000 C   0  0  0  0  0  0  0  0  0  0  0  0
    1.4694   -2.7121    0.0000 C   0  0  0  0  0  0  0  0  0  0  0  0
    1.7714   -1.3252    0.0000 C   0  0  0  0  0  0  0  0  0  0  0  0
    2.5679   -1.4899    0.0000 C   0  0  0  0  0  0  0  0  0  0  0  0
    2.2796   -2.8906    0.0000 C   0  0  0  0  0  0  0  0  0  0  0  0
    2.8151   -2.2865    0.0000 C   0  0  0  0  0  0  0  0  0  0  0  0
  1  5  1  0  0  0  0
  1  6  1  0  0  0  0
  1  8  1  0  0  0  0
  2  5  2  0  0  0  0
  2  7  1  0  0  0  0
  3 18  1  0  0  0  0
  3 19  1  0  0  0  0
  3 21  1  0  0  0  0
  4 14  1  0  0  0  0
  4 20  1  0  0  0  0
  9  5  1  6  0  0  0
  6  7  1  0  0  0  0
  6 10  2  0  0  0  0
  7 11  2  0  0  0  0
  8 12  1  0  0  0  0
  8 13  1  0  0  0  0
  9 14  1  0  0  0  0
  9 15  1  0  0  0  0
 10 16  1  0  0  0  0
 11 17  1  0  0  0  0
 12 18  1  0  0  0  0
 13 19  1  0  0  0  0
 15 20  1  0  0  0  0
 16 17  2  0  0  0  0
 21 22  1  0  0  0  0
 22 23  1  0  0  0  0
 22 24  1  0  0  0  0
 23 26  1  0  0  0  0
 24 25  1  0  0  0  0
 25 27  1  0  0  0  0
 26 27  1  0  0  0  0
M  END
> <PUBCHEM_COMPOUND_ID_TYPE>
0

> <PUBCHEM_TOTAL_CHARGE>
0

> <PUBCHEM_SUBSTANCE_ID>
310949946

> <PUBCHEM_SUBSTANCE_VERSION>
1

> <PUBCHEM_EXT_DATASOURCE_NAME>
4488

> <PUBCHEM_EXT_DATASOURCE_REGID>
SCHEMBL16128173

> <PUBCHEM_SUBSTANCE_COMMENT>
InChI=1S/C23H34N4/c1-2-6-18(7-3-1)17-26-14-11-20(12-15-26)27-22-9-5-4-8-21(22)25-23(27)19-10-13-24-16-19/h4-5,8-9,18-20,24H,1-3,6-7,10-17H2/t19-/m1/s1
InChIKey=NYBXFPGQXNGVGH-LJQANCHMSA-N

> <PUBCHEM_SUBSTANCE_SYNONYM>
SCHEMBL16128173

> <PUBCHEM_XREF_EXT_ID>
SCHEMBL16128173

> <PUBCHEM_EXT_DATASOURCE_URL>
https://www.surechembl.org/

> <PUBCHEM_EXT_SUBSTANCE_URL>
https://www.surechembl.org/chemical/SCHEMBL16128173

> <PUBCHEM_CID_ASSOCIATIONS>
86274053  1

> <PUBCHEM_COORDINATE_TYPE>
1
3

> <PUBCHEM_BONDANNOTATIONS>
9  5  6

$$$$
