310940775
  -OEChem-07211613022D

 34 37  0     0  0  0  0  0  0999 V2000
    4.0458    2.7658    0.0000 Br  0  0  0  0  0  0  0  0  0  0  0  0
   -1.2652    0.2207    0.0000 O   0  0  0  0  0  0  0  0  0  0  0  0
    3.3984   -2.7658    0.0000 O   0  0  0  0  0  0  0  0  0  0  0  0
    4.6342   -2.0449    0.0000 O   0  0  0  0  0  0  0  0  0  0  0  0
    1.6624    0.0589    0.0000 N   0  0  0  0  0  0  0  0  0  0  0  0
    1.6624   -1.2800    0.0000 N   0  0  0  0  0  0  0  0  0  0  0  0
   -3.4572   -0.1177    0.0000 N   0  0  0  0  0  0  0  0  0  0  0  0
   -4.0016    0.5002    0.0000 N   0  0  0  0  0  0  0  0  0  0  0  0
    0.8827   -0.1913    0.0000 C   0  0  0  0  0  0  0  0  0  0  0  0
    2.1479   -0.5884    0.0000 C   0  0  0  0  0  0  0  0  0  0  0  0
    0.8680   -1.0004    0.0000 C   0  0  0  0  0  0  0  0  0  0  0  0
    3.3837   -1.3094    0.0000 C   0  0  0  0  0  0  0  0  0  0  0  0
    2.9865   -0.6179    0.0000 C   0  0  0  0  0  0  0  0  0  0  0  0
    0.1618    0.2060    0.0000 C   0  0  0  0  0  0  0  0  0  0  0  0
    1.9272    0.8533    0.0000 C   0  0  0  0  0  0  0  0  0  0  0  0
    0.1766   -1.4270    0.0000 C   0  0  0  0  0  0  0  0  0  0  0  0
   -0.5443   -0.1913    0.0000 C   0  0  0  0  0  0  0  0  0  0  0  0
   -0.5443   -1.0151    0.0000 C   0  0  0  0  0  0  0  0  0  0  0  0
    3.8103   -2.0155    0.0000 C   0  0  0  0  0  0  0  0  0  0  0  0
    2.7217    1.0298    0.0000 C   0  0  0  0  0  0  0  0  0  0  0  0
    2.6775   -1.7360    0.0000 C   0  0  0  0  0  0  0  0  0  0  0  0
    4.0752   -0.9121    0.0000 C   0  0  0  0  0  0  0  0  0  0  0  0
    2.9865    1.8095    0.0000 C   0  0  0  0  0  0  0  0  0  0  0  0
    3.2807    0.4120    0.0000 C   0  0  0  0  0  0  0  0  0  0  0  0
   -1.9567   -0.1766    0.0000 C   0  0  0  0  0  0  0  0  0  0  0  0
    3.7809    1.9861    0.0000 C   0  0  0  0  0  0  0  0  0  0  0  0
   -2.7217    0.2207    0.0000 C   0  0  0  0  0  0  0  0  0  0  0  0
    4.0899    0.5884    0.0000 C   0  0  0  0  0  0  0  0  0  0  0  0
    4.8402   -1.3094    0.0000 C   0  0  0  0  0  0  0  0  0  0  0  0
    2.6922   -2.5745    0.0000 C   0  0  0  0  0  0  0  0  0  0  0  0
    4.3399    1.3682    0.0000 C   0  0  0  0  0  0  0  0  0  0  0  0
   -2.7805    1.0445    0.0000 C   0  0  0  0  0  0  0  0  0  0  0  0
   -3.5897    1.2211    0.0000 C   0  0  0  0  0  0  0  0  0  0  0  0
   -4.8402    0.3973    0.0000 C   0  0  0  0  0  0  0  0  0  0  0  0
  1 26  1  0  0  0  0
  2 17  1  0  0  0  0
  2 25  1  0  0  0  0
  3 19  2  0  0  0  0
  4 19  1  0  0  0  0
  5  9  1  0  0  0  0
  5 10  1  0  0  0  0
  5 15  1  0  0  0  0
  6 10  2  0  0  0  0
  6 11  1  0  0  0  0
  7  8  1  0  0  0  0
  7 27  2  0  0  0  0
  8 33  1  0  0  0  0
  8 34  1  0  0  0  0
  9 11  1  0  0  0  0
  9 14  2  0  0  0  0
 10 13  1  0  0  0  0
 11 16  2  0  0  0  0
 12 13  1  0  0  0  0
 12 19  1  0  0  0  0
 12 21  1  0  0  0  0
 12 22  1  0  0  0  0
 14 17  1  0  0  0  0
 15 20  1  0  0  0  0
 16 18  1  0  0  0  0
 17 18  2  0  0  0  0
 20 23  1  0  0  0  0
 20 24  2  0  0  0  0
 21 30  1  0  0  0  0
 22 29  1  0  0  0  0
 23 26  2  0  0  0  0
 24 28  1  0  0  0  0
 25 27  1  0  0  0  0
 26 31  1  0  0  0  0
 27 32  1  0  0  0  0
 28 31  2  0  0  0  0
 32 33  2  0  0  0  0
M  END
> <PUBCHEM_COMPOUND_ID_TYPE>
0

> <PUBCHEM_TOTAL_CHARGE>
0

> <PUBCHEM_SUBSTANCE_ID>
310940775

> <PUBCHEM_SUBSTANCE_VERSION>
1

> <PUBCHEM_EXT_DATASOURCE_NAME>
4488

> <PUBCHEM_EXT_DATASOURCE_REGID>
SCHEMBL16118734

> <PUBCHEM_SUBSTANCE_COMMENT>
InChI=1S/C26H29BrN4O3/c1-4-26(5-2,25(32)33)15-24-28-22-10-9-21(34-17-20-11-12-30(3)29-20)14-23(22)31(24)16-18-7-6-8-19(27)13-18/h6-14H,4-5,15-17H2,1-3H3,(H,32,33)
InChIKey=QBDYQYSHRHDRDW-UHFFFAOYSA-N

> <PUBCHEM_SUBSTANCE_SYNONYM>
SCHEMBL16118734

> <PUBCHEM_XREF_EXT_ID>
SCHEMBL16118734

> <PUBCHEM_EXT_DATASOURCE_URL>
https://www.surechembl.org/

> <PUBCHEM_EXT_SUBSTANCE_URL>
https://www.surechembl.org/chemical/SCHEMBL16118734

> <PUBCHEM_CID_ASSOCIATIONS>
117607727  1

> <PUBCHEM_COORDINATE_TYPE>
1
3

$$$$
