310937551
  -OEChem-07211613022D

 37 39  0     1  0  0  0  0  0999 V2000
    0.4484    0.5720    0.0000 O   0  0  0  0  0  0  0  0  0  0  0  0
    0.0893   -2.8450    0.0000 O   0  0  0  0  0  0  0  0  0  0  0  0
    1.0454   -1.7831    0.0000 O   0  0  0  0  0  0  0  0  0  0  0  0
   -1.7845    2.0239    0.0000 O   0  0  0  0  0  0  0  0  0  0  0  0
    2.5918   -1.4905    0.0000 O   0  0  0  0  0  0  0  0  0  0  0  0
    4.7353    0.5720    0.0000 O   0  0  0  0  0  0  0  0  0  0  0  0
   -0.2661   -0.6655    0.0000 N   0  0  0  0  0  0  0  0  0  0  0  0
   -0.7226    1.0678    0.0000 N   0  0  0  0  0  0  0  0  0  0  0  0
    1.8773   -0.2530    0.0000 N   0  0  0  0  0  0  0  0  0  0  0  0
    4.0208   -0.6655    0.0000 N   0  0  0  0  0  0  0  0  0  0  0  0
   -1.0198   -0.3299    0.0000 C   0  0  0  0  0  0  0  0  0  0  0  0
   -1.5717   -0.9430    0.0000 C   0  0  0  0  0  0  0  0  0  0  0  0
   -0.3523   -1.4860    0.0000 C   0  0  3  0  0  0  0  0  0  0  0  0
   -1.2747    0.4547    0.0000 C   0  0  0  0  0  0  0  0  0  0  0  0
   -1.1592   -1.6575    0.0000 C   0  0  0  0  0  0  0  0  0  0  0  0
    0.4484   -0.2530    0.0000 C   0  0  0  0  0  0  0  0  0  0  0  0
    0.2608   -2.0380    0.0000 C   0  0  0  0  0  0  0  0  0  0  0  0
   -2.3787   -0.7715    0.0000 C   0  0  0  0  0  0  0  0  0  0  0  0
   -2.0817    0.6262    0.0000 C   0  0  0  0  0  0  0  0  0  0  0  0
   -2.6337    0.0131    0.0000 C   0  0  0  0  0  0  0  0  0  0  0  0
    1.1629   -0.6655    0.0000 C   0  0  0  0  0  0  0  0  0  0  0  0
   -0.9776    1.8524    0.0000 C   0  0  0  0  0  0  0  0  0  0  0  0
    2.5918   -0.6655    0.0000 C   0  0  0  0  0  0  0  0  0  0  0  0
    3.3063   -0.2530    0.0000 C   0  0  3  0  0  0  0  0  0  0  0  0
    3.3063    0.5720    0.0000 C   0  0  3  0  0  0  0  0  0  0  0  0
   -0.4255    2.4655    0.0000 C   0  0  0  0  0  0  0  0  0  0  0  0
    4.7353   -0.2530    0.0000 C   0  0  0  0  0  0  0  0  0  0  0  0
    4.0208    0.9845    0.0000 C   0  0  0  0  0  0  0  0  0  0  0  0
    5.4497   -0.6655    0.0000 C   0  0  0  0  0  0  0  0  0  0  0  0
    6.1642   -0.2530    0.0000 C   0  0  0  0  0  0  0  0  0  0  0  0
    2.5918    0.9845    0.0000 C   0  0  0  0  0  0  0  0  0  0  0  0
    6.8787   -0.6655    0.0000 C   0  0  0  0  0  0  0  0  0  0  0  0
    6.1642    0.5720    0.0000 C   0  0  0  0  0  0  0  0  0  0  0  0
    4.0208    1.8095    0.0000 C   0  0  0  0  0  0  0  0  0  0  0  0
    7.5931   -0.2530    0.0000 C   0  0  0  0  0  0  0  0  0  0  0  0
    6.8787    0.9845    0.0000 C   0  0  0  0  0  0  0  0  0  0  0  0
    7.5931    0.5720    0.0000 C   0  0  0  0  0  0  0  0  0  0  0  0
  1 16  2  0  0  0  0
  2 17  2  0  0  0  0
  3 17  1  0  0  0  0
  4 22  2  0  0  0  0
  5 23  2  0  0  0  0
  6 27  2  0  0  0  0
  7 11  1  0  0  0  0
  7 13  1  0  0  0  0
  7 16  1  0  0  0  0
  8 14  1  0  0  0  0
  8 22  1  0  0  0  0
  9 21  1  0  0  0  0
  9 23  1  0  0  0  0
 10 24  1  0  0  0  0
 10 27  1  0  0  0  0
 11 12  2  0  0  0  0
 11 14  1  0  0  0  0
 12 15  1  0  0  0  0
 12 18  1  0  0  0  0
 13 15  1  0  0  0  0
 13 17  1  6  0  0  0
 14 19  2  0  0  0  0
 16 21  1  0  0  0  0
 18 20  2  0  0  0  0
 19 20  1  0  0  0  0
 22 26  1  0  0  0  0
 23 24  1  0  0  0  0
 24 25  1  0  0  0  0
 25 28  1  0  0  0  0
 25 31  1  0  0  0  0
 27 29  1  0  0  0  0
 28 34  1  0  0  0  0
 29 30  1  0  0  0  0
 30 32  2  0  0  0  0
 30 33  1  0  0  0  0
 32 35  1  0  0  0  0
 33 36  2  0  0  0  0
 35 37  2  0  0  0  0
 36 37  1  0  0  0  0
M  END
> <PUBCHEM_COMPOUND_ID_TYPE>
0

> <PUBCHEM_TOTAL_CHARGE>
0

> <PUBCHEM_SUBSTANCE_ID>
310937551

> <PUBCHEM_SUBSTANCE_VERSION>
1

> <PUBCHEM_EXT_DATASOURCE_NAME>
4488

> <PUBCHEM_EXT_DATASOURCE_REGID>
SCHEMBL16115328

> <PUBCHEM_SUBSTANCE_COMMENT>
InChI=1S/C27H32N4O6/c1-4-16(2)24(30-22(33)13-18-9-6-5-7-10-18)26(35)28-15-23(34)31-21(27(36)37)14-19-11-8-12-20(25(19)31)29-17(3)32/h5-12,16,21,24H,4,13-15H2,1-3H3,(H,28,35)(H,29,32)(H,30,33)(H,36,37)/t16?,21-,24?/m0/s1
InChIKey=CCNDEJRMFIXQIV-DLQTWLKSSA-N

> <PUBCHEM_SUBSTANCE_SYNONYM>
SCHEMBL16115328

> <PUBCHEM_XREF_EXT_ID>
SCHEMBL16115328

> <PUBCHEM_EXT_DATASOURCE_URL>
https://www.surechembl.org/

> <PUBCHEM_EXT_SUBSTANCE_URL>
https://www.surechembl.org/chemical/SCHEMBL16115328

> <PUBCHEM_CID_ASSOCIATIONS>
117605268  1

> <PUBCHEM_COORDINATE_TYPE>
1
3

> <PUBCHEM_BONDANNOTATIONS>
13  17  6

$$$$
