310937932
  -OEChem-07211613022D

 31 35  0     0  0  0  0  0  0999 V2000
    0.9081   -1.0062    0.0000 F   0  0  0  0  0  0  0  0  0  0  0  0
    1.6198   -2.2334    0.0000 F   0  0  0  0  0  0  0  0  0  0  0  0
    1.4480   -0.4417    0.0000 F   0  0  0  0  0  0  0  0  0  0  0  0
    3.5341    0.0000    0.0000 O   0  0  0  0  0  0  0  0  0  0  0  0
    0.7117   -0.8099    0.0000 O   0  0  0  0  0  0  0  0  0  0  0  0
    2.8715   -1.2271    0.0000 N   0  0  0  0  0  0  0  0  0  0  0  0
    5.0558   -2.3315    0.0000 N   0  0  0  0  0  0  0  0  0  0  0  0
    2.8715   -3.6814    0.0000 N   0  0  0  0  0  0  0  0  0  0  0  0
    5.5221   -1.6443    0.0000 N   0  0  0  0  0  0  0  0  0  0  0  0
    0.7117   -2.4543    0.0000 N   0  0  0  0  0  0  0  0  0  0  0  0
    2.8715   -2.0616    0.0000 C   0  0  0  0  0  0  0  0  0  0  0  0
    3.5341   -2.4788    0.0000 C   0  0  0  0  0  0  0  0  0  0  0  0
    4.2704   -2.0616    0.0000 C   0  0  0  0  0  0  0  0  0  0  0  0
    4.2704   -1.2271    0.0000 C   0  0  0  0  0  0  0  0  0  0  0  0
    3.5341   -0.8099    0.0000 C   0  0  0  0  0  0  0  0  0  0  0  0
    2.1352   -3.2642    0.0000 C   0  0  0  0  0  0  0  0  0  0  0  0
    2.1352   -2.4788    0.0000 C   0  0  0  0  0  0  0  0  0  0  0  0
    3.5341   -3.2642    0.0000 C   0  0  0  0  0  0  0  0  0  0  0  0
    1.4235   -3.6814    0.0000 C   0  0  0  0  0  0  0  0  0  0  0  0
    5.0558   -0.9817    0.0000 C   0  0  0  0  0  0  0  0  0  0  0  0
    2.1597   -0.8344    0.0000 C   0  0  0  0  0  0  0  0  0  0  0  0
    0.7117   -3.2642    0.0000 C   0  0  0  0  0  0  0  0  0  0  0  0
    1.6198   -1.4235    0.0000 C   0  0  0  0  0  0  0  0  0  0  0  0
    1.4235   -4.4913    0.0000 C   0  0  0  0  0  0  0  0  0  0  0  0
    0.0246   -3.6814    0.0000 C   0  0  0  0  0  0  0  0  0  0  0  0
    0.7117   -4.9085    0.0000 C   0  0  0  0  0  0  0  0  0  0  0  0
    0.0000   -4.4913    0.0000 C   0  0  0  0  0  0  0  0  0  0  0  0
    0.0000   -2.0370    0.0000 C   0  0  0  0  0  0  0  0  0  0  0  0
    1.4235   -2.0370    0.0000 C   0  0  0  0  0  0  0  0  0  0  0  0
    1.4235   -1.2026    0.0000 C   0  0  0  0  0  0  0  0  0  0  0  0
    0.0000   -1.2271    0.0000 C   0  0  0  0  0  0  0  0  0  0  0  0
  1 23  1  0  0  0  0
  2 23  1  0  0  0  0
  3 23  1  0  0  0  0
  4 15  2  0  0  0  0
  5 30  1  0  0  0  0
  5 31  1  0  0  0  0
  6 11  1  0  0  0  0
  6 15  1  0  0  0  0
  6 21  1  0  0  0  0
  7  9  1  0  0  0  0
  7 13  1  0  0  0  0
  8 16  2  0  0  0  0
  8 18  1  0  0  0  0
  9 20  2  0  0  0  0
 10 22  1  0  0  0  0
 10 28  1  0  0  0  0
 10 29  1  0  0  0  0
 11 12  1  0  0  0  0
 11 17  2  0  0  0  0
 12 13  1  0  0  0  0
 12 18  2  0  0  0  0
 13 14  2  0  0  0  0
 14 15  1  0  0  0  0
 14 20  1  0  0  0  0
 16 17  1  0  0  0  0
 16 19  1  0  0  0  0
 19 22  1  0  0  0  0
 19 24  2  0  0  0  0
 21 23  1  0  0  0  0
 22 25  2  0  0  0  0
 24 26  1  0  0  0  0
 25 27  1  0  0  0  0
 26 27  2  0  0  0  0
 28 31  1  0  0  0  0
 29 30  1  0  0  0  0
M  END
> <PUBCHEM_COMPOUND_ID_TYPE>
0

> <PUBCHEM_TOTAL_CHARGE>
0

> <PUBCHEM_SUBSTANCE_ID>
310937932

> <PUBCHEM_SUBSTANCE_VERSION>
1

> <PUBCHEM_EXT_DATASOURCE_NAME>
4488

> <PUBCHEM_EXT_DATASOURCE_REGID>
SCHEMBL16115761

> <PUBCHEM_SUBSTANCE_COMMENT>
InChI=1S/C21H18F3N5O2/c22-21(23,24)12-29-18-9-16(25-10-14(18)19-15(20(29)30)11-26-27-19)13-3-1-2-4-17(13)28-5-7-31-8-6-28/h1-4,9-11H,5-8,12H2,(H,26,27)
InChIKey=PPWIYBXCSKOSBR-UHFFFAOYSA-N

> <PUBCHEM_SUBSTANCE_SYNONYM>
SCHEMBL16115761

> <PUBCHEM_XREF_EXT_ID>
SCHEMBL16115761

> <PUBCHEM_EXT_DATASOURCE_URL>
https://www.surechembl.org/

> <PUBCHEM_EXT_SUBSTANCE_URL>
https://www.surechembl.org/chemical/SCHEMBL16115761

> <PUBCHEM_CID_ASSOCIATIONS>
86298953  1

> <PUBCHEM_COORDINATE_TYPE>
1
3

$$$$
