310938027
  -OEChem-07211613022D

 16 17  0     0  0  0  0  0  0999 V2000
    2.1449   -2.8873    0.0000 O   0  0  0  0  0  0  0  0  0  0  0  0
    0.7219   -2.8873    0.0000 O   0  0  0  0  0  0  0  0  0  0  0  0
    0.0000    0.0000    0.0000 O   0  0  0  0  0  0  0  0  0  0  0  0
    0.7012   -1.2375    0.0000 N   0  0  0  0  0  0  0  0  0  0  0  0
    1.4437    0.0000    0.0000 N   0  0  0  0  0  0  0  0  0  0  0  0
    2.1449   -1.2375    0.0000 C   0  0  0  0  0  0  0  0  0  0  0  0
    1.4437   -1.6499    0.0000 C   0  0  0  0  0  0  0  0  0  0  0  0
    2.1449   -0.4125    0.0000 C   0  0  0  0  0  0  0  0  0  0  0  0
    1.4437   -2.4749    0.0000 C   0  0  0  0  0  0  0  0  0  0  0  0
    0.7012   -0.4125    0.0000 C   0  0  0  0  0  0  0  0  0  0  0  0
    2.8461   -1.6499    0.0000 C   0  0  0  0  0  0  0  0  0  0  0  0
    2.8461    0.0000    0.0000 C   0  0  0  0  0  0  0  0  0  0  0  0
    3.5679   -1.2375    0.0000 C   0  0  0  0  0  0  0  0  0  0  0  0
    3.5679   -0.4125    0.0000 C   0  0  0  0  0  0  0  0  0  0  0  0
    2.1449   -3.7123    0.0000 C   0  0  0  0  0  0  0  0  0  0  0  0
    2.8667   -4.1248    0.0000 C   0  0  0  0  0  0  0  0  0  0  0  0
  1  9  1  0  0  0  0
  1 15  1  0  0  0  0
  2  9  2  0  0  0  0
  3 10  1  0  0  0  0
  4  7  1  0  0  0  0
  4 10  2  0  0  0  0
  5  8  2  0  0  0  0
  5 10  1  0  0  0  0
  6  7  2  0  0  0  0
  6  8  1  0  0  0  0
  6 11  1  0  0  0  0
  7  9  1  0  0  0  0
  8 12  1  0  0  0  0
 11 13  1  0  0  0  0
 12 14  1  0  0  0  0
 13 14  1  0  0  0  0
 15 16  1  0  0  0  0
M  END
> <PUBCHEM_COMPOUND_ID_TYPE>
0

> <PUBCHEM_TOTAL_CHARGE>
0

> <PUBCHEM_SUBSTANCE_ID>
310938027

> <PUBCHEM_SUBSTANCE_VERSION>
1

> <PUBCHEM_EXT_DATASOURCE_NAME>
4488

> <PUBCHEM_EXT_DATASOURCE_REGID>
SCHEMBL16115867

> <PUBCHEM_SUBSTANCE_COMMENT>
InChI=1S/C11H14N2O3/c1-2-16-10(14)9-7-5-3-4-6-8(7)12-11(15)13-9/h2-6H2,1H3,(H,12,13,15)
InChIKey=OPQRHLXGCZPVNK-UHFFFAOYSA-N

> <PUBCHEM_SUBSTANCE_SYNONYM>
SCHEMBL16115867

> <PUBCHEM_XREF_EXT_ID>
SCHEMBL16115867

> <PUBCHEM_EXT_DATASOURCE_URL>
https://www.surechembl.org/

> <PUBCHEM_EXT_SUBSTANCE_URL>
https://www.surechembl.org/chemical/SCHEMBL16115867

> <PUBCHEM_CID_ASSOCIATIONS>
117605615  1

> <PUBCHEM_COORDINATE_TYPE>
1
3

$$$$
