310943331
  -OEChem-07211613022D

 33 36  0     0  0  0  0  0  0999 V2000
   -2.0773    1.8784    0.0000 Cl  0  0  0  0  0  0  0  0  0  0  0  0
    4.6556    1.4659    0.0000 F   0  0  0  0  0  0  0  0  0  0  0  0
    5.3774    0.2284    0.0000 F   0  0  0  0  0  0  0  0  0  0  0  0
   -3.9484   -1.0387    0.0000 O   0  0  0  0  0  0  0  0  0  0  0  0
    1.0607   -0.6114    0.0000 O   0  0  0  0  0  0  0  0  0  0  0  0
   -5.3774    1.4659    0.0000 O   0  0  0  0  0  0  0  0  0  0  0  0
   -2.5193   -1.0239    0.0000 N   0  0  0  0  0  0  0  0  0  0  0  0
   -3.9484    0.6409    0.0000 N   0  0  0  0  0  0  0  0  0  0  0  0
    1.7679    0.6409    0.0000 N   0  0  0  0  0  0  0  0  0  0  0  0
   -1.7974    0.2284    0.0000 C   0  0  0  0  0  0  0  0  0  0  0  0
   -1.1050    0.6409    0.0000 C   0  0  0  0  0  0  0  0  0  0  0  0
   -3.2265    0.2284    0.0000 C   0  0  0  0  0  0  0  0  0  0  0  0
   -3.2265   -0.5966    0.0000 C   0  0  0  0  0  0  0  0  0  0  0  0
   -2.5193    0.6409    0.0000 C   0  0  0  0  0  0  0  0  0  0  0  0
   -1.8121   -0.6114    0.0000 C   0  0  0  0  0  0  0  0  0  0  0  0
   -1.0902    1.4659    0.0000 C   0  0  0  0  0  0  0  0  0  0  0  0
   -0.3536    0.2284    0.0000 C   0  0  0  0  0  0  0  0  0  0  0  0
    0.3241    0.6409    0.0000 C   0  0  0  0  0  0  0  0  0  0  0  0
    1.0607    0.2431    0.0000 C   0  0  0  0  0  0  0  0  0  0  0  0
   -0.3684    1.8637    0.0000 C   0  0  0  0  0  0  0  0  0  0  0  0
    0.3388    1.4512    0.0000 C   0  0  0  0  0  0  0  0  0  0  0  0
   -3.9631    1.4659    0.0000 C   0  0  0  0  0  0  0  0  0  0  0  0
   -4.6556    0.2284    0.0000 C   0  0  0  0  0  0  0  0  0  0  0  0
    2.5045    0.2284    0.0000 C   0  0  0  0  0  0  0  0  0  0  0  0
   -2.5045   -1.8784    0.0000 C   0  0  0  0  0  0  0  0  0  0  0  0
   -4.6850    1.8784    0.0000 C   0  0  0  0  0  0  0  0  0  0  0  0
   -5.3774    0.6262    0.0000 C   0  0  0  0  0  0  0  0  0  0  0  0
    3.2117    0.6262    0.0000 C   0  0  0  0  0  0  0  0  0  0  0  0
    3.9336    0.2431    0.0000 C   0  0  0  0  0  0  0  0  0  0  0  0
    2.5045   -0.5966    0.0000 C   0  0  0  0  0  0  0  0  0  0  0  0
    3.9336   -0.5966    0.0000 C   0  0  0  0  0  0  0  0  0  0  0  0
    4.6408    0.6409    0.0000 C   0  0  0  0  0  0  0  0  0  0  0  0
    3.2265   -1.0092    0.0000 C   0  0  0  0  0  0  0  0  0  0  0  0
  1 16  1  0  0  0  0
  2 32  1  0  0  0  0
  3 32  1  0  0  0  0
  4 13  2  0  0  0  0
  5 19  2  0  0  0  0
  6 26  1  0  0  0  0
  6 27  1  0  0  0  0
  7 13  1  0  0  0  0
  7 15  1  0  0  0  0
  7 25  1  0  0  0  0
  8 12  1  0  0  0  0
  8 22  1  0  0  0  0
  8 23  1  0  0  0  0
  9 19  1  0  0  0  0
  9 24  1  0  0  0  0
 10 11  1  0  0  0  0
 10 14  1  0  0  0  0
 10 15  2  0  0  0  0
 11 16  2  0  0  0  0
 11 17  1  0  0  0  0
 12 13  1  0  0  0  0
 12 14  2  0  0  0  0
 16 20  1  0  0  0  0
 17 18  2  0  0  0  0
 18 19  1  0  0  0  0
 18 21  1  0  0  0  0
 20 21  2  0  0  0  0
 22 26  1  0  0  0  0
 23 27  1  0  0  0  0
 24 28  1  0  0  0  0
 24 30  2  0  0  0  0
 28 29  2  0  0  0  0
 29 31  1  0  0  0  0
 29 32  1  0  0  0  0
 30 33  1  0  0  0  0
 31 33  2  0  0  0  0
M  END
> <PUBCHEM_COMPOUND_ID_TYPE>
0

> <PUBCHEM_TOTAL_CHARGE>
0

> <PUBCHEM_SUBSTANCE_ID>
310943331

> <PUBCHEM_SUBSTANCE_VERSION>
1

> <PUBCHEM_EXT_DATASOURCE_NAME>
4488

> <PUBCHEM_EXT_DATASOURCE_REGID>
SCHEMBL16121393

> <PUBCHEM_SUBSTANCE_COMMENT>
InChI=1S/C24H22ClF2N3O3/c1-29-14-17(13-21(24(29)32)30-7-9-33-10-8-30)19-12-16(5-6-20(19)25)23(31)28-18-4-2-3-15(11-18)22(26)27/h2-6,11-14,22H,7-10H2,1H3,(H,28,31)
InChIKey=IGZMTFDIRCGUIB-UHFFFAOYSA-N

> <PUBCHEM_SUBSTANCE_SYNONYM>
SCHEMBL16121393

> <PUBCHEM_XREF_EXT_ID>
SCHEMBL16121393

> <PUBCHEM_EXT_DATASOURCE_URL>
https://www.surechembl.org/

> <PUBCHEM_EXT_SUBSTANCE_URL>
https://www.surechembl.org/chemical/SCHEMBL16121393

> <PUBCHEM_CID_ASSOCIATIONS>
117609756  1

> <PUBCHEM_COORDINATE_TYPE>
1
3

$$$$
