310931012
  -OEChem-07211613022D

 24 26  0     0  0  0  0  0  0999 V2000
    6.4120   -1.2438    0.0000 O   0  0  0  0  0  0  0  0  0  0  0  0
    6.4334   -2.8951    0.0000 O   0  0  0  0  0  0  0  0  0  0  0  0
    0.0000   -1.6727    0.0000 N   0  0  0  0  0  0  0  0  0  0  0  0
    4.9966   -1.2438    0.0000 C   0  0  0  0  0  0  0  0  0  0  0  0
    3.5599   -1.2653    0.0000 C   0  0  0  0  0  0  0  0  0  0  0  0
    5.7043   -1.6512    0.0000 C   0  0  0  0  0  0  0  0  0  0  0  0
    2.8522   -1.6727    0.0000 C   0  0  0  0  0  0  0  0  0  0  0  0
    4.2890   -1.6512    0.0000 C   0  0  0  0  0  0  0  0  0  0  0  0
    5.7043   -2.4876    0.0000 C   0  0  0  0  0  0  0  0  0  0  0  0
    4.9966   -2.8951    0.0000 C   0  0  0  0  0  0  0  0  0  0  0  0
    4.9966   -0.4289    0.0000 C   0  0  0  0  0  0  0  0  0  0  0  0
    3.5599   -0.4289    0.0000 C   0  0  0  0  0  0  0  0  0  0  0  0
    2.1445   -1.2653    0.0000 C   0  0  0  0  0  0  0  0  0  0  0  0
    4.2675    0.0000    0.0000 C   0  0  0  0  0  0  0  0  0  0  0  0
    2.8522   -2.5091    0.0000 C   0  0  0  0  0  0  0  0  0  0  0  0
    1.4153   -1.6727    0.0000 C   0  0  0  0  0  0  0  0  0  0  0  0
    4.9752   -3.7314    0.0000 C   0  0  0  0  0  0  0  0  0  0  0  0
    4.2675   -2.5091    0.0000 C   0  0  0  0  0  0  0  0  0  0  0  0
    2.1445   -2.9165    0.0000 C   0  0  0  0  0  0  0  0  0  0  0  0
    1.4153   -2.5091    0.0000 C   0  0  0  0  0  0  0  0  0  0  0  0
    0.7077   -1.2653    0.0000 C   0  0  0  0  0  0  0  0  0  0  0  0
    4.2890   -4.1389    0.0000 C   0  0  0  0  0  0  0  0  0  0  0  0
    3.5599   -2.9165    0.0000 C   0  0  0  0  0  0  0  0  0  0  0  0
    3.5384   -3.7528    0.0000 C   0  0  0  0  0  0  0  0  0  0  0  0
  1  6  2  0  0  0  0
  2  9  2  0  0  0  0
  3 21  3  0  0  0  0
  4  6  1  0  0  0  0
  4  8  2  0  0  0  0
  4 11  1  0  0  0  0
  5  7  1  0  0  0  0
  5  8  1  0  0  0  0
  5 12  2  0  0  0  0
  6  9  1  0  0  0  0
  7 13  1  0  0  0  0
  7 15  2  0  0  0  0
  9 10  1  0  0  0  0
 10 17  1  0  0  0  0
 10 18  1  0  0  0  0
 11 14  2  0  0  0  0
 12 14  1  0  0  0  0
 13 16  2  0  0  0  0
 15 19  1  0  0  0  0
 16 20  1  0  0  0  0
 16 21  1  0  0  0  0
 17 22  1  0  0  0  0
 18 23  1  0  0  0  0
 19 20  2  0  0  0  0
 22 24  1  0  0  0  0
 23 24  1  0  0  0  0
M  END
> <PUBCHEM_COMPOUND_ID_TYPE>
0

> <PUBCHEM_TOTAL_CHARGE>
0

> <PUBCHEM_SUBSTANCE_ID>
310931012

> <PUBCHEM_SUBSTANCE_VERSION>
1

> <PUBCHEM_EXT_DATASOURCE_NAME>
4488

> <PUBCHEM_EXT_DATASOURCE_REGID>
SCHEMBL16108312

> <PUBCHEM_SUBSTANCE_COMMENT>
InChI=1S/C21H19NO2/c22-14-15-6-4-9-17(12-15)18-10-5-11-19(13-18)21(24)20(23)16-7-2-1-3-8-16/h4-6,9-13,16H,1-3,7-8H2
InChIKey=XERPGILLVHCBOK-UHFFFAOYSA-N

> <PUBCHEM_SUBSTANCE_SYNONYM>
SCHEMBL16108312

> <PUBCHEM_XREF_EXT_ID>
SCHEMBL16108312

> <PUBCHEM_EXT_DATASOURCE_URL>
https://www.surechembl.org/

> <PUBCHEM_EXT_SUBSTANCE_URL>
https://www.surechembl.org/chemical/SCHEMBL16108312

> <PUBCHEM_CID_ASSOCIATIONS>
117599939  1

> <PUBCHEM_COORDINATE_TYPE>
1
3

$$$$
