310948725
  -OEChem-07211613022D

 17 17  0     1  0  0  0  0  0999 V2000
    0.3504    2.0957    0.0000 O   0  0  0  0  0  0  0  0  0  0  0  0
    0.3504   -0.3642    0.0000 O   0  0  0  0  0  0  0  0  0  0  0  0
    1.7658    2.0957    0.0000 O   0  0  0  0  0  0  0  0  0  0  0  0
    1.7658    0.4466    0.0000 O   0  0  0  0  0  0  0  0  0  0  0  0
   -1.0513    0.4466    0.0000 O   0  0  0  0  0  0  0  0  0  0  0  0
   -1.7658    1.6834    0.0000 O   0  0  0  0  0  0  0  0  0  0  0  0
    0.3642    0.4604    0.0000 C   0  0  3  0  0  0  0  0  0  0  0  0
    1.0513    0.8726    0.0000 C   0  0  3  0  0  0  0  0  0  0  0  0
   -0.3504    0.8726    0.0000 C   0  0  3  0  0  0  0  0  0  0  0  0
    1.0650    1.6834    0.0000 C   0  0  3  0  0  0  0  0  0  0  0  0
   -0.3504    1.6834    0.0000 C   0  0  3  0  0  0  0  0  0  0  0  0
   -1.0650    2.0957    0.0000 C   0  0  0  0  0  0  0  0  0  0  0  0
    1.0238   -0.7902    0.0000 C   0  0  0  0  0  0  0  0  0  0  0  0
    1.7658    2.8790    0.0000 C   0  0  0  0  0  0  0  0  0  0  0  0
    0.9826   -1.6147    0.0000 C   0  0  0  0  0  0  0  0  0  0  0  0
    1.6972   -2.0407    0.0000 C   0  0  0  0  0  0  0  0  0  0  0  0
    1.6697   -2.8790    0.0000 C   0  0  0  0  0  0  0  0  0  0  0  0
  1 10  1  0  0  0  0
  1 11  1  0  0  0  0
  7  2  1  6  0  0  0
  2 13  1  0  0  0  0
 10  3  1  6  0  0  0
  3 14  1  0  0  0  0
  8  4  1  1  0  0  0
  9  5  1  6  0  0  0
  6 12  1  0  0  0  0
  7  8  1  0  0  0  0
  7  9  1  0  0  0  0
  8 10  1  0  0  0  0
  9 11  1  0  0  0  0
 11 12  1  1  0  0  0
 13 15  1  0  0  0  0
 15 16  1  0  0  0  0
 16 17  1  0  0  0  0
M  END
> <PUBCHEM_COMPOUND_ID_TYPE>
0

> <PUBCHEM_TOTAL_CHARGE>
0

> <PUBCHEM_SUBSTANCE_ID>
310948725

> <PUBCHEM_SUBSTANCE_VERSION>
1

> <PUBCHEM_EXT_DATASOURCE_NAME>
4488

> <PUBCHEM_EXT_DATASOURCE_REGID>
SCHEMBL16126909

> <PUBCHEM_SUBSTANCE_COMMENT>
InChI=1S/C11H22O6/c1-3-4-5-16-10-8(13)7(6-12)17-11(15-2)9(10)14/h7-14H,3-6H2,1-2H3/t7-,8-,9+,10-,11+/m1/s1
InChIKey=GSMQDDHCBZVJQU-NZFPMDFQSA-N

> <PUBCHEM_SUBSTANCE_SYNONYM>
SCHEMBL16126909

> <PUBCHEM_XREF_EXT_ID>
SCHEMBL16126909

> <PUBCHEM_EXT_DATASOURCE_URL>
https://www.surechembl.org/

> <PUBCHEM_EXT_SUBSTANCE_URL>
https://www.surechembl.org/chemical/SCHEMBL16126909

> <PUBCHEM_CID_ASSOCIATIONS>
117614266  1

> <PUBCHEM_COORDINATE_TYPE>
1
3

> <PUBCHEM_BONDANNOTATIONS>
11  12  5
7  2  6
10  3  6
8  4  5
9  5  6

$$$$
