310946362
  -OEChem-07211613022D

 22 23  0     1  0  0  0  0  0999 V2000
   -1.2887   -5.4660    0.0000 I   0  0  0  0  0  0  0  0  0  0  0  0
    0.1403   -2.9910    0.0000 I   0  0  0  0  0  0  0  0  0  0  0  0
   -1.2887   -3.8160    0.0000 O   0  0  0  0  0  0  0  0  0  0  0  0
   -4.1467   -5.4660    0.0000 O   0  0  0  0  0  0  0  0  0  0  0  0
    2.2838   -4.2286    0.0000 N   0  0  0  0  0  0  0  0  0  0  0  0
   -0.5742   -4.2286    0.0000 C   0  0  0  0  0  0  0  0  0  0  0  0
   -0.5742   -5.0536    0.0000 C   0  0  0  0  0  0  0  0  0  0  0  0
    0.1403   -3.8160    0.0000 C   0  0  0  0  0  0  0  0  0  0  0  0
    0.8548   -5.0536    0.0000 C   0  0  0  0  0  0  0  0  0  0  0  0
   -2.0032   -4.2286    0.0000 C   0  0  0  0  0  0  0  0  0  0  0  0
    0.1403   -5.4660    0.0000 C   0  0  0  0  0  0  0  0  0  0  0  0
    0.8548   -4.2286    0.0000 C   0  0  0  0  0  0  0  0  0  0  0  0
   -2.7177   -3.8160    0.0000 C   0  0  0  0  0  0  0  0  0  0  0  0
   -3.4321   -4.2286    0.0000 C   0  0  0  0  0  0  0  0  0  0  0  0
   -2.0032   -5.0536    0.0000 C   0  0  0  0  0  0  0  0  0  0  0  0
   -3.4321   -5.0536    0.0000 C   0  0  0  0  0  0  0  0  0  0  0  0
    1.5694   -5.4660    0.0000 C   0  0  0  0  0  0  0  0  0  0  0  0
   -2.7177   -5.4660    0.0000 C   0  0  0  0  0  0  0  0  0  0  0  0
    2.2838   -5.0536    0.0000 C   0  0  3  0  0  0  0  0  0  0  0  0
   -4.1467   -3.8160    0.0000 C   0  0  0  0  0  0  0  0  0  0  0  0
    2.9983   -5.4660    0.0000 C   0  0  0  0  0  0  0  0  0  0  0  0
    3.7128   -5.0536    0.0000 C   0  0  0  0  0  0  0  0  0  0  0  0
  1  7  1  0  0  0  0
  2  8  1  0  0  0  0
  3  6  1  0  0  0  0
  3 10  1  0  0  0  0
  4 16  1  0  0  0  0
 19  5  1  6  0  0  0
  6  7  2  0  0  0  0
  6  8  1  0  0  0  0
  7 11  1  0  0  0  0
  8 12  2  0  0  0  0
  9 11  2  0  0  0  0
  9 12  1  0  0  0  0
  9 17  1  0  0  0  0
 10 13  2  0  0  0  0
 10 15  1  0  0  0  0
 13 14  1  0  0  0  0
 14 16  2  0  0  0  0
 14 20  1  0  0  0  0
 15 18  2  0  0  0  0
 16 18  1  0  0  0  0
 17 19  1  0  0  0  0
 19 21  1  0  0  0  0
 21 22  1  0  0  0  0
M  END
> <PUBCHEM_COMPOUND_ID_TYPE>
0

> <PUBCHEM_TOTAL_CHARGE>
0

> <PUBCHEM_SUBSTANCE_ID>
310946362

> <PUBCHEM_SUBSTANCE_VERSION>
1

> <PUBCHEM_EXT_DATASOURCE_NAME>
4488

> <PUBCHEM_EXT_DATASOURCE_REGID>
SCHEMBL16124481

> <PUBCHEM_SUBSTANCE_COMMENT>
InChI=1S/C17H19I2NO2/c1-3-12(20)7-11-8-14(18)17(15(19)9-11)22-13-4-5-16(21)10(2)6-13/h4-6,8-9,12,21H,3,7,20H2,1-2H3/t12-/m1/s1
InChIKey=KPRWYGOIDGWQFH-GFCCVEGCSA-N

> <PUBCHEM_SUBSTANCE_SYNONYM>
SCHEMBL16124481

> <PUBCHEM_XREF_EXT_ID>
SCHEMBL16124481

> <PUBCHEM_EXT_DATASOURCE_URL>
https://www.surechembl.org/

> <PUBCHEM_EXT_SUBSTANCE_URL>
https://www.surechembl.org/chemical/SCHEMBL16124481

> <PUBCHEM_CID_ASSOCIATIONS>
117612284  1

> <PUBCHEM_COORDINATE_TYPE>
1
3

> <PUBCHEM_BONDANNOTATIONS>
19  5  6

$$$$
