310941944
  -OEChem-07211613022D

 21 23  0     1  0  0  0  0  0999 V2000
    3.8454   -1.2109    0.0000 I   0  0  0  0  0  0  0  0  0  0  0  0
   -1.6898    1.2109    0.0000 O   0  0  0  0  0  0  0  0  0  0  0  0
   -0.2661    0.5988    0.0000 N   0  0  0  0  0  0  0  0  0  0  0  0
   -0.9714    0.1197    0.0000 C   0  0  3  0  0  0  0  0  0  0  0  0
   -1.7031    0.4125    0.0000 C   0  0  3  0  0  0  0  0  0  0  0  0
    0.4258    0.0931    0.0000 C   0  0  3  0  0  0  0  0  0  0  0  0
   -2.4616    0.0000    0.0000 C   0  0  0  0  0  0  0  0  0  0  0  0
   -0.7319   -0.7186    0.0000 C   0  0  0  0  0  0  0  0  0  0  0  0
    0.1464   -0.7319    0.0000 C   0  0  0  0  0  0  0  0  0  0  0  0
    1.0778    0.3992    0.0000 C   0  0  0  0  0  0  0  0  0  0  0  0
    1.7697    0.0399    0.0000 C   0  0  0  0  0  0  0  0  0  0  0  0
   -3.1403    0.4258    0.0000 C   0  0  0  0  0  0  0  0  0  0  0  0
   -2.4749   -0.7984    0.0000 C   0  0  0  0  0  0  0  0  0  0  0  0
    1.7831   -0.7984    0.0000 C   0  0  0  0  0  0  0  0  0  0  0  0
    2.4749    0.4524    0.0000 C   0  0  0  0  0  0  0  0  0  0  0  0
    3.2201   -0.7718    0.0000 C   0  0  0  0  0  0  0  0  0  0  0  0
    2.5148   -1.2109    0.0000 C   0  0  0  0  0  0  0  0  0  0  0  0
    3.2201    0.0532    0.0000 C   0  0  0  0  0  0  0  0  0  0  0  0
   -3.8454    0.0665    0.0000 C   0  0  0  0  0  0  0  0  0  0  0  0
   -3.1270   -1.1443    0.0000 C   0  0  0  0  0  0  0  0  0  0  0  0
   -3.8454   -0.7186    0.0000 C   0  0  0  0  0  0  0  0  0  0  0  0
  1 16  1  0  0  0  0
  5  2  1  1  0  0  0
  3  4  1  0  0  0  0
  3  6  1  0  0  0  0
  4  5  1  6  0  0  0
  4  8  1  0  0  0  0
  5  7  1  0  0  0  0
  6  9  1  0  0  0  0
  6 10  1  6  0  0  0
  7 12  2  0  0  0  0
  7 13  1  0  0  0  0
  8  9  1  0  0  0  0
 10 11  1  0  0  0  0
 11 14  2  0  0  0  0
 11 15  1  0  0  0  0
 12 19  1  0  0  0  0
 13 20  2  0  0  0  0
 14 17  1  0  0  0  0
 15 18  2  0  0  0  0
 16 17  2  0  0  0  0
 16 18  1  0  0  0  0
 19 21  2  0  0  0  0
 20 21  1  0  0  0  0
M  END
> <PUBCHEM_COMPOUND_ID_TYPE>
0

> <PUBCHEM_TOTAL_CHARGE>
0

> <PUBCHEM_SUBSTANCE_ID>
310941944

> <PUBCHEM_SUBSTANCE_VERSION>
1

> <PUBCHEM_EXT_DATASOURCE_NAME>
4488

> <PUBCHEM_EXT_DATASOURCE_REGID>
SCHEMBL16119977

> <PUBCHEM_SUBSTANCE_COMMENT>
InChI=1S/C18H20INO/c19-15-8-6-13(7-9-15)12-16-10-11-17(20-16)18(21)14-4-2-1-3-5-14/h1-9,16-18,20-21H,10-12H2/t16-,17+,18+/m0/s1
InChIKey=SLKKQDJPAZIFQZ-RCCFBDPRSA-N

> <PUBCHEM_SUBSTANCE_SYNONYM>
SCHEMBL16119977

> <PUBCHEM_XREF_EXT_ID>
SCHEMBL16119977

> <PUBCHEM_EXT_DATASOURCE_URL>
https://www.surechembl.org/

> <PUBCHEM_EXT_SUBSTANCE_URL>
https://www.surechembl.org/chemical/SCHEMBL16119977

> <PUBCHEM_CID_ASSOCIATIONS>
117608667  1

> <PUBCHEM_COORDINATE_TYPE>
1
3

> <PUBCHEM_BONDANNOTATIONS>
5  2  5
4  5  6
6  10  6

$$$$
