310942154
  -OEChem-07211613022D

 27 28  0     1  0  0  0  0  0999 V2000
    0.6249   -2.1622    0.0000 F   0  0  0  0  0  0  0  0  0  0  0  0
    3.1245   -0.7249    0.0000 F   0  0  0  0  0  0  0  0  0  0  0  0
    2.2747   -2.1622    0.0000 O   0  0  0  0  0  0  0  0  0  0  0  0
   -3.1370    0.0000    0.0000 O   0  0  0  0  0  0  0  0  0  0  0  0
   -0.6249    0.0000    0.0000 N   0  0  0  0  0  0  0  0  0  0  0  0
   -3.1245    1.4498    0.0000 N   0  0  0  0  0  0  0  0  0  0  0  0
   -4.7868    2.8871    0.0000 N   0  0  0  0  0  0  0  0  0  0  0  0
    1.8747   -1.4373    0.0000 C   0  0  0  0  0  0  0  0  0  0  0  0
    1.0498   -1.4248    0.0000 C   0  0  0  0  0  0  0  0  0  0  0  0
    0.6249   -0.7124    0.0000 C   0  0  0  0  0  0  0  0  0  0  0  0
    2.2872   -0.7124    0.0000 C   0  0  0  0  0  0  0  0  0  0  0  0
   -0.2125   -0.7124    0.0000 C   0  0  3  0  0  0  0  0  0  0  0  0
    1.0498   -0.0125    0.0000 C   0  0  0  0  0  0  0  0  0  0  0  0
    1.8747   -0.0125    0.0000 C   0  0  0  0  0  0  0  0  0  0  0  0
    3.1370   -2.1622    0.0000 C   0  0  0  0  0  0  0  0  0  0  0  0
   -0.6249   -1.4373    0.0000 C   0  0  0  0  0  0  0  0  0  0  0  0
    3.5495   -2.8871    0.0000 C   0  0  0  0  0  0  0  0  0  0  0  0
    3.5495   -1.4498    0.0000 C   0  0  0  0  0  0  0  0  0  0  0  0
   -1.4498    0.0000    0.0000 C   0  0  0  0  0  0  0  0  0  0  0  0
    4.3744   -2.8871    0.0000 C   0  0  0  0  0  0  0  0  0  0  0  0
    4.3744   -1.4498    0.0000 C   0  0  0  0  0  0  0  0  0  0  0  0
   -1.4498   -1.4498    0.0000 C   0  0  0  0  0  0  0  0  0  0  0  0
    4.7868   -2.1497    0.0000 C   0  0  0  0  0  0  0  0  0  0  0  0
   -1.8622    0.7124    0.0000 C   0  0  0  0  0  0  0  0  0  0  0  0
   -2.7121    0.7499    0.0000 C   0  0  0  0  0  0  0  0  0  0  0  0
   -3.9619    1.4498    0.0000 C   0  0  0  0  0  0  0  0  0  0  0  0
   -4.3744    2.1747    0.0000 C   0  0  0  0  0  0  0  0  0  0  0  0
  1  9  1  0  0  0  0
  2 11  1  0  0  0  0
  3  8  1  0  0  0  0
  3 15  1  0  0  0  0
  4 25  2  0  0  0  0
 12  5  1  6  0  0  0
  5 19  1  0  0  0  0
  6 25  1  0  0  0  0
  6 26  1  0  0  0  0
  7 27  3  0  0  0  0
  8  9  1  0  0  0  0
  8 11  2  0  0  0  0
  9 10  2  0  0  0  0
 10 12  1  0  0  0  0
 10 13  1  0  0  0  0
 11 14  1  0  0  0  0
 12 16  1  0  0  0  0
 13 14  2  0  0  0  0
 15 17  2  0  0  0  0
 15 18  1  0  0  0  0
 16 22  1  0  0  0  0
 17 20  1  0  0  0  0
 18 21  2  0  0  0  0
 19 24  1  0  0  0  0
 20 23  2  0  0  0  0
 21 23  1  0  0  0  0
 24 25  1  0  0  0  0
 26 27  1  0  0  0  0
M  END
> <PUBCHEM_COMPOUND_ID_TYPE>
0

> <PUBCHEM_TOTAL_CHARGE>
0

> <PUBCHEM_SUBSTANCE_ID>
310942154

> <PUBCHEM_SUBSTANCE_VERSION>
1

> <PUBCHEM_EXT_DATASOURCE_NAME>
4488

> <PUBCHEM_EXT_DATASOURCE_REGID>
SCHEMBL16120189

> <PUBCHEM_SUBSTANCE_COMMENT>
InChI=1S/C20H21F2N3O2/c1-2-17(24-12-10-18(26)25-13-11-23)15-8-9-16(21)20(19(15)22)27-14-6-4-3-5-7-14/h3-9,17,24H,2,10,12-13H2,1H3,(H,25,26)/t17-/m0/s1
InChIKey=PDACIYFGIFLHDQ-KRWDZBQOSA-N

> <PUBCHEM_SUBSTANCE_SYNONYM>
SCHEMBL16120189

> <PUBCHEM_XREF_EXT_ID>
SCHEMBL16120189

> <PUBCHEM_EXT_DATASOURCE_URL>
https://www.surechembl.org/

> <PUBCHEM_EXT_SUBSTANCE_URL>
https://www.surechembl.org/chemical/SCHEMBL16120189

> <PUBCHEM_CID_ASSOCIATIONS>
117608810  1

> <PUBCHEM_COORDINATE_TYPE>
1
3

> <PUBCHEM_BONDANNOTATIONS>
12  5  6

$$$$
