310945397
  -OEChem-07211613022D

 17 19  0     0  0  0  0  0  0999 V2000
    2.8515    1.4468    0.0000 F   0  0  0  0  0  0  0  0  0  0  0  0
   -2.2963   -0.1345    0.0000 O   0  0  0  0  0  0  0  0  0  0  0  0
    0.5299   -0.8748    0.0000 N   0  0  0  0  0  0  0  0  0  0  0  0
    2.5654    0.0505    0.0000 N   0  0  0  0  0  0  0  0  0  0  0  0
    0.9337    0.3701    0.0000 C   0  0  0  0  0  0  0  0  0  0  0  0
    1.1860   -0.3701    0.0000 C   0  0  0  0  0  0  0  0  0  0  0  0
    0.1094    0.4037    0.0000 C   0  0  0  0  0  0  0  0  0  0  0  0
   -0.1598   -0.3869    0.0000 C   0  0  0  0  0  0  0  0  0  0  0  0
    1.9935   -0.5551    0.0000 C   0  0  0  0  0  0  0  0  0  0  0  0
    1.5056    1.0094    0.0000 C   0  0  0  0  0  0  0  0  0  0  0  0
   -0.4290    0.9926    0.0000 C   0  0  0  0  0  0  0  0  0  0  0  0
   -0.9505   -0.5383    0.0000 C   0  0  0  0  0  0  0  0  0  0  0  0
    2.2963    0.8411    0.0000 C   0  0  0  0  0  0  0  0  0  0  0  0
   -1.4720    0.0505    0.0000 C   0  0  0  0  0  0  0  0  0  0  0  0
   -1.2197    0.8411    0.0000 C   0  0  0  0  0  0  0  0  0  0  0  0
    2.3300   -1.4468    0.0000 C   0  0  0  0  0  0  0  0  0  0  0  0
   -2.8515    0.4710    0.0000 C   0  0  0  0  0  0  0  0  0  0  0  0
  1 13  1  0  0  0  0
  2 14  1  0  0  0  0
  2 17  1  0  0  0  0
  3  6  1  0  0  0  0
  3  8  1  0  0  0  0
  4  9  2  0  0  0  0
  4 13  1  0  0  0  0
  5  6  2  0  0  0  0
  5  7  1  0  0  0  0
  5 10  1  0  0  0  0
  6  9  1  0  0  0  0
  7  8  2  0  0  0  0
  7 11  1  0  0  0  0
  8 12  1  0  0  0  0
  9 16  1  0  0  0  0
 10 13  2  0  0  0  0
 11 15  2  0  0  0  0
 12 14  2  0  0  0  0
 14 15  1  0  0  0  0
M  END
> <PUBCHEM_COMPOUND_ID_TYPE>
0

> <PUBCHEM_TOTAL_CHARGE>
0

> <PUBCHEM_SUBSTANCE_ID>
310945397

> <PUBCHEM_SUBSTANCE_VERSION>
1

> <PUBCHEM_EXT_DATASOURCE_NAME>
4488

> <PUBCHEM_EXT_DATASOURCE_REGID>
SCHEMBL16123495

> <PUBCHEM_SUBSTANCE_COMMENT>
InChI=1S/C13H11FN2O/c1-7-13-10(6-12(14)15-7)9-4-3-8(17-2)5-11(9)16-13/h3-6,16H,1-2H3
InChIKey=FPTPFRGFBJPVDA-UHFFFAOYSA-N

> <PUBCHEM_SUBSTANCE_SYNONYM>
SCHEMBL16123495

> <PUBCHEM_XREF_EXT_ID>
SCHEMBL16123495

> <PUBCHEM_EXT_DATASOURCE_URL>
https://www.surechembl.org/

> <PUBCHEM_EXT_SUBSTANCE_URL>
https://www.surechembl.org/chemical/SCHEMBL16123495

> <PUBCHEM_CID_ASSOCIATIONS>
117611445  1

> <PUBCHEM_COORDINATE_TYPE>
1
3

$$$$
