310930285
  -OEChem-07211613022D

 16 18  0     0  0  0  0  0  0999 V2000
    2.9107   -2.8053    0.0000 N   0  0  0  0  0  0  0  0  0  0  0  0
    2.9107    0.0000    0.0000 N   0  0  0  0  0  0  0  0  0  0  0  0
    1.6663   -2.1092    0.0000 C   0  0  0  0  0  0  0  0  0  0  0  0
    1.2234   -2.8053    0.0000 C   0  0  0  0  0  0  0  0  0  0  0  0
    1.2234   -1.4132    0.0000 C   0  0  0  0  0  0  0  0  0  0  0  0
    2.4889   -2.1092    0.0000 C   0  0  0  0  0  0  0  0  0  0  0  0
    0.4640   -2.8053    0.0000 C   0  0  0  0  0  0  0  0  0  0  0  0
    1.6663   -0.6960    0.0000 C   0  0  0  0  0  0  0  0  0  0  0  0
    0.4640   -1.4132    0.0000 C   0  0  0  0  0  0  0  0  0  0  0  0
    2.4889   -0.6960    0.0000 C   0  0  0  0  0  0  0  0  0  0  0  0
    2.8897   -1.4132    0.0000 C   0  0  0  0  0  0  0  0  0  0  0  0
    0.0000   -2.1092    0.0000 C   0  0  0  0  0  0  0  0  0  0  0  0
    1.6663   -3.5224    0.0000 C   0  0  0  0  0  0  0  0  0  0  0  0
    0.0000   -3.5224    0.0000 C   0  0  0  0  0  0  0  0  0  0  0  0
    1.2234   -4.2185    0.0000 C   0  0  0  0  0  0  0  0  0  0  0  0
    0.4640   -4.2185    0.0000 C   0  0  0  0  0  0  0  0  0  0  0  0
  1  6  1  0  0  0  0
  2 10  1  0  0  0  0
  3  4  2  0  0  0  0
  3  5  1  0  0  0  0
  3  6  1  0  0  0  0
  4  7  1  0  0  0  0
  4 13  1  0  0  0  0
  5  8  1  0  0  0  0
  5  9  2  0  0  0  0
  6 11  2  0  0  0  0
  7 12  2  0  0  0  0
  7 14  1  0  0  0  0
  8 10  2  0  0  0  0
  9 12  1  0  0  0  0
 10 11  1  0  0  0  0
 13 15  2  0  0  0  0
 14 16  2  0  0  0  0
 15 16  1  0  0  0  0
M  END
> <PUBCHEM_COMPOUND_ID_TYPE>
0

> <PUBCHEM_TOTAL_CHARGE>
0

> <PUBCHEM_SUBSTANCE_ID>
310930285

> <PUBCHEM_SUBSTANCE_VERSION>
1

> <PUBCHEM_EXT_DATASOURCE_NAME>
4488

> <PUBCHEM_EXT_DATASOURCE_REGID>
SCHEMBL16107563

> <PUBCHEM_SUBSTANCE_COMMENT>
InChI=1S/C14H12N2/c15-11-7-10-6-5-9-3-1-2-4-12(9)14(10)13(16)8-11/h1-8H,15-16H2
InChIKey=CNQJKUSKVIZWCI-UHFFFAOYSA-N

> <PUBCHEM_SUBSTANCE_SYNONYM>
SCHEMBL16107563

> <PUBCHEM_XREF_EXT_ID>
SCHEMBL16107563

> <PUBCHEM_EXT_DATASOURCE_URL>
https://www.surechembl.org/

> <PUBCHEM_EXT_SUBSTANCE_URL>
https://www.surechembl.org/chemical/SCHEMBL16107563

> <PUBCHEM_CID_ASSOCIATIONS>
117599467  1

> <PUBCHEM_COORDINATE_TYPE>
1
3

$$$$
