310945032
  -OEChem-07211613022D

 31 35  0     0  0  0  0  0  0999 V2000
   -0.9465   -0.8798    0.0000 S   0  0  0  0  0  0  0  0  0  0  0  0
    5.3513    1.3530    0.0000 O   0  0  0  0  0  0  0  0  0  0  0  0
    0.5824   -0.8798    0.0000 O   0  0  0  0  0  0  0  0  0  0  0  0
   -4.6596   -0.0789    0.0000 O   0  0  0  0  0  0  0  0  0  0  0  0
    3.5432    0.1153    0.0000 N   0  0  0  0  0  0  0  0  0  0  0  0
    5.2056   -0.0667    0.0000 N   0  0  0  0  0  0  0  0  0  0  0  0
   -0.1334    0.3701    0.0000 N   0  0  0  0  0  0  0  0  0  0  0  0
   -1.6139    0.2973    0.0000 N   0  0  0  0  0  0  0  0  0  0  0  0
   -3.3369    0.5157    0.0000 N   0  0  0  0  0  0  0  0  0  0  0  0
    3.8709   -0.6370    0.0000 C   0  0  0  0  0  0  0  0  0  0  0  0
    2.7424    0.3701    0.0000 C   0  0  0  0  0  0  0  0  0  0  0  0
    4.0287    0.7827    0.0000 C   0  0  0  0  0  0  0  0  0  0  0  0
    2.7545    1.1953    0.0000 C   0  0  0  0  0  0  0  0  0  0  0  0
    3.5554    1.4379    0.0000 C   0  0  0  0  0  0  0  0  0  0  0  0
    4.8417    0.6734    0.0000 C   0  0  0  0  0  0  0  0  0  0  0  0
    4.7081   -0.7341    0.0000 C   0  0  0  0  0  0  0  0  0  0  0  0
    3.0700   -0.7827    0.0000 C   0  0  0  0  0  0  0  0  0  0  0  0
    4.0044   -1.4622    0.0000 C   0  0  0  0  0  0  0  0  0  0  0  0
    2.0385   -0.0425    0.0000 C   0  0  0  0  0  0  0  0  0  0  0  0
    3.1914   -1.5956    0.0000 C   0  0  0  0  0  0  0  0  0  0  0  0
    1.2984    0.3701    0.0000 C   0  0  0  0  0  0  0  0  0  0  0  0
    2.0143    1.5956    0.0000 C   0  0  0  0  0  0  0  0  0  0  0  0
    1.3106    1.1953    0.0000 C   0  0  0  0  0  0  0  0  0  0  0  0
    0.5945   -0.0304    0.0000 C   0  0  0  0  0  0  0  0  0  0  0  0
   -0.8494   -0.0425    0.0000 C   0  0  0  0  0  0  0  0  0  0  0  0
   -2.1842   -0.3337    0.0000 C   0  0  0  0  0  0  0  0  0  0  0  0
   -1.7716   -1.0375    0.0000 C   0  0  0  0  0  0  0  0  0  0  0  0
   -2.9972   -0.2366    0.0000 C   0  0  0  0  0  0  0  0  0  0  0  0
   -4.1622    0.6249    0.0000 C   0  0  0  0  0  0  0  0  0  0  0  0
   -4.5019    1.3530    0.0000 C   0  0  0  0  0  0  0  0  0  0  0  0
   -5.3513    1.3530    0.0000 C   0  0  0  0  0  0  0  0  0  0  0  0
  1 25  1  0  0  0  0
  1 27  1  0  0  0  0
  2 15  2  0  0  0  0
  3 24  2  0  0  0  0
  4 29  2  0  0  0  0
  5 10  1  0  0  0  0
  5 11  1  0  0  0  0
  5 12  1  0  0  0  0
  6 15  1  0  0  0  0
  6 16  1  0  0  0  0
  7 24  1  0  0  0  0
  7 25  1  0  0  0  0
  8 25  2  0  0  0  0
  8 26  1  0  0  0  0
  9 28  1  0  0  0  0
  9 29  1  0  0  0  0
 10 16  1  0  0  0  0
 10 17  1  0  0  0  0
 10 18  1  0  0  0  0
 11 13  1  0  0  0  0
 11 19  2  0  0  0  0
 12 14  2  0  0  0  0
 12 15  1  0  0  0  0
 13 14  1  0  0  0  0
 13 22  2  0  0  0  0
 17 20  1  0  0  0  0
 18 20  1  0  0  0  0
 19 21  1  0  0  0  0
 21 23  2  0  0  0  0
 21 24  1  0  0  0  0
 22 23  1  0  0  0  0
 26 27  2  0  0  0  0
 26 28  1  0  0  0  0
 29 30  1  0  0  0  0
 30 31  2  0  0  0  0
M  END
> <PUBCHEM_COMPOUND_ID_TYPE>
0

> <PUBCHEM_TOTAL_CHARGE>
0

> <PUBCHEM_SUBSTANCE_ID>
310945032

> <PUBCHEM_SUBSTANCE_VERSION>
1

> <PUBCHEM_EXT_DATASOURCE_NAME>
4488

> <PUBCHEM_EXT_DATASOURCE_REGID>
SCHEMBL16123120

> <PUBCHEM_SUBSTANCE_COMMENT>
InChI=1S/C22H21N5O3S/c1-2-18(28)23-10-15-11-31-21(25-15)26-19(29)14-5-4-13-8-17-20(30)24-12-22(6-3-7-22)27(17)16(13)9-14/h2,4-5,8-9,11H,1,3,6-7,10,12H2,(H,23,28)(H,24,30)(H,25,26,29)
InChIKey=HVOKUTOPCREAGZ-UHFFFAOYSA-N

> <PUBCHEM_SUBSTANCE_SYNONYM>
SCHEMBL16123120

> <PUBCHEM_XREF_EXT_ID>
SCHEMBL16123120

> <PUBCHEM_EXT_DATASOURCE_URL>
https://www.surechembl.org/

> <PUBCHEM_EXT_SUBSTANCE_URL>
https://www.surechembl.org/chemical/SCHEMBL16123120

> <PUBCHEM_CID_ASSOCIATIONS>
117611160  1

> <PUBCHEM_COORDINATE_TYPE>
1
3

$$$$
