310932207
  -OEChem-07211613022D

 26 28  0     1  0  0  0  0  0999 V2000
    3.8846   -2.7982    0.0000 F   0  0  0  0  0  0  0  0  0  0  0  0
    0.5267   -2.5019    0.0000 O   0  0  0  0  0  0  0  0  0  0  0  0
    1.9423    0.0000    0.0000 O   0  0  0  0  0  0  0  0  0  0  0  0
    0.0000   -0.5267    0.0000 O   0  0  0  0  0  0  0  0  0  0  0  0
    4.6088   -4.0492    0.0000 O   0  0  0  0  0  0  0  0  0  0  0  0
    5.9585   -6.0902    0.0000 O   0  0  0  0  0  0  0  0  0  0  0  0
    5.4977   -4.7405    0.0000 O   0  0  0  0  0  0  0  0  0  0  0  0
    2.4361   -1.9423    0.0000 N   0  0  0  0  0  0  0  0  0  0  0  0
    3.8846   -5.3001    0.0000 N   0  0  0  0  0  0  0  0  0  0  0  0
    1.7448   -1.5472    0.0000 C   0  0  0  0  0  0  0  0  0  0  0  0
    0.9547   -1.7448    0.0000 C   0  0  0  0  0  0  0  0  0  0  0  0
    1.5143   -0.7243    0.0000 C   0  0  0  0  0  0  0  0  0  0  0  0
    0.7243   -0.9547    0.0000 C   0  0  0  0  0  0  0  0  0  0  0  0
    2.4361   -2.7982    0.0000 C   0  0  0  0  0  0  0  0  0  0  0  0
    3.1603   -4.0492    0.0000 C   0  0  0  0  0  0  0  0  0  0  0  0
    3.1603   -3.2262    0.0000 C   0  0  0  0  0  0  0  0  0  0  0  0
    3.8846   -4.4771    0.0000 C   0  0  0  0  0  0  0  0  0  0  0  0
    4.5430   -5.7939    0.0000 C   0  0  3  0  0  0  0  0  0  0  0  0
    1.7119   -3.1933    0.0000 C   0  0  0  0  0  0  0  0  0  0  0  0
    2.4361   -4.4442    0.0000 C   0  0  0  0  0  0  0  0  0  0  0  0
    3.1933   -5.7939    0.0000 C   0  0  0  0  0  0  0  0  0  0  0  0
    1.7119   -4.0492    0.0000 C   0  0  0  0  0  0  0  0  0  0  0  0
    4.3125   -6.5840    0.0000 C   0  0  0  0  0  0  0  0  0  0  0  0
    5.3330   -5.5306    0.0000 C   0  0  0  0  0  0  0  0  0  0  0  0
    3.4566   -6.5840    0.0000 C   0  0  0  0  0  0  0  0  0  0  0  0
    0.9547   -3.1933    0.0000 C   0  0  0  0  0  0  0  0  0  0  0  0
  1 16  1  0  0  0  0
  2 11  1  0  0  0  0
  2 26  1  0  0  0  0
  3 12  2  0  0  0  0
  4 13  2  0  0  0  0
  5 17  2  0  0  0  0
  6 24  2  0  0  0  0
  7 24  1  0  0  0  0
  8 10  1  0  0  0  0
  8 14  1  0  0  0  0
  9 17  1  0  0  0  0
  9 18  1  0  0  0  0
  9 21  1  0  0  0  0
 10 11  2  0  0  0  0
 10 12  1  0  0  0  0
 11 13  1  0  0  0  0
 12 13  1  0  0  0  0
 14 16  1  0  0  0  0
 14 19  2  0  0  0  0
 15 16  2  0  0  0  0
 15 17  1  0  0  0  0
 15 20  1  0  0  0  0
 18 23  1  0  0  0  0
 18 24  1  6  0  0  0
 19 22  1  0  0  0  0
 20 22  2  0  0  0  0
 21 25  1  0  0  0  0
 23 25  1  0  0  0  0
M  END
> <PUBCHEM_COMPOUND_ID_TYPE>
0

> <PUBCHEM_TOTAL_CHARGE>
0

> <PUBCHEM_SUBSTANCE_ID>
310932207

> <PUBCHEM_SUBSTANCE_VERSION>
1

> <PUBCHEM_EXT_DATASOURCE_NAME>
4488

> <PUBCHEM_EXT_DATASOURCE_REGID>
SCHEMBL16109564

> <PUBCHEM_SUBSTANCE_COMMENT>
InChI=1S/C17H15FN2O6/c1-26-15-12(13(21)14(15)22)19-9-5-2-4-8(11(9)18)16(23)20-7-3-6-10(20)17(24)25/h2,4-5,10,19H,3,6-7H2,1H3,(H,24,25)/t10-/m0/s1
InChIKey=UTVKIWOSVCNKJA-JTQLQIEISA-N

> <PUBCHEM_SUBSTANCE_SYNONYM>
SCHEMBL16109564

> <PUBCHEM_XREF_EXT_ID>
SCHEMBL16109564

> <PUBCHEM_EXT_DATASOURCE_URL>
https://www.surechembl.org/

> <PUBCHEM_EXT_SUBSTANCE_URL>
https://www.surechembl.org/chemical/SCHEMBL16109564

> <PUBCHEM_CID_ASSOCIATIONS>
117600797  1

> <PUBCHEM_COORDINATE_TYPE>
1
3

> <PUBCHEM_BONDANNOTATIONS>
18  24  6

$$$$
