310945450
  -OEChem-07211613022D

 30 32  0     0  0  0  0  0  0999 V2000
   -0.7312    2.2561    0.0000 F   0  0  0  0  0  0  0  0  0  0  0  0
   -0.0063    2.6687    0.0000 F   0  0  0  0  0  0  0  0  0  0  0  0
    0.7312    2.2561    0.0000 F   0  0  0  0  0  0  0  0  0  0  0  0
    3.6061   -1.0313    0.0000 F   0  0  0  0  0  0  0  0  0  0  0  0
    4.3312   -1.4437    0.0000 F   0  0  0  0  0  0  0  0  0  0  0  0
    3.6061   -2.6687    0.0000 F   0  0  0  0  0  0  0  0  0  0  0  0
   -3.6187   -0.2062    0.0000 O   0  0  0  0  0  0  0  0  0  0  0  0
   -2.9062   -1.4312    0.0000 O   0  0  0  0  0  0  0  0  0  0  0  0
   -2.1812   -0.2062    0.0000 N   0  0  0  0  0  0  0  0  0  0  0  0
   -1.4563    1.0187    0.0000 N   0  0  0  0  0  0  0  0  0  0  0  0
    0.7187    0.6187    0.0000 N   0  0  0  0  0  0  0  0  0  0  0  0
   -0.0187   -0.6187    0.0000 N   0  0  0  0  0  0  0  0  0  0  0  0
   -1.4687   -0.6187    0.0000 N   0  0  0  0  0  0  0  0  0  0  0  0
    2.1561   -1.8437    0.0000 N   0  0  0  0  0  0  0  0  0  0  0  0
   -0.7312    0.6062    0.0000 C   0  0  0  0  0  0  0  0  0  0  0  0
   -0.0187    1.0187    0.0000 C   0  0  0  0  0  0  0  0  0  0  0  0
   -0.7562   -0.2188    0.0000 C   0  0  0  0  0  0  0  0  0  0  0  0
    0.7187   -0.2062    0.0000 C   0  0  0  0  0  0  0  0  0  0  0  0
   -0.0063    1.8437    0.0000 C   0  0  0  0  0  0  0  0  0  0  0  0
    1.4437   -0.6187    0.0000 C   0  0  0  0  0  0  0  0  0  0  0  0
   -2.8937   -0.5937    0.0000 C   0  0  0  0  0  0  0  0  0  0  0  0
    1.4437   -1.4437    0.0000 C   0  0  0  0  0  0  0  0  0  0  0  0
    2.1561   -0.2188    0.0000 C   0  0  0  0  0  0  0  0  0  0  0  0
    2.8687   -1.4563    0.0000 C   0  0  0  0  0  0  0  0  0  0  0  0
    2.8937   -0.6312    0.0000 C   0  0  0  0  0  0  0  0  0  0  0  0
    3.6061   -1.8437    0.0000 C   0  0  0  0  0  0  0  0  0  0  0  0
   -3.6061    0.6187    0.0000 C   0  0  0  0  0  0  0  0  0  0  0  0
   -3.6061    1.4187    0.0000 C   0  0  0  0  0  0  0  0  0  0  0  0
   -4.3312    1.0063    0.0000 C   0  0  0  0  0  0  0  0  0  0  0  0
   -2.8937    1.0063    0.0000 C   0  0  0  0  0  0  0  0  0  0  0  0
  1 19  1  0  0  0  0
  2 19  1  0  0  0  0
  3 19  1  0  0  0  0
  4 26  1  0  0  0  0
  5 26  1  0  0  0  0
  6 26  1  0  0  0  0
  7 21  1  0  0  0  0
  7 27  1  0  0  0  0
  8 21  2  0  0  0  0
  9 10  1  0  0  0  0
  9 13  1  0  0  0  0
  9 21  1  0  0  0  0
 10 15  1  0  0  0  0
 11 16  2  0  0  0  0
 11 18  1  0  0  0  0
 12 17  1  0  0  0  0
 12 18  2  0  0  0  0
 13 17  1  0  0  0  0
 14 22  1  0  0  0  0
 14 24  2  0  0  0  0
 15 16  1  0  0  0  0
 15 17  2  0  0  0  0
 16 19  1  0  0  0  0
 18 20  1  0  0  0  0
 20 22  2  0  0  0  0
 20 23  1  0  0  0  0
 23 25  2  0  0  0  0
 24 25  1  0  0  0  0
 24 26  1  0  0  0  0
 27 28  1  0  0  0  0
 27 29  1  0  0  0  0
 27 30  1  0  0  0  0
M  END
> <PUBCHEM_COMPOUND_ID_TYPE>
0

> <PUBCHEM_TOTAL_CHARGE>
0

> <PUBCHEM_SUBSTANCE_ID>
310945450

> <PUBCHEM_SUBSTANCE_VERSION>
1

> <PUBCHEM_EXT_DATASOURCE_NAME>
4488

> <PUBCHEM_EXT_DATASOURCE_REGID>
SCHEMBL16123548

> <PUBCHEM_SUBSTANCE_COMMENT>
InChI=1S/C16H14F6N6O2/c1-14(2,3)30-13(29)28-26-9-10(16(20,21)22)24-11(25-12(9)27-28)7-4-5-8(23-6-7)15(17,18)19/h4-6,26H,1-3H3,(H,24,25,27)
InChIKey=PNHRYZPEKCOCAI-UHFFFAOYSA-N

> <PUBCHEM_SUBSTANCE_SYNONYM>
SCHEMBL16123548

> <PUBCHEM_XREF_EXT_ID>
SCHEMBL16123548

> <PUBCHEM_EXT_DATASOURCE_URL>
https://www.surechembl.org/

> <PUBCHEM_EXT_SUBSTANCE_URL>
https://www.surechembl.org/chemical/SCHEMBL16123548

> <PUBCHEM_CID_ASSOCIATIONS>
117611495  1

> <PUBCHEM_COORDINATE_TYPE>
1
3

$$$$
