310943741
  -OEChem-07211613022D

 22 24  0     1  0  0  0  0  0999 V2000
    4.0393   -1.4278    0.0000 O   0  0  0  0  0  0  0  0  0  0  0  0
    2.7869    0.8893    0.0000 N   0  0  3  0  0  0  0  0  0  0  0  0
   -1.7598    0.0752    0.0000 N   0  0  3  0  0  0  0  0  0  0  0  0
   -3.5258    0.6137    0.0000 N   0  0  3  0  0  0  0  0  0  0  0  0
    1.0584    0.9268    0.0000 C   0  0  0  0  0  0  0  0  0  0  0  0
   -0.3570    0.1003    0.0000 C   0  0  0  0  0  0  0  0  0  0  0  0
    1.9226    1.3903    0.0000 C   0  0  0  0  0  0  0  0  0  0  0  0
    2.8119   -0.1378    0.0000 C   0  0  0  0  0  0  0  0  0  0  0  0
    3.7638   -0.4508    0.0000 C   0  0  3  0  0  0  0  0  0  0  0  0
   -1.0584   -0.3257    0.0000 C   0  0  0  0  0  0  0  0  0  0  0  0
    0.3445    1.3152    0.0000 C   0  0  0  0  0  0  0  0  0  0  0  0
    1.0584    0.1003    0.0000 C   0  0  0  0  0  0  0  0  0  0  0  0
   -0.3445    0.9143    0.0000 C   0  0  0  0  0  0  0  0  0  0  0  0
    0.3570   -0.3132    0.0000 C   0  0  0  0  0  0  0  0  0  0  0  0
    3.7638    1.1899    0.0000 C   0  0  0  0  0  0  0  0  0  0  0  0
    4.3525    0.3883    0.0000 C   0  0  0  0  0  0  0  0  0  0  0  0
   -2.4361   -0.3883    0.0000 C   0  0  0  0  0  0  0  0  0  0  0  0
   -1.7096    0.9018    0.0000 C   0  0  0  0  0  0  0  0  0  0  0  0
   -3.2252   -0.1503    0.0000 C   0  0  0  0  0  0  0  0  0  0  0  0
   -2.2858    1.4278    0.0000 C   0  0  0  0  0  0  0  0  0  0  0  0
   -3.1250    1.3152    0.0000 C   0  0  0  0  0  0  0  0  0  0  0  0
   -4.3525    0.6012    0.0000 C   0  0  0  0  0  0  0  0  0  0  0  0
  9  1  1  1  0  0  0
  2  7  1  0  0  0  0
  2  8  1  0  0  0  0
  2 15  1  0  0  0  0
  3 10  1  0  0  0  0
  3 17  1  0  0  0  0
  3 18  1  0  0  0  0
  4 19  1  0  0  0  0
  4 21  1  0  0  0  0
  4 22  1  0  0  0  0
  5  7  1  0  0  0  0
  5 11  2  0  0  0  0
  5 12  1  0  0  0  0
  6 10  1  0  0  0  0
  6 13  2  0  0  0  0
  6 14  1  0  0  0  0
  8  9  1  0  0  0  0
  9 16  1  0  0  0  0
 11 13  1  0  0  0  0
 12 14  2  0  0  0  0
 15 16  1  0  0  0  0
 17 19  1  0  0  0  0
 18 20  1  0  0  0  0
 20 21  1  0  0  0  0
M  END
> <PUBCHEM_COMPOUND_ID_TYPE>
0

> <PUBCHEM_TOTAL_CHARGE>
0

> <PUBCHEM_SUBSTANCE_ID>
310943741

> <PUBCHEM_SUBSTANCE_VERSION>
1

> <PUBCHEM_EXT_DATASOURCE_NAME>
4488

> <PUBCHEM_EXT_DATASOURCE_REGID>
SCHEMBL16121809

> <PUBCHEM_SUBSTANCE_COMMENT>
InChI=1S/C18H29N3O/c1-19-8-2-9-20(12-11-19)13-16-3-5-17(6-4-16)14-21-10-7-18(22)15-21/h3-6,18,22H,2,7-15H2,1H3/t18-/m1/s1
InChIKey=SAJDXXOXJDWWDE-GOSISDBHSA-N

> <PUBCHEM_SUBSTANCE_SYNONYM>
SCHEMBL16121809

> <PUBCHEM_XREF_EXT_ID>
SCHEMBL16121809

> <PUBCHEM_EXT_DATASOURCE_URL>
https://www.surechembl.org/

> <PUBCHEM_EXT_SUBSTANCE_URL>
https://www.surechembl.org/chemical/SCHEMBL16121809

> <PUBCHEM_CID_ASSOCIATIONS>
86300327  1

> <PUBCHEM_COORDINATE_TYPE>
1
3

> <PUBCHEM_BONDANNOTATIONS>
9  1  5

$$$$
