310946159
  -OEChem-07211613022D

 53 62  0     0  0  0  0  0  0999 V2000
   -0.0856    1.4493    0.0000 S   0  0  0  0  0  0  0  0  0  0  0  0
   -1.0682   -0.0498    0.0000 N   0  0  0  0  0  0  0  0  0  0  0  0
   -3.5252   -1.6502    0.0000 C   0  0  0  0  0  0  0  0  0  0  0  0
   -2.7182   -1.4787    0.0000 C   0  0  0  0  0  0  0  0  0  0  0  0
   -2.3057   -2.1932    0.0000 C   0  0  0  0  0  0  0  0  0  0  0  0
   -3.6114   -2.4707    0.0000 C   0  0  0  0  0  0  0  0  0  0  0  0
    0.1693    0.6647    0.0000 C   0  0  0  0  0  0  0  0  0  0  0  0
   -0.2432   -0.0498    0.0000 C   0  0  0  0  0  0  0  0  0  0  0  0
   -2.8577   -2.8063    0.0000 C   0  0  0  0  0  0  0  0  0  0  0  0
    0.9943    0.6647    0.0000 C   0  0  0  0  0  0  0  0  0  0  0  0
   -1.4807   -0.7642    0.0000 C   0  0  0  0  0  0  0  0  0  0  0  0
    1.2492    1.4493    0.0000 C   0  0  0  0  0  0  0  0  0  0  0  0
   -2.3057   -0.7642    0.0000 C   0  0  0  0  0  0  0  0  0  0  0  0
    0.5818    1.9343    0.0000 C   0  0  0  0  0  0  0  0  0  0  0  0
   -1.4807   -2.1932    0.0000 C   0  0  0  0  0  0  0  0  0  0  0  0
    0.1693   -0.7642    0.0000 C   0  0  0  0  0  0  0  0  0  0  0  0
    0.9943   -0.7642    0.0000 C   0  0  0  0  0  0  0  0  0  0  0  0
   -1.4807    0.6647    0.0000 C   0  0  0  0  0  0  0  0  0  0  0  0
    1.4068   -0.0498    0.0000 C   0  0  0  0  0  0  0  0  0  0  0  0
   -1.0682   -1.4787    0.0000 C   0  0  0  0  0  0  0  0  0  0  0  0
   -4.2788   -2.9556    0.0000 C   0  0  0  0  0  0  0  0  0  0  0  0
   -2.7715   -3.6267    0.0000 C   0  0  0  0  0  0  0  0  0  0  0  0
    2.0029    1.7849    0.0000 C   0  0  0  0  0  0  0  0  0  0  0  0
   -4.3502   -1.6502    0.0000 C   0  0  0  0  0  0  0  0  0  0  0  0
   -3.9377   -0.9358    0.0000 C   0  0  0  0  0  0  0  0  0  0  0  0
    0.6680    2.7547    0.0000 C   0  0  0  0  0  0  0  0  0  0  0  0
    2.0891    2.6054    0.0000 C   0  0  0  0  0  0  0  0  0  0  0  0
    1.4068   -1.4787    0.0000 C   0  0  0  0  0  0  0  0  0  0  0  0
   -4.1926   -3.7761    0.0000 C   0  0  0  0  0  0  0  0  0  0  0  0
   -1.0682    1.3792    0.0000 C   0  0  0  0  0  0  0  0  0  0  0  0
   -2.3057    0.6647    0.0000 C   0  0  0  0  0  0  0  0  0  0  0  0
   -3.4389   -4.1117    0.0000 C   0  0  0  0  0  0  0  0  0  0  0  0
    1.4217    3.0903    0.0000 C   0  0  0  0  0  0  0  0  0  0  0  0
    2.8428    2.9409    0.0000 C   0  0  0  0  0  0  0  0  0  0  0  0
   -2.3057    2.0937    0.0000 C   0  0  0  0  0  0  0  0  0  0  0  0
   -1.4807    2.0937    0.0000 C   0  0  0  0  0  0  0  0  0  0  0  0
   -2.7182    1.3792    0.0000 C   0  0  0  0  0  0  0  0  0  0  0  0
    0.9943   -2.1932    0.0000 C   0  0  0  0  0  0  0  0  0  0  0  0
    2.2318   -1.4787    0.0000 C   0  0  0  0  0  0  0  0  0  0  0  0
   -2.7182    2.8081    0.0000 C   0  0  0  0  0  0  0  0  0  0  0  0
    3.5103    2.4560    0.0000 C   0  0  0  0  0  0  0  0  0  0  0  0
    2.9291    3.7614    0.0000 C   0  0  0  0  0  0  0  0  0  0  0  0
    1.4068   -2.9076    0.0000 C   0  0  0  0  0  0  0  0  0  0  0  0
    2.6443   -2.1932    0.0000 C   0  0  0  0  0  0  0  0  0  0  0  0
    2.2318   -2.9076    0.0000 C   0  0  0  0  0  0  0  0  0  0  0  0
    4.2639    2.7916    0.0000 C   0  0  0  0  0  0  0  0  0  0  0  0
    3.6827    4.0970    0.0000 C   0  0  0  0  0  0  0  0  0  0  0  0
   -2.3057    3.5226    0.0000 C   0  0  0  0  0  0  0  0  0  0  0  0
   -3.5432    2.8081    0.0000 C   0  0  0  0  0  0  0  0  0  0  0  0
    4.3502    3.6120    0.0000 C   0  0  0  0  0  0  0  0  0  0  0  0
   -2.7182    4.2371    0.0000 C   0  0  0  0  0  0  0  0  0  0  0  0
   -3.9557    3.5226    0.0000 C   0  0  0  0  0  0  0  0  0  0  0  0
   -3.5432    4.2371    0.0000 C   0  0  0  0  0  0  0  0  0  0  0  0
  1  7  1  0  0  0  0
  1 14  1  0  0  0  0
  2  8  1  0  0  0  0
  2 11  1  0  0  0  0
  2 18  1  0  0  0  0
  3  4  1  0  0  0  0
  3  6  1  0  0  0  0
  3 24  1  0  0  0  0
  3 25  1  0  0  0  0
  4  5  2  0  0  0  0
  4 13  1  0  0  0  0
  5  9  1  0  0  0  0
  5 15  1  0  0  0  0
  6  9  2  0  0  0  0
  6 21  1  0  0  0  0
  7  8  1  0  0  0  0
  7 10  2  0  0  0  0
  8 16  2  0  0  0  0
  9 22  1  0  0  0  0
 10 12  1  0  0  0  0
 10 19  1  0  0  0  0
 11 13  2  0  0  0  0
 11 20  1  0  0  0  0
 12 14  2  0  0  0  0
 12 23  1  0  0  0  0
 14 26  1  0  0  0  0
 15 20  2  0  0  0  0
 16 17  1  0  0  0  0
 17 19  2  0  0  0  0
 17 28  1  0  0  0  0
 18 30  2  0  0  0  0
 18 31  1  0  0  0  0
 21 29  2  0  0  0  0
 22 32  2  0  0  0  0
 23 27  2  0  0  0  0
 26 33  2  0  0  0  0
 27 33  1  0  0  0  0
 27 34  1  0  0  0  0
 28 38  2  0  0  0  0
 28 39  1  0  0  0  0
 29 32  1  0  0  0  0
 30 36  1  0  0  0  0
 31 37  2  0  0  0  0
 34 41  2  0  0  0  0
 34 42  1  0  0  0  0
 35 36  2  0  0  0  0
 35 37  1  0  0  0  0
 35 40  1  0  0  0  0
 38 43  1  0  0  0  0
 39 44  2  0  0  0  0
 40 48  2  0  0  0  0
 40 49  1  0  0  0  0
 41 46  1  0  0  0  0
 42 47  2  0  0  0  0
 43 45  2  0  0  0  0
 44 45  1  0  0  0  0
 46 50  2  0  0  0  0
 47 50  1  0  0  0  0
 48 51  1  0  0  0  0
 49 52  2  0  0  0  0
 51 53  2  0  0  0  0
 52 53  1  0  0  0  0
M  END
> <PUBCHEM_COMPOUND_ID_TYPE>
0

> <PUBCHEM_TOTAL_CHARGE>
0

> <PUBCHEM_SUBSTANCE_ID>
310946159

> <PUBCHEM_SUBSTANCE_VERSION>
1

> <PUBCHEM_EXT_DATASOURCE_NAME>
4488

> <PUBCHEM_EXT_DATASOURCE_REGID>
SCHEMBL16124268

> <PUBCHEM_SUBSTANCE_COMMENT>
InChI=1S/C51H37NS/c1-51(2)46-21-13-12-20-42(46)43-28-27-41(33-47(43)51)52(40-25-22-37(23-26-40)34-14-6-3-7-15-34)48-32-39(36-18-10-5-11-19-36)31-45-44-30-38(35-16-8-4-9-17-35)24-29-49(44)53-50(45)48/h3-33H,1-2H3
InChIKey=ZWTMDCOGDNITRL-UHFFFAOYSA-N

> <PUBCHEM_SUBSTANCE_SYNONYM>
SCHEMBL16124268

> <PUBCHEM_XREF_EXT_ID>
SCHEMBL16124268

> <PUBCHEM_EXT_DATASOURCE_URL>
https://www.surechembl.org/

> <PUBCHEM_EXT_SUBSTANCE_URL>
https://www.surechembl.org/chemical/SCHEMBL16124268

> <PUBCHEM_CID_ASSOCIATIONS>
117612116  1

> <PUBCHEM_COORDINATE_TYPE>
1
3

$$$$
