310940602
  -OEChem-07211613022D

 24 26  0     1  0  0  0  0  0999 V2000
   -1.4432   -2.0309    0.0000 O   0  0  0  0  0  0  0  0  0  0  0  0
   -0.6804   -3.3504    0.0000 O   0  0  0  0  0  0  0  0  0  0  0  0
   -0.7422   -0.7938    0.0000 N   0  0  0  0  0  0  0  0  0  0  0  0
    0.7628   -1.7628    0.0000 N   0  0  0  0  0  0  0  0  0  0  0  0
   -0.7215    1.6804    0.0000 C   0  0  0  0  0  0  0  0  0  0  0  0
   -0.7215    0.8762    0.0000 C   0  0  0  0  0  0  0  0  0  0  0  0
   -0.0206    2.0927    0.0000 C   0  0  0  0  0  0  0  0  0  0  0  0
   -0.7422   -1.5979    0.0000 C   0  0  0  0  0  0  0  0  0  0  0  0
    0.0000   -2.0102    0.0000 C   0  0  3  0  0  0  0  0  0  0  0  0
    0.7422    1.6804    0.0000 C   0  0  0  0  0  0  0  0  0  0  0  0
   -0.0206   -2.8349    0.0000 C   0  0  3  0  0  0  0  0  0  0  0  0
    0.0000    0.4433    0.0000 C   0  0  0  0  0  0  0  0  0  0  0  0
   -1.4226    0.4640    0.0000 C   0  0  0  0  0  0  0  0  0  0  0  0
    0.0000   -0.3609    0.0000 C   0  0  0  0  0  0  0  0  0  0  0  0
   -1.4432   -0.3609    0.0000 C   0  0  0  0  0  0  0  0  0  0  0  0
   -1.4020    2.1340    0.0000 C   0  0  0  0  0  0  0  0  0  0  0  0
    0.0000    2.9380    0.0000 C   0  0  0  0  0  0  0  0  0  0  0  0
    0.7628   -3.1029    0.0000 C   0  0  0  0  0  0  0  0  0  0  0  0
    1.2370   -2.4225    0.0000 C   0  0  0  0  0  0  0  0  0  0  0  0
   -1.4020    2.9380    0.0000 C   0  0  0  0  0  0  0  0  0  0  0  0
   -0.7215    3.3504    0.0000 C   0  0  0  0  0  0  0  0  0  0  0  0
    1.4432    2.1133    0.0000 C   0  0  0  0  0  0  0  0  0  0  0  0
    1.4226    1.2680    0.0000 C   0  0  0  0  0  0  0  0  0  0  0  0
    0.7215    0.8556    0.0000 C   0  0  0  0  0  0  0  0  0  0  0  0
  1  8  2  0  0  0  0
 11  2  1  6  0  0  0
  3  8  1  0  0  0  0
  3 14  1  0  0  0  0
  3 15  1  0  0  0  0
  4  9  1  0  0  0  0
  4 19  1  0  0  0  0
  5  6  1  0  0  0  0
  5  7  2  0  0  0  0
  5 16  1  0  0  0  0
  6 12  1  0  0  0  0
  6 13  1  0  0  0  0
  7 10  1  0  0  0  0
  7 17  1  0  0  0  0
  9  8  1  1  0  0  0
  9 11  1  0  0  0  0
 10 22  1  0  0  0  0
 10 23  1  0  0  0  0
 10 24  1  0  0  0  0
 11 18  1  0  0  0  0
 12 14  1  0  0  0  0
 13 15  1  0  0  0  0
 16 20  2  0  0  0  0
 17 21  2  0  0  0  0
 18 19  1  0  0  0  0
 20 21  1  0  0  0  0
M  END
> <PUBCHEM_COMPOUND_ID_TYPE>
0

> <PUBCHEM_TOTAL_CHARGE>
0

> <PUBCHEM_SUBSTANCE_ID>
310940602

> <PUBCHEM_SUBSTANCE_VERSION>
1

> <PUBCHEM_EXT_DATASOURCE_NAME>
4488

> <PUBCHEM_EXT_DATASOURCE_REGID>
SCHEMBL16118556

> <PUBCHEM_SUBSTANCE_COMMENT>
InChI=1S/C20H30N2O2/c1-20(2,3)16-7-5-4-6-15(16)14-9-12-22(13-10-14)19(24)18-17(23)8-11-21-18/h4-7,14,17-18,21,23H,8-13H2,1-3H3/t17-,18-/m0/s1
InChIKey=DUZBNAUEYWFOBN-ROUUACIJSA-N

> <PUBCHEM_SUBSTANCE_SYNONYM>
SCHEMBL16118556

> <PUBCHEM_XREF_EXT_ID>
SCHEMBL16118556

> <PUBCHEM_EXT_DATASOURCE_URL>
https://www.surechembl.org/

> <PUBCHEM_EXT_SUBSTANCE_URL>
https://www.surechembl.org/chemical/SCHEMBL16118556

> <PUBCHEM_CID_ASSOCIATIONS>
117607589  1

> <PUBCHEM_COORDINATE_TYPE>
1
3

> <PUBCHEM_BONDANNOTATIONS>
11  2  6
9  8  5

$$$$
