310948791
  -OEChem-07211613022D

 60 62  0     1  0  0  0  0  0999 V2000
   -2.1183    0.7267    0.0000 O   0  0  0  0  0  0  0  0  0  0  0  0
   -2.2339   -0.7762    0.0000 O   0  0  0  0  0  0  0  0  0  0  0  0
   -3.5882    2.3948    0.0000 O   0  0  0  0  0  0  0  0  0  0  0  0
   -0.5657    0.6771    0.0000 O   0  0  0  0  0  0  0  0  0  0  0  0
   -3.5882   -0.0991    0.0000 O   0  0  0  0  0  0  0  0  0  0  0  0
    0.2766   -0.7432    0.0000 O   0  0  0  0  0  0  0  0  0  0  0  0
   -0.5493   -2.1966    0.0000 O   0  0  0  0  0  0  0  0  0  0  0  0
   -5.0416    0.7267    0.0000 O   0  0  0  0  0  0  0  0  0  0  0  0
   -2.0687    2.3948    0.0000 O   0  0  0  0  0  0  0  0  0  0  0  0
   -1.8044   -2.9234    0.0000 O   0  0  0  0  0  0  0  0  0  0  0  0
   -5.0416    3.2207    0.0000 O   0  0  0  0  0  0  0  0  0  0  0  0
    0.6730   -0.0165    0.0000 O   0  0  0  0  0  0  0  0  0  0  0  0
   -4.9920   -0.1486    0.0000 O   0  0  0  0  0  0  0  0  0  0  0  0
    0.2766   -2.1636    0.0000 O   0  0  0  0  0  0  0  0  0  0  0  0
   -1.7053   -3.0059    0.0000 O   0  0  0  0  0  0  0  0  0  0  0  0
   -5.7683    1.9158    0.0000 O   0  0  0  0  0  0  0  0  0  0  0  0
    0.2435    1.8828    0.0000 O   0  0  0  0  0  0  0  0  0  0  0  0
   -2.9441   -3.7491    0.0000 O   0  0  0  0  0  0  0  0  0  0  0  0
   -5.7683    4.3602    0.0000 O   0  0  0  0  0  0  0  0  0  0  0  0
    3.6114    1.0130    0.0000 O   0  0  0  0  0  0  0  0  0  0  0  0
    2.9344    2.1295    0.0000 O   0  0  0  0  0  0  0  0  0  0  0  0
    2.4236    2.2957    0.0000 N   0  0  0  0  0  0  0  0  0  0  0  0
   -2.8615    1.1561    0.0000 C   0  0  3  0  0  0  0  0  0  0  0  0
   -1.8210   -0.0330    0.0000 C   0  0  3  0  0  0  0  0  0  0  0  0
   -0.9952   -0.0330    0.0000 C   0  0  3  0  0  0  0  0  0  0  0  0
   -3.5882    0.7432    0.0000 C   0  0  3  0  0  0  0  0  0  0  0  0
   -0.5657   -0.7432    0.0000 C   0  0  3  0  0  0  0  0  0  0  0  0
   -0.9787   -1.4699    0.0000 C   0  0  3  0  0  0  0  0  0  0  0  0
   -4.3149    1.1561    0.0000 C   0  0  3  0  0  0  0  0  0  0  0  0
   -2.8615    1.9819    0.0000 C   0  0  3  0  0  0  0  0  0  0  0  0
   -1.8210   -1.4699    0.0000 C   0  0  3  0  0  0  0  0  0  0  0  0
   -4.2984    1.9984    0.0000 C   0  0  3  0  0  0  0  0  0  0  0  0
   -2.2174   -2.2131    0.0000 C   0  0  0  0  0  0  0  0  0  0  0  0
   -5.0251    2.3783    0.0000 C   0  0  0  0  0  0  0  0  0  0  0  0
    0.2930    0.6607    0.0000 C   0  0  0  0  0  0  0  0  0  0  0  0
   -4.3149   -0.5285    0.0000 C   0  0  0  0  0  0  0  0  0  0  0  0
    0.6730   -1.5030    0.0000 C   0  0  0  0  0  0  0  0  0  0  0  0
   -0.9291   -2.9564    0.0000 C   0  0  0  0  0  0  0  0  0  0  0  0
   -5.7683    1.1396    0.0000 C   0  0  0  0  0  0  0  0  0  0  0  0
   -1.1438    1.8993    0.0000 C   0  0  0  0  0  0  0  0  0  0  0  0
   -2.1678   -3.6996    0.0000 C   0  0  0  0  0  0  0  0  0  0  0  0
    0.6894    1.3543    0.0000 C   0  0  0  0  0  0  0  0  0  0  0  0
   -4.2819   -1.3543    0.0000 C   0  0  0  0  0  0  0  0  0  0  0  0
   -5.7518    3.6005    0.0000 C   0  0  0  0  0  0  0  0  0  0  0  0
    1.4988   -1.5030    0.0000 C   0  0  0  0  0  0  0  0  0  0  0  0
   -0.4832   -3.6335    0.0000 C   0  0  0  0  0  0  0  0  0  0  0  0
   -6.4620    0.7267    0.0000 C   0  0  0  0  0  0  0  0  0  0  0  0
   -0.5162    2.2957    0.0000 C   0  0  0  0  0  0  0  0  0  0  0  0
   -1.7053   -4.3602    0.0000 C   0  0  0  0  0  0  0  0  0  0  0  0
   -6.4289    3.1876    0.0000 C   0  0  0  0  0  0  0  0  0  0  0  0
    0.9372    2.2957    0.0000 C   0  0  0  0  0  0  0  0  0  0  0  0
    1.6970    1.8993    0.0000 C   0  0  0  0  0  0  0  0  0  0  0  0
    2.9462    1.4168    0.0000 C   0  0  0  0  0  0  0  0  0  0  0  0
    5.0486    0.9892    0.0000 C   0  0  0  0  0  0  0  0  0  0  0  0
    4.3597    1.4405    0.0000 C   0  0  0  0  0  0  0  0  0  0  0  0
    5.0486    0.1697    0.0000 C   0  0  0  0  0  0  0  0  0  0  0  0
    5.7494    1.4050    0.0000 C   0  0  0  0  0  0  0  0  0  0  0  0
    5.7494   -0.2341    0.0000 C   0  0  0  0  0  0  0  0  0  0  0  0
    6.4620    1.0011    0.0000 C   0  0  0  0  0  0  0  0  0  0  0  0
    6.4620    0.1816    0.0000 C   0  0  0  0  0  0  0  0  0  0  0  0
 23  1  1  1  0  0  0
 24  1  1  6  0  0  0
  2 24  1  0  0  0  0
  2 31  1  0  0  0  0
  3 30  1  0  0  0  0
  3 32  1  0  0  0  0
 25  4  1  1  0  0  0
  4 35  1  0  0  0  0
 26  5  1  1  0  0  0
  5 36  1  0  0  0  0
 27  6  1  1  0  0  0
  6 37  1  0  0  0  0
 28  7  1  6  0  0  0
  7 38  1  0  0  0  0
 29  8  1  6  0  0  0
  8 39  1  0  0  0  0
 30  9  1  6  0  0  0
  9 40  1  0  0  0  0
 10 33  1  0  0  0  0
 10 41  1  0  0  0  0
 11 34  1  0  0  0  0
 11 44  1  0  0  0  0
 12 35  2  0  0  0  0
 13 36  2  0  0  0  0
 14 37  2  0  0  0  0
 15 38  2  0  0  0  0
 16 39  2  0  0  0  0
 17 48  1  0  0  0  0
 17 51  1  0  0  0  0
 18 41  2  0  0  0  0
 19 44  2  0  0  0  0
 20 53  1  0  0  0  0
 20 55  1  0  0  0  0
 21 53  2  0  0  0  0
 22 52  1  0  0  0  0
 22 53  1  0  0  0  0
 23 26  1  0  0  0  0
 23 30  1  0  0  0  0
 24 25  1  0  0  0  0
 25 27  1  0  0  0  0
 26 29  1  0  0  0  0
 27 28  1  0  0  0  0
 28 31  1  0  0  0  0
 29 32  1  0  0  0  0
 31 33  1  1  0  0  0
 32 34  1  6  0  0  0
 35 42  1  0  0  0  0
 36 43  1  0  0  0  0
 37 45  1  0  0  0  0
 38 46  1  0  0  0  0
 39 47  1  0  0  0  0
 40 48  1  0  0  0  0
 41 49  1  0  0  0  0
 44 50  1  0  0  0  0
 51 52  1  0  0  0  0
 54 55  1  0  0  0  0
 54 56  2  0  0  0  0
 54 57  1  0  0  0  0
 56 58  1  0  0  0  0
 57 59  2  0  0  0  0
 58 60  2  0  0  0  0
 59 60  1  0  0  0  0
M  END
> <PUBCHEM_COMPOUND_ID_TYPE>
0

> <PUBCHEM_TOTAL_CHARGE>
0

> <PUBCHEM_SUBSTANCE_ID>
310948791

> <PUBCHEM_SUBSTANCE_VERSION>
1

> <PUBCHEM_EXT_DATASOURCE_NAME>
4488

> <PUBCHEM_EXT_DATASOURCE_REGID>
SCHEMBL16126975

> <PUBCHEM_SUBSTANCE_COMMENT>
InChI=1S/C38H51NO21/c1-20(40)50-18-28-30(53-22(3)42)32(55-24(5)44)34(36(58-28)49-16-15-48-14-13-39-38(47)52-17-27-11-9-8-10-12-27)60-37-35(57-26(7)46)33(56-25(6)45)31(54-23(4)43)29(59-37)19-51-21(2)41/h8-12,28-37H,13-19H2,1-7H3,(H,39,47)/t28-,29+,30+,31+,32-,33-,34-,35-,36-,37+/m0/s1
InChIKey=SCNMAZXQNSFWID-MYTSXGMESA-N

> <PUBCHEM_SUBSTANCE_SYNONYM>
SCHEMBL16126975

> <PUBCHEM_XREF_EXT_ID>
SCHEMBL16126975

> <PUBCHEM_EXT_DATASOURCE_URL>
https://www.surechembl.org/

> <PUBCHEM_EXT_SUBSTANCE_URL>
https://www.surechembl.org/chemical/SCHEMBL16126975

> <PUBCHEM_CID_ASSOCIATIONS>
117614330  1

> <PUBCHEM_COORDINATE_TYPE>
1
3

> <PUBCHEM_BONDANNOTATIONS>
23  1  5
24  1  6
31  33  5
32  34  6
25  4  5
26  5  5
27  6  5
28  7  6
29  8  6
30  9  6

$$$$
