310942593
  -OEChem-07211613022D

 44 49  0     1  0  0  0  0  0999 V2000
    1.7668    0.6830    0.0000 O   0  0  0  0  0  0  0  0  0  0  0  0
    2.2865   -1.4402    0.0000 O   0  0  0  0  0  0  0  0  0  0  0  0
    1.0690   -1.3659    0.0000 O   0  0  0  0  0  0  0  0  0  0  0  0
    3.1773    0.3414    0.0000 N   0  0  0  0  0  0  0  0  0  0  0  0
    3.8454   -1.0244    0.0000 N   0  0  0  0  0  0  0  0  0  0  0  0
   -0.3266    0.2375    0.0000 N   0  0  3  0  0  0  0  0  0  0  0  0
    5.2707   -0.9354    0.0000 N   0  0  0  0  0  0  0  0  0  0  0  0
    5.8943    0.3860    0.0000 N   0  0  0  0  0  0  0  0  0  0  0  0
   -2.6279   -1.2768    0.0000 N   0  0  0  0  0  0  0  0  0  0  0  0
   -3.2812   -2.4646    0.0000 N   0  0  0  0  0  0  0  0  0  0  0  0
    3.8157   -0.1633    0.0000 C   0  0  0  0  0  0  0  0  0  0  0  0
    4.4838    0.3118    0.0000 C   0  0  0  0  0  0  0  0  0  0  0  0
    2.3755    0.1484    0.0000 C   0  0  3  0  0  0  0  0  0  0  0  0
    4.2611    1.0987    0.0000 C   0  0  0  0  0  0  0  0  0  0  0  0
    2.0490   -0.6235    0.0000 C   0  0  3  0  0  0  0  0  0  0  0  0
    3.4594    1.1284    0.0000 C   0  0  0  0  0  0  0  0  0  0  0  0
    1.0839    0.2821    0.0000 C   0  0  3  0  0  0  0  0  0  0  0  0
    1.2620   -0.5493    0.0000 C   0  0  3  0  0  0  0  0  0  0  0  0
    5.2262   -0.0594    0.0000 C   0  0  0  0  0  0  0  0  0  0  0  0
    4.7809    1.7816    0.0000 C   0  0  0  0  0  0  0  0  0  0  0  0
    0.3711    0.6979    0.0000 C   0  0  0  0  0  0  0  0  0  0  0  0
    4.6174   -1.3808    0.0000 C   0  0  0  0  0  0  0  0  0  0  0  0
   -0.5493   -0.5790    0.0000 C   0  0  0  0  0  0  0  0  0  0  0  0
   -0.8018   -1.7074    0.0000 C   0  0  0  0  0  0  0  0  0  0  0  0
   -1.2175   -0.9800    0.0000 C   0  0  0  0  0  0  0  0  0  0  0  0
   -0.1336   -1.2768    0.0000 C   0  0  0  0  0  0  0  0  0  0  0  0
   -1.0393    0.6532    0.0000 C   0  0  0  0  0  0  0  0  0  0  0  0
   -3.4594   -1.1136    0.0000 C   0  0  0  0  0  0  0  0  0  0  0  0
   -3.8306   -1.8262    0.0000 C   0  0  0  0  0  0  0  0  0  0  0  0
    4.4987    2.5389    0.0000 C   0  0  0  0  0  0  0  0  0  0  0  0
    5.5974    1.6332    0.0000 C   0  0  0  0  0  0  0  0  0  0  0  0
   -2.5538   -2.1084    0.0000 C   0  0  0  0  0  0  0  0  0  0  0  0
   -4.6769   -0.3860    0.0000 C   0  0  0  0  0  0  0  0  0  0  0  0
   -1.0096   -2.5389    0.0000 C   0  0  0  0  0  0  0  0  0  0  0  0
   -3.8603   -0.3860    0.0000 C   0  0  0  0  0  0  0  0  0  0  0  0
   -1.8559   -2.5241    0.0000 C   0  0  0  0  0  0  0  0  0  0  0  0
   -5.0777    0.3414    0.0000 C   0  0  0  0  0  0  0  0  0  0  0  0
   -4.6324   -1.8410    0.0000 C   0  0  0  0  0  0  0  0  0  0  0  0
   -5.0629   -1.1284    0.0000 C   0  0  0  0  0  0  0  0  0  0  0  0
   -1.0393    1.4847    0.0000 C   0  0  0  0  0  0  0  0  0  0  0  0
   -1.7074    0.2375    0.0000 C   0  0  0  0  0  0  0  0  0  0  0  0
   -5.8943    0.3118    0.0000 C   0  0  0  0  0  0  0  0  0  0  0  0
   -5.4786    1.0541    0.0000 C   0  0  0  0  0  0  0  0  0  0  0  0
   -4.6621    1.0541    0.0000 C   0  0  0  0  0  0  0  0  0  0  0  0
 13  1  1  1  0  0  0
  1 17  1  0  0  0  0
 15  2  1  6  0  0  0
 18  3  1  6  0  0  0
  4 11  1  0  0  0  0
  4 13  1  0  0  0  0
  4 16  1  0  0  0  0
  5 11  1  0  0  0  0
  5 22  2  0  0  0  0
  6 21  1  0  0  0  0
 23  6  1  1  0  0  0
  6 27  1  0  0  0  0
  7 19  2  0  0  0  0
  7 22  1  0  0  0  0
  8 19  1  0  0  0  0
  9 28  1  0  0  0  0
  9 32  2  0  0  0  0
 10 29  1  0  0  0  0
 10 32  1  0  0  0  0
 11 12  2  0  0  0  0
 12 14  1  0  0  0  0
 12 19  1  0  0  0  0
 13 15  1  0  0  0  0
 14 16  2  0  0  0  0
 14 20  1  0  0  0  0
 15 18  1  0  0  0  0
 17 18  1  0  0  0  0
 17 21  1  1  0  0  0
 20 30  1  0  0  0  0
 20 31  1  0  0  0  0
 23 25  1  0  0  0  0
 23 26  1  0  0  0  0
 24 25  1  0  0  0  0
 24 26  1  0  0  0  0
 24 34  1  6  0  0  0
 27 40  1  0  0  0  0
 27 41  1  0  0  0  0
 28 29  2  0  0  0  0
 28 35  1  0  0  0  0
 29 38  1  0  0  0  0
 32 36  1  0  0  0  0
 33 35  2  0  0  0  0
 33 37  1  0  0  0  0
 33 39  1  0  0  0  0
 34 36  1  0  0  0  0
 37 42  1  0  0  0  0
 37 43  1  0  0  0  0
 37 44  1  0  0  0  0
 38 39  2  0  0  0  0
M  END
> <PUBCHEM_COMPOUND_ID_TYPE>
0

> <PUBCHEM_TOTAL_CHARGE>
0

> <PUBCHEM_SUBSTANCE_ID>
310942593

> <PUBCHEM_SUBSTANCE_VERSION>
1

> <PUBCHEM_EXT_DATASOURCE_NAME>
4488

> <PUBCHEM_EXT_DATASOURCE_REGID>
SCHEMBL16120638

> <PUBCHEM_SUBSTANCE_COMMENT>
InChI=1S/C34H49N7O3/c1-18(2)23-15-41(32-28(23)31(35)36-17-37-32)33-30(43)29(42)26(44-33)16-40(19(3)4)22-12-20(13-22)8-11-27-38-24-10-9-21(34(5,6)7)14-25(24)39-27/h9-10,14-15,17-20,22,26,29-30,33,42-43H,8,11-13,16H2,1-7H3,(H,38,39)(H2,35,36,37)/t20-,22-,26-,29-,30-,33-/m1/s1
InChIKey=OFPWJRPECMLVFQ-BUYZVADRSA-N

> <PUBCHEM_SUBSTANCE_SYNONYM>
SCHEMBL16120638

> <PUBCHEM_XREF_EXT_ID>
SCHEMBL16120638

> <PUBCHEM_EXT_DATASOURCE_URL>
https://www.surechembl.org/

> <PUBCHEM_EXT_SUBSTANCE_URL>
https://www.surechembl.org/chemical/SCHEMBL16120638

> <PUBCHEM_CID_ASSOCIATIONS>
86272338  1

> <PUBCHEM_COORDINATE_TYPE>
1
3

> <PUBCHEM_BONDANNOTATIONS>
13  1  5
17  21  5
15  2  6
24  34  6
18  3  6
23  6  5

$$$$
