310942164
  -OEChem-07211613022D

 22 23  0     1  0  0  0  0  0999 V2000
    0.3688   -1.0437    0.0000 F   0  0  0  0  0  0  0  0  0  0  0  0
    1.8061    1.4561    0.0000 F   0  0  0  0  0  0  0  0  0  0  0  0
    1.7936   -0.2188    0.0000 O   0  0  0  0  0  0  0  0  0  0  0  0
   -3.9810   -0.2188    0.0000 O   0  0  0  0  0  0  0  0  0  0  0  0
   -1.7936    0.2063    0.0000 N   0  0  0  0  0  0  0  0  0  0  0  0
    1.0812    0.2063    0.0000 C   0  0  0  0  0  0  0  0  0  0  0  0
    0.3688   -0.2063    0.0000 C   0  0  0  0  0  0  0  0  0  0  0  0
   -0.3563    0.2063    0.0000 C   0  0  0  0  0  0  0  0  0  0  0  0
    1.0937    1.0437    0.0000 C   0  0  0  0  0  0  0  0  0  0  0  0
   -1.0687   -0.2188    0.0000 C   0  0  3  0  0  0  0  0  0  0  0  0
   -0.3438    1.0312    0.0000 C   0  0  0  0  0  0  0  0  0  0  0  0
    0.3813    1.4437    0.0000 C   0  0  0  0  0  0  0  0  0  0  0  0
    2.5311    0.2063    0.0000 C   0  0  0  0  0  0  0  0  0  0  0  0
   -1.0812   -1.0437    0.0000 C   0  0  0  0  0  0  0  0  0  0  0  0
    3.2686   -0.2063    0.0000 C   0  0  0  0  0  0  0  0  0  0  0  0
    2.5436    1.0312    0.0000 C   0  0  0  0  0  0  0  0  0  0  0  0
   -2.5061   -0.2063    0.0000 C   0  0  0  0  0  0  0  0  0  0  0  0
    3.9810    0.2063    0.0000 C   0  0  0  0  0  0  0  0  0  0  0  0
    3.2686    1.4437    0.0000 C   0  0  0  0  0  0  0  0  0  0  0  0
    3.9810    1.0312    0.0000 C   0  0  0  0  0  0  0  0  0  0  0  0
   -1.7811   -1.4561    0.0000 C   0  0  0  0  0  0  0  0  0  0  0  0
   -3.2311    0.2063    0.0000 C   0  0  0  0  0  0  0  0  0  0  0  0
  1  7  1  0  0  0  0
  2  9  1  0  0  0  0
  3  6  1  0  0  0  0
  3 13  1  0  0  0  0
  4 22  1  0  0  0  0
 10  5  1  6  0  0  0
  5 17  1  0  0  0  0
  6  7  1  0  0  0  0
  6  9  2  0  0  0  0
  7  8  2  0  0  0  0
  8 10  1  0  0  0  0
  8 11  1  0  0  0  0
  9 12  1  0  0  0  0
 10 14  1  0  0  0  0
 11 12  2  0  0  0  0
 13 15  2  0  0  0  0
 13 16  1  0  0  0  0
 14 21  1  0  0  0  0
 15 18  1  0  0  0  0
 16 19  2  0  0  0  0
 17 22  1  0  0  0  0
 18 20  2  0  0  0  0
 19 20  1  0  0  0  0
M  END
> <PUBCHEM_COMPOUND_ID_TYPE>
0

> <PUBCHEM_TOTAL_CHARGE>
0

> <PUBCHEM_SUBSTANCE_ID>
310942164

> <PUBCHEM_SUBSTANCE_VERSION>
1

> <PUBCHEM_EXT_DATASOURCE_NAME>
4488

> <PUBCHEM_EXT_DATASOURCE_REGID>
SCHEMBL16120199

> <PUBCHEM_SUBSTANCE_COMMENT>
InChI=1S/C17H19F2NO2/c1-2-15(20-10-11-21)13-8-9-14(18)17(16(13)19)22-12-6-4-3-5-7-12/h3-9,15,20-21H,2,10-11H2,1H3/t15-/m0/s1
InChIKey=KLIILEXLEMEHMY-HNNXBMFYSA-N

> <PUBCHEM_SUBSTANCE_SYNONYM>
SCHEMBL16120199

> <PUBCHEM_XREF_EXT_ID>
SCHEMBL16120199

> <PUBCHEM_EXT_DATASOURCE_URL>
https://www.surechembl.org/

> <PUBCHEM_EXT_SUBSTANCE_URL>
https://www.surechembl.org/chemical/SCHEMBL16120199

> <PUBCHEM_CID_ASSOCIATIONS>
117608818  1

> <PUBCHEM_COORDINATE_TYPE>
1
3

> <PUBCHEM_BONDANNOTATIONS>
10  5  6

$$$$
