310934435
  -OEChem-07211613022D

 24 27  0     0  0  0  0  0  0999 V2000
    4.3546   -0.4815    0.0000 S   0  0  0  0  0  0  0  0  0  0  0  0
    1.4864   -0.2931    0.0000 O   0  0  0  0  0  0  0  0  0  0  0  0
    0.0000   -0.9630    0.0000 O   0  0  0  0  0  0  0  0  0  0  0  0
    2.0726   -2.4076    0.0000 N   0  0  0  0  0  0  0  0  0  0  0  0
    2.8682   -2.6798    0.0000 N   0  0  0  0  0  0  0  0  0  0  0  0
    0.6699   -1.4446    0.0000 N   0  0  0  0  0  0  0  0  0  0  0  0
    3.3497   -1.9889    0.0000 C   0  0  0  0  0  0  0  0  0  0  0  0
    4.1662   -1.9889    0.0000 C   0  0  0  0  0  0  0  0  0  0  0  0
    2.0726   -1.5911    0.0000 C   0  0  0  0  0  0  0  0  0  0  0  0
    4.5640   -1.2771    0.0000 C   0  0  0  0  0  0  0  0  0  0  0  0
    2.8682   -1.3190    0.0000 C   0  0  0  0  0  0  0  0  0  0  0  0
    1.4027   -2.8892    0.0000 C   0  0  0  0  0  0  0  0  0  0  0  0
    5.4223   -1.2771    0.0000 C   0  0  0  0  0  0  0  0  0  0  0  0
    1.4027   -1.1096    0.0000 C   0  0  0  0  0  0  0  0  0  0  0  0
    4.5431   -2.6798    0.0000 C   0  0  0  0  0  0  0  0  0  0  0  0
    5.8201   -2.0098    0.0000 C   0  0  0  0  0  0  0  0  0  0  0  0
    5.6736   -0.5024    0.0000 C   0  0  0  0  0  0  0  0  0  0  0  0
    5.4014   -2.7007    0.0000 C   0  0  0  0  0  0  0  0  0  0  0  0
    5.0037    0.0000    0.0000 C   0  0  0  0  0  0  0  0  0  0  0  0
    1.4864   -3.7266    0.0000 C   0  0  0  0  0  0  0  0  0  0  0  0
    0.6699   -2.5541    0.0000 C   0  0  0  0  0  0  0  0  0  0  0  0
    0.8374   -4.1871    0.0000 C   0  0  0  0  0  0  0  0  0  0  0  0
    0.0000   -3.0147    0.0000 C   0  0  0  0  0  0  0  0  0  0  0  0
    0.0628   -3.8522    0.0000 C   0  0  0  0  0  0  0  0  0  0  0  0
  1 10  1  0  0  0  0
  1 19  1  0  0  0  0
  2 14  2  0  0  0  0
  3  6  1  0  0  0  0
  4  5  1  0  0  0  0
  4  9  1  0  0  0  0
  4 12  1  0  0  0  0
  5  7  2  0  0  0  0
  6 14  1  0  0  0  0
  7  8  1  0  0  0  0
  7 11  1  0  0  0  0
  8 10  1  0  0  0  0
  8 15  2  0  0  0  0
  9 11  2  0  0  0  0
  9 14  1  0  0  0  0
 10 13  2  0  0  0  0
 12 20  2  0  0  0  0
 12 21  1  0  0  0  0
 13 16  1  0  0  0  0
 13 17  1  0  0  0  0
 15 18  1  0  0  0  0
 16 18  2  0  0  0  0
 17 19  2  0  0  0  0
 20 22  1  0  0  0  0
 21 23  2  0  0  0  0
 22 24  2  0  0  0  0
 23 24  1  0  0  0  0
M  END
> <PUBCHEM_COMPOUND_ID_TYPE>
0

> <PUBCHEM_TOTAL_CHARGE>
0

> <PUBCHEM_SUBSTANCE_ID>
310934435

> <PUBCHEM_SUBSTANCE_VERSION>
1

> <PUBCHEM_EXT_DATASOURCE_NAME>
4488

> <PUBCHEM_EXT_DATASOURCE_REGID>
SCHEMBL16111912

> <PUBCHEM_SUBSTANCE_COMMENT>
InChI=1S/C18H13N3O2S/c22-18(20-23)16-11-15(19-21(16)13-6-2-1-3-7-13)14-8-4-5-12-9-10-24-17(12)14/h1-11,23H,(H,20,22)
InChIKey=OYRFBDZKQFEJSC-UHFFFAOYSA-N

> <PUBCHEM_SUBSTANCE_SYNONYM>
SCHEMBL16111912

> <PUBCHEM_XREF_EXT_ID>
SCHEMBL16111912

> <PUBCHEM_EXT_DATASOURCE_URL>
https://www.surechembl.org/

> <PUBCHEM_EXT_SUBSTANCE_URL>
https://www.surechembl.org/chemical/SCHEMBL16111912

> <PUBCHEM_CID_ASSOCIATIONS>
78425879  1

> <PUBCHEM_COORDINATE_TYPE>
1
3

$$$$
