310944371
  -OEChem-07211613022D

 24 27  0     0  0  0  0  0  0999 V2000
    0.5202    1.3604    0.0000 F   0  0  0  0  0  0  0  0  0  0  0  0
   -1.0323    0.3681    0.0000 N   0  0  0  0  0  0  0  0  0  0  0  0
    0.5042   -2.7528    0.0000 N   0  0  0  0  0  0  0  0  0  0  0  0
    2.6968    0.8962    0.0000 N   0  0  0  0  0  0  0  0  0  0  0  0
   -0.2321    0.1281    0.0000 C   0  0  0  0  0  0  0  0  0  0  0  0
   -0.2481   -0.6723    0.0000 C   0  0  0  0  0  0  0  0  0  0  0  0
   -1.0483   -0.9282    0.0000 C   0  0  0  0  0  0  0  0  0  0  0  0
   -1.5445   -0.2881    0.0000 C   0  0  0  0  0  0  0  0  0  0  0  0
    0.4882    0.5442    0.0000 C   0  0  0  0  0  0  0  0  0  0  0  0
    0.5202   -1.0883    0.0000 C   0  0  0  0  0  0  0  0  0  0  0  0
   -1.3044    1.1844    0.0000 C   0  0  0  0  0  0  0  0  0  0  0  0
    1.2404    0.1281    0.0000 C   0  0  0  0  0  0  0  0  0  0  0  0
    1.2404   -0.6882    0.0000 C   0  0  0  0  0  0  0  0  0  0  0  0
   -1.4004   -1.6805    0.0000 C   0  0  0  0  0  0  0  0  0  0  0  0
   -2.3446   -0.3681    0.0000 C   0  0  0  0  0  0  0  0  0  0  0  0
    0.5042   -1.9366    0.0000 C   0  0  0  0  0  0  0  0  0  0  0  0
   -0.7442    1.7926    0.0000 C   0  0  0  0  0  0  0  0  0  0  0  0
   -2.1046    1.3604    0.0000 C   0  0  0  0  0  0  0  0  0  0  0  0
   -2.2167   -1.7605    0.0000 C   0  0  0  0  0  0  0  0  0  0  0  0
   -2.6968   -1.1043    0.0000 C   0  0  0  0  0  0  0  0  0  0  0  0
    1.9766    0.5282    0.0000 C   0  0  0  0  0  0  0  0  0  0  0  0
   -1.0163    2.5767    0.0000 C   0  0  0  0  0  0  0  0  0  0  0  0
   -2.3606    2.1447    0.0000 C   0  0  0  0  0  0  0  0  0  0  0  0
   -1.8005    2.7528    0.0000 C   0  0  0  0  0  0  0  0  0  0  0  0
  1  9  1  0  0  0  0
  2  5  1  0  0  0  0
  2  8  1  0  0  0  0
  2 11  1  0  0  0  0
  3 16  3  0  0  0  0
  4 21  3  0  0  0  0
  5  6  2  0  0  0  0
  5  9  1  0  0  0  0
  6  7  1  0  0  0  0
  6 10  1  0  0  0  0
  7  8  2  0  0  0  0
  7 14  1  0  0  0  0
  8 15  1  0  0  0  0
  9 12  2  0  0  0  0
 10 13  2  0  0  0  0
 10 16  1  0  0  0  0
 11 17  2  0  0  0  0
 11 18  1  0  0  0  0
 12 13  1  0  0  0  0
 12 21  1  0  0  0  0
 14 19  2  0  0  0  0
 15 20  2  0  0  0  0
 17 22  1  0  0  0  0
 18 23  2  0  0  0  0
 19 20  1  0  0  0  0
 22 24  2  0  0  0  0
 23 24  1  0  0  0  0
M  END
> <PUBCHEM_COMPOUND_ID_TYPE>
0

> <PUBCHEM_TOTAL_CHARGE>
0

> <PUBCHEM_SUBSTANCE_ID>
310944371

> <PUBCHEM_SUBSTANCE_VERSION>
1

> <PUBCHEM_EXT_DATASOURCE_NAME>
4488

> <PUBCHEM_EXT_DATASOURCE_REGID>
SCHEMBL16122446

> <PUBCHEM_SUBSTANCE_COMMENT>
InChI=1S/C20H10FN3/c21-19-14(12-23)10-13(11-22)18-16-8-4-5-9-17(16)24(20(18)19)15-6-2-1-3-7-15/h1-10H
InChIKey=KMBXZDTVWBHHAO-UHFFFAOYSA-N

> <PUBCHEM_SUBSTANCE_SYNONYM>
SCHEMBL16122446

> <PUBCHEM_XREF_EXT_ID>
SCHEMBL16122446

> <PUBCHEM_EXT_DATASOURCE_URL>
https://www.surechembl.org/

> <PUBCHEM_EXT_SUBSTANCE_URL>
https://www.surechembl.org/chemical/SCHEMBL16122446

> <PUBCHEM_CID_ASSOCIATIONS>
117610628  1

> <PUBCHEM_COORDINATE_TYPE>
1
3

$$$$
