310940522
  -OEChem-07211613022D

 30 34  0     0  0  0  0  0  0999 V2000
    2.7047   -0.1652    0.0000 O   0  0  0  0  0  0  0  0  0  0  0  0
   -1.4659   -0.3441    0.0000 O   0  0  0  0  0  0  0  0  0  0  0  0
   -2.7598   -2.2711    0.0000 O   0  0  0  0  0  0  0  0  0  0  0  0
    2.7598    1.3076    0.0000 O   0  0  0  0  0  0  0  0  0  0  0  0
    1.5485    0.4955    0.0000 N   0  0  0  0  0  0  0  0  0  0  0  0
    1.3971   -1.9958    0.0000 N   0  0  0  0  0  0  0  0  0  0  0  0
   -2.3606   -3.0006    0.0000 N   0  0  0  0  0  0  0  0  0  0  0  0
    0.3234    3.0695    0.0000 N   0  0  0  0  0  0  0  0  0  0  0  0
    1.3834   -0.3579    0.0000 C   0  0  0  0  0  0  0  0  0  0  0  0
    0.6813   -0.7708    0.0000 C   0  0  0  0  0  0  0  0  0  0  0  0
    2.0991   -0.7571    0.0000 C   0  0  0  0  0  0  0  0  0  0  0  0
    0.6676   -1.5966    0.0000 C   0  0  0  0  0  0  0  0  0  0  0  0
   -0.7502   -1.6105    0.0000 C   0  0  0  0  0  0  0  0  0  0  0  0
   -0.7364   -0.7845    0.0000 C   0  0  0  0  0  0  0  0  0  0  0  0
    2.3468    0.5368    0.0000 C   0  0  0  0  0  0  0  0  0  0  0  0
   -0.0344   -0.3854    0.0000 C   0  0  0  0  0  0  0  0  0  0  0  0
   -0.0344   -2.0096    0.0000 C   0  0  0  0  0  0  0  0  0  0  0  0
   -1.4659   -2.0234    0.0000 C   0  0  0  0  0  0  0  0  0  0  0  0
    2.0991   -1.5966    0.0000 C   0  0  0  0  0  0  0  0  0  0  0  0
    0.8740    0.9222    0.0000 C   0  0  0  0  0  0  0  0  0  0  0  0
   -2.2092   -1.6792    0.0000 C   0  0  0  0  0  0  0  0  0  0  0  0
   -1.5485   -2.8492    0.0000 C   0  0  0  0  0  0  0  0  0  0  0  0
    0.9291    1.7481    0.0000 C   0  0  0  0  0  0  0  0  0  0  0  0
   -2.3744   -0.8671    0.0000 C   0  0  0  0  0  0  0  0  0  0  0  0
   -0.9291   -3.3998    0.0000 C   0  0  0  0  0  0  0  0  0  0  0  0
    0.2684    2.2161    0.0000 C   0  0  0  0  0  0  0  0  0  0  0  0
    1.6724    2.1060    0.0000 C   0  0  0  0  0  0  0  0  0  0  0  0
   -1.4659    0.4680    0.0000 C   0  0  0  0  0  0  0  0  0  0  0  0
    1.7274    2.9318    0.0000 C   0  0  0  0  0  0  0  0  0  0  0  0
    1.0529    3.3998    0.0000 C   0  0  0  0  0  0  0  0  0  0  0  0
  1 11  1  0  0  0  0
  1 15  1  0  0  0  0
  2 14  1  0  0  0  0
  2 28  1  0  0  0  0
  3  7  1  0  0  0  0
  3 21  1  0  0  0  0
  4 15  2  0  0  0  0
  5  9  1  0  0  0  0
  5 15  1  0  0  0  0
  5 20  1  0  0  0  0
  6 12  1  0  0  0  0
  6 19  2  0  0  0  0
  7 22  2  0  0  0  0
  8 26  1  0  0  0  0
  8 30  2  0  0  0  0
  9 10  1  0  0  0  0
  9 11  2  0  0  0  0
 10 12  1  0  0  0  0
 10 16  2  0  0  0  0
 11 19  1  0  0  0  0
 12 17  2  0  0  0  0
 13 14  2  0  0  0  0
 13 17  1  0  0  0  0
 13 18  1  0  0  0  0
 14 16  1  0  0  0  0
 18 21  2  0  0  0  0
 18 22  1  0  0  0  0
 20 23  1  0  0  0  0
 21 24  1  0  0  0  0
 22 25  1  0  0  0  0
 23 26  2  0  0  0  0
 23 27  1  0  0  0  0
 27 29  2  0  0  0  0
 29 30  1  0  0  0  0
M  END
> <PUBCHEM_COMPOUND_ID_TYPE>
0

> <PUBCHEM_TOTAL_CHARGE>
0

> <PUBCHEM_SUBSTANCE_ID>
310940522

> <PUBCHEM_SUBSTANCE_VERSION>
1

> <PUBCHEM_EXT_DATASOURCE_NAME>
4488

> <PUBCHEM_EXT_DATASOURCE_REGID>
SCHEMBL16118476

> <PUBCHEM_SUBSTANCE_COMMENT>
InChI=1S/C22H18N4O4/c1-12-20(13(2)30-25-12)16-7-17-15(8-18(16)28-3)21-19(10-24-17)29-22(27)26(21)11-14-5-4-6-23-9-14/h4-10H,11H2,1-3H3
InChIKey=FRBVWDPMTVQZIO-UHFFFAOYSA-N

> <PUBCHEM_SUBSTANCE_SYNONYM>
SCHEMBL16118476

> <PUBCHEM_XREF_EXT_ID>
SCHEMBL16118476

> <PUBCHEM_EXT_DATASOURCE_URL>
https://www.surechembl.org/

> <PUBCHEM_EXT_SUBSTANCE_URL>
https://www.surechembl.org/chemical/SCHEMBL16118476

> <PUBCHEM_CID_ASSOCIATIONS>
86302790  1

> <PUBCHEM_COORDINATE_TYPE>
1
3

$$$$
