310949235
  -OEChem-07211613022D

 31 35  0     0  0  0  0  0  0999 V2000
    0.2098    1.4120    0.0000 F   0  0  0  0  0  0  0  0  0  0  0  0
   -0.2743    2.5578    0.0000 F   0  0  0  0  0  0  0  0  0  0  0  0
    0.8714    3.0258    0.0000 F   0  0  0  0  0  0  0  0  0  0  0  0
    0.7746   -0.2501    0.0000 F   0  0  0  0  0  0  0  0  0  0  0  0
    3.6471   -0.2663    0.0000 F   0  0  0  0  0  0  0  0  0  0  0  0
   -1.1780   -0.5890    0.0000 N   0  0  0  0  0  0  0  0  0  0  0  0
    1.4846    1.0086    0.0000 C   0  0  0  0  0  0  0  0  0  0  0  0
   -1.9849   -0.3147    0.0000 C   0  0  0  0  0  0  0  0  0  0  0  0
   -1.1942   -1.4120    0.0000 C   0  0  0  0  0  0  0  0  0  0  0  0
   -1.9365   -1.6541    0.0000 C   0  0  0  0  0  0  0  0  0  0  0  0
   -2.5014   -0.9924    0.0000 C   0  0  0  0  0  0  0  0  0  0  0  0
    2.1947    0.6052    0.0000 C   0  0  0  0  0  0  0  0  0  0  0  0
    1.4685    1.8316    0.0000 C   0  0  0  0  0  0  0  0  0  0  0  0
    2.1786   -0.2501    0.0000 C   0  0  0  0  0  0  0  0  0  0  0  0
    0.5326    2.2351    0.0000 C   0  0  0  0  0  0  0  0  0  0  0  0
   -2.3561    0.4276    0.0000 C   0  0  0  0  0  0  0  0  0  0  0  0
   -0.5487   -1.9446    0.0000 C   0  0  0  0  0  0  0  0  0  0  0  0
    2.9048    1.0086    0.0000 C   0  0  0  0  0  0  0  0  0  0  0  0
    2.1625    2.2351    0.0000 C   0  0  0  0  0  0  0  0  0  0  0  0
   -2.0979   -2.4933    0.0000 C   0  0  0  0  0  0  0  0  0  0  0  0
   -3.2920   -0.9118    0.0000 C   0  0  0  0  0  0  0  0  0  0  0  0
    1.4846   -0.6536    0.0000 C   0  0  0  0  0  0  0  0  0  0  0  0
    2.9048   -0.6536    0.0000 C   0  0  0  0  0  0  0  0  0  0  0  0
    2.9048    1.8155    0.0000 C   0  0  0  0  0  0  0  0  0  0  0  0
   -3.1791    0.4922    0.0000 C   0  0  0  0  0  0  0  0  0  0  0  0
   -0.6939   -2.7515    0.0000 C   0  0  0  0  0  0  0  0  0  0  0  0
   -1.4685   -3.0258    0.0000 C   0  0  0  0  0  0  0  0  0  0  0  0
   -3.6471   -0.2017    0.0000 C   0  0  0  0  0  0  0  0  0  0  0  0
    1.4846   -1.5088    0.0000 C   0  0  0  0  0  0  0  0  0  0  0  0
    2.9048   -1.4927    0.0000 C   0  0  0  0  0  0  0  0  0  0  0  0
    2.1947   -1.8962    0.0000 C   0  0  0  0  0  0  0  0  0  0  0  0
  1 15  1  0  0  0  0
  2 15  1  0  0  0  0
  3 15  1  0  0  0  0
  4 22  1  0  0  0  0
  5 23  1  0  0  0  0
  6  7  1  0  0  0  0
  6  8  1  0  0  0  0
  6  9  1  0  0  0  0
  7 12  1  0  0  0  0
  7 13  2  0  0  0  0
  8 11  2  0  0  0  0
  8 16  1  0  0  0  0
  9 10  2  0  0  0  0
  9 17  1  0  0  0  0
 10 11  1  0  0  0  0
 10 20  1  0  0  0  0
 11 21  1  0  0  0  0
 12 14  1  0  0  0  0
 12 18  2  0  0  0  0
 13 15  1  0  0  0  0
 13 19  1  0  0  0  0
 14 22  1  0  0  0  0
 14 23  2  0  0  0  0
 16 25  2  0  0  0  0
 17 26  2  0  0  0  0
 18 24  1  0  0  0  0
 19 24  2  0  0  0  0
 20 27  2  0  0  0  0
 21 28  2  0  0  0  0
 22 29  2  0  0  0  0
 23 30  1  0  0  0  0
 25 28  1  0  0  0  0
 26 27  1  0  0  0  0
 29 31  1  0  0  0  0
 30 31  2  0  0  0  0
M  END
> <PUBCHEM_COMPOUND_ID_TYPE>
0

> <PUBCHEM_TOTAL_CHARGE>
0

> <PUBCHEM_SUBSTANCE_ID>
310949235

> <PUBCHEM_SUBSTANCE_VERSION>
1

> <PUBCHEM_EXT_DATASOURCE_NAME>
4488

> <PUBCHEM_EXT_DATASOURCE_REGID>
SCHEMBL16127425

> <PUBCHEM_SUBSTANCE_COMMENT>
InChI=1S/C25H14F5N/c26-19-11-6-12-20(27)23(19)17-9-5-10-18(25(28,29)30)24(17)31-21-13-3-1-7-15(21)16-8-2-4-14-22(16)31/h1-14H
InChIKey=GRNYTHZENKSBLZ-UHFFFAOYSA-N

> <PUBCHEM_SUBSTANCE_SYNONYM>
SCHEMBL16127425

> <PUBCHEM_XREF_EXT_ID>
SCHEMBL16127425

> <PUBCHEM_EXT_DATASOURCE_URL>
https://www.surechembl.org/

> <PUBCHEM_EXT_SUBSTANCE_URL>
https://www.surechembl.org/chemical/SCHEMBL16127425

> <PUBCHEM_CID_ASSOCIATIONS>
117614723  1

> <PUBCHEM_COORDINATE_TYPE>
1
3

$$$$
