310944284
  -OEChem-07211613022D

 28 30  0     0  0  0  0  0  0999 V2000
   -3.7375   -1.0289    0.0000 Cl  0  0  0  0  0  0  0  0  0  0  0  0
   -0.7252   -1.0289    0.0000 O   0  0  0  0  0  0  0  0  0  0  0  0
    0.7128    1.4503    0.0000 O   0  0  0  0  0  0  0  0  0  0  0  0
    3.5888   -1.8595    0.0000 O   0  0  0  0  0  0  0  0  0  0  0  0
    1.4442    0.2108    0.0000 N   0  0  0  0  0  0  0  0  0  0  0  0
   -0.7128    0.6322    0.0000 N   0  0  0  0  0  0  0  0  0  0  0  0
    2.8946   -0.6075    0.0000 N   0  0  0  0  0  0  0  0  0  0  0  0
   -4.9896    1.4503    0.0000 N   0  0  0  0  0  0  0  0  0  0  0  0
   -2.8450    0.2108    0.0000 C   0  0  0  0  0  0  0  0  0  0  0  0
   -1.4194    0.2231    0.0000 C   0  0  0  0  0  0  0  0  0  0  0  0
   -2.8698   -0.6075    0.0000 C   0  0  0  0  0  0  0  0  0  0  0  0
   -1.4318   -0.6075    0.0000 C   0  0  0  0  0  0  0  0  0  0  0  0
   -2.1260    0.6198    0.0000 C   0  0  0  0  0  0  0  0  0  0  0  0
   -3.5763    0.6322    0.0000 C   0  0  0  0  0  0  0  0  0  0  0  0
   -2.1260   -1.0165    0.0000 C   0  0  0  0  0  0  0  0  0  0  0  0
    0.7128    0.6198    0.0000 C   0  0  0  0  0  0  0  0  0  0  0  0
    0.0186    0.2108    0.0000 C   0  0  0  0  0  0  0  0  0  0  0  0
   -4.2830    0.2108    0.0000 C   0  0  0  0  0  0  0  0  0  0  0  0
   -3.5640    1.4503    0.0000 C   0  0  0  0  0  0  0  0  0  0  0  0
    1.4442   -0.6075    0.0000 C   0  0  0  0  0  0  0  0  0  0  0  0
    2.1632    0.6198    0.0000 C   0  0  0  0  0  0  0  0  0  0  0  0
    2.1756   -1.0289    0.0000 C   0  0  0  0  0  0  0  0  0  0  0  0
    2.8822    0.2108    0.0000 C   0  0  0  0  0  0  0  0  0  0  0  0
    3.6012   -1.0041    0.0000 C   0  0  0  0  0  0  0  0  0  0  0  0
   -5.0019    0.6322    0.0000 C   0  0  0  0  0  0  0  0  0  0  0  0
   -4.2830    1.8595    0.0000 C   0  0  0  0  0  0  0  0  0  0  0  0
    4.3202   -0.6075    0.0000 C   0  0  0  0  0  0  0  0  0  0  0  0
    5.0019   -1.0661    0.0000 C   0  0  0  0  0  0  0  0  0  0  0  0
  1 11  1  0  0  0  0
  2 12  1  0  0  0  0
  3 16  2  0  0  0  0
  4 24  2  0  0  0  0
  5 16  1  0  0  0  0
  5 20  1  0  0  0  0
  5 21  1  0  0  0  0
  6 10  1  0  0  0  0
  6 17  1  0  0  0  0
  7 22  1  0  0  0  0
  7 23  1  0  0  0  0
  7 24  1  0  0  0  0
  8 25  2  0  0  0  0
  8 26  1  0  0  0  0
  9 11  2  0  0  0  0
  9 13  1  0  0  0  0
  9 14  1  0  0  0  0
 10 12  1  0  0  0  0
 10 13  2  0  0  0  0
 11 15  1  0  0  0  0
 12 15  2  0  0  0  0
 14 18  2  0  0  0  0
 14 19  1  0  0  0  0
 16 17  1  0  0  0  0
 18 25  1  0  0  0  0
 19 26  2  0  0  0  0
 20 22  1  0  0  0  0
 21 23  1  0  0  0  0
 24 27  1  0  0  0  0
 27 28  2  0  0  0  0
M  END
> <PUBCHEM_COMPOUND_ID_TYPE>
0

> <PUBCHEM_TOTAL_CHARGE>
0

> <PUBCHEM_SUBSTANCE_ID>
310944284

> <PUBCHEM_SUBSTANCE_VERSION>
1

> <PUBCHEM_EXT_DATASOURCE_NAME>
4488

> <PUBCHEM_EXT_DATASOURCE_REGID>
SCHEMBL16122359

> <PUBCHEM_SUBSTANCE_COMMENT>
InChI=1S/C20H21ClN4O3/c1-2-19(27)24-7-9-25(10-8-24)20(28)13-23-17-11-15(16(21)12-18(17)26)14-3-5-22-6-4-14/h2-6,11-12,23,26H,1,7-10,13H2
InChIKey=MCFHHYUSLLGBQQ-UHFFFAOYSA-N

> <PUBCHEM_SUBSTANCE_SYNONYM>
SCHEMBL16122359

> <PUBCHEM_XREF_EXT_ID>
SCHEMBL16122359

> <PUBCHEM_EXT_DATASOURCE_URL>
https://www.surechembl.org/

> <PUBCHEM_EXT_SUBSTANCE_URL>
https://www.surechembl.org/chemical/SCHEMBL16122359

> <PUBCHEM_CID_ASSOCIATIONS>
117610551  1

> <PUBCHEM_COORDINATE_TYPE>
1
3

$$$$
