310937312
  -OEChem-07211613022D

  9  9  0     1  0  0  0  0  0999 V2000
    0.8581    0.0000    0.0000 O   0  0  0  0  0  0  0  0  0  0  0  0
    1.1375   -1.9358    0.0000 O   0  0  0  0  0  0  0  0  0  0  0  0
    1.8560   -3.9913    0.0000 O   0  0  0  0  0  0  0  0  0  0  0  0
    0.4391   -0.6985    0.0000 C   0  0  3  0  0  0  0  0  0  0  0  0
    0.0000    0.0000    0.0000 C   0  0  0  0  0  0  0  0  0  0  0  0
    0.4391   -1.5167    0.0000 C   0  0  0  0  0  0  0  0  0  0  0  0
    1.1375   -2.7540    0.0000 C   0  0  0  0  0  0  0  0  0  0  0  0
    1.8560   -3.1731    0.0000 C   0  0  3  0  0  0  0  0  0  0  0  0
    2.5744   -2.7540    0.0000 C   0  0  0  0  0  0  0  0  0  0  0  0
  1  4  1  0  0  0  0
  1  5  1  0  0  0  0
  2  6  1  0  0  0  0
  2  7  1  0  0  0  0
  3  8  1  0  0  0  0
  4  5  1  0  0  0  0
  4  6  1  1  0  0  0
  7  8  1  0  0  0  0
  8  9  1  0  0  0  0
M  END
> <PUBCHEM_COMPOUND_ID_TYPE>
0

> <PUBCHEM_TOTAL_CHARGE>
0

> <PUBCHEM_SUBSTANCE_ID>
310937312

> <PUBCHEM_SUBSTANCE_VERSION>
1

> <PUBCHEM_EXT_DATASOURCE_NAME>
4488

> <PUBCHEM_EXT_DATASOURCE_REGID>
SCHEMBL16115060

> <PUBCHEM_SUBSTANCE_COMMENT>
InChI=1S/C6H12O3/c1-5(7)2-8-3-6-4-9-6/h5-7H,2-4H2,1H3/t5?,6-/m0/s1
InChIKey=LHXNVCCLDTYJGT-GDVGLLTNSA-N

> <PUBCHEM_SUBSTANCE_SYNONYM>
SCHEMBL16115060

> <PUBCHEM_XREF_EXT_ID>
SCHEMBL16115060

> <PUBCHEM_EXT_DATASOURCE_URL>
https://www.surechembl.org/

> <PUBCHEM_EXT_SUBSTANCE_URL>
https://www.surechembl.org/chemical/SCHEMBL16115060

> <PUBCHEM_CID_ASSOCIATIONS>
117605095  1

> <PUBCHEM_COORDINATE_TYPE>
1
3

> <PUBCHEM_BONDANNOTATIONS>
4  6  5

$$$$
