310936174
  -OEChem-07211613022D

 36 39  0     1  0  0  0  0  0999 V2000
    4.0961   -1.4010    0.0000 O   0  0  0  0  0  0  0  0  0  0  0  0
    3.5592    2.1548    0.0000 O   0  0  0  0  0  0  0  0  0  0  0  0
   -0.0734   -1.7771    0.0000 O   0  0  0  0  0  0  0  0  0  0  0  0
    1.3556   -1.7771    0.0000 O   0  0  0  0  0  0  0  0  0  0  0  0
    0.6411   -0.5396    0.0000 N   0  0  0  0  0  0  0  0  0  0  0  0
    1.3556    0.6979    0.0000 C   0  0  3  0  0  0  0  0  0  0  0  0
    2.0701    1.1104    0.0000 C   0  0  3  0  0  0  0  0  0  0  0  0
    0.6411    1.1104    0.0000 C   0  0  3  0  0  0  0  0  0  0  0  0
    0.6411    1.9354    0.0000 C   0  0  3  0  0  0  0  0  0  0  0  0
    2.7845    0.6979    0.0000 C   0  0  3  0  0  0  0  0  0  0  0  0
    3.6090    0.7267    0.0000 C   0  0  3  0  0  0  0  0  0  0  0  0
   -0.1435    2.1904    0.0000 C   0  0  0  0  0  0  0  0  0  0  0  0
    2.0701    1.9354    0.0000 C   0  0  0  0  0  0  0  0  0  0  0  0
    1.3556    2.3479    0.0000 C   0  0  0  0  0  0  0  0  0  0  0  0
   -0.1435    0.8555    0.0000 C   0  0  0  0  0  0  0  0  0  0  0  0
    1.3556   -0.1271    0.0000 C   0  0  0  0  0  0  0  0  0  0  0  0
    2.3972   -0.0305    0.0000 C   0  0  0  0  0  0  0  0  0  0  0  0
   -0.6284    1.5229    0.0000 C   0  0  0  0  0  0  0  0  0  0  0  0
    0.5549    2.7559    0.0000 C   0  0  0  0  0  0  0  0  0  0  0  0
    4.0462    0.0271    0.0000 C   0  0  0  0  0  0  0  0  0  0  0  0
    2.7270    1.5209    0.0000 C   0  0  0  0  0  0  0  0  0  0  0  0
   -0.3984    2.9750    0.0000 C   0  0  0  0  0  0  0  0  0  0  0  0
    3.6589   -0.7013    0.0000 C   0  0  3  0  0  0  0  0  0  0  0  0
    3.9963    1.4552    0.0000 C   0  0  0  0  0  0  0  0  0  0  0  0
    2.8344   -0.7301    0.0000 C   0  0  0  0  0  0  0  0  0  0  0  0
    0.1536    3.5881    0.0000 C   0  0  0  0  0  0  0  0  0  0  0  0
   -1.2054    3.1465    0.0000 C   0  0  0  0  0  0  0  0  0  0  0  0
    0.6411   -1.3646    0.0000 C   0  0  0  0  0  0  0  0  0  0  0  0
   -0.1014    4.3727    0.0000 C   0  0  0  0  0  0  0  0  0  0  0  0
   -1.4604    3.9312    0.0000 C   0  0  0  0  0  0  0  0  0  0  0  0
   -0.9083    4.5442    0.0000 C   0  0  0  0  0  0  0  0  0  0  0  0
    1.8859    0.0660    0.0000 H   0  0  0  0  0  0  0  0  0  0  0  0
    2.3522    0.3352    0.0000 H   0  0  0  0  0  0  0  0  0  0  0  0
    0.5549    0.2900    0.0000 H   0  0  0  0  0  0  0  0  0  0  0  0
    4.4335    0.7555    0.0000 H   0  0  0  0  0  0  0  0  0  0  0  0
    3.2716   -1.4298    0.0000 H   0  0  0  0  0  0  0  0  0  0  0  0
 23  1  1  1  0  0  0
  2 24  1  0  0  0  0
  3 28  2  0  0  0  0
  4 28  1  0  0  0  0
  5 16  1  0  0  0  0
  5 28  1  0  0  0  0
  6  7  1  0  0  0  0
  6  8  1  0  0  0  0
  6 16  1  0  0  0  0
  6 32  1  6  0  0  0
  7 10  1  0  0  0  0
  7 13  1  0  0  0  0
  7 33  1  1  0  0  0
  8  9  1  0  0  0  0
  8 15  1  0  0  0  0
  8 34  1  1  0  0  0
  9 12  1  0  0  0  0
  9 14  1  0  0  0  0
  9 19  1  6  0  0  0
 10 11  1  0  0  0  0
 10 17  1  0  0  0  0
 10 21  1  1  0  0  0
 11 20  1  0  0  0  0
 11 24  1  0  0  0  0
 11 35  1  6  0  0  0
 12 18  2  0  0  0  0
 12 22  1  0  0  0  0
 13 14  1  0  0  0  0
 15 18  1  0  0  0  0
 17 25  1  0  0  0  0
 20 23  1  0  0  0  0
 22 26  2  0  0  0  0
 22 27  1  0  0  0  0
 23 25  1  0  0  0  0
 23 36  1  6  0  0  0
 26 29  1  0  0  0  0
 27 30  2  0  0  0  0
 29 31  2  0  0  0  0
 30 31  1  0  0  0  0
M  END
> <PUBCHEM_COMPOUND_ID_TYPE>
0

> <PUBCHEM_TOTAL_CHARGE>
0

> <PUBCHEM_SUBSTANCE_ID>
310936174

> <PUBCHEM_SUBSTANCE_VERSION>
1

> <PUBCHEM_EXT_DATASOURCE_NAME>
4488

> <PUBCHEM_EXT_DATASOURCE_REGID>
SCHEMBL16113784

> <PUBCHEM_SUBSTANCE_COMMENT>
InChI=1S/C26H37NO4/c1-25(12-10-19(29)14-18(25)16-28)23-11-13-26(2)21(17-6-4-3-5-7-17)8-9-22(26)20(23)15-27-24(30)31/h3-8,18-20,22-23,27-29H,9-16H2,1-2H3,(H,30,31)/t18-,19+,20+,22+,23+,25+,26-/m1/s1
InChIKey=HAMWVGGBISCHHY-YGZJGNGNSA-N

> <PUBCHEM_SUBSTANCE_SYNONYM>
SCHEMBL16113784

> <PUBCHEM_XREF_EXT_ID>
SCHEMBL16113784

> <PUBCHEM_EXT_DATASOURCE_URL>
https://www.surechembl.org/

> <PUBCHEM_EXT_SUBSTANCE_URL>
https://www.surechembl.org/chemical/SCHEMBL16113784

> <PUBCHEM_CID_ASSOCIATIONS>
117604130  1

> <PUBCHEM_COORDINATE_TYPE>
1
3

> <PUBCHEM_BONDANNOTATIONS>
23  1  5
10  21  5
11  35  6
23  36  6
6  32  6
7  33  5
8  34  5
9  19  6

$$$$
