310943057
  -OEChem-07211613022D

  9  9  0     1  0  0  0  0  0999 V2000
   -1.1343    1.1111    0.0000 O   0  0  0  0  0  0  0  0  0  0  0  0
    1.1960   -1.5587    0.0000 N   0  0  0  0  0  0  0  0  0  0  0  0
    0.2700   -0.2006    0.0000 C   0  0  3  0  0  0  0  0  0  0  0  0
   -0.5479   -0.3086    0.0000 C   0  0  0  0  0  0  0  0  0  0  0  0
    0.6559    0.5401    0.0000 C   0  0  0  0  0  0  0  0  0  0  0  0
   -1.1960    0.2932    0.0000 C   0  0  0  0  0  0  0  0  0  0  0  0
    0.3318    1.3117    0.0000 C   0  0  0  0  0  0  0  0  0  0  0  0
    0.7176   -0.8642    0.0000 C   0  0  0  0  0  0  0  0  0  0  0  0
   -0.4553    1.5587    0.0000 C   0  0  0  0  0  0  0  0  0  0  0  0
  1  6  1  0  0  0  0
  1  9  1  0  0  0  0
  2  8  3  0  0  0  0
  3  4  1  0  0  0  0
  3  5  1  0  0  0  0
  3  8  1  6  0  0  0
  4  6  1  0  0  0  0
  5  7  1  0  0  0  0
  7  9  1  0  0  0  0
M  END
> <PUBCHEM_COMPOUND_ID_TYPE>
0

> <PUBCHEM_TOTAL_CHARGE>
0

> <PUBCHEM_SUBSTANCE_ID>
310943057

> <PUBCHEM_SUBSTANCE_VERSION>
1

> <PUBCHEM_EXT_DATASOURCE_NAME>
4488

> <PUBCHEM_EXT_DATASOURCE_REGID>
SCHEMBL16121116

> <PUBCHEM_SUBSTANCE_COMMENT>
InChI=1S/C7H11NO/c8-6-7-2-1-4-9-5-3-7/h7H,1-5H2/t7-/m0/s1
InChIKey=QRXWOMVEGCQUBU-ZETCQYMHSA-N

> <PUBCHEM_SUBSTANCE_SYNONYM>
SCHEMBL16121116

> <PUBCHEM_XREF_EXT_ID>
SCHEMBL16121116

> <PUBCHEM_EXT_DATASOURCE_URL>
https://www.surechembl.org/

> <PUBCHEM_EXT_SUBSTANCE_URL>
https://www.surechembl.org/chemical/SCHEMBL16121116

> <PUBCHEM_CID_ASSOCIATIONS>
117609496  1

> <PUBCHEM_COORDINATE_TYPE>
1
3

> <PUBCHEM_BONDANNOTATIONS>
3  8  6

$$$$
