310947917
  -OEChem-07211613022D

 20 20  0     0  0  0  0  0  0999 V2000
    1.1336   -3.9616    0.0000 F   0  0  0  0  0  0  0  0  0  0  0  0
    0.3086   -3.9616    0.0000 F   0  0  0  0  0  0  0  0  0  0  0  0
   -2.1368   -6.7386    0.0000 O   0  0  0  0  0  0  0  0  0  0  0  0
   -0.7078   -6.7386    0.0000 O   0  0  0  0  0  0  0  0  0  0  0  0
   -1.4223   -5.5011    0.0000 N   0  0  0  0  0  0  0  0  0  0  0  0
   -1.4223   -5.0886    0.0000 C   0  0  0  0  0  0  0  0  0  0  0  0
   -2.1368   -5.5011    0.0000 C   0  0  0  0  0  0  0  0  0  0  0  0
   -0.7078   -5.5011    0.0000 C   0  0  0  0  0  0  0  0  0  0  0  0
   -1.4223   -6.3261    0.0000 C   0  0  0  0  0  0  0  0  0  0  0  0
   -2.1368   -6.3261    0.0000 C   0  0  0  0  0  0  0  0  0  0  0  0
   -0.7078   -6.3261    0.0000 C   0  0  0  0  0  0  0  0  0  0  0  0
   -0.7078   -4.6761    0.0000 C   0  0  0  0  0  0  0  0  0  0  0  0
   -2.1368   -7.5636    0.0000 C   0  0  0  0  0  0  0  0  0  0  0  0
    0.0066   -5.0886    0.0000 C   0  0  0  0  0  0  0  0  0  0  0  0
    0.7211   -4.6761    0.0000 C   0  0  0  0  0  0  0  0  0  0  0  0
   -2.1368   -4.6761    0.0000 C   0  0  0  0  0  0  0  0  0  0  0  0
   -1.4223   -7.9761    0.0000 C   0  0  0  0  0  0  0  0  0  0  0  0
   -2.1368   -8.3886    0.0000 C   0  0  0  0  0  0  0  0  0  0  0  0
   -2.8512   -7.9761    0.0000 C   0  0  0  0  0  0  0  0  0  0  0  0
    1.4356   -5.0886    0.0000 C   0  0  0  0  0  0  0  0  0  0  0  0
  1 15  1  0  0  0  0
  2 15  1  0  0  0  0
  3  9  1  0  0  0  0
  3 13  1  0  0  0  0
  4  9  2  0  0  0  0
  5  9  1  0  0  0  0
  5 10  1  0  0  0  0
  5 11  1  0  0  0  0
  6  7  1  0  0  0  0
  6  8  1  0  0  0  0
  6 12  1  0  0  0  0
  6 16  1  0  0  0  0
  7 10  1  0  0  0  0
  8 11  1  0  0  0  0
 12 14  1  0  0  0  0
 13 17  1  0  0  0  0
 13 18  1  0  0  0  0
 13 19  1  0  0  0  0
 14 15  1  0  0  0  0
 15 20  1  0  0  0  0
M  END
> <PUBCHEM_COMPOUND_ID_TYPE>
0

> <PUBCHEM_TOTAL_CHARGE>
0

> <PUBCHEM_SUBSTANCE_ID>
310947917

> <PUBCHEM_SUBSTANCE_VERSION>
1

> <PUBCHEM_EXT_DATASOURCE_NAME>
4488

> <PUBCHEM_EXT_DATASOURCE_REGID>
SCHEMBL16126091

> <PUBCHEM_SUBSTANCE_COMMENT>
InChI=1S/C15H27F2NO2/c1-13(2,3)20-12(19)18-10-8-14(4,9-11-18)6-7-15(5,16)17/h6-11H2,1-5H3
InChIKey=TUWXRLSVZGVQPG-UHFFFAOYSA-N

> <PUBCHEM_SUBSTANCE_SYNONYM>
SCHEMBL16126091

> <PUBCHEM_XREF_EXT_ID>
SCHEMBL16126091

> <PUBCHEM_EXT_DATASOURCE_URL>
https://www.surechembl.org/

> <PUBCHEM_EXT_SUBSTANCE_URL>
https://www.surechembl.org/chemical/SCHEMBL16126091

> <PUBCHEM_CID_ASSOCIATIONS>
117613577  1

> <PUBCHEM_COORDINATE_TYPE>
1
3

$$$$
