310947646
  -OEChem-07211613022D

 43 42  0     1  0  0  0  0  0999 V2000
   -4.9186   -2.0654    0.0000 S   0  0  0  0  0  0  0  0  0  0  0  0
   -5.6329   -1.6528    0.0000 S   0  0  0  0  0  0  0  0  0  0  0  0
   -2.7751   -0.8279    0.0000 O   0  0  0  0  0  0  0  0  0  0  0  0
   -4.9186   -2.8903    0.0000 O   0  0  0  0  0  0  0  0  0  0  0  0
   -5.6329   -0.8279    0.0000 O   0  0  0  0  0  0  0  0  0  0  0  0
   -7.7764   -2.8903    0.0000 O   0  0  0  0  0  0  0  0  0  0  0  0
   -8.4907   -1.6528    0.0000 O   0  0  0  0  0  0  0  0  0  0  0  0
    2.2261   -0.4154    0.0000 O   0  0  0  0  0  0  0  0  0  0  0  0
    0.7972   -0.4154    0.0000 O   0  0  0  0  0  0  0  0  0  0  0  0
   -3.4896   -2.8903    0.0000 N   0  0  0  0  0  0  0  0  0  0  0  0
   -7.0619   -0.8279    0.0000 N   0  0  0  0  0  0  0  0  0  0  0  0
   -2.0607   -2.0654    0.0000 N   0  0  0  0  0  0  0  0  0  0  0  0
   -4.9186   -4.5403    0.0000 N   0  0  0  0  0  0  0  0  0  0  0  0
   -7.0619    0.8221    0.0000 N   0  0  0  0  0  0  0  0  0  0  0  0
    2.2261   -2.0654    0.0000 N   0  0  0  0  0  0  0  0  0  0  0  0
   -0.6317   -4.5403    0.0000 N   0  0  0  0  0  0  0  0  0  0  0  0
   -2.7751    0.8221    0.0000 N   0  0  0  0  0  0  0  0  0  0  0  0
   -3.4896   -2.0654    0.0000 C   0  0  3  0  0  0  0  0  0  0  0  0
   -2.7751   -1.6528    0.0000 C   0  0  0  0  0  0  0  0  0  0  0  0
   -7.0619   -1.6528    0.0000 C   0  0  3  0  0  0  0  0  0  0  0  0
   -4.2040   -3.3028    0.0000 C   0  0  0  0  0  0  0  0  0  0  0  0
   -4.2040   -1.6528    0.0000 C   0  0  0  0  0  0  0  0  0  0  0  0
   -6.3474   -0.4154    0.0000 C   0  0  0  0  0  0  0  0  0  0  0  0
   -4.2040   -4.1278    0.0000 C   0  0  3  0  0  0  0  0  0  0  0  0
   -7.7764   -2.0654    0.0000 C   0  0  0  0  0  0  0  0  0  0  0  0
   -6.3474   -2.0654    0.0000 C   0  0  0  0  0  0  0  0  0  0  0  0
   -6.3474    0.4096    0.0000 C   0  0  3  0  0  0  0  0  0  0  0  0
   -3.4896   -4.5403    0.0000 C   0  0  0  0  0  0  0  0  0  0  0  0
   -5.6329    0.8221    0.0000 C   0  0  0  0  0  0  0  0  0  0  0  0
   -1.3462   -1.6528    0.0000 C   0  0  0  0  0  0  0  0  0  0  0  0
   -0.6317   -2.0654    0.0000 C   0  0  0  0  0  0  0  0  0  0  0  0
   -2.7751   -4.1278    0.0000 C   0  0  0  0  0  0  0  0  0  0  0  0
    1.5117   -1.6528    0.0000 C   0  0  3  0  0  0  0  0  0  0  0  0
   -4.9186    0.4096    0.0000 C   0  0  0  0  0  0  0  0  0  0  0  0
    1.5117   -0.8279    0.0000 C   0  0  0  0  0  0  0  0  0  0  0  0
    0.0827   -1.6528    0.0000 C   0  0  0  0  0  0  0  0  0  0  0  0
    0.7972   -2.0654    0.0000 C   0  0  0  0  0  0  0  0  0  0  0  0
   -2.0607   -4.5403    0.0000 C   0  0  0  0  0  0  0  0  0  0  0  0
   -4.2040    0.8221    0.0000 C   0  0  0  0  0  0  0  0  0  0  0  0
    2.2261    0.4096    0.0000 C   0  0  0  0  0  0  0  0  0  0  0  0
   -1.3462   -4.1278    0.0000 C   0  0  0  0  0  0  0  0  0  0  0  0
   -3.4896    0.4096    0.0000 C   0  0  0  0  0  0  0  0  0  0  0  0
    2.9405    0.8221    0.0000 C   0  0  0  0  0  0  0  0  0  0  0  0
  1  2  1  0  0  0  0
  1 22  1  0  0  0  0
  2 26  1  0  0  0  0
  3 19  2  0  0  0  0
  4 21  2  0  0  0  0
  5 23  2  0  0  0  0
  6 25  2  0  0  0  0
  7 25  1  0  0  0  0
  8 35  1  0  0  0  0
  8 40  1  0  0  0  0
  9 35  2  0  0  0  0
 18 10  1  1  0  0  0
 10 21  1  0  0  0  0
 20 11  1  1  0  0  0
 11 23  1  0  0  0  0
 12 19  1  0  0  0  0
 12 30  1  0  0  0  0
 13 24  1  0  0  0  0
 27 14  1  1  0  0  0
 33 15  1  1  0  0  0
 16 41  1  0  0  0  0
 17 42  1  0  0  0  0
 18 19  1  0  0  0  0
 18 22  1  0  0  0  0
 20 25  1  0  0  0  0
 20 26  1  0  0  0  0
 21 24  1  0  0  0  0
 23 27  1  0  0  0  0
 24 28  1  0  0  0  0
 27 29  1  0  0  0  0
 28 32  1  0  0  0  0
 29 34  1  0  0  0  0
 30 31  1  0  0  0  0
 31 36  1  0  0  0  0
 32 38  1  0  0  0  0
 33 35  1  0  0  0  0
 33 37  1  0  0  0  0
 34 39  1  0  0  0  0
 36 37  1  0  0  0  0
 38 41  1  0  0  0  0
 39 42  1  0  0  0  0
 40 43  1  0  0  0  0
M  END
> <PUBCHEM_COMPOUND_ID_TYPE>
0

> <PUBCHEM_TOTAL_CHARGE>
0

> <PUBCHEM_SUBSTANCE_ID>
310947646

> <PUBCHEM_SUBSTANCE_VERSION>
1

> <PUBCHEM_EXT_DATASOURCE_NAME>
4488

> <PUBCHEM_EXT_DATASOURCE_REGID>
SCHEMBL16125813

> <PUBCHEM_SUBSTANCE_COMMENT>
InChI=1S/C26H52N8O7S2/c1-2-41-26(40)19(31)11-5-8-14-32-24(37)20(33-22(35)17(29)9-3-6-12-27)15-42-43-16-21(25(38)39)34-23(36)18(30)10-4-7-13-28/h17-21H,2-16,27-31H2,1H3,(H,32,37)(H,33,35)(H,34,36)(H,38,39)/t17?,18-,19-,20-,21-/m0/s1
InChIKey=SCYCRKKGCGTUJF-UHOPDPTLSA-N

> <PUBCHEM_SUBSTANCE_SYNONYM>
SCHEMBL16125813

> <PUBCHEM_XREF_EXT_ID>
SCHEMBL16125813

> <PUBCHEM_EXT_DATASOURCE_URL>
https://www.surechembl.org/

> <PUBCHEM_EXT_SUBSTANCE_URL>
https://www.surechembl.org/chemical/SCHEMBL16125813

> <PUBCHEM_CID_ASSOCIATIONS>
117613362  1

> <PUBCHEM_COORDINATE_TYPE>
1
3

> <PUBCHEM_BONDANNOTATIONS>
18  10  5
20  11  5
27  14  5
33  15  5

$$$$
