310948544
  -OEChem-07211613022D

 49 53  0     0  0  0  0  0  0999 V2000
    4.7980   -2.5156    0.0000 S   0  0  0  0  0  0  0  0  0  0  0  0
   -2.5656    0.3166    0.0000 F   0  0  0  0  0  0  0  0  0  0  0  0
   -1.7492    0.3166    0.0000 F   0  0  0  0  0  0  0  0  0  0  0  0
    5.0645    3.2319    0.0000 F   0  0  0  0  0  0  0  0  0  0  0  0
    3.9316    2.8987    0.0000 F   0  0  0  0  0  0  0  0  0  0  0  0
    5.3310    2.0824    0.0000 F   0  0  0  0  0  0  0  0  0  0  0  0
   -2.8821   -1.6326    0.0000 O   0  0  0  0  0  0  0  0  0  0  0  0
    4.2315    1.7992    0.0000 O   0  0  0  0  0  0  0  0  0  0  0  0
    5.5143   -2.0991    0.0000 O   0  0  0  0  0  0  0  0  0  0  0  0
    4.0982   -2.9320    0.0000 O   0  0  0  0  0  0  0  0  0  0  0  0
   -5.0145   -2.0324    0.0000 O   0  0  0  0  0  0  0  0  0  0  0  0
    0.6830    0.3166    0.0000 N   0  0  0  0  0  0  0  0  0  0  0  0
   -0.5497   -1.7992    0.0000 N   0  0  0  0  0  0  0  0  0  0  0  0
   -1.3661   -1.5993    0.0000 N   0  0  0  0  0  0  0  0  0  0  0  0
   -0.1166    0.3999    0.0000 N   0  0  0  0  0  0  0  0  0  0  0  0
   -0.2999    1.1995    0.0000 N   0  0  0  0  0  0  0  0  0  0  0  0
   -3.5818   -0.3999    0.0000 N   0  0  0  0  0  0  0  0  0  0  0  0
    0.6830   -1.0995    0.0000 C   0  0  0  0  0  0  0  0  0  0  0  0
    1.0995   -0.3832    0.0000 C   0  0  0  0  0  0  0  0  0  0  0  0
   -0.1333   -1.0829    0.0000 C   0  0  0  0  0  0  0  0  0  0  0  0
   -1.4327   -0.7996    0.0000 C   0  0  0  0  0  0  0  0  0  0  0  0
   -2.1491   -0.3832    0.0000 C   0  0  0  0  0  0  0  0  0  0  0  0
   -0.6663   -0.4498    0.0000 C   0  0  0  0  0  0  0  0  0  0  0  0
    1.0329    1.0829    0.0000 C   0  0  0  0  0  0  0  0  0  0  0  0
    1.9158   -0.3832    0.0000 C   0  0  0  0  0  0  0  0  0  0  0  0
    2.3323   -1.0662    0.0000 C   0  0  0  0  0  0  0  0  0  0  0  0
    1.1328   -1.8159    0.0000 C   0  0  0  0  0  0  0  0  0  0  0  0
   -2.8654   -0.7663    0.0000 C   0  0  0  0  0  0  0  0  0  0  0  0
    1.9491   -1.7992    0.0000 C   0  0  0  0  0  0  0  0  0  0  0  0
    1.8159    1.2661    0.0000 C   0  0  0  0  0  0  0  0  0  0  0  0
    3.1653   -1.0829    0.0000 C   0  0  0  0  0  0  0  0  0  0  0  0
    0.3999    1.6327    0.0000 C   0  0  0  0  0  0  0  0  0  0  0  0
   -0.2499   -2.5489    0.0000 C   0  0  0  0  0  0  0  0  0  0  0  0
    3.5652   -1.7825    0.0000 C   0  0  0  0  0  0  0  0  0  0  0  0
    2.3823    0.6663    0.0000 C   0  0  0  0  0  0  0  0  0  0  0  0
    2.0824    2.0491    0.0000 C   0  0  0  0  0  0  0  0  0  0  0  0
    4.3981   -1.7992    0.0000 C   0  0  0  0  0  0  0  0  0  0  0  0
    3.5818   -0.3832    0.0000 C   0  0  0  0  0  0  0  0  0  0  0  0
   -4.2981   -0.7830    0.0000 C   0  0  0  0  0  0  0  0  0  0  0  0
    3.4152    1.6493    0.0000 C   0  0  0  0  0  0  0  0  0  0  0  0
    3.1820    0.8496    0.0000 C   0  0  0  0  0  0  0  0  0  0  0  0
    2.8821    2.2157    0.0000 C   0  0  0  0  0  0  0  0  0  0  0  0
    4.7980   -1.0995    0.0000 C   0  0  0  0  0  0  0  0  0  0  0  0
    4.3981   -0.3665    0.0000 C   0  0  0  0  0  0  0  0  0  0  0  0
   -4.2981   -1.6326    0.0000 C   0  0  0  0  0  0  0  0  0  0  0  0
   -5.5143   -0.7996    0.0000 C   0  0  0  0  0  0  0  0  0  0  0  0
   -5.0978   -0.1000    0.0000 C   0  0  0  0  0  0  0  0  0  0  0  0
    4.6480    2.4989    0.0000 C   0  0  0  0  0  0  0  0  0  0  0  0
    5.2144   -3.2319    0.0000 C   0  0  0  0  0  0  0  0  0  0  0  0
  1  9  2  0  0  0  0
  1 10  2  0  0  0  0
  1 37  1  0  0  0  0
  1 49  1  0  0  0  0
  2 22  1  0  0  0  0
  3 22  1  0  0  0  0
  4 48  1  0  0  0  0
  5 48  1  0  0  0  0
  6 48  1  0  0  0  0
  7 28  2  0  0  0  0
  8 40  1  0  0  0  0
  8 48  1  0  0  0  0
 11 45  1  0  0  0  0
 12 15  1  0  0  0  0
 12 19  1  0  0  0  0
 12 24  1  0  0  0  0
 13 14  1  0  0  0  0
 13 20  1  0  0  0  0
 13 33  1  0  0  0  0
 14 21  2  0  0  0  0
 15 16  2  0  0  0  0
 16 32  1  0  0  0  0
 17 28  1  0  0  0  0
 17 39  1  0  0  0  0
 18 19  2  0  0  0  0
 18 20  1  0  0  0  0
 18 27  1  0  0  0  0
 19 25  1  0  0  0  0
 20 23  2  0  0  0  0
 21 22  1  0  0  0  0
 21 23  1  0  0  0  0
 22 28  1  0  0  0  0
 24 30  1  0  0  0  0
 24 32  2  0  0  0  0
 25 26  2  0  0  0  0
 26 29  1  0  0  0  0
 26 31  1  0  0  0  0
 27 29  2  0  0  0  0
 30 35  2  0  0  0  0
 30 36  1  0  0  0  0
 31 34  1  0  0  0  0
 31 38  2  0  0  0  0
 34 37  2  0  0  0  0
 35 41  1  0  0  0  0
 36 42  2  0  0  0  0
 37 43  1  0  0  0  0
 38 44  1  0  0  0  0
 39 45  1  0  0  0  0
 39 46  1  0  0  0  0
 39 47  1  0  0  0  0
 40 41  2  0  0  0  0
 40 42  1  0  0  0  0
 43 44  2  0  0  0  0
M  END
> <PUBCHEM_COMPOUND_ID_TYPE>
0

> <PUBCHEM_TOTAL_CHARGE>
0

> <PUBCHEM_SUBSTANCE_ID>
310948544

> <PUBCHEM_SUBSTANCE_VERSION>
1

> <PUBCHEM_EXT_DATASOURCE_NAME>
4488

> <PUBCHEM_EXT_DATASOURCE_REGID>
SCHEMBL16126726

> <PUBCHEM_SUBSTANCE_COMMENT>
InChI=1S/C32H29F5N6O5S/c1-30(2,18-44)39-29(45)31(33,34)28-16-25(42(3)40-28)24-13-10-21(20-6-5-7-23(14-20)49(4,46)47)15-26(24)43-27(17-38-41-43)19-8-11-22(12-9-19)48-32(35,36)37/h5-17,44H,18H2,1-4H3,(H,39,45)
InChIKey=OUNTWKUZPALCCK-UHFFFAOYSA-N

> <PUBCHEM_SUBSTANCE_SYNONYM>
SCHEMBL16126726

> <PUBCHEM_XREF_EXT_ID>
SCHEMBL16126726

> <PUBCHEM_EXT_DATASOURCE_URL>
https://www.surechembl.org/

> <PUBCHEM_EXT_SUBSTANCE_URL>
https://www.surechembl.org/chemical/SCHEMBL16126726

> <PUBCHEM_CID_ASSOCIATIONS>
86276046  1

> <PUBCHEM_COORDINATE_TYPE>
1
3

$$$$
