310938832
  -OEChem-07211613022D

 10 11  0     1  0  0  0  0  0999 V2000
    1.3552    0.3241    0.0000 O   0  0  0  0  0  0  0  0  0  0  0  0
    1.1195   -1.1490    0.0000 O   0  0  0  0  0  0  0  0  0  0  0  0
    0.0442   -0.0736    0.0000 C   0  0  3  0  0  0  0  0  0  0  0  0
    0.0589    0.7513    0.0000 C   0  0  3  0  0  0  0  0  0  0  0  0
    0.8691   -0.3387    0.0000 C   0  0  0  0  0  0  0  0  0  0  0  0
    0.8838    0.9870    0.0000 C   0  0  0  0  0  0  0  0  0  0  0  0
   -0.6334   -0.5008    0.0000 C   0  0  0  0  0  0  0  0  0  0  0  0
   -0.6482    1.1490    0.0000 C   0  0  0  0  0  0  0  0  0  0  0  0
   -1.3552   -0.0883    0.0000 C   0  0  0  0  0  0  0  0  0  0  0  0
   -1.3552    0.7513    0.0000 C   0  0  0  0  0  0  0  0  0  0  0  0
  1  5  1  0  0  0  0
  1  6  1  0  0  0  0
  2  5  2  0  0  0  0
  3  4  1  0  0  0  0
  3  5  1  1  0  0  0
  3  7  1  0  0  0  0
  4  6  1  0  0  0  0
  4  8  1  0  0  0  0
  7  9  1  0  0  0  0
  8 10  1  0  0  0  0
  9 10  1  0  0  0  0
M  END
> <PUBCHEM_COMPOUND_ID_TYPE>
0

> <PUBCHEM_TOTAL_CHARGE>
0

> <PUBCHEM_SUBSTANCE_ID>
310938832

> <PUBCHEM_SUBSTANCE_VERSION>
1

> <PUBCHEM_EXT_DATASOURCE_NAME>
4488

> <PUBCHEM_EXT_DATASOURCE_REGID>
SCHEMBL16116751

> <PUBCHEM_SUBSTANCE_COMMENT>
InChI=1S/C8H12O2/c9-8-7-4-2-1-3-6(7)5-10-8/h6-7H,1-5H2/t6?,7-/m0/s1
InChIKey=WLYUMBPDHPMKHM-MLWJPKLSSA-N

> <PUBCHEM_SUBSTANCE_SYNONYM>
SCHEMBL16116751

> <PUBCHEM_XREF_EXT_ID>
SCHEMBL16116751

> <PUBCHEM_EXT_DATASOURCE_URL>
https://www.surechembl.org/

> <PUBCHEM_EXT_SUBSTANCE_URL>
https://www.surechembl.org/chemical/SCHEMBL16116751

> <PUBCHEM_CID_ASSOCIATIONS>
60065569  1

> <PUBCHEM_COORDINATE_TYPE>
1
3

> <PUBCHEM_BONDANNOTATIONS>
3  5  5

$$$$
