310929745
  -OEChem-07211613022D

 67 74  0     1  0  0  0  0  0999 V2000
    7.0627    2.3261    0.0000 S   0  0  0  0  0  0  0  0  0  0  0  0
    8.1567    0.3844    0.0000 F   0  0  0  0  0  0  0  0  0  0  0  0
    8.3650   -0.7635    0.0000 F   0  0  0  0  0  0  0  0  0  0  0  0
    7.0088    0.1761    0.0000 F   0  0  0  0  0  0  0  0  0  0  0  0
    5.9741    3.5660    0.0000 O   0  0  0  0  0  0  0  0  0  0  0  0
    7.2242    1.5170    0.0000 O   0  0  0  0  0  0  0  0  0  0  0  0
    6.9013    3.1351    0.0000 O   0  0  0  0  0  0  0  0  0  0  0  0
    3.4902    1.7663    0.0000 O   0  0  0  0  0  0  0  0  0  0  0  0
    5.1028   -1.5144    0.0000 O   0  0  0  0  0  0  0  0  0  0  0  0
    2.2838   -0.5650    0.0000 O   0  0  0  0  0  0  0  0  0  0  0  0
    1.4616   -0.4972    0.0000 O   0  0  0  0  0  0  0  0  0  0  0  0
    6.1599   -3.7523    0.0000 O   0  0  0  0  0  0  0  0  0  0  0  0
    0.2870    0.3166    0.0000 O   0  0  0  0  0  0  0  0  0  0  0  0
    9.9186   -3.3454    0.0000 O   0  0  0  0  0  0  0  0  0  0  0  0
    4.9188    1.7983    0.0000 N   0  0  0  0  0  0  0  0  0  0  0  0
    6.2537    2.1646    0.0000 N   0  0  0  0  0  0  0  0  0  0  0  0
    3.5759    0.0454    0.0000 N   0  0  0  0  0  0  0  0  0  0  0  0
    5.0403   -1.1700    0.0000 N   0  0  0  0  0  0  0  0  0  0  0  0
    1.5791    0.9270    0.0000 N   0  0  0  0  0  0  0  0  0  0  0  0
    8.2742   -3.2097    0.0000 N   0  0  0  0  0  0  0  0  0  0  0  0
    4.9003    2.6231    0.0000 C   0  0  3  0  0  0  0  0  0  0  0  0
    4.0848    2.7481    0.0000 C   0  0  3  0  0  0  0  0  0  0  0  0
    4.6008    3.3919    0.0000 C   0  0  0  0  0  0  0  0  0  0  0  0
    5.7093    2.7846    0.0000 C   0  0  0  0  0  0  0  0  0  0  0  0
    3.3161    2.4487    0.0000 C   0  0  0  0  0  0  0  0  0  0  0  0
    4.2138    1.3699    0.0000 C   0  0  0  0  0  0  0  0  0  0  0  0
    7.8718    2.4875    0.0000 C   0  0  0  0  0  0  0  0  0  0  0  0
    4.2323    0.5451    0.0000 C   0  0  3  0  0  0  0  0  0  0  0  0
    8.1713    1.7188    0.0000 C   0  0  0  0  0  0  0  0  0  0  0  0
    8.6873    2.3625    0.0000 C   0  0  0  0  0  0  0  0  0  0  0  0
    2.6724    2.9647    0.0000 C   0  0  0  0  0  0  0  0  0  0  0  0
    4.9104    0.0753    0.0000 C   0  0  0  0  0  0  0  0  0  0  0  0
    7.8533    3.3123    0.0000 C   0  0  0  0  0  0  0  0  0  0  0  0
    4.7504   -0.7684    0.0000 C   0  0  3  0  0  0  0  0  0  0  0  0
    3.9282   -0.7006    0.0000 C   0  0  0  0  0  0  0  0  0  0  0  0
    2.7537    0.1132    0.0000 C   0  0  0  0  0  0  0  0  0  0  0  0
    4.6330   -2.1925    0.0000 C   0  0  0  0  0  0  0  0  0  0  0  0
    4.9854   -2.9385    0.0000 C   0  0  0  0  0  0  0  0  0  0  0  0
    5.8076   -3.0063    0.0000 C   0  0  0  0  0  0  0  0  0  0  0  0
    6.2774   -2.3281    0.0000 C   0  0  0  0  0  0  0  0  0  0  0  0
    5.9250   -1.5822    0.0000 C   0  0  0  0  0  0  0  0  0  0  0  0
    2.4013    0.8591    0.0000 C   0  0  0  0  0  0  0  0  0  0  0  0
    0.9918   -1.1753    0.0000 C   0  0  3  0  0  0  0  0  0  0  0  0
    1.3442   -1.9213    0.0000 C   0  0  3  0  0  0  0  0  0  0  0  0
    0.5219   -1.8534    0.0000 C   0  0  3  0  0  0  0  0  0  0  0  0
    6.3949   -0.9040    0.0000 C   0  0  0  0  0  0  0  0  0  0  0  0
    7.2171   -0.9719    0.0000 C   0  0  0  0  0  0  0  0  0  0  0  0
    7.0996   -2.3960    0.0000 C   0  0  0  0  0  0  0  0  0  0  0  0
    4.5155   -3.6166    0.0000 C   0  0  0  0  0  0  0  0  0  0  0  0
    1.1092    0.2488    0.0000 C   0  0  0  0  0  0  0  0  0  0  0  0
    7.5694   -1.7178    0.0000 C   0  0  0  0  0  0  0  0  0  0  0  0
    7.6869   -0.2937    0.0000 C   0  0  0  0  0  0  0  0  0  0  0  0
    2.1664   -1.9891    0.0000 C   0  0  0  0  0  0  0  0  0  0  0  0
   -0.2240   -2.2058    0.0000 C   0  0  0  0  0  0  0  0  0  0  0  0
    3.6933   -3.5488    0.0000 C   0  0  0  0  0  0  0  0  0  0  0  0
    2.5187   -2.7350    0.0000 C   0  0  0  0  0  0  0  0  0  0  0  0
    6.9822   -3.8201    0.0000 C   0  0  0  0  0  0  0  0  0  0  0  0
    3.3409   -2.8028    0.0000 C   0  0  0  0  0  0  0  0  0  0  0  0
   -0.9022   -1.7360    0.0000 C   0  0  0  0  0  0  0  0  0  0  0  0
    7.4520   -3.1419    0.0000 C   0  0  0  0  0  0  0  0  0  0  0  0
   -0.8343   -0.9138    0.0000 C   0  0  0  0  0  0  0  0  0  0  0  0
    8.6266   -3.9557    0.0000 C   0  0  0  0  0  0  0  0  0  0  0  0
    8.7440   -2.5316    0.0000 C   0  0  0  0  0  0  0  0  0  0  0  0
   -0.0884   -0.5614    0.0000 C   0  0  0  0  0  0  0  0  0  0  0  0
    9.4488   -4.0235    0.0000 C   0  0  0  0  0  0  0  0  0  0  0  0
    9.5662   -2.5994    0.0000 C   0  0  0  0  0  0  0  0  0  0  0  0
    4.1751    1.9281    0.0000 H   0  0  0  0  0  0  0  0  0  0  0  0
  1  6  2  0  0  0  0
  1  7  2  0  0  0  0
  1 16  1  0  0  0  0
  1 27  1  0  0  0  0
  2 52  1  0  0  0  0
  3 52  1  0  0  0  0
  4 52  1  0  0  0  0
  5 24  2  0  0  0  0
  8 26  2  0  0  0  0
  9 34  1  0  0  0  0
  9 37  1  0  0  0  0
 10 36  2  0  0  0  0
 11 43  1  0  0  0  0
 11 50  1  0  0  0  0
 12 39  1  0  0  0  0
 12 57  1  0  0  0  0
 13 50  2  0  0  0  0
 14 65  1  0  0  0  0
 14 66  1  0  0  0  0
 21 15  1  1  0  0  0
 15 26  1  0  0  0  0
 16 24  1  0  0  0  0
 17 28  1  0  0  0  0
 17 35  1  0  0  0  0
 17 36  1  0  0  0  0
 18 37  2  0  0  0  0
 18 41  1  0  0  0  0
 19 42  1  0  0  0  0
 19 50  1  0  0  0  0
 20 60  1  0  0  0  0
 20 62  1  0  0  0  0
 20 63  1  0  0  0  0
 21 22  1  0  0  0  0
 21 23  1  0  0  0  0
 21 24  1  6  0  0  0
 22 23  1  0  0  0  0
 22 25  1  6  0  0  0
 22 67  1  1  0  0  0
 25 31  2  0  0  0  0
 26 28  1  0  0  0  0
 27 29  1  0  0  0  0
 27 30  1  0  0  0  0
 27 33  1  0  0  0  0
 28 32  1  0  0  0  0
 29 30  1  0  0  0  0
 32 34  1  0  0  0  0
 34 35  1  0  0  0  0
 36 42  1  0  0  0  0
 37 38  1  0  0  0  0
 38 39  2  0  0  0  0
 38 49  1  0  0  0  0
 39 40  1  0  0  0  0
 40 41  2  0  0  0  0
 40 48  1  0  0  0  0
 41 46  1  0  0  0  0
 43 44  1  0  0  0  0
 43 45  1  0  0  0  0
 44 45  1  0  0  0  0
 44 53  1  0  0  0  0
 45 54  1  0  0  0  0
 46 47  2  0  0  0  0
 47 51  1  0  0  0  0
 47 52  1  0  0  0  0
 48 51  2  0  0  0  0
 49 55  1  0  0  0  0
 53 56  1  0  0  0  0
 54 59  1  0  0  0  0
 55 58  1  0  0  0  0
 56 58  1  0  0  0  0
 57 60  1  0  0  0  0
 59 61  1  0  0  0  0
 61 64  1  0  0  0  0
 62 65  1  0  0  0  0
 63 66  1  0  0  0  0
M  END
> <PUBCHEM_COMPOUND_ID_TYPE>
0

> <PUBCHEM_TOTAL_CHARGE>
0

> <PUBCHEM_SUBSTANCE_ID>
310929745

> <PUBCHEM_SUBSTANCE_VERSION>
1

> <PUBCHEM_EXT_DATASOURCE_NAME>
4488

> <PUBCHEM_EXT_DATASOURCE_REGID>
SCHEMBL16106943

> <PUBCHEM_SUBSTANCE_COMMENT>
InChI=1S/C46H61F3N6O10S/c1-4-6-10-31-32-11-8-7-9-12-34-38(63-22-19-54-17-20-62-21-18-54)33-14-13-29(46(47,48)49)23-35(33)51-41(34)64-30-24-36(55(27-30)37(56)26-50-43(59)65-39(31)32)40(57)52-45(25-28(45)5-2)42(58)53-66(60,61)44(3)15-16-44/h5,13-14,23,28,30-32,36,39H,2,4,6-12,15-22,24-27H2,1,3H3,(H,50,59)(H,52,57)(H,53,58)/t28-,30?,31?,32?,36?,39?,45-/m1/s1
InChIKey=YYNCVMTWSTWIFM-JEPIVHCESA-N

> <PUBCHEM_SUBSTANCE_SYNONYM>
SCHEMBL16106943

> <PUBCHEM_XREF_EXT_ID>
SCHEMBL16106943

> <PUBCHEM_EXT_DATASOURCE_URL>
https://www.surechembl.org/

> <PUBCHEM_EXT_SUBSTANCE_URL>
https://www.surechembl.org/chemical/SCHEMBL16106943

> <PUBCHEM_CID_ASSOCIATIONS>
117599036  1

> <PUBCHEM_COORDINATE_TYPE>
1
3

> <PUBCHEM_BONDANNOTATIONS>
21  15  5
21  24  6
22  25  6
22  67  5

$$$$
