310949749
  -OEChem-07211613022D

 23 24  0     0  0  0  0  0  0999 V2000
   -0.7264   -0.4123    0.0000 O   0  0  0  0  0  0  0  0  0  0  0  0
   -0.7264   -1.2370    0.0000 O   0  0  0  0  0  0  0  0  0  0  0  0
   -1.4463   -2.4673    0.0000 O   0  0  0  0  0  0  0  0  0  0  0  0
    3.6060    2.0485    0.0000 O   0  0  0  0  0  0  0  0  0  0  0  0
   -1.4463    0.8311    0.0000 N   0  0  0  0  0  0  0  0  0  0  0  0
   -2.1793   -0.4123    0.0000 C   0  0  0  0  0  0  0  0  0  0  0  0
   -2.1793   -1.2238    0.0000 C   0  0  0  0  0  0  0  0  0  0  0  0
   -1.4725    0.0196    0.0000 C   0  0  0  0  0  0  0  0  0  0  0  0
   -2.8992    0.0065    0.0000 C   0  0  0  0  0  0  0  0  0  0  0  0
   -1.4725   -1.6427    0.0000 C   0  0  0  0  0  0  0  0  0  0  0  0
   -2.8992   -1.6296    0.0000 C   0  0  0  0  0  0  0  0  0  0  0  0
   -0.7264    1.2500    0.0000 C   0  0  0  0  0  0  0  0  0  0  0  0
   -3.6060   -0.4123    0.0000 C   0  0  0  0  0  0  0  0  0  0  0  0
   -3.6060   -1.2370    0.0000 C   0  0  0  0  0  0  0  0  0  0  0  0
   -0.7003    2.0746    0.0000 C   0  0  0  0  0  0  0  0  0  0  0  0
    0.0065    0.8443    0.0000 C   0  0  0  0  0  0  0  0  0  0  0  0
   -2.8861    0.8574    0.0000 C   0  0  0  0  0  0  0  0  0  0  0  0
    0.7134    2.0615    0.0000 C   0  0  0  0  0  0  0  0  0  0  0  0
   -0.0065    2.4673    0.0000 C   0  0  0  0  0  0  0  0  0  0  0  0
    0.7134    1.2370    0.0000 C   0  0  0  0  0  0  0  0  0  0  0  0
    1.4333    2.4673    0.0000 C   0  0  0  0  0  0  0  0  0  0  0  0
    2.1401    2.0615    0.0000 C   0  0  0  0  0  0  0  0  0  0  0  0
    2.8731    2.4673    0.0000 C   0  0  0  0  0  0  0  0  0  0  0  0
  1  8  2  0  0  0  0
  2 10  2  0  0  0  0
  3 10  1  0  0  0  0
  4 23  1  0  0  0  0
  5  8  1  0  0  0  0
  5 12  1  0  0  0  0
  6  7  1  0  0  0  0
  6  8  1  0  0  0  0
  6  9  2  0  0  0  0
  7 10  1  0  0  0  0
  7 11  2  0  0  0  0
  9 13  1  0  0  0  0
  9 17  1  0  0  0  0
 11 14  1  0  0  0  0
 12 15  2  0  0  0  0
 12 16  1  0  0  0  0
 13 14  2  0  0  0  0
 15 19  1  0  0  0  0
 16 20  2  0  0  0  0
 18 19  2  0  0  0  0
 18 20  1  0  0  0  0
 18 21  1  0  0  0  0
 21 22  1  0  0  0  0
 22 23  1  0  0  0  0
M  END
> <PUBCHEM_COMPOUND_ID_TYPE>
0

> <PUBCHEM_TOTAL_CHARGE>
0

> <PUBCHEM_SUBSTANCE_ID>
310949749

> <PUBCHEM_SUBSTANCE_VERSION>
1

> <PUBCHEM_EXT_DATASOURCE_NAME>
4488

> <PUBCHEM_EXT_DATASOURCE_REGID>
SCHEMBL16127947

> <PUBCHEM_SUBSTANCE_COMMENT>
InChI=1S/C18H19NO4/c1-12-4-2-6-15(18(22)23)16(12)17(21)19-14-9-7-13(8-10-14)5-3-11-20/h2,4,6-10,20H,3,5,11H2,1H3,(H,19,21)(H,22,23)
InChIKey=ZYXVEGSSKWYSNF-UHFFFAOYSA-N

> <PUBCHEM_SUBSTANCE_SYNONYM>
SCHEMBL16127947

> <PUBCHEM_XREF_EXT_ID>
SCHEMBL16127947

> <PUBCHEM_EXT_DATASOURCE_URL>
https://www.surechembl.org/

> <PUBCHEM_EXT_SUBSTANCE_URL>
https://www.surechembl.org/chemical/SCHEMBL16127947

> <PUBCHEM_CID_ASSOCIATIONS>
85471674  1

> <PUBCHEM_COORDINATE_TYPE>
1
3

$$$$
