310939743
  -OEChem-07211613022D

 16 17  0     0  0  0  0  0  0999 V2000
   -2.5971    4.7118    0.0000 Cl  0  0  0  0  0  0  0  0  0  0  0  0
   -4.0261    2.2368    0.0000 O   0  0  0  0  0  0  0  0  0  0  0  0
   -1.8827    3.4743    0.0000 C   0  0  0  0  0  0  0  0  0  0  0  0
   -2.5971    2.2368    0.0000 C   0  0  0  0  0  0  0  0  0  0  0  0
   -1.1682    3.8868    0.0000 C   0  0  0  0  0  0  0  0  0  0  0  0
   -3.3116    2.6493    0.0000 C   0  0  0  0  0  0  0  0  0  0  0  0
   -2.5971    3.8868    0.0000 C   0  0  0  0  0  0  0  0  0  0  0  0
   -1.8827    2.6493    0.0000 C   0  0  0  0  0  0  0  0  0  0  0  0
   -2.5971    1.4118    0.0000 C   0  0  0  0  0  0  0  0  0  0  0  0
   -3.3116    3.4743    0.0000 C   0  0  0  0  0  0  0  0  0  0  0  0
   -0.3432    3.8868    0.0000 C   0  0  0  0  0  0  0  0  0  0  0  0
   -0.7557    4.6013    0.0000 C   0  0  0  0  0  0  0  0  0  0  0  0
   -1.7721    1.4118    0.0000 C   0  0  0  0  0  0  0  0  0  0  0  0
   -3.4221    1.4118    0.0000 C   0  0  0  0  0  0  0  0  0  0  0  0
   -2.5971    0.5868    0.0000 C   0  0  0  0  0  0  0  0  0  0  0  0
   -4.7405    2.6493    0.0000 C   0  0  0  0  0  0  0  0  0  0  0  0
  1  7  1  0  0  0  0
  2  6  1  0  0  0  0
  2 16  1  0  0  0  0
  3  5  1  0  0  0  0
  3  7  2  0  0  0  0
  3  8  1  0  0  0  0
  4  6  1  0  0  0  0
  4  8  2  0  0  0  0
  4  9  1  0  0  0  0
  5 11  1  0  0  0  0
  5 12  1  0  0  0  0
  6 10  2  0  0  0  0
  7 10  1  0  0  0  0
  9 13  1  0  0  0  0
  9 14  1  0  0  0  0
  9 15  1  0  0  0  0
 11 12  1  0  0  0  0
M  END
> <PUBCHEM_COMPOUND_ID_TYPE>
0

> <PUBCHEM_TOTAL_CHARGE>
0

> <PUBCHEM_SUBSTANCE_ID>
310939743

> <PUBCHEM_SUBSTANCE_VERSION>
1

> <PUBCHEM_EXT_DATASOURCE_NAME>
4488

> <PUBCHEM_EXT_DATASOURCE_REGID>
SCHEMBL16117673

> <PUBCHEM_SUBSTANCE_COMMENT>
InChI=1S/C14H19ClO/c1-14(2,3)11-7-10(9-5-6-9)12(15)8-13(11)16-4/h7-9H,5-6H2,1-4H3
InChIKey=ZYXCDNMZOQBGSP-UHFFFAOYSA-N

> <PUBCHEM_SUBSTANCE_SYNONYM>
SCHEMBL16117673

> <PUBCHEM_XREF_EXT_ID>
SCHEMBL16117673

> <PUBCHEM_EXT_DATASOURCE_URL>
https://www.surechembl.org/

> <PUBCHEM_EXT_SUBSTANCE_URL>
https://www.surechembl.org/chemical/SCHEMBL16117673

> <PUBCHEM_CID_ASSOCIATIONS>
117606966  1

> <PUBCHEM_COORDINATE_TYPE>
1
3

> <PUBCHEM_BONDANNOTATIONS>
9  13  3
9  14  3

$$$$
