310930406
  -OEChem-07211613022D

 30 33  0     0  0  0  0  0  0999 V2000
    2.5912    0.0000    0.0000 O   0  0  0  0  0  0  0  0  0  0  0  0
    5.7007   -2.2170    0.0000 O   0  0  0  0  0  0  0  0  0  0  0  0
    7.9177   -0.1440    0.0000 O   0  0  0  0  0  0  0  0  0  0  0  0
    8.6374   -1.3820    0.0000 O   0  0  0  0  0  0  0  0  0  0  0  0
    2.2457   -0.7486    0.0000 N   0  0  0  0  0  0  0  0  0  0  0  0
    2.1306   -2.5624    0.0000 N   0  0  0  0  0  0  0  0  0  0  0  0
    3.4262   -0.1152    0.0000 N   0  0  0  0  0  0  0  0  0  0  0  0
    5.0097   -0.9501    0.0000 N   0  0  0  0  0  0  0  0  0  0  0  0
    2.8504   -1.3244    0.0000 C   0  0  0  0  0  0  0  0  0  0  0  0
    3.5989   -0.9213    0.0000 C   0  0  0  0  0  0  0  0  0  0  0  0
    2.8504   -2.1594    0.0000 C   0  0  0  0  0  0  0  0  0  0  0  0
    4.2899   -1.3532    0.0000 C   0  0  0  0  0  0  0  0  0  0  0  0
    3.5414   -2.5624    0.0000 C   0  0  0  0  0  0  0  0  0  0  0  0
    1.4108   -2.1594    0.0000 C   0  0  0  0  0  0  0  0  0  0  0  0
    4.2899   -2.1594    0.0000 C   0  0  0  0  0  0  0  0  0  0  0  0
    0.6910   -2.5912    0.0000 C   0  0  0  0  0  0  0  0  0  0  0  0
    0.6910   -3.4262    0.0000 C   0  0  0  0  0  0  0  0  0  0  0  0
    1.4396   -1.3532    0.0000 C   0  0  0  0  0  0  0  0  0  0  0  0
    5.7295   -1.3820    0.0000 C   0  0  0  0  0  0  0  0  0  0  0  0
    0.0000   -2.1594    0.0000 C   0  0  0  0  0  0  0  0  0  0  0  0
    0.7198   -0.9213    0.0000 C   0  0  0  0  0  0  0  0  0  0  0  0
    0.0000   -1.3244    0.0000 C   0  0  0  0  0  0  0  0  0  0  0  0
    1.4396   -3.8293    0.0000 C   0  0  0  0  0  0  0  0  0  0  0  0
    0.0000   -3.8293    0.0000 C   0  0  0  0  0  0  0  0  0  0  0  0
    6.4493   -0.9789    0.0000 C   0  0  0  0  0  0  0  0  0  0  0  0
    1.4108   -4.6642    0.0000 C   0  0  0  0  0  0  0  0  0  0  0  0
    0.0000   -4.6355    0.0000 C   0  0  0  0  0  0  0  0  0  0  0  0
    0.6910   -5.0673    0.0000 C   0  0  0  0  0  0  0  0  0  0  0  0
    7.1979   -1.3820    0.0000 C   0  0  0  0  0  0  0  0  0  0  0  0
    7.9177   -0.9789    0.0000 C   0  0  0  0  0  0  0  0  0  0  0  0
  1  5  1  0  0  0  0
  1  7  1  0  0  0  0
  2 19  2  0  0  0  0
  3 30  2  0  0  0  0
  4 30  1  0  0  0  0
  5  9  2  0  0  0  0
  6 11  1  0  0  0  0
  6 14  1  0  0  0  0
  7 10  2  0  0  0  0
  8 12  1  0  0  0  0
  8 19  1  0  0  0  0
  9 10  1  0  0  0  0
  9 11  1  0  0  0  0
 10 12  1  0  0  0  0
 11 13  2  0  0  0  0
 12 15  2  0  0  0  0
 13 15  1  0  0  0  0
 14 16  1  0  0  0  0
 14 18  2  0  0  0  0
 16 17  1  0  0  0  0
 16 20  2  0  0  0  0
 17 23  2  0  0  0  0
 17 24  1  0  0  0  0
 18 21  1  0  0  0  0
 19 25  1  0  0  0  0
 20 22  1  0  0  0  0
 21 22  2  0  0  0  0
 23 26  1  0  0  0  0
 24 27  2  0  0  0  0
 25 29  1  0  0  0  0
 26 28  2  0  0  0  0
 27 28  1  0  0  0  0
 29 30  1  0  0  0  0
M  END
> <PUBCHEM_COMPOUND_ID_TYPE>
0

> <PUBCHEM_TOTAL_CHARGE>
0

> <PUBCHEM_SUBSTANCE_ID>
310930406

> <PUBCHEM_SUBSTANCE_VERSION>
1

> <PUBCHEM_EXT_DATASOURCE_NAME>
4488

> <PUBCHEM_EXT_DATASOURCE_REGID>
SCHEMBL16107693

> <PUBCHEM_SUBSTANCE_COMMENT>
InChI=1S/C22H18N4O4/c27-19(12-13-20(28)29)24-18-11-10-17(21-22(18)26-30-25-21)23-16-9-5-4-8-15(16)14-6-2-1-3-7-14/h1-11,23H,12-13H2,(H,24,27)(H,28,29)
InChIKey=GPXGXEAUMQWLSL-UHFFFAOYSA-N

> <PUBCHEM_SUBSTANCE_SYNONYM>
SCHEMBL16107693

> <PUBCHEM_XREF_EXT_ID>
SCHEMBL16107693

> <PUBCHEM_EXT_DATASOURCE_URL>
https://www.surechembl.org/

> <PUBCHEM_EXT_SUBSTANCE_URL>
https://www.surechembl.org/chemical/SCHEMBL16107693

> <PUBCHEM_CID_ASSOCIATIONS>
71517742  1

> <PUBCHEM_COORDINATE_TYPE>
1
3

$$$$
