310940935
  -OEChem-07211613022D

 42 45  0     1  0  0  0  0  0999 V2000
    5.0869    0.6651    0.0000 O   0  0  0  0  0  0  0  0  0  0  0  0
    3.9613   -1.2936    0.0000 O   0  0  0  0  0  0  0  0  0  0  0  0
    1.7980    0.7820    0.0000 O   0  0  0  0  0  0  0  0  0  0  0  0
   -0.3654   -1.2936    0.0000 O   0  0  0  0  0  0  0  0  0  0  0  0
   -2.5142    0.7820    0.0000 O   0  0  0  0  0  0  0  0  0  0  0  0
    3.9613   -2.9455    0.0000 O   0  0  0  0  0  0  0  0  0  0  0  0
   -5.3939   -1.7029    0.0000 O   0  0  0  0  0  0  0  0  0  0  0  0
    2.5289   -0.4604    0.0000 N   0  0  0  0  0  0  0  0  0  0  0  0
    0.3654   -0.0512    0.0000 N   0  0  0  0  0  0  0  0  0  0  0  0
   -1.7980   -0.4604    0.0000 N   0  0  0  0  0  0  0  0  0  0  0  0
    4.6776   -0.0073    0.0000 C   0  0  3  0  0  0  0  0  0  0  0  0
    3.9613   -0.4312    0.0000 C   0  0  0  0  0  0  0  0  0  0  0  0
    4.2976    0.6797    0.0000 C   0  0  0  0  0  0  0  0  0  0  0  0
    3.2305   -0.0219    0.0000 C   0  0  3  0  0  0  0  0  0  0  0  0
    5.3939   -0.4312    0.0000 C   0  0  0  0  0  0  0  0  0  0  0  0
    3.2451    1.2936    0.0000 C   0  0  0  0  0  0  0  0  0  0  0  0
    1.7980   -0.0366    0.0000 C   0  0  0  0  0  0  0  0  0  0  0  0
    1.0963   -0.4312    0.0000 C   0  0  3  0  0  0  0  0  0  0  0  0
    2.5289    1.7176    0.0000 C   0  0  0  0  0  0  0  0  0  0  0  0
    1.0817   -1.2936    0.0000 C   0  0  0  0  0  0  0  0  0  0  0  0
   -0.3508   -0.4166    0.0000 C   0  0  0  0  0  0  0  0  0  0  0  0
    1.8126   -1.6737    0.0000 C   0  0  0  0  0  0  0  0  0  0  0  0
    2.5289    2.5215    0.0000 C   0  0  0  0  0  0  0  0  0  0  0  0
    1.8126    1.3083    0.0000 C   0  0  0  0  0  0  0  0  0  0  0  0
   -1.0817   -0.0366    0.0000 C   0  0  3  0  0  0  0  0  0  0  0  0
   -2.4996   -0.0366    0.0000 C   0  0  0  0  0  0  0  0  0  0  0  0
   -3.2305   -0.4312    0.0000 C   0  0  0  0  0  0  0  0  0  0  0  0
    1.8272   -2.5069    0.0000 C   0  0  0  0  0  0  0  0  0  0  0  0
    2.5142   -1.2791    0.0000 C   0  0  0  0  0  0  0  0  0  0  0  0
    1.7980    2.9455    0.0000 C   0  0  0  0  0  0  0  0  0  0  0  0
    1.1110    1.7030    0.0000 C   0  0  0  0  0  0  0  0  0  0  0  0
    3.2451   -2.4923    0.0000 C   0  0  0  0  0  0  0  0  0  0  0  0
    2.5289   -2.9162    0.0000 C   0  0  0  0  0  0  0  0  0  0  0  0
    3.2451   -1.6883    0.0000 C   0  0  0  0  0  0  0  0  0  0  0  0
    1.1110    2.5361    0.0000 C   0  0  0  0  0  0  0  0  0  0  0  0
   -3.9613   -0.0366    0.0000 C   0  0  0  0  0  0  0  0  0  0  0  0
   -3.2305   -1.2644    0.0000 C   0  0  0  0  0  0  0  0  0  0  0  0
   -1.0670    0.7820    0.0000 C   0  0  0  0  0  0  0  0  0  0  0  0
   -4.6630   -1.2644    0.0000 C   0  0  0  0  0  0  0  0  0  0  0  0
   -4.6630   -0.4459    0.0000 C   0  0  0  0  0  0  0  0  0  0  0  0
   -3.9468   -1.6737    0.0000 C   0  0  0  0  0  0  0  0  0  0  0  0
    4.7069   -2.4923    0.0000 C   0  0  0  0  0  0  0  0  0  0  0  0
  1 11  1  0  0  0  0
  1 13  1  0  0  0  0
  2 12  2  0  0  0  0
  3 17  2  0  0  0  0
  4 21  2  0  0  0  0
  5 26  2  0  0  0  0
  6 32  1  0  0  0  0
  6 42  1  0  0  0  0
 39  7  1  6  0  0  0
 14  8  1  1  0  0  0
  8 17  1  0  0  0  0
 18  9  1  6  0  0  0
  9 21  1  0  0  0  0
 10 25  1  0  0  0  0
 10 26  1  0  0  0  0
 11 12  1  1  0  0  0
 11 13  1  0  0  0  0
 11 15  1  6  0  0  0
 12 14  1  0  0  0  0
 14 16  1  0  0  0  0
 16 19  1  0  0  0  0
 17 18  1  0  0  0  0
 18 20  1  0  0  0  0
 19 23  2  0  0  0  0
 19 24  1  0  0  0  0
 20 22  1  0  0  0  0
 21 25  1  0  0  0  0
 22 28  2  0  0  0  0
 22 29  1  0  0  0  0
 23 30  1  0  0  0  0
 24 31  2  0  0  0  0
 25 38  1  6  0  0  0
 27 26  1  1  0  0  0
 27 36  1  0  0  0  0
 27 37  1  0  0  0  0
 28 33  1  0  0  0  0
 29 34  2  0  0  0  0
 30 35  2  0  0  0  0
 31 35  1  0  0  0  0
 32 33  2  0  0  0  0
 32 34  1  0  0  0  0
 36 40  1  0  0  0  0
 37 41  1  0  0  0  0
 39 40  1  0  0  0  0
 39 41  1  0  0  0  0
M  END
> <PUBCHEM_COMPOUND_ID_TYPE>
0

> <PUBCHEM_TOTAL_CHARGE>
0

> <PUBCHEM_SUBSTANCE_ID>
310940935

> <PUBCHEM_SUBSTANCE_VERSION>
1

> <PUBCHEM_EXT_DATASOURCE_NAME>
4488

> <PUBCHEM_EXT_DATASOURCE_REGID>
SCHEMBL16118894

> <PUBCHEM_SUBSTANCE_COMMENT>
InChI=1S/C32H41N3O7/c1-20(33-30(39)23-11-13-24(36)14-12-23)29(38)35-27(18-22-9-15-25(41-3)16-10-22)31(40)34-26(28(37)32(2)19-42-32)17-21-7-5-4-6-8-21/h4-10,15-16,20,23-24,26-27,36H,11-14,17-19H2,1-3H3,(H,33,39)(H,34,40)(H,35,38)/t20-,23-,24-,26+,27+,32-/m1/s1
InChIKey=DMAYUUDCUFRNPK-JTRPPKJJSA-N

> <PUBCHEM_SUBSTANCE_SYNONYM>
SCHEMBL16118894

> <PUBCHEM_XREF_EXT_ID>
SCHEMBL16118894

> <PUBCHEM_EXT_DATASOURCE_URL>
https://www.surechembl.org/

> <PUBCHEM_EXT_SUBSTANCE_URL>
https://www.surechembl.org/chemical/SCHEMBL16118894

> <PUBCHEM_CID_ASSOCIATIONS>
117607839  1

> <PUBCHEM_COORDINATE_TYPE>
1
3

> <PUBCHEM_BONDANNOTATIONS>
11  12  5
11  15  6
25  38  6
27  26  5
39  7  6
14  8  5
18  9  6

$$$$
