310941804
  -OEChem-07211613022D

 25 29  0     0  0  0  0  0  0999 V2000
   -0.0902   -0.6523    0.0000 O   0  0  0  0  0  0  0  0  0  0  0  0
    2.0888    0.5829    0.0000 N   0  0  0  0  0  0  0  0  0  0  0  0
    1.5475    1.8182    0.0000 N   0  0  0  0  0  0  0  0  0  0  0  0
    2.3803    1.9015    0.0000 N   0  0  0  0  0  0  0  0  0  0  0  0
    3.5323    0.9716    0.0000 N   0  0  0  0  0  0  0  0  0  0  0  0
   -1.5475   -0.6385    0.0000 C   0  0  0  0  0  0  0  0  0  0  0  0
    1.3672    1.0132    0.0000 C   0  0  0  0  0  0  0  0  0  0  0  0
    0.6315   -0.2359    0.0000 C   0  0  0  0  0  0  0  0  0  0  0  0
    1.3672   -0.6523    0.0000 C   0  0  0  0  0  0  0  0  0  0  0  0
   -3.1437   -0.6385    0.0000 C   0  0  0  0  0  0  0  0  0  0  0  0
   -2.7690   -0.1666    0.0000 C   0  0  0  0  0  0  0  0  0  0  0  0
   -2.3526   -1.6516    0.0000 C   0  0  0  0  0  0  0  0  0  0  0  0
   -1.9362    0.0555    0.0000 C   0  0  0  0  0  0  0  0  0  0  0  0
   -1.5475   -1.4713    0.0000 C   0  0  0  0  0  0  0  0  0  0  0  0
   -2.2970   -0.4303    0.0000 C   0  0  0  0  0  0  0  0  0  0  0  0
   -0.8259   -0.2498    0.0000 C   0  0  0  0  0  0  0  0  0  0  0  0
    0.6593    0.5968    0.0000 C   0  0  0  0  0  0  0  0  0  0  0  0
    2.0750   -0.2359    0.0000 C   0  0  0  0  0  0  0  0  0  0  0  0
    2.6996    1.1520    0.0000 C   0  0  0  0  0  0  0  0  0  0  0  0
   -3.5323    0.0416    0.0000 C   0  0  0  0  0  0  0  0  0  0  0  0
   -3.1437   -1.4713    0.0000 C   0  0  0  0  0  0  0  0  0  0  0  0
   -2.7551   -0.9993    0.0000 C   0  0  0  0  0  0  0  0  0  0  0  0
    1.3533   -1.4713    0.0000 C   0  0  0  0  0  0  0  0  0  0  0  0
    0.6315   -1.9015    0.0000 C   0  0  0  0  0  0  0  0  0  0  0  0
    2.0888   -1.8876    0.0000 C   0  0  0  0  0  0  0  0  0  0  0  0
  1  8  1  0  0  0  0
  1 16  1  0  0  0  0
  2  7  1  0  0  0  0
  2 18  1  0  0  0  0
  2 19  1  0  0  0  0
  3  4  1  0  0  0  0
  3  7  2  0  0  0  0
  4 19  2  0  0  0  0
  5 19  1  0  0  0  0
  6 13  1  0  0  0  0
  6 14  1  0  0  0  0
  6 15  1  0  0  0  0
  6 16  1  0  0  0  0
  7 17  1  0  0  0  0
  8  9  1  0  0  0  0
  8 17  2  0  0  0  0
  9 18  2  0  0  0  0
  9 23  1  0  0  0  0
 10 15  1  0  0  0  0
 10 20  1  0  0  0  0
 10 21  1  0  0  0  0
 11 13  1  0  0  0  0
 11 20  1  0  0  0  0
 11 22  1  0  0  0  0
 12 14  1  0  0  0  0
 12 21  1  0  0  0  0
 12 22  1  0  0  0  0
 23 24  1  0  0  0  0
 23 25  1  0  0  0  0
M  END
> <PUBCHEM_COMPOUND_ID_TYPE>
0

> <PUBCHEM_TOTAL_CHARGE>
0

> <PUBCHEM_SUBSTANCE_ID>
310941804

> <PUBCHEM_SUBSTANCE_VERSION>
1

> <PUBCHEM_EXT_DATASOURCE_NAME>
4488

> <PUBCHEM_EXT_DATASOURCE_REGID>
SCHEMBL16119835

> <PUBCHEM_SUBSTANCE_COMMENT>
InChI=1S/C20H28N4O/c1-12(2)16-10-24-18(22-23-19(24)21)6-17(16)25-11-20-7-13-3-14(8-20)5-15(4-13)9-20/h6,10,12-15H,3-5,7-9,11H2,1-2H3,(H2,21,23)
InChIKey=HTUVUIRYKWQHNW-UHFFFAOYSA-N

> <PUBCHEM_SUBSTANCE_SYNONYM>
SCHEMBL16119835

> <PUBCHEM_XREF_EXT_ID>
SCHEMBL16119835

> <PUBCHEM_EXT_DATASOURCE_URL>
https://www.surechembl.org/

> <PUBCHEM_EXT_SUBSTANCE_URL>
https://www.surechembl.org/chemical/SCHEMBL16119835

> <PUBCHEM_CID_ASSOCIATIONS>
86270328  1

> <PUBCHEM_COORDINATE_TYPE>
1
3

$$$$
