310936722
  -OEChem-07211613022D

 20 22  0     0  0  0  0  0  0999 V2000
    4.1455   -0.7094    0.0000 O   0  0  0  0  0  0  0  0  0  0  0  0
    2.5050   -3.5691    0.0000 O   0  0  0  0  0  0  0  0  0  0  0  0
    0.4434   -4.2785    0.0000 N   0  0  0  0  0  0  0  0  0  0  0  0
    6.2293    0.0000    0.0000 N   0  0  0  0  0  0  0  0  0  0  0  0
    3.7465   -1.4410    0.0000 C   0  0  0  0  0  0  0  0  0  0  0  0
    2.9262   -2.8597    0.0000 C   0  0  0  0  0  0  0  0  0  0  0  0
    1.6848   -3.5691    0.0000 C   0  0  0  0  0  0  0  0  0  0  0  0
    4.9879   -0.7094    0.0000 C   0  0  0  0  0  0  0  0  0  0  0  0
    3.7465   -2.8597    0.0000 C   0  0  0  0  0  0  0  0  0  0  0  0
    4.1455   -2.1503    0.0000 C   0  0  0  0  0  0  0  0  0  0  0  0
    2.9262   -1.4410    0.0000 C   0  0  0  0  0  0  0  0  0  0  0  0
    2.5050   -2.1503    0.0000 C   0  0  0  0  0  0  0  0  0  0  0  0
    1.2414   -4.2785    0.0000 C   0  0  0  0  0  0  0  0  0  0  0  0
    5.4091    0.0000    0.0000 C   0  0  0  0  0  0  0  0  0  0  0  0
    1.2414   -2.8597    0.0000 C   0  0  0  0  0  0  0  0  0  0  0  0
    5.4091   -1.4188    0.0000 C   0  0  0  0  0  0  0  0  0  0  0  0
    0.4434   -2.8597    0.0000 C   0  0  0  0  0  0  0  0  0  0  0  0
    6.2293   -1.4188    0.0000 C   0  0  0  0  0  0  0  0  0  0  0  0
    0.0000   -3.5691    0.0000 C   0  0  0  0  0  0  0  0  0  0  0  0
    6.6506   -0.7094    0.0000 C   0  0  0  0  0  0  0  0  0  0  0  0
  1  5  1  0  0  0  0
  1  8  1  0  0  0  0
  2  6  1  0  0  0  0
  2  7  1  0  0  0  0
  3 13  1  0  0  0  0
  3 19  2  0  0  0  0
  4 14  1  0  0  0  0
  4 20  2  0  0  0  0
  5 10  2  0  0  0  0
  5 11  1  0  0  0  0
  6  9  2  0  0  0  0
  6 12  1  0  0  0  0
  7 13  2  0  0  0  0
  7 15  1  0  0  0  0
  8 14  2  0  0  0  0
  8 16  1  0  0  0  0
  9 10  1  0  0  0  0
 11 12  2  0  0  0  0
 15 17  2  0  0  0  0
 16 18  2  0  0  0  0
 17 19  1  0  0  0  0
 18 20  1  0  0  0  0
M  END
> <PUBCHEM_COMPOUND_ID_TYPE>
0

> <PUBCHEM_TOTAL_CHARGE>
0

> <PUBCHEM_SUBSTANCE_ID>
310936722

> <PUBCHEM_SUBSTANCE_VERSION>
1

> <PUBCHEM_EXT_DATASOURCE_NAME>
4488

> <PUBCHEM_EXT_DATASOURCE_REGID>
SCHEMBL16114401

> <PUBCHEM_SUBSTANCE_COMMENT>
InChI=1S/C16H12N2O2/c1-3-15(11-17-9-1)19-13-5-7-14(8-6-13)20-16-4-2-10-18-12-16/h1-12H
InChIKey=DTPQYDAIOFINNC-UHFFFAOYSA-N

> <PUBCHEM_SUBSTANCE_SYNONYM>
SCHEMBL16114401

> <PUBCHEM_XREF_EXT_ID>
SCHEMBL16114401

> <PUBCHEM_EXT_DATASOURCE_URL>
https://www.surechembl.org/

> <PUBCHEM_EXT_SUBSTANCE_URL>
https://www.surechembl.org/chemical/SCHEMBL16114401

> <PUBCHEM_CID_ASSOCIATIONS>
71358326  1

> <PUBCHEM_COORDINATE_TYPE>
1
3

$$$$
