310941164
  -OEChem-07211613022D

 41 44  0     1  0  0  0  0  0999 V2000
    5.2028    0.9849    0.0000 O   0  0  0  0  0  0  0  0  0  0  0  0
    4.0752   -0.9849    0.0000 O   0  0  0  0  0  0  0  0  0  0  0  0
    1.7057    0.9706    0.0000 O   0  0  0  0  0  0  0  0  0  0  0  0
   -0.4496   -1.0991    0.0000 O   0  0  0  0  0  0  0  0  0  0  0  0
   -2.6192    0.9706    0.0000 O   0  0  0  0  0  0  0  0  0  0  0  0
    3.8611   -2.7692    0.0000 O   0  0  0  0  0  0  0  0  0  0  0  0
    2.4194   -0.2712    0.0000 N   0  0  0  0  0  0  0  0  0  0  0  0
    0.2641    0.1427    0.0000 N   0  0  0  0  0  0  0  0  0  0  0  0
   -1.8913   -0.2712    0.0000 N   0  0  0  0  0  0  0  0  0  0  0  0
   -4.7604   -1.0991    0.0000 N   0  0  0  0  0  0  0  0  0  0  0  0
    4.7746    0.3283    0.0000 C   0  0  3  0  0  0  0  0  0  0  0  0
    4.0609   -0.1142    0.0000 C   0  0  0  0  0  0  0  0  0  0  0  0
    4.4035    0.9992    0.0000 C   0  0  0  0  0  0  0  0  0  0  0  0
    3.3330    0.2998    0.0000 C   0  0  3  0  0  0  0  0  0  0  0  0
    5.5026   -0.1142    0.0000 C   0  0  0  0  0  0  0  0  0  0  0  0
    3.3472    1.3703    0.0000 C   0  0  0  0  0  0  0  0  0  0  0  0
    1.6915    0.1570    0.0000 C   0  0  0  0  0  0  0  0  0  0  0  0
    0.9920   -0.2426    0.0000 C   0  0  3  0  0  0  0  0  0  0  0  0
    2.6192    1.7985    0.0000 C   0  0  0  0  0  0  0  0  0  0  0  0
    0.9635   -1.0848    0.0000 C   0  0  0  0  0  0  0  0  0  0  0  0
   -0.4496   -0.2284    0.0000 C   0  0  0  0  0  0  0  0  0  0  0  0
    1.7057   -1.4845    0.0000 C   0  0  0  0  0  0  0  0  0  0  0  0
    2.5479    2.6121    0.0000 C   0  0  0  0  0  0  0  0  0  0  0  0
    1.8913    1.4559    0.0000 C   0  0  0  0  0  0  0  0  0  0  0  0
   -1.1919    0.1713    0.0000 C   0  0  3  0  0  0  0  0  0  0  0  0
   -2.6192    0.1570    0.0000 C   0  0  0  0  0  0  0  0  0  0  0  0
    1.7486    2.7692    0.0000 C   0  0  0  0  0  0  0  0  0  0  0  0
    1.3346    2.0697    0.0000 C   0  0  0  0  0  0  0  0  0  0  0  0
   -3.3187   -0.2426    0.0000 C   0  0  0  0  0  0  0  0  0  0  0  0
    1.7200   -2.3267    0.0000 C   0  0  0  0  0  0  0  0  0  0  0  0
    2.4194   -1.0991    0.0000 C   0  0  0  0  0  0  0  0  0  0  0  0
    3.1331   -2.3124    0.0000 C   0  0  0  0  0  0  0  0  0  0  0  0
    2.4194   -2.7263    0.0000 C   0  0  0  0  0  0  0  0  0  0  0  0
    3.1331   -1.4988    0.0000 C   0  0  0  0  0  0  0  0  0  0  0  0
   -3.3330   -1.0705    0.0000 C   0  0  0  0  0  0  0  0  0  0  0  0
   -4.0609    0.1713    0.0000 C   0  0  0  0  0  0  0  0  0  0  0  0
   -1.1776    0.9849    0.0000 C   0  0  0  0  0  0  0  0  0  0  0  0
   -4.0467   -1.4845    0.0000 C   0  0  0  0  0  0  0  0  0  0  0  0
   -4.7604   -0.2426    0.0000 C   0  0  0  0  0  0  0  0  0  0  0  0
   -5.5026   -1.4845    0.0000 C   0  0  0  0  0  0  0  0  0  0  0  0
    4.5891   -2.3267    0.0000 C   0  0  0  0  0  0  0  0  0  0  0  0
  1 11  1  0  0  0  0
  1 13  1  0  0  0  0
  2 12  2  0  0  0  0
  3 17  2  0  0  0  0
  4 21  2  0  0  0  0
  5 26  2  0  0  0  0
  6 32  1  0  0  0  0
  6 41  1  0  0  0  0
 14  7  1  1  0  0  0
  7 17  1  0  0  0  0
 18  8  1  6  0  0  0
  8 21  1  0  0  0  0
  9 25  1  0  0  0  0
  9 26  1  0  0  0  0
 10 38  1  0  0  0  0
 10 39  1  0  0  0  0
 10 40  1  0  0  0  0
 11 12  1  1  0  0  0
 11 13  1  0  0  0  0
 11 15  1  6  0  0  0
 12 14  1  0  0  0  0
 14 16  1  0  0  0  0
 16 19  1  0  0  0  0
 17 18  1  0  0  0  0
 18 20  1  0  0  0  0
 19 23  2  0  0  0  0
 19 24  1  0  0  0  0
 20 22  1  0  0  0  0
 21 25  1  0  0  0  0
 22 30  2  0  0  0  0
 22 31  1  0  0  0  0
 23 27  1  0  0  0  0
 24 28  1  0  0  0  0
 25 37  1  6  0  0  0
 26 29  1  0  0  0  0
 27 28  1  0  0  0  0
 29 35  1  0  0  0  0
 29 36  1  0  0  0  0
 30 33  1  0  0  0  0
 31 34  2  0  0  0  0
 32 33  2  0  0  0  0
 32 34  1  0  0  0  0
 35 38  1  0  0  0  0
 36 39  1  0  0  0  0
M  END
> <PUBCHEM_COMPOUND_ID_TYPE>
0

> <PUBCHEM_TOTAL_CHARGE>
0

> <PUBCHEM_SUBSTANCE_ID>
310941164

> <PUBCHEM_SUBSTANCE_VERSION>
1

> <PUBCHEM_EXT_DATASOURCE_NAME>
4488

> <PUBCHEM_EXT_DATASOURCE_REGID>
SCHEMBL16119124

> <PUBCHEM_SUBSTANCE_COMMENT>
InChI=1S/C31H44N4O6/c1-20(32-29(38)23-13-15-35(3)16-14-23)28(37)34-26(18-22-9-11-24(40-4)12-10-22)30(39)33-25(17-21-7-5-6-8-21)27(36)31(2)19-41-31/h7,9-12,20,23,25-26H,5-6,8,13-19H2,1-4H3,(H,32,38)(H,33,39)(H,34,37)/t20-,25+,26+,31-/m1/s1
InChIKey=CFCWMISOQIGVBH-OTXFKJLGSA-N

> <PUBCHEM_SUBSTANCE_SYNONYM>
SCHEMBL16119124

> <PUBCHEM_XREF_EXT_ID>
SCHEMBL16119124

> <PUBCHEM_EXT_DATASOURCE_URL>
https://www.surechembl.org/

> <PUBCHEM_EXT_SUBSTANCE_URL>
https://www.surechembl.org/chemical/SCHEMBL16119124

> <PUBCHEM_CID_ASSOCIATIONS>
117608040  1

> <PUBCHEM_COORDINATE_TYPE>
1
3

> <PUBCHEM_BONDANNOTATIONS>
11  12  5
11  15  6
25  37  6
14  7  5
18  8  6

$$$$
