310931644
  -OEChem-07211613022D

 28 30  0     0  0  0  0  0  0999 V2000
    3.9931   -2.0790    0.0000 O   0  0  0  0  0  0  0  0  0  0  0  0
    8.4482   -2.1780    0.0000 O   0  0  0  0  0  0  0  0  0  0  0  0
    9.1742   -5.8741    0.0000 O   0  0  0  0  0  0  0  0  0  0  0  0
    4.8841   -0.9570    0.0000 N   0  0  0  0  0  0  0  0  0  0  0  0
    4.7851   -0.1320    0.0000 N   0  0  0  0  0  0  0  0  0  0  0  0
    6.3031   -0.9570    0.0000 N   0  0  0  0  0  0  0  0  0  0  0  0
    7.7222   -3.3991    0.0000 N   0  0  0  0  0  0  0  0  0  0  0  0
    0.0000   -1.8150    0.0000 N   0  0  0  0  0  0  0  0  0  0  0  0
    3.5641   -0.6930    0.0000 C   0  0  0  0  0  0  0  0  0  0  0  0
    4.1581   -1.2870    0.0000 C   0  0  0  0  0  0  0  0  0  0  0  0
    5.6101   -1.3530    0.0000 C   0  0  0  0  0  0  0  0  0  0  0  0
    2.7720   -0.7920    0.0000 C   0  0  0  0  0  0  0  0  0  0  0  0
    3.9931    0.0000    0.0000 C   0  0  0  0  0  0  0  0  0  0  0  0
    5.6101   -2.1780    0.0000 C   0  0  0  0  0  0  0  0  0  0  0  0
    7.0291   -2.1780    0.0000 C   0  0  0  0  0  0  0  0  0  0  0  0
    2.4420   -1.5510    0.0000 C   0  0  0  0  0  0  0  0  0  0  0  0
    2.2770   -0.1320    0.0000 C   0  0  0  0  0  0  0  0  0  0  0  0
    7.0291   -1.3530    0.0000 C   0  0  0  0  0  0  0  0  0  0  0  0
    6.3031   -2.5741    0.0000 C   0  0  0  0  0  0  0  0  0  0  0  0
    7.7222   -2.5741    0.0000 C   0  0  0  0  0  0  0  0  0  0  0  0
    1.1220   -0.9570    0.0000 C   0  0  0  0  0  0  0  0  0  0  0  0
    1.6170   -1.6170    0.0000 C   0  0  0  0  0  0  0  0  0  0  0  0
    1.4520   -0.2310    0.0000 C   0  0  0  0  0  0  0  0  0  0  0  0
    0.3300   -1.0560    0.0000 C   0  0  0  0  0  0  0  0  0  0  0  0
    8.4482   -3.8281    0.0000 C   0  0  0  0  0  0  0  0  0  0  0  0
    8.4482   -4.6531    0.0000 C   0  0  0  0  0  0  0  0  0  0  0  0
    9.1742   -5.0491    0.0000 C   0  0  0  0  0  0  0  0  0  0  0  0
    9.9002   -6.2701    0.0000 C   0  0  0  0  0  0  0  0  0  0  0  0
  1 10  1  0  0  0  0
  2 20  2  0  0  0  0
  3 27  1  0  0  0  0
  3 28  1  0  0  0  0
  4  5  1  0  0  0  0
  4 10  1  0  0  0  0
  4 11  1  0  0  0  0
  5 13  2  0  0  0  0
  6 11  2  0  0  0  0
  6 18  1  0  0  0  0
  7 20  1  0  0  0  0
  7 25  1  0  0  0  0
  8 24  3  0  0  0  0
  9 10  2  0  0  0  0
  9 12  1  0  0  0  0
  9 13  1  0  0  0  0
 11 14  1  0  0  0  0
 12 16  2  0  0  0  0
 12 17  1  0  0  0  0
 14 19  2  0  0  0  0
 15 18  2  0  0  0  0
 15 19  1  0  0  0  0
 15 20  1  0  0  0  0
 16 22  1  0  0  0  0
 17 23  2  0  0  0  0
 21 22  2  0  0  0  0
 21 23  1  0  0  0  0
 21 24  1  0  0  0  0
 25 26  1  0  0  0  0
 26 27  1  0  0  0  0
M  END
> <PUBCHEM_COMPOUND_ID_TYPE>
0

> <PUBCHEM_TOTAL_CHARGE>
0

> <PUBCHEM_SUBSTANCE_ID>
310931644

> <PUBCHEM_SUBSTANCE_VERSION>
1

> <PUBCHEM_EXT_DATASOURCE_NAME>
4488

> <PUBCHEM_EXT_DATASOURCE_REGID>
SCHEMBL16108970

> <PUBCHEM_SUBSTANCE_COMMENT>
InChI=1S/C20H19N5O3/c1-28-10-2-9-22-19(26)16-7-8-18(23-12-16)25-20(27)17(13-24-25)15-5-3-14(11-21)4-6-15/h3-8,12-13,27H,2,9-10H2,1H3,(H,22,26)
InChIKey=CTBUJEYKMRITMP-UHFFFAOYSA-N

> <PUBCHEM_SUBSTANCE_SYNONYM>
SCHEMBL16108970

> <PUBCHEM_XREF_EXT_ID>
SCHEMBL16108970

> <PUBCHEM_EXT_DATASOURCE_URL>
https://www.surechembl.org/

> <PUBCHEM_EXT_SUBSTANCE_URL>
https://www.surechembl.org/chemical/SCHEMBL16108970

> <PUBCHEM_CID_ASSOCIATIONS>
117600355  1

> <PUBCHEM_COORDINATE_TYPE>
1
3

$$$$
