310933912
  -OEChem-07211613022D

 30 32  0     0  0  0  0  0  0999 V2000
    5.0624   -0.8250    0.0000 S   0  0  0  0  0  0  0  0  0  0  0  0
    5.7749   -4.5749    0.0000 O   0  0  0  0  0  0  0  0  0  0  0  0
    4.3124   -4.5749    0.0000 O   0  0  0  0  0  0  0  0  0  0  0  0
    5.8874   -0.8250    0.0000 O   0  0  0  0  0  0  0  0  0  0  0  0
    4.1999   -0.8250    0.0000 O   0  0  0  0  0  0  0  0  0  0  0  0
    2.9250   -3.7499    0.0000 O   0  0  0  0  0  0  0  0  0  0  0  0
    5.0624   -1.6499    0.0000 N   0  0  0  0  0  0  0  0  0  0  0  0
    3.5999   -4.9874    0.0000 N   0  0  0  0  0  0  0  0  0  0  0  0
    5.0624   -3.3374    0.0000 C   0  0  0  0  0  0  0  0  0  0  0  0
    5.0624   -4.1624    0.0000 C   0  0  0  0  0  0  0  0  0  0  0  0
    5.7749   -2.9250    0.0000 C   0  0  0  0  0  0  0  0  0  0  0  0
    4.3124   -2.9250    0.0000 C   0  0  0  0  0  0  0  0  0  0  0  0
    4.3124   -3.7499    0.0000 C   0  0  0  0  0  0  0  0  0  0  0  0
    5.7749   -2.0624    0.0000 C   0  0  0  0  0  0  0  0  0  0  0  0
    4.3124   -2.0624    0.0000 C   0  0  0  0  0  0  0  0  0  0  0  0
    4.4999   -4.7623    0.0000 C   0  0  0  0  0  0  0  0  0  0  0  0
    2.8874   -4.5749    0.0000 C   0  0  0  0  0  0  0  0  0  0  0  0
    2.1375   -5.8123    0.0000 C   0  0  0  0  0  0  0  0  0  0  0  0
    2.1375   -4.9874    0.0000 C   0  0  0  0  0  0  0  0  0  0  0  0
    3.5999   -5.8498    0.0000 C   0  0  0  0  0  0  0  0  0  0  0  0
    1.4250   -6.2623    0.0000 C   0  0  0  0  0  0  0  0  0  0  0  0
    2.8499   -6.2623    0.0000 C   0  0  0  0  0  0  0  0  0  0  0  0
    5.0624    0.0000    0.0000 C   0  0  0  0  0  0  0  0  0  0  0  0
    6.4873   -4.1624    0.0000 C   0  0  0  0  0  0  0  0  0  0  0  0
    1.4250   -7.0873    0.0000 C   0  0  0  0  0  0  0  0  0  0  0  0
    0.7125   -5.8498    0.0000 C   0  0  0  0  0  0  0  0  0  0  0  0
    0.7125   -7.4998    0.0000 C   0  0  0  0  0  0  0  0  0  0  0  0
    0.0000   -6.2623    0.0000 C   0  0  0  0  0  0  0  0  0  0  0  0
    0.0000   -7.0873    0.0000 C   0  0  0  0  0  0  0  0  0  0  0  0
    6.4873   -3.3374    0.0000 C   0  0  0  0  0  0  0  0  0  0  0  0
  1  4  2  0  0  0  0
  1  5  2  0  0  0  0
  1  7  1  0  0  0  0
  1 23  1  0  0  0  0
  2 10  1  0  0  0  0
  2 24  1  0  0  0  0
  3 10  2  0  0  0  0
  6 17  2  0  0  0  0
  7 14  1  0  0  0  0
  7 15  1  0  0  0  0
  8 16  1  0  0  0  0
  8 17  1  0  0  0  0
  8 20  1  0  0  0  0
  9 10  1  0  0  0  0
  9 11  1  0  0  0  0
  9 12  1  0  0  0  0
  9 13  1  0  0  0  0
 11 14  1  0  0  0  0
 12 15  1  0  0  0  0
 13 16  1  0  0  0  0
 17 19  1  0  0  0  0
 18 19  2  0  0  0  0
 18 21  1  0  0  0  0
 18 22  1  0  0  0  0
 20 22  2  0  0  0  0
 21 25  2  0  0  0  0
 21 26  1  0  0  0  0
 24 30  1  0  0  0  0
 25 27  1  0  0  0  0
 26 28  2  0  0  0  0
 27 29  2  0  0  0  0
 28 29  1  0  0  0  0
M  END
> <PUBCHEM_COMPOUND_ID_TYPE>
0

> <PUBCHEM_TOTAL_CHARGE>
0

> <PUBCHEM_SUBSTANCE_ID>
310933912

> <PUBCHEM_SUBSTANCE_VERSION>
1

> <PUBCHEM_EXT_DATASOURCE_NAME>
4488

> <PUBCHEM_EXT_DATASOURCE_REGID>
SCHEMBL16111351

> <PUBCHEM_SUBSTANCE_COMMENT>
InChI=1S/C22H28N2O5S/c1-3-29-21(26)22(11-15-24(16-12-22)30(2,27)28)10-14-23-13-9-19(17-20(23)25)18-7-5-4-6-8-18/h4-9,13,17H,3,10-12,14-16H2,1-2H3
InChIKey=YPXBMTZJTHRFSV-UHFFFAOYSA-N

> <PUBCHEM_SUBSTANCE_SYNONYM>
SCHEMBL16111351

> <PUBCHEM_XREF_EXT_ID>
SCHEMBL16111351

> <PUBCHEM_EXT_DATASOURCE_URL>
https://www.surechembl.org/

> <PUBCHEM_EXT_SUBSTANCE_URL>
https://www.surechembl.org/chemical/SCHEMBL16111351

> <PUBCHEM_CID_ASSOCIATIONS>
117602240  1

> <PUBCHEM_COORDINATE_TYPE>
1
3

$$$$
