310933276
  -OEChem-07211613022D

 19 20  0     0  0  0  0  0  0999 V2000
    0.7055   -1.3683    0.0000 I   0  0  0  0  0  0  0  0  0  0  0  0
    4.8960   -1.0904    0.0000 O   0  0  0  0  0  0  0  0  0  0  0  0
    2.8649   -4.2760    0.0000 O   0  5  0  0  0  0  0  0  0  0  0  0
    1.4325   -4.2760    0.0000 O   0  0  0  0  0  0  0  0  0  0  0  0
    2.1380   -3.8698    0.0000 N   0  3  0  0  0  0  0  0  0  0  0  0
    4.4898   -0.3635    0.0000 N   0  0  0  0  0  0  0  0  0  0  0  0
    0.7055   -3.0360    0.0000 N   0  0  0  0  0  0  0  0  0  0  0  0
    2.8649   -1.7959    0.0000 C   0  0  0  0  0  0  0  0  0  0  0  0
    3.5919   -1.3683    0.0000 C   0  0  0  0  0  0  0  0  0  0  0  0
    2.1380   -3.0360    0.0000 C   0  0  0  0  0  0  0  0  0  0  0  0
    1.4325   -2.6083    0.0000 C   0  0  0  0  0  0  0  0  0  0  0  0
    2.8649   -2.6083    0.0000 C   0  0  0  0  0  0  0  0  0  0  0  0
    1.4325   -1.7959    0.0000 C   0  0  0  0  0  0  0  0  0  0  0  0
    2.1380   -1.3683    0.0000 C   0  0  0  0  0  0  0  0  0  0  0  0
    4.3401   -1.7104    0.0000 C   0  0  0  0  0  0  0  0  0  0  0  0
    3.6773   -0.5559    0.0000 C   0  0  0  0  0  0  0  0  0  0  0  0
    4.5325   -2.5015    0.0000 C   0  0  0  0  0  0  0  0  0  0  0  0
    3.0574    0.0000    0.0000 C   0  0  0  0  0  0  0  0  0  0  0  0
    0.0000   -2.6083    0.0000 C   0  0  0  0  0  0  0  0  0  0  0  0
  1 13  1  0  0  0  0
  2  6  1  0  0  0  0
  2 15  1  0  0  0  0
  3  5  1  0  0  0  0
  4  5  2  0  0  0  0
  5 10  1  0  0  0  0
  6 16  2  0  0  0  0
  7 11  1  0  0  0  0
  7 19  1  0  0  0  0
  8  9  1  0  0  0  0
  8 12  1  0  0  0  0
  8 14  2  0  0  0  0
  9 15  2  0  0  0  0
  9 16  1  0  0  0  0
 10 11  1  0  0  0  0
 10 12  2  0  0  0  0
 11 13  2  0  0  0  0
 13 14  1  0  0  0  0
 15 17  1  0  0  0  0
 16 18  1  0  0  0  0
M  CHG  2   3  -1   5   1
M  END
> <PUBCHEM_COMPOUND_ID_TYPE>
0

> <PUBCHEM_TOTAL_CHARGE>
0

> <PUBCHEM_SUBSTANCE_ID>
310933276

> <PUBCHEM_SUBSTANCE_VERSION>
1

> <PUBCHEM_EXT_DATASOURCE_NAME>
4488

> <PUBCHEM_EXT_DATASOURCE_REGID>
SCHEMBL16110687

> <PUBCHEM_SUBSTANCE_COMMENT>
InChI=1S/C12H12IN3O3/c1-6-11(7(2)19-15-6)8-4-9(13)12(14-3)10(5-8)16(17)18/h4-5,14H,1-3H3
InChIKey=KKZVVQIJRJOMHV-UHFFFAOYSA-N

> <PUBCHEM_SUBSTANCE_SYNONYM>
SCHEMBL16110687

> <PUBCHEM_XREF_EXT_ID>
SCHEMBL16110687

> <PUBCHEM_EXT_DATASOURCE_URL>
https://www.surechembl.org/

> <PUBCHEM_EXT_SUBSTANCE_URL>
https://www.surechembl.org/chemical/SCHEMBL16110687

> <PUBCHEM_CID_ASSOCIATIONS>
117601702  1

> <PUBCHEM_COORDINATE_TYPE>
1
3

$$$$
