310942804
  -OEChem-07211613022D

 19 21  0     0  0  0  0  0  0999 V2000
   -3.0216   -1.4556    0.0000 Cl  0  0  0  0  0  0  0  0  0  0  0  0
   -1.2713    1.0502    0.0000 O   0  0  0  0  0  0  0  0  0  0  0  0
    0.8844   -0.2026    0.0000 O   0  0  0  0  0  0  0  0  0  0  0  0
   -0.5527   -0.2026    0.0000 C   0  0  0  0  0  0  0  0  0  0  0  0
   -1.2713    0.2026    0.0000 C   0  0  0  0  0  0  0  0  0  0  0  0
    0.1474    0.2396    0.0000 C   0  0  0  0  0  0  0  0  0  0  0  0
    0.1843    1.0502    0.0000 C   0  0  0  0  0  0  0  0  0  0  0  0
   -0.5527   -1.0502    0.0000 C   0  0  0  0  0  0  0  0  0  0  0  0
   -1.9531   -0.2026    0.0000 C   0  0  0  0  0  0  0  0  0  0  0  0
   -0.5527    1.4556    0.0000 C   0  0  0  0  0  0  0  0  0  0  0  0
   -1.9714   -1.0318    0.0000 C   0  0  0  0  0  0  0  0  0  0  0  0
    0.8659    1.4556    0.0000 C   0  0  0  0  0  0  0  0  0  0  0  0
   -1.2528   -1.4371    0.0000 C   0  0  0  0  0  0  0  0  0  0  0  0
    1.6214    1.0502    0.0000 C   0  0  0  0  0  0  0  0  0  0  0  0
    1.6214    0.2026    0.0000 C   0  0  0  0  0  0  0  0  0  0  0  0
    2.3031    1.4556    0.0000 C   0  0  0  0  0  0  0  0  0  0  0  0
    2.3031   -0.1843    0.0000 C   0  0  0  0  0  0  0  0  0  0  0  0
    3.0216    1.0502    0.0000 C   0  0  0  0  0  0  0  0  0  0  0  0
    3.0216    0.2211    0.0000 C   0  0  0  0  0  0  0  0  0  0  0  0
  1 11  1  0  0  0  0
  2  5  1  0  0  0  0
  2 10  1  0  0  0  0
  3  6  2  0  0  0  0
  4  5  1  0  0  0  0
  4  6  1  0  0  0  0
  4  8  2  0  0  0  0
  5  9  2  0  0  0  0
  6  7  1  0  0  0  0
  7 10  2  0  0  0  0
  7 12  1  0  0  0  0
  8 13  1  0  0  0  0
  9 11  1  0  0  0  0
 11 13  2  0  0  0  0
 12 14  1  0  0  0  0
 14 15  2  0  0  0  0
 14 16  1  0  0  0  0
 15 17  1  0  0  0  0
 16 18  2  0  0  0  0
 17 19  2  0  0  0  0
 18 19  1  0  0  0  0
M  END
> <PUBCHEM_COMPOUND_ID_TYPE>
0

> <PUBCHEM_TOTAL_CHARGE>
0

> <PUBCHEM_SUBSTANCE_ID>
310942804

> <PUBCHEM_SUBSTANCE_VERSION>
1

> <PUBCHEM_EXT_DATASOURCE_NAME>
4488

> <PUBCHEM_EXT_DATASOURCE_REGID>
SCHEMBL16120858

> <PUBCHEM_SUBSTANCE_COMMENT>
InChI=1S/C16H11ClO2/c17-13-6-7-14-15(9-13)19-10-12(16(14)18)8-11-4-2-1-3-5-11/h1-7,9-10H,8H2
InChIKey=UBCJLYHTJXYAOJ-UHFFFAOYSA-N

> <PUBCHEM_SUBSTANCE_SYNONYM>
SCHEMBL16120858

> <PUBCHEM_XREF_EXT_ID>
SCHEMBL16120858

> <PUBCHEM_EXT_DATASOURCE_URL>
https://www.surechembl.org/

> <PUBCHEM_EXT_SUBSTANCE_URL>
https://www.surechembl.org/chemical/SCHEMBL16120858

> <PUBCHEM_CID_ASSOCIATIONS>
117609308  1

> <PUBCHEM_COORDINATE_TYPE>
1
3

$$$$
