310949639
  -OEChem-07211613022D

 25 26  0     0  0  0  0  0  0999 V2000
    2.2507   -0.3628    0.0000 O   0  0  0  0  0  0  0  0  0  0  0  0
   -1.0279   -1.8140    0.0000 O   0  0  0  0  0  0  0  0  0  0  0  0
   -2.6673    1.0884    0.0000 O   0  0  0  0  0  0  0  0  0  0  0  0
   -1.4310    0.3628    0.0000 O   0  0  0  0  0  0  0  0  0  0  0  0
    3.8900   -0.3628    0.0000 O   0  0  0  0  0  0  0  0  0  0  0  0
    3.8900    1.0884    0.0000 O   0  0  0  0  0  0  0  0  0  0  0  0
   -1.0279   -0.3628    0.0000 N   0  0  0  0  0  0  0  0  0  0  0  0
    1.8475    1.8140    0.0000 N   0  0  0  0  0  0  0  0  0  0  0  0
   -2.2641   -1.0750    0.0000 C   0  0  0  0  0  0  0  0  0  0  0  0
   -2.6807   -0.3628    0.0000 C   0  0  0  0  0  0  0  0  0  0  0  0
   -1.4445   -1.0750    0.0000 C   0  0  0  0  0  0  0  0  0  0  0  0
   -0.2083   -0.3628    0.0000 C   0  0  0  0  0  0  0  0  0  0  0  0
    1.0145    0.3628    0.0000 C   0  0  0  0  0  0  0  0  0  0  0  0
    1.4310   -0.3493    0.0000 C   0  0  0  0  0  0  0  0  0  0  0  0
    0.2217    0.3628    0.0000 C   0  0  0  0  0  0  0  0  0  0  0  0
    0.2083   -1.0750    0.0000 C   0  0  0  0  0  0  0  0  0  0  0  0
    1.0279   -1.0750    0.0000 C   0  0  0  0  0  0  0  0  0  0  0  0
   -2.6673   -1.8006    0.0000 C   0  0  0  0  0  0  0  0  0  0  0  0
   -2.2507    0.3493    0.0000 C   0  0  0  0  0  0  0  0  0  0  0  0
   -3.4734   -0.3628    0.0000 C   0  0  0  0  0  0  0  0  0  0  0  0
   -3.4869   -1.8006    0.0000 C   0  0  0  0  0  0  0  0  0  0  0  0
    1.4176    1.0750    0.0000 C   0  0  0  0  0  0  0  0  0  0  0  0
   -3.8900   -1.1019    0.0000 C   0  0  0  0  0  0  0  0  0  0  0  0
    2.6807    0.3628    0.0000 C   0  0  0  0  0  0  0  0  0  0  0  0
    3.4734    0.3762    0.0000 C   0  0  0  0  0  0  0  0  0  0  0  0
  1 14  1  0  0  0  0
  1 24  1  0  0  0  0
  2 11  2  0  0  0  0
  3 19  2  0  0  0  0
  4 19  1  0  0  0  0
  5 25  2  0  0  0  0
  6 25  1  0  0  0  0
  7 11  1  0  0  0  0
  7 12  1  0  0  0  0
  8 22  3  0  0  0  0
  9 10  1  0  0  0  0
  9 11  1  0  0  0  0
  9 18  2  0  0  0  0
 10 19  1  0  0  0  0
 10 20  2  0  0  0  0
 12 15  1  0  0  0  0
 12 16  2  0  0  0  0
 13 14  1  0  0  0  0
 13 15  2  0  0  0  0
 13 22  1  0  0  0  0
 14 17  2  0  0  0  0
 16 17  1  0  0  0  0
 18 21  1  0  0  0  0
 20 23  1  0  0  0  0
 21 23  2  0  0  0  0
 24 25  1  0  0  0  0
M  END
> <PUBCHEM_COMPOUND_ID_TYPE>
0

> <PUBCHEM_TOTAL_CHARGE>
0

> <PUBCHEM_SUBSTANCE_ID>
310949639

> <PUBCHEM_SUBSTANCE_VERSION>
1

> <PUBCHEM_EXT_DATASOURCE_NAME>
4488

> <PUBCHEM_EXT_DATASOURCE_REGID>
SCHEMBL16127837

> <PUBCHEM_SUBSTANCE_COMMENT>
InChI=1S/C17H12N2O6/c18-8-10-7-11(5-6-14(10)25-9-15(20)21)19-16(22)12-3-1-2-4-13(12)17(23)24/h1-7H,9H2,(H,19,22)(H,20,21)(H,23,24)
InChIKey=BGMQLCHMHRVPLR-UHFFFAOYSA-N

> <PUBCHEM_SUBSTANCE_SYNONYM>
SCHEMBL16127837

> <PUBCHEM_XREF_EXT_ID>
SCHEMBL16127837

> <PUBCHEM_EXT_DATASOURCE_URL>
https://www.surechembl.org/

> <PUBCHEM_EXT_SUBSTANCE_URL>
https://www.surechembl.org/chemical/SCHEMBL16127837

> <PUBCHEM_CID_ASSOCIATIONS>
85472197  1

> <PUBCHEM_COORDINATE_TYPE>
1
3

$$$$
