310937637
  -OEChem-07211613022D

 37 41  0     0  0  0  0  0  0999 V2000
    2.9811   -1.4940    0.0000 F   0  0  0  0  0  0  0  0  0  0  0  0
   -2.7346    0.1560    0.0000 O   0  0  0  0  0  0  0  0  0  0  0  0
   -7.0215   -1.4940    0.0000 O   0  0  0  0  0  0  0  0  0  0  0  0
    2.9811    0.1560    0.0000 N   0  0  0  0  0  0  0  0  0  0  0  0
    1.5522    0.1560    0.0000 N   0  0  0  0  0  0  0  0  0  0  0  0
    4.2868    0.4335    0.0000 N   0  0  0  0  0  0  0  0  0  0  0  0
    0.8377   -1.0815    0.0000 N   0  0  0  0  0  0  0  0  0  0  0  0
    0.1232    0.1560    0.0000 N   0  0  0  0  0  0  0  0  0  0  0  0
   -4.8780   -0.2565    0.0000 N   0  0  0  0  0  0  0  0  0  0  0  0
    2.2666   -0.2565    0.0000 C   0  0  0  0  0  0  0  0  0  0  0  0
    3.0673    0.9764    0.0000 C   0  0  0  0  0  0  0  0  0  0  0  0
    2.2666   -1.0815    0.0000 C   0  0  0  0  0  0  0  0  0  0  0  0
    2.4543    1.5285    0.0000 C   0  0  0  0  0  0  0  0  0  0  0  0
    0.8377   -0.2565    0.0000 C   0  0  0  0  0  0  0  0  0  0  0  0
    3.7348   -0.1796    0.0000 C   0  0  0  0  0  0  0  0  0  0  0  0
    3.8743    1.1480    0.0000 C   0  0  0  0  0  0  0  0  0  0  0  0
    1.5522   -1.4940    0.0000 C   0  0  0  0  0  0  0  0  0  0  0  0
   -0.5912   -0.2565    0.0000 C   0  0  0  0  0  0  0  0  0  0  0  0
    2.6258    2.3355    0.0000 C   0  0  0  0  0  0  0  0  0  0  0  0
    1.6696    1.2736    0.0000 C   0  0  0  0  0  0  0  0  0  0  0  0
   -1.3057    0.1560    0.0000 C   0  0  0  0  0  0  0  0  0  0  0  0
   -2.0202   -0.2565    0.0000 C   0  0  0  0  0  0  0  0  0  0  0  0
   -0.5912   -1.0815    0.0000 C   0  0  0  0  0  0  0  0  0  0  0  0
   -1.3057   -1.4940    0.0000 C   0  0  0  0  0  0  0  0  0  0  0  0
   -2.0202   -1.0815    0.0000 C   0  0  0  0  0  0  0  0  0  0  0  0
    2.0127    2.8875    0.0000 C   0  0  0  0  0  0  0  0  0  0  0  0
    1.0565    1.8256    0.0000 C   0  0  0  0  0  0  0  0  0  0  0  0
    1.2281    2.6326    0.0000 C   0  0  0  0  0  0  0  0  0  0  0  0
   -1.3057   -2.3190    0.0000 C   0  0  0  0  0  0  0  0  0  0  0  0
   -3.4491   -0.2565    0.0000 C   0  0  0  0  0  0  0  0  0  0  0  0
   -4.1636    0.1560    0.0000 C   0  0  0  0  0  0  0  0  0  0  0  0
   -4.8780   -1.0815    0.0000 C   0  0  0  0  0  0  0  0  0  0  0  0
   -5.5926    0.1560    0.0000 C   0  0  0  0  0  0  0  0  0  0  0  0
   -6.3070   -1.0815    0.0000 C   0  0  0  0  0  0  0  0  0  0  0  0
   -0.5912   -2.7315    0.0000 C   0  0  0  0  0  0  0  0  0  0  0  0
   -5.5926   -1.4940    0.0000 C   0  0  0  0  0  0  0  0  0  0  0  0
   -6.3070   -0.2565    0.0000 C   0  0  0  0  0  0  0  0  0  0  0  0
  1 12  1  0  0  0  0
  2 22  1  0  0  0  0
  2 30  1  0  0  0  0
  3 34  1  0  0  0  0
  4 10  1  0  0  0  0
  4 11  1  0  0  0  0
  4 15  1  0  0  0  0
  5 10  2  0  0  0  0
  5 14  1  0  0  0  0
  6 15  2  0  0  0  0
  6 16  1  0  0  0  0
  7 14  2  0  0  0  0
  7 17  1  0  0  0  0
  8 14  1  0  0  0  0
  8 18  1  0  0  0  0
  9 31  1  0  0  0  0
  9 32  1  0  0  0  0
  9 33  1  0  0  0  0
 10 12  1  0  0  0  0
 11 13  1  0  0  0  0
 11 16  2  0  0  0  0
 12 17  2  0  0  0  0
 13 19  2  0  0  0  0
 13 20  1  0  0  0  0
 18 21  1  0  0  0  0
 18 23  2  0  0  0  0
 19 26  1  0  0  0  0
 20 27  2  0  0  0  0
 21 22  2  0  0  0  0
 22 25  1  0  0  0  0
 23 24  1  0  0  0  0
 24 25  2  0  0  0  0
 24 29  1  0  0  0  0
 26 28  2  0  0  0  0
 27 28  1  0  0  0  0
 29 35  1  0  0  0  0
 30 31  1  0  0  0  0
 32 36  1  0  0  0  0
 33 37  1  0  0  0  0
 34 36  1  0  0  0  0
 34 37  1  0  0  0  0
M  END
> <PUBCHEM_COMPOUND_ID_TYPE>
0

> <PUBCHEM_TOTAL_CHARGE>
0

> <PUBCHEM_SUBSTANCE_ID>
310937637

> <PUBCHEM_SUBSTANCE_VERSION>
1

> <PUBCHEM_EXT_DATASOURCE_NAME>
4488

> <PUBCHEM_EXT_DATASOURCE_REGID>
SCHEMBL16115424

> <PUBCHEM_SUBSTANCE_COMMENT>
InChI=1S/C28H31FN6O2/c1-2-20-14-22(16-24(15-20)37-13-12-34-10-8-23(36)9-11-34)32-28-31-17-25(29)27(33-28)35-19-30-18-26(35)21-6-4-3-5-7-21/h3-7,14-19,23,36H,2,8-13H2,1H3,(H,31,32,33)
InChIKey=UBWRAXBAXOUFNW-UHFFFAOYSA-N

> <PUBCHEM_SUBSTANCE_SYNONYM>
SCHEMBL16115424

> <PUBCHEM_XREF_EXT_ID>
SCHEMBL16115424

> <PUBCHEM_EXT_DATASOURCE_URL>
https://www.surechembl.org/

> <PUBCHEM_EXT_SUBSTANCE_URL>
https://www.surechembl.org/chemical/SCHEMBL16115424

> <PUBCHEM_CID_ASSOCIATIONS>
86300391  1

> <PUBCHEM_COORDINATE_TYPE>
1
3

$$$$
