310947344
  -OEChem-07211613022D

 34 37  0     0  0  0  0  0  0999 V2000
   -3.2633    2.4893    0.0000 O   0  0  0  0  0  0  0  0  0  0  0  0
   -0.3352    0.1719    0.0000 N   0  0  0  0  0  0  0  0  0  0  0  0
    0.1496    0.8394    0.0000 N   0  0  0  0  0  0  0  0  0  0  0  0
   -3.9777    1.2519    0.0000 N   0  0  0  0  0  0  0  0  0  0  0  0
   -1.1199    0.4269    0.0000 C   0  0  0  0  0  0  0  0  0  0  0  0
   -1.1199    1.2519    0.0000 C   0  0  0  0  0  0  0  0  0  0  0  0
   -0.3352    1.5068    0.0000 C   0  0  0  0  0  0  0  0  0  0  0  0
   -1.8343    1.6644    0.0000 C   0  0  0  0  0  0  0  0  0  0  0  0
   -2.5488    1.2519    0.0000 C   0  0  0  0  0  0  0  0  0  0  0  0
   -1.8343    0.0144    0.0000 C   0  0  0  0  0  0  0  0  0  0  0  0
   -0.1218   -0.6248    0.0000 C   0  0  0  0  0  0  0  0  0  0  0  0
    3.0657   -1.4790    0.0000 C   0  0  0  0  0  0  0  0  0  0  0  0
    0.6751   -0.8384    0.0000 C   0  0  0  0  0  0  0  0  0  0  0  0
   -2.5488    0.4269    0.0000 C   0  0  0  0  0  0  0  0  0  0  0  0
    3.6491   -0.8957    0.0000 C   0  0  0  0  0  0  0  0  0  0  0  0
    2.2688   -1.2655    0.0000 C   0  0  0  0  0  0  0  0  0  0  0  0
    3.4355   -0.0988    0.0000 C   0  0  0  0  0  0  0  0  0  0  0  0
   -3.2633    1.6644    0.0000 C   0  0  0  0  0  0  0  0  0  0  0  0
    0.8886   -1.6353    0.0000 C   0  0  0  0  0  0  0  0  0  0  0  0
    1.2584   -0.2550    0.0000 C   0  0  0  0  0  0  0  0  0  0  0  0
    1.6855   -1.8488    0.0000 C   0  0  0  0  0  0  0  0  0  0  0  0
    2.0553   -0.4686    0.0000 C   0  0  0  0  0  0  0  0  0  0  0  0
    0.0772    2.2213    0.0000 C   0  0  0  0  0  0  0  0  0  0  0  0
    3.2793   -2.2759    0.0000 C   0  0  0  0  0  0  0  0  0  0  0  0
    4.4460   -1.1091    0.0000 C   0  0  0  0  0  0  0  0  0  0  0  0
    4.0760   -2.4893    0.0000 C   0  0  0  0  0  0  0  0  0  0  0  0
    4.6594   -1.9060    0.0000 C   0  0  0  0  0  0  0  0  0  0  0  0
    2.5855   -0.3265    0.0000 C   0  0  0  0  0  0  0  0  0  0  0  0
    3.2078    0.7512    0.0000 C   0  0  0  0  0  0  0  0  0  0  0  0
    4.2855    0.1290    0.0000 C   0  0  0  0  0  0  0  0  0  0  0  0
   -4.6921    1.6644    0.0000 C   0  0  0  0  0  0  0  0  0  0  0  0
   -5.4066    1.2519    0.0000 C   0  0  0  0  0  0  0  0  0  0  0  0
   -6.1210    1.6644    0.0000 C   0  0  0  0  0  0  0  0  0  0  0  0
   -6.8355    1.2519    0.0000 C   0  0  0  0  0  0  0  0  0  0  0  0
  1 18  2  0  0  0  0
  2  3  1  0  0  0  0
  2  5  1  0  0  0  0
  2 11  1  0  0  0  0
  3  7  2  0  0  0  0
  4 18  1  0  0  0  0
  4 31  1  0  0  0  0
  5  6  1  0  0  0  0
  5 10  2  0  0  0  0
  6  7  1  0  0  0  0
  6  8  2  0  0  0  0
  7 23  1  0  0  0  0
  8  9  1  0  0  0  0
  9 14  2  0  0  0  0
  9 18  1  0  0  0  0
 10 14  1  0  0  0  0
 11 13  1  0  0  0  0
 12 15  1  0  0  0  0
 12 16  1  0  0  0  0
 12 24  2  0  0  0  0
 13 19  2  0  0  0  0
 13 20  1  0  0  0  0
 15 17  1  0  0  0  0
 15 25  2  0  0  0  0
 16 21  2  0  0  0  0
 16 22  1  0  0  0  0
 17 28  1  0  0  0  0
 17 29  1  0  0  0  0
 17 30  1  0  0  0  0
 19 21  1  0  0  0  0
 20 22  2  0  0  0  0
 24 26  1  0  0  0  0
 25 27  1  0  0  0  0
 26 27  2  0  0  0  0
 31 32  1  0  0  0  0
 32 33  1  0  0  0  0
 33 34  1  0  0  0  0
M  END
> <PUBCHEM_COMPOUND_ID_TYPE>
0

> <PUBCHEM_TOTAL_CHARGE>
0

> <PUBCHEM_SUBSTANCE_ID>
310947344

> <PUBCHEM_SUBSTANCE_VERSION>
1

> <PUBCHEM_EXT_DATASOURCE_NAME>
4488

> <PUBCHEM_EXT_DATASOURCE_REGID>
SCHEMBL16125499

> <PUBCHEM_SUBSTANCE_COMMENT>
InChI=1S/C30H35N3O/c1-6-7-18-31-29(34)24-16-17-28-26(19-24)21(2)32-33(28)20-22-12-14-23(15-13-22)25-10-8-9-11-27(25)30(3,4)5/h8-17,19H,6-7,18,20H2,1-5H3,(H,31,34)
InChIKey=BIXOSPQOUIRNMK-UHFFFAOYSA-N

> <PUBCHEM_SUBSTANCE_SYNONYM>
SCHEMBL16125499

> <PUBCHEM_XREF_EXT_ID>
SCHEMBL16125499

> <PUBCHEM_EXT_DATASOURCE_URL>
https://www.surechembl.org/

> <PUBCHEM_EXT_SUBSTANCE_URL>
https://www.surechembl.org/chemical/SCHEMBL16125499

> <PUBCHEM_CID_ASSOCIATIONS>
117613090  1

> <PUBCHEM_COORDINATE_TYPE>
1
3

$$$$
