310949270
  -OEChem-07211613022D

 74 85  0     0  0  0  0  0  0999 V2000
    0.0234    2.9467    0.0000 N   0  0  0  0  0  0  0  0  0  0  0  0
    0.0078   -2.9311    0.0000 N   0  0  0  0  0  0  0  0  0  0  0  0
    2.1182   -2.5090    0.0000 N   0  0  0  0  0  0  0  0  0  0  0  0
    2.1807    2.4777    0.0000 N   0  0  0  0  0  0  0  0  0  0  0  0
   -2.1182    2.4308    0.0000 N   0  0  0  0  0  0  0  0  0  0  0  0
   -2.1182   -2.4777    0.0000 N   0  0  0  0  0  0  0  0  0  0  0  0
   -0.0078   -2.0869    0.0000 C   0  0  0  0  0  0  0  0  0  0  0  0
    0.0234    2.1182    0.0000 C   0  0  0  0  0  0  0  0  0  0  0  0
    0.0078   -0.3986    0.0000 C   0  0  0  0  0  0  0  0  0  0  0  0
    0.0234    0.4768    0.0000 C   0  0  0  0  0  0  0  0  0  0  0  0
    0.6800    3.4625    0.0000 C   0  0  0  0  0  0  0  0  0  0  0  0
   -0.6644    3.4782    0.0000 C   0  0  0  0  0  0  0  0  0  0  0  0
   -0.6956   -3.3844    0.0000 C   0  0  0  0  0  0  0  0  0  0  0  0
    0.6488   -3.4157    0.0000 C   0  0  0  0  0  0  0  0  0  0  0  0
    0.7425    1.7274    0.0000 C   0  0  0  0  0  0  0  0  0  0  0  0
    0.6956   -1.6335    0.0000 C   0  0  0  0  0  0  0  0  0  0  0  0
   -0.7112   -1.6335    0.0000 C   0  0  0  0  0  0  0  0  0  0  0  0
   -0.6800    1.7274    0.0000 C   0  0  0  0  0  0  0  0  0  0  0  0
    0.4456    4.2598    0.0000 C   0  0  0  0  0  0  0  0  0  0  0  0
   -0.4143    4.2754    0.0000 C   0  0  0  0  0  0  0  0  0  0  0  0
    0.3986   -4.1972    0.0000 C   0  0  0  0  0  0  0  0  0  0  0  0
   -0.4299   -4.1816    0.0000 C   0  0  0  0  0  0  0  0  0  0  0  0
    0.7269    0.8833    0.0000 C   0  0  0  0  0  0  0  0  0  0  0  0
    0.7112   -0.8207    0.0000 C   0  0  0  0  0  0  0  0  0  0  0  0
   -0.7112   -0.7894    0.0000 C   0  0  0  0  0  0  0  0  0  0  0  0
   -0.6956    0.8833    0.0000 C   0  0  0  0  0  0  0  0  0  0  0  0
   -1.4616    3.3062    0.0000 C   0  0  0  0  0  0  0  0  0  0  0  0
    1.5085    3.3062    0.0000 C   0  0  0  0  0  0  0  0  0  0  0  0
   -1.4929   -3.2280    0.0000 C   0  0  0  0  0  0  0  0  0  0  0  0
    1.4616   -3.2593    0.0000 C   0  0  0  0  0  0  0  0  0  0  0  0
   -0.9457    4.8694    0.0000 C   0  0  0  0  0  0  0  0  0  0  0  0
    0.9770    4.8382    0.0000 C   0  0  0  0  0  0  0  0  0  0  0  0
    0.9457   -4.8226    0.0000 C   0  0  0  0  0  0  0  0  0  0  0  0
   -1.0083   -4.7913    0.0000 C   0  0  0  0  0  0  0  0  0  0  0  0
   -1.7586    4.7288    0.0000 C   0  0  0  0  0  0  0  0  0  0  0  0
    1.7899    4.7131    0.0000 C   0  0  0  0  0  0  0  0  0  0  0  0
    1.7430   -4.6819    0.0000 C   0  0  0  0  0  0  0  0  0  0  0  0
   -1.8056   -4.6037    0.0000 C   0  0  0  0  0  0  0  0  0  0  0  0
    1.4616    2.1182    0.0000 C   0  0  0  0  0  0  0  0  0  0  0  0
    1.4303   -2.0869    0.0000 C   0  0  0  0  0  0  0  0  0  0  0  0
   -1.4303   -2.0712    0.0000 C   0  0  0  0  0  0  0  0  0  0  0  0
   -1.3991    2.1025    0.0000 C   0  0  0  0  0  0  0  0  0  0  0  0
   -2.0088    3.9003    0.0000 C   0  0  0  0  0  0  0  0  0  0  0  0
    2.0557    3.9158    0.0000 C   0  0  0  0  0  0  0  0  0  0  0  0
   -2.0244   -3.8065    0.0000 C   0  0  0  0  0  0  0  0  0  0  0  0
    2.0244   -3.8847    0.0000 C   0  0  0  0  0  0  0  0  0  0  0  0
    1.4460    0.4456    0.0000 C   0  0  0  0  0  0  0  0  0  0  0  0
    1.4772   -0.3830    0.0000 C   0  0  0  0  0  0  0  0  0  0  0  0
   -1.4147   -0.3986    0.0000 C   0  0  0  0  0  0  0  0  0  0  0  0
   -1.4303    0.4611    0.0000 C   0  0  0  0  0  0  0  0  0  0  0  0
   -2.3214    5.3228    0.0000 C   0  0  0  0  0  0  0  0  0  0  0  0
    2.3370    5.3540    0.0000 C   0  0  0  0  0  0  0  0  0  0  0  0
    2.3057   -5.3071    0.0000 C   0  0  0  0  0  0  0  0  0  0  0  0
   -2.3839   -5.2447    0.0000 C   0  0  0  0  0  0  0  0  0  0  0  0
   -2.0712    6.1200    0.0000 C   0  0  0  0  0  0  0  0  0  0  0  0
    3.1656    5.1821    0.0000 C   0  0  0  0  0  0  0  0  0  0  0  0
    2.0244   -6.0888    0.0000 C   0  0  0  0  0  0  0  0  0  0  0  0
   -3.1656   -5.0570    0.0000 C   0  0  0  0  0  0  0  0  0  0  0  0
   -3.1499    5.1821    0.0000 C   0  0  0  0  0  0  0  0  0  0  0  0
    2.1182    6.1357    0.0000 C   0  0  0  0  0  0  0  0  0  0  0  0
   -2.1338   -6.0262    0.0000 C   0  0  0  0  0  0  0  0  0  0  0  0
    3.0717   -5.1352    0.0000 C   0  0  0  0  0  0  0  0  0  0  0  0
   -2.6184    6.6984    0.0000 C   0  0  0  0  0  0  0  0  0  0  0  0
    3.6970    5.7917    0.0000 C   0  0  0  0  0  0  0  0  0  0  0  0
    2.5715   -6.6984    0.0000 C   0  0  0  0  0  0  0  0  0  0  0  0
   -3.6970   -5.6354    0.0000 C   0  0  0  0  0  0  0  0  0  0  0  0
   -3.6658    5.7761    0.0000 C   0  0  0  0  0  0  0  0  0  0  0  0
    2.6184    6.6984    0.0000 C   0  0  0  0  0  0  0  0  0  0  0  0
   -2.6966   -6.6359    0.0000 C   0  0  0  0  0  0  0  0  0  0  0  0
    3.6502   -5.7761    0.0000 C   0  0  0  0  0  0  0  0  0  0  0  0
   -3.4157    6.5577    0.0000 C   0  0  0  0  0  0  0  0  0  0  0  0
    3.4313    6.5577    0.0000 C   0  0  0  0  0  0  0  0  0  0  0  0
   -3.4938   -6.4483    0.0000 C   0  0  0  0  0  0  0  0  0  0  0  0
    3.3688   -6.5421    0.0000 C   0  0  0  0  0  0  0  0  0  0  0  0
  1  8  1  0  0  0  0
  1 11  1  0  0  0  0
  1 12  1  0  0  0  0
  2  7  1  0  0  0  0
  2 13  1  0  0  0  0
  2 14  1  0  0  0  0
  3 40  3  0  0  0  0
  4 39  3  0  0  0  0
  5 42  3  0  0  0  0
  6 41  3  0  0  0  0
  7 16  2  0  0  0  0
  7 17  1  0  0  0  0
  8 15  2  0  0  0  0
  8 18  1  0  0  0  0
  9 10  1  0  0  0  0
  9 24  2  0  0  0  0
  9 25  1  0  0  0  0
 10 23  2  0  0  0  0
 10 26  1  0  0  0  0
 11 19  2  0  0  0  0
 11 28  1  0  0  0  0
 12 20  2  0  0  0  0
 12 27  1  0  0  0  0
 13 22  2  0  0  0  0
 13 29  1  0  0  0  0
 14 21  2  0  0  0  0
 14 30  1  0  0  0  0
 15 23  1  0  0  0  0
 15 39  1  0  0  0  0
 16 24  1  0  0  0  0
 16 40  1  0  0  0  0
 17 25  2  0  0  0  0
 17 41  1  0  0  0  0
 18 26  2  0  0  0  0
 18 42  1  0  0  0  0
 19 20  1  0  0  0  0
 19 32  1  0  0  0  0
 20 31  1  0  0  0  0
 21 22  1  0  0  0  0
 21 33  1  0  0  0  0
 22 34  1  0  0  0  0
 23 47  1  0  0  0  0
 24 48  1  0  0  0  0
 25 49  1  0  0  0  0
 26 50  1  0  0  0  0
 27 43  2  0  0  0  0
 28 44  2  0  0  0  0
 29 45  2  0  0  0  0
 30 46  2  0  0  0  0
 31 35  2  0  0  0  0
 32 36  2  0  0  0  0
 33 37  2  0  0  0  0
 34 38  2  0  0  0  0
 35 43  1  0  0  0  0
 35 51  1  0  0  0  0
 36 44  1  0  0  0  0
 36 52  1  0  0  0  0
 37 46  1  0  0  0  0
 37 53  1  0  0  0  0
 38 45  1  0  0  0  0
 38 54  1  0  0  0  0
 51 55  2  0  0  0  0
 51 59  1  0  0  0  0
 52 56  2  0  0  0  0
 52 60  1  0  0  0  0
 53 57  2  0  0  0  0
 53 62  1  0  0  0  0
 54 58  2  0  0  0  0
 54 61  1  0  0  0  0
 55 63  1  0  0  0  0
 56 64  1  0  0  0  0
 57 65  1  0  0  0  0
 58 66  1  0  0  0  0
 59 67  2  0  0  0  0
 60 68  2  0  0  0  0
 61 69  2  0  0  0  0
 62 70  2  0  0  0  0
 63 71  2  0  0  0  0
 64 72  2  0  0  0  0
 65 74  2  0  0  0  0
 66 73  2  0  0  0  0
 67 71  1  0  0  0  0
 68 72  1  0  0  0  0
 69 73  1  0  0  0  0
 70 74  1  0  0  0  0
M  END
> <PUBCHEM_COMPOUND_ID_TYPE>
0

> <PUBCHEM_TOTAL_CHARGE>
0

> <PUBCHEM_SUBSTANCE_ID>
310949270

> <PUBCHEM_SUBSTANCE_VERSION>
1

> <PUBCHEM_EXT_DATASOURCE_NAME>
4488

> <PUBCHEM_EXT_DATASOURCE_REGID>
SCHEMBL16127460

> <PUBCHEM_SUBSTANCE_COMMENT>
InChI=1S/C68H44N6/c1-41-57(37-69)67(73-61-29-25-49(45-17-9-5-10-18-45)33-53(61)54-34-50(26-30-62(54)73)46-19-11-6-12-20-46)58(38-70)42(2)65(41)66-43(3)59(39-71)68(60(40-72)44(66)4)74-63-31-27-51(47-21-13-7-14-22-47)35-55(63)56-36-52(28-32-64(56)74)48-23-15-8-16-24-48/h5-36H,1-4H3
InChIKey=OKVOGDRZGUAJDD-UHFFFAOYSA-N

> <PUBCHEM_SUBSTANCE_SYNONYM>
SCHEMBL16127460

> <PUBCHEM_XREF_EXT_ID>
SCHEMBL16127460

> <PUBCHEM_EXT_DATASOURCE_URL>
https://www.surechembl.org/

> <PUBCHEM_EXT_SUBSTANCE_URL>
https://www.surechembl.org/chemical/SCHEMBL16127460

> <PUBCHEM_CID_ASSOCIATIONS>
117614756  1

> <PUBCHEM_COORDINATE_TYPE>
1
3

$$$$
