310944841
  -OEChem-07211613022D

 39 43  0     0  0  0  0  0  0999 V2000
   -1.5890    2.6890    0.0000 F   0  0  0  0  0  0  0  0  0  0  0  0
   -0.1647    0.2126    0.0000 F   0  0  0  0  0  0  0  0  0  0  0  0
    0.3773   -3.9325    0.0000 O   0  0  0  0  0  0  0  0  0  0  0  0
    1.2488    2.6890    0.0000 O   0  0  0  0  0  0  0  0  0  0  0  0
    2.4499   -3.2204    0.0000 O   0  0  0  0  0  0  0  0  0  0  0  0
   -1.6209    0.2126    0.0000 N   0  0  0  0  0  0  0  0  0  0  0  0
   -0.9831   -0.3082    0.0000 N   0  0  0  0  0  0  0  0  0  0  0  0
   -0.0372   -1.7962    0.0000 N   0  0  0  0  0  0  0  0  0  0  0  0
   -1.2701   -2.5083    0.0000 N   0  0  0  0  0  0  0  0  0  0  0  0
    1.1957   -2.5083    0.0000 N   0  0  0  0  0  0  0  0  0  0  0  0
    3.6828   -2.5083    0.0000 N   0  0  0  0  0  0  0  0  0  0  0  0
   -1.2808   -1.0097    0.0000 C   0  0  0  0  0  0  0  0  0  0  0  0
   -2.1097   -1.0097    0.0000 C   0  0  0  0  0  0  0  0  0  0  0  0
   -2.3117   -0.2232    0.0000 C   0  0  0  0  0  0  0  0  0  0  0  0
   -0.8662   -1.7644    0.0000 C   0  0  0  0  0  0  0  0  0  0  0  0
   -1.6102    1.0629    0.0000 C   0  0  0  0  0  0  0  0  0  0  0  0
   -0.9087    1.4667    0.0000 C   0  0  0  0  0  0  0  0  0  0  0  0
   -2.6837   -1.5943    0.0000 C   0  0  0  0  0  0  0  0  0  0  0  0
   -3.1194   -0.0107    0.0000 C   0  0  0  0  0  0  0  0  0  0  0  0
    0.3667   -2.4764    0.0000 C   0  0  0  0  0  0  0  0  0  0  0  0
   -0.0372   -3.2098    0.0000 C   0  0  0  0  0  0  0  0  0  0  0  0
   -0.8981    2.3064    0.0000 C   0  0  0  0  0  0  0  0  0  0  0  0
   -0.1860    1.0629    0.0000 C   0  0  0  0  0  0  0  0  0  0  0  0
   -0.8662   -3.1885    0.0000 C   0  0  0  0  0  0  0  0  0  0  0  0
   -3.4808   -1.3817    0.0000 C   0  0  0  0  0  0  0  0  0  0  0  0
   -3.6828   -0.5952    0.0000 C   0  0  0  0  0  0  0  0  0  0  0  0
    1.6102   -1.7749    0.0000 C   0  0  0  0  0  0  0  0  0  0  0  0
    0.5261    2.2958    0.0000 C   0  0  0  0  0  0  0  0  0  0  0  0
   -0.2072    2.6890    0.0000 C   0  0  0  0  0  0  0  0  0  0  0  0
    0.5261    1.4774    0.0000 C   0  0  0  0  0  0  0  0  0  0  0  0
    2.4393   -1.7749    0.0000 C   0  0  0  0  0  0  0  0  0  0  0  0
    1.2063   -1.0416    0.0000 C   0  0  0  0  0  0  0  0  0  0  0  0
    2.8644   -2.4552    0.0000 C   0  0  0  0  0  0  0  0  0  0  0  0
    2.8431   -1.0416    0.0000 C   0  0  0  0  0  0  0  0  0  0  0  0
    1.6102   -0.3507    0.0000 C   0  0  0  0  0  0  0  0  0  0  0  0
    2.4393   -0.3507    0.0000 C   0  0  0  0  0  0  0  0  0  0  0  0
    1.1957   -3.9325    0.0000 C   0  0  0  0  0  0  0  0  0  0  0  0
    1.2488    3.5393    0.0000 C   0  0  0  0  0  0  0  0  0  0  0  0
    1.9609    3.9325    0.0000 C   0  0  0  0  0  0  0  0  0  0  0  0
  1 22  1  0  0  0  0
  2 23  1  0  0  0  0
  3 21  1  0  0  0  0
  3 37  1  0  0  0  0
  4 28  1  0  0  0  0
  4 38  1  0  0  0  0
  5 33  2  0  0  0  0
  6  7  1  0  0  0  0
  6 14  1  0  0  0  0
  6 16  1  0  0  0  0
  7 12  2  0  0  0  0
  8 15  2  0  0  0  0
  8 20  1  0  0  0  0
  9 15  1  0  0  0  0
  9 24  2  0  0  0  0
 10 20  1  0  0  0  0
 10 27  1  0  0  0  0
 11 33  1  0  0  0  0
 12 13  1  0  0  0  0
 12 15  1  0  0  0  0
 13 14  2  0  0  0  0
 13 18  1  0  0  0  0
 14 19  1  0  0  0  0
 16 17  1  0  0  0  0
 17 22  2  0  0  0  0
 17 23  1  0  0  0  0
 18 25  2  0  0  0  0
 19 26  2  0  0  0  0
 20 21  2  0  0  0  0
 21 24  1  0  0  0  0
 22 29  1  0  0  0  0
 23 30  2  0  0  0  0
 25 26  1  0  0  0  0
 27 31  1  0  0  0  0
 27 32  2  0  0  0  0
 28 29  2  0  0  0  0
 28 30  1  0  0  0  0
 31 33  1  0  0  0  0
 31 34  2  0  0  0  0
 32 35  1  0  0  0  0
 34 36  1  0  0  0  0
 35 36  2  0  0  0  0
 38 39  1  0  0  0  0
M  END
> <PUBCHEM_COMPOUND_ID_TYPE>
0

> <PUBCHEM_TOTAL_CHARGE>
0

> <PUBCHEM_SUBSTANCE_ID>
310944841

> <PUBCHEM_SUBSTANCE_VERSION>
1

> <PUBCHEM_EXT_DATASOURCE_NAME>
4488

> <PUBCHEM_EXT_DATASOURCE_REGID>
SCHEMBL16122920

> <PUBCHEM_SUBSTANCE_COMMENT>
InChI=1S/C28H24F2N6O3/c1-3-39-16-12-20(29)19(21(30)13-16)15-36-23-11-7-5-9-18(23)25(35-36)28-32-14-24(38-2)27(34-28)33-22-10-6-4-8-17(22)26(31)37/h4-14H,3,15H2,1-2H3,(H2,31,37)(H,32,33,34)
InChIKey=KZBFKWMXVLVWQX-UHFFFAOYSA-N

> <PUBCHEM_SUBSTANCE_SYNONYM>
SCHEMBL16122920

> <PUBCHEM_XREF_EXT_ID>
SCHEMBL16122920

> <PUBCHEM_EXT_DATASOURCE_URL>
https://www.surechembl.org/

> <PUBCHEM_EXT_SUBSTANCE_URL>
https://www.surechembl.org/chemical/SCHEMBL16122920

> <PUBCHEM_CID_ASSOCIATIONS>
86268920  1

> <PUBCHEM_COORDINATE_TYPE>
1
3

$$$$
