310938292
  -OEChem-07211613022D

 32 36  0     0  0  0  0  0  0999 V2000
    0.7784   -0.8604    0.0000 F   0  0  0  0  0  0  0  0  0  0  0  0
    1.5159   -2.0895    0.0000 F   0  0  0  0  0  0  0  0  0  0  0  0
    1.5159   -0.4507    0.0000 F   0  0  0  0  0  0  0  0  0  0  0  0
    3.6054    0.0000    0.0000 O   0  0  0  0  0  0  0  0  0  0  0  0
    2.9498   -1.2291    0.0000 N   0  0  0  0  0  0  0  0  0  0  0  0
    3.6054   -3.2776    0.0000 N   0  0  0  0  0  0  0  0  0  0  0  0
    5.1212   -2.3353    0.0000 N   0  0  0  0  0  0  0  0  0  0  0  0
    5.6128   -1.6798    0.0000 N   0  0  0  0  0  0  0  0  0  0  0  0
    0.7375   -5.7357    0.0000 N   0  0  0  0  0  0  0  0  0  0  0  0
    0.0819   -4.5067    0.0000 N   0  0  0  0  0  0  0  0  0  0  0  0
    0.6965   -7.3745    0.0000 N   0  0  0  0  0  0  0  0  0  0  0  0
    2.9498   -2.0895    0.0000 C   0  0  0  0  0  0  0  0  0  0  0  0
    3.6054   -2.4992    0.0000 C   0  0  0  0  0  0  0  0  0  0  0  0
    4.3428   -2.0895    0.0000 C   0  0  0  0  0  0  0  0  0  0  0  0
    4.3428   -1.2291    0.0000 C   0  0  0  0  0  0  0  0  0  0  0  0
    3.6054   -0.8194    0.0000 C   0  0  0  0  0  0  0  0  0  0  0  0
    2.2124   -2.4992    0.0000 C   0  0  0  0  0  0  0  0  0  0  0  0
    2.2124   -3.2776    0.0000 C   0  0  0  0  0  0  0  0  0  0  0  0
    5.1212   -0.9833    0.0000 C   0  0  0  0  0  0  0  0  0  0  0  0
    2.2124   -0.8194    0.0000 C   0  0  0  0  0  0  0  0  0  0  0  0
    2.9498   -3.6873    0.0000 C   0  0  0  0  0  0  0  0  0  0  0  0
    1.4749   -3.6873    0.0000 C   0  0  0  0  0  0  0  0  0  0  0  0
    1.5159   -1.2701    0.0000 C   0  0  0  0  0  0  0  0  0  0  0  0
    1.5159   -4.5067    0.0000 C   0  0  0  0  0  0  0  0  0  0  0  0
    0.7784   -4.9164    0.0000 C   0  0  0  0  0  0  0  0  0  0  0  0
    0.7784   -3.2776    0.0000 C   0  0  0  0  0  0  0  0  0  0  0  0
    0.0410   -3.6873    0.0000 C   0  0  0  0  0  0  0  0  0  0  0  0
    0.0410   -6.1045    0.0000 C   0  0  0  0  0  0  0  0  0  0  0  0
    1.4339   -6.1454    0.0000 C   0  0  0  0  0  0  0  0  0  0  0  0
    1.4339   -6.9648    0.0000 C   0  0  0  0  0  0  0  0  0  0  0  0
    0.0000   -6.9239    0.0000 C   0  0  0  0  0  0  0  0  0  0  0  0
    0.6965   -8.1939    0.0000 C   0  0  0  0  0  0  0  0  0  0  0  0
  1 23  1  0  0  0  0
  2 23  1  0  0  0  0
  3 23  1  0  0  0  0
  4 16  2  0  0  0  0
  5 12  1  0  0  0  0
  5 16  1  0  0  0  0
  5 20  1  0  0  0  0
  6 13  2  0  0  0  0
  6 21  1  0  0  0  0
  7  8  1  0  0  0  0
  7 14  1  0  0  0  0
  8 19  2  0  0  0  0
  9 25  1  0  0  0  0
  9 28  1  0  0  0  0
  9 29  1  0  0  0  0
 10 25  1  0  0  0  0
 10 27  2  0  0  0  0
 11 30  1  0  0  0  0
 11 31  1  0  0  0  0
 11 32  1  0  0  0  0
 12 13  1  0  0  0  0
 12 17  2  0  0  0  0
 13 14  1  0  0  0  0
 14 15  2  0  0  0  0
 15 16  1  0  0  0  0
 15 19  1  0  0  0  0
 17 18  1  0  0  0  0
 18 21  2  0  0  0  0
 18 22  1  0  0  0  0
 20 23  1  0  0  0  0
 22 24  1  0  0  0  0
 22 26  2  0  0  0  0
 24 25  2  0  0  0  0
 26 27  1  0  0  0  0
 28 31  1  0  0  0  0
 29 30  1  0  0  0  0
M  END
> <PUBCHEM_COMPOUND_ID_TYPE>
0

> <PUBCHEM_TOTAL_CHARGE>
0

> <PUBCHEM_SUBSTANCE_ID>
310938292

> <PUBCHEM_SUBSTANCE_VERSION>
1

> <PUBCHEM_EXT_DATASOURCE_NAME>
4488

> <PUBCHEM_EXT_DATASOURCE_REGID>
SCHEMBL16116162

> <PUBCHEM_SUBSTANCE_COMMENT>
InChI=1S/C21H20F3N7O/c1-29-4-6-30(7-5-29)17-9-13(2-3-25-17)14-8-16-19(26-10-14)18-15(11-27-28-18)20(32)31(16)12-21(22,23)24/h2-3,8-11H,4-7,12H2,1H3,(H,27,28)
InChIKey=XWXFJIOJHZVXAS-UHFFFAOYSA-N

> <PUBCHEM_SUBSTANCE_SYNONYM>
SCHEMBL16116162

> <PUBCHEM_XREF_EXT_ID>
SCHEMBL16116162

> <PUBCHEM_EXT_DATASOURCE_URL>
https://www.surechembl.org/

> <PUBCHEM_EXT_SUBSTANCE_URL>
https://www.surechembl.org/chemical/SCHEMBL16116162

> <PUBCHEM_CID_ASSOCIATIONS>
86298835  1

> <PUBCHEM_COORDINATE_TYPE>
1
3

$$$$
