310947439
  -OEChem-07211613022D

 27 29  0     0  0  0  0  0  0999 V2000
   -0.7819    3.6766    0.0000 O   0  0  0  0  0  0  0  0  0  0  0  0
    3.1540    1.1207    0.0000 O   0  0  0  0  0  0  0  0  0  0  0  0
   -0.7819    0.3766    0.0000 O   0  0  0  0  0  0  0  0  0  0  0  0
    0.6470    2.8516    0.0000 N   0  0  0  0  0  0  0  0  0  0  0  0
   -1.4964    2.4391    0.0000 N   0  0  0  0  0  0  0  0  0  0  0  0
    2.7415    1.8351    0.0000 N   0  0  0  0  0  0  0  0  0  0  0  0
    0.6470    3.6766    0.0000 C   0  0  0  0  0  0  0  0  0  0  0  0
    1.4316    3.9315    0.0000 C   0  0  0  0  0  0  0  0  0  0  0  0
    1.9165    3.2641    0.0000 C   0  0  0  0  0  0  0  0  0  0  0  0
    1.4316    2.5966    0.0000 C   0  0  0  0  0  0  0  0  0  0  0  0
   -0.0675    2.4391    0.0000 C   0  0  0  0  0  0  0  0  0  0  0  0
    0.0339    4.2286    0.0000 C   0  0  0  0  0  0  0  0  0  0  0  0
   -0.7819    2.8516    0.0000 C   0  0  0  0  0  0  0  0  0  0  0  0
    1.6032    4.7385    0.0000 C   0  0  0  0  0  0  0  0  0  0  0  0
    2.7415    3.2641    0.0000 C   0  0  0  0  0  0  0  0  0  0  0  0
   -2.2109    2.8516    0.0000 C   0  0  0  0  0  0  0  0  0  0  0  0
    0.2054    5.0356    0.0000 C   0  0  0  0  0  0  0  0  0  0  0  0
    0.9901    5.2905    0.0000 C   0  0  0  0  0  0  0  0  0  0  0  0
    3.1540    2.5496    0.0000 C   0  0  0  0  0  0  0  0  0  0  0  0
   -1.4964    1.6141    0.0000 C   0  0  0  0  0  0  0  0  0  0  0  0
   -2.9254    2.4391    0.0000 C   0  0  0  0  0  0  0  0  0  0  0  0
   -2.2109    3.6766    0.0000 C   0  0  0  0  0  0  0  0  0  0  0  0
   -3.6398    2.8516    0.0000 C   0  0  0  0  0  0  0  0  0  0  0  0
   -2.9254    4.0891    0.0000 C   0  0  0  0  0  0  0  0  0  0  0  0
   -0.7819    1.2016    0.0000 C   0  0  0  0  0  0  0  0  0  0  0  0
    3.9790    2.5496    0.0000 C   0  0  0  0  0  0  0  0  0  0  0  0
   -3.6398    3.6766    0.0000 C   0  0  0  0  0  0  0  0  0  0  0  0
  1 13  2  0  0  0  0
  2  6  1  0  0  0  0
  3 25  1  0  0  0  0
  4  7  1  0  0  0  0
  4 10  1  0  0  0  0
  4 11  1  0  0  0  0
  5 13  1  0  0  0  0
  5 16  1  0  0  0  0
  5 20  1  0  0  0  0
  6 19  1  0  0  0  0
  7  8  2  0  0  0  0
  7 12  1  0  0  0  0
  8  9  1  0  0  0  0
  8 14  1  0  0  0  0
  9 10  2  0  0  0  0
  9 15  1  0  0  0  0
 11 13  1  0  0  0  0
 12 17  2  0  0  0  0
 14 18  2  0  0  0  0
 15 19  1  0  0  0  0
 16 21  2  0  0  0  0
 16 22  1  0  0  0  0
 17 18  1  0  0  0  0
 19 26  2  0  0  0  0
 20 25  1  0  0  0  0
 21 23  1  0  0  0  0
 22 24  2  0  0  0  0
 23 27  2  0  0  0  0
 24 27  1  0  0  0  0
M  END
> <PUBCHEM_COMPOUND_ID_TYPE>
0

> <PUBCHEM_TOTAL_CHARGE>
0

> <PUBCHEM_SUBSTANCE_ID>
310947439

> <PUBCHEM_SUBSTANCE_VERSION>
1

> <PUBCHEM_EXT_DATASOURCE_NAME>
4488

> <PUBCHEM_EXT_DATASOURCE_REGID>
SCHEMBL16125600

> <PUBCHEM_SUBSTANCE_COMMENT>
InChI=1S/C21H23N3O3/c1-16(22-27)13-17-14-23(20-10-6-5-9-19(17)20)15-21(26)24(11-12-25)18-7-3-2-4-8-18/h2-10,14,22,25,27H,1,11-13,15H2
InChIKey=HCBCXNJJVHEDCQ-UHFFFAOYSA-N

> <PUBCHEM_SUBSTANCE_SYNONYM>
SCHEMBL16125600

> <PUBCHEM_XREF_EXT_ID>
SCHEMBL16125600

> <PUBCHEM_EXT_DATASOURCE_URL>
https://www.surechembl.org/

> <PUBCHEM_EXT_SUBSTANCE_URL>
https://www.surechembl.org/chemical/SCHEMBL16125600

> <PUBCHEM_CID_ASSOCIATIONS>
117613171  1

> <PUBCHEM_COORDINATE_TYPE>
1
3

$$$$
