310941425
  -OEChem-07211613022D

 55 57  0     1  0  0  0  0  0999 V2000
    3.8599   -1.1426    0.0000 P   0  0  0  0  0  0  0  0  0  0  0  0
    3.8599   -0.3223    0.0000 O   0  0  0  0  0  0  0  0  0  0  0  0
    3.1422    0.0879    0.0000 O   0  0  0  0  0  0  0  0  0  0  0  0
    5.2808    2.1533    0.0000 O   0  0  0  0  0  0  0  0  0  0  0  0
    3.0250   -1.1426    0.0000 O   0  0  0  0  0  0  0  0  0  0  0  0
    3.8599   -1.9776    0.0000 O   0  0  0  0  0  0  0  0  0  0  0  0
    4.6802   -1.1426    0.0000 O   0  0  0  0  0  0  0  0  0  0  0  0
    0.9888    2.1533    0.0000 O   0  0  0  0  0  0  0  0  0  0  0  0
   -3.3033    2.1533    0.0000 O   0  0  0  0  0  0  0  0  0  0  0  0
   -1.1646    0.0879    0.0000 O   0  0  0  0  0  0  0  0  0  0  0  0
   -6.0132    1.9629    0.0000 O   0  0  0  0  0  0  0  0  0  0  0  0
    3.1422    2.5782    0.0000 O   0  0  0  0  0  0  0  0  0  0  0  0
    3.8599    1.3330    0.0000 N   0  0  0  0  0  0  0  0  0  0  0  0
   -4.7682    1.2597    0.0000 N   0  0  0  0  0  0  0  0  0  0  0  0
    1.7065    0.9228    0.0000 N   0  0  0  0  0  0  0  0  0  0  0  0
   -0.4468    1.3330    0.0000 N   0  0  0  0  0  0  0  0  0  0  0  0
    0.5201   -1.3183    0.0000 N   0  0  0  0  0  0  0  0  0  0  0  0
   -2.5855    0.9228    0.0000 N   0  0  0  0  0  0  0  0  0  0  0  0
    1.8531   -1.4063    0.0000 N   0  0  0  0  0  0  0  0  0  0  0  0
    6.0132    0.9228    0.0000 N   0  0  0  0  0  0  0  0  0  0  0  0
    4.5924    0.1172    0.0000 C   0  0  0  0  0  0  0  0  0  0  0  0
    4.5777    0.9375    0.0000 C   0  0  3  0  0  0  0  0  0  0  0  0
    0.3003    0.9522    0.0000 C   0  0  3  0  0  0  0  0  0  0  0  0
   -3.9917    0.9522    0.0000 C   0  0  3  0  0  0  0  0  0  0  0  0
    3.1567    0.9668    0.0000 C   0  0  0  0  0  0  0  0  0  0  0  0
    5.3394    1.3330    0.0000 C   0  0  0  0  0  0  0  0  0  0  0  0
    2.4244    1.3477    0.0000 C   0  0  3  0  0  0  0  0  0  0  0  0
    0.9888    1.3330    0.0000 C   0  0  0  0  0  0  0  0  0  0  0  0
   -3.3179    1.3330    0.0000 C   0  0  0  0  0  0  0  0  0  0  0  0
    0.8130   -0.5274    0.0000 C   0  0  0  0  0  0  0  0  0  0  0  0
   -1.8823    1.3477    0.0000 C   0  0  3  0  0  0  0  0  0  0  0  0
   -1.1499    0.9668    0.0000 C   0  0  0  0  0  0  0  0  0  0  0  0
    0.2710    0.0879    0.0000 C   0  0  0  0  0  0  0  0  0  0  0  0
    5.3101   -0.3076    0.0000 C   0  0  0  0  0  0  0  0  0  0  0  0
    5.3980    0.3369    0.0000 C   0  0  0  0  0  0  0  0  0  0  0  0
   -4.0797    0.1319    0.0000 C   0  0  0  0  0  0  0  0  0  0  0  0
   -5.3101    0.6299    0.0000 C   0  0  0  0  0  0  0  0  0  0  0  0
   -5.1636    1.9922    0.0000 C   0  0  0  0  0  0  0  0  0  0  0  0
    1.6479   -0.5859    0.0000 C   0  0  0  0  0  0  0  0  0  0  0  0
   -4.9146   -0.0293    0.0000 C   0  0  0  0  0  0  0  0  0  0  0  0
    1.1646   -1.8164    0.0000 C   0  0  0  0  0  0  0  0  0  0  0  0
   -1.8531    2.1827    0.0000 C   0  0  0  0  0  0  0  0  0  0  0  0
    2.4390    2.1827    0.0000 C   0  0  0  0  0  0  0  0  0  0  0  0
   -0.1099   -1.2891    0.0000 C   0  0  0  0  0  0  0  0  0  0  0  0
   -1.1499    2.5928    0.0000 C   0  0  0  0  0  0  0  0  0  0  0  0
   -0.4907   -1.5674    0.0000 C   0  0  0  0  0  0  0  0  0  0  0  0
   -4.7828    2.7100    0.0000 C   0  0  0  0  0  0  0  0  0  0  0  0
   -0.7251   -2.0215    0.0000 C   0  0  0  0  0  0  0  0  0  0  0  0
   -1.1646    3.4278    0.0000 C   0  0  0  0  0  0  0  0  0  0  0  0
   -0.3296    2.3877    0.0000 C   0  0  0  0  0  0  0  0  0  0  0  0
   -1.5454   -2.0215    0.0000 C   0  0  0  0  0  0  0  0  0  0  0  0
   -0.3149   -2.7246    0.0000 C   0  0  0  0  0  0  0  0  0  0  0  0
   -1.9409   -2.7246    0.0000 C   0  0  0  0  0  0  0  0  0  0  0  0
   -0.7104   -3.4278    0.0000 C   0  0  0  0  0  0  0  0  0  0  0  0
   -1.5454   -3.4278    0.0000 C   0  0  0  0  0  0  0  0  0  0  0  0
  1  2  1  0  0  0  0
  1  5  2  0  0  0  0
  1  6  1  0  0  0  0
  1  7  1  0  0  0  0
  2 21  1  0  0  0  0
  3 25  2  0  0  0  0
  4 26  2  0  0  0  0
  8 28  2  0  0  0  0
  9 29  2  0  0  0  0
 10 32  2  0  0  0  0
 11 38  2  0  0  0  0
 12 43  1  0  0  0  0
 22 13  1  6  0  0  0
 13 25  1  0  0  0  0
 14 24  1  0  0  0  0
 14 37  1  0  0  0  0
 14 38  1  0  0  0  0
 27 15  1  1  0  0  0
 15 28  1  0  0  0  0
 23 16  1  6  0  0  0
 16 32  1  0  0  0  0
 17 30  1  0  0  0  0
 17 41  1  0  0  0  0
 17 44  1  0  0  0  0
 18 29  1  0  0  0  0
 31 18  1  1  0  0  0
 19 39  1  0  0  0  0
 19 41  2  0  0  0  0
 20 26  1  0  0  0  0
 21 22  1  0  0  0  0
 21 34  1  0  0  0  0
 21 35  1  0  0  0  0
 22 26  1  0  0  0  0
 23 28  1  0  0  0  0
 23 33  1  0  0  0  0
 24 29  1  6  0  0  0
 24 36  1  0  0  0  0
 25 27  1  0  0  0  0
 27 43  1  0  0  0  0
 30 33  1  0  0  0  0
 30 39  2  0  0  0  0
 31 32  1  0  0  0  0
 31 42  1  0  0  0  0
 36 40  1  0  0  0  0
 37 40  1  0  0  0  0
 38 47  1  0  0  0  0
 42 45  1  0  0  0  0
 44 46  2  0  0  0  0
 45 49  1  0  0  0  0
 45 50  1  0  0  0  0
 46 48  1  0  0  0  0
 48 51  2  0  0  0  0
 48 52  1  0  0  0  0
 51 53  1  0  0  0  0
 52 54  2  0  0  0  0
 53 55  2  0  0  0  0
 54 55  1  0  0  0  0
M  END
> <PUBCHEM_COMPOUND_ID_TYPE>
0

> <PUBCHEM_TOTAL_CHARGE>
0

> <PUBCHEM_SUBSTANCE_ID>
310941425

> <PUBCHEM_SUBSTANCE_VERSION>
1

> <PUBCHEM_EXT_DATASOURCE_NAME>
4488

> <PUBCHEM_EXT_DATASOURCE_REGID>
SCHEMBL16119385

> <PUBCHEM_SUBSTANCE_COMMENT>
InChI=1S/C35H51N8O11P/c1-21(2)16-25(39-34(50)28-12-9-14-43(28)22(3)45)31(47)38-26(17-24-18-37-20-42(24)15-13-23-10-7-6-8-11-23)32(48)40-27(19-44)33(49)41-29(30(36)46)35(4,5)54-55(51,52)53/h6-8,10-11,13,15,18,20-21,25-29,44H,9,12,14,16-17,19H2,1-5H3,(H2,36,46)(H,38,47)(H,39,50)(H,40,48)(H,41,49)(H2,51,52,53)/b15-13-/t25-,26-,27-,28-,29+/m0/s1
InChIKey=YIZSLSFHCBUCRE-KJJYZJDESA-N

> <PUBCHEM_SUBSTANCE_SYNONYM>
SCHEMBL16119385

> <PUBCHEM_XREF_EXT_ID>
SCHEMBL16119385

> <PUBCHEM_EXT_DATASOURCE_URL>
https://www.surechembl.org/

> <PUBCHEM_EXT_SUBSTANCE_URL>
https://www.surechembl.org/chemical/SCHEMBL16119385

> <PUBCHEM_CID_ASSOCIATIONS>
117608250  1

> <PUBCHEM_COORDINATE_TYPE>
1
3

> <PUBCHEM_BONDANNOTATIONS>
22  13  6
27  15  5
23  16  6
31  18  5
24  29  6

$$$$
