310945582
  -OEChem-07211613022D

 24 27  0     0  0  0  0  0  0999 V2000
   -0.7040    3.1149    0.0000 O   0  0  0  0  0  0  0  0  0  0  0  0
   -0.6898    0.6258    0.0000 N   0  0  0  0  0  0  0  0  0  0  0  0
   -0.6898   -1.8632    0.0000 N   0  0  0  0  0  0  0  0  0  0  0  0
   -0.7467   -0.1849    0.0000 C   0  0  0  0  0  0  0  0  0  0  0  0
   -1.4578   -0.5974    0.0000 C   0  0  0  0  0  0  0  0  0  0  0  0
   -1.4578   -1.4365    0.0000 C   0  0  0  0  0  0  0  0  0  0  0  0
   -0.0213   -1.4365    0.0000 C   0  0  0  0  0  0  0  0  0  0  0  0
   -0.0071   -0.6258    0.0000 C   0  0  0  0  0  0  0  0  0  0  0  0
    0.7040   -1.8490    0.0000 C   0  0  0  0  0  0  0  0  0  0  0  0
   -2.1690   -0.1991    0.0000 C   0  0  0  0  0  0  0  0  0  0  0  0
   -2.1690   -1.8490    0.0000 C   0  0  0  0  0  0  0  0  0  0  0  0
   -1.4578    1.0525    0.0000 C   0  0  0  0  0  0  0  0  0  0  0  0
   -0.0213    1.0383    0.0000 C   0  0  0  0  0  0  0  0  0  0  0  0
   -2.8802   -0.6258    0.0000 C   0  0  0  0  0  0  0  0  0  0  0  0
    0.7040   -2.6882    0.0000 C   0  0  0  0  0  0  0  0  0  0  0  0
    1.4294   -1.4507    0.0000 C   0  0  0  0  0  0  0  0  0  0  0  0
   -2.8802   -1.4507    0.0000 C   0  0  0  0  0  0  0  0  0  0  0  0
   -1.4436    1.8774    0.0000 C   0  0  0  0  0  0  0  0  0  0  0  0
   -0.0071    1.8774    0.0000 C   0  0  0  0  0  0  0  0  0  0  0  0
   -0.7467    2.2757    0.0000 C   0  0  0  0  0  0  0  0  0  0  0  0
    1.4294   -3.0864    0.0000 C   0  0  0  0  0  0  0  0  0  0  0  0
    2.1406   -1.8632    0.0000 C   0  0  0  0  0  0  0  0  0  0  0  0
    2.1263   -2.6740    0.0000 C   0  0  0  0  0  0  0  0  0  0  0  0
    2.8802   -3.1149    0.0000 C   0  0  0  0  0  0  0  0  0  0  0  0
  1 20  2  0  0  0  0
  2  4  1  0  0  0  0
  2 12  1  0  0  0  0
  2 13  1  0  0  0  0
  3  6  1  0  0  0  0
  3  7  2  0  0  0  0
  4  5  1  0  0  0  0
  4  8  2  0  0  0  0
  5  6  1  0  0  0  0
  5 10  2  0  0  0  0
  6 11  2  0  0  0  0
  7  8  1  0  0  0  0
  7  9  1  0  0  0  0
  9 15  2  0  0  0  0
  9 16  1  0  0  0  0
 10 14  1  0  0  0  0
 11 17  1  0  0  0  0
 12 18  1  0  0  0  0
 13 19  1  0  0  0  0
 14 17  2  0  0  0  0
 15 21  1  0  0  0  0
 16 22  2  0  0  0  0
 18 20  1  0  0  0  0
 19 20  1  0  0  0  0
 21 23  2  0  0  0  0
 22 23  1  0  0  0  0
 23 24  1  0  0  0  0
M  END
> <PUBCHEM_COMPOUND_ID_TYPE>
0

> <PUBCHEM_TOTAL_CHARGE>
0

> <PUBCHEM_SUBSTANCE_ID>
310945582

> <PUBCHEM_SUBSTANCE_VERSION>
1

> <PUBCHEM_EXT_DATASOURCE_NAME>
4488

> <PUBCHEM_EXT_DATASOURCE_REGID>
SCHEMBL16123681

> <PUBCHEM_SUBSTANCE_COMMENT>
InChI=1S/C21H20N2O/c1-15-6-8-16(9-7-15)20-14-21(23-12-10-17(24)11-13-23)18-4-2-3-5-19(18)22-20/h2-9,14H,10-13H2,1H3
InChIKey=ALDYDYQQSVFGKT-UHFFFAOYSA-N

> <PUBCHEM_SUBSTANCE_SYNONYM>
SCHEMBL16123681

> <PUBCHEM_XREF_EXT_ID>
SCHEMBL16123681

> <PUBCHEM_EXT_DATASOURCE_URL>
https://www.surechembl.org/

> <PUBCHEM_EXT_SUBSTANCE_URL>
https://www.surechembl.org/chemical/SCHEMBL16123681

> <PUBCHEM_CID_ASSOCIATIONS>
117611610  1

> <PUBCHEM_COORDINATE_TYPE>
1
3

$$$$
