310941049
  -OEChem-07211613022D

 44 47  0     1  0  0  0  0  0999 V2000
    4.5566   -1.5213    0.0000 F   0  0  0  0  0  0  0  0  0  0  0  0
    5.2665   -1.9415    0.0000 F   0  0  0  0  0  0  0  0  0  0  0  0
    5.2665   -2.7673    0.0000 F   0  0  0  0  0  0  0  0  0  0  0  0
    5.1797    0.9853    0.0000 O   0  0  0  0  0  0  0  0  0  0  0  0
    4.0495   -0.9853    0.0000 O   0  0  0  0  0  0  0  0  0  0  0  0
    1.6879    0.9707    0.0000 O   0  0  0  0  0  0  0  0  0  0  0  0
    3.8322   -2.7673    0.0000 O   0  0  0  0  0  0  0  0  0  0  0  0
   -0.4709   -1.1011    0.0000 O   0  0  0  0  0  0  0  0  0  0  0  0
   -2.6152    0.9707    0.0000 O   0  0  0  0  0  0  0  0  0  0  0  0
   -5.4694    0.9707    0.0000 O   0  0  0  0  0  0  0  0  0  0  0  0
    2.3978   -0.2753    0.0000 N   0  0  0  0  0  0  0  0  0  0  0  0
    0.2536    0.1304    0.0000 N   0  0  0  0  0  0  0  0  0  0  0  0
   -1.8908   -0.2753    0.0000 N   0  0  0  0  0  0  0  0  0  0  0  0
   -4.0350    0.1304    0.0000 N   0  0  0  0  0  0  0  0  0  0  0  0
    4.7449    0.3187    0.0000 C   0  0  3  0  0  0  0  0  0  0  0  0
    4.0350   -0.1159    0.0000 C   0  0  0  0  0  0  0  0  0  0  0  0
    4.3683    0.9853    0.0000 C   0  0  0  0  0  0  0  0  0  0  0  0
    3.3106    0.2897    0.0000 C   0  0  3  0  0  0  0  0  0  0  0  0
    5.4694   -0.1159    0.0000 C   0  0  0  0  0  0  0  0  0  0  0  0
    3.3251    1.3619    0.0000 C   0  0  0  0  0  0  0  0  0  0  0  0
    1.6879    0.1449    0.0000 C   0  0  0  0  0  0  0  0  0  0  0  0
    0.9779   -0.2463    0.0000 C   0  0  3  0  0  0  0  0  0  0  0  0
    2.6007    1.7821    0.0000 C   0  0  0  0  0  0  0  0  0  0  0  0
    0.9490   -1.1011    0.0000 C   0  0  0  0  0  0  0  0  0  0  0  0
    1.6879   -1.4923    0.0000 C   0  0  0  0  0  0  0  0  0  0  0  0
    1.8762    1.4488    0.0000 C   0  0  0  0  0  0  0  0  0  0  0  0
    2.5283    2.5935    0.0000 C   0  0  0  0  0  0  0  0  0  0  0  0
   -0.4564   -0.2318    0.0000 C   0  0  0  0  0  0  0  0  0  0  0  0
    3.1223   -2.3182    0.0000 C   0  0  0  0  0  0  0  0  0  0  0  0
    1.7024   -2.3327    0.0000 C   0  0  0  0  0  0  0  0  0  0  0  0
    2.3834   -1.1011    0.0000 C   0  0  0  0  0  0  0  0  0  0  0  0
   -1.1808    0.1594    0.0000 C   0  0  3  0  0  0  0  0  0  0  0  0
    1.3257    2.0428    0.0000 C   0  0  0  0  0  0  0  0  0  0  0  0
    1.7314    2.7673    0.0000 C   0  0  0  0  0  0  0  0  0  0  0  0
    2.4123   -2.7384    0.0000 C   0  0  0  0  0  0  0  0  0  0  0  0
    3.1223   -1.5068    0.0000 C   0  0  0  0  0  0  0  0  0  0  0  0
    4.5422   -2.3182    0.0000 C   0  0  0  0  0  0  0  0  0  0  0  0
   -2.6152    0.1449    0.0000 C   0  0  0  0  0  0  0  0  0  0  0  0
   -1.1808    0.9853    0.0000 C   0  0  0  0  0  0  0  0  0  0  0  0
   -3.3251   -0.2463    0.0000 C   0  0  0  0  0  0  0  0  0  0  0  0
   -4.0350    0.9707    0.0000 C   0  0  0  0  0  0  0  0  0  0  0  0
   -4.7449   -0.2463    0.0000 C   0  0  0  0  0  0  0  0  0  0  0  0
   -4.7740    1.4053    0.0000 C   0  0  0  0  0  0  0  0  0  0  0  0
   -5.4549    0.1594    0.0000 C   0  0  0  0  0  0  0  0  0  0  0  0
  1 37  1  0  0  0  0
  2 37  1  0  0  0  0
  3 37  1  0  0  0  0
  4 15  1  0  0  0  0
  4 17  1  0  0  0  0
  5 16  2  0  0  0  0
  6 21  2  0  0  0  0
  7 29  1  0  0  0  0
  7 37  1  0  0  0  0
  8 28  2  0  0  0  0
  9 38  2  0  0  0  0
 10 43  1  0  0  0  0
 10 44  1  0  0  0  0
 18 11  1  1  0  0  0
 11 21  1  0  0  0  0
 22 12  1  6  0  0  0
 12 28  1  0  0  0  0
 13 32  1  0  0  0  0
 13 38  1  0  0  0  0
 14 40  1  0  0  0  0
 14 41  1  0  0  0  0
 14 42  1  0  0  0  0
 15 16  1  1  0  0  0
 15 17  1  0  0  0  0
 15 19  1  6  0  0  0
 16 18  1  0  0  0  0
 18 20  1  0  0  0  0
 20 23  1  0  0  0  0
 21 22  1  0  0  0  0
 22 24  1  0  0  0  0
 23 26  1  0  0  0  0
 23 27  1  0  0  0  0
 24 25  1  0  0  0  0
 25 30  2  0  0  0  0
 25 31  1  0  0  0  0
 26 33  1  0  0  0  0
 27 34  1  0  0  0  0
 28 32  1  0  0  0  0
 29 35  2  0  0  0  0
 29 36  1  0  0  0  0
 30 35  1  0  0  0  0
 31 36  2  0  0  0  0
 32 39  1  1  0  0  0
 33 34  1  0  0  0  0
 38 40  1  0  0  0  0
 41 43  1  0  0  0  0
 42 44  1  0  0  0  0
M  END
> <PUBCHEM_COMPOUND_ID_TYPE>
0

> <PUBCHEM_TOTAL_CHARGE>
0

> <PUBCHEM_SUBSTANCE_ID>
310941049

> <PUBCHEM_SUBSTANCE_VERSION>
1

> <PUBCHEM_EXT_DATASOURCE_NAME>
4488

> <PUBCHEM_EXT_DATASOURCE_REGID>
SCHEMBL16119008

> <PUBCHEM_SUBSTANCE_COMMENT>
InChI=1S/C30H41F3N4O7/c1-19(34-25(38)17-37-11-13-42-14-12-37)27(40)36-24(16-21-7-9-22(10-8-21)44-30(31,32)33)28(41)35-23(15-20-5-3-4-6-20)26(39)29(2)18-43-29/h7-10,19-20,23-24H,3-6,11-18H2,1-2H3,(H,34,38)(H,35,41)(H,36,40)/t19-,23-,24-,29+/m0/s1
InChIKey=OGNHQNZGLGCLBV-BWHDGOAMSA-N

> <PUBCHEM_SUBSTANCE_SYNONYM>
SCHEMBL16119008

> <PUBCHEM_XREF_EXT_ID>
SCHEMBL16119008

> <PUBCHEM_EXT_DATASOURCE_URL>
https://www.surechembl.org/

> <PUBCHEM_EXT_SUBSTANCE_URL>
https://www.surechembl.org/chemical/SCHEMBL16119008

> <PUBCHEM_CID_ASSOCIATIONS>
117607941  1

> <PUBCHEM_COORDINATE_TYPE>
1
3

> <PUBCHEM_BONDANNOTATIONS>
18  11  5
22  12  6
15  16  5
15  19  6
32  39  5

$$$$
