310944496
  -OEChem-07211613022D

 12 13  0     0  0  0  0  0  0999 V2000
   -1.8422   -0.4142    0.0000 O   0  0  0  0  0  0  0  0  0  0  0  0
    0.3091    0.8222    0.0000 C   0  0  0  0  0  0  0  0  0  0  0  0
    1.0262    1.2425    0.0000 C   0  0  0  0  0  0  0  0  0  0  0  0
   -0.4080    1.2301    0.0000 C   0  0  0  0  0  0  0  0  0  0  0  0
   -0.4080   -0.4018    0.0000 C   0  0  0  0  0  0  0  0  0  0  0  0
    0.3091   -0.0061    0.0000 C   0  0  0  0  0  0  0  0  0  0  0  0
   -1.1251    0.0061    0.0000 C   0  0  0  0  0  0  0  0  0  0  0  0
   -1.1004    0.8222    0.0000 C   0  0  0  0  0  0  0  0  0  0  0  0
    1.4465    1.9349    0.0000 C   0  0  0  0  0  0  0  0  0  0  0  0
    1.8422    1.2425    0.0000 C   0  0  0  0  0  0  0  0  0  0  0  0
   -0.4080    2.0586    0.0000 C   0  0  0  0  0  0  0  0  0  0  0  0
   -0.3957   -2.0586    0.0000 C   0  0  0  0  0  0  0  0  0  0  0  0
  1  7  1  0  0  0  0
  2  3  1  0  0  0  0
  2  4  2  0  0  0  0
  2  6  1  0  0  0  0
  3  9  1  0  0  0  0
  3 10  1  0  0  0  0
  4  8  1  0  0  0  0
  4 11  1  0  0  0  0
  5  6  2  0  0  0  0
  5  7  1  0  0  0  0
  5 12  1  0  0  0  0
  7  8  2  0  0  0  0
  9 10  1  0  0  0  0
M  END
> <PUBCHEM_COMPOUND_ID_TYPE>
0

> <PUBCHEM_TOTAL_CHARGE>
0

> <PUBCHEM_SUBSTANCE_ID>
310944496

> <PUBCHEM_SUBSTANCE_VERSION>
1

> <PUBCHEM_EXT_DATASOURCE_NAME>
4488

> <PUBCHEM_EXT_DATASOURCE_REGID>
SCHEMBL16122571

> <PUBCHEM_SUBSTANCE_COMMENT>
InChI=1S/C11H14O/c1-7-6-11(12)8(2)5-10(7)9-3-4-9/h5-6,9,12H,3-4H2,1-2H3
InChIKey=SVPWLHDZTXJUCH-UHFFFAOYSA-N

> <PUBCHEM_SUBSTANCE_SYNONYM>
SCHEMBL16122571

> <PUBCHEM_XREF_EXT_ID>
SCHEMBL16122571

> <PUBCHEM_EXT_DATASOURCE_URL>
https://www.surechembl.org/

> <PUBCHEM_EXT_SUBSTANCE_URL>
https://www.surechembl.org/chemical/SCHEMBL16122571

> <PUBCHEM_CID_ASSOCIATIONS>
117610734  1

> <PUBCHEM_COORDINATE_TYPE>
1
3

$$$$
