310939807
  -OEChem-07211613022D

 33 35  0     0  0  0  0  0  0999 V2000
    1.4289    2.4197    0.0000 Cl  0  0  0  0  0  0  0  0  0  0  0  0
   -2.8579   -3.3553    0.0000 S   0  0  0  0  0  0  0  0  0  0  0  0
    0.0000   -0.0553    0.0000 O   0  0  0  0  0  0  0  0  0  0  0  0
    3.5724    3.6572    0.0000 O   0  0  0  0  0  0  0  0  0  0  0  0
    1.4289   -2.5303    0.0000 O   0  0  0  0  0  0  0  0  0  0  0  0
   -2.4454   -2.6408    0.0000 O   0  0  0  0  0  0  0  0  0  0  0  0
   -3.2704   -4.0697    0.0000 O   0  0  0  0  0  0  0  0  0  0  0  0
    1.4289   -0.8803    0.0000 N   0  0  0  0  0  0  0  0  0  0  0  0
    0.0000   -2.5303    0.0000 N   0  0  0  0  0  0  0  0  0  0  0  0
   -2.1434   -3.7678    0.0000 N   0  0  0  0  0  0  0  0  0  0  0  0
    2.1434    1.1822    0.0000 C   0  0  0  0  0  0  0  0  0  0  0  0
    1.4289   -0.0553    0.0000 C   0  0  0  0  0  0  0  0  0  0  0  0
    1.4289    1.5947    0.0000 C   0  0  0  0  0  0  0  0  0  0  0  0
    2.8579    1.5947    0.0000 C   0  0  0  0  0  0  0  0  0  0  0  0
    0.7145    0.3572    0.0000 C   0  0  0  0  0  0  0  0  0  0  0  0
    2.1434    0.3572    0.0000 C   0  0  0  0  0  0  0  0  0  0  0  0
    0.7145    1.1822    0.0000 C   0  0  0  0  0  0  0  0  0  0  0  0
    2.8579    2.4197    0.0000 C   0  0  0  0  0  0  0  0  0  0  0  0
    3.5724    1.1822    0.0000 C   0  0  0  0  0  0  0  0  0  0  0  0
    0.7145   -2.1178    0.0000 C   0  0  0  0  0  0  0  0  0  0  0  0
    3.5724    2.8322    0.0000 C   0  0  0  0  0  0  0  0  0  0  0  0
    0.7145   -1.2928    0.0000 C   0  0  0  0  0  0  0  0  0  0  0  0
   -1.4289   -3.3553    0.0000 C   0  0  0  0  0  0  0  0  0  0  0  0
   -0.7145   -2.1178    0.0000 C   0  0  0  0  0  0  0  0  0  0  0  0
    0.0000   -3.3553    0.0000 C   0  0  0  0  0  0  0  0  0  0  0  0
    4.2868    1.5947    0.0000 C   0  0  0  0  0  0  0  0  0  0  0  0
   -1.4289   -2.5303    0.0000 C   0  0  0  0  0  0  0  0  0  0  0  0
   -0.7145   -3.7678    0.0000 C   0  0  0  0  0  0  0  0  0  0  0  0
    4.2868    2.4197    0.0000 C   0  0  0  0  0  0  0  0  0  0  0  0
   -3.5724   -2.9428    0.0000 C   0  0  0  0  0  0  0  0  0  0  0  0
   -0.7145    0.3572    0.0000 C   0  0  0  0  0  0  0  0  0  0  0  0
    4.2868    4.0697    0.0000 C   0  0  0  0  0  0  0  0  0  0  0  0
   -4.2868   -3.3553    0.0000 C   0  0  0  0  0  0  0  0  0  0  0  0
  1 13  1  0  0  0  0
  2  6  2  0  0  0  0
  2  7  2  0  0  0  0
  2 10  1  0  0  0  0
  2 30  1  0  0  0  0
  3 15  1  0  0  0  0
  3 31  1  0  0  0  0
  4 21  1  0  0  0  0
  4 32  1  0  0  0  0
  5 20  2  0  0  0  0
  8 12  1  0  0  0  0
  8 22  1  0  0  0  0
  9 20  1  0  0  0  0
  9 24  1  0  0  0  0
  9 25  1  0  0  0  0
 10 23  1  0  0  0  0
 11 13  2  0  0  0  0
 11 14  1  0  0  0  0
 11 16  1  0  0  0  0
 12 15  1  0  0  0  0
 12 16  2  0  0  0  0
 13 17  1  0  0  0  0
 14 18  1  0  0  0  0
 14 19  2  0  0  0  0
 15 17  2  0  0  0  0
 18 21  2  0  0  0  0
 19 26  1  0  0  0  0
 20 22  1  0  0  0  0
 21 29  1  0  0  0  0
 23 27  1  0  0  0  0
 23 28  1  0  0  0  0
 24 27  1  0  0  0  0
 25 28  1  0  0  0  0
 26 29  2  0  0  0  0
 30 33  2  0  0  0  0
M  END
> <PUBCHEM_COMPOUND_ID_TYPE>
0

> <PUBCHEM_TOTAL_CHARGE>
0

> <PUBCHEM_SUBSTANCE_ID>
310939807

> <PUBCHEM_SUBSTANCE_VERSION>
1

> <PUBCHEM_EXT_DATASOURCE_NAME>
4488

> <PUBCHEM_EXT_DATASOURCE_REGID>
SCHEMBL16117737

> <PUBCHEM_SUBSTANCE_COMMENT>
InChI=1S/C23H28ClN3O5S/c1-4-33(29,30)26-17-8-10-27(11-9-17)23(28)15-25-21-13-19(20(24)14-22(21)32-3)16-6-5-7-18(12-16)31-2/h4-7,12-14,17,25-26H,1,8-11,15H2,2-3H3
InChIKey=YOUWASZBUZRZMQ-UHFFFAOYSA-N

> <PUBCHEM_SUBSTANCE_SYNONYM>
SCHEMBL16117737

> <PUBCHEM_XREF_EXT_ID>
SCHEMBL16117737

> <PUBCHEM_EXT_DATASOURCE_URL>
https://www.surechembl.org/

> <PUBCHEM_EXT_SUBSTANCE_URL>
https://www.surechembl.org/chemical/SCHEMBL16117737

> <PUBCHEM_CID_ASSOCIATIONS>
117607025  1

> <PUBCHEM_COORDINATE_TYPE>
1
3

$$$$
