310929662
  -OEChem-07211613022D

 67 74  0     1  0  0  0  0  0999 V2000
   -0.2152   -4.7543    0.0000 S   0  0  0  0  0  0  0  0  0  0  0  0
   -0.1242   -3.1068    0.0000 O   0  0  0  0  0  0  0  0  0  0  0  0
    0.0873   -2.8315    0.0000 O   0  0  0  0  0  0  0  0  0  0  0  0
   -0.0231    0.8224    0.0000 O   0  0  0  0  0  0  0  0  0  0  0  0
    4.2996   -1.5896    0.0000 O   0  0  0  0  0  0  0  0  0  0  0  0
    0.9669   -2.3059    0.0000 O   0  0  0  0  0  0  0  0  0  0  0  0
   -0.6664   -5.4449    0.0000 O   0  0  0  0  0  0  0  0  0  0  0  0
    0.2361   -4.0636    0.0000 O   0  0  0  0  0  0  0  0  0  0  0  0
    3.5670   -0.3627    0.0000 O   0  0  0  0  0  0  0  0  0  0  0  0
    2.8345    0.8642    0.0000 O   0  0  0  0  0  0  0  0  0  0  0  0
   -0.2741    1.0662    0.0000 O   0  0  0  0  0  0  0  0  0  0  0  0
   -1.2265   -2.2695    0.0000 N   0  0  0  0  0  0  0  0  0  0  0  0
    0.7215   -1.2294    0.0000 N   0  0  0  0  0  0  0  0  0  0  0  0
   -0.9058   -4.3030    0.0000 N   0  0  0  0  0  0  0  0  0  0  0  0
    2.8708   -1.6105    0.0000 N   0  0  0  0  0  0  0  0  0  0  0  0
    0.6732    2.0702    0.0000 N   0  0  0  0  0  0  0  0  0  0  0  0
    1.4178    0.0184    0.0000 N   0  0  0  0  0  0  0  0  0  0  0  0
   -1.5509   -3.0280    0.0000 C   0  0  3  0  0  0  0  0  0  0  0  0
   -2.3543   -2.8402    0.0000 C   0  0  3  0  0  0  0  0  0  0  0  0
   -2.1153   -3.6298    0.0000 C   0  0  0  0  0  0  0  0  0  0  0  0
   -0.8603   -3.4793    0.0000 C   0  0  0  0  0  0  0  0  0  0  0  0
   -0.0828   -1.4127    0.0000 C   0  0  3  0  0  0  0  0  0  0  0  0
   -0.4073   -2.1713    0.0000 C   0  0  0  0  0  0  0  0  0  0  0  0
   -2.9561   -2.2758    0.0000 C   0  0  0  0  0  0  0  0  0  0  0  0
   -0.0110   -0.0025    0.0000 C   0  0  3  0  0  0  0  0  0  0  0  0
   -0.5058   -0.7044    0.0000 C   0  0  0  0  0  0  0  0  0  0  0  0
    1.4420   -1.6314    0.0000 C   0  0  0  0  0  0  0  0  0  0  0  0
    5.0079   -1.1667    0.0000 C   0  0  3  0  0  0  0  0  0  0  0  0
    2.1503   -1.2085    0.0000 C   0  0  3  0  0  0  0  0  0  0  0  0
    0.7095   -0.4045    0.0000 C   0  0  0  0  0  0  0  0  0  0  0  0
    4.9958   -0.3417    0.0000 C   0  0  3  0  0  0  0  0  0  0  0  0
    5.7163   -0.7437    0.0000 C   0  0  0  0  0  0  0  0  0  0  0  0
    2.1624   -2.0334    0.0000 C   0  0  0  0  0  0  0  0  0  0  0  0
    0.4755   -5.2056    0.0000 C   0  0  0  0  0  0  0  0  0  0  0  0
   -3.7457   -2.5148    0.0000 C   0  0  0  0  0  0  0  0  0  0  0  0
    3.5791   -1.1876    0.0000 C   0  0  0  0  0  0  0  0  0  0  0  0
    4.2754    0.0602    0.0000 C   0  0  0  0  0  0  0  0  0  0  0  0
    0.4415    0.9942    0.0000 C   0  0  0  0  0  0  0  0  0  0  0  0
    5.4308   -1.8750    0.0000 C   0  0  0  0  0  0  0  0  0  0  0  0
    1.1619    0.5922    0.0000 C   0  0  0  0  0  0  0  0  0  0  0  0
    0.8480   -5.9417    0.0000 C   0  0  0  0  0  0  0  0  0  0  0  0
    1.2992   -5.2511    0.0000 C   0  0  0  0  0  0  0  0  0  0  0  0
    2.1141    1.2662    0.0000 C   0  0  0  0  0  0  0  0  0  0  0  0
    2.1745   -2.8583    0.0000 C   0  0  0  0  0  0  0  0  0  0  0  0
    2.9873   -2.0213    0.0000 C   0  0  0  0  0  0  0  0  0  0  0  0
    1.3375   -2.0455    0.0000 C   0  0  0  0  0  0  0  0  0  0  0  0
    4.2633    0.8852    0.0000 C   0  0  0  0  0  0  0  0  0  0  0  0
    1.3816    2.4931    0.0000 C   0  0  0  0  0  0  0  0  0  0  0  0
    2.1020    2.0911    0.0000 C   0  0  0  0  0  0  0  0  0  0  0  0
    1.8630    1.5101    0.0000 C   0  0  0  0  0  0  0  0  0  0  0  0
    3.5429    1.2872    0.0000 C   0  0  0  0  0  0  0  0  0  0  0  0
    2.5834    1.1081    0.0000 C   0  0  0  0  0  0  0  0  0  0  0  0
    1.3695    3.3181    0.0000 C   0  0  0  0  0  0  0  0  0  0  0  0
    2.8104    2.5141    0.0000 C   0  0  0  0  0  0  0  0  0  0  0  0
    2.0779    3.7410    0.0000 C   0  0  0  0  0  0  0  0  0  0  0  0
    2.7983    3.3390    0.0000 C   0  0  0  0  0  0  0  0  0  0  0  0
    2.8466    0.0393    0.0000 C   0  0  0  0  0  0  0  0  0  0  0  0
    2.1382   -0.3836    0.0000 C   0  0  0  0  0  0  0  0  0  0  0  0
    1.4057    0.8433    0.0000 C   0  0  0  0  0  0  0  0  0  0  0  0
    0.4584   -0.1607    0.0000 C   0  0  0  0  0  0  0  0  0  0  0  0
    0.6853    1.2453    0.0000 C   0  0  0  0  0  0  0  0  0  0  0  0
   -0.2621    0.2413    0.0000 C   0  0  0  0  0  0  0  0  0  0  0  0
   -1.9649   -2.1128    0.0000 H   0  0  0  0  0  0  0  0  0  0  0  0
   -0.9060   -1.4680    0.0000 H   0  0  0  0  0  0  0  0  0  0  0  0
   -0.7992    0.2410    0.0000 H   0  0  0  0  0  0  0  0  0  0  0  0
    5.3978    0.3787    0.0000 H   0  0  0  0  0  0  0  0  0  0  0  0
    1.7483   -1.9289    0.0000 H   0  0  0  0  0  0  0  0  0  0  0  0
  1  7  2  0  0  0  0
  1  8  2  0  0  0  0
  1 14  1  0  0  0  0
  1 34  1  0  0  0  0
  2 21  2  0  0  0  0
  3 23  2  0  0  0  0
  4 25  1  0  0  0  0
  4 38  1  0  0  0  0
  5 28  1  0  0  0  0
  5 36  1  0  0  0  0
  6 27  2  0  0  0  0
  9 36  2  0  0  0  0
 10 43  1  0  0  0  0
 10 57  1  0  0  0  0
 11 61  1  0  0  0  0
 11 62  1  0  0  0  0
 18 12  1  6  0  0  0
 12 23  1  0  0  0  0
 13 22  1  0  0  0  0
 13 27  1  0  0  0  0
 13 30  1  0  0  0  0
 14 21  1  0  0  0  0
 15 29  1  0  0  0  0
 15 36  1  0  0  0  0
 16 38  2  0  0  0  0
 16 48  1  0  0  0  0
 17 58  1  0  0  0  0
 17 59  1  0  0  0  0
 17 60  1  0  0  0  0
 18 19  1  0  0  0  0
 18 20  1  0  0  0  0
 18 21  1  1  0  0  0
 19 20  1  0  0  0  0
 19 24  1  0  0  0  0
 19 63  1  6  0  0  0
 22 23  1  0  0  0  0
 22 26  1  0  0  0  0
 22 64  1  1  0  0  0
 24 35  2  0  0  0  0
 25 26  1  0  0  0  0
 25 30  1  0  0  0  0
 25 65  1  6  0  0  0
 27 29  1  0  0  0  0
 28 31  1  0  0  0  0
 28 32  1  0  0  0  0
 28 39  1  6  0  0  0
 29 33  1  0  0  0  0
 29 67  1  6  0  0  0
 31 32  1  0  0  0  0
 31 37  1  0  0  0  0
 31 66  1  1  0  0  0
 33 44  1  0  0  0  0
 33 45  1  0  0  0  0
 33 46  1  0  0  0  0
 34 41  1  0  0  0  0
 34 42  1  0  0  0  0
 37 47  1  0  0  0  0
 38 40  1  0  0  0  0
 40 43  2  0  0  0  0
 40 50  1  0  0  0  0
 41 42  1  0  0  0  0
 43 49  1  0  0  0  0
 47 51  1  0  0  0  0
 48 49  2  0  0  0  0
 48 53  1  0  0  0  0
 49 54  1  0  0  0  0
 50 52  1  0  0  0  0
 51 52  1  0  0  0  0
 53 55  2  0  0  0  0
 54 56  2  0  0  0  0
 55 56  1  0  0  0  0
 57 58  1  0  0  0  0
 59 61  1  0  0  0  0
 60 62  1  0  0  0  0
M  END
> <PUBCHEM_COMPOUND_ID_TYPE>
0

> <PUBCHEM_TOTAL_CHARGE>
0

> <PUBCHEM_SUBSTANCE_ID>
310929662

> <PUBCHEM_SUBSTANCE_VERSION>
1

> <PUBCHEM_EXT_DATASOURCE_NAME>
4488

> <PUBCHEM_EXT_DATASOURCE_REGID>
SCHEMBL16106853

> <PUBCHEM_SUBSTANCE_COMMENT>
InChI=1S/C45H62N6O10S/c1-6-28-26-45(28,41(54)49-62(56,57)31-16-17-31)48-38(52)35-24-30-27-51(35)40(53)37(43(2,3)4)47-42(55)61-44(5)25-29(44)12-8-7-9-14-33-36(59-23-20-50-18-21-58-22-19-50)32-13-10-11-15-34(32)46-39(33)60-30/h6,10-11,13,15,28-31,35,37H,1,7-9,12,14,16-27H2,2-5H3,(H,47,55)(H,48,52)(H,49,54)/t28-,29-,30-,35+,37-,44-,45-/m1/s1
InChIKey=BWWPSYXFHBSQQK-INDWAZKZSA-N

> <PUBCHEM_SUBSTANCE_SYNONYM>
SCHEMBL16106853

> <PUBCHEM_XREF_EXT_ID>
SCHEMBL16106853

> <PUBCHEM_EXT_DATASOURCE_URL>
https://www.surechembl.org/

> <PUBCHEM_EXT_SUBSTANCE_URL>
https://www.surechembl.org/chemical/SCHEMBL16106853

> <PUBCHEM_CID_ASSOCIATIONS>
117598961  1

> <PUBCHEM_COORDINATE_TYPE>
1
3

> <PUBCHEM_BONDANNOTATIONS>
18  12  6
18  21  5
19  63  6
22  64  5
25  65  6
28  39  6
29  67  6
31  66  5

$$$$
