310940997
  -OEChem-07211613022D

 42 45  0     1  0  0  0  0  0999 V2000
    5.1844   -1.4252    0.0000 O   0  0  0  0  0  0  0  0  0  0  0  0
    4.0501    0.5380    0.0000 O   0  0  0  0  0  0  0  0  0  0  0  0
    1.6797   -1.4106    0.0000 O   0  0  0  0  0  0  0  0  0  0  0  0
    3.8320    2.3268    0.0000 O   0  0  0  0  0  0  0  0  0  0  0  0
   -0.4726    0.6544    0.0000 O   0  0  0  0  0  0  0  0  0  0  0  0
    2.4068    3.1557    0.0000 O   0  0  0  0  0  0  0  0  0  0  0  0
   -2.6250   -1.4106    0.0000 O   0  0  0  0  0  0  0  0  0  0  0  0
   -5.5044   -1.4106    0.0000 O   0  0  0  0  0  0  0  0  0  0  0  0
    2.4068   -0.1745    0.0000 N   0  0  0  0  0  0  0  0  0  0  0  0
    0.2545   -0.5817    0.0000 N   0  0  0  0  0  0  0  0  0  0  0  0
   -1.9123   -0.1745    0.0000 N   0  0  0  0  0  0  0  0  0  0  0  0
   -4.0646   -0.5817    0.0000 N   0  0  0  0  0  0  0  0  0  0  0  0
    4.7773   -0.6981    0.0000 C   0  0  3  0  0  0  0  0  0  0  0  0
    4.0065   -0.2763    0.0000 C   0  0  0  0  0  0  0  0  0  0  0  0
    4.3846   -1.3961    0.0000 C   0  0  0  0  0  0  0  0  0  0  0  0
    3.3667   -0.6690    0.0000 C   0  0  3  0  0  0  0  0  0  0  0  0
    5.5044   -0.2617    0.0000 C   0  0  0  0  0  0  0  0  0  0  0  0
    3.3521   -1.7596    0.0000 C   0  0  0  0  0  0  0  0  0  0  0  0
    1.6942   -0.5380    0.0000 C   0  0  0  0  0  0  0  0  0  0  0  0
    0.9671   -0.1454    0.0000 C   0  0  3  0  0  0  0  0  0  0  0  0
    2.6250   -2.1669    0.0000 C   0  0  0  0  0  0  0  0  0  0  0  0
    0.9816    0.6981    0.0000 C   0  0  0  0  0  0  0  0  0  0  0  0
    1.6942    1.1052    0.0000 C   0  0  0  0  0  0  0  0  0  0  0  0
   -0.4726   -0.1599    0.0000 C   0  0  0  0  0  0  0  0  0  0  0  0
    1.8833   -1.8469    0.0000 C   0  0  0  0  0  0  0  0  0  0  0  0
    2.5232   -2.9958    0.0000 C   0  0  0  0  0  0  0  0  0  0  0  0
    1.7087    1.9487    0.0000 C   0  0  0  0  0  0  0  0  0  0  0  0
    2.4068    2.3414    0.0000 C   0  0  0  0  0  0  0  0  0  0  0  0
    3.1339    1.9341    0.0000 C   0  0  0  0  0  0  0  0  0  0  0  0
    2.4214    0.6981    0.0000 C   0  0  0  0  0  0  0  0  0  0  0  0
   -1.1707   -0.5526    0.0000 C   0  0  3  0  0  0  0  0  0  0  0  0
    3.1339    1.1052    0.0000 C   0  0  0  0  0  0  0  0  0  0  0  0
    1.3306   -2.4577    0.0000 C   0  0  0  0  0  0  0  0  0  0  0  0
    1.7233   -3.1557    0.0000 C   0  0  0  0  0  0  0  0  0  0  0  0
   -2.6104   -0.5380    0.0000 C   0  0  0  0  0  0  0  0  0  0  0  0
   -1.1852   -1.3670    0.0000 C   0  0  0  0  0  0  0  0  0  0  0  0
   -3.3521   -0.1454    0.0000 C   0  0  0  0  0  0  0  0  0  0  0  0
   -4.0501   -1.3815    0.0000 C   0  0  0  0  0  0  0  0  0  0  0  0
   -4.7918   -0.1454    0.0000 C   0  0  0  0  0  0  0  0  0  0  0  0
    4.5882    1.9341    0.0000 C   0  0  0  0  0  0  0  0  0  0  0  0
   -4.7482   -1.7887    0.0000 C   0  0  0  0  0  0  0  0  0  0  0  0
   -5.4753   -0.5526    0.0000 C   0  0  0  0  0  0  0  0  0  0  0  0
  1 13  1  0  0  0  0
  1 15  1  0  0  0  0
  2 14  2  0  0  0  0
  3 19  2  0  0  0  0
  4 29  1  0  0  0  0
  4 40  1  0  0  0  0
  5 24  2  0  0  0  0
  6 28  1  0  0  0  0
  7 35  2  0  0  0  0
  8 41  1  0  0  0  0
  8 42  1  0  0  0  0
 16  9  1  6  0  0  0
  9 19  1  0  0  0  0
 20 10  1  1  0  0  0
 10 24  1  0  0  0  0
 11 31  1  0  0  0  0
 11 35  1  0  0  0  0
 12 37  1  0  0  0  0
 12 38  1  0  0  0  0
 12 39  1  0  0  0  0
 13 14  1  6  0  0  0
 13 15  1  0  0  0  0
 13 17  1  1  0  0  0
 14 16  1  0  0  0  0
 16 18  1  0  0  0  0
 18 21  1  0  0  0  0
 19 20  1  0  0  0  0
 20 22  1  0  0  0  0
 21 25  1  0  0  0  0
 21 26  1  0  0  0  0
 22 23  1  0  0  0  0
 23 27  1  0  0  0  0
 23 30  2  0  0  0  0
 24 31  1  0  0  0  0
 25 33  1  0  0  0  0
 26 34  1  0  0  0  0
 27 28  2  0  0  0  0
 28 29  1  0  0  0  0
 29 32  2  0  0  0  0
 30 32  1  0  0  0  0
 31 36  1  6  0  0  0
 33 34  1  0  0  0  0
 35 37  1  0  0  0  0
 38 41  1  0  0  0  0
 39 42  1  0  0  0  0
M  END
> <PUBCHEM_COMPOUND_ID_TYPE>
0

> <PUBCHEM_TOTAL_CHARGE>
0

> <PUBCHEM_SUBSTANCE_ID>
310940997

> <PUBCHEM_SUBSTANCE_VERSION>
1

> <PUBCHEM_EXT_DATASOURCE_NAME>
4488

> <PUBCHEM_EXT_DATASOURCE_REGID>
SCHEMBL16118956

> <PUBCHEM_SUBSTANCE_COMMENT>
InChI=1S/C30H44N4O8/c1-19(31-26(36)17-34-10-12-41-13-11-34)28(38)33-23(15-21-8-9-25(40-3)24(35)16-21)29(39)32-22(14-20-6-4-5-7-20)27(37)30(2)18-42-30/h8-9,16,19-20,22-23,35H,4-7,10-15,17-18H2,1-3H3,(H,31,36)(H,32,39)(H,33,38)/t19-,22-,23-,30+/m0/s1
InChIKey=HPYUCOHNFVONIB-UMKVOQDKSA-N

> <PUBCHEM_SUBSTANCE_SYNONYM>
SCHEMBL16118956

> <PUBCHEM_XREF_EXT_ID>
SCHEMBL16118956

> <PUBCHEM_EXT_DATASOURCE_URL>
https://www.surechembl.org/

> <PUBCHEM_EXT_SUBSTANCE_URL>
https://www.surechembl.org/chemical/SCHEMBL16118956

> <PUBCHEM_CID_ASSOCIATIONS>
117607903  1

> <PUBCHEM_COORDINATE_TYPE>
1
3

> <PUBCHEM_BONDANNOTATIONS>
20  10  5
13  14  6
13  17  5
31  36  6
16  9  6

$$$$
