310946212
  -OEChem-07211613022D

 50 58  0     0  0  0  0  0  0999 V2000
   -3.6706    0.3167    0.0000 N   0  0  0  0  0  0  0  0  0  0  0  0
    2.8932    0.1151    0.0000 N   0  0  0  0  0  0  0  0  0  0  0  0
   -2.6630    0.0288    0.0000 C   0  0  0  0  0  0  0  0  0  0  0  0
   -2.2023    0.8061    0.0000 C   0  0  0  0  0  0  0  0  0  0  0  0
   -3.6706    1.1515    0.0000 C   0  0  0  0  0  0  0  0  0  0  0  0
   -2.8644    1.5258    0.0000 C   0  0  0  0  0  0  0  0  0  0  0  0
   -4.3902   -0.4031    0.0000 C   0  0  0  0  0  0  0  0  0  0  0  0
   -1.2523    0.7773    0.0000 C   0  0  0  0  0  0  0  0  0  0  0  0
   -0.7916    0.0288    0.0000 C   0  0  0  0  0  0  0  0  0  0  0  0
   -2.1735   -0.8061    0.0000 C   0  0  0  0  0  0  0  0  0  0  0  0
   -4.4190    1.6984    0.0000 C   0  0  0  0  0  0  0  0  0  0  0  0
   -2.7493    2.4758    0.0000 C   0  0  0  0  0  0  0  0  0  0  0  0
   -1.2523   -0.8061    0.0000 C   0  0  0  0  0  0  0  0  0  0  0  0
    0.1584    0.0000    0.0000 C   0  0  0  0  0  0  0  0  0  0  0  0
   -4.3326   -1.2379    0.0000 C   0  0  0  0  0  0  0  0  0  0  0  0
   -5.1387   -0.1151    0.0000 C   0  0  0  0  0  0  0  0  0  0  0  0
   -4.3326    2.6198    0.0000 C   0  0  0  0  0  0  0  0  0  0  0  0
   -3.5266    2.9940    0.0000 C   0  0  0  0  0  0  0  0  0  0  0  0
    2.0008    0.0288    0.0000 C   0  0  0  0  0  0  0  0  0  0  0  0
    0.6477   -0.8061    0.0000 C   0  0  0  0  0  0  0  0  0  0  0  0
    0.6189    0.7773    0.0000 C   0  0  0  0  0  0  0  0  0  0  0  0
    3.3538   -0.6909    0.0000 C   0  0  0  0  0  0  0  0  0  0  0  0
    3.3538    0.7196    0.0000 C   0  0  0  0  0  0  0  0  0  0  0  0
    1.5403   -0.8061    0.0000 C   0  0  0  0  0  0  0  0  0  0  0  0
    1.5690    0.8061    0.0000 C   0  0  0  0  0  0  0  0  0  0  0  0
   -4.9084   -1.6698    0.0000 C   0  0  0  0  0  0  0  0  0  0  0  0
   -5.7433   -0.5757    0.0000 C   0  0  0  0  0  0  0  0  0  0  0  0
   -5.6570   -1.3819    0.0000 C   0  0  0  0  0  0  0  0  0  0  0  0
    4.1887   -0.7484    0.0000 C   0  0  0  0  0  0  0  0  0  0  0  0
    2.9795   -1.4107    0.0000 C   0  0  0  0  0  0  0  0  0  0  0  0
    3.0084    1.3531    0.0000 C   0  0  0  0  0  0  0  0  0  0  0  0
    4.1311    0.7773    0.0000 C   0  0  0  0  0  0  0  0  0  0  0  0
    4.1599   -2.1015    0.0000 C   0  0  0  0  0  0  0  0  0  0  0  0
    4.1599    2.0727    0.0000 C   0  0  0  0  0  0  0  0  0  0  0  0
    4.5342   -1.3531    0.0000 C   0  0  0  0  0  0  0  0  0  0  0  0
    3.3826   -2.0727    0.0000 C   0  0  0  0  0  0  0  0  0  0  0  0
    3.3538    2.0440    0.0000 C   0  0  0  0  0  0  0  0  0  0  0  0
    4.5342    1.4395    0.0000 C   0  0  0  0  0  0  0  0  0  0  0  0
    4.5630   -2.7638    0.0000 C   0  0  0  0  0  0  0  0  0  0  0  0
    4.5630    2.7926    0.0000 C   0  0  0  0  0  0  0  0  0  0  0  0
    5.3978   -2.8214    0.0000 C   0  0  0  0  0  0  0  0  0  0  0  0
    4.1887   -3.4834    0.0000 C   0  0  0  0  0  0  0  0  0  0  0  0
    4.1887    3.4546    0.0000 C   0  0  0  0  0  0  0  0  0  0  0  0
    5.3690    2.7926    0.0000 C   0  0  0  0  0  0  0  0  0  0  0  0
    5.7433   -3.4258    0.0000 C   0  0  0  0  0  0  0  0  0  0  0  0
    4.5918   -4.1455    0.0000 C   0  0  0  0  0  0  0  0  0  0  0  0
    4.5630    4.1167    0.0000 C   0  0  0  0  0  0  0  0  0  0  0  0
    5.7433    3.5122    0.0000 C   0  0  0  0  0  0  0  0  0  0  0  0
    5.3690   -4.1455    0.0000 C   0  0  0  0  0  0  0  0  0  0  0  0
    5.3978    4.1455    0.0000 C   0  0  0  0  0  0  0  0  0  0  0  0
  1  3  1  0  0  0  0
  1  5  1  0  0  0  0
  1  7  1  0  0  0  0
  2 19  1  0  0  0  0
  2 22  1  0  0  0  0
  2 23  1  0  0  0  0
  3  4  2  0  0  0  0
  3 10  1  0  0  0  0
  4  6  1  0  0  0  0
  4  8  1  0  0  0  0
  5  6  2  0  0  0  0
  5 11  1  0  0  0  0
  6 12  1  0  0  0  0
  7 15  2  0  0  0  0
  7 16  1  0  0  0  0
  8  9  2  0  0  0  0
  9 13  1  0  0  0  0
  9 14  1  0  0  0  0
 10 13  2  0  0  0  0
 11 17  2  0  0  0  0
 12 18  2  0  0  0  0
 14 20  2  0  0  0  0
 14 21  1  0  0  0  0
 15 26  1  0  0  0  0
 16 27  2  0  0  0  0
 17 18  1  0  0  0  0
 19 24  2  0  0  0  0
 19 25  1  0  0  0  0
 20 24  1  0  0  0  0
 21 25  2  0  0  0  0
 22 29  2  0  0  0  0
 22 30  1  0  0  0  0
 23 31  2  0  0  0  0
 23 32  1  0  0  0  0
 26 28  2  0  0  0  0
 27 28  1  0  0  0  0
 29 35  1  0  0  0  0
 30 36  2  0  0  0  0
 31 37  1  0  0  0  0
 32 38  1  0  0  0  0
 33 35  2  0  0  0  0
 33 36  1  0  0  0  0
 33 39  1  0  0  0  0
 34 37  2  0  0  0  0
 34 38  1  0  0  0  0
 34 40  1  0  0  0  0
 39 41  2  0  0  0  0
 39 42  1  0  0  0  0
 40 43  2  0  0  0  0
 40 44  1  0  0  0  0
 41 45  1  0  0  0  0
 42 46  2  0  0  0  0
 43 47  1  0  0  0  0
 44 48  2  0  0  0  0
 45 49  2  0  0  0  0
 46 49  1  0  0  0  0
 47 50  2  0  0  0  0
 48 50  1  0  0  0  0
M  END
> <PUBCHEM_COMPOUND_ID_TYPE>
0

> <PUBCHEM_TOTAL_CHARGE>
0

> <PUBCHEM_SUBSTANCE_ID>
310946212

> <PUBCHEM_SUBSTANCE_VERSION>
1

> <PUBCHEM_EXT_DATASOURCE_NAME>
4488

> <PUBCHEM_EXT_DATASOURCE_REGID>
SCHEMBL16124324

> <PUBCHEM_SUBSTANCE_COMMENT>
InChI=1S/C48H36N2/c1-4-12-35(13-5-1)37-20-27-42(28-21-37)49(43-29-22-38(23-30-43)36-14-6-2-7-15-36)44-31-24-39(25-32-44)40-26-33-48-46(34-40)45-18-10-11-19-47(45)50(48)41-16-8-3-9-17-41/h1-22,24-29,31-34H,23,30H2
InChIKey=FSWCSFXQQZFITD-UHFFFAOYSA-N

> <PUBCHEM_SUBSTANCE_SYNONYM>
SCHEMBL16124324

> <PUBCHEM_XREF_EXT_ID>
SCHEMBL16124324

> <PUBCHEM_EXT_DATASOURCE_URL>
https://www.surechembl.org/

> <PUBCHEM_EXT_SUBSTANCE_URL>
https://www.surechembl.org/chemical/SCHEMBL16124324

> <PUBCHEM_CID_ASSOCIATIONS>
117612161  1

> <PUBCHEM_COORDINATE_TYPE>
1
3

$$$$
