310941629
  -OEChem-07211613022D

 29 32  0     0  0  0  0  0  0999 V2000
    0.4300    2.1411    0.0000 S   0  0  0  0  0  0  0  0  0  0  0  0
   -2.5361   -1.3514    0.0000 F   0  0  0  0  0  0  0  0  0  0  0  0
   -3.3433   -2.1411    0.0000 F   0  0  0  0  0  0  0  0  0  0  0  0
   -4.1156   -1.3338    0.0000 F   0  0  0  0  0  0  0  0  0  0  0  0
   -1.9042   -0.5090    0.0000 O   0  0  0  0  0  0  0  0  0  0  0  0
   -0.4651   -0.5090    0.0000 O   0  0  0  0  0  0  0  0  0  0  0  0
    3.3083    1.1583    0.0000 O   0  0  0  0  0  0  0  0  0  0  0  0
    0.2896    0.8248    0.0000 N   0  0  0  0  0  0  0  0  0  0  0  0
    1.6761    1.3514    0.0000 N   0  0  0  0  0  0  0  0  0  0  0  0
   -2.6414   -0.0702    0.0000 C   0  0  0  0  0  0  0  0  0  0  0  0
   -1.1847    0.7547    0.0000 C   0  0  0  0  0  0  0  0  0  0  0  0
   -2.6238    0.7547    0.0000 C   0  0  0  0  0  0  0  0  0  0  0  0
   -3.3258   -0.4738    0.0000 C   0  0  0  0  0  0  0  0  0  0  0  0
   -1.2198   -0.0702    0.0000 C   0  0  0  0  0  0  0  0  0  0  0  0
   -0.4826    1.1583    0.0000 C   0  0  0  0  0  0  0  0  0  0  0  0
   -1.9042    1.1583    0.0000 C   0  0  0  0  0  0  0  0  0  0  0  0
   -3.3433   -1.3338    0.0000 C   0  0  0  0  0  0  0  0  0  0  0  0
   -3.3258    1.1408    0.0000 C   0  0  0  0  0  0  0  0  0  0  0  0
   -4.0454   -0.1053    0.0000 C   0  0  0  0  0  0  0  0  0  0  0  0
    0.8337    1.4567    0.0000 C   0  0  0  0  0  0  0  0  0  0  0  0
   -0.3598    1.9832    0.0000 C   0  0  0  0  0  0  0  0  0  0  0  0
   -4.0278    0.7547    0.0000 C   0  0  0  0  0  0  0  0  0  0  0  0
    2.0095    0.5967    0.0000 C   0  0  0  0  0  0  0  0  0  0  0  0
    2.8169    0.5090    0.0000 C   0  0  0  0  0  0  0  0  0  0  0  0
    1.5357   -0.0878    0.0000 C   0  0  0  0  0  0  0  0  0  0  0  0
    3.1504   -0.2632    0.0000 C   0  0  0  0  0  0  0  0  0  0  0  0
    1.8516   -0.8248    0.0000 C   0  0  0  0  0  0  0  0  0  0  0  0
    2.6940   -0.9126    0.0000 C   0  0  0  0  0  0  0  0  0  0  0  0
    4.1156    1.0531    0.0000 C   0  0  0  0  0  0  0  0  0  0  0  0
  1 20  1  0  0  0  0
  1 21  1  0  0  0  0
  2 17  1  0  0  0  0
  3 17  1  0  0  0  0
  4 17  1  0  0  0  0
  5 10  1  0  0  0  0
  5 14  1  0  0  0  0
  6 14  2  0  0  0  0
  7 24  1  0  0  0  0
  7 29  1  0  0  0  0
  8 15  1  0  0  0  0
  8 20  2  0  0  0  0
  9 20  1  0  0  0  0
  9 23  1  0  0  0  0
 10 12  1  0  0  0  0
 10 13  2  0  0  0  0
 11 14  1  0  0  0  0
 11 15  1  0  0  0  0
 11 16  2  0  0  0  0
 12 16  1  0  0  0  0
 12 18  2  0  0  0  0
 13 17  1  0  0  0  0
 13 19  1  0  0  0  0
 15 21  2  0  0  0  0
 18 22  1  0  0  0  0
 19 22  2  0  0  0  0
 23 24  1  0  0  0  0
 23 25  2  0  0  0  0
 24 26  2  0  0  0  0
 25 27  1  0  0  0  0
 26 28  1  0  0  0  0
 27 28  2  0  0  0  0
M  END
> <PUBCHEM_COMPOUND_ID_TYPE>
0

> <PUBCHEM_TOTAL_CHARGE>
0

> <PUBCHEM_SUBSTANCE_ID>
310941629

> <PUBCHEM_SUBSTANCE_VERSION>
1

> <PUBCHEM_EXT_DATASOURCE_NAME>
4488

> <PUBCHEM_EXT_DATASOURCE_REGID>
SCHEMBL16119660

> <PUBCHEM_SUBSTANCE_COMMENT>
InChI=1S/C20H13F3N2O3S/c1-27-16-8-3-2-7-14(16)24-19-25-15(10-29-19)12-9-11-5-4-6-13(20(21,22)23)17(11)28-18(12)26/h2-10H,1H3,(H,24,25)
InChIKey=PVZJHXTVGNZLIN-UHFFFAOYSA-N

> <PUBCHEM_SUBSTANCE_SYNONYM>
SCHEMBL16119660

> <PUBCHEM_XREF_EXT_ID>
SCHEMBL16119660

> <PUBCHEM_EXT_DATASOURCE_URL>
https://www.surechembl.org/

> <PUBCHEM_EXT_SUBSTANCE_URL>
https://www.surechembl.org/chemical/SCHEMBL16119660

> <PUBCHEM_CID_ASSOCIATIONS>
117608417  1

> <PUBCHEM_COORDINATE_TYPE>
1
3

$$$$
