310933244
  -OEChem-07211613022D

 24 25  0     0  0  0  0  0  0999 V2000
    2.1670   -2.8893    0.0000 I   0  0  0  0  0  0  0  0  0  0  0  0
    0.0000   -1.6571    0.0000 F   0  0  0  0  0  0  0  0  0  0  0  0
    0.7223   -0.4249    0.0000 F   0  0  0  0  0  0  0  0  0  0  0  0
    0.0000   -0.8286    0.0000 F   0  0  0  0  0  0  0  0  0  0  0  0
    5.8849   -3.8666    0.0000 O   0  0  0  0  0  0  0  0  0  0  0  0
    1.4447   -2.4644    0.0000 O   0  0  0  0  0  0  0  0  0  0  0  0
    2.8681    0.0000    0.0000 O   0  5  0  0  0  0  0  0  0  0  0  0
    4.2915    0.0000    0.0000 O   0  0  0  0  0  0  0  0  0  0  0  0
    2.1457   -1.2322    0.0000 N   0  0  0  0  0  0  0  0  0  0  0  0
    3.5692   -0.4037    0.0000 N   0  3  0  0  0  0  0  0  0  0  0  0
    6.3098   -3.1655    0.0000 N   0  0  0  0  0  0  0  0  0  0  0  0
    2.8681   -1.6571    0.0000 C   0  0  0  0  0  0  0  0  0  0  0  0
    4.2915   -2.4644    0.0000 C   0  0  0  0  0  0  0  0  0  0  0  0
    3.5904   -1.2322    0.0000 C   0  0  0  0  0  0  0  0  0  0  0  0
    5.0138   -2.8893    0.0000 C   0  0  0  0  0  0  0  0  0  0  0  0
    2.8681   -2.4644    0.0000 C   0  0  0  0  0  0  0  0  0  0  0  0
    4.2915   -1.6359    0.0000 C   0  0  0  0  0  0  0  0  0  0  0  0
    3.5692   -2.8681    0.0000 C   0  0  0  0  0  0  0  0  0  0  0  0
    5.0988   -3.6967    0.0000 C   0  0  0  0  0  0  0  0  0  0  0  0
    5.7574   -2.5494    0.0000 C   0  0  0  0  0  0  0  0  0  0  0  0
    1.4447   -1.6571    0.0000 C   0  0  0  0  0  0  0  0  0  0  0  0
    0.7223   -1.2322    0.0000 C   0  0  0  0  0  0  0  0  0  0  0  0
    4.4827   -4.2490    0.0000 C   0  0  0  0  0  0  0  0  0  0  0  0
    5.9274   -1.7421    0.0000 C   0  0  0  0  0  0  0  0  0  0  0  0
  1 16  1  0  0  0  0
  2 22  1  0  0  0  0
  3 22  1  0  0  0  0
  4 22  1  0  0  0  0
  5 11  1  0  0  0  0
  5 19  1  0  0  0  0
  6 21  2  0  0  0  0
  7 10  1  0  0  0  0
  8 10  2  0  0  0  0
  9 12  1  0  0  0  0
  9 21  1  0  0  0  0
 10 14  1  0  0  0  0
 11 20  2  0  0  0  0
 12 14  2  0  0  0  0
 12 16  1  0  0  0  0
 13 15  1  0  0  0  0
 13 17  2  0  0  0  0
 13 18  1  0  0  0  0
 14 17  1  0  0  0  0
 15 19  2  0  0  0  0
 15 20  1  0  0  0  0
 16 18  2  0  0  0  0
 19 23  1  0  0  0  0
 20 24  1  0  0  0  0
 21 22  1  0  0  0  0
M  CHG  2   7  -1  10   1
M  END
> <PUBCHEM_COMPOUND_ID_TYPE>
0

> <PUBCHEM_TOTAL_CHARGE>
0

> <PUBCHEM_SUBSTANCE_ID>
310933244

> <PUBCHEM_SUBSTANCE_VERSION>
1

> <PUBCHEM_EXT_DATASOURCE_NAME>
4488

> <PUBCHEM_EXT_DATASOURCE_REGID>
SCHEMBL16110653

> <PUBCHEM_SUBSTANCE_COMMENT>
InChI=1S/C13H9F3IN3O4/c1-5-10(6(2)24-19-5)7-3-8(17)11(9(4-7)20(22)23)18-12(21)13(14,15)16/h3-4H,1-2H3,(H,18,21)
InChIKey=HWHCDCCIBQHNPY-UHFFFAOYSA-N

> <PUBCHEM_SUBSTANCE_SYNONYM>
SCHEMBL16110653

> <PUBCHEM_XREF_EXT_ID>
SCHEMBL16110653

> <PUBCHEM_EXT_DATASOURCE_URL>
https://www.surechembl.org/

> <PUBCHEM_EXT_SUBSTANCE_URL>
https://www.surechembl.org/chemical/SCHEMBL16110653

> <PUBCHEM_CID_ASSOCIATIONS>
117601678  1

> <PUBCHEM_COORDINATE_TYPE>
1
3

$$$$
