310941760
  -OEChem-07211613022D

 30 35  0     0  0  0  0  0  0999 V2000
    3.2196   -1.3842    0.0000 S   0  0  0  0  0  0  0  0  0  0  0  0
   -1.0577    0.5288    0.0000 O   0  0  0  0  0  0  0  0  0  0  0  0
    3.8263   -1.9132    0.0000 O   0  0  0  0  0  0  0  0  0  0  0  0
    2.6753   -2.0065    0.0000 O   0  0  0  0  0  0  0  0  0  0  0  0
    1.1044   -0.7155    0.0000 N   0  0  0  0  0  0  0  0  0  0  0  0
    0.3733   -1.9598    0.0000 N   0  0  0  0  0  0  0  0  0  0  0  0
    1.4620   -2.0687    0.0000 N   0  0  0  0  0  0  0  0  0  0  0  0
    2.5664   -0.8399    0.0000 N   0  0  0  0  0  0  0  0  0  0  0  0
   -2.5197    0.5132    0.0000 C   0  0  0  0  0  0  0  0  0  0  0  0
    0.3422    0.5288    0.0000 C   0  0  0  0  0  0  0  0  0  0  0  0
    0.3733   -1.1199    0.0000 C   0  0  0  0  0  0  0  0  0  0  0  0
   -0.3422    0.1244    0.0000 C   0  0  0  0  0  0  0  0  0  0  0  0
    1.8198   -1.1199    0.0000 C   0  0  0  0  0  0  0  0  0  0  0  0
    0.3733    1.3842    0.0000 C   0  0  0  0  0  0  0  0  0  0  0  0
    1.0732    0.1089    0.0000 C   0  0  0  0  0  0  0  0  0  0  0  0
   -0.3422   -0.6999    0.0000 C   0  0  0  0  0  0  0  0  0  0  0  0
   -4.0752    0.5132    0.0000 C   0  0  0  0  0  0  0  0  0  0  0  0
   -3.3907    1.7420    0.0000 C   0  0  0  0  0  0  0  0  0  0  0  0
   -3.7019    0.0467    0.0000 C   0  0  0  0  0  0  0  0  0  0  0  0
   -2.5041    1.3533    0.0000 C   0  0  0  0  0  0  0  0  0  0  0  0
   -2.8930   -0.1711    0.0000 C   0  0  0  0  0  0  0  0  0  0  0  0
   -3.3285    0.2955    0.0000 C   0  0  0  0  0  0  0  0  0  0  0  0
   -1.7576    0.1089    0.0000 C   0  0  0  0  0  0  0  0  0  0  0  0
   -4.0752    1.3533    0.0000 C   0  0  0  0  0  0  0  0  0  0  0  0
   -4.4640   -0.1711    0.0000 C   0  0  0  0  0  0  0  0  0  0  0  0
   -3.7019    0.8710    0.0000 C   0  0  0  0  0  0  0  0  0  0  0  0
   -0.0156    2.0687    0.0000 C   0  0  0  0  0  0  0  0  0  0  0  0
    0.7466    2.0687    0.0000 C   0  0  0  0  0  0  0  0  0  0  0  0
    3.7330   -0.7621    0.0000 C   0  0  0  0  0  0  0  0  0  0  0  0
    4.4640   -1.1666    0.0000 C   0  0  0  0  0  0  0  0  0  0  0  0
  1  3  2  0  0  0  0
  1  4  2  0  0  0  0
  1  8  1  0  0  0  0
  1 29  1  0  0  0  0
  2 12  1  0  0  0  0
  2 23  1  0  0  0  0
  5 11  1  0  0  0  0
  5 13  1  0  0  0  0
  5 15  1  0  0  0  0
  6  7  1  0  0  0  0
  6 11  2  0  0  0  0
  7 13  2  0  0  0  0
  8 13  1  0  0  0  0
  9 20  1  0  0  0  0
  9 21  1  0  0  0  0
  9 22  1  0  0  0  0
  9 23  1  0  0  0  0
 10 12  1  0  0  0  0
 10 14  1  0  0  0  0
 10 15  2  0  0  0  0
 11 16  1  0  0  0  0
 12 16  2  0  0  0  0
 14 27  1  0  0  0  0
 14 28  1  0  0  0  0
 17 22  1  0  0  0  0
 17 24  1  0  0  0  0
 17 25  1  0  0  0  0
 18 20  1  0  0  0  0
 18 24  1  0  0  0  0
 18 26  1  0  0  0  0
 19 21  1  0  0  0  0
 19 25  1  0  0  0  0
 19 26  1  0  0  0  0
 27 28  1  0  0  0  0
 29 30  1  0  0  0  0
M  END
> <PUBCHEM_COMPOUND_ID_TYPE>
0

> <PUBCHEM_TOTAL_CHARGE>
0

> <PUBCHEM_SUBSTANCE_ID>
310941760

> <PUBCHEM_SUBSTANCE_VERSION>
1

> <PUBCHEM_EXT_DATASOURCE_NAME>
4488

> <PUBCHEM_EXT_DATASOURCE_REGID>
SCHEMBL16119791

> <PUBCHEM_SUBSTANCE_COMMENT>
InChI=1S/C22H30N4O3S/c1-2-30(27,28)25-21-24-23-20-8-19(18(12-26(20)21)17-3-4-17)29-13-22-9-14-5-15(10-22)7-16(6-14)11-22/h8,12,14-17H,2-7,9-11,13H2,1H3,(H,24,25)
InChIKey=NQFIHRACNFPFCO-UHFFFAOYSA-N

> <PUBCHEM_SUBSTANCE_SYNONYM>
SCHEMBL16119791

> <PUBCHEM_XREF_EXT_ID>
SCHEMBL16119791

> <PUBCHEM_EXT_DATASOURCE_URL>
https://www.surechembl.org/

> <PUBCHEM_EXT_SUBSTANCE_URL>
https://www.surechembl.org/chemical/SCHEMBL16119791

> <PUBCHEM_CID_ASSOCIATIONS>
86267294  1

> <PUBCHEM_COORDINATE_TYPE>
1
3

$$$$
