310945487
  -OEChem-07211613022D

 21 23  0     0  0  0  0  0  0999 V2000
   -2.1540    1.0550    0.0000 O   0  0  0  0  0  0  0  0  0  0  0  0
    0.6887    0.3077    0.0000 N   0  0  0  0  0  0  0  0  0  0  0  0
    2.7255    1.2309    0.0000 N   0  0  0  0  0  0  0  0  0  0  0  0
   -0.0440   -1.7731    0.0000 N   0  0  0  0  0  0  0  0  0  0  0  0
    1.3628    0.8060    0.0000 C   0  0  0  0  0  0  0  0  0  0  0  0
    1.0990    1.5679    0.0000 C   0  0  0  0  0  0  0  0  0  0  0  0
    0.0000    0.8060    0.0000 C   0  0  0  0  0  0  0  0  0  0  0  0
    0.2784    1.5826    0.0000 C   0  0  0  0  0  0  0  0  0  0  0  0
    2.1687    0.6154    0.0000 C   0  0  0  0  0  0  0  0  0  0  0  0
   -0.7912    0.6301    0.0000 C   0  0  0  0  0  0  0  0  0  0  0  0
   -0.2784    2.1834    0.0000 C   0  0  0  0  0  0  0  0  0  0  0  0
    1.6558    2.1980    0.0000 C   0  0  0  0  0  0  0  0  0  0  0  0
    0.6887   -0.5275    0.0000 C   0  0  0  0  0  0  0  0  0  0  0  0
   -1.3334    1.2309    0.0000 C   0  0  0  0  0  0  0  0  0  0  0  0
   -1.0844    2.0075    0.0000 C   0  0  0  0  0  0  0  0  0  0  0  0
    2.4764    2.0221    0.0000 C   0  0  0  0  0  0  0  0  0  0  0  0
    2.4910   -0.2784    0.0000 C   0  0  0  0  0  0  0  0  0  0  0  0
   -0.0293   -0.9378    0.0000 C   0  0  0  0  0  0  0  0  0  0  0  0
   -2.7255    1.6558    0.0000 C   0  0  0  0  0  0  0  0  0  0  0  0
   -0.7766   -2.1980    0.0000 C   0  0  0  0  0  0  0  0  0  0  0  0
    0.7033   -2.1980    0.0000 C   0  0  0  0  0  0  0  0  0  0  0  0
  1 14  1  0  0  0  0
  1 19  1  0  0  0  0
  2  5  1  0  0  0  0
  2  7  1  0  0  0  0
  2 13  1  0  0  0  0
  3  9  2  0  0  0  0
  3 16  1  0  0  0  0
  4 18  1  0  0  0  0
  4 20  1  0  0  0  0
  4 21  1  0  0  0  0
  5  6  2  0  0  0  0
  5  9  1  0  0  0  0
  6  8  1  0  0  0  0
  6 12  1  0  0  0  0
  7  8  2  0  0  0  0
  7 10  1  0  0  0  0
  8 11  1  0  0  0  0
  9 17  1  0  0  0  0
 10 14  2  0  0  0  0
 11 15  2  0  0  0  0
 12 16  2  0  0  0  0
 13 18  1  0  0  0  0
 14 15  1  0  0  0  0
M  END
> <PUBCHEM_COMPOUND_ID_TYPE>
0

> <PUBCHEM_TOTAL_CHARGE>
0

> <PUBCHEM_SUBSTANCE_ID>
310945487

> <PUBCHEM_SUBSTANCE_VERSION>
1

> <PUBCHEM_EXT_DATASOURCE_NAME>
4488

> <PUBCHEM_EXT_DATASOURCE_REGID>
SCHEMBL16123585

> <PUBCHEM_SUBSTANCE_COMMENT>
InChI=1S/C17H21N3O/c1-12-17-15(7-8-18-12)14-6-5-13(21-4)11-16(14)20(17)10-9-19(2)3/h5-8,11H,9-10H2,1-4H3
InChIKey=MOPUAJCKFRRYRF-UHFFFAOYSA-N

> <PUBCHEM_SUBSTANCE_SYNONYM>
SCHEMBL16123585

> <PUBCHEM_XREF_EXT_ID>
SCHEMBL16123585

> <PUBCHEM_EXT_DATASOURCE_URL>
https://www.surechembl.org/

> <PUBCHEM_EXT_SUBSTANCE_URL>
https://www.surechembl.org/chemical/SCHEMBL16123585

> <PUBCHEM_CID_ASSOCIATIONS>
117611530  1

> <PUBCHEM_COORDINATE_TYPE>
1
3

$$$$
