310931536
  -OEChem-07211613022D

 56 63  0     1  0  0  0  0  0999 V2000
    1.5280    0.0000    0.0000 F   0  0  0  0  0  0  0  0  0  0  0  0
    0.7640   -0.1798    0.0000 F   0  0  0  0  0  0  0  0  0  0  0  0
    0.5393   -3.1459    0.0000 F   0  0  0  0  0  0  0  0  0  0  0  0
    0.0000   -2.5166    0.0000 F   0  0  0  0  0  0  0  0  0  0  0  0
    3.9548   -0.8538    0.0000 F   0  0  0  0  0  0  0  0  0  0  0  0
    2.8312    0.0000    0.0000 F   0  0  0  0  0  0  0  0  0  0  0  0
    6.5163   -1.0337    0.0000 F   0  0  0  0  0  0  0  0  0  0  0  0
    3.6851   -1.0337    0.0000 F   0  0  0  0  0  0  0  0  0  0  0  0
    2.9661   -4.7187    0.0000 O   0  0  0  0  0  0  0  0  0  0  0  0
    2.6065   -2.0673    0.0000 O   0  0  0  0  0  0  0  0  0  0  0  0
    6.2018   -8.9881    0.0000 O   0  0  0  0  0  0  0  0  0  0  0  0
    2.2470   -2.6515    0.0000 N   0  0  0  0  0  0  0  0  0  0  0  0
    2.9212   -2.2021    0.0000 N   0  0  0  0  0  0  0  0  0  0  0  0
    3.6851   -3.5054    0.0000 N   0  0  0  0  0  0  0  0  0  0  0  0
    5.0783   -5.1232    0.0000 N   0  0  0  0  0  0  0  0  0  0  0  0
    1.2584   -2.6065    0.0000 N   0  0  0  0  0  0  0  0  0  0  0  0
    7.5500   -8.4488    0.0000 N   0  0  0  0  0  0  0  0  0  0  0  0
    1.8426   -1.3932    0.0000 C   0  0  0  0  0  0  0  0  0  0  0  0
    1.5729   -2.2021    0.0000 C   0  0  0  0  0  0  0  0  0  0  0  0
    1.3033   -0.8089    0.0000 C   0  0  0  0  0  0  0  0  0  0  0  0
    0.7640   -2.3369    0.0000 C   0  0  0  0  0  0  0  0  0  0  0  0
    2.6964   -1.4381    0.0000 C   0  0  0  0  0  0  0  0  0  0  0  0
    0.4943   -0.9437    0.0000 C   0  0  0  0  0  0  0  0  0  0  0  0
    0.2696   -1.7527    0.0000 C   0  0  0  0  0  0  0  0  0  0  0  0
    3.1459   -0.7640    0.0000 C   0  0  0  0  0  0  0  0  0  0  0  0
    2.2470   -3.5054    0.0000 C   0  0  0  0  0  0  0  0  0  0  0  0
    2.9661   -3.9098    0.0000 C   0  0  0  0  0  0  0  0  0  0  0  0
    4.4041   -4.7187    0.0000 C   0  0  0  0  0  0  0  0  0  0  0  0
    4.4041   -3.9098    0.0000 C   0  0  3  0  0  0  0  0  0  0  0  0
    3.6851   -5.1232    0.0000 C   0  0  0  0  0  0  0  0  0  0  0  0
    3.1459   -4.8985    0.0000 C   0  0  0  0  0  0  0  0  0  0  0  0
    5.1232   -5.9771    0.0000 C   0  0  0  0  0  0  0  0  0  0  0  0
    5.8423   -6.3366    0.0000 C   0  0  0  0  0  0  0  0  0  0  0  0
    2.3818   -3.6851    0.0000 C   0  0  0  0  0  0  0  0  0  0  0  0
    3.6851   -5.9771    0.0000 C   0  0  0  0  0  0  0  0  0  0  0  0
    5.1232   -3.5054    0.0000 C   0  0  0  0  0  0  0  0  0  0  0  0
    3.1009   -4.0896    0.0000 C   0  0  0  0  0  0  0  0  0  0  0  0
    4.4041   -6.3366    0.0000 C   0  0  0  0  0  0  0  0  0  0  0  0
    1.5280   -3.9098    0.0000 C   0  0  0  0  0  0  0  0  0  0  0  0
    6.5613   -7.5949    0.0000 C   0  0  0  0  0  0  0  0  0  0  0  0
    2.2470   -5.1232    0.0000 C   0  0  0  0  0  0  0  0  0  0  0  0
    5.8423   -7.1455    0.0000 C   0  0  0  0  0  0  0  0  0  0  0  0
    7.2804   -7.1905    0.0000 C   0  0  0  0  0  0  0  0  0  0  0  0
    2.0673   -2.6964    0.0000 C   0  0  0  0  0  0  0  0  0  0  0  0
    1.5280   -4.7637    0.0000 C   0  0  0  0  0  0  0  0  0  0  0  0
    5.1232   -2.6515    0.0000 C   0  0  0  0  0  0  0  0  0  0  0  0
    6.5613   -5.9321    0.0000 C   0  0  0  0  0  0  0  0  0  0  0  0
    6.7411   -8.3589    0.0000 C   0  0  0  0  0  0  0  0  0  0  0  0
    0.8988   -3.3705    0.0000 C   0  0  0  0  0  0  0  0  0  0  0  0
    7.2804   -6.3366    0.0000 C   0  0  0  0  0  0  0  0  0  0  0  0
    7.9095   -7.6848    0.0000 C   0  0  0  0  0  0  0  0  0  0  0  0
    4.4041   -2.2470    0.0000 C   0  0  0  0  0  0  0  0  0  0  0  0
    5.8423   -2.2470    0.0000 C   0  0  0  0  0  0  0  0  0  0  0  0
    5.8423   -1.4381    0.0000 C   0  0  0  0  0  0  0  0  0  0  0  0
    4.4041   -1.4381    0.0000 C   0  0  0  0  0  0  0  0  0  0  0  0
    5.1232   -0.9887    0.0000 C   0  0  0  0  0  0  0  0  0  0  0  0
  1 20  1  0  0  0  0
  2 20  1  0  0  0  0
  3 21  1  0  0  0  0
  4 21  1  0  0  0  0
  5 25  1  0  0  0  0
  6 25  1  0  0  0  0
  7 54  1  0  0  0  0
  8 55  1  0  0  0  0
  9 27  2  0  0  0  0
 10 44  2  0  0  0  0
 11 48  2  0  0  0  0
 12 13  1  0  0  0  0
 12 19  1  0  0  0  0
 12 26  1  0  0  0  0
 13 22  2  0  0  0  0
 14 27  1  0  0  0  0
 29 14  1  1  0  0  0
 15 28  1  0  0  0  0
 15 32  2  0  0  0  0
 16 44  1  0  0  0  0
 16 49  1  0  0  0  0
 17 48  1  0  0  0  0
 17 51  1  0  0  0  0
 18 19  2  0  0  0  0
 18 20  1  0  0  0  0
 18 22  1  0  0  0  0
 19 21  1  0  0  0  0
 20 23  1  0  0  0  0
 21 24  1  0  0  0  0
 22 25  1  0  0  0  0
 23 24  1  0  0  0  0
 26 27  1  0  0  0  0
 28 29  1  0  0  0  0
 28 30  2  0  0  0  0
 29 36  1  0  0  0  0
 30 31  1  0  0  0  0
 30 35  1  0  0  0  0
 31 37  1  0  0  0  0
 31 41  2  0  0  0  0
 32 33  1  0  0  0  0
 32 38  1  0  0  0  0
 33 42  1  0  0  0  0
 33 47  2  0  0  0  0
 34 37  2  0  0  0  0
 34 39  1  0  0  0  0
 34 44  1  0  0  0  0
 35 38  2  0  0  0  0
 36 46  1  0  0  0  0
 39 45  2  0  0  0  0
 39 49  1  0  0  0  0
 40 42  2  0  0  0  0
 40 43  1  0  0  0  0
 40 48  1  0  0  0  0
 41 45  1  0  0  0  0
 43 50  2  0  0  0  0
 43 51  1  0  0  0  0
 46 52  2  0  0  0  0
 46 53  1  0  0  0  0
 47 50  1  0  0  0  0
 52 55  1  0  0  0  0
 53 54  2  0  0  0  0
 54 56  1  0  0  0  0
 55 56  2  0  0  0  0
M  END
> <PUBCHEM_COMPOUND_ID_TYPE>
0

> <PUBCHEM_TOTAL_CHARGE>
0

> <PUBCHEM_SUBSTANCE_ID>
310931536

> <PUBCHEM_SUBSTANCE_VERSION>
1

> <PUBCHEM_EXT_DATASOURCE_NAME>
4488

> <PUBCHEM_EXT_DATASOURCE_REGID>
SCHEMBL16108862

> <PUBCHEM_SUBSTANCE_COMMENT>
InChI=1S/C39H28F8N6O3/c40-23-9-18(10-24(41)14-23)11-29(50-30(54)17-53-34-31(33(52-53)35(42)43)38(44,45)7-8-39(34,46)47)32-25(19-1-3-21-15-48-36(55)26(21)12-19)5-6-28(51-32)20-2-4-22-16-49-37(56)27(22)13-20/h1-6,9-10,12-14,29,35H,7-8,11,15-17H2,(H,48,55)(H,49,56)(H,50,54)/t29-/m0/s1
InChIKey=KITFLSAFWYUKMD-LJAQVGFWSA-N

> <PUBCHEM_SUBSTANCE_SYNONYM>
SCHEMBL16108862

> <PUBCHEM_XREF_EXT_ID>
SCHEMBL16108862

> <PUBCHEM_EXT_DATASOURCE_URL>
https://www.surechembl.org/

> <PUBCHEM_EXT_SUBSTANCE_URL>
https://www.surechembl.org/chemical/SCHEMBL16108862

> <PUBCHEM_CID_ASSOCIATIONS>
78320136  1

> <PUBCHEM_COORDINATE_TYPE>
1
3

> <PUBCHEM_BONDANNOTATIONS>
29  14  5

$$$$
