310932699
  -OEChem-07211613022D

 26 28  0     0  0  0  0  0  0999 V2000
    0.7382    0.0000    0.0000 Cl  0  0  0  0  0  0  0  0  0  0  0  0
    2.1278   -5.7753    0.0000 O   0  0  0  0  0  0  0  0  0  0  0  0
    2.8660   -2.0843    0.0000 O   0  0  0  0  0  0  0  0  0  0  0  0
    3.5607   -2.4751    0.0000 O   0  0  0  0  0  0  0  0  0  0  0  0
    4.2989   -3.7344    0.0000 O   0  0  0  0  0  0  0  0  0  0  0  0
    2.1278   -3.3002    0.0000 C   0  0  0  0  0  0  0  0  0  0  0  0
    2.8660   -3.7344    0.0000 C   0  0  0  0  0  0  0  0  0  0  0  0
    2.1278   -2.4751    0.0000 C   0  0  0  0  0  0  0  0  0  0  0  0
    1.4330   -2.0409    0.0000 C   0  0  0  0  0  0  0  0  0  0  0  0
    2.8660   -4.5594    0.0000 C   0  0  0  0  0  0  0  0  0  0  0  0
    2.1278   -4.9502    0.0000 C   0  0  0  0  0  0  0  0  0  0  0  0
    1.4330   -3.7344    0.0000 C   0  0  0  0  0  0  0  0  0  0  0  0
    3.5607   -3.3002    0.0000 C   0  0  0  0  0  0  0  0  0  0  0  0
    1.4330   -4.5594    0.0000 C   0  0  0  0  0  0  0  0  0  0  0  0
    1.4330   -1.2593    0.0000 C   0  0  0  0  0  0  0  0  0  0  0  0
    0.7382   -2.4751    0.0000 C   0  0  0  0  0  0  0  0  0  0  0  0
    0.7382   -0.8251    0.0000 C   0  0  0  0  0  0  0  0  0  0  0  0
    0.0000   -2.0843    0.0000 C   0  0  0  0  0  0  0  0  0  0  0  0
    0.0000   -1.2593    0.0000 C   0  0  0  0  0  0  0  0  0  0  0  0
    1.4330   -6.2095    0.0000 C   0  0  0  0  0  0  0  0  0  0  0  0
    1.4330   -7.0345    0.0000 C   0  0  0  0  0  0  0  0  0  0  0  0
    0.7382   -7.4254    0.0000 C   0  0  0  0  0  0  0  0  0  0  0  0
    2.1278   -7.4254    0.0000 C   0  0  0  0  0  0  0  0  0  0  0  0
    0.7382   -8.2504    0.0000 C   0  0  0  0  0  0  0  0  0  0  0  0
    2.1712   -8.2504    0.0000 C   0  0  0  0  0  0  0  0  0  0  0  0
    1.4330   -8.6847    0.0000 C   0  0  0  0  0  0  0  0  0  0  0  0
  1 17  1  0  0  0  0
  2 11  1  0  0  0  0
  2 20  1  0  0  0  0
  3  8  2  0  0  0  0
  4 13  2  0  0  0  0
  5 13  1  0  0  0  0
  6  7  2  0  0  0  0
  6  8  1  0  0  0  0
  6 12  1  0  0  0  0
  7 10  1  0  0  0  0
  7 13  1  0  0  0  0
  8  9  1  0  0  0  0
  9 15  2  0  0  0  0
  9 16  1  0  0  0  0
 10 11  2  0  0  0  0
 11 14  1  0  0  0  0
 12 14  2  0  0  0  0
 15 17  1  0  0  0  0
 16 18  2  0  0  0  0
 17 19  2  0  0  0  0
 18 19  1  0  0  0  0
 20 21  1  0  0  0  0
 21 22  2  0  0  0  0
 21 23  1  0  0  0  0
 22 24  1  0  0  0  0
 23 25  2  0  0  0  0
 24 26  2  0  0  0  0
 25 26  1  0  0  0  0
M  END
> <PUBCHEM_COMPOUND_ID_TYPE>
0

> <PUBCHEM_TOTAL_CHARGE>
0

> <PUBCHEM_SUBSTANCE_ID>
310932699

> <PUBCHEM_SUBSTANCE_VERSION>
1

> <PUBCHEM_EXT_DATASOURCE_NAME>
4488

> <PUBCHEM_EXT_DATASOURCE_REGID>
SCHEMBL16110081

> <PUBCHEM_SUBSTANCE_COMMENT>
InChI=1S/C21H15ClO4/c22-16-8-4-7-15(11-16)20(23)18-10-9-17(12-19(18)21(24)25)26-13-14-5-2-1-3-6-14/h1-12H,13H2,(H,24,25)
InChIKey=RCXLPWUEVPVILD-UHFFFAOYSA-N

> <PUBCHEM_SUBSTANCE_SYNONYM>
SCHEMBL16110081

> <PUBCHEM_XREF_EXT_ID>
SCHEMBL16110081

> <PUBCHEM_EXT_DATASOURCE_URL>
https://www.surechembl.org/

> <PUBCHEM_EXT_SUBSTANCE_URL>
https://www.surechembl.org/chemical/SCHEMBL16110081

> <PUBCHEM_CID_ASSOCIATIONS>
117601208  1

> <PUBCHEM_COORDINATE_TYPE>
1
3

$$$$
