310945974
  -OEChem-07211613022D

 24 25  0     1  0  0  0  0  0999 V2000
   -1.3398    0.3161    0.0000 O   0  0  0  0  0  0  0  0  0  0  0  0
    1.2299    1.4292    0.0000 O   0  0  0  0  0  0  0  0  0  0  0  0
    1.9445    1.0031    0.0000 O   0  0  0  0  0  0  0  0  0  0  0  0
   -1.6559   -2.6797    0.0000 O   0  0  0  0  0  0  0  0  0  0  0  0
   -0.1855    2.2674    0.0000 N   0  0  0  0  0  0  0  0  0  0  0  0
    0.5154    0.2061    0.0000 N   0  0  0  0  0  0  0  0  0  0  0  0
   -0.8863    1.0444    0.0000 C   0  0  3  0  0  0  0  0  0  0  0  0
   -0.2130    1.4429    0.0000 C   0  0  3  0  0  0  0  0  0  0  0  0
    0.5291    1.0169    0.0000 C   0  0  0  0  0  0  0  0  0  0  0  0
   -1.6147    1.4567    0.0000 C   0  0  0  0  0  0  0  0  0  0  0  0
    1.2711   -0.2061    0.0000 C   0  0  3  0  0  0  0  0  0  0  0  0
    1.2299   -1.0306    0.0000 C   0  0  0  0  0  0  0  0  0  0  0  0
    0.5154   -1.4429    0.0000 C   0  0  0  0  0  0  0  0  0  0  0  0
   -1.6147    2.2811    0.0000 C   0  0  0  0  0  0  0  0  0  0  0  0
   -0.9000    2.6797    0.0000 C   0  0  0  0  0  0  0  0  0  0  0  0
   -0.5017    0.3023    0.0000 C   0  0  0  0  0  0  0  0  0  0  0  0
    1.9170    0.1786    0.0000 C   0  0  0  0  0  0  0  0  0  0  0  0
   -0.2130   -1.0444    0.0000 C   0  0  0  0  0  0  0  0  0  0  0  0
    0.4879   -2.2674    0.0000 C   0  0  0  0  0  0  0  0  0  0  0  0
   -0.9413   -2.2537    0.0000 C   0  0  0  0  0  0  0  0  0  0  0  0
   -0.9138   -1.4292    0.0000 C   0  0  0  0  0  0  0  0  0  0  0  0
   -0.2130   -2.6659    0.0000 C   0  0  0  0  0  0  0  0  0  0  0  0
    2.3705   -0.0687    0.0000 C   0  0  0  0  0  0  0  0  0  0  0  0
   -2.3705   -2.2674    0.0000 C   0  0  0  0  0  0  0  0  0  0  0  0
  7  1  1  6  0  0  0
  2  9  2  0  0  0  0
  3 17  2  0  0  0  0
  4 20  1  0  0  0  0
  4 24  1  0  0  0  0
  5  8  1  0  0  0  0
  5 15  1  0  0  0  0
  6  9  1  0  0  0  0
 11  6  1  6  0  0  0
  7  8  1  0  0  0  0
  7 10  1  0  0  0  0
  7 16  1  1  0  0  0
  8  9  1  1  0  0  0
 10 14  1  0  0  0  0
 11 12  1  0  0  0  0
 11 17  1  0  0  0  0
 12 13  1  0  0  0  0
 13 18  2  0  0  0  0
 13 19  1  0  0  0  0
 14 15  1  0  0  0  0
 17 23  1  0  0  0  0
 18 21  1  0  0  0  0
 19 22  2  0  0  0  0
 20 21  2  0  0  0  0
 20 22  1  0  0  0  0
M  END
> <PUBCHEM_COMPOUND_ID_TYPE>
0

> <PUBCHEM_TOTAL_CHARGE>
0

> <PUBCHEM_SUBSTANCE_ID>
310945974

> <PUBCHEM_SUBSTANCE_VERSION>
1

> <PUBCHEM_EXT_DATASOURCE_NAME>
4488

> <PUBCHEM_EXT_DATASOURCE_REGID>
SCHEMBL16124079

> <PUBCHEM_SUBSTANCE_COMMENT>
InChI=1S/C18H26N2O4/c1-12(21)15(11-13-5-7-14(24-3)8-6-13)20-17(22)16-18(2,23)9-4-10-19-16/h5-8,15-16,19,23H,4,9-11H2,1-3H3,(H,20,22)/t15-,16-,18+/m0/s1
InChIKey=GIJPFHODGHBOAW-XYJFISCASA-N

> <PUBCHEM_SUBSTANCE_SYNONYM>
SCHEMBL16124079

> <PUBCHEM_XREF_EXT_ID>
SCHEMBL16124079

> <PUBCHEM_EXT_DATASOURCE_URL>
https://www.surechembl.org/

> <PUBCHEM_EXT_SUBSTANCE_URL>
https://www.surechembl.org/chemical/SCHEMBL16124079

> <PUBCHEM_CID_ASSOCIATIONS>
117611950  1

> <PUBCHEM_COORDINATE_TYPE>
1
3

> <PUBCHEM_BONDANNOTATIONS>
7  1  6
11  6  6
7  16  5
8  9  5

$$$$
