310941649
  -OEChem-07211613022D

 26 29  0     0  0  0  0  0  0999 V2000
   -2.8916   -1.5652    0.0000 Br  0  0  0  0  0  0  0  0  0  0  0  0
    3.4576   -1.9190    0.0000 Br  0  0  0  0  0  0  0  0  0  0  0  0
    0.8578    1.9190    0.0000 S   0  0  0  0  0  0  0  0  0  0  0  0
   -1.4591   -0.7339    0.0000 O   0  0  0  0  0  0  0  0  0  0  0  0
   -0.0266   -0.7339    0.0000 O   0  0  0  0  0  0  0  0  0  0  0  0
    0.7517    0.5748    0.0000 N   0  0  0  0  0  0  0  0  0  0  0  0
    2.1135    1.1054    0.0000 N   0  0  0  0  0  0  0  0  0  0  0  0
   -0.7339    0.5218    0.0000 C   0  0  0  0  0  0  0  0  0  0  0  0
   -0.0442    0.9286    0.0000 C   0  0  0  0  0  0  0  0  0  0  0  0
   -2.1843   -0.3095    0.0000 C   0  0  0  0  0  0  0  0  0  0  0  0
   -2.1665    0.5040    0.0000 C   0  0  0  0  0  0  0  0  0  0  0  0
   -0.7693   -0.3095    0.0000 C   0  0  0  0  0  0  0  0  0  0  0  0
   -1.4591    0.9286    0.0000 C   0  0  0  0  0  0  0  0  0  0  0  0
    1.2823    1.2115    0.0000 C   0  0  0  0  0  0  0  0  0  0  0  0
   -2.8740   -0.7163    0.0000 C   0  0  0  0  0  0  0  0  0  0  0  0
    0.0619    1.7421    0.0000 C   0  0  0  0  0  0  0  0  0  0  0  0
   -2.8916    0.9108    0.0000 C   0  0  0  0  0  0  0  0  0  0  0  0
    2.4318    0.3626    0.0000 C   0  0  0  0  0  0  0  0  0  0  0  0
   -3.5991   -0.3272    0.0000 C   0  0  0  0  0  0  0  0  0  0  0  0
   -3.5991    0.5040    0.0000 C   0  0  0  0  0  0  0  0  0  0  0  0
    1.9543   -0.3272    0.0000 C   0  0  0  0  0  0  0  0  0  0  0  0
    3.2631    0.2565    0.0000 C   0  0  0  0  0  0  0  0  0  0  0  0
    2.3080   -1.0700    0.0000 C   0  0  0  0  0  0  0  0  0  0  0  0
    3.1039   -1.1585    0.0000 C   0  0  0  0  0  0  0  0  0  0  0  0
    3.5991   -0.4864    0.0000 C   0  0  0  0  0  0  0  0  0  0  0  0
    1.1231   -0.2387    0.0000 C   0  0  0  0  0  0  0  0  0  0  0  0
  1 15  1  0  0  0  0
  2 24  1  0  0  0  0
  3 14  1  0  0  0  0
  3 16  1  0  0  0  0
  4 10  1  0  0  0  0
  4 12  1  0  0  0  0
  5 12  2  0  0  0  0
  6  9  1  0  0  0  0
  6 14  2  0  0  0  0
  7 14  1  0  0  0  0
  7 18  1  0  0  0  0
  8  9  1  0  0  0  0
  8 12  1  0  0  0  0
  8 13  2  0  0  0  0
  9 16  2  0  0  0  0
 10 11  1  0  0  0  0
 10 15  2  0  0  0  0
 11 13  1  0  0  0  0
 11 17  2  0  0  0  0
 15 19  1  0  0  0  0
 17 20  1  0  0  0  0
 18 21  2  0  0  0  0
 18 22  1  0  0  0  0
 19 20  2  0  0  0  0
 21 23  1  0  0  0  0
 21 26  1  0  0  0  0
 22 25  2  0  0  0  0
 23 24  2  0  0  0  0
 24 25  1  0  0  0  0
M  END
> <PUBCHEM_COMPOUND_ID_TYPE>
0

> <PUBCHEM_TOTAL_CHARGE>
0

> <PUBCHEM_SUBSTANCE_ID>
310941649

> <PUBCHEM_SUBSTANCE_VERSION>
1

> <PUBCHEM_EXT_DATASOURCE_NAME>
4488

> <PUBCHEM_EXT_DATASOURCE_REGID>
SCHEMBL16119680

> <PUBCHEM_SUBSTANCE_COMMENT>
InChI=1S/C19H12Br2N2O2S/c1-10-7-12(20)5-6-15(10)22-19-23-16(9-26-19)13-8-11-3-2-4-14(21)17(11)25-18(13)24/h2-9H,1H3,(H,22,23)
InChIKey=TVDVMFXVKQJGIO-UHFFFAOYSA-N

> <PUBCHEM_SUBSTANCE_SYNONYM>
SCHEMBL16119680

> <PUBCHEM_XREF_EXT_ID>
SCHEMBL16119680

> <PUBCHEM_EXT_DATASOURCE_URL>
https://www.surechembl.org/

> <PUBCHEM_EXT_SUBSTANCE_URL>
https://www.surechembl.org/chemical/SCHEMBL16119680

> <PUBCHEM_CID_ASSOCIATIONS>
117608432  1

> <PUBCHEM_COORDINATE_TYPE>
1
3

$$$$
