310943422
  -OEChem-07211613022D

 37 40  0     0  0  0  0  0  0999 V2000
   -2.4974   -1.3518    0.0000 F   0  0  0  0  0  0  0  0  0  0  0  0
   -3.8874   -1.5198    0.0000 F   0  0  0  0  0  0  0  0  0  0  0  0
   -3.2306   -0.1909    0.0000 O   0  0  0  0  0  0  0  0  0  0  0  0
   -4.6664    2.2836    0.0000 O   0  0  0  0  0  0  0  0  0  0  0  0
    1.0768   -0.1909    0.0000 O   0  0  0  0  0  0  0  0  0  0  0  0
   -3.2153    1.4587    0.0000 N   0  0  0  0  0  0  0  0  0  0  0  0
   -1.7795   -0.2062    0.0000 N   0  0  0  0  0  0  0  0  0  0  0  0
    0.3743    2.6960    0.0000 N   0  0  0  0  0  0  0  0  0  0  0  0
    1.7947    1.0463    0.0000 N   0  0  0  0  0  0  0  0  0  0  0  0
    3.9485   -1.0158    0.0000 N   0  0  0  0  0  0  0  0  0  0  0  0
    4.6664   -1.4740    0.0000 N   0  0  0  0  0  0  0  0  0  0  0  0
   -1.0616    1.0463    0.0000 C   0  0  0  0  0  0  0  0  0  0  0  0
   -2.4974    1.0463    0.0000 C   0  0  0  0  0  0  0  0  0  0  0  0
   -0.3589    1.4587    0.0000 C   0  0  0  0  0  0  0  0  0  0  0  0
   -2.5127    0.2215    0.0000 C   0  0  0  0  0  0  0  0  0  0  0  0
   -1.7947    1.4587    0.0000 C   0  0  0  0  0  0  0  0  0  0  0  0
   -0.3437    2.2836    0.0000 C   0  0  0  0  0  0  0  0  0  0  0  0
   -1.0768    0.2215    0.0000 C   0  0  0  0  0  0  0  0  0  0  0  0
    0.3589    1.0463    0.0000 C   0  0  0  0  0  0  0  0  0  0  0  0
    1.0768    1.4587    0.0000 C   0  0  0  0  0  0  0  0  0  0  0  0
    2.5279   -0.1909    0.0000 C   0  0  0  0  0  0  0  0  0  0  0  0
    3.2458   -1.4282    0.0000 C   0  0  0  0  0  0  0  0  0  0  0  0
    1.8100    0.2368    0.0000 C   0  0  0  0  0  0  0  0  0  0  0  0
    1.0922    2.2836    0.0000 C   0  0  0  0  0  0  0  0  0  0  0  0
    3.2458   -2.2377    0.0000 C   0  0  0  0  0  0  0  0  0  0  0  0
    2.5279   -1.0158    0.0000 C   0  0  0  0  0  0  0  0  0  0  0  0
   -3.2306    2.2836    0.0000 C   0  0  0  0  0  0  0  0  0  0  0  0
   -3.9332    1.0463    0.0000 C   0  0  0  0  0  0  0  0  0  0  0  0
    3.2306    0.2215    0.0000 C   0  0  0  0  0  0  0  0  0  0  0  0
   -1.0768    2.6807    0.0000 C   0  0  0  0  0  0  0  0  0  0  0  0
   -3.2153   -1.0158    0.0000 C   0  0  0  0  0  0  0  0  0  0  0  0
    3.9485   -0.1909    0.0000 C   0  0  0  0  0  0  0  0  0  0  0  0
   -3.9332    2.6960    0.0000 C   0  0  0  0  0  0  0  0  0  0  0  0
   -4.6511    1.4587    0.0000 C   0  0  0  0  0  0  0  0  0  0  0  0
    3.9485   -1.8406    0.0000 C   0  0  0  0  0  0  0  0  0  0  0  0
    2.5127   -2.6960    0.0000 C   0  0  0  0  0  0  0  0  0  0  0  0
    3.9638   -2.6807    0.0000 C   0  0  0  0  0  0  0  0  0  0  0  0
  1 31  1  0  0  0  0
  2 31  1  0  0  0  0
  3 15  1  0  0  0  0
  3 31  1  0  0  0  0
  4 33  1  0  0  0  0
  4 34  1  0  0  0  0
  5 23  2  0  0  0  0
  6 13  1  0  0  0  0
  6 27  1  0  0  0  0
  6 28  1  0  0  0  0
  7 15  1  0  0  0  0
  7 18  2  0  0  0  0
  8 17  2  0  0  0  0
  8 24  1  0  0  0  0
  9 20  1  0  0  0  0
  9 23  1  0  0  0  0
 10 22  2  0  0  0  0
 10 32  1  0  0  0  0
 11 35  3  0  0  0  0
 12 14  1  0  0  0  0
 12 16  2  0  0  0  0
 12 18  1  0  0  0  0
 13 15  2  0  0  0  0
 13 16  1  0  0  0  0
 14 17  1  0  0  0  0
 14 19  2  0  0  0  0
 17 30  1  0  0  0  0
 19 20  1  0  0  0  0
 20 24  2  0  0  0  0
 21 23  1  0  0  0  0
 21 26  2  0  0  0  0
 21 29  1  0  0  0  0
 22 25  1  0  0  0  0
 22 26  1  0  0  0  0
 25 35  1  0  0  0  0
 25 36  1  0  0  0  0
 25 37  1  0  0  0  0
 27 33  1  0  0  0  0
 28 34  1  0  0  0  0
 29 32  2  0  0  0  0
M  END
> <PUBCHEM_COMPOUND_ID_TYPE>
0

> <PUBCHEM_TOTAL_CHARGE>
0

> <PUBCHEM_SUBSTANCE_ID>
310943422

> <PUBCHEM_SUBSTANCE_VERSION>
1

> <PUBCHEM_EXT_DATASOURCE_NAME>
4488

> <PUBCHEM_EXT_DATASOURCE_REGID>
SCHEMBL16121486

> <PUBCHEM_SUBSTANCE_COMMENT>
InChI=1S/C26H26F2N6O3/c1-16-20(18-10-21(34-6-8-36-9-7-34)24(32-13-18)37-25(27)28)12-19(14-31-16)33-23(35)17-4-5-30-22(11-17)26(2,3)15-29/h4-5,10-14,25H,6-9H2,1-3H3,(H,33,35)
InChIKey=NVIGRCMXKBEVMA-UHFFFAOYSA-N

> <PUBCHEM_SUBSTANCE_SYNONYM>
SCHEMBL16121486

> <PUBCHEM_XREF_EXT_ID>
SCHEMBL16121486

> <PUBCHEM_EXT_DATASOURCE_URL>
https://www.surechembl.org/

> <PUBCHEM_EXT_SUBSTANCE_URL>
https://www.surechembl.org/chemical/SCHEMBL16121486

> <PUBCHEM_CID_ASSOCIATIONS>
117609846  1

> <PUBCHEM_COORDINATE_TYPE>
1
3

$$$$
