310947788
  -OEChem-07211613022D

 28 30  0     0  0  0  0  0  0999 V2000
   -0.3832    9.1330    0.0000 S   0  0  0  0  0  0  0  0  0  0  0  0
   -1.5102    8.0061    0.0000 F   0  0  0  0  0  0  0  0  0  0  0  0
   -0.6852    8.0061    0.0000 F   0  0  0  0  0  0  0  0  0  0  0  0
   -2.2247    9.8475    0.0000 F   0  0  0  0  0  0  0  0  0  0  0  0
   -1.3997    9.8475    0.0000 F   0  0  0  0  0  0  0  0  0  0  0  0
   -1.8122   11.6983    0.0000 O   0  0  0  0  0  0  0  0  0  0  0  0
   -2.5266    8.7205    0.0000 O   0  0  0  0  0  0  0  0  0  0  0  0
   -0.7957    9.8475    0.0000 O   0  0  0  0  0  0  0  0  0  0  0  0
    0.0293    8.4186    0.0000 O   0  0  0  0  0  0  0  0  0  0  0  0
    0.3313    9.5455    0.0000 O   0  0  0  0  0  0  0  0  0  0  0  0
   -2.5266   12.9358    0.0000 O   0  0  0  0  0  0  0  0  0  0  0  0
   -1.0977   12.1108    0.0000 C   0  0  0  0  0  0  0  0  0  0  0  0
   -1.0977    8.7205    0.0000 C   0  0  0  0  0  0  0  0  0  0  0  0
   -1.8122    9.1330    0.0000 C   0  0  0  0  0  0  0  0  0  0  0  0
   -1.0977   11.2858    0.0000 C   0  0  0  0  0  0  0  0  0  0  0  0
   -0.3833   12.5225    0.0000 C   0  0  0  0  0  0  0  0  0  0  0  0
    0.3282   11.2858    0.0000 C   0  0  0  0  0  0  0  0  0  0  0  0
   -0.7965   10.6122    0.0000 C   0  0  0  0  0  0  0  0  0  0  0  0
    0.3282   12.1108    0.0000 C   0  0  0  0  0  0  0  0  0  0  0  0
   -1.5444   10.2673    0.0000 C   0  0  0  0  0  0  0  0  0  0  0  0
   -0.3833   10.8726    0.0000 C   0  0  0  0  0  0  0  0  0  0  0  0
   -0.7878   11.8983    0.0000 C   0  0  0  0  0  0  0  0  0  0  0  0
   -0.1520   10.2542    0.0000 C   0  0  0  0  0  0  0  0  0  0  0  0
   -2.5266   12.1108    0.0000 C   0  0  0  0  0  0  0  0  0  0  0  0
   -1.0977   12.9358    0.0000 C   0  0  0  0  0  0  0  0  0  0  0  0
   -3.2411   11.6983    0.0000 C   0  0  0  0  0  0  0  0  0  0  0  0
   -3.2411    9.1330    0.0000 C   0  0  0  0  0  0  0  0  0  0  0  0
   -3.9556   12.1108    0.0000 C   0  0  0  0  0  0  0  0  0  0  0  0
  1  8  2  0  0  0  0
  1  9  2  0  0  0  0
  1 10  1  0  0  0  0
  1 13  1  0  0  0  0
  2 13  1  0  0  0  0
  3 13  1  0  0  0  0
  4 14  1  0  0  0  0
  5 14  1  0  0  0  0
  6 12  1  0  0  0  0
  6 24  1  0  0  0  0
  7 14  1  0  0  0  0
  7 27  1  0  0  0  0
 11 24  2  0  0  0  0
 12 15  1  0  0  0  0
 12 16  1  0  0  0  0
 12 25  1  0  0  0  0
 13 14  1  0  0  0  0
 15 20  1  0  0  0  0
 15 21  1  0  0  0  0
 16 19  1  0  0  0  0
 16 22  1  0  0  0  0
 17 19  1  0  0  0  0
 17 21  1  0  0  0  0
 17 23  1  0  0  0  0
 18 20  1  0  0  0  0
 18 22  1  0  0  0  0
 18 23  1  0  0  0  0
 24 26  1  0  0  0  0
 26 27  1  0  0  0  0
 26 28  2  0  0  0  0
M  END
> <PUBCHEM_COMPOUND_ID_TYPE>
0

> <PUBCHEM_TOTAL_CHARGE>
0

> <PUBCHEM_SUBSTANCE_ID>
310947788

> <PUBCHEM_SUBSTANCE_VERSION>
1

> <PUBCHEM_EXT_DATASOURCE_NAME>
4488

> <PUBCHEM_EXT_DATASOURCE_REGID>
SCHEMBL16125960

> <PUBCHEM_SUBSTANCE_COMMENT>
InChI=1S/C17H22F4O6S/c1-9(8-26-16(18,19)17(20,21)28(23,24)25)14(22)27-15(2)12-4-10-3-11(6-12)7-13(15)5-10/h10-13H,1,3-8H2,2H3,(H,23,24,25)
InChIKey=VPGGXBXUNNVRRN-UHFFFAOYSA-N

> <PUBCHEM_SUBSTANCE_SYNONYM>
SCHEMBL16125960

> <PUBCHEM_XREF_EXT_ID>
SCHEMBL16125960

> <PUBCHEM_EXT_DATASOURCE_URL>
https://www.surechembl.org/

> <PUBCHEM_EXT_SUBSTANCE_URL>
https://www.surechembl.org/chemical/SCHEMBL16125960

> <PUBCHEM_CID_ASSOCIATIONS>
117613457  1

> <PUBCHEM_COORDINATE_TYPE>
1
3

$$$$
