310944789
  -OEChem-07211613022D

 25 28  0     0  0  0  0  0  0999 V2000
    1.8303   -2.7068    0.0000 Cl  0  0  0  0  0  0  0  0  0  0  0  0
    0.4640    3.0548    0.0000 F   0  0  0  0  0  0  0  0  0  0  0  0
    1.2117    0.2836    0.0000 F   0  0  0  0  0  0  0  0  0  0  0  0
   -0.1933    0.6573    0.0000 N   0  0  0  0  0  0  0  0  0  0  0  0
    0.2965   -0.0129    0.0000 N   0  0  0  0  0  0  0  0  0  0  0  0
   -0.5800   -2.0623    0.0000 N   0  0  0  0  0  0  0  0  0  0  0  0
   -0.9926   -0.3738    0.0000 C   0  0  0  0  0  0  0  0  0  0  0  0
   -0.2062   -0.6573    0.0000 C   0  0  0  0  0  0  0  0  0  0  0  0
   -0.9797    0.4382    0.0000 C   0  0  0  0  0  0  0  0  0  0  0  0
    0.0000   -1.4437    0.0000 C   0  0  0  0  0  0  0  0  0  0  0  0
    0.0258    1.4823    0.0000 C   0  0  0  0  0  0  0  0  0  0  0  0
    0.7992    1.7014    0.0000 C   0  0  0  0  0  0  0  0  0  0  0  0
   -1.7014   -0.7992    0.0000 C   0  0  0  0  0  0  0  0  0  0  0  0
   -1.7014    0.8379    0.0000 C   0  0  0  0  0  0  0  0  0  0  0  0
    0.7992   -1.6756    0.0000 C   0  0  0  0  0  0  0  0  0  0  0  0
    1.0441    2.4877    0.0000 C   0  0  0  0  0  0  0  0  0  0  0  0
    1.4050    1.1215    0.0000 C   0  0  0  0  0  0  0  0  0  0  0  0
   -2.4104   -0.3867    0.0000 C   0  0  0  0  0  0  0  0  0  0  0  0
   -2.4104    0.4253    0.0000 C   0  0  0  0  0  0  0  0  0  0  0  0
    1.0183   -2.4619    0.0000 C   0  0  0  0  0  0  0  0  0  0  0  0
   -0.3738   -2.8486    0.0000 C   0  0  0  0  0  0  0  0  0  0  0  0
    1.8432    2.6939    0.0000 C   0  0  0  0  0  0  0  0  0  0  0  0
    2.2041    1.3277    0.0000 C   0  0  0  0  0  0  0  0  0  0  0  0
    0.4382   -3.0548    0.0000 C   0  0  0  0  0  0  0  0  0  0  0  0
    2.4104    2.1267    0.0000 C   0  0  0  0  0  0  0  0  0  0  0  0
  1 20  1  0  0  0  0
  2 16  1  0  0  0  0
  3 17  1  0  0  0  0
  4  5  1  0  0  0  0
  4  9  1  0  0  0  0
  4 11  1  0  0  0  0
  5  8  2  0  0  0  0
  6 10  2  0  0  0  0
  6 21  1  0  0  0  0
  7  8  1  0  0  0  0
  7  9  2  0  0  0  0
  7 13  1  0  0  0  0
  8 10  1  0  0  0  0
  9 14  1  0  0  0  0
 10 15  1  0  0  0  0
 11 12  1  0  0  0  0
 12 16  2  0  0  0  0
 12 17  1  0  0  0  0
 13 18  2  0  0  0  0
 14 19  2  0  0  0  0
 15 20  2  0  0  0  0
 16 22  1  0  0  0  0
 17 23  2  0  0  0  0
 18 19  1  0  0  0  0
 20 24  1  0  0  0  0
 21 24  2  0  0  0  0
 22 25  2  0  0  0  0
 23 25  1  0  0  0  0
M  END
> <PUBCHEM_COMPOUND_ID_TYPE>
0

> <PUBCHEM_TOTAL_CHARGE>
0

> <PUBCHEM_SUBSTANCE_ID>
310944789

> <PUBCHEM_SUBSTANCE_VERSION>
1

> <PUBCHEM_EXT_DATASOURCE_NAME>
4488

> <PUBCHEM_EXT_DATASOURCE_REGID>
SCHEMBL16122868

> <PUBCHEM_SUBSTANCE_COMMENT>
InChI=1S/C19H12ClF2N3/c20-12-8-9-23-17(10-12)19-13-4-1-2-7-18(13)25(24-19)11-14-15(21)5-3-6-16(14)22/h1-10H,11H2
InChIKey=XJEZOGUIGNZUID-UHFFFAOYSA-N

> <PUBCHEM_SUBSTANCE_SYNONYM>
SCHEMBL16122868

> <PUBCHEM_XREF_EXT_ID>
SCHEMBL16122868

> <PUBCHEM_EXT_DATASOURCE_URL>
https://www.surechembl.org/

> <PUBCHEM_EXT_SUBSTANCE_URL>
https://www.surechembl.org/chemical/SCHEMBL16122868

> <PUBCHEM_CID_ASSOCIATIONS>
117611003  1

> <PUBCHEM_COORDINATE_TYPE>
1
3

$$$$
