310942972
  -OEChem-07211613022D

 32 35  0     1  0  0  0  0  0999 V2000
   -1.7509   -2.6534    0.0000 S   0  0  0  0  0  0  0  0  0  0  0  0
   -1.1733   -0.5054    0.0000 O   0  0  0  0  0  0  0  0  0  0  0  0
   -2.4549   -2.2382    0.0000 O   0  0  0  0  0  0  0  0  0  0  0  0
   -2.3285   -3.2490    0.0000 O   0  0  0  0  0  0  0  0  0  0  0  0
    0.2708    4.0072    0.0000 O   0  0  0  0  0  0  0  0  0  0  0  0
    0.3069    1.8231    0.0000 N   0  0  0  0  0  0  0  0  0  0  0  0
    0.7942    1.1553    0.0000 N   0  0  0  0  0  0  0  0  0  0  0  0
    0.5596   -0.3069    0.0000 N   0  0  0  0  0  0  0  0  0  0  0  0
   -1.8953    0.7400    0.0000 N   0  0  0  0  0  0  0  0  0  0  0  0
    2.4549    1.5523    0.0000 N   0  0  0  0  0  0  0  0  0  0  0  0
   -0.4693    0.7400    0.0000 C   0  0  0  0  0  0  0  0  0  0  0  0
   -0.4512    1.5704    0.0000 C   0  0  0  0  0  0  0  0  0  0  0  0
    0.3069    0.4874    0.0000 C   0  0  0  0  0  0  0  0  0  0  0  0
    0.5596    2.6353    0.0000 C   0  0  3  0  0  0  0  0  0  0  0  0
   -1.1733    0.3429    0.0000 C   0  0  0  0  0  0  0  0  0  0  0  0
   -1.1913    1.9675    0.0000 C   0  0  0  0  0  0  0  0  0  0  0  0
   -1.1733   -2.0397    0.0000 C   0  0  0  0  0  0  0  0  0  0  0  0
    1.3718    2.7798    0.0000 C   0  0  3  0  0  0  0  0  0  0  0  0
   -0.0180   -0.8845    0.0000 C   0  0  0  0  0  0  0  0  0  0  0  0
   -1.3718   -3.4476    0.0000 C   0  0  0  0  0  0  0  0  0  0  0  0
   -1.8592    1.5704    0.0000 C   0  0  0  0  0  0  0  0  0  0  0  0
    0.0361    3.2129    0.0000 C   0  0  0  0  0  0  0  0  0  0  0  0
   -1.3718   -1.2635    0.0000 C   0  0  0  0  0  0  0  0  0  0  0  0
   -0.3790   -2.2743    0.0000 C   0  0  0  0  0  0  0  0  0  0  0  0
   -0.7942   -0.6859    0.0000 C   0  0  0  0  0  0  0  0  0  0  0  0
    0.1986   -1.6967    0.0000 C   0  0  0  0  0  0  0  0  0  0  0  0
    1.6245    3.5739    0.0000 C   0  0  0  0  0  0  0  0  0  0  0  0
    1.9133    2.1661    0.0000 C   0  0  0  0  0  0  0  0  0  0  0  0
    1.0830    4.1876    0.0000 C   0  0  0  0  0  0  0  0  0  0  0  0
   -1.8411   -4.1516    0.0000 C   0  0  0  0  0  0  0  0  0  0  0  0
   -0.9386   -4.1876    0.0000 C   0  0  0  0  0  0  0  0  0  0  0  0
   -0.5235   -3.5017    0.0000 C   0  0  0  0  0  0  0  0  0  0  0  0
  1  3  2  0  0  0  0
  1  4  2  0  0  0  0
  1 17  1  0  0  0  0
  1 20  1  0  0  0  0
  2 15  2  0  0  0  0
  5 22  1  0  0  0  0
  5 29  1  0  0  0  0
  6  7  1  0  0  0  0
  6 12  1  0  0  0  0
 14  6  1  1  0  0  0
  7 13  2  0  0  0  0
  8 13  1  0  0  0  0
  8 19  1  0  0  0  0
  9 15  1  0  0  0  0
  9 21  1  0  0  0  0
 10 28  3  0  0  0  0
 11 12  2  0  0  0  0
 11 13  1  0  0  0  0
 11 15  1  0  0  0  0
 12 16  1  0  0  0  0
 14 18  1  0  0  0  0
 14 22  1  0  0  0  0
 16 21  2  0  0  0  0
 17 23  2  0  0  0  0
 17 24  1  0  0  0  0
 18 27  1  0  0  0  0
 18 28  1  6  0  0  0
 19 25  2  0  0  0  0
 19 26  1  0  0  0  0
 20 30  1  0  0  0  0
 20 31  1  0  0  0  0
 20 32  1  0  0  0  0
 23 25  1  0  0  0  0
 24 26  2  0  0  0  0
 27 29  1  0  0  0  0
M  END
> <PUBCHEM_COMPOUND_ID_TYPE>
0

> <PUBCHEM_TOTAL_CHARGE>
0

> <PUBCHEM_SUBSTANCE_ID>
310942972

> <PUBCHEM_SUBSTANCE_VERSION>
1

> <PUBCHEM_EXT_DATASOURCE_NAME>
4488

> <PUBCHEM_EXT_DATASOURCE_REGID>
SCHEMBL16121031

> <PUBCHEM_SUBSTANCE_COMMENT>
InChI=1S/C22H25N5O4S/c1-22(2,3)32(29,30)16-6-4-15(5-7-16)25-20-19-17(8-10-24-21(19)28)27(26-20)18-13-31-11-9-14(18)12-23/h4-8,10,14,18H,9,11,13H2,1-3H3,(H,24,28)(H,25,26)/t14-,18+/m1/s1
InChIKey=LDLPWZKLUCQRQL-KDOFPFPSSA-N

> <PUBCHEM_SUBSTANCE_SYNONYM>
SCHEMBL16121031

> <PUBCHEM_XREF_EXT_ID>
SCHEMBL16121031

> <PUBCHEM_EXT_DATASOURCE_URL>
https://www.surechembl.org/

> <PUBCHEM_EXT_SUBSTANCE_URL>
https://www.surechembl.org/chemical/SCHEMBL16121031

> <PUBCHEM_CID_ASSOCIATIONS>
117609434  1

> <PUBCHEM_COORDINATE_TYPE>
1
3

> <PUBCHEM_BONDANNOTATIONS>
18  28  6
14  6  5

$$$$
