310943882
  -OEChem-07211613022D

 14 15  0     0  0  0  0  0  0999 V2000
   -1.1156   -0.3227    0.0000 N   0  0  0  0  0  0  0  0  0  0  0  0
   -0.4047    0.9023    0.0000 N   0  0  0  0  0  0  0  0  0  0  0  0
   -1.8704    0.0055    0.0000 N   0  0  0  0  0  0  0  0  0  0  0  0
    0.3063    1.3180    0.0000 N   0  0  0  0  0  0  0  0  0  0  0  0
   -2.4172   -0.6071    0.0000 N   0  0  0  0  0  0  0  0  0  0  0  0
   -2.0017   -1.3180    0.0000 N   0  0  0  0  0  0  0  0  0  0  0  0
   -0.4157    0.0820    0.0000 C   0  0  0  0  0  0  0  0  0  0  0  0
    0.3063   -0.3227    0.0000 C   0  0  0  0  0  0  0  0  0  0  0  0
   -1.2031   -1.1430    0.0000 C   0  0  0  0  0  0  0  0  0  0  0  0
    1.0063    0.0820    0.0000 C   0  0  0  0  0  0  0  0  0  0  0  0
    1.0172    0.9133    0.0000 C   0  0  0  0  0  0  0  0  0  0  0  0
    0.3172   -1.1649    0.0000 C   0  0  0  0  0  0  0  0  0  0  0  0
    1.7063    1.3180    0.0000 C   0  0  0  0  0  0  0  0  0  0  0  0
    2.4172    0.8586    0.0000 C   0  0  0  0  0  0  0  0  0  0  0  0
  1  3  1  0  0  0  0
  1  7  1  0  0  0  0
  1  9  1  0  0  0  0
  2  4  1  0  0  0  0
  2  7  2  0  0  0  0
  3  5  2  0  0  0  0
  4 11  2  0  0  0  0
  5  6  1  0  0  0  0
  6  9  2  0  0  0  0
  7  8  1  0  0  0  0
  8 10  2  0  0  0  0
  8 12  1  0  0  0  0
 10 11  1  0  0  0  0
 11 13  1  0  0  0  0
 13 14  2  0  0  0  0
M  END
> <PUBCHEM_COMPOUND_ID_TYPE>
0

> <PUBCHEM_TOTAL_CHARGE>
0

> <PUBCHEM_SUBSTANCE_ID>
310943882

> <PUBCHEM_SUBSTANCE_VERSION>
1

> <PUBCHEM_EXT_DATASOURCE_NAME>
4488

> <PUBCHEM_EXT_DATASOURCE_REGID>
SCHEMBL16121953

> <PUBCHEM_SUBSTANCE_COMMENT>
InChI=1S/C8H8N6/c1-3-7-4-6(2)8(11-10-7)14-5-9-12-13-14/h3-5H,1H2,2H3
InChIKey=UVGLWJXZYPPWOG-UHFFFAOYSA-N

> <PUBCHEM_SUBSTANCE_SYNONYM>
SCHEMBL16121953

> <PUBCHEM_XREF_EXT_ID>
SCHEMBL16121953

> <PUBCHEM_EXT_DATASOURCE_URL>
https://www.surechembl.org/

> <PUBCHEM_EXT_SUBSTANCE_URL>
https://www.surechembl.org/chemical/SCHEMBL16121953

> <PUBCHEM_CID_ASSOCIATIONS>
117610208  1

> <PUBCHEM_COORDINATE_TYPE>
1
3

$$$$
