310949060
  -OEChem-07211613022D

 39 46  0     0  0  0  0  0  0999 V2000
   -1.9168   -0.6411    0.0000 O   0  0  0  0  0  0  0  0  0  0  0  0
   -0.4145    0.3432    0.0000 N   0  0  0  0  0  0  0  0  0  0  0  0
    1.7354   -0.0842    0.0000 N   0  0  0  0  0  0  0  0  0  0  0  0
   -0.4015   -3.7753    0.0000 N   0  0  0  0  0  0  0  0  0  0  0  0
    0.2590    0.8872    0.0000 C   0  0  0  0  0  0  0  0  0  0  0  0
   -0.0130    1.6513    0.0000 C   0  0  0  0  0  0  0  0  0  0  0  0
   -0.4145   -0.4598    0.0000 C   0  0  0  0  0  0  0  0  0  0  0  0
    1.6060    1.3404    0.0000 C   0  0  0  0  0  0  0  0  0  0  0  0
    1.3599    2.1176    0.0000 C   0  0  0  0  0  0  0  0  0  0  0  0
   -1.1008    0.8612    0.0000 C   0  0  0  0  0  0  0  0  0  0  0  0
    2.4477    1.3534    0.0000 C   0  0  0  0  0  0  0  0  0  0  0  0
   -0.8418    1.6513    0.0000 C   0  0  0  0  0  0  0  0  0  0  0  0
   -1.1268   -0.8742    0.0000 C   0  0  0  0  0  0  0  0  0  0  0  0
    1.0491    0.7188    0.0000 C   0  0  0  0  0  0  0  0  0  0  0  0
    2.0204    2.6226    0.0000 C   0  0  0  0  0  0  0  0  0  0  0  0
    2.7068    2.1434    0.0000 C   0  0  0  0  0  0  0  0  0  0  0  0
   -1.1268   -1.7031    0.0000 C   0  0  0  0  0  0  0  0  0  0  0  0
    0.5439    2.2600    0.0000 C   0  0  0  0  0  0  0  0  0  0  0  0
    0.3237   -0.8483    0.0000 C   0  0  0  0  0  0  0  0  0  0  0  0
   -1.9168   -1.9621    0.0000 C   0  0  0  0  0  0  0  0  0  0  0  0
   -0.4015   -2.1176    0.0000 C   0  0  0  0  0  0  0  0  0  0  0  0
   -2.4089   -1.3145    0.0000 C   0  0  0  0  0  0  0  0  0  0  0  0
   -1.8909    0.6799    0.0000 C   0  0  0  0  0  0  0  0  0  0  0  0
    0.3109   -1.6901    0.0000 C   0  0  0  0  0  0  0  0  0  0  0  0
   -1.3858    2.2341    0.0000 C   0  0  0  0  0  0  0  0  0  0  0  0
    2.1240    3.4385    0.0000 C   0  0  0  0  0  0  0  0  0  0  0  0
    3.4580    2.4802    0.0000 C   0  0  0  0  0  0  0  0  0  0  0  0
    3.3025    1.3534    0.0000 C   0  0  0  0  0  0  0  0  0  0  0  0
    2.2147    0.5505    0.0000 C   0  0  0  0  0  0  0  0  0  0  0  0
    1.0102   -0.4598    0.0000 C   0  0  0  0  0  0  0  0  0  0  0  0
   -2.2664   -2.7262    0.0000 C   0  0  0  0  0  0  0  0  0  0  0  0
   -2.4349    1.2757    0.0000 C   0  0  0  0  0  0  0  0  0  0  0  0
   -2.1887    2.0527    0.0000 C   0  0  0  0  0  0  0  0  0  0  0  0
   -3.2248   -1.4181    0.0000 C   0  0  0  0  0  0  0  0  0  0  0  0
   -0.4015   -2.9593    0.0000 C   0  0  0  0  0  0  0  0  0  0  0  0
    2.8622    3.7753    0.0000 C   0  0  0  0  0  0  0  0  0  0  0  0
    3.5357    3.2961    0.0000 C   0  0  0  0  0  0  0  0  0  0  0  0
   -3.0694   -2.8169    0.0000 C   0  0  0  0  0  0  0  0  0  0  0  0
   -3.5357   -2.1823    0.0000 C   0  0  0  0  0  0  0  0  0  0  0  0
  1 13  1  0  0  0  0
  1 22  1  0  0  0  0
  2  5  1  0  0  0  0
  2  7  1  0  0  0  0
  2 10  1  0  0  0  0
  3 30  3  0  0  0  0
  4 35  3  0  0  0  0
  5  6  2  0  0  0  0
  5 14  1  0  0  0  0
  6 12  1  0  0  0  0
  6 18  1  0  0  0  0
  7 13  1  0  0  0  0
  7 19  2  0  0  0  0
  8  9  1  0  0  0  0
  8 11  1  0  0  0  0
  8 14  2  0  0  0  0
  9 15  1  0  0  0  0
  9 18  2  0  0  0  0
 10 12  2  0  0  0  0
 10 23  1  0  0  0  0
 11 16  1  0  0  0  0
 11 28  1  0  0  0  0
 11 29  1  0  0  0  0
 12 25  1  0  0  0  0
 13 17  2  0  0  0  0
 15 16  2  0  0  0  0
 15 26  1  0  0  0  0
 16 27  1  0  0  0  0
 17 20  1  0  0  0  0
 17 21  1  0  0  0  0
 19 24  1  0  0  0  0
 19 30  1  0  0  0  0
 20 22  2  0  0  0  0
 20 31  1  0  0  0  0
 21 24  2  0  0  0  0
 21 35  1  0  0  0  0
 22 34  1  0  0  0  0
 23 32  2  0  0  0  0
 25 33  2  0  0  0  0
 26 36  2  0  0  0  0
 27 37  2  0  0  0  0
 31 38  2  0  0  0  0
 32 33  1  0  0  0  0
 34 39  2  0  0  0  0
 36 37  1  0  0  0  0
 38 39  1  0  0  0  0
M  END
> <PUBCHEM_COMPOUND_ID_TYPE>
0

> <PUBCHEM_TOTAL_CHARGE>
0

> <PUBCHEM_SUBSTANCE_ID>
310949060

> <PUBCHEM_SUBSTANCE_VERSION>
1

> <PUBCHEM_EXT_DATASOURCE_NAME>
4488

> <PUBCHEM_EXT_DATASOURCE_REGID>
SCHEMBL16127250

> <PUBCHEM_SUBSTANCE_COMMENT>
InChI=1S/C35H21N3O/c1-35(2)27-12-6-3-9-22(27)25-16-26-23-10-4-7-13-29(23)38(30(26)17-28(25)35)33-21(19-37)15-20(18-36)32-24-11-5-8-14-31(24)39-34(32)33/h3-17H,1-2H3
InChIKey=NEDZBIFTLJLXEB-UHFFFAOYSA-N

> <PUBCHEM_SUBSTANCE_SYNONYM>
SCHEMBL16127250

> <PUBCHEM_XREF_EXT_ID>
SCHEMBL16127250

> <PUBCHEM_EXT_DATASOURCE_URL>
https://www.surechembl.org/

> <PUBCHEM_EXT_SUBSTANCE_URL>
https://www.surechembl.org/chemical/SCHEMBL16127250

> <PUBCHEM_CID_ASSOCIATIONS>
117614565  1

> <PUBCHEM_COORDINATE_TYPE>
1
3

$$$$
