310946194
  -OEChem-07211613022D

 14 14  0     0  0  0  0  0  0999 V2000
    0.3572    1.0172    0.0000 Cl  0  0  0  0  0  0  0  0  0  0  0  0
   -1.7862   -0.2203    0.0000 P   0  0  0  0  0  0  0  0  0  0  0  0
   -1.7862    0.6047    0.0000 O   0  0  0  0  0  0  0  0  0  0  0  0
    1.0717   -0.2203    0.0000 C   0  0  0  0  0  0  0  0  0  0  0  0
    1.0717    0.6047    0.0000 C   0  0  0  0  0  0  0  0  0  0  0  0
    0.3572   -0.6328    0.0000 C   0  0  0  0  0  0  0  0  0  0  0  0
    1.7862   -0.6328    0.0000 C   0  0  0  0  0  0  0  0  0  0  0  0
    1.7862    1.0172    0.0000 C   0  0  0  0  0  0  0  0  0  0  0  0
   -0.3572   -0.2203    0.0000 C   0  0  0  0  0  0  0  0  0  0  0  0
   -1.0717   -0.6328    0.0000 C   0  0  0  0  0  0  0  0  0  0  0  0
    2.5006   -0.2203    0.0000 C   0  0  0  0  0  0  0  0  0  0  0  0
    2.5006    0.6047    0.0000 C   0  0  0  0  0  0  0  0  0  0  0  0
   -2.5006   -0.6328    0.0000 C   0  0  0  0  0  0  0  0  0  0  0  0
   -1.9997   -1.0172    0.0000 C   0  0  0  0  0  0  0  0  0  0  0  0
  1  5  1  0  0  0  0
  2  3  2  0  0  0  0
  2 10  1  0  0  0  0
  2 13  1  0  0  0  0
  2 14  1  0  0  0  0
  4  5  1  0  0  0  0
  4  6  1  0  0  0  0
  4  7  2  0  0  0  0
  5  8  2  0  0  0  0
  6  9  2  0  0  0  0
  7 11  1  0  0  0  0
  8 12  1  0  0  0  0
  9 10  1  0  0  0  0
 11 12  2  0  0  0  0
M  END
> <PUBCHEM_COMPOUND_ID_TYPE>
0

> <PUBCHEM_TOTAL_CHARGE>
0

> <PUBCHEM_SUBSTANCE_ID>
310946194

> <PUBCHEM_SUBSTANCE_VERSION>
1

> <PUBCHEM_EXT_DATASOURCE_NAME>
4488

> <PUBCHEM_EXT_DATASOURCE_REGID>
SCHEMBL16124306

> <PUBCHEM_SUBSTANCE_COMMENT>
InChI=1S/C11H14ClOP/c1-14(2,13)9-5-7-10-6-3-4-8-11(10)12/h3-8H,9H2,1-2H3/b7-5+
InChIKey=RQVQXPVCJMJLRM-FNORWQNLSA-N

> <PUBCHEM_SUBSTANCE_SYNONYM>
SCHEMBL16124306

> <PUBCHEM_XREF_EXT_ID>
SCHEMBL16124306

> <PUBCHEM_EXT_DATASOURCE_URL>
https://www.surechembl.org/

> <PUBCHEM_EXT_SUBSTANCE_URL>
https://www.surechembl.org/chemical/SCHEMBL16124306

> <PUBCHEM_CID_ASSOCIATIONS>
59068903  1

> <PUBCHEM_COORDINATE_TYPE>
1
3

$$$$
