310947331
  -OEChem-07211613022D

 35 39  0     1  0  0  0  0  0999 V2000
   -5.9981   -0.0923    0.0000 Br  0  0  0  0  0  0  0  0  0  0  0  0
    4.9877   -0.2055    0.0000 O   0  0  0  0  0  0  0  0  0  0  0  0
    5.9981   -1.2159    0.0000 O   0  0  0  0  0  0  0  0  0  0  0  0
   -1.7113    2.3827    0.0000 O   0  0  0  0  0  0  0  0  0  0  0  0
    1.2168    0.0652    0.0000 N   0  0  0  0  0  0  0  0  0  0  0  0
    1.7017    0.7327    0.0000 N   0  0  0  0  0  0  0  0  0  0  0  0
   -2.4257    1.1452    0.0000 N   0  0  0  0  0  0  0  0  0  0  0  0
    4.6178   -1.5858    0.0000 C   0  0  0  0  0  0  0  0  0  0  0  0
    3.8210   -1.3722    0.0000 C   0  0  0  0  0  0  0  0  0  0  0  0
    4.4043   -2.3827    0.0000 C   0  0  0  0  0  0  0  0  0  0  0  0
    5.2012   -2.1691    0.0000 C   0  0  0  0  0  0  0  0  0  0  0  0
    5.2012   -1.0024    0.0000 C   0  0  0  0  0  0  0  0  0  0  0  0
    0.4321    0.3202    0.0000 C   0  0  0  0  0  0  0  0  0  0  0  0
    0.4321    1.1452    0.0000 C   0  0  0  0  0  0  0  0  0  0  0  0
    1.2168    1.4001    0.0000 C   0  0  0  0  0  0  0  0  0  0  0  0
    3.2376   -1.9556    0.0000 C   0  0  0  0  0  0  0  0  0  0  0  0
    3.6074   -0.5754    0.0000 C   0  0  0  0  0  0  0  0  0  0  0  0
    2.2272   -0.9452    0.0000 C   0  0  0  0  0  0  0  0  0  0  0  0
    1.4303   -0.7317    0.0000 C   0  0  0  0  0  0  0  0  0  0  0  0
   -0.2823    1.5577    0.0000 C   0  0  0  0  0  0  0  0  0  0  0  0
   -0.9968    1.1452    0.0000 C   0  0  0  0  0  0  0  0  0  0  0  0
   -0.2823   -0.0923    0.0000 C   0  0  0  0  0  0  0  0  0  0  0  0
    2.4407   -1.7421    0.0000 C   0  0  0  0  0  0  0  0  0  0  0  0
    2.8105   -0.3618    0.0000 C   0  0  0  0  0  0  0  0  0  0  0  0
   -0.9968    0.3202    0.0000 C   0  0  0  0  0  0  0  0  0  0  0  0
   -1.7113    1.5577    0.0000 C   0  0  0  0  0  0  0  0  0  0  0  0
    1.6293    2.1146    0.0000 C   0  0  0  0  0  0  0  0  0  0  0  0
   -3.1402    1.5577    0.0000 C   0  0  3  0  0  0  0  0  0  0  0  0
   -3.8547    1.1452    0.0000 C   0  0  0  0  0  0  0  0  0  0  0  0
   -4.5692    1.5577    0.0000 C   0  0  0  0  0  0  0  0  0  0  0  0
   -3.8547    0.3202    0.0000 C   0  0  0  0  0  0  0  0  0  0  0  0
   -3.1402    2.3827    0.0000 C   0  0  0  0  0  0  0  0  0  0  0  0
   -5.2836    0.3202    0.0000 C   0  0  0  0  0  0  0  0  0  0  0  0
   -5.2836    1.1452    0.0000 C   0  0  0  0  0  0  0  0  0  0  0  0
   -4.5692   -0.0923    0.0000 C   0  0  0  0  0  0  0  0  0  0  0  0
  1 33  1  0  0  0  0
  2 12  2  0  0  0  0
  3 12  1  0  0  0  0
  4 26  2  0  0  0  0
  5  6  1  0  0  0  0
  5 13  1  0  0  0  0
  5 19  1  0  0  0  0
  6 15  2  0  0  0  0
  7 26  1  0  0  0  0
  7 28  1  0  0  0  0
  8  9  1  0  0  0  0
  8 10  1  0  0  0  0
  8 11  1  0  0  0  0
  8 12  1  0  0  0  0
  9 16  2  0  0  0  0
  9 17  1  0  0  0  0
 10 11  1  0  0  0  0
 13 14  1  0  0  0  0
 13 22  2  0  0  0  0
 14 15  1  0  0  0  0
 14 20  2  0  0  0  0
 15 27  1  0  0  0  0
 16 23  1  0  0  0  0
 17 24  2  0  0  0  0
 18 19  1  0  0  0  0
 18 23  2  0  0  0  0
 18 24  1  0  0  0  0
 20 21  1  0  0  0  0
 21 25  2  0  0  0  0
 21 26  1  0  0  0  0
 22 25  1  0  0  0  0
 28 29  1  0  0  0  0
 28 32  1  6  0  0  0
 29 30  2  0  0  0  0
 29 31  1  0  0  0  0
 30 34  1  0  0  0  0
 31 35  2  0  0  0  0
 33 34  2  0  0  0  0
 33 35  1  0  0  0  0
M  END
> <PUBCHEM_COMPOUND_ID_TYPE>
0

> <PUBCHEM_TOTAL_CHARGE>
0

> <PUBCHEM_SUBSTANCE_ID>
310947331

> <PUBCHEM_SUBSTANCE_VERSION>
1

> <PUBCHEM_EXT_DATASOURCE_NAME>
4488

> <PUBCHEM_EXT_DATASOURCE_REGID>
SCHEMBL16125486

> <PUBCHEM_SUBSTANCE_COMMENT>
InChI=1S/C28H26BrN3O3/c1-17(20-5-10-23(29)11-6-20)30-26(33)21-7-12-25-24(15-21)18(2)31-32(25)16-19-3-8-22(9-4-19)28(13-14-28)27(34)35/h3-12,15,17H,13-14,16H2,1-2H3,(H,30,33)(H,34,35)/t17-/m0/s1
InChIKey=COXWRFUPQMAQBE-KRWDZBQOSA-N

> <PUBCHEM_SUBSTANCE_SYNONYM>
SCHEMBL16125486

> <PUBCHEM_XREF_EXT_ID>
SCHEMBL16125486

> <PUBCHEM_EXT_DATASOURCE_URL>
https://www.surechembl.org/

> <PUBCHEM_EXT_SUBSTANCE_URL>
https://www.surechembl.org/chemical/SCHEMBL16125486

> <PUBCHEM_CID_ASSOCIATIONS>
71577312  1

> <PUBCHEM_COORDINATE_TYPE>
1
3

> <PUBCHEM_BONDANNOTATIONS>
28  32  6

$$$$
