310941367
  -OEChem-07211613022D

 18 18  0     1  0  0  0  0  0999 V2000
    2.1359   -1.5104    0.0000 O   0  0  0  0  0  0  0  0  0  0  0  0
   -2.2503    0.1424    0.0000 O   0  0  0  0  0  0  0  0  0  0  0  0
    1.6403   -2.3254    0.0000 O   0  0  0  0  0  0  0  0  0  0  0  0
    0.8537    2.3254    0.0000 O   0  0  0  0  0  0  0  0  0  0  0  0
    1.5529    1.1486    0.0000 O   0  0  0  0  0  0  0  0  0  0  0  0
    0.1204    0.2959    0.0000 N   0  0  0  0  0  0  0  0  0  0  0  0
    0.1374    1.1827    0.0000 C   0  0  3  0  0  0  0  0  0  0  0  0
    1.6403   -1.7967    0.0000 C   0  0  0  0  0  0  0  0  0  0  0  0
   -1.3293    1.1657    0.0000 C   0  0  3  0  0  0  0  0  0  0  0  0
   -0.6130    1.5750    0.0000 C   0  0  0  0  0  0  0  0  0  0  0  0
    2.1469   -0.9597    0.0000 C   0  0  0  0  0  0  0  0  0  0  0  0
    0.8367    1.5579    0.0000 C   0  0  0  0  0  0  0  0  0  0  0  0
   -1.4146    0.3300    0.0000 C   0  0  0  0  0  0  0  0  0  0  0  0
   -2.0968    1.5068    0.0000 C   0  0  0  0  0  0  0  0  0  0  0  0
   -2.6426    0.8587    0.0000 C   0  0  0  0  0  0  0  0  0  0  0  0
    2.6426   -0.9377    0.0000 C   0  0  0  0  0  0  0  0  0  0  0  0
    1.6403   -0.9597    0.0000 C   0  0  0  0  0  0  0  0  0  0  0  0
    2.1359   -0.4200    0.0000 C   0  0  0  0  0  0  0  0  0  0  0  0
  1  8  1  0  0  0  0
  1 11  1  0  0  0  0
  2 13  1  0  0  0  0
  2 15  1  0  0  0  0
  3  8  2  0  0  0  0
  4 12  2  0  0  0  0
  5 12  1  0  0  0  0
  7  6  1  1  0  0  0
  6  8  1  0  0  0  0
  7 10  1  0  0  0  0
  7 12  1  0  0  0  0
  9 10  1  0  0  0  0
  9 13  1  0  0  0  0
  9 14  1  0  0  0  0
 11 16  1  0  0  0  0
 11 17  1  0  0  0  0
 11 18  1  0  0  0  0
 14 15  1  0  0  0  0
M  END
> <PUBCHEM_COMPOUND_ID_TYPE>
0

> <PUBCHEM_TOTAL_CHARGE>
0

> <PUBCHEM_SUBSTANCE_ID>
310941367

> <PUBCHEM_SUBSTANCE_VERSION>
1

> <PUBCHEM_EXT_DATASOURCE_NAME>
4488

> <PUBCHEM_EXT_DATASOURCE_REGID>
SCHEMBL16119327

> <PUBCHEM_SUBSTANCE_COMMENT>
InChI=1S/C12H21NO5/c1-12(2,3)18-11(16)13-9(10(14)15)6-8-4-5-17-7-8/h8-9H,4-7H2,1-3H3,(H,13,16)(H,14,15)/t8?,9-/m0/s1
InChIKey=YNYWZOUUORFIOY-GKAPJAKFSA-N

> <PUBCHEM_SUBSTANCE_SYNONYM>
SCHEMBL16119327

> <PUBCHEM_XREF_EXT_ID>
SCHEMBL16119327

> <PUBCHEM_EXT_DATASOURCE_URL>
https://www.surechembl.org/

> <PUBCHEM_EXT_SUBSTANCE_URL>
https://www.surechembl.org/chemical/SCHEMBL16119327

> <PUBCHEM_CID_ASSOCIATIONS>
117608210  1

> <PUBCHEM_COORDINATE_TYPE>
1
3

> <PUBCHEM_BONDANNOTATIONS>
7  6  5

$$$$
