310942131
  -OEChem-07211613022D

 23 24  0     1  0  0  0  0  0999 V2000
    0.5161   -0.1866    0.0000 F   0  0  0  0  0  0  0  0  0  0  0  0
    3.2891   -0.9202    0.0000 F   0  0  0  0  0  0  0  0  0  0  0  0
    2.1077    0.2487    0.0000 O   0  0  0  0  0  0  0  0  0  0  0  0
   -3.2891   -0.4601    0.0000 O   0  0  0  0  0  0  0  0  0  0  0  0
   -0.4911   -1.1938    0.0000 N   0  0  0  0  0  0  0  0  0  0  0  0
   -2.7668   -1.8404    0.0000 N   0  0  0  0  0  0  0  0  0  0  0  0
    1.8964   -0.5596    0.0000 C   0  0  0  0  0  0  0  0  0  0  0  0
    1.1253   -0.7585    0.0000 C   0  0  0  0  0  0  0  0  0  0  0  0
    0.8767   -1.5668    0.0000 C   0  0  0  0  0  0  0  0  0  0  0  0
    2.4933   -1.1316    0.0000 C   0  0  0  0  0  0  0  0  0  0  0  0
    1.4985   -2.1513    0.0000 C   0  0  0  0  0  0  0  0  0  0  0  0
    2.2694   -1.9399    0.0000 C   0  0  0  0  0  0  0  0  0  0  0  0
    1.5358    0.8332    0.0000 C   0  0  0  0  0  0  0  0  0  0  0  0
    0.0808   -1.7782    0.0000 C   0  0  0  0  0  0  0  0  0  0  0  0
    1.7471    1.6414    0.0000 C   0  0  0  0  0  0  0  0  0  0  0  0
    0.7399    0.6218    0.0000 C   0  0  0  0  0  0  0  0  0  0  0  0
   -1.2995   -1.4051    0.0000 C   0  0  3  0  0  0  0  0  0  0  0  0
    1.1627    2.2135    0.0000 C   0  0  0  0  0  0  0  0  0  0  0  0
    0.1554    1.2062    0.0000 C   0  0  0  0  0  0  0  0  0  0  0  0
    0.3668    2.0020    0.0000 C   0  0  0  0  0  0  0  0  0  0  0  0
   -1.8839   -0.8208    0.0000 C   0  0  0  0  0  0  0  0  0  0  0  0
   -2.6673   -1.0445    0.0000 C   0  0  0  0  0  0  0  0  0  0  0  0
   -1.4985   -2.2135    0.0000 C   0  0  0  0  0  0  0  0  0  0  0  0
  1  8  1  0  0  0  0
  2 10  1  0  0  0  0
  3  7  1  0  0  0  0
  3 13  1  0  0  0  0
  4 22  2  0  0  0  0
  5 14  1  0  0  0  0
  5 17  1  0  0  0  0
  6 22  1  0  0  0  0
  7  8  2  0  0  0  0
  7 10  1  0  0  0  0
  8  9  1  0  0  0  0
  9 11  2  0  0  0  0
  9 14  1  0  0  0  0
 10 12  2  0  0  0  0
 11 12  1  0  0  0  0
 13 15  2  0  0  0  0
 13 16  1  0  0  0  0
 15 18  1  0  0  0  0
 16 19  2  0  0  0  0
 17 21  1  0  0  0  0
 17 23  1  6  0  0  0
 18 20  2  0  0  0  0
 19 20  1  0  0  0  0
 21 22  1  0  0  0  0
M  END
> <PUBCHEM_COMPOUND_ID_TYPE>
0

> <PUBCHEM_TOTAL_CHARGE>
0

> <PUBCHEM_SUBSTANCE_ID>
310942131

> <PUBCHEM_SUBSTANCE_VERSION>
1

> <PUBCHEM_EXT_DATASOURCE_NAME>
4488

> <PUBCHEM_EXT_DATASOURCE_REGID>
SCHEMBL16120166

> <PUBCHEM_SUBSTANCE_COMMENT>
InChI=1S/C17H18F2N2O2/c1-11(9-15(20)22)21-10-12-7-8-14(18)17(16(12)19)23-13-5-3-2-4-6-13/h2-8,11,21H,9-10H2,1H3,(H2,20,22)/t11-/m1/s1
InChIKey=KQPZDPWSZKWDPQ-LLVKDONJSA-N

> <PUBCHEM_SUBSTANCE_SYNONYM>
SCHEMBL16120166

> <PUBCHEM_XREF_EXT_ID>
SCHEMBL16120166

> <PUBCHEM_EXT_DATASOURCE_URL>
https://www.surechembl.org/

> <PUBCHEM_EXT_SUBSTANCE_URL>
https://www.surechembl.org/chemical/SCHEMBL16120166

> <PUBCHEM_CID_ASSOCIATIONS>
117608790  1

> <PUBCHEM_COORDINATE_TYPE>
1
3

> <PUBCHEM_BONDANNOTATIONS>
17  23  6

$$$$
