310931291
  -OEChem-07211613022D

 15 16  0     0  0  0  0  0  0999 V2000
    5.1353   -1.6604    0.0000 F   0  0  0  0  0  0  0  0  0  0  0  0
    5.1353   -0.0171    0.0000 F   0  0  0  0  0  0  0  0  0  0  0  0
    2.2767   -2.4821    0.0000 O   0  0  0  0  0  0  0  0  0  0  0  0
    1.5577   -0.4279    0.0000 O   0  0  0  0  0  0  0  0  0  0  0  0
    2.9956   -1.2496    0.0000 C   0  0  0  0  0  0  0  0  0  0  0  0
    2.2767   -1.6604    0.0000 C   0  0  0  0  0  0  0  0  0  0  0  0
    1.5577   -1.2496    0.0000 C   0  0  0  0  0  0  0  0  0  0  0  0
    0.8388   -1.6604    0.0000 C   0  0  0  0  0  0  0  0  0  0  0  0
    4.4164   -1.2496    0.0000 C   0  0  0  0  0  0  0  0  0  0  0  0
    3.7146   -1.6604    0.0000 C   0  0  0  0  0  0  0  0  0  0  0  0
    4.4164   -0.4279    0.0000 C   0  0  0  0  0  0  0  0  0  0  0  0
    3.0128   -0.4108    0.0000 C   0  0  0  0  0  0  0  0  0  0  0  0
    0.4279   -2.3622    0.0000 C   0  0  0  0  0  0  0  0  0  0  0  0
    0.0000   -1.6775    0.0000 C   0  0  0  0  0  0  0  0  0  0  0  0
    3.7146    0.0000    0.0000 C   0  0  0  0  0  0  0  0  0  0  0  0
  1  9  1  0  0  0  0
  2 11  1  0  0  0  0
  3  6  2  0  0  0  0
  4  7  2  0  0  0  0
  5  6  1  0  0  0  0
  5 10  1  0  0  0  0
  5 12  2  0  0  0  0
  6  7  1  0  0  0  0
  7  8  1  0  0  0  0
  8 13  1  0  0  0  0
  8 14  1  0  0  0  0
  9 10  2  0  0  0  0
  9 11  1  0  0  0  0
 11 15  2  0  0  0  0
 12 15  1  0  0  0  0
 13 14  1  0  0  0  0
M  END
> <PUBCHEM_COMPOUND_ID_TYPE>
0

> <PUBCHEM_TOTAL_CHARGE>
0

> <PUBCHEM_SUBSTANCE_ID>
310931291

> <PUBCHEM_SUBSTANCE_VERSION>
1

> <PUBCHEM_EXT_DATASOURCE_NAME>
4488

> <PUBCHEM_EXT_DATASOURCE_REGID>
SCHEMBL16108608

> <PUBCHEM_SUBSTANCE_COMMENT>
InChI=1S/C11H8F2O2/c12-8-4-3-7(5-9(8)13)11(15)10(14)6-1-2-6/h3-6H,1-2H2
InChIKey=GXZCHPQBRYHLRJ-UHFFFAOYSA-N

> <PUBCHEM_SUBSTANCE_SYNONYM>
SCHEMBL16108608

> <PUBCHEM_XREF_EXT_ID>
SCHEMBL16108608

> <PUBCHEM_EXT_DATASOURCE_URL>
https://www.surechembl.org/

> <PUBCHEM_EXT_SUBSTANCE_URL>
https://www.surechembl.org/chemical/SCHEMBL16108608

> <PUBCHEM_CID_ASSOCIATIONS>
117600112  1

> <PUBCHEM_COORDINATE_TYPE>
1
3

$$$$
