310936117
  -OEChem-07211613022D

 17 18  0     0  0  0  0  0  0999 V2000
    4.9461   -0.0495    0.0000 Cl  0  0  0  0  0  0  0  0  0  0  0  0
    2.4236   -2.8523    0.0000 O   0  0  0  0  0  0  0  0  0  0  0  0
    0.0000    0.0000    0.0000 O   0  0  0  0  0  0  0  0  0  0  0  0
    1.2200   -2.1433    0.0000 N   0  0  0  0  0  0  0  0  0  0  0  0
    4.9131   -1.4344    0.0000 N   0  0  0  0  0  0  0  0  0  0  0  0
    2.4566   -1.4344    0.0000 C   0  0  0  0  0  0  0  0  0  0  0  0
    3.2809   -1.4344    0.0000 C   0  0  0  0  0  0  0  0  0  0  0  0
    2.0114   -2.1433    0.0000 C   0  0  0  0  0  0  0  0  0  0  0  0
    2.0114   -0.7254    0.0000 C   0  0  0  0  0  0  0  0  0  0  0  0
    1.2200   -0.7254    0.0000 C   0  0  0  0  0  0  0  0  0  0  0  0
    3.6766   -0.7089    0.0000 C   0  0  0  0  0  0  0  0  0  0  0  0
    3.6766   -2.1268    0.0000 C   0  0  0  0  0  0  0  0  0  0  0  0
    0.7749   -1.4344    0.0000 C   0  0  0  0  0  0  0  0  0  0  0  0
    4.5175   -0.7419    0.0000 C   0  0  0  0  0  0  0  0  0  0  0  0
    4.5009   -2.1598    0.0000 C   0  0  0  0  0  0  0  0  0  0  0  0
    0.8079   -0.0165    0.0000 C   0  0  0  0  0  0  0  0  0  0  0  0
    3.2480   -2.8687    0.0000 C   0  0  0  0  0  0  0  0  0  0  0  0
  1 14  1  0  0  0  0
  2  8  1  0  0  0  0
  2 17  1  0  0  0  0
  3 16  2  0  0  0  0
  4  8  1  0  0  0  0
  4 13  2  0  0  0  0
  5 14  1  0  0  0  0
  5 15  2  0  0  0  0
  6  7  1  0  0  0  0
  6  8  2  0  0  0  0
  6  9  1  0  0  0  0
  7 11  1  0  0  0  0
  7 12  2  0  0  0  0
  9 10  2  0  0  0  0
 10 13  1  0  0  0  0
 10 16  1  0  0  0  0
 11 14  2  0  0  0  0
 12 15  1  0  0  0  0
M  END
> <PUBCHEM_COMPOUND_ID_TYPE>
0

> <PUBCHEM_TOTAL_CHARGE>
0

> <PUBCHEM_SUBSTANCE_ID>
310936117

> <PUBCHEM_SUBSTANCE_VERSION>
1

> <PUBCHEM_EXT_DATASOURCE_NAME>
4488

> <PUBCHEM_EXT_DATASOURCE_REGID>
SCHEMBL16113725

> <PUBCHEM_SUBSTANCE_COMMENT>
InChI=1S/C12H9ClN2O2/c1-17-12-10(4-8(7-16)6-15-12)9-2-3-14-11(13)5-9/h2-7H,1H3
InChIKey=CYMSDTRUWWFNIS-UHFFFAOYSA-N

> <PUBCHEM_SUBSTANCE_SYNONYM>
SCHEMBL16113725

> <PUBCHEM_XREF_EXT_ID>
SCHEMBL16113725

> <PUBCHEM_EXT_DATASOURCE_URL>
https://www.surechembl.org/

> <PUBCHEM_EXT_SUBSTANCE_URL>
https://www.surechembl.org/chemical/SCHEMBL16113725

> <PUBCHEM_CID_ASSOCIATIONS>
117604082  1

> <PUBCHEM_COORDINATE_TYPE>
1
3

$$$$
