310944084
  -OEChem-07211613022D

 31 35  0     1  0  0  0  0  0999 V2000
    2.3618   -0.4435    0.0000 O   0  0  0  0  0  0  0  0  0  0  0  0
    5.3667   -0.2772    0.0000 O   0  0  0  0  0  0  0  0  0  0  0  0
    5.1449   -1.7298    0.0000 O   0  0  0  0  0  0  0  0  0  0  0  0
   -0.3548   -0.4435    0.0000 O   0  0  0  0  0  0  0  0  0  0  0  0
    3.4151    0.6099    0.0000 N   0  0  0  0  0  0  0  0  0  0  0  0
    0.4768    0.9868    0.0000 N   0  0  0  0  0  0  0  0  0  0  0  0
   -4.0915    0.2550    0.0000 N   0  0  0  0  0  0  0  0  0  0  0  0
   -2.8386   -0.4546    0.0000 N   0  0  0  0  0  0  0  0  0  0  0  0
   -2.8496    0.9758    0.0000 N   0  0  0  0  0  0  0  0  0  0  0  0
   -4.5794    0.9203    0.0000 N   0  0  0  0  0  0  0  0  0  0  0  0
   -5.3667    0.6653    0.0000 N   0  0  0  0  0  0  0  0  0  0  0  0
   -5.3667   -0.1664    0.0000 N   0  0  0  0  0  0  0  0  0  0  0  0
    2.1289    1.0201    0.0000 C   0  0  0  0  0  0  0  0  0  0  0  0
    2.6279    0.3881    0.0000 C   0  0  0  0  0  0  0  0  0  0  0  0
    2.6168    1.6854    0.0000 C   0  0  0  0  0  0  0  0  0  0  0  0
    4.1026    0.1330    0.0000 C   0  0  0  0  0  0  0  0  0  0  0  0
    3.4041    1.4414    0.0000 C   0  0  0  0  0  0  0  0  0  0  0  0
    1.7187    0.2994    0.0000 C   0  0  0  0  0  0  0  0  0  0  0  0
    1.7076    1.7298    0.0000 C   0  0  0  0  0  0  0  0  0  0  0  0
    0.8981    0.2883    0.0000 C   0  0  0  0  0  0  0  0  0  0  0  0
    0.8870    1.7187    0.0000 C   0  0  0  0  0  0  0  0  0  0  0  0
    4.0915   -0.6875    0.0000 C   0  0  0  0  0  0  0  0  0  0  0  0
    4.8788    0.3881    0.0000 C   0  0  0  0  0  0  0  0  0  0  0  0
    4.8788   -0.9203    0.0000 C   0  0  0  0  0  0  0  0  0  0  0  0
   -0.3548    0.9979    0.0000 C   0  0  0  0  0  0  0  0  0  0  0  0
   -0.7762    0.2772    0.0000 C   0  0  3  0  0  0  0  0  0  0  0  0
   -1.6078    0.2772    0.0000 C   0  0  0  0  0  0  0  0  0  0  0  0
   -3.2599    0.2661    0.0000 C   0  0  0  0  0  0  0  0  0  0  0  0
   -2.0181   -0.4435    0.0000 C   0  0  0  0  0  0  0  0  0  0  0  0
   -2.0181    0.9868    0.0000 C   0  0  0  0  0  0  0  0  0  0  0  0
   -4.5794   -0.4103    0.0000 C   0  0  0  0  0  0  0  0  0  0  0  0
  1 14  2  0  0  0  0
  2 23  1  0  0  0  0
  2 24  1  0  0  0  0
  3 24  2  0  0  0  0
 26  4  1  6  0  0  0
  5 14  1  0  0  0  0
  5 16  1  0  0  0  0
  5 17  1  0  0  0  0
  6 20  1  0  0  0  0
  6 21  1  0  0  0  0
  6 25  1  0  0  0  0
  7 10  1  0  0  0  0
  7 28  1  0  0  0  0
  7 31  1  0  0  0  0
  8 28  2  0  0  0  0
  8 29  1  0  0  0  0
  9 28  1  0  0  0  0
  9 30  2  0  0  0  0
 10 11  2  0  0  0  0
 11 12  1  0  0  0  0
 12 31  2  0  0  0  0
 13 14  1  0  0  0  0
 13 15  1  0  0  0  0
 13 18  1  0  0  0  0
 13 19  1  0  0  0  0
 15 17  1  0  0  0  0
 16 22  2  0  0  0  0
 16 23  1  0  0  0  0
 18 20  1  0  0  0  0
 19 21  1  0  0  0  0
 22 24  1  0  0  0  0
 25 26  1  0  0  0  0
 26 27  1  0  0  0  0
 27 29  2  0  0  0  0
 27 30  1  0  0  0  0
M  END
> <PUBCHEM_COMPOUND_ID_TYPE>
0

> <PUBCHEM_TOTAL_CHARGE>
0

> <PUBCHEM_SUBSTANCE_ID>
310944084

> <PUBCHEM_SUBSTANCE_VERSION>
1

> <PUBCHEM_EXT_DATASOURCE_NAME>
4488

> <PUBCHEM_EXT_DATASOURCE_REGID>
SCHEMBL16122159

> <PUBCHEM_SUBSTANCE_COMMENT>
InChI=1S/C19H22N8O4/c28-15(13-8-20-18(21-9-13)27-12-22-23-24-27)10-25-4-1-19(2-5-25)3-6-26(17(19)30)14-7-16(29)31-11-14/h7-9,12,15,28H,1-6,10-11H2/t15-/m0/s1
InChIKey=ZBTNWKDKEXDUMW-HNNXBMFYSA-N

> <PUBCHEM_SUBSTANCE_SYNONYM>
SCHEMBL16122159

> <PUBCHEM_XREF_EXT_ID>
SCHEMBL16122159

> <PUBCHEM_EXT_DATASOURCE_URL>
https://www.surechembl.org/

> <PUBCHEM_EXT_SUBSTANCE_URL>
https://www.surechembl.org/chemical/SCHEMBL16122159

> <PUBCHEM_CID_ASSOCIATIONS>
117610376  1

> <PUBCHEM_COORDINATE_TYPE>
1
3

> <PUBCHEM_BONDANNOTATIONS>
26  4  6

$$$$
