310932580
  -OEChem-07211613022D

 32 35  0     1  0  0  0  0  0999 V2000
    8.2645   -0.6134    0.0000 F   0  0  0  0  0  0  0  0  0  0  0  0
    5.9079   -1.9693    0.0000 O   0  0  0  0  0  0  0  0  0  0  0  0
    1.7756   -3.6803    0.0000 O   0  0  0  0  0  0  0  0  0  0  0  0
    5.5204   -3.3575    0.0000 N   0  0  0  0  0  0  0  0  0  0  0  0
    5.9401   -4.0677    0.0000 N   0  0  0  0  0  0  0  0  0  0  0  0
    4.2614   -3.9386    0.0000 N   0  0  0  0  0  0  0  0  0  0  0  0
    1.9370   -2.2598    0.0000 N   0  0  0  0  0  0  0  0  0  0  0  0
    1.2913   -0.7425    0.0000 N   0  0  3  0  0  0  0  0  0  0  0  0
    9.6850   -0.6134    0.0000 N   0  0  0  0  0  0  0  0  0  0  0  0
    6.8441   -3.0992    0.0000 C   0  0  0  0  0  0  0  0  0  0  0  0
    6.0693   -2.7441    0.0000 C   0  0  0  0  0  0  0  0  0  0  0  0
    7.5543   -2.6795    0.0000 C   0  0  0  0  0  0  0  0  0  0  0  0
    4.7133   -3.2606    0.0000 C   0  0  0  0  0  0  0  0  0  0  0  0
    6.7472   -3.9063    0.0000 C   0  0  0  0  0  0  0  0  0  0  0  0
    8.2645   -3.0992    0.0000 C   0  0  0  0  0  0  0  0  0  0  0  0
    7.5543   -1.8402    0.0000 C   0  0  0  0  0  0  0  0  0  0  0  0
    3.0992   -3.0992    0.0000 C   0  0  0  0  0  0  0  0  0  0  0  0
    8.2645   -1.4528    0.0000 C   0  0  0  0  0  0  0  0  0  0  0  0
    4.3905   -2.5181    0.0000 C   0  0  0  0  0  0  0  0  0  0  0  0
    8.9748   -1.8402    0.0000 C   0  0  0  0  0  0  0  0  0  0  0  0
    2.2598   -3.0023    0.0000 C   0  0  0  0  0  0  0  0  0  0  0  0
    8.9748   -2.6795    0.0000 C   0  0  0  0  0  0  0  0  0  0  0  0
    3.4220   -3.8740    0.0000 C   0  0  0  0  0  0  0  0  0  0  0  0
    3.5512   -2.4535    0.0000 C   0  0  0  0  0  0  0  0  0  0  0  0
    1.1299   -2.1630    0.0000 C   0  0  0  0  0  0  0  0  0  0  0  0
    8.2645   -3.9063    0.0000 C   0  0  0  0  0  0  0  0  0  0  0  0
    0.8071   -1.3882    0.0000 C   0  0  3  0  0  0  0  0  0  0  0  0
    2.4535   -1.6142    0.0000 C   0  0  0  0  0  0  0  0  0  0  0  0
    9.6850   -1.4528    0.0000 C   0  0  0  0  0  0  0  0  0  0  0  0
    2.1307   -0.8393    0.0000 C   0  0  0  0  0  0  0  0  0  0  0  0
    0.0000   -1.3236    0.0000 C   0  0  0  0  0  0  0  0  0  0  0  0
    0.9685    0.0000    0.0000 C   0  0  0  0  0  0  0  0  0  0  0  0
  1 18  1  0  0  0  0
  2 11  1  0  0  0  0
  3 21  2  0  0  0  0
  4  5  1  0  0  0  0
  4 11  1  0  0  0  0
  4 13  1  0  0  0  0
  5 14  2  0  0  0  0
  6 13  1  0  0  0  0
  6 23  2  0  0  0  0
  7 21  1  0  0  0  0
  7 25  1  0  0  0  0
  7 28  1  0  0  0  0
  8 27  1  0  0  0  0
  8 30  1  0  0  0  0
  8 32  1  0  0  0  0
  9 29  3  0  0  0  0
 10 11  2  0  0  0  0
 10 12  1  0  0  0  0
 10 14  1  0  0  0  0
 12 15  1  0  0  0  0
 12 16  2  0  0  0  0
 13 19  2  0  0  0  0
 15 22  2  0  0  0  0
 15 26  1  0  0  0  0
 16 18  1  0  0  0  0
 17 21  1  0  0  0  0
 17 23  1  0  0  0  0
 17 24  2  0  0  0  0
 18 20  2  0  0  0  0
 19 24  1  0  0  0  0
 20 22  1  0  0  0  0
 20 29  1  0  0  0  0
 25 27  1  0  0  0  0
 27 31  1  1  0  0  0
 28 30  1  0  0  0  0
M  END
> <PUBCHEM_COMPOUND_ID_TYPE>
0

> <PUBCHEM_TOTAL_CHARGE>
0

> <PUBCHEM_SUBSTANCE_ID>
310932580

> <PUBCHEM_SUBSTANCE_VERSION>
1

> <PUBCHEM_EXT_DATASOURCE_NAME>
4488

> <PUBCHEM_EXT_DATASOURCE_REGID>
SCHEMBL16109957

> <PUBCHEM_SUBSTANCE_COMMENT>
InChI=1S/C23H23FN6O2/c1-14-8-17(10-25)20(24)9-18(14)19-12-27-30(23(19)32)21-5-4-16(11-26-21)22(31)29-7-6-28(3)15(2)13-29/h4-5,8-9,11-12,15,32H,6-7,13H2,1-3H3/t15-/m1/s1
InChIKey=WPXKSRBLVCKJBE-OAHLLOKOSA-N

> <PUBCHEM_SUBSTANCE_SYNONYM>
SCHEMBL16109957

> <PUBCHEM_XREF_EXT_ID>
SCHEMBL16109957

> <PUBCHEM_EXT_DATASOURCE_URL>
https://www.surechembl.org/

> <PUBCHEM_EXT_SUBSTANCE_URL>
https://www.surechembl.org/chemical/SCHEMBL16109957

> <PUBCHEM_CID_ASSOCIATIONS>
117601103  1

> <PUBCHEM_COORDINATE_TYPE>
1
3

> <PUBCHEM_BONDANNOTATIONS>
27  31  5

$$$$
