310942375
  -OEChem-07211613022D

 25 27  0     0  0  0  0  0  0999 V2000
    0.0138    1.8357    0.0000 O   0  0  0  0  0  0  0  0  0  0  0  0
   -2.3276   -0.5611    0.0000 O   0  0  0  0  0  0  0  0  0  0  0  0
   -1.6072   -1.7941    0.0000 O   0  0  0  0  0  0  0  0  0  0  0  0
    2.9233   -0.2840    0.0000 O   0  0  0  0  0  0  0  0  0  0  0  0
    0.4296   -0.2702    0.0000 N   0  0  0  0  0  0  0  0  0  0  0  0
    1.2469   -0.4503    0.0000 N   0  0  0  0  0  0  0  0  0  0  0  0
    2.9233    1.1430    0.0000 N   0  0  0  0  0  0  0  0  0  0  0  0
    0.0277    0.4087    0.0000 C   0  0  0  0  0  0  0  0  0  0  0  0
   -0.8866   -0.5611    0.0000 C   0  0  0  0  0  0  0  0  0  0  0  0
   -0.1247   -0.8936    0.0000 C   0  0  0  0  0  0  0  0  0  0  0  0
   -0.7758    0.2564    0.0000 C   0  0  0  0  0  0  0  0  0  0  0  0
    0.4434    1.1292    0.0000 C   0  0  0  0  0  0  0  0  0  0  0  0
   -1.5933   -0.9352    0.0000 C   0  0  0  0  0  0  0  0  0  0  0  0
    1.2608    1.1292    0.0000 C   0  0  0  0  0  0  0  0  0  0  0  0
    0.1385   -1.6696    0.0000 C   0  0  0  0  0  0  0  0  0  0  0  0
   -1.4132    0.8105    0.0000 C   0  0  0  0  0  0  0  0  0  0  0  0
    1.4963   -1.2261    0.0000 C   0  0  0  0  0  0  0  0  0  0  0  0
    0.9559   -1.8357    0.0000 C   0  0  0  0  0  0  0  0  0  0  0  0
    1.6765    0.4365    0.0000 C   0  0  0  0  0  0  0  0  0  0  0  0
    1.6902    1.8357    0.0000 C   0  0  0  0  0  0  0  0  0  0  0  0
    2.4938    0.4365    0.0000 C   0  0  0  0  0  0  0  0  0  0  0  0
    2.5216    1.8357    0.0000 C   0  0  0  0  0  0  0  0  0  0  0  0
   -3.0203   -0.9629    0.0000 C   0  0  0  0  0  0  0  0  0  0  0  0
    3.7823    1.1292    0.0000 C   0  0  0  0  0  0  0  0  0  0  0  0
   -3.7823   -0.5473    0.0000 C   0  0  0  0  0  0  0  0  0  0  0  0
  1 12  2  0  0  0  0
  2 13  1  0  0  0  0
  2 23  1  0  0  0  0
  3 13  2  0  0  0  0
  4 21  2  0  0  0  0
  5  6  1  0  0  0  0
  5  8  1  0  0  0  0
  5 10  1  0  0  0  0
  6 17  2  0  0  0  0
  7 21  1  0  0  0  0
  7 22  1  0  0  0  0
  7 24  1  0  0  0  0
  8 11  2  0  0  0  0
  8 12  1  0  0  0  0
  9 10  2  0  0  0  0
  9 11  1  0  0  0  0
  9 13  1  0  0  0  0
 10 15  1  0  0  0  0
 11 16  1  0  0  0  0
 12 14  1  0  0  0  0
 14 19  2  0  0  0  0
 14 20  1  0  0  0  0
 15 18  2  0  0  0  0
 17 18  1  0  0  0  0
 19 21  1  0  0  0  0
 20 22  2  0  0  0  0
 23 25  1  0  0  0  0
M  END
> <PUBCHEM_COMPOUND_ID_TYPE>
0

> <PUBCHEM_TOTAL_CHARGE>
0

> <PUBCHEM_SUBSTANCE_ID>
310942375

> <PUBCHEM_SUBSTANCE_VERSION>
1

> <PUBCHEM_EXT_DATASOURCE_NAME>
4488

> <PUBCHEM_EXT_DATASOURCE_REGID>
SCHEMBL16120411

> <PUBCHEM_SUBSTANCE_COMMENT>
InChI=1S/C18H17N3O4/c1-4-25-18(24)15-11(2)16(21-13(15)6-5-8-19-21)17(23)12-7-9-20(3)14(22)10-12/h5-10H,4H2,1-3H3
InChIKey=KXIZHGPTULNMEJ-UHFFFAOYSA-N

> <PUBCHEM_SUBSTANCE_SYNONYM>
SCHEMBL16120411

> <PUBCHEM_XREF_EXT_ID>
SCHEMBL16120411

> <PUBCHEM_EXT_DATASOURCE_URL>
https://www.surechembl.org/

> <PUBCHEM_EXT_SUBSTANCE_URL>
https://www.surechembl.org/chemical/SCHEMBL16120411

> <PUBCHEM_CID_ASSOCIATIONS>
117608990  1

> <PUBCHEM_COORDINATE_TYPE>
1
3

$$$$
