310946154
  -OEChem-07211613022D

 36 42  0     0  0  0  0  0  0999 V2000
    1.0449   -2.1962    0.0000 S   0  0  0  0  0  0  0  0  0  0  0  0
    0.0623   -3.6953    0.0000 N   0  0  0  0  0  0  0  0  0  0  0  0
   -2.3947   -5.2958    0.0000 C   0  0  0  0  0  0  0  0  0  0  0  0
   -1.5877   -5.1242    0.0000 C   0  0  0  0  0  0  0  0  0  0  0  0
   -1.1752   -5.8387    0.0000 C   0  0  0  0  0  0  0  0  0  0  0  0
   -2.4809   -6.1162    0.0000 C   0  0  0  0  0  0  0  0  0  0  0  0
   -1.7272   -6.4518    0.0000 C   0  0  0  0  0  0  0  0  0  0  0  0
   -0.3502   -4.4098    0.0000 C   0  0  0  0  0  0  0  0  0  0  0  0
    0.8873   -3.6953    0.0000 C   0  0  0  0  0  0  0  0  0  0  0  0
    1.2998   -2.9808    0.0000 C   0  0  0  0  0  0  0  0  0  0  0  0
   -1.1752   -4.4098    0.0000 C   0  0  0  0  0  0  0  0  0  0  0  0
    2.1248   -2.9808    0.0000 C   0  0  0  0  0  0  0  0  0  0  0  0
    2.3797   -2.1962    0.0000 C   0  0  0  0  0  0  0  0  0  0  0  0
   -0.3502   -5.8387    0.0000 C   0  0  0  0  0  0  0  0  0  0  0  0
    1.7123   -1.7113    0.0000 C   0  0  0  0  0  0  0  0  0  0  0  0
    0.0623   -5.1242    0.0000 C   0  0  0  0  0  0  0  0  0  0  0  0
   -0.3502   -2.9808    0.0000 C   0  0  0  0  0  0  0  0  0  0  0  0
   -3.1483   -6.6012    0.0000 C   0  0  0  0  0  0  0  0  0  0  0  0
   -1.6410   -7.2723    0.0000 C   0  0  0  0  0  0  0  0  0  0  0  0
   -2.3947   -4.4708    0.0000 C   0  0  0  0  0  0  0  0  0  0  0  0
   -3.2197   -5.2958    0.0000 C   0  0  0  0  0  0  0  0  0  0  0  0
    1.2998   -4.4098    0.0000 C   0  0  0  0  0  0  0  0  0  0  0  0
    2.5373   -3.6953    0.0000 C   0  0  0  0  0  0  0  0  0  0  0  0
    2.1248   -4.4098    0.0000 C   0  0  0  0  0  0  0  0  0  0  0  0
    3.1334   -1.8606    0.0000 C   0  0  0  0  0  0  0  0  0  0  0  0
   -3.0621   -7.4216    0.0000 C   0  0  0  0  0  0  0  0  0  0  0  0
   -2.3084   -7.7572    0.0000 C   0  0  0  0  0  0  0  0  0  0  0  0
    1.7985   -0.8908    0.0000 C   0  0  0  0  0  0  0  0  0  0  0  0
   -1.1752   -2.9808    0.0000 C   0  0  0  0  0  0  0  0  0  0  0  0
    0.0623   -2.2664    0.0000 C   0  0  0  0  0  0  0  0  0  0  0  0
    3.2197   -1.0402    0.0000 C   0  0  0  0  0  0  0  0  0  0  0  0
   -1.5877   -2.2664    0.0000 C   0  0  0  0  0  0  0  0  0  0  0  0
    2.5522   -0.5552    0.0000 C   0  0  0  0  0  0  0  0  0  0  0  0
   -0.3502   -1.5519    0.0000 C   0  0  0  0  0  0  0  0  0  0  0  0
   -1.1752   -1.5519    0.0000 C   0  0  0  0  0  0  0  0  0  0  0  0
   -2.4127   -2.2664    0.0000 C   0  0  0  0  0  0  0  0  0  0  0  0
  1 10  1  0  0  0  0
  1 15  1  0  0  0  0
  2  8  1  0  0  0  0
  2  9  1  0  0  0  0
  2 17  1  0  0  0  0
  3  4  1  0  0  0  0
  3  6  1  0  0  0  0
  3 20  1  0  0  0  0
  3 21  1  0  0  0  0
  4  5  2  0  0  0  0
  4 11  1  0  0  0  0
  5  7  1  0  0  0  0
  5 14  1  0  0  0  0
  6  7  2  0  0  0  0
  6 18  1  0  0  0  0
  7 19  1  0  0  0  0
  8 11  2  0  0  0  0
  8 16  1  0  0  0  0
  9 10  1  0  0  0  0
  9 22  2  0  0  0  0
 10 12  2  0  0  0  0
 12 13  1  0  0  0  0
 12 23  1  0  0  0  0
 13 15  2  0  0  0  0
 13 25  1  0  0  0  0
 14 16  2  0  0  0  0
 15 28  1  0  0  0  0
 17 29  1  0  0  0  0
 17 30  2  0  0  0  0
 18 26  2  0  0  0  0
 19 27  2  0  0  0  0
 22 24  1  0  0  0  0
 23 24  2  0  0  0  0
 25 31  2  0  0  0  0
 26 27  1  0  0  0  0
 28 33  2  0  0  0  0
 29 32  2  0  0  0  0
 30 34  1  0  0  0  0
 31 33  1  0  0  0  0
 32 35  1  0  0  0  0
 32 36  1  0  0  0  0
 34 35  2  0  0  0  0
M  END
> <PUBCHEM_COMPOUND_ID_TYPE>
0

> <PUBCHEM_TOTAL_CHARGE>
0

> <PUBCHEM_SUBSTANCE_ID>
310946154

> <PUBCHEM_SUBSTANCE_VERSION>
1

> <PUBCHEM_EXT_DATASOURCE_NAME>
4488

> <PUBCHEM_EXT_DATASOURCE_REGID>
SCHEMBL16124263

> <PUBCHEM_SUBSTANCE_COMMENT>
InChI=1S/C34H27NS/c1-22-10-8-11-23(20-22)35(31-16-9-14-28-27-13-5-7-17-32(27)36-33(28)31)24-18-19-26-25-12-4-6-15-29(25)34(2,3)30(26)21-24/h4-21H,1-3H3
InChIKey=ODVALHQBEASWGI-UHFFFAOYSA-N

> <PUBCHEM_SUBSTANCE_SYNONYM>
SCHEMBL16124263

> <PUBCHEM_XREF_EXT_ID>
SCHEMBL16124263

> <PUBCHEM_EXT_DATASOURCE_URL>
https://www.surechembl.org/

> <PUBCHEM_EXT_SUBSTANCE_URL>
https://www.surechembl.org/chemical/SCHEMBL16124263

> <PUBCHEM_CID_ASSOCIATIONS>
117612111  1

> <PUBCHEM_COORDINATE_TYPE>
1
3

$$$$
