310931828
  -OEChem-07211613022D

 25 28  0     0  0  0  0  0  0999 V2000
    0.7551   -2.7487    0.0000 O   0  0  0  0  0  0  0  0  0  0  0  0
    2.2353    0.0000    0.0000 O   0  0  0  0  0  0  0  0  0  0  0  0
    2.2353   -2.5373    0.0000 N   0  0  0  0  0  0  0  0  0  0  0  0
    2.6279   -3.8059    0.0000 N   0  0  0  0  0  0  0  0  0  0  0  0
    3.6851   -2.7487    0.0000 N   0  0  0  0  0  0  0  0  0  0  0  0
    1.8123   -3.8059    0.0000 C   0  0  0  0  0  0  0  0  0  0  0  0
    1.5707   -3.0206    0.0000 C   0  0  0  0  0  0  0  0  0  0  0  0
    1.3291   -4.4704    0.0000 C   0  0  0  0  0  0  0  0  0  0  0  0
    2.1748   -4.5610    0.0000 C   0  0  0  0  0  0  0  0  0  0  0  0
    2.8997   -3.0206    0.0000 C   0  0  0  0  0  0  0  0  0  0  0  0
    2.2353   -1.6915    0.0000 C   0  0  0  0  0  0  0  0  0  0  0  0
    1.6613   -5.2558    0.0000 C   0  0  0  0  0  0  0  0  0  0  0  0
    3.0206   -4.5913    0.0000 C   0  0  0  0  0  0  0  0  0  0  0  0
    0.4833   -4.4100    0.0000 C   0  0  0  0  0  0  0  0  0  0  0  0
    1.9030   -5.4069    0.0000 C   0  0  0  0  0  0  0  0  0  0  0  0
    2.9300   -1.2687    0.0000 C   0  0  0  0  0  0  0  0  0  0  0  0
    1.5103   -1.2687    0.0000 C   0  0  0  0  0  0  0  0  0  0  0  0
    1.1780   -5.9203    0.0000 C   0  0  0  0  0  0  0  0  0  0  0  0
    3.3831   -5.3464    0.0000 C   0  0  0  0  0  0  0  0  0  0  0  0
    0.0000   -5.0746    0.0000 C   0  0  0  0  0  0  0  0  0  0  0  0
    2.1144   -5.9807    0.0000 C   0  0  0  0  0  0  0  0  0  0  0  0
    0.3322   -5.8297    0.0000 C   0  0  0  0  0  0  0  0  0  0  0  0
    2.9300   -6.0412    0.0000 C   0  0  0  0  0  0  0  0  0  0  0  0
    2.9300   -0.4531    0.0000 C   0  0  0  0  0  0  0  0  0  0  0  0
    1.5103   -0.4531    0.0000 C   0  0  0  0  0  0  0  0  0  0  0  0
  1  7  2  0  0  0  0
  2 24  1  0  0  0  0
  2 25  1  0  0  0  0
  3  7  1  0  0  0  0
  3 10  1  0  0  0  0
  3 11  1  0  0  0  0
  4  6  1  0  0  0  0
  4 10  1  0  0  0  0
  5 10  2  3  0  0  0
  6  7  1  0  0  0  0
  6  8  1  0  0  0  0
  6  9  1  0  0  0  0
  8 12  2  0  0  0  0
  8 14  1  0  0  0  0
  9 13  2  0  0  0  0
  9 15  1  0  0  0  0
 11 16  1  0  0  0  0
 11 17  1  0  0  0  0
 12 18  1  0  0  0  0
 13 19  1  0  0  0  0
 14 20  2  0  0  0  0
 15 21  2  0  0  0  0
 16 24  1  0  0  0  0
 17 25  1  0  0  0  0
 18 22  2  0  0  0  0
 19 23  2  0  0  0  0
 20 22  1  0  0  0  0
 21 23  1  0  0  0  0
M  END
> <PUBCHEM_COMPOUND_ID_TYPE>
0

> <PUBCHEM_TOTAL_CHARGE>
0

> <PUBCHEM_SUBSTANCE_ID>
310931828

> <PUBCHEM_SUBSTANCE_VERSION>
1

> <PUBCHEM_EXT_DATASOURCE_NAME>
4488

> <PUBCHEM_EXT_DATASOURCE_REGID>
SCHEMBL16109161

> <PUBCHEM_SUBSTANCE_COMMENT>
InChI=1S/C20H21N3O2/c21-19-22-20(15-7-3-1-4-8-15,16-9-5-2-6-10-16)18(24)23(19)17-11-13-25-14-12-17/h1-10,17H,11-14H2,(H2,21,22)
InChIKey=GRHMPGRRMZZEBS-UHFFFAOYSA-N

> <PUBCHEM_SUBSTANCE_SYNONYM>
SCHEMBL16109161

> <PUBCHEM_XREF_EXT_ID>
SCHEMBL16109161

> <PUBCHEM_EXT_DATASOURCE_URL>
https://www.surechembl.org/

> <PUBCHEM_EXT_SUBSTANCE_URL>
https://www.surechembl.org/chemical/SCHEMBL16109161

> <PUBCHEM_CID_ASSOCIATIONS>
117600501  1

> <PUBCHEM_COORDINATE_TYPE>
1
3

$$$$
