310948841
  -OEChem-07211613022D

 33 36  0     1  0  0  0  0  0999 V2000
   -3.7402    0.2269    0.0000 O   0  0  0  0  0  0  0  0  0  0  0  0
   -2.5164   -0.4056    0.0000 O   0  0  0  0  0  0  0  0  0  0  0  0
    3.2040    2.6057    0.0000 O   0  0  0  0  0  0  0  0  0  0  0  0
    0.3300    2.6746    0.0000 O   0  0  0  0  0  0  0  0  0  0  0  0
    1.0313   -0.2132    0.0000 N   0  0  3  0  0  0  0  0  0  0  0  0
    1.0313    1.4507    0.0000 N   0  0  0  0  0  0  0  0  0  0  0  0
    1.7326    2.6882    0.0000 N   0  0  0  0  0  0  0  0  0  0  0  0
    3.7402    2.0007    0.0000 N   0  0  0  0  0  0  0  0  0  0  0  0
   -1.8564    1.4507    0.0000 C   0  0  3  0  0  0  0  0  0  0  0  0
   -2.5164    1.0519    0.0000 C   0  0  3  0  0  0  0  0  0  0  0  0
   -1.0726    1.0107    0.0000 C   0  0  0  0  0  0  0  0  0  0  0  0
   -2.5164    1.8357    0.0000 C   0  0  0  0  0  0  0  0  0  0  0  0
    0.3026    0.2132    0.0000 C   0  0  0  0  0  0  0  0  0  0  0  0
    0.3162    1.0382    0.0000 C   0  0  0  0  0  0  0  0  0  0  0  0
   -0.3987    1.4370    0.0000 C   0  0  0  0  0  0  0  0  0  0  0  0
   -1.1000    0.2132    0.0000 C   0  0  0  0  0  0  0  0  0  0  0  0
   -2.9427    0.2819    0.0000 C   0  0  0  0  0  0  0  0  0  0  0  0
   -0.3851   -0.1994    0.0000 C   0  0  0  0  0  0  0  0  0  0  0  0
    1.0175   -1.0382    0.0000 C   0  0  0  0  0  0  0  0  0  0  0  0
    1.7188    0.1994    0.0000 C   0  0  0  0  0  0  0  0  0  0  0  0
    1.0451    2.2620    0.0000 C   0  0  0  0  0  0  0  0  0  0  0  0
    0.3162   -1.4507    0.0000 C   0  0  0  0  0  0  0  0  0  0  0  0
    1.7326   -1.4507    0.0000 C   0  0  0  0  0  0  0  0  0  0  0  0
    2.4339    2.2757    0.0000 C   0  0  0  0  0  0  0  0  0  0  0  0
    2.4476   -0.1994    0.0000 C   0  0  0  0  0  0  0  0  0  0  0  0
    2.5301    1.4507    0.0000 C   0  0  0  0  0  0  0  0  0  0  0  0
    0.3162   -2.2757    0.0000 C   0  0  0  0  0  0  0  0  0  0  0  0
    1.7326   -2.2757    0.0000 C   0  0  0  0  0  0  0  0  0  0  0  0
    3.3277    1.2720    0.0000 C   0  0  0  0  0  0  0  0  0  0  0  0
    1.0313   -2.6882    0.0000 C   0  0  0  0  0  0  0  0  0  0  0  0
    3.1764    0.2132    0.0000 C   0  0  0  0  0  0  0  0  0  0  0  0
    2.4614   -1.0519    0.0000 C   0  0  0  0  0  0  0  0  0  0  0  0
    3.6852    0.5019    0.0000 C   0  0  0  0  0  0  0  0  0  0  0  0
  1 17  2  0  0  0  0
  2 17  1  0  0  0  0
  3  8  1  0  0  0  0
  3 24  1  0  0  0  0
  4 21  2  0  0  0  0
  5 13  1  0  0  0  0
  5 19  1  0  0  0  0
  5 20  1  0  0  0  0
  6 14  1  0  0  0  0
  6 21  1  0  0  0  0
  7 21  1  0  0  0  0
  7 24  1  0  0  0  0
  8 29  2  0  0  0  0
  9 10  1  0  0  0  0
  9 11  1  0  0  0  0
  9 12  1  1  0  0  0
 10 12  1  0  0  0  0
 10 17  1  1  0  0  0
 11 15  1  0  0  0  0
 11 16  2  0  0  0  0
 13 14  1  0  0  0  0
 13 18  2  0  0  0  0
 14 15  2  0  0  0  0
 16 18  1  0  0  0  0
 19 22  1  0  0  0  0
 19 23  1  0  0  0  0
 20 25  1  0  0  0  0
 22 27  1  0  0  0  0
 23 28  1  0  0  0  0
 24 26  2  0  0  0  0
 25 31  1  0  0  0  0
 25 32  1  0  0  0  0
 26 29  1  0  0  0  0
 27 30  1  0  0  0  0
 28 30  1  0  0  0  0
 29 33  1  0  0  0  0
M  END
> <PUBCHEM_COMPOUND_ID_TYPE>
0

> <PUBCHEM_TOTAL_CHARGE>
0

> <PUBCHEM_SUBSTANCE_ID>
310948841

> <PUBCHEM_SUBSTANCE_VERSION>
1

> <PUBCHEM_EXT_DATASOURCE_NAME>
4488

> <PUBCHEM_EXT_DATASOURCE_REGID>
SCHEMBL16127025

> <PUBCHEM_SUBSTANCE_COMMENT>
InChI=1S/C25H34N4O4/c1-15(2)14-29(18-7-5-4-6-8-18)22-10-9-17(19-13-20(19)24(30)31)12-21(22)26-25(32)27-23-11-16(3)28-33-23/h9-12,15,18-20H,4-8,13-14H2,1-3H3,(H,30,31)(H2,26,27,32)/t19-,20-/m0/s1
InChIKey=JFOVWQVFKHJGRN-PMACEKPBSA-N

> <PUBCHEM_SUBSTANCE_SYNONYM>
SCHEMBL16127025

> <PUBCHEM_XREF_EXT_ID>
SCHEMBL16127025

> <PUBCHEM_EXT_DATASOURCE_URL>
https://www.surechembl.org/

> <PUBCHEM_EXT_SUBSTANCE_URL>
https://www.surechembl.org/chemical/SCHEMBL16127025

> <PUBCHEM_CID_ASSOCIATIONS>
117614378  1

> <PUBCHEM_COORDINATE_TYPE>
1
3

> <PUBCHEM_BONDANNOTATIONS>
10  17  5
9  12  5

$$$$
