310942818
  -OEChem-07211613022D

 84 89  0     1  0  0  0  0  0999 V2000
    3.8555   -1.4509    0.0000 S   0  0  0  0  0  0  0  0  0  0  0  0
    8.8439   -2.3638    0.0000 F   0  0  0  0  0  0  0  0  0  0  0  0
   10.4578    0.5217    0.0000 F   0  0  0  0  0  0  0  0  0  0  0  0
    3.8229    1.1249    0.0000 F   0  0  0  0  0  0  0  0  0  0  0  0
    7.4094    0.6847    0.0000 O   0  0  0  0  0  0  0  0  0  0  0  0
    3.0730   -1.2390    0.0000 O   0  0  0  0  0  0  0  0  0  0  0  0
    3.6598   -2.2497    0.0000 O   0  0  0  0  0  0  0  0  0  0  0  0
    7.3767    2.3475    0.0000 O   0  0  0  0  0  0  0  0  0  0  0  0
    3.1545    3.0485    0.0000 O   0  0  0  0  0  0  0  0  0  0  0  0
    3.8555    4.2875    0.0000 O   0  0  0  0  0  0  0  0  0  0  0  0
   -1.1493    3.0485    0.0000 O   0  0  0  0  0  0  0  0  0  0  0  0
   -3.3012    0.9781    0.0000 O   0  0  0  0  0  0  0  0  0  0  0  0
  -10.4742    0.7662    0.0000 O   0  0  0  0  0  0  0  0  0  0  0  0
   -7.5723    0.7662    0.0000 O   0  0  0  0  0  0  0  0  0  0  0  0
   -5.4368    3.0485    0.0000 O   0  0  0  0  0  0  0  0  0  0  0  0
   -4.0185    0.5706    0.0000 O   0  0  0  0  0  0  0  0  0  0  0  0
    6.7246   -1.3857    0.0000 N   0  0  0  0  0  0  0  0  0  0  0  0
    5.9748    0.6684    0.0000 N   0  0  0  0  0  0  0  0  0  0  0  0
    7.4909   -0.2935    0.0000 N   0  0  0  0  0  0  0  0  0  0  0  0
    4.5728    3.0485    0.0000 N   0  0  0  0  0  0  0  0  0  0  0  0
   -9.0233    0.9944    0.0000 N   0  0  0  0  0  0  0  0  0  0  0  0
   -0.4320    1.8095    0.0000 N   0  0  0  0  0  0  0  0  0  0  0  0
   -2.5839    2.2334    0.0000 N   0  0  0  0  0  0  0  0  0  0  0  0
   -4.7358    1.8095    0.0000 N   0  0  0  0  0  0  0  0  0  0  0  0
   -3.3012   -0.6684    0.0000 N   0  0  0  0  0  0  0  0  0  0  0  0
   -4.7358   -0.6684    0.0000 N   0  0  0  0  0  0  0  0  0  0  0  0
    6.7246   -0.5543    0.0000 C   0  0  0  0  0  0  0  0  0  0  0  0
    5.9910   -0.1631    0.0000 C   0  0  3  0  0  0  0  0  0  0  0  0
    7.9962   -0.9456    0.0000 C   0  0  0  0  0  0  0  0  0  0  0  0
    5.2900   -0.5869    0.0000 C   0  0  0  0  0  0  0  0  0  0  0  0
    7.5235   -1.6302    0.0000 C   0  0  0  0  0  0  0  0  0  0  0  0
    8.8276   -0.9292    0.0000 C   0  0  0  0  0  0  0  0  0  0  0  0
    6.6594    1.1085    0.0000 C   0  0  0  0  0  0  0  0  0  0  0  0
    6.0237   -1.8095    0.0000 C   0  0  0  0  0  0  0  0  0  0  0  0
    9.2515   -1.6302    0.0000 C   0  0  0  0  0  0  0  0  0  0  0  0
    5.2900   -1.4183    0.0000 C   0  0  0  0  0  0  0  0  0  0  0  0
    4.5564   -0.1956    0.0000 C   0  0  0  0  0  0  0  0  0  0  0  0
    5.2575    1.0760    0.0000 C   0  0  0  0  0  0  0  0  0  0  0  0
    9.2352   -0.2282    0.0000 C   0  0  0  0  0  0  0  0  0  0  0  0
    6.0237   -2.6410    0.0000 C   0  0  0  0  0  0  0  0  0  0  0  0
    4.6054   -1.8422    0.0000 C   0  0  0  0  0  0  0  0  0  0  0  0
    3.8555   -0.6032    0.0000 C   0  0  0  0  0  0  0  0  0  0  0  0
    6.6757    1.9563    0.0000 C   0  0  3  0  0  0  0  0  0  0  0  0
   10.0340   -0.1956    0.0000 C   0  0  0  0  0  0  0  0  0  0  0  0
   10.0829   -1.6139    0.0000 C   0  0  0  0  0  0  0  0  0  0  0  0
   10.4742   -0.8966    0.0000 C   0  0  0  0  0  0  0  0  0  0  0  0
    5.2737    1.9074    0.0000 C   0  0  0  0  0  0  0  0  0  0  0  0
    6.7573   -3.0485    0.0000 C   0  0  0  0  0  0  0  0  0  0  0  0
    5.3389   -3.0648    0.0000 C   0  0  0  0  0  0  0  0  0  0  0  0
    4.5564    2.3475    0.0000 C   0  0  3  0  0  0  0  0  0  0  0  0
    5.9585    2.3312    0.0000 C   0  0  0  0  0  0  0  0  0  0  0  0
    6.7573   -3.8799    0.0000 C   0  0  0  0  0  0  0  0  0  0  0  0
    5.3553   -3.8962    0.0000 C   0  0  0  0  0  0  0  0  0  0  0  0
    6.0563   -4.2875    0.0000 C   0  0  0  0  0  0  0  0  0  0  0  0
    3.8555    1.9563    0.0000 C   0  0  0  0  0  0  0  0  0  0  0  0
    3.8555    3.4560    0.0000 C   0  0  0  0  0  0  0  0  0  0  0  0
    2.4046    3.4560    0.0000 C   0  0  0  0  0  0  0  0  0  0  0  0
    1.7199    3.0648    0.0000 C   0  0  0  0  0  0  0  0  0  0  0  0
    0.2853    2.2334    0.0000 C   0  0  0  0  0  0  0  0  0  0  0  0
   -1.8503    1.8258    0.0000 C   0  0  3  0  0  0  0  0  0  0  0  0
   -1.1656    2.2171    0.0000 C   0  0  0  0  0  0  0  0  0  0  0  0
   -4.0185    2.2334    0.0000 C   0  0  3  0  0  0  0  0  0  0  0  0
   -3.3012    1.8422    0.0000 C   0  0  0  0  0  0  0  0  0  0  0  0
    1.7036    2.2334    0.0000 C   0  0  0  0  0  0  0  0  0  0  0  0
    0.9700    3.4560    0.0000 C   0  0  0  0  0  0  0  0  0  0  0  0
   -9.6753    0.5053    0.0000 C   0  0  0  0  0  0  0  0  0  0  0  0
   -8.3712    0.5053    0.0000 C   0  0  0  0  0  0  0  0  0  0  0  0
    1.0026    1.8258    0.0000 C   0  0  0  0  0  0  0  0  0  0  0  0
    0.3016    3.0648    0.0000 C   0  0  0  0  0  0  0  0  0  0  0  0
   -9.4308   -0.2608    0.0000 C   0  0  0  0  0  0  0  0  0  0  0  0
   -8.6157   -0.2772    0.0000 C   0  0  0  0  0  0  0  0  0  0  0  0
   -4.0185    3.0811    0.0000 C   0  0  0  0  0  0  0  0  0  0  0  0
   -9.0233    1.8422    0.0000 C   0  0  0  0  0  0  0  0  0  0  0  0
   -1.8503    0.9781    0.0000 C   0  0  0  0  0  0  0  0  0  0  0  0
   -5.4531    2.2171    0.0000 C   0  0  0  0  0  0  0  0  0  0  0  0
   -8.3223    2.2334    0.0000 C   0  0  0  0  0  0  0  0  0  0  0  0
   -2.5676    0.5869    0.0000 C   0  0  0  0  0  0  0  0  0  0  0  0
   -6.1378    1.8258    0.0000 C   0  0  0  0  0  0  0  0  0  0  0  0
   -4.7195    3.4887    0.0000 C   0  0  0  0  0  0  0  0  0  0  0  0
   -3.2849    3.4887    0.0000 C   0  0  0  0  0  0  0  0  0  0  0  0
   -7.5723    1.8258    0.0000 C   0  0  0  0  0  0  0  0  0  0  0  0
   -6.8714    2.2334    0.0000 C   0  0  0  0  0  0  0  0  0  0  0  0
   -2.5839   -0.2608    0.0000 C   0  0  0  0  0  0  0  0  0  0  0  0
   -4.0185   -0.2608    0.0000 C   0  0  0  0  0  0  0  0  0  0  0  0
  1  6  2  0  0  0  0
  1  7  2  0  0  0  0
  1 41  1  0  0  0  0
  1 42  1  0  0  0  0
  2 35  1  0  0  0  0
  3 44  1  0  0  0  0
  4 55  1  0  0  0  0
  5 33  2  0  0  0  0
 43  8  1  6  0  0  0
  9 56  1  0  0  0  0
  9 57  1  0  0  0  0
 10 56  2  0  0  0  0
 11 61  2  0  0  0  0
 12 63  2  0  0  0  0
 13 66  2  0  0  0  0
 14 67  2  0  0  0  0
 15 75  2  0  0  0  0
 16 84  2  0  0  0  0
 17 27  1  0  0  0  0
 17 31  1  0  0  0  0
 17 34  1  0  0  0  0
 28 18  1  6  0  0  0
 18 33  1  0  0  0  0
 18 38  1  0  0  0  0
 19 27  2  0  0  0  0
 19 29  1  0  0  0  0
 50 20  1  1  0  0  0
 20 56  1  0  0  0  0
 21 66  1  0  0  0  0
 21 67  1  0  0  0  0
 21 73  1  0  0  0  0
 22 59  1  0  0  0  0
 22 61  1  0  0  0  0
 60 23  1  6  0  0  0
 23 63  1  0  0  0  0
 62 24  1  1  0  0  0
 24 75  1  0  0  0  0
 25 83  1  0  0  0  0
 25 84  1  0  0  0  0
 26 84  1  0  0  0  0
 27 28  1  0  0  0  0
 28 30  1  0  0  0  0
 29 31  2  0  0  0  0
 29 32  1  0  0  0  0
 30 36  1  0  0  0  0
 30 37  1  0  0  0  0
 32 35  1  0  0  0  0
 32 39  2  0  0  0  0
 33 43  1  0  0  0  0
 34 40  1  0  0  0  0
 35 45  2  0  0  0  0
 36 41  1  0  0  0  0
 37 42  1  0  0  0  0
 38 47  1  0  0  0  0
 39 44  1  0  0  0  0
 40 48  2  0  0  0  0
 40 49  1  0  0  0  0
 43 51  1  0  0  0  0
 44 46  2  0  0  0  0
 45 46  1  0  0  0  0
 47 50  1  0  0  0  0
 48 52  1  0  0  0  0
 49 53  2  0  0  0  0
 50 55  1  0  0  0  0
 52 54  2  0  0  0  0
 53 54  1  0  0  0  0
 57 58  1  0  0  0  0
 58 64  2  0  0  0  0
 58 65  1  0  0  0  0
 59 68  2  0  0  0  0
 59 69  1  0  0  0  0
 60 61  1  0  0  0  0
 60 74  1  0  0  0  0
 62 63  1  0  0  0  0
 62 72  1  0  0  0  0
 64 68  1  0  0  0  0
 65 69  2  0  0  0  0
 66 70  1  0  0  0  0
 67 71  1  0  0  0  0
 70 71  2  0  0  0  0
 72 79  1  0  0  0  0
 72 80  1  0  0  0  0
 73 76  1  0  0  0  0
 74 77  1  0  0  0  0
 75 78  1  0  0  0  0
 76 81  1  0  0  0  0
 77 83  1  0  0  0  0
 78 82  1  0  0  0  0
 81 82  1  0  0  0  0
M  END
> <PUBCHEM_COMPOUND_ID_TYPE>
0

> <PUBCHEM_TOTAL_CHARGE>
0

> <PUBCHEM_SUBSTANCE_ID>
310942818

> <PUBCHEM_SUBSTANCE_VERSION>
1

> <PUBCHEM_EXT_DATASOURCE_NAME>
4488

> <PUBCHEM_EXT_DATASOURCE_REGID>
SCHEMBL16120872

> <PUBCHEM_SUBSTANCE_COMMENT>
InChI=1S/C58H73F3N10O12S/c1-36(2)51(68-48(73)14-8-5-9-27-70-49(74)21-22-50(70)75)55(77)67-46(13-10-26-63-57(62)79)54(76)64-42-18-15-39(16-19-42)35-83-58(80)65-43(32-59)23-28-71(56(78)37(3)72)52(40-24-29-84(81,82)30-25-40)53-66-47(44-31-41(60)17-20-45(44)61)34-69(53)33-38-11-6-4-7-12-38/h4,6-7,11-12,15-22,31,34,36-37,40,43,46,51-52,72H,5,8-10,13-14,23-30,32-33,35H2,1-3H3,(H,64,76)(H,65,80)(H,67,77)(H,68,73)(H3,62,63,79)/t37-,43-,46-,51-,52-/m0/s1
InChIKey=UUSYYBZNWQMODM-BOPQWUMLSA-N

> <PUBCHEM_SUBSTANCE_SYNONYM>
SCHEMBL16120872

> <PUBCHEM_XREF_EXT_ID>
SCHEMBL16120872

> <PUBCHEM_EXT_DATASOURCE_URL>
https://www.surechembl.org/

> <PUBCHEM_EXT_SUBSTANCE_URL>
https://www.surechembl.org/chemical/SCHEMBL16120872

> <PUBCHEM_CID_ASSOCIATIONS>
117609321  1

> <PUBCHEM_COORDINATE_TYPE>
1
3

> <PUBCHEM_BONDANNOTATIONS>
28  18  6
50  20  5
60  23  6
62  24  5
43  8  6

$$$$
