310946169
  -OEChem-07211613022D

 23 24  0     1  0  0  0  0  0999 V2000
   -0.7892    6.2013    0.0000 O   0  0  0  0  0  0  0  0  0  0  0  0
   -2.2181    6.2013    0.0000 O   0  0  0  0  0  0  0  0  0  0  0  0
   -0.0747    6.6138    0.0000 O   0  0  0  0  0  0  0  0  0  0  0  0
   -1.5036    7.4388    0.0000 N   0  0  0  0  0  0  0  0  0  0  0  0
    0.6398    7.8513    0.0000 N   0  0  0  0  0  0  0  0  0  0  0  0
   -0.7892    7.8513    0.0000 C   0  0  3  0  0  0  0  0  0  0  0  0
   -1.5036    6.6138    0.0000 C   0  0  0  0  0  0  0  0  0  0  0  0
   -2.2181    8.6763    0.0000 C   0  0  3  0  0  0  0  0  0  0  0  0
   -2.2181    7.8513    0.0000 C   0  0  0  0  0  0  0  0  0  0  0  0
   -0.7892    8.6763    0.0000 C   0  0  0  0  0  0  0  0  0  0  0  0
   -0.0747    7.4388    0.0000 C   0  0  0  0  0  0  0  0  0  0  0  0
   -1.5036    9.0888    0.0000 C   0  0  0  0  0  0  0  0  0  0  0  0
   -0.7892    5.3763    0.0000 C   0  0  0  0  0  0  0  0  0  0  0  0
   -2.9326    9.0888    0.0000 C   0  0  0  0  0  0  0  0  0  0  0  0
   -2.9326    9.9138    0.0000 C   0  0  0  0  0  0  0  0  0  0  0  0
   -2.2181   10.3263    0.0000 C   0  0  0  0  0  0  0  0  0  0  0  0
   -3.6471   10.3263    0.0000 C   0  0  0  0  0  0  0  0  0  0  0  0
   -0.0747    4.9638    0.0000 C   0  0  0  0  0  0  0  0  0  0  0  0
   -1.5036    4.9638    0.0000 C   0  0  0  0  0  0  0  0  0  0  0  0
   -1.5036    5.7888    0.0000 C   0  0  0  0  0  0  0  0  0  0  0  0
   -2.2181   11.1513    0.0000 C   0  0  0  0  0  0  0  0  0  0  0  0
   -3.6471   11.1513    0.0000 C   0  0  0  0  0  0  0  0  0  0  0  0
   -2.9326   11.5638    0.0000 C   0  0  0  0  0  0  0  0  0  0  0  0
  1  7  1  0  0  0  0
  1 13  1  0  0  0  0
  2  7  2  0  0  0  0
  3 11  2  0  0  0  0
  4  6  1  0  0  0  0
  4  7  1  0  0  0  0
  4  9  1  0  0  0  0
  5 11  1  0  0  0  0
  6 10  1  0  0  0  0
  6 11  1  1  0  0  0
  8  9  1  0  0  0  0
  8 12  1  0  0  0  0
  8 14  1  0  0  0  0
 10 12  1  0  0  0  0
 13 18  1  0  0  0  0
 13 19  1  0  0  0  0
 13 20  1  0  0  0  0
 14 15  1  0  0  0  0
 15 16  2  0  0  0  0
 15 17  1  0  0  0  0
 16 21  1  0  0  0  0
 17 22  2  0  0  0  0
 21 23  2  0  0  0  0
 22 23  1  0  0  0  0
M  END
> <PUBCHEM_COMPOUND_ID_TYPE>
0

> <PUBCHEM_TOTAL_CHARGE>
0

> <PUBCHEM_SUBSTANCE_ID>
310946169

> <PUBCHEM_SUBSTANCE_VERSION>
1

> <PUBCHEM_EXT_DATASOURCE_NAME>
4488

> <PUBCHEM_EXT_DATASOURCE_REGID>
SCHEMBL16124278

> <PUBCHEM_SUBSTANCE_COMMENT>
InChI=1S/C18H26N2O3/c1-18(2,3)23-17(22)20-12-14(9-10-15(20)16(19)21)11-13-7-5-4-6-8-13/h4-8,14-15H,9-12H2,1-3H3,(H2,19,21)/t14?,15-/m0/s1
InChIKey=VZATWYOZANRMJW-LOACHALJSA-N

> <PUBCHEM_SUBSTANCE_SYNONYM>
SCHEMBL16124278

> <PUBCHEM_XREF_EXT_ID>
SCHEMBL16124278

> <PUBCHEM_EXT_DATASOURCE_URL>
https://www.surechembl.org/

> <PUBCHEM_EXT_SUBSTANCE_URL>
https://www.surechembl.org/chemical/SCHEMBL16124278

> <PUBCHEM_CID_ASSOCIATIONS>
117612126  1

> <PUBCHEM_COORDINATE_TYPE>
1
3

> <PUBCHEM_BONDANNOTATIONS>
6  11  5

$$$$
