310938331
  -OEChem-07211613022D

 34 37  0     1  0  0  0  0  0999 V2000
    0.0768   -2.3215    0.0000 O   0  0  0  0  0  0  0  0  0  0  0  0
   -0.5837   -1.4124    0.0000 O   0  0  0  0  0  0  0  0  0  0  0  0
    2.5534   -2.6456    0.0000 O   0  0  0  0  0  0  0  0  0  0  0  0
    5.4409   -3.3601    0.0000 O   0  0  0  0  0  0  0  0  0  0  0  0
    5.4409   -1.9312    0.0000 O   0  0  0  0  0  0  0  0  0  0  0  0
    1.1387   -1.3654    0.0000 N   0  0  0  0  0  0  0  0  0  0  0  0
   -0.5837    0.0165    0.0000 N   0  0  0  0  0  0  0  0  0  0  0  0
    1.1809   -3.5477    0.0000 N   0  0  0  0  0  0  0  0  0  0  0  0
   -1.4856    1.4847    0.0000 N   0  0  0  0  0  0  0  0  0  0  0  0
   -2.6417    0.8172    0.0000 N   0  0  0  0  0  0  0  0  0  0  0  0
   -2.0987    2.0367    0.0000 N   0  0  0  0  0  0  0  0  0  0  0  0
   -2.8132    1.6242    0.0000 N   0  0  0  0  0  0  0  0  0  0  0  0
    4.2034   -2.6456    0.0000 N   0  0  0  0  0  0  0  0  0  0  0  0
    1.9233   -1.1104    0.0000 C   0  0  0  0  0  0  0  0  0  0  0  0
    0.6538   -0.6979    0.0000 C   0  0  3  0  0  0  0  0  0  0  0  0
    1.9233   -0.2854    0.0000 C   0  0  0  0  0  0  0  0  0  0  0  0
    1.1387   -0.0305    0.0000 C   0  0  0  0  0  0  0  0  0  0  0  0
    0.8838   -2.1500    0.0000 C   0  0  0  0  0  0  0  0  0  0  0  0
   -0.1712   -0.6979    0.0000 C   0  0  0  0  0  0  0  0  0  0  0  0
    2.6378   -1.5229    0.0000 C   0  0  0  0  0  0  0  0  0  0  0  0
    2.6378    0.1271    0.0000 C   0  0  0  0  0  0  0  0  0  0  0  0
    1.4358   -2.7631    0.0000 C   0  0  0  0  0  0  0  0  0  0  0  0
    3.3523   -1.1104    0.0000 C   0  0  0  0  0  0  0  0  0  0  0  0
    3.3523   -0.2854    0.0000 C   0  0  0  0  0  0  0  0  0  0  0  0
    1.7329   -4.1608    0.0000 C   0  0  3  0  0  0  0  0  0  0  0  0
    2.5534   -4.0746    0.0000 C   0  0  3  0  0  0  0  0  0  0  0  0
    2.9659   -3.3601    0.0000 C   0  0  0  0  0  0  0  0  0  0  0  0
   -1.4087    0.0165    0.0000 C   0  0  0  0  0  0  0  0  0  0  0  0
    1.5614   -4.9678    0.0000 C   0  0  0  0  0  0  0  0  0  0  0  0
    2.8889   -4.8283    0.0000 C   0  0  0  0  0  0  0  0  0  0  0  0
   -1.8212    0.7310    0.0000 C   0  0  0  0  0  0  0  0  0  0  0  0
    2.2759   -5.3803    0.0000 C   0  0  0  0  0  0  0  0  0  0  0  0
    3.7909   -3.3601    0.0000 C   0  0  0  0  0  0  0  0  0  0  0  0
    5.0284   -2.6456    0.0000 C   0  0  0  0  0  0  0  0  0  0  0  0
  1 18  2  0  0  0  0
  2 19  2  0  0  0  0
  3 27  2  0  0  0  0
  4 34  2  0  0  0  0
  5 34  1  0  0  0  0
  6 14  1  0  0  0  0
  6 15  1  0  0  0  0
  6 18  1  0  0  0  0
  7 19  1  0  0  0  0
  7 28  1  0  0  0  0
  8 22  1  0  0  0  0
  8 25  1  0  0  0  0
  9 11  2  0  0  0  0
  9 31  1  0  0  0  0
 10 12  1  0  0  0  0
 10 31  2  0  0  0  0
 11 12  1  0  0  0  0
 13 33  1  0  0  0  0
 13 34  1  0  0  0  0
 14 16  1  0  0  0  0
 14 20  2  0  0  0  0
 15 17  1  0  0  0  0
 15 19  1  6  0  0  0
 16 17  1  0  0  0  0
 16 21  2  0  0  0  0
 18 22  1  0  0  0  0
 20 23  1  0  0  0  0
 21 24  1  0  0  0  0
 23 24  2  0  0  0  0
 25 26  1  0  0  0  0
 25 29  1  0  0  0  0
 26 27  1  0  0  0  0
 26 30  1  0  0  0  0
 27 33  1  0  0  0  0
 28 31  1  0  0  0  0
 29 32  1  0  0  0  0
 30 32  1  0  0  0  0
M  END
> <PUBCHEM_COMPOUND_ID_TYPE>
0

> <PUBCHEM_TOTAL_CHARGE>
0

> <PUBCHEM_SUBSTANCE_ID>
310938331

> <PUBCHEM_SUBSTANCE_VERSION>
1

> <PUBCHEM_EXT_DATASOURCE_NAME>
4488

> <PUBCHEM_EXT_DATASOURCE_REGID>
SCHEMBL16116212

> <PUBCHEM_SUBSTANCE_COMMENT>
InChI=1S/C21H26N8O5/c30-17(9-24-21(33)34)13-5-3-6-14(13)22-11-19(31)29-15-7-2-1-4-12(15)8-16(29)20(32)23-10-18-25-27-28-26-18/h1-2,4,7,13-14,16,22,24H,3,5-6,8-11H2,(H,23,32)(H,33,34)(H,25,26,27,28)/t13?,14?,16-/m0/s1
InChIKey=OLXKMPMVEZSGJG-XUJLQICISA-N

> <PUBCHEM_SUBSTANCE_SYNONYM>
SCHEMBL16116212

> <PUBCHEM_XREF_EXT_ID>
SCHEMBL16116212

> <PUBCHEM_EXT_DATASOURCE_URL>
https://www.surechembl.org/

> <PUBCHEM_EXT_SUBSTANCE_URL>
https://www.surechembl.org/chemical/SCHEMBL16116212

> <PUBCHEM_CID_ASSOCIATIONS>
117605821  1

> <PUBCHEM_COORDINATE_TYPE>
1
3

> <PUBCHEM_BONDANNOTATIONS>
15  19  6

$$$$
