310932850
  -OEChem-07211613022D

 29 31  0     0  0  0  0  0  0999 V2000
    4.0592   -2.5924    0.0000 O   0  0  0  0  0  0  0  0  0  0  0  0
    8.5617   -2.6606    0.0000 O   0  0  0  0  0  0  0  0  0  0  0  0
    9.3122   -6.4128    0.0000 O   0  0  0  0  0  0  0  0  0  0  0  0
    4.9460   -1.4326    0.0000 N   0  0  0  0  0  0  0  0  0  0  0  0
    4.8778   -0.5799    0.0000 N   0  0  0  0  0  0  0  0  0  0  0  0
    6.4128   -1.4326    0.0000 N   0  0  0  0  0  0  0  0  0  0  0  0
    7.8455   -3.9227    0.0000 N   0  0  0  0  0  0  0  0  0  0  0  0
    0.0000   -2.2854    0.0000 N   0  0  0  0  0  0  0  0  0  0  0  0
    3.6499   -1.1598    0.0000 C   0  0  0  0  0  0  0  0  0  0  0  0
    4.1956   -1.7738    0.0000 C   0  0  0  0  0  0  0  0  0  0  0  0
    5.6965   -1.8419    0.0000 C   0  0  0  0  0  0  0  0  0  0  0  0
    2.7971   -1.2621    0.0000 C   0  0  0  0  0  0  0  0  0  0  0  0
    4.0592   -0.4434    0.0000 C   0  0  0  0  0  0  0  0  0  0  0  0
    2.3195   -0.5799    0.0000 C   0  0  0  0  0  0  0  0  0  0  0  0
    5.6965   -2.6606    0.0000 C   0  0  0  0  0  0  0  0  0  0  0  0
    2.4901   -2.0125    0.0000 C   0  0  0  0  0  0  0  0  0  0  0  0
    1.5009   -0.6822    0.0000 C   0  0  0  0  0  0  0  0  0  0  0  0
    7.1291   -2.6606    0.0000 C   0  0  0  0  0  0  0  0  0  0  0  0
    1.1598   -1.4326    0.0000 C   0  0  0  0  0  0  0  0  0  0  0  0
    7.1291   -1.8419    0.0000 C   0  0  0  0  0  0  0  0  0  0  0  0
    6.4128   -3.0699    0.0000 C   0  0  0  0  0  0  0  0  0  0  0  0
    1.6373   -2.1149    0.0000 C   0  0  0  0  0  0  0  0  0  0  0  0
    7.8455   -3.0699    0.0000 C   0  0  0  0  0  0  0  0  0  0  0  0
    0.3411   -1.5350    0.0000 C   0  0  0  0  0  0  0  0  0  0  0  0
    0.9892    0.0000    0.0000 C   0  0  0  0  0  0  0  0  0  0  0  0
    8.5617   -4.3320    0.0000 C   0  0  0  0  0  0  0  0  0  0  0  0
    8.5959   -5.1507    0.0000 C   0  0  0  0  0  0  0  0  0  0  0  0
    9.2781   -5.5600    0.0000 C   0  0  0  0  0  0  0  0  0  0  0  0
   10.0285   -6.8221    0.0000 C   0  0  0  0  0  0  0  0  0  0  0  0
  1 10  1  0  0  0  0
  2 23  2  0  0  0  0
  3 28  1  0  0  0  0
  3 29  1  0  0  0  0
  4  5  1  0  0  0  0
  4 10  1  0  0  0  0
  4 11  1  0  0  0  0
  5 13  2  0  0  0  0
  6 11  2  0  0  0  0
  6 20  1  0  0  0  0
  7 23  1  0  0  0  0
  7 26  1  0  0  0  0
  8 24  3  0  0  0  0
  9 10  2  0  0  0  0
  9 12  1  0  0  0  0
  9 13  1  0  0  0  0
 11 15  1  0  0  0  0
 12 14  1  0  0  0  0
 12 16  2  0  0  0  0
 14 17  2  0  0  0  0
 15 21  2  0  0  0  0
 16 22  1  0  0  0  0
 17 19  1  0  0  0  0
 17 25  1  0  0  0  0
 18 20  2  0  0  0  0
 18 21  1  0  0  0  0
 18 23  1  0  0  0  0
 19 22  2  0  0  0  0
 19 24  1  0  0  0  0
 26 27  1  0  0  0  0
 27 28  1  0  0  0  0
M  END
> <PUBCHEM_COMPOUND_ID_TYPE>
0

> <PUBCHEM_TOTAL_CHARGE>
0

> <PUBCHEM_SUBSTANCE_ID>
310932850

> <PUBCHEM_SUBSTANCE_VERSION>
1

> <PUBCHEM_EXT_DATASOURCE_NAME>
4488

> <PUBCHEM_EXT_DATASOURCE_REGID>
SCHEMBL16110241

> <PUBCHEM_SUBSTANCE_COMMENT>
InChI=1S/C21H21N5O3/c1-14-10-15(4-5-16(14)11-22)18-13-25-26(21(18)28)19-7-6-17(12-24-19)20(27)23-8-3-9-29-2/h4-7,10,12-13,28H,3,8-9H2,1-2H3,(H,23,27)
InChIKey=LIGWQHFYKMADMQ-UHFFFAOYSA-N

> <PUBCHEM_SUBSTANCE_SYNONYM>
SCHEMBL16110241

> <PUBCHEM_XREF_EXT_ID>
SCHEMBL16110241

> <PUBCHEM_EXT_DATASOURCE_URL>
https://www.surechembl.org/

> <PUBCHEM_EXT_SUBSTANCE_URL>
https://www.surechembl.org/chemical/SCHEMBL16110241

> <PUBCHEM_CID_ASSOCIATIONS>
117601335  1

> <PUBCHEM_COORDINATE_TYPE>
1
3

$$$$
