310938638
  -OEChem-07211613022D

 34 38  0     0  0  0  0  0  0999 V2000
   -4.7718   -4.0433    0.0000 Cl  0  0  0  0  0  0  0  0  0  0  0  0
   -1.1994   -4.4558    0.0000 O   0  0  0  0  0  0  0  0  0  0  0  0
   -0.4850   -5.6933    0.0000 O   0  0  0  0  0  0  0  0  0  0  0  0
   -4.7718   -6.5183    0.0000 O   0  0  0  0  0  0  0  0  0  0  0  0
    0.2282   -1.9808    0.0000 N   0  0  0  0  0  0  0  0  0  0  0  0
   -0.4850   -3.2183    0.0000 N   0  0  0  0  0  0  0  0  0  0  0  0
    0.9440   -3.2183    0.0000 N   0  0  0  0  0  0  0  0  0  0  0  0
    0.9440   -5.6933    0.0000 N   0  0  0  0  0  0  0  0  0  0  0  0
    0.8957   -1.4959    0.0000 C   0  0  0  0  0  0  0  0  0  0  0  0
    1.4477   -2.1090    0.0000 C   0  0  0  0  0  0  0  0  0  0  0  0
    1.7026   -1.3244    0.0000 C   0  0  0  0  0  0  0  0  0  0  0  0
    0.2295   -2.8058    0.0000 C   0  0  0  0  0  0  0  0  0  0  0  0
    0.6407   -0.7113    0.0000 C   0  0  0  0  0  0  0  0  0  0  0  0
   -0.4392   -1.4959    0.0000 C   0  0  0  0  0  0  0  0  0  0  0  0
   -0.1843   -0.7113    0.0000 C   0  0  0  0  0  0  0  0  0  0  0  0
   -0.4850   -4.0433    0.0000 C   0  0  0  0  0  0  0  0  0  0  0  0
    0.2295   -4.4558    0.0000 C   0  0  0  0  0  0  0  0  0  0  0  0
    0.9440   -4.0433    0.0000 C   0  0  0  0  0  0  0  0  0  0  0  0
    0.2295   -5.2808    0.0000 C   0  0  0  0  0  0  0  0  0  0  0  0
   -1.9139   -4.0433    0.0000 C   0  0  0  0  0  0  0  0  0  0  0  0
   -2.6284   -4.4558    0.0000 C   0  0  0  0  0  0  0  0  0  0  0  0
    1.6584   -5.2808    0.0000 C   0  0  0  0  0  0  0  0  0  0  0  0
   -3.3429   -4.0433    0.0000 C   0  0  0  0  0  0  0  0  0  0  0  0
   -4.0573   -4.4558    0.0000 C   0  0  0  0  0  0  0  0  0  0  0  0
   -4.0573   -5.2808    0.0000 C   0  0  0  0  0  0  0  0  0  0  0  0
   -2.6284   -5.2808    0.0000 C   0  0  0  0  0  0  0  0  0  0  0  0
   -3.3429   -5.6933    0.0000 C   0  0  0  0  0  0  0  0  0  0  0  0
    2.3729   -5.6933    0.0000 C   0  0  0  0  0  0  0  0  0  0  0  0
    1.6584   -4.4558    0.0000 C   0  0  0  0  0  0  0  0  0  0  0  0
    3.0874   -5.2808    0.0000 C   0  0  0  0  0  0  0  0  0  0  0  0
    2.3729   -4.0433    0.0000 C   0  0  0  0  0  0  0  0  0  0  0  0
    3.0874   -4.4558    0.0000 C   0  0  0  0  0  0  0  0  0  0  0  0
   -4.7718   -5.6933    0.0000 C   0  0  0  0  0  0  0  0  0  0  0  0
    3.8019   -4.0433    0.0000 C   0  0  0  0  0  0  0  0  0  0  0  0
  1 24  1  0  0  0  0
  2 16  1  0  0  0  0
  2 20  1  0  0  0  0
  3 19  2  0  0  0  0
  4 33  1  0  0  0  0
  5  9  1  0  0  0  0
  5 12  1  0  0  0  0
  5 14  1  0  0  0  0
  6 12  1  0  0  0  0
  6 16  2  0  0  0  0
  7 12  2  0  0  0  0
  7 18  1  0  0  0  0
  8 19  1  0  0  0  0
 22  8  1  1  0  0  0
  9 10  1  0  0  0  0
  9 11  1  0  0  0  0
  9 13  1  0  0  0  0
 10 11  1  0  0  0  0
 13 15  1  0  0  0  0
 14 15  1  0  0  0  0
 16 17  1  0  0  0  0
 17 18  2  0  0  0  0
 17 19  1  0  0  0  0
 20 21  1  0  0  0  0
 21 23  2  0  0  0  0
 21 26  1  0  0  0  0
 22 28  1  0  0  0  0
 22 29  1  0  0  0  0
 23 24  1  0  0  0  0
 24 25  2  0  0  0  0
 25 27  1  0  0  0  0
 25 33  1  0  0  0  0
 26 27  2  0  0  0  0
 28 30  1  0  0  0  0
 29 31  1  0  0  0  0
 30 32  1  0  0  0  0
 31 32  1  0  0  0  0
 32 34  1  6  0  0  0
M  END
> <PUBCHEM_COMPOUND_ID_TYPE>
0

> <PUBCHEM_TOTAL_CHARGE>
0

> <PUBCHEM_SUBSTANCE_ID>
310938638

> <PUBCHEM_SUBSTANCE_VERSION>
1

> <PUBCHEM_EXT_DATASOURCE_NAME>
4488

> <PUBCHEM_EXT_DATASOURCE_REGID>
SCHEMBL16116552

> <PUBCHEM_SUBSTANCE_COMMENT>
InChI=1S/C26H33ClN4O3/c1-17-3-7-20(8-4-17)29-23(33)21-14-28-25(31-12-2-9-26(31)10-11-26)30-24(21)34-16-18-5-6-19(15-32)22(27)13-18/h5-6,13-14,17,20,32H,2-4,7-12,15-16H2,1H3,(H,29,33)/t17-,20-
InChIKey=BUJLUUZGIPKXTR-IRJFHVNHSA-N

> <PUBCHEM_SUBSTANCE_SYNONYM>
SCHEMBL16116552

> <PUBCHEM_XREF_EXT_ID>
SCHEMBL16116552

> <PUBCHEM_EXT_DATASOURCE_URL>
https://www.surechembl.org/

> <PUBCHEM_EXT_SUBSTANCE_URL>
https://www.surechembl.org/chemical/SCHEMBL16116552

> <PUBCHEM_CID_ASSOCIATIONS>
117606071  1

> <PUBCHEM_COORDINATE_TYPE>
1
3

> <PUBCHEM_BONDANNOTATIONS>
32  34  6
22  8  5

$$$$
