310947813
  -OEChem-07211613022D

 26 27  0     1  0  0  0  0  0999 V2000
    3.4000   -1.8422    0.0000 S   0  0  0  0  0  0  0  0  0  0  0  0
   -4.2160    1.4837    0.0000 S   0  0  0  0  0  0  0  0  0  0  0  0
    2.5716   -1.8422    0.0000 O   0  0  0  0  0  0  0  0  0  0  0  0
   -0.2844   -1.8422    0.0000 O   0  0  0  0  0  0  0  0  0  0  0  0
   -1.7186    0.6305    0.0000 O   0  0  0  0  0  0  0  0  0  0  0  0
   -0.2844    1.4589    0.0000 O   0  0  0  0  0  0  0  0  0  0  0  0
    3.8080   -2.5593    0.0000 O   0  0  0  0  0  0  0  0  0  0  0  0
    3.8080   -1.1251    0.0000 O   0  0  0  0  0  0  0  0  0  0  0  0
    4.2160   -1.8422    0.0000 O   0  0  0  0  0  0  0  0  0  0  0  0
    0.4451   -0.6058    0.0000 N   0  0  0  0  0  0  0  0  0  0  0  0
    1.8793   -1.4342    0.0000 N   0  0  0  0  0  0  0  0  0  0  0  0
   -0.9767    0.2225    0.0000 N   0  0  0  0  0  0  0  0  0  0  0  0
   -2.9302    1.8917    0.0000 N   0  0  0  0  0  0  0  0  0  0  0  0
   -3.7833   -0.1484    0.0000 N   0  0  0  0  0  0  0  0  0  0  0  0
    0.4451    0.2225    0.0000 C   0  0  3  0  0  0  0  0  0  0  0  0
    0.4574   -1.4095    0.0000 C   0  0  0  0  0  0  0  0  0  0  0  0
   -0.3091    0.6058    0.0000 C   0  0  0  0  0  0  0  0  0  0  0  0
    1.1622   -1.0138    0.0000 C   0  0  0  0  0  0  0  0  0  0  0  0
    1.1498    0.6305    0.0000 C   0  0  0  0  0  0  0  0  0  0  0  0
    1.8546   -0.6182    0.0000 C   0  0  0  0  0  0  0  0  0  0  0  0
    1.8669    0.2225    0.0000 C   0  0  0  0  0  0  0  0  0  0  0  0
   -3.4247    1.2240    0.0000 C   0  0  0  0  0  0  0  0  0  0  0  0
   -3.2145    0.4451    0.0000 C   0  0  3  0  0  0  0  0  0  0  0  0
   -2.4109    0.2225    0.0000 C   0  0  0  0  0  0  0  0  0  0  0  0
   -4.2036    2.3120    0.0000 C   0  0  0  0  0  0  0  0  0  0  0  0
   -3.4371    2.5593    0.0000 C   0  0  0  0  0  0  0  0  0  0  0  0
  1  3  1  0  0  0  0
  1  7  2  0  0  0  0
  1  8  2  0  0  0  0
  1  9  1  0  0  0  0
  2 22  1  0  0  0  0
  2 25  1  0  0  0  0
  3 11  1  0  0  0  0
  4 16  2  0  0  0  0
  5 12  1  0  0  0  0
  5 24  1  0  0  0  0
  6 17  2  0  0  0  0
 10 15  1  0  0  0  0
 10 16  1  0  0  0  0
 10 18  1  0  0  0  0
 11 16  1  0  0  0  0
 12 17  1  0  0  0  0
 13 22  2  0  0  0  0
 13 26  1  0  0  0  0
 14 23  1  0  0  0  0
 15 17  1  6  0  0  0
 15 19  1  0  0  0  0
 18 20  1  0  0  0  0
 19 21  1  0  0  0  0
 20 21  1  0  0  0  0
 22 23  1  0  0  0  0
 23 24  1  0  0  0  0
 25 26  2  0  0  0  0
M  END
> <PUBCHEM_COMPOUND_ID_TYPE>
0

> <PUBCHEM_TOTAL_CHARGE>
0

> <PUBCHEM_SUBSTANCE_ID>
310947813

> <PUBCHEM_SUBSTANCE_VERSION>
1

> <PUBCHEM_EXT_DATASOURCE_NAME>
4488

> <PUBCHEM_EXT_DATASOURCE_REGID>
SCHEMBL16125985

> <PUBCHEM_SUBSTANCE_COMMENT>
InChI=1S/C12H19N5O7S2/c13-8(11-14-4-6-25-11)7-23-15-10(18)9-3-1-2-5-17(9)12(19)16-24-26(20,21)22/h4,6,8-9H,1-3,5,7,13H2,(H,15,18)(H,16,19)(H,20,21,22)/t8?,9-/m0/s1
InChIKey=ZPGHTMKZPDYPAC-GKAPJAKFSA-N

> <PUBCHEM_SUBSTANCE_SYNONYM>
SCHEMBL16125985

> <PUBCHEM_XREF_EXT_ID>
SCHEMBL16125985

> <PUBCHEM_EXT_DATASOURCE_URL>
https://www.surechembl.org/

> <PUBCHEM_EXT_SUBSTANCE_URL>
https://www.surechembl.org/chemical/SCHEMBL16125985

> <PUBCHEM_CID_ASSOCIATIONS>
117613481  1

> <PUBCHEM_COORDINATE_TYPE>
1
3

> <PUBCHEM_BONDANNOTATIONS>
15  17  6

$$$$
