310940230
  -OEChem-07211613022D

 19 21  0     0  0  0  0  0  0999 V2000
    2.9248   -1.8452    0.0000 Cl  0  0  0  0  0  0  0  0  0  0  0  0
   -2.9248    0.4088    0.0000 O   0  0  0  0  0  0  0  0  0  0  0  0
   -0.7812   -0.8287    0.0000 N   0  0  0  0  0  0  0  0  0  0  0  0
    0.0033   -1.0837    0.0000 N   0  0  0  0  0  0  0  0  0  0  0  0
   -1.4958    0.4088    0.0000 N   0  0  0  0  0  0  0  0  0  0  0  0
    2.5123    0.2983    0.0000 N   0  0  0  0  0  0  0  0  0  0  0  0
    0.4304    1.8452    0.0000 N   0  0  0  0  0  0  0  0  0  0  0  0
   -0.7812   -0.0036    0.0000 C   0  0  0  0  0  0  0  0  0  0  0  0
    0.4883   -0.4162    0.0000 C   0  0  0  0  0  0  0  0  0  0  0  0
    0.0033    0.2513    0.0000 C   0  0  0  0  0  0  0  0  0  0  0  0
    1.2747   -0.4162    0.0000 C   0  0  0  0  0  0  0  0  0  0  0  0
   -1.4958   -1.2413    0.0000 C   0  0  0  0  0  0  0  0  0  0  0  0
   -2.2103   -0.0036    0.0000 C   0  0  0  0  0  0  0  0  0  0  0  0
    0.2169    1.0482    0.0000 C   0  0  0  0  0  0  0  0  0  0  0  0
    1.6873   -1.1307    0.0000 C   0  0  0  0  0  0  0  0  0  0  0  0
   -2.2103   -0.8287    0.0000 C   0  0  0  0  0  0  0  0  0  0  0  0
    1.6873    0.2983    0.0000 C   0  0  0  0  0  0  0  0  0  0  0  0
    2.5123   -1.1307    0.0000 C   0  0  0  0  0  0  0  0  0  0  0  0
    2.9248   -0.4162    0.0000 C   0  0  0  0  0  0  0  0  0  0  0  0
  1 18  1  0  0  0  0
  2 13  2  0  0  0  0
  3  4  1  0  0  0  0
  3  8  1  0  0  0  0
  3 12  1  0  0  0  0
  4  9  2  0  0  0  0
  5  8  1  0  0  0  0
  5 13  1  0  0  0  0
  6 17  1  0  0  0  0
  6 19  2  0  0  0  0
  7 14  3  0  0  0  0
  8 10  2  0  0  0  0
  9 10  1  0  0  0  0
  9 11  1  0  0  0  0
 10 14  1  0  0  0  0
 11 15  1  0  0  0  0
 11 17  2  0  0  0  0
 12 16  1  0  0  0  0
 13 16  1  0  0  0  0
 15 18  2  0  0  0  0
 18 19  1  0  0  0  0
M  END
> <PUBCHEM_COMPOUND_ID_TYPE>
0

> <PUBCHEM_TOTAL_CHARGE>
0

> <PUBCHEM_SUBSTANCE_ID>
310940230

> <PUBCHEM_SUBSTANCE_VERSION>
1

> <PUBCHEM_EXT_DATASOURCE_NAME>
4488

> <PUBCHEM_EXT_DATASOURCE_REGID>
SCHEMBL16118164

> <PUBCHEM_SUBSTANCE_COMMENT>
InChI=1S/C12H8ClN5O/c13-8-3-7(5-15-6-8)11-9(4-14)12-16-10(19)1-2-18(12)17-11/h3,5-6H,1-2H2,(H,16,19)
InChIKey=OHNNVMOHWNKRII-UHFFFAOYSA-N

> <PUBCHEM_SUBSTANCE_SYNONYM>
SCHEMBL16118164

> <PUBCHEM_XREF_EXT_ID>
SCHEMBL16118164

> <PUBCHEM_EXT_DATASOURCE_URL>
https://www.surechembl.org/

> <PUBCHEM_EXT_SUBSTANCE_URL>
https://www.surechembl.org/chemical/SCHEMBL16118164

> <PUBCHEM_CID_ASSOCIATIONS>
117607323  1

> <PUBCHEM_COORDINATE_TYPE>
1
3

$$$$
