310944796
  -OEChem-07211613022D

 13 14  0     0  0  0  0  0  0999 V2000
   -1.8990    0.9121    0.0000 O   0  0  0  0  0  0  0  0  0  0  0  0
   -0.5105    0.5309    0.0000 N   0  0  0  0  0  0  0  0  0  0  0  0
    0.6466    0.8577    0.0000 C   0  0  0  0  0  0  0  0  0  0  0  0
    0.2246    0.1497    0.0000 C   0  0  0  0  0  0  0  0  0  0  0  0
   -0.0885    1.2660    0.0000 C   0  0  0  0  0  0  0  0  0  0  0  0
    1.1639    1.4975    0.0000 C   0  0  0  0  0  0  0  0  0  0  0  0
    1.3000    0.3540    0.0000 C   0  0  0  0  0  0  0  0  0  0  0  0
    1.8037    0.9938    0.0000 C   0  0  0  0  0  0  0  0  0  0  0  0
   -1.2865    0.3267    0.0000 C   0  0  0  0  0  0  0  0  0  0  0  0
   -1.5315   -0.4629    0.0000 C   0  0  0  0  0  0  0  0  0  0  0  0
    2.4572    1.0619    0.0000 C   0  0  0  0  0  0  0  0  0  0  0  0
   -2.3347   -0.6806    0.0000 C   0  0  0  0  0  0  0  0  0  0  0  0
   -2.4572   -1.4975    0.0000 C   0  0  0  0  0  0  0  0  0  0  0  0
  1  9  2  0  0  0  0
  2  4  1  0  0  0  0
  2  5  1  0  0  0  0
  2  9  1  0  0  0  0
  3  4  1  0  0  0  0
  3  5  1  0  0  0  0
  3  6  1  0  0  0  0
  3  7  1  0  0  0  0
  6  8  1  0  0  0  0
  7  8  1  0  0  0  0
  8 11  1  0  0  0  0
  9 10  1  0  0  0  0
 10 12  2  0  0  0  0
 12 13  1  0  0  0  0
M  END
> <PUBCHEM_COMPOUND_ID_TYPE>
0

> <PUBCHEM_TOTAL_CHARGE>
0

> <PUBCHEM_SUBSTANCE_ID>
310944796

> <PUBCHEM_SUBSTANCE_VERSION>
1

> <PUBCHEM_EXT_DATASOURCE_NAME>
4488

> <PUBCHEM_EXT_DATASOURCE_REGID>
SCHEMBL16122875

> <PUBCHEM_SUBSTANCE_COMMENT>
InChI=1S/C11H17NO/c1-3-4-10(13)12-7-11(8-12)5-9(2)6-11/h3-4,9H,5-8H2,1-2H3/b4-3+
InChIKey=MCXSOECRBZVFCP-ONEGZZNKSA-N

> <PUBCHEM_SUBSTANCE_SYNONYM>
SCHEMBL16122875

> <PUBCHEM_XREF_EXT_ID>
SCHEMBL16122875

> <PUBCHEM_EXT_DATASOURCE_URL>
https://www.surechembl.org/

> <PUBCHEM_EXT_SUBSTANCE_URL>
https://www.surechembl.org/chemical/SCHEMBL16122875

> <PUBCHEM_CID_ASSOCIATIONS>
117611008  1

> <PUBCHEM_COORDINATE_TYPE>
1
3

$$$$
