310943651
  -OEChem-07211613022D

 13 13  0     0  0  0  0  0  0999 V2000
    2.1761    0.1053    0.0000 Cl  0  0  0  0  0  0  0  0  0  0  0  0
   -2.1761    0.9476    0.0000 O   0  0  0  0  0  0  0  0  0  0  0  0
   -0.7195    0.1228    0.0000 N   0  0  0  0  0  0  0  0  0  0  0  0
    0.0000   -1.1407    0.0000 N   0  0  0  0  0  0  0  0  0  0  0  0
    1.4566   -1.1407    0.0000 N   0  0  0  0  0  0  0  0  0  0  0  0
    0.0000   -0.2983    0.0000 C   0  0  0  0  0  0  0  0  0  0  0  0
    0.7195    0.1053    0.0000 C   0  0  0  0  0  0  0  0  0  0  0  0
   -0.7195    0.9476    0.0000 C   0  0  0  0  0  0  0  0  0  0  0  0
   -1.4741   -0.2983    0.0000 C   0  0  0  0  0  0  0  0  0  0  0  0
    1.4566   -0.2983    0.0000 C   0  0  0  0  0  0  0  0  0  0  0  0
   -1.4741    1.3689    0.0000 C   0  0  0  0  0  0  0  0  0  0  0  0
   -2.1761    0.1228    0.0000 C   0  0  0  0  0  0  0  0  0  0  0  0
    0.7195   -1.3689    0.0000 C   0  0  0  0  0  0  0  0  0  0  0  0
  1 10  1  0  0  0  0
  2 11  1  0  0  0  0
  2 12  1  0  0  0  0
  3  6  1  0  0  0  0
  3  8  1  0  0  0  0
  3  9  1  0  0  0  0
  4  6  2  3  0  0  0
  5 10  1  0  0  0  0
  5 13  1  0  0  0  0
  6  7  1  0  0  0  0
  7 10  2  0  0  0  0
  8 11  1  0  0  0  0
  9 12  1  0  0  0  0
M  END
> <PUBCHEM_COMPOUND_ID_TYPE>
0

> <PUBCHEM_TOTAL_CHARGE>
0

> <PUBCHEM_SUBSTANCE_ID>
310943651

> <PUBCHEM_SUBSTANCE_VERSION>
1

> <PUBCHEM_EXT_DATASOURCE_NAME>
4488

> <PUBCHEM_EXT_DATASOURCE_REGID>
SCHEMBL16121719

> <PUBCHEM_SUBSTANCE_COMMENT>
InChI=1S/C8H14ClN3O/c1-11-7(9)6-8(10)12-2-4-13-5-3-12/h6,10-11H,2-5H2,1H3/b7-6-,10-8?
InChIKey=QSAJRSWYVSDYJG-YFWNPAQZSA-N

> <PUBCHEM_SUBSTANCE_SYNONYM>
SCHEMBL16121719

> <PUBCHEM_XREF_EXT_ID>
SCHEMBL16121719

> <PUBCHEM_EXT_DATASOURCE_URL>
https://www.surechembl.org/

> <PUBCHEM_EXT_SUBSTANCE_URL>
https://www.surechembl.org/chemical/SCHEMBL16121719

> <PUBCHEM_CID_ASSOCIATIONS>
117610042  1

> <PUBCHEM_COORDINATE_TYPE>
1
3

$$$$
