310933442
  -OEChem-07211613022D

 33 37  0     0  0  0  0  0  0999 V2000
    5.5291   -3.3389    0.0000 S   0  0  0  0  0  0  0  0  0  0  0  0
    3.5792   -0.4007    0.0000 O   0  0  0  0  0  0  0  0  0  0  0  0
    2.8580   -4.1135    0.0000 O   0  0  0  0  0  0  0  0  0  0  0  0
    5.0751   -1.3890    0.0000 N   0  0  0  0  0  0  0  0  0  0  0  0
    2.8580   -1.6561    0.0000 N   0  0  0  0  0  0  0  0  0  0  0  0
    2.8580   -2.4574    0.0000 N   0  0  0  0  0  0  0  0  0  0  0  0
    4.2737   -4.1135    0.0000 N   0  0  0  0  0  0  0  0  0  0  0  0
    4.3004   -2.4574    0.0000 C   0  0  0  0  0  0  0  0  0  0  0  0
    4.3004   -1.6561    0.0000 C   0  0  0  0  0  0  0  0  0  0  0  0
    5.0751   -2.7245    0.0000 C   0  0  0  0  0  0  0  0  0  0  0  0
    5.5291   -2.0300    0.0000 C   0  0  0  0  0  0  0  0  0  0  0  0
    3.5792   -2.8848    0.0000 C   0  0  0  0  0  0  0  0  0  0  0  0
    3.5792   -1.2287    0.0000 C   0  0  0  0  0  0  0  0  0  0  0  0
    3.5792   -3.6861    0.0000 C   0  0  0  0  0  0  0  0  0  0  0  0
    6.3305   -2.2971    0.0000 C   0  0  0  0  0  0  0  0  0  0  0  0
    6.3305   -3.0985    0.0000 C   0  0  0  0  0  0  0  0  0  0  0  0
    2.1369   -1.2287    0.0000 C   0  0  0  0  0  0  0  0  0  0  0  0
    5.3155   -0.6143    0.0000 C   0  0  0  0  0  0  0  0  0  0  0  0
    4.9949   -3.6861    0.0000 C   0  0  0  0  0  0  0  0  0  0  0  0
    2.1369   -0.4007    0.0000 C   0  0  0  0  0  0  0  0  0  0  0  0
    1.4157   -1.6294    0.0000 C   0  0  0  0  0  0  0  0  0  0  0  0
    6.9982   -3.5792    0.0000 C   0  0  0  0  0  0  0  0  0  0  0  0
    4.2737   -4.9415    0.0000 C   0  0  0  0  0  0  0  0  0  0  0  0
    1.4157    0.0000    0.0000 C   0  0  0  0  0  0  0  0  0  0  0  0
    0.7212   -1.2287    0.0000 C   0  0  0  0  0  0  0  0  0  0  0  0
    0.6945   -0.4274    0.0000 C   0  0  0  0  0  0  0  0  0  0  0  0
    4.9949   -2.8580    0.0000 C   0  0  0  0  0  0  0  0  0  0  0  0
    5.7161   -4.1135    0.0000 C   0  0  0  0  0  0  0  0  0  0  0  0
    4.9949   -5.3422    0.0000 C   0  0  0  0  0  0  0  0  0  0  0  0
    5.7161   -2.4574    0.0000 C   0  0  0  0  0  0  0  0  0  0  0  0
    6.4106   -3.6861    0.0000 C   0  0  0  0  0  0  0  0  0  0  0  0
    6.4106   -2.8848    0.0000 C   0  0  0  0  0  0  0  0  0  0  0  0
    0.0000    0.0000    0.0000 C   0  0  0  0  0  0  0  0  0  0  0  0
  1 10  1  0  0  0  0
  1 16  1  0  0  0  0
  2 13  2  0  0  0  0
  3 14  2  0  0  0  0
  4  9  1  0  0  0  0
  4 11  1  0  0  0  0
  4 18  1  0  0  0  0
  5  6  1  0  0  0  0
  5 13  1  0  0  0  0
  5 17  1  0  0  0  0
  6 12  2  0  0  0  0
  7 14  1  0  0  0  0
  7 19  1  0  0  0  0
  7 23  1  0  0  0  0
  8  9  2  0  0  0  0
  8 10  1  0  0  0  0
  8 12  1  0  0  0  0
  9 13  1  0  0  0  0
 10 11  2  0  0  0  0
 11 15  1  0  0  0  0
 12 14  1  0  0  0  0
 15 16  2  0  0  0  0
 16 22  1  0  0  0  0
 17 20  2  0  0  0  0
 17 21  1  0  0  0  0
 19 27  2  0  0  0  0
 19 28  1  0  0  0  0
 20 24  1  0  0  0  0
 21 25  2  0  0  0  0
 23 29  1  0  0  0  0
 24 26  2  0  0  0  0
 25 26  1  0  0  0  0
 26 33  1  0  0  0  0
 27 30  1  0  0  0  0
 28 31  2  0  0  0  0
 30 32  2  0  0  0  0
 31 32  1  0  0  0  0
M  END
> <PUBCHEM_COMPOUND_ID_TYPE>
0

> <PUBCHEM_TOTAL_CHARGE>
0

> <PUBCHEM_SUBSTANCE_ID>
310933442

> <PUBCHEM_SUBSTANCE_VERSION>
1

> <PUBCHEM_EXT_DATASOURCE_NAME>
4488

> <PUBCHEM_EXT_DATASOURCE_REGID>
SCHEMBL16110860

> <PUBCHEM_SUBSTANCE_COMMENT>
InChI=1S/C26H24N4O2S/c1-5-29(18-9-7-6-8-10-18)25(31)22-21-23(28(4)20-15-17(3)33-24(20)21)26(32)30(27-22)19-13-11-16(2)12-14-19/h6-15H,5H2,1-4H3
InChIKey=IDURIBIFQSPLGG-UHFFFAOYSA-N

> <PUBCHEM_SUBSTANCE_SYNONYM>
SCHEMBL16110860

> <PUBCHEM_XREF_EXT_ID>
SCHEMBL16110860

> <PUBCHEM_EXT_DATASOURCE_URL>
https://www.surechembl.org/

> <PUBCHEM_EXT_SUBSTANCE_URL>
https://www.surechembl.org/chemical/SCHEMBL16110860

> <PUBCHEM_CID_ASSOCIATIONS>
87055108  1

> <PUBCHEM_COORDINATE_TYPE>
1
3

$$$$
