310931076
  -OEChem-07211613022D

 26 28  0     0  0  0  0  0  0999 V2000
   -1.3222   -0.8866    0.0000 S   0  0  0  0  0  0  0  0  0  0  0  0
    0.0597   -2.6090    0.0000 S   0  0  0  0  0  0  0  0  0  0  0  0
   -2.7512   -1.7116    0.0000 F   0  0  0  0  0  0  0  0  0  0  0  0
   -2.7512    1.5884    0.0000 F   0  0  0  0  0  0  0  0  0  0  0  0
   -4.1801   -0.8866    0.0000 O   0  0  0  0  0  0  0  0  0  0  0  0
   -4.1226   -0.0596    0.0000 O   0  0  0  0  0  0  0  0  0  0  0  0
   -1.7347   -1.6011    0.0000 O   0  0  0  0  0  0  0  0  0  0  0  0
   -0.9097   -0.1721    0.0000 O   0  0  0  0  0  0  0  0  0  0  0  0
   -0.6078   -1.2991    0.0000 N   0  0  0  0  0  0  0  0  0  0  0  0
   -1.2752   -2.6090    0.0000 N   0  0  0  0  0  0  0  0  0  0  0  0
   -0.1953   -3.3937    0.0000 N   0  0  0  0  0  0  0  0  0  0  0  0
   -3.4656    0.3509    0.0000 C   0  0  0  0  0  0  0  0  0  0  0  0
   -2.0367   -0.4741    0.0000 C   0  0  0  0  0  0  0  0  0  0  0  0
   -3.4656   -0.4741    0.0000 C   0  0  0  0  0  0  0  0  0  0  0  0
   -4.1801    0.7634    0.0000 C   0  0  0  0  0  0  0  0  0  0  0  0
   -2.7512   -0.8866    0.0000 C   0  0  0  0  0  0  0  0  0  0  0  0
   -2.7512    0.7634    0.0000 C   0  0  0  0  0  0  0  0  0  0  0  0
   -2.0367    0.3509    0.0000 C   0  0  0  0  0  0  0  0  0  0  0  0
   -5.0046    0.7346    0.0000 C   0  0  0  0  0  0  0  0  0  0  0  0
   -3.7928    1.4918    0.0000 C   0  0  0  0  0  0  0  0  0  0  0  0
   -0.6078   -2.1241    0.0000 C   0  0  0  0  0  0  0  0  0  0  0  0
   -5.4418    1.4342    0.0000 C   0  0  0  0  0  0  0  0  0  0  0  0
   -4.2300    2.1915    0.0000 C   0  0  0  0  0  0  0  0  0  0  0  0
   -5.0545    2.1627    0.0000 C   0  0  0  0  0  0  0  0  0  0  0  0
   -4.8946   -0.4741    0.0000 C   0  0  0  0  0  0  0  0  0  0  0  0
   -1.0203   -3.3937    0.0000 C   0  0  0  0  0  0  0  0  0  0  0  0
  1  7  2  0  0  0  0
  1  8  2  0  0  0  0
  1  9  1  0  0  0  0
  1 13  1  0  0  0  0
  2 11  1  0  0  0  0
  2 21  1  0  0  0  0
  3 16  1  0  0  0  0
  4 17  1  0  0  0  0
  5 14  1  0  0  0  0
  5 25  1  0  0  0  0
  6 15  1  0  0  0  0
  9 21  1  0  0  0  0
 10 21  2  0  0  0  0
 10 26  1  0  0  0  0
 11 26  2  0  0  0  0
 12 14  2  0  0  0  0
 12 15  1  0  0  0  0
 12 17  1  0  0  0  0
 13 16  2  0  0  0  0
 13 18  1  0  0  0  0
 14 16  1  0  0  0  0
 15 19  1  0  0  0  0
 15 20  1  0  0  0  0
 17 18  2  0  0  0  0
 19 22  1  0  0  0  0
 20 23  1  0  0  0  0
 22 24  1  0  0  0  0
 23 24  1  0  0  0  0
M  END
> <PUBCHEM_COMPOUND_ID_TYPE>
0

> <PUBCHEM_TOTAL_CHARGE>
0

> <PUBCHEM_SUBSTANCE_ID>
310931076

> <PUBCHEM_SUBSTANCE_VERSION>
1

> <PUBCHEM_EXT_DATASOURCE_NAME>
4488

> <PUBCHEM_EXT_DATASOURCE_REGID>
SCHEMBL16108379

> <PUBCHEM_SUBSTANCE_COMMENT>
InChI=1S/C15H17F2N3O4S2/c1-24-13-11(15(21)5-3-2-4-6-15)9(16)7-10(12(13)17)26(22,23)20-14-18-8-19-25-14/h7-8,21H,2-6H2,1H3,(H,18,19,20)
InChIKey=DLCNXPDRLMZIGT-UHFFFAOYSA-N

> <PUBCHEM_SUBSTANCE_SYNONYM>
SCHEMBL16108379

> <PUBCHEM_XREF_EXT_ID>
SCHEMBL16108379

> <PUBCHEM_EXT_DATASOURCE_URL>
https://www.surechembl.org/

> <PUBCHEM_EXT_SUBSTANCE_URL>
https://www.surechembl.org/chemical/SCHEMBL16108379

> <PUBCHEM_CID_ASSOCIATIONS>
117599979  1

> <PUBCHEM_COORDINATE_TYPE>
1
3

$$$$
