310948321
  -OEChem-07211613022D

 46 51  0     0  0  0  0  0  0999 V2000
   -3.0198    2.0442    0.0000 Cl  0  0  0  0  0  0  0  0  0  0  0  0
   -2.7225   -3.1592    0.0000 S   0  0  0  0  0  0  0  0  0  0  0  0
    3.3915   -2.5459    0.0000 F   0  0  0  0  0  0  0  0  0  0  0  0
    2.5738   -3.2893    0.0000 F   0  0  0  0  0  0  0  0  0  0  0  0
   -1.0314    4.2185    0.0000 F   0  0  0  0  0  0  0  0  0  0  0  0
    0.0651    4.4042    0.0000 F   0  0  0  0  0  0  0  0  0  0  0  0
    0.2508    3.2893    0.0000 F   0  0  0  0  0  0  0  0  0  0  0  0
    0.1394   -3.1592    0.0000 F   0  0  0  0  0  0  0  0  0  0  0  0
    1.4402    1.2637    0.0000 O   0  0  0  0  0  0  0  0  0  0  0  0
    2.7411   -1.6539    0.0000 O   0  0  0  0  0  0  0  0  0  0  0  0
    1.7375   -2.5459    0.0000 O   0  0  0  0  0  0  0  0  0  0  0  0
   -3.1127   -2.4901    0.0000 O   0  0  0  0  0  0  0  0  0  0  0  0
   -2.3137   -3.8653    0.0000 O   0  0  0  0  0  0  0  0  0  0  0  0
   -0.5668   -4.4042    0.0000 O   0  0  0  0  0  0  0  0  0  0  0  0
   -1.2915    1.8212    0.0000 N   0  0  0  0  0  0  0  0  0  0  0  0
    0.2323    1.8026    0.0000 N   0  0  0  0  0  0  0  0  0  0  0  0
   -0.6226    2.3044    0.0000 N   0  0  0  0  0  0  0  0  0  0  0  0
   -0.5668    0.5761    0.0000 C   0  0  0  0  0  0  0  0  0  0  0  0
    0.1394    1.0035    0.0000 C   0  0  0  0  0  0  0  0  0  0  0  0
   -1.2915    0.9849    0.0000 C   0  0  0  0  0  0  0  0  0  0  0  0
    0.9013    0.6504    0.0000 C   0  0  0  0  0  0  0  0  0  0  0  0
    1.0685   -0.1673    0.0000 C   0  0  0  0  0  0  0  0  0  0  0  0
   -1.2915   -0.6690    0.0000 C   0  0  0  0  0  0  0  0  0  0  0  0
   -0.5853   -0.2601    0.0000 C   0  0  0  0  0  0  0  0  0  0  0  0
   -1.9792    2.3044    0.0000 C   0  0  0  0  0  0  0  0  0  0  0  0
    2.0163   -1.2079    0.0000 C   0  0  0  0  0  0  0  0  0  0  0  0
   -1.2915   -1.4867    0.0000 C   0  0  0  0  0  0  0  0  0  0  0  0
   -1.9792    0.5761    0.0000 C   0  0  0  0  0  0  0  0  0  0  0  0
   -0.8827    3.0848    0.0000 C   0  0  0  0  0  0  0  0  0  0  0  0
    1.4216   -1.7840    0.0000 C   0  0  0  0  0  0  0  0  0  0  0  0
    1.0314    1.9698    0.0000 C   0  0  0  0  0  0  0  0  0  0  0  0
    1.8490   -0.4274    0.0000 C   0  0  0  0  0  0  0  0  0  0  0  0
   -1.9977   -0.2601    0.0000 C   0  0  0  0  0  0  0  0  0  0  0  0
    2.5738   -2.4530    0.0000 C   0  0  0  0  0  0  0  0  0  0  0  0
   -1.9977   -2.7318    0.0000 C   0  0  0  0  0  0  0  0  0  0  0  0
   -1.6818    3.0848    0.0000 C   0  0  0  0  0  0  0  0  0  0  0  0
    0.4738   -0.7062    0.0000 C   0  0  0  0  0  0  0  0  0  0  0  0
   -1.9792   -1.9141    0.0000 C   0  0  0  0  0  0  0  0  0  0  0  0
   -0.3996    3.7538    0.0000 C   0  0  0  0  0  0  0  0  0  0  0  0
   -1.2730   -3.1406    0.0000 C   0  0  0  0  0  0  0  0  0  0  0  0
    0.6411   -1.5238    0.0000 C   0  0  0  0  0  0  0  0  0  0  0  0
   -0.5853   -1.9141    0.0000 C   0  0  0  0  0  0  0  0  0  0  0  0
   -0.5853   -2.7318    0.0000 C   0  0  0  0  0  0  0  0  0  0  0  0
    1.3659    2.7504    0.0000 C   0  0  0  0  0  0  0  0  0  0  0  0
   -1.2915   -3.9768    0.0000 C   0  0  0  0  0  0  0  0  0  0  0  0
   -3.3915   -3.5680    0.0000 C   0  0  0  0  0  0  0  0  0  0  0  0
  1 25  1  0  0  0  0
  2 12  2  0  0  0  0
  2 13  2  0  0  0  0
  2 35  1  0  0  0  0
  2 46  1  0  0  0  0
  3 34  1  0  0  0  0
  4 34  1  0  0  0  0
  5 39  1  0  0  0  0
  6 39  1  0  0  0  0
  7 39  1  0  0  0  0
  8 43  1  0  0  0  0
  9 21  1  0  0  0  0
  9 31  1  0  0  0  0
 10 26  1  0  0  0  0
 10 34  1  0  0  0  0
 11 30  1  0  0  0  0
 11 34  1  0  0  0  0
 14 45  1  0  0  0  0
 15 17  1  0  0  0  0
 15 20  1  0  0  0  0
 15 25  1  0  0  0  0
 16 19  1  0  0  0  0
 16 31  2  0  0  0  0
 17 29  2  0  0  0  0
 18 19  1  0  0  0  0
 18 20  1  0  0  0  0
 18 24  2  0  0  0  0
 19 21  2  0  0  0  0
 20 28  2  0  0  0  0
 21 22  1  0  0  0  0
 22 32  1  0  0  0  0
 22 37  2  0  0  0  0
 23 24  1  0  0  0  0
 23 27  1  0  0  0  0
 23 33  2  0  0  0  0
 25 36  2  0  0  0  0
 26 30  1  0  0  0  0
 26 32  2  0  0  0  0
 27 38  1  0  0  0  0
 27 42  2  0  0  0  0
 28 33  1  0  0  0  0
 29 36  1  0  0  0  0
 29 39  1  0  0  0  0
 30 41  2  0  0  0  0
 31 44  1  0  0  0  0
 35 38  2  0  0  0  0
 35 40  1  0  0  0  0
 37 41  1  0  0  0  0
 40 43  2  0  0  0  0
 40 45  1  0  0  0  0
 42 43  1  0  0  0  0
M  END
> <PUBCHEM_COMPOUND_ID_TYPE>
0

> <PUBCHEM_TOTAL_CHARGE>
0

> <PUBCHEM_SUBSTANCE_ID>
310948321

> <PUBCHEM_SUBSTANCE_VERSION>
1

> <PUBCHEM_EXT_DATASOURCE_NAME>
4488

> <PUBCHEM_EXT_DATASOURCE_REGID>
SCHEMBL16126499

> <PUBCHEM_SUBSTANCE_COMMENT>
InChI=1S/C29H18ClF6N3O6S/c1-13-37-26(27(43-13)15-4-6-21-22(9-15)45-29(35,36)44-21)17-7-14(16-8-19(31)18(12-40)23(10-16)46(2,41)42)3-5-20(17)39-25(30)11-24(38-39)28(32,33)34/h3-11,40H,12H2,1-2H3
InChIKey=CQWXTXDBYTUMST-UHFFFAOYSA-N

> <PUBCHEM_SUBSTANCE_SYNONYM>
SCHEMBL16126499

> <PUBCHEM_XREF_EXT_ID>
SCHEMBL16126499

> <PUBCHEM_EXT_DATASOURCE_URL>
https://www.surechembl.org/

> <PUBCHEM_EXT_SUBSTANCE_URL>
https://www.surechembl.org/chemical/SCHEMBL16126499

> <PUBCHEM_CID_ASSOCIATIONS>
117613886  1

> <PUBCHEM_COORDINATE_TYPE>
1
3

$$$$
