310932873
  -OEChem-07211613022D

 33 36  0     0  0  0  0  0  0999 V2000
    5.0041   -5.3663    0.0000 O   0  0  0  0  0  0  0  0  0  0  0  0
    5.7285   -4.9383    0.0000 O   0  0  0  0  0  0  0  0  0  0  0  0
    4.3128   -4.1153    0.0000 N   0  0  0  0  0  0  0  0  0  0  0  0
    3.5885   -3.6873    0.0000 N   0  0  0  0  0  0  0  0  0  0  0  0
    6.4527   -3.6873    0.0000 N   0  0  0  0  0  0  0  0  0  0  0  0
    0.7243   -5.3663    0.0000 N   0  0  0  0  0  0  0  0  0  0  0  0
    2.8642   -4.9383    0.0000 C   0  0  0  0  0  0  0  0  0  0  0  0
    3.5885   -5.3663    0.0000 C   0  0  0  0  0  0  0  0  0  0  0  0
    4.3128   -4.9383    0.0000 C   0  0  0  0  0  0  0  0  0  0  0  0
    2.8642   -4.1153    0.0000 C   0  0  0  0  0  0  0  0  0  0  0  0
    2.1729   -5.3334    0.0000 C   0  0  0  0  0  0  0  0  0  0  0  0
    3.5885   -6.1564    0.0000 C   0  0  0  0  0  0  0  0  0  0  0  0
    5.0041   -3.6873    0.0000 C   0  0  0  0  0  0  0  0  0  0  0  0
    2.1729   -3.7202    0.0000 C   0  0  0  0  0  0  0  0  0  0  0  0
    2.1729   -6.1564    0.0000 C   0  0  0  0  0  0  0  0  0  0  0  0
    5.7285   -4.1153    0.0000 C   0  0  0  0  0  0  0  0  0  0  0  0
    2.8971   -6.5844    0.0000 C   0  0  0  0  0  0  0  0  0  0  0  0
    1.4486   -4.1153    0.0000 C   0  0  0  0  0  0  0  0  0  0  0  0
    6.4527   -2.8971    0.0000 C   0  0  0  0  0  0  0  0  0  0  0  0
    7.1441   -4.1153    0.0000 C   0  0  0  0  0  0  0  0  0  0  0  0
    5.7285   -2.4691    0.0000 C   0  0  0  0  0  0  0  0  0  0  0  0
    7.1441   -2.4691    0.0000 C   0  0  0  0  0  0  0  0  0  0  0  0
    1.4486   -6.5844    0.0000 C   0  0  0  0  0  0  0  0  0  0  0  0
    1.4157   -4.9383    0.0000 C   0  0  0  0  0  0  0  0  0  0  0  0
    0.7243   -3.7202    0.0000 C   0  0  0  0  0  0  0  0  0  0  0  0
    6.4527   -1.2511    0.0000 C   0  0  0  0  0  0  0  0  0  0  0  0
    5.7285   -1.6461    0.0000 C   0  0  0  0  0  0  0  0  0  0  0  0
    7.1441   -1.6461    0.0000 C   0  0  0  0  0  0  0  0  0  0  0  0
    0.0000   -4.1153    0.0000 C   0  0  0  0  0  0  0  0  0  0  0  0
    0.0000   -4.9712    0.0000 C   0  0  0  0  0  0  0  0  0  0  0  0
    7.8684   -3.6873    0.0000 C   0  0  0  0  0  0  0  0  0  0  0  0
    6.4527   -0.3951    0.0000 C   0  0  0  0  0  0  0  0  0  0  0  0
    5.7285    0.0000    0.0000 C   0  0  0  0  0  0  0  0  0  0  0  0
  1  9  2  0  0  0  0
  2 16  2  0  0  0  0
  3  4  1  0  0  0  0
  3  9  1  0  0  0  0
  3 13  1  0  0  0  0
  4 10  2  0  0  0  0
  5 16  1  0  0  0  0
  5 19  1  0  0  0  0
  5 20  1  0  0  0  0
  6 24  1  0  0  0  0
  6 30  2  0  0  0  0
  7  8  2  0  0  0  0
  7 10  1  0  0  0  0
  7 11  1  0  0  0  0
  8  9  1  0  0  0  0
  8 12  1  0  0  0  0
 10 14  1  0  0  0  0
 11 15  2  0  0  0  0
 12 17  2  0  0  0  0
 13 16  1  0  0  0  0
 14 18  1  0  0  0  0
 15 17  1  0  0  0  0
 15 23  1  0  0  0  0
 18 24  2  0  0  0  0
 18 25  1  0  0  0  0
 19 21  2  0  0  0  0
 19 22  1  0  0  0  0
 20 31  1  0  0  0  0
 21 27  1  0  0  0  0
 22 28  2  0  0  0  0
 25 29  2  0  0  0  0
 26 27  2  0  0  0  0
 26 28  1  0  0  0  0
 26 32  1  0  0  0  0
 29 30  1  0  0  0  0
 32 33  1  0  0  0  0
M  END
> <PUBCHEM_COMPOUND_ID_TYPE>
0

> <PUBCHEM_TOTAL_CHARGE>
0

> <PUBCHEM_SUBSTANCE_ID>
310932873

> <PUBCHEM_SUBSTANCE_VERSION>
1

> <PUBCHEM_EXT_DATASOURCE_NAME>
4488

> <PUBCHEM_EXT_DATASOURCE_REGID>
SCHEMBL16110265

> <PUBCHEM_SUBSTANCE_COMMENT>
InChI=1S/C27H28N4O2/c1-4-20-9-11-22(12-10-20)30(5-2)26(32)18-31-27(33)23-13-8-19(3)15-24(23)25(29-31)16-21-7-6-14-28-17-21/h6-15,17H,4-5,16,18H2,1-3H3
InChIKey=ACWHBROOZGSOCL-UHFFFAOYSA-N

> <PUBCHEM_SUBSTANCE_SYNONYM>
SCHEMBL16110265

> <PUBCHEM_XREF_EXT_ID>
SCHEMBL16110265

> <PUBCHEM_EXT_DATASOURCE_URL>
https://www.surechembl.org/

> <PUBCHEM_EXT_SUBSTANCE_URL>
https://www.surechembl.org/chemical/SCHEMBL16110265

> <PUBCHEM_CID_ASSOCIATIONS>
117601357  1

> <PUBCHEM_COORDINATE_TYPE>
1
3

$$$$
