310935835
  -OEChem-07211613022D

 20 21  0     0  0  0  0  0  0999 V2000
    0.0000   -1.3750    0.0000 Cl  0  0  0  0  0  0  0  0  0  0  0  0
    4.9711    0.0000    0.0000 F   0  0  0  0  0  0  0  0  0  0  0  0
    3.7231   -0.6769    0.0000 F   0  0  0  0  0  0  0  0  0  0  0  0
    2.4115   -4.2307    0.0000 O   0  0  0  0  0  0  0  0  0  0  0  0
    4.9288   -1.4173    0.0000 O   0  0  0  0  0  0  0  0  0  0  0  0
    1.2058   -3.5115    0.0000 N   0  0  0  0  0  0  0  0  0  0  0  0
    4.9077   -2.8134    0.0000 N   0  0  0  0  0  0  0  0  0  0  0  0
    2.4538   -2.8134    0.0000 C   0  0  0  0  0  0  0  0  0  0  0  0
    3.2788   -2.8134    0.0000 C   0  0  0  0  0  0  0  0  0  0  0  0
    2.0096   -3.5115    0.0000 C   0  0  0  0  0  0  0  0  0  0  0  0
    2.0096   -2.0942    0.0000 C   0  0  0  0  0  0  0  0  0  0  0  0
    3.6807   -2.0731    0.0000 C   0  0  0  0  0  0  0  0  0  0  0  0
    4.5057   -2.1154    0.0000 C   0  0  0  0  0  0  0  0  0  0  0  0
    1.2058   -2.0942    0.0000 C   0  0  0  0  0  0  0  0  0  0  0  0
    3.6807   -3.5115    0.0000 C   0  0  0  0  0  0  0  0  0  0  0  0
    0.7827   -2.8134    0.0000 C   0  0  0  0  0  0  0  0  0  0  0  0
    4.5057   -3.5327    0.0000 C   0  0  0  0  0  0  0  0  0  0  0  0
    0.8039   -1.3961    0.0000 C   0  0  0  0  0  0  0  0  0  0  0  0
    4.5480   -0.6981    0.0000 C   0  0  0  0  0  0  0  0  0  0  0  0
    3.2365   -4.2307    0.0000 C   0  0  0  0  0  0  0  0  0  0  0  0
  1 18  1  0  0  0  0
  2 19  1  0  0  0  0
  3 19  1  0  0  0  0
  4 10  1  0  0  0  0
  4 20  1  0  0  0  0
  5 13  1  0  0  0  0
  5 19  1  0  0  0  0
  6 10  1  0  0  0  0
  6 16  2  0  0  0  0
  7 13  1  0  0  0  0
  7 17  2  0  0  0  0
  8  9  1  0  0  0  0
  8 10  2  0  0  0  0
  8 11  1  0  0  0  0
  9 12  1  0  0  0  0
  9 15  2  0  0  0  0
 11 14  2  0  0  0  0
 12 13  2  0  0  0  0
 14 16  1  0  0  0  0
 14 18  1  0  0  0  0
 15 17  1  0  0  0  0
M  END
> <PUBCHEM_COMPOUND_ID_TYPE>
0

> <PUBCHEM_TOTAL_CHARGE>
0

> <PUBCHEM_SUBSTANCE_ID>
310935835

> <PUBCHEM_SUBSTANCE_VERSION>
1

> <PUBCHEM_EXT_DATASOURCE_NAME>
4488

> <PUBCHEM_EXT_DATASOURCE_REGID>
SCHEMBL16113426

> <PUBCHEM_SUBSTANCE_COMMENT>
InChI=1S/C13H11ClF2N2O2/c1-19-12-10(4-8(6-14)7-18-12)9-2-3-17-11(5-9)20-13(15)16/h2-5,7,13H,6H2,1H3
InChIKey=DAJHQPOCSMBTJP-UHFFFAOYSA-N

> <PUBCHEM_SUBSTANCE_SYNONYM>
SCHEMBL16113426

> <PUBCHEM_XREF_EXT_ID>
SCHEMBL16113426

> <PUBCHEM_EXT_DATASOURCE_URL>
https://www.surechembl.org/

> <PUBCHEM_EXT_SUBSTANCE_URL>
https://www.surechembl.org/chemical/SCHEMBL16113426

> <PUBCHEM_CID_ASSOCIATIONS>
117603824  1

> <PUBCHEM_COORDINATE_TYPE>
1
3

$$$$
