310940162
  -OEChem-07211613022D

 35 39  0     1  0  0  0  0  0999 V2000
   -0.6253   -3.4187    0.0000 S   0  0  0  0  0  0  0  0  0  0  0  0
   -1.3424   -3.8355    0.0000 O   0  0  0  0  0  0  0  0  0  0  0  0
   -0.4086   -4.2191    0.0000 O   0  0  0  0  0  0  0  0  0  0  0  0
   -2.8600    1.0673    0.0000 O   0  0  0  0  0  0  0  0  0  0  0  0
   -0.0917    0.9172    0.0000 N   0  0  0  0  0  0  0  0  0  0  0  0
   -0.4252    0.1667    0.0000 N   0  0  0  0  0  0  0  0  0  0  0  0
   -1.8094   -0.3502    0.0000 N   0  0  0  0  0  0  0  0  0  0  0  0
    0.1918   -3.2520    0.0000 N   0  0  3  0  0  0  0  0  0  0  0  0
   -2.1429    2.3014    0.0000 N   0  0  0  0  0  0  0  0  0  0  0  0
    1.3591    3.4854    0.0000 N   0  0  0  0  0  0  0  0  0  0  0  0
    2.8600    0.8171    0.0000 N   0  0  0  0  0  0  0  0  0  0  0  0
    0.6754    1.1007    0.0000 C   0  0  0  0  0  0  0  0  0  0  0  0
   -0.7088    1.4842    0.0000 C   0  0  0  0  0  0  0  0  0  0  0  0
   -1.4091    1.0840    0.0000 C   0  0  0  0  0  0  0  0  0  0  0  0
   -1.2591    0.2668    0.0000 C   0  0  0  0  0  0  0  0  0  0  0  0
   -1.0423   -2.7016    0.0000 C   0  0  0  0  0  0  0  0  0  0  0  0
   -0.5086   -2.1012    0.0000 C   0  0  0  0  0  0  0  0  0  0  0  0
   -2.1263    1.5175    0.0000 C   0  0  0  0  0  0  0  0  0  0  0  0
   -1.5592   -1.1174    0.0000 C   0  0  0  0  0  0  0  0  0  0  0  0
   -0.7088    2.3014    0.0000 C   0  0  0  0  0  0  0  0  0  0  0  0
    0.1417    1.6676    0.0000 C   0  0  0  0  0  0  0  0  0  0  0  0
    1.5092    1.3175    0.0000 C   0  0  0  0  0  0  0  0  0  0  0  0
    0.2751   -2.4347    0.0000 C   0  0  0  0  0  0  0  0  0  0  0  0
   -0.7422   -1.3175    0.0000 C   0  0  0  0  0  0  0  0  0  0  0  0
    1.2591    0.4669    0.0000 C   0  0  0  0  0  0  0  0  0  0  0  0
   -1.8427   -2.5181    0.0000 C   0  0  0  0  0  0  0  0  0  0  0  0
   -2.0762   -1.7343    0.0000 C   0  0  0  0  0  0  0  0  0  0  0  0
   -1.4425    2.7183    0.0000 C   0  0  0  0  0  0  0  0  0  0  0  0
    0.3585    2.4848    0.0000 C   0  0  0  0  0  0  0  0  0  0  0  0
    1.7093    2.1179    0.0000 C   0  0  0  0  0  0  0  0  0  0  0  0
    1.1424    2.6849    0.0000 C   0  0  0  0  0  0  0  0  0  0  0  0
    0.8255   -3.8188    0.0000 C   0  0  0  0  0  0  0  0  0  0  0  0
    2.0595    0.6671    0.0000 C   0  0  0  0  0  0  0  0  0  0  0  0
    0.9256    4.2191    0.0000 C   0  0  0  0  0  0  0  0  0  0  0  0
    2.0929    3.9189    0.0000 C   0  0  0  0  0  0  0  0  0  0  0  0
  1  2  2  0  0  0  0
  1  3  2  0  0  0  0
  1  8  1  0  0  0  0
  1 16  1  0  0  0  0
  4 18  2  0  0  0  0
  5  6  1  0  0  0  0
  5 12  1  0  0  0  0
  5 13  1  0  0  0  0
  6 15  2  0  0  0  0
  7 15  1  0  0  0  0
  7 19  1  0  0  0  0
  8 23  1  0  0  0  0
  8 32  1  0  0  0  0
  9 18  1  0  0  0  0
  9 28  1  0  0  0  0
 31 10  1  6  0  0  0
 10 34  1  0  0  0  0
 10 35  1  0  0  0  0
 11 33  3  0  0  0  0
 12 21  1  0  0  0  0
 12 22  1  0  0  0  0
 12 25  1  6  0  0  0
 13 14  2  0  0  0  0
 13 20  1  0  0  0  0
 14 15  1  0  0  0  0
 14 18  1  0  0  0  0
 16 17  1  0  0  0  0
 16 26  2  0  0  0  0
 17 23  1  0  0  0  0
 17 24  2  0  0  0  0
 19 24  1  0  0  0  0
 19 27  2  0  0  0  0
 20 28  2  0  0  0  0
 21 29  1  0  0  0  0
 22 30  1  0  0  0  0
 25 33  1  0  0  0  0
 26 27  1  0  0  0  0
 29 31  1  0  0  0  0
 30 31  1  0  0  0  0
M  END
> <PUBCHEM_COMPOUND_ID_TYPE>
0

> <PUBCHEM_TOTAL_CHARGE>
0

> <PUBCHEM_SUBSTANCE_ID>
310940162

> <PUBCHEM_SUBSTANCE_VERSION>
1

> <PUBCHEM_EXT_DATASOURCE_NAME>
4488

> <PUBCHEM_EXT_DATASOURCE_REGID>
SCHEMBL16118095

> <PUBCHEM_SUBSTANCE_COMMENT>
InChI=1S/C24H29N7O3S/c1-29(2)18-6-9-24(10-7-18,11-12-25)31-19-8-13-26-23(32)21(19)22(28-31)27-17-4-5-20-16(14-17)15-30(3)35(20,33)34/h4-5,8,13-14,18H,6-7,9-11,15H2,1-3H3,(H,26,32)(H,27,28)/t18-,24-
InChIKey=FFEJQOQAJUSPPB-XZMJRDFISA-N

> <PUBCHEM_SUBSTANCE_SYNONYM>
SCHEMBL16118095

> <PUBCHEM_XREF_EXT_ID>
SCHEMBL16118095

> <PUBCHEM_EXT_DATASOURCE_URL>
https://www.surechembl.org/

> <PUBCHEM_EXT_SUBSTANCE_URL>
https://www.surechembl.org/chemical/SCHEMBL16118095

> <PUBCHEM_CID_ASSOCIATIONS>
117607276  1

> <PUBCHEM_COORDINATE_TYPE>
1
3

> <PUBCHEM_BONDANNOTATIONS>
31  10  6
12  25  6

$$$$
