310944409
  -OEChem-07211613022D

 33 38  0     0  0  0  0  0  0999 V2000
   -0.9057    3.2669    0.0000 F   0  0  0  0  0  0  0  0  0  0  0  0
   -0.9380    0.0000    0.0000 N   0  0  0  0  0  0  0  0  0  0  0  0
    1.2776    2.7818    0.0000 N   0  0  0  0  0  0  0  0  0  0  0  0
   -3.1052    2.8141    0.0000 N   0  0  0  0  0  0  0  0  0  0  0  0
    1.1160   -0.8895    0.0000 C   0  0  0  0  0  0  0  0  0  0  0  0
   -0.2588   -0.4529    0.0000 C   0  0  0  0  0  0  0  0  0  0  0  0
    0.8733   -1.6820    0.0000 C   0  0  0  0  0  0  0  0  0  0  0  0
   -0.5337   -1.2130    0.0000 C   0  0  0  0  0  0  0  0  0  0  0  0
    1.9893   -0.8895    0.0000 C   0  0  0  0  0  0  0  0  0  0  0  0
   -1.3747   -1.2130    0.0000 C   0  0  0  0  0  0  0  0  0  0  0  0
    1.5526   -2.1349    0.0000 C   0  0  0  0  0  0  0  0  0  0  0  0
    2.2319   -1.6496    0.0000 C   0  0  0  0  0  0  0  0  0  0  0  0
   -1.6496   -0.4529    0.0000 C   0  0  0  0  0  0  0  0  0  0  0  0
    0.5661   -0.3073    0.0000 C   0  0  0  0  0  0  0  0  0  0  0  0
    0.0324   -1.8114    0.0000 C   0  0  0  0  0  0  0  0  0  0  0  0
   -0.9380    0.8571    0.0000 C   0  0  0  0  0  0  0  0  0  0  0  0
   -1.9731   -1.7952    0.0000 C   0  0  0  0  0  0  0  0  0  0  0  0
    1.6496   -2.9597    0.0000 C   0  0  0  0  0  0  0  0  0  0  0  0
   -2.4744   -0.2911    0.0000 C   0  0  0  0  0  0  0  0  0  0  0  0
    3.0082   -2.0217    0.0000 C   0  0  0  0  0  0  0  0  0  0  0  0
    1.9731   -0.0808    0.0000 C   0  0  0  0  0  0  0  0  0  0  0  0
    2.8626   -0.9057    0.0000 C   0  0  0  0  0  0  0  0  0  0  0  0
   -0.2102    1.2292    0.0000 C   0  0  0  0  0  0  0  0  0  0  0  0
   -1.6335    1.2615    0.0000 C   0  0  0  0  0  0  0  0  0  0  0  0
   -0.1941    2.0701    0.0000 C   0  0  0  0  0  0  0  0  0  0  0  0
   -1.6496    2.0863    0.0000 C   0  0  0  0  0  0  0  0  0  0  0  0
   -2.7656   -1.6173    0.0000 C   0  0  0  0  0  0  0  0  0  0  0  0
   -3.0243   -0.8571    0.0000 C   0  0  0  0  0  0  0  0  0  0  0  0
   -0.9219    2.4744    0.0000 C   0  0  0  0  0  0  0  0  0  0  0  0
    2.4421   -3.2669    0.0000 C   0  0  0  0  0  0  0  0  0  0  0  0
    3.1052   -2.8141    0.0000 C   0  0  0  0  0  0  0  0  0  0  0  0
    0.5499    2.4421    0.0000 C   0  0  0  0  0  0  0  0  0  0  0  0
   -2.3936    2.4744    0.0000 C   0  0  0  0  0  0  0  0  0  0  0  0
  1 29  1  0  0  0  0
  2  6  1  0  0  0  0
  2 13  1  0  0  0  0
  2 16  1  0  0  0  0
  3 32  3  0  0  0  0
  4 33  3  0  0  0  0
  5  7  1  0  0  0  0
  5  9  1  0  0  0  0
  5 14  2  0  0  0  0
  6  8  2  0  0  0  0
  6 14  1  0  0  0  0
  7 11  1  0  0  0  0
  7 15  2  0  0  0  0
  8 10  1  0  0  0  0
  8 15  1  0  0  0  0
  9 12  1  0  0  0  0
  9 21  1  0  0  0  0
  9 22  1  0  0  0  0
 10 13  2  0  0  0  0
 10 17  1  0  0  0  0
 11 12  2  0  0  0  0
 11 18  1  0  0  0  0
 12 20  1  0  0  0  0
 13 19  1  0  0  0  0
 16 23  2  0  0  0  0
 16 24  1  0  0  0  0
 17 27  2  0  0  0  0
 18 30  2  0  0  0  0
 19 28  2  0  0  0  0
 20 31  2  0  0  0  0
 23 25  1  0  0  0  0
 24 26  2  0  0  0  0
 25 29  2  0  0  0  0
 25 32  1  0  0  0  0
 26 29  1  0  0  0  0
 26 33  1  0  0  0  0
 27 28  1  0  0  0  0
 30 31  1  0  0  0  0
M  END
> <PUBCHEM_COMPOUND_ID_TYPE>
0

> <PUBCHEM_TOTAL_CHARGE>
0

> <PUBCHEM_SUBSTANCE_ID>
310944409

> <PUBCHEM_SUBSTANCE_VERSION>
1

> <PUBCHEM_EXT_DATASOURCE_NAME>
4488

> <PUBCHEM_EXT_DATASOURCE_REGID>
SCHEMBL16122484

> <PUBCHEM_SUBSTANCE_COMMENT>
InChI=1S/C29H18FN3/c1-29(2)24-9-5-3-7-20(24)22-13-23-21-8-4-6-10-26(21)33(27(23)14-25(22)29)19-11-17(15-31)28(30)18(12-19)16-32/h3-14H,1-2H3
InChIKey=IGLYCIHTSHBKEI-UHFFFAOYSA-N

> <PUBCHEM_SUBSTANCE_SYNONYM>
SCHEMBL16122484

> <PUBCHEM_XREF_EXT_ID>
SCHEMBL16122484

> <PUBCHEM_EXT_DATASOURCE_URL>
https://www.surechembl.org/

> <PUBCHEM_EXT_SUBSTANCE_URL>
https://www.surechembl.org/chemical/SCHEMBL16122484

> <PUBCHEM_CID_ASSOCIATIONS>
117610666  1

> <PUBCHEM_COORDINATE_TYPE>
1
3

$$$$
