310943703
  -OEChem-07211613022D

 36 39  0     0  0  0  0  0  0999 V2000
    4.6259    2.2764    0.0000 F   0  0  0  0  0  0  0  0  0  0  0  0
    5.3432    1.8665    0.0000 F   0  0  0  0  0  0  0  0  0  0  0  0
    5.3286    1.0320    0.0000 F   0  0  0  0  0  0  0  0  0  0  0  0
   -2.4887   -1.0320    0.0000 O   0  0  0  0  0  0  0  0  0  0  0  0
    1.7713    2.2618    0.0000 O   0  0  0  0  0  0  0  0  0  0  0  0
   -5.3432    2.2618    0.0000 O   0  0  0  0  0  0  0  0  0  0  0  0
   -1.0687   -2.6863    0.0000 O   0  0  0  0  0  0  0  0  0  0  0  0
   -3.9233    1.4419    0.0000 N   0  0  0  0  0  0  0  0  0  0  0  0
   -3.2060    0.2123    0.0000 N   0  0  0  0  0  0  0  0  0  0  0  0
    1.0540    1.0320    0.0000 N   0  0  0  0  0  0  0  0  0  0  0  0
    2.4740    0.2123    0.0000 N   0  0  0  0  0  0  0  0  0  0  0  0
   -1.7713    1.0467    0.0000 C   0  0  0  0  0  0  0  0  0  0  0  0
   -1.0687    1.4566    0.0000 C   0  0  0  0  0  0  0  0  0  0  0  0
   -3.2060    1.0467    0.0000 C   0  0  0  0  0  0  0  0  0  0  0  0
   -2.5033    1.4419    0.0000 C   0  0  0  0  0  0  0  0  0  0  0  0
   -1.0687    2.2764    0.0000 C   0  0  0  0  0  0  0  0  0  0  0  0
    0.3367    1.4566    0.0000 C   0  0  0  0  0  0  0  0  0  0  0  0
   -0.3513    1.0467    0.0000 C   0  0  0  0  0  0  0  0  0  0  0  0
   -1.7860    0.2123    0.0000 C   0  0  0  0  0  0  0  0  0  0  0  0
   -2.4887   -0.1976    0.0000 C   0  0  0  0  0  0  0  0  0  0  0  0
    2.4887    1.0467    0.0000 C   0  0  0  0  0  0  0  0  0  0  0  0
    3.9087    1.0467    0.0000 C   0  0  0  0  0  0  0  0  0  0  0  0
    1.7567    1.4273    0.0000 C   0  0  0  0  0  0  0  0  0  0  0  0
    4.6405    1.4566    0.0000 C   0  0  0  0  0  0  0  0  0  0  0  0
   -0.3660    2.6717    0.0000 C   0  0  0  0  0  0  0  0  0  0  0  0
    3.1767    1.4419    0.0000 C   0  0  0  0  0  0  0  0  0  0  0  0
    0.3513    2.2618    0.0000 C   0  0  0  0  0  0  0  0  0  0  0  0
    3.8940    0.1976    0.0000 C   0  0  0  0  0  0  0  0  0  0  0  0
   -3.9087    2.2618    0.0000 C   0  0  0  0  0  0  0  0  0  0  0  0
   -4.6113    1.0467    0.0000 C   0  0  0  0  0  0  0  0  0  0  0  0
    3.2060   -0.1976    0.0000 C   0  0  0  0  0  0  0  0  0  0  0  0
   -1.8006    2.6717    0.0000 C   0  0  0  0  0  0  0  0  0  0  0  0
   -4.6259    2.6863    0.0000 C   0  0  0  0  0  0  0  0  0  0  0  0
   -5.3432    1.4419    0.0000 C   0  0  0  0  0  0  0  0  0  0  0  0
   -1.7860   -1.4419    0.0000 C   0  0  0  0  0  0  0  0  0  0  0  0
   -1.7860   -2.2618    0.0000 C   0  0  0  0  0  0  0  0  0  0  0  0
  1 24  1  0  0  0  0
  2 24  1  0  0  0  0
  3 24  1  0  0  0  0
  4 20  1  0  0  0  0
  4 35  1  0  0  0  0
  5 23  2  0  0  0  0
  6 33  1  0  0  0  0
  6 34  1  0  0  0  0
  7 36  1  0  0  0  0
  8 14  1  0  0  0  0
  8 29  1  0  0  0  0
  8 30  1  0  0  0  0
  9 14  1  0  0  0  0
  9 20  2  0  0  0  0
 10 17  1  0  0  0  0
 10 23  1  0  0  0  0
 11 21  2  0  0  0  0
 11 31  1  0  0  0  0
 12 13  1  0  0  0  0
 12 15  1  0  0  0  0
 12 19  2  0  0  0  0
 13 16  1  0  0  0  0
 13 18  2  0  0  0  0
 14 15  2  0  0  0  0
 16 25  2  0  0  0  0
 16 32  1  0  0  0  0
 17 18  1  0  0  0  0
 17 27  2  0  0  0  0
 19 20  1  0  0  0  0
 21 23  1  0  0  0  0
 21 26  1  0  0  0  0
 22 24  1  0  0  0  0
 22 26  2  0  0  0  0
 22 28  1  0  0  0  0
 25 27  1  0  0  0  0
 28 31  2  0  0  0  0
 29 33  1  0  0  0  0
 30 34  1  0  0  0  0
 35 36  1  0  0  0  0
M  END
> <PUBCHEM_COMPOUND_ID_TYPE>
0

> <PUBCHEM_TOTAL_CHARGE>
0

> <PUBCHEM_SUBSTANCE_ID>
310943703

> <PUBCHEM_SUBSTANCE_VERSION>
1

> <PUBCHEM_EXT_DATASOURCE_NAME>
4488

> <PUBCHEM_EXT_DATASOURCE_REGID>
SCHEMBL16121771

> <PUBCHEM_SUBSTANCE_COMMENT>
InChI=1S/C25H25F3N4O4/c1-16-2-3-19(30-24(34)21-14-18(4-5-29-21)25(26,27)28)15-20(16)17-12-22(32-6-9-35-10-7-32)31-23(13-17)36-11-8-33/h2-5,12-15,33H,6-11H2,1H3,(H,30,34)
InChIKey=USJAEJZDPVWJNJ-UHFFFAOYSA-N

> <PUBCHEM_SUBSTANCE_SYNONYM>
SCHEMBL16121771

> <PUBCHEM_XREF_EXT_ID>
SCHEMBL16121771

> <PUBCHEM_EXT_DATASOURCE_URL>
https://www.surechembl.org/

> <PUBCHEM_EXT_SUBSTANCE_URL>
https://www.surechembl.org/chemical/SCHEMBL16121771

> <PUBCHEM_CID_ASSOCIATIONS>
117610088  1

> <PUBCHEM_COORDINATE_TYPE>
1
3

$$$$
