310947785
  -OEChem-07211613022D

 25 25  0     1  0  0  0  0  0999 V2000
    3.5670   -1.4960    0.0000 S   0  0  0  0  0  0  0  0  0  0  0  0
    2.7386   -1.4960    0.0000 O   0  0  0  0  0  0  0  0  0  0  0  0
   -0.1174   -1.4960    0.0000 O   0  0  0  0  0  0  0  0  0  0  0  0
   -0.1174    1.7928    0.0000 O   0  0  0  0  0  0  0  0  0  0  0  0
   -1.5517    0.9768    0.0000 O   0  0  0  0  0  0  0  0  0  0  0  0
    3.9750   -0.7913    0.0000 O   0  0  0  0  0  0  0  0  0  0  0  0
    3.9750   -2.2132    0.0000 O   0  0  0  0  0  0  0  0  0  0  0  0
    4.3830   -1.4960    0.0000 O   0  0  0  0  0  0  0  0  0  0  0  0
    0.6121   -0.2596    0.0000 N   0  0  0  0  0  0  0  0  0  0  0  0
    2.0339   -1.0880    0.0000 N   0  0  0  0  0  0  0  0  0  0  0  0
   -0.8098    0.5688    0.0000 N   0  0  0  0  0  0  0  0  0  0  0  0
   -3.6659    0.5688    0.0000 N   0  0  0  0  0  0  0  0  0  0  0  0
    0.6121    0.5564    0.0000 C   0  0  3  0  0  0  0  0  0  0  0  0
    0.6121   -1.0633    0.0000 C   0  0  0  0  0  0  0  0  0  0  0  0
   -0.1546    0.9396    0.0000 C   0  0  0  0  0  0  0  0  0  0  0  0
    1.3291   -0.6676    0.0000 C   0  0  0  0  0  0  0  0  0  0  0  0
    1.3167    0.9768    0.0000 C   0  0  0  0  0  0  0  0  0  0  0  0
    2.0215   -0.2720    0.0000 C   0  0  0  0  0  0  0  0  0  0  0  0
    2.0339    0.5564    0.0000 C   0  0  0  0  0  0  0  0  0  0  0  0
   -2.9735    0.9768    0.0000 C   0  0  3  0  0  0  0  0  0  0  0  0
   -2.2441    0.5688    0.0000 C   0  0  0  0  0  0  0  0  0  0  0  0
   -2.9611    1.8051    0.0000 C   0  0  0  0  0  0  0  0  0  0  0  0
   -3.6659    2.2008    0.0000 C   0  0  0  0  0  0  0  0  0  0  0  0
   -2.2565    2.2132    0.0000 C   0  0  0  0  0  0  0  0  0  0  0  0
   -4.3830    0.9644    0.0000 C   0  0  0  0  0  0  0  0  0  0  0  0
  1  2  1  0  0  0  0
  1  6  2  0  0  0  0
  1  7  2  0  0  0  0
  1  8  1  0  0  0  0
  2 10  1  0  0  0  0
  3 14  2  0  0  0  0
  4 15  2  0  0  0  0
  5 11  1  0  0  0  0
  5 21  1  0  0  0  0
  9 13  1  0  0  0  0
  9 14  1  0  0  0  0
  9 16  1  0  0  0  0
 10 14  1  0  0  0  0
 11 15  1  0  0  0  0
 12 20  1  0  0  0  0
 12 25  1  0  0  0  0
 13 15  1  6  0  0  0
 13 17  1  0  0  0  0
 16 18  1  0  0  0  0
 17 19  1  0  0  0  0
 18 19  1  0  0  0  0
 20 21  1  0  0  0  0
 20 22  1  0  0  0  0
 22 23  1  0  0  0  0
 22 24  1  0  0  0  0
M  END
> <PUBCHEM_COMPOUND_ID_TYPE>
0

> <PUBCHEM_TOTAL_CHARGE>
0

> <PUBCHEM_SUBSTANCE_ID>
310947785

> <PUBCHEM_SUBSTANCE_VERSION>
1

> <PUBCHEM_EXT_DATASOURCE_NAME>
4488

> <PUBCHEM_EXT_DATASOURCE_REGID>
SCHEMBL16125957

> <PUBCHEM_SUBSTANCE_COMMENT>
InChI=1S/C13H26N4O7S/c1-9(2)10(14-3)8-23-15-12(18)11-6-4-5-7-17(11)13(19)16-24-25(20,21)22/h9-11,14H,4-8H2,1-3H3,(H,15,18)(H,16,19)(H,20,21,22)/t10?,11-/m0/s1
InChIKey=NLEGKFYBHKGECO-DTIOYNMSSA-N

> <PUBCHEM_SUBSTANCE_SYNONYM>
SCHEMBL16125957

> <PUBCHEM_XREF_EXT_ID>
SCHEMBL16125957

> <PUBCHEM_EXT_DATASOURCE_URL>
https://www.surechembl.org/

> <PUBCHEM_EXT_SUBSTANCE_URL>
https://www.surechembl.org/chemical/SCHEMBL16125957

> <PUBCHEM_CID_ASSOCIATIONS>
117613454  1

> <PUBCHEM_COORDINATE_TYPE>
1
3

> <PUBCHEM_BONDANNOTATIONS>
13  15  6

$$$$
