310929862
  -OEChem-07211613022D

 55 57  0     1  0  0  0  0  0999 V2000
   -2.1434   -2.8875    0.0000 O   0  0  0  0  0  0  0  0  0  0  0  0
   -0.7145   -1.2375    0.0000 O   0  0  0  0  0  0  0  0  0  0  0  0
   -3.5724   -2.8875    0.0000 O   0  0  0  0  0  0  0  0  0  0  0  0
   -1.4289   -4.9500    0.0000 O   0  0  0  0  0  0  0  0  0  0  0  0
    0.2822   -1.6998    0.0000 O   0  0  0  0  0  0  0  0  0  0  0  0
   -4.1027   -5.1695    0.0000 O   0  0  0  0  0  0  0  0  0  0  0  0
   -0.3873   -5.6784    0.0000 O   0  0  0  0  0  0  0  0  0  0  0  0
    1.4289   -4.9500    0.0000 O   0  0  0  0  0  0  0  0  0  0  0  0
   -1.4289    0.0000    0.0000 O   0  0  0  0  0  0  0  0  0  0  0  0
   -5.0013   -4.5375    0.0000 O   0  0  0  0  0  0  0  0  0  0  0  0
   -2.8579   -4.9500    0.0000 O   0  0  0  0  0  0  0  0  0  0  0  0
    2.8579   -3.3000    0.0000 O   0  0  0  0  0  0  0  0  0  0  0  0
   -3.5724   -1.2375    0.0000 O   0  0  0  0  0  0  0  0  0  0  0  0
    4.2868   -3.3000    0.0000 O   0  0  0  0  0  0  0  0  0  0  0  0
    6.4302   -3.7125    0.0000 O   0  0  0  0  0  0  0  0  0  0  0  0
    2.1434   -3.7125    0.0000 N   0  0  0  0  0  0  0  0  0  0  0  0
   -0.7145   -2.0625    0.0000 C   0  0  3  0  0  0  0  0  0  0  0  0
    0.0000   -2.4750    0.0000 C   0  0  3  0  0  0  0  0  0  0  0  0
   -1.4289   -3.3000    0.0000 C   0  0  3  0  0  0  0  0  0  0  0  0
   -1.4289   -2.4750    0.0000 C   0  0  3  0  0  0  0  0  0  0  0  0
   -3.5724   -4.5375    0.0000 C   0  0  3  0  0  0  0  0  0  0  0  0
    0.0000   -4.9500    0.0000 C   0  0  3  0  0  0  0  0  0  0  0  0
   -2.1434   -3.7125    0.0000 C   0  0  3  0  0  0  0  0  0  0  0  0
   -2.8579   -3.3000    0.0000 C   0  0  3  0  0  0  0  0  0  0  0  0
    0.7145   -4.5375    0.0000 C   0  0  3  0  0  0  0  0  0  0  0  0
   -4.2868   -4.1250    0.0000 C   0  0  3  0  0  0  0  0  0  0  0  0
   -0.7145   -4.5375    0.0000 C   0  0  3  0  0  0  0  0  0  0  0  0
    0.7145   -2.0625    0.0000 C   0  0  0  0  0  0  0  0  0  0  0  0
    0.7145   -3.7125    0.0000 C   0  0  3  0  0  0  0  0  0  0  0  0
    1.4289   -3.3000    0.0000 C   0  0  0  0  0  0  0  0  0  0  0  0
   -2.8579   -4.1250    0.0000 C   0  0  0  0  0  0  0  0  0  0  0  0
    1.4289   -2.4750    0.0000 C   0  0  3  0  0  0  0  0  0  0  0  0
   -2.1434   -4.5375    0.0000 C   0  0  0  0  0  0  0  0  0  0  0  0
   -4.2868   -3.3000    0.0000 C   0  0  3  0  0  0  0  0  0  0  0  0
   -1.4289   -0.8250    0.0000 C   0  0  3  0  0  0  0  0  0  0  0  0
   -0.2822   -1.6998    0.0000 C   0  0  0  0  0  0  0  0  0  0  0  0
   -2.1434   -2.0625    0.0000 C   0  0  0  0  0  0  0  0  0  0  0  0
   -3.0421   -5.1695    0.0000 C   0  0  0  0  0  0  0  0  0  0  0  0
    0.3873   -5.6784    0.0000 C   0  0  0  0  0  0  0  0  0  0  0  0
   -0.7145   -5.3625    0.0000 C   0  0  0  0  0  0  0  0  0  0  0  0
   -2.9639   -3.7987    0.0000 C   0  0  0  0  0  0  0  0  0  0  0  0
   -2.1434   -1.2375    0.0000 C   0  0  0  0  0  0  0  0  0  0  0  0
    0.0000   -3.3000    0.0000 C   0  0  0  0  0  0  0  0  0  0  0  0
    2.1434   -2.0625    0.0000 C   0  0  0  0  0  0  0  0  0  0  0  0
   -5.0013   -2.8875    0.0000 C   0  0  0  0  0  0  0  0  0  0  0  0
   -2.1434    0.4125    0.0000 C   0  0  3  0  0  0  0  0  0  0  0  0
   -2.8579   -0.8250    0.0000 C   0  0  3  0  0  0  0  0  0  0  0  0
   -2.8579    0.0000    0.0000 C   0  0  0  0  0  0  0  0  0  0  0  0
   -3.8205   -5.9447    0.0000 C   0  0  0  0  0  0  0  0  0  0  0  0
   -1.4289   -5.7750    0.0000 C   0  0  0  0  0  0  0  0  0  0  0  0
   -2.1434    1.2375    0.0000 C   0  0  0  0  0  0  0  0  0  0  0  0
    3.5724   -3.7125    0.0000 C   0  0  0  0  0  0  0  0  0  0  0  0
    5.0013   -3.7125    0.0000 C   0  0  0  0  0  0  0  0  0  0  0  0
    5.7158   -3.3000    0.0000 C   0  0  0  0  0  0  0  0  0  0  0  0
    7.1447   -3.3000    0.0000 C   0  0  0  0  0  0  0  0  0  0  0  0
 19  1  1  6  0  0  0
 24  1  1  1  0  0  0
 17  2  1  1  0  0  0
 35  2  1  1  0  0  0
  3 24  1  0  0  0  0
  3 34  1  0  0  0  0
  4 27  1  0  0  0  0
  4 33  1  0  0  0  0
 18  5  1  6  0  0  0
 21  6  1  1  0  0  0
  6 49  1  0  0  0  0
 22  7  1  6  0  0  0
 25  8  1  1  0  0  0
  9 35  1  0  0  0  0
  9 46  1  0  0  0  0
 26 10  1  1  0  0  0
 11 33  2  0  0  0  0
 12 16  1  0  0  0  0
 12 52  1  0  0  0  0
 47 13  1  6  0  0  0
 14 52  1  0  0  0  0
 14 53  1  0  0  0  0
 15 54  1  0  0  0  0
 15 55  1  0  0  0  0
 16 30  2  0  0  0  0
 17 18  1  0  0  0  0
 17 20  1  0  0  0  0
 18 28  1  0  0  0  0
 18 36  1  1  0  0  0
 19 20  1  0  0  0  0
 19 23  1  0  0  0  0
 20 37  1  6  0  0  0
 21 26  1  0  0  0  0
 21 31  1  0  0  0  0
 21 38  1  6  0  0  0
 22 25  1  0  0  0  0
 22 27  1  0  0  0  0
 22 39  1  1  0  0  0
 23 33  1  0  0  0  0
 23 41  1  6  0  0  0
 24 31  1  0  0  0  0
 25 29  1  0  0  0  0
 26 34  1  0  0  0  0
 27 40  1  6  0  0  0
 28 32  1  0  0  0  0
 29 30  1  0  0  0  0
 29 43  1  1  0  0  0
 30 32  1  0  0  0  0
 32 44  1  1  0  0  0
 34 45  1  6  0  0  0
 35 42  1  0  0  0  0
 40 50  1  0  0  0  0
 42 47  1  0  0  0  0
 46 48  1  0  0  0  0
 46 51  1  1  0  0  0
 47 48  1  0  0  0  0
 53 54  1  0  0  0  0
M  END
> <PUBCHEM_COMPOUND_ID_TYPE>
0

> <PUBCHEM_TOTAL_CHARGE>
0

> <PUBCHEM_SUBSTANCE_ID>
310929862

> <PUBCHEM_SUBSTANCE_VERSION>
1

> <PUBCHEM_EXT_DATASOURCE_NAME>
4488

> <PUBCHEM_EXT_DATASOURCE_REGID>
SCHEMBL16107077

> <PUBCHEM_SUBSTANCE_COMMENT>
InChI=1S/C39H71NO15/c1-13-28-39(10,46)33(42)23(4)31(40-50-20-49-15-14-47-11)21(2)18-37(8,45)35(55-29-17-27(41)16-22(3)51-29)24(5)32(25(6)36(44)53-28)54-30-19-38(9,48-12)34(43)26(7)52-30/h21-30,32-35,41-43,45-46H,13-20H2,1-12H3/b40-31+/t21-,22-,23+,24+,25-,26+,27-,28-,29+,30+,32+,33-,34+,35-,37-,38-,39-/m1/s1
InChIKey=LJIXYKZKVMVJHV-GLOPKAGXSA-N

> <PUBCHEM_SUBSTANCE_SYNONYM>
SCHEMBL16107077

> <PUBCHEM_XREF_EXT_ID>
SCHEMBL16107077

> <PUBCHEM_EXT_DATASOURCE_URL>
https://www.surechembl.org/

> <PUBCHEM_EXT_SUBSTANCE_URL>
https://www.surechembl.org/chemical/SCHEMBL16107077

> <PUBCHEM_CID_ASSOCIATIONS>
117599132  1

> <PUBCHEM_COORDINATE_TYPE>
1
3

> <PUBCHEM_BONDANNOTATIONS>
19  1  6
24  1  5
26  10  5
16  12  3
47  13  6
18  36  5
17  2  5
35  2  5
20  37  6
21  38  6
22  39  5
23  41  6
27  40  6
29  43  5
32  44  5
34  45  6
46  51  5
18  5  6
21  6  5
22  7  6
25  8  5

$$$$
