310941854
  -OEChem-07211613022D

 17 17  0     0  0  0  0  0  0999 V2000
    0.7224    0.8282    0.0000 N   0  0  0  0  0  0  0  0  0  0  0  0
   -0.0125   -0.4172    0.0000 C   0  0  0  0  0  0  0  0  0  0  0  0
   -0.0125    0.4172    0.0000 C   0  0  0  0  0  0  0  0  0  0  0  0
    0.7099   -0.8157    0.0000 C   0  0  0  0  0  0  0  0  0  0  0  0
   -0.7099   -0.8282    0.0000 C   0  0  0  0  0  0  0  0  0  0  0  0
   -0.7224    0.8282    0.0000 C   0  0  0  0  0  0  0  0  0  0  0  0
   -0.7224    1.6627    0.0000 C   0  0  0  0  0  0  0  0  0  0  0  0
    0.7099   -1.6502    0.0000 C   0  0  0  0  0  0  0  0  0  0  0  0
   -0.7099   -1.6627    0.0000 C   0  0  0  0  0  0  0  0  0  0  0  0
    0.0000   -2.0737    0.0000 C   0  0  0  0  0  0  0  0  0  0  0  0
   -0.0125    2.0737    0.0000 C   0  0  0  0  0  0  0  0  0  0  0  0
    0.4857    0.7659    0.0000 C   0  0  0  0  0  0  0  0  0  0  0  0
    0.7099    1.6751    0.0000 C   0  0  0  0  0  0  0  0  0  0  0  0
    1.4323   -0.4172    0.0000 C   0  0  0  0  0  0  0  0  0  0  0  0
   -1.4323    2.0612    0.0000 C   0  0  0  0  0  0  0  0  0  0  0  0
    1.4323    2.0737    0.0000 C   0  0  0  0  0  0  0  0  0  0  0  0
    1.4323    0.4048    0.0000 C   0  0  0  0  0  0  0  0  0  0  0  0
  1 13  1  0  0  0  0
  1 17  1  0  0  0  0
  2  3  1  0  0  0  0
  2  4  1  0  0  0  0
  2  5  2  0  0  0  0
  3  6  1  0  0  0  0
  3 12  2  0  0  0  0
  4  8  2  0  0  0  0
  4 14  1  0  0  0  0
  5  9  1  0  0  0  0
  6  7  2  0  0  0  0
  7 11  1  0  0  0  0
  7 15  1  0  0  0  0
  8 10  1  0  0  0  0
  9 10  2  0  0  0  0
 11 13  2  0  0  0  0
 13 16  1  0  0  0  0
M  END
> <PUBCHEM_COMPOUND_ID_TYPE>
0

> <PUBCHEM_TOTAL_CHARGE>
0

> <PUBCHEM_SUBSTANCE_ID>
310941854

> <PUBCHEM_SUBSTANCE_VERSION>
1

> <PUBCHEM_EXT_DATASOURCE_NAME>
4488

> <PUBCHEM_EXT_DATASOURCE_REGID>
SCHEMBL16119886

> <PUBCHEM_SUBSTANCE_COMMENT>
InChI=1S/C16H21N/c1-12(11-15(4)17-5)10-14(3)16-9-7-6-8-13(16)2/h6-11,17H,3H2,1-2,4-5H3/b12-10-,15-11-
InChIKey=PRAHBCBCJLPMEV-KQWKDUQZSA-N

> <PUBCHEM_SUBSTANCE_SYNONYM>
SCHEMBL16119886

> <PUBCHEM_XREF_EXT_ID>
SCHEMBL16119886

> <PUBCHEM_EXT_DATASOURCE_URL>
https://www.surechembl.org/

> <PUBCHEM_EXT_SUBSTANCE_URL>
https://www.surechembl.org/chemical/SCHEMBL16119886

> <PUBCHEM_CID_ASSOCIATIONS>
117608595  1

> <PUBCHEM_COORDINATE_TYPE>
1
3

$$$$
