310948061
  -OEChem-07211613022D

 42 46  0     0  0  0  0  0  0999 V2000
    3.4511   -2.5574    0.0000 S   0  0  0  0  0  0  0  0  0  0  0  0
   -4.1661   -0.5637    0.0000 F   0  0  0  0  0  0  0  0  0  0  0  0
   -4.0836    0.2613    0.0000 F   0  0  0  0  0  0  0  0  0  0  0  0
    3.4374    3.2724    0.0000 F   0  0  0  0  0  0  0  0  0  0  0  0
    2.3924    2.7637    0.0000 F   0  0  0  0  0  0  0  0  0  0  0  0
    3.9049    2.2137    0.0000 F   0  0  0  0  0  0  0  0  0  0  0  0
    2.8874    1.7324    0.0000 O   0  0  0  0  0  0  0  0  0  0  0  0
    4.1661   -2.9699    0.0000 O   0  0  0  0  0  0  0  0  0  0  0  0
    4.1661   -2.1450    0.0000 O   0  0  0  0  0  0  0  0  0  0  0  0
   -1.4850   -1.1275    0.0000 N   0  0  0  0  0  0  0  0  0  0  0  0
   -0.6600    0.3025    0.0000 N   0  0  0  0  0  0  0  0  0  0  0  0
   -1.9662   -0.4675    0.0000 N   0  0  0  0  0  0  0  0  0  0  0  0
   -1.4712    0.3850    0.0000 N   0  0  0  0  0  0  0  0  0  0  0  0
   -1.6499    1.1824    0.0000 N   0  0  0  0  0  0  0  0  0  0  0  0
   -0.2475   -0.4125    0.0000 C   0  0  0  0  0  0  0  0  0  0  0  0
   -0.6600   -1.1275    0.0000 C   0  0  0  0  0  0  0  0  0  0  0  0
   -0.3300    1.0587    0.0000 C   0  0  0  0  0  0  0  0  0  0  0  0
   -1.9662   -1.7875    0.0000 C   0  0  0  0  0  0  0  0  0  0  0  0
    0.5775   -0.4125    0.0000 C   0  0  0  0  0  0  0  0  0  0  0  0
    0.9899   -1.1137    0.0000 C   0  0  0  0  0  0  0  0  0  0  0  0
   -2.7362   -0.7012    0.0000 C   0  0  0  0  0  0  0  0  0  0  0  0
   -0.2337   -1.8287    0.0000 C   0  0  0  0  0  0  0  0  0  0  0  0
    0.4812    1.2237    0.0000 C   0  0  0  0  0  0  0  0  0  0  0  0
   -2.7499   -1.5262    0.0000 C   0  0  0  0  0  0  0  0  0  0  0  0
    1.8149   -1.1137    0.0000 C   0  0  0  0  0  0  0  0  0  0  0  0
    0.5775   -1.8287    0.0000 C   0  0  0  0  0  0  0  0  0  0  0  0
   -3.4374   -0.2062    0.0000 C   0  0  0  0  0  0  0  0  0  0  0  0
   -0.9350    1.6087    0.0000 C   0  0  0  0  0  0  0  0  0  0  0  0
    2.2274   -1.8287    0.0000 C   0  0  0  0  0  0  0  0  0  0  0  0
    3.0524   -1.8287    0.0000 C   0  0  0  0  0  0  0  0  0  0  0  0
    1.0587    0.6188    0.0000 C   0  0  0  0  0  0  0  0  0  0  0  0
    0.7425    2.0074    0.0000 C   0  0  0  0  0  0  0  0  0  0  0  0
    2.2274   -0.4125    0.0000 C   0  0  0  0  0  0  0  0  0  0  0  0
   -1.7187   -2.5849    0.0000 C   0  0  0  0  0  0  0  0  0  0  0  0
    2.0899    1.5812    0.0000 C   0  0  0  0  0  0  0  0  0  0  0  0
    1.8287    0.7974    0.0000 C   0  0  0  0  0  0  0  0  0  0  0  0
    1.5399    2.1724    0.0000 C   0  0  0  0  0  0  0  0  0  0  0  0
    3.4511   -1.1137    0.0000 C   0  0  0  0  0  0  0  0  0  0  0  0
   -3.3274    0.6050    0.0000 C   0  0  0  0  0  0  0  0  0  0  0  0
    3.0387   -0.4125    0.0000 C   0  0  0  0  0  0  0  0  0  0  0  0
    3.1624    2.5161    0.0000 C   0  0  0  0  0  0  0  0  0  0  0  0
    3.0661   -3.2724    0.0000 C   0  0  0  0  0  0  0  0  0  0  0  0
  1  8  2  0  0  0  0
  1  9  2  0  0  0  0
  1 30  1  0  0  0  0
  1 42  1  0  0  0  0
  2 27  1  0  0  0  0
  3 27  1  0  0  0  0
  4 41  1  0  0  0  0
  5 41  1  0  0  0  0
  6 41  1  0  0  0  0
  7 35  1  0  0  0  0
  7 41  1  0  0  0  0
 10 12  1  0  0  0  0
 10 16  1  0  0  0  0
 10 18  1  0  0  0  0
 11 13  1  0  0  0  0
 11 15  1  0  0  0  0
 11 17  1  0  0  0  0
 12 21  2  0  0  0  0
 13 14  2  0  0  0  0
 14 28  1  0  0  0  0
 15 16  1  0  0  0  0
 15 19  2  0  0  0  0
 16 22  2  0  0  0  0
 17 23  1  0  0  0  0
 17 28  2  0  0  0  0
 18 24  2  0  0  0  0
 18 34  1  0  0  0  0
 19 20  1  0  0  0  0
 20 25  1  0  0  0  0
 20 26  2  0  0  0  0
 21 24  1  0  0  0  0
 21 27  1  0  0  0  0
 22 26  1  0  0  0  0
 23 31  2  0  0  0  0
 23 32  1  0  0  0  0
 25 29  2  0  0  0  0
 25 33  1  0  0  0  0
 27 39  1  0  0  0  0
 29 30  1  0  0  0  0
 30 38  2  0  0  0  0
 31 36  1  0  0  0  0
 32 37  2  0  0  0  0
 33 40  2  0  0  0  0
 35 36  2  0  0  0  0
 35 37  1  0  0  0  0
 38 40  1  0  0  0  0
M  END
> <PUBCHEM_COMPOUND_ID_TYPE>
0

> <PUBCHEM_TOTAL_CHARGE>
0

> <PUBCHEM_SUBSTANCE_ID>
310948061

> <PUBCHEM_SUBSTANCE_VERSION>
1

> <PUBCHEM_EXT_DATASOURCE_NAME>
4488

> <PUBCHEM_EXT_DATASOURCE_REGID>
SCHEMBL16126236

> <PUBCHEM_SUBSTANCE_COMMENT>
InChI=1S/C28H22F5N5O3S/c1-17-13-26(27(2,29)30)35-37(17)23-12-9-20(19-5-4-6-22(14-19)42(3,39)40)15-24(23)38-25(16-34-36-38)18-7-10-21(11-8-18)41-28(31,32)33/h4-16H,1-3H3
InChIKey=JPAFPHLGOABLBB-UHFFFAOYSA-N

> <PUBCHEM_SUBSTANCE_SYNONYM>
SCHEMBL16126236

> <PUBCHEM_XREF_EXT_ID>
SCHEMBL16126236

> <PUBCHEM_EXT_DATASOURCE_URL>
https://www.surechembl.org/

> <PUBCHEM_EXT_SUBSTANCE_URL>
https://www.surechembl.org/chemical/SCHEMBL16126236

> <PUBCHEM_CID_ASSOCIATIONS>
117613686  1

> <PUBCHEM_COORDINATE_TYPE>
1
3

$$$$
