310948004
  -OEChem-07211613022D

 33 37  0     1  0  0  0  0  0999 V2000
   -2.1920   -0.5517    0.0000 O   0  0  0  0  0  0  0  0  0  0  0  0
   -2.4863   -2.5083    0.0000 O   0  0  0  0  0  0  0  0  0  0  0  0
   -2.5010    1.6256    0.0000 O   0  0  0  0  0  0  0  0  0  0  0  0
   -3.2071   -1.2726    0.0000 O   0  0  0  0  0  0  0  0  0  0  0  0
    2.5157    1.2137    0.0000 O   0  0  0  0  0  0  0  0  0  0  0  0
    1.8096    2.4642    0.0000 O   0  0  0  0  0  0  0  0  0  0  0  0
    1.0739   -1.3020    0.0000 N   0  0  3  0  0  0  0  0  0  0  0  0
   -1.0739   -0.8165    0.0000 C   0  0  3  0  0  0  0  0  0  0  0  0
   -1.0739    0.0073    0.0000 C   0  0  0  0  0  0  0  0  0  0  0  0
   -1.7801   -1.2432    0.0000 C   0  0  3  0  0  0  0  0  0  0  0  0
   -0.3530   -1.2284    0.0000 C   0  0  3  0  0  0  0  0  0  0  0  0
   -1.7801    0.4193    0.0000 C   0  0  0  0  0  0  0  0  0  0  0  0
   -0.3678    0.4340    0.0000 C   0  0  0  0  0  0  0  0  0  0  0  0
    0.3384   -0.8312    0.0000 C   0  0  3  0  0  0  0  0  0  0  0  0
   -0.4855   -0.3752    0.0000 C   0  0  0  0  0  0  0  0  0  0  0  0
   -1.7801   -2.0523    0.0000 C   0  0  3  0  0  0  0  0  0  0  0  0
    0.3530    0.0073    0.0000 C   0  0  0  0  0  0  0  0  0  0  0  0
   -0.3530    1.2579    0.0000 C   0  0  0  0  0  0  0  0  0  0  0  0
   -1.7801    1.2432    0.0000 C   0  0  0  0  0  0  0  0  0  0  0  0
   -0.3678   -2.0670    0.0000 C   0  0  0  0  0  0  0  0  0  0  0  0
    0.8238   -0.3899    0.0000 C   0  0  0  0  0  0  0  0  0  0  0  0
   -1.0739   -2.4789    0.0000 C   0  0  0  0  0  0  0  0  0  0  0  0
   -1.0739    1.6404    0.0000 C   0  0  0  0  0  0  0  0  0  0  0  0
    0.3384    1.6551    0.0000 C   0  0  0  0  0  0  0  0  0  0  0  0
    1.8831   -1.0666    0.0000 C   0  0  0  0  0  0  0  0  0  0  0  0
   -3.2366   -2.0817    0.0000 C   0  0  0  0  0  0  0  0  0  0  0  0
    1.0887    1.2579    0.0000 C   0  0  0  0  0  0  0  0  0  0  0  0
    1.7801    1.6404    0.0000 C   0  0  0  0  0  0  0  0  0  0  0  0
   -3.9575   -2.5083    0.0000 C   0  0  0  0  0  0  0  0  0  0  0  0
    3.2366    1.6698    0.0000 C   0  0  0  0  0  0  0  0  0  0  0  0
    3.2366    2.5083    0.0000 C   0  0  0  0  0  0  0  0  0  0  0  0
    3.9575    2.0817    0.0000 C   0  0  0  0  0  0  0  0  0  0  0  0
    3.9575    1.2284    0.0000 C   0  0  0  0  0  0  0  0  0  0  0  0
 10  1  1  6  0  0  0
  1 12  1  0  0  0  0
 16  2  1  6  0  0  0
  2 26  1  0  0  0  0
  3 19  1  0  0  0  0
  4 26  2  0  0  0  0
  5 28  1  0  0  0  0
  5 30  1  0  0  0  0
  6 28  2  0  0  0  0
 14  7  1  1  0  0  0
  7 21  1  0  0  0  0
  7 25  1  0  0  0  0
  8  9  1  6  0  0  0
  8 10  1  0  0  0  0
  8 11  1  0  0  0  0
  8 15  1  0  0  0  0
  9 12  1  0  0  0  0
  9 13  2  0  0  0  0
 10 16  1  0  0  0  0
 11 14  1  0  0  0  0
 11 20  1  0  0  0  0
 12 19  2  0  0  0  0
 13 17  1  0  0  0  0
 13 18  1  0  0  0  0
 14 17  1  0  0  0  0
 15 21  1  0  0  0  0
 16 22  1  0  0  0  0
 18 23  2  0  0  0  0
 18 24  1  0  0  0  0
 19 23  1  0  0  0  0
 20 22  2  0  0  0  0
 24 27  1  0  0  0  0
 26 29  1  0  0  0  0
 27 28  1  0  0  0  0
 30 31  1  0  0  0  0
 30 32  1  0  0  0  0
 30 33  1  0  0  0  0
M  END
> <PUBCHEM_COMPOUND_ID_TYPE>
0

> <PUBCHEM_TOTAL_CHARGE>
0

> <PUBCHEM_SUBSTANCE_ID>
310948004

> <PUBCHEM_SUBSTANCE_VERSION>
1

> <PUBCHEM_EXT_DATASOURCE_NAME>
4488

> <PUBCHEM_EXT_DATASOURCE_REGID>
SCHEMBL16126178

> <PUBCHEM_SUBSTANCE_COMMENT>
InChI=1S/C26H33NO6/c1-14(28)31-20-8-7-17-18-13-16-15(6-9-21(30)33-25(2,3)4)12-19(29)23-22(16)26(17,24(20)32-23)10-11-27(18)5/h7-8,12,17-18,20,24,29H,6,9-11,13H2,1-5H3/t17?,18-,20+,24+,26+/m1/s1
InChIKey=GOKVJQCYBUSMRL-OUMAGKALSA-N

> <PUBCHEM_SUBSTANCE_SYNONYM>
SCHEMBL16126178

> <PUBCHEM_XREF_EXT_ID>
SCHEMBL16126178

> <PUBCHEM_EXT_DATASOURCE_URL>
https://www.surechembl.org/

> <PUBCHEM_EXT_SUBSTANCE_URL>
https://www.surechembl.org/chemical/SCHEMBL16126178

> <PUBCHEM_CID_ASSOCIATIONS>
117613649  1

> <PUBCHEM_COORDINATE_TYPE>
1
3

> <PUBCHEM_BONDANNOTATIONS>
10  1  6
16  2  6
14  7  5
8  9  6

$$$$
