310932531
  -OEChem-07211613022D

 27 29  0     0  0  0  0  0  0999 V2000
    0.1075    0.0000    0.0000 F   0  0  0  0  0  0  0  0  0  0  0  0
    0.0000   -1.4334    0.0000 F   0  0  0  0  0  0  0  0  0  0  0  0
    0.7884   -1.4693    0.0000 F   0  0  0  0  0  0  0  0  0  0  0  0
    1.2543   -0.7884    0.0000 O   0  0  0  0  0  0  0  0  0  0  0  0
    2.9027   -6.7729    0.0000 O   0  0  0  0  0  0  0  0  0  0  0  0
    5.1603   -4.5153    0.0000 O   0  0  0  0  0  0  0  0  0  0  0  0
    6.3787   -5.2320    0.0000 O   0  0  0  0  0  0  0  0  0  0  0  0
    3.4761   -3.9061    0.0000 N   0  0  0  0  0  0  0  0  0  0  0  0
    5.1603   -5.9129    0.0000 N   0  0  0  0  0  0  0  0  0  0  0  0
    2.8310   -5.0887    0.0000 N   0  0  0  0  0  0  0  0  0  0  0  0
    4.3361   -5.9129    0.0000 C   0  0  0  0  0  0  0  0  0  0  0  0
    3.5836   -4.6945    0.0000 C   0  0  0  0  0  0  0  0  0  0  0  0
    2.6877   -3.7628    0.0000 C   0  0  0  0  0  0  0  0  0  0  0  0
    4.3003   -5.1245    0.0000 C   0  0  0  0  0  0  0  0  0  0  0  0
    2.3293   -3.0102    0.0000 C   0  0  0  0  0  0  0  0  0  0  0  0
    3.5836   -5.5546    0.0000 C   0  0  0  0  0  0  0  0  0  0  0  0
    4.3003   -6.7371    0.0000 C   0  0  0  0  0  0  0  0  0  0  0  0
    2.2935   -4.4795    0.0000 C   0  0  0  0  0  0  0  0  0  0  0  0
    1.6126   -1.5409    0.0000 C   0  0  0  0  0  0  0  0  0  0  0  0
    1.5051   -2.9385    0.0000 C   0  0  0  0  0  0  0  0  0  0  0  0
    2.7952   -2.3651    0.0000 C   0  0  0  0  0  0  0  0  0  0  0  0
    1.1467   -2.2218    0.0000 C   0  0  0  0  0  0  0  0  0  0  0  0
    2.4368   -1.6126    0.0000 C   0  0  0  0  0  0  0  0  0  0  0  0
    5.5546   -5.2320    0.0000 C   0  0  0  0  0  0  0  0  0  0  0  0
    2.9027   -5.9487    0.0000 C   0  0  0  0  0  0  0  0  0  0  0  0
    3.6194   -7.1671    0.0000 C   0  0  0  0  0  0  0  0  0  0  0  0
    0.4659   -0.7526    0.0000 C   0  0  0  0  0  0  0  0  0  0  0  0
  1 27  1  0  0  0  0
  2 27  1  0  0  0  0
  3 27  1  0  0  0  0
  4 19  1  0  0  0  0
  4 27  1  0  0  0  0
  5 25  1  0  0  0  0
  5 26  1  0  0  0  0
  6 24  2  0  0  0  0
  7 24  1  0  0  0  0
  8 12  2  0  0  0  0
  8 13  1  0  0  0  0
  9 11  1  0  0  0  0
  9 24  1  0  0  0  0
 10 12  1  0  0  0  0
 10 18  1  0  0  0  0
 11 14  1  0  0  0  0
 11 16  1  0  0  0  0
 11 17  1  0  0  0  0
 12 14  1  0  0  0  0
 13 15  1  0  0  0  0
 13 18  2  0  0  0  0
 15 20  2  0  0  0  0
 15 21  1  0  0  0  0
 16 25  1  0  0  0  0
 17 26  1  0  0  0  0
 19 22  2  0  0  0  0
 19 23  1  0  0  0  0
 20 22  1  0  0  0  0
 21 23  2  0  0  0  0
M  END
> <PUBCHEM_COMPOUND_ID_TYPE>
0

> <PUBCHEM_TOTAL_CHARGE>
0

> <PUBCHEM_SUBSTANCE_ID>
310932531

> <PUBCHEM_SUBSTANCE_VERSION>
1

> <PUBCHEM_EXT_DATASOURCE_NAME>
4488

> <PUBCHEM_EXT_DATASOURCE_REGID>
SCHEMBL16109906

> <PUBCHEM_SUBSTANCE_COMMENT>
InChI=1S/C17H18F3N3O4/c18-17(19,20)27-12-3-1-11(2-4-12)13-10-21-14(22-13)9-16(23-15(24)25)5-7-26-8-6-16/h1-4,10,23H,5-9H2,(H,21,22)(H,24,25)
InChIKey=KSDCAGPAONCTQK-UHFFFAOYSA-N

> <PUBCHEM_SUBSTANCE_SYNONYM>
SCHEMBL16109906

> <PUBCHEM_XREF_EXT_ID>
SCHEMBL16109906

> <PUBCHEM_EXT_DATASOURCE_URL>
https://www.surechembl.org/

> <PUBCHEM_EXT_SUBSTANCE_URL>
https://www.surechembl.org/chemical/SCHEMBL16109906

> <PUBCHEM_CID_ASSOCIATIONS>
117601063  1

> <PUBCHEM_COORDINATE_TYPE>
1
3

$$$$
