310947319
  -OEChem-07211613022D

 25 27  0     0  0  0  0  0  0999 V2000
    1.5783   -1.5286    0.0000 O   0  0  0  0  0  0  0  0  0  0  0  0
   -0.9799    2.1691    0.0000 O   0  0  0  0  0  0  0  0  0  0  0  0
    4.5523   -1.5858    0.0000 O   0  0  0  0  0  0  0  0  0  0  0  0
   -3.8378    1.3441    0.0000 O   0  0  0  0  0  0  0  0  0  0  0  0
    1.9481   -0.1483    0.0000 N   0  0  0  0  0  0  0  0  0  0  0  0
    2.4330    0.5191    0.0000 N   0  0  0  0  0  0  0  0  0  0  0  0
   -1.6944    0.9316    0.0000 N   0  0  0  0  0  0  0  0  0  0  0  0
    1.1635    0.1066    0.0000 C   0  0  0  0  0  0  0  0  0  0  0  0
    1.1635    0.9316    0.0000 C   0  0  0  0  0  0  0  0  0  0  0  0
    1.9481    1.1866    0.0000 C   0  0  0  0  0  0  0  0  0  0  0  0
    2.1616   -0.9452    0.0000 C   0  0  0  0  0  0  0  0  0  0  0  0
    0.4490    1.3441    0.0000 C   0  0  0  0  0  0  0  0  0  0  0  0
    0.4490   -0.3059    0.0000 C   0  0  0  0  0  0  0  0  0  0  0  0
   -0.2655    0.9316    0.0000 C   0  0  0  0  0  0  0  0  0  0  0  0
    2.9585   -1.1587    0.0000 C   0  0  0  0  0  0  0  0  0  0  0  0
   -0.2655    0.1066    0.0000 C   0  0  0  0  0  0  0  0  0  0  0  0
   -0.9799    1.3441    0.0000 C   0  0  0  0  0  0  0  0  0  0  0  0
    2.3606    1.9010    0.0000 C   0  0  0  0  0  0  0  0  0  0  0  0
    3.1720   -1.9556    0.0000 C   0  0  0  0  0  0  0  0  0  0  0  0
    3.5419   -0.5754    0.0000 C   0  0  0  0  0  0  0  0  0  0  0  0
    3.9689   -2.1691    0.0000 C   0  0  0  0  0  0  0  0  0  0  0  0
    4.3388   -0.7889    0.0000 C   0  0  0  0  0  0  0  0  0  0  0  0
   -2.4089    1.3441    0.0000 C   0  0  0  0  0  0  0  0  0  0  0  0
   -3.1233    0.9316    0.0000 C   0  0  0  0  0  0  0  0  0  0  0  0
   -4.5523    0.9316    0.0000 C   0  0  0  0  0  0  0  0  0  0  0  0
  1 11  2  0  0  0  0
  2 17  2  0  0  0  0
  3 21  1  0  0  0  0
  3 22  1  0  0  0  0
  4 24  1  0  0  0  0
  4 25  1  0  0  0  0
  5  6  1  0  0  0  0
  5  8  1  0  0  0  0
  5 11  1  0  0  0  0
  6 10  2  0  0  0  0
  7 17  1  0  0  0  0
  7 23  1  0  0  0  0
  8  9  1  0  0  0  0
  8 13  2  0  0  0  0
  9 10  1  0  0  0  0
  9 12  2  0  0  0  0
 10 18  1  0  0  0  0
 11 15  1  0  0  0  0
 12 14  1  0  0  0  0
 13 16  1  0  0  0  0
 14 16  2  0  0  0  0
 14 17  1  0  0  0  0
 15 19  1  0  0  0  0
 15 20  1  0  0  0  0
 19 21  1  0  0  0  0
 20 22  1  0  0  0  0
 23 24  1  0  0  0  0
M  END
> <PUBCHEM_COMPOUND_ID_TYPE>
0

> <PUBCHEM_TOTAL_CHARGE>
0

> <PUBCHEM_SUBSTANCE_ID>
310947319

> <PUBCHEM_SUBSTANCE_VERSION>
1

> <PUBCHEM_EXT_DATASOURCE_NAME>
4488

> <PUBCHEM_EXT_DATASOURCE_REGID>
SCHEMBL16125474

> <PUBCHEM_SUBSTANCE_COMMENT>
InChI=1S/C18H23N3O4/c1-12-15-11-14(17(22)19-7-10-24-2)3-4-16(15)21(20-12)18(23)13-5-8-25-9-6-13/h3-4,11,13H,5-10H2,1-2H3,(H,19,22)
InChIKey=BFLWTXCOEYJISW-UHFFFAOYSA-N

> <PUBCHEM_SUBSTANCE_SYNONYM>
SCHEMBL16125474

> <PUBCHEM_XREF_EXT_ID>
SCHEMBL16125474

> <PUBCHEM_EXT_DATASOURCE_URL>
https://www.surechembl.org/

> <PUBCHEM_EXT_SUBSTANCE_URL>
https://www.surechembl.org/chemical/SCHEMBL16125474

> <PUBCHEM_CID_ASSOCIATIONS>
71577665  1

> <PUBCHEM_COORDINATE_TYPE>
1
3

$$$$
