310946160
  -OEChem-07211613022D

 56 66  0     0  0  0  0  0  0999 V2000
    0.6814    6.2480    0.0000 S   0  0  0  0  0  0  0  0  0  0  0  0
   -0.3012    4.7489    0.0000 N   0  0  0  0  0  0  0  0  0  0  0  0
   -2.7582    3.1483    0.0000 C   0  0  0  0  0  0  0  0  0  0  0  0
   -1.9512    3.3198    0.0000 C   0  0  0  0  0  0  0  0  0  0  0  0
    0.1002   10.1641    0.0000 C   0  0  0  0  0  0  0  0  0  0  0  0
    0.1864    9.3437    0.0000 C   0  0  0  0  0  0  0  0  0  0  0  0
   -1.5387    2.6054    0.0000 C   0  0  0  0  0  0  0  0  0  0  0  0
    0.9363    5.4632    0.0000 C   0  0  0  0  0  0  0  0  0  0  0  0
   -2.8444    2.3278    0.0000 C   0  0  0  0  0  0  0  0  0  0  0  0
    1.3488    6.7329    0.0000 C   0  0  0  0  0  0  0  0  0  0  0  0
   -0.5673    9.0081    0.0000 C   0  0  0  0  0  0  0  0  0  0  0  0
   -2.0907    1.9923    0.0000 C   0  0  0  0  0  0  0  0  0  0  0  0
   -0.7068   10.3356    0.0000 C   0  0  0  0  0  0  0  0  0  0  0  0
    1.7613    5.4632    0.0000 C   0  0  0  0  0  0  0  0  0  0  0  0
    2.0162    6.2480    0.0000 C   0  0  0  0  0  0  0  0  0  0  0  0
    0.5238    4.7489    0.0000 C   0  0  0  0  0  0  0  0  0  0  0  0
   -1.1193    9.6212    0.0000 C   0  0  0  0  0  0  0  0  0  0  0  0
    1.4350    7.5534    0.0000 C   0  0  0  0  0  0  0  0  0  0  0  0
   -0.7137    4.0343    0.0000 C   0  0  0  0  0  0  0  0  0  0  0  0
    0.7676    8.0383    0.0000 C   0  0  0  0  0  0  0  0  0  0  0  0
   -1.5387    4.0343    0.0000 C   0  0  0  0  0  0  0  0  0  0  0  0
    0.8538    8.8587    0.0000 C   0  0  0  0  0  0  0  0  0  0  0  0
   -0.7137    2.6054    0.0000 C   0  0  0  0  0  0  0  0  0  0  0  0
   -0.6535    8.1876    0.0000 C   0  0  0  0  0  0  0  0  0  0  0  0
   -0.7137    5.4632    0.0000 C   0  0  0  0  0  0  0  0  0  0  0  0
   -0.3012    3.3198    0.0000 C   0  0  0  0  0  0  0  0  0  0  0  0
    0.0139    7.7026    0.0000 C   0  0  0  0  0  0  0  0  0  0  0  0
    2.1738    4.7489    0.0000 C   0  0  0  0  0  0  0  0  0  0  0  0
    0.9363    4.0343    0.0000 C   0  0  0  0  0  0  0  0  0  0  0  0
    2.7699    6.5834    0.0000 C   0  0  0  0  0  0  0  0  0  0  0  0
   -3.5119    1.8429    0.0000 C   0  0  0  0  0  0  0  0  0  0  0  0
   -2.0046    1.1718    0.0000 C   0  0  0  0  0  0  0  0  0  0  0  0
    2.1887    7.8888    0.0000 C   0  0  0  0  0  0  0  0  0  0  0  0
   -1.1193   11.0502    0.0000 C   0  0  0  0  0  0  0  0  0  0  0  0
   -1.9444    9.6212    0.0000 C   0  0  0  0  0  0  0  0  0  0  0  0
   -2.7582    3.9733    0.0000 C   0  0  0  0  0  0  0  0  0  0  0  0
   -3.5833    3.1483    0.0000 C   0  0  0  0  0  0  0  0  0  0  0  0
    0.9252   10.1641    0.0000 C   0  0  0  0  0  0  0  0  0  0  0  0
    0.5127   10.8786    0.0000 C   0  0  0  0  0  0  0  0  0  0  0  0
    1.7613    4.0343    0.0000 C   0  0  0  0  0  0  0  0  0  0  0  0
    2.8562    7.4040    0.0000 C   0  0  0  0  0  0  0  0  0  0  0  0
   -3.4256    1.0224    0.0000 C   0  0  0  0  0  0  0  0  0  0  0  0
   -2.6719    0.6869    0.0000 C   0  0  0  0  0  0  0  0  0  0  0  0
   -1.9444   11.0502    0.0000 C   0  0  0  0  0  0  0  0  0  0  0  0
   -2.3568   10.3356    0.0000 C   0  0  0  0  0  0  0  0  0  0  0  0
   -0.3012    6.1777    0.0000 C   0  0  0  0  0  0  0  0  0  0  0  0
   -1.5387    5.4632    0.0000 C   0  0  0  0  0  0  0  0  0  0  0  0
   -1.5387    6.8923    0.0000 C   0  0  0  0  0  0  0  0  0  0  0  0
   -0.7137    6.8923    0.0000 C   0  0  0  0  0  0  0  0  0  0  0  0
   -1.9512    6.1777    0.0000 C   0  0  0  0  0  0  0  0  0  0  0  0
   -1.9512    7.6068    0.0000 C   0  0  0  0  0  0  0  0  0  0  0  0
   -1.5387    8.3211    0.0000 C   0  0  0  0  0  0  0  0  0  0  0  0
   -2.7762    7.6068    0.0000 C   0  0  0  0  0  0  0  0  0  0  0  0
   -1.9512    9.0357    0.0000 C   0  0  0  0  0  0  0  0  0  0  0  0
   -3.1887    8.3211    0.0000 C   0  0  0  0  0  0  0  0  0  0  0  0
   -2.7762    9.0357    0.0000 C   0  0  0  0  0  0  0  0  0  0  0  0
  1  8  1  0  0  0  0
  1 10  1  0  0  0  0
  2 16  1  0  0  0  0
  2 19  1  0  0  0  0
  2 25  1  0  0  0  0
  3  4  1  0  0  0  0
  3  9  1  0  0  0  0
  3 36  1  0  0  0  0
  3 37  1  0  0  0  0
  4  7  2  0  0  0  0
  4 21  1  0  0  0  0
  5  6  1  0  0  0  0
  5 13  1  0  0  0  0
  5 38  1  0  0  0  0
  5 39  1  0  0  0  0
  6 11  2  0  0  0  0
  6 22  1  0  0  0  0
  7 12  1  0  0  0  0
  7 23  1  0  0  0  0
  8 14  2  0  0  0  0
  8 16  1  0  0  0  0
  9 12  2  0  0  0  0
  9 31  1  0  0  0  0
 10 15  2  0  0  0  0
 10 18  1  0  0  0  0
 11 17  1  0  0  0  0
 11 24  1  0  0  0  0
 12 32  1  0  0  0  0
 13 17  2  0  0  0  0
 13 34  1  0  0  0  0
 14 15  1  0  0  0  0
 14 28  1  0  0  0  0
 15 30  1  0  0  0  0
 16 29  2  0  0  0  0
 17 35  1  0  0  0  0
 18 20  1  0  0  0  0
 18 33  2  0  0  0  0
 19 21  2  0  0  0  0
 19 26  1  0  0  0  0
 20 22  2  0  0  0  0
 20 27  1  0  0  0  0
 23 26  2  0  0  0  0
 24 27  2  0  0  0  0
 25 46  2  0  0  0  0
 25 47  1  0  0  0  0
 28 40  2  0  0  0  0
 29 40  1  0  0  0  0
 30 41  2  0  0  0  0
 31 42  2  0  0  0  0
 32 43  2  0  0  0  0
 33 41  1  0  0  0  0
 34 44  2  0  0  0  0
 35 45  2  0  0  0  0
 42 43  1  0  0  0  0
 44 45  1  0  0  0  0
 46 49  1  0  0  0  0
 47 50  2  0  0  0  0
 48 49  2  0  0  0  0
 48 50  1  0  0  0  0
 48 51  1  0  0  0  0
 51 52  2  0  0  0  0
 51 53  1  0  0  0  0
 52 54  1  0  0  0  0
 53 55  2  0  0  0  0
 54 56  2  0  0  0  0
 55 56  1  0  0  0  0
M  END
> <PUBCHEM_COMPOUND_ID_TYPE>
0

> <PUBCHEM_TOTAL_CHARGE>
0

> <PUBCHEM_SUBSTANCE_ID>
310946160

> <PUBCHEM_SUBSTANCE_VERSION>
1

> <PUBCHEM_EXT_DATASOURCE_NAME>
4488

> <PUBCHEM_EXT_DATASOURCE_REGID>
SCHEMBL16124269

> <PUBCHEM_SUBSTANCE_COMMENT>
InChI=1S/C54H41NS/c1-53(2)46-21-10-8-16-40(46)42-30-26-36(32-48(42)53)39-18-12-19-44-45-20-13-23-50(52(45)56-51(39)44)55(37-27-24-35(25-28-37)34-14-6-5-7-15-34)38-29-31-43-41-17-9-11-22-47(41)54(3,4)49(43)33-38/h5-33H,1-4H3
InChIKey=JMVNWXZCYMBICO-UHFFFAOYSA-N

> <PUBCHEM_SUBSTANCE_SYNONYM>
SCHEMBL16124269

> <PUBCHEM_XREF_EXT_ID>
SCHEMBL16124269

> <PUBCHEM_EXT_DATASOURCE_URL>
https://www.surechembl.org/

> <PUBCHEM_EXT_SUBSTANCE_URL>
https://www.surechembl.org/chemical/SCHEMBL16124269

> <PUBCHEM_CID_ASSOCIATIONS>
117612117  1

> <PUBCHEM_COORDINATE_TYPE>
1
3

$$$$
