310947548
  -OEChem-07211613022D

 47 52  0     1  0  0  0  0  0999 V2000
    0.0830   -8.1393    0.0000 P   0  0  3  0  0  0  0  0  0  0  0  0
    1.7462  -10.9362    0.0000 F   0  0  0  0  0  0  0  0  0  0  0  0
    2.5713   -8.9522    0.0000 O   0  0  0  0  0  0  0  0  0  0  0  0
    3.3963  -10.9362    0.0000 O   0  0  0  0  0  0  0  0  0  0  0  0
    0.6663   -8.7226    0.0000 O   0  0  0  0  0  0  0  0  0  0  0  0
    4.7378   -6.2947    0.0000 O   0  0  0  0  0  0  0  0  0  0  0  0
   -0.5004   -7.5560    0.0000 O   0  0  0  0  0  0  0  0  0  0  0  0
    0.6663   -7.5560    0.0000 O   0  0  0  0  0  0  0  0  0  0  0  0
   -1.2148  -10.7851    0.0000 O   0  0  0  0  0  0  0  0  0  0  0  0
   -1.9292   -9.5476    0.0000 O   0  0  0  0  0  0  0  0  0  0  0  0
    3.2386   -8.6121    0.0000 N   0  0  0  0  0  0  0  0  0  0  0  0
    3.2386   -7.2772    0.0000 N   0  0  0  0  0  0  0  0  0  0  0  0
    4.7378   -8.7697    0.0000 N   0  0  0  0  0  0  0  0  0  0  0  0
    5.4522   -7.5322    0.0000 N   0  0  0  0  0  0  0  0  0  0  0  0
   -0.5004   -8.7226    0.0000 N   0  0  0  0  0  0  0  0  0  0  0  0
    6.1667   -8.7697    0.0000 N   0  0  0  0  0  0  0  0  0  0  0  0
    3.2386   -9.4371    0.0000 C   0  0  3  0  0  0  0  0  0  0  0  0
    2.9837  -10.2218    0.0000 C   0  0  3  0  0  0  0  0  0  0  0  0
    2.1588  -10.2218    0.0000 C   0  0  3  0  0  0  0  0  0  0  0  0
    4.0233   -8.3571    0.0000 C   0  0  0  0  0  0  0  0  0  0  0  0
    1.9038   -9.4371    0.0000 C   0  0  3  0  0  0  0  0  0  0  0  0
    4.0233   -7.5322    0.0000 C   0  0  0  0  0  0  0  0  0  0  0  0
    2.7537   -7.9447    0.0000 C   0  0  0  0  0  0  0  0  0  0  0  0
    4.7378   -7.1197    0.0000 C   0  0  0  0  0  0  0  0  0  0  0  0
    3.6983   -9.8092    0.0000 C   0  0  0  0  0  0  0  0  0  0  0  0
    1.4914   -8.7226    0.0000 C   0  0  0  0  0  0  0  0  0  0  0  0
    5.4522   -8.3571    0.0000 C   0  0  0  0  0  0  0  0  0  0  0  0
   -0.5004   -6.7310    0.0000 C   0  0  0  0  0  0  0  0  0  0  0  0
   -1.2148   -6.3185    0.0000 C   0  0  0  0  0  0  0  0  0  0  0  0
   -1.2148   -5.4935    0.0000 C   0  0  0  0  0  0  0  0  0  0  0  0
   -0.5004   -9.5476    0.0000 C   0  0  3  0  0  0  0  0  0  0  0  0
    0.2141   -6.3185    0.0000 C   0  0  0  0  0  0  0  0  0  0  0  0
    5.4522   -5.8822    0.0000 C   0  0  0  0  0  0  0  0  0  0  0  0
   -1.9292   -6.7310    0.0000 C   0  0  0  0  0  0  0  0  0  0  0  0
   -0.5004   -5.0810    0.0000 C   0  0  0  0  0  0  0  0  0  0  0  0
   -1.2148   -9.9601    0.0000 C   0  0  0  0  0  0  0  0  0  0  0  0
    0.2141   -5.4935    0.0000 C   0  0  0  0  0  0  0  0  0  0  0  0
   -1.9292   -5.0810    0.0000 C   0  0  0  0  0  0  0  0  0  0  0  0
   -2.6438   -6.3185    0.0000 C   0  0  0  0  0  0  0  0  0  0  0  0
   -2.6438   -5.4935    0.0000 C   0  0  0  0  0  0  0  0  0  0  0  0
    0.2141   -9.9601    0.0000 C   0  0  0  0  0  0  0  0  0  0  0  0
   -1.9292  -11.1976    0.0000 C   0  0  0  0  0  0  0  0  0  0  0  0
   -1.9292  -12.0226    0.0000 C   0  0  0  0  0  0  0  0  0  0  0  0
   -2.6438  -10.7851    0.0000 C   0  0  0  0  0  0  0  0  0  0  0  0
   -3.3582  -11.1976    0.0000 C   0  0  0  0  0  0  0  0  0  0  0  0
   -2.6438  -12.4351    0.0000 C   0  0  0  0  0  0  0  0  0  0  0  0
   -3.3582  -12.0226    0.0000 C   0  0  0  0  0  0  0  0  0  0  0  0
  1  5  1  0  0  0  0
  1  7  1  0  0  0  0
  1  8  2  0  0  0  0
  1 15  1  0  0  0  0
 19  2  1  6  0  0  0
  3 17  1  0  0  0  0
  3 21  1  0  0  0  0
 18  4  1  6  0  0  0
  5 26  1  0  0  0  0
  6 24  1  0  0  0  0
  6 33  1  0  0  0  0
  7 28  1  0  0  0  0
  9 36  1  0  0  0  0
  9 42  1  0  0  0  0
 10 36  2  0  0  0  0
 11 17  1  0  0  0  0
 11 20  1  0  0  0  0
 11 23  1  0  0  0  0
 12 22  1  0  0  0  0
 12 23  2  0  0  0  0
 13 20  1  0  0  0  0
 13 27  2  0  0  0  0
 14 24  2  0  0  0  0
 14 27  1  0  0  0  0
 15 31  1  0  0  0  0
 16 27  1  0  0  0  0
 17 18  1  0  0  0  0
 18 19  1  0  0  0  0
 18 25  1  1  0  0  0
 19 21  1  0  0  0  0
 20 22  2  0  0  0  0
 21 26  1  1  0  0  0
 22 24  1  0  0  0  0
 28 29  1  0  0  0  0
 28 32  2  0  0  0  0
 29 30  2  0  0  0  0
 29 34  1  0  0  0  0
 30 35  1  0  0  0  0
 30 38  1  0  0  0  0
 31 36  1  0  0  0  0
 31 41  1  1  0  0  0
 32 37  1  0  0  0  0
 34 39  2  0  0  0  0
 35 37  2  0  0  0  0
 38 40  2  0  0  0  0
 39 40  1  0  0  0  0
 42 43  1  0  0  0  0
 42 44  1  0  0  0  0
 43 46  1  0  0  0  0
 44 45  1  0  0  0  0
 45 47  1  0  0  0  0
 46 47  1  0  0  0  0
M  END
> <PUBCHEM_COMPOUND_ID_TYPE>
0

> <PUBCHEM_TOTAL_CHARGE>
0

> <PUBCHEM_SUBSTANCE_ID>
310947548

> <PUBCHEM_SUBSTANCE_VERSION>
1

> <PUBCHEM_EXT_DATASOURCE_NAME>
4488

> <PUBCHEM_EXT_DATASOURCE_REGID>
SCHEMBL16125711

> <PUBCHEM_SUBSTANCE_COMMENT>
InChI=1S/C31H38FN6O8P/c1-18(28(39)44-20-12-5-4-6-13-20)37-47(41,46-22-15-9-11-19-10-7-8-14-21(19)22)43-16-23-25(32)31(2,40)29(45-23)38-17-34-24-26(38)35-30(33)36-27(24)42-3/h7-11,14-15,17-18,20,23,25,29,40H,4-6,12-13,16H2,1-3H3,(H,37,41)(H2,33,35,36)/t18-,23+,25+,29?,31+,47?/m0/s1
InChIKey=VBSQYRBGTRITDQ-QZQFILJBSA-N

> <PUBCHEM_SUBSTANCE_SYNONYM>
SCHEMBL16125711

> <PUBCHEM_XREF_EXT_ID>
SCHEMBL16125711

> <PUBCHEM_EXT_DATASOURCE_URL>
https://www.surechembl.org/

> <PUBCHEM_EXT_SUBSTANCE_URL>
https://www.surechembl.org/chemical/SCHEMBL16125711

> <PUBCHEM_CID_ASSOCIATIONS>
117613270  1

> <PUBCHEM_COORDINATE_TYPE>
1
3

> <PUBCHEM_BONDANNOTATIONS>
18  25  5
19  2  6
21  26  5
31  41  5
18  4  6

$$$$
