310944024
  -OEChem-07211613022D

 36 41  0     0  0  0  0  0  0999 V2000
    0.8982    3.4528    0.0000 F   0  0  0  0  0  0  0  0  0  0  0  0
    3.0774    2.9964    0.0000 N   0  0  0  0  0  0  0  0  0  0  0  0
   -1.2810    2.9964    0.0000 N   0  0  0  0  0  0  0  0  0  0  0  0
   -0.6479   -1.3325    0.0000 C   0  0  0  0  0  0  0  0  0  0  0  0
    0.1472   -1.0528    0.0000 C   0  0  0  0  0  0  0  0  0  0  0  0
   -1.1485   -0.6405    0.0000 C   0  0  0  0  0  0  0  0  0  0  0  0
    0.1472   -0.2282    0.0000 C   0  0  0  0  0  0  0  0  0  0  0  0
   -0.6773    0.0074    0.0000 C   0  0  0  0  0  0  0  0  0  0  0  0
   -1.4577   -1.5239    0.0000 C   0  0  0  0  0  0  0  0  0  0  0  0
   -0.2208   -2.0393    0.0000 C   0  0  0  0  0  0  0  0  0  0  0  0
    0.8687    0.1841    0.0000 C   0  0  0  0  0  0  0  0  0  0  0  0
    0.8687   -1.4650    0.0000 C   0  0  0  0  0  0  0  0  0  0  0  0
   -1.9878   -0.5668    0.0000 C   0  0  0  0  0  0  0  0  0  0  0  0
   -1.0012    0.7583    0.0000 C   0  0  0  0  0  0  0  0  0  0  0  0
    0.8982    1.0086    0.0000 C   0  0  0  0  0  0  0  0  0  0  0  0
    1.6196   -0.2576    0.0000 C   0  0  0  0  0  0  0  0  0  0  0  0
   -2.0761   -0.9497    0.0000 C   0  0  0  0  0  0  0  0  0  0  0  0
   -0.6332   -2.7460    0.0000 C   0  0  0  0  0  0  0  0  0  0  0  0
   -1.7079   -2.3338    0.0000 C   0  0  0  0  0  0  0  0  0  0  0  0
    0.6038   -2.0540    0.0000 C   0  0  0  0  0  0  0  0  0  0  0  0
    1.6049   -1.0675    0.0000 C   0  0  0  0  0  0  0  0  0  0  0  0
   -2.3264    0.1841    0.0000 C   0  0  0  0  0  0  0  0  0  0  0  0
   -1.8405    0.8319    0.0000 C   0  0  0  0  0  0  0  0  0  0  0  0
    1.6049    1.4208    0.0000 C   0  0  0  0  0  0  0  0  0  0  0  0
    0.1620    1.4208    0.0000 C   0  0  0  0  0  0  0  0  0  0  0  0
   -2.8565   -1.1558    0.0000 C   0  0  0  0  0  0  0  0  0  0  0  0
   -0.2208   -3.4528    0.0000 C   0  0  0  0  0  0  0  0  0  0  0  0
   -2.5031   -2.5252    0.0000 C   0  0  0  0  0  0  0  0  0  0  0  0
    1.0160   -2.7460    0.0000 C   0  0  0  0  0  0  0  0  0  0  0  0
    1.6196    2.2454    0.0000 C   0  0  0  0  0  0  0  0  0  0  0  0
    0.1472    2.2454    0.0000 C   0  0  0  0  0  0  0  0  0  0  0  0
    0.8834    2.6429    0.0000 C   0  0  0  0  0  0  0  0  0  0  0  0
   -3.0774   -1.9657    0.0000 C   0  0  0  0  0  0  0  0  0  0  0  0
    0.5742   -3.4528    0.0000 C   0  0  0  0  0  0  0  0  0  0  0  0
    2.3558    2.6429    0.0000 C   0  0  0  0  0  0  0  0  0  0  0  0
   -0.5742    2.6429    0.0000 C   0  0  0  0  0  0  0  0  0  0  0  0
  1 32  1  0  0  0  0
  2 35  3  0  0  0  0
  3 36  3  0  0  0  0
  4  5  1  0  0  0  0
  4  6  1  0  0  0  0
  4  9  1  0  0  0  0
  4 10  1  0  0  0  0
  5  7  1  0  0  0  0
  5 12  2  0  0  0  0
  6  8  2  0  0  0  0
  6 13  1  0  0  0  0
  7  8  1  0  0  0  0
  7 11  2  0  0  0  0
  8 14  1  0  0  0  0
  9 17  2  0  0  0  0
  9 19  1  0  0  0  0
 10 18  2  0  0  0  0
 10 20  1  0  0  0  0
 11 15  1  0  0  0  0
 11 16  1  0  0  0  0
 12 21  1  0  0  0  0
 13 22  2  0  0  0  0
 14 23  2  0  0  0  0
 15 24  2  0  0  0  0
 15 25  1  0  0  0  0
 16 21  2  0  0  0  0
 17 26  1  0  0  0  0
 18 27  1  0  0  0  0
 19 28  2  0  0  0  0
 20 29  2  0  0  0  0
 22 23  1  0  0  0  0
 24 30  1  0  0  0  0
 25 31  2  0  0  0  0
 26 33  2  0  0  0  0
 27 34  2  0  0  0  0
 28 33  1  0  0  0  0
 29 34  1  0  0  0  0
 30 32  2  0  0  0  0
 30 35  1  0  0  0  0
 31 32  1  0  0  0  0
 31 36  1  0  0  0  0
M  END
> <PUBCHEM_COMPOUND_ID_TYPE>
0

> <PUBCHEM_TOTAL_CHARGE>
0

> <PUBCHEM_SUBSTANCE_ID>
310944024

> <PUBCHEM_SUBSTANCE_VERSION>
1

> <PUBCHEM_EXT_DATASOURCE_NAME>
4488

> <PUBCHEM_EXT_DATASOURCE_REGID>
SCHEMBL16122097

> <PUBCHEM_SUBSTANCE_COMMENT>
InChI=1S/C33H19FN2/c34-32-23(20-35)18-22(19-24(32)21-36)27-15-9-17-30-31(27)28-14-7-8-16-29(28)33(30,25-10-3-1-4-11-25)26-12-5-2-6-13-26/h1-19H
InChIKey=MGPMISDTTMJYGY-UHFFFAOYSA-N

> <PUBCHEM_SUBSTANCE_SYNONYM>
SCHEMBL16122097

> <PUBCHEM_XREF_EXT_ID>
SCHEMBL16122097

> <PUBCHEM_EXT_DATASOURCE_URL>
https://www.surechembl.org/

> <PUBCHEM_EXT_SUBSTANCE_URL>
https://www.surechembl.org/chemical/SCHEMBL16122097

> <PUBCHEM_CID_ASSOCIATIONS>
117610326  1

> <PUBCHEM_COORDINATE_TYPE>
1
3

$$$$
