310933029
  -OEChem-07211613022D

 17 18  0     1  0  0  0  0  0999 V2000
    1.4625    0.0000    0.0000 F   0  0  0  0  0  0  0  0  0  0  0  0
    0.7583   -1.2458    0.0000 F   0  0  0  0  0  0  0  0  0  0  0  0
    2.1937   -0.4063    0.0000 F   0  0  0  0  0  0  0  0  0  0  0  0
    2.1937   -2.0583    0.0000 N   0  0  3  0  0  0  0  0  0  0  0  0
    3.0875   -3.9812    0.0000 N   0  0  0  0  0  0  0  0  0  0  0  0
    1.7604   -3.3312    0.0000 C   0  0  3  0  0  0  0  0  0  0  0  0
    2.6000   -3.3312    0.0000 C   0  0  3  0  0  0  0  0  0  0  0  0
    1.5167   -2.5458    0.0000 C   0  0  0  0  0  0  0  0  0  0  0  0
    1.3000   -3.9812    0.0000 C   0  0  0  0  0  0  0  0  0  0  0  0
    2.8437   -2.5458    0.0000 C   0  0  0  0  0  0  0  0  0  0  0  0
    2.1937   -1.2458    0.0000 C   0  0  0  0  0  0  0  0  0  0  0  0
    1.4625   -0.8125    0.0000 C   0  0  0  0  0  0  0  0  0  0  0  0
    1.6250   -4.7395    0.0000 C   0  0  0  0  0  0  0  0  0  0  0  0
    0.4875   -3.9000    0.0000 C   0  0  0  0  0  0  0  0  0  0  0  0
    1.1375   -5.4166    0.0000 C   0  0  0  0  0  0  0  0  0  0  0  0
    0.0000   -4.5770    0.0000 C   0  0  0  0  0  0  0  0  0  0  0  0
    0.3250   -5.3353    0.0000 C   0  0  0  0  0  0  0  0  0  0  0  0
  1 12  1  0  0  0  0
  2 12  1  0  0  0  0
  3 12  1  0  0  0  0
  4  8  1  0  0  0  0
  4 10  1  0  0  0  0
  4 11  1  0  0  0  0
  7  5  1  1  0  0  0
  6  7  1  0  0  0  0
  6  8  1  6  0  0  0
  6  9  1  0  0  0  0
  7 10  1  0  0  0  0
  9 13  2  0  0  0  0
  9 14  1  0  0  0  0
 11 12  1  0  0  0  0
 13 15  1  0  0  0  0
 14 16  2  0  0  0  0
 15 17  2  0  0  0  0
 16 17  1  0  0  0  0
M  END
> <PUBCHEM_COMPOUND_ID_TYPE>
0

> <PUBCHEM_TOTAL_CHARGE>
0

> <PUBCHEM_SUBSTANCE_ID>
310933029

> <PUBCHEM_SUBSTANCE_VERSION>
1

> <PUBCHEM_EXT_DATASOURCE_NAME>
4488

> <PUBCHEM_EXT_DATASOURCE_REGID>
SCHEMBL16110429

> <PUBCHEM_SUBSTANCE_COMMENT>
InChI=1S/C12H15F3N2/c13-12(14,15)8-17-6-10(11(16)7-17)9-4-2-1-3-5-9/h1-5,10-11H,6-8,16H2/t10-,11+/m0/s1
InChIKey=MCSNMEVYCLODDS-WDEREUQCSA-N

> <PUBCHEM_SUBSTANCE_SYNONYM>
SCHEMBL16110429

> <PUBCHEM_XREF_EXT_ID>
SCHEMBL16110429

> <PUBCHEM_EXT_DATASOURCE_URL>
https://www.surechembl.org/

> <PUBCHEM_EXT_SUBSTANCE_URL>
https://www.surechembl.org/chemical/SCHEMBL16110429

> <PUBCHEM_CID_ASSOCIATIONS>
117601494  1

> <PUBCHEM_COORDINATE_TYPE>
1
3

> <PUBCHEM_BONDANNOTATIONS>
7  5  5
6  8  6

$$$$
