310945981
  -OEChem-07211613022D

 10 11  0     0  0  0  0  0  0999 V2000
    0.1411   -1.1667    0.0000 N   0  0  0  0  0  0  0  0  0  0  0  0
   -0.6868   -1.0727    0.0000 N   0  0  0  0  0  0  0  0  0  0  0  0
    1.5337    0.5645    0.0000 N   0  0  0  0  0  0  0  0  0  0  0  0
   -0.0659    0.1693    0.0000 C   0  0  0  0  0  0  0  0  0  0  0  0
    0.5175   -0.4140    0.0000 C   0  0  0  0  0  0  0  0  0  0  0  0
   -0.8186   -0.2447    0.0000 C   0  0  0  0  0  0  0  0  0  0  0  0
    0.1600    0.9598    0.0000 C   0  0  0  0  0  0  0  0  0  0  0  0
    1.3079   -0.2070    0.0000 C   0  0  0  0  0  0  0  0  0  0  0  0
    0.9691    1.1667    0.0000 C   0  0  0  0  0  0  0  0  0  0  0  0
   -1.5337    0.0941    0.0000 C   0  0  0  0  0  0  0  0  0  0  0  0
  1  2  1  0  0  0  0
  1  5  1  0  0  0  0
  2  6  2  0  0  0  0
  3  8  1  0  0  0  0
  3  9  1  0  0  0  0
  4  5  2  0  0  0  0
  4  6  1  0  0  0  0
  4  7  1  0  0  0  0
  5  8  1  0  0  0  0
  6 10  1  0  0  0  0
  7  9  1  0  0  0  0
M  END
> <PUBCHEM_COMPOUND_ID_TYPE>
0

> <PUBCHEM_TOTAL_CHARGE>
0

> <PUBCHEM_SUBSTANCE_ID>
310945981

> <PUBCHEM_SUBSTANCE_VERSION>
1

> <PUBCHEM_EXT_DATASOURCE_NAME>
4488

> <PUBCHEM_EXT_DATASOURCE_REGID>
SCHEMBL16124086

> <PUBCHEM_SUBSTANCE_COMMENT>
InChI=1S/C7H11N3/c1-5-6-2-3-8-4-7(6)10-9-5/h8H,2-4H2,1H3,(H,9,10)
InChIKey=VCPPHXQSXGPMGG-UHFFFAOYSA-N

> <PUBCHEM_SUBSTANCE_SYNONYM>
SCHEMBL16124086

> <PUBCHEM_XREF_EXT_ID>
SCHEMBL16124086

> <PUBCHEM_EXT_DATASOURCE_URL>
https://www.surechembl.org/

> <PUBCHEM_EXT_SUBSTANCE_URL>
https://www.surechembl.org/chemical/SCHEMBL16124086

> <PUBCHEM_CID_ASSOCIATIONS>
71307611  1

> <PUBCHEM_COORDINATE_TYPE>
1
3

$$$$
