310945518
  -OEChem-07211613022D

 22 24  0     0  0  0  0  0  0999 V2000
   -0.0477    1.2129    0.0000 F   0  0  0  0  0  0  0  0  0  0  0  0
    0.6610    1.6490    0.0000 F   0  0  0  0  0  0  0  0  0  0  0  0
    1.3696    1.2265    0.0000 F   0  0  0  0  0  0  0  0  0  0  0  0
   -0.7700   -1.7580    0.0000 O   0  0  0  0  0  0  0  0  0  0  0  0
    1.3696   -0.4770    0.0000 N   0  0  0  0  0  0  0  0  0  0  0  0
    0.6474   -1.7580    0.0000 N   0  0  0  0  0  0  0  0  0  0  0  0
   -0.7563   -0.0545    0.0000 N   0  0  0  0  0  0  0  0  0  0  0  0
   -0.7563    0.8040    0.0000 N   0  0  0  0  0  0  0  0  0  0  0  0
    0.6474   -0.0545    0.0000 C   0  0  0  0  0  0  0  0  0  0  0  0
   -0.0613   -0.4770    0.0000 C   0  0  0  0  0  0  0  0  0  0  0  0
    1.3423   -1.3355    0.0000 C   0  0  0  0  0  0  0  0  0  0  0  0
    0.6610    0.8177    0.0000 C   0  0  0  0  0  0  0  0  0  0  0  0
   -0.0750   -1.3355    0.0000 C   0  0  0  0  0  0  0  0  0  0  0  0
    2.0782   -1.7580    0.0000 C   0  0  0  0  0  0  0  0  0  0  0  0
    2.4735   -2.4803    0.0000 C   0  0  0  0  0  0  0  0  0  0  0  0
    2.8687   -1.7853    0.0000 C   0  0  0  0  0  0  0  0  0  0  0  0
   -1.4787    1.2265    0.0000 C   0  0  0  0  0  0  0  0  0  0  0  0
   -1.4650    2.0578    0.0000 C   0  0  0  0  0  0  0  0  0  0  0  0
   -2.1601    0.8040    0.0000 C   0  0  0  0  0  0  0  0  0  0  0  0
   -2.1601    2.4803    0.0000 C   0  0  0  0  0  0  0  0  0  0  0  0
   -2.8551    1.2129    0.0000 C   0  0  0  0  0  0  0  0  0  0  0  0
   -2.8687    2.0578    0.0000 C   0  0  0  0  0  0  0  0  0  0  0  0
  1 12  1  0  0  0  0
  2 12  1  0  0  0  0
  3 12  1  0  0  0  0
  4 13  1  0  0  0  0
  5  9  2  0  0  0  0
  5 11  1  0  0  0  0
  6 11  2  0  0  0  0
  6 13  1  0  0  0  0
  7  8  2  0  0  0  0
  7 10  1  0  0  0  0
  8 17  1  0  0  0  0
  9 10  1  0  0  0  0
  9 12  1  0  0  0  0
 10 13  2  0  0  0  0
 11 14  1  0  0  0  0
 14 15  1  0  0  0  0
 14 16  1  0  0  0  0
 15 16  1  0  0  0  0
 17 18  2  0  0  0  0
 17 19  1  0  0  0  0
 18 20  1  0  0  0  0
 19 21  2  0  0  0  0
 20 22  2  0  0  0  0
 21 22  1  0  0  0  0
M  END
> <PUBCHEM_COMPOUND_ID_TYPE>
0

> <PUBCHEM_TOTAL_CHARGE>
0

> <PUBCHEM_SUBSTANCE_ID>
310945518

> <PUBCHEM_SUBSTANCE_VERSION>
1

> <PUBCHEM_EXT_DATASOURCE_NAME>
4488

> <PUBCHEM_EXT_DATASOURCE_REGID>
SCHEMBL16123616

> <PUBCHEM_SUBSTANCE_COMMENT>
InChI=1S/C14H11F3N4O/c15-14(16,17)11-10(21-20-9-4-2-1-3-5-9)13(22)19-12(18-11)8-6-7-8/h1-5,8H,6-7H2,(H,18,19,22)/b21-20+
InChIKey=PXUDJFNKGOFNCQ-QZQOTICOSA-N

> <PUBCHEM_SUBSTANCE_SYNONYM>
SCHEMBL16123616

> <PUBCHEM_XREF_EXT_ID>
SCHEMBL16123616

> <PUBCHEM_EXT_DATASOURCE_URL>
https://www.surechembl.org/

> <PUBCHEM_EXT_SUBSTANCE_URL>
https://www.surechembl.org/chemical/SCHEMBL16123616

> <PUBCHEM_CID_ASSOCIATIONS>
117611559  1

> <PUBCHEM_COORDINATE_TYPE>
1
3

$$$$
