310942999
  -OEChem-07211613022D

 17 18  0     0  0  0  0  0  0999 V2000
    0.0000   -2.9001    0.0000 F   0  0  0  0  0  0  0  0  0  0  0  0
    0.0000    2.9001    0.0000 F   0  0  0  0  0  0  0  0  0  0  0  0
    1.4361   -0.4043    0.0000 O   0  0  0  0  0  0  0  0  0  0  0  0
   -1.4361   -0.4183    0.0000 N   0  0  0  0  0  0  0  0  0  0  0  0
    0.0000   -0.4462    0.0000 C   0  0  0  0  0  0  0  0  0  0  0  0
    0.7250   -0.8644    0.0000 C   0  0  0  0  0  0  0  0  0  0  0  0
    0.0139    0.3904    0.0000 C   0  0  0  0  0  0  0  0  0  0  0  0
   -0.7111   -0.8644    0.0000 C   0  0  0  0  0  0  0  0  0  0  0  0
    0.7111   -1.6871    0.0000 C   0  0  0  0  0  0  0  0  0  0  0  0
    0.0139   -2.1054    0.0000 C   0  0  0  0  0  0  0  0  0  0  0  0
   -0.7111   -1.7011    0.0000 C   0  0  0  0  0  0  0  0  0  0  0  0
    0.7111    0.7948    0.0000 C   0  0  0  0  0  0  0  0  0  0  0  0
   -0.7111    0.7948    0.0000 C   0  0  0  0  0  0  0  0  0  0  0  0
    0.0000    2.0357    0.0000 C   0  0  0  0  0  0  0  0  0  0  0  0
    0.7111    1.6174    0.0000 C   0  0  0  0  0  0  0  0  0  0  0  0
   -0.7111    1.6035    0.0000 C   0  0  0  0  0  0  0  0  0  0  0  0
    1.4361    0.3904    0.0000 C   0  0  0  0  0  0  0  0  0  0  0  0
  1 10  1  0  0  0  0
  2 14  1  0  0  0  0
  3  6  1  0  0  0  0
  3 17  1  0  0  0  0
  4  8  1  0  0  0  0
  5  6  2  0  0  0  0
  5  7  1  0  0  0  0
  5  8  1  0  0  0  0
  6  9  1  0  0  0  0
  7 12  2  0  0  0  0
  7 13  1  0  0  0  0
  8 11  2  0  0  0  0
  9 10  2  0  0  0  0
 10 11  1  0  0  0  0
 12 15  1  0  0  0  0
 13 16  2  0  0  0  0
 14 15  2  0  0  0  0
 14 16  1  0  0  0  0
M  END
> <PUBCHEM_COMPOUND_ID_TYPE>
0

> <PUBCHEM_TOTAL_CHARGE>
0

> <PUBCHEM_SUBSTANCE_ID>
310942999

> <PUBCHEM_SUBSTANCE_VERSION>
1

> <PUBCHEM_EXT_DATASOURCE_NAME>
4488

> <PUBCHEM_EXT_DATASOURCE_REGID>
SCHEMBL16121058

> <PUBCHEM_SUBSTANCE_COMMENT>
InChI=1S/C13H11F2NO/c1-17-12-7-10(15)6-11(16)13(12)8-2-4-9(14)5-3-8/h2-7H,16H2,1H3
InChIKey=LJCYCTUZGVSOFM-UHFFFAOYSA-N

> <PUBCHEM_SUBSTANCE_SYNONYM>
SCHEMBL16121058

> <PUBCHEM_XREF_EXT_ID>
SCHEMBL16121058

> <PUBCHEM_EXT_DATASOURCE_URL>
https://www.surechembl.org/

> <PUBCHEM_EXT_SUBSTANCE_URL>
https://www.surechembl.org/chemical/SCHEMBL16121058

> <PUBCHEM_CID_ASSOCIATIONS>
117609452  1

> <PUBCHEM_COORDINATE_TYPE>
1
3

$$$$
