310933669
  -OEChem-07211613022D

 18 19  0     0  0  0  0  0  0999 V2000
    0.8489   -3.7492    0.0000 S   0  0  0  0  0  0  0  0  0  0  0  0
    1.6624   -3.7492    0.0000 O   0  0  0  0  0  0  0  0  0  0  0  0
    0.0000   -3.7492    0.0000 O   0  0  0  0  0  0  0  0  0  0  0  0
    0.8489   -7.0740    0.0000 O   0  0  0  0  0  0  0  0  0  0  0  0
    0.8489   -4.5981    0.0000 N   0  0  0  0  0  0  0  0  0  0  0  0
    0.8489   -2.9357    0.0000 C   0  0  0  0  0  0  0  0  0  0  0  0
    1.5917   -4.9872    0.0000 C   0  0  0  0  0  0  0  0  0  0  0  0
    0.1415   -4.9872    0.0000 C   0  0  0  0  0  0  0  0  0  0  0  0
    0.1061   -2.4759    0.0000 C   0  0  0  0  0  0  0  0  0  0  0  0
    1.5563   -2.4759    0.0000 C   0  0  0  0  0  0  0  0  0  0  0  0
    0.8489   -1.2380    0.0000 C   0  0  0  0  0  0  0  0  0  0  0  0
    0.8489   -6.2251    0.0000 C   0  0  0  0  0  0  0  0  0  0  0  0
    0.1415   -1.6624    0.0000 C   0  0  0  0  0  0  0  0  0  0  0  0
    1.5563   -1.6624    0.0000 C   0  0  0  0  0  0  0  0  0  0  0  0
    1.5917   -5.8360    0.0000 C   0  0  0  0  0  0  0  0  0  0  0  0
    0.1415   -5.8360    0.0000 C   0  0  0  0  0  0  0  0  0  0  0  0
    0.8489   -0.4244    0.0000 C   0  0  0  0  0  0  0  0  0  0  0  0
    0.1415    0.0000    0.0000 C   0  0  0  0  0  0  0  0  0  0  0  0
  1  2  2  0  0  0  0
  1  3  2  0  0  0  0
  1  5  1  0  0  0  0
  1  6  1  0  0  0  0
  4 12  2  0  0  0  0
  5  7  1  0  0  0  0
  5  8  1  0  0  0  0
  6  9  2  0  0  0  0
  6 10  1  0  0  0  0
  7 15  1  0  0  0  0
  8 16  1  0  0  0  0
  9 13  1  0  0  0  0
 10 14  2  0  0  0  0
 11 13  2  0  0  0  0
 11 14  1  0  0  0  0
 11 17  1  0  0  0  0
 12 15  1  0  0  0  0
 12 16  1  0  0  0  0
 17 18  1  0  0  0  0
M  END
> <PUBCHEM_COMPOUND_ID_TYPE>
0

> <PUBCHEM_TOTAL_CHARGE>
0

> <PUBCHEM_SUBSTANCE_ID>
310933669

> <PUBCHEM_SUBSTANCE_VERSION>
1

> <PUBCHEM_EXT_DATASOURCE_NAME>
4488

> <PUBCHEM_EXT_DATASOURCE_REGID>
SCHEMBL16111102

> <PUBCHEM_SUBSTANCE_COMMENT>
InChI=1S/C13H17NO3S/c1-2-11-3-5-13(6-4-11)18(16,17)14-9-7-12(15)8-10-14/h3-6H,2,7-10H2,1H3
InChIKey=XYHVHUAKAKGMPB-UHFFFAOYSA-N

> <PUBCHEM_SUBSTANCE_SYNONYM>
SCHEMBL16111102

> <PUBCHEM_XREF_EXT_ID>
SCHEMBL16111102

> <PUBCHEM_EXT_DATASOURCE_URL>
https://www.surechembl.org/

> <PUBCHEM_EXT_SUBSTANCE_URL>
https://www.surechembl.org/chemical/SCHEMBL16111102

> <PUBCHEM_CID_ASSOCIATIONS>
28753776  1

> <PUBCHEM_COORDINATE_TYPE>
1
3

$$$$
