310929509
  -OEChem-07211613022D

 62 70  0     1  0  0  0  0  0999 V2000
    4.6994   -0.9205    0.0000 S   0  0  0  0  0  0  0  0  0  0  0  0
    4.3118   -2.5193    0.0000 O   0  0  0  0  0  0  0  0  0  0  0  0
    4.9417   -1.6957    0.0000 O   0  0  0  0  0  0  0  0  0  0  0  0
    4.4572   -0.1453    0.0000 O   0  0  0  0  0  0  0  0  0  0  0  0
    4.2634   -3.1491    0.0000 O   0  0  0  0  0  0  0  0  0  0  0  0
    5.3777   -5.4746    0.0000 O   0  0  0  0  0  0  0  0  0  0  0  0
    6.3951   -8.3330    0.0000 O   0  0  0  0  0  0  0  0  0  0  0  0
    1.5019   -3.9727    0.0000 O   0  0  0  0  0  0  0  0  0  0  0  0
    0.9205   -7.5094    0.0000 O   0  0  0  0  0  0  0  0  0  0  0  0
    0.0000   -6.6858    0.0000 O   0  0  0  0  0  0  0  0  0  0  0  0
    2.8584   -3.0038    0.0000 N   0  0  0  0  0  0  0  0  0  0  0  0
    3.9243   -1.1628    0.0000 N   0  0  0  0  0  0  0  0  0  0  0  0
    2.7131   -4.2634    0.0000 N   0  0  0  0  0  0  0  0  0  0  0  0
    6.3951   -5.8621    0.0000 N   0  0  0  0  0  0  0  0  0  0  0  0
    0.9205   -5.8621    0.0000 N   0  0  0  0  0  0  0  0  0  0  0  0
    8.1392   -9.3020    0.0000 N   0  0  0  0  0  0  0  0  0  0  0  0
    2.9553   -2.1802    0.0000 C   0  0  3  0  0  0  0  0  0  0  0  0
    2.2286   -1.7925    0.0000 C   0  0  3  0  0  0  0  0  0  0  0  0
    2.9068   -1.3565    0.0000 C   0  0  0  0  0  0  0  0  0  0  0  0
    3.7305   -1.9379    0.0000 C   0  0  0  0  0  0  0  0  0  0  0  0
    5.4746   -0.6783    0.0000 C   0  0  0  0  0  0  0  0  0  0  0  0
    3.5367   -3.4882    0.0000 C   0  0  0  0  0  0  0  0  0  0  0  0
    1.4050   -1.8410    0.0000 C   0  0  0  0  0  0  0  0  0  0  0  0
    3.4398   -4.2634    0.0000 C   0  0  3  0  0  0  0  0  0  0  0  0
    6.0560   -0.0969    0.0000 C   0  0  0  0  0  0  0  0  0  0  0  0
    6.2982   -0.8721    0.0000 C   0  0  0  0  0  0  0  0  0  0  0  0
    4.2634   -4.4572    0.0000 C   0  0  0  0  0  0  0  0  0  0  0  0
    5.0385    0.0000    0.0000 C   0  0  0  0  0  0  0  0  0  0  0  0
    4.8932   -4.8448    0.0000 C   0  0  3  0  0  0  0  0  0  0  0  0
    1.9379   -4.6510    0.0000 C   0  0  0  0  0  0  0  0  0  0  0  0
    3.9727   -3.9243    0.0000 C   0  0  0  0  0  0  0  0  0  0  0  0
    5.6684   -6.3466    0.0000 C   0  0  0  0  0  0  0  0  0  0  0  0
    1.3081   -5.2324    0.0000 C   0  0  3  0  0  0  0  0  0  0  0  0
    1.0174   -2.5677    0.0000 C   0  0  0  0  0  0  0  0  0  0  0  0
    5.6684   -7.0734    0.0000 C   0  0  0  0  0  0  0  0  0  0  0  0
    6.3951   -7.5094    0.0000 C   0  0  0  0  0  0  0  0  0  0  0  0
    7.0249   -7.0734    0.0000 C   0  0  0  0  0  0  0  0  0  0  0  0
    7.0249   -6.3466    0.0000 C   0  0  0  0  0  0  0  0  0  0  0  0
    0.6783   -4.6994    0.0000 C   0  0  0  0  0  0  0  0  0  0  0  0
    5.3777   -7.8970    0.0000 C   0  0  0  0  0  0  0  0  0  0  0  0
    7.1218   -8.7206    0.0000 C   0  0  0  0  0  0  0  0  0  0  0  0
    7.8001   -7.5094    0.0000 C   0  0  0  0  0  0  0  0  0  0  0  0
    7.8001   -5.8621    0.0000 C   0  0  0  0  0  0  0  0  0  0  0  0
    0.8236   -6.6858    0.0000 C   0  0  0  0  0  0  0  0  0  0  0  0
    1.3081   -8.1877    0.0000 C   0  0  3  0  0  0  0  0  0  0  0  0
    7.3641   -9.5442    0.0000 C   0  0  0  0  0  0  0  0  0  0  0  0
    7.8970   -8.4784    0.0000 C   0  0  0  0  0  0  0  0  0  0  0  0
    1.9379   -8.7206    0.0000 C   0  0  3  0  0  0  0  0  0  0  0  0
    1.2112   -4.0696    0.0000 C   0  0  0  0  0  0  0  0  0  0  0  0
    0.0485   -4.1665    0.0000 C   0  0  0  0  0  0  0  0  0  0  0  0
    0.1453   -5.3292    0.0000 C   0  0  0  0  0  0  0  0  0  0  0  0
    8.5268   -7.0734    0.0000 C   0  0  0  0  0  0  0  0  0  0  0  0
    8.5268   -6.3466    0.0000 C   0  0  0  0  0  0  0  0  0  0  0  0
    1.1143   -9.0113    0.0000 C   0  0  0  0  0  0  0  0  0  0  0  0
    4.8932   -8.5268    0.0000 C   0  0  0  0  0  0  0  0  0  0  0  0
    8.8659   -9.6895    0.0000 C   0  0  0  0  0  0  0  0  0  0  0  0
    9.5442   -9.2535    0.0000 C   0  0  0  0  0  0  0  0  0  0  0  0
    2.7131   -9.1081    0.0000 C   0  0  0  0  0  0  0  0  0  0  0  0
    4.2634   -8.9144    0.0000 C   0  0  0  0  0  0  0  0  0  0  0  0
    3.4398   -9.1081    0.0000 C   0  0  0  0  0  0  0  0  0  0  0  0
    9.9802   -8.5752    0.0000 C   0  0  0  0  0  0  0  0  0  0  0  0
   10.4162   -9.2051    0.0000 C   0  0  0  0  0  0  0  0  0  0  0  0
  1  3  2  0  0  0  0
  1  4  2  0  0  0  0
  1 12  1  0  0  0  0
  1 21  1  0  0  0  0
  2 20  2  0  0  0  0
  5 22  2  0  0  0  0
  6 29  1  0  0  0  0
  6 32  1  0  0  0  0
  7 36  1  0  0  0  0
  7 41  1  0  0  0  0
  8 30  2  0  0  0  0
  9 44  1  0  0  0  0
  9 45  1  0  0  0  0
 10 44  2  0  0  0  0
 17 11  1  1  0  0  0
 11 22  1  0  0  0  0
 12 20  1  0  0  0  0
 13 24  1  0  0  0  0
 13 30  1  0  0  0  0
 13 31  1  0  0  0  0
 14 32  1  0  0  0  0
 14 38  2  0  0  0  0
 15 33  1  0  0  0  0
 15 44  1  0  0  0  0
 16 46  1  0  0  0  0
 16 47  1  0  0  0  0
 16 56  1  0  0  0  0
 17 18  1  0  0  0  0
 17 19  1  0  0  0  0
 17 20  1  6  0  0  0
 18 19  1  0  0  0  0
 18 23  1  6  0  0  0
 21 25  1  0  0  0  0
 21 26  1  0  0  0  0
 21 28  1  0  0  0  0
 24 22  1  6  0  0  0
 23 34  2  0  0  0  0
 24 27  1  0  0  0  0
 25 26  1  0  0  0  0
 29 27  1  1  0  0  0
 29 31  1  0  0  0  0
 30 33  1  0  0  0  0
 32 35  2  0  0  0  0
 33 39  1  1  0  0  0
 35 36  1  0  0  0  0
 35 40  1  0  0  0  0
 36 37  2  0  0  0  0
 37 38  1  0  0  0  0
 37 42  1  0  0  0  0
 38 43  1  0  0  0  0
 39 49  1  0  0  0  0
 39 50  1  0  0  0  0
 39 51  1  0  0  0  0
 40 55  1  0  0  0  0
 41 46  1  0  0  0  0
 41 47  1  0  0  0  0
 42 52  2  0  0  0  0
 43 53  2  0  0  0  0
 45 48  1  0  0  0  0
 45 54  1  1  0  0  0
 48 54  1  6  0  0  0
 48 58  1  0  0  0  0
 52 53  1  0  0  0  0
 55 59  1  0  0  0  0
 56 57  1  0  0  0  0
 57 61  1  0  0  0  0
 57 62  1  0  0  0  0
 58 60  1  0  0  0  0
 59 60  1  0  0  0  0
 61 62  1  0  0  0  0
M  END
> <PUBCHEM_COMPOUND_ID_TYPE>
0

> <PUBCHEM_TOTAL_CHARGE>
0

> <PUBCHEM_SUBSTANCE_ID>
310929509

> <PUBCHEM_SUBSTANCE_VERSION>
1

> <PUBCHEM_EXT_DATASOURCE_NAME>
4488

> <PUBCHEM_EXT_DATASOURCE_REGID>
SCHEMBL16106688

> <PUBCHEM_SUBSTANCE_COMMENT>
InChI=1S/C46H62N6O9S/c1-6-29-22-46(29,42(55)50-62(57,58)45(5)18-19-45)49-39(53)35-21-30-26-52(35)41(54)38(44(2,3)4)48-43(56)61-36-20-28(36)12-8-7-9-14-33-37(59-31-24-51(25-31)23-27-16-17-27)32-13-10-11-15-34(32)47-40(33)60-30/h6,10-11,13,15,27-31,35-36,38H,1,7-9,12,14,16-26H2,2-5H3,(H,48,56)(H,49,53)(H,50,55)/t28-,29-,30-,35+,36-,38-,46-/m1/s1
InChIKey=NVWWBJOLNMTPRS-HOEJLOLPSA-N

> <PUBCHEM_SUBSTANCE_SYNONYM>
SCHEMBL16106688

> <PUBCHEM_XREF_EXT_ID>
SCHEMBL16106688

> <PUBCHEM_EXT_DATASOURCE_URL>
https://www.surechembl.org/

> <PUBCHEM_EXT_SUBSTANCE_URL>
https://www.surechembl.org/chemical/SCHEMBL16106688

> <PUBCHEM_CID_ASSOCIATIONS>
117598833  1

> <PUBCHEM_COORDINATE_TYPE>
1
3

> <PUBCHEM_BONDANNOTATIONS>
17  11  5
17  20  6
18  23  6
24  22  6
29  27  5
33  39  5
45  54  5
48  54  6

$$$$
