310931635
  -OEChem-07211613022D

 14 14  0     0  0  0  0  0  0999 V2000
    0.7186    0.0000    0.0000 O   0  0  0  0  0  0  0  0  0  0  0  0
    3.5191   -2.4689    0.0000 O   0  0  0  0  0  0  0  0  0  0  0  0
    2.8190   -3.6849    0.0000 O   0  0  0  0  0  0  0  0  0  0  0  0
    2.1188   -0.0368    0.0000 N   0  0  0  0  0  0  0  0  0  0  0  0
    2.1004   -1.6398    0.0000 C   0  0  0  0  0  0  0  0  0  0  0  0
    1.4187   -0.4238    0.0000 C   0  0  0  0  0  0  0  0  0  0  0  0
    1.3818   -1.2529    0.0000 C   0  0  0  0  0  0  0  0  0  0  0  0
    2.1004   -2.4689    0.0000 C   0  0  0  0  0  0  0  0  0  0  0  0
    2.8005   -1.2529    0.0000 C   0  0  0  0  0  0  0  0  0  0  0  0
    2.8190   -2.8742    0.0000 C   0  0  0  0  0  0  0  0  0  0  0  0
    2.8374   -0.4238    0.0000 C   0  0  0  0  0  0  0  0  0  0  0  0
    4.2192   -2.8742    0.0000 C   0  0  0  0  0  0  0  0  0  0  0  0
    0.0000   -0.4053    0.0000 C   0  0  0  0  0  0  0  0  0  0  0  0
    4.9378   -2.4504    0.0000 C   0  0  0  0  0  0  0  0  0  0  0  0
  1  6  1  0  0  0  0
  1 13  1  0  0  0  0
  2 10  1  0  0  0  0
  2 12  1  0  0  0  0
  3 10  2  0  0  0  0
  4  6  1  0  0  0  0
  4 11  2  0  0  0  0
  5  7  1  0  0  0  0
  5  8  1  0  0  0  0
  5  9  2  0  0  0  0
  6  7  2  0  0  0  0
  8 10  1  0  0  0  0
  9 11  1  0  0  0  0
 12 14  1  0  0  0  0
M  END
> <PUBCHEM_COMPOUND_ID_TYPE>
0

> <PUBCHEM_TOTAL_CHARGE>
0

> <PUBCHEM_SUBSTANCE_ID>
310931635

> <PUBCHEM_SUBSTANCE_VERSION>
1

> <PUBCHEM_EXT_DATASOURCE_NAME>
4488

> <PUBCHEM_EXT_DATASOURCE_REGID>
SCHEMBL16108961

> <PUBCHEM_SUBSTANCE_COMMENT>
InChI=1S/C10H13NO3/c1-3-14-10(12)7-8-4-5-11-9(6-8)13-2/h4-6H,3,7H2,1-2H3
InChIKey=LYURBJRKWAWIDB-UHFFFAOYSA-N

> <PUBCHEM_SUBSTANCE_SYNONYM>
SCHEMBL16108961

> <PUBCHEM_XREF_EXT_ID>
SCHEMBL16108961

> <PUBCHEM_EXT_DATASOURCE_URL>
https://www.surechembl.org/

> <PUBCHEM_EXT_SUBSTANCE_URL>
https://www.surechembl.org/chemical/SCHEMBL16108961

> <PUBCHEM_CID_ASSOCIATIONS>
81850339  1

> <PUBCHEM_COORDINATE_TYPE>
1
3

$$$$
