310942088
  -OEChem-07211613022D

 29 30  0     1  0  0  0  0  0999 V2000
    1.7685    0.4670    0.0000 Cl  0  0  0  0  0  0  0  0  0  0  0  0
    0.3238   -2.0238    0.0000 F   0  0  0  0  0  0  0  0  0  0  0  0
    1.7560   -1.1894    0.0000 O   0  0  0  0  0  0  0  0  0  0  0  0
   -0.3985    1.7125    0.0000 O   0  0  0  0  0  0  0  0  0  0  0  0
   -3.9231    2.4348    0.0000 O   0  0  0  0  0  0  0  0  0  0  0  0
   -1.8183   -0.7784    0.0000 N   0  0  0  0  0  0  0  0  0  0  0  0
   -1.8307    1.7125    0.0000 N   0  0  0  0  0  0  0  0  0  0  0  0
   -0.3985   -0.7660    0.0000 C   0  0  0  0  0  0  0  0  0  0  0  0
    0.3238   -1.1769    0.0000 C   0  0  0  0  0  0  0  0  0  0  0  0
    1.0337   -0.7660    0.0000 C   0  0  0  0  0  0  0  0  0  0  0  0
    1.0462    0.0685    0.0000 C   0  0  0  0  0  0  0  0  0  0  0  0
   -1.0960   -1.1769    0.0000 C   0  0  3  0  0  0  0  0  0  0  0  0
   -0.3612    0.0685    0.0000 C   0  0  0  0  0  0  0  0  0  0  0  0
    0.3362    0.4670    0.0000 C   0  0  0  0  0  0  0  0  0  0  0  0
    2.4784   -0.7660    0.0000 C   0  0  0  0  0  0  0  0  0  0  0  0
   -1.1084   -2.0238    0.0000 C   0  0  0  0  0  0  0  0  0  0  0  0
   -1.8183    0.0685    0.0000 C   0  0  3  0  0  0  0  0  0  0  0  0
    2.5157    0.0685    0.0000 C   0  0  0  0  0  0  0  0  0  0  0  0
    3.2131   -1.1894    0.0000 C   0  0  0  0  0  0  0  0  0  0  0  0
   -1.1084    0.4670    0.0000 C   0  0  0  0  0  0  0  0  0  0  0  0
   -1.1209    1.3015    0.0000 C   0  0  0  0  0  0  0  0  0  0  0  0
    3.2131    0.4670    0.0000 C   0  0  0  0  0  0  0  0  0  0  0  0
    3.9231   -0.7660    0.0000 C   0  0  0  0  0  0  0  0  0  0  0  0
   -1.7934   -2.4348    0.0000 C   0  0  0  0  0  0  0  0  0  0  0  0
   -2.5407    0.4670    0.0000 C   0  0  0  0  0  0  0  0  0  0  0  0
    3.9231    0.0560    0.0000 C   0  0  0  0  0  0  0  0  0  0  0  0
   -2.6651    1.7374    0.0000 C   0  0  3  0  0  0  0  0  0  0  0  0
   -3.0637    2.4223    0.0000 C   0  0  0  0  0  0  0  0  0  0  0  0
   -3.0637    1.0025    0.0000 C   0  0  0  0  0  0  0  0  0  0  0  0
  1 11  1  0  0  0  0
  2  9  1  0  0  0  0
  3 10  1  0  0  0  0
  3 15  1  0  0  0  0
  4 21  2  0  0  0  0
  5 28  1  0  0  0  0
 12  6  1  1  0  0  0
  6 17  1  0  0  0  0
  7 21  1  0  0  0  0
  7 27  1  0  0  0  0
  8  9  2  0  0  0  0
  8 12  1  0  0  0  0
  8 13  1  0  0  0  0
  9 10  1  0  0  0  0
 10 11  2  0  0  0  0
 11 14  1  0  0  0  0
 12 16  1  0  0  0  0
 13 14  2  0  0  0  0
 15 18  2  0  0  0  0
 15 19  1  0  0  0  0
 16 24  1  0  0  0  0
 17 20  1  0  0  0  0
 17 25  1  1  0  0  0
 18 22  1  0  0  0  0
 19 23  2  0  0  0  0
 20 21  1  0  0  0  0
 22 26  2  0  0  0  0
 23 26  1  0  0  0  0
 27 28  1  0  0  0  0
 27 29  1  1  0  0  0
M  END
> <PUBCHEM_COMPOUND_ID_TYPE>
0

> <PUBCHEM_TOTAL_CHARGE>
0

> <PUBCHEM_SUBSTANCE_ID>
310942088

> <PUBCHEM_SUBSTANCE_VERSION>
1

> <PUBCHEM_EXT_DATASOURCE_NAME>
4488

> <PUBCHEM_EXT_DATASOURCE_REGID>
SCHEMBL16120123

> <PUBCHEM_SUBSTANCE_COMMENT>
InChI=1S/C22H28ClFN2O3/c1-4-19(25-14(2)12-20(28)26-15(3)13-27)17-10-11-18(23)22(21(17)24)29-16-8-6-5-7-9-16/h5-11,14-15,19,25,27H,4,12-13H2,1-3H3,(H,26,28)/t14-,15-,19+/m0/s1
InChIKey=TWDHPHTZMAXEIC-YZVOILCLSA-N

> <PUBCHEM_SUBSTANCE_SYNONYM>
SCHEMBL16120123

> <PUBCHEM_XREF_EXT_ID>
SCHEMBL16120123

> <PUBCHEM_EXT_DATASOURCE_URL>
https://www.surechembl.org/

> <PUBCHEM_EXT_SUBSTANCE_URL>
https://www.surechembl.org/chemical/SCHEMBL16120123

> <PUBCHEM_CID_ASSOCIATIONS>
117608750  1

> <PUBCHEM_COORDINATE_TYPE>
1
3

> <PUBCHEM_BONDANNOTATIONS>
17  25  5
27  29  5
12  6  5

$$$$
