310940116
  -OEChem-07211613022D

 62 73  0     0  0  0  0  0  0999 V2000
   -8.5436  -17.5925    0.0000 O   0  0  0  0  0  0  0  0  0  0  0  0
   -3.3443  -14.6569    0.0000 O   0  0  0  0  0  0  0  0  0  0  0  0
   -5.5475  -12.4536    0.0000 N   0  0  0  0  0  0  0  0  0  0  0  0
   -6.8170  -12.8661    0.0000 N   0  0  0  0  0  0  0  0  0  0  0  0
   -3.7567  -15.9265    0.0000 N   0  0  0  0  0  0  0  0  0  0  0  0
  -12.6484  -13.5481    0.0000 N   0  0  0  0  0  0  0  0  0  0  0  0
   -6.0324  -13.1211    0.0000 C   0  0  0  0  0  0  0  0  0  0  0  0
   -5.8188  -13.9180    0.0000 C   0  0  0  0  0  0  0  0  0  0  0  0
   -8.1310  -16.3232    0.0000 C   0  0  0  0  0  0  0  0  0  0  0  0
   -6.0324  -11.7862    0.0000 C   0  0  0  0  0  0  0  0  0  0  0  0
   -8.9561  -16.3232    0.0000 C   0  0  0  0  0  0  0  0  0  0  0  0
   -6.8170  -12.0413    0.0000 C   0  0  0  0  0  0  0  0  0  0  0  0
   -6.1886  -15.2982    0.0000 C   0  0  0  0  0  0  0  0  0  0  0  0
   -7.8761  -17.1077    0.0000 C   0  0  0  0  0  0  0  0  0  0  0  0
   -6.7720  -15.8815    0.0000 C   0  0  0  0  0  0  0  0  0  0  0  0
   -9.2110  -17.1077    0.0000 C   0  0  0  0  0  0  0  0  0  0  0  0
   -4.8084  -14.9284    0.0000 C   0  0  0  0  0  0  0  0  0  0  0  0
   -6.4023  -14.5013    0.0000 C   0  0  0  0  0  0  0  0  0  0  0  0
   -4.7225  -12.4536    0.0000 C   0  0  0  0  0  0  0  0  0  0  0  0
   -7.5791  -15.7100    0.0000 C   0  0  0  0  0  0  0  0  0  0  0  0
   -5.0221  -14.1314    0.0000 C   0  0  0  0  0  0  0  0  0  0  0  0
   -5.3919  -15.5116    0.0000 C   0  0  0  0  0  0  0  0  0  0  0  0
   -4.0117  -15.1419    0.0000 C   0  0  0  0  0  0  0  0  0  0  0  0
   -9.5081  -15.7100    0.0000 C   0  0  0  0  0  0  0  0  0  0  0  0
   -7.0692  -17.2792    0.0000 C   0  0  0  0  0  0  0  0  0  0  0  0
   -6.5171  -16.6661    0.0000 C   0  0  0  0  0  0  0  0  0  0  0  0
  -10.3150  -15.8815    0.0000 C   0  0  0  0  0  0  0  0  0  0  0  0
   -5.8608  -10.9792    0.0000 C   0  0  0  0  0  0  0  0  0  0  0  0
  -10.0180  -17.2792    0.0000 C   0  0  0  0  0  0  0  0  0  0  0  0
   -7.4301  -11.4891    0.0000 C   0  0  0  0  0  0  0  0  0  0  0  0
  -10.5699  -16.6661    0.0000 C   0  0  0  0  0  0  0  0  0  0  0  0
   -2.6768  -15.1419    0.0000 C   0  0  0  0  0  0  0  0  0  0  0  0
   -2.9317  -15.9265    0.0000 C   0  0  0  0  0  0  0  0  0  0  0  0
  -10.8983  -15.2982    0.0000 C   0  0  0  0  0  0  0  0  0  0  0  0
   -4.3100  -13.1682    0.0000 C   0  0  0  0  0  0  0  0  0  0  0  0
   -4.3100  -11.7392    0.0000 C   0  0  0  0  0  0  0  0  0  0  0  0
   -6.4740  -10.4273    0.0000 C   0  0  0  0  0  0  0  0  0  0  0  0
   -7.2586  -10.6822    0.0000 C   0  0  0  0  0  0  0  0  0  0  0  0
  -11.6952  -15.5116    0.0000 C   0  0  0  0  0  0  0  0  0  0  0  0
  -10.6849  -14.5013    0.0000 C   0  0  0  0  0  0  0  0  0  0  0  0
  -12.0651  -14.1314    0.0000 C   0  0  0  0  0  0  0  0  0  0  0  0
   -1.8699  -14.9703    0.0000 C   0  0  0  0  0  0  0  0  0  0  0  0
   -2.3797  -16.5395    0.0000 C   0  0  0  0  0  0  0  0  0  0  0  0
   -3.4850  -13.1682    0.0000 C   0  0  0  0  0  0  0  0  0  0  0  0
   -3.4850  -11.7392    0.0000 C   0  0  0  0  0  0  0  0  0  0  0  0
  -12.2785  -14.9284    0.0000 C   0  0  0  0  0  0  0  0  0  0  0  0
  -11.2682  -13.9180    0.0000 C   0  0  0  0  0  0  0  0  0  0  0  0
   -3.0725  -12.4536    0.0000 C   0  0  0  0  0  0  0  0  0  0  0  0
  -12.4348  -12.7512    0.0000 C   0  0  0  0  0  0  0  0  0  0  0  0
  -13.4453  -13.7616    0.0000 C   0  0  0  0  0  0  0  0  0  0  0  0
   -1.3178  -15.5834    0.0000 C   0  0  0  0  0  0  0  0  0  0  0  0
   -1.5728  -16.3680    0.0000 C   0  0  0  0  0  0  0  0  0  0  0  0
  -13.1493  -12.3388    0.0000 C   0  0  0  0  0  0  0  0  0  0  0  0
  -13.6588  -12.9648    0.0000 C   0  0  0  0  0  0  0  0  0  0  0  0
  -11.7204  -12.3388    0.0000 C   0  0  0  0  0  0  0  0  0  0  0  0
  -14.0286  -14.3451    0.0000 C   0  0  0  0  0  0  0  0  0  0  0  0
  -13.1493  -11.5138    0.0000 C   0  0  0  0  0  0  0  0  0  0  0  0
  -14.4557  -12.7512    0.0000 C   0  0  0  0  0  0  0  0  0  0  0  0
  -11.7204  -11.5138    0.0000 C   0  0  0  0  0  0  0  0  0  0  0  0
  -14.8254  -14.1314    0.0000 C   0  0  0  0  0  0  0  0  0  0  0  0
  -12.4348  -11.1012    0.0000 C   0  0  0  0  0  0  0  0  0  0  0  0
  -15.0391  -13.3347    0.0000 C   0  0  0  0  0  0  0  0  0  0  0  0
  1 14  1  0  0  0  0
  1 16  1  0  0  0  0
  2 23  1  0  0  0  0
  2 32  1  0  0  0  0
  3  7  1  0  0  0  0
  3 10  1  0  0  0  0
  3 19  1  0  0  0  0
  4  7  2  0  0  0  0
  4 12  1  0  0  0  0
  5 23  2  0  0  0  0
  5 33  1  0  0  0  0
  6 41  1  0  0  0  0
  6 49  1  0  0  0  0
  6 50  1  0  0  0  0
  7  8  1  0  0  0  0
  8 18  2  0  0  0  0
  8 21  1  0  0  0  0
  9 11  1  0  0  0  0
  9 14  2  0  0  0  0
  9 20  1  0  0  0  0
 10 12  2  0  0  0  0
 10 28  1  0  0  0  0
 11 16  2  0  0  0  0
 11 24  1  0  0  0  0
 12 30  1  0  0  0  0
 13 15  1  0  0  0  0
 13 18  1  0  0  0  0
 13 22  2  0  0  0  0
 14 25  1  0  0  0  0
 15 20  2  0  0  0  0
 15 26  1  0  0  0  0
 16 29  1  0  0  0  0
 17 21  2  0  0  0  0
 17 22  1  0  0  0  0
 17 23  1  0  0  0  0
 19 35  2  0  0  0  0
 19 36  1  0  0  0  0
 24 27  2  0  0  0  0
 25 26  2  0  0  0  0
 27 31  1  0  0  0  0
 27 34  1  0  0  0  0
 28 37  2  0  0  0  0
 29 31  2  0  0  0  0
 30 38  2  0  0  0  0
 32 33  2  0  0  0  0
 32 42  1  0  0  0  0
 33 43  1  0  0  0  0
 34 39  2  0  0  0  0
 34 40  1  0  0  0  0
 35 44  1  0  0  0  0
 36 45  2  0  0  0  0
 37 38  1  0  0  0  0
 39 46  1  0  0  0  0
 40 47  2  0  0  0  0
 41 46  2  0  0  0  0
 41 47  1  0  0  0  0
 42 51  2  0  0  0  0
 43 52  2  0  0  0  0
 44 48  2  0  0  0  0
 45 48  1  0  0  0  0
 49 53  2  0  0  0  0
 49 55  1  0  0  0  0
 50 54  2  0  0  0  0
 50 56  1  0  0  0  0
 51 52  1  0  0  0  0
 53 57  1  0  0  0  0
 54 58  1  0  0  0  0
 55 59  2  0  0  0  0
 56 60  2  0  0  0  0
 57 61  2  0  0  0  0
 58 62  2  0  0  0  0
 59 61  1  0  0  0  0
 60 62  1  0  0  0  0
M  END
> <PUBCHEM_COMPOUND_ID_TYPE>
0

> <PUBCHEM_TOTAL_CHARGE>
0

> <PUBCHEM_SUBSTANCE_ID>
310940116

> <PUBCHEM_SUBSTANCE_VERSION>
1

> <PUBCHEM_EXT_DATASOURCE_NAME>
4488

> <PUBCHEM_EXT_DATASOURCE_REGID>
SCHEMBL16118048

> <PUBCHEM_SUBSTANCE_COMMENT>
InChI=1S/C56H36N4O2/c1-4-14-43(15-5-1)59(44-16-6-2-7-17-44)46-28-24-37(25-29-46)38-26-30-52-47(35-38)48-36-39(27-31-53(48)61-52)40-32-41(34-42(33-40)56-58-50-21-11-13-23-54(50)62-56)55-57-49-20-10-12-22-51(49)60(55)45-18-8-3-9-19-45/h1-36H
InChIKey=GVLHVJPSCWTCRA-UHFFFAOYSA-N

> <PUBCHEM_SUBSTANCE_SYNONYM>
SCHEMBL16118048

> <PUBCHEM_XREF_EXT_ID>
SCHEMBL16118048

> <PUBCHEM_EXT_DATASOURCE_URL>
https://www.surechembl.org/

> <PUBCHEM_EXT_SUBSTANCE_URL>
https://www.surechembl.org/chemical/SCHEMBL16118048

> <PUBCHEM_CID_ASSOCIATIONS>
117607243  1

> <PUBCHEM_COORDINATE_TYPE>
1
3

$$$$
