310937161
  -OEChem-07211613022D

 29 32  0     0  0  0  0  0  0999 V2000
    0.7401   -0.8459    0.0000 F   0  0  0  0  0  0  0  0  0  0  0  0
    1.4802   -2.1146    0.0000 F   0  0  0  0  0  0  0  0  0  0  0  0
    1.4450   -0.4229    0.0000 F   0  0  0  0  0  0  0  0  0  0  0  0
    3.5595    0.0000    0.0000 O   0  0  0  0  0  0  0  0  0  0  0  0
    0.7049   -5.7798    0.0000 O   0  0  0  0  0  0  0  0  0  0  0  0
    2.8899   -1.2687    0.0000 N   0  0  0  0  0  0  0  0  0  0  0  0
    5.1102   -2.3613    0.0000 N   0  0  0  0  0  0  0  0  0  0  0  0
    2.8899   -3.7358    0.0000 N   0  0  0  0  0  0  0  0  0  0  0  0
    5.6036   -1.6917    0.0000 N   0  0  0  0  0  0  0  0  0  0  0  0
    0.0353   -4.5464    0.0000 N   0  0  0  0  0  0  0  0  0  0  0  0
    2.8899   -2.1146    0.0000 C   0  0  0  0  0  0  0  0  0  0  0  0
    3.5948   -2.5375    0.0000 C   0  0  0  0  0  0  0  0  0  0  0  0
    4.3349   -2.1146    0.0000 C   0  0  0  0  0  0  0  0  0  0  0  0
    4.3349   -1.2687    0.0000 C   0  0  0  0  0  0  0  0  0  0  0  0
    3.5948   -0.8459    0.0000 C   0  0  0  0  0  0  0  0  0  0  0  0
    2.1498   -2.5375    0.0000 C   0  0  0  0  0  0  0  0  0  0  0  0
    2.1498   -3.3129    0.0000 C   0  0  0  0  0  0  0  0  0  0  0  0
    3.5948   -3.3129    0.0000 C   0  0  0  0  0  0  0  0  0  0  0  0
    2.1851   -0.8459    0.0000 C   0  0  0  0  0  0  0  0  0  0  0  0
    5.1102   -0.9868    0.0000 C   0  0  0  0  0  0  0  0  0  0  0  0
    1.4450   -3.7358    0.0000 C   0  0  0  0  0  0  0  0  0  0  0  0
    1.4802   -1.2687    0.0000 C   0  0  0  0  0  0  0  0  0  0  0  0
    1.4450   -4.5464    0.0000 C   0  0  0  0  0  0  0  0  0  0  0  0
    0.7401   -3.3129    0.0000 C   0  0  0  0  0  0  0  0  0  0  0  0
    0.7049   -4.9340    0.0000 C   0  0  0  0  0  0  0  0  0  0  0  0
    0.0000   -3.7005    0.0000 C   0  0  0  0  0  0  0  0  0  0  0  0
    1.4097   -6.2028    0.0000 C   0  0  0  0  0  0  0  0  0  0  0  0
    1.3745   -7.0486    0.0000 C   0  0  0  0  0  0  0  0  0  0  0  0
    2.1498   -5.8503    0.0000 C   0  0  0  0  0  0  0  0  0  0  0  0
  1 22  1  0  0  0  0
  2 22  1  0  0  0  0
  3 22  1  0  0  0  0
  4 15  2  0  0  0  0
  5 25  1  0  0  0  0
  5 27  1  0  0  0  0
  6 11  1  0  0  0  0
  6 15  1  0  0  0  0
  6 19  1  0  0  0  0
  7  9  1  0  0  0  0
  7 13  1  0  0  0  0
  8 17  2  0  0  0  0
  8 18  1  0  0  0  0
  9 20  2  0  0  0  0
 10 25  1  0  0  0  0
 10 26  2  0  0  0  0
 11 12  1  0  0  0  0
 11 16  2  0  0  0  0
 12 13  1  0  0  0  0
 12 18  2  0  0  0  0
 13 14  2  0  0  0  0
 14 15  1  0  0  0  0
 14 20  1  0  0  0  0
 16 17  1  0  0  0  0
 17 21  1  0  0  0  0
 19 22  1  0  0  0  0
 21 23  1  0  0  0  0
 21 24  2  0  0  0  0
 23 25  2  0  0  0  0
 24 26  1  0  0  0  0
 27 28  1  0  0  0  0
 27 29  1  0  0  0  0
M  END
> <PUBCHEM_COMPOUND_ID_TYPE>
0

> <PUBCHEM_TOTAL_CHARGE>
0

> <PUBCHEM_SUBSTANCE_ID>
310937161

> <PUBCHEM_SUBSTANCE_VERSION>
1

> <PUBCHEM_EXT_DATASOURCE_NAME>
4488

> <PUBCHEM_EXT_DATASOURCE_REGID>
SCHEMBL16114885

> <PUBCHEM_SUBSTANCE_COMMENT>
InChI=1S/C19H16F3N5O2/c1-10(2)29-16-5-11(3-4-23-16)14-6-15-12(7-24-14)17-13(8-25-26-17)18(28)27(15)9-19(20,21)22/h3-8,10H,9H2,1-2H3,(H,25,26)
InChIKey=KIWIWTVTLTTXFP-UHFFFAOYSA-N

> <PUBCHEM_SUBSTANCE_SYNONYM>
SCHEMBL16114885

> <PUBCHEM_XREF_EXT_ID>
SCHEMBL16114885

> <PUBCHEM_EXT_DATASOURCE_URL>
https://www.surechembl.org/

> <PUBCHEM_EXT_SUBSTANCE_URL>
https://www.surechembl.org/chemical/SCHEMBL16114885

> <PUBCHEM_CID_ASSOCIATIONS>
86298890  1

> <PUBCHEM_COORDINATE_TYPE>
1
3

$$$$
