310942059
  -OEChem-07211613022D

 20 22  0     0  0  0  0  0  0999 V2000
   -2.7018    1.8349    0.0000 F   0  0  0  0  0  0  0  0  0  0  0  0
    2.7018    1.6831    0.0000 O   0  0  0  0  0  0  0  0  0  0  0  0
   -0.3986   -0.5568    0.0000 N   0  0  0  0  0  0  0  0  0  0  0  0
    0.0063    0.7593    0.0000 C   0  0  0  0  0  0  0  0  0  0  0  0
   -0.8289    0.7719    0.0000 C   0  0  0  0  0  0  0  0  0  0  0  0
    0.2594   -0.0253    0.0000 C   0  0  0  0  0  0  0  0  0  0  0  0
   -1.0820   -0.0380    0.0000 C   0  0  0  0  0  0  0  0  0  0  0  0
    0.5505    1.3794    0.0000 C   0  0  0  0  0  0  0  0  0  0  0  0
   -1.3730    1.3794    0.0000 C   0  0  0  0  0  0  0  0  0  0  0  0
    1.0693   -0.2151    0.0000 C   0  0  0  0  0  0  0  0  0  0  0  0
   -1.8792   -0.2151    0.0000 C   0  0  0  0  0  0  0  0  0  0  0  0
    1.3477    1.2275    0.0000 C   0  0  0  0  0  0  0  0  0  0  0  0
   -0.4112   -1.3920    0.0000 C   0  0  0  0  0  0  0  0  0  0  0  0
   -2.1703    1.2149    0.0000 C   0  0  0  0  0  0  0  0  0  0  0  0
    1.6009    0.4050    0.0000 C   0  0  0  0  0  0  0  0  0  0  0  0
   -2.4233    0.4050    0.0000 C   0  0  0  0  0  0  0  0  0  0  0  0
    1.8792    1.8729    0.0000 C   0  0  0  0  0  0  0  0  0  0  0  0
   -1.1073   -1.7970    0.0000 C   0  0  0  0  0  0  0  0  0  0  0  0
    1.6135    2.6575    0.0000 C   0  0  0  0  0  0  0  0  0  0  0  0
   -1.0946   -2.6575    0.0000 C   0  0  0  0  0  0  0  0  0  0  0  0
  1 14  1  0  0  0  0
  2 17  2  0  0  0  0
  3  6  1  0  0  0  0
  3  7  1  0  0  0  0
  3 13  1  0  0  0  0
  4  5  1  0  0  0  0
  4  6  2  0  0  0  0
  4  8  1  0  0  0  0
  5  7  1  0  0  0  0
  5  9  2  0  0  0  0
  6 10  1  0  0  0  0
  7 11  2  0  0  0  0
  8 12  2  0  0  0  0
  9 14  1  0  0  0  0
 10 15  2  0  0  0  0
 11 16  1  0  0  0  0
 12 15  1  0  0  0  0
 12 17  1  0  0  0  0
 13 18  1  0  0  0  0
 14 16  2  0  0  0  0
 17 19  1  0  0  0  0
 18 20  1  0  0  0  0
M  END
> <PUBCHEM_COMPOUND_ID_TYPE>
0

> <PUBCHEM_TOTAL_CHARGE>
0

> <PUBCHEM_SUBSTANCE_ID>
310942059

> <PUBCHEM_SUBSTANCE_VERSION>
1

> <PUBCHEM_EXT_DATASOURCE_NAME>
4488

> <PUBCHEM_EXT_DATASOURCE_REGID>
SCHEMBL16120094

> <PUBCHEM_SUBSTANCE_COMMENT>
InChI=1S/C17H16FNO/c1-3-8-19-16-6-4-12(11(2)20)9-14(16)15-10-13(18)5-7-17(15)19/h4-7,9-10H,3,8H2,1-2H3
InChIKey=LRNHIPWQWNGGAS-UHFFFAOYSA-N

> <PUBCHEM_SUBSTANCE_SYNONYM>
SCHEMBL16120094

> <PUBCHEM_XREF_EXT_ID>
SCHEMBL16120094

> <PUBCHEM_EXT_DATASOURCE_URL>
https://www.surechembl.org/

> <PUBCHEM_EXT_SUBSTANCE_URL>
https://www.surechembl.org/chemical/SCHEMBL16120094

> <PUBCHEM_CID_ASSOCIATIONS>
117608735  1

> <PUBCHEM_COORDINATE_TYPE>
1
3

$$$$
