310937072
  -OEChem-07211613022D

 24 26  0     0  0  0  0  0  0999 V2000
    0.6568   -0.9721    0.0000 F   0  0  0  0  0  0  0  0  0  0  0  0
    0.1051   -2.2857    0.0000 F   0  0  0  0  0  0  0  0  0  0  0  0
    0.0000   -1.4713    0.0000 F   0  0  0  0  0  0  0  0  0  0  0  0
    5.7012   -2.2069    0.0000 O   0  0  0  0  0  0  0  0  0  0  0  0
    1.6027   -2.9163    0.0000 O   0  0  0  0  0  0  0  0  0  0  0  0
    4.4401   -1.8129    0.0000 N   0  0  0  0  0  0  0  0  0  0  0  0
    3.8621   -3.8884    0.0000 N   0  0  0  0  0  0  0  0  0  0  0  0
    5.2021   -2.8900    0.0000 N   0  0  0  0  0  0  0  0  0  0  0  0
    2.4434   -4.0460    0.0000 C   0  0  0  0  0  0  0  0  0  0  0  0
    3.7570   -3.1002    0.0000 C   0  0  0  0  0  0  0  0  0  0  0  0
    4.4401   -2.6273    0.0000 C   0  0  0  0  0  0  0  0  0  0  0  0
    2.3645   -3.2578    0.0000 C   0  0  0  0  0  0  0  0  0  0  0  0
    1.7866   -4.5190    0.0000 C   0  0  0  0  0  0  0  0  0  0  0  0
    5.2021   -1.5501    0.0000 C   0  0  0  0  0  0  0  0  0  0  0  0
    3.0214   -2.7324    0.0000 C   0  0  0  0  0  0  0  0  0  0  0  0
    5.4648   -0.7619    0.0000 C   0  0  0  0  0  0  0  0  0  0  0  0
    3.2053   -4.3876    0.0000 C   0  0  0  0  0  0  0  0  0  0  0  0
    1.4450   -5.2546    0.0000 C   0  0  0  0  0  0  0  0  0  0  0  0
    0.9458   -4.5978    0.0000 C   0  0  0  0  0  0  0  0  0  0  0  0
    1.5239   -2.1281    0.0000 C   0  0  0  0  0  0  0  0  0  0  0  0
    0.7619   -1.7866    0.0000 C   0  0  0  0  0  0  0  0  0  0  0  0
    6.2529   -1.0247    0.0000 C   0  0  0  0  0  0  0  0  0  0  0  0
    5.7275    0.0000    0.0000 C   0  0  0  0  0  0  0  0  0  0  0  0
    4.7029   -0.5255    0.0000 C   0  0  0  0  0  0  0  0  0  0  0  0
  1 21  1  0  0  0  0
  2 21  1  0  0  0  0
  3 21  1  0  0  0  0
  4  8  1  0  0  0  0
  4 14  1  0  0  0  0
  5 12  1  0  0  0  0
  5 20  1  0  0  0  0
  6 11  1  0  0  0  0
  6 14  2  0  0  0  0
  7 10  1  0  0  0  0
  7 17  2  0  0  0  0
  8 11  2  0  0  0  0
  9 12  2  0  0  0  0
  9 13  1  0  0  0  0
  9 17  1  0  0  0  0
 10 11  1  0  0  0  0
 10 15  2  0  0  0  0
 12 15  1  0  0  0  0
 13 18  1  0  0  0  0
 13 19  1  0  0  0  0
 14 16  1  0  0  0  0
 16 22  1  0  0  0  0
 16 23  1  0  0  0  0
 16 24  1  0  0  0  0
 18 19  1  0  0  0  0
 20 21  1  0  0  0  0
M  END
> <PUBCHEM_COMPOUND_ID_TYPE>
0

> <PUBCHEM_TOTAL_CHARGE>
0

> <PUBCHEM_SUBSTANCE_ID>
310937072

> <PUBCHEM_SUBSTANCE_VERSION>
1

> <PUBCHEM_EXT_DATASOURCE_NAME>
4488

> <PUBCHEM_EXT_DATASOURCE_REGID>
SCHEMBL16114784

> <PUBCHEM_SUBSTANCE_COMMENT>
InChI=1S/C16H18F3N3O2/c1-15(2,3)14-21-13(22-24-14)11-6-12(23-8-16(17,18)19)10(7-20-11)9-4-5-9/h6-7,9H,4-5,8H2,1-3H3
InChIKey=IGIGFJUOSNGGEA-UHFFFAOYSA-N

> <PUBCHEM_SUBSTANCE_SYNONYM>
SCHEMBL16114784

> <PUBCHEM_XREF_EXT_ID>
SCHEMBL16114784

> <PUBCHEM_EXT_DATASOURCE_URL>
https://www.surechembl.org/

> <PUBCHEM_EXT_SUBSTANCE_URL>
https://www.surechembl.org/chemical/SCHEMBL16114784

> <PUBCHEM_CID_ASSOCIATIONS>
86275928  1

> <PUBCHEM_COORDINATE_TYPE>
1
3

$$$$
