310949008
  -OEChem-07211613022D

 13 13  0     0  0  0  0  0  0999 V2000
    2.0902    0.9587    0.0000 Br  0  0  0  0  0  0  0  0  0  0  0  0
    0.6298   -1.5049    0.0000 F   0  0  0  0  0  0  0  0  0  0  0  0
   -2.0902    0.0335    0.0000 F   0  0  0  0  0  0  0  0  0  0  0  0
   -2.0902   -1.3934    0.0000 F   0  0  0  0  0  0  0  0  0  0  0  0
   -0.8416   -0.6911    0.0000 O   0  0  0  0  0  0  0  0  0  0  0  0
   -0.1059   -0.2787    0.0000 C   0  0  0  0  0  0  0  0  0  0  0  0
    0.6298   -0.6800    0.0000 C   0  0  0  0  0  0  0  0  0  0  0  0
    0.6187    0.9587    0.0000 C   0  0  0  0  0  0  0  0  0  0  0  0
    1.3656    0.5462    0.0000 C   0  0  0  0  0  0  0  0  0  0  0  0
   -0.0947    0.5462    0.0000 C   0  0  0  0  0  0  0  0  0  0  0  0
    1.3544   -0.2675    0.0000 C   0  0  0  0  0  0  0  0  0  0  0  0
   -1.6777   -0.6911    0.0000 C   0  0  0  0  0  0  0  0  0  0  0  0
    0.6187    1.5049    0.0000 C   0  0  0  0  0  0  0  0  0  0  0  0
  1  9  1  0  0  0  0
  2  7  1  0  0  0  0
  3 12  1  0  0  0  0
  4 12  1  0  0  0  0
  5  6  1  0  0  0  0
  5 12  1  0  0  0  0
  6  7  1  0  0  0  0
  6 10  2  0  0  0  0
  7 11  2  0  0  0  0
  8  9  2  0  0  0  0
  8 10  1  0  0  0  0
  8 13  1  0  0  0  0
  9 11  1  0  0  0  0
M  END
> <PUBCHEM_COMPOUND_ID_TYPE>
0

> <PUBCHEM_TOTAL_CHARGE>
0

> <PUBCHEM_SUBSTANCE_ID>
310949008

> <PUBCHEM_SUBSTANCE_VERSION>
1

> <PUBCHEM_EXT_DATASOURCE_NAME>
4488

> <PUBCHEM_EXT_DATASOURCE_REGID>
SCHEMBL16127196

> <PUBCHEM_SUBSTANCE_COMMENT>
InChI=1S/C8H6BrF3O/c1-4-2-7(13-8(11)12)6(10)3-5(4)9/h2-3,8H,1H3
InChIKey=UXDLUALOFLLUOT-UHFFFAOYSA-N

> <PUBCHEM_SUBSTANCE_SYNONYM>
SCHEMBL16127196

> <PUBCHEM_XREF_EXT_ID>
SCHEMBL16127196

> <PUBCHEM_EXT_DATASOURCE_URL>
https://www.surechembl.org/

> <PUBCHEM_EXT_SUBSTANCE_URL>
https://www.surechembl.org/chemical/SCHEMBL16127196

> <PUBCHEM_CID_ASSOCIATIONS>
117614516  1

> <PUBCHEM_COORDINATE_TYPE>
1
3

$$$$
