310943109
  -OEChem-07211613022D

 26 28  0     0  0  0  0  0  0999 V2000
   -2.5220   -1.4806    0.0000 O   0  0  0  0  0  0  0  0  0  0  0  0
   -3.8074    1.2366    0.0000 O   0  0  0  0  0  0  0  0  0  0  0  0
    3.1891    0.1627    0.0000 O   0  0  0  0  0  0  0  0  0  0  0  0
    2.4895   -1.0739    0.0000 O   0  0  0  0  0  0  0  0  0  0  0  0
   -2.5057    0.1953    0.0000 N   0  0  0  0  0  0  0  0  0  0  0  0
   -1.0901   -1.4969    0.0000 N   0  0  0  0  0  0  0  0  0  0  0  0
   -0.3579   -0.2603    0.0000 C   0  0  0  0  0  0  0  0  0  0  0  0
   -1.8060   -0.2440    0.0000 C   0  0  0  0  0  0  0  0  0  0  0  0
    0.3254    0.1464    0.0000 C   0  0  0  0  0  0  0  0  0  0  0  0
   -1.8223   -1.0739    0.0000 C   0  0  0  0  0  0  0  0  0  0  0  0
   -1.1064    0.1464    0.0000 C   0  0  0  0  0  0  0  0  0  0  0  0
    0.3417    0.9762    0.0000 C   0  0  0  0  0  0  0  0  0  0  0  0
   -0.3743   -1.0739    0.0000 C   0  0  0  0  0  0  0  0  0  0  0  0
    1.0576   -0.2440    0.0000 C   0  0  0  0  0  0  0  0  0  0  0  0
    1.7573    0.1627    0.0000 C   0  0  0  0  0  0  0  0  0  0  0  0
    1.0576    1.3667    0.0000 C   0  0  0  0  0  0  0  0  0  0  0  0
    1.7735    0.9762    0.0000 C   0  0  0  0  0  0  0  0  0  0  0  0
   -3.2704   -0.0976    0.0000 C   0  0  0  0  0  0  0  0  0  0  0  0
   -2.3755    1.0088    0.0000 C   0  0  0  0  0  0  0  0  0  0  0  0
    2.4895   -0.2278    0.0000 C   0  0  0  0  0  0  0  0  0  0  0  0
   -0.3905    1.3830    0.0000 C   0  0  0  0  0  0  0  0  0  0  0  0
   -3.9212    0.4230    0.0000 C   0  0  0  0  0  0  0  0  0  0  0  0
   -3.0264    1.5132    0.0000 C   0  0  0  0  0  0  0  0  0  0  0  0
   -3.2379   -1.0739    0.0000 C   0  0  0  0  0  0  0  0  0  0  0  0
   -3.9375   -1.5132    0.0000 C   0  0  0  0  0  0  0  0  0  0  0  0
    3.9375   -0.2603    0.0000 C   0  0  0  0  0  0  0  0  0  0  0  0
  1 10  1  0  0  0  0
  1 24  1  0  0  0  0
  2 22  1  0  0  0  0
  2 23  1  0  0  0  0
  3 20  1  0  0  0  0
  3 26  1  0  0  0  0
  4 20  2  0  0  0  0
  5  8  1  0  0  0  0
  5 18  1  0  0  0  0
  5 19  1  0  0  0  0
  6 10  1  0  0  0  0
  6 13  2  0  0  0  0
  7  9  1  0  0  0  0
  7 11  2  0  0  0  0
  7 13  1  0  0  0  0
  8 10  2  0  0  0  0
  8 11  1  0  0  0  0
  9 12  1  0  0  0  0
  9 14  2  0  0  0  0
 12 16  2  0  0  0  0
 12 21  1  0  0  0  0
 14 15  1  0  0  0  0
 15 17  2  0  0  0  0
 15 20  1  0  0  0  0
 16 17  1  0  0  0  0
 18 22  1  0  0  0  0
 19 23  1  0  0  0  0
 24 25  1  0  0  0  0
M  END
> <PUBCHEM_COMPOUND_ID_TYPE>
0

> <PUBCHEM_TOTAL_CHARGE>
0

> <PUBCHEM_SUBSTANCE_ID>
310943109

> <PUBCHEM_SUBSTANCE_VERSION>
1

> <PUBCHEM_EXT_DATASOURCE_NAME>
4488

> <PUBCHEM_EXT_DATASOURCE_REGID>
SCHEMBL16121168

> <PUBCHEM_SUBSTANCE_COMMENT>
InChI=1S/C20H24N2O4/c1-4-26-19-18(22-7-9-25-10-8-22)12-16(13-21-19)17-11-15(20(23)24-3)6-5-14(17)2/h5-6,11-13H,4,7-10H2,1-3H3
InChIKey=NJQLNMRJXQNZJU-UHFFFAOYSA-N

> <PUBCHEM_SUBSTANCE_SYNONYM>
SCHEMBL16121168

> <PUBCHEM_XREF_EXT_ID>
SCHEMBL16121168

> <PUBCHEM_EXT_DATASOURCE_URL>
https://www.surechembl.org/

> <PUBCHEM_EXT_SUBSTANCE_URL>
https://www.surechembl.org/chemical/SCHEMBL16121168

> <PUBCHEM_CID_ASSOCIATIONS>
117609539  1

> <PUBCHEM_COORDINATE_TYPE>
1
3

$$$$
