310937319
  -OEChem-07211613022D

 19 22  0     0  0  0  0  0  0999 V2000
    0.0000   -1.3992    0.0000 Br  0  0  0  0  0  0  0  0  0  0  0  0
    2.4662   -1.3992    0.0000 C   0  0  0  0  0  0  0  0  0  0  0  0
    2.0289   -2.0989    0.0000 C   0  0  0  0  0  0  0  0  0  0  0  0
    2.0289   -0.6996    0.0000 C   0  0  0  0  0  0  0  0  0  0  0  0
    3.2357   -1.3992    0.0000 C   0  0  0  0  0  0  0  0  0  0  0  0
    1.1893   -2.0989    0.0000 C   0  0  0  0  0  0  0  0  0  0  0  0
    3.6730   -0.6996    0.0000 C   0  0  0  0  0  0  0  0  0  0  0  0
    0.8221   -1.3992    0.0000 C   0  0  0  0  0  0  0  0  0  0  0  0
    1.1893   -0.6996    0.0000 C   0  0  0  0  0  0  0  0  0  0  0  0
    2.4662    0.0000    0.0000 C   0  0  0  0  0  0  0  0  0  0  0  0
    2.4662   -2.7985    0.0000 C   0  0  0  0  0  0  0  0  0  0  0  0
    3.2357    0.0000    0.0000 C   0  0  0  0  0  0  0  0  0  0  0  0
    3.6730   -2.0989    0.0000 C   0  0  0  0  0  0  0  0  0  0  0  0
    0.8221   -2.7985    0.0000 C   0  0  0  0  0  0  0  0  0  0  0  0
    4.5126   -0.6996    0.0000 C   0  0  0  0  0  0  0  0  0  0  0  0
    2.0289   -3.4981    0.0000 C   0  0  0  0  0  0  0  0  0  0  0  0
    1.1893   -3.4981    0.0000 C   0  0  0  0  0  0  0  0  0  0  0  0
    4.5126   -2.0989    0.0000 C   0  0  0  0  0  0  0  0  0  0  0  0
    4.8974   -1.3992    0.0000 C   0  0  0  0  0  0  0  0  0  0  0  0
  1  8  1  0  0  0  0
  2  3  2  0  0  0  0
  2  4  1  0  0  0  0
  2  5  1  0  0  0  0
  3  6  1  0  0  0  0
  3 11  1  0  0  0  0
  4  9  2  0  0  0  0
  4 10  1  0  0  0  0
  5  7  2  0  0  0  0
  5 13  1  0  0  0  0
  6  8  2  0  0  0  0
  6 14  1  0  0  0  0
  7 12  1  0  0  0  0
  7 15  1  0  0  0  0
  8  9  1  0  0  0  0
 10 12  1  0  0  0  0
 11 16  2  0  0  0  0
 13 18  2  0  0  0  0
 14 17  2  0  0  0  0
 15 19  2  0  0  0  0
 16 17  1  0  0  0  0
 18 19  1  0  0  0  0
M  END
> <PUBCHEM_COMPOUND_ID_TYPE>
0

> <PUBCHEM_TOTAL_CHARGE>
0

> <PUBCHEM_SUBSTANCE_ID>
310937319

> <PUBCHEM_SUBSTANCE_VERSION>
1

> <PUBCHEM_EXT_DATASOURCE_NAME>
4488

> <PUBCHEM_EXT_DATASOURCE_REGID>
SCHEMBL16115067

> <PUBCHEM_SUBSTANCE_COMMENT>
InChI=1S/C18H13Br/c19-17-11-13-10-9-12-5-1-2-6-14(12)18(13)16-8-4-3-7-15(16)17/h1-8,11H,9-10H2
InChIKey=CAVFZRHGFPBZSK-UHFFFAOYSA-N

> <PUBCHEM_SUBSTANCE_SYNONYM>
SCHEMBL16115067

> <PUBCHEM_XREF_EXT_ID>
SCHEMBL16115067

> <PUBCHEM_EXT_DATASOURCE_URL>
https://www.surechembl.org/

> <PUBCHEM_EXT_SUBSTANCE_URL>
https://www.surechembl.org/chemical/SCHEMBL16115067

> <PUBCHEM_CID_ASSOCIATIONS>
117605101  1

> <PUBCHEM_COORDINATE_TYPE>
1
3

$$$$
