310930997
  -OEChem-07211613022D

 32 36  0     0  0  0  0  0  0999 V2000
    2.8651   -2.4760    0.0000 S   0  0  0  0  0  0  0  0  0  0  0  0
    3.3250   -3.2542    0.0000 O   0  0  0  0  0  0  0  0  0  0  0  0
    2.4760   -1.7686    0.0000 O   0  0  0  0  0  0  0  0  0  0  0  0
    7.1805    0.0000    0.0000 O   0  0  0  0  0  0  0  0  0  0  0  0
    1.4149   -4.1385    0.0000 N   0  0  0  0  0  0  0  0  0  0  0  0
    8.5954   -2.4760    0.0000 N   0  0  0  0  0  0  0  0  0  0  0  0
   10.1165   -2.3346    0.0000 N   0  0  0  0  0  0  0  0  0  0  0  0
    6.4731   -1.2380    0.0000 N   0  0  0  0  0  0  0  0  0  0  0  0
   10.6116   -1.6625    0.0000 N   0  0  0  0  0  0  0  0  0  0  0  0
    2.1223   -2.8651    0.0000 C   0  0  0  0  0  0  0  0  0  0  0  0
    1.4149   -2.4407    0.0000 C   0  0  0  0  0  0  0  0  0  0  0  0
    3.5726   -2.0516    0.0000 C   0  0  0  0  0  0  0  0  0  0  0  0
    0.7074   -2.8651    0.0000 C   0  0  0  0  0  0  0  0  0  0  0  0
    2.1223   -3.7141    0.0000 C   0  0  0  0  0  0  0  0  0  0  0  0
    1.4503   -1.6271    0.0000 C   0  0  0  0  0  0  0  0  0  0  0  0
    4.3154   -2.4760    0.0000 C   0  0  0  0  0  0  0  0  0  0  0  0
    3.5726   -1.2380    0.0000 C   0  0  0  0  0  0  0  0  0  0  0  0
    0.7074   -3.6787    0.0000 C   0  0  0  0  0  0  0  0  0  0  0  0
    9.3382   -1.2380    0.0000 C   0  0  0  0  0  0  0  0  0  0  0  0
    9.3382   -2.0870    0.0000 C   0  0  0  0  0  0  0  0  0  0  0  0
    0.0000   -2.4760    0.0000 C   0  0  0  0  0  0  0  0  0  0  0  0
    5.0228   -1.2380    0.0000 C   0  0  0  0  0  0  0  0  0  0  0  0
    7.8880   -1.2380    0.0000 C   0  0  0  0  0  0  0  0  0  0  0  0
    5.0228   -2.0516    0.0000 C   0  0  0  0  0  0  0  0  0  0  0  0
    4.3154   -0.8136    0.0000 C   0  0  0  0  0  0  0  0  0  0  0  0
    8.5954   -0.8136    0.0000 C   0  0  0  0  0  0  0  0  0  0  0  0
    0.7074   -1.2027    0.0000 C   0  0  0  0  0  0  0  0  0  0  0  0
    7.1805   -0.8136    0.0000 C   0  0  0  0  0  0  0  0  0  0  0  0
    0.0000   -1.6271    0.0000 C   0  0  0  0  0  0  0  0  0  0  0  0
    7.8880   -2.0870    0.0000 C   0  0  0  0  0  0  0  0  0  0  0  0
   10.1165   -0.9904    0.0000 C   0  0  0  0  0  0  0  0  0  0  0  0
    5.7657   -0.8136    0.0000 C   0  0  0  0  0  0  0  0  0  0  0  0
  1  2  2  0  0  0  0
  1  3  2  0  0  0  0
  1 10  1  0  0  0  0
  1 12  1  0  0  0  0
  4 28  2  0  0  0  0
  5 14  1  0  0  0  0
  5 18  2  0  0  0  0
  6 20  1  0  0  0  0
  6 30  2  0  0  0  0
  7  9  1  0  0  0  0
  7 20  1  0  0  0  0
  8 28  1  0  0  0  0
  8 32  1  0  0  0  0
  9 31  2  0  0  0  0
 10 11  1  0  0  0  0
 10 14  2  0  0  0  0
 11 13  2  0  0  0  0
 11 15  1  0  0  0  0
 12 16  2  0  0  0  0
 12 17  1  0  0  0  0
 13 18  1  0  0  0  0
 13 21  1  0  0  0  0
 15 27  2  0  0  0  0
 16 24  1  0  0  0  0
 17 25  2  0  0  0  0
 19 20  2  0  0  0  0
 19 26  1  0  0  0  0
 19 31  1  0  0  0  0
 21 29  2  0  0  0  0
 22 24  2  0  0  0  0
 22 25  1  0  0  0  0
 22 32  1  0  0  0  0
 23 26  2  0  0  0  0
 23 28  1  0  0  0  0
 23 30  1  0  0  0  0
 27 29  1  0  0  0  0
M  END
> <PUBCHEM_COMPOUND_ID_TYPE>
0

> <PUBCHEM_TOTAL_CHARGE>
0

> <PUBCHEM_SUBSTANCE_ID>
310930997

> <PUBCHEM_SUBSTANCE_VERSION>
1

> <PUBCHEM_EXT_DATASOURCE_NAME>
4488

> <PUBCHEM_EXT_DATASOURCE_REGID>
SCHEMBL16108297

> <PUBCHEM_SUBSTANCE_COMMENT>
InChI=1S/C23H17N5O3S/c29-23(18-9-17-13-27-28-22(17)25-12-18)26-10-15-5-7-19(8-6-15)32(30,31)21-14-24-11-16-3-1-2-4-20(16)21/h1-9,11-14H,10H2,(H,26,29)(H,25,27,28)
InChIKey=PDLPYWSQUBNVAB-UHFFFAOYSA-N

> <PUBCHEM_SUBSTANCE_SYNONYM>
SCHEMBL16108297

> <PUBCHEM_XREF_EXT_ID>
SCHEMBL16108297

> <PUBCHEM_EXT_DATASOURCE_URL>
https://www.surechembl.org/

> <PUBCHEM_EXT_SUBSTANCE_URL>
https://www.surechembl.org/chemical/SCHEMBL16108297

> <PUBCHEM_CID_ASSOCIATIONS>
117599929  1

> <PUBCHEM_COORDINATE_TYPE>
1
3

$$$$
