310942861
  -OEChem-07211613022D

 33 37  0     0  0  0  0  0  0999 V2000
    6.3155   -0.0325    0.0000 F   0  0  0  0  0  0  0  0  0  0  0  0
    4.0406    1.8090    0.0000 O   0  0  0  0  0  0  0  0  0  0  0  0
   -5.6005   -0.8341    0.0000 O   0  0  0  0  0  0  0  0  0  0  0  0
   -2.7624   -0.8341    0.0000 O   0  0  0  0  0  0  0  0  0  0  0  0
   -5.6005    1.6358    0.0000 O   0  0  0  0  0  0  0  0  0  0  0  0
    3.2173    1.6358    0.0000 N   0  0  0  0  0  0  0  0  0  0  0  0
    1.0075   -0.4225    0.0000 N   0  0  0  0  0  0  0  0  0  0  0  0
    3.8890    0.4658    0.0000 C   0  0  0  0  0  0  0  0  0  0  0  0
    3.1306    0.8341    0.0000 C   0  0  0  0  0  0  0  0  0  0  0  0
    4.4306    1.0941    0.0000 C   0  0  0  0  0  0  0  0  0  0  0  0
   -4.9072   -0.4225    0.0000 C   0  0  0  0  0  0  0  0  0  0  0  0
    2.4374    0.4008    0.0000 C   0  0  0  0  0  0  0  0  0  0  0  0
   -4.8855    0.4008    0.0000 C   0  0  0  0  0  0  0  0  0  0  0  0
   -4.1706   -0.8125    0.0000 C   0  0  0  0  0  0  0  0  0  0  0  0
    4.1706   -0.3141    0.0000 C   0  0  0  0  0  0  0  0  0  0  0  0
   -3.4773   -0.4225    0.0000 C   0  0  0  0  0  0  0  0  0  0  0  0
    5.2105    0.9208    0.0000 C   0  0  0  0  0  0  0  0  0  0  0  0
   -5.6221    0.8125    0.0000 C   0  0  0  0  0  0  0  0  0  0  0  0
    5.4922    0.1408    0.0000 C   0  0  0  0  0  0  0  0  0  0  0  0
   -4.2139    0.7908    0.0000 C   0  0  0  0  0  0  0  0  0  0  0  0
   -3.4773    0.3792    0.0000 C   0  0  0  0  0  0  0  0  0  0  0  0
    2.3940   -0.4441    0.0000 C   0  0  0  0  0  0  0  0  0  0  0  0
    1.7007    0.8125    0.0000 C   0  0  0  0  0  0  0  0  0  0  0  0
    4.9506   -0.4658    0.0000 C   0  0  0  0  0  0  0  0  0  0  0  0
   -6.2938    0.4225    0.0000 C   0  0  0  0  0  0  0  0  0  0  0  0
   -6.3155   -0.4225    0.0000 C   0  0  0  0  0  0  0  0  0  0  0  0
    1.7224   -0.8341    0.0000 C   0  0  0  0  0  0  0  0  0  0  0  0
    1.0075    0.4008    0.0000 C   0  0  0  0  0  0  0  0  0  0  0  0
   -4.1923   -1.8090    0.0000 C   0  0  0  0  0  0  0  0  0  0  0  0
    0.3141   -0.8341    0.0000 C   0  0  0  0  0  0  0  0  0  0  0  0
   -1.8740   -0.4225    0.0000 C   0  0  0  0  0  0  0  0  0  0  0  0
   -0.4441   -0.4225    0.0000 C   0  0  0  0  0  0  0  0  0  0  0  0
   -1.1158   -0.8341    0.0000 C   0  0  0  0  0  0  0  0  0  0  0  0
  1 19  1  0  0  0  0
  2  6  1  0  0  0  0
  2 10  1  0  0  0  0
  3 11  1  0  0  0  0
  3 26  1  0  0  0  0
  4 16  1  0  0  0  0
  4 31  1  0  0  0  0
  5 18  2  0  0  0  0
  6  9  2  0  0  0  0
  7 27  1  0  0  0  0
  7 28  1  0  0  0  0
  7 30  1  0  0  0  0
  8  9  1  0  0  0  0
  8 10  2  0  0  0  0
  8 15  1  0  0  0  0
  9 12  1  0  0  0  0
 10 17  1  0  0  0  0
 11 13  1  0  0  0  0
 11 14  2  0  0  0  0
 12 22  1  0  0  0  0
 12 23  1  0  0  0  0
 13 18  1  0  0  0  0
 13 20  2  0  0  0  0
 14 16  1  0  0  0  0
 14 29  1  0  0  0  0
 15 24  2  0  0  0  0
 16 21  2  0  0  0  0
 17 19  2  0  0  0  0
 18 25  1  0  0  0  0
 19 24  1  0  0  0  0
 20 21  1  0  0  0  0
 22 27  1  0  0  0  0
 23 28  1  0  0  0  0
 25 26  1  0  0  0  0
 30 32  1  0  0  0  0
 31 33  1  0  0  0  0
 32 33  1  0  0  0  0
M  END
> <PUBCHEM_COMPOUND_ID_TYPE>
0

> <PUBCHEM_TOTAL_CHARGE>
0

> <PUBCHEM_SUBSTANCE_ID>
310942861

> <PUBCHEM_SUBSTANCE_VERSION>
1

> <PUBCHEM_EXT_DATASOURCE_NAME>
4488

> <PUBCHEM_EXT_DATASOURCE_REGID>
SCHEMBL16120919

> <PUBCHEM_SUBSTANCE_COMMENT>
InChI=1S/C26H29FN2O4/c1-17-23(7-6-20-22(30)10-15-32-26(17)20)31-14-3-2-11-29-12-8-18(9-13-29)25-21-5-4-19(27)16-24(21)33-28-25/h4-7,16,18H,2-3,8-15H2,1H3
InChIKey=LLDONNFMLALAQW-UHFFFAOYSA-N

> <PUBCHEM_SUBSTANCE_SYNONYM>
SCHEMBL16120919

> <PUBCHEM_XREF_EXT_ID>
SCHEMBL16120919

> <PUBCHEM_EXT_DATASOURCE_URL>
https://www.surechembl.org/

> <PUBCHEM_EXT_SUBSTANCE_URL>
https://www.surechembl.org/chemical/SCHEMBL16120919

> <PUBCHEM_CID_ASSOCIATIONS>
86272090  1

> <PUBCHEM_COORDINATE_TYPE>
1
3

$$$$
