310940562
  -OEChem-07211613022D

 33 36  0     0  0  0  0  0  0999 V2000
    2.2564   -0.3184    0.0000 O   0  0  0  0  0  0  0  0  0  0  0  0
    2.3512    1.1316    0.0000 O   0  0  0  0  0  0  0  0  0  0  0  0
   -1.8769   -0.4811    0.0000 O   0  0  0  0  0  0  0  0  0  0  0  0
    3.0694   -1.7143    0.0000 O   0  0  0  0  0  0  0  0  0  0  0  0
    1.1451    0.3726    0.0000 N   0  0  0  0  0  0  0  0  0  0  0  0
    0.9825   -2.0937    0.0000 N   0  0  0  0  0  0  0  0  0  0  0  0
   -2.6900   -3.1914    0.0000 N   0  0  0  0  0  0  0  0  0  0  0  0
    1.1994    3.2863    0.0000 N   0  0  0  0  0  0  0  0  0  0  0  0
    0.9418   -0.3998    0.0000 C   0  0  0  0  0  0  0  0  0  0  0  0
    0.2372   -0.7792    0.0000 C   0  0  0  0  0  0  0  0  0  0  0  0
    1.6601   -0.8063    0.0000 C   0  0  0  0  0  0  0  0  0  0  0  0
    0.2236   -1.6465    0.0000 C   0  0  0  0  0  0  0  0  0  0  0  0
    1.6465   -1.6330    0.0000 C   0  0  0  0  0  0  0  0  0  0  0  0
    1.9040    0.4675    0.0000 C   0  0  0  0  0  0  0  0  0  0  0  0
   -1.1722   -1.6330    0.0000 C   0  0  0  0  0  0  0  0  0  0  0  0
   -0.4675   -0.4133    0.0000 C   0  0  0  0  0  0  0  0  0  0  0  0
   -1.1722   -0.8063    0.0000 C   0  0  0  0  0  0  0  0  0  0  0  0
   -0.4675   -2.0260    0.0000 C   0  0  0  0  0  0  0  0  0  0  0  0
    0.5624    0.9825    0.0000 C   0  0  0  0  0  0  0  0  0  0  0  0
   -1.8904   -2.0395    0.0000 C   0  0  0  0  0  0  0  0  0  0  0  0
    2.3783   -2.0260    0.0000 C   0  0  0  0  0  0  0  0  0  0  0  0
    0.7521    1.7821    0.0000 C   0  0  0  0  0  0  0  0  0  0  0  0
   -1.9040   -2.8662    0.0000 C   0  0  0  0  0  0  0  0  0  0  0  0
   -2.6765   -1.7821    0.0000 C   0  0  0  0  0  0  0  0  0  0  0  0
    0.1965    2.3512    0.0000 C   0  0  0  0  0  0  0  0  0  0  0  0
    1.5517    1.9989    0.0000 C   0  0  0  0  0  0  0  0  0  0  0  0
   -1.8904    0.4269    0.0000 C   0  0  0  0  0  0  0  0  0  0  0  0
   -1.1587   -3.2863    0.0000 C   0  0  0  0  0  0  0  0  0  0  0  0
   -3.0017   -2.2970    0.0000 C   0  0  0  0  0  0  0  0  0  0  0  0
   -2.9204   -0.9825    0.0000 C   0  0  0  0  0  0  0  0  0  0  0  0
    0.3998    3.1508    0.0000 C   0  0  0  0  0  0  0  0  0  0  0  0
    1.7550    2.7849    0.0000 C   0  0  0  0  0  0  0  0  0  0  0  0
   -3.0694   -2.5274    0.0000 C   0  0  0  0  0  0  0  0  0  0  0  0
  1 11  1  0  0  0  0
  1 14  1  0  0  0  0
  2 14  2  0  0  0  0
  3 17  1  0  0  0  0
  3 27  1  0  0  0  0
  4 21  1  0  0  0  0
  5  9  1  0  0  0  0
  5 14  1  0  0  0  0
  5 19  1  0  0  0  0
  6 12  1  0  0  0  0
  6 13  2  0  0  0  0
  7 23  2  0  0  0  0
  7 33  1  0  0  0  0
  8 31  2  0  0  0  0
  8 32  1  0  0  0  0
  9 10  1  0  0  0  0
  9 11  2  0  0  0  0
 10 12  2  0  0  0  0
 10 16  1  0  0  0  0
 11 13  1  0  0  0  0
 12 18  1  0  0  0  0
 13 21  1  0  0  0  0
 15 17  1  0  0  0  0
 15 18  2  0  0  0  0
 15 20  1  0  0  0  0
 16 17  2  0  0  0  0
 19 22  1  0  0  0  0
 20 23  1  0  0  0  0
 20 24  2  0  0  0  0
 22 25  2  0  0  0  0
 22 26  1  0  0  0  0
 23 28  1  0  0  0  0
 24 29  1  0  0  0  0
 24 30  1  0  0  0  0
 25 31  1  0  0  0  0
 26 32  2  0  0  0  0
M  END
> <PUBCHEM_COMPOUND_ID_TYPE>
0

> <PUBCHEM_TOTAL_CHARGE>
0

> <PUBCHEM_SUBSTANCE_ID>
310940562

> <PUBCHEM_SUBSTANCE_VERSION>
1

> <PUBCHEM_EXT_DATASOURCE_NAME>
4488

> <PUBCHEM_EXT_DATASOURCE_REGID>
SCHEMBL16118516

> <PUBCHEM_SUBSTANCE_COMMENT>
InChI=1S/C25H26N4O4/c1-14(2)22(15(3)26-4)18-10-19-17(11-21(18)32-5)23-24(20(13-30)28-19)33-25(31)29(23)12-16-6-8-27-9-7-16/h6-11,30H,12-13H2,1-5H3/b26-15-
InChIKey=QYFSCQNKVADJOU-YSMPRRRNSA-N

> <PUBCHEM_SUBSTANCE_SYNONYM>
SCHEMBL16118516

> <PUBCHEM_XREF_EXT_ID>
SCHEMBL16118516

> <PUBCHEM_EXT_DATASOURCE_URL>
https://www.surechembl.org/

> <PUBCHEM_EXT_SUBSTANCE_URL>
https://www.surechembl.org/chemical/SCHEMBL16118516

> <PUBCHEM_CID_ASSOCIATIONS>
117607560  1

> <PUBCHEM_COORDINATE_TYPE>
1
3

$$$$
