310948981
  -OEChem-07211613022D

 15 14  0     0  0  0  0  0  0999 V2000
    2.0100   -1.1443    0.0000 O   0  0  0  0  0  0  0  0  0  0  0  0
   -0.0979   -0.7378    0.0000 O   0  0  0  0  0  0  0  0  0  0  0  0
   -2.9133    0.0753    0.0000 O   0  0  0  0  0  0  0  0  0  0  0  0
    3.4252   -1.9422    0.0000 O   0  0  0  0  0  0  0  0  0  0  0  0
   -4.1329    1.9422    0.0000 O   0  0  0  0  0  0  0  0  0  0  0  0
   -2.1906   -1.1443    0.0000 N   0  0  0  0  0  0  0  0  0  0  0  0
    4.1329   -0.7378    0.0000 N   0  0  0  0  0  0  0  0  0  0  0  0
   -2.9284   -0.7528    0.0000 C   0  0  0  0  0  0  0  0  0  0  0  0
    3.4252   -1.1141    0.0000 C   0  0  0  0  0  0  0  0  0  0  0  0
    2.7025   -0.7378    0.0000 C   0  0  0  0  0  0  0  0  0  0  0  0
   -1.5131   -0.7378    0.0000 C   0  0  0  0  0  0  0  0  0  0  0  0
    1.2873   -0.7378    0.0000 C   0  0  0  0  0  0  0  0  0  0  0  0
   -0.7754   -1.1292    0.0000 C   0  0  0  0  0  0  0  0  0  0  0  0
    0.6248   -1.1292    0.0000 C   0  0  0  0  0  0  0  0  0  0  0  0
   -4.1329   -0.9485    0.0000 C   0  0  0  0  0  0  0  0  0  0  0  0
  1 10  1  0  0  0  0
  1 12  1  0  0  0  0
  2 13  1  0  0  0  0
  2 14  1  0  0  0  0
  3  8  2  0  0  0  0
  4  9  2  0  0  0  0
  5 15  1  0  0  0  0
  6  8  1  0  0  0  0
  6 11  1  0  0  0  0
  7  9  1  0  0  0  0
  8 15  1  0  0  0  0
  9 10  1  0  0  0  0
 11 13  1  0  0  0  0
 12 14  1  0  0  0  0
M  END
> <PUBCHEM_COMPOUND_ID_TYPE>
0

> <PUBCHEM_TOTAL_CHARGE>
0

> <PUBCHEM_SUBSTANCE_ID>
310948981

> <PUBCHEM_SUBSTANCE_VERSION>
1

> <PUBCHEM_EXT_DATASOURCE_NAME>
4488

> <PUBCHEM_EXT_DATASOURCE_REGID>
SCHEMBL16127169

> <PUBCHEM_SUBSTANCE_COMMENT>
InChI=1S/C8H16N2O5/c9-7(12)6-15-4-3-14-2-1-10-8(13)5-11/h11H,1-6H2,(H2,9,12)(H,10,13)
InChIKey=UUJPZVBGKZKXNK-UHFFFAOYSA-N

> <PUBCHEM_SUBSTANCE_SYNONYM>
SCHEMBL16127169

> <PUBCHEM_XREF_EXT_ID>
SCHEMBL16127169

> <PUBCHEM_EXT_DATASOURCE_URL>
https://www.surechembl.org/

> <PUBCHEM_EXT_SUBSTANCE_URL>
https://www.surechembl.org/chemical/SCHEMBL16127169

> <PUBCHEM_CID_ASSOCIATIONS>
117614490  1

> <PUBCHEM_COORDINATE_TYPE>
1
3

$$$$
