310942710
  -OEChem-07211613022D

 34 36  0     0  0  0  0  0  0999 V2000
   -3.0936    2.0427    0.0000 Cl  0  0  0  0  0  0  0  0  0  0  0  0
    2.8775    2.0427    0.0000 S   0  0  0  0  0  0  0  0  0  0  0  0
    3.9971    4.5373    0.0000 S   0  0  0  0  0  0  0  0  0  0  0  0
    0.0098    0.3929    0.0000 O   0  0  0  0  0  0  0  0  0  0  0  0
    2.4454    2.7498    0.0000 O   0  0  0  0  0  0  0  0  0  0  0  0
    3.2703    1.3160    0.0000 O   0  0  0  0  0  0  0  0  0  0  0  0
   -2.8383   -4.5373    0.0000 O   0  0  0  0  0  0  0  0  0  0  0  0
   -4.2524   -4.5373    0.0000 O   0  0  0  0  0  0  0  0  0  0  0  0
    3.5846    2.4356    0.0000 N   0  0  0  0  0  0  0  0  0  0  0  0
    2.9364    3.7515    0.0000 N   0  0  0  0  0  0  0  0  0  0  0  0
   -0.6776    2.4552    0.0000 N   0  0  0  0  0  0  0  0  0  0  0  0
   -2.8186   -2.0821    0.0000 N   0  0  0  0  0  0  0  0  0  0  0  0
    2.1704    1.6303    0.0000 C   0  0  0  0  0  0  0  0  0  0  0  0
    0.7366    0.8053    0.0000 C   0  0  0  0  0  0  0  0  0  0  0  0
    0.7366    1.6303    0.0000 C   0  0  0  0  0  0  0  0  0  0  0  0
    1.4240    2.0231    0.0000 C   0  0  0  0  0  0  0  0  0  0  0  0
    2.1508    0.8053    0.0000 C   0  0  0  0  0  0  0  0  0  0  0  0
    1.4633    0.4125    0.0000 C   0  0  0  0  0  0  0  0  0  0  0  0
   -0.6973    0.8053    0.0000 C   0  0  0  0  0  0  0  0  0  0  0  0
    3.5846    3.2801    0.0000 C   0  0  0  0  0  0  0  0  0  0  0  0
   -1.4044    0.4125    0.0000 C   0  0  0  0  0  0  0  0  0  0  0  0
    0.0294    2.0231    0.0000 C   0  0  0  0  0  0  0  0  0  0  0  0
   -0.6973    1.6303    0.0000 C   0  0  0  0  0  0  0  0  0  0  0  0
   -2.0919    0.8053    0.0000 C   0  0  0  0  0  0  0  0  0  0  0  0
    4.2524    3.7712    0.0000 C   0  0  0  0  0  0  0  0  0  0  0  0
   -2.1115    1.6303    0.0000 C   0  0  0  0  0  0  0  0  0  0  0  0
   -1.3847    2.0231    0.0000 C   0  0  0  0  0  0  0  0  0  0  0  0
   -1.4240   -0.4518    0.0000 C   0  0  0  0  0  0  0  0  0  0  0  0
    3.1918    4.5373    0.0000 C   0  0  0  0  0  0  0  0  0  0  0  0
   -2.0919   -0.8249    0.0000 C   0  0  0  0  0  0  0  0  0  0  0  0
   -2.1115   -1.6696    0.0000 C   0  0  0  0  0  0  0  0  0  0  0  0
   -2.8383   -2.9070    0.0000 C   0  0  0  0  0  0  0  0  0  0  0  0
   -3.5061   -3.2998    0.0000 C   0  0  0  0  0  0  0  0  0  0  0  0
   -3.5649   -4.1051    0.0000 C   0  0  0  0  0  0  0  0  0  0  0  0
  1 26  1  0  0  0  0
  2  5  2  0  0  0  0
  2  6  2  0  0  0  0
  2  9  1  0  0  0  0
  2 13  1  0  0  0  0
  3 25  1  0  0  0  0
  3 29  1  0  0  0  0
  4 14  1  0  0  0  0
  4 19  1  0  0  0  0
  7 34  2  0  0  0  0
  8 34  1  0  0  0  0
  9 20  1  0  0  0  0
 10 20  1  0  0  0  0
 10 29  2  0  0  0  0
 11 22  3  0  0  0  0
 12 31  1  0  0  0  0
 12 32  1  0  0  0  0
 13 16  1  0  0  0  0
 13 17  2  0  0  0  0
 14 15  1  0  0  0  0
 14 18  2  0  0  0  0
 15 16  2  0  0  0  0
 15 22  1  0  0  0  0
 17 18  1  0  0  0  0
 19 21  2  0  0  0  0
 19 23  1  0  0  0  0
 20 25  2  0  0  0  0
 21 24  1  0  0  0  0
 21 28  1  0  0  0  0
 23 27  2  0  0  0  0
 24 26  2  0  0  0  0
 26 27  1  0  0  0  0
 28 30  1  0  0  0  0
 30 31  1  0  0  0  0
 32 33  1  0  0  0  0
 33 34  1  0  0  0  0
M  END
> <PUBCHEM_COMPOUND_ID_TYPE>
0

> <PUBCHEM_TOTAL_CHARGE>
0

> <PUBCHEM_SUBSTANCE_ID>
310942710

> <PUBCHEM_SUBSTANCE_VERSION>
1

> <PUBCHEM_EXT_DATASOURCE_NAME>
4488

> <PUBCHEM_EXT_DATASOURCE_REGID>
SCHEMBL16120756

> <PUBCHEM_SUBSTANCE_COMMENT>
InChI=1S/C22H21ClN4O5S2/c23-17-3-5-19(15(10-17)2-1-8-25-9-7-22(28)29)32-20-6-4-18(11-16(20)12-24)34(30,31)27-21-13-33-14-26-21/h3-6,10-11,13-14,25,27H,1-2,7-9H2,(H,28,29)
InChIKey=LQIQUKQNKZJWLP-UHFFFAOYSA-N

> <PUBCHEM_SUBSTANCE_SYNONYM>
SCHEMBL16120756

> <PUBCHEM_XREF_EXT_ID>
SCHEMBL16120756

> <PUBCHEM_EXT_DATASOURCE_URL>
https://www.surechembl.org/

> <PUBCHEM_EXT_SUBSTANCE_URL>
https://www.surechembl.org/chemical/SCHEMBL16120756

> <PUBCHEM_CID_ASSOCIATIONS>
85472280  1

> <PUBCHEM_COORDINATE_TYPE>
1
3

$$$$
