310929676
  -OEChem-07211613022D

 59 63  0     1  0  0  0  0  0999 V2000
    0.0000   -1.6500    0.0000 O   0  0  0  0  0  0  0  0  0  0  0  0
    1.4289    0.8250    0.0000 O   0  0  0  0  0  0  0  0  0  0  0  0
    0.5619   -5.1657    0.0000 O   0  0  0  0  0  0  0  0  0  0  0  0
   -1.8414    4.0145    0.0000 O   0  0  0  0  0  0  0  0  0  0  0  0
   -0.5619   -5.1657    0.0000 O   0  0  0  0  0  0  0  0  0  0  0  0
    1.7179   -4.3257    0.0000 O   0  0  0  0  0  0  0  0  0  0  0  0
   -1.7179   -4.3257    0.0000 O   0  0  0  0  0  0  0  0  0  0  0  0
    0.3020    6.9020    0.0000 O   0  0  0  0  0  0  0  0  0  0  0  0
   -0.4125    4.0145    0.0000 O   0  0  0  0  0  0  0  0  0  0  0  0
   -1.1270    6.9020    0.0000 O   0  0  0  0  0  0  0  0  0  0  0  0
    1.4289   -1.6500    0.0000 N   0  0  0  0  0  0  0  0  0  0  0  0
    0.4125   -3.7445    0.0000 N   0  0  0  0  0  0  0  0  0  0  0  0
    3.5724   -0.4125    0.0000 N   0  0  0  0  0  0  0  0  0  0  0  0
   -1.1270    5.2520    0.0000 N   0  0  0  0  0  0  0  0  0  0  0  0
    0.7145   -0.4125    0.0000 C   0  0  0  0  0  0  0  0  0  0  0  0
    1.4289    0.0000    0.0000 C   0  0  0  0  0  0  0  0  0  0  0  0
    0.7145   -1.2375    0.0000 C   0  0  0  0  0  0  0  0  0  0  0  0
    2.1434   -0.4125    0.0000 C   0  0  0  0  0  0  0  0  0  0  0  0
    2.1434   -1.2375    0.0000 C   0  0  0  0  0  0  0  0  0  0  0  0
    0.0000   -2.4750    0.0000 C   0  0  3  0  0  0  0  0  0  0  0  0
    0.0000    0.0000    0.0000 C   0  0  0  0  0  0  0  0  0  0  0  0
   -0.4125   -3.7445    0.0000 C   0  0  3  0  0  0  0  0  0  0  0  0
    0.6674   -2.9599    0.0000 C   0  0  0  0  0  0  0  0  0  0  0  0
   -0.6674   -2.9599    0.0000 C   0  0  0  0  0  0  0  0  0  0  0  0
    2.8579    0.0000    0.0000 C   0  0  0  0  0  0  0  0  0  0  0  0
    2.8579   -1.6500    0.0000 C   0  0  0  0  0  0  0  0  0  0  0  0
    0.8974   -4.4120    0.0000 C   0  0  0  0  0  0  0  0  0  0  0  0
   -0.8974   -4.4120    0.0000 C   0  0  0  0  0  0  0  0  0  0  0  0
    0.0000    0.8250    0.0000 C   0  0  0  0  0  0  0  0  0  0  0  0
   -1.4289    2.4750    0.0000 C   0  0  3  0  0  0  0  0  0  0  0  0
   -1.8414    3.1895    0.0000 C   0  0  3  0  0  0  0  0  0  0  0  0
    3.5724   -1.2375    0.0000 C   0  0  0  0  0  0  0  0  0  0  0  0
   -2.2539    2.4750    0.0000 C   0  0  0  0  0  0  0  0  0  0  0  0
    0.7145    1.2375    0.0000 C   0  0  0  0  0  0  0  0  0  0  0  0
   -0.7145   -0.4125    0.0000 C   0  0  0  0  0  0  0  0  0  0  0  0
   -0.7145    1.2375    0.0000 C   0  0  0  0  0  0  0  0  0  0  0  0
   -0.7145    2.0625    0.0000 C   0  0  0  0  0  0  0  0  0  0  0  0
    1.0468   -5.8331    0.0000 C   0  0  0  0  0  0  0  0  0  0  0  0
    0.7145    2.0625    0.0000 C   0  0  0  0  0  0  0  0  0  0  0  0
   -1.1270    4.4270    0.0000 C   0  0  0  0  0  0  0  0  0  0  0  0
   -0.4125    5.6645    0.0000 C   0  0  3  0  0  0  0  0  0  0  0  0
    0.3020    5.2520    0.0000 C   0  0  0  0  0  0  0  0  0  0  0  0
   -0.4125    6.4895    0.0000 C   0  0  0  0  0  0  0  0  0  0  0  0
    0.0000    2.4750    0.0000 C   0  0  0  0  0  0  0  0  0  0  0  0
    1.4289    2.4750    0.0000 C   0  0  0  0  0  0  0  0  0  0  0  0
    1.5317   -6.5005    0.0000 C   0  0  0  0  0  0  0  0  0  0  0  0
    1.7142   -5.3482    0.0000 C   0  0  0  0  0  0  0  0  0  0  0  0
    0.3793   -6.3180    0.0000 C   0  0  0  0  0  0  0  0  0  0  0  0
   -1.0468   -5.8331    0.0000 C   0  0  0  0  0  0  0  0  0  0  0  0
    0.3020    7.7270    0.0000 C   0  0  0  0  0  0  0  0  0  0  0  0
   -0.1105    4.5375    0.0000 C   0  0  0  0  0  0  0  0  0  0  0  0
    0.7145    5.9664    0.0000 C   0  0  0  0  0  0  0  0  0  0  0  0
    1.0164    4.8395    0.0000 C   0  0  0  0  0  0  0  0  0  0  0  0
    0.0000    3.3000    0.0000 C   0  0  0  0  0  0  0  0  0  0  0  0
    1.4289    3.3000    0.0000 C   0  0  0  0  0  0  0  0  0  0  0  0
    0.7145    3.7125    0.0000 C   0  0  0  0  0  0  0  0  0  0  0  0
    0.3020    8.5520    0.0000 C   0  0  0  0  0  0  0  0  0  0  0  0
    1.1270    7.7270    0.0000 C   0  0  0  0  0  0  0  0  0  0  0  0
   -0.5230    7.7270    0.0000 C   0  0  0  0  0  0  0  0  0  0  0  0
  1 17  1  0  0  0  0
  1 20  1  0  0  0  0
  2 16  1  0  0  0  0
  2 34  1  0  0  0  0
  3 27  1  0  0  0  0
  3 38  1  0  0  0  0
 31  4  1  1  0  0  0
  4 40  1  0  0  0  0
  5 28  1  0  0  0  0
  5 49  1  0  0  0  0
  6 27  2  0  0  0  0
  7 28  2  0  0  0  0
  8 43  1  0  0  0  0
  8 50  1  0  0  0  0
  9 40  2  0  0  0  0
 10 43  2  0  0  0  0
 11 17  1  0  0  0  0
 11 19  2  0  0  0  0
 12 22  1  0  0  0  0
 12 23  1  0  0  0  0
 12 27  1  0  0  0  0
 13 25  2  0  0  0  0
 13 32  1  0  0  0  0
 14 40  1  0  0  0  0
 41 14  1  6  0  0  0
 15 16  1  0  0  0  0
 15 17  2  0  0  0  0
 15 21  1  0  0  0  0
 16 18  2  0  0  0  0
 18 19  1  0  0  0  0
 18 25  1  0  0  0  0
 19 26  1  0  0  0  0
 20 23  1  0  0  0  0
 20 24  1  0  0  0  0
 21 29  1  0  0  0  0
 21 35  2  0  0  0  0
 22 24  1  0  0  0  0
 22 28  1  0  0  0  0
 26 32  2  0  0  0  0
 29 36  1  0  0  0  0
 30 31  1  0  0  0  0
 30 33  1  0  0  0  0
 30 37  1  6  0  0  0
 31 33  1  0  0  0  0
 34 39  1  0  0  0  0
 36 37  1  0  0  0  0
 38 46  1  0  0  0  0
 38 47  1  0  0  0  0
 38 48  1  0  0  0  0
 39 44  2  0  0  0  0
 39 45  1  0  0  0  0
 41 42  1  0  0  0  0
 41 43  1  0  0  0  0
 42 51  1  0  0  0  0
 42 52  1  0  0  0  0
 42 53  1  0  0  0  0
 44 54  1  0  0  0  0
 45 55  2  0  0  0  0
 50 57  1  0  0  0  0
 50 58  1  0  0  0  0
 50 59  1  0  0  0  0
 54 56  2  0  0  0  0
 55 56  1  0  0  0  0
M  END
> <PUBCHEM_COMPOUND_ID_TYPE>
0

> <PUBCHEM_TOTAL_CHARGE>
0

> <PUBCHEM_SUBSTANCE_ID>
310929676

> <PUBCHEM_SUBSTANCE_VERSION>
1

> <PUBCHEM_EXT_DATASOURCE_NAME>
4488

> <PUBCHEM_EXT_DATASOURCE_REGID>
SCHEMBL16106867

> <PUBCHEM_SUBSTANCE_COMMENT>
InChI=1S/C45H60N4O10/c1-27(16-15-19-29-22-34(29)57-41(52)48-37(43(2,3)4)40(51)58-44(5,6)7)35-36(55-26-28-17-13-12-14-18-28)31-24-46-21-20-32(31)47-38(35)56-30-23-33(39(50)54-11)49(25-30)42(53)59-45(8,9)10/h12-14,17-18,20-21,24,29-30,33-34,37H,1,15-16,19,22-23,25-26H2,2-11H3,(H,48,52)/t29-,30?,33?,34-,37-/m1/s1
InChIKey=WGWDGJBRZORSHV-JWFOJUBTSA-N

> <PUBCHEM_SUBSTANCE_SYNONYM>
SCHEMBL16106867

> <PUBCHEM_XREF_EXT_ID>
SCHEMBL16106867

> <PUBCHEM_EXT_DATASOURCE_URL>
https://www.surechembl.org/

> <PUBCHEM_EXT_SUBSTANCE_URL>
https://www.surechembl.org/chemical/SCHEMBL16106867

> <PUBCHEM_CID_ASSOCIATIONS>
117598973  1

> <PUBCHEM_COORDINATE_TYPE>
1
3

> <PUBCHEM_BONDANNOTATIONS>
41  14  6
30  37  6
31  4  5

$$$$
