310941414
  -OEChem-07211613022D

 42 44  0     1  0  0  0  0  0999 V2000
    3.6331    0.8888    0.0000 O   0  0  0  0  0  0  0  0  0  0  0  0
    2.1833   -0.7680    0.0000 O   0  0  0  0  0  0  0  0  0  0  0  0
   -0.0604    1.2685    0.0000 O   0  0  0  0  0  0  0  0  0  0  0  0
   -2.2006   -0.8199    0.0000 O   0  0  0  0  0  0  0  0  0  0  0  0
   -1.6226   -1.8085    0.0000 O   0  0  0  0  0  0  0  0  0  0  0  0
   -2.2006    1.6655    0.0000 O   0  0  0  0  0  0  0  0  0  0  0  0
   -2.1212   -2.6285    0.0000 O   0  0  0  0  0  0  0  0  0  0  0  0
    2.1143   -2.4767    0.0000 O   0  0  0  0  0  0  0  0  0  0  0  0
    0.6645    0.0259    0.0000 N   0  0  0  0  0  0  0  0  0  0  0  0
   -1.4757    0.4228    0.0000 N   0  0  0  0  0  0  0  0  0  0  0  0
   -3.6503    0.0086    0.0000 N   0  0  0  0  0  0  0  0  0  0  0  0
    2.9255    0.4919    0.0000 C   0  0  3  0  0  0  0  0  0  0  0  0
    2.2006    0.0777    0.0000 C   0  0  0  0  0  0  0  0  0  0  0  0
    2.9255    1.3031    0.0000 C   0  0  0  0  0  0  0  0  0  0  0  0
    1.4757    0.4919    0.0000 C   0  0  3  0  0  0  0  0  0  0  0  0
    3.6503    0.0777    0.0000 C   0  0  0  0  0  0  0  0  0  0  0  0
    1.4929    1.3204    0.0000 C   0  0  0  0  0  0  0  0  0  0  0  0
   -0.0604    0.4228    0.0000 C   0  0  0  0  0  0  0  0  0  0  0  0
   -0.7508    0.0259    0.0000 C   0  0  3  0  0  0  0  0  0  0  0  0
    2.0798    1.9245    0.0000 C   0  0  0  0  0  0  0  0  0  0  0  0
   -2.2006    0.0431    0.0000 C   0  0  0  0  0  0  0  0  0  0  0  0
   -0.7853   -0.8371    0.0000 C   0  0  0  0  0  0  0  0  0  0  0  0
   -2.9427    0.4401    0.0000 C   0  0  3  0  0  0  0  0  0  0  0  0
   -0.0431   -1.2340    0.0000 C   0  0  0  0  0  0  0  0  0  0  0  0
    2.8737    1.7001    0.0000 C   0  0  0  0  0  0  0  0  0  0  0  0
    1.8554    2.7011    0.0000 C   0  0  0  0  0  0  0  0  0  0  0  0
   -2.9082    1.2513    0.0000 C   0  0  3  0  0  0  0  0  0  0  0  0
   -0.0259   -2.0625    0.0000 C   0  0  0  0  0  0  0  0  0  0  0  0
    0.6645   -0.8199    0.0000 C   0  0  0  0  0  0  0  0  0  0  0  0
   -2.1212   -2.0966    0.0000 C   0  0  0  0  0  0  0  0  0  0  0  0
    3.4433    2.2696    0.0000 C   0  0  0  0  0  0  0  0  0  0  0  0
    2.4422    3.2879    0.0000 C   0  0  0  0  0  0  0  0  0  0  0  0
    1.3721   -2.0452    0.0000 C   0  0  0  0  0  0  0  0  0  0  0  0
    0.6817   -2.4767    0.0000 C   0  0  0  0  0  0  0  0  0  0  0  0
    1.3894   -1.2340    0.0000 C   0  0  0  0  0  0  0  0  0  0  0  0
    3.2361    3.0636    0.0000 C   0  0  0  0  0  0  0  0  0  0  0  0
   -1.6115   -1.2545    0.0000 C   0  0  0  0  0  0  0  0  0  0  0  0
   -3.6503    1.6482    0.0000 C   0  0  0  0  0  0  0  0  0  0  0  0
   -1.1129   -1.2324    0.0000 C   0  0  0  0  0  0  0  0  0  0  0  0
   -2.1212   -1.2545    0.0000 C   0  0  0  0  0  0  0  0  0  0  0  0
   -1.6226   -0.7116    0.0000 C   0  0  0  0  0  0  0  0  0  0  0  0
    2.1315   -3.2879    0.0000 C   0  0  0  0  0  0  0  0  0  0  0  0
  1 12  1  0  0  0  0
  1 14  1  0  0  0  0
  2 13  2  0  0  0  0
  3 18  2  0  0  0  0
  4 21  2  0  0  0  0
  5 30  1  0  0  0  0
  5 37  1  0  0  0  0
 27  6  1  6  0  0  0
  7 30  2  0  0  0  0
  8 33  1  0  0  0  0
  8 42  1  0  0  0  0
 15  9  1  1  0  0  0
  9 18  1  0  0  0  0
 19 10  1  6  0  0  0
 10 21  1  0  0  0  0
 23 11  1  1  0  0  0
 11 30  1  0  0  0  0
 12 13  1  1  0  0  0
 12 14  1  0  0  0  0
 12 16  1  6  0  0  0
 13 15  1  0  0  0  0
 15 17  1  0  0  0  0
 17 20  1  0  0  0  0
 18 19  1  0  0  0  0
 19 22  1  0  0  0  0
 20 25  2  0  0  0  0
 20 26  1  0  0  0  0
 21 23  1  0  0  0  0
 22 24  1  0  0  0  0
 23 27  1  0  0  0  0
 24 28  2  0  0  0  0
 24 29  1  0  0  0  0
 25 31  1  0  0  0  0
 26 32  2  0  0  0  0
 27 38  1  0  0  0  0
 28 34  1  0  0  0  0
 29 35  2  0  0  0  0
 31 36  2  0  0  0  0
 32 36  1  0  0  0  0
 33 34  2  0  0  0  0
 33 35  1  0  0  0  0
 37 39  1  0  0  0  0
 37 40  1  0  0  0  0
 37 41  1  0  0  0  0
M  END
> <PUBCHEM_COMPOUND_ID_TYPE>
0

> <PUBCHEM_TOTAL_CHARGE>
0

> <PUBCHEM_SUBSTANCE_ID>
310941414

> <PUBCHEM_SUBSTANCE_VERSION>
1

> <PUBCHEM_EXT_DATASOURCE_NAME>
4488

> <PUBCHEM_EXT_DATASOURCE_REGID>
SCHEMBL16119374

> <PUBCHEM_SUBSTANCE_COMMENT>
InChI=1S/C31H41N3O8/c1-19(35)25(34-29(39)42-30(2,3)4)28(38)33-24(17-21-12-14-22(40-6)15-13-21)27(37)32-23(26(36)31(5)18-41-31)16-20-10-8-7-9-11-20/h7-15,19,23-25,35H,16-18H2,1-6H3,(H,32,37)(H,33,38)(H,34,39)/t19-,23-,24-,25-,31+/m0/s1
InChIKey=HJXWWWSEHKOWRU-MSEQSVTRSA-N

> <PUBCHEM_SUBSTANCE_SYNONYM>
SCHEMBL16119374

> <PUBCHEM_XREF_EXT_ID>
SCHEMBL16119374

> <PUBCHEM_EXT_DATASOURCE_URL>
https://www.surechembl.org/

> <PUBCHEM_EXT_SUBSTANCE_URL>
https://www.surechembl.org/chemical/SCHEMBL16119374

> <PUBCHEM_CID_ASSOCIATIONS>
117608239  1

> <PUBCHEM_COORDINATE_TYPE>
1
3

> <PUBCHEM_BONDANNOTATIONS>
19  10  6
23  11  5
12  13  5
12  16  6
27  6  6
15  9  5

$$$$
