310933016
  -OEChem-07211613022D

 21 22  0     0  0  0  0  0  0999 V2000
    2.8709   -2.4749    0.0000 O   0  0  0  0  0  0  0  0  0  0  0  0
    2.1449   -6.1706    0.0000 O   0  0  0  0  0  0  0  0  0  0  0  0
    3.5638   -2.9038    0.0000 O   0  0  0  0  0  0  0  0  0  0  0  0
    4.2898   -4.1248    0.0000 O   0  0  0  0  0  0  0  0  0  0  0  0
    0.0000    0.0000    0.0000 N   0  0  0  0  0  0  0  0  0  0  0  0
    2.1449   -3.6958    0.0000 C   0  0  0  0  0  0  0  0  0  0  0  0
    2.8378   -4.1248    0.0000 C   0  0  0  0  0  0  0  0  0  0  0  0
    2.1449   -2.9038    0.0000 C   0  0  0  0  0  0  0  0  0  0  0  0
    1.4189   -2.4749    0.0000 C   0  0  0  0  0  0  0  0  0  0  0  0
    2.8378   -4.9497    0.0000 C   0  0  0  0  0  0  0  0  0  0  0  0
    1.4189   -4.1248    0.0000 C   0  0  0  0  0  0  0  0  0  0  0  0
    2.1449   -5.3457    0.0000 C   0  0  0  0  0  0  0  0  0  0  0  0
    3.5638   -3.6958    0.0000 C   0  0  0  0  0  0  0  0  0  0  0  0
    1.4189   -4.9497    0.0000 C   0  0  0  0  0  0  0  0  0  0  0  0
    1.4189   -1.6499    0.0000 C   0  0  0  0  0  0  0  0  0  0  0  0
    0.7260   -2.8709    0.0000 C   0  0  0  0  0  0  0  0  0  0  0  0
    0.7260   -1.2209    0.0000 C   0  0  0  0  0  0  0  0  0  0  0  0
    0.0000   -2.4749    0.0000 C   0  0  0  0  0  0  0  0  0  0  0  0
    0.0000   -1.6499    0.0000 C   0  0  0  0  0  0  0  0  0  0  0  0
    0.7260   -0.3960    0.0000 C   0  0  0  0  0  0  0  0  0  0  0  0
    2.8709   -6.5996    0.0000 C   0  0  0  0  0  0  0  0  0  0  0  0
  1  8  2  0  0  0  0
  2 12  1  0  0  0  0
  2 21  1  0  0  0  0
  3 13  2  0  0  0  0
  4 13  1  0  0  0  0
  5 20  3  0  0  0  0
  6  7  2  0  0  0  0
  6  8  1  0  0  0  0
  6 11  1  0  0  0  0
  7 10  1  0  0  0  0
  7 13  1  0  0  0  0
  8  9  1  0  0  0  0
  9 15  2  0  0  0  0
  9 16  1  0  0  0  0
 10 12  2  0  0  0  0
 11 14  2  0  0  0  0
 12 14  1  0  0  0  0
 15 17  1  0  0  0  0
 16 18  2  0  0  0  0
 17 19  2  0  0  0  0
 17 20  1  0  0  0  0
 18 19  1  0  0  0  0
M  END
> <PUBCHEM_COMPOUND_ID_TYPE>
0

> <PUBCHEM_TOTAL_CHARGE>
0

> <PUBCHEM_SUBSTANCE_ID>
310933016

> <PUBCHEM_SUBSTANCE_VERSION>
1

> <PUBCHEM_EXT_DATASOURCE_NAME>
4488

> <PUBCHEM_EXT_DATASOURCE_REGID>
SCHEMBL16110416

> <PUBCHEM_SUBSTANCE_COMMENT>
InChI=1S/C16H11NO4/c1-21-12-5-6-13(14(8-12)16(19)20)15(18)11-4-2-3-10(7-11)9-17/h2-8H,1H3,(H,19,20)
InChIKey=IEXSPERWMAOWAX-UHFFFAOYSA-N

> <PUBCHEM_SUBSTANCE_SYNONYM>
SCHEMBL16110416

> <PUBCHEM_XREF_EXT_ID>
SCHEMBL16110416

> <PUBCHEM_EXT_DATASOURCE_URL>
https://www.surechembl.org/

> <PUBCHEM_EXT_SUBSTANCE_URL>
https://www.surechembl.org/chemical/SCHEMBL16110416

> <PUBCHEM_CID_ASSOCIATIONS>
117601483  1

> <PUBCHEM_COORDINATE_TYPE>
1
3

$$$$
