310938587
  -OEChem-07211613022D

 14 15  0     0  0  0  0  0  0999 V2000
   -3.3779    4.0313    0.0000 F   0  0  0  0  0  0  0  0  0  0  0  0
   -3.3779    0.7313    0.0000 N   0  0  0  0  0  0  0  0  0  0  0  0
   -2.5933    0.4764    0.0000 N   0  0  0  0  0  0  0  0  0  0  0  0
   -1.2834    1.1438    0.0000 N   0  0  0  0  0  0  0  0  0  0  0  0
   -3.3779    1.5563    0.0000 C   0  0  0  0  0  0  0  0  0  0  0  0
   -4.0924    1.9688    0.0000 C   0  0  0  0  0  0  0  0  0  0  0  0
   -4.0924    2.7938    0.0000 C   0  0  0  0  0  0  0  0  0  0  0  0
   -2.5933    1.8112    0.0000 C   0  0  0  0  0  0  0  0  0  0  0  0
   -2.1084    1.1438    0.0000 C   0  0  0  0  0  0  0  0  0  0  0  0
   -4.8069    1.5563    0.0000 C   0  0  0  0  0  0  0  0  0  0  0  0
   -4.8069    3.2063    0.0000 C   0  0  0  0  0  0  0  0  0  0  0  0
   -3.3779    3.2063    0.0000 C   0  0  0  0  0  0  0  0  0  0  0  0
   -5.5213    1.9688    0.0000 C   0  0  0  0  0  0  0  0  0  0  0  0
   -5.5213    2.7938    0.0000 C   0  0  0  0  0  0  0  0  0  0  0  0
  1 12  1  0  0  0  0
  2  3  1  0  0  0  0
  2  5  1  0  0  0  0
  3  9  2  0  0  0  0
  4  9  1  0  0  0  0
  5  6  1  0  0  0  0
  5  8  2  0  0  0  0
  6  7  1  0  0  0  0
  6 10  2  0  0  0  0
  7 11  2  0  0  0  0
  7 12  1  0  0  0  0
  8  9  1  0  0  0  0
 10 13  1  0  0  0  0
 11 14  1  0  0  0  0
 13 14  2  0  0  0  0
M  END
> <PUBCHEM_COMPOUND_ID_TYPE>
0

> <PUBCHEM_TOTAL_CHARGE>
0

> <PUBCHEM_SUBSTANCE_ID>
310938587

> <PUBCHEM_SUBSTANCE_VERSION>
1

> <PUBCHEM_EXT_DATASOURCE_NAME>
4488

> <PUBCHEM_EXT_DATASOURCE_REGID>
SCHEMBL16116501

> <PUBCHEM_SUBSTANCE_COMMENT>
InChI=1S/C10H10FN3/c11-6-7-3-1-2-4-8(7)9-5-10(12)14-13-9/h1-5H,6H2,(H3,12,13,14)
InChIKey=OSHKVLACGSUWRK-UHFFFAOYSA-N

> <PUBCHEM_SUBSTANCE_SYNONYM>
SCHEMBL16116501

> <PUBCHEM_XREF_EXT_ID>
SCHEMBL16116501

> <PUBCHEM_EXT_DATASOURCE_URL>
https://www.surechembl.org/

> <PUBCHEM_EXT_SUBSTANCE_URL>
https://www.surechembl.org/chemical/SCHEMBL16116501

> <PUBCHEM_CID_ASSOCIATIONS>
117282231  1

> <PUBCHEM_COORDINATE_TYPE>
1
3

$$$$
