310938704
  -OEChem-07211613022D

 24 26  0     0  0  0  0  0  0999 V2000
   -2.8788   -0.3693    0.0000 O   0  0  0  0  0  0  0  0  0  0  0  0
    1.4080    2.1057    0.0000 O   0  0  0  0  0  0  0  0  0  0  0  0
    0.6935    0.8682    0.0000 N   0  0  0  0  0  0  0  0  0  0  0  0
   -2.1644    1.6932    0.0000 C   0  0  0  0  0  0  0  0  0  0  0  0
   -1.4499    2.1057    0.0000 C   0  0  0  0  0  0  0  0  0  0  0  0
   -2.8788    0.4557    0.0000 C   0  0  0  0  0  0  0  0  0  0  0  0
   -2.1644    0.8682    0.0000 C   0  0  0  0  0  0  0  0  0  0  0  0
   -2.8788    2.1057    0.0000 C   0  0  0  0  0  0  0  0  0  0  0  0
   -0.7354    1.6932    0.0000 C   0  0  0  0  0  0  0  0  0  0  0  0
   -0.0209    2.1057    0.0000 C   0  0  0  0  0  0  0  0  0  0  0  0
   -3.5933    1.6932    0.0000 C   0  0  0  0  0  0  0  0  0  0  0  0
   -1.4499    2.9307    0.0000 C   0  0  0  0  0  0  0  0  0  0  0  0
   -3.5933    0.8682    0.0000 C   0  0  0  0  0  0  0  0  0  0  0  0
   -0.0209    2.9307    0.0000 C   0  0  0  0  0  0  0  0  0  0  0  0
   -0.7354    3.3432    0.0000 C   0  0  0  0  0  0  0  0  0  0  0  0
    0.6935    1.6932    0.0000 C   0  0  0  0  0  0  0  0  0  0  0  0
   -2.1644   -0.7818    0.0000 C   0  0  0  0  0  0  0  0  0  0  0  0
   -2.1644   -1.6068    0.0000 C   0  0  0  0  0  0  0  0  0  0  0  0
   -4.3078    2.1057    0.0000 C   0  0  0  0  0  0  0  0  0  0  0  0
   -2.8788   -2.0193    0.0000 C   0  0  0  0  0  0  0  0  0  0  0  0
   -1.4499   -2.0193    0.0000 C   0  0  0  0  0  0  0  0  0  0  0  0
   -2.8788   -2.8443    0.0000 C   0  0  0  0  0  0  0  0  0  0  0  0
   -1.4499   -2.8443    0.0000 C   0  0  0  0  0  0  0  0  0  0  0  0
   -2.1644   -3.2568    0.0000 C   0  0  0  0  0  0  0  0  0  0  0  0
  1  6  1  0  0  0  0
  1 17  1  0  0  0  0
  2 16  2  0  0  0  0
  3 16  1  0  0  0  0
  4  5  1  0  0  0  0
  4  7  1  0  0  0  0
  4  8  2  0  0  0  0
  5  9  1  0  0  0  0
  5 12  2  0  0  0  0
  6  7  2  0  0  0  0
  6 13  1  0  0  0  0
  8 11  1  0  0  0  0
  9 10  2  0  0  0  0
 10 14  1  0  0  0  0
 10 16  1  0  0  0  0
 11 13  2  0  0  0  0
 11 19  1  0  0  0  0
 12 15  1  0  0  0  0
 14 15  2  0  0  0  0
 17 18  1  0  0  0  0
 18 20  2  0  0  0  0
 18 21  1  0  0  0  0
 20 22  1  0  0  0  0
 21 23  2  0  0  0  0
 22 24  2  0  0  0  0
 23 24  1  0  0  0  0
M  END
> <PUBCHEM_COMPOUND_ID_TYPE>
0

> <PUBCHEM_TOTAL_CHARGE>
0

> <PUBCHEM_SUBSTANCE_ID>
310938704

> <PUBCHEM_SUBSTANCE_VERSION>
1

> <PUBCHEM_EXT_DATASOURCE_NAME>
4488

> <PUBCHEM_EXT_DATASOURCE_REGID>
SCHEMBL16116618

> <PUBCHEM_SUBSTANCE_COMMENT>
InChI=1S/C21H19NO2/c1-15-10-19(17-8-5-9-18(12-17)21(22)23)13-20(11-15)24-14-16-6-3-2-4-7-16/h2-13H,14H2,1H3,(H2,22,23)
InChIKey=RQJKINGMOZHEFL-UHFFFAOYSA-N

> <PUBCHEM_SUBSTANCE_SYNONYM>
SCHEMBL16116618

> <PUBCHEM_XREF_EXT_ID>
SCHEMBL16116618

> <PUBCHEM_EXT_DATASOURCE_URL>
https://www.surechembl.org/

> <PUBCHEM_EXT_SUBSTANCE_URL>
https://www.surechembl.org/chemical/SCHEMBL16116618

> <PUBCHEM_CID_ASSOCIATIONS>
117606133  1

> <PUBCHEM_COORDINATE_TYPE>
1
3

$$$$
