310929805
  -OEChem-07211613022D

 27 27  0     1  0  0  0  0  0999 V2000
   -1.4290   -0.4125    0.0000 O   0  0  0  0  0  0  0  0  0  0  0  0
   -5.7159   -0.4125    0.0000 O   0  0  0  0  0  0  0  0  0  0  0  0
   -2.1435   -1.6500    0.0000 O   0  0  0  0  0  0  0  0  0  0  0  0
   -2.8579   -0.4125    0.0000 N   0  0  0  0  0  0  0  0  0  0  0  0
   -4.2869    0.4125    0.0000 N   0  0  0  0  0  0  0  0  0  0  0  0
   -3.5724    0.8250    0.0000 N   0  3  0  0  0  0  0  0  0  0  0  0
   -2.8579    1.2375    0.0000 N   0  5  0  0  0  0  0  0  0  0  0  0
   -4.2869   -0.4125    0.0000 C   0  0  3  0  0  0  0  0  0  0  0  0
   -5.0014   -0.8250    0.0000 C   0  0  3  0  0  0  0  0  0  0  0  0
   -2.1435   -0.8250    0.0000 C   0  0  0  0  0  0  0  0  0  0  0  0
   -3.5724   -0.8250    0.0000 C   0  0  0  0  0  0  0  0  0  0  0  0
   -0.7145   -0.8250    0.0000 C   0  0  0  0  0  0  0  0  0  0  0  0
   -2.8579    0.4125    0.0000 C   0  0  0  0  0  0  0  0  0  0  0  0
   -5.0014   -1.6500    0.0000 C   0  0  0  0  0  0  0  0  0  0  0  0
   -6.4304   -0.8250    0.0000 C   0  0  0  0  0  0  0  0  0  0  0  0
   -7.1449   -0.4125    0.0000 C   0  0  0  0  0  0  0  0  0  0  0  0
   -2.1435    0.8250    0.0000 C   0  0  0  0  0  0  0  0  0  0  0  0
   -0.7145   -1.6500    0.0000 C   0  0  0  0  0  0  0  0  0  0  0  0
    0.0000   -1.2375    0.0000 C   0  0  0  0  0  0  0  0  0  0  0  0
    0.0000   -0.4125    0.0000 C   0  0  0  0  0  0  0  0  0  0  0  0
   -7.8594   -0.8250    0.0000 C   0  0  0  0  0  0  0  0  0  0  0  0
   -7.1449    0.4125    0.0000 C   0  0  0  0  0  0  0  0  0  0  0  0
   -5.7159   -2.0625    0.0000 C   0  0  0  0  0  0  0  0  0  0  0  0
   -8.5738   -0.4125    0.0000 C   0  0  0  0  0  0  0  0  0  0  0  0
   -7.8594    0.8250    0.0000 C   0  0  0  0  0  0  0  0  0  0  0  0
   -8.5738    0.4125    0.0000 C   0  0  0  0  0  0  0  0  0  0  0  0
   -2.1435    1.6500    0.0000 C   0  0  0  0  0  0  0  0  0  0  0  0
  1 10  1  0  0  0  0
  1 12  1  0  0  0  0
  9  2  1  1  0  0  0
  2 15  1  0  0  0  0
  3 10  2  0  0  0  0
  4 10  1  0  0  0  0
  4 11  1  0  0  0  0
  4 13  1  0  0  0  0
  5  6  2  0  0  0  0
  8  5  1  6  0  0  0
  6  7  2  0  0  0  0
  8  9  1  0  0  0  0
  8 11  1  0  0  0  0
  9 14  1  0  0  0  0
 12 18  1  0  0  0  0
 12 19  1  0  0  0  0
 12 20  1  0  0  0  0
 13 17  1  0  0  0  0
 14 23  2  0  0  0  0
 15 16  1  0  0  0  0
 16 21  2  0  0  0  0
 16 22  1  0  0  0  0
 17 27  2  0  0  0  0
 21 24  1  0  0  0  0
 22 25  2  0  0  0  0
 24 26  2  0  0  0  0
 25 26  1  0  0  0  0
M  CHG  2   6   1   7  -1
M  END
> <PUBCHEM_COMPOUND_ID_TYPE>
0

> <PUBCHEM_TOTAL_CHARGE>
0

> <PUBCHEM_SUBSTANCE_ID>
310929805

> <PUBCHEM_SUBSTANCE_VERSION>
1

> <PUBCHEM_EXT_DATASOURCE_NAME>
4488

> <PUBCHEM_EXT_DATASOURCE_REGID>
SCHEMBL16107008

> <PUBCHEM_SUBSTANCE_COMMENT>
InChI=1S/C20H28N4O3/c1-6-13-24(19(25)27-20(3,4)5)14-17(22-23-21)18(7-2)26-15-16-11-9-8-10-12-16/h6-12,17-18H,1-2,13-15H2,3-5H3/t17-,18-/m1/s1
InChIKey=AQASXZPTIQJLKM-QZTJIDSGSA-N

> <PUBCHEM_SUBSTANCE_SYNONYM>
SCHEMBL16107008

> <PUBCHEM_XREF_EXT_ID>
SCHEMBL16107008

> <PUBCHEM_EXT_DATASOURCE_URL>
https://www.surechembl.org/

> <PUBCHEM_EXT_SUBSTANCE_URL>
https://www.surechembl.org/chemical/SCHEMBL16107008

> <PUBCHEM_CID_ASSOCIATIONS>
10667010  1

> <PUBCHEM_COORDINATE_TYPE>
1
3

> <PUBCHEM_BONDANNOTATIONS>
9  2  5
8  5  6

$$$$
