310934009
  -OEChem-07211613022D

 25 28  0     1  0  0  0  0  0999 V2000
    0.7846    0.6674    0.0000 S   0  0  0  0  0  0  0  0  0  0  0  0
    6.0866    1.0165    0.0000 F   0  0  0  0  0  0  0  0  0  0  0  0
    2.9803   -1.7964    0.0000 O   0  0  0  0  0  0  0  0  0  0  0  0
    4.3605   -1.4265    0.0000 O   0  0  0  0  0  0  0  0  0  0  0  0
    0.7846   -0.6674    0.0000 N   0  0  0  0  0  0  0  0  0  0  0  0
    3.3641   -0.4125    0.0000 C   0  0  3  0  0  0  0  0  0  0  0  0
    4.4366   -0.4125    0.0000 C   0  0  0  0  0  0  0  0  0  0  0  0
    2.0946    0.0000    0.0000 C   0  0  3  0  0  0  0  0  0  0  0  0
    2.5795   -0.6674    0.0000 C   0  0  0  0  0  0  0  0  0  0  0  0
    3.3641    0.4125    0.0000 C   0  0  0  0  0  0  0  0  0  0  0  0
    1.2696    0.0000    0.0000 C   0  0  0  0  0  0  0  0  0  0  0  0
    3.5636   -1.2130    0.0000 C   0  0  0  0  0  0  0  0  0  0  0  0
    2.5795    0.6674    0.0000 C   0  0  0  0  0  0  0  0  0  0  0  0
    4.8491    0.3020    0.0000 C   0  0  0  0  0  0  0  0  0  0  0  0
    0.0000    0.4125    0.0000 C   0  0  0  0  0  0  0  0  0  0  0  0
    0.0000   -0.4125    0.0000 C   0  0  0  0  0  0  0  0  0  0  0  0
    4.8491   -1.1270    0.0000 C   0  0  0  0  0  0  0  0  0  0  0  0
    5.6741    0.3020    0.0000 C   0  0  0  0  0  0  0  0  0  0  0  0
    5.6741   -1.1270    0.0000 C   0  0  0  0  0  0  0  0  0  0  0  0
   -0.7144    0.8250    0.0000 C   0  0  0  0  0  0  0  0  0  0  0  0
   -0.7144   -0.8250    0.0000 C   0  0  0  0  0  0  0  0  0  0  0  0
    6.0866   -0.4125    0.0000 C   0  0  0  0  0  0  0  0  0  0  0  0
    4.4366    1.0165    0.0000 C   0  0  0  0  0  0  0  0  0  0  0  0
   -1.4290    0.4125    0.0000 C   0  0  0  0  0  0  0  0  0  0  0  0
   -1.4290   -0.4125    0.0000 C   0  0  0  0  0  0  0  0  0  0  0  0
  1 11  1  0  0  0  0
  1 15  1  0  0  0  0
  2 18  1  0  0  0  0
  3 12  2  0  0  0  0
  4 12  1  0  0  0  0
  5 11  2  0  0  0  0
  5 16  1  0  0  0  0
  6  7  1  0  0  0  0
  6  9  1  0  0  0  0
  6 10  1  0  0  0  0
  6 12  1  6  0  0  0
  7 14  1  0  0  0  0
  7 17  2  0  0  0  0
  8  9  1  0  0  0  0
  8 11  1  0  0  0  0
  8 13  1  0  0  0  0
 10 13  1  0  0  0  0
 14 18  2  0  0  0  0
 14 23  1  0  0  0  0
 15 16  1  0  0  0  0
 15 20  2  0  0  0  0
 16 21  2  0  0  0  0
 17 19  1  0  0  0  0
 18 22  1  0  0  0  0
 19 22  2  0  0  0  0
 20 24  1  0  0  0  0
 21 25  1  0  0  0  0
 24 25  2  0  0  0  0
M  END
> <PUBCHEM_COMPOUND_ID_TYPE>
0

> <PUBCHEM_TOTAL_CHARGE>
0

> <PUBCHEM_SUBSTANCE_ID>
310934009

> <PUBCHEM_SUBSTANCE_VERSION>
1

> <PUBCHEM_EXT_DATASOURCE_NAME>
4488

> <PUBCHEM_EXT_DATASOURCE_REGID>
SCHEMBL16111453

> <PUBCHEM_SUBSTANCE_COMMENT>
InChI=1S/C20H18FNO2S/c1-12-14(5-4-6-15(12)21)20(19(23)24)10-9-13(11-20)18-22-16-7-2-3-8-17(16)25-18/h2-8,13H,9-11H2,1H3,(H,23,24)/t13?,20-/m0/s1
InChIKey=LZOVZVIWLFZGKI-JDOQCHFPSA-N

> <PUBCHEM_SUBSTANCE_SYNONYM>
SCHEMBL16111453

> <PUBCHEM_XREF_EXT_ID>
SCHEMBL16111453

> <PUBCHEM_EXT_DATASOURCE_URL>
https://www.surechembl.org/

> <PUBCHEM_EXT_SUBSTANCE_URL>
https://www.surechembl.org/chemical/SCHEMBL16111453

> <PUBCHEM_CID_ASSOCIATIONS>
117602312  1

> <PUBCHEM_COORDINATE_TYPE>
1
3

> <PUBCHEM_BONDANNOTATIONS>
6  12  6

$$$$
