310944072
  -OEChem-07211613022D

 28 32  0     1  0  0  0  0  0999 V2000
    2.5176    2.0994    0.0000 O   0  0  0  0  0  0  0  0  0  0  0  0
   -3.4937   -2.7190    0.0000 O   0  0  0  0  0  0  0  0  0  0  0  0
    0.3021    0.9218    0.0000 N   0  0  0  0  0  0  0  0  0  0  0  0
   -2.5951    0.2866    0.0000 N   0  0  0  0  0  0  0  0  0  0  0  0
   -2.8739    1.0768    0.0000 N   0  0  0  0  0  0  0  0  0  0  0  0
    1.0613    0.5345    0.0000 C   0  0  3  0  0  0  0  0  0  0  0  0
    0.3950    1.7894    0.0000 C   0  0  3  0  0  0  0  0  0  0  0  0
   -3.2612   -0.1936    0.0000 C   0  0  0  0  0  0  0  0  0  0  0  0
   -3.9429    0.2866    0.0000 C   0  0  0  0  0  0  0  0  0  0  0  0
    1.7894    1.7274    0.0000 C   0  0  0  0  0  0  0  0  0  0  0  0
    1.0768    2.1458    0.0000 C   0  0  0  0  0  0  0  0  0  0  0  0
    1.7429    0.8909    0.0000 C   0  0  0  0  0  0  0  0  0  0  0  0
   -0.3640    0.3176    0.0000 C   0  0  0  0  0  0  0  0  0  0  0  0
    1.4331    1.1233    0.0000 C   0  0  0  0  0  0  0  0  0  0  0  0
    1.0768    1.7584    0.0000 C   0  0  0  0  0  0  0  0  0  0  0  0
   -1.1543    0.5810    0.0000 C   0  0  3  0  0  0  0  0  0  0  0  0
   -1.7894    0.0543    0.0000 C   0  0  0  0  0  0  0  0  0  0  0  0
   -3.3542   -1.0303    0.0000 C   0  0  0  0  0  0  0  0  0  0  0  0
   -3.6951    1.0768    0.0000 C   0  0  0  0  0  0  0  0  0  0  0  0
   -4.0979   -1.3711    0.0000 C   0  0  0  0  0  0  0  0  0  0  0  0
   -4.7020   -0.0852    0.0000 C   0  0  0  0  0  0  0  0  0  0  0  0
   -4.7796   -0.9064    0.0000 C   0  0  0  0  0  0  0  0  0  0  0  0
    3.9894    2.0683    0.0000 C   0  0  0  0  0  0  0  0  0  0  0  0
    3.2457    1.6654    0.0000 C   0  0  0  0  0  0  0  0  0  0  0  0
   -1.2936    1.3866    0.0000 C   0  0  0  0  0  0  0  0  0  0  0  0
   -4.1753   -2.2078    0.0000 C   0  0  0  0  0  0  0  0  0  0  0  0
    4.4232    2.7190    0.0000 C   0  0  0  0  0  0  0  0  0  0  0  0
    4.7796    2.0063    0.0000 C   0  0  0  0  0  0  0  0  0  0  0  0
 10  1  1  1  0  0  0
  1 24  1  0  0  0  0
  2 26  1  0  0  0  0
  6  3  1  6  0  0  0
  7  3  1  6  0  0  0
  3 13  1  0  0  0  0
  4  5  1  0  0  0  0
  4  8  1  0  0  0  0
  4 17  1  0  0  0  0
  5 19  2  0  0  0  0
  6 12  1  0  0  0  0
  6 14  1  0  0  0  0
  7 11  1  0  0  0  0
  7 15  1  0  0  0  0
  8  9  1  0  0  0  0
  8 18  2  0  0  0  0
  9 19  1  0  0  0  0
  9 21  2  0  0  0  0
 10 11  1  0  0  0  0
 10 12  1  0  0  0  0
 13 16  1  0  0  0  0
 14 15  1  0  0  0  0
 16 17  1  0  0  0  0
 16 25  1  6  0  0  0
 18 20  1  0  0  0  0
 20 22  2  0  0  0  0
 20 26  1  0  0  0  0
 21 22  1  0  0  0  0
 23 24  1  0  0  0  0
 23 27  1  0  0  0  0
 23 28  1  0  0  0  0
 27 28  1  0  0  0  0
M  END
> <PUBCHEM_COMPOUND_ID_TYPE>
0

> <PUBCHEM_TOTAL_CHARGE>
0

> <PUBCHEM_SUBSTANCE_ID>
310944072

> <PUBCHEM_SUBSTANCE_VERSION>
1

> <PUBCHEM_EXT_DATASOURCE_NAME>
4488

> <PUBCHEM_EXT_DATASOURCE_REGID>
SCHEMBL16122147

> <PUBCHEM_SUBSTANCE_COMMENT>
InChI=1S/C23H33N3O2/c1-16(13-26-23-8-18(14-27)4-5-19(23)11-24-26)12-25-20-6-7-21(25)10-22(9-20)28-15-17-2-3-17/h4-5,8,11,16-17,20-22,27H,2-3,6-7,9-10,12-15H2,1H3/t16-,20-,21+,22+/m1/s1
InChIKey=LZPQFSJMBPPFGA-XXMUNEJQSA-N

> <PUBCHEM_SUBSTANCE_SYNONYM>
SCHEMBL16122147

> <PUBCHEM_XREF_EXT_ID>
SCHEMBL16122147

> <PUBCHEM_EXT_DATASOURCE_URL>
https://www.surechembl.org/

> <PUBCHEM_EXT_SUBSTANCE_URL>
https://www.surechembl.org/chemical/SCHEMBL16122147

> <PUBCHEM_CID_ASSOCIATIONS>
117610367  1

> <PUBCHEM_COORDINATE_TYPE>
1
3

> <PUBCHEM_BONDANNOTATIONS>
10  1  5
16  25  6
6  3  6
7  3  6

$$$$
