310931028
  -OEChem-07211613022D

 47 52  0     1  0  0  0  0  0999 V2000
    3.4179   -7.8572    0.0000 Cl  0  0  0  0  0  0  0  0  0  0  0  0
    6.7572   -3.5750    0.0000 S   0  0  0  0  0  0  0  0  0  0  0  0
    8.7608   -4.4000    0.0000 S   0  0  0  0  0  0  0  0  0  0  0  0
    5.8929   -2.1607    0.0000 F   0  0  0  0  0  0  0  0  0  0  0  0
    4.2822   -4.9894    0.0000 F   0  0  0  0  0  0  0  0  0  0  0  0
    6.7572   -4.4786    0.0000 O   0  0  0  0  0  0  0  0  0  0  0  0
    6.7572   -2.7894    0.0000 O   0  0  0  0  0  0  0  0  0  0  0  0
    3.4179   -3.5750    0.0000 O   0  0  0  0  0  0  0  0  0  0  0  0
    0.1572   -3.6144    0.0000 O   0  0  0  0  0  0  0  0  0  0  0  0
    1.3750   -2.9072    0.0000 O   0  0  0  0  0  0  0  0  0  0  0  0
    8.8001   -1.4143    0.0000 O   0  0  0  0  0  0  0  0  0  0  0  0
    6.3251    0.0000    0.0000 O   0  0  0  0  0  0  0  0  0  0  0  0
    7.5429   -3.5750    0.0000 N   0  0  0  0  0  0  0  0  0  0  0  0
    7.6215   -5.0679    0.0000 N   0  0  0  0  0  0  0  0  0  0  0  0
    8.9573   -5.1858    0.0000 N   0  0  0  0  0  0  0  0  0  0  0  0
    5.9322   -3.5750    0.0000 C   0  0  0  0  0  0  0  0  0  0  0  0
    5.5001   -2.8679    0.0000 C   0  0  0  0  0  0  0  0  0  0  0  0
    7.9751   -4.2822    0.0000 C   0  0  0  0  0  0  0  0  0  0  0  0
    5.5001   -4.2822    0.0000 C   0  0  0  0  0  0  0  0  0  0  0  0
    0.9429   -3.5750    0.0000 C   0  0  0  0  0  0  0  0  0  0  0  0
    4.2429   -3.5750    0.0000 C   0  0  0  0  0  0  0  0  0  0  0  0
    4.6751   -4.2822    0.0000 C   0  0  0  0  0  0  0  0  0  0  0  0
    7.9751   -2.8679    0.0000 C   0  0  0  0  0  0  0  0  0  0  0  0
    4.6751   -2.8679    0.0000 C   0  0  0  0  0  0  0  0  0  0  0  0
    2.2000   -4.2822    0.0000 C   0  0  3  0  0  0  0  0  0  0  0  0
    1.7679   -4.9894    0.0000 C   0  0  3  0  0  0  0  0  0  0  0  0
    7.5429   -2.1215    0.0000 C   0  0  0  0  0  0  0  0  0  0  0  0
    1.7679   -3.5750    0.0000 C   0  0  0  0  0  0  0  0  0  0  0  0
    0.5107   -4.2822    0.0000 C   0  0  0  0  0  0  0  0  0  0  0  0
    3.0250   -4.2822    0.0000 C   0  0  0  0  0  0  0  0  0  0  0  0
    2.2000   -5.7358    0.0000 C   0  0  0  0  0  0  0  0  0  0  0  0
    0.9429   -5.0286    0.0000 C   0  0  0  0  0  0  0  0  0  0  0  0
    7.9751   -1.4143    0.0000 C   0  0  0  0  0  0  0  0  0  0  0  0
    6.7179   -2.1215    0.0000 C   0  0  0  0  0  0  0  0  0  0  0  0
    8.2501   -5.5786    0.0000 C   0  0  0  0  0  0  0  0  0  0  0  0
    0.0000   -2.7894    0.0000 C   0  0  0  0  0  0  0  0  0  0  0  0
    0.7071   -2.3572    0.0000 C   0  0  0  0  0  0  0  0  0  0  0  0
    7.5429   -0.7071    0.0000 C   0  0  0  0  0  0  0  0  0  0  0  0
    6.7179   -0.7071    0.0000 C   0  0  0  0  0  0  0  0  0  0  0  0
    3.0250   -5.7358    0.0000 C   0  0  0  0  0  0  0  0  0  0  0  0
    1.8072   -6.4429    0.0000 C   0  0  0  0  0  0  0  0  0  0  0  0
    6.3251   -1.4143    0.0000 C   0  0  0  0  0  0  0  0  0  0  0  0
    3.4179   -6.4429    0.0000 C   0  0  0  0  0  0  0  0  0  0  0  0
    2.2000   -7.1501    0.0000 C   0  0  0  0  0  0  0  0  0  0  0  0
    3.0250   -7.1501    0.0000 C   0  0  0  0  0  0  0  0  0  0  0  0
    9.1930   -0.7071    0.0000 C   0  0  0  0  0  0  0  0  0  0  0  0
    5.5001    0.0000    0.0000 C   0  0  0  0  0  0  0  0  0  0  0  0
  1 45  1  0  0  0  0
  2  6  2  0  0  0  0
  2  7  2  0  0  0  0
  2 13  1  0  0  0  0
  2 16  1  0  0  0  0
  3 15  1  0  0  0  0
  3 18  1  0  0  0  0
  4 17  1  0  0  0  0
  5 22  1  0  0  0  0
  8 21  1  0  0  0  0
  8 30  1  0  0  0  0
  9 20  1  0  0  0  0
  9 36  1  0  0  0  0
 10 20  1  0  0  0  0
 10 37  1  0  0  0  0
 11 33  1  0  0  0  0
 11 46  1  0  0  0  0
 12 39  1  0  0  0  0
 12 47  1  0  0  0  0
 13 18  1  0  0  0  0
 13 23  1  0  0  0  0
 14 18  2  0  0  0  0
 14 35  1  0  0  0  0
 15 35  2  0  0  0  0
 16 17  1  0  0  0  0
 16 19  2  0  0  0  0
 17 24  2  0  0  0  0
 19 22  1  0  0  0  0
 20 28  1  0  0  0  0
 20 29  1  0  0  0  0
 21 22  2  0  0  0  0
 21 24  1  0  0  0  0
 23 27  1  0  0  0  0
 25 26  1  0  0  0  0
 25 28  1  0  0  0  0
 25 30  1  6  0  0  0
 26 31  1  0  0  0  0
 26 32  1  1  0  0  0
 27 33  2  0  0  0  0
 27 34  1  0  0  0  0
 29 32  1  0  0  0  0
 31 40  2  0  0  0  0
 31 41  1  0  0  0  0
 33 38  1  0  0  0  0
 34 42  2  0  0  0  0
 36 37  1  0  0  0  0
 38 39  2  0  0  0  0
 39 42  1  0  0  0  0
 40 43  1  0  0  0  0
 41 44  2  0  0  0  0
 43 45  2  0  0  0  0
 44 45  1  0  0  0  0
M  END
> <PUBCHEM_COMPOUND_ID_TYPE>
0

> <PUBCHEM_TOTAL_CHARGE>
0

> <PUBCHEM_SUBSTANCE_ID>
310931028

> <PUBCHEM_SUBSTANCE_VERSION>
1

> <PUBCHEM_EXT_DATASOURCE_NAME>
4488

> <PUBCHEM_EXT_DATASOURCE_REGID>
SCHEMBL16108329

> <PUBCHEM_SUBSTANCE_COMMENT>
InChI=1S/C32H32ClF2N3O7S2/c1-41-24-8-5-21(28(13-24)42-2)17-38(31-36-19-37-46-31)47(39,40)30-15-26(34)29(14-27(30)35)43-18-22-16-32(44-11-12-45-32)10-9-25(22)20-3-6-23(33)7-4-20/h3-8,13-15,19,22,25H,9-12,16-18H2,1-2H3/t22-,25-/m1/s1
InChIKey=JXAVHDPGPCJEEI-RCZVLFRGSA-N

> <PUBCHEM_SUBSTANCE_SYNONYM>
SCHEMBL16108329

> <PUBCHEM_XREF_EXT_ID>
SCHEMBL16108329

> <PUBCHEM_EXT_DATASOURCE_URL>
https://www.surechembl.org/

> <PUBCHEM_EXT_SUBSTANCE_URL>
https://www.surechembl.org/chemical/SCHEMBL16108329

> <PUBCHEM_CID_ASSOCIATIONS>
117599946  1

> <PUBCHEM_COORDINATE_TYPE>
1
3

> <PUBCHEM_BONDANNOTATIONS>
25  30  6
26  32  5

$$$$
