310929081
  -OEChem-07211613022D

 20 21  0     0  0  0  0  0  0999 V2000
    0.5414   -2.5838    0.0000 O   0  0  0  0  0  0  0  0  0  0  0  0
    2.1162   -0.6644    0.0000 O   0  0  0  0  0  0  0  0  0  0  0  0
    1.3042   -4.9215    0.0000 O   0  5  0  0  0  0  0  0  0  0  0  0
    0.2461   -3.9618    0.0000 O   0  0  0  0  0  0  0  0  0  0  0  0
    1.0581   -4.1340    0.0000 N   0  3  0  0  0  0  0  0  0  0  0  0
    0.8613   -1.0827    0.0000 N   0  0  0  0  0  0  0  0  0  0  0  0
    0.8613   -0.2707    0.0000 N   0  0  0  0  0  0  0  0  0  0  0  0
    1.8948   -2.1409    0.0000 C   0  0  0  0  0  0  0  0  0  0  0  0
    1.3534   -2.7560    0.0000 C   0  0  0  0  0  0  0  0  0  0  0  0
    1.5995   -3.5188    0.0000 C   0  0  0  0  0  0  0  0  0  0  0  0
    2.9775   -3.0759    0.0000 C   0  0  0  0  0  0  0  0  0  0  0  0
    1.6487   -1.3534    0.0000 C   0  0  0  0  0  0  0  0  0  0  0  0
    2.7068   -2.3131    0.0000 C   0  0  0  0  0  0  0  0  0  0  0  0
    2.4115   -3.6911    0.0000 C   0  0  0  0  0  0  0  0  0  0  0  0
    3.7649   -3.2482    0.0000 C   0  0  0  0  0  0  0  0  0  0  0  0
    1.6487    0.0000    0.0000 C   0  0  0  0  0  0  0  0  0  0  0  0
    3.5926   -4.0848    0.0000 C   0  0  0  0  0  0  0  0  0  0  0  0
    4.5769   -3.4204    0.0000 C   0  0  0  0  0  0  0  0  0  0  0  0
    3.9372   -2.4607    0.0000 C   0  0  0  0  0  0  0  0  0  0  0  0
    0.0000   -3.1990    0.0000 C   0  0  0  0  0  0  0  0  0  0  0  0
  1  9  1  0  0  0  0
  1 20  1  0  0  0  0
  2 12  1  0  0  0  0
  2 16  1  0  0  0  0
  3  5  1  0  0  0  0
  4  5  2  0  0  0  0
  5 10  1  0  0  0  0
  6  7  1  0  0  0  0
  6 12  2  0  0  0  0
  7 16  2  0  0  0  0
  8  9  1  0  0  0  0
  8 12  1  0  0  0  0
  8 13  2  0  0  0  0
  9 10  2  0  0  0  0
 10 14  1  0  0  0  0
 11 13  1  0  0  0  0
 11 14  2  0  0  0  0
 11 15  1  0  0  0  0
 15 17  1  0  0  0  0
 15 18  1  0  0  0  0
 15 19  1  0  0  0  0
M  CHG  2   3  -1   5   1
M  END
> <PUBCHEM_COMPOUND_ID_TYPE>
0

> <PUBCHEM_TOTAL_CHARGE>
0

> <PUBCHEM_SUBSTANCE_ID>
310929081

> <PUBCHEM_SUBSTANCE_VERSION>
1

> <PUBCHEM_EXT_DATASOURCE_NAME>
4488

> <PUBCHEM_EXT_DATASOURCE_REGID>
SCHEMBL16106243

> <PUBCHEM_SUBSTANCE_COMMENT>
InChI=1S/C13H15N3O4/c1-13(2,3)8-5-9(12-15-14-7-20-12)11(19-4)10(6-8)16(17)18/h5-7H,1-4H3
InChIKey=GIRBVXQENLAKIL-UHFFFAOYSA-N

> <PUBCHEM_SUBSTANCE_SYNONYM>
SCHEMBL16106243

> <PUBCHEM_XREF_EXT_ID>
SCHEMBL16106243

> <PUBCHEM_EXT_DATASOURCE_URL>
https://www.surechembl.org/

> <PUBCHEM_EXT_SUBSTANCE_URL>
https://www.surechembl.org/chemical/SCHEMBL16106243

> <PUBCHEM_CID_ASSOCIATIONS>
117598577  1

> <PUBCHEM_COORDINATE_TYPE>
1
3

$$$$
