310949143
  -OEChem-07211613022D

 47 53  0     0  0  0  0  0  0999 V2000
    0.3025    0.1729    0.0000 N   0  0  0  0  0  0  0  0  0  0  0  0
    2.4344   -0.3169    0.0000 N   0  0  0  0  0  0  0  0  0  0  0  0
   -1.8582   -0.2881    0.0000 N   0  0  0  0  0  0  0  0  0  0  0  0
    0.2737   -3.9612    0.0000 N   0  0  0  0  0  0  0  0  0  0  0  0
    0.2737   -0.6482    0.0000 C   0  0  0  0  0  0  0  0  0  0  0  0
    0.9507    0.6770    0.0000 C   0  0  0  0  0  0  0  0  0  0  0  0
   -0.4177    0.6770    0.0000 C   0  0  0  0  0  0  0  0  0  0  0  0
    0.7058    1.4548    0.0000 C   0  0  0  0  0  0  0  0  0  0  0  0
   -0.1296    1.4693    0.0000 C   0  0  0  0  0  0  0  0  0  0  0  0
    1.0227   -1.0515    0.0000 C   0  0  0  0  0  0  0  0  0  0  0  0
   -0.4321   -1.0659    0.0000 C   0  0  0  0  0  0  0  0  0  0  0  0
    1.0083   -1.8870    0.0000 C   0  0  0  0  0  0  0  0  0  0  0  0
   -0.4609   -1.8870    0.0000 C   0  0  0  0  0  0  0  0  0  0  0  0
    0.2881   -2.2903    0.0000 C   0  0  0  0  0  0  0  0  0  0  0  0
    1.2820    2.0743    0.0000 C   0  0  0  0  0  0  0  0  0  0  0  0
    1.7285    0.5042    0.0000 C   0  0  0  0  0  0  0  0  0  0  0  0
   -0.6914    2.0598    0.0000 C   0  0  0  0  0  0  0  0  0  0  0  0
   -1.2100    0.5185    0.0000 C   0  0  0  0  0  0  0  0  0  0  0  0
    2.0455    1.9014    0.0000 C   0  0  0  0  0  0  0  0  0  0  0  0
    1.7142   -2.3191    0.0000 C   0  0  0  0  0  0  0  0  0  0  0  0
   -1.1523   -2.3047    0.0000 C   0  0  0  0  0  0  0  0  0  0  0  0
   -1.4981    1.9158    0.0000 C   0  0  0  0  0  0  0  0  0  0  0  0
    1.7142   -0.6770    0.0000 C   0  0  0  0  0  0  0  0  0  0  0  0
   -1.1668   -0.6626    0.0000 C   0  0  0  0  0  0  0  0  0  0  0  0
    2.3047    1.0947    0.0000 C   0  0  0  0  0  0  0  0  0  0  0  0
   -1.7573    1.1092    0.0000 C   0  0  0  0  0  0  0  0  0  0  0  0
    0.2737   -3.1546    0.0000 C   0  0  0  0  0  0  0  0  0  0  0  0
    2.6216    2.5352    0.0000 C   0  0  0  0  0  0  0  0  0  0  0  0
   -2.0743    2.5640    0.0000 C   0  0  0  0  0  0  0  0  0  0  0  0
    1.7285   -3.1546    0.0000 C   0  0  0  0  0  0  0  0  0  0  0  0
    2.4487   -1.9158    0.0000 C   0  0  0  0  0  0  0  0  0  0  0  0
   -1.8582   -1.9014    0.0000 C   0  0  0  0  0  0  0  0  0  0  0  0
   -1.1956   -3.1402    0.0000 C   0  0  0  0  0  0  0  0  0  0  0  0
   -1.8006    3.3274    0.0000 C   0  0  0  0  0  0  0  0  0  0  0  0
   -2.8809    2.3911    0.0000 C   0  0  0  0  0  0  0  0  0  0  0  0
    2.4632   -3.5435    0.0000 C   0  0  0  0  0  0  0  0  0  0  0  0
    3.1402   -2.3335    0.0000 C   0  0  0  0  0  0  0  0  0  0  0  0
   -2.5928   -2.3047    0.0000 C   0  0  0  0  0  0  0  0  0  0  0  0
   -1.9014   -3.5291    0.0000 C   0  0  0  0  0  0  0  0  0  0  0  0
    2.3911    3.3130    0.0000 C   0  0  0  0  0  0  0  0  0  0  0  0
    3.4283    2.3768    0.0000 C   0  0  0  0  0  0  0  0  0  0  0  0
    3.0537    1.8294    0.0000 C   0  0  0  0  0  0  0  0  0  0  0  0
    3.1258   -3.1546    0.0000 C   0  0  0  0  0  0  0  0  0  0  0  0
   -2.5928   -3.1114    0.0000 C   0  0  0  0  0  0  0  0  0  0  0  0
   -2.3479    3.9612    0.0000 C   0  0  0  0  0  0  0  0  0  0  0  0
   -3.4283    3.0106    0.0000 C   0  0  0  0  0  0  0  0  0  0  0  0
   -3.1690    3.7596    0.0000 C   0  0  0  0  0  0  0  0  0  0  0  0
  1  5  1  0  0  0  0
  1  6  1  0  0  0  0
  1  7  1  0  0  0  0
  2 23  3  0  0  0  0
  3 24  3  0  0  0  0
  4 27  3  0  0  0  0
  5 10  2  0  0  0  0
  5 11  1  0  0  0  0
  6  8  2  0  0  0  0
  6 16  1  0  0  0  0
  7  9  2  0  0  0  0
  7 18  1  0  0  0  0
  8  9  1  0  0  0  0
  8 15  1  0  0  0  0
  9 17  1  0  0  0  0
 10 12  1  0  0  0  0
 10 23  1  0  0  0  0
 11 13  2  0  0  0  0
 11 24  1  0  0  0  0
 12 14  2  0  0  0  0
 12 20  1  0  0  0  0
 13 14  1  0  0  0  0
 13 21  1  0  0  0  0
 14 27  1  0  0  0  0
 15 19  2  0  0  0  0
 16 25  2  0  0  0  0
 17 22  2  0  0  0  0
 18 26  2  0  0  0  0
 19 25  1  0  0  0  0
 19 28  1  0  0  0  0
 20 30  2  0  0  0  0
 20 31  1  0  0  0  0
 21 32  2  0  0  0  0
 21 33  1  0  0  0  0
 22 26  1  0  0  0  0
 22 29  1  0  0  0  0
 28 40  1  0  0  0  0
 28 41  1  0  0  0  0
 28 42  1  0  0  0  0
 29 34  2  0  0  0  0
 29 35  1  0  0  0  0
 30 36  1  0  0  0  0
 31 37  2  0  0  0  0
 32 38  1  0  0  0  0
 33 39  2  0  0  0  0
 34 45  1  0  0  0  0
 35 46  2  0  0  0  0
 36 43  2  0  0  0  0
 37 43  1  0  0  0  0
 38 44  2  0  0  0  0
 39 44  1  0  0  0  0
 45 47  2  0  0  0  0
 46 47  1  0  0  0  0
M  END
> <PUBCHEM_COMPOUND_ID_TYPE>
0

> <PUBCHEM_TOTAL_CHARGE>
0

> <PUBCHEM_SUBSTANCE_ID>
310949143

> <PUBCHEM_SUBSTANCE_VERSION>
1

> <PUBCHEM_EXT_DATASOURCE_NAME>
4488

> <PUBCHEM_EXT_DATASOURCE_REGID>
SCHEMBL16127333

> <PUBCHEM_SUBSTANCE_COMMENT>
InChI=1S/C43H30N4/c1-43(2,3)32-20-22-39-34(24-32)33-23-31(28-13-7-4-8-14-28)19-21-38(33)47(39)42-36(26-45)40(29-15-9-5-10-16-29)35(25-44)41(37(42)27-46)30-17-11-6-12-18-30/h4-24H,1-3H3
InChIKey=ALIVRCVMKONAKU-UHFFFAOYSA-N

> <PUBCHEM_SUBSTANCE_SYNONYM>
SCHEMBL16127333

> <PUBCHEM_XREF_EXT_ID>
SCHEMBL16127333

> <PUBCHEM_EXT_DATASOURCE_URL>
https://www.surechembl.org/

> <PUBCHEM_EXT_SUBSTANCE_URL>
https://www.surechembl.org/chemical/SCHEMBL16127333

> <PUBCHEM_CID_ASSOCIATIONS>
117614639  1

> <PUBCHEM_COORDINATE_TYPE>
1
3

$$$$
