310949445
  -OEChem-07211613022D

 38 41  0     0  0  0  0  0  0999 V2000
   -2.2969    0.9445    0.0000 S   0  0  0  0  0  0  0  0  0  0  0  0
   -3.3231    2.3669    0.0000 O   0  0  0  0  0  0  0  0  0  0  0  0
    0.8512    4.4891    0.0000 O   0  0  0  0  0  0  0  0  0  0  0  0
   -1.2942   -4.3723    0.0000 O   0  0  0  0  0  0  0  0  0  0  0  0
   -0.0350   -3.6495    0.0000 O   0  0  0  0  0  0  0  0  0  0  0  0
   -1.5740   -0.4081    0.0000 N   0  0  0  0  0  0  0  0  0  0  0  0
   -0.8512    0.9445    0.0000 N   0  0  0  0  0  0  0  0  0  0  0  0
   -2.1570    3.2298    0.0000 N   0  0  0  0  0  0  0  0  0  0  0  0
   -1.5974   -1.5740    0.0000 C   0  0  0  0  0  0  0  0  0  0  0  0
   -1.5740    0.4547    0.0000 C   0  0  0  0  0  0  0  0  0  0  0  0
   -2.1570   -0.9678    0.0000 C   0  0  0  0  0  0  0  0  0  0  0  0
   -0.9911   -0.9678    0.0000 C   0  0  0  0  0  0  0  0  0  0  0  0
   -1.1543    1.7606    0.0000 C   0  0  0  0  0  0  0  0  0  0  0  0
   -2.0172    1.8305    0.0000 C   0  0  0  0  0  0  0  0  0  0  0  0
   -0.6179    2.5068    0.0000 C   0  0  0  0  0  0  0  0  0  0  0  0
   -0.9678   -2.1338    0.0000 C   0  0  0  0  0  0  0  0  0  0  0  0
   -2.2969   -1.9939    0.0000 C   0  0  0  0  0  0  0  0  0  0  0  0
   -2.5302    2.4835    0.0000 C   0  0  0  0  0  0  0  0  0  0  0  0
    0.1982    2.3903    0.0000 C   0  0  0  0  0  0  0  0  0  0  0  0
   -0.9678    3.2298    0.0000 C   0  0  0  0  0  0  0  0  0  0  0  0
   -1.4108   -2.7633    0.0000 C   0  0  0  0  0  0  0  0  0  0  0  0
   -2.1570   -2.7867    0.0000 C   0  0  0  0  0  0  0  0  0  0  0  0
    0.3148    3.8127    0.0000 C   0  0  0  0  0  0  0  0  0  0  0  0
    0.6647    3.0897    0.0000 C   0  0  0  0  0  0  0  0  0  0  0  0
   -0.4780    3.9060    0.0000 C   0  0  0  0  0  0  0  0  0  0  0  0
   -1.1776   -3.1131    0.0000 C   0  0  0  0  0  0  0  0  0  0  0  0
   -0.9211   -3.6028    0.0000 C   0  0  0  0  0  0  0  0  0  0  0  0
    1.6673    4.4423    0.0000 C   0  0  0  0  0  0  0  0  0  0  0  0
   -1.5274   -2.8799    0.0000 C   0  0  0  0  0  0  0  0  0  0  0  0
    2.0405    3.6728    0.0000 C   0  0  0  0  0  0  0  0  0  0  0  0
    2.1570    5.0953    0.0000 C   0  0  0  0  0  0  0  0  0  0  0  0
   -2.1804   -4.3490    0.0000 C   0  0  0  0  0  0  0  0  0  0  0  0
    2.8566    3.5796    0.0000 C   0  0  0  0  0  0  0  0  0  0  0  0
    2.9965    5.0020    0.0000 C   0  0  0  0  0  0  0  0  0  0  0  0
    3.3231    4.2790    0.0000 C   0  0  0  0  0  0  0  0  0  0  0  0
   -2.5534   -3.6028    0.0000 C   0  0  0  0  0  0  0  0  0  0  0  0
   -2.9965   -4.3723    0.0000 C   0  0  0  0  0  0  0  0  0  0  0  0
   -2.5768   -5.0953    0.0000 C   0  0  0  0  0  0  0  0  0  0  0  0
  1 10  1  0  0  0  0
  1 14  1  0  0  0  0
  2 18  2  0  0  0  0
  3 23  1  0  0  0  0
  3 28  1  0  0  0  0
  4 27  1  0  0  0  0
  4 32  1  0  0  0  0
  5 27  2  0  0  0  0
  6 10  1  0  0  0  0
  6 11  1  0  0  0  0
  6 12  1  0  0  0  0
  7 10  2  0  0  0  0
  7 13  1  0  0  0  0
  8 18  1  0  0  0  0
  9 11  1  0  0  0  0
  9 12  1  0  0  0  0
  9 16  1  0  0  0  0
  9 17  1  0  0  0  0
 13 14  2  0  0  0  0
 13 15  1  0  0  0  0
 14 18  1  0  0  0  0
 15 19  2  0  0  0  0
 15 20  1  0  0  0  0
 16 21  1  0  0  0  0
 17 22  1  0  0  0  0
 19 24  1  0  0  0  0
 20 25  2  0  0  0  0
 21 26  3  0  0  0  0
 22 29  1  0  0  0  0
 23 24  2  0  0  0  0
 23 25  1  0  0  0  0
 26 27  1  0  0  0  0
 28 30  2  0  0  0  0
 28 31  1  0  0  0  0
 30 33  1  0  0  0  0
 31 34  2  0  0  0  0
 32 36  1  0  0  0  0
 32 37  1  0  0  0  0
 32 38  1  0  0  0  0
 33 35  2  0  0  0  0
 34 35  1  0  0  0  0
M  END
> <PUBCHEM_COMPOUND_ID_TYPE>
0

> <PUBCHEM_TOTAL_CHARGE>
0

> <PUBCHEM_SUBSTANCE_ID>
310949445

> <PUBCHEM_SUBSTANCE_VERSION>
1

> <PUBCHEM_EXT_DATASOURCE_NAME>
4488

> <PUBCHEM_EXT_DATASOURCE_REGID>
SCHEMBL16127639

> <PUBCHEM_SUBSTANCE_COMMENT>
InChI=1S/C30H33N3O4S/c1-5-17-30(18-9-12-24(34)37-29(2,3)4)19-33(20-30)28-32-25(26(38-28)27(31)35)21-13-15-23(16-14-21)36-22-10-7-6-8-11-22/h6-8,10-11,13-16H,5,17-20H2,1-4H3,(H2,31,35)
InChIKey=NYNDIHNZTKZKGI-UHFFFAOYSA-N

> <PUBCHEM_SUBSTANCE_SYNONYM>
SCHEMBL16127639

> <PUBCHEM_XREF_EXT_ID>
SCHEMBL16127639

> <PUBCHEM_EXT_DATASOURCE_URL>
https://www.surechembl.org/

> <PUBCHEM_EXT_SUBSTANCE_URL>
https://www.surechembl.org/chemical/SCHEMBL16127639

> <PUBCHEM_CID_ASSOCIATIONS>
117614892  1

> <PUBCHEM_COORDINATE_TYPE>
1
3

$$$$
