310929458
  -OEChem-07211613022D

 25 26  0     0  0  0  0  0  0999 V2000
   10.5776   -0.4007    0.0000 O   0  0  0  0  0  0  0  0  0  0  0  0
    0.0000   -1.6427    0.0000 O   0  0  0  0  0  0  0  0  0  0  0  0
    9.1753   -1.2421    0.0000 N   0  0  0  0  0  0  0  0  0  0  0  0
    9.8965   -1.6427    0.0000 C   0  0  0  0  0  0  0  0  0  0  0  0
    9.8965   -2.4441    0.0000 C   0  0  0  0  0  0  0  0  0  0  0  0
   10.5776   -1.2421    0.0000 C   0  0  0  0  0  0  0  0  0  0  0  0
   10.5776   -2.8447    0.0000 C   0  0  0  0  0  0  0  0  0  0  0  0
    8.4541   -1.6427    0.0000 C   0  0  0  0  0  0  0  0  0  0  0  0
   11.2988   -2.4441    0.0000 C   0  0  0  0  0  0  0  0  0  0  0  0
   11.2988   -1.6427    0.0000 C   0  0  0  0  0  0  0  0  0  0  0  0
    9.1753   -2.8848    0.0000 C   0  0  0  0  0  0  0  0  0  0  0  0
    8.4941   -2.4441    0.0000 C   0  0  0  0  0  0  0  0  0  0  0  0
    7.7729   -1.2421    0.0000 C   0  0  0  0  0  0  0  0  0  0  0  0
   12.0200   -2.8447    0.0000 C   0  0  0  0  0  0  0  0  0  0  0  0
    7.0517   -1.6427    0.0000 C   0  0  0  0  0  0  0  0  0  0  0  0
    9.8564    0.0000    0.0000 C   0  0  0  0  0  0  0  0  0  0  0  0
    6.3706   -1.2421    0.0000 C   0  0  0  0  0  0  0  0  0  0  0  0
    5.6494   -1.6427    0.0000 C   0  0  0  0  0  0  0  0  0  0  0  0
    4.9282   -1.2421    0.0000 C   0  0  0  0  0  0  0  0  0  0  0  0
    4.2471   -1.6427    0.0000 C   0  0  0  0  0  0  0  0  0  0  0  0
    3.5259   -1.2421    0.0000 C   0  0  0  0  0  0  0  0  0  0  0  0
    2.8047   -1.6427    0.0000 C   0  0  0  0  0  0  0  0  0  0  0  0
    2.1235   -1.2421    0.0000 C   0  0  0  0  0  0  0  0  0  0  0  0
    1.4023   -1.6427    0.0000 C   0  0  0  0  0  0  0  0  0  0  0  0
    0.6811   -1.2421    0.0000 C   0  0  0  0  0  0  0  0  0  0  0  0
  1  6  1  0  0  0  0
  1 16  1  0  0  0  0
  2 25  1  0  0  0  0
  3  4  2  0  0  0  0
  3  8  1  0  0  0  0
  4  5  1  0  0  0  0
  4  6  1  0  0  0  0
  5  7  1  0  0  0  0
  5 11  2  0  0  0  0
  6 10  2  0  0  0  0
  7  9  2  0  0  0  0
  8 12  2  0  0  0  0
  8 13  1  0  0  0  0
  9 10  1  0  0  0  0
  9 14  1  0  0  0  0
 11 12  1  0  0  0  0
 13 15  1  0  0  0  0
 15 17  1  0  0  0  0
 17 18  1  0  0  0  0
 18 19  1  0  0  0  0
 19 20  1  0  0  0  0
 20 21  1  0  0  0  0
 21 22  1  0  0  0  0
 22 23  1  0  0  0  0
 23 24  1  0  0  0  0
 24 25  1  0  0  0  0
M  END
> <PUBCHEM_COMPOUND_ID_TYPE>
0

> <PUBCHEM_TOTAL_CHARGE>
0

> <PUBCHEM_SUBSTANCE_ID>
310929458

> <PUBCHEM_SUBSTANCE_VERSION>
1

> <PUBCHEM_EXT_DATASOURCE_NAME>
4488

> <PUBCHEM_EXT_DATASOURCE_REGID>
SCHEMBL16106632

> <PUBCHEM_SUBSTANCE_COMMENT>
InChI=1S/C22H33NO2/c1-18-16-19-13-14-20(23-22(19)21(17-18)25-2)12-10-8-6-4-3-5-7-9-11-15-24/h13-14,16-17,24H,3-12,15H2,1-2H3
InChIKey=FEEWHEOAQJJUCN-UHFFFAOYSA-N

> <PUBCHEM_SUBSTANCE_SYNONYM>
SCHEMBL16106632

> <PUBCHEM_XREF_EXT_ID>
SCHEMBL16106632

> <PUBCHEM_EXT_DATASOURCE_URL>
https://www.surechembl.org/

> <PUBCHEM_EXT_SUBSTANCE_URL>
https://www.surechembl.org/chemical/SCHEMBL16106632

> <PUBCHEM_CID_ASSOCIATIONS>
85471909  1

> <PUBCHEM_COORDINATE_TYPE>
1
3

$$$$
