310929940
  -OEChem-07211613022D

 57 64  0     1  0  0  0  0  0999 V2000
    5.5038   -0.9173    0.0000 S   0  0  0  0  0  0  0  0  0  0  0  0
    5.0693   -2.5587    0.0000 O   0  0  0  0  0  0  0  0  0  0  0  0
    5.6969   -1.7380    0.0000 O   0  0  0  0  0  0  0  0  0  0  0  0
    5.2624   -0.1448    0.0000 O   0  0  0  0  0  0  0  0  0  0  0  0
    5.0210   -3.1864    0.0000 O   0  0  0  0  0  0  0  0  0  0  0  0
    6.0831   -5.5521    0.0000 O   0  0  0  0  0  0  0  0  0  0  0  0
    2.0277   -4.0071    0.0000 O   0  0  0  0  0  0  0  0  0  0  0  0
    7.0487   -8.4488    0.0000 O   0  0  0  0  0  0  0  0  0  0  0  0
    1.4966   -7.6280    0.0000 O   0  0  0  0  0  0  0  0  0  0  0  0
    0.5794   -6.7108    0.0000 O   0  0  0  0  0  0  0  0  0  0  0  0
    3.5726   -2.9933    0.0000 N   0  0  0  0  0  0  0  0  0  0  0  0
    4.6830   -1.1587    0.0000 N   0  0  0  0  0  0  0  0  0  0  0  0
    3.2829   -4.2968    0.0000 N   0  0  0  0  0  0  0  0  0  0  0  0
    7.0487   -5.9383    0.0000 N   0  0  0  0  0  0  0  0  0  0  0  0
    1.4966   -5.9383    0.0000 N   0  0  0  0  0  0  0  0  0  0  0  0
    3.6692   -2.1726    0.0000 C   0  0  3  0  0  0  0  0  0  0  0  0
    2.9933   -1.7863    0.0000 C   0  0  3  0  0  0  0  0  0  0  0  0
    3.6692   -1.3518    0.0000 C   0  0  0  0  0  0  0  0  0  0  0  0
    4.4899   -1.9312    0.0000 C   0  0  0  0  0  0  0  0  0  0  0  0
    6.2762   -0.7242    0.0000 C   0  0  0  0  0  0  0  0  0  0  0  0
    4.2486   -3.4761    0.0000 C   0  0  0  0  0  0  0  0  0  0  0  0
    2.1726   -1.7863    0.0000 C   0  0  0  0  0  0  0  0  0  0  0  0
    6.8556   -0.1448    0.0000 C   0  0  0  0  0  0  0  0  0  0  0  0
    7.0970   -0.9173    0.0000 C   0  0  0  0  0  0  0  0  0  0  0  0
    4.1520   -4.2968    0.0000 C   0  0  3  0  0  0  0  0  0  0  0  0
    5.8417    0.0000    0.0000 C   0  0  0  0  0  0  0  0  0  0  0  0
    4.9245   -4.4899    0.0000 C   0  0  0  0  0  0  0  0  0  0  0  0
    5.6004   -4.8762    0.0000 C   0  0  3  0  0  0  0  0  0  0  0  0
    2.5105   -4.6830    0.0000 C   0  0  0  0  0  0  0  0  0  0  0  0
    4.5865   -3.9106    0.0000 C   0  0  0  0  0  0  0  0  0  0  0  0
    1.7380   -2.5105    0.0000 C   0  0  0  0  0  0  0  0  0  0  0  0
    1.8829   -5.2624    0.0000 C   0  0  3  0  0  0  0  0  0  0  0  0
    6.3728   -6.3246    0.0000 C   0  0  0  0  0  0  0  0  0  0  0  0
    6.3728   -7.2418    0.0000 C   0  0  0  0  0  0  0  0  0  0  0  0
    7.0487   -7.6280    0.0000 C   0  0  0  0  0  0  0  0  0  0  0  0
    1.2553   -4.7796    0.0000 C   0  0  0  0  0  0  0  0  0  0  0  0
    7.7246   -7.2418    0.0000 C   0  0  0  0  0  0  0  0  0  0  0  0
    7.7246   -6.3246    0.0000 C   0  0  0  0  0  0  0  0  0  0  0  0
    6.0831   -8.0143    0.0000 C   0  0  0  0  0  0  0  0  0  0  0  0
    8.5454   -7.6280    0.0000 C   0  0  0  0  0  0  0  0  0  0  0  0
    0.4828   -5.0210    0.0000 C   0  0  0  0  0  0  0  0  0  0  0  0
    1.3035   -3.9588    0.0000 C   0  0  0  0  0  0  0  0  0  0  0  0
    8.5454   -5.9383    0.0000 C   0  0  0  0  0  0  0  0  0  0  0  0
    1.4484   -6.7590    0.0000 C   0  0  0  0  0  0  0  0  0  0  0  0
    9.2212   -7.2418    0.0000 C   0  0  0  0  0  0  0  0  0  0  0  0
    9.2212   -6.3246    0.0000 C   0  0  0  0  0  0  0  0  0  0  0  0
    0.0000   -4.3451    0.0000 C   0  0  0  0  0  0  0  0  0  0  0  0
    0.4828   -3.6692    0.0000 C   0  0  0  0  0  0  0  0  0  0  0  0
    5.6004   -8.5937    0.0000 C   0  0  0  0  0  0  0  0  0  0  0  0
    1.8829   -8.3039    0.0000 C   0  0  3  0  0  0  0  0  0  0  0  0
    2.5105   -8.8833    0.0000 C   0  0  3  0  0  0  0  0  0  0  0  0
    4.7796   -8.7868    0.0000 C   0  0  0  0  0  0  0  0  0  0  0  0
    1.2070   -8.6902    0.0000 C   0  0  0  0  0  0  0  0  0  0  0  0
    3.2829   -9.1730    0.0000 C   0  0  0  0  0  0  0  0  0  0  0  0
    2.2208   -9.6558    0.0000 C   0  0  0  0  0  0  0  0  0  0  0  0
    4.1520   -9.2696    0.0000 C   0  0  0  0  0  0  0  0  0  0  0  0
    1.3035   -9.5592    0.0000 C   0  0  0  0  0  0  0  0  0  0  0  0
  1  3  2  0  0  0  0
  1  4  2  0  0  0  0
  1 12  1  0  0  0  0
  1 20  1  0  0  0  0
  2 19  2  0  0  0  0
  5 21  2  0  0  0  0
  6 28  1  0  0  0  0
  6 33  1  0  0  0  0
  7 29  2  0  0  0  0
  8 35  1  0  0  0  0
  9 44  1  0  0  0  0
  9 50  1  0  0  0  0
 10 44  2  0  0  0  0
 16 11  1  1  0  0  0
 11 21  1  0  0  0  0
 12 19  1  0  0  0  0
 13 25  1  0  0  0  0
 13 29  1  0  0  0  0
 13 30  1  0  0  0  0
 14 33  1  0  0  0  0
 14 38  2  0  0  0  0
 15 32  1  0  0  0  0
 15 44  1  0  0  0  0
 16 17  1  0  0  0  0
 16 18  1  0  0  0  0
 16 19  1  6  0  0  0
 17 18  1  0  0  0  0
 17 22  1  6  0  0  0
 20 23  1  0  0  0  0
 20 24  1  0  0  0  0
 20 26  1  0  0  0  0
 25 21  1  6  0  0  0
 22 31  2  0  0  0  0
 23 24  1  0  0  0  0
 25 27  1  0  0  0  0
 28 27  1  1  0  0  0
 28 30  1  0  0  0  0
 32 29  1  1  0  0  0
 32 36  1  0  0  0  0
 33 34  2  0  0  0  0
 34 35  1  0  0  0  0
 34 39  1  0  0  0  0
 35 37  2  0  0  0  0
 36 41  1  0  0  0  0
 36 42  1  0  0  0  0
 37 38  1  0  0  0  0
 37 40  1  0  0  0  0
 38 43  1  0  0  0  0
 39 49  1  0  0  0  0
 40 45  2  0  0  0  0
 41 47  1  0  0  0  0
 42 48  1  0  0  0  0
 43 46  2  0  0  0  0
 45 46  1  0  0  0  0
 47 48  1  0  0  0  0
 49 52  2  0  0  0  0
 50 51  1  0  0  0  0
 50 53  1  1  0  0  0
 51 54  1  0  0  0  0
 51 55  1  6  0  0  0
 52 56  1  0  0  0  0
 53 57  1  0  0  0  0
 54 56  1  0  0  0  0
 55 57  1  0  0  0  0
M  END
> <PUBCHEM_COMPOUND_ID_TYPE>
0

> <PUBCHEM_TOTAL_CHARGE>
0

> <PUBCHEM_SUBSTANCE_ID>
310929940

> <PUBCHEM_SUBSTANCE_VERSION>
1

> <PUBCHEM_EXT_DATASOURCE_NAME>
4488

> <PUBCHEM_EXT_DATASOURCE_REGID>
SCHEMBL16107161

> <PUBCHEM_SUBSTANCE_COMMENT>
InChI=1S/C42H53N5O9S/c1-3-27-23-42(27,39(51)46-57(53,54)41(2)20-21-41)45-36(49)32-22-28-24-47(32)38(50)34(26-13-7-8-14-26)44-40(52)56-33-19-11-15-25(33)12-5-4-6-17-30-35(48)29-16-9-10-18-31(29)43-37(30)55-28/h3-4,6,9-10,16,18,25-28,32-34H,1,5,7-8,11-15,17,19-24H2,2H3,(H,43,48)(H,44,52)(H,45,49)(H,46,51)/b6-4+/t25-,27-,28-,32+,33-,34+,42-/m1/s1
InChIKey=IIUKVSKWURFVMO-YURMJVKLSA-N

> <PUBCHEM_SUBSTANCE_SYNONYM>
SCHEMBL16107161

> <PUBCHEM_XREF_EXT_ID>
SCHEMBL16107161

> <PUBCHEM_EXT_DATASOURCE_URL>
https://www.surechembl.org/

> <PUBCHEM_EXT_SUBSTANCE_URL>
https://www.surechembl.org/chemical/SCHEMBL16107161

> <PUBCHEM_CID_ASSOCIATIONS>
117599201  1

> <PUBCHEM_COORDINATE_TYPE>
1
3

> <PUBCHEM_BONDANNOTATIONS>
16  11  5
16  19  6
17  22  6
25  21  6
28  27  5
32  29  5
50  53  5
51  55  6

$$$$
