310948859
  -OEChem-07211613022D

 56 58  0     1  0  0  0  0  0999 V2000
    4.6571    0.5884    0.0000 P   0  0  3  0  0  0  0  0  0  0  0  0
    8.2985   -1.3191    0.0000 F   0  0  0  0  0  0  0  0  0  0  0  0
    7.4563    0.6626    0.0000 O   0  0  0  0  0  0  0  0  0  0  0  0
    6.6389   -1.3315    0.0000 O   0  0  0  0  0  0  0  0  0  0  0  0
    5.3631    0.1796    0.0000 O   0  0  0  0  0  0  0  0  0  0  0  0
    9.7230   -0.2539    0.0000 O   0  0  0  0  0  0  0  0  0  0  0  0
    4.2360   -0.1301    0.0000 O   0  0  0  0  0  0  0  0  0  0  0  0
   10.4661    2.5082    0.0000 O   0  0  0  0  0  0  0  0  0  0  0  0
    4.6447    1.4182    0.0000 O   0  0  0  0  0  0  0  0  0  0  0  0
   -1.1890   -0.6502    0.0000 O   0  0  0  0  0  0  0  0  0  0  0  0
    8.7321    0.7617    0.0000 N   0  0  0  0  0  0  0  0  0  0  0  0
   10.2431    1.1334    0.0000 N   0  0  0  0  0  0  0  0  0  0  0  0
    3.8396    0.6131    0.0000 N   0  0  0  0  0  0  0  0  0  0  0  0
    1.6968    0.1796    0.0000 N   0  0  3  0  0  0  0  0  0  0  0  0
   -0.4583    0.6131    0.0000 N   0  0  0  0  0  0  0  0  0  0  0  0
    7.8898   -0.6007    0.0000 C   0  0  3  0  0  0  0  0  0  0  0  0
    8.1375    0.1919    0.0000 C   0  0  3  0  0  0  0  0  0  0  0  0
    7.0600   -0.6007    0.0000 C   0  0  3  0  0  0  0  0  0  0  0  0
    6.7999    0.1672    0.0000 C   0  0  3  0  0  0  0  0  0  0  0  0
    9.5124    0.5636    0.0000 C   0  0  0  0  0  0  0  0  0  0  0  0
    8.7073   -0.6131    0.0000 C   0  0  0  0  0  0  0  0  0  0  0  0
    6.0815    0.5884    0.0000 C   0  0  0  0  0  0  0  0  0  0  0  0
    8.5215    1.5669    0.0000 C   0  0  0  0  0  0  0  0  0  0  0  0
    9.8840    1.9136    0.0000 C   0  0  0  0  0  0  0  0  0  0  0  0
    9.1037    2.1366    0.0000 C   0  0  0  0  0  0  0  0  0  0  0  0
    4.4589   -0.9104    0.0000 C   0  0  0  0  0  0  0  0  0  0  0  0
    3.1213    0.1796    0.0000 C   0  0  0  0  0  0  0  0  0  0  0  0
    3.8892   -1.5172    0.0000 C   0  0  0  0  0  0  0  0  0  0  0  0
    5.2516   -1.1457    0.0000 C   0  0  0  0  0  0  0  0  0  0  0  0
    2.3905    0.5884    0.0000 C   0  0  0  0  0  0  0  0  0  0  0  0
    4.0997   -2.2976    0.0000 C   0  0  0  0  0  0  0  0  0  0  0  0
    5.4622   -1.9384    0.0000 C   0  0  0  0  0  0  0  0  0  0  0  0
    4.8924   -2.5082    0.0000 C   0  0  0  0  0  0  0  0  0  0  0  0
    0.9661    0.5884    0.0000 C   0  0  0  0  0  0  0  0  0  0  0  0
    1.7093   -0.6379    0.0000 C   0  0  0  0  0  0  0  0  0  0  0  0
    0.2601    0.1796    0.0000 C   0  0  0  0  0  0  0  0  0  0  0  0
   -1.1767    0.1919    0.0000 C   0  0  0  0  0  0  0  0  0  0  0  0
   -1.8951    0.5884    0.0000 C   0  0  0  0  0  0  0  0  0  0  0  0
   -2.5886    0.1919    0.0000 C   0  0  0  0  0  0  0  0  0  0  0  0
   -2.6011   -0.6502    0.0000 C   0  0  0  0  0  0  0  0  0  0  0  0
   -3.3071   -1.0590    0.0000 C   0  0  0  0  0  0  0  0  0  0  0  0
   -4.0378   -0.6379    0.0000 C   0  0  0  0  0  0  0  0  0  0  0  0
   -4.0378    0.1796    0.0000 C   0  0  0  0  0  0  0  0  0  0  0  0
   -4.7562    0.5884    0.0000 C   0  0  0  0  0  0  0  0  0  0  0  0
   -5.4498    0.1919    0.0000 C   0  0  0  0  0  0  0  0  0  0  0  0
   -5.4622   -0.6502    0.0000 C   0  0  0  0  0  0  0  0  0  0  0  0
   -6.1806   -1.0590    0.0000 C   0  0  0  0  0  0  0  0  0  0  0  0
   -6.8866   -0.6502    0.0000 C   0  0  0  0  0  0  0  0  0  0  0  0
   -6.8866    0.1796    0.0000 C   0  0  0  0  0  0  0  0  0  0  0  0
   -7.6173    0.5884    0.0000 C   0  0  0  0  0  0  0  0  0  0  0  0
   -8.3110    0.1796    0.0000 C   0  0  0  0  0  0  0  0  0  0  0  0
   -8.3233   -0.6502    0.0000 C   0  0  0  0  0  0  0  0  0  0  0  0
   -9.0417   -1.0590    0.0000 C   0  0  0  0  0  0  0  0  0  0  0  0
   -9.7478   -0.6502    0.0000 C   0  0  0  0  0  0  0  0  0  0  0  0
   -9.7478    0.1796    0.0000 C   0  0  0  0  0  0  0  0  0  0  0  0
  -10.4661    0.5759    0.0000 C   0  0  0  0  0  0  0  0  0  0  0  0
  1  5  1  0  0  0  0
  1  7  1  0  0  0  0
  1  9  2  0  0  0  0
  1 13  1  0  0  0  0
 16  2  1  6  0  0  0
  3 17  1  0  0  0  0
  3 19  1  0  0  0  0
 18  4  1  6  0  0  0
  5 22  1  0  0  0  0
  6 20  2  0  0  0  0
  7 26  1  0  0  0  0
  8 24  2  0  0  0  0
 10 37  2  0  0  0  0
 11 17  1  0  0  0  0
 11 20  1  0  0  0  0
 11 23  1  0  0  0  0
 12 20  1  0  0  0  0
 12 24  1  0  0  0  0
 13 27  1  0  0  0  0
 14 30  1  0  0  0  0
 14 34  1  0  0  0  0
 14 35  1  0  0  0  0
 15 36  1  0  0  0  0
 15 37  1  0  0  0  0
 16 17  1  0  0  0  0
 16 18  1  0  0  0  0
 16 21  1  1  0  0  0
 18 19  1  0  0  0  0
 19 22  1  1  0  0  0
 23 25  2  0  0  0  0
 24 25  1  0  0  0  0
 26 28  2  0  0  0  0
 26 29  1  0  0  0  0
 27 30  1  0  0  0  0
 28 31  1  0  0  0  0
 29 32  2  0  0  0  0
 31 33  2  0  0  0  0
 32 33  1  0  0  0  0
 34 36  1  0  0  0  0
 37 38  1  0  0  0  0
 38 39  1  0  0  0  0
 39 40  1  0  0  0  0
 40 41  1  0  0  0  0
 41 42  2  0  0  0  0
 42 43  1  0  0  0  0
 43 44  1  0  0  0  0
 44 45  2  0  0  0  0
 45 46  1  0  0  0  0
 46 47  1  0  0  0  0
 47 48  2  0  0  0  0
 48 49  1  0  0  0  0
 49 50  1  0  0  0  0
 50 51  2  0  0  0  0
 51 52  1  0  0  0  0
 52 53  1  0  0  0  0
 53 54  2  0  0  0  0
 54 55  1  0  0  0  0
 55 56  1  0  0  0  0
M  END
> <PUBCHEM_COMPOUND_ID_TYPE>
0

> <PUBCHEM_TOTAL_CHARGE>
0

> <PUBCHEM_SUBSTANCE_ID>
310948859

> <PUBCHEM_SUBSTANCE_VERSION>
1

> <PUBCHEM_EXT_DATASOURCE_NAME>
4488

> <PUBCHEM_EXT_DATASOURCE_REGID>
SCHEMBL16127044

> <PUBCHEM_SUBSTANCE_COMMENT>
InChI=1S/C41H59FN5O8P/c1-4-5-6-7-8-9-10-11-12-13-14-15-16-17-18-19-23-26-36(48)43-28-31-46(3)32-29-44-56(52,55-34-24-21-20-22-25-34)53-33-35-38(50)41(2,42)39(54-35)47-30-27-37(49)45-40(47)51/h5-6,8-9,11-12,14-15,17-18,20-22,24-25,27,30,35,38-39,50H,4,7,10,13,16,19,23,26,28-29,31-33H2,1-3H3,(H,43,48)(H,44,52)(H,45,49,51)/b6-5-,9-8-,12-11-,15-14-,18-17-/t35-,38-,39?,41-,56?/m1/s1
InChIKey=SEYCDWGWRHUIJY-NVZVXERWSA-N

> <PUBCHEM_SUBSTANCE_SYNONYM>
SCHEMBL16127044

> <PUBCHEM_XREF_EXT_ID>
SCHEMBL16127044

> <PUBCHEM_EXT_DATASOURCE_URL>
https://www.surechembl.org/

> <PUBCHEM_EXT_SUBSTANCE_URL>
https://www.surechembl.org/chemical/SCHEMBL16127044

> <PUBCHEM_CID_ASSOCIATIONS>
117614394  1

> <PUBCHEM_COORDINATE_TYPE>
1
3

> <PUBCHEM_BONDANNOTATIONS>
16  21  5
19  22  5
16  2  6
18  4  6

$$$$
