310944611
  -OEChem-07211613022D

 30 32  0     0  0  0  0  0  0999 V2000
   -3.3877   -0.8531    0.0000 Cl  0  0  0  0  0  0  0  0  0  0  0  0
   -2.5099    2.0401    0.0000 F   0  0  0  0  0  0  0  0  0  0  0  0
   -0.3709   -0.8531    0.0000 O   0  0  0  0  0  0  0  0  0  0  0  0
    1.0510    1.6196    0.0000 O   0  0  0  0  0  0  0  0  0  0  0  0
    4.6364   -0.4327    0.0000 O   0  0  0  0  0  0  0  0  0  0  0  0
   -0.3586    0.8036    0.0000 N   0  0  0  0  0  0  0  0  0  0  0  0
    1.7927    0.3833    0.0000 N   0  0  0  0  0  0  0  0  0  0  0  0
    3.2270   -0.4327    0.0000 N   0  0  0  0  0  0  0  0  0  0  0  0
   -2.4975    0.3957    0.0000 C   0  0  0  0  0  0  0  0  0  0  0  0
   -3.2270    0.8036    0.0000 C   0  0  0  0  0  0  0  0  0  0  0  0
   -1.0757    0.3957    0.0000 C   0  0  0  0  0  0  0  0  0  0  0  0
   -2.4975   -0.4327    0.0000 C   0  0  0  0  0  0  0  0  0  0  0  0
   -1.0881   -0.4327    0.0000 C   0  0  0  0  0  0  0  0  0  0  0  0
   -1.7927    0.7913    0.0000 C   0  0  0  0  0  0  0  0  0  0  0  0
   -1.7804   -0.8407    0.0000 C   0  0  0  0  0  0  0  0  0  0  0  0
   -3.2146    1.6320    0.0000 C   0  0  0  0  0  0  0  0  0  0  0  0
   -3.9194    0.3957    0.0000 C   0  0  0  0  0  0  0  0  0  0  0  0
    1.0633    0.7913    0.0000 C   0  0  0  0  0  0  0  0  0  0  0  0
    0.3709    0.3957    0.0000 C   0  0  0  0  0  0  0  0  0  0  0  0
   -3.9194    2.0277    0.0000 C   0  0  0  0  0  0  0  0  0  0  0  0
    2.5099    0.8036    0.0000 C   0  0  0  0  0  0  0  0  0  0  0  0
    1.7927   -0.4327    0.0000 C   0  0  0  0  0  0  0  0  0  0  0  0
   -4.6364    0.8036    0.0000 C   0  0  0  0  0  0  0  0  0  0  0  0
    3.2146    0.3957    0.0000 C   0  0  0  0  0  0  0  0  0  0  0  0
    2.5099   -0.8407    0.0000 C   0  0  0  0  0  0  0  0  0  0  0  0
   -4.6364    1.6196    0.0000 C   0  0  0  0  0  0  0  0  0  0  0  0
    3.9194   -0.8531    0.0000 C   0  0  0  0  0  0  0  0  0  0  0  0
    0.3462   -0.4327    0.0000 C   0  0  0  0  0  0  0  0  0  0  0  0
    3.9318   -1.6815    0.0000 C   0  0  0  0  0  0  0  0  0  0  0  0
    3.1899   -2.0401    0.0000 C   0  0  0  0  0  0  0  0  0  0  0  0
  1 12  1  0  0  0  0
  2 16  1  0  0  0  0
  3 13  1  0  0  0  0
  3 28  1  0  0  0  0
  4 18  2  0  0  0  0
  5 27  2  0  0  0  0
  6 11  1  0  0  0  0
  6 19  1  0  0  0  0
  7 18  1  0  0  0  0
  7 21  1  0  0  0  0
  7 22  1  0  0  0  0
  8 24  1  0  0  0  0
  8 25  1  0  0  0  0
  8 27  1  0  0  0  0
  9 10  1  0  0  0  0
  9 12  2  0  0  0  0
  9 14  1  0  0  0  0
 10 16  1  0  0  0  0
 10 17  2  0  0  0  0
 11 13  1  0  0  0  0
 11 14  2  0  0  0  0
 12 15  1  0  0  0  0
 13 15  2  0  0  0  0
 16 20  2  0  0  0  0
 17 23  1  0  0  0  0
 18 19  1  0  0  0  0
 20 26  1  0  0  0  0
 21 24  1  0  0  0  0
 22 25  1  0  0  0  0
 23 26  2  0  0  0  0
 27 29  1  0  0  0  0
 29 30  2  0  0  0  0
M  END
> <PUBCHEM_COMPOUND_ID_TYPE>
0

> <PUBCHEM_TOTAL_CHARGE>
0

> <PUBCHEM_SUBSTANCE_ID>
310944611

> <PUBCHEM_SUBSTANCE_VERSION>
1

> <PUBCHEM_EXT_DATASOURCE_NAME>
4488

> <PUBCHEM_EXT_DATASOURCE_REGID>
SCHEMBL16122689

> <PUBCHEM_SUBSTANCE_COMMENT>
InChI=1S/C22H23ClFN3O3/c1-3-21(28)26-8-10-27(11-9-26)22(29)14-25-19-12-16(17(23)13-20(19)30-2)15-6-4-5-7-18(15)24/h3-7,12-13,25H,1,8-11,14H2,2H3
InChIKey=MOOGUOWFIOWFNI-UHFFFAOYSA-N

> <PUBCHEM_SUBSTANCE_SYNONYM>
SCHEMBL16122689

> <PUBCHEM_XREF_EXT_ID>
SCHEMBL16122689

> <PUBCHEM_EXT_DATASOURCE_URL>
https://www.surechembl.org/

> <PUBCHEM_EXT_SUBSTANCE_URL>
https://www.surechembl.org/chemical/SCHEMBL16122689

> <PUBCHEM_CID_ASSOCIATIONS>
117610841  1

> <PUBCHEM_COORDINATE_TYPE>
1
3

$$$$
