310942545
  -OEChem-07211613022D

 39 43  0     0  0  0  0  0  0999 V2000
    2.8785    1.3064    0.0000 S   0  0  0  0  0  0  0  0  0  0  0  0
    2.4622    2.0149    0.0000 O   0  0  0  0  0  0  0  0  0  0  0  0
    3.2947    2.0149    0.0000 O   0  0  0  0  0  0  0  0  0  0  0  0
    5.7657   -0.3410    0.0000 O   0  0  0  0  0  0  0  0  0  0  0  0
   -0.0088   -0.3410    0.0000 N   0  0  0  0  0  0  0  0  0  0  0  0
   -0.7262    0.8901    0.0000 N   0  0  0  0  0  0  0  0  0  0  0  0
    1.4348   -0.3410    0.0000 N   0  0  0  0  0  0  0  0  0  0  0  0
   -1.4525   -0.3410    0.0000 N   0  0  0  0  0  0  0  0  0  0  0  0
   -4.3398    1.2975    0.0000 N   0  0  0  0  0  0  0  0  0  0  0  0
   -5.7835    2.1212    0.0000 N   0  0  0  0  0  0  0  0  0  0  0  0
    0.7262    0.8901    0.0000 C   0  0  0  0  0  0  0  0  0  0  0  0
    0.7174    0.0664    0.0000 C   0  0  0  0  0  0  0  0  0  0  0  0
    3.6136    0.8901    0.0000 C   0  0  0  0  0  0  0  0  0  0  0  0
   -0.7262    0.0664    0.0000 C   0  0  0  0  0  0  0  0  0  0  0  0
    2.1788    0.8901    0.0000 C   0  0  0  0  0  0  0  0  0  0  0  0
    1.4437    1.2975    0.0000 C   0  0  0  0  0  0  0  0  0  0  0  0
    0.0000    1.2975    0.0000 C   0  0  0  0  0  0  0  0  0  0  0  0
   -2.1699    0.0753    0.0000 C   0  0  0  0  0  0  0  0  0  0  0  0
   -3.6047    0.8901    0.0000 C   0  0  0  0  0  0  0  0  0  0  0  0
    3.6136    0.0664    0.0000 C   0  0  0  0  0  0  0  0  0  0  0  0
    4.3310    1.2975    0.0000 C   0  0  0  0  0  0  0  0  0  0  0  0
    1.4259   -1.2532    0.0000 C   0  0  0  0  0  0  0  0  0  0  0  0
   -2.8785   -0.3410    0.0000 C   0  0  0  0  0  0  0  0  0  0  0  0
   -2.1699    0.8901    0.0000 C   0  0  0  0  0  0  0  0  0  0  0  0
   -3.6047    0.0664    0.0000 C   0  0  0  0  0  0  0  0  0  0  0  0
   -2.8873    1.2975    0.0000 C   0  0  0  0  0  0  0  0  0  0  0  0
    5.0484    0.0753    0.0000 C   0  0  0  0  0  0  0  0  0  0  0  0
    4.3398   -0.3410    0.0000 C   0  0  0  0  0  0  0  0  0  0  0  0
    5.0484    0.8901    0.0000 C   0  0  0  0  0  0  0  0  0  0  0  0
   -5.0484    0.8901    0.0000 C   0  0  0  0  0  0  0  0  0  0  0  0
   -4.3310    2.1212    0.0000 C   0  0  0  0  0  0  0  0  0  0  0  0
    0.7794   -1.7669    0.0000 C   0  0  0  0  0  0  0  0  0  0  0  0
    2.1079   -1.7581    0.0000 C   0  0  0  0  0  0  0  0  0  0  0  0
   -5.7746    1.3064    0.0000 C   0  0  0  0  0  0  0  0  0  0  0  0
   -5.0661    2.5286    0.0000 C   0  0  0  0  0  0  0  0  0  0  0  0
    1.0540   -2.5286    0.0000 C   0  0  0  0  0  0  0  0  0  0  0  0
    1.8865   -2.5286    0.0000 C   0  0  0  0  0  0  0  0  0  0  0  0
   -6.5097    2.5286    0.0000 C   0  0  0  0  0  0  0  0  0  0  0  0
    6.5097    0.0753    0.0000 C   0  0  0  0  0  0  0  0  0  0  0  0
  1  2  2  0  0  0  0
  1  3  2  0  0  0  0
  1 13  1  0  0  0  0
  1 15  1  0  0  0  0
  4 27  1  0  0  0  0
  4 39  1  0  0  0  0
  5 12  2  0  0  0  0
  5 14  1  0  0  0  0
  6 14  2  0  0  0  0
  6 17  1  0  0  0  0
  7 12  1  0  0  0  0
  7 22  1  0  0  0  0
  8 14  1  0  0  0  0
  8 18  1  0  0  0  0
  9 19  1  0  0  0  0
  9 30  1  0  0  0  0
  9 31  1  0  0  0  0
 10 34  1  0  0  0  0
 10 35  1  0  0  0  0
 10 38  1  0  0  0  0
 11 12  1  0  0  0  0
 11 16  1  0  0  0  0
 11 17  2  0  0  0  0
 13 20  2  0  0  0  0
 13 21  1  0  0  0  0
 15 16  2  0  0  0  0
 18 23  2  0  0  0  0
 18 24  1  0  0  0  0
 19 25  2  0  0  0  0
 19 26  1  0  0  0  0
 20 28  1  0  0  0  0
 21 29  2  0  0  0  0
 22 32  1  0  0  0  0
 22 33  1  0  0  0  0
 23 25  1  0  0  0  0
 24 26  2  0  0  0  0
 27 28  2  0  0  0  0
 27 29  1  0  0  0  0
 30 34  1  0  0  0  0
 31 35  1  0  0  0  0
 32 36  1  0  0  0  0
 33 37  1  0  0  0  0
 36 37  1  0  0  0  0
M  END
> <PUBCHEM_COMPOUND_ID_TYPE>
0

> <PUBCHEM_TOTAL_CHARGE>
0

> <PUBCHEM_SUBSTANCE_ID>
310942545

> <PUBCHEM_SUBSTANCE_VERSION>
1

> <PUBCHEM_EXT_DATASOURCE_NAME>
4488

> <PUBCHEM_EXT_DATASOURCE_REGID>
SCHEMBL16120585

> <PUBCHEM_SUBSTANCE_COMMENT>
InChI=1S/C29H36N6O3S/c1-34-16-18-35(19-17-34)25-9-7-24(8-10-25)32-29-30-21-22(28(33-29)31-23-5-3-4-6-23)15-20-39(36,37)27-13-11-26(38-2)12-14-27/h7-15,20-21,23H,3-6,16-19H2,1-2H3,(H2,30,31,32,33)/b20-15+
InChIKey=KAINBTVQIWDCSE-HMMYKYKNSA-N

> <PUBCHEM_SUBSTANCE_SYNONYM>
SCHEMBL16120585

> <PUBCHEM_XREF_EXT_ID>
SCHEMBL16120585

> <PUBCHEM_EXT_DATASOURCE_URL>
https://www.surechembl.org/

> <PUBCHEM_EXT_SUBSTANCE_URL>
https://www.surechembl.org/chemical/SCHEMBL16120585

> <PUBCHEM_CID_ASSOCIATIONS>
117609103  1

> <PUBCHEM_COORDINATE_TYPE>
1
3

$$$$
