310936959
  -OEChem-07211613022D

 22 23  0     0  0  0  0  0  0999 V2000
   -1.4290    3.7126    0.0000 Cl  0  0  0  0  0  0  0  0  0  0  0  0
   -1.4290    2.0625    0.0000 F   0  0  0  0  0  0  0  0  0  0  0  0
   -0.7145    1.6500    0.0000 F   0  0  0  0  0  0  0  0  0  0  0  0
   -1.4290    2.8876    0.0000 F   0  0  0  0  0  0  0  0  0  0  0  0
    0.7145    2.4751    0.0000 O   0  0  0  0  0  0  0  0  0  0  0  0
    3.5724    4.1251    0.0000 O   0  0  0  0  0  0  0  0  0  0  0  0
    2.8579    2.8876    0.0000 N   0  0  0  0  0  0  0  0  0  0  0  0
    2.1435    5.7751    0.0000 N   0  0  0  0  0  0  0  0  0  0  0  0
    1.4290    3.7126    0.0000 C   0  0  0  0  0  0  0  0  0  0  0  0
    0.7145    4.1251    0.0000 C   0  0  0  0  0  0  0  0  0  0  0  0
    1.4290    2.8876    0.0000 C   0  0  0  0  0  0  0  0  0  0  0  0
    0.7145    4.9501    0.0000 C   0  0  0  0  0  0  0  0  0  0  0  0
    2.1435    4.1251    0.0000 C   0  0  0  0  0  0  0  0  0  0  0  0
    0.0000    3.7126    0.0000 C   0  0  0  0  0  0  0  0  0  0  0  0
    2.1435    2.4751    0.0000 C   0  0  0  0  0  0  0  0  0  0  0  0
    2.8579    3.7126    0.0000 C   0  0  0  0  0  0  0  0  0  0  0  0
   -0.7145    4.1251    0.0000 C   0  0  0  0  0  0  0  0  0  0  0  0
    0.0000    5.3626    0.0000 C   0  0  0  0  0  0  0  0  0  0  0  0
    0.0000    2.8876    0.0000 C   0  0  0  0  0  0  0  0  0  0  0  0
   -0.7145    2.4751    0.0000 C   0  0  0  0  0  0  0  0  0  0  0  0
   -0.7145    4.9501    0.0000 C   0  0  0  0  0  0  0  0  0  0  0  0
    1.4290    5.3626    0.0000 C   0  0  0  0  0  0  0  0  0  0  0  0
  1 17  1  0  0  0  0
  2 20  1  0  0  0  0
  3 20  1  0  0  0  0
  4 20  1  0  0  0  0
  5 11  1  0  0  0  0
  5 19  1  0  0  0  0
  6 16  2  0  0  0  0
  7 15  1  0  0  0  0
  7 16  1  0  0  0  0
  8 22  3  0  0  0  0
  9 10  1  0  0  0  0
  9 11  1  0  0  0  0
  9 13  2  0  0  0  0
 10 12  1  0  0  0  0
 10 14  2  0  0  0  0
 11 15  2  0  0  0  0
 12 18  2  0  0  0  0
 12 22  1  0  0  0  0
 13 16  1  0  0  0  0
 14 17  1  0  0  0  0
 17 21  2  0  0  0  0
 18 21  1  0  0  0  0
 19 20  1  0  0  0  0
M  END
> <PUBCHEM_COMPOUND_ID_TYPE>
0

> <PUBCHEM_TOTAL_CHARGE>
0

> <PUBCHEM_SUBSTANCE_ID>
310936959

> <PUBCHEM_SUBSTANCE_VERSION>
1

> <PUBCHEM_EXT_DATASOURCE_NAME>
4488

> <PUBCHEM_EXT_DATASOURCE_REGID>
SCHEMBL16114662

> <PUBCHEM_SUBSTANCE_COMMENT>
InChI=1S/C14H8ClF3N2O2/c15-9-2-1-8(5-19)10(3-9)11-4-13(21)20-6-12(11)22-7-14(16,17)18/h1-4,6H,7H2,(H,20,21)
InChIKey=AUZBZWPNCNPFID-UHFFFAOYSA-N

> <PUBCHEM_SUBSTANCE_SYNONYM>
SCHEMBL16114662

> <PUBCHEM_XREF_EXT_ID>
SCHEMBL16114662

> <PUBCHEM_EXT_DATASOURCE_URL>
https://www.surechembl.org/

> <PUBCHEM_EXT_SUBSTANCE_URL>
https://www.surechembl.org/chemical/SCHEMBL16114662

> <PUBCHEM_CID_ASSOCIATIONS>
117604827  1

> <PUBCHEM_COORDINATE_TYPE>
1
3

$$$$
