310930636
  -OEChem-07211613022D

 32 35  0     0  0  0  0  0  0999 V2000
    2.2440   -2.4420    0.0000 S   0  0  0  0  0  0  0  0  0  0  0  0
    0.3960   -5.6429    0.0000 F   0  0  0  0  0  0  0  0  0  0  0  0
    1.6500   -4.9170    0.0000 F   0  0  0  0  0  0  0  0  0  0  0  0
    0.0000   -4.9170    0.0000 F   0  0  0  0  0  0  0  0  0  0  0  0
    2.6730   -3.2340    0.0000 O   0  0  0  0  0  0  0  0  0  0  0  0
    1.8480   -1.7490    0.0000 O   0  0  0  0  0  0  0  0  0  0  0  0
    6.5010    0.0000    0.0000 O   0  0  0  0  0  0  0  0  0  0  0  0
    1.5180   -3.6630    0.0000 N   0  0  0  0  0  0  0  0  0  0  0  0
    7.9199   -2.4750    0.0000 N   0  0  0  0  0  0  0  0  0  0  0  0
    9.4049   -2.3100    0.0000 N   0  0  0  0  0  0  0  0  0  0  0  0
    5.8080   -1.2210    0.0000 N   0  0  0  0  0  0  0  0  0  0  0  0
    9.9000   -1.6500    0.0000 N   0  0  0  0  0  0  0  0  0  0  0  0
    1.5180   -2.8380    0.0000 C   0  0  0  0  0  0  0  0  0  0  0  0
    2.9370   -2.0460    0.0000 C   0  0  0  0  0  0  0  0  0  0  0  0
    0.8250   -4.0920    0.0000 C   0  0  0  0  0  0  0  0  0  0  0  0
    0.8250   -4.9170    0.0000 C   0  0  0  0  0  0  0  0  0  0  0  0
    0.7920   -2.4090    0.0000 C   0  0  0  0  0  0  0  0  0  0  0  0
    3.6630   -2.4420    0.0000 C   0  0  0  0  0  0  0  0  0  0  0  0
    2.9370   -1.2210    0.0000 C   0  0  0  0  0  0  0  0  0  0  0  0
    0.0990   -3.6630    0.0000 C   0  0  0  0  0  0  0  0  0  0  0  0
    8.6129   -1.2210    0.0000 C   0  0  0  0  0  0  0  0  0  0  0  0
    8.6129   -2.0790    0.0000 C   0  0  0  0  0  0  0  0  0  0  0  0
    4.3560   -1.2210    0.0000 C   0  0  0  0  0  0  0  0  0  0  0  0
    0.0990   -2.8380    0.0000 C   0  0  0  0  0  0  0  0  0  0  0  0
    7.2269   -1.2210    0.0000 C   0  0  0  0  0  0  0  0  0  0  0  0
    4.3560   -2.0460    0.0000 C   0  0  0  0  0  0  0  0  0  0  0  0
    3.6630   -0.8250    0.0000 C   0  0  0  0  0  0  0  0  0  0  0  0
    7.9199   -0.8250    0.0000 C   0  0  0  0  0  0  0  0  0  0  0  0
    6.5010   -0.8250    0.0000 C   0  0  0  0  0  0  0  0  0  0  0  0
    7.2269   -2.0790    0.0000 C   0  0  0  0  0  0  0  0  0  0  0  0
    9.4049   -0.9900    0.0000 C   0  0  0  0  0  0  0  0  0  0  0  0
    5.0820   -0.7920    0.0000 C   0  0  0  0  0  0  0  0  0  0  0  0
  1  5  2  0  0  0  0
  1  6  2  0  0  0  0
  1 13  1  0  0  0  0
  1 14  1  0  0  0  0
  2 16  1  0  0  0  0
  3 16  1  0  0  0  0
  4 16  1  0  0  0  0
  7 29  2  0  0  0  0
  8 13  1  0  0  0  0
  8 15  2  0  0  0  0
  9 22  1  0  0  0  0
  9 30  2  0  0  0  0
 10 12  1  0  0  0  0
 10 22  1  0  0  0  0
 11 29  1  0  0  0  0
 11 32  1  0  0  0  0
 12 31  2  0  0  0  0
 13 17  2  0  0  0  0
 14 18  2  0  0  0  0
 14 19  1  0  0  0  0
 15 16  1  0  0  0  0
 15 20  1  0  0  0  0
 17 24  1  0  0  0  0
 18 26  1  0  0  0  0
 19 27  2  0  0  0  0
 20 24  2  0  0  0  0
 21 22  2  0  0  0  0
 21 28  1  0  0  0  0
 21 31  1  0  0  0  0
 23 26  2  0  0  0  0
 23 27  1  0  0  0  0
 23 32  1  0  0  0  0
 25 28  2  0  0  0  0
 25 29  1  0  0  0  0
 25 30  1  0  0  0  0
M  END
> <PUBCHEM_COMPOUND_ID_TYPE>
0

> <PUBCHEM_TOTAL_CHARGE>
0

> <PUBCHEM_SUBSTANCE_ID>
310930636

> <PUBCHEM_SUBSTANCE_VERSION>
1

> <PUBCHEM_EXT_DATASOURCE_NAME>
4488

> <PUBCHEM_EXT_DATASOURCE_REGID>
SCHEMBL16107933

> <PUBCHEM_SUBSTANCE_COMMENT>
InChI=1S/C20H14F3N5O3S/c21-20(22,23)16-2-1-3-17(27-16)32(30,31)15-6-4-12(5-7-15)9-25-19(29)14-8-13-11-26-28-18(13)24-10-14/h1-8,10-11H,9H2,(H,25,29)(H,24,26,28)
InChIKey=QSECCXLYFTXLGF-UHFFFAOYSA-N

> <PUBCHEM_SUBSTANCE_SYNONYM>
SCHEMBL16107933

> <PUBCHEM_XREF_EXT_ID>
SCHEMBL16107933

> <PUBCHEM_EXT_DATASOURCE_URL>
https://www.surechembl.org/

> <PUBCHEM_EXT_SUBSTANCE_URL>
https://www.surechembl.org/chemical/SCHEMBL16107933

> <PUBCHEM_CID_ASSOCIATIONS>
117599701  1

> <PUBCHEM_COORDINATE_TYPE>
1
3

$$$$
