310935638
  -OEChem-07211613022D

 28 31  0     1  0  0  0  0  0999 V2000
    2.0519    1.1217    0.0000 S   0  0  0  0  0  0  0  0  0  0  0  0
    0.5314    0.5279    0.0000 O   0  0  0  0  0  0  0  0  0  0  0  0
    1.9233   -2.7604    0.0000 O   0  0  0  0  0  0  0  0  0  0  0  0
    6.5042   -1.0932    0.0000 O   0  0  0  0  0  0  0  0  0  0  0  0
    3.5024   -3.0734    0.0000 O   0  0  0  0  0  0  0  0  0  0  0  0
    0.7434    1.3855    0.0000 N   0  0  0  0  0  0  0  0  0  0  0  0
    1.9233   -0.2854    0.0000 C   0  0  3  0  0  0  0  0  0  0  0  0
    1.1387   -0.0305    0.0000 C   0  0  3  0  0  0  0  0  0  0  0  0
    1.9233   -1.1104    0.0000 C   0  0  3  0  0  0  0  0  0  0  0  0
    2.6378   -1.5229    0.0000 C   0  0  3  0  0  0  0  0  0  0  0  0
    3.3523   -1.1104    0.0000 C   0  0  3  0  0  0  0  0  0  0  0  0
    1.3018    0.7782    0.0000 C   0  0  0  0  0  0  0  0  0  0  0  0
    2.6378    0.1271    0.0000 C   0  0  0  0  0  0  0  0  0  0  0  0
    0.6538   -0.6979    0.0000 C   0  0  0  0  0  0  0  0  0  0  0  0
    4.0668   -1.5229    0.0000 C   0  0  3  0  0  0  0  0  0  0  0  0
    1.1387   -1.3654    0.0000 C   0  0  0  0  0  0  0  0  0  0  0  0
    3.3523   -0.2854    0.0000 C   0  0  0  0  0  0  0  0  0  0  0  0
    1.8371    0.5350    0.0000 C   0  0  0  0  0  0  0  0  0  0  0  0
    4.5971   -2.1549    0.0000 C   0  0  3  0  0  0  0  0  0  0  0  0
    2.6378   -2.3479    0.0000 C   0  0  0  0  0  0  0  0  0  0  0  0
    4.3489   -0.7477    0.0000 C   0  0  0  0  0  0  0  0  0  0  0  0
    3.5365   -2.1549    0.0000 C   0  0  0  0  0  0  0  0  0  0  0  0
    5.4095   -2.0117    0.0000 C   0  0  0  0  0  0  0  0  0  0  0  0
    1.9571    1.9412    0.0000 C   0  0  0  0  0  0  0  0  0  0  0  0
    1.1484    2.1043    0.0000 C   0  0  0  0  0  0  0  0  0  0  0  0
    5.1614   -0.6044    0.0000 C   0  0  0  0  0  0  0  0  0  0  0  0
    5.6917   -1.2364    0.0000 C   0  0  3  0  0  0  0  0  0  0  0  0
    4.3149   -2.9302    0.0000 C   0  0  0  0  0  0  0  0  0  0  0  0
  1 12  1  0  0  0  0
  1 24  1  0  0  0  0
  8  2  1  6  0  0  0
  3 20  1  0  0  0  0
 27  4  1  6  0  0  0
  5 28  1  0  0  0  0
  6 12  2  0  0  0  0
  6 25  1  0  0  0  0
  7  8  1  0  0  0  0
  7  9  1  0  0  0  0
  7 13  1  0  0  0  0
  7 18  1  6  0  0  0
  8 12  1  0  0  0  0
  8 14  1  0  0  0  0
  9 10  1  0  0  0  0
  9 16  1  6  0  0  0
 10 11  1  0  0  0  0
 10 20  1  1  0  0  0
 11 15  1  0  0  0  0
 11 17  1  6  0  0  0
 13 17  1  0  0  0  0
 14 16  1  0  0  0  0
 15 19  1  0  0  0  0
 15 21  1  0  0  0  0
 15 22  1  1  0  0  0
 19 23  1  0  0  0  0
 19 28  1  6  0  0  0
 21 26  1  0  0  0  0
 23 27  1  0  0  0  0
 24 25  2  0  0  0  0
 26 27  1  0  0  0  0
M  END
> <PUBCHEM_COMPOUND_ID_TYPE>
0

> <PUBCHEM_TOTAL_CHARGE>
0

> <PUBCHEM_SUBSTANCE_ID>
310935638

> <PUBCHEM_SUBSTANCE_VERSION>
1

> <PUBCHEM_EXT_DATASOURCE_NAME>
4488

> <PUBCHEM_EXT_DATASOURCE_REGID>
SCHEMBL16113216

> <PUBCHEM_SUBSTANCE_COMMENT>
InChI=1S/C22H35NO4S/c1-20(6-3-15(26)11-14(20)12-24)17-4-7-21(2)18(16(17)13-25)5-8-22(21,27)19-23-9-10-28-19/h9-10,14-18,24-27H,3-8,11-13H2,1-2H3/t14-,15+,16-,17+,18+,20-,21+,22-/m1/s1
InChIKey=ZIYBAMZUOBXBOC-PXAKFVGFSA-N

> <PUBCHEM_SUBSTANCE_SYNONYM>
SCHEMBL16113216

> <PUBCHEM_XREF_EXT_ID>
SCHEMBL16113216

> <PUBCHEM_EXT_DATASOURCE_URL>
https://www.surechembl.org/

> <PUBCHEM_EXT_SUBSTANCE_URL>
https://www.surechembl.org/chemical/SCHEMBL16113216

> <PUBCHEM_CID_ASSOCIATIONS>
117603652  1

> <PUBCHEM_COORDINATE_TYPE>
1
3

> <PUBCHEM_BONDANNOTATIONS>
10  20  5
11  17  6
15  22  5
19  28  6
8  2  6
27  4  6
7  18  6
9  16  6

$$$$
