310928806
  -OEChem-07211613022D

 14 15  0     0  0  0  0  0  0999 V2000
    0.2943   -1.1385    0.0000 Br  0  0  0  0  0  0  0  0  0  0  0  0
    1.7617   -0.4009    0.0000 F   0  0  0  0  0  0  0  0  0  0  0  0
    2.1742    0.3135    0.0000 F   0  0  0  0  0  0  0  0  0  0  0  0
    1.7617    1.0280    0.0000 F   0  0  0  0  0  0  0  0  0  0  0  0
   -0.7453   -0.0990    0.0000 N   0  0  0  0  0  0  0  0  0  0  0  0
    0.0393    0.9810    0.0000 N   0  0  0  0  0  0  0  0  0  0  0  0
   -1.4598   -0.5115    0.0000 N   0  0  0  0  0  0  0  0  0  0  0  0
    0.5242    0.3135    0.0000 C   0  0  0  0  0  0  0  0  0  0  0  0
    0.0393   -0.3539    0.0000 C   0  0  0  0  0  0  0  0  0  0  0  0
   -0.7453    0.7260    0.0000 C   0  0  0  0  0  0  0  0  0  0  0  0
    1.3492    0.3135    0.0000 C   0  0  0  0  0  0  0  0  0  0  0  0
   -1.4598    1.1385    0.0000 C   0  0  0  0  0  0  0  0  0  0  0  0
   -2.1742   -0.0990    0.0000 C   0  0  0  0  0  0  0  0  0  0  0  0
   -2.1742    0.7260    0.0000 C   0  0  0  0  0  0  0  0  0  0  0  0
  1  9  1  0  0  0  0
  2 11  1  0  0  0  0
  3 11  1  0  0  0  0
  4 11  1  0  0  0  0
  5  7  1  0  0  0  0
  5  9  1  0  0  0  0
  5 10  1  0  0  0  0
  6  8  1  0  0  0  0
  6 10  2  0  0  0  0
  7 13  2  0  0  0  0
  8  9  2  0  0  0  0
  8 11  1  0  0  0  0
 10 12  1  0  0  0  0
 12 14  2  0  0  0  0
 13 14  1  0  0  0  0
M  END
> <PUBCHEM_COMPOUND_ID_TYPE>
0

> <PUBCHEM_TOTAL_CHARGE>
0

> <PUBCHEM_SUBSTANCE_ID>
310928806

> <PUBCHEM_SUBSTANCE_VERSION>
1

> <PUBCHEM_EXT_DATASOURCE_NAME>
11752

> <PUBCHEM_EXT_DATASOURCE_REGID>
BD264095

> <PUBCHEM_SUBSTANCE_SYNONYM>
1260817-66-0
3-Bromo-2-(trifluoromethyl)imidazo[1,2-b]pyridazine

> <PUBCHEM_GENERIC_REGISTRY_NAME>
1260817-66-0

> <PUBCHEM_XREF_EXT_ID>
BD264095

> <PUBCHEM_EXT_DATASOURCE_URL>
http://www.bidepharmatech.com/en/index.html

> <PUBCHEM_EXT_SUBSTANCE_URL>
http://www.bidepharmatech.com/en/goodsview_goodscode_BD264095.html

> <PUBCHEM_CID_ASSOCIATIONS>
71748530  1

> <PUBCHEM_COORDINATE_TYPE>
1
3

$$$$
