310938567
  -OEChem-07211613022D

 17 19  0     0  0  0  0  0  0999 V2000
    1.0623   -4.2723    0.0000 Cl  0  0  0  0  0  0  0  0  0  0  0  0
    1.7768   -3.0348    0.0000 N   0  0  0  0  0  0  0  0  0  0  0  0
    2.5614   -3.2897    0.0000 N   0  0  0  0  0  0  0  0  0  0  0  0
    1.0623   -1.7973    0.0000 N   0  0  0  0  0  0  0  0  0  0  0  0
    1.7768   -2.2098    0.0000 C   0  0  0  0  0  0  0  0  0  0  0  0
    3.0463   -2.6223    0.0000 C   0  0  0  0  0  0  0  0  0  0  0  0
    2.5614   -1.9548    0.0000 C   0  0  0  0  0  0  0  0  0  0  0  0
    3.8713   -2.6223    0.0000 C   0  0  0  0  0  0  0  0  0  0  0  0
    1.0623   -3.4473    0.0000 C   0  0  0  0  0  0  0  0  0  0  0  0
    4.2838   -1.9078    0.0000 C   0  0  0  0  0  0  0  0  0  0  0  0
    0.3479   -3.0348    0.0000 C   0  0  0  0  0  0  0  0  0  0  0  0
    0.3479   -2.2098    0.0000 C   0  0  0  0  0  0  0  0  0  0  0  0
    4.2838   -3.3368    0.0000 C   0  0  0  0  0  0  0  0  0  0  0  0
    5.1088   -1.9078    0.0000 C   0  0  0  0  0  0  0  0  0  0  0  0
    5.1088   -3.3368    0.0000 C   0  0  0  0  0  0  0  0  0  0  0  0
    5.5213   -2.6223    0.0000 C   0  0  0  0  0  0  0  0  0  0  0  0
    3.8713   -1.1933    0.0000 C   0  0  0  0  0  0  0  0  0  0  0  0
  1  9  1  0  0  0  0
  2  3  1  0  0  0  0
  2  5  1  0  0  0  0
  2  9  1  0  0  0  0
  3  6  2  0  0  0  0
  4  5  1  0  0  0  0
  4 12  2  0  0  0  0
  5  7  2  0  0  0  0
  6  7  1  0  0  0  0
  6  8  1  0  0  0  0
  8 10  1  0  0  0  0
  8 13  2  0  0  0  0
  9 11  2  0  0  0  0
 10 14  2  0  0  0  0
 10 17  1  0  0  0  0
 11 12  1  0  0  0  0
 13 15  1  0  0  0  0
 14 16  1  0  0  0  0
 15 16  2  0  0  0  0
M  END
> <PUBCHEM_COMPOUND_ID_TYPE>
0

> <PUBCHEM_TOTAL_CHARGE>
0

> <PUBCHEM_SUBSTANCE_ID>
310938567

> <PUBCHEM_SUBSTANCE_VERSION>
1

> <PUBCHEM_EXT_DATASOURCE_NAME>
4488

> <PUBCHEM_EXT_DATASOURCE_REGID>
SCHEMBL16116481

> <PUBCHEM_SUBSTANCE_COMMENT>
InChI=1S/C13H10ClN3/c1-9-4-2-3-5-10(9)11-8-13-15-7-6-12(14)17(13)16-11/h2-8H,1H3
InChIKey=GEYVNHCYRYZQGN-UHFFFAOYSA-N

> <PUBCHEM_SUBSTANCE_SYNONYM>
SCHEMBL16116481

> <PUBCHEM_XREF_EXT_ID>
SCHEMBL16116481

> <PUBCHEM_EXT_DATASOURCE_URL>
https://www.surechembl.org/

> <PUBCHEM_EXT_SUBSTANCE_URL>
https://www.surechembl.org/chemical/SCHEMBL16116481

> <PUBCHEM_CID_ASSOCIATIONS>
83720812  1

> <PUBCHEM_COORDINATE_TYPE>
1
3

$$$$
