310947185
  -OEChem-07211613022D

 37 38  0     0  0  0  0  0  0999 V2000
   -1.6029    7.9141    0.0000 S   0  0  0  0  0  0  0  0  0  0  0  0
   -1.6029   11.2139    0.0000 O   0  0  0  0  0  0  0  0  0  0  0  0
    1.9694    6.6766    0.0000 O   0  0  0  0  0  0  0  0  0  0  0  0
   -3.0317   11.2139    0.0000 O   0  0  0  0  0  0  0  0  0  0  0  0
    0.5404    4.2017    0.0000 O   0  0  0  0  0  0  0  0  0  0  0  0
    1.9694    4.2017    0.0000 O   0  0  0  0  0  0  0  0  0  0  0  0
    2.6837    1.3143    0.0000 O   0  0  0  0  0  0  0  0  0  0  0  0
    1.2549    1.3143    0.0000 O   0  0  0  0  0  0  0  0  0  0  0  0
    0.5404    5.0267    0.0000 N   0  0  0  0  0  0  0  0  0  0  0  0
    0.5404    6.6766    0.0000 C   0  0  0  0  0  0  0  0  0  0  0  0
   -0.8884    7.5016    0.0000 C   0  0  0  0  0  0  0  0  0  0  0  0
   -1.6029    8.7390    0.0000 C   0  0  0  0  0  0  0  0  0  0  0  0
   -2.3173   12.4514    0.0000 C   0  0  0  0  0  0  0  0  0  0  0  0
   -1.6029   10.3889    0.0000 C   0  0  0  0  0  0  0  0  0  0  0  0
    1.2549    6.2642    0.0000 C   0  0  0  0  0  0  0  0  0  0  0  0
   -2.3173   11.6264    0.0000 C   0  0  0  0  0  0  0  0  0  0  0  0
    0.5404    7.5016    0.0000 C   0  0  0  0  0  0  0  0  0  0  0  0
   -0.1739    6.2642    0.0000 C   0  0  0  0  0  0  0  0  0  0  0  0
   -0.1739    7.9141    0.0000 C   0  0  0  0  0  0  0  0  0  0  0  0
   -0.8884    6.6766    0.0000 C   0  0  0  0  0  0  0  0  0  0  0  0
    1.2549    5.4392    0.0000 C   0  0  0  0  0  0  0  0  0  0  0  0
   -0.8884    9.1515    0.0000 C   0  0  0  0  0  0  0  0  0  0  0  0
   -2.3173    9.1515    0.0000 C   0  0  0  0  0  0  0  0  0  0  0  0
   -0.8884    9.9764    0.0000 C   0  0  0  0  0  0  0  0  0  0  0  0
   -2.3173    9.9764    0.0000 C   0  0  0  0  0  0  0  0  0  0  0  0
   -3.0317   12.8639    0.0000 C   0  0  0  0  0  0  0  0  0  0  0  0
   -1.6029   12.8639    0.0000 C   0  0  0  0  0  0  0  0  0  0  0  0
   -2.3173   13.2763    0.0000 C   0  0  0  0  0  0  0  0  0  0  0  0
    1.9694    5.0267    0.0000 C   0  0  0  0  0  0  0  0  0  0  0  0
    1.2549    3.7892    0.0000 C   0  0  0  0  0  0  0  0  0  0  0  0
   -3.7462   12.4514    0.0000 C   0  0  0  0  0  0  0  0  0  0  0  0
    1.2549    2.9643    0.0000 C   0  0  0  0  0  0  0  0  0  0  0  0
    1.9694    2.5518    0.0000 C   0  0  0  0  0  0  0  0  0  0  0  0
    1.9694    1.7268    0.0000 C   0  0  0  0  0  0  0  0  0  0  0  0
    2.6837    0.4893    0.0000 C   0  0  0  0  0  0  0  0  0  0  0  0
    3.3982    0.0768    0.0000 C   0  0  0  0  0  0  0  0  0  0  0  0
    3.3982   -0.7480    0.0000 C   0  0  0  0  0  0  0  0  0  0  0  0
  1 11  1  0  0  0  0
  1 12  1  0  0  0  0
  2 14  1  0  0  0  0
  2 16  1  0  0  0  0
  3 15  2  0  0  0  0
  4 16  2  0  0  0  0
  5  9  1  0  0  0  0
  5 30  1  0  0  0  0
  6 30  2  0  0  0  0
  7 34  1  0  0  0  0
  7 35  1  0  0  0  0
  8 34  2  0  0  0  0
  9 21  2  0  0  0  0
 10 15  1  0  0  0  0
 10 17  2  0  0  0  0
 10 18  1  0  0  0  0
 11 19  2  0  0  0  0
 11 20  1  0  0  0  0
 12 22  2  0  0  0  0
 12 23  1  0  0  0  0
 13 16  1  0  0  0  0
 13 26  1  0  0  0  0
 13 27  1  0  0  0  0
 13 28  1  0  0  0  0
 14 24  2  0  0  0  0
 14 25  1  0  0  0  0
 15 21  1  0  0  0  0
 17 19  1  0  0  0  0
 18 20  2  0  0  0  0
 21 29  1  0  0  0  0
 22 24  1  0  0  0  0
 23 25  2  0  0  0  0
 26 31  1  0  0  0  0
 30 32  1  0  0  0  0
 32 33  1  0  0  0  0
 33 34  1  0  0  0  0
 35 36  1  0  0  0  0
 36 37  1  0  0  0  0
M  END
> <PUBCHEM_COMPOUND_ID_TYPE>
0

> <PUBCHEM_TOTAL_CHARGE>
0

> <PUBCHEM_SUBSTANCE_ID>
310947185

> <PUBCHEM_SUBSTANCE_VERSION>
1

> <PUBCHEM_EXT_DATASOURCE_NAME>
4488

> <PUBCHEM_EXT_DATASOURCE_REGID>
SCHEMBL16125339

> <PUBCHEM_SUBSTANCE_COMMENT>
InChI=1S/C28H33NO7S/c1-6-18-34-24(30)16-17-25(31)36-29-19(3)26(32)20-8-12-22(13-9-20)37-23-14-10-21(11-15-23)35-27(33)28(4,5)7-2/h8-15H,6-7,16-18H2,1-5H3/b29-19+
InChIKey=GMXYRJSRPADFLP-VUTHCHCSSA-N

> <PUBCHEM_SUBSTANCE_SYNONYM>
SCHEMBL16125339

> <PUBCHEM_XREF_EXT_ID>
SCHEMBL16125339

> <PUBCHEM_EXT_DATASOURCE_URL>
https://www.surechembl.org/

> <PUBCHEM_EXT_SUBSTANCE_URL>
https://www.surechembl.org/chemical/SCHEMBL16125339

> <PUBCHEM_CID_ASSOCIATIONS>
117613010  1

> <PUBCHEM_COORDINATE_TYPE>
1
3

$$$$
