310942778
  -OEChem-07211613022D

 86 89  0     1  0  0  0  0  0999 V2000
  -11.5040   -2.5798    0.0000 I   0  0  0  0  0  0  0  0  0  0  0  0
    9.3981    1.6672    0.0000 F   0  0  0  0  0  0  0  0  0  0  0  0
   11.5040   -0.8775    0.0000 F   0  0  0  0  0  0  0  0  0  0  0  0
    3.8698    3.1414    0.0000 F   0  0  0  0  0  0  0  0  0  0  0  0
    7.9239    1.2636    0.0000 O   0  0  0  0  0  0  0  0  0  0  0  0
    8.1520    2.7729    0.0000 O   0  0  0  0  0  0  0  0  0  0  0  0
    2.9045    2.7729    0.0000 O   0  0  0  0  0  0  0  0  0  0  0  0
    2.1674    1.5795    0.0000 O   0  0  0  0  0  0  0  0  0  0  0  0
   -1.4128    2.8957    0.0000 O   0  0  0  0  0  0  0  0  0  0  0  0
   -3.6241    0.8950    0.0000 O   0  0  0  0  0  0  0  0  0  0  0  0
   -5.7126    3.0361    0.0000 O   0  0  0  0  0  0  0  0  0  0  0  0
   -7.1516    3.0888    0.0000 O   0  0  0  0  0  0  0  0  0  0  0  0
   -2.9923   -2.0358    0.0000 O   0  0  0  0  0  0  0  0  0  0  0  0
   -9.2928    3.5802    0.0000 O   0  0  0  0  0  0  0  0  0  0  0  0
  -10.7670    1.9656    0.0000 O   0  0  0  0  0  0  0  0  0  0  0  0
  -10.0649   -0.1229    0.0000 O   0  0  0  0  0  0  0  0  0  0  0  0
   -9.3981   -3.0010    0.0000 O   0  0  0  0  0  0  0  0  0  0  0  0
    7.7133   -0.6142    0.0000 N   0  0  0  0  0  0  0  0  0  0  0  0
    8.1695    0.6318    0.0000 N   0  0  0  0  0  0  0  0  0  0  0  0
    6.5725    1.2636    0.0000 N   0  0  0  0  0  0  0  0  0  0  0  0
    3.5714    1.5444    0.0000 N   0  0  0  0  0  0  0  0  0  0  0  0
   -0.7108    1.6321    0.0000 N   0  0  0  0  0  0  0  0  0  0  0  0
   -2.8519    2.1060    0.0000 N   0  0  0  0  0  0  0  0  0  0  0  0
   -5.0281    1.7725    0.0000 N   0  0  0  0  0  0  0  0  0  0  0  0
   -3.6767   -0.7722    0.0000 N   0  0  0  0  0  0  0  0  0  0  0  0
   -4.4314   -1.9831    0.0000 N   0  0  0  0  0  0  0  0  0  0  0  0
  -10.0825   -1.7901    0.0000 N   0  0  0  0  0  0  0  0  0  0  0  0
    7.4851    0.1930    0.0000 C   0  0  0  0  0  0  0  0  0  0  0  0
    6.6953    0.4914    0.0000 C   0  0  3  0  0  0  0  0  0  0  0  0
    8.8365    0.1404    0.0000 C   0  0  0  0  0  0  0  0  0  0  0  0
    5.9582    0.1404    0.0000 C   0  0  0  0  0  0  0  0  0  0  0  0
    8.5381   -0.6318    0.0000 C   0  0  0  0  0  0  0  0  0  0  0  0
    9.6437    0.2808    0.0000 C   0  0  0  0  0  0  0  0  0  0  0  0
    7.1165   -1.1232    0.0000 C   0  0  0  0  0  0  0  0  0  0  0  0
    7.2921    1.6321    0.0000 C   0  0  0  0  0  0  0  0  0  0  0  0
    9.9246    1.0530    0.0000 C   0  0  0  0  0  0  0  0  0  0  0  0
    5.8705    1.7374    0.0000 C   0  0  0  0  0  0  0  0  0  0  0  0
   10.1702   -0.3685    0.0000 C   0  0  0  0  0  0  0  0  0  0  0  0
    7.2218   -1.9656    0.0000 C   0  0  0  0  0  0  0  0  0  0  0  0
    5.8179    0.9301    0.0000 C   0  0  0  0  0  0  0  0  0  0  0  0
    5.2738    0.5791    0.0000 C   0  0  0  0  0  0  0  0  0  0  0  0
    5.9056   -0.7195    0.0000 C   0  0  0  0  0  0  0  0  0  0  0  0
   10.9775   -0.2282    0.0000 C   0  0  0  0  0  0  0  0  0  0  0  0
   10.7494    1.1759    0.0000 C   0  0  0  0  0  0  0  0  0  0  0  0
    7.4149    2.4395    0.0000 C   0  0  0  0  0  0  0  0  0  0  0  0
   11.2584    0.5616    0.0000 C   0  0  0  0  0  0  0  0  0  0  0  0
    5.1685    1.4040    0.0000 C   0  0  0  0  0  0  0  0  0  0  0  0
    6.5900   -2.5096    0.0000 C   0  0  0  0  0  0  0  0  0  0  0  0
    7.9940   -2.2464    0.0000 C   0  0  0  0  0  0  0  0  0  0  0  0
    4.4840    1.8603    0.0000 C   0  0  3  0  0  0  0  0  0  0  0  0
    6.7480   -3.2994    0.0000 C   0  0  0  0  0  0  0  0  0  0  0  0
    8.1345   -3.0537    0.0000 C   0  0  0  0  0  0  0  0  0  0  0  0
    7.5202   -3.5802    0.0000 C   0  0  0  0  0  0  0  0  0  0  0  0
    4.5543    2.6676    0.0000 C   0  0  0  0  0  0  0  0  0  0  0  0
    2.8870    1.9831    0.0000 C   0  0  0  0  0  0  0  0  0  0  0  0
    2.2025    3.2116    0.0000 C   0  0  0  0  0  0  0  0  0  0  0  0
    1.4654    2.8255    0.0000 C   0  0  0  0  0  0  0  0  0  0  0  0
    0.0088    2.0358    0.0000 C   0  0  0  0  0  0  0  0  0  0  0  0
   -2.1324    1.6848    0.0000 C   0  0  3  0  0  0  0  0  0  0  0  0
   -1.4479    2.0533    0.0000 C   0  0  0  0  0  0  0  0  0  0  0  0
    1.4479    2.0007    0.0000 C   0  0  0  0  0  0  0  0  0  0  0  0
    0.7459    3.2467    0.0000 C   0  0  0  0  0  0  0  0  0  0  0  0
   -3.5890    1.7550    0.0000 C   0  0  0  0  0  0  0  0  0  0  0  0
   -4.3085    2.1762    0.0000 C   0  0  3  0  0  0  0  0  0  0  0  0
    0.7283    1.6146    0.0000 C   0  0  0  0  0  0  0  0  0  0  0  0
    0.0614    2.8607    0.0000 C   0  0  0  0  0  0  0  0  0  0  0  0
   -4.2734    3.0361    0.0000 C   0  0  0  0  0  0  0  0  0  0  0  0
   -2.1850    0.8775    0.0000 C   0  0  0  0  0  0  0  0  0  0  0  0
   -5.7476    2.2113    0.0000 C   0  0  0  0  0  0  0  0  0  0  0  0
   -2.9045    0.4738    0.0000 C   0  0  0  0  0  0  0  0  0  0  0  0
   -4.9930    3.4222    0.0000 C   0  0  0  0  0  0  0  0  0  0  0  0
   -3.5363    3.4047    0.0000 C   0  0  0  0  0  0  0  0  0  0  0  0
   -6.4672    1.8252    0.0000 C   0  0  0  0  0  0  0  0  0  0  0  0
   -2.9396   -0.3685    0.0000 C   0  0  0  0  0  0  0  0  0  0  0  0
   -7.1692    2.2815    0.0000 C   0  0  0  0  0  0  0  0  0  0  0  0
   -3.7294   -1.5795    0.0000 C   0  0  0  0  0  0  0  0  0  0  0  0
   -7.8536    3.5451    0.0000 C   0  0  0  0  0  0  0  0  0  0  0  0
   -8.5907    3.1590    0.0000 C   0  0  0  0  0  0  0  0  0  0  0  0
   -9.9948    3.2292    0.0000 C   0  0  0  0  0  0  0  0  0  0  0  0
  -10.0299    2.3692    0.0000 C   0  0  0  0  0  0  0  0  0  0  0  0
  -10.7670    1.1583    0.0000 C   0  0  0  0  0  0  0  0  0  0  0  0
  -10.0474    0.7195    0.0000 C   0  0  0  0  0  0  0  0  0  0  0  0
   -9.3454   -0.5441    0.0000 C   0  0  0  0  0  0  0  0  0  0  0  0
   -9.3630   -1.3689    0.0000 C   0  0  0  0  0  0  0  0  0  0  0  0
  -10.1176   -2.5623    0.0000 C   0  0  0  0  0  0  0  0  0  0  0  0
  -10.7845   -2.9835    0.0000 C   0  0  0  0  0  0  0  0  0  0  0  0
  1 86  1  0  0  0  0
  2 36  1  0  0  0  0
  3 43  1  0  0  0  0
  4 54  1  0  0  0  0
  5 35  2  0  0  0  0
  6 45  1  0  0  0  0
  7 55  1  0  0  0  0
  7 56  1  0  0  0  0
  8 55  2  0  0  0  0
  9 60  2  0  0  0  0
 10 63  2  0  0  0  0
 11 69  2  0  0  0  0
 12 75  1  0  0  0  0
 12 77  1  0  0  0  0
 13 76  2  0  0  0  0
 14 78  1  0  0  0  0
 14 79  1  0  0  0  0
 15 80  1  0  0  0  0
 15 81  1  0  0  0  0
 16 82  1  0  0  0  0
 16 83  1  0  0  0  0
 17 85  2  0  0  0  0
 18 28  1  0  0  0  0
 18 32  1  0  0  0  0
 18 34  1  0  0  0  0
 19 28  2  0  0  0  0
 19 30  1  0  0  0  0
 29 20  1  1  0  0  0
 20 35  1  0  0  0  0
 20 37  1  0  0  0  0
 50 21  1  6  0  0  0
 21 55  1  0  0  0  0
 22 58  1  0  0  0  0
 22 60  1  0  0  0  0
 59 23  1  6  0  0  0
 23 63  1  0  0  0  0
 64 24  1  1  0  0  0
 24 69  1  0  0  0  0
 25 74  1  0  0  0  0
 25 76  1  0  0  0  0
 26 76  1  0  0  0  0
 27 84  1  0  0  0  0
 27 85  1  0  0  0  0
 28 29  1  0  0  0  0
 29 31  1  0  0  0  0
 30 32  2  0  0  0  0
 30 33  1  0  0  0  0
 31 40  1  0  0  0  0
 31 41  1  0  0  0  0
 31 42  1  0  0  0  0
 33 36  1  0  0  0  0
 33 38  2  0  0  0  0
 34 39  1  0  0  0  0
 35 45  1  0  0  0  0
 36 44  2  0  0  0  0
 37 47  1  0  0  0  0
 38 43  1  0  0  0  0
 39 48  2  0  0  0  0
 39 49  1  0  0  0  0
 43 46  2  0  0  0  0
 44 46  1  0  0  0  0
 47 50  1  0  0  0  0
 48 51  1  0  0  0  0
 49 52  2  0  0  0  0
 50 54  1  0  0  0  0
 51 53  2  0  0  0  0
 52 53  1  0  0  0  0
 56 57  1  0  0  0  0
 57 61  2  0  0  0  0
 57 62  1  0  0  0  0
 58 65  2  0  0  0  0
 58 66  1  0  0  0  0
 59 60  1  0  0  0  0
 59 68  1  0  0  0  0
 61 65  1  0  0  0  0
 62 66  2  0  0  0  0
 63 64  1  0  0  0  0
 64 67  1  0  0  0  0
 67 71  1  0  0  0  0
 67 72  1  0  0  0  0
 68 70  1  0  0  0  0
 69 73  1  0  0  0  0
 70 74  1  0  0  0  0
 73 75  1  0  0  0  0
 77 78  1  0  0  0  0
 79 80  1  0  0  0  0
 81 82  1  0  0  0  0
 83 84  1  0  0  0  0
 85 86  1  0  0  0  0
M  END
> <PUBCHEM_COMPOUND_ID_TYPE>
0

> <PUBCHEM_TOTAL_CHARGE>
0

> <PUBCHEM_SUBSTANCE_ID>
310942778

> <PUBCHEM_SUBSTANCE_VERSION>
1

> <PUBCHEM_EXT_DATASOURCE_NAME>
4488

> <PUBCHEM_EXT_DATASOURCE_REGID>
SCHEMBL16120831

> <PUBCHEM_SUBSTANCE_COMMENT>
InChI=1S/C59H82F3IN10O13/c1-39(2)52(71-49(75)20-24-82-26-28-84-30-31-85-29-27-83-25-22-65-50(76)34-63)56(79)70-47(12-9-21-66-57(64)80)55(78)67-43-16-13-41(14-17-43)38-86-58(81)68-44(33-60)19-23-73(51(77)37-74)53(59(3,4)5)54-69-48(45-32-42(61)15-18-46(45)62)36-72(54)35-40-10-7-6-8-11-40/h6-8,10-11,13-18,32,36,39,44,47,52-53,74H,9,12,19-31,33-35,37-38H2,1-5H3,(H,65,76)(H,67,78)(H,68,81)(H,70,79)(H,71,75)(H3,64,66,80)/t44-,47-,52-,53-/m0/s1
InChIKey=WZGZRRCBDOOQPY-IYMLHCAKSA-N

> <PUBCHEM_SUBSTANCE_SYNONYM>
SCHEMBL16120831

> <PUBCHEM_XREF_EXT_ID>
SCHEMBL16120831

> <PUBCHEM_EXT_DATASOURCE_URL>
https://www.surechembl.org/

> <PUBCHEM_EXT_SUBSTANCE_URL>
https://www.surechembl.org/chemical/SCHEMBL16120831

> <PUBCHEM_CID_ASSOCIATIONS>
117609284  1

> <PUBCHEM_COORDINATE_TYPE>
1
3

> <PUBCHEM_BONDANNOTATIONS>
29  20  5
50  21  6
59  23  6
64  24  5

$$$$
