310947611
  -OEChem-07211613022D

 19 21  0     1  0  0  0  0  0999 V2000
    1.7804    0.4127    0.0000 O   0  0  0  0  0  0  0  0  0  0  0  0
    1.0493    2.4643    0.0000 O   0  0  0  0  0  0  0  0  0  0  0  0
    0.3419    1.2380    0.0000 N   0  0  0  0  0  0  0  0  0  0  0  0
    0.3419    0.4127    0.0000 C   0  0  3  0  0  0  0  0  0  0  0  0
    1.0493   -0.0118    0.0000 C   0  0  3  0  0  0  0  0  0  0  0  0
   -0.3891   -0.0118    0.0000 C   0  0  0  0  0  0  0  0  0  0  0  0
    1.0493   -0.8371    0.0000 C   0  0  0  0  0  0  0  0  0  0  0  0
    1.0493    1.6389    0.0000 C   0  0  0  0  0  0  0  0  0  0  0  0
    1.7804    1.2380    0.0000 C   0  0  0  0  0  0  0  0  0  0  0  0
   -1.0966    0.3891    0.0000 C   0  0  0  0  0  0  0  0  0  0  0  0
   -0.3655   -0.8371    0.0000 C   0  0  0  0  0  0  0  0  0  0  0  0
    0.3655   -1.2380    0.0000 C   0  0  0  0  0  0  0  0  0  0  0  0
    1.7804   -1.2616    0.0000 C   0  0  0  0  0  0  0  0  0  0  0  0
   -1.7804    0.0118    0.0000 C   0  0  0  0  0  0  0  0  0  0  0  0
   -1.0493   -1.2145    0.0000 C   0  0  0  0  0  0  0  0  0  0  0  0
    0.3655   -2.0869    0.0000 C   0  0  0  0  0  0  0  0  0  0  0  0
    1.7804   -2.0634    0.0000 C   0  0  0  0  0  0  0  0  0  0  0  0
   -1.7804   -0.8371    0.0000 C   0  0  0  0  0  0  0  0  0  0  0  0
    1.0729   -2.4643    0.0000 C   0  0  0  0  0  0  0  0  0  0  0  0
  5  1  1  6  0  0  0
  1  9  1  0  0  0  0
  2  8  2  0  0  0  0
  4  3  1  1  0  0  0
  3  8  1  0  0  0  0
  4  5  1  0  0  0  0
  4  6  1  0  0  0  0
  5  7  1  0  0  0  0
  6 10  2  0  0  0  0
  6 11  1  0  0  0  0
  7 12  2  0  0  0  0
  7 13  1  0  0  0  0
  8  9  1  0  0  0  0
 10 14  1  0  0  0  0
 11 15  2  0  0  0  0
 12 16  1  0  0  0  0
 13 17  2  0  0  0  0
 14 18  2  0  0  0  0
 15 18  1  0  0  0  0
 16 19  2  0  0  0  0
 17 19  1  0  0  0  0
M  END
> <PUBCHEM_COMPOUND_ID_TYPE>
0

> <PUBCHEM_TOTAL_CHARGE>
0

> <PUBCHEM_SUBSTANCE_ID>
310947611

> <PUBCHEM_SUBSTANCE_VERSION>
1

> <PUBCHEM_EXT_DATASOURCE_NAME>
4488

> <PUBCHEM_EXT_DATASOURCE_REGID>
SCHEMBL16125774

> <PUBCHEM_SUBSTANCE_COMMENT>
InChI=1S/C16H15NO2/c18-14-11-19-16(13-9-5-2-6-10-13)15(17-14)12-7-3-1-4-8-12/h1-10,15-16H,11H2,(H,17,18)/t15-,16-/m1/s1
InChIKey=UIMBPSRHBSCBJU-HZPDHXFCSA-N

> <PUBCHEM_SUBSTANCE_SYNONYM>
SCHEMBL16125774

> <PUBCHEM_XREF_EXT_ID>
SCHEMBL16125774

> <PUBCHEM_EXT_DATASOURCE_URL>
https://www.surechembl.org/

> <PUBCHEM_EXT_SUBSTANCE_URL>
https://www.surechembl.org/chemical/SCHEMBL16125774

> <PUBCHEM_CID_ASSOCIATIONS>
101550330  1

> <PUBCHEM_COORDINATE_TYPE>
1
3

> <PUBCHEM_BONDANNOTATIONS>
5  1  6
4  3  5

$$$$
