310944223
  -OEChem-07211613022D

 27 31  0     0  0  0  0  0  0999 V2000
   -0.3419    2.9864    0.0000 F   0  0  0  0  0  0  0  0  0  0  0  0
    1.8383    2.5607    0.0000 N   0  0  0  0  0  0  0  0  0  0  0  0
   -2.5736    2.5091    0.0000 N   0  0  0  0  0  0  0  0  0  0  0  0
    0.3805   -1.3867    0.0000 C   0  0  0  0  0  0  0  0  0  0  0  0
    1.1029   -1.7737    0.0000 C   0  0  0  0  0  0  0  0  0  0  0  0
    0.3805   -0.5998    0.0000 C   0  0  0  0  0  0  0  0  0  0  0  0
   -0.3548   -0.2128    0.0000 C   0  0  0  0  0  0  0  0  0  0  0  0
   -0.3419   -1.7996    0.0000 C   0  0  0  0  0  0  0  0  0  0  0  0
    1.8383   -1.3738    0.0000 C   0  0  0  0  0  0  0  0  0  0  0  0
    1.1029   -2.5736    0.0000 C   0  0  0  0  0  0  0  0  0  0  0  0
   -0.3419    0.6128    0.0000 C   0  0  0  0  0  0  0  0  0  0  0  0
    1.1159   -0.1999    0.0000 C   0  0  0  0  0  0  0  0  0  0  0  0
   -1.0772   -0.6128    0.0000 C   0  0  0  0  0  0  0  0  0  0  0  0
   -1.0901   -1.3997    0.0000 C   0  0  0  0  0  0  0  0  0  0  0  0
    1.8253   -0.5870    0.0000 C   0  0  0  0  0  0  0  0  0  0  0  0
   -0.3289   -2.6122    0.0000 C   0  0  0  0  0  0  0  0  0  0  0  0
    0.4064   -2.9864    0.0000 C   0  0  0  0  0  0  0  0  0  0  0  0
    0.3805    1.0127    0.0000 C   0  0  0  0  0  0  0  0  0  0  0  0
   -1.0772    0.9997    0.0000 C   0  0  0  0  0  0  0  0  0  0  0  0
    2.5607   -1.7609    0.0000 C   0  0  0  0  0  0  0  0  0  0  0  0
    1.8383   -2.9476    0.0000 C   0  0  0  0  0  0  0  0  0  0  0  0
    0.3935    1.8253    0.0000 C   0  0  0  0  0  0  0  0  0  0  0  0
   -1.0901    1.8125    0.0000 C   0  0  0  0  0  0  0  0  0  0  0  0
   -0.3548    2.2252    0.0000 C   0  0  0  0  0  0  0  0  0  0  0  0
    2.5736   -2.5349    0.0000 C   0  0  0  0  0  0  0  0  0  0  0  0
    1.1159    2.1995    0.0000 C   0  0  0  0  0  0  0  0  0  0  0  0
   -1.8512    2.1866    0.0000 C   0  0  0  0  0  0  0  0  0  0  0  0
  1 24  1  0  0  0  0
  2 26  3  0  0  0  0
  3 27  3  0  0  0  0
  4  5  2  0  0  0  0
  4  6  1  0  0  0  0
  4  8  1  0  0  0  0
  5  9  1  0  0  0  0
  5 10  1  0  0  0  0
  6  7  1  0  0  0  0
  6 12  2  0  0  0  0
  7 11  1  0  0  0  0
  7 13  2  0  0  0  0
  8 14  2  0  0  0  0
  8 16  1  0  0  0  0
  9 15  2  0  0  0  0
  9 20  1  0  0  0  0
 10 17  1  0  0  0  0
 10 21  2  0  0  0  0
 11 18  2  0  0  0  0
 11 19  1  0  0  0  0
 12 15  1  0  0  0  0
 13 14  1  0  0  0  0
 16 17  2  0  0  0  0
 18 22  1  0  0  0  0
 19 23  2  0  0  0  0
 20 25  2  0  0  0  0
 21 25  1  0  0  0  0
 22 24  2  0  0  0  0
 22 26  1  0  0  0  0
 23 24  1  0  0  0  0
 23 27  1  0  0  0  0
M  END
> <PUBCHEM_COMPOUND_ID_TYPE>
0

> <PUBCHEM_TOTAL_CHARGE>
0

> <PUBCHEM_SUBSTANCE_ID>
310944223

> <PUBCHEM_SUBSTANCE_VERSION>
1

> <PUBCHEM_EXT_DATASOURCE_NAME>
4488

> <PUBCHEM_EXT_DATASOURCE_REGID>
SCHEMBL16122298

> <PUBCHEM_SUBSTANCE_COMMENT>
InChI=1S/C24H11FN2/c25-24-18(12-26)10-17(11-19(24)13-27)20-8-6-16-5-4-14-2-1-3-15-7-9-21(20)23(16)22(14)15/h1-11H
InChIKey=BQMZSLIOJXWVIB-UHFFFAOYSA-N

> <PUBCHEM_SUBSTANCE_SYNONYM>
SCHEMBL16122298

> <PUBCHEM_XREF_EXT_ID>
SCHEMBL16122298

> <PUBCHEM_EXT_DATASOURCE_URL>
https://www.surechembl.org/

> <PUBCHEM_EXT_SUBSTANCE_URL>
https://www.surechembl.org/chemical/SCHEMBL16122298

> <PUBCHEM_CID_ASSOCIATIONS>
117610494  1

> <PUBCHEM_COORDINATE_TYPE>
1
3

$$$$
