310948605
  -OEChem-07211613022D

 19 22  0     0  0  0  0  0  0999 V2000
    1.8256    0.1458    0.0000 N   0  0  0  0  0  0  0  0  0  0  0  0
   -1.2425    1.3397    0.0000 N   0  0  0  0  0  0  0  0  0  0  0  0
   -2.5752    1.3397    0.0000 N   0  0  0  0  0  0  0  0  0  0  0  0
    0.4928    0.0347    0.0000 C   0  0  0  0  0  0  0  0  0  0  0  0
    1.0898    0.5761    0.0000 C   0  0  0  0  0  0  0  0  0  0  0  0
    0.8261   -0.7289    0.0000 C   0  0  0  0  0  0  0  0  0  0  0  0
    1.6451   -0.6317    0.0000 C   0  0  0  0  0  0  0  0  0  0  0  0
   -0.2846    0.2846    0.0000 C   0  0  0  0  0  0  0  0  0  0  0  0
   -0.4651    1.0898    0.0000 C   0  0  0  0  0  0  0  0  0  0  0  0
    0.9371    1.3813    0.0000 C   0  0  0  0  0  0  0  0  0  0  0  0
    0.4928   -1.5063    0.0000 C   0  0  0  0  0  0  0  0  0  0  0  0
    0.1736    1.6590    0.0000 C   0  0  0  0  0  0  0  0  0  0  0  0
    2.1171   -1.3119    0.0000 C   0  0  0  0  0  0  0  0  0  0  0  0
    2.5752    0.5067    0.0000 C   0  0  0  0  0  0  0  0  0  0  0  0
    0.9649   -2.1449    0.0000 C   0  0  0  0  0  0  0  0  0  0  0  0
    1.7978   -2.0754    0.0000 C   0  0  0  0  0  0  0  0  0  0  0  0
   -1.9089    0.8677    0.0000 C   0  0  0  0  0  0  0  0  0  0  0  0
   -1.4924    2.1449    0.0000 C   0  0  0  0  0  0  0  0  0  0  0  0
   -2.3114    2.1449    0.0000 C   0  0  0  0  0  0  0  0  0  0  0  0
  1  5  1  0  0  0  0
  1  7  1  0  0  0  0
  1 14  1  0  0  0  0
  2  9  1  0  0  0  0
  2 17  1  0  0  0  0
  2 18  1  0  0  0  0
  3 17  2  0  0  0  0
  3 19  1  0  0  0  0
  4  5  2  0  0  0  0
  4  6  1  0  0  0  0
  4  8  1  0  0  0  0
  5 10  1  0  0  0  0
  6  7  2  0  0  0  0
  6 11  1  0  0  0  0
  7 13  1  0  0  0  0
  8  9  2  0  0  0  0
  9 12  1  0  0  0  0
 10 12  2  0  0  0  0
 11 15  2  0  0  0  0
 13 16  2  0  0  0  0
 15 16  1  0  0  0  0
 18 19  2  0  0  0  0
M  END
> <PUBCHEM_COMPOUND_ID_TYPE>
0

> <PUBCHEM_TOTAL_CHARGE>
0

> <PUBCHEM_SUBSTANCE_ID>
310948605

> <PUBCHEM_SUBSTANCE_VERSION>
1

> <PUBCHEM_EXT_DATASOURCE_NAME>
4488

> <PUBCHEM_EXT_DATASOURCE_REGID>
SCHEMBL16126788

> <PUBCHEM_SUBSTANCE_COMMENT>
InChI=1S/C16H13N3/c1-18-15-5-3-2-4-13(15)14-10-12(6-7-16(14)18)19-9-8-17-11-19/h2-11H,1H3
InChIKey=SGOAHHGDOSVQET-UHFFFAOYSA-N

> <PUBCHEM_SUBSTANCE_SYNONYM>
SCHEMBL16126788

> <PUBCHEM_XREF_EXT_ID>
SCHEMBL16126788

> <PUBCHEM_EXT_DATASOURCE_URL>
https://www.surechembl.org/

> <PUBCHEM_EXT_SUBSTANCE_URL>
https://www.surechembl.org/chemical/SCHEMBL16126788

> <PUBCHEM_CID_ASSOCIATIONS>
117614150  1

> <PUBCHEM_COORDINATE_TYPE>
1
3

$$$$
