310941355
  -OEChem-07211613022D

 37 39  0     1  0  0  0  0  0999 V2000
   -3.0785   -0.5118    0.0000 O   0  0  0  0  0  0  0  0  0  0  0  0
   -0.6035    1.7493    0.0000 O   0  0  0  0  0  0  0  0  0  0  0  0
    1.5813   -0.3285    0.0000 O   0  0  0  0  0  0  0  0  0  0  0  0
    4.4840    0.4965    0.0000 O   0  0  0  0  0  0  0  0  0  0  0  0
    3.7507    1.7493    0.0000 O   0  0  0  0  0  0  0  0  0  0  0  0
    5.9354   -1.9938    0.0000 O   0  0  0  0  0  0  0  0  0  0  0  0
   -5.9812    1.9938    0.0000 O   0  5  0  0  0  0  0  0  0  0  0  0
   -6.6840    0.7716    0.0000 O   0  0  0  0  0  0  0  0  0  0  0  0
    0.1298    0.4965    0.0000 N   0  0  0  0  0  0  0  0  0  0  0  0
    2.3146    0.9243    0.0000 N   0  0  0  0  0  0  0  0  0  0  0  0
   -5.9812    1.1688    0.0000 N   0  3  0  0  0  0  0  0  0  0  0  0
   -1.3215    0.5118    0.0000 C   0  0  0  0  0  0  0  0  0  0  0  0
   -2.3299   -0.0687    0.0000 C   0  0  0  0  0  0  0  0  0  0  0  0
   -2.1159    0.7104    0.0000 C   0  0  0  0  0  0  0  0  0  0  0  0
   -1.5354   -0.2827    0.0000 C   0  0  0  0  0  0  0  0  0  0  0  0
   -0.5882    0.9243    0.0000 C   0  0  0  0  0  0  0  0  0  0  0  0
   -3.8118   -0.0687    0.0000 C   0  0  0  0  0  0  0  0  0  0  0  0
    0.8479    0.9243    0.0000 C   0  0  3  0  0  0  0  0  0  0  0  0
    1.5966    0.5423    0.0000 C   0  0  0  0  0  0  0  0  0  0  0  0
    3.0632    0.5271    0.0000 C   0  0  3  0  0  0  0  0  0  0  0  0
   -3.8118    0.7563    0.0000 C   0  0  0  0  0  0  0  0  0  0  0  0
   -4.5145   -0.4812    0.0000 C   0  0  0  0  0  0  0  0  0  0  0  0
   -5.2479    0.7563    0.0000 C   0  0  0  0  0  0  0  0  0  0  0  0
    3.0326   -0.3438    0.0000 C   0  0  0  0  0  0  0  0  0  0  0  0
    3.7659   -0.7410    0.0000 C   0  0  0  0  0  0  0  0  0  0  0  0
    3.7507    0.9090    0.0000 C   0  0  0  0  0  0  0  0  0  0  0  0
   -4.5298    1.1535    0.0000 C   0  0  0  0  0  0  0  0  0  0  0  0
   -5.2479   -0.0840    0.0000 C   0  0  0  0  0  0  0  0  0  0  0  0
    3.7659   -1.5660    0.0000 C   0  0  0  0  0  0  0  0  0  0  0  0
    4.4840   -0.3285    0.0000 C   0  0  0  0  0  0  0  0  0  0  0  0
    0.8632    1.7340    0.0000 C   0  0  0  0  0  0  0  0  0  0  0  0
    5.2021   -1.5660    0.0000 C   0  0  0  0  0  0  0  0  0  0  0  0
    4.5145   -1.9785    0.0000 C   0  0  0  0  0  0  0  0  0  0  0  0
    5.2021   -0.7410    0.0000 C   0  0  0  0  0  0  0  0  0  0  0  0
    5.1868    0.8937    0.0000 C   0  0  0  0  0  0  0  0  0  0  0  0
    6.6840   -1.5966    0.0000 C   0  0  0  0  0  0  0  0  0  0  0  0
    5.9201    0.4965    0.0000 C   0  0  0  0  0  0  0  0  0  0  0  0
 13  1  1  6  0  0  0
  1 17  1  0  0  0  0
  2 16  2  0  0  0  0
  3 19  2  0  0  0  0
  4 26  1  0  0  0  0
  4 35  1  0  0  0  0
  5 26  2  0  0  0  0
  6 32  1  0  0  0  0
  6 36  1  0  0  0  0
  7 11  1  0  0  0  0
  8 11  2  0  0  0  0
  9 16  1  0  0  0  0
  9 18  1  0  0  0  0
 10 19  1  0  0  0  0
 20 10  1  6  0  0  0
 11 23  1  0  0  0  0
 12 14  1  0  0  0  0
 12 15  1  0  0  0  0
 12 16  1  1  0  0  0
 13 14  1  0  0  0  0
 13 15  1  0  0  0  0
 17 21  2  0  0  0  0
 17 22  1  0  0  0  0
 18 19  1  0  0  0  0
 18 31  1  6  0  0  0
 20 24  1  0  0  0  0
 20 26  1  0  0  0  0
 21 27  1  0  0  0  0
 22 28  2  0  0  0  0
 23 27  2  0  0  0  0
 23 28  1  0  0  0  0
 24 25  1  0  0  0  0
 25 29  2  0  0  0  0
 25 30  1  0  0  0  0
 29 33  1  0  0  0  0
 30 34  2  0  0  0  0
 32 33  2  0  0  0  0
 32 34  1  0  0  0  0
 35 37  1  0  0  0  0
M  CHG  2   7  -1  11   1
M  END
> <PUBCHEM_COMPOUND_ID_TYPE>
0

> <PUBCHEM_TOTAL_CHARGE>
0

> <PUBCHEM_SUBSTANCE_ID>
310941355

> <PUBCHEM_SUBSTANCE_VERSION>
1

> <PUBCHEM_EXT_DATASOURCE_NAME>
4488

> <PUBCHEM_EXT_DATASOURCE_REGID>
SCHEMBL16119315

> <PUBCHEM_SUBSTANCE_COMMENT>
InChI=1S/C26H31N3O8/c1-4-36-26(32)23(13-17-5-9-20(35-3)10-6-17)28-24(30)16(2)27-25(31)18-14-22(15-18)37-21-11-7-19(8-12-21)29(33)34/h5-12,16,18,22-23H,4,13-15H2,1-3H3,(H,27,31)(H,28,30)/t16-,18-,22-,23+/m1/s1
InChIKey=QKTYRLFUAZIOJV-ZDZLMVPKSA-N

> <PUBCHEM_SUBSTANCE_SYNONYM>
SCHEMBL16119315

> <PUBCHEM_XREF_EXT_ID>
SCHEMBL16119315

> <PUBCHEM_EXT_DATASOURCE_URL>
https://www.surechembl.org/

> <PUBCHEM_EXT_SUBSTANCE_URL>
https://www.surechembl.org/chemical/SCHEMBL16119315

> <PUBCHEM_CID_ASSOCIATIONS>
117608198  1

> <PUBCHEM_COORDINATE_TYPE>
1
3

> <PUBCHEM_BONDANNOTATIONS>
13  1  6
20  10  6
12  16  5
18  31  6

$$$$
