310935344
  -OEChem-07211613022D

 22 24  0     0  0  0  0  0  0999 V2000
    2.0241   -2.0964    0.0000 S   0  0  0  0  0  0  0  0  0  0  0  0
    3.3253    0.0000    0.0000 O   0  0  0  0  0  0  0  0  0  0  0  0
    4.5542   -0.7229    0.0000 O   0  0  0  0  0  0  0  0  0  0  0  0
    0.6506   -3.1446    0.0000 N   0  0  0  0  0  0  0  0  0  0  0  0
    2.0241   -0.7590    0.0000 N   0  0  0  0  0  0  0  0  0  0  0  0
    3.3253   -1.4096    0.0000 N   0  0  0  0  0  0  0  0  0  0  0  0
    1.2289   -1.8433    0.0000 C   0  0  0  0  0  0  0  0  0  0  0  0
    2.4940   -1.4096    0.0000 C   0  0  0  0  0  0  0  0  0  0  0  0
    0.5783   -2.3132    0.0000 C   0  0  0  0  0  0  0  0  0  0  0  0
    0.7952   -4.7711    0.0000 C   0  0  0  0  0  0  0  0  0  0  0  0
    1.2289   -1.0120    0.0000 C   0  0  0  0  0  0  0  0  0  0  0  0
    0.8675   -5.5662    0.0000 C   0  0  0  0  0  0  0  0  0  0  0  0
    1.4096   -3.4698    0.0000 C   0  0  0  0  0  0  0  0  0  0  0  0
    0.0000   -3.6144    0.0000 C   0  0  0  0  0  0  0  0  0  0  0  0
    1.4819   -4.3012    0.0000 C   0  0  0  0  0  0  0  0  0  0  0  0
    0.0723   -4.4096    0.0000 C   0  0  0  0  0  0  0  0  0  0  0  0
    3.7229   -0.7229    0.0000 C   0  0  0  0  0  0  0  0  0  0  0  0
    1.6265   -5.9277    0.0000 C   0  0  0  0  0  0  0  0  0  0  0  0
    0.2168   -6.0723    0.0000 C   0  0  0  0  0  0  0  0  0  0  0  0
    1.6988   -6.7590    0.0000 C   0  0  0  0  0  0  0  0  0  0  0  0
    0.2891   -6.8674    0.0000 C   0  0  0  0  0  0  0  0  0  0  0  0
    1.0120   -7.2289    0.0000 C   0  0  0  0  0  0  0  0  0  0  0  0
  1  7  1  0  0  0  0
  1  8  1  0  0  0  0
  2 17  2  0  0  0  0
  3 17  1  0  0  0  0
  4  9  1  0  0  0  0
  4 13  1  0  0  0  0
  4 14  1  0  0  0  0
  5  8  2  0  0  0  0
  5 11  1  0  0  0  0
  6  8  1  0  0  0  0
  6 17  1  0  0  0  0
  7  9  1  0  0  0  0
  7 11  2  0  0  0  0
 10 12  1  0  0  0  0
 10 15  1  0  0  0  0
 10 16  1  0  0  0  0
 12 18  2  0  0  0  0
 12 19  1  0  0  0  0
 13 15  1  0  0  0  0
 14 16  1  0  0  0  0
 18 20  1  0  0  0  0
 19 21  2  0  0  0  0
 20 22  2  0  0  0  0
 21 22  1  0  0  0  0
M  END
> <PUBCHEM_COMPOUND_ID_TYPE>
0

> <PUBCHEM_TOTAL_CHARGE>
0

> <PUBCHEM_SUBSTANCE_ID>
310935344

> <PUBCHEM_SUBSTANCE_VERSION>
1

> <PUBCHEM_EXT_DATASOURCE_NAME>
4488

> <PUBCHEM_EXT_DATASOURCE_REGID>
SCHEMBL16112882

> <PUBCHEM_SUBSTANCE_COMMENT>
InChI=1S/C16H19N3O2S/c20-16(21)18-15-17-10-14(22-15)11-19-8-6-13(7-9-19)12-4-2-1-3-5-12/h1-5,10,13H,6-9,11H2,(H,17,18)(H,20,21)
InChIKey=RXFSFWJEVLNQIC-UHFFFAOYSA-N

> <PUBCHEM_SUBSTANCE_SYNONYM>
SCHEMBL16112882

> <PUBCHEM_XREF_EXT_ID>
SCHEMBL16112882

> <PUBCHEM_EXT_DATASOURCE_URL>
https://www.surechembl.org/

> <PUBCHEM_EXT_SUBSTANCE_URL>
https://www.surechembl.org/chemical/SCHEMBL16112882

> <PUBCHEM_CID_ASSOCIATIONS>
117603400  1

> <PUBCHEM_COORDINATE_TYPE>
1
3

$$$$
