310943083
  -OEChem-07211613022D

 11 11  0     0  0  0  0  0  0999 V2000
   -0.0857    1.0344    0.0000 N   0  0  0  0  0  0  0  0  0  0  0  0
    0.6978    1.2915    0.0000 N   0  0  0  0  0  0  0  0  0  0  0  0
   -0.7835   -0.1898    0.0000 N   0  0  0  0  0  0  0  0  0  0  0  0
   -0.0979    0.2265    0.0000 C   0  0  0  0  0  0  0  0  0  0  0  0
    0.6855   -0.0428    0.0000 C   0  0  0  0  0  0  0  0  0  0  0  0
    1.1629    0.6305    0.0000 C   0  0  0  0  0  0  0  0  0  0  0  0
   -0.7957    1.4384    0.0000 C   0  0  0  0  0  0  0  0  0  0  0  0
    1.5057   -1.4384    0.0000 C   0  0  0  0  0  0  0  0  0  0  0  0
   -1.5057    0.2265    0.0000 C   0  0  0  0  0  0  0  0  0  0  0  0
   -1.4935    1.0344    0.0000 C   0  0  0  0  0  0  0  0  0  0  0  0
   -1.1018    1.2181    0.0000 C   0  0  0  0  0  0  0  0  0  0  0  0
  1  2  1  0  0  0  0
  1  4  1  0  0  0  0
  1  7  1  0  0  0  0
  2  6  2  0  0  0  0
  3  4  1  0  0  0  0
  3  9  2  0  0  0  0
  4  5  2  0  0  0  0
  5  6  1  0  0  0  0
  5  8  1  0  0  0  0
  9 10  1  0  0  0  0
 10 11  2  0  0  0  0
M  END
> <PUBCHEM_COMPOUND_ID_TYPE>
0

> <PUBCHEM_TOTAL_CHARGE>
0

> <PUBCHEM_SUBSTANCE_ID>
310943083

> <PUBCHEM_SUBSTANCE_VERSION>
1

> <PUBCHEM_EXT_DATASOURCE_NAME>
4488

> <PUBCHEM_EXT_DATASOURCE_REGID>
SCHEMBL16121142

> <PUBCHEM_SUBSTANCE_COMMENT>
InChI=1S/C8H11N3/c1-4-5-9-8-7(2)6-10-11(8)3/h4-6H,1H2,2-3H3/b9-5-
InChIKey=PMCOBOYAISQPOP-UITAMQMPSA-N

> <PUBCHEM_SUBSTANCE_SYNONYM>
SCHEMBL16121142

> <PUBCHEM_XREF_EXT_ID>
SCHEMBL16121142

> <PUBCHEM_EXT_DATASOURCE_URL>
https://www.surechembl.org/

> <PUBCHEM_EXT_SUBSTANCE_URL>
https://www.surechembl.org/chemical/SCHEMBL16121142

> <PUBCHEM_CID_ASSOCIATIONS>
117609518  1

> <PUBCHEM_COORDINATE_TYPE>
1
3

$$$$
