310947999
  -OEChem-07211613022D

 26 30  0     1  0  0  0  0  0999 V2000
   -0.7366   -0.1179    0.0000 O   0  0  0  0  0  0  0  0  0  0  0  0
   -1.0460   -2.0772    0.0000 O   0  0  0  0  0  0  0  0  0  0  0  0
   -1.0460    2.0477    0.0000 O   0  0  0  0  0  0  0  0  0  0  0  0
   -1.7531   -0.8397    0.0000 O   0  0  0  0  0  0  0  0  0  0  0  0
   -1.7531    0.8103    0.0000 O   0  0  0  0  0  0  0  0  0  0  0  0
    2.5192   -0.8839    0.0000 N   0  0  0  0  0  0  0  0  0  0  0  0
    0.3683   -0.3830    0.0000 C   0  0  3  0  0  0  0  0  0  0  0  0
    0.3683    0.4273    0.0000 C   0  0  0  0  0  0  0  0  0  0  0  0
   -0.3388   -0.8250    0.0000 C   0  0  3  0  0  0  0  0  0  0  0  0
    1.0901   -0.8103    0.0000 C   0  0  3  0  0  0  0  0  0  0  0  0
   -0.3388    0.8397    0.0000 C   0  0  0  0  0  0  0  0  0  0  0  0
    1.0754    0.8544    0.0000 C   0  0  0  0  0  0  0  0  0  0  0  0
    1.7973   -0.3977    0.0000 C   0  0  3  0  0  0  0  0  0  0  0  0
    0.9576    0.0442    0.0000 C   0  0  0  0  0  0  0  0  0  0  0  0
   -0.3388   -1.6353    0.0000 C   0  0  3  0  0  0  0  0  0  0  0  0
   -0.3388    1.6647    0.0000 C   0  0  0  0  0  0  0  0  0  0  0  0
    1.7826    0.4273    0.0000 C   0  0  0  0  0  0  0  0  0  0  0  0
    1.0754   -1.6353    0.0000 C   0  0  0  0  0  0  0  0  0  0  0  0
    0.3683   -2.0477    0.0000 C   0  0  0  0  0  0  0  0  0  0  0  0
    1.0754    1.6500    0.0000 C   0  0  0  0  0  0  0  0  0  0  0  0
    2.2540    0.0442    0.0000 C   0  0  0  0  0  0  0  0  0  0  0  0
    0.3683    2.0625    0.0000 C   0  0  0  0  0  0  0  0  0  0  0  0
   -1.7826   -1.6500    0.0000 C   0  0  0  0  0  0  0  0  0  0  0  0
   -1.7678    1.6794    0.0000 C   0  0  0  0  0  0  0  0  0  0  0  0
   -2.4897   -2.0772    0.0000 C   0  0  0  0  0  0  0  0  0  0  0  0
   -2.5192    2.0772    0.0000 C   0  0  0  0  0  0  0  0  0  0  0  0
  9  1  1  6  0  0  0
  1 11  1  0  0  0  0
 15  2  1  6  0  0  0
  2 23  1  0  0  0  0
  3 16  1  0  0  0  0
  3 24  1  0  0  0  0
  4 23  2  0  0  0  0
  5 24  2  0  0  0  0
 13  6  1  1  0  0  0
  6 21  1  0  0  0  0
  7  8  1  6  0  0  0
  7  9  1  0  0  0  0
  7 10  1  0  0  0  0
  7 14  1  0  0  0  0
  8 11  1  0  0  0  0
  8 12  2  0  0  0  0
  9 15  1  0  0  0  0
 10 13  1  0  0  0  0
 10 18  1  0  0  0  0
 11 16  2  0  0  0  0
 12 17  1  0  0  0  0
 12 20  1  0  0  0  0
 13 17  1  0  0  0  0
 14 21  1  0  0  0  0
 15 19  1  0  0  0  0
 16 22  1  0  0  0  0
 18 19  2  0  0  0  0
 20 22  2  0  0  0  0
 23 25  1  0  0  0  0
 24 26  1  0  0  0  0
M  END
> <PUBCHEM_COMPOUND_ID_TYPE>
0

> <PUBCHEM_TOTAL_CHARGE>
0

> <PUBCHEM_SUBSTANCE_ID>
310947999

> <PUBCHEM_SUBSTANCE_VERSION>
1

> <PUBCHEM_EXT_DATASOURCE_NAME>
4488

> <PUBCHEM_EXT_DATASOURCE_REGID>
SCHEMBL16126173

> <PUBCHEM_SUBSTANCE_COMMENT>
InChI=1S/C20H21NO5/c1-10(22)24-15-5-3-12-9-14-13-4-6-16(25-11(2)23)19-20(13,7-8-21-14)17(12)18(15)26-19/h3-6,13-14,16,19,21H,7-9H2,1-2H3/t13?,14-,16+,19+,20+/m1/s1
InChIKey=GHTYDNMFXKFVDA-WOBWJDGISA-N

> <PUBCHEM_SUBSTANCE_SYNONYM>
SCHEMBL16126173

> <PUBCHEM_XREF_EXT_ID>
SCHEMBL16126173

> <PUBCHEM_EXT_DATASOURCE_URL>
https://www.surechembl.org/

> <PUBCHEM_EXT_SUBSTANCE_URL>
https://www.surechembl.org/chemical/SCHEMBL16126173

> <PUBCHEM_CID_ASSOCIATIONS>
117613644  1

> <PUBCHEM_COORDINATE_TYPE>
1
3

> <PUBCHEM_BONDANNOTATIONS>
9  1  6
15  2  6
13  6  5
7  8  6

$$$$
