310931575
  -OEChem-07211613022D

 19 20  0     0  0  0  0  0  0999 V2000
    0.0000    0.0000    0.0000 Cl  0  0  0  0  0  0  0  0  0  0  0  0
    3.5886   -1.2181    0.0000 O   0  0  0  0  0  0  0  0  0  0  0  0
    2.8643   -2.4692    0.0000 N   0  0  0  0  0  0  0  0  0  0  0  0
    1.4486    0.0000    0.0000 N   0  0  0  0  0  0  0  0  0  0  0  0
    4.3128   -6.5846    0.0000 N   0  0  0  0  0  0  0  0  0  0  0  0
    2.1400   -1.2181    0.0000 C   0  0  0  0  0  0  0  0  0  0  0  0
    2.8643   -1.6462    0.0000 C   0  0  0  0  0  0  0  0  0  0  0  0
    2.1400   -0.3951    0.0000 C   0  0  0  0  0  0  0  0  0  0  0  0
    1.4486   -1.6462    0.0000 C   0  0  0  0  0  0  0  0  0  0  0  0
    3.5886   -3.7203    0.0000 C   0  0  0  0  0  0  0  0  0  0  0  0
    0.7243   -0.3951    0.0000 C   0  0  0  0  0  0  0  0  0  0  0  0
    0.7243   -1.2181    0.0000 C   0  0  0  0  0  0  0  0  0  0  0  0
    3.5886   -2.8643    0.0000 C   0  0  0  0  0  0  0  0  0  0  0  0
    3.5886   -5.3664    0.0000 C   0  0  0  0  0  0  0  0  0  0  0  0
    2.8643   -4.1154    0.0000 C   0  0  0  0  0  0  0  0  0  0  0  0
    4.3128   -4.1154    0.0000 C   0  0  0  0  0  0  0  0  0  0  0  0
    2.8643   -4.9384    0.0000 C   0  0  0  0  0  0  0  0  0  0  0  0
    4.3128   -4.9384    0.0000 C   0  0  0  0  0  0  0  0  0  0  0  0
    3.5886   -6.1895    0.0000 C   0  0  0  0  0  0  0  0  0  0  0  0
  1 11  1  0  0  0  0
  2  7  2  0  0  0  0
  3  7  1  0  0  0  0
  3 13  1  0  0  0  0
  4  8  1  0  0  0  0
  4 11  2  0  0  0  0
  5 19  3  0  0  0  0
  6  7  1  0  0  0  0
  6  8  2  0  0  0  0
  6  9  1  0  0  0  0
  9 12  2  0  0  0  0
 10 13  1  0  0  0  0
 10 15  2  0  0  0  0
 10 16  1  0  0  0  0
 11 12  1  0  0  0  0
 14 17  2  0  0  0  0
 14 18  1  0  0  0  0
 14 19  1  0  0  0  0
 15 17  1  0  0  0  0
 16 18  2  0  0  0  0
M  END
> <PUBCHEM_COMPOUND_ID_TYPE>
0

> <PUBCHEM_TOTAL_CHARGE>
0

> <PUBCHEM_SUBSTANCE_ID>
310931575

> <PUBCHEM_SUBSTANCE_VERSION>
1

> <PUBCHEM_EXT_DATASOURCE_NAME>
4488

> <PUBCHEM_EXT_DATASOURCE_REGID>
SCHEMBL16108901

> <PUBCHEM_SUBSTANCE_COMMENT>
InChI=1S/C14H10ClN3O/c15-13-6-5-12(9-17-13)14(19)18-8-11-3-1-10(7-16)2-4-11/h1-6,9H,8H2,(H,18,19)
InChIKey=IPMWNOXQYBZBBY-UHFFFAOYSA-N

> <PUBCHEM_SUBSTANCE_SYNONYM>
SCHEMBL16108901

> <PUBCHEM_XREF_EXT_ID>
SCHEMBL16108901

> <PUBCHEM_EXT_DATASOURCE_URL>
https://www.surechembl.org/

> <PUBCHEM_EXT_SUBSTANCE_URL>
https://www.surechembl.org/chemical/SCHEMBL16108901

> <PUBCHEM_CID_ASSOCIATIONS>
60736795  1

> <PUBCHEM_COORDINATE_TYPE>
1
3

$$$$
