310946129
  -OEChem-07211613022D

 50 58  0     0  0  0  0  0  0999 V2000
    3.7301    0.0618    0.0000 O   0  0  0  0  0  0  0  0  0  0  0  0
    0.4482    0.2334    0.0000 N   0  0  0  0  0  0  0  0  0  0  0  0
   -2.0088    1.8338    0.0000 C   0  0  0  0  0  0  0  0  0  0  0  0
   -1.2018    1.6623    0.0000 C   0  0  0  0  0  0  0  0  0  0  0  0
   -2.0950    2.6543    0.0000 C   0  0  0  0  0  0  0  0  0  0  0  0
   -0.7893    2.3768    0.0000 C   0  0  0  0  0  0  0  0  0  0  0  0
   -1.3414    2.9899    0.0000 C   0  0  0  0  0  0  0  0  0  0  0  0
   -2.0088   -1.3671    0.0000 C   0  0  0  0  0  0  0  0  0  0  0  0
   -1.2018   -1.1956    0.0000 C   0  0  0  0  0  0  0  0  0  0  0  0
    0.0357    0.9478    0.0000 C   0  0  0  0  0  0  0  0  0  0  0  0
   -0.7893   -1.9100    0.0000 C   0  0  0  0  0  0  0  0  0  0  0  0
   -2.0950   -2.1876    0.0000 C   0  0  0  0  0  0  0  0  0  0  0  0
   -0.7893    0.9478    0.0000 C   0  0  0  0  0  0  0  0  0  0  0  0
   -1.3414   -2.5231    0.0000 C   0  0  0  0  0  0  0  0  0  0  0  0
    0.0357   -0.4811    0.0000 C   0  0  0  0  0  0  0  0  0  0  0  0
   -2.8338    1.8338    0.0000 C   0  0  0  0  0  0  0  0  0  0  0  0
   -1.5963    1.1194    0.0000 C   0  0  0  0  0  0  0  0  0  0  0  0
    0.0357    2.3768    0.0000 C   0  0  0  0  0  0  0  0  0  0  0  0
   -0.7893   -0.4811    0.0000 C   0  0  0  0  0  0  0  0  0  0  0  0
    1.2732    0.2334    0.0000 C   0  0  0  0  0  0  0  0  0  0  0  0
   -2.7625    3.1392    0.0000 C   0  0  0  0  0  0  0  0  0  0  0  0
    0.4482    1.6623    0.0000 C   0  0  0  0  0  0  0  0  0  0  0  0
   -1.2551    3.8104    0.0000 C   0  0  0  0  0  0  0  0  0  0  0  0
    0.0357   -1.9100    0.0000 C   0  0  0  0  0  0  0  0  0  0  0  0
    0.4482   -1.1956    0.0000 C   0  0  0  0  0  0  0  0  0  0  0  0
    2.5107   -0.4811    0.0000 C   0  0  0  0  0  0  0  0  0  0  0  0
    1.6857   -0.4811    0.0000 C   0  0  0  0  0  0  0  0  0  0  0  0
   -2.7625   -2.6725    0.0000 C   0  0  0  0  0  0  0  0  0  0  0  0
   -1.2551   -3.3436    0.0000 C   0  0  0  0  0  0  0  0  0  0  0  0
    2.9232    0.2334    0.0000 C   0  0  0  0  0  0  0  0  0  0  0  0
    3.0627   -1.0942    0.0000 C   0  0  0  0  0  0  0  0  0  0  0  0
   -2.0088   -0.5421    0.0000 C   0  0  0  0  0  0  0  0  0  0  0  0
   -2.8338   -1.3671    0.0000 C   0  0  0  0  0  0  0  0  0  0  0  0
   -2.6762    3.9597    0.0000 C   0  0  0  0  0  0  0  0  0  0  0  0
    1.6857    0.9478    0.0000 C   0  0  0  0  0  0  0  0  0  0  0  0
   -1.9226    4.2953    0.0000 C   0  0  0  0  0  0  0  0  0  0  0  0
    3.8164   -0.7586    0.0000 C   0  0  0  0  0  0  0  0  0  0  0  0
   -3.2463    1.1194    0.0000 C   0  0  0  0  0  0  0  0  0  0  0  0
   -0.7713    1.1194    0.0000 C   0  0  0  0  0  0  0  0  0  0  0  0
    2.5107    0.9478    0.0000 C   0  0  0  0  0  0  0  0  0  0  0  0
   -2.6762   -3.4930    0.0000 C   0  0  0  0  0  0  0  0  0  0  0  0
   -1.9226   -3.8285    0.0000 C   0  0  0  0  0  0  0  0  0  0  0  0
    2.9765   -1.9147    0.0000 C   0  0  0  0  0  0  0  0  0  0  0  0
    4.4838   -1.2436    0.0000 C   0  0  0  0  0  0  0  0  0  0  0  0
   -4.0713    1.1194    0.0000 C   0  0  0  0  0  0  0  0  0  0  0  0
   -0.3588    0.4049    0.0000 C   0  0  0  0  0  0  0  0  0  0  0  0
    3.6439   -2.3996    0.0000 C   0  0  0  0  0  0  0  0  0  0  0  0
    4.3976   -2.0640    0.0000 C   0  0  0  0  0  0  0  0  0  0  0  0
   -4.4838    0.4049    0.0000 C   0  0  0  0  0  0  0  0  0  0  0  0
    0.4662    0.4049    0.0000 C   0  0  0  0  0  0  0  0  0  0  0  0
  1 30  1  0  0  0  0
  1 37  1  0  0  0  0
  2 10  1  0  0  0  0
  2 15  1  0  0  0  0
  2 20  1  0  0  0  0
  3  4  1  0  0  0  0
  3  5  1  0  0  0  0
  3 16  1  0  0  0  0
  3 17  1  0  0  0  0
  4  6  1  0  0  0  0
  4 13  2  0  0  0  0
  5  7  2  0  0  0  0
  5 21  1  0  0  0  0
  6  7  1  0  0  0  0
  6 18  2  0  0  0  0
  7 23  1  0  0  0  0
  8  9  1  0  0  0  0
  8 12  1  0  0  0  0
  8 32  1  0  0  0  0
  8 33  1  0  0  0  0
  9 11  2  0  0  0  0
  9 19  1  0  0  0  0
 10 13  1  0  0  0  0
 10 22  2  0  0  0  0
 11 14  1  0  0  0  0
 11 24  1  0  0  0  0
 12 14  2  0  0  0  0
 12 28  1  0  0  0  0
 14 29  1  0  0  0  0
 15 19  2  0  0  0  0
 15 25  1  0  0  0  0
 16 38  1  0  0  0  0
 17 39  1  0  0  0  0
 18 22  1  0  0  0  0
 20 27  2  0  0  0  0
 20 35  1  0  0  0  0
 21 34  2  0  0  0  0
 23 36  2  0  0  0  0
 24 25  2  0  0  0  0
 26 27  1  0  0  0  0
 26 30  2  0  0  0  0
 26 31  1  0  0  0  0
 28 41  2  0  0  0  0
 29 42  2  0  0  0  0
 30 40  1  0  0  0  0
 31 37  2  0  0  0  0
 31 43  1  0  0  0  0
 34 36  1  0  0  0  0
 35 40  2  0  0  0  0
 37 44  1  0  0  0  0
 38 45  1  0  0  0  0
 39 46  1  0  0  0  0
 41 42  1  0  0  0  0
 43 47  2  0  0  0  0
 44 48  2  0  0  0  0
 45 49  1  0  0  0  0
 46 50  1  0  0  0  0
 47 48  1  0  0  0  0
M  END
> <PUBCHEM_COMPOUND_ID_TYPE>
0

> <PUBCHEM_TOTAL_CHARGE>
0

> <PUBCHEM_SUBSTANCE_ID>
310946129

> <PUBCHEM_SUBSTANCE_VERSION>
1

> <PUBCHEM_EXT_DATASOURCE_NAME>
4488

> <PUBCHEM_EXT_DATASOURCE_REGID>
SCHEMBL16124238

> <PUBCHEM_SUBSTANCE_COMMENT>
InChI=1S/C48H45NO/c1-5-7-27-48(28-8-6-2)42-19-13-10-16-36(42)38-25-22-34(31-44(38)48)49(32-23-26-46-40(29-32)39-17-11-14-20-45(39)50-46)33-21-24-37-35-15-9-12-18-41(35)47(3,4)43(37)30-33/h9-26,29-31H,5-8,27-28H2,1-4H3
InChIKey=DEOIXQYUHFDJTO-UHFFFAOYSA-N

> <PUBCHEM_SUBSTANCE_SYNONYM>
SCHEMBL16124238

> <PUBCHEM_XREF_EXT_ID>
SCHEMBL16124238

> <PUBCHEM_EXT_DATASOURCE_URL>
https://www.surechembl.org/

> <PUBCHEM_EXT_SUBSTANCE_URL>
https://www.surechembl.org/chemical/SCHEMBL16124238

> <PUBCHEM_CID_ASSOCIATIONS>
117612088  1

> <PUBCHEM_COORDINATE_TYPE>
1
3

$$$$
