310932437
  -OEChem-07211613022D

 31 35  0     1  0  0  0  0  0999 V2000
    6.3622   -6.8792    0.0000 O   0  0  0  0  0  0  0  0  0  0  0  0
    4.8114   -7.3961    0.0000 O   0  0  0  0  0  0  0  0  0  0  0  0
    2.5051   -0.7158    0.0000 O   0  0  0  0  0  0  0  0  0  0  0  0
    6.2429   -3.8571    0.0000 N   0  0  0  0  0  0  0  0  0  0  0  0
    6.1634   -3.0618    0.0000 N   0  0  0  0  0  0  0  0  0  0  0  0
    3.6980   -2.9028    0.0000 N   0  0  0  0  0  0  0  0  0  0  0  0
    3.7378   -1.4315    0.0000 N   0  0  0  0  0  0  0  0  0  0  0  0
    2.5051   -2.1472    0.0000 N   0  0  0  0  0  0  0  0  0  0  0  0
    5.4874   -4.2150    0.0000 C   0  0  0  0  0  0  0  0  0  0  0  0
    4.9307   -3.6185    0.0000 C   0  0  0  0  0  0  0  0  0  0  0  0
    5.3681   -2.8630    0.0000 C   0  0  0  0  0  0  0  0  0  0  0  0
    5.3283   -5.0103    0.0000 C   0  0  0  0  0  0  0  0  0  0  0  0
    4.0956   -3.5787    0.0000 C   0  0  0  0  0  0  0  0  0  0  0  0
    4.9307   -2.1472    0.0000 C   0  0  0  0  0  0  0  0  0  0  0  0
    5.7657   -6.3224    0.0000 C   0  0  0  0  0  0  0  0  0  0  0  0
    5.9248   -5.5669    0.0000 C   0  0  0  0  0  0  0  0  0  0  0  0
    4.1354   -2.1472    0.0000 C   0  0  0  0  0  0  0  0  0  0  0  0
    4.9705   -6.6008    0.0000 C   0  0  0  0  0  0  0  0  0  0  0  0
    4.5331   -5.2488    0.0000 C   0  0  0  0  0  0  0  0  0  0  0  0
    4.3740   -6.0839    0.0000 C   0  0  0  0  0  0  0  0  0  0  0  0
    2.9028   -1.4315    0.0000 C   0  0  0  0  0  0  0  0  0  0  0  0
    6.2031   -7.7142    0.0000 C   0  0  0  0  0  0  0  0  0  0  0  0
    5.4078   -7.9528    0.0000 C   0  0  0  0  0  0  0  0  0  0  0  0
    1.6701   -2.1472    0.0000 C   0  0  3  0  0  0  0  0  0  0  0  0
    1.2725   -1.4315    0.0000 C   0  0  0  0  0  0  0  0  0  0  0  0
    0.4374   -1.4315    0.0000 C   0  0  0  0  0  0  0  0  0  0  0  0
    1.6701   -0.7158    0.0000 C   0  0  0  0  0  0  0  0  0  0  0  0
    1.2725   -2.8630    0.0000 C   0  0  0  0  0  0  0  0  0  0  0  0
    0.0000   -0.7158    0.0000 C   0  0  0  0  0  0  0  0  0  0  0  0
    1.2725    0.0000    0.0000 C   0  0  0  0  0  0  0  0  0  0  0  0
    0.4374    0.0000    0.0000 C   0  0  0  0  0  0  0  0  0  0  0  0
  1 15  1  0  0  0  0
  1 22  1  0  0  0  0
  2 18  1  0  0  0  0
  2 23  1  0  0  0  0
  3 21  2  0  0  0  0
  4  5  1  0  0  0  0
  4  9  2  0  0  0  0
  5 11  1  0  0  0  0
  6 13  1  0  0  0  0
  6 17  2  0  0  0  0
  7 17  1  0  0  0  0
  7 21  1  0  0  0  0
  8 21  1  0  0  0  0
  8 24  1  0  0  0  0
  9 10  1  0  0  0  0
  9 12  1  0  0  0  0
 10 11  1  0  0  0  0
 10 13  2  0  0  0  0
 11 14  2  0  0  0  0
 12 16  2  0  0  0  0
 12 19  1  0  0  0  0
 14 17  1  0  0  0  0
 15 16  1  0  0  0  0
 15 18  2  0  0  0  0
 18 20  1  0  0  0  0
 19 20  2  0  0  0  0
 22 23  1  0  0  0  0
 24 25  1  0  0  0  0
 24 28  1  6  0  0  0
 25 26  2  0  0  0  0
 25 27  1  0  0  0  0
 26 29  1  0  0  0  0
 27 30  2  0  0  0  0
 29 31  2  0  0  0  0
 30 31  1  0  0  0  0
M  END
> <PUBCHEM_COMPOUND_ID_TYPE>
0

> <PUBCHEM_TOTAL_CHARGE>
0

> <PUBCHEM_SUBSTANCE_ID>
310932437

> <PUBCHEM_SUBSTANCE_VERSION>
1

> <PUBCHEM_EXT_DATASOURCE_NAME>
4488

> <PUBCHEM_EXT_DATASOURCE_REGID>
SCHEMBL16109805

> <PUBCHEM_SUBSTANCE_COMMENT>
InChI=1S/C23H21N5O3/c1-14(15-5-3-2-4-6-15)25-23(29)26-21-12-18-17(13-24-21)22(28-27-18)16-7-8-19-20(11-16)31-10-9-30-19/h2-8,11-14H,9-10H2,1H3,(H,27,28)(H2,24,25,26,29)/t14-/m1/s1
InChIKey=BWSDQKWWJQUHST-CQSZACIVSA-N

> <PUBCHEM_SUBSTANCE_SYNONYM>
SCHEMBL16109805

> <PUBCHEM_XREF_EXT_ID>
SCHEMBL16109805

> <PUBCHEM_EXT_DATASOURCE_URL>
https://www.surechembl.org/

> <PUBCHEM_EXT_SUBSTANCE_URL>
https://www.surechembl.org/chemical/SCHEMBL16109805

> <PUBCHEM_CID_ASSOCIATIONS>
71555014  1

> <PUBCHEM_COORDINATE_TYPE>
1
3

> <PUBCHEM_BONDANNOTATIONS>
24  28  6

$$$$
