310944217
  -OEChem-07211613022D

 34 36  0     0  0  0  0  0  0999 V2000
    0.0457    3.2929    0.0000 F   0  0  0  0  0  0  0  0  0  0  0  0
   -2.8682   -1.6726    0.0000 F   0  0  0  0  0  0  0  0  0  0  0  0
    2.9205   -1.6334    0.0000 F   0  0  0  0  0  0  0  0  0  0  0  0
    0.0196    0.0000    0.0000 N   0  0  0  0  0  0  0  0  0  0  0  0
    1.4308   -3.2929    0.0000 N   0  0  0  0  0  0  0  0  0  0  0  0
   -3.6392    0.3136    0.0000 N   0  0  0  0  0  0  0  0  0  0  0  0
    2.1887    2.8486    0.0000 N   0  0  0  0  0  0  0  0  0  0  0  0
    3.6392    0.3920    0.0000 N   0  0  0  0  0  0  0  0  0  0  0  0
   -1.4439   -3.2929    0.0000 N   0  0  0  0  0  0  0  0  0  0  0  0
   -2.1757    2.8356    0.0000 N   0  0  0  0  0  0  0  0  0  0  0  0
    0.0196    0.8493    0.0000 C   0  0  0  0  0  0  0  0  0  0  0  0
   -0.7122   -0.4051    0.0000 C   0  0  0  0  0  0  0  0  0  0  0  0
    0.7514   -0.3920    0.0000 C   0  0  0  0  0  0  0  0  0  0  0  0
    0.7383    1.2544    0.0000 C   0  0  0  0  0  0  0  0  0  0  0  0
   -1.4439    0.0131    0.0000 C   0  0  0  0  0  0  0  0  0  0  0  0
    0.7514   -1.2153    0.0000 C   0  0  0  0  0  0  0  0  0  0  0  0
   -0.6991    1.2544    0.0000 C   0  0  0  0  0  0  0  0  0  0  0  0
   -0.7383   -1.2414    0.0000 C   0  0  0  0  0  0  0  0  0  0  0  0
    1.4700    0.0131    0.0000 C   0  0  0  0  0  0  0  0  0  0  0  0
    0.7514    2.0908    0.0000 C   0  0  0  0  0  0  0  0  0  0  0  0
   -2.1626   -0.4051    0.0000 C   0  0  0  0  0  0  0  0  0  0  0  0
    1.4700   -1.6072    0.0000 C   0  0  0  0  0  0  0  0  0  0  0  0
   -0.7122    2.0777    0.0000 C   0  0  0  0  0  0  0  0  0  0  0  0
   -1.4308   -1.6334    0.0000 C   0  0  0  0  0  0  0  0  0  0  0  0
    2.1887   -0.3659    0.0000 C   0  0  0  0  0  0  0  0  0  0  0  0
    0.0065    2.4827    0.0000 C   0  0  0  0  0  0  0  0  0  0  0  0
   -2.1757   -1.2283    0.0000 C   0  0  0  0  0  0  0  0  0  0  0  0
    2.1757   -1.2022    0.0000 C   0  0  0  0  0  0  0  0  0  0  0  0
    1.4570    2.4827    0.0000 C   0  0  0  0  0  0  0  0  0  0  0  0
   -2.9075   -0.0262    0.0000 C   0  0  0  0  0  0  0  0  0  0  0  0
    1.4439   -2.4696    0.0000 C   0  0  0  0  0  0  0  0  0  0  0  0
   -1.4570    2.4697    0.0000 C   0  0  0  0  0  0  0  0  0  0  0  0
   -1.4439   -2.4696    0.0000 C   0  0  0  0  0  0  0  0  0  0  0  0
    2.9075    0.0262    0.0000 C   0  0  0  0  0  0  0  0  0  0  0  0
  1 26  1  0  0  0  0
  2 27  1  0  0  0  0
  3 28  1  0  0  0  0
  4 11  1  0  0  0  0
  4 12  1  0  0  0  0
  4 13  1  0  0  0  0
  5 31  3  0  0  0  0
  6 30  3  0  0  0  0
  7 29  3  0  0  0  0
  8 34  3  0  0  0  0
  9 33  3  0  0  0  0
 10 32  3  0  0  0  0
 11 14  2  0  0  0  0
 11 17  1  0  0  0  0
 12 15  2  0  0  0  0
 12 18  1  0  0  0  0
 13 16  2  0  0  0  0
 13 19  1  0  0  0  0
 14 20  1  0  0  0  0
 15 21  1  0  0  0  0
 16 22  1  0  0  0  0
 17 23  2  0  0  0  0
 18 24  2  0  0  0  0
 19 25  2  0  0  0  0
 20 26  2  0  0  0  0
 20 29  1  0  0  0  0
 21 27  2  0  0  0  0
 21 30  1  0  0  0  0
 22 28  2  0  0  0  0
 22 31  1  0  0  0  0
 23 26  1  0  0  0  0
 23 32  1  0  0  0  0
 24 27  1  0  0  0  0
 24 33  1  0  0  0  0
 25 28  1  0  0  0  0
 25 34  1  0  0  0  0
M  END
> <PUBCHEM_COMPOUND_ID_TYPE>
0

> <PUBCHEM_TOTAL_CHARGE>
0

> <PUBCHEM_SUBSTANCE_ID>
310944217

> <PUBCHEM_SUBSTANCE_VERSION>
1

> <PUBCHEM_EXT_DATASOURCE_NAME>
4488

> <PUBCHEM_EXT_DATASOURCE_REGID>
SCHEMBL16122292

> <PUBCHEM_SUBSTANCE_COMMENT>
InChI=1S/C24H6F3N7/c25-22-13(7-28)1-19(2-14(22)8-29)34(20-3-15(9-30)23(26)16(4-20)10-31)21-5-17(11-32)24(27)18(6-21)12-33/h1-6H
InChIKey=XQNPHXCBDVTDOY-UHFFFAOYSA-N

> <PUBCHEM_SUBSTANCE_SYNONYM>
SCHEMBL16122292

> <PUBCHEM_XREF_EXT_ID>
SCHEMBL16122292

> <PUBCHEM_EXT_DATASOURCE_URL>
https://www.surechembl.org/

> <PUBCHEM_EXT_SUBSTANCE_URL>
https://www.surechembl.org/chemical/SCHEMBL16122292

> <PUBCHEM_CID_ASSOCIATIONS>
117610488  1

> <PUBCHEM_COORDINATE_TYPE>
1
3

$$$$
