310944947
  -OEChem-07211613022D

 29 33  0     0  0  0  0  0  0999 V2000
    4.2005   -0.1443    0.0000 O   0  0  0  0  0  0  0  0  0  0  0  0
   -2.7843    1.1206    0.0000 O   0  0  0  0  0  0  0  0  0  0  0  0
    1.6843   -1.3406    0.0000 N   0  0  0  0  0  0  0  0  0  0  0  0
   -0.6393    0.7081    0.0000 N   0  0  0  0  0  0  0  0  0  0  0  0
   -3.4993   -0.1169    0.0000 N   0  0  0  0  0  0  0  0  0  0  0  0
    1.5056   -0.5293    0.0000 C   0  0  0  0  0  0  0  0  0  0  0  0
    2.2068   -0.1031    0.0000 C   0  0  0  0  0  0  0  0  0  0  0  0
    2.8393   -0.6669    0.0000 C   0  0  0  0  0  0  0  0  0  0  0  0
    0.7769   -0.1169    0.0000 C   0  0  0  0  0  0  0  0  0  0  0  0
    2.4955   -1.4094    0.0000 C   0  0  0  0  0  0  0  0  0  0  0  0
    0.8044    0.7218    0.0000 C   0  0  0  0  0  0  0  0  0  0  0  0
    3.6368   -0.7769    0.0000 C   0  0  0  0  0  0  0  0  0  0  0  0
    2.2206    0.7081    0.0000 C   0  0  0  0  0  0  0  0  0  0  0  0
    0.0894   -0.5156    0.0000 C   0  0  0  0  0  0  0  0  0  0  0  0
   -0.6531   -0.1031    0.0000 C   0  0  0  0  0  0  0  0  0  0  0  0
    3.1281   -1.9593    0.0000 C   0  0  0  0  0  0  0  0  0  0  0  0
    1.4919    1.1069    0.0000 C   0  0  0  0  0  0  0  0  0  0  0  0
    3.8292   -1.5468    0.0000 C   0  0  0  0  0  0  0  0  0  0  0  0
    0.0481    1.1206    0.0000 C   0  0  0  0  0  0  0  0  0  0  0  0
   -1.3543   -0.5156    0.0000 C   0  0  0  0  0  0  0  0  0  0  0  0
   -2.0556   -0.1169    0.0000 C   0  0  0  0  0  0  0  0  0  0  0  0
   -2.7705   -0.5156    0.0000 C   0  0  0  0  0  0  0  0  0  0  0  0
   -1.3543   -1.3406    0.0000 C   0  0  0  0  0  0  0  0  0  0  0  0
   -2.7980   -1.3406    0.0000 C   0  0  0  0  0  0  0  0  0  0  0  0
   -2.0693   -1.7531    0.0000 C   0  0  0  0  0  0  0  0  0  0  0  0
   -3.5130    0.7081    0.0000 C   0  0  0  0  0  0  0  0  0  0  0  0
   -3.5130   -1.7668    0.0000 C   0  0  0  0  0  0  0  0  0  0  0  0
   -4.2005    1.1206    0.0000 C   0  0  0  0  0  0  0  0  0  0  0  0
   -4.1317    1.9593    0.0000 C   0  0  0  0  0  0  0  0  0  0  0  0
  1 12  2  0  0  0  0
  2 26  2  0  0  0  0
  3  6  1  0  0  0  0
  3 10  1  0  0  0  0
  4 15  2  0  0  0  0
  4 19  1  0  0  0  0
  5 22  1  0  0  0  0
  5 26  1  0  0  0  0
  6  7  2  0  0  0  0
  6  9  1  0  0  0  0
  7  8  1  0  0  0  0
  7 13  1  0  0  0  0
  8 10  2  0  0  0  0
  8 12  1  0  0  0  0
  9 11  1  0  0  0  0
  9 14  2  0  0  0  0
 10 16  1  0  0  0  0
 11 17  1  0  0  0  0
 11 19  2  0  0  0  0
 12 18  1  0  0  0  0
 13 17  2  0  0  0  0
 14 15  1  0  0  0  0
 15 20  1  0  0  0  0
 16 18  1  0  0  0  0
 20 21  2  0  0  0  0
 20 23  1  0  0  0  0
 21 22  1  0  0  0  0
 22 24  2  0  0  0  0
 23 25  2  0  0  0  0
 24 25  1  0  0  0  0
 24 27  1  0  0  0  0
 26 28  1  0  0  0  0
 28 29  2  0  0  0  0
M  END
> <PUBCHEM_COMPOUND_ID_TYPE>
0

> <PUBCHEM_TOTAL_CHARGE>
0

> <PUBCHEM_SUBSTANCE_ID>
310944947

> <PUBCHEM_SUBSTANCE_VERSION>
1

> <PUBCHEM_EXT_DATASOURCE_NAME>
4488

> <PUBCHEM_EXT_DATASOURCE_REGID>
SCHEMBL16123032

> <PUBCHEM_SUBSTANCE_COMMENT>
InChI=1S/C24H19N3O2/c1-3-22(29)26-19-10-14(5-4-13(19)2)20-11-17-15(12-25-20)6-7-16-23-18(27-24(16)17)8-9-21(23)28/h3-7,10-12,27H,1,8-9H2,2H3,(H,26,29)
InChIKey=GOWZNLUJQQDUEB-UHFFFAOYSA-N

> <PUBCHEM_SUBSTANCE_SYNONYM>
SCHEMBL16123032

> <PUBCHEM_XREF_EXT_ID>
SCHEMBL16123032

> <PUBCHEM_EXT_DATASOURCE_URL>
https://www.surechembl.org/

> <PUBCHEM_EXT_SUBSTANCE_URL>
https://www.surechembl.org/chemical/SCHEMBL16123032

> <PUBCHEM_CID_ASSOCIATIONS>
117611100  1

> <PUBCHEM_COORDINATE_TYPE>
1
3

$$$$
