310941513
  -OEChem-07211613022D

 25 28  0     0  0  0  0  0  0999 V2000
    0.3073    1.6535    0.0000 S   0  0  0  0  0  0  0  0  0  0  0  0
   -2.0193   -0.9950    0.0000 O   0  0  0  0  0  0  0  0  0  0  0  0
   -0.5853   -0.9950    0.0000 O   0  0  0  0  0  0  0  0  0  0  0  0
    3.2045    0.6731    0.0000 O   0  0  0  0  0  0  0  0  0  0  0  0
   -3.5411   -0.8487    0.0000 N   0  0  0  0  0  0  0  0  0  0  0  0
    0.1756    0.3220    0.0000 N   0  0  0  0  0  0  0  0  0  0  0  0
    1.5511    0.8487    0.0000 N   0  0  0  0  0  0  0  0  0  0  0  0
   -1.3023    0.2488    0.0000 C   0  0  0  0  0  0  0  0  0  0  0  0
   -2.7655   -0.5707    0.0000 C   0  0  0  0  0  0  0  0  0  0  0  0
   -2.7510    0.2488    0.0000 C   0  0  0  0  0  0  0  0  0  0  0  0
   -0.5853    0.6585    0.0000 C   0  0  0  0  0  0  0  0  0  0  0  0
   -1.3316   -0.5707    0.0000 C   0  0  0  0  0  0  0  0  0  0  0  0
   -2.0339    0.6585    0.0000 C   0  0  0  0  0  0  0  0  0  0  0  0
    0.7170    0.9365    0.0000 C   0  0  0  0  0  0  0  0  0  0  0  0
   -3.5411    0.4975    0.0000 C   0  0  0  0  0  0  0  0  0  0  0  0
   -0.4975    1.4779    0.0000 C   0  0  0  0  0  0  0  0  0  0  0  0
   -4.0240   -0.1610    0.0000 C   0  0  0  0  0  0  0  0  0  0  0  0
    1.8876    0.1024    0.0000 C   0  0  0  0  0  0  0  0  0  0  0  0
    2.7071    0.0000    0.0000 C   0  0  0  0  0  0  0  0  0  0  0  0
   -3.6728   -1.6535    0.0000 C   0  0  0  0  0  0  0  0  0  0  0  0
    1.4193   -0.5853    0.0000 C   0  0  0  0  0  0  0  0  0  0  0  0
    3.0436   -0.7609    0.0000 C   0  0  0  0  0  0  0  0  0  0  0  0
    1.7413   -1.3316    0.0000 C   0  0  0  0  0  0  0  0  0  0  0  0
    2.5607   -1.4193    0.0000 C   0  0  0  0  0  0  0  0  0  0  0  0
    4.0240    0.5853    0.0000 C   0  0  0  0  0  0  0  0  0  0  0  0
  1 14  1  0  0  0  0
  1 16  1  0  0  0  0
  2  9  1  0  0  0  0
  2 12  1  0  0  0  0
  3 12  2  0  0  0  0
  4 19  1  0  0  0  0
  4 25  1  0  0  0  0
  5  9  1  0  0  0  0
  5 17  1  0  0  0  0
  5 20  1  0  0  0  0
  6 11  1  0  0  0  0
  6 14  2  0  0  0  0
  7 14  1  0  0  0  0
  7 18  1  0  0  0  0
  8 11  1  0  0  0  0
  8 12  1  0  0  0  0
  8 13  2  0  0  0  0
  9 10  2  0  0  0  0
 10 13  1  0  0  0  0
 10 15  1  0  0  0  0
 11 16  2  0  0  0  0
 15 17  2  0  0  0  0
 18 19  1  0  0  0  0
 18 21  2  0  0  0  0
 19 22  2  0  0  0  0
 21 23  1  0  0  0  0
 22 24  1  0  0  0  0
 23 24  2  0  0  0  0
M  END
> <PUBCHEM_COMPOUND_ID_TYPE>
0

> <PUBCHEM_TOTAL_CHARGE>
0

> <PUBCHEM_SUBSTANCE_ID>
310941513

> <PUBCHEM_SUBSTANCE_VERSION>
1

> <PUBCHEM_EXT_DATASOURCE_NAME>
4488

> <PUBCHEM_EXT_DATASOURCE_REGID>
SCHEMBL16119544

> <PUBCHEM_SUBSTANCE_COMMENT>
InChI=1S/C18H15N3O3S/c1-21-8-7-11-9-12(17(22)24-16(11)21)14-10-25-18(20-14)19-13-5-3-4-6-15(13)23-2/h3-10H,1-2H3,(H,19,20)
InChIKey=NHMNCETUQVCQLM-UHFFFAOYSA-N

> <PUBCHEM_SUBSTANCE_SYNONYM>
SCHEMBL16119544

> <PUBCHEM_XREF_EXT_ID>
SCHEMBL16119544

> <PUBCHEM_EXT_DATASOURCE_URL>
https://www.surechembl.org/

> <PUBCHEM_EXT_SUBSTANCE_URL>
https://www.surechembl.org/chemical/SCHEMBL16119544

> <PUBCHEM_CID_ASSOCIATIONS>
117608332  1

> <PUBCHEM_COORDINATE_TYPE>
1
3

$$$$
