310945665
  -OEChem-07211613022D

100110  0     1  0  0  0  0  0999 V2000
   -0.3556   -2.0412    0.0000 O   0  0  0  0  0  0  0  0  0  0  0  0
    9.1320   -2.0412    0.0000 O   0  0  0  0  0  0  0  0  0  0  0  0
    2.2332    0.5192    0.0000 O   0  0  0  0  0  0  0  0  0  0  0  0
    6.5432    0.5192    0.0000 O   0  0  0  0  0  0  0  0  0  0  0  0
    2.2332   -1.1450    0.0000 O   0  0  0  0  0  0  0  0  0  0  0  0
    6.5432   -1.1450    0.0000 O   0  0  0  0  0  0  0  0  0  0  0  0
  -12.4747   -0.9317    0.0000 O   0  0  0  0  0  0  0  0  0  0  0  0
  -11.3367   -1.2446    0.0000 O   0  0  0  0  0  0  0  0  0  0  0  0
   14.3665   -2.8946    0.0000 O   0  0  0  0  0  0  0  0  0  0  0  0
  -12.4320   -2.1692    0.0000 O   0  0  0  0  0  0  0  0  0  0  0  0
  -14.4519   -1.4437    0.0000 O   0  0  0  0  0  0  0  0  0  0  0  0
  -15.0635   -1.2020    0.0000 O   0  0  0  0  0  0  0  0  0  0  0  0
  -14.4519   -0.4480    0.0000 O   0  0  0  0  0  0  0  0  0  0  0  0
  -13.2855    0.2916    0.0000 O   0  0  0  0  0  0  0  0  0  0  0  0
   -7.7380   -2.4822    0.0000 O   0  0  0  0  0  0  0  0  0  0  0  0
   -7.0268   -3.7339    0.0000 O   0  0  0  0  0  0  0  0  0  0  0  0
   -8.4634   -0.4054    0.0000 O   0  0  0  0  0  0  0  0  0  0  0  0
   -4.1535    3.7339    0.0000 O   0  0  0  0  0  0  0  0  0  0  0  0
   -2.2332    1.5149    0.0000 O   0  0  0  0  0  0  0  0  0  0  0  0
   -7.7380    3.3213    0.0000 O   0  0  0  0  0  0  0  0  0  0  0  0
   -1.3656   -1.0597    0.0000 N   0  0  0  0  0  0  0  0  0  0  0  0
   10.1846   -1.0597    0.0000 N   0  0  0  0  0  0  0  0  0  0  0  0
   -0.5547    0.6187    0.0000 N   0  0  0  0  0  0  0  0  0  0  0  0
    9.3738    0.6187    0.0000 N   0  0  0  0  0  0  0  0  0  0  0  0
   -9.8717   -0.4054    0.0000 N   0  0  0  0  0  0  0  0  0  0  0  0
   -6.2871   -2.4537    0.0000 N   0  0  0  0  0  0  0  0  0  0  0  0
   -8.4350    2.0839    0.0000 N   0  0  0  0  0  0  0  0  0  0  0  0
   -3.4138    2.4963    0.0000 N   0  0  0  0  0  0  0  0  0  0  0  0
    0.0853   -0.7183    0.0000 C   0  0  0  0  0  0  0  0  0  0  0  0
    8.6910   -0.7183    0.0000 C   0  0  0  0  0  0  0  0  0  0  0  0
   -0.5690   -1.2304    0.0000 C   0  0  0  0  0  0  0  0  0  0  0  0
    9.3738   -1.2304    0.0000 C   0  0  0  0  0  0  0  0  0  0  0  0
   -1.7353   -0.3059    0.0000 C   0  0  3  0  0  0  0  0  0  0  0  0
   10.5402   -0.2916    0.0000 C   0  0  3  0  0  0  0  0  0  0  0  0
    0.0853    0.1067    0.0000 C   0  0  0  0  0  0  0  0  0  0  0  0
    8.7053    0.1067    0.0000 C   0  0  0  0  0  0  0  0  0  0  0  0
   -2.7169   -1.2304    0.0000 C   0  0  0  0  0  0  0  0  0  0  0  0
   11.4932   -1.2304    0.0000 C   0  0  0  0  0  0  0  0  0  0  0  0
   -1.9629   -1.6287    0.0000 C   0  0  0  0  0  0  0  0  0  0  0  0
   10.7677   -1.6287    0.0000 C   0  0  0  0  0  0  0  0  0  0  0  0
   -2.5462   -0.4196    0.0000 C   0  0  0  0  0  0  0  0  0  0  0  0
   11.3510   -0.4339    0.0000 C   0  0  0  0  0  0  0  0  0  0  0  0
    0.8250   -1.1309    0.0000 C   0  0  0  0  0  0  0  0  0  0  0  0
    8.0083   -1.1309    0.0000 C   0  0  0  0  0  0  0  0  0  0  0  0
   -1.3656    0.4480    0.0000 C   0  0  0  0  0  0  0  0  0  0  0  0
   10.1704    0.4339    0.0000 C   0  0  0  0  0  0  0  0  0  0  0  0
    1.5220   -0.7183    0.0000 C   0  0  0  0  0  0  0  0  0  0  0  0
    7.2686   -0.7183    0.0000 C   0  0  0  0  0  0  0  0  0  0  0  0
    1.5220    0.1067    0.0000 C   0  0  0  0  0  0  0  0  0  0  0  0
    7.2686    0.1067    0.0000 C   0  0  0  0  0  0  0  0  0  0  0  0
    0.7966    0.5050    0.0000 C   0  0  0  0  0  0  0  0  0  0  0  0
    7.9798    0.5050    0.0000 C   0  0  0  0  0  0  0  0  0  0  0  0
   -3.4138   -1.6429    0.0000 C   0  0  0  0  0  0  0  0  0  0  0  0
   12.2186   -1.6572    0.0000 C   0  0  0  0  0  0  0  0  0  0  0  0
   -4.1251   -1.2446    0.0000 C   0  0  0  0  0  0  0  0  0  0  0  0
   -3.4138   -2.4822    0.0000 C   0  0  0  0  0  0  0  0  0  0  0  0
   12.2329   -2.4822    0.0000 C   0  0  0  0  0  0  0  0  0  0  0  0
   12.9441   -1.2446    0.0000 C   0  0  0  0  0  0  0  0  0  0  0  0
   -4.8505   -2.4822    0.0000 C   0  0  0  0  0  0  0  0  0  0  0  0
   -4.8362   -1.6572    0.0000 C   0  0  0  0  0  0  0  0  0  0  0  0
   -4.1251   -2.8946    0.0000 C   0  0  0  0  0  0  0  0  0  0  0  0
  -12.0480   -1.6287    0.0000 C   0  0  3  0  0  0  0  0  0  0  0  0
   12.9441   -2.8946    0.0000 C   0  0  0  0  0  0  0  0  0  0  0  0
   13.6553   -1.6572    0.0000 C   0  0  0  0  0  0  0  0  0  0  0  0
   13.6411   -2.4679    0.0000 C   0  0  0  0  0  0  0  0  0  0  0  0
  -12.8019   -1.4722    0.0000 C   0  0  3  0  0  0  0  0  0  0  0  0
  -13.2855   -1.1309    0.0000 C   0  0  3  0  0  0  0  0  0  0  0  0
  -13.6553   -1.6145    0.0000 C   0  0  3  0  0  0  0  0  0  0  0  0
  -14.0252   -0.9459    0.0000 C   0  0  3  0  0  0  0  0  0  0  0  0
    2.9586    0.1067    0.0000 C   0  0  0  0  0  0  0  0  0  0  0  0
    5.8462    0.1067    0.0000 C   0  0  0  0  0  0  0  0  0  0  0  0
  -10.5971   -1.6429    0.0000 C   0  0  0  0  0  0  0  0  0  0  0  0
   -9.8859   -1.2446    0.0000 C   0  0  0  0  0  0  0  0  0  0  0  0
  -13.6695   -0.4339    0.0000 C   0  0  0  0  0  0  0  0  0  0  0  0
    2.2332   -1.9559    0.0000 C   0  0  0  0  0  0  0  0  0  0  0  0
    6.5432   -1.9559    0.0000 C   0  0  0  0  0  0  0  0  0  0  0  0
   -5.5759   -2.8946    0.0000 C   0  0  0  0  0  0  0  0  0  0  0  0
    3.6699    0.5192    0.0000 C   0  0  0  0  0  0  0  0  0  0  0  0
    5.1065    0.5192    0.0000 C   0  0  0  0  0  0  0  0  0  0  0  0
  -10.5971   -2.4822    0.0000 C   0  0  0  0  0  0  0  0  0  0  0  0
   -9.1604   -1.6572    0.0000 C   0  0  0  0  0  0  0  0  0  0  0  0
   -9.1747   -2.4679    0.0000 C   0  0  0  0  0  0  0  0  0  0  0  0
    4.3953    0.1067    0.0000 C   0  0  0  0  0  0  0  0  0  0  0  0
   -9.9001   -2.8805    0.0000 C   0  0  0  0  0  0  0  0  0  0  0  0
   -8.4350   -2.8946    0.0000 C   0  0  0  0  0  0  0  0  0  0  0  0
   -6.9984   -2.8805    0.0000 C   0  0  0  0  0  0  0  0  0  0  0  0
   -9.1889    0.0213    0.0000 C   0  0  0  0  0  0  0  0  0  0  0  0
   15.0635   -2.5106    0.0000 C   0  0  0  0  0  0  0  0  0  0  0  0
   -9.1462    0.8463    0.0000 C   0  0  0  0  0  0  0  0  0  0  0  0
   -8.4493    1.2446    0.0000 C   0  0  0  0  0  0  0  0  0  0  0  0
   -7.7380    2.4822    0.0000 C   0  0  0  0  0  0  0  0  0  0  0  0
   -2.6315    2.2546    0.0000 C   0  0  0  0  0  0  0  0  0  0  0  0
   -3.3996    3.3213    0.0000 C   0  0  0  0  0  0  0  0  0  0  0  0
   -2.1336    2.9089    0.0000 C   0  0  0  0  0  0  0  0  0  0  0  0
   -2.6457    3.5774    0.0000 C   0  0  0  0  0  0  0  0  0  0  0  0
   -4.1251    2.0839    0.0000 C   0  0  0  0  0  0  0  0  0  0  0  0
   -7.0125    2.0839    0.0000 C   0  0  0  0  0  0  0  0  0  0  0  0
   -4.8647    2.4963    0.0000 C   0  0  0  0  0  0  0  0  0  0  0  0
   -6.3014    2.4963    0.0000 C   0  0  0  0  0  0  0  0  0  0  0  0
   -5.5759    2.0839    0.0000 C   0  0  0  0  0  0  0  0  0  0  0  0
  1 31  2  0  0  0  0
  2 32  2  0  0  0  0
  3 49  1  0  0  0  0
  3 70  1  0  0  0  0
  4 50  1  0  0  0  0
  4 71  1  0  0  0  0
  5 47  1  0  0  0  0
  5 75  1  0  0  0  0
  6 48  1  0  0  0  0
  6 76  1  0  0  0  0
  7 62  1  0  0  0  0
  7 67  1  0  0  0  0
 62  8  1  1  0  0  0
  8 72  1  0  0  0  0
  9 65  1  0  0  0  0
  9 88  1  0  0  0  0
 66 10  1  6  0  0  0
 11 68  1  0  0  0  0
 69 12  1  6  0  0  0
 13 74  2  0  0  0  0
 14 74  1  0  0  0  0
 15 85  1  0  0  0  0
 15 86  1  0  0  0  0
 16 86  2  0  0  0  0
 17 87  2  0  0  0  0
 18 93  2  0  0  0  0
 19 92  2  0  0  0  0
 20 91  2  0  0  0  0
 21 31  1  0  0  0  0
 33 21  1  1  0  0  0
 21 39  1  0  0  0  0
 22 32  1  0  0  0  0
 34 22  1  6  0  0  0
 22 40  1  0  0  0  0
 23 35  1  0  0  0  0
 23 45  2  0  0  0  0
 24 36  1  0  0  0  0
 24 46  2  0  0  0  0
 25 73  1  0  0  0  0
 25 87  1  0  0  0  0
 26 77  1  0  0  0  0
 26 86  1  0  0  0  0
 27 90  1  0  0  0  0
 27 91  1  0  0  0  0
 28 92  1  0  0  0  0
 28 93  1  0  0  0  0
 28 96  1  0  0  0  0
 29 31  1  0  0  0  0
 29 35  2  0  0  0  0
 29 43  1  0  0  0  0
 30 32  1  0  0  0  0
 30 36  1  0  0  0  0
 30 44  2  0  0  0  0
 33 41  1  0  0  0  0
 33 45  1  0  0  0  0
 34 42  1  0  0  0  0
 34 46  1  0  0  0  0
 35 51  1  0  0  0  0
 36 52  2  0  0  0  0
 37 39  2  0  0  0  0
 37 41  1  0  0  0  0
 37 53  1  0  0  0  0
 38 40  2  0  0  0  0
 38 42  1  0  0  0  0
 38 54  1  0  0  0  0
 43 47  2  0  0  0  0
 44 48  1  0  0  0  0
 47 49  1  0  0  0  0
 48 50  2  0  0  0  0
 49 51  2  0  0  0  0
 50 52  1  0  0  0  0
 53 55  2  0  0  0  0
 53 56  1  0  0  0  0
 54 57  2  0  0  0  0
 54 58  1  0  0  0  0
 55 60  1  0  0  0  0
 56 61  2  0  0  0  0
 57 63  1  0  0  0  0
 58 64  2  0  0  0  0
 59 60  2  0  0  0  0
 59 61  1  0  0  0  0
 59 77  1  0  0  0  0
 62 66  1  0  0  0  0
 63 65  2  0  0  0  0
 64 65  1  0  0  0  0
 66 68  1  0  0  0  0
 67 69  1  0  0  0  0
 67 74  1  0  0  0  0
 68 69  1  0  0  0  0
 70 78  1  0  0  0  0
 71 79  1  0  0  0  0
 72 73  1  0  0  0  0
 72 80  2  0  0  0  0
 73 81  2  0  0  0  0
 78 83  1  0  0  0  0
 79 83  1  0  0  0  0
 80 84  1  0  0  0  0
 81 82  1  0  0  0  0
 82 84  2  0  0  0  0
 82 85  1  0  0  0  0
 87 89  1  0  0  0  0
 89 90  1  0  0  0  0
 91 97  1  0  0  0  0
 92 94  1  0  0  0  0
 93 95  1  0  0  0  0
 94 95  2  0  0  0  0
 96 98  1  0  0  0  0
 97 99  1  0  0  0  0
 98100  1  0  0  0  0
 99100  1  0  0  0  0
M  END
> <PUBCHEM_COMPOUND_ID_TYPE>
0

> <PUBCHEM_TOTAL_CHARGE>
0

> <PUBCHEM_SUBSTANCE_ID>
310945665

> <PUBCHEM_SUBSTANCE_VERSION>
1

> <PUBCHEM_EXT_DATASOURCE_NAME>
4488

> <PUBCHEM_EXT_DATASOURCE_REGID>
SCHEMBL16123765

> <PUBCHEM_SUBSTANCE_COMMENT>
InChI=1S/C72H76N8O20/c1-93-49-18-16-44(17-19-49)46-30-48-37-75-53-34-59(57(95-3)32-51(53)69(89)80(48)39-46)97-27-9-5-8-26-96-58-33-52-50(31-56(58)94-2)68(88)79-38-45(29-47(79)36-74-52)43-14-11-41(12-15-43)35-76-72(92)98-40-42-13-20-55(99-71-66(87)64(85)65(86)67(100-71)70(90)91)54(28-42)77-61(82)23-24-73-60(81)10-6-4-7-25-78-62(83)21-22-63(78)84/h11-22,28,31-34,36-39,47-48,64-67,71,85-87H,4-10,23-27,29-30,35,40H2,1-3H3,(H,73,81)(H,76,92)(H,77,82)(H,90,91)/t47-,48-,64?,65-,66-,67?,71+/m0/s1
InChIKey=LQANKAALFRLXRZ-SZDSIOHWSA-N

> <PUBCHEM_SUBSTANCE_SYNONYM>
SCHEMBL16123765

> <PUBCHEM_XREF_EXT_ID>
SCHEMBL16123765

> <PUBCHEM_EXT_DATASOURCE_URL>
https://www.surechembl.org/

> <PUBCHEM_EXT_SUBSTANCE_URL>
https://www.surechembl.org/chemical/SCHEMBL16123765

> <PUBCHEM_CID_ASSOCIATIONS>
117611666  1

> <PUBCHEM_COORDINATE_TYPE>
1
3

> <PUBCHEM_BONDANNOTATIONS>
66  10  6
69  12  6
33  21  5
34  22  6
62  8  5

$$$$
