310942617
  -OEChem-07211613022D

 17 18  0     0  0  0  0  0  0999 V2000
   -1.5587    0.6155    0.0000 S   0  0  0  0  0  0  0  0  0  0  0  0
    2.0546    1.8465    0.0000 O   0  0  0  0  0  0  0  0  0  0  0  0
    1.3373    0.6066    0.0000 N   0  0  0  0  0  0  0  0  0  0  0  0
   -0.1063    0.6066    0.0000 N   0  0  0  0  0  0  0  0  0  0  0  0
   -0.8324    1.8465    0.0000 N   0  0  0  0  0  0  0  0  0  0  0  0
    2.0103   -0.8014    0.0000 N   0  0  0  0  0  0  0  0  0  0  0  0
    1.7800   -1.5719    0.0000 N   0  0  0  0  0  0  0  0  0  0  0  0
    0.6023    1.0229    0.0000 C   0  0  0  0  0  0  0  0  0  0  0  0
    0.6200    1.8465    0.0000 C   0  0  0  0  0  0  0  0  0  0  0  0
    1.3196   -0.2967    0.0000 C   0  0  0  0  0  0  0  0  0  0  0  0
   -0.8413    1.0229    0.0000 C   0  0  0  0  0  0  0  0  0  0  0  0
   -0.1151    2.2538    0.0000 C   0  0  0  0  0  0  0  0  0  0  0  0
    0.6731   -0.7926    0.0000 C   0  0  0  0  0  0  0  0  0  0  0  0
    1.3284    2.2538    0.0000 C   0  0  0  0  0  0  0  0  0  0  0  0
    0.9476   -1.5719    0.0000 C   0  0  0  0  0  0  0  0  0  0  0  0
    2.2848   -2.2538    0.0000 C   0  0  0  0  0  0  0  0  0  0  0  0
   -2.2848    1.0140    0.0000 C   0  0  0  0  0  0  0  0  0  0  0  0
  1 11  1  0  0  0  0
  1 17  1  0  0  0  0
  2 14  1  0  0  0  0
  3  8  1  0  0  0  0
  3 10  1  0  0  0  0
  4  8  2  0  0  0  0
  4 11  1  0  0  0  0
  5 11  2  0  0  0  0
  5 12  1  0  0  0  0
  6  7  1  0  0  0  0
  6 10  2  0  0  0  0
  7 15  1  0  0  0  0
  7 16  1  0  0  0  0
  8  9  1  0  0  0  0
  9 12  2  0  0  0  0
  9 14  1  0  0  0  0
 10 13  1  0  0  0  0
 13 15  2  0  0  0  0
M  END
> <PUBCHEM_COMPOUND_ID_TYPE>
0

> <PUBCHEM_TOTAL_CHARGE>
0

> <PUBCHEM_SUBSTANCE_ID>
310942617

> <PUBCHEM_SUBSTANCE_VERSION>
1

> <PUBCHEM_EXT_DATASOURCE_NAME>
4488

> <PUBCHEM_EXT_DATASOURCE_REGID>
SCHEMBL16120663

> <PUBCHEM_SUBSTANCE_COMMENT>
InChI=1S/C10H13N5OS/c1-15-4-3-8(14-15)12-9-7(6-16)5-11-10(13-9)17-2/h3-5,16H,6H2,1-2H3,(H,11,12,13,14)
InChIKey=NOIXMOQHALQFRR-UHFFFAOYSA-N

> <PUBCHEM_SUBSTANCE_SYNONYM>
SCHEMBL16120663

> <PUBCHEM_XREF_EXT_ID>
SCHEMBL16120663

> <PUBCHEM_EXT_DATASOURCE_URL>
https://www.surechembl.org/

> <PUBCHEM_EXT_SUBSTANCE_URL>
https://www.surechembl.org/chemical/SCHEMBL16120663

> <PUBCHEM_CID_ASSOCIATIONS>
117609149  1

> <PUBCHEM_COORDINATE_TYPE>
1
3

$$$$
