310942796
  -OEChem-07211613022D

 56 61  0     1  0  0  0  0  0999 V2000
   -1.7048    2.3647    0.0000 F   0  0  0  0  0  0  0  0  0  0  0  0
   -1.7048   -0.9487    0.0000 F   0  0  0  0  0  0  0  0  0  0  0  0
    4.7570    0.4674    0.0000 F   0  0  0  0  0  0  0  0  0  0  0  0
    0.6599    6.1181    0.0000 F   0  0  0  0  0  0  0  0  0  0  0  0
    0.8111    0.6049    0.0000 O   0  0  0  0  0  0  0  0  0  0  0  0
    0.6049   -0.6187    0.0000 O   0  0  0  0  0  0  0  0  0  0  0  0
    3.3134    3.7397    0.0000 O   0  0  0  0  0  0  0  0  0  0  0  0
    0.9762   -1.9936    0.0000 O   0  0  0  0  0  0  0  0  0  0  0  0
   -3.9321   -3.2721    0.0000 O   0  0  0  0  0  0  0  0  0  0  0  0
   -3.3821   -6.1181    0.0000 O   0  0  0  0  0  0  0  0  0  0  0  0
   -1.6224   -3.4372    0.0000 O   0  0  0  0  0  0  0  0  0  0  0  0
    0.6325    2.5298    0.0000 N   0  0  0  0  0  0  0  0  0  0  0  0
    2.1998    0.9762    0.0000 N   0  0  0  0  0  0  0  0  0  0  0  0
    0.4812    1.1962    0.0000 N   0  0  0  0  0  0  0  0  0  0  0  0
    3.4372   -1.2099    0.0000 N   0  0  0  0  0  0  0  0  0  0  0  0
   -0.4125   -1.6224    0.0000 N   0  0  0  0  0  0  0  0  0  0  0  0
   -3.4234   -4.6471    0.0000 N   0  0  0  0  0  0  0  0  0  0  0  0
    1.0311    1.8424    0.0000 C   0  0  0  0  0  0  0  0  0  0  0  0
    1.8561    1.7324    0.0000 C   0  0  3  0  0  0  0  0  0  0  0  0
   -0.2888    1.5536    0.0000 C   0  0  0  0  0  0  0  0  0  0  0  0
    2.3373    2.4198    0.0000 C   0  0  0  0  0  0  0  0  0  0  0  0
   -0.1788    2.3785    0.0000 C   0  0  0  0  0  0  0  0  0  0  0  0
   -0.9899    1.1274    0.0000 C   0  0  0  0  0  0  0  0  0  0  0  0
    1.6086    0.3987    0.0000 C   0  0  0  0  0  0  0  0  0  0  0  0
    0.9624    3.2997    0.0000 C   0  0  0  0  0  0  0  0  0  0  0  0
    2.9972    0.8937    0.0000 C   0  0  0  0  0  0  0  0  0  0  0  0
   -1.7048    1.5536    0.0000 C   0  0  0  0  0  0  0  0  0  0  0  0
    3.3134    0.1512    0.0000 C   0  0  3  0  0  0  0  0  0  0  0  0
    2.0073    3.1347    0.0000 C   0  0  0  0  0  0  0  0  0  0  0  0
    3.1622    2.3235    0.0000 C   0  0  0  0  0  0  0  0  0  0  0  0
   -1.0036    0.3025    0.0000 C   0  0  0  0  0  0  0  0  0  0  0  0
    1.3886   -0.3987    0.0000 C   0  0  3  0  0  0  0  0  0  0  0  0
    0.4812    3.9596    0.0000 C   0  0  0  0  0  0  0  0  0  0  0  0
   -1.7048   -0.0963    0.0000 C   0  0  0  0  0  0  0  0  0  0  0  0
    4.1246   -0.0550    0.0000 C   0  0  3  0  0  0  0  0  0  0  0  0
   -2.4335    1.1274    0.0000 C   0  0  0  0  0  0  0  0  0  0  0  0
    2.4885    3.8358    0.0000 C   0  0  0  0  0  0  0  0  0  0  0  0
    3.6434    3.0109    0.0000 C   0  0  0  0  0  0  0  0  0  0  0  0
    2.9010   -0.5912    0.0000 C   0  0  0  0  0  0  0  0  0  0  0  0
   -2.4335    0.3025    0.0000 C   0  0  0  0  0  0  0  0  0  0  0  0
    0.8111    4.7020    0.0000 C   0  0  0  0  0  0  0  0  0  0  0  0
   -0.3437    3.8909    0.0000 C   0  0  0  0  0  0  0  0  0  0  0  0
    4.1795   -0.8937    0.0000 C   0  0  0  0  0  0  0  0  0  0  0  0
    1.9661   -0.9762    0.0000 C   0  0  0  0  0  0  0  0  0  0  0  0
    0.3162    5.3757    0.0000 C   0  0  0  0  0  0  0  0  0  0  0  0
    0.3574   -1.3886    0.0000 C   0  0  0  0  0  0  0  0  0  0  0  0
   -0.8111    4.5371    0.0000 C   0  0  0  0  0  0  0  0  0  0  0  0
   -0.4812    5.2932    0.0000 C   0  0  0  0  0  0  0  0  0  0  0  0
   -3.7946   -5.3757    0.0000 C   0  0  0  0  0  0  0  0  0  0  0  0
   -4.0558   -4.1108    0.0000 C   0  0  0  0  0  0  0  0  0  0  0  0
   -0.6325   -2.4198    0.0000 C   0  0  0  0  0  0  0  0  0  0  0  0
   -4.7570   -4.4958    0.0000 C   0  0  0  0  0  0  0  0  0  0  0  0
   -4.6058   -5.2932    0.0000 C   0  0  0  0  0  0  0  0  0  0  0  0
   -2.6398   -4.4408    0.0000 C   0  0  0  0  0  0  0  0  0  0  0  0
   -1.4161   -2.6260    0.0000 C   0  0  0  0  0  0  0  0  0  0  0  0
   -2.4198   -3.6434    0.0000 C   0  0  0  0  0  0  0  0  0  0  0  0
  1 27  1  0  0  0  0
  2 34  1  0  0  0  0
 35  3  1  1  0  0  0
  4 45  1  0  0  0  0
  5 24  2  0  0  0  0
  6 32  1  0  0  0  0
  6 46  1  0  0  0  0
  7 37  1  0  0  0  0
  7 38  1  0  0  0  0
  8 46  2  0  0  0  0
  9 50  2  0  0  0  0
 10 49  2  0  0  0  0
 11 55  1  0  0  0  0
 11 56  1  0  0  0  0
 12 18  1  0  0  0  0
 12 22  1  0  0  0  0
 12 25  1  0  0  0  0
 19 13  1  1  0  0  0
 13 24  1  0  0  0  0
 13 26  1  0  0  0  0
 14 18  2  0  0  0  0
 14 20  1  0  0  0  0
 15 39  1  0  0  0  0
 15 43  1  0  0  0  0
 16 46  1  0  0  0  0
 16 51  1  0  0  0  0
 17 49  1  0  0  0  0
 17 50  1  0  0  0  0
 17 54  1  0  0  0  0
 18 19  1  0  0  0  0
 19 21  1  0  0  0  0
 20 22  2  0  0  0  0
 20 23  1  0  0  0  0
 21 29  1  0  0  0  0
 21 30  1  0  0  0  0
 23 27  2  0  0  0  0
 23 31  1  0  0  0  0
 24 32  1  0  0  0  0
 25 33  1  0  0  0  0
 28 26  1  1  0  0  0
 27 36  1  0  0  0  0
 28 35  1  0  0  0  0
 28 39  1  0  0  0  0
 29 37  1  0  0  0  0
 30 38  1  0  0  0  0
 31 34  2  0  0  0  0
 32 44  1  6  0  0  0
 33 41  1  0  0  0  0
 33 42  2  0  0  0  0
 34 40  1  0  0  0  0
 35 43  1  0  0  0  0
 36 40  2  0  0  0  0
 41 45  2  0  0  0  0
 42 47  1  0  0  0  0
 45 48  1  0  0  0  0
 47 48  2  0  0  0  0
 49 53  1  0  0  0  0
 50 52  1  0  0  0  0
 51 55  1  0  0  0  0
 52 53  2  0  0  0  0
 54 56  1  0  0  0  0
M  END
> <PUBCHEM_COMPOUND_ID_TYPE>
0

> <PUBCHEM_TOTAL_CHARGE>
0

> <PUBCHEM_SUBSTANCE_ID>
310942796

> <PUBCHEM_SUBSTANCE_VERSION>
1

> <PUBCHEM_EXT_DATASOURCE_NAME>
4488

> <PUBCHEM_EXT_DATASOURCE_REGID>
SCHEMBL16120849

> <PUBCHEM_SUBSTANCE_COMMENT>
InChI=1S/C39H44F4N6O7/c1-24(56-39(53)45-11-15-55-16-12-48-34(50)7-8-35(48)51)38(52)49(22-27-19-44-20-32(27)43)36(26-9-13-54-14-10-26)37-46-33(30-18-29(41)5-6-31(30)42)23-47(37)21-25-3-2-4-28(40)17-25/h2-8,17-18,23-24,26-27,32,36,44H,9-16,19-22H2,1H3,(H,45,53)/t24-,27-,32-,36+/m0/s1
InChIKey=JVKZGPJVHFKYBK-YZMCBOSSSA-N

> <PUBCHEM_SUBSTANCE_SYNONYM>
SCHEMBL16120849

> <PUBCHEM_XREF_EXT_ID>
SCHEMBL16120849

> <PUBCHEM_EXT_DATASOURCE_URL>
https://www.surechembl.org/

> <PUBCHEM_EXT_SUBSTANCE_URL>
https://www.surechembl.org/chemical/SCHEMBL16120849

> <PUBCHEM_CID_ASSOCIATIONS>
117609301  1

> <PUBCHEM_COORDINATE_TYPE>
1
3

> <PUBCHEM_BONDANNOTATIONS>
19  13  5
28  26  5
35  3  5
32  44  6

$$$$
