310944756
  -OEChem-07211613022D

 30 32  0     0  0  0  0  0  0999 V2000
   -3.4173   -1.4744    0.0000 Cl  0  0  0  0  0  0  0  0  0  0  0  0
   -0.3686   -1.4744    0.0000 O   0  0  0  0  0  0  0  0  0  0  0  0
   -3.9795    2.2741    0.0000 O   0  0  0  0  0  0  0  0  0  0  0  0
    1.0683    1.0246    0.0000 O   0  0  0  0  0  0  0  0  0  0  0  0
    4.6793   -1.0621    0.0000 O   0  0  0  0  0  0  0  0  0  0  0  0
   -0.3561    0.1874    0.0000 N   0  0  0  0  0  0  0  0  0  0  0  0
    1.8180   -0.2249    0.0000 N   0  0  0  0  0  0  0  0  0  0  0  0
    3.2549   -1.0621    0.0000 N   0  0  0  0  0  0  0  0  0  0  0  0
   -2.5052   -0.2249    0.0000 C   0  0  0  0  0  0  0  0  0  0  0  0
   -1.0808   -0.2124    0.0000 C   0  0  0  0  0  0  0  0  0  0  0  0
   -3.2549    0.1999    0.0000 C   0  0  0  0  0  0  0  0  0  0  0  0
   -2.5302   -1.0495    0.0000 C   0  0  0  0  0  0  0  0  0  0  0  0
   -1.7930    0.1874    0.0000 C   0  0  0  0  0  0  0  0  0  0  0  0
   -1.0933   -1.0495    0.0000 C   0  0  0  0  0  0  0  0  0  0  0  0
   -1.8055   -1.4619    0.0000 C   0  0  0  0  0  0  0  0  0  0  0  0
   -3.2424    1.0246    0.0000 C   0  0  0  0  0  0  0  0  0  0  0  0
    1.0683    0.1749    0.0000 C   0  0  0  0  0  0  0  0  0  0  0  0
   -3.9671   -0.2124    0.0000 C   0  0  0  0  0  0  0  0  0  0  0  0
   -3.9671    1.4369    0.0000 C   0  0  0  0  0  0  0  0  0  0  0  0
    0.3686   -0.2249    0.0000 C   0  0  0  0  0  0  0  0  0  0  0  0
    2.5302    0.1874    0.0000 C   0  0  0  0  0  0  0  0  0  0  0  0
    1.8055   -1.0495    0.0000 C   0  0  0  0  0  0  0  0  0  0  0  0
    3.2549   -0.2249    0.0000 C   0  0  0  0  0  0  0  0  0  0  0  0
    2.5427   -1.4744    0.0000 C   0  0  0  0  0  0  0  0  0  0  0  0
   -4.6668    0.1999    0.0000 C   0  0  0  0  0  0  0  0  0  0  0  0
   -4.6668    1.0246    0.0000 C   0  0  0  0  0  0  0  0  0  0  0  0
    3.9671   -1.4744    0.0000 C   0  0  0  0  0  0  0  0  0  0  0  0
    3.9671   -2.3116    0.0000 C   0  0  0  0  0  0  0  0  0  0  0  0
   -4.6793    2.6864    0.0000 C   0  0  0  0  0  0  0  0  0  0  0  0
    3.2299   -2.6864    0.0000 C   0  0  0  0  0  0  0  0  0  0  0  0
  1 12  1  0  0  0  0
  2 14  1  0  0  0  0
  3 19  1  0  0  0  0
  3 29  1  0  0  0  0
  4 17  2  0  0  0  0
  5 27  2  0  0  0  0
  6 10  1  0  0  0  0
  6 20  1  0  0  0  0
  7 17  1  0  0  0  0
  7 21  1  0  0  0  0
  7 22  1  0  0  0  0
  8 23  1  0  0  0  0
  8 24  1  0  0  0  0
  8 27  1  0  0  0  0
  9 11  1  0  0  0  0
  9 12  2  0  0  0  0
  9 13  1  0  0  0  0
 10 13  2  0  0  0  0
 10 14  1  0  0  0  0
 11 16  1  0  0  0  0
 11 18  2  0  0  0  0
 12 15  1  0  0  0  0
 14 15  2  0  0  0  0
 16 19  2  0  0  0  0
 17 20  1  0  0  0  0
 18 25  1  0  0  0  0
 19 26  1  0  0  0  0
 21 23  1  0  0  0  0
 22 24  1  0  0  0  0
 25 26  2  0  0  0  0
 27 28  1  0  0  0  0
 28 30  2  0  0  0  0
M  END
> <PUBCHEM_COMPOUND_ID_TYPE>
0

> <PUBCHEM_TOTAL_CHARGE>
0

> <PUBCHEM_SUBSTANCE_ID>
310944756

> <PUBCHEM_SUBSTANCE_VERSION>
1

> <PUBCHEM_EXT_DATASOURCE_NAME>
4488

> <PUBCHEM_EXT_DATASOURCE_REGID>
SCHEMBL16122835

> <PUBCHEM_SUBSTANCE_COMMENT>
InChI=1S/C22H24ClN3O4/c1-3-21(28)25-7-9-26(10-8-25)22(29)14-24-19-12-17(18(23)13-20(19)27)15-5-4-6-16(11-15)30-2/h3-6,11-13,24,27H,1,7-10,14H2,2H3
InChIKey=LEXIRHLSHONCNY-UHFFFAOYSA-N

> <PUBCHEM_SUBSTANCE_SYNONYM>
SCHEMBL16122835

> <PUBCHEM_XREF_EXT_ID>
SCHEMBL16122835

> <PUBCHEM_EXT_DATASOURCE_URL>
https://www.surechembl.org/

> <PUBCHEM_EXT_SUBSTANCE_URL>
https://www.surechembl.org/chemical/SCHEMBL16122835

> <PUBCHEM_CID_ASSOCIATIONS>
117610972  1

> <PUBCHEM_COORDINATE_TYPE>
1
3

$$$$
