310929301
  -OEChem-07211613022D

 26 28  0     0  0  0  0  0  0999 V2000
    4.9523   -0.7198    0.0000 F   0  0  0  0  0  0  0  0  0  0  0  0
    6.5648   -0.7198    0.0000 F   0  0  0  0  0  0  0  0  0  0  0  0
    4.1174   -2.1595    0.0000 O   0  0  0  0  0  0  0  0  0  0  0  0
    7.3997   -0.7198    0.0000 O   0  0  0  0  0  0  0  0  0  0  0  0
    8.6378   -1.4396    0.0000 O   0  0  0  0  0  0  0  0  0  0  0  0
    7.3997   -2.1595    0.0000 N   0  0  0  0  0  0  0  0  0  0  0  0
    2.9080   -0.0288    0.0000 N   0  0  0  0  0  0  0  0  0  0  0  0
    1.6700   -0.6910    0.0000 N   0  0  0  0  0  0  0  0  0  0  0  0
    4.9523   -2.1595    0.0000 C   0  0  0  0  0  0  0  0  0  0  0  0
    5.3554   -1.4396    0.0000 C   0  0  0  0  0  0  0  0  0  0  0  0
    6.1616   -1.4396    0.0000 C   0  0  0  0  0  0  0  0  0  0  0  0
    6.5935   -2.1595    0.0000 C   0  0  0  0  0  0  0  0  0  0  0  0
    5.3554   -2.8793    0.0000 C   0  0  0  0  0  0  0  0  0  0  0  0
    3.7143   -1.4396    0.0000 C   0  0  0  0  0  0  0  0  0  0  0  0
    6.1616   -2.8793    0.0000 C   0  0  0  0  0  0  0  0  0  0  0  0
    2.5049   -0.7198    0.0000 C   0  0  0  0  0  0  0  0  0  0  0  0
    2.8793   -1.4685    0.0000 C   0  0  0  0  0  0  0  0  0  0  0  0
    4.1174   -0.7486    0.0000 C   0  0  0  0  0  0  0  0  0  0  0  0
    3.7431    0.0000    0.0000 C   0  0  0  0  0  0  0  0  0  0  0  0
    7.8316   -1.4396    0.0000 C   0  0  0  0  0  0  0  0  0  0  0  0
    1.2381   -1.4108    0.0000 C   0  0  0  0  0  0  0  0  0  0  0  0
    1.6412   -2.1307    0.0000 C   0  0  0  0  0  0  0  0  0  0  0  0
    0.4319   -1.3820    0.0000 C   0  0  0  0  0  0  0  0  0  0  0  0
    1.2381   -2.8217    0.0000 C   0  0  0  0  0  0  0  0  0  0  0  0
    0.0000   -2.1019    0.0000 C   0  0  0  0  0  0  0  0  0  0  0  0
    0.4031   -2.7929    0.0000 C   0  0  0  0  0  0  0  0  0  0  0  0
  1 10  1  0  0  0  0
  2 11  1  0  0  0  0
  3  9  1  0  0  0  0
  3 14  1  0  0  0  0
  4 20  2  0  0  0  0
  5 20  1  0  0  0  0
  6 12  1  0  0  0  0
  6 20  1  0  0  0  0
  7 16  1  0  0  0  0
  7 19  2  0  0  0  0
  8 16  1  0  0  0  0
  8 21  1  0  0  0  0
  9 10  1  0  0  0  0
  9 13  2  0  0  0  0
 10 11  2  0  0  0  0
 11 12  1  0  0  0  0
 12 15  2  0  0  0  0
 13 15  1  0  0  0  0
 14 17  1  0  0  0  0
 14 18  2  0  0  0  0
 16 17  2  0  0  0  0
 18 19  1  0  0  0  0
 21 22  2  0  0  0  0
 21 23  1  0  0  0  0
 22 24  1  0  0  0  0
 23 25  2  0  0  0  0
 24 26  2  0  0  0  0
 25 26  1  0  0  0  0
M  END
> <PUBCHEM_COMPOUND_ID_TYPE>
0

> <PUBCHEM_TOTAL_CHARGE>
0

> <PUBCHEM_SUBSTANCE_ID>
310929301

> <PUBCHEM_SUBSTANCE_VERSION>
1

> <PUBCHEM_EXT_DATASOURCE_NAME>
4488

> <PUBCHEM_EXT_DATASOURCE_REGID>
SCHEMBL16106465

> <PUBCHEM_SUBSTANCE_COMMENT>
InChI=1S/C18H13F2N3O3/c19-16-13(23-18(24)25)6-7-14(17(16)20)26-12-8-9-21-15(10-12)22-11-4-2-1-3-5-11/h1-10,23H,(H,21,22)(H,24,25)
InChIKey=UJIVATIRCMBXSF-UHFFFAOYSA-N

> <PUBCHEM_SUBSTANCE_SYNONYM>
SCHEMBL16106465

> <PUBCHEM_XREF_EXT_ID>
SCHEMBL16106465

> <PUBCHEM_EXT_DATASOURCE_URL>
https://www.surechembl.org/

> <PUBCHEM_EXT_SUBSTANCE_URL>
https://www.surechembl.org/chemical/SCHEMBL16106465

> <PUBCHEM_CID_ASSOCIATIONS>
117598707  1

> <PUBCHEM_COORDINATE_TYPE>
1
3

$$$$
