310942044
  -OEChem-07211613022D

 23 25  0     0  0  0  0  0  0999 V2000
   -1.9755   -2.8910    0.0000 F   0  0  0  0  0  0  0  0  0  0  0  0
   -0.4482    2.4427    0.0000 O   0  0  0  0  0  0  0  0  0  0  0  0
    2.5757    1.7969    0.0000 O   0  0  0  0  0  0  0  0  0  0  0  0
   -0.5394   -0.4065    0.0000 N   0  0  0  0  0  0  0  0  0  0  0  0
   -1.8083    2.8910    0.0000 N   0  0  0  0  0  0  0  0  0  0  0  0
   -0.9725    0.8700    0.0000 C   0  0  0  0  0  0  0  0  0  0  0  0
   -0.1291    0.8624    0.0000 C   0  0  0  0  0  0  0  0  0  0  0  0
   -1.2232    0.0798    0.0000 C   0  0  0  0  0  0  0  0  0  0  0  0
    0.1216    0.0874    0.0000 C   0  0  0  0  0  0  0  0  0  0  0  0
   -1.5196    1.4778    0.0000 C   0  0  0  0  0  0  0  0  0  0  0  0
    0.4255    1.4854    0.0000 C   0  0  0  0  0  0  0  0  0  0  0  0
    0.9345   -0.0874    0.0000 C   0  0  0  0  0  0  0  0  0  0  0  0
   -2.0286   -0.0950    0.0000 C   0  0  0  0  0  0  0  0  0  0  0  0
    1.2232    1.3258    0.0000 C   0  0  0  0  0  0  0  0  0  0  0  0
   -0.5471   -1.2347    0.0000 C   0  0  0  0  0  0  0  0  0  0  0  0
   -2.3098    1.3106    0.0000 C   0  0  0  0  0  0  0  0  0  0  0  0
   -1.2688    2.2680    0.0000 C   0  0  0  0  0  0  0  0  0  0  0  0
    1.4740    0.5129    0.0000 C   0  0  0  0  0  0  0  0  0  0  0  0
   -2.5757    0.5129    0.0000 C   0  0  0  0  0  0  0  0  0  0  0  0
    1.7551    1.9565    0.0000 C   0  0  0  0  0  0  0  0  0  0  0  0
   -1.2461   -1.6449    0.0000 C   0  0  0  0  0  0  0  0  0  0  0  0
    1.4968    2.7391    0.0000 C   0  0  0  0  0  0  0  0  0  0  0  0
   -1.2613   -2.4731    0.0000 C   0  0  0  0  0  0  0  0  0  0  0  0
  1 23  1  0  0  0  0
  2 17  2  0  0  0  0
  3 20  2  0  0  0  0
  4  8  1  0  0  0  0
  4  9  1  0  0  0  0
  4 15  1  0  0  0  0
  5 17  1  0  0  0  0
  6  7  1  0  0  0  0
  6  8  1  0  0  0  0
  6 10  2  0  0  0  0
  7  9  2  0  0  0  0
  7 11  1  0  0  0  0
  8 13  2  0  0  0  0
  9 12  1  0  0  0  0
 10 16  1  0  0  0  0
 10 17  1  0  0  0  0
 11 14  2  0  0  0  0
 12 18  2  0  0  0  0
 13 19  1  0  0  0  0
 14 18  1  0  0  0  0
 14 20  1  0  0  0  0
 15 21  1  0  0  0  0
 16 19  2  0  0  0  0
 20 22  1  0  0  0  0
 21 23  1  0  0  0  0
M  END
> <PUBCHEM_COMPOUND_ID_TYPE>
0

> <PUBCHEM_TOTAL_CHARGE>
0

> <PUBCHEM_SUBSTANCE_ID>
310942044

> <PUBCHEM_SUBSTANCE_VERSION>
1

> <PUBCHEM_EXT_DATASOURCE_NAME>
4488

> <PUBCHEM_EXT_DATASOURCE_REGID>
SCHEMBL16120079

> <PUBCHEM_SUBSTANCE_COMMENT>
InChI=1S/C18H17FN2O2/c1-11(22)12-6-7-15-14(10-12)17-13(18(20)23)4-2-5-16(17)21(15)9-3-8-19/h2,4-7,10H,3,8-9H2,1H3,(H2,20,23)
InChIKey=BKPNVRZRXCBXQS-UHFFFAOYSA-N

> <PUBCHEM_SUBSTANCE_SYNONYM>
SCHEMBL16120079

> <PUBCHEM_XREF_EXT_ID>
SCHEMBL16120079

> <PUBCHEM_EXT_DATASOURCE_URL>
https://www.surechembl.org/

> <PUBCHEM_EXT_SUBSTANCE_URL>
https://www.surechembl.org/chemical/SCHEMBL16120079

> <PUBCHEM_CID_ASSOCIATIONS>
86271527  1

> <PUBCHEM_COORDINATE_TYPE>
1
3

$$$$
