310929392
  -OEChem-07211613022D

 28 30  0     0  0  0  0  0  0999 V2000
    9.2322   -2.9006    0.0000 O   0  0  0  0  0  0  0  0  0  0  0  0
    0.0000   -4.1386    0.0000 O   0  0  0  0  0  0  0  0  0  0  0  0
    7.8527   -3.7141    0.0000 N   0  0  0  0  0  0  0  0  0  0  0  0
    8.5601   -4.1386    0.0000 C   0  0  0  0  0  0  0  0  0  0  0  0
    8.5601   -4.9521    0.0000 C   0  0  0  0  0  0  0  0  0  0  0  0
    9.2322   -3.7141    0.0000 C   0  0  0  0  0  0  0  0  0  0  0  0
    7.1098   -4.1386    0.0000 C   0  0  0  0  0  0  0  0  0  0  0  0
    7.8527   -5.3766    0.0000 C   0  0  0  0  0  0  0  0  0  0  0  0
    9.2676   -5.3766    0.0000 C   0  0  0  0  0  0  0  0  0  0  0  0
    9.9750   -4.1386    0.0000 C   0  0  0  0  0  0  0  0  0  0  0  0
    7.1452   -4.9521    0.0000 C   0  0  0  0  0  0  0  0  0  0  0  0
    9.9750   -4.9521    0.0000 C   0  0  0  0  0  0  0  0  0  0  0  0
    6.4024   -3.7141    0.0000 C   0  0  0  0  0  0  0  0  0  0  0  0
    9.9396   -2.4761    0.0000 C   0  0  0  0  0  0  0  0  0  0  0  0
    9.9042   -1.6625    0.0000 C   0  0  0  0  0  0  0  0  0  0  0  0
    5.6949   -4.1386    0.0000 C   0  0  0  0  0  0  0  0  0  0  0  0
   10.6117   -1.2380    0.0000 C   0  0  0  0  0  0  0  0  0  0  0  0
    9.1968   -1.2380    0.0000 C   0  0  0  0  0  0  0  0  0  0  0  0
   10.6117   -0.4245    0.0000 C   0  0  0  0  0  0  0  0  0  0  0  0
    9.1968   -0.4245    0.0000 C   0  0  0  0  0  0  0  0  0  0  0  0
    4.9875   -3.7141    0.0000 C   0  0  0  0  0  0  0  0  0  0  0  0
    9.9042    0.0000    0.0000 C   0  0  0  0  0  0  0  0  0  0  0  0
    4.2800   -4.1386    0.0000 C   0  0  0  0  0  0  0  0  0  0  0  0
    3.5726   -3.7141    0.0000 C   0  0  0  0  0  0  0  0  0  0  0  0
    2.8652   -4.1386    0.0000 C   0  0  0  0  0  0  0  0  0  0  0  0
    2.1577   -3.7141    0.0000 C   0  0  0  0  0  0  0  0  0  0  0  0
    1.4503   -4.1386    0.0000 C   0  0  0  0  0  0  0  0  0  0  0  0
    0.7428   -3.7141    0.0000 C   0  0  0  0  0  0  0  0  0  0  0  0
  1  6  1  0  0  0  0
  1 14  1  0  0  0  0
  2 28  1  0  0  0  0
  3  4  2  0  0  0  0
  3  7  1  0  0  0  0
  4  5  1  0  0  0  0
  4  6  1  0  0  0  0
  5  8  2  0  0  0  0
  5  9  1  0  0  0  0
  6 10  2  0  0  0  0
  7 11  2  0  0  0  0
  7 13  1  0  0  0  0
  8 11  1  0  0  0  0
  9 12  2  0  0  0  0
 10 12  1  0  0  0  0
 13 16  1  0  0  0  0
 14 15  1  0  0  0  0
 15 17  2  0  0  0  0
 15 18  1  0  0  0  0
 16 21  1  0  0  0  0
 17 19  1  0  0  0  0
 18 20  2  0  0  0  0
 19 22  2  0  0  0  0
 20 22  1  0  0  0  0
 21 23  1  0  0  0  0
 23 24  1  0  0  0  0
 24 25  1  0  0  0  0
 25 26  1  0  0  0  0
 26 27  1  0  0  0  0
 27 28  1  0  0  0  0
M  END
> <PUBCHEM_COMPOUND_ID_TYPE>
0

> <PUBCHEM_TOTAL_CHARGE>
0

> <PUBCHEM_SUBSTANCE_ID>
310929392

> <PUBCHEM_SUBSTANCE_VERSION>
1

> <PUBCHEM_EXT_DATASOURCE_NAME>
4488

> <PUBCHEM_EXT_DATASOURCE_REGID>
SCHEMBL16106565

> <PUBCHEM_SUBSTANCE_COMMENT>
InChI=1S/C25H31NO2/c27-19-10-5-3-1-2-4-9-15-23-18-17-22-14-11-16-24(25(22)26-23)28-20-21-12-7-6-8-13-21/h6-8,11-14,16-18,27H,1-5,9-10,15,19-20H2
InChIKey=CSPLMLBBGBYJLT-UHFFFAOYSA-N

> <PUBCHEM_SUBSTANCE_SYNONYM>
SCHEMBL16106565

> <PUBCHEM_XREF_EXT_ID>
SCHEMBL16106565

> <PUBCHEM_EXT_DATASOURCE_URL>
https://www.surechembl.org/

> <PUBCHEM_EXT_SUBSTANCE_URL>
https://www.surechembl.org/chemical/SCHEMBL16106565

> <PUBCHEM_CID_ASSOCIATIONS>
85473323  1

> <PUBCHEM_COORDINATE_TYPE>
1
3

$$$$
