310944746
  -OEChem-07211613022D

 17 17  0     0  0  0  0  0  0999 V2000
   -3.1323    0.4172    0.0000 I   0  0  0  0  0  0  0  0  0  0  0  0
   -3.3066   -1.2517    0.0000 Cl  0  0  0  0  0  0  0  0  0  0  0  0
   -0.2678   -1.2392    0.0000 O   0  0  0  0  0  0  0  0  0  0  0  0
    1.8869    0.0062    0.0000 O   0  0  0  0  0  0  0  0  0  0  0  0
    1.1769    1.2517    0.0000 O   0  0  0  0  0  0  0  0  0  0  0  0
   -0.2553    0.4172    0.0000 N   0  0  0  0  0  0  0  0  0  0  0  0
   -0.9652    0.0062    0.0000 C   0  0  0  0  0  0  0  0  0  0  0  0
   -0.9777   -0.8282    0.0000 C   0  0  0  0  0  0  0  0  0  0  0  0
   -2.4099    0.0062    0.0000 C   0  0  0  0  0  0  0  0  0  0  0  0
   -2.4099   -0.8158    0.0000 C   0  0  0  0  0  0  0  0  0  0  0  0
   -1.7000    0.4048    0.0000 C   0  0  0  0  0  0  0  0  0  0  0  0
   -1.6875   -1.2392    0.0000 C   0  0  0  0  0  0  0  0  0  0  0  0
    0.4795    0.0062    0.0000 C   0  0  0  0  0  0  0  0  0  0  0  0
    1.1769    0.4048    0.0000 C   0  0  0  0  0  0  0  0  0  0  0  0
    0.4670   -0.8282    0.0000 C   0  0  0  0  0  0  0  0  0  0  0  0
    2.5843    0.4048    0.0000 C   0  0  0  0  0  0  0  0  0  0  0  0
    3.3066    0.0062    0.0000 C   0  0  0  0  0  0  0  0  0  0  0  0
  1  9  1  0  0  0  0
  2 10  1  0  0  0  0
  3  8  1  0  0  0  0
  3 15  1  0  0  0  0
  4 14  1  0  0  0  0
  4 16  1  0  0  0  0
  5 14  2  0  0  0  0
  6  7  1  0  0  0  0
  6 13  1  0  0  0  0
  7  8  1  0  0  0  0
  7 11  2  0  0  0  0
  8 12  2  0  0  0  0
  9 10  2  0  0  0  0
  9 11  1  0  0  0  0
 10 12  1  0  0  0  0
 13 14  1  0  0  0  0
 16 17  1  0  0  0  0
M  END
> <PUBCHEM_COMPOUND_ID_TYPE>
0

> <PUBCHEM_TOTAL_CHARGE>
0

> <PUBCHEM_SUBSTANCE_ID>
310944746

> <PUBCHEM_SUBSTANCE_VERSION>
1

> <PUBCHEM_EXT_DATASOURCE_NAME>
4488

> <PUBCHEM_EXT_DATASOURCE_REGID>
SCHEMBL16122825

> <PUBCHEM_SUBSTANCE_COMMENT>
InChI=1S/C11H13ClINO3/c1-3-17-11(15)6-14-9-5-8(13)7(12)4-10(9)16-2/h4-5,14H,3,6H2,1-2H3
InChIKey=IAGREPMOCBHTAS-UHFFFAOYSA-N

> <PUBCHEM_SUBSTANCE_SYNONYM>
SCHEMBL16122825

> <PUBCHEM_XREF_EXT_ID>
SCHEMBL16122825

> <PUBCHEM_EXT_DATASOURCE_URL>
https://www.surechembl.org/

> <PUBCHEM_EXT_SUBSTANCE_URL>
https://www.surechembl.org/chemical/SCHEMBL16122825

> <PUBCHEM_CID_ASSOCIATIONS>
92135552  1

> <PUBCHEM_COORDINATE_TYPE>
1
3

$$$$
