310947515
  -OEChem-07211613022D

 33 35  0     1  0  0  0  0  0999 V2000
   -1.1657    0.2307    0.0000 P   0  0  3  0  0  0  0  0  0  0  0  0
   -2.4032    0.9452    0.0000 P   0  0  3  0  0  0  0  0  0  0  0  0
   -3.8116    1.5285    0.0000 P   0  0  0  0  0  0  0  0  0  0  0  0
   -0.0337   -2.3254    0.0000 F   0  0  0  0  0  0  0  0  0  0  0  0
    0.8767   -1.1227    0.0000 O   0  0  0  0  0  0  0  0  0  0  0  0
    1.7847   -2.3254    0.0000 O   0  0  0  0  0  0  0  0  0  0  0  0
   -0.7532   -0.4838    0.0000 O   0  0  0  0  0  0  0  0  0  0  0  0
   -1.5782    0.9452    0.0000 O   0  0  0  0  0  0  0  0  0  0  0  0
   -3.2282    0.9452    0.0000 O   0  0  0  0  0  0  0  0  0  0  0  0
   -1.8802   -0.1818    0.0000 O   0  0  0  0  0  0  0  0  0  0  0  0
   -0.4513    0.6432    0.0000 O   0  0  0  0  0  0  0  0  0  0  0  0
    3.1795    1.8337    0.0000 O   0  0  0  0  0  0  0  0  0  0  0  0
   -2.4032    1.7702    0.0000 O   0  0  0  0  0  0  0  0  0  0  0  0
   -2.8157    0.2307    0.0000 O   0  0  0  0  0  0  0  0  0  0  0  0
   -3.5981    2.3254    0.0000 O   0  0  0  0  0  0  0  0  0  0  0  0
   -4.6085    1.3150    0.0000 O   0  0  0  0  0  0  0  0  0  0  0  0
   -4.0251    0.7316    0.0000 O   0  0  0  0  0  0  0  0  0  0  0  0
    1.6804   -0.4838    0.0000 N   0  0  0  0  0  0  0  0  0  0  0  0
    1.6804    0.8511    0.0000 N   0  0  0  0  0  0  0  0  0  0  0  0
    3.1795   -0.6413    0.0000 N   0  0  0  0  0  0  0  0  0  0  0  0
    3.8940    0.5962    0.0000 N   0  0  0  0  0  0  0  0  0  0  0  0
    4.6085   -0.6413    0.0000 N   0  0  0  0  0  0  0  0  0  0  0  0
    1.3722   -1.6109    0.0000 C   0  0  3  0  0  0  0  0  0  0  0  0
    1.6804   -1.3088    0.0000 C   0  0  3  0  0  0  0  0  0  0  0  0
    0.3788   -1.6109    0.0000 C   0  0  3  0  0  0  0  0  0  0  0  0
    0.0718   -1.3088    0.0000 C   0  0  3  0  0  0  0  0  0  0  0  0
    2.4651   -0.2288    0.0000 C   0  0  0  0  0  0  0  0  0  0  0  0
    2.4651    0.5962    0.0000 C   0  0  0  0  0  0  0  0  0  0  0  0
    1.1955    0.1837    0.0000 C   0  0  0  0  0  0  0  0  0  0  0  0
    0.0718   -0.4838    0.0000 C   0  0  0  0  0  0  0  0  0  0  0  0
    3.1795    1.0087    0.0000 C   0  0  0  0  0  0  0  0  0  0  0  0
    1.3722   -0.7859    0.0000 C   0  0  0  0  0  0  0  0  0  0  0  0
    3.8940   -0.2288    0.0000 C   0  0  0  0  0  0  0  0  0  0  0  0
  1  7  1  0  0  0  0
  1  8  1  0  0  0  0
  1 10  2  0  0  0  0
  1 11  1  0  0  0  0
  2  8  1  0  0  0  0
  2  9  1  0  0  0  0
  2 13  2  0  0  0  0
  2 14  1  0  0  0  0
  3  9  1  0  0  0  0
  3 15  2  0  0  0  0
  3 16  1  0  0  0  0
  3 17  1  0  0  0  0
 25  4  1  6  0  0  0
 24  5  1  6  0  0  0
  5 26  1  0  0  0  0
  6 23  1  0  0  0  0
  7 30  1  0  0  0  0
 12 31  2  0  0  0  0
 18 24  1  0  0  0  0
 18 27  1  0  0  0  0
 18 29  1  0  0  0  0
 19 28  1  0  0  0  0
 19 29  2  0  0  0  0
 20 27  1  0  0  0  0
 20 33  2  0  0  0  0
 21 31  1  0  0  0  0
 21 33  1  0  0  0  0
 22 33  1  0  0  0  0
 23 24  1  0  0  0  0
 23 25  1  0  0  0  0
 23 32  1  0  0  0  0
 25 26  1  0  0  0  0
 26 30  1  1  0  0  0
 27 28  2  0  0  0  0
 28 31  1  0  0  0  0
M  END
> <PUBCHEM_COMPOUND_ID_TYPE>
0

> <PUBCHEM_TOTAL_CHARGE>
0

> <PUBCHEM_SUBSTANCE_ID>
310947515

> <PUBCHEM_SUBSTANCE_VERSION>
1

> <PUBCHEM_EXT_DATASOURCE_NAME>
4488

> <PUBCHEM_EXT_DATASOURCE_REGID>
SCHEMBL16125677

> <PUBCHEM_SUBSTANCE_COMMENT>
InChI=1S/C11H17FN5O13P3/c1-11(19)6(12)4(2-27-32(23,24)30-33(25,26)29-31(20,21)22)28-9(11)17-3-14-5-7(17)15-10(13)16-8(5)18/h3-4,6,9,19H,2H2,1H3,(H,23,24)(H,25,26)(H2,20,21,22)(H3,13,15,16,18)/t4-,6-,9-,11?/m1/s1
InChIKey=KECIPRYXBUARHA-BAJVBZTESA-N

> <PUBCHEM_SUBSTANCE_SYNONYM>
SCHEMBL16125677

> <PUBCHEM_XREF_EXT_ID>
SCHEMBL16125677

> <PUBCHEM_EXT_DATASOURCE_URL>
https://www.surechembl.org/

> <PUBCHEM_EXT_SUBSTANCE_URL>
https://www.surechembl.org/chemical/SCHEMBL16125677

> <PUBCHEM_CID_ASSOCIATIONS>
117613237  1

> <PUBCHEM_COORDINATE_TYPE>
1
3

> <PUBCHEM_BONDANNOTATIONS>
26  30  5
25  4  6
24  5  6

$$$$
