310949077
  -OEChem-07211613022D

 41 46  0     0  0  0  0  0  0999 V2000
   -0.0429    2.8334    0.0000 F   0  0  0  0  0  0  0  0  0  0  0  0
   -0.8672    0.0515    0.0000 F   0  0  0  0  0  0  0  0  0  0  0  0
    2.8936   -0.3263    0.0000 F   0  0  0  0  0  0  0  0  0  0  0  0
    0.0944   -0.9789    0.0000 F   0  0  0  0  0  0  0  0  0  0  0  0
   -2.4471    0.5324    0.0000 F   0  0  0  0  0  0  0  0  0  0  0  0
   -1.6571    3.3143    0.0000 F   0  0  0  0  0  0  0  0  0  0  0  0
    0.4722   -2.6102    0.0000 F   0  0  0  0  0  0  0  0  0  0  0  0
    3.2541   -1.9576    0.0000 F   0  0  0  0  0  0  0  0  0  0  0  0
   -2.8420    2.1466    0.0000 F   0  0  0  0  0  0  0  0  0  0  0  0
    2.0521   -3.1082    0.0000 F   0  0  0  0  0  0  0  0  0  0  0  0
   -0.8157   -0.8586    0.0000 N   0  0  0  0  0  0  0  0  0  0  0  0
    0.4894    0.4121    0.0000 C   0  0  0  0  0  0  0  0  0  0  0  0
    0.3177    1.2364    0.0000 C   0  0  0  0  0  0  0  0  0  0  0  0
    1.2794    0.1546    0.0000 C   0  0  0  0  0  0  0  0  0  0  0  0
   -1.6228   -0.6354    0.0000 C   0  0  0  0  0  0  0  0  0  0  0  0
   -0.7641   -1.6829    0.0000 C   0  0  0  0  0  0  0  0  0  0  0  0
   -1.5198   -1.9749    0.0000 C   0  0  0  0  0  0  0  0  0  0  0  0
   -2.0349   -1.3566    0.0000 C   0  0  0  0  0  0  0  0  0  0  0  0
   -0.4894    1.4596    0.0000 C   0  0  0  0  0  0  0  0  0  0  0  0
    1.4511   -0.6526    0.0000 C   0  0  0  0  0  0  0  0  0  0  0  0
   -0.6955    2.2668    0.0000 C   0  0  0  0  0  0  0  0  0  0  0  0
   -1.0904    0.8930    0.0000 C   0  0  0  0  0  0  0  0  0  0  0  0
    2.2581   -0.8930    0.0000 C   0  0  0  0  0  0  0  0  0  0  0  0
    0.8844   -1.2192    0.0000 C   0  0  0  0  0  0  0  0  0  0  0  0
    0.9359    1.7688    0.0000 C   0  0  0  0  0  0  0  0  0  0  0  0
    1.8632    0.7212    0.0000 C   0  0  0  0  0  0  0  0  0  0  0  0
   -2.0006    0.0859    0.0000 C   0  0  0  0  0  0  0  0  0  0  0  0
   -0.1116   -2.1981    0.0000 C   0  0  0  0  0  0  0  0  0  0  0  0
   -1.8460    1.1334    0.0000 C   0  0  0  0  0  0  0  0  0  0  0  0
   -1.4682    2.5244    0.0000 C   0  0  0  0  0  0  0  0  0  0  0  0
    1.0561   -1.9749    0.0000 C   0  0  0  0  0  0  0  0  0  0  0  0
    2.4814   -1.7001    0.0000 C   0  0  0  0  0  0  0  0  0  0  0  0
   -1.6228   -2.8163    0.0000 C   0  0  0  0  0  0  0  0  0  0  0  0
   -2.8592   -1.3223    0.0000 C   0  0  0  0  0  0  0  0  0  0  0  0
    1.7086    1.5284    0.0000 C   0  0  0  0  0  0  0  0  0  0  0  0
   -2.0521    1.9233    0.0000 C   0  0  0  0  0  0  0  0  0  0  0  0
    1.8460   -2.2496    0.0000 C   0  0  0  0  0  0  0  0  0  0  0  0
   -2.7905    0.1030    0.0000 C   0  0  0  0  0  0  0  0  0  0  0  0
   -0.2319   -3.0051    0.0000 C   0  0  0  0  0  0  0  0  0  0  0  0
   -0.9702   -3.3143    0.0000 C   0  0  0  0  0  0  0  0  0  0  0  0
   -3.2541   -0.5667    0.0000 C   0  0  0  0  0  0  0  0  0  0  0  0
  1 21  1  0  0  0  0
  2 22  1  0  0  0  0
  3 23  1  0  0  0  0
  4 24  1  0  0  0  0
  5 29  1  0  0  0  0
  6 30  1  0  0  0  0
  7 31  1  0  0  0  0
  8 32  1  0  0  0  0
  9 36  1  0  0  0  0
 10 37  1  0  0  0  0
 11 12  1  0  0  0  0
 11 15  1  0  0  0  0
 11 16  1  0  0  0  0
 12 13  2  0  0  0  0
 12 14  1  0  0  0  0
 13 19  1  0  0  0  0
 13 25  1  0  0  0  0
 14 20  1  0  0  0  0
 14 26  2  0  0  0  0
 15 18  2  0  0  0  0
 15 27  1  0  0  0  0
 16 17  2  0  0  0  0
 16 28  1  0  0  0  0
 17 18  1  0  0  0  0
 17 33  1  0  0  0  0
 18 34  1  0  0  0  0
 19 21  2  0  0  0  0
 19 22  1  0  0  0  0
 20 23  2  0  0  0  0
 20 24  1  0  0  0  0
 21 30  1  0  0  0  0
 22 29  2  0  0  0  0
 23 32  1  0  0  0  0
 24 31  2  0  0  0  0
 25 35  2  0  0  0  0
 26 35  1  0  0  0  0
 27 38  2  0  0  0  0
 28 39  2  0  0  0  0
 29 36  1  0  0  0  0
 30 36  2  0  0  0  0
 31 37  1  0  0  0  0
 32 37  2  0  0  0  0
 33 40  2  0  0  0  0
 34 41  2  0  0  0  0
 38 41  1  0  0  0  0
 39 40  1  0  0  0  0
M  END
> <PUBCHEM_COMPOUND_ID_TYPE>
0

> <PUBCHEM_TOTAL_CHARGE>
0

> <PUBCHEM_SUBSTANCE_ID>
310949077

> <PUBCHEM_SUBSTANCE_VERSION>
1

> <PUBCHEM_EXT_DATASOURCE_NAME>
4488

> <PUBCHEM_EXT_DATASOURCE_REGID>
SCHEMBL16127267

> <PUBCHEM_SUBSTANCE_COMMENT>
InChI=1S/C30H11F10N/c31-20-18(21(32)25(36)28(39)24(20)35)14-8-5-9-15(19-22(33)26(37)29(40)27(38)23(19)34)30(14)41-16-10-3-1-6-12(16)13-7-2-4-11-17(13)41/h1-11H
InChIKey=GWXRVCTZCYMVQQ-UHFFFAOYSA-N

> <PUBCHEM_SUBSTANCE_SYNONYM>
SCHEMBL16127267

> <PUBCHEM_XREF_EXT_ID>
SCHEMBL16127267

> <PUBCHEM_EXT_DATASOURCE_URL>
https://www.surechembl.org/

> <PUBCHEM_EXT_SUBSTANCE_URL>
https://www.surechembl.org/chemical/SCHEMBL16127267

> <PUBCHEM_CID_ASSOCIATIONS>
117614582  1

> <PUBCHEM_COORDINATE_TYPE>
1
3

$$$$
