310932967
  -OEChem-07211613022D

 20 21  0     0  0  0  0  0  0999 V2000
    0.0000   -2.4856    0.0000 F   0  0  0  0  0  0  0  0  0  0  0  0
    1.0357   -4.5800    0.0000 O   0  0  0  0  0  0  0  0  0  0  0  0
    3.6133   -1.2428    0.0000 O   0  0  0  0  0  0  0  0  0  0  0  0
    2.8769    0.0000    0.0000 O   0  0  0  0  0  0  0  0  0  0  0  0
    1.8872   -4.6030    0.0000 N   0  0  0  0  0  0  0  0  0  0  0  0
    0.0000   -0.8286    0.0000 N   0  0  0  0  0  0  0  0  0  0  0  0
    1.4499    0.0000    0.0000 N   0  0  0  0  0  0  0  0  0  0  0  0
    1.4499   -2.4856    0.0000 C   0  0  0  0  0  0  0  0  0  0  0  0
    1.4499   -3.3142    0.0000 C   0  0  0  0  0  0  0  0  0  0  0  0
    0.7365   -2.0714    0.0000 C   0  0  0  0  0  0  0  0  0  0  0  0
    2.1634   -1.2428    0.0000 C   0  0  0  0  0  0  0  0  0  0  0  0
    0.7365   -1.2428    0.0000 C   0  0  0  0  0  0  0  0  0  0  0  0
    1.4499   -0.8286    0.0000 C   0  0  0  0  0  0  0  0  0  0  0  0
    2.1634   -2.0714    0.0000 C   0  0  0  0  0  0  0  0  0  0  0  0
    0.7825   -3.8205    0.0000 C   0  0  0  0  0  0  0  0  0  0  0  0
    2.1174   -3.7975    0.0000 C   0  0  0  0  0  0  0  0  0  0  0  0
    2.8769   -0.8286    0.0000 C   0  0  0  0  0  0  0  0  0  0  0  0
    0.0000   -3.5674    0.0000 C   0  0  0  0  0  0  0  0  0  0  0  0
    2.8999   -3.5443    0.0000 C   0  0  0  0  0  0  0  0  0  0  0  0
    4.3268   -0.8286    0.0000 C   0  0  0  0  0  0  0  0  0  0  0  0
  1 10  1  0  0  0  0
  2  5  1  0  0  0  0
  2 15  1  0  0  0  0
  3 17  1  0  0  0  0
  3 20  1  0  0  0  0
  4 17  2  0  0  0  0
  5 16  2  0  0  0  0
  6 12  1  0  0  0  0
  7 13  1  0  0  0  0
  8  9  1  0  0  0  0
  8 10  1  0  0  0  0
  8 14  2  0  0  0  0
  9 15  2  0  0  0  0
  9 16  1  0  0  0  0
 10 12  2  0  0  0  0
 11 13  2  0  0  0  0
 11 14  1  0  0  0  0
 11 17  1  0  0  0  0
 12 13  1  0  0  0  0
 15 18  1  0  0  0  0
 16 19  1  0  0  0  0
M  END
> <PUBCHEM_COMPOUND_ID_TYPE>
0

> <PUBCHEM_TOTAL_CHARGE>
0

> <PUBCHEM_SUBSTANCE_ID>
310932967

> <PUBCHEM_SUBSTANCE_VERSION>
1

> <PUBCHEM_EXT_DATASOURCE_NAME>
4488

> <PUBCHEM_EXT_DATASOURCE_REGID>
SCHEMBL16110363

> <PUBCHEM_SUBSTANCE_COMMENT>
InChI=1S/C13H14FN3O3/c1-5-9(6(2)20-17-5)7-4-8(13(18)19-3)11(15)12(16)10(7)14/h4H,15-16H2,1-3H3
InChIKey=MVANPFSDXYZVBD-UHFFFAOYSA-N

> <PUBCHEM_SUBSTANCE_SYNONYM>
SCHEMBL16110363

> <PUBCHEM_XREF_EXT_ID>
SCHEMBL16110363

> <PUBCHEM_EXT_DATASOURCE_URL>
https://www.surechembl.org/

> <PUBCHEM_EXT_SUBSTANCE_URL>
https://www.surechembl.org/chemical/SCHEMBL16110363

> <PUBCHEM_CID_ASSOCIATIONS>
117601444  1

> <PUBCHEM_COORDINATE_TYPE>
1
3

$$$$
