310929731
  -OEChem-07211613022D

 27 28  0     0  0  0  0  0  0999 V2000
   10.7223   -3.6885    0.0000 Cl  0  0  0  0  0  0  0  0  0  0  0  0
   10.7223   -0.3860    0.0000 O   0  0  0  0  0  0  0  0  0  0  0  0
   12.1805   -2.8736    0.0000 O   0  0  0  0  0  0  0  0  0  0  0  0
    0.0000   -1.6298    0.0000 O   0  0  0  0  0  0  0  0  0  0  0  0
    9.3069   -1.2438    0.0000 N   0  0  0  0  0  0  0  0  0  0  0  0
   10.0360   -1.6298    0.0000 C   0  0  0  0  0  0  0  0  0  0  0  0
   10.0360   -2.4447    0.0000 C   0  0  0  0  0  0  0  0  0  0  0  0
   10.7223   -2.8736    0.0000 C   0  0  0  0  0  0  0  0  0  0  0  0
   10.7223   -1.2438    0.0000 C   0  0  0  0  0  0  0  0  0  0  0  0
   11.4514   -2.4447    0.0000 C   0  0  0  0  0  0  0  0  0  0  0  0
   11.4514   -1.6298    0.0000 C   0  0  0  0  0  0  0  0  0  0  0  0
    9.3498   -2.8736    0.0000 C   0  0  0  0  0  0  0  0  0  0  0  0
    8.5778   -1.6298    0.0000 C   0  0  0  0  0  0  0  0  0  0  0  0
    8.6207   -2.4876    0.0000 C   0  0  0  0  0  0  0  0  0  0  0  0
    7.8916   -1.2438    0.0000 C   0  0  0  0  0  0  0  0  0  0  0  0
    9.9932    0.0000    0.0000 C   0  0  0  0  0  0  0  0  0  0  0  0
    7.1624   -1.6298    0.0000 C   0  0  0  0  0  0  0  0  0  0  0  0
   12.8667   -2.4447    0.0000 C   0  0  0  0  0  0  0  0  0  0  0  0
    6.4333   -1.2438    0.0000 C   0  0  0  0  0  0  0  0  0  0  0  0
    5.7471   -1.6298    0.0000 C   0  0  0  0  0  0  0  0  0  0  0  0
    5.0180   -1.2438    0.0000 C   0  0  0  0  0  0  0  0  0  0  0  0
    4.3318   -1.6298    0.0000 C   0  0  0  0  0  0  0  0  0  0  0  0
    3.6027   -1.2438    0.0000 C   0  0  0  0  0  0  0  0  0  0  0  0
    2.8736   -1.6298    0.0000 C   0  0  0  0  0  0  0  0  0  0  0  0
    2.1445   -1.2438    0.0000 C   0  0  0  0  0  0  0  0  0  0  0  0
    1.4582   -1.6298    0.0000 C   0  0  0  0  0  0  0  0  0  0  0  0
    0.7291   -1.2438    0.0000 C   0  0  0  0  0  0  0  0  0  0  0  0
  1  8  1  0  0  0  0
  2  9  1  0  0  0  0
  2 16  1  0  0  0  0
  3 10  1  0  0  0  0
  3 18  1  0  0  0  0
  4 27  1  0  0  0  0
  5  6  2  0  0  0  0
  5 13  1  0  0  0  0
  6  7  1  0  0  0  0
  6  9  1  0  0  0  0
  7  8  1  0  0  0  0
  7 12  2  0  0  0  0
  8 10  2  0  0  0  0
  9 11  2  0  0  0  0
 10 11  1  0  0  0  0
 12 14  1  0  0  0  0
 13 14  2  0  0  0  0
 13 15  1  0  0  0  0
 15 17  1  0  0  0  0
 17 19  1  0  0  0  0
 19 20  1  0  0  0  0
 20 21  1  0  0  0  0
 21 22  1  0  0  0  0
 22 23  1  0  0  0  0
 23 24  1  0  0  0  0
 24 25  1  0  0  0  0
 25 26  1  0  0  0  0
 26 27  1  0  0  0  0
M  END
> <PUBCHEM_COMPOUND_ID_TYPE>
0

> <PUBCHEM_TOTAL_CHARGE>
0

> <PUBCHEM_SUBSTANCE_ID>
310929731

> <PUBCHEM_SUBSTANCE_VERSION>
1

> <PUBCHEM_EXT_DATASOURCE_NAME>
4488

> <PUBCHEM_EXT_DATASOURCE_REGID>
SCHEMBL16106929

> <PUBCHEM_SUBSTANCE_COMMENT>
InChI=1S/C22H32ClNO3/c1-26-19-16-20(27-2)22-18(21(19)23)14-13-17(24-22)12-10-8-6-4-3-5-7-9-11-15-25/h13-14,16,25H,3-12,15H2,1-2H3
InChIKey=LKUGDHVUJLNVHW-UHFFFAOYSA-N

> <PUBCHEM_SUBSTANCE_SYNONYM>
SCHEMBL16106929

> <PUBCHEM_XREF_EXT_ID>
SCHEMBL16106929

> <PUBCHEM_EXT_DATASOURCE_URL>
https://www.surechembl.org/

> <PUBCHEM_EXT_SUBSTANCE_URL>
https://www.surechembl.org/chemical/SCHEMBL16106929

> <PUBCHEM_CID_ASSOCIATIONS>
85471914  1

> <PUBCHEM_COORDINATE_TYPE>
1
3

$$$$
