310944383
  -OEChem-07211613022D

 29 32  0     0  0  0  0  0  0999 V2000
    1.4473    3.0843    0.0000 F   0  0  0  0  0  0  0  0  0  0  0  0
   -0.7064    1.0166    0.0000 N   0  0  0  0  0  0  0  0  0  0  0  0
    0.0172   -0.2240    0.0000 N   0  0  0  0  0  0  0  0  0  0  0  0
   -1.4129   -0.2412    0.0000 N   0  0  0  0  0  0  0  0  0  0  0  0
    1.4129   -1.0510    0.0000 N   0  0  0  0  0  0  0  0  0  0  0  0
    3.5839    2.6534    0.0000 N   0  0  0  0  0  0  0  0  0  0  0  0
    0.0172    0.6203    0.0000 C   0  0  0  0  0  0  0  0  0  0  0  0
    0.7064    1.0338    0.0000 C   0  0  0  0  0  0  0  0  0  0  0  0
   -1.4129    0.6031    0.0000 C   0  0  0  0  0  0  0  0  0  0  0  0
   -0.6893   -0.6031    0.0000 C   0  0  0  0  0  0  0  0  0  0  0  0
    1.4645    0.6203    0.0000 C   0  0  0  0  0  0  0  0  0  0  0  0
    0.7409    1.8609    0.0000 C   0  0  0  0  0  0  0  0  0  0  0  0
    1.4473    2.2916    0.0000 C   0  0  0  0  0  0  0  0  0  0  0  0
    2.1710    1.8781    0.0000 C   0  0  0  0  0  0  0  0  0  0  0  0
   -2.1538    1.0338    0.0000 C   0  0  0  0  0  0  0  0  0  0  0  0
   -0.7064   -1.4473    0.0000 C   0  0  0  0  0  0  0  0  0  0  0  0
    2.1538    1.0338    0.0000 C   0  0  0  0  0  0  0  0  0  0  0  0
    1.4301   -0.2412    0.0000 C   0  0  0  0  0  0  0  0  0  0  0  0
   -2.1538    1.8437    0.0000 C   0  0  0  0  0  0  0  0  0  0  0  0
   -1.4129   -1.8954    0.0000 C   0  0  0  0  0  0  0  0  0  0  0  0
   -2.8603    0.6375    0.0000 C   0  0  0  0  0  0  0  0  0  0  0  0
    0.0345   -1.8781    0.0000 C   0  0  0  0  0  0  0  0  0  0  0  0
    2.8774    2.2744    0.0000 C   0  0  0  0  0  0  0  0  0  0  0  0
   -2.8257    2.2571    0.0000 C   0  0  0  0  0  0  0  0  0  0  0  0
   -1.3956   -2.6878    0.0000 C   0  0  0  0  0  0  0  0  0  0  0  0
   -3.5666    1.0338    0.0000 C   0  0  0  0  0  0  0  0  0  0  0  0
    0.0172   -2.6878    0.0000 C   0  0  0  0  0  0  0  0  0  0  0  0
   -3.5839    1.8437    0.0000 C   0  0  0  0  0  0  0  0  0  0  0  0
   -0.6548   -3.0843    0.0000 C   0  0  0  0  0  0  0  0  0  0  0  0
  1 13  1  0  0  0  0
  2  7  2  0  0  0  0
  2  9  1  0  0  0  0
  3  7  1  0  0  0  0
  3 10  2  0  0  0  0
  4  9  2  0  0  0  0
  4 10  1  0  0  0  0
  5 18  3  0  0  0  0
  6 23  3  0  0  0  0
  7  8  1  0  0  0  0
  8 11  1  0  0  0  0
  8 12  2  0  0  0  0
  9 15  1  0  0  0  0
 10 16  1  0  0  0  0
 11 17  2  0  0  0  0
 11 18  1  0  0  0  0
 12 13  1  0  0  0  0
 13 14  2  0  0  0  0
 14 17  1  0  0  0  0
 14 23  1  0  0  0  0
 15 19  2  0  0  0  0
 15 21  1  0  0  0  0
 16 20  2  0  0  0  0
 16 22  1  0  0  0  0
 19 24  1  0  0  0  0
 20 25  1  0  0  0  0
 21 26  2  0  0  0  0
 22 27  2  0  0  0  0
 24 28  2  0  0  0  0
 25 29  2  0  0  0  0
 26 28  1  0  0  0  0
 27 29  1  0  0  0  0
M  END
> <PUBCHEM_COMPOUND_ID_TYPE>
0

> <PUBCHEM_TOTAL_CHARGE>
0

> <PUBCHEM_SUBSTANCE_ID>
310944383

> <PUBCHEM_SUBSTANCE_VERSION>
1

> <PUBCHEM_EXT_DATASOURCE_NAME>
4488

> <PUBCHEM_EXT_DATASOURCE_REGID>
SCHEMBL16122458

> <PUBCHEM_SUBSTANCE_COMMENT>
InChI=1S/C23H12FN5/c24-20-12-19(17(13-25)11-18(20)14-26)23-28-21(15-7-3-1-4-8-15)27-22(29-23)16-9-5-2-6-10-16/h1-12H
InChIKey=FUJKDAVTWFZKED-UHFFFAOYSA-N

> <PUBCHEM_SUBSTANCE_SYNONYM>
SCHEMBL16122458

> <PUBCHEM_XREF_EXT_ID>
SCHEMBL16122458

> <PUBCHEM_EXT_DATASOURCE_URL>
https://www.surechembl.org/

> <PUBCHEM_EXT_SUBSTANCE_URL>
https://www.surechembl.org/chemical/SCHEMBL16122458

> <PUBCHEM_CID_ASSOCIATIONS>
117610640  1

> <PUBCHEM_COORDINATE_TYPE>
1
3

$$$$
