310946402
  -OEChem-07211613022D

 21 21  0     0  0  0  0  0  0999 V2000
   -1.1238   -6.2789    0.0000 O   0  0  0  0  0  0  0  0  0  0  0  0
   -1.8383   -7.5164    0.0000 O   0  0  0  0  0  0  0  0  0  0  0  0
    2.4485   -6.6914    0.0000 O   0  0  0  0  0  0  0  0  0  0  0  0
    3.8775   -6.6914    0.0000 O   0  5  0  0  0  0  0  0  0  0  0  0
    3.1630   -5.4539    0.0000 O   0  0  0  0  0  0  0  0  0  0  0  0
    3.1630   -6.2789    0.0000 N   0  3  0  0  0  0  0  0  0  0  0  0
   -2.5528   -6.2789    0.0000 C   0  0  0  0  0  0  0  0  0  0  0  0
   -3.9817   -5.4539    0.0000 C   0  0  0  0  0  0  0  0  0  0  0  0
   -3.9817   -6.2789    0.0000 C   0  0  0  0  0  0  0  0  0  0  0  0
   -3.2672   -6.6914    0.0000 C   0  0  0  0  0  0  0  0  0  0  0  0
   -1.8383   -6.6914    0.0000 C   0  0  0  0  0  0  0  0  0  0  0  0
   -2.5528   -5.4539    0.0000 C   0  0  0  0  0  0  0  0  0  0  0  0
   -3.2672   -5.0414    0.0000 C   0  0  0  0  0  0  0  0  0  0  0  0
   -4.6962   -5.0414    0.0000 C   0  0  0  0  0  0  0  0  0  0  0  0
   -4.6962   -6.6914    0.0000 C   0  0  0  0  0  0  0  0  0  0  0  0
   -0.4094   -6.6914    0.0000 C   0  0  0  0  0  0  0  0  0  0  0  0
   -4.2837   -4.3269    0.0000 C   0  0  0  0  0  0  0  0  0  0  0  0
   -5.1087   -5.7558    0.0000 C   0  0  0  0  0  0  0  0  0  0  0  0
    0.3051   -6.2789    0.0000 C   0  0  0  0  0  0  0  0  0  0  0  0
    1.0196   -6.6914    0.0000 C   0  0  0  0  0  0  0  0  0  0  0  0
    1.7340   -6.2789    0.0000 C   0  0  0  0  0  0  0  0  0  0  0  0
  1 11  1  0  0  0  0
  1 16  1  0  0  0  0
  2 11  2  0  0  0  0
  3  6  1  0  0  0  0
  3 21  1  0  0  0  0
  4  6  1  0  0  0  0
  5  6  2  0  0  0  0
  7 10  1  0  0  0  0
  7 11  1  0  0  0  0
  7 12  2  0  0  0  0
  8  9  1  0  0  0  0
  8 13  2  0  0  0  0
  8 14  1  0  0  0  0
  9 10  2  0  0  0  0
  9 15  1  0  0  0  0
 12 13  1  0  0  0  0
 14 17  1  0  0  0  0
 14 18  1  0  0  0  0
 16 19  1  0  0  0  0
 19 20  1  0  0  0  0
 20 21  1  0  0  0  0
M  CHG  2   4  -1   6   1
M  END
> <PUBCHEM_COMPOUND_ID_TYPE>
0

> <PUBCHEM_TOTAL_CHARGE>
0

> <PUBCHEM_SUBSTANCE_ID>
310946402

> <PUBCHEM_SUBSTANCE_VERSION>
1

> <PUBCHEM_EXT_DATASOURCE_NAME>
4488

> <PUBCHEM_EXT_DATASOURCE_REGID>
SCHEMBL16124523

> <PUBCHEM_SUBSTANCE_COMMENT>
InChI=1S/C15H21NO5/c1-11(2)14-7-6-13(10-12(14)3)15(17)20-8-4-5-9-21-16(18)19/h6-7,10-11H,4-5,8-9H2,1-3H3
InChIKey=MGVVBASZBJBYGG-UHFFFAOYSA-N

> <PUBCHEM_SUBSTANCE_SYNONYM>
SCHEMBL16124523

> <PUBCHEM_XREF_EXT_ID>
SCHEMBL16124523

> <PUBCHEM_EXT_DATASOURCE_URL>
https://www.surechembl.org/

> <PUBCHEM_EXT_SUBSTANCE_URL>
https://www.surechembl.org/chemical/SCHEMBL16124523

> <PUBCHEM_CID_ASSOCIATIONS>
117612321  1

> <PUBCHEM_COORDINATE_TYPE>
1
3

> <PUBCHEM_BONDANNOTATIONS>
14  17  3
14  18  3

$$$$
