310929181
  -OEChem-07211613022D

 47 51  0     0  0  0  0  0  0999 V2000
    4.2798   -5.3991    0.0000 O   0  0  0  0  0  0  0  0  0  0  0  0
    6.3868   -9.0863    0.0000 O   0  0  0  0  0  0  0  0  0  0  0  0
    5.6625   -8.6912    0.0000 O   0  0  0  0  0  0  0  0  0  0  0  0
    7.7694   -9.0863    0.0000 O   0  0  0  0  0  0  0  0  0  0  0  0
    1.5144   -0.4609    0.0000 O   0  0  0  0  0  0  0  0  0  0  0  0
    0.0000   -3.6872    0.0000 O   0  0  0  0  0  0  0  0  0  0  0  0
    4.9382   -9.8764    0.0000 N   0  0  0  0  0  0  0  0  0  0  0  0
    4.2139   -8.6912    0.0000 N   0  0  0  0  0  0  0  0  0  0  0  0
    2.8971   -2.8971    0.0000 N   0  0  0  0  0  0  0  0  0  0  0  0
    8.4937  -10.3373    0.0000 N   0  0  0  0  0  0  0  0  0  0  0  0
    2.1070   -4.1481    0.0000 N   0  0  0  0  0  0  0  0  0  0  0  0
    4.9382   -7.4402    0.0000 C   0  0  0  0  0  0  0  0  0  0  0  0
    4.9382   -6.6501    0.0000 C   0  0  0  0  0  0  0  0  0  0  0  0
    5.6625  -10.3373    0.0000 C   0  0  0  0  0  0  0  0  0  0  0  0
    6.3868   -9.8764    0.0000 C   0  0  0  0  0  0  0  0  0  0  0  0
    7.0452  -10.3373    0.0000 C   0  0  0  0  0  0  0  0  0  0  0  0
    6.3868  -11.5225    0.0000 C   0  0  0  0  0  0  0  0  0  0  0  0
    4.2139   -7.8353    0.0000 C   0  0  0  0  0  0  0  0  0  0  0  0
    4.2139   -6.1892    0.0000 C   0  0  0  0  0  0  0  0  0  0  0  0
    5.6625  -11.1274    0.0000 C   0  0  0  0  0  0  0  0  0  0  0  0
    7.0452  -11.1274    0.0000 C   0  0  0  0  0  0  0  0  0  0  0  0
    6.3868  -12.3784    0.0000 C   0  0  0  0  0  0  0  0  0  0  0  0
    4.9382   -9.0863    0.0000 C   0  0  0  0  0  0  0  0  0  0  0  0
    3.4896   -7.4402    0.0000 C   0  0  0  0  0  0  0  0  0  0  0  0
    3.5555   -6.5843    0.0000 C   0  0  0  0  0  0  0  0  0  0  0  0
    7.7694   -9.8764    0.0000 C   0  0  0  0  0  0  0  0  0  0  0  0
    5.6625   -7.8353    0.0000 C   0  0  0  0  0  0  0  0  0  0  0  0
    5.6625   -6.2551    0.0000 C   0  0  0  0  0  0  0  0  0  0  0  0
    3.5555   -4.9382    0.0000 C   0  0  0  0  0  0  0  0  0  0  0  0
    6.3209   -7.4402    0.0000 C   0  0  0  0  0  0  0  0  0  0  0  0
    6.3868   -6.6501    0.0000 C   0  0  0  0  0  0  0  0  0  0  0  0
    2.8313   -3.7530    0.0000 C   0  0  0  0  0  0  0  0  0  0  0  0
    3.5555   -4.1481    0.0000 C   0  0  0  0  0  0  0  0  0  0  0  0
    5.5308  -12.3784    0.0000 C   0  0  0  0  0  0  0  0  0  0  0  0
    6.3868  -13.1685    0.0000 C   0  0  0  0  0  0  0  0  0  0  0  0
    7.1769  -12.3784    0.0000 C   0  0  0  0  0  0  0  0  0  0  0  0
    2.8313   -5.3991    0.0000 C   0  0  0  0  0  0  0  0  0  0  0  0
    2.1728   -2.5020    0.0000 C   0  0  0  0  0  0  0  0  0  0  0  0
    2.1070   -4.9382    0.0000 C   0  0  0  0  0  0  0  0  0  0  0  0
    5.7941   -8.8229    0.0000 C   0  0  0  0  0  0  0  0  0  0  0  0
    2.1728   -1.6461    0.0000 C   0  0  0  0  0  0  0  0  0  0  0  0
    1.4485   -2.8971    0.0000 C   0  0  0  0  0  0  0  0  0  0  0  0
    1.5144   -1.2510    0.0000 C   0  0  0  0  0  0  0  0  0  0  0  0
    0.7243   -2.4362    0.0000 C   0  0  0  0  0  0  0  0  0  0  0  0
    0.7901   -1.6461    0.0000 C   0  0  0  0  0  0  0  0  0  0  0  0
    0.0000   -2.8313    0.0000 C   0  0  0  0  0  0  0  0  0  0  0  0
    0.7901    0.0000    0.0000 C   0  0  0  0  0  0  0  0  0  0  0  0
  1 19  1  0  0  0  0
  1 29  1  0  0  0  0
  2 15  1  0  0  0  0
  2 40  1  0  0  0  0
  3 23  2  0  0  0  0
  4 26  2  0  0  0  0
  5 43  1  0  0  0  0
  5 47  1  0  0  0  0
  6 46  1  0  0  0  0
  7 14  1  0  0  0  0
  7 23  1  0  0  0  0
  8 18  1  0  0  0  0
  8 23  1  0  0  0  0
  9 32  1  0  0  0  0
  9 38  1  0  0  0  0
 10 26  1  0  0  0  0
 11 32  2  0  0  0  0
 11 39  1  0  0  0  0
 12 13  2  0  0  0  0
 12 18  1  0  0  0  0
 12 27  1  0  0  0  0
 13 19  1  0  0  0  0
 13 28  1  0  0  0  0
 14 15  1  0  0  0  0
 14 20  2  0  0  0  0
 15 16  2  0  0  0  0
 16 21  1  0  0  0  0
 16 26  1  0  0  0  0
 17 20  1  0  0  0  0
 17 21  2  0  0  0  0
 17 22  1  0  0  0  0
 18 24  2  0  0  0  0
 19 25  2  0  0  0  0
 22 34  1  0  0  0  0
 22 35  1  0  0  0  0
 22 36  1  0  0  0  0
 24 25  1  0  0  0  0
 27 30  2  0  0  0  0
 28 31  2  0  0  0  0
 29 33  2  0  0  0  0
 29 37  1  0  0  0  0
 30 31  1  0  0  0  0
 32 33  1  0  0  0  0
 37 39  2  0  0  0  0
 38 41  2  0  0  0  0
 38 42  1  0  0  0  0
 41 43  1  0  0  0  0
 42 44  2  0  0  0  0
 43 45  2  0  0  0  0
 44 45  1  0  0  0  0
 44 46  1  0  0  0  0
M  END
> <PUBCHEM_COMPOUND_ID_TYPE>
0

> <PUBCHEM_TOTAL_CHARGE>
0

> <PUBCHEM_SUBSTANCE_ID>
310929181

> <PUBCHEM_SUBSTANCE_VERSION>
1

> <PUBCHEM_EXT_DATASOURCE_NAME>
4488

> <PUBCHEM_EXT_DATASOURCE_REGID>
SCHEMBL16106344

> <PUBCHEM_SUBSTANCE_COMMENT>
InChI=1S/C36H37N5O6/c1-36(2,3)22-16-28(34(37)43)33(46-5)30(17-22)41-35(44)40-29-10-11-31(27-9-7-6-8-26(27)29)47-24-12-13-38-32(19-24)39-23-14-21(20-42)15-25(18-23)45-4/h6-19,42H,20H2,1-5H3,(H2,37,43)(H,38,39)(H2,40,41,44)
InChIKey=RXXPIRGHDOIFNF-UHFFFAOYSA-N

> <PUBCHEM_SUBSTANCE_SYNONYM>
SCHEMBL16106344

> <PUBCHEM_XREF_EXT_ID>
SCHEMBL16106344

> <PUBCHEM_EXT_DATASOURCE_URL>
https://www.surechembl.org/

> <PUBCHEM_EXT_SUBSTANCE_URL>
https://www.surechembl.org/chemical/SCHEMBL16106344

> <PUBCHEM_CID_ASSOCIATIONS>
117598637  1

> <PUBCHEM_COORDINATE_TYPE>
1
3

$$$$
