310937625
  -OEChem-07211613022D

 45 49  0     1  0  0  0  0  0999 V2000
   11.0850    0.7882    0.0000 F   0  0  0  0  0  0  0  0  0  0  0  0
    9.9958    0.3701    0.0000 F   0  0  0  0  0  0  0  0  0  0  0  0
   10.6669    1.8774    0.0000 F   0  0  0  0  0  0  0  0  0  0  0  0
    8.5653    4.2563    0.0000 F   0  0  0  0  0  0  0  0  0  0  0  0
    7.8310    3.3496    0.0000 F   0  0  0  0  0  0  0  0  0  0  0  0
    9.4720    3.5220    0.0000 F   0  0  0  0  0  0  0  0  0  0  0  0
    5.8070   -3.1599    0.0000 F   0  0  0  0  0  0  0  0  0  0  0  0
    4.6801   -2.8579    0.0000 F   0  0  0  0  0  0  0  0  0  0  0  0
    6.1090   -2.0329    0.0000 F   0  0  0  0  0  0  0  0  0  0  0  0
    7.4891   -0.0000    0.0000 O   0  0  0  0  0  0  0  0  0  0  0  0
    6.4495   -1.0396    0.0000 O   0  0  0  0  0  0  0  0  0  0  0  0
    0.7846   -0.2549    0.0000 O   0  0  0  0  0  0  0  0  0  0  0  0
    0.7846    1.0799    0.0000 O   0  0  0  0  0  0  0  0  0  0  0  0
    6.2195    0.4125    0.0000 N   0  0  0  0  0  0  0  0  0  0  0  0
    3.7445    0.4125    0.0000 N   0  0  0  0  0  0  0  0  0  0  0  0
    3.7445   -1.0164    0.0000 N   0  0  0  0  0  0  0  0  0  0  0  0
    7.4891    0.8250    0.0000 C   0  0  3  0  0  0  0  0  0  0  0  0
    6.7045    1.0799    0.0000 C   0  0  3  0  0  0  0  0  0  0  0  0
    8.1565    1.3099    0.0000 C   0  0  0  0  0  0  0  0  0  0  0  0
    6.7045   -0.2549    0.0000 C   0  0  0  0  0  0  0  0  0  0  0  0
    4.9820   -0.3020    0.0000 C   0  0  0  0  0  0  0  0  0  0  0  0
    4.1570   -0.3020    0.0000 C   0  0  0  0  0  0  0  0  0  0  0  0
    5.3945    0.4125    0.0000 C   0  0  0  0  0  0  0  0  0  0  0  0
    9.5776    1.4593    0.0000 C   0  0  0  0  0  0  0  0  0  0  0  0
    8.7377    2.6153    0.0000 C   0  0  0  0  0  0  0  0  0  0  0  0
    8.0703    2.1304    0.0000 C   0  0  0  0  0  0  0  0  0  0  0  0
    8.9102    0.9744    0.0000 C   0  0  0  0  0  0  0  0  0  0  0  0
    4.9820   -1.7309    0.0000 C   0  0  0  0  0  0  0  0  0  0  0  0
    9.4914    2.2798    0.0000 C   0  0  0  0  0  0  0  0  0  0  0  0
    2.9195    0.4125    0.0000 C   0  0  0  0  0  0  0  0  0  0  0  0
    5.3945   -1.0164    0.0000 C   0  0  0  0  0  0  0  0  0  0  0  0
   10.3313    1.1237    0.0000 C   0  0  0  0  0  0  0  0  0  0  0  0
    8.6515    3.4358    0.0000 C   0  0  0  0  0  0  0  0  0  0  0  0
    1.2695    0.4125    0.0000 C   0  0  0  0  0  0  0  0  0  0  0  0
    5.3945   -2.4454    0.0000 C   0  0  0  0  0  0  0  0  0  0  0  0
    4.1570   -1.7309    0.0000 C   0  0  0  0  0  0  0  0  0  0  0  0
    6.4495    1.8646    0.0000 C   0  0  0  0  0  0  0  0  0  0  0  0
    2.5070    1.1270    0.0000 C   0  0  0  0  0  0  0  0  0  0  0  0
    2.5070   -0.3020    0.0000 C   0  0  0  0  0  0  0  0  0  0  0  0
    1.6820    1.1270    0.0000 C   0  0  0  0  0  0  0  0  0  0  0  0
    1.6820   -0.3020    0.0000 C   0  0  0  0  0  0  0  0  0  0  0  0
    4.1570    1.1270    0.0000 C   0  0  0  0  0  0  0  0  0  0  0  0
    0.0000   -0.0000    0.0000 C   0  0  0  0  0  0  0  0  0  0  0  0
   -0.0000    0.8250    0.0000 C   0  0  0  0  0  0  0  0  0  0  0  0
    4.9820    1.1270    0.0000 C   0  0  0  0  0  0  0  0  0  0  0  0
  1 32  1  0  0  0  0
  2 32  1  0  0  0  0
  3 32  1  0  0  0  0
  4 33  1  0  0  0  0
  5 33  1  0  0  0  0
  6 33  1  0  0  0  0
  7 35  1  0  0  0  0
  8 35  1  0  0  0  0
  9 35  1  0  0  0  0
 10 17  1  0  0  0  0
 10 20  1  0  0  0  0
 11 20  2  0  0  0  0
 12 34  1  0  0  0  0
 12 43  1  0  0  0  0
 13 34  1  0  0  0  0
 13 44  1  0  0  0  0
 14 18  1  0  0  0  0
 14 20  1  0  0  0  0
 14 23  1  0  0  0  0
 15 22  1  0  0  0  0
 15 30  1  0  0  0  0
 15 42  1  0  0  0  0
 16 22  2  0  0  0  0
 16 36  1  0  0  0  0
 17 18  1  0  0  0  0
 17 19  1  1  0  0  0
 18 37  1  1  0  0  0
 19 26  2  0  0  0  0
 19 27  1  0  0  0  0
 21 22  1  0  0  0  0
 21 23  1  0  0  0  0
 21 31  2  0  0  0  0
 24 27  2  0  0  0  0
 24 29  1  0  0  0  0
 24 32  1  0  0  0  0
 25 26  1  0  0  0  0
 25 29  2  0  0  0  0
 25 33  1  0  0  0  0
 28 31  1  0  0  0  0
 28 35  1  0  0  0  0
 28 36  2  0  0  0  0
 30 38  1  0  0  0  0
 30 39  1  0  0  0  0
 34 40  1  0  0  0  0
 34 41  1  0  0  0  0
 38 40  1  0  0  0  0
 39 41  1  0  0  0  0
 42 45  1  0  0  0  0
 43 44  1  0  0  0  0
M  END
> <PUBCHEM_COMPOUND_ID_TYPE>
0

> <PUBCHEM_TOTAL_CHARGE>
0

> <PUBCHEM_SUBSTANCE_ID>
310937625

> <PUBCHEM_SUBSTANCE_VERSION>
1

> <PUBCHEM_EXT_DATASOURCE_NAME>
4488

> <PUBCHEM_EXT_DATASOURCE_REGID>
SCHEMBL16115408

> <PUBCHEM_SUBSTANCE_COMMENT>
InChI=1S/C29H30F9N3O4/c1-3-40(22-4-6-26(7-5-22)43-8-9-44-26)24-18(12-21(14-39-24)29(36,37)38)15-41-16(2)23(45-25(41)42)17-10-19(27(30,31)32)13-20(11-17)28(33,34)35/h10-14,16,22-23H,3-9,15H2,1-2H3/t16-,23-/m0/s1
InChIKey=GPICNRHJIAAAHO-HJPURHCSSA-N

> <PUBCHEM_SUBSTANCE_SYNONYM>
SCHEMBL16115408

> <PUBCHEM_XREF_EXT_ID>
SCHEMBL16115408

> <PUBCHEM_EXT_DATASOURCE_URL>
https://www.surechembl.org/

> <PUBCHEM_EXT_SUBSTANCE_URL>
https://www.surechembl.org/chemical/SCHEMBL16115408

> <PUBCHEM_CID_ASSOCIATIONS>
117605324  1

> <PUBCHEM_COORDINATE_TYPE>
1
3

> <PUBCHEM_BONDANNOTATIONS>
17  19  5
18  37  5

$$$$
