310940666
  -OEChem-07211613022D

 36 40  0     1  0  0  0  0  0999 V2000
   -0.9945    1.6870    0.0000 Br  0  0  0  0  0  0  0  0  0  0  0  0
    2.5710    2.3794    0.0000 F   0  0  0  0  0  0  0  0  0  0  0  0
   -1.1566    0.1694    0.0000 O   0  0  0  0  0  0  0  0  0  0  0  0
    2.2763   -2.0995    0.0000 O   0  0  0  0  0  0  0  0  0  0  0  0
    3.5286   -2.8067    0.0000 O   0  0  0  0  0  0  0  0  0  0  0  0
    1.7901    0.0221    0.0000 N   0  0  0  0  0  0  0  0  0  0  0  0
    1.7901   -1.3186    0.0000 N   0  0  0  0  0  0  0  0  0  0  0  0
   -3.3076   -0.2431    0.0000 N   0  0  0  0  0  0  0  0  0  0  0  0
    2.2468   -0.6409    0.0000 C   0  0  0  0  0  0  0  0  0  0  0  0
    1.0092   -0.2431    0.0000 C   0  0  0  0  0  0  0  0  0  0  0  0
    0.9945   -1.0534    0.0000 C   0  0  0  0  0  0  0  0  0  0  0  0
    3.1308   -0.6556    0.0000 C   0  0  3  0  0  0  0  0  0  0  0  0
    2.0406    0.8177    0.0000 C   0  0  0  0  0  0  0  0  0  0  0  0
    0.3020    0.1694    0.0000 C   0  0  0  0  0  0  0  0  0  0  0  0
    3.5433   -1.3481    0.0000 C   0  0  3  0  0  0  0  0  0  0  0  0
    0.3020   -1.4660    0.0000 C   0  0  0  0  0  0  0  0  0  0  0  0
   -0.4199   -0.2284    0.0000 C   0  0  0  0  0  0  0  0  0  0  0  0
    1.4660    1.4218    0.0000 C   0  0  0  0  0  0  0  0  0  0  0  0
    3.5286    0.0663    0.0000 C   0  0  0  0  0  0  0  0  0  0  0  0
   -0.4199   -1.0682    0.0000 C   0  0  0  0  0  0  0  0  0  0  0  0
    3.1160   -2.0848    0.0000 C   0  0  0  0  0  0  0  0  0  0  0  0
    4.3536   -1.3628    0.0000 C   0  0  0  0  0  0  0  0  0  0  0  0
    1.7607    2.2174    0.0000 C   0  0  0  0  0  0  0  0  0  0  0  0
    0.6851    1.2597    0.0000 C   0  0  0  0  0  0  0  0  0  0  0  0
    4.3536    0.0663    0.0000 C   0  0  0  0  0  0  0  0  0  0  0  0
    4.7662   -0.6409    0.0000 C   0  0  0  0  0  0  0  0  0  0  0  0
    0.1252    1.8638    0.0000 C   0  0  0  0  0  0  0  0  0  0  0  0
    1.2008    2.8067    0.0000 C   0  0  0  0  0  0  0  0  0  0  0  0
    0.3904    2.6446    0.0000 C   0  0  0  0  0  0  0  0  0  0  0  0
   -1.8638   -0.2284    0.0000 C   0  0  0  0  0  0  0  0  0  0  0  0
   -2.6004    0.1842    0.0000 C   0  0  0  0  0  0  0  0  0  0  0  0
   -2.5857    1.0092    0.0000 C   0  0  0  0  0  0  0  0  0  0  0  0
   -4.0148    1.0092    0.0000 C   0  0  0  0  0  0  0  0  0  0  0  0
   -4.0295    0.1842    0.0000 C   0  0  0  0  0  0  0  0  0  0  0  0
   -3.3223    1.4070    0.0000 C   0  0  0  0  0  0  0  0  0  0  0  0
   -4.7662    1.4070    0.0000 C   0  0  0  0  0  0  0  0  0  0  0  0
  1 27  1  0  0  0  0
  2 23  1  0  0  0  0
  3 17  1  0  0  0  0
  3 30  1  0  0  0  0
  4 21  2  0  0  0  0
  5 21  1  0  0  0  0
  6  9  1  0  0  0  0
  6 10  1  0  0  0  0
  6 13  1  0  0  0  0
  7  9  2  0  0  0  0
  7 11  1  0  0  0  0
  8 31  1  0  0  0  0
  8 34  2  0  0  0  0
 12  9  1  1  0  0  0
 10 11  1  0  0  0  0
 10 14  2  0  0  0  0
 11 16  2  0  0  0  0
 12 15  1  0  0  0  0
 12 19  1  0  0  0  0
 13 18  1  0  0  0  0
 14 17  1  0  0  0  0
 15 21  1  1  0  0  0
 15 22  1  0  0  0  0
 16 20  1  0  0  0  0
 17 20  2  0  0  0  0
 18 23  1  0  0  0  0
 18 24  2  0  0  0  0
 19 25  1  0  0  0  0
 22 26  1  0  0  0  0
 23 28  2  0  0  0  0
 24 27  1  0  0  0  0
 25 26  1  0  0  0  0
 27 29  2  0  0  0  0
 28 29  1  0  0  0  0
 30 31  1  0  0  0  0
 31 32  2  0  0  0  0
 32 35  1  0  0  0  0
 33 34  1  0  0  0  0
 33 35  2  0  0  0  0
 33 36  1  0  0  0  0
M  END
> <PUBCHEM_COMPOUND_ID_TYPE>
0

> <PUBCHEM_TOTAL_CHARGE>
0

> <PUBCHEM_SUBSTANCE_ID>
310940666

> <PUBCHEM_SUBSTANCE_VERSION>
1

> <PUBCHEM_EXT_DATASOURCE_NAME>
4488

> <PUBCHEM_EXT_DATASOURCE_REGID>
SCHEMBL16118621

> <PUBCHEM_SUBSTANCE_COMMENT>
InChI=1S/C28H27BrFN3O3/c1-17-6-8-20(31-14-17)16-36-21-9-11-25-26(13-21)33(15-18-12-19(29)7-10-24(18)30)27(32-25)22-4-2-3-5-23(22)28(34)35/h6-14,22-23H,2-5,15-16H2,1H3,(H,34,35)/t22-,23+/m0/s1
InChIKey=AEDHBSFLTKIOOY-XZOQPEGZSA-N

> <PUBCHEM_SUBSTANCE_SYNONYM>
SCHEMBL16118621

> <PUBCHEM_XREF_EXT_ID>
SCHEMBL16118621

> <PUBCHEM_EXT_DATASOURCE_URL>
https://www.surechembl.org/

> <PUBCHEM_EXT_SUBSTANCE_URL>
https://www.surechembl.org/chemical/SCHEMBL16118621

> <PUBCHEM_CID_ASSOCIATIONS>
117607643  1

> <PUBCHEM_COORDINATE_TYPE>
1
3

> <PUBCHEM_BONDANNOTATIONS>
15  21  5
12  9  5

$$$$
