310948334
  -OEChem-07211613022D

 26 29  0     1  0  0  0  0  0999 V2000
   -1.4805   -0.9134    0.0000 O   0  0  0  0  0  0  0  0  0  0  0  0
    0.0221    1.4289    0.0000 N   0  0  0  0  0  0  0  0  0  0  0  0
    0.5083    0.7513    0.0000 N   0  0  0  0  0  0  0  0  0  0  0  0
   -2.2024    0.3388    0.0000 N   0  0  0  0  0  0  0  0  0  0  0  0
    0.2725   -0.7071    0.0000 N   0  0  0  0  0  0  0  0  0  0  0  0
    2.2024    1.1491    0.0000 N   0  0  0  0  0  0  0  0  0  0  0  0
   -0.7734    0.3388    0.0000 C   0  0  0  0  0  0  0  0  0  0  0  0
   -0.7439    1.1785    0.0000 C   0  0  0  0  0  0  0  0  0  0  0  0
    0.0221    0.0884    0.0000 C   0  0  0  0  0  0  0  0  0  0  0  0
   -1.4805   -0.0736    0.0000 C   0  0  0  0  0  0  0  0  0  0  0  0
    0.2872    2.2245    0.0000 C   0  0  3  0  0  0  0  0  0  0  0  0
   -1.5100    1.5762    0.0000 C   0  0  0  0  0  0  0  0  0  0  0  0
    1.0975    2.3865    0.0000 C   0  0  3  0  0  0  0  0  0  0  0  0
   -2.1876    1.1638    0.0000 C   0  0  0  0  0  0  0  0  0  0  0  0
   -0.2578    2.8285    0.0000 C   0  0  0  0  0  0  0  0  0  0  0  0
    1.3479    3.1820    0.0000 C   0  0  0  0  0  0  0  0  0  0  0  0
    1.6278    1.7678    0.0000 C   0  0  0  0  0  0  0  0  0  0  0  0
   -0.0074    3.6093    0.0000 C   0  0  0  0  0  0  0  0  0  0  0  0
   -0.7586   -1.3111    0.0000 C   0  0  0  0  0  0  0  0  0  0  0  0
    0.8029    3.7860    0.0000 C   0  0  0  0  0  0  0  0  0  0  0  0
   -0.7734   -2.1361    0.0000 C   0  0  0  0  0  0  0  0  0  0  0  0
   -1.4805   -2.5633    0.0000 C   0  0  0  0  0  0  0  0  0  0  0  0
   -0.0516   -2.5633    0.0000 C   0  0  0  0  0  0  0  0  0  0  0  0
   -1.4805   -3.3882    0.0000 C   0  0  0  0  0  0  0  0  0  0  0  0
   -0.0516   -3.3882    0.0000 C   0  0  0  0  0  0  0  0  0  0  0  0
   -0.7586   -3.7860    0.0000 C   0  0  0  0  0  0  0  0  0  0  0  0
  1 10  1  0  0  0  0
  1 19  1  0  0  0  0
  2  3  1  0  0  0  0
  2  8  1  0  0  0  0
 11  2  1  1  0  0  0
  3  9  2  0  0  0  0
  4 10  2  0  0  0  0
  4 14  1  0  0  0  0
  5  9  1  0  0  0  0
  6 17  3  0  0  0  0
  7  8  2  0  0  0  0
  7  9  1  0  0  0  0
  7 10  1  0  0  0  0
  8 12  1  0  0  0  0
 11 13  1  0  0  0  0
 11 15  1  0  0  0  0
 12 14  2  0  0  0  0
 13 16  1  0  0  0  0
 13 17  1  6  0  0  0
 15 18  1  0  0  0  0
 16 20  1  0  0  0  0
 18 20  1  0  0  0  0
 19 21  1  0  0  0  0
 21 22  2  0  0  0  0
 21 23  1  0  0  0  0
 22 24  1  0  0  0  0
 23 25  2  0  0  0  0
 24 26  2  0  0  0  0
 25 26  1  0  0  0  0
M  END
> <PUBCHEM_COMPOUND_ID_TYPE>
0

> <PUBCHEM_TOTAL_CHARGE>
0

> <PUBCHEM_SUBSTANCE_ID>
310948334

> <PUBCHEM_SUBSTANCE_VERSION>
1

> <PUBCHEM_EXT_DATASOURCE_NAME>
4488

> <PUBCHEM_EXT_DATASOURCE_REGID>
SCHEMBL16126512

> <PUBCHEM_SUBSTANCE_COMMENT>
InChI=1S/C20H21N5O/c21-12-15-8-4-5-9-16(15)25-17-10-11-23-20(18(17)19(22)24-25)26-13-14-6-2-1-3-7-14/h1-3,6-7,10-11,15-16H,4-5,8-9,13H2,(H2,22,24)/t15-,16+/m1/s1
InChIKey=IAOPEWYWBBQEHA-CVEARBPZSA-N

> <PUBCHEM_SUBSTANCE_SYNONYM>
SCHEMBL16126512

> <PUBCHEM_XREF_EXT_ID>
SCHEMBL16126512

> <PUBCHEM_EXT_DATASOURCE_URL>
https://www.surechembl.org/

> <PUBCHEM_EXT_SUBSTANCE_URL>
https://www.surechembl.org/chemical/SCHEMBL16126512

> <PUBCHEM_CID_ASSOCIATIONS>
117613899  1

> <PUBCHEM_COORDINATE_TYPE>
1
3

> <PUBCHEM_BONDANNOTATIONS>
13  17  6
11  2  5

$$$$
