310948366
  -OEChem-07211613022D

 34 38  0     1  0  0  0  0  0999 V2000
   -0.6289   -2.7376    0.0000 S   0  0  0  0  0  0  0  0  0  0  0  0
   -2.6266    1.8867    0.0000 O   0  0  0  0  0  0  0  0  0  0  0  0
   -0.4069   -3.5330    0.0000 O   0  0  0  0  0  0  0  0  0  0  0  0
   -1.4243   -2.9781    0.0000 O   0  0  0  0  0  0  0  0  0  0  0  0
    0.1664    1.7017    0.0000 N   0  0  0  0  0  0  0  0  0  0  0  0
   -0.1850    0.9434    0.0000 N   0  0  0  0  0  0  0  0  0  0  0  0
   -1.5908    0.4440    0.0000 N   0  0  0  0  0  0  0  0  0  0  0  0
   -1.8682    3.1261    0.0000 N   0  0  0  0  0  0  0  0  0  0  0  0
    0.1664   -2.4971    0.0000 N   0  0  0  0  0  0  0  0  0  0  0  0
    1.0544   -0.3514    0.0000 N   0  0  0  0  0  0  0  0  0  0  0  0
   -1.1468    1.8682    0.0000 C   0  0  0  0  0  0  0  0  0  0  0  0
   -0.4440    2.2752    0.0000 C   0  0  0  0  0  0  0  0  0  0  0  0
   -1.0173    1.0913    0.0000 C   0  0  0  0  0  0  0  0  0  0  0  0
    0.9804    1.8498    0.0000 C   0  0  3  0  0  0  0  0  0  0  0  0
   -1.8867    2.3122    0.0000 C   0  0  0  0  0  0  0  0  0  0  0  0
   -0.4254    3.1076    0.0000 C   0  0  0  0  0  0  0  0  0  0  0  0
    1.5353    1.2578    0.0000 C   0  0  3  0  0  0  0  0  0  0  0  0
   -1.3503   -0.3330    0.0000 C   0  0  0  0  0  0  0  0  0  0  0  0
   -0.8694   -1.9422    0.0000 C   0  0  0  0  0  0  0  0  0  0  0  0
   -1.1653    3.5330    0.0000 C   0  0  0  0  0  0  0  0  0  0  0  0
    1.2578    2.6451    0.0000 C   0  0  0  0  0  0  0  0  0  0  0  0
   -1.8867   -0.9249    0.0000 C   0  0  0  0  0  0  0  0  0  0  0  0
   -0.5549   -0.5364    0.0000 C   0  0  0  0  0  0  0  0  0  0  0  0
   -1.6648   -1.7387    0.0000 C   0  0  0  0  0  0  0  0  0  0  0  0
   -0.3145   -1.3503    0.0000 C   0  0  0  0  0  0  0  0  0  0  0  0
    2.3491    1.4058    0.0000 C   0  0  0  0  0  0  0  0  0  0  0  0
    1.2763    0.4254    0.0000 C   0  0  0  0  0  0  0  0  0  0  0  0
    2.0902    2.7931    0.0000 C   0  0  0  0  0  0  0  0  0  0  0  0
    0.7769   -3.0521    0.0000 C   0  0  0  0  0  0  0  0  0  0  0  0
    0.3700   -1.6832    0.0000 C   0  0  0  0  0  0  0  0  0  0  0  0
    2.6266    2.1827    0.0000 C   0  0  0  0  0  0  0  0  0  0  0  0
    1.5537   -2.8486    0.0000 C   0  0  0  0  0  0  0  0  0  0  0  0
    1.1653   -1.4798    0.0000 C   0  0  0  0  0  0  0  0  0  0  0  0
    1.7572   -2.0162    0.0000 C   0  0  0  0  0  0  0  0  0  0  0  0
  1  3  2  0  0  0  0
  1  4  2  0  0  0  0
  1  9  1  0  0  0  0
  1 19  1  0  0  0  0
  2 15  2  0  0  0  0
  5  6  1  0  0  0  0
  5 12  1  0  0  0  0
 14  5  1  1  0  0  0
  6 13  2  0  0  0  0
  7 13  1  0  0  0  0
  7 18  1  0  0  0  0
  8 15  1  0  0  0  0
  8 20  1  0  0  0  0
  9 29  1  0  0  0  0
  9 30  1  0  0  0  0
 10 27  3  0  0  0  0
 11 12  2  0  0  0  0
 11 13  1  0  0  0  0
 11 15  1  0  0  0  0
 12 16  1  0  0  0  0
 14 17  1  0  0  0  0
 14 21  1  0  0  0  0
 16 20  2  0  0  0  0
 17 26  1  0  0  0  0
 17 27  1  6  0  0  0
 18 22  2  0  0  0  0
 18 23  1  0  0  0  0
 19 24  2  0  0  0  0
 19 25  1  0  0  0  0
 21 28  1  0  0  0  0
 22 24  1  0  0  0  0
 23 25  2  0  0  0  0
 26 31  1  0  0  0  0
 28 31  1  0  0  0  0
 29 32  1  0  0  0  0
 30 33  1  0  0  0  0
 32 34  1  0  0  0  0
 33 34  1  0  0  0  0
M  END
> <PUBCHEM_COMPOUND_ID_TYPE>
0

> <PUBCHEM_TOTAL_CHARGE>
0

> <PUBCHEM_SUBSTANCE_ID>
310948366

> <PUBCHEM_SUBSTANCE_VERSION>
1

> <PUBCHEM_EXT_DATASOURCE_NAME>
4488

> <PUBCHEM_EXT_DATASOURCE_REGID>
SCHEMBL16126546

> <PUBCHEM_SUBSTANCE_COMMENT>
InChI=1S/C24H28N6O3S/c25-16-17-6-2-3-7-20(17)30-21-12-13-26-24(31)22(21)23(28-30)27-18-8-10-19(11-9-18)34(32,33)29-14-4-1-5-15-29/h8-13,17,20H,1-7,14-15H2,(H,26,31)(H,27,28)/t17-,20+/m1/s1
InChIKey=KOZUOKDVJSCVEC-XLIONFOSSA-N

> <PUBCHEM_SUBSTANCE_SYNONYM>
SCHEMBL16126546

> <PUBCHEM_XREF_EXT_ID>
SCHEMBL16126546

> <PUBCHEM_EXT_DATASOURCE_URL>
https://www.surechembl.org/

> <PUBCHEM_EXT_SUBSTANCE_URL>
https://www.surechembl.org/chemical/SCHEMBL16126546

> <PUBCHEM_CID_ASSOCIATIONS>
117613930  1

> <PUBCHEM_COORDINATE_TYPE>
1
3

> <PUBCHEM_BONDANNOTATIONS>
17  27  6
14  5  5

$$$$
