310935300
  -OEChem-07211613022D

 31 34  0     0  0  0  0  0  0999 V2000
    7.0121   -5.7611    0.0000 S   0  0  0  0  0  0  0  0  0  0  0  0
    2.1398   -0.0329    0.0000 O   0  0  0  0  0  0  0  0  0  0  0  0
    7.0121   -4.8723    0.0000 O   0  0  0  0  0  0  0  0  0  0  0  0
    7.0121   -6.5841    0.0000 O   0  0  0  0  0  0  0  0  0  0  0  0
    3.3250   -5.0368    0.0000 N   0  0  0  0  0  0  0  0  0  0  0  0
    0.8230   -5.0368    0.0000 N   0  0  0  0  0  0  0  0  0  0  0  0
    2.0740   -5.7611    0.0000 N   0  0  0  0  0  0  0  0  0  0  0  0
    3.3250   -0.7572    0.0000 N   0  0  0  0  0  0  0  0  0  0  0  0
    6.2220   -5.7611    0.0000 N   0  0  0  0  0  0  0  0  0  0  0  0
    2.0740   -4.3126    0.0000 C   0  0  0  0  0  0  0  0  0  0  0  0
    1.2510   -4.3126    0.0000 C   0  0  0  0  0  0  0  0  0  0  0  0
    2.5019   -5.0368    0.0000 C   0  0  0  0  0  0  0  0  0  0  0  0
    2.0740   -2.8970    0.0000 C   0  0  0  0  0  0  0  0  0  0  0  0
    0.8559   -3.5883    0.0000 C   0  0  0  0  0  0  0  0  0  0  0  0
    2.5019   -3.6213    0.0000 C   0  0  0  0  0  0  0  0  0  0  0  0
    1.2510   -2.8970    0.0000 C   0  0  0  0  0  0  0  0  0  0  0  0
    2.5019   -2.1728    0.0000 C   0  0  0  0  0  0  0  0  0  0  0  0
    1.2510   -5.7611    0.0000 C   0  0  0  0  0  0  0  0  0  0  0  0
    3.7200   -4.3126    0.0000 C   0  0  0  0  0  0  0  0  0  0  0  0
    3.7200   -5.7611    0.0000 C   0  0  0  0  0  0  0  0  0  0  0  0
    2.0740   -1.4485    0.0000 C   0  0  0  0  0  0  0  0  0  0  0  0
    3.3250   -2.1728    0.0000 C   0  0  0  0  0  0  0  0  0  0  0  0
    4.9710   -5.0368    0.0000 C   0  0  0  0  0  0  0  0  0  0  0  0
    0.0000   -3.6213    0.0000 C   0  0  0  0  0  0  0  0  0  0  0  0
    4.5430   -4.3126    0.0000 C   0  0  0  0  0  0  0  0  0  0  0  0
    4.5430   -5.7611    0.0000 C   0  0  0  0  0  0  0  0  0  0  0  0
    2.5349   -0.7243    0.0000 C   0  0  0  0  0  0  0  0  0  0  0  0
    3.7529   -1.4814    0.0000 C   0  0  0  0  0  0  0  0  0  0  0  0
    5.7940   -5.0368    0.0000 C   0  0  0  0  0  0  0  0  0  0  0  0
    1.3168    0.0000    0.0000 C   0  0  0  0  0  0  0  0  0  0  0  0
    7.8680   -5.7611    0.0000 C   0  0  0  0  0  0  0  0  0  0  0  0
  1  3  2  0  0  0  0
  1  4  2  0  0  0  0
  1  9  1  0  0  0  0
  1 31  1  0  0  0  0
  2 27  1  0  0  0  0
  2 30  1  0  0  0  0
  5 12  1  0  0  0  0
  5 19  1  0  0  0  0
  5 20  1  0  0  0  0
  6 11  2  0  0  0  0
  6 18  1  0  0  0  0
  7 12  1  0  0  0  0
  7 18  2  0  0  0  0
  8 27  1  0  0  0  0
  8 28  2  0  0  0  0
  9 29  1  0  0  0  0
 10 11  1  0  0  0  0
 10 12  2  0  0  0  0
 10 15  1  0  0  0  0
 11 14  1  0  0  0  0
 13 15  2  0  0  0  0
 13 16  1  0  0  0  0
 13 17  1  0  0  0  0
 14 16  2  0  0  0  0
 14 24  1  0  0  0  0
 17 21  1  0  0  0  0
 17 22  2  0  0  0  0
 19 25  1  0  0  0  0
 20 26  1  0  0  0  0
 21 27  2  0  0  0  0
 22 28  1  0  0  0  0
 23 25  1  0  0  0  0
 23 26  1  0  0  0  0
 23 29  1  0  0  0  0
M  END
> <PUBCHEM_COMPOUND_ID_TYPE>
0

> <PUBCHEM_TOTAL_CHARGE>
0

> <PUBCHEM_SUBSTANCE_ID>
310935300

> <PUBCHEM_SUBSTANCE_VERSION>
1

> <PUBCHEM_EXT_DATASOURCE_NAME>
4488

> <PUBCHEM_EXT_DATASOURCE_REGID>
SCHEMBL16112833

> <PUBCHEM_SUBSTANCE_COMMENT>
InChI=1S/C22H27N5O3S/c1-15-10-18(17-4-7-23-20(12-17)30-2)11-19-21(15)24-14-25-22(19)27-8-5-16(6-9-27)13-26-31(3,28)29/h4,7,10-12,14,16,26H,5-6,8-9,13H2,1-3H3
InChIKey=DQBOFTAPUDEAKL-UHFFFAOYSA-N

> <PUBCHEM_SUBSTANCE_SYNONYM>
SCHEMBL16112833

> <PUBCHEM_XREF_EXT_ID>
SCHEMBL16112833

> <PUBCHEM_EXT_DATASOURCE_URL>
https://www.surechembl.org/

> <PUBCHEM_EXT_SUBSTANCE_URL>
https://www.surechembl.org/chemical/SCHEMBL16112833

> <PUBCHEM_CID_ASSOCIATIONS>
117603365  1

> <PUBCHEM_COORDINATE_TYPE>
1
3

$$$$
