310940353
  -OEChem-07211613022D

 11 11  0     0  0  0  0  0  0999 V2000
    0.3116   -1.4941    0.0000 O   0  0  0  0  0  0  0  0  0  0  0  0
   -0.9063   -0.1487    0.0000 N   0  0  0  0  0  0  0  0  0  0  0  0
   -1.3596    0.5311    0.0000 N   0  3  0  0  0  0  0  0  0  0  0  0
   -1.8270    1.2250    0.0000 N   0  5  0  0  0  0  0  0  0  0  0  0
    0.1841   -0.0637    0.0000 C   0  0  0  0  0  0  0  0  0  0  0  0
    0.6515   -0.7435    0.0000 C   0  0  0  0  0  0  0  0  0  0  0  0
    0.5382    0.6726    0.0000 C   0  0  0  0  0  0  0  0  0  0  0  0
    1.3454    0.7435    0.0000 C   0  0  0  0  0  0  0  0  0  0  0  0
    1.4729   -0.6586    0.0000 C   0  0  0  0  0  0  0  0  0  0  0  0
    1.8270    0.0921    0.0000 C   0  0  0  0  0  0  0  0  0  0  0  0
    1.6995    1.4941    0.0000 C   0  0  0  0  0  0  0  0  0  0  0  0
  1  6  1  0  0  0  0
  2  3  2  0  0  0  0
  2  5  1  0  0  0  0
  3  4  2  0  0  0  0
  5  6  1  0  0  0  0
  5  7  2  0  0  0  0
  6  9  2  0  0  0  0
  7  8  1  0  0  0  0
  8 10  2  0  0  0  0
  8 11  1  0  0  0  0
  9 10  1  0  0  0  0
M  CHG  2   3   1   4  -1
M  END
> <PUBCHEM_COMPOUND_ID_TYPE>
0

> <PUBCHEM_TOTAL_CHARGE>
0

> <PUBCHEM_SUBSTANCE_ID>
310940353

> <PUBCHEM_SUBSTANCE_VERSION>
1

> <PUBCHEM_EXT_DATASOURCE_NAME>
4488

> <PUBCHEM_EXT_DATASOURCE_REGID>
SCHEMBL16118297

> <PUBCHEM_SUBSTANCE_COMMENT>
InChI=1S/C7H7N3O/c1-5-2-3-7(11)6(4-5)9-10-8/h2-4,11H,1H3
InChIKey=YRARNWBGJULDSA-UHFFFAOYSA-N

> <PUBCHEM_SUBSTANCE_SYNONYM>
SCHEMBL16118297

> <PUBCHEM_XREF_EXT_ID>
SCHEMBL16118297

> <PUBCHEM_EXT_DATASOURCE_URL>
https://www.surechembl.org/

> <PUBCHEM_EXT_SUBSTANCE_URL>
https://www.surechembl.org/chemical/SCHEMBL16118297

> <PUBCHEM_CID_ASSOCIATIONS>
12681415  1

> <PUBCHEM_COORDINATE_TYPE>
1
3

$$$$
