310948589
  -OEChem-07211613022D

 26 29  0     1  0  0  0  0  0999 V2000
   -1.4927   -0.8894    0.0000 O   0  0  0  0  0  0  0  0  0  0  0  0
    0.0232    1.4308    0.0000 N   0  0  0  0  0  0  0  0  0  0  0  0
    0.5181    0.7656    0.0000 N   0  0  0  0  0  0  0  0  0  0  0  0
   -2.2041    0.3480    0.0000 N   0  0  0  0  0  0  0  0  0  0  0  0
    0.2861   -0.6883    0.0000 N   0  0  0  0  0  0  0  0  0  0  0  0
    2.2041    1.1678    0.0000 N   0  0  0  0  0  0  0  0  0  0  0  0
   -0.7656    0.3634    0.0000 C   0  0  0  0  0  0  0  0  0  0  0  0
   -0.7501    1.1833    0.0000 C   0  0  0  0  0  0  0  0  0  0  0  0
    0.0232    0.1005    0.0000 C   0  0  0  0  0  0  0  0  0  0  0  0
   -1.4772   -0.0541    0.0000 C   0  0  0  0  0  0  0  0  0  0  0  0
    0.2861    2.2351    0.0000 C   0  0  3  0  0  0  0  0  0  0  0  0
   -1.4772    1.6009    0.0000 C   0  0  0  0  0  0  0  0  0  0  0  0
    1.0750    2.4052    0.0000 C   0  0  3  0  0  0  0  0  0  0  0  0
   -2.1886    1.1833    0.0000 C   0  0  0  0  0  0  0  0  0  0  0  0
   -0.2552    2.8383    0.0000 C   0  0  0  0  0  0  0  0  0  0  0  0
    1.3379    3.1940    0.0000 C   0  0  0  0  0  0  0  0  0  0  0  0
    1.6473    1.7865    0.0000 C   0  0  0  0  0  0  0  0  0  0  0  0
   -0.0077    3.6271    0.0000 C   0  0  0  0  0  0  0  0  0  0  0  0
   -0.7656   -1.3070    0.0000 C   0  0  0  0  0  0  0  0  0  0  0  0
    0.8121    3.7818    0.0000 C   0  0  0  0  0  0  0  0  0  0  0  0
   -0.7811   -2.1267    0.0000 C   0  0  0  0  0  0  0  0  0  0  0  0
   -1.4772   -2.5445    0.0000 C   0  0  0  0  0  0  0  0  0  0  0  0
   -0.0541   -2.5445    0.0000 C   0  0  0  0  0  0  0  0  0  0  0  0
   -1.4617   -3.3796    0.0000 C   0  0  0  0  0  0  0  0  0  0  0  0
   -0.0541   -3.3642    0.0000 C   0  0  0  0  0  0  0  0  0  0  0  0
   -0.7501   -3.7818    0.0000 C   0  0  0  0  0  0  0  0  0  0  0  0
  1 10  1  0  0  0  0
  1 19  1  0  0  0  0
  2  3  1  0  0  0  0
  2  8  1  0  0  0  0
 11  2  1  1  0  0  0
  3  9  2  0  0  0  0
  4 10  2  0  0  0  0
  4 14  1  0  0  0  0
  5  9  1  0  0  0  0
  6 17  3  0  0  0  0
  7  8  2  0  0  0  0
  7  9  1  0  0  0  0
  7 10  1  0  0  0  0
  8 12  1  0  0  0  0
 11 13  1  0  0  0  0
 11 15  1  0  0  0  0
 12 14  2  0  0  0  0
 13 16  1  0  0  0  0
 13 17  1  1  0  0  0
 15 18  1  0  0  0  0
 16 20  1  0  0  0  0
 18 20  1  0  0  0  0
 19 21  1  0  0  0  0
 21 22  2  0  0  0  0
 21 23  1  0  0  0  0
 22 24  1  0  0  0  0
 23 25  2  0  0  0  0
 24 26  2  0  0  0  0
 25 26  1  0  0  0  0
M  END
> <PUBCHEM_COMPOUND_ID_TYPE>
0

> <PUBCHEM_TOTAL_CHARGE>
0

> <PUBCHEM_SUBSTANCE_ID>
310948589

> <PUBCHEM_SUBSTANCE_VERSION>
1

> <PUBCHEM_EXT_DATASOURCE_NAME>
4488

> <PUBCHEM_EXT_DATASOURCE_REGID>
SCHEMBL16126772

> <PUBCHEM_SUBSTANCE_COMMENT>
InChI=1S/C20H21N5O/c21-12-15-8-4-5-9-16(15)25-17-10-11-23-20(18(17)19(22)24-25)26-13-14-6-2-1-3-7-14/h1-3,6-7,10-11,15-16H,4-5,8-9,13H2,(H2,22,24)/t15-,16-/m0/s1
InChIKey=IAOPEWYWBBQEHA-HOTGVXAUSA-N

> <PUBCHEM_SUBSTANCE_SYNONYM>
SCHEMBL16126772

> <PUBCHEM_XREF_EXT_ID>
SCHEMBL16126772

> <PUBCHEM_EXT_DATASOURCE_URL>
https://www.surechembl.org/

> <PUBCHEM_EXT_SUBSTANCE_URL>
https://www.surechembl.org/chemical/SCHEMBL16126772

> <PUBCHEM_CID_ASSOCIATIONS>
117614138  1

> <PUBCHEM_COORDINATE_TYPE>
1
3

> <PUBCHEM_BONDANNOTATIONS>
13  17  5
11  2  5

$$$$
