310949568
  -OEChem-07211613022D

 41 46  0     0  0  0  0  0  0999 V2000
   -1.4790   -0.6804    0.0000 O   0  0  0  0  0  0  0  0  0  0  0  0
    4.5257    0.2070    0.0000 O   0  0  0  0  0  0  0  0  0  0  0  0
    5.8420    0.6508    0.0000 O   0  0  0  0  0  0  0  0  0  0  0  0
   -2.1889    0.5620    0.0000 N   0  0  0  0  0  0  0  0  0  0  0  0
    1.4938    0.3106    0.0000 N   0  0  0  0  0  0  0  0  0  0  0  0
    1.9819    0.9761    0.0000 N   0  0  0  0  0  0  0  0  0  0  0  0
   -2.9136    0.1479    0.0000 C   0  0  0  0  0  0  0  0  0  0  0  0
   -3.6531    0.5768    0.0000 C   0  0  0  0  0  0  0  0  0  0  0  0
   -2.4995   -0.5620    0.0000 C   0  0  0  0  0  0  0  0  0  0  0  0
   -3.3129   -0.5620    0.0000 C   0  0  0  0  0  0  0  0  0  0  0  0
    0.6804    0.5768    0.0000 C   0  0  0  0  0  0  0  0  0  0  0  0
   -1.4642    0.1775    0.0000 C   0  0  0  0  0  0  0  0  0  0  0  0
    0.6952    1.4050    0.0000 C   0  0  0  0  0  0  0  0  0  0  0  0
   -0.7543    0.5768    0.0000 C   0  0  0  0  0  0  0  0  0  0  0  0
   -0.0444    0.1627    0.0000 C   0  0  0  0  0  0  0  0  0  0  0  0
    1.4790    1.6564    0.0000 C   0  0  0  0  0  0  0  0  0  0  0  0
   -4.3630    0.1627    0.0000 C   0  0  0  0  0  0  0  0  0  0  0  0
   -3.6383    1.4050    0.0000 C   0  0  0  0  0  0  0  0  0  0  0  0
   -0.0148    1.8044    0.0000 C   0  0  0  0  0  0  0  0  0  0  0  0
   -0.7395    1.3902    0.0000 C   0  0  0  0  0  0  0  0  0  0  0  0
   -5.0729    0.5768    0.0000 C   0  0  0  0  0  0  0  0  0  0  0  0
    1.7008   -0.4880    0.0000 C   0  0  0  0  0  0  0  0  0  0  0  0
   -4.3334    1.8044    0.0000 C   0  0  0  0  0  0  0  0  0  0  0  0
    2.4995   -0.7099    0.0000 C   0  0  0  0  0  0  0  0  0  0  0  0
   -5.0581    1.3902    0.0000 C   0  0  0  0  0  0  0  0  0  0  0  0
   -5.7976    0.1627    0.0000 C   0  0  0  0  0  0  0  0  0  0  0  0
    1.8931    2.3664    0.0000 C   0  0  0  0  0  0  0  0  0  0  0  0
    4.1116   -1.1240    0.0000 C   0  0  0  0  0  0  0  0  0  0  0  0
    4.9102   -1.3607    0.0000 C   0  0  0  0  0  0  0  0  0  0  0  0
    2.7361   -1.5085    0.0000 C   0  0  0  0  0  0  0  0  0  0  0  0
    3.0911   -0.1331    0.0000 C   0  0  0  0  0  0  0  0  0  0  0  0
    5.5018   -0.7543    0.0000 C   0  0  0  0  0  0  0  0  0  0  0  0
    3.5200   -1.7156    0.0000 C   0  0  0  0  0  0  0  0  0  0  0  0
    3.8897   -0.3401    0.0000 C   0  0  0  0  0  0  0  0  0  0  0  0
    5.1320   -2.1593    0.0000 C   0  0  0  0  0  0  0  0  0  0  0  0
    5.2800    0.0296    0.0000 C   0  0  0  0  0  0  0  0  0  0  0  0
    6.3004   -0.9909    0.0000 C   0  0  0  0  0  0  0  0  0  0  0  0
   -6.5076    0.5472    0.0000 C   0  0  0  0  0  0  0  0  0  0  0  0
   -5.7828   -0.6804    0.0000 C   0  0  0  0  0  0  0  0  0  0  0  0
    5.9307   -2.3664    0.0000 C   0  0  0  0  0  0  0  0  0  0  0  0
    6.5076   -1.7896    0.0000 C   0  0  0  0  0  0  0  0  0  0  0  0
  1 12  2  0  0  0  0
  2 36  2  0  0  0  0
  3 36  1  0  0  0  0
  4  7  1  0  0  0  0
  4 12  1  0  0  0  0
  5  6  1  0  0  0  0
  5 11  1  0  0  0  0
  5 22  1  0  0  0  0
  6 16  2  0  0  0  0
  7  8  1  0  0  0  0
  7  9  1  0  0  0  0
  7 10  1  0  0  0  0
  8 17  2  0  0  0  0
  8 18  1  0  0  0  0
  9 10  1  0  0  0  0
 11 13  1  0  0  0  0
 11 15  2  0  0  0  0
 12 14  1  0  0  0  0
 13 16  1  0  0  0  0
 13 19  2  0  0  0  0
 14 15  1  0  0  0  0
 14 20  2  0  0  0  0
 16 27  1  0  0  0  0
 17 21  1  0  0  0  0
 18 23  2  0  0  0  0
 19 20  1  0  0  0  0
 21 25  2  0  0  0  0
 21 26  1  0  0  0  0
 22 24  1  0  0  0  0
 23 25  1  0  0  0  0
 24 30  2  0  0  0  0
 24 31  1  0  0  0  0
 26 38  1  0  0  0  0
 26 39  1  0  0  0  0
 28 29  1  0  0  0  0
 28 33  2  0  0  0  0
 28 34  1  0  0  0  0
 29 32  1  0  0  0  0
 29 35  2  0  0  0  0
 30 33  1  0  0  0  0
 31 34  2  0  0  0  0
 32 36  1  0  0  0  0
 32 37  2  0  0  0  0
 35 40  1  0  0  0  0
 37 41  1  0  0  0  0
 40 41  2  0  0  0  0
M  END
> <PUBCHEM_COMPOUND_ID_TYPE>
0

> <PUBCHEM_TOTAL_CHARGE>
0

> <PUBCHEM_SUBSTANCE_ID>
310949568

> <PUBCHEM_SUBSTANCE_VERSION>
1

> <PUBCHEM_EXT_DATASOURCE_NAME>
4488

> <PUBCHEM_EXT_DATASOURCE_REGID>
SCHEMBL16127763

> <PUBCHEM_SUBSTANCE_COMMENT>
InChI=1S/C35H33N3O3/c1-22(2)26-7-6-8-28(19-26)35(17-18-35)36-33(39)27-15-16-29-23(3)37-38(32(29)20-27)21-24-11-13-25(14-12-24)30-9-4-5-10-31(30)34(40)41/h4-16,19-20,22H,17-18,21H2,1-3H3,(H,36,39)(H,40,41)
InChIKey=DYBUXYHYXCAZOV-UHFFFAOYSA-N

> <PUBCHEM_SUBSTANCE_SYNONYM>
SCHEMBL16127763

> <PUBCHEM_XREF_EXT_ID>
SCHEMBL16127763

> <PUBCHEM_EXT_DATASOURCE_URL>
https://www.surechembl.org/

> <PUBCHEM_EXT_SUBSTANCE_URL>
https://www.surechembl.org/chemical/SCHEMBL16127763

> <PUBCHEM_CID_ASSOCIATIONS>
71578061  1

> <PUBCHEM_COORDINATE_TYPE>
1
3

$$$$
