310946310
  -OEChem-07211613022D

 29 31  0     0  0  0  0  0  0999 V2000
   -2.1410    8.9687    0.0000 I   0  0  0  0  0  0  0  0  0  0  0  0
   -0.7121   11.4437    0.0000 I   0  0  0  0  0  0  0  0  0  0  0  0
   -4.9989   10.6187    0.0000 I   0  0  0  0  0  0  0  0  0  0  0  0
   -2.1410   10.6187    0.0000 O   0  0  0  0  0  0  0  0  0  0  0  0
   -4.9989    8.9687    0.0000 O   0  0  0  0  0  0  0  0  0  0  0  0
    1.4314   10.2062    0.0000 O   0  0  0  0  0  0  0  0  0  0  0  0
    2.1458    8.9687    0.0000 N   0  0  0  0  0  0  0  0  0  0  0  0
   -1.4265   10.2062    0.0000 C   0  0  0  0  0  0  0  0  0  0  0  0
   -1.4265    9.3812    0.0000 C   0  0  0  0  0  0  0  0  0  0  0  0
   -0.7121   10.6187    0.0000 C   0  0  0  0  0  0  0  0  0  0  0  0
    0.0024    9.3812    0.0000 C   0  0  0  0  0  0  0  0  0  0  0  0
   -2.8555   10.2062    0.0000 C   0  0  0  0  0  0  0  0  0  0  0  0
   -0.7121    8.9687    0.0000 C   0  0  0  0  0  0  0  0  0  0  0  0
    0.0024   10.2062    0.0000 C   0  0  0  0  0  0  0  0  0  0  0  0
   -3.5699   10.6187    0.0000 C   0  0  0  0  0  0  0  0  0  0  0  0
   -4.2844   10.2062    0.0000 C   0  0  0  0  0  0  0  0  0  0  0  0
   -2.8555    9.3812    0.0000 C   0  0  0  0  0  0  0  0  0  0  0  0
    0.7169    8.9687    0.0000 C   0  0  0  0  0  0  0  0  0  0  0  0
   -4.2844    9.3812    0.0000 C   0  0  0  0  0  0  0  0  0  0  0  0
   -3.5699    8.9687    0.0000 C   0  0  0  0  0  0  0  0  0  0  0  0
    1.4314    9.3812    0.0000 C   0  0  0  0  0  0  0  0  0  0  0  0
    2.8603    9.3812    0.0000 C   0  0  0  0  0  0  0  0  0  0  0  0
    3.5748   10.6187    0.0000 C   0  0  0  0  0  0  0  0  0  0  0  0
    2.8603   10.2062    0.0000 C   0  0  0  0  0  0  0  0  0  0  0  0
    4.2892   10.2062    0.0000 C   0  0  0  0  0  0  0  0  0  0  0  0
    3.5748   11.4437    0.0000 C   0  0  0  0  0  0  0  0  0  0  0  0
    5.0037   10.6187    0.0000 C   0  0  0  0  0  0  0  0  0  0  0  0
    4.2892   11.8562    0.0000 C   0  0  0  0  0  0  0  0  0  0  0  0
    5.0037   11.4437    0.0000 C   0  0  0  0  0  0  0  0  0  0  0  0
  1  9  1  0  0  0  0
  2 10  1  0  0  0  0
  3 16  1  0  0  0  0
  4  8  1  0  0  0  0
  4 12  1  0  0  0  0
  5 19  1  0  0  0  0
  6 21  2  0  0  0  0
  7 21  1  0  0  0  0
  7 22  1  0  0  0  0
  8  9  2  0  0  0  0
  8 10  1  0  0  0  0
  9 13  1  0  0  0  0
 10 14  2  0  0  0  0
 11 13  2  0  0  0  0
 11 14  1  0  0  0  0
 11 18  1  0  0  0  0
 12 15  2  0  0  0  0
 12 17  1  0  0  0  0
 15 16  1  0  0  0  0
 16 19  2  0  0  0  0
 17 20  2  0  0  0  0
 18 21  1  0  0  0  0
 19 20  1  0  0  0  0
 22 24  1  0  0  0  0
 23 24  1  0  0  0  0
 23 25  2  0  0  0  0
 23 26  1  0  0  0  0
 25 27  1  0  0  0  0
 26 28  2  0  0  0  0
 27 29  2  0  0  0  0
 28 29  1  0  0  0  0
M  END
> <PUBCHEM_COMPOUND_ID_TYPE>
0

> <PUBCHEM_TOTAL_CHARGE>
0

> <PUBCHEM_SUBSTANCE_ID>
310946310

> <PUBCHEM_SUBSTANCE_VERSION>
1

> <PUBCHEM_EXT_DATASOURCE_NAME>
4488

> <PUBCHEM_EXT_DATASOURCE_REGID>
SCHEMBL16124429

> <PUBCHEM_SUBSTANCE_COMMENT>
InChI=1S/C22H18I3NO3/c23-17-13-16(6-7-20(17)27)29-22-18(24)10-15(11-19(22)25)12-21(28)26-9-8-14-4-2-1-3-5-14/h1-7,10-11,13,27H,8-9,12H2,(H,26,28)
InChIKey=YNHVONOSLFTASH-UHFFFAOYSA-N

> <PUBCHEM_SUBSTANCE_SYNONYM>
SCHEMBL16124429

> <PUBCHEM_XREF_EXT_ID>
SCHEMBL16124429

> <PUBCHEM_EXT_DATASOURCE_URL>
https://www.surechembl.org/

> <PUBCHEM_EXT_SUBSTANCE_URL>
https://www.surechembl.org/chemical/SCHEMBL16124429

> <PUBCHEM_CID_ASSOCIATIONS>
117612248  1

> <PUBCHEM_COORDINATE_TYPE>
1
3

$$$$
