310930797
  -OEChem-07211613022D

 29 32  0     0  0  0  0  0  0999 V2000
    0.0000   -2.4406    0.0000 Cl  0  0  0  0  0  0  0  0  0  0  0  0
    2.8650   -2.4759    0.0000 S   0  0  0  0  0  0  0  0  0  0  0  0
    3.3248   -3.2541    0.0000 O   0  0  0  0  0  0  0  0  0  0  0  0
    2.4759   -1.7685    0.0000 O   0  0  0  0  0  0  0  0  0  0  0  0
    7.1802    0.0000    0.0000 O   0  0  0  0  0  0  0  0  0  0  0  0
    8.5950   -2.4759    0.0000 N   0  0  0  0  0  0  0  0  0  0  0  0
   10.1159   -2.3344    0.0000 N   0  0  0  0  0  0  0  0  0  0  0  0
    1.4148   -4.1030    0.0000 N   0  0  0  0  0  0  0  0  0  0  0  0
   10.6111   -1.6624    0.0000 N   0  0  0  0  0  0  0  0  0  0  0  0
    6.4728   -1.2380    0.0000 N   0  0  0  0  0  0  0  0  0  0  0  0
    3.5724   -2.0515    0.0000 C   0  0  0  0  0  0  0  0  0  0  0  0
    2.1576   -2.8650    0.0000 C   0  0  0  0  0  0  0  0  0  0  0  0
    9.3378   -1.2380    0.0000 C   0  0  0  0  0  0  0  0  0  0  0  0
    9.3378   -2.0868    0.0000 C   0  0  0  0  0  0  0  0  0  0  0  0
    7.8876   -1.2380    0.0000 C   0  0  0  0  0  0  0  0  0  0  0  0
    1.4148   -2.4759    0.0000 C   0  0  0  0  0  0  0  0  0  0  0  0
    4.3152   -2.4759    0.0000 C   0  0  0  0  0  0  0  0  0  0  0  0
    3.6078   -1.2380    0.0000 C   0  0  0  0  0  0  0  0  0  0  0  0
    2.1222   -3.7139    0.0000 C   0  0  0  0  0  0  0  0  0  0  0  0
    8.5950   -0.8135    0.0000 C   0  0  0  0  0  0  0  0  0  0  0  0
    5.0226   -1.2380    0.0000 C   0  0  0  0  0  0  0  0  0  0  0  0
    7.1802   -0.8135    0.0000 C   0  0  0  0  0  0  0  0  0  0  0  0
    0.7074   -2.8650    0.0000 C   0  0  0  0  0  0  0  0  0  0  0  0
    5.0226   -2.0515    0.0000 C   0  0  0  0  0  0  0  0  0  0  0  0
    4.3152   -0.8135    0.0000 C   0  0  0  0  0  0  0  0  0  0  0  0
    7.8876   -2.0868    0.0000 C   0  0  0  0  0  0  0  0  0  0  0  0
   10.1159   -0.9904    0.0000 C   0  0  0  0  0  0  0  0  0  0  0  0
    5.7654   -0.8135    0.0000 C   0  0  0  0  0  0  0  0  0  0  0  0
    0.6720   -3.7139    0.0000 C   0  0  0  0  0  0  0  0  0  0  0  0
  1 23  1  0  0  0  0
  2  3  2  0  0  0  0
  2  4  2  0  0  0  0
  2 11  1  0  0  0  0
  2 12  1  0  0  0  0
  5 22  2  0  0  0  0
  6 14  1  0  0  0  0
  6 26  2  0  0  0  0
  7  9  1  0  0  0  0
  7 14  1  0  0  0  0
  8 19  1  0  0  0  0
  8 29  2  0  0  0  0
  9 27  2  0  0  0  0
 10 22  1  0  0  0  0
 10 28  1  0  0  0  0
 11 17  2  0  0  0  0
 11 18  1  0  0  0  0
 12 16  1  0  0  0  0
 12 19  2  0  0  0  0
 13 14  2  0  0  0  0
 13 20  1  0  0  0  0
 13 27  1  0  0  0  0
 15 20  2  0  0  0  0
 15 22  1  0  0  0  0
 15 26  1  0  0  0  0
 16 23  2  0  0  0  0
 17 24  1  0  0  0  0
 18 25  2  0  0  0  0
 21 24  2  0  0  0  0
 21 25  1  0  0  0  0
 21 28  1  0  0  0  0
 23 29  1  0  0  0  0
M  END
> <PUBCHEM_COMPOUND_ID_TYPE>
0

> <PUBCHEM_TOTAL_CHARGE>
0

> <PUBCHEM_SUBSTANCE_ID>
310930797

> <PUBCHEM_SUBSTANCE_VERSION>
1

> <PUBCHEM_EXT_DATASOURCE_NAME>
4488

> <PUBCHEM_EXT_DATASOURCE_REGID>
SCHEMBL16108094

> <PUBCHEM_SUBSTANCE_COMMENT>
InChI=1S/C19H14ClN5O3S/c20-15-6-17(11-21-10-15)29(27,28)16-3-1-12(2-4-16)7-23-19(26)14-5-13-9-24-25-18(13)22-8-14/h1-6,8-11H,7H2,(H,23,26)(H,22,24,25)
InChIKey=YVKXTNWBOTWHSY-UHFFFAOYSA-N

> <PUBCHEM_SUBSTANCE_SYNONYM>
SCHEMBL16108094

> <PUBCHEM_XREF_EXT_ID>
SCHEMBL16108094

> <PUBCHEM_EXT_DATASOURCE_URL>
https://www.surechembl.org/

> <PUBCHEM_EXT_SUBSTANCE_URL>
https://www.surechembl.org/chemical/SCHEMBL16108094

> <PUBCHEM_CID_ASSOCIATIONS>
90655900  1

> <PUBCHEM_COORDINATE_TYPE>
1
3

$$$$
