310944913
  -OEChem-07211613022D

 16 17  0     0  0  0  0  0  0999 V2000
   -3.5339    0.0174    0.0000 O   0  0  0  0  0  0  0  0  0  0  0  0
   -1.8668    0.0174    0.0000 N   0  0  0  0  0  0  0  0  0  0  0  0
   -1.0332    0.0000    0.0000 C   0  0  0  0  0  0  0  0  0  0  0  0
   -0.6165    0.6773    0.0000 C   0  0  0  0  0  0  0  0  0  0  0  0
   -0.5991   -0.6946    0.0000 C   0  0  0  0  0  0  0  0  0  0  0  0
    0.6338    0.0174    0.0000 C   0  0  0  0  0  0  0  0  0  0  0  0
   -2.2662    0.6946    0.0000 C   0  0  0  0  0  0  0  0  0  0  0  0
   -2.2836   -0.7120    0.0000 C   0  0  0  0  0  0  0  0  0  0  0  0
    0.2344    0.6946    0.0000 C   0  0  0  0  0  0  0  0  0  0  0  0
    0.2170   -0.6946    0.0000 C   0  0  0  0  0  0  0  0  0  0  0  0
   -3.1171    0.6946    0.0000 C   0  0  0  0  0  0  0  0  0  0  0  0
   -3.1171   -0.6946    0.0000 C   0  0  0  0  0  0  0  0  0  0  0  0
    1.4674   -0.0174    0.0000 C   0  0  0  0  0  0  0  0  0  0  0  0
    2.3183    0.0174    0.0000 C   0  0  0  0  0  0  0  0  0  0  0  0
    3.1345    0.0000    0.0000 C   0  0  0  0  0  0  0  0  0  0  0  0
    3.5339    0.7120    0.0000 C   0  0  0  0  0  0  0  0  0  0  0  0
  1 11  1  0  0  0  0
  1 12  1  0  0  0  0
  2  3  1  0  0  0  0
  2  7  1  0  0  0  0
  2  8  1  0  0  0  0
  3  4  2  0  0  0  0
  3  5  1  0  0  0  0
  4  9  1  0  0  0  0
  5 10  2  0  0  0  0
  6  9  2  0  0  0  0
  6 10  1  0  0  0  0
  6 13  1  0  0  0  0
  7 11  1  0  0  0  0
  8 12  1  0  0  0  0
 13 14  3  0  0  0  0
 14 15  1  0  0  0  0
 15 16  1  0  0  0  0
M  END
> <PUBCHEM_COMPOUND_ID_TYPE>
0

> <PUBCHEM_TOTAL_CHARGE>
0

> <PUBCHEM_SUBSTANCE_ID>
310944913

> <PUBCHEM_SUBSTANCE_VERSION>
1

> <PUBCHEM_EXT_DATASOURCE_NAME>
4488

> <PUBCHEM_EXT_DATASOURCE_REGID>
SCHEMBL16122998

> <PUBCHEM_SUBSTANCE_COMMENT>
InChI=1S/C14H17NO/c1-2-3-4-13-5-7-14(8-6-13)15-9-11-16-12-10-15/h5-8H,2,9-12H2,1H3
InChIKey=LHGIFNLWRWMAEC-UHFFFAOYSA-N

> <PUBCHEM_SUBSTANCE_SYNONYM>
SCHEMBL16122998

> <PUBCHEM_XREF_EXT_ID>
SCHEMBL16122998

> <PUBCHEM_EXT_DATASOURCE_URL>
https://www.surechembl.org/

> <PUBCHEM_EXT_SUBSTANCE_URL>
https://www.surechembl.org/chemical/SCHEMBL16122998

> <PUBCHEM_CID_ASSOCIATIONS>
117611088  1

> <PUBCHEM_COORDINATE_TYPE>
1
3

$$$$
