310949601
  -OEChem-07211613022D

 31 36  0     1  0  0  0  0  0999 V2000
    2.5492    0.4503    0.0000 F   0  0  0  0  0  0  0  0  0  0  0  0
   -0.9005    1.3092    0.0000 N   0  0  0  0  0  0  0  0  0  0  0  0
   -0.8866    2.6531    0.0000 N   0  0  0  0  0  0  0  0  0  0  0  0
   -0.1385   -1.0598    0.0000 N   0  0  0  0  0  0  0  0  0  0  0  0
    1.9951   -2.8193    0.0000 N   0  0  0  0  0  0  0  0  0  0  0  0
    1.6902    1.5586    0.0000 N   0  0  0  0  0  0  0  0  0  0  0  0
   -0.4157    1.9882    0.0000 C   0  0  0  0  0  0  0  0  0  0  0  0
   -1.6902    1.6002    0.0000 C   0  0  0  0  0  0  0  0  0  0  0  0
   -1.6764    2.4176    0.0000 C   0  0  0  0  0  0  0  0  0  0  0  0
   -0.6374    0.5334    0.0000 C   0  0  0  0  0  0  0  0  0  0  0  0
    0.4434    1.9743    0.0000 C   0  0  3  0  0  0  0  0  0  0  0  0
   -2.3968    1.1707    0.0000 C   0  0  0  0  0  0  0  0  0  0  0  0
    1.5933   -1.5309    0.0000 C   0  0  0  0  0  0  0  0  0  0  0  0
    0.9282   -2.0158    0.0000 C   0  0  0  0  0  0  0  0  0  0  0  0
   -2.3968    2.8193    0.0000 C   0  0  0  0  0  0  0  0  0  0  0  0
   -1.1915   -0.0901    0.0000 C   0  0  0  0  0  0  0  0  0  0  0  0
    0.1801    0.3394    0.0000 C   0  0  0  0  0  0  0  0  0  0  0  0
    2.2722   -2.0158    0.0000 C   0  0  0  0  0  0  0  0  0  0  0  0
    0.9143    1.3231    0.0000 C   0  0  0  0  0  0  0  0  0  0  0  0
    0.9005    2.6392    0.0000 C   0  0  0  0  0  0  0  0  0  0  0  0
    0.1247   -1.8357    0.0000 C   0  0  0  0  0  0  0  0  0  0  0  0
   -0.9421   -0.8797    0.0000 C   0  0  0  0  0  0  0  0  0  0  0  0
    0.4157   -0.4365    0.0000 C   0  0  0  0  0  0  0  0  0  0  0  0
   -3.1173    1.5864    0.0000 C   0  0  0  0  0  0  0  0  0  0  0  0
   -3.1173    2.4176    0.0000 C   0  0  0  0  0  0  0  0  0  0  0  0
    1.1776   -2.8055    0.0000 C   0  0  0  0  0  0  0  0  0  0  0  0
    1.6902   -0.7135    0.0000 C   0  0  0  0  0  0  0  0  0  0  0  0
    3.0202   -1.6833    0.0000 C   0  0  0  0  0  0  0  0  0  0  0  0
    2.4384   -0.3810    0.0000 C   0  0  0  0  0  0  0  0  0  0  0  0
    1.7041    2.3899    0.0000 C   0  0  0  0  0  0  0  0  0  0  0  0
    3.1173   -0.8658    0.0000 C   0  0  0  0  0  0  0  0  0  0  0  0
  1 29  1  0  0  0  0
  2  7  1  0  0  0  0
  2  8  1  0  0  0  0
  2 10  1  0  0  0  0
  3  7  2  0  0  0  0
  3  9  1  0  0  0  0
  4 21  1  0  0  0  0
  4 22  1  0  0  0  0
  4 23  1  0  0  0  0
  5 18  1  0  0  0  0
  5 26  1  0  0  0  0
  6 19  1  0  0  0  0
  6 30  1  0  0  0  0
 11  7  1  6  0  0  0
  8  9  1  0  0  0  0
  8 12  2  0  0  0  0
  9 15  2  0  0  0  0
 10 16  1  0  0  0  0
 10 17  1  0  0  0  0
 11 19  1  0  0  0  0
 11 20  1  0  0  0  0
 12 24  1  0  0  0  0
 13 14  1  0  0  0  0
 13 18  2  0  0  0  0
 13 27  1  0  0  0  0
 14 21  1  0  0  0  0
 14 26  2  0  0  0  0
 15 25  1  0  0  0  0
 16 22  1  0  0  0  0
 17 23  1  0  0  0  0
 18 28  1  0  0  0  0
 20 30  1  0  0  0  0
 24 25  2  0  0  0  0
 27 29  2  0  0  0  0
 28 31  2  0  0  0  0
 29 31  1  0  0  0  0
M  END
> <PUBCHEM_COMPOUND_ID_TYPE>
0

> <PUBCHEM_TOTAL_CHARGE>
0

> <PUBCHEM_SUBSTANCE_ID>
310949601

> <PUBCHEM_SUBSTANCE_VERSION>
1

> <PUBCHEM_EXT_DATASOURCE_NAME>
4488

> <PUBCHEM_EXT_DATASOURCE_REGID>
SCHEMBL16127798

> <PUBCHEM_SUBSTANCE_COMMENT>
InChI=1S/C25H28FN5/c26-19-5-6-22-21(13-19)18(15-28-22)16-30-11-8-20(9-12-30)31-24-4-2-1-3-23(24)29-25(31)17-7-10-27-14-17/h1-6,13,15,17,20,27-28H,7-12,14,16H2/t17-/m1/s1
InChIKey=NFYXPCDLZUKIDJ-QGZVFWFLSA-N

> <PUBCHEM_SUBSTANCE_SYNONYM>
SCHEMBL16127798

> <PUBCHEM_XREF_EXT_ID>
SCHEMBL16127798

> <PUBCHEM_EXT_DATASOURCE_URL>
https://www.surechembl.org/

> <PUBCHEM_EXT_SUBSTANCE_URL>
https://www.surechembl.org/chemical/SCHEMBL16127798

> <PUBCHEM_CID_ASSOCIATIONS>
86275494  1

> <PUBCHEM_COORDINATE_TYPE>
1
3

> <PUBCHEM_BONDANNOTATIONS>
11  7  6

$$$$
