310934380
  -OEChem-07211613022D

 27 29  0     0  0  0  0  0  0999 V2000
    8.1531   -0.7202    0.0000 S   0  0  0  0  0  0  0  0  0  0  0  0
    0.0000   -5.6179    0.0000 F   0  0  0  0  0  0  0  0  0  0  0  0
    1.4405   -5.7619    0.0000 F   0  0  0  0  0  0  0  0  0  0  0  0
    4.5519   -3.4860    0.0000 O   0  0  0  0  0  0  0  0  0  0  0  0
    5.2145    0.0000    0.0000 O   0  0  0  0  0  0  0  0  0  0  0  0
    0.8643   -4.4655    0.0000 O   0  0  0  0  0  0  0  0  0  0  0  0
    5.6467   -2.1607    0.0000 O   0  0  0  0  0  0  0  0  0  0  0  0
    6.0500   -1.4405    0.0000 N   0  0  0  0  0  0  0  0  0  0  0  0
    5.1857   -2.9098    0.0000 N   0  0  0  0  0  0  0  0  0  0  0  0
    5.2145   -1.4405    0.0000 N   0  0  0  0  0  0  0  0  0  0  0  0
    6.4533   -0.7202    0.0000 C   0  0  0  0  0  0  0  0  0  0  0  0
    5.6467   -0.7202    0.0000 C   0  0  0  0  0  0  0  0  0  0  0  0
    3.8605   -3.0826    0.0000 C   0  0  0  0  0  0  0  0  0  0  0  0
    4.8400   -2.1607    0.0000 C   0  0  0  0  0  0  0  0  0  0  0  0
    6.9143   -1.4405    0.0000 C   0  0  0  0  0  0  0  0  0  0  0  0
    6.9143    0.0000    0.0000 C   0  0  0  0  0  0  0  0  0  0  0  0
    3.1114   -3.4283    0.0000 C   0  0  0  0  0  0  0  0  0  0  0  0
    5.4162   -1.6133    0.0000 C   0  0  0  0  0  0  0  0  0  0  0  0
    4.0045   -2.2472    0.0000 C   0  0  0  0  0  0  0  0  0  0  0  0
    7.7209   -1.4405    0.0000 C   0  0  0  0  0  0  0  0  0  0  0  0
    7.7209    0.0000    0.0000 C   0  0  0  0  0  0  0  0  0  0  0  0
    3.0250   -4.2638    0.0000 C   0  0  0  0  0  0  0  0  0  0  0  0
    2.4200   -2.9674    0.0000 C   0  0  0  0  0  0  0  0  0  0  0  0
    1.6133   -4.0909    0.0000 C   0  0  0  0  0  0  0  0  0  0  0  0
    2.2759   -4.5807    0.0000 C   0  0  0  0  0  0  0  0  0  0  0  0
    1.6998   -3.2843    0.0000 C   0  0  0  0  0  0  0  0  0  0  0  0
    0.7779   -5.2721    0.0000 C   0  0  0  0  0  0  0  0  0  0  0  0
  1 20  1  0  0  0  0
  1 21  1  0  0  0  0
  2 27  1  0  0  0  0
  3 27  1  0  0  0  0
  4  9  1  0  0  0  0
  4 13  1  0  0  0  0
  5 12  2  0  0  0  0
  6 24  1  0  0  0  0
  6 27  1  0  0  0  0
  7 10  1  0  0  0  0
  8 11  1  0  0  0  0
  8 18  1  0  0  0  0
  9 14  2  0  0  0  0
 10 12  1  0  0  0  0
 11 12  1  0  0  0  0
 11 15  1  0  0  0  0
 11 16  1  0  0  0  0
 13 17  1  0  0  0  0
 13 19  2  0  0  0  0
 14 18  1  0  0  0  0
 14 19  1  0  0  0  0
 15 20  1  0  0  0  0
 16 21  1  0  0  0  0
 17 22  2  0  0  0  0
 17 23  1  0  0  0  0
 22 25  1  0  0  0  0
 23 26  2  0  0  0  0
 24 25  2  0  0  0  0
 24 26  1  0  0  0  0
M  END
> <PUBCHEM_COMPOUND_ID_TYPE>
0

> <PUBCHEM_TOTAL_CHARGE>
0

> <PUBCHEM_SUBSTANCE_ID>
310934380

> <PUBCHEM_SUBSTANCE_VERSION>
1

> <PUBCHEM_EXT_DATASOURCE_NAME>
4488

> <PUBCHEM_EXT_DATASOURCE_REGID>
SCHEMBL16111851

> <PUBCHEM_SUBSTANCE_COMMENT>
InChI=1S/C17H19F2N3O4S/c18-16(19)25-13-3-1-11(2-4-13)14-9-12(22-26-14)10-20-17(15(23)21-24)5-7-27-8-6-17/h1-4,9,16,20,24H,5-8,10H2,(H,21,23)
InChIKey=XFGWMECJWCYBNN-UHFFFAOYSA-N

> <PUBCHEM_SUBSTANCE_SYNONYM>
SCHEMBL16111851

> <PUBCHEM_XREF_EXT_ID>
SCHEMBL16111851

> <PUBCHEM_EXT_DATASOURCE_URL>
https://www.surechembl.org/

> <PUBCHEM_EXT_SUBSTANCE_URL>
https://www.surechembl.org/chemical/SCHEMBL16111851

> <PUBCHEM_CID_ASSOCIATIONS>
117602604  1

> <PUBCHEM_COORDINATE_TYPE>
1
3

$$$$
