310934254
  -OEChem-07211613022D

 30 33  0     0  0  0  0  0  0999 V2000
    1.7050    0.0000    0.0000 Br  0  0  0  0  0  0  0  0  0  0  0  0
    2.7500   -5.6101    0.0000 Cl  0  0  0  0  0  0  0  0  0  0  0  0
    2.0350   -9.3502    0.0000 O   0  0  0  0  0  0  0  0  0  0  0  0
    0.6050   -9.3502    0.0000 O   0  0  0  0  0  0  0  0  0  0  0  0
    0.6050   -1.8700    0.0000 N   0  0  0  0  0  0  0  0  0  0  0  0
    1.3200   -6.4351    0.0000 N   0  0  0  0  0  0  0  0  0  0  0  0
    2.0900   -1.8700    0.0000 N   0  0  0  0  0  0  0  0  0  0  0  0
    0.0000   -1.2650    0.0000 N   0  0  0  0  0  0  0  0  0  0  0  0
    1.3200   -8.0851    0.0000 N   0  0  0  0  0  0  0  0  0  0  0  0
    1.3750   -1.4300    0.0000 C   0  0  0  0  0  0  0  0  0  0  0  0
    1.3200   -3.0800    0.0000 C   0  0  0  0  0  0  0  0  0  0  0  0
    1.3200   -3.9601    0.0000 C   0  0  0  0  0  0  0  0  0  0  0  0
    1.3200   -5.6101    0.0000 C   0  0  0  0  0  0  0  0  0  0  0  0
    0.6050   -2.6950    0.0000 C   0  0  0  0  0  0  0  0  0  0  0  0
    1.1550   -0.6050    0.0000 C   0  0  0  0  0  0  0  0  0  0  0  0
    2.0350   -5.1701    0.0000 C   0  0  0  0  0  0  0  0  0  0  0  0
    2.0350   -4.3451    0.0000 C   0  0  0  0  0  0  0  0  0  0  0  0
    2.0900   -2.6401    0.0000 C   0  0  0  0  0  0  0  0  0  0  0  0
    0.6050   -4.3451    0.0000 C   0  0  0  0  0  0  0  0  0  0  0  0
    0.6050   -5.1701    0.0000 C   0  0  0  0  0  0  0  0  0  0  0  0
    0.3300   -0.4950    0.0000 C   0  0  0  0  0  0  0  0  0  0  0  0
    0.6050   -6.8751    0.0000 C   0  0  0  0  0  0  0  0  0  0  0  0
    2.0350   -6.8751    0.0000 C   0  0  0  0  0  0  0  0  0  0  0  0
    2.0350   -7.7001    0.0000 C   0  0  0  0  0  0  0  0  0  0  0  0
    0.6050   -7.7001    0.0000 C   0  0  0  0  0  0  0  0  0  0  0  0
    1.3200   -8.9101    0.0000 C   0  0  0  0  0  0  0  0  0  0  0  0
    2.0350  -10.1752    0.0000 C   0  0  0  0  0  0  0  0  0  0  0  0
    1.2100  -10.1752    0.0000 C   0  0  0  0  0  0  0  0  0  0  0  0
    2.0350  -11.0002    0.0000 C   0  0  0  0  0  0  0  0  0  0  0  0
    2.8600  -10.1752    0.0000 C   0  0  0  0  0  0  0  0  0  0  0  0
  1 15  1  0  0  0  0
  2 16  1  0  0  0  0
  3 26  1  0  0  0  0
  3 27  1  0  0  0  0
  4 26  2  0  0  0  0
  5  8  1  0  0  0  0
  5 10  1  0  0  0  0
  5 14  1  0  0  0  0
  6 13  1  0  0  0  0
  6 22  1  0  0  0  0
  6 23  1  0  0  0  0
  7 10  1  0  0  0  0
  7 18  2  0  0  0  0
  8 21  2  0  0  0  0
  9 24  1  0  0  0  0
  9 25  1  0  0  0  0
  9 26  1  0  0  0  0
 10 15  2  0  0  0  0
 11 12  1  0  0  0  0
 11 14  2  0  0  0  0
 11 18  1  0  0  0  0
 12 17  1  0  0  0  0
 12 19  2  0  0  0  0
 13 16  1  0  0  0  0
 13 20  2  0  0  0  0
 15 21  1  0  0  0  0
 16 17  2  0  0  0  0
 19 20  1  0  0  0  0
 22 25  1  0  0  0  0
 23 24  1  0  0  0  0
 27 28  1  0  0  0  0
 27 29  1  0  0  0  0
 27 30  1  0  0  0  0
M  END
> <PUBCHEM_COMPOUND_ID_TYPE>
0

> <PUBCHEM_TOTAL_CHARGE>
0

> <PUBCHEM_SUBSTANCE_ID>
310934254

> <PUBCHEM_SUBSTANCE_VERSION>
1

> <PUBCHEM_EXT_DATASOURCE_NAME>
4488

> <PUBCHEM_EXT_DATASOURCE_REGID>
SCHEMBL16111712

> <PUBCHEM_SUBSTANCE_COMMENT>
InChI=1S/C21H23BrClN5O2/c1-21(2,3)30-20(29)27-8-6-26(7-9-27)18-5-4-14(10-17(18)23)15-11-24-19-16(22)12-25-28(19)13-15/h4-5,10-13H,6-9H2,1-3H3
InChIKey=IQVBDQMEIZPSGP-UHFFFAOYSA-N

> <PUBCHEM_SUBSTANCE_SYNONYM>
SCHEMBL16111712

> <PUBCHEM_XREF_EXT_ID>
SCHEMBL16111712

> <PUBCHEM_EXT_DATASOURCE_URL>
https://www.surechembl.org/

> <PUBCHEM_EXT_SUBSTANCE_URL>
https://www.surechembl.org/chemical/SCHEMBL16111712

> <PUBCHEM_CID_ASSOCIATIONS>
117602511  1

> <PUBCHEM_COORDINATE_TYPE>
1
3

$$$$
