310945048
  -OEChem-07211613022D

 18 20  0     0  0  0  0  0  0999 V2000
   -3.9405    0.0177    0.0000 O   0  0  0  0  0  0  0  0  0  0  0  0
   -2.2618    0.0354    0.0000 N   0  0  0  0  0  0  0  0  0  0  0  0
   -1.4136    0.0000    0.0000 C   0  0  0  0  0  0  0  0  0  0  0  0
    0.2474    0.0177    0.0000 C   0  0  0  0  0  0  0  0  0  0  0  0
   -1.0072    0.7069    0.0000 C   0  0  0  0  0  0  0  0  0  0  0  0
   -0.9896   -0.7069    0.0000 C   0  0  0  0  0  0  0  0  0  0  0  0
   -2.6682    0.7069    0.0000 C   0  0  0  0  0  0  0  0  0  0  0  0
   -2.6859   -0.7245    0.0000 C   0  0  0  0  0  0  0  0  0  0  0  0
   -0.1590    0.7245    0.0000 C   0  0  0  0  0  0  0  0  0  0  0  0
   -0.1767   -0.7069    0.0000 C   0  0  0  0  0  0  0  0  0  0  0  0
    1.0779    0.0000    0.0000 C   0  0  0  0  0  0  0  0  0  0  0  0
   -3.5164    0.7245    0.0000 C   0  0  0  0  0  0  0  0  0  0  0  0
   -3.5164   -0.7069    0.0000 C   0  0  0  0  0  0  0  0  0  0  0  0
    2.7743    0.0000    0.0000 C   0  0  0  0  0  0  0  0  0  0  0  0
    1.9437    0.0177    0.0000 C   0  0  0  0  0  0  0  0  0  0  0  0
    3.3397    0.5655    0.0000 C   0  0  0  0  0  0  0  0  0  0  0  0
    3.3750   -0.5655    0.0000 C   0  0  0  0  0  0  0  0  0  0  0  0
    3.9405    0.0177    0.0000 C   0  0  0  0  0  0  0  0  0  0  0  0
  1 12  1  0  0  0  0
  1 13  1  0  0  0  0
  2  3  1  0  0  0  0
  2  7  1  0  0  0  0
  2  8  1  0  0  0  0
  3  5  2  0  0  0  0
  3  6  1  0  0  0  0
  4  9  2  0  0  0  0
  4 10  1  0  0  0  0
  4 11  1  0  0  0  0
  5  9  1  0  0  0  0
  6 10  2  0  0  0  0
  7 12  1  0  0  0  0
  8 13  1  0  0  0  0
 11 15  3  0  0  0  0
 14 15  1  0  0  0  0
 14 16  1  0  0  0  0
 14 17  1  0  0  0  0
 16 18  1  0  0  0  0
 17 18  1  0  0  0  0
M  END
> <PUBCHEM_COMPOUND_ID_TYPE>
0

> <PUBCHEM_TOTAL_CHARGE>
0

> <PUBCHEM_SUBSTANCE_ID>
310945048

> <PUBCHEM_SUBSTANCE_VERSION>
1

> <PUBCHEM_EXT_DATASOURCE_NAME>
4488

> <PUBCHEM_EXT_DATASOURCE_REGID>
SCHEMBL16123136

> <PUBCHEM_SUBSTANCE_COMMENT>
InChI=1S/C16H19NO/c1-2-14(3-1)4-5-15-6-8-16(9-7-15)17-10-12-18-13-11-17/h6-9,14H,1-3,10-13H2
InChIKey=XWXNXZIADMOGCU-UHFFFAOYSA-N

> <PUBCHEM_SUBSTANCE_SYNONYM>
SCHEMBL16123136

> <PUBCHEM_XREF_EXT_ID>
SCHEMBL16123136

> <PUBCHEM_EXT_DATASOURCE_URL>
https://www.surechembl.org/

> <PUBCHEM_EXT_SUBSTANCE_URL>
https://www.surechembl.org/chemical/SCHEMBL16123136

> <PUBCHEM_CID_ASSOCIATIONS>
117611171  1

> <PUBCHEM_COORDINATE_TYPE>
1
3

$$$$
