310940871
  -OEChem-07211613022D

 41 44  0     1  0  0  0  0  0999 V2000
    5.1728   -1.4417    0.0000 O   0  0  0  0  0  0  0  0  0  0  0  0
    4.0427    0.5289    0.0000 O   0  0  0  0  0  0  0  0  0  0  0  0
    1.6808   -1.4272    0.0000 O   0  0  0  0  0  0  0  0  0  0  0  0
   -0.4637    0.6593    0.0000 O   0  0  0  0  0  0  0  0  0  0  0  0
    3.8253    2.3111    0.0000 O   0  0  0  0  0  0  0  0  0  0  0  0
   -2.6081   -1.4272    0.0000 O   0  0  0  0  0  0  0  0  0  0  0  0
   -5.4771   -1.4272    0.0000 O   0  0  0  0  0  0  0  0  0  0  0  0
    2.4053   -0.1812    0.0000 N   0  0  0  0  0  0  0  0  0  0  0  0
    0.2608   -0.6013    0.0000 N   0  0  0  0  0  0  0  0  0  0  0  0
    2.4053    2.2967    0.0000 N   0  0  0  0  0  0  0  0  0  0  0  0
   -1.8982   -0.1812    0.0000 N   0  0  0  0  0  0  0  0  0  0  0  0
   -4.0427   -0.6013    0.0000 N   0  0  0  0  0  0  0  0  0  0  0  0
    4.7672   -0.7027    0.0000 C   0  0  3  0  0  0  0  0  0  0  0  0
    3.9847   -0.2970    0.0000 C   0  0  0  0  0  0  0  0  0  0  0  0
    4.3614   -1.3983    0.0000 C   0  0  0  0  0  0  0  0  0  0  0  0
    3.3326   -0.6883    0.0000 C   0  0  3  0  0  0  0  0  0  0  0  0
    5.4771   -0.2825    0.0000 C   0  0  0  0  0  0  0  0  0  0  0  0
    3.3471   -1.7895    0.0000 C   0  0  0  0  0  0  0  0  0  0  0  0
    1.6953   -0.5434    0.0000 C   0  0  0  0  0  0  0  0  0  0  0  0
    0.9708   -0.1521    0.0000 C   0  0  3  0  0  0  0  0  0  0  0  0
    2.6226   -2.1807    0.0000 C   0  0  0  0  0  0  0  0  0  0  0  0
    0.9853    0.6738    0.0000 C   0  0  0  0  0  0  0  0  0  0  0  0
    1.6663    1.0940    0.0000 C   0  0  0  0  0  0  0  0  0  0  0  0
   -0.4781   -0.1812    0.0000 C   0  0  0  0  0  0  0  0  0  0  0  0
    1.8547   -1.8619    0.0000 C   0  0  0  0  0  0  0  0  0  0  0  0
    2.5212   -3.0066    0.0000 C   0  0  0  0  0  0  0  0  0  0  0  0
    1.6953    1.9199    0.0000 C   0  0  0  0  0  0  0  0  0  0  0  0
   -1.1592   -0.5578    0.0000 C   0  0  3  0  0  0  0  0  0  0  0  0
    2.4053    0.6738    0.0000 C   0  0  0  0  0  0  0  0  0  0  0  0
    3.1008    1.9054    0.0000 C   0  0  0  0  0  0  0  0  0  0  0  0
    1.3186   -2.4705    0.0000 C   0  0  0  0  0  0  0  0  0  0  0  0
    1.7098   -3.1661    0.0000 C   0  0  0  0  0  0  0  0  0  0  0  0
    3.1153    1.0940    0.0000 C   0  0  0  0  0  0  0  0  0  0  0  0
   -2.6081   -0.5434    0.0000 C   0  0  0  0  0  0  0  0  0  0  0  0
   -3.3616   -0.1667    0.0000 C   0  0  0  0  0  0  0  0  0  0  0  0
   -1.1737   -1.3838    0.0000 C   0  0  0  0  0  0  0  0  0  0  0  0
    2.4053    3.1661    0.0000 C   0  0  0  0  0  0  0  0  0  0  0  0
   -4.0427   -1.3983    0.0000 C   0  0  0  0  0  0  0  0  0  0  0  0
   -4.7672   -0.1667    0.0000 C   0  0  0  0  0  0  0  0  0  0  0  0
   -4.7382   -1.8040    0.0000 C   0  0  0  0  0  0  0  0  0  0  0  0
   -5.4626   -0.5578    0.0000 C   0  0  0  0  0  0  0  0  0  0  0  0
  1 13  1  0  0  0  0
  1 15  1  0  0  0  0
  2 14  2  0  0  0  0
  3 19  2  0  0  0  0
  4 24  2  0  0  0  0
  5 30  2  0  0  0  0
  6 34  2  0  0  0  0
  7 40  1  0  0  0  0
  7 41  1  0  0  0  0
 16  8  1  6  0  0  0
  8 19  1  0  0  0  0
 20  9  1  1  0  0  0
  9 24  1  0  0  0  0
 10 27  1  0  0  0  0
 10 30  1  0  0  0  0
 10 37  1  0  0  0  0
 11 28  1  0  0  0  0
 11 34  1  0  0  0  0
 12 35  1  0  0  0  0
 12 38  1  0  0  0  0
 12 39  1  0  0  0  0
 13 14  1  6  0  0  0
 13 15  1  0  0  0  0
 13 17  1  1  0  0  0
 14 16  1  0  0  0  0
 16 18  1  0  0  0  0
 18 21  1  0  0  0  0
 19 20  1  0  0  0  0
 20 22  1  0  0  0  0
 21 25  2  0  0  0  0
 21 26  1  0  0  0  0
 22 23  1  0  0  0  0
 23 27  2  0  0  0  0
 23 29  1  0  0  0  0
 24 28  1  0  0  0  0
 25 31  1  0  0  0  0
 26 32  1  0  0  0  0
 28 36  1  6  0  0  0
 29 33  2  0  0  0  0
 30 33  1  0  0  0  0
 31 32  1  0  0  0  0
 34 35  1  0  0  0  0
 38 40  1  0  0  0  0
 39 41  1  0  0  0  0
M  END
> <PUBCHEM_COMPOUND_ID_TYPE>
0

> <PUBCHEM_TOTAL_CHARGE>
0

> <PUBCHEM_SUBSTANCE_ID>
310940871

> <PUBCHEM_SUBSTANCE_VERSION>
1

> <PUBCHEM_EXT_DATASOURCE_NAME>
4488

> <PUBCHEM_EXT_DATASOURCE_REGID>
SCHEMBL16118830

> <PUBCHEM_SUBSTANCE_COMMENT>
InChI=1S/C29H41N5O7/c1-19(30-24(35)17-34-10-12-40-13-11-34)27(38)32-23(15-21-8-9-25(36)33(3)16-21)28(39)31-22(14-20-6-4-5-7-20)26(37)29(2)18-41-29/h6,8-9,16,19,22-23H,4-5,7,10-15,17-18H2,1-3H3,(H,30,35)(H,31,39)(H,32,38)/t19-,22-,23-,29+/m0/s1
InChIKey=NVRHAPHZUABFDI-GCNCJWNFSA-N

> <PUBCHEM_SUBSTANCE_SYNONYM>
SCHEMBL16118830

> <PUBCHEM_XREF_EXT_ID>
SCHEMBL16118830

> <PUBCHEM_EXT_DATASOURCE_URL>
https://www.surechembl.org/

> <PUBCHEM_EXT_SUBSTANCE_URL>
https://www.surechembl.org/chemical/SCHEMBL16118830

> <PUBCHEM_CID_ASSOCIATIONS>
117607788  1

> <PUBCHEM_COORDINATE_TYPE>
1
3

> <PUBCHEM_BONDANNOTATIONS>
13  14  6
13  17  5
28  36  6
16  8  6
20  9  5

$$$$
