310946676
  -OEChem-07211613022D

 29 33  0     0  0  0  0  0  0999 V2000
   -1.3819   10.9716    0.0000 O   0  0  0  0  0  0  0  0  0  0  0  0
    1.1655    6.7318    0.0000 O   0  0  0  0  0  0  0  0  0  0  0  0
    1.1655    9.5897    0.0000 N   0  0  0  0  0  0  0  0  0  0  0  0
   -0.0720    8.8752    0.0000 N   0  0  0  0  0  0  0  0  0  0  0  0
   -0.0720   10.3042    0.0000 N   0  0  0  0  0  0  0  0  0  0  0  0
    2.4030    7.4463    0.0000 N   0  0  0  0  0  0  0  0  0  0  0  0
   -1.3819    9.6367    0.0000 N   0  0  0  0  0  0  0  0  0  0  0  0
    3.6001    6.4769    0.0000 N   0  0  0  0  0  0  0  0  0  0  0  0
    1.5780    8.8752    0.0000 C   0  0  0  0  0  0  0  0  0  0  0  0
    1.1655    8.1608    0.0000 C   0  0  0  0  0  0  0  0  0  0  0  0
    0.3405    8.1608    0.0000 C   0  0  0  0  0  0  0  0  0  0  0  0
    0.3405    9.5897    0.0000 C   0  0  0  0  0  0  0  0  0  0  0  0
    1.5780    7.4463    0.0000 C   0  0  0  0  0  0  0  0  0  0  0  0
    2.0629    8.2078    0.0000 C   0  0  0  0  0  0  0  0  0  0  0  0
    2.0629    9.5427    0.0000 C   0  0  0  0  0  0  0  0  0  0  0  0
   -0.8970   10.3042    0.0000 C   0  0  0  0  0  0  0  0  0  0  0  0
    2.8476    8.4627    0.0000 C   0  0  0  0  0  0  0  0  0  0  0  0
    2.8476    9.2877    0.0000 C   0  0  0  0  0  0  0  0  0  0  0  0
   -2.1665   10.7167    0.0000 C   0  0  0  0  0  0  0  0  0  0  0  0
   -2.1665    9.8917    0.0000 C   0  0  0  0  0  0  0  0  0  0  0  0
   -0.0720    7.4463    0.0000 C   0  0  0  0  0  0  0  0  0  0  0  0
    2.8155    6.7318    0.0000 C   0  0  0  0  0  0  0  0  0  0  0  0
   -2.8810   11.1292    0.0000 C   0  0  0  0  0  0  0  0  0  0  0  0
   -2.8810    9.4792    0.0000 C   0  0  0  0  0  0  0  0  0  0  0  0
   -3.5955   10.7167    0.0000 C   0  0  0  0  0  0  0  0  0  0  0  0
   -3.5955    9.8917    0.0000 C   0  0  0  0  0  0  0  0  0  0  0  0
    2.3306    6.0644    0.0000 C   0  0  0  0  0  0  0  0  0  0  0  0
    3.6001    5.6519    0.0000 C   0  0  0  0  0  0  0  0  0  0  0  0
    2.8155    5.3969    0.0000 C   0  0  0  0  0  0  0  0  0  0  0  0
  1 16  1  0  0  0  0
  1 19  1  0  0  0  0
  2 13  2  0  0  0  0
  3  9  1  0  0  0  0
  3 12  2  0  0  0  0
  4 11  1  0  0  0  0
  4 12  1  0  0  0  0
  5 12  1  0  0  0  0
  5 16  1  0  0  0  0
  6 13  1  0  0  0  0
  6 22  1  0  0  0  0
  7 16  2  0  0  0  0
  7 20  1  0  0  0  0
  8 22  2  0  0  0  0
  8 28  1  0  0  0  0
  9 10  1  0  0  0  0
  9 14  1  0  0  0  0
  9 15  1  0  0  0  0
 10 11  2  0  0  0  0
 10 13  1  0  0  0  0
 11 21  1  0  0  0  0
 14 17  1  0  0  0  0
 15 18  1  0  0  0  0
 17 18  1  0  0  0  0
 19 20  1  0  0  0  0
 19 23  2  0  0  0  0
 20 24  2  0  0  0  0
 22 27  1  0  0  0  0
 23 25  1  0  0  0  0
 24 26  1  0  0  0  0
 25 26  2  0  0  0  0
 27 29  2  0  0  0  0
 28 29  1  0  0  0  0
M  END
> <PUBCHEM_COMPOUND_ID_TYPE>
0

> <PUBCHEM_TOTAL_CHARGE>
0

> <PUBCHEM_SUBSTANCE_ID>
310946676

> <PUBCHEM_SUBSTANCE_VERSION>
1

> <PUBCHEM_EXT_DATASOURCE_NAME>
4488

> <PUBCHEM_EXT_DATASOURCE_REGID>
SCHEMBL16124798

> <PUBCHEM_SUBSTANCE_COMMENT>
InChI=1S/C21H22N6O2/c1-13-17(18(28)25-16-9-6-12-22-16)21(10-4-5-11-21)27-19(23-13)26-20-24-14-7-2-3-8-15(14)29-20/h2-3,6-9H,4-5,10-12H2,1H3,(H,22,25,28)(H2,23,24,26,27)
InChIKey=SGJWWYNOIWEIRK-UHFFFAOYSA-N

> <PUBCHEM_SUBSTANCE_SYNONYM>
SCHEMBL16124798

> <PUBCHEM_XREF_EXT_ID>
SCHEMBL16124798

> <PUBCHEM_EXT_DATASOURCE_URL>
https://www.surechembl.org/

> <PUBCHEM_EXT_SUBSTANCE_URL>
https://www.surechembl.org/chemical/SCHEMBL16124798

> <PUBCHEM_CID_ASSOCIATIONS>
117612574  1

> <PUBCHEM_COORDINATE_TYPE>
1
3

$$$$
