310945185
  -OEChem-07211613022D

  9  9  0     0  0  0  0  0  0999 V2000
   -1.7793   -0.6654    0.0000 I   0  0  0  0  0  0  0  0  0  0  0  0
    1.7793   -0.5786    0.0000 I   0  0  0  0  0  0  0  0  0  0  0  0
   -0.6075    0.6799    0.0000 S   0  0  0  0  0  0  0  0  0  0  0  0
    0.7088    0.0000    0.0000 S   0  0  0  0  0  0  0  0  0  0  0  0
   -0.6075   -0.6799    0.0000 N   0  0  0  0  0  0  0  0  0  0  0  0
   -0.1302    0.0144    0.0000 C   0  0  0  0  0  0  0  0  0  0  0  0
   -1.4032   -0.3761    0.0000 C   0  0  0  0  0  0  0  0  0  0  0  0
   -1.3742    0.4484    0.0000 C   0  0  0  0  0  0  0  0  0  0  0  0
    1.2874   -0.5642    0.0000 C   0  0  0  0  0  0  0  0  0  0  0  0
  1  7  1  0  0  0  0
  2  9  1  0  0  0  0
  3  6  1  0  0  0  0
  3  8  1  0  0  0  0
  4  6  1  0  0  0  0
  4  9  1  0  0  0  0
  5  6  2  0  0  0  0
  5  7  1  0  0  0  0
  7  8  2  0  0  0  0
M  END
> <PUBCHEM_COMPOUND_ID_TYPE>
0

> <PUBCHEM_TOTAL_CHARGE>
0

> <PUBCHEM_SUBSTANCE_ID>
310945185

> <PUBCHEM_SUBSTANCE_VERSION>
1

> <PUBCHEM_EXT_DATASOURCE_NAME>
4488

> <PUBCHEM_EXT_DATASOURCE_REGID>
SCHEMBL16123275

> <PUBCHEM_SUBSTANCE_COMMENT>
InChI=1S/C4H3I2NS2/c5-2-9-4-7-3(6)1-8-4/h1H,2H2
InChIKey=PPVYZJSPDCFZDD-UHFFFAOYSA-N

> <PUBCHEM_SUBSTANCE_SYNONYM>
SCHEMBL16123275

> <PUBCHEM_XREF_EXT_ID>
SCHEMBL16123275

> <PUBCHEM_EXT_DATASOURCE_URL>
https://www.surechembl.org/

> <PUBCHEM_EXT_SUBSTANCE_URL>
https://www.surechembl.org/chemical/SCHEMBL16123275

> <PUBCHEM_CID_ASSOCIATIONS>
117611271  1

> <PUBCHEM_COORDINATE_TYPE>
1
3

$$$$
