310943697
  -OEChem-07211613022D

 36 39  0     0  0  0  0  0  0999 V2000
    2.7544   -2.1148    0.0000 F   0  0  0  0  0  0  0  0  0  0  0  0
    4.3064   -2.5412    0.0000 F   0  0  0  0  0  0  0  0  0  0  0  0
    3.1637   -2.8311    0.0000 F   0  0  0  0  0  0  0  0  0  0  0  0
   -2.8908   -0.0682    0.0000 O   0  0  0  0  0  0  0  0  0  0  0  0
    1.4241   -0.0682    0.0000 O   0  0  0  0  0  0  0  0  0  0  0  0
   -4.3234    2.4048    0.0000 O   0  0  0  0  0  0  0  0  0  0  0  0
   -2.8908    1.5861    0.0000 N   0  0  0  0  0  0  0  0  0  0  0  0
   -1.4411   -0.0682    0.0000 N   0  0  0  0  0  0  0  0  0  0  0  0
    2.1575    1.1768    0.0000 N   0  0  0  0  0  0  0  0  0  0  0  0
    4.3234   -0.0682    0.0000 N   0  0  0  0  0  0  0  0  0  0  0  0
   -0.7248    1.1768    0.0000 C   0  0  0  0  0  0  0  0  0  0  0  0
   -2.1575    1.1768    0.0000 C   0  0  0  0  0  0  0  0  0  0  0  0
   -0.0085    1.5861    0.0000 C   0  0  0  0  0  0  0  0  0  0  0  0
   -2.1745    0.3582    0.0000 C   0  0  0  0  0  0  0  0  0  0  0  0
   -1.4582    1.5861    0.0000 C   0  0  0  0  0  0  0  0  0  0  0  0
    0.0085    2.4048    0.0000 C   0  0  0  0  0  0  0  0  0  0  0  0
    0.7248    1.1768    0.0000 C   0  0  0  0  0  0  0  0  0  0  0  0
    1.4241    1.5861    0.0000 C   0  0  0  0  0  0  0  0  0  0  0  0
   -0.7419    0.3411    0.0000 C   0  0  0  0  0  0  0  0  0  0  0  0
    2.8738   -0.0512    0.0000 C   0  0  0  0  0  0  0  0  0  0  0  0
    3.5901   -1.2961    0.0000 C   0  0  0  0  0  0  0  0  0  0  0  0
    2.1575    0.3582    0.0000 C   0  0  0  0  0  0  0  0  0  0  0  0
    3.5730   -2.1318    0.0000 C   0  0  0  0  0  0  0  0  0  0  0  0
    0.7248    2.7970    0.0000 C   0  0  0  0  0  0  0  0  0  0  0  0
    1.4241    2.4048    0.0000 C   0  0  0  0  0  0  0  0  0  0  0  0
    2.8738   -0.8868    0.0000 C   0  0  0  0  0  0  0  0  0  0  0  0
   -2.8908    2.4048    0.0000 C   0  0  0  0  0  0  0  0  0  0  0  0
   -3.5901    1.1768    0.0000 C   0  0  0  0  0  0  0  0  0  0  0  0
    3.5730    0.3411    0.0000 C   0  0  0  0  0  0  0  0  0  0  0  0
    4.3064   -0.8868    0.0000 C   0  0  0  0  0  0  0  0  0  0  0  0
   -0.7078    2.8311    0.0000 C   0  0  0  0  0  0  0  0  0  0  0  0
   -2.8908   -0.8868    0.0000 C   0  0  0  0  0  0  0  0  0  0  0  0
   -3.6071    2.8141    0.0000 C   0  0  0  0  0  0  0  0  0  0  0  0
   -4.3234    1.5861    0.0000 C   0  0  0  0  0  0  0  0  0  0  0  0
   -3.6071   -1.2792    0.0000 C   0  0  0  0  0  0  0  0  0  0  0  0
   -2.1404   -1.2961    0.0000 C   0  0  0  0  0  0  0  0  0  0  0  0
  1 23  1  0  0  0  0
  2 23  1  0  0  0  0
  3 23  1  0  0  0  0
  4 14  1  0  0  0  0
  4 32  1  0  0  0  0
  5 22  2  0  0  0  0
  6 33  1  0  0  0  0
  6 34  1  0  0  0  0
  7 12  1  0  0  0  0
  7 27  1  0  0  0  0
  7 28  1  0  0  0  0
  8 14  2  0  0  0  0
  8 19  1  0  0  0  0
  9 18  1  0  0  0  0
  9 22  1  0  0  0  0
 10 29  2  0  0  0  0
 10 30  1  0  0  0  0
 11 13  1  0  0  0  0
 11 15  1  0  0  0  0
 11 19  2  0  0  0  0
 12 14  1  0  0  0  0
 12 15  2  0  0  0  0
 13 16  2  0  0  0  0
 13 17  1  0  0  0  0
 16 24  1  0  0  0  0
 16 31  1  0  0  0  0
 17 18  2  0  0  0  0
 18 25  1  0  0  0  0
 20 22  1  0  0  0  0
 20 26  2  0  0  0  0
 20 29  1  0  0  0  0
 21 23  1  0  0  0  0
 21 26  1  0  0  0  0
 21 30  2  0  0  0  0
 24 25  2  0  0  0  0
 27 33  1  0  0  0  0
 28 34  1  0  0  0  0
 32 35  1  0  0  0  0
 32 36  1  0  0  0  0
M  END
> <PUBCHEM_COMPOUND_ID_TYPE>
0

> <PUBCHEM_TOTAL_CHARGE>
0

> <PUBCHEM_SUBSTANCE_ID>
310943697

> <PUBCHEM_SUBSTANCE_VERSION>
1

> <PUBCHEM_EXT_DATASOURCE_NAME>
4488

> <PUBCHEM_EXT_DATASOURCE_REGID>
SCHEMBL16121765

> <PUBCHEM_SUBSTANCE_COMMENT>
InChI=1S/C26H27F3N4O3/c1-16(2)36-25-23(33-6-8-35-9-7-33)11-18(14-31-25)22-12-21(5-4-17(22)3)32-24(34)19-10-20(15-30-13-19)26(27,28)29/h4-5,10-16H,6-9H2,1-3H3,(H,32,34)
InChIKey=JCXMPJHQZVZPHB-UHFFFAOYSA-N

> <PUBCHEM_SUBSTANCE_SYNONYM>
SCHEMBL16121765

> <PUBCHEM_XREF_EXT_ID>
SCHEMBL16121765

> <PUBCHEM_EXT_DATASOURCE_URL>
https://www.surechembl.org/

> <PUBCHEM_EXT_SUBSTANCE_URL>
https://www.surechembl.org/chemical/SCHEMBL16121765

> <PUBCHEM_CID_ASSOCIATIONS>
117610082  1

> <PUBCHEM_COORDINATE_TYPE>
1
3

$$$$
