310935012
  -OEChem-07211613022D

 32 37  0     0  0  0  0  0  0999 V2000
    0.4125   -3.7445    0.0000 N   0  0  0  0  0  0  0  0  0  0  0  0
   -0.4125   -3.7445    0.0000 N   0  0  0  0  0  0  0  0  0  0  0  0
    1.4744   -2.7884    0.0000 N   0  0  0  0  0  0  0  0  0  0  0  0
    0.0000    0.0000    0.0000 N   0  0  0  0  0  0  0  0  0  0  0  0
    3.9796   -6.6385    0.0000 N   0  0  0  0  0  0  0  0  0  0  0  0
    5.0837   -7.8647    0.0000 N   0  0  0  0  0  0  0  0  0  0  0  0
   -0.0000   -2.4750    0.0000 C   0  0  0  0  0  0  0  0  0  0  0  0
    0.6674   -2.9599    0.0000 C   0  0  0  0  0  0  0  0  0  0  0  0
    0.0000   -1.6500    0.0000 C   0  0  0  0  0  0  0  0  0  0  0  0
    0.7145   -1.2375    0.0000 C   0  0  0  0  0  0  0  0  0  0  0  0
   -0.6674   -2.9599    0.0000 C   0  0  0  0  0  0  0  0  0  0  0  0
    1.7715   -4.1861    0.0000 C   0  0  0  0  0  0  0  0  0  0  0  0
    0.7145   -0.4125    0.0000 C   0  0  0  0  0  0  0  0  0  0  0  0
    0.9645   -4.3576    0.0000 C   0  0  0  0  0  0  0  0  0  0  0  0
   -0.7145   -1.2375    0.0000 C   0  0  0  0  0  0  0  0  0  0  0  0
    2.0264   -3.4015    0.0000 C   0  0  0  0  0  0  0  0  0  0  0  0
    2.3235   -4.7992    0.0000 C   0  0  0  0  0  0  0  0  0  0  0  0
   -0.7145   -0.4125    0.0000 C   0  0  0  0  0  0  0  0  0  0  0  0
    1.4289   -1.6500    0.0000 C   0  0  0  0  0  0  0  0  0  0  0  0
    1.4289    0.0000    0.0000 C   0  0  0  0  0  0  0  0  0  0  0  0
    3.1305   -4.6277    0.0000 C   0  0  0  0  0  0  0  0  0  0  0  0
    2.0686   -5.5838    0.0000 C   0  0  0  0  0  0  0  0  0  0  0  0
    3.4276   -6.0254    0.0000 C   0  0  0  0  0  0  0  0  0  0  0  0
    2.1434   -1.2375    0.0000 C   0  0  0  0  0  0  0  0  0  0  0  0
    2.1434   -0.4125    0.0000 C   0  0  0  0  0  0  0  0  0  0  0  0
    3.6825   -5.2408    0.0000 C   0  0  0  0  0  0  0  0  0  0  0  0
    2.6206   -6.1969    0.0000 C   0  0  0  0  0  0  0  0  0  0  0  0
   -1.4289   -0.0000    0.0000 C   0  0  0  0  0  0  0  0  0  0  0  0
    4.7866   -6.4670    0.0000 C   0  0  0  0  0  0  0  0  0  0  0  0
    3.7247   -7.4231    0.0000 C   0  0  0  0  0  0  0  0  0  0  0  0
    5.3386   -7.0801    0.0000 C   0  0  0  0  0  0  0  0  0  0  0  0
    4.2767   -8.0362    0.0000 C   0  0  0  0  0  0  0  0  0  0  0  0
  1  2  1  0  0  0  0
  1  8  1  0  0  0  0
  1 14  1  0  0  0  0
  2 11  2  0  0  0  0
  3  8  1  0  0  0  0
  3 16  2  0  0  0  0
  4 13  1  0  0  0  0
  4 18  2  0  0  0  0
  5 23  1  0  0  0  0
  5 29  1  0  0  0  0
  5 30  1  0  0  0  0
  6 31  1  0  0  0  0
  6 32  1  0  0  0  0
  7  8  2  0  0  0  0
  7  9  1  0  0  0  0
  7 11  1  0  0  0  0
  9 10  1  0  0  0  0
  9 15  2  0  0  0  0
 10 13  2  0  0  0  0
 10 19  1  0  0  0  0
 12 14  2  0  0  0  0
 12 16  1  0  0  0  0
 12 17  1  0  0  0  0
 13 20  1  0  0  0  0
 15 18  1  0  0  0  0
 17 21  2  0  0  0  0
 17 22  1  0  0  0  0
 18 28  1  0  0  0  0
 19 24  2  0  0  0  0
 20 25  2  0  0  0  0
 21 26  1  0  0  0  0
 22 27  2  0  0  0  0
 23 26  2  0  0  0  0
 23 27  1  0  0  0  0
 24 25  1  0  0  0  0
 29 31  1  0  0  0  0
 30 32  1  0  0  0  0
M  END
> <PUBCHEM_COMPOUND_ID_TYPE>
0

> <PUBCHEM_TOTAL_CHARGE>
0

> <PUBCHEM_SUBSTANCE_ID>
310935012

> <PUBCHEM_SUBSTANCE_VERSION>
1

> <PUBCHEM_EXT_DATASOURCE_NAME>
4488

> <PUBCHEM_EXT_DATASOURCE_REGID>
SCHEMBL16112531

> <PUBCHEM_SUBSTANCE_COMMENT>
InChI=1S/C26H24N6/c1-18-14-23(22-4-2-3-5-25(22)30-18)24-16-29-32-17-20(15-28-26(24)32)19-6-8-21(9-7-19)31-12-10-27-11-13-31/h2-9,14-17,27H,10-13H2,1H3
InChIKey=PAHLIVNOHVHPBG-UHFFFAOYSA-N

> <PUBCHEM_SUBSTANCE_SYNONYM>
SCHEMBL16112531

> <PUBCHEM_XREF_EXT_ID>
SCHEMBL16112531

> <PUBCHEM_EXT_DATASOURCE_URL>
https://www.surechembl.org/

> <PUBCHEM_EXT_SUBSTANCE_URL>
https://www.surechembl.org/chemical/SCHEMBL16112531

> <PUBCHEM_CID_ASSOCIATIONS>
86275251  1

> <PUBCHEM_COORDINATE_TYPE>
1
3

$$$$
