310943276
  -OEChem-07211613022D

 36 40  0     0  0  0  0  0  0999 V2000
    0.3604   -0.8459    0.0000 O   0  0  0  0  0  0  0  0  0  0  0  0
   -5.3625    1.6404    0.0000 O   0  0  0  0  0  0  0  0  0  0  0  0
    3.2146   -1.6698    0.0000 N   0  0  0  0  0  0  0  0  0  0  0  0
   -3.9355    0.8165    0.0000 N   0  0  0  0  0  0  0  0  0  0  0  0
   -2.5084   -0.8459    0.0000 N   0  0  0  0  0  0  0  0  0  0  0  0
    1.0666    0.4046    0.0000 N   0  0  0  0  0  0  0  0  0  0  0  0
   -3.9355   -0.8459    0.0000 N   0  0  0  0  0  0  0  0  0  0  0  0
   -0.3604    2.0670    0.0000 N   0  0  0  0  0  0  0  0  0  0  0  0
    5.3625   -1.2579    0.0000 N   0  0  0  0  0  0  0  0  0  0  0  0
    3.9355   -0.4046    0.0000 C   0  0  0  0  0  0  0  0  0  0  0  0
    3.2146   -0.8313    0.0000 C   0  0  0  0  0  0  0  0  0  0  0  0
    3.5382    0.2721    0.0000 C   0  0  0  0  0  0  0  0  0  0  0  0
    4.3180    0.2869    0.0000 C   0  0  0  0  0  0  0  0  0  0  0  0
   -1.7875    0.4046    0.0000 C   0  0  0  0  0  0  0  0  0  0  0  0
   -3.2146    0.4046    0.0000 C   0  0  0  0  0  0  0  0  0  0  0  0
    4.6269   -0.8313    0.0000 C   0  0  0  0  0  0  0  0  0  0  0  0
    2.5084   -0.4193    0.0000 C   0  0  0  0  0  0  0  0  0  0  0  0
   -1.0813    0.8313    0.0000 C   0  0  0  0  0  0  0  0  0  0  0  0
    1.7875   -0.8313    0.0000 C   0  0  0  0  0  0  0  0  0  0  0  0
   -3.2292   -0.4193    0.0000 C   0  0  0  0  0  0  0  0  0  0  0  0
   -2.5231    0.8165    0.0000 C   0  0  0  0  0  0  0  0  0  0  0  0
   -1.0666    1.6550    0.0000 C   0  0  0  0  0  0  0  0  0  0  0  0
    1.0666   -0.4046    0.0000 C   0  0  0  0  0  0  0  0  0  0  0  0
    0.3458    0.8165    0.0000 C   0  0  0  0  0  0  0  0  0  0  0  0
   -0.3604    0.4193    0.0000 C   0  0  0  0  0  0  0  0  0  0  0  0
   -1.8022   -0.4340    0.0000 C   0  0  0  0  0  0  0  0  0  0  0  0
    1.7875   -1.6550    0.0000 C   0  0  0  0  0  0  0  0  0  0  0  0
    2.5231   -2.0670    0.0000 C   0  0  0  0  0  0  0  0  0  0  0  0
    0.3604    1.6404    0.0000 C   0  0  0  0  0  0  0  0  0  0  0  0
   -3.9355    1.6404    0.0000 C   0  0  0  0  0  0  0  0  0  0  0  0
   -4.6269    0.4193    0.0000 C   0  0  0  0  0  0  0  0  0  0  0  0
   -1.8022    2.0523    0.0000 C   0  0  0  0  0  0  0  0  0  0  0  0
   -4.6416    2.0670    0.0000 C   0  0  0  0  0  0  0  0  0  0  0  0
   -5.3625    0.8165    0.0000 C   0  0  0  0  0  0  0  0  0  0  0  0
   -3.9207   -1.6845    0.0000 C   0  0  0  0  0  0  0  0  0  0  0  0
   -4.6710   -0.4340    0.0000 C   0  0  0  0  0  0  0  0  0  0  0  0
  1 23  2  0  0  0  0
  2 33  1  0  0  0  0
  2 34  1  0  0  0  0
  3 11  1  0  0  0  0
  3 28  2  0  0  0  0
  4 15  1  0  0  0  0
  4 30  1  0  0  0  0
  4 31  1  0  0  0  0
  5 20  2  0  0  0  0
  5 26  1  0  0  0  0
  6 23  1  0  0  0  0
  6 24  1  0  0  0  0
  7 20  1  0  0  0  0
  7 35  1  0  0  0  0
  7 36  1  0  0  0  0
  8 22  1  0  0  0  0
  8 29  2  0  0  0  0
  9 16  3  0  0  0  0
 10 11  1  0  0  0  0
 10 12  1  0  0  0  0
 10 13  1  0  0  0  0
 10 16  1  0  0  0  0
 11 17  2  0  0  0  0
 12 13  1  0  0  0  0
 14 18  1  0  0  0  0
 14 21  1  0  0  0  0
 14 26  2  0  0  0  0
 15 20  1  0  0  0  0
 15 21  2  0  0  0  0
 17 19  1  0  0  0  0
 18 22  2  0  0  0  0
 18 25  1  0  0  0  0
 19 23  1  0  0  0  0
 19 27  2  0  0  0  0
 22 32  1  0  0  0  0
 24 25  2  0  0  0  0
 24 29  1  0  0  0  0
 27 28  1  0  0  0  0
 30 33  1  0  0  0  0
 31 34  1  0  0  0  0
M  END
> <PUBCHEM_COMPOUND_ID_TYPE>
0

> <PUBCHEM_TOTAL_CHARGE>
0

> <PUBCHEM_SUBSTANCE_ID>
310943276

> <PUBCHEM_SUBSTANCE_VERSION>
1

> <PUBCHEM_EXT_DATASOURCE_NAME>
4488

> <PUBCHEM_EXT_DATASOURCE_REGID>
SCHEMBL16121338

> <PUBCHEM_SUBSTANCE_COMMENT>
InChI=1S/C27H29N7O2/c1-18-22(20-12-23(25(31-15-20)33(2)3)34-8-10-36-11-9-34)14-21(16-30-18)32-26(35)19-4-7-29-24(13-19)27(17-28)5-6-27/h4,7,12-16H,5-6,8-11H2,1-3H3,(H,32,35)
InChIKey=GAQBWXSEJOHZJS-UHFFFAOYSA-N

> <PUBCHEM_SUBSTANCE_SYNONYM>
SCHEMBL16121338

> <PUBCHEM_XREF_EXT_ID>
SCHEMBL16121338

> <PUBCHEM_EXT_DATASOURCE_URL>
https://www.surechembl.org/

> <PUBCHEM_EXT_SUBSTANCE_URL>
https://www.surechembl.org/chemical/SCHEMBL16121338

> <PUBCHEM_CID_ASSOCIATIONS>
117609701  1

> <PUBCHEM_COORDINATE_TYPE>
1
3

$$$$
