310948315
  -OEChem-07211613022D

 46 50  0     0  0  0  0  0  0999 V2000
   -2.9445    2.0345    0.0000 Cl  0  0  0  0  0  0  0  0  0  0  0  0
   -2.6354   -3.2192    0.0000 S   0  0  0  0  0  0  0  0  0  0  0  0
   -0.9357    4.2493    0.0000 F   0  0  0  0  0  0  0  0  0  0  0  0
    0.1802    4.4554    0.0000 F   0  0  0  0  0  0  0  0  0  0  0  0
    0.3691    3.3223    0.0000 F   0  0  0  0  0  0  0  0  0  0  0  0
    0.2318   -3.2020    0.0000 F   0  0  0  0  0  0  0  0  0  0  0  0
    3.3050   -3.1162    0.0000 F   0  0  0  0  0  0  0  0  0  0  0  0
    2.7557   -2.0688    0.0000 F   0  0  0  0  0  0  0  0  0  0  0  0
    2.2406   -3.6313    0.0000 F   0  0  0  0  0  0  0  0  0  0  0  0
    1.5710    1.2276    0.0000 O   0  0  0  0  0  0  0  0  0  0  0  0
   -3.0304   -2.5496    0.0000 O   0  0  0  0  0  0  0  0  0  0  0  0
   -2.2234   -3.9232    0.0000 O   0  0  0  0  0  0  0  0  0  0  0  0
    1.7083   -2.6011    0.0000 O   0  0  0  0  0  0  0  0  0  0  0  0
   -0.4893   -4.4554    0.0000 O   0  0  0  0  0  0  0  0  0  0  0  0
   -1.1932    1.8114    0.0000 N   0  0  0  0  0  0  0  0  0  0  0  0
   -0.4893    2.3093    0.0000 N   0  0  0  0  0  0  0  0  0  0  0  0
    0.3520    1.7770    0.0000 N   0  0  0  0  0  0  0  0  0  0  0  0
   -0.4378    0.5580    0.0000 C   0  0  0  0  0  0  0  0  0  0  0  0
   -1.1932    0.9873    0.0000 C   0  0  0  0  0  0  0  0  0  0  0  0
    0.2661    0.9700    0.0000 C   0  0  0  0  0  0  0  0  0  0  0  0
    1.0216    0.6267    0.0000 C   0  0  0  0  0  0  0  0  0  0  0  0
   -1.1761   -0.7297    0.0000 C   0  0  0  0  0  0  0  0  0  0  0  0
   -0.4378   -0.3004    0.0000 C   0  0  0  0  0  0  0  0  0  0  0  0
   -1.8972    2.3264    0.0000 C   0  0  0  0  0  0  0  0  0  0  0  0
   -1.1932   -1.5710    0.0000 C   0  0  0  0  0  0  0  0  0  0  0  0
   -0.7640    3.1162    0.0000 C   0  0  0  0  0  0  0  0  0  0  0  0
   -1.9316    0.5408    0.0000 C   0  0  0  0  0  0  0  0  0  0  0  0
    1.1932   -0.1802    0.0000 C   0  0  0  0  0  0  0  0  0  0  0  0
   -1.9316   -0.3176    0.0000 C   0  0  0  0  0  0  0  0  0  0  0  0
   -1.8972   -2.7900    0.0000 C   0  0  0  0  0  0  0  0  0  0  0  0
    1.1761    1.9316    0.0000 C   0  0  0  0  0  0  0  0  0  0  0  0
   -1.6225    3.1334    0.0000 C   0  0  0  0  0  0  0  0  0  0  0  0
   -1.8800   -1.9830    0.0000 C   0  0  0  0  0  0  0  0  0  0  0  0
   -0.2833    3.7858    0.0000 C   0  0  0  0  0  0  0  0  0  0  0  0
   -1.1932   -3.2020    0.0000 C   0  0  0  0  0  0  0  0  0  0  0  0
   -0.4721   -1.9830    0.0000 C   0  0  0  0  0  0  0  0  0  0  0  0
   -0.4893   -2.7900    0.0000 C   0  0  0  0  0  0  0  0  0  0  0  0
    0.5923   -0.7297    0.0000 C   0  0  0  0  0  0  0  0  0  0  0  0
    1.9830   -0.4378    0.0000 C   0  0  0  0  0  0  0  0  0  0  0  0
   -1.1932   -4.0261    0.0000 C   0  0  0  0  0  0  0  0  0  0  0  0
    1.5366   -1.7942    0.0000 C   0  0  0  0  0  0  0  0  0  0  0  0
    1.4851    2.7041    0.0000 C   0  0  0  0  0  0  0  0  0  0  0  0
    0.7640   -1.5366    0.0000 C   0  0  0  0  0  0  0  0  0  0  0  0
    2.1375   -1.2448    0.0000 C   0  0  0  0  0  0  0  0  0  0  0  0
   -3.3050   -3.6313    0.0000 C   0  0  0  0  0  0  0  0  0  0  0  0
    2.5153   -2.8586    0.0000 C   0  0  0  0  0  0  0  0  0  0  0  0
  1 24  1  0  0  0  0
  2 11  2  0  0  0  0
  2 12  2  0  0  0  0
  2 30  1  0  0  0  0
  2 45  1  0  0  0  0
  3 34  1  0  0  0  0
  4 34  1  0  0  0  0
  5 34  1  0  0  0  0
  6 37  1  0  0  0  0
  7 46  1  0  0  0  0
  8 46  1  0  0  0  0
  9 46  1  0  0  0  0
 10 21  1  0  0  0  0
 10 31  1  0  0  0  0
 13 41  1  0  0  0  0
 13 46  1  0  0  0  0
 14 40  1  0  0  0  0
 15 16  1  0  0  0  0
 15 19  1  0  0  0  0
 15 24  1  0  0  0  0
 16 26  2  0  0  0  0
 17 20  1  0  0  0  0
 17 31  2  0  0  0  0
 18 19  1  0  0  0  0
 18 20  1  0  0  0  0
 18 23  2  0  0  0  0
 19 27  2  0  0  0  0
 20 21  2  0  0  0  0
 21 28  1  0  0  0  0
 22 23  1  0  0  0  0
 22 25  1  0  0  0  0
 22 29  2  0  0  0  0
 24 32  2  0  0  0  0
 25 33  2  0  0  0  0
 25 36  1  0  0  0  0
 26 32  1  0  0  0  0
 26 34  1  0  0  0  0
 27 29  1  0  0  0  0
 28 38  2  0  0  0  0
 28 39  1  0  0  0  0
 30 33  1  0  0  0  0
 30 35  2  0  0  0  0
 31 42  1  0  0  0  0
 35 37  1  0  0  0  0
 35 40  1  0  0  0  0
 36 37  2  0  0  0  0
 38 43  1  0  0  0  0
 39 44  2  0  0  0  0
 41 43  2  0  0  0  0
 41 44  1  0  0  0  0
M  END
> <PUBCHEM_COMPOUND_ID_TYPE>
0

> <PUBCHEM_TOTAL_CHARGE>
0

> <PUBCHEM_SUBSTANCE_ID>
310948315

> <PUBCHEM_SUBSTANCE_VERSION>
1

> <PUBCHEM_EXT_DATASOURCE_NAME>
4488

> <PUBCHEM_EXT_DATASOURCE_REGID>
SCHEMBL16126493

> <PUBCHEM_SUBSTANCE_COMMENT>
InChI=1S/C29H19ClF7N3O5S/c1-14-38-26(27(44-14)15-3-6-18(7-4-15)45-29(35,36)37)19-9-16(17-10-21(31)20(13-41)23(11-17)46(2,42)43)5-8-22(19)40-25(30)12-24(39-40)28(32,33)34/h3-12,41H,13H2,1-2H3
InChIKey=SSLXAXUFTKJNNX-UHFFFAOYSA-N

> <PUBCHEM_SUBSTANCE_SYNONYM>
SCHEMBL16126493

> <PUBCHEM_XREF_EXT_ID>
SCHEMBL16126493

> <PUBCHEM_EXT_DATASOURCE_URL>
https://www.surechembl.org/

> <PUBCHEM_EXT_SUBSTANCE_URL>
https://www.surechembl.org/chemical/SCHEMBL16126493

> <PUBCHEM_CID_ASSOCIATIONS>
117613880  1

> <PUBCHEM_COORDINATE_TYPE>
1
3

$$$$
