310948050
  -OEChem-07211613022D

 41 45  0     0  0  0  0  0  0999 V2000
    3.5134   -2.5678    0.0000 S   0  0  0  0  0  0  0  0  0  0  0  0
   -4.2309   -0.5787    0.0000 F   0  0  0  0  0  0  0  0  0  0  0  0
   -3.3667    0.5787    0.0000 F   0  0  0  0  0  0  0  0  0  0  0  0
    2.4538    2.7635    0.0000 F   0  0  0  0  0  0  0  0  0  0  0  0
    3.4482    3.2852    0.0000 F   0  0  0  0  0  0  0  0  0  0  0  0
    3.9537    2.2581    0.0000 F   0  0  0  0  0  0  0  0  0  0  0  0
    2.9428    1.7363    0.0000 O   0  0  0  0  0  0  0  0  0  0  0  0
    4.2309   -2.1602    0.0000 O   0  0  0  0  0  0  0  0  0  0  0  0
    2.7798   -2.9917    0.0000 O   0  0  0  0  0  0  0  0  0  0  0  0
   -0.6603    0.2853    0.0000 N   0  0  0  0  0  0  0  0  0  0  0  0
   -1.9971   -1.8178    0.0000 N   0  0  0  0  0  0  0  0  0  0  0  0
   -1.4918    0.3831    0.0000 N   0  0  0  0  0  0  0  0  0  0  0  0
   -2.7961   -1.5570    0.0000 N   0  0  0  0  0  0  0  0  0  0  0  0
   -1.6711    1.1820    0.0000 N   0  0  0  0  0  0  0  0  0  0  0  0
   -0.2527   -0.4157    0.0000 C   0  0  0  0  0  0  0  0  0  0  0  0
   -0.6603   -1.1331    0.0000 C   0  0  0  0  0  0  0  0  0  0  0  0
   -1.5081   -1.1169    0.0000 C   0  0  0  0  0  0  0  0  0  0  0  0
   -0.3342    1.0842    0.0000 C   0  0  0  0  0  0  0  0  0  0  0  0
    0.5950   -0.4320    0.0000 C   0  0  0  0  0  0  0  0  0  0  0  0
    1.0027   -1.1169    0.0000 C   0  0  0  0  0  0  0  0  0  0  0  0
   -0.2201   -1.8341    0.0000 C   0  0  0  0  0  0  0  0  0  0  0  0
    0.5135    1.2309    0.0000 C   0  0  0  0  0  0  0  0  0  0  0  0
   -1.9809   -0.4647    0.0000 C   0  0  0  0  0  0  0  0  0  0  0  0
    1.8505   -1.1331    0.0000 C   0  0  0  0  0  0  0  0  0  0  0  0
   -2.7635   -0.7092    0.0000 C   0  0  0  0  0  0  0  0  0  0  0  0
    0.5950   -1.8341    0.0000 C   0  0  0  0  0  0  0  0  0  0  0  0
   -0.9375    1.6059    0.0000 C   0  0  0  0  0  0  0  0  0  0  0  0
    2.2744   -1.8341    0.0000 C   0  0  0  0  0  0  0  0  0  0  0  0
    3.1059   -1.8505    0.0000 C   0  0  0  0  0  0  0  0  0  0  0  0
    0.7745    2.0135    0.0000 C   0  0  0  0  0  0  0  0  0  0  0  0
    1.0679    0.6277    0.0000 C   0  0  0  0  0  0  0  0  0  0  0  0
   -3.4645   -0.2201    0.0000 C   0  0  0  0  0  0  0  0  0  0  0  0
    2.2744   -0.4320    0.0000 C   0  0  0  0  0  0  0  0  0  0  0  0
   -1.7037   -2.6005    0.0000 C   0  0  0  0  0  0  0  0  0  0  0  0
    2.1439    1.5896    0.0000 C   0  0  0  0  0  0  0  0  0  0  0  0
    1.5896    2.1765    0.0000 C   0  0  0  0  0  0  0  0  0  0  0  0
    1.8831    0.8071    0.0000 C   0  0  0  0  0  0  0  0  0  0  0  0
    3.5134   -1.1169    0.0000 C   0  0  0  0  0  0  0  0  0  0  0  0
    3.1059   -0.4157    0.0000 C   0  0  0  0  0  0  0  0  0  0  0  0
    3.2037    2.5190    0.0000 C   0  0  0  0  0  0  0  0  0  0  0  0
    3.9700   -3.2852    0.0000 C   0  0  0  0  0  0  0  0  0  0  0  0
  1  8  2  0  0  0  0
  1  9  2  0  0  0  0
  1 29  1  0  0  0  0
  1 41  1  0  0  0  0
  2 32  1  0  0  0  0
  3 32  1  0  0  0  0
  4 40  1  0  0  0  0
  5 40  1  0  0  0  0
  6 40  1  0  0  0  0
  7 35  1  0  0  0  0
  7 40  1  0  0  0  0
 10 12  1  0  0  0  0
 10 15  1  0  0  0  0
 10 18  1  0  0  0  0
 11 13  1  0  0  0  0
 11 17  1  0  0  0  0
 11 34  1  0  0  0  0
 12 14  2  0  0  0  0
 13 25  2  0  0  0  0
 14 27  1  0  0  0  0
 15 16  1  0  0  0  0
 15 19  2  0  0  0  0
 16 17  1  0  0  0  0
 16 21  2  0  0  0  0
 17 23  2  0  0  0  0
 18 22  1  0  0  0  0
 18 27  2  0  0  0  0
 19 20  1  0  0  0  0
 20 24  1  0  0  0  0
 20 26  2  0  0  0  0
 21 26  1  0  0  0  0
 22 30  2  0  0  0  0
 22 31  1  0  0  0  0
 23 25  1  0  0  0  0
 24 28  1  0  0  0  0
 24 33  2  0  0  0  0
 25 32  1  0  0  0  0
 28 29  2  0  0  0  0
 29 38  1  0  0  0  0
 30 36  1  0  0  0  0
 31 37  2  0  0  0  0
 33 39  1  0  0  0  0
 35 36  2  0  0  0  0
 35 37  1  0  0  0  0
 38 39  2  0  0  0  0
M  END
> <PUBCHEM_COMPOUND_ID_TYPE>
0

> <PUBCHEM_TOTAL_CHARGE>
0

> <PUBCHEM_SUBSTANCE_ID>
310948050

> <PUBCHEM_SUBSTANCE_VERSION>
1

> <PUBCHEM_EXT_DATASOURCE_NAME>
4488

> <PUBCHEM_EXT_DATASOURCE_REGID>
SCHEMBL16126225

> <PUBCHEM_SUBSTANCE_COMMENT>
InChI=1S/C27H20F5N5O3S/c1-36-23(14-22(34-36)26(28)29)21-11-8-18(17-4-3-5-20(12-17)41(2,38)39)13-24(21)37-25(15-33-35-37)16-6-9-19(10-7-16)40-27(30,31)32/h3-15,26H,1-2H3
InChIKey=YOATVVBHZFKUES-UHFFFAOYSA-N

> <PUBCHEM_SUBSTANCE_SYNONYM>
SCHEMBL16126225

> <PUBCHEM_XREF_EXT_ID>
SCHEMBL16126225

> <PUBCHEM_EXT_DATASOURCE_URL>
https://www.surechembl.org/

> <PUBCHEM_EXT_SUBSTANCE_URL>
https://www.surechembl.org/chemical/SCHEMBL16126225

> <PUBCHEM_CID_ASSOCIATIONS>
86276064  1

> <PUBCHEM_COORDINATE_TYPE>
1
3

$$$$
