310948628
  -OEChem-07211613022D

 29 32  0     1  0  0  0  0  0999 V2000
    2.7898   -2.1621    0.0000 S   0  0  3  0  0  0  0  0  0  0  0  0
    0.6626   -1.2380    0.0000 O   0  0  0  0  0  0  0  0  0  0  0  0
    3.2781   -2.8247    0.0000 O   0  0  0  0  0  0  0  0  0  0  0  0
   -1.3077    0.7498    0.0000 N   0  0  0  0  0  0  0  0  0  0  0  0
   -0.5580    1.0811    0.0000 N   0  0  0  0  0  0  0  0  0  0  0  0
    0.8370    0.5405    0.0000 N   0  0  0  0  0  0  0  0  0  0  0  0
   -0.7149   -1.6739    0.0000 N   0  0  0  0  0  0  0  0  0  0  0  0
    3.4699   -1.6565    0.0000 N   0  0  0  0  0  0  0  0  0  0  0  0
   -0.5928    2.8247    0.0000 N   0  0  0  0  0  0  0  0  0  0  0  0
   -0.4185   -0.2615    0.0000 C   0  0  0  0  0  0  0  0  0  0  0  0
   -1.2380   -0.0872    0.0000 C   0  0  0  0  0  0  0  0  0  0  0  0
    0.0000    0.4708    0.0000 C   0  0  0  0  0  0  0  0  0  0  0  0
   -2.1098    1.2031    0.0000 C   0  0  3  0  0  0  0  0  0  0  0  0
   -0.1744   -1.0462    0.0000 C   0  0  0  0  0  0  0  0  0  0  0  0
   -1.7785   -0.6975    0.0000 C   0  0  0  0  0  0  0  0  0  0  0  0
   -2.0401    1.9703    0.0000 C   0  0  3  0  0  0  0  0  0  0  0  0
    1.3077   -0.1221    0.0000 C   0  0  0  0  0  0  0  0  0  0  0  0
   -1.5344   -1.4995    0.0000 C   0  0  0  0  0  0  0  0  0  0  0  0
   -2.7550    0.7498    0.0000 C   0  0  0  0  0  0  0  0  0  0  0  0
    2.2842   -1.4647    0.0000 C   0  0  0  0  0  0  0  0  0  0  0  0
   -2.7375    2.3888    0.0000 C   0  0  0  0  0  0  0  0  0  0  0  0
    0.9939   -0.9067    0.0000 C   0  0  0  0  0  0  0  0  0  0  0  0
    2.1621   -0.0523    0.0000 C   0  0  0  0  0  0  0  0  0  0  0  0
   -1.3252    2.4062    0.0000 C   0  0  0  0  0  0  0  0  0  0  0  0
   -3.4699    1.1682    0.0000 C   0  0  0  0  0  0  0  0  0  0  0  0
    1.4821   -1.5519    0.0000 C   0  0  0  0  0  0  0  0  0  0  0  0
    2.6329   -0.7149    0.0000 C   0  0  0  0  0  0  0  0  0  0  0  0
   -3.4524    1.9878    0.0000 C   0  0  0  0  0  0  0  0  0  0  0  0
    2.1273   -2.6678    0.0000 C   0  0  0  0  0  0  0  0  0  0  0  0
  1  3  2  0  0  0  0
  1  8  2  0  0  0  0
  1 20  1  0  0  0  0
  1 29  1  0  0  0  0
  2 14  2  0  0  0  0
  4  5  1  0  0  0  0
  4 11  1  0  0  0  0
  4 13  1  0  0  0  0
  5 12  2  0  0  0  0
  6 12  1  0  0  0  0
  6 17  1  0  0  0  0
  7 14  1  0  0  0  0
  7 18  1  0  0  0  0
  9 24  2  3  0  0  0
 10 11  2  0  0  0  0
 10 12  1  0  0  0  0
 10 14  1  0  0  0  0
 11 15  1  0  0  0  0
 13 16  1  0  0  0  0
 13 19  1  0  0  0  0
 15 18  2  0  0  0  0
 16 21  1  0  0  0  0
 16 24  1  6  0  0  0
 17 22  2  0  0  0  0
 17 23  1  0  0  0  0
 19 25  1  0  0  0  0
 20 26  2  0  0  0  0
 20 27  1  0  0  0  0
 21 28  1  0  0  0  0
 22 26  1  0  0  0  0
 23 27  2  0  0  0  0
 25 28  1  0  0  0  0
M  END
> <PUBCHEM_COMPOUND_ID_TYPE>
0

> <PUBCHEM_TOTAL_CHARGE>
0

> <PUBCHEM_SUBSTANCE_ID>
310948628

> <PUBCHEM_SUBSTANCE_VERSION>
1

> <PUBCHEM_EXT_DATASOURCE_NAME>
4488

> <PUBCHEM_EXT_DATASOURCE_REGID>
SCHEMBL16126812

> <PUBCHEM_SUBSTANCE_COMMENT>
InChI=1S/C20H24N6O2S/c1-29(22,28)15-8-6-14(7-9-15)24-19-18-17(10-11-23-20(18)27)26(25-19)16-5-3-2-4-13(16)12-21/h6-13,16,21-22H,2-5H2,1H3,(H,23,27)(H,24,25)/t13-,16?,29?/m1/s1
InChIKey=FISLGZVNEABVMW-LPWFFGQQSA-N

> <PUBCHEM_SUBSTANCE_SYNONYM>
SCHEMBL16126812

> <PUBCHEM_XREF_EXT_ID>
SCHEMBL16126812

> <PUBCHEM_EXT_DATASOURCE_URL>
https://www.surechembl.org/

> <PUBCHEM_EXT_SUBSTANCE_URL>
https://www.surechembl.org/chemical/SCHEMBL16126812

> <PUBCHEM_CID_ASSOCIATIONS>
117614172  1

> <PUBCHEM_COORDINATE_TYPE>
1
3

> <PUBCHEM_BONDANNOTATIONS>
16  24  6

$$$$
