310939550
  -OEChem-07211613022D

 60 64  0     1  0  0  0  0  0999 V2000
    3.1205   -1.1587    0.0000 S   0  0  0  0  0  0  0  0  0  0  0  0
   -6.8332    0.2702    0.0000 O   0  0  0  0  0  0  0  0  0  0  0  0
   -4.0242    1.0952    0.0000 O   0  0  0  0  0  0  0  0  0  0  0  0
   -2.7867    0.3808    0.0000 O   0  0  0  0  0  0  0  0  0  0  0  0
   -3.4927    3.3021    0.0000 O   0  0  0  0  0  0  0  0  0  0  0  0
   -2.1827    0.3808    0.0000 O   0  0  0  0  0  0  0  0  0  0  0  0
    5.0321   -1.7156    0.0000 O   0  0  0  0  0  0  0  0  0  0  0  0
    5.0321    1.0482    0.0000 O   0  0  0  0  0  0  0  0  0  0  0  0
   -9.0871   -2.5877    0.0000 O   0  0  0  0  0  0  0  0  0  0  0  0
   -7.8496   -3.3021    0.0000 O   0  0  0  0  0  0  0  0  0  0  0  0
    7.6605   -1.4607    0.0000 O   0  0  0  0  0  0  0  0  0  0  0  0
    5.1045   -0.3337    0.0000 N   0  0  0  0  0  0  0  0  0  0  0  0
   -1.8808   -0.7462    0.0000 N   0  0  0  0  0  0  0  0  0  0  0  0
    7.9624   -0.3337    0.0000 N   0  0  0  0  0  0  0  0  0  0  0  0
   -6.1187    1.5077    0.0000 C   0  0  3  0  0  0  0  0  0  0  0  0
   -6.1187    0.6827    0.0000 C   0  0  3  0  0  0  0  0  0  0  0  0
   -7.5477    1.5077    0.0000 C   0  0  0  0  0  0  0  0  0  0  0  0
   -5.3341    1.7627    0.0000 C   0  0  3  0  0  0  0  0  0  0  0  0
   -7.5477    0.6827    0.0000 C   0  0  0  0  0  0  0  0  0  0  0  0
   -4.8492    1.0952    0.0000 C   0  0  3  0  0  0  0  0  0  0  0  0
   -5.3341    0.4278    0.0000 C   0  0  0  0  0  0  0  0  0  0  0  0
   -8.2621    0.2702    0.0000 C   0  0  0  0  0  0  0  0  0  0  0  0
   -8.2621    1.9202    0.0000 C   0  0  0  0  0  0  0  0  0  0  0  0
   -4.9216    2.4771    0.0000 C   0  0  0  0  0  0  0  0  0  0  0  0
   -8.9766    0.6827    0.0000 C   0  0  0  0  0  0  0  0  0  0  0  0
   -8.9766    1.5077    0.0000 C   0  0  0  0  0  0  0  0  0  0  0  0
   -3.6117    0.3808    0.0000 C   0  0  0  0  0  0  0  0  0  0  0  0
   -7.8496   -0.4442    0.0000 C   0  0  0  0  0  0  0  0  0  0  0  0
   -4.2071    2.0646    0.0000 C   0  0  0  0  0  0  0  0  0  0  0  0
   -4.0242   -0.3337    0.0000 C   0  0  3  0  0  0  0  0  0  0  0  0
   -3.3097   -0.7462    0.0000 C   0  0  3  0  0  0  0  0  0  0  0  0
   -3.4927    2.4771    0.0000 C   0  0  3  0  0  0  0  0  0  0  0  0
   -8.2621   -1.1587    0.0000 C   0  0  0  0  0  0  0  0  0  0  0  0
   -4.7387   -0.7462    0.0000 C   0  0  0  0  0  0  0  0  0  0  0  0
   -2.5952   -0.3337    0.0000 C   0  0  0  0  0  0  0  0  0  0  0  0
   -3.3097   -1.5712    0.0000 C   0  0  0  0  0  0  0  0  0  0  0  0
   -2.7782    2.0646    0.0000 C   0  0  3  0  0  0  0  0  0  0  0  0
   -7.8496   -1.8732    0.0000 C   0  0  0  0  0  0  0  0  0  0  0  0
   -4.7387   -1.5712    0.0000 C   0  0  0  0  0  0  0  0  0  0  0  0
   -4.0242   -1.9837    0.0000 C   0  0  0  0  0  0  0  0  0  0  0  0
    4.6196   -1.0012    0.0000 C   0  0  0  0  0  0  0  0  0  0  0  0
    3.8350   -0.7462    0.0000 C   0  0  3  0  0  0  0  0  0  0  0  0
    4.6196    0.3337    0.0000 C   0  0  0  0  0  0  0  0  0  0  0  0
    3.8350    0.0788    0.0000 C   0  0  0  0  0  0  0  0  0  0  0  0
   -2.0637    2.4771    0.0000 C   0  0  0  0  0  0  0  0  0  0  0  0
   -8.2621   -2.5877    0.0000 C   0  0  0  0  0  0  0  0  0  0  0  0
    5.8190   -0.7462    0.0000 C   0  0  0  0  0  0  0  0  0  0  0  0
   -2.7782    1.2396    0.0000 C   0  0  0  0  0  0  0  0  0  0  0  0
   -1.1663   -1.1587    0.0000 C   0  0  0  0  0  0  0  0  0  0  0  0
    6.5335   -0.3337    0.0000 C   0  0  0  0  0  0  0  0  0  0  0  0
   -1.3492    2.0646    0.0000 C   0  0  0  0  0  0  0  0  0  0  0  0
    2.4061   -0.7462    0.0000 C   0  0  0  0  0  0  0  0  0  0  0  0
    7.2480   -0.7462    0.0000 C   0  0  0  0  0  0  0  0  0  0  0  0
   -0.4518   -0.7462    0.0000 C   0  0  0  0  0  0  0  0  0  0  0  0
    1.6916   -1.1587    0.0000 C   0  0  0  0  0  0  0  0  0  0  0  0
   -0.6348    1.6521    0.0000 C   0  0  0  0  0  0  0  0  0  0  0  0
    0.2626   -1.1587    0.0000 C   0  0  0  0  0  0  0  0  0  0  0  0
    0.9771   -0.7462    0.0000 C   0  0  0  0  0  0  0  0  0  0  0  0
    0.0797    1.2396    0.0000 C   0  0  0  0  0  0  0  0  0  0  0  0
    9.0871   -0.3337    0.0000 C   0  0  0  0  0  0  0  0  0  0  0  0
  1 42  1  0  0  0  0
  1 52  1  0  0  0  0
  2 16  1  0  0  0  0
  2 19  1  0  0  0  0
 20  3  1  6  0  0  0
  3 27  1  0  0  0  0
  4 27  2  0  0  0  0
 32  5  1  1  0  0  0
  6 35  2  0  0  0  0
  7 41  2  0  0  0  0
  8 43  2  0  0  0  0
  9 46  2  0  0  0  0
 10 46  1  0  0  0  0
 11 53  2  0  0  0  0
 12 41  1  0  0  0  0
 12 43  1  0  0  0  0
 12 47  1  0  0  0  0
 13 35  1  0  0  0  0
 13 49  1  0  0  0  0
 14 53  1  0  0  0  0
 14 60  1  0  0  0  0
 15 16  1  0  0  0  0
 15 17  1  6  0  0  0
 15 18  1  0  0  0  0
 16 21  1  6  0  0  0
 17 19  2  0  0  0  0
 17 23  1  0  0  0  0
 18 20  1  0  0  0  0
 18 24  1  1  0  0  0
 19 22  1  0  0  0  0
 20 21  1  0  0  0  0
 22 25  2  0  0  0  0
 22 28  1  0  0  0  0
 23 26  2  0  0  0  0
 24 29  2  0  0  0  0
 25 26  1  0  0  0  0
 30 27  1  1  0  0  0
 28 33  1  0  0  0  0
 29 32  1  0  0  0  0
 30 31  1  0  0  0  0
 30 34  1  0  0  0  0
 31 35  1  1  0  0  0
 31 36  1  0  0  0  0
 32 37  1  0  0  0  0
 33 38  1  0  0  0  0
 34 39  1  0  0  0  0
 36 40  1  0  0  0  0
 37 45  1  0  0  0  0
 37 48  1  1  0  0  0
 38 46  1  0  0  0  0
 39 40  1  0  0  0  0
 41 42  1  0  0  0  0
 42 44  1  0  0  0  0
 43 44  1  0  0  0  0
 45 51  1  0  0  0  0
 47 50  1  0  0  0  0
 49 54  1  0  0  0  0
 50 53  1  0  0  0  0
 51 56  3  0  0  0  0
 52 55  1  0  0  0  0
 54 57  1  0  0  0  0
 55 58  1  0  0  0  0
 56 59  1  0  0  0  0
 57 58  1  0  0  0  0
M  END
> <PUBCHEM_COMPOUND_ID_TYPE>
0

> <PUBCHEM_TOTAL_CHARGE>
0

> <PUBCHEM_SUBSTANCE_ID>
310939550

> <PUBCHEM_SUBSTANCE_VERSION>
1

> <PUBCHEM_EXT_DATASOURCE_NAME>
4488

> <PUBCHEM_EXT_DATASOURCE_REGID>
SCHEMBL16117479

> <PUBCHEM_SUBSTANCE_COMMENT>
InChI=1S/C46H63N3O10S/c1-4-5-14-29(2)35(50)22-21-33-36(27-37-42(33)34-19-12-15-30(43(34)58-37)16-13-20-41(53)54)59-46(57)32-18-9-8-17-31(32)44(55)48-24-10-6-7-11-26-60-38-28-40(52)49(45(38)56)25-23-39(51)47-3/h12,15,19,21-22,29,31-33,35-38,42,50H,6-11,13-14,16-18,20,23-28H2,1-3H3,(H,47,51)(H,48,55)(H,53,54)/b22-21+/t29-,31+,32-,33+,35-,36-,37+,38?,42+/m1/s1
InChIKey=KDIVEEXRKYZEES-KJUJHIQYSA-N

> <PUBCHEM_SUBSTANCE_SYNONYM>
SCHEMBL16117479

> <PUBCHEM_XREF_EXT_ID>
SCHEMBL16117479

> <PUBCHEM_EXT_DATASOURCE_URL>
https://www.surechembl.org/

> <PUBCHEM_EXT_SUBSTANCE_URL>
https://www.surechembl.org/chemical/SCHEMBL16117479

> <PUBCHEM_CID_ASSOCIATIONS>
117606847  1

> <PUBCHEM_COORDINATE_TYPE>
1
3

> <PUBCHEM_BONDANNOTATIONS>
15  17  6
16  21  6
18  24  5
30  27  5
20  3  6
31  35  5
37  48  5
32  5  5

$$$$
