310942646
  -OEChem-07211613022D

 82 89  0     1  0  0  0  0  0999 V2000
    4.9488   -2.0710    0.0000 F   0  0  0  0  0  0  0  0  0  0  0  0
   10.0769    2.0351    0.0000 F   0  0  0  0  0  0  0  0  0  0  0  0
    5.1460    1.6047    0.0000 O   0  0  0  0  0  0  0  0  0  0  0  0
    6.7777    1.2821    0.0000 O   0  0  0  0  0  0  0  0  0  0  0  0
    2.3489   -0.3138    0.0000 O   0  0  0  0  0  0  0  0  0  0  0  0
    3.0482    0.9413    0.0000 O   0  0  0  0  0  0  0  0  0  0  0  0
    8.0866   -2.6447    0.0000 O   0  0  0  0  0  0  0  0  0  0  0  0
   -1.9723   -0.3138    0.0000 O   0  0  0  0  0  0  0  0  0  0  0  0
   -4.1419   -2.3757    0.0000 O   0  0  0  0  0  0  0  0  0  0  0  0
  -11.3500   -2.5910    0.0000 O   0  0  0  0  0  0  0  0  0  0  0  0
   -8.4273   -2.6089    0.0000 O   0  0  0  0  0  0  0  0  0  0  0  0
   -6.2756   -0.3138    0.0000 O   0  0  0  0  0  0  0  0  0  0  0  0
   -4.8591   -2.8061    0.0000 O   0  0  0  0  0  0  0  0  0  0  0  0
    6.4908   -0.1165    0.0000 N   0  0  0  0  0  0  0  0  0  0  0  0
    3.7654   -0.2958    0.0000 N   0  0  0  0  0  0  0  0  0  0  0  0
    8.6604    0.1703    0.0000 N   0  0  0  0  0  0  0  0  0  0  0  0
    7.7460    1.1565    0.0000 N   0  0  0  0  0  0  0  0  0  0  0  0
   -1.2551   -1.5510    0.0000 N   0  0  0  0  0  0  0  0  0  0  0  0
   -3.4247   -1.1206    0.0000 N   0  0  0  0  0  0  0  0  0  0  0  0
   -9.8976   -2.3579    0.0000 N   0  0  0  0  0  0  0  0  0  0  0  0
   -5.5764   -1.5510    0.0000 N   0  0  0  0  0  0  0  0  0  0  0  0
   -4.1419   -4.0434    0.0000 N   0  0  0  0  0  0  0  0  0  0  0  0
   -5.5764   -4.0434    0.0000 N   0  0  0  0  0  0  0  0  0  0  0  0
    4.6081    0.0269    0.0000 C   0  0  3  0  0  0  0  0  0  0  0  0
    5.1102   -0.5648    0.0000 C   0  0  3  0  0  0  0  0  0  0  0  0
    7.2976   -0.2958    0.0000 C   0  0  3  0  0  0  0  0  0  0  0  0
    5.3971    0.8517    0.0000 C   0  0  3  0  0  0  0  0  0  0  0  0
    6.2040    0.6544    0.0000 C   0  0  0  0  0  0  0  0  0  0  0  0
    5.9350   -0.7262    0.0000 C   0  0  0  0  0  0  0  0  0  0  0  0
    7.8535    0.3676    0.0000 C   0  0  0  0  0  0  0  0  0  0  0  0
    4.6619   -1.2821    0.0000 C   0  0  3  0  0  0  0  0  0  0  0  0
    3.8730   -1.0489    0.0000 C   0  0  0  0  0  0  0  0  0  0  0  0
    7.5487   -1.0489    0.0000 C   0  0  0  0  0  0  0  0  0  0  0  0
    3.0482    0.0986    0.0000 C   0  0  0  0  0  0  0  0  0  0  0  0
    8.4990    1.5151    0.0000 C   0  0  0  0  0  0  0  0  0  0  0  0
    9.0549    0.9235    0.0000 C   0  0  0  0  0  0  0  0  0  0  0  0
    8.6783    2.3399    0.0000 C   0  0  0  0  0  0  0  0  0  0  0  0
    8.9293   -0.6007    0.0000 C   0  0  0  0  0  0  0  0  0  0  0  0
    7.0108   -1.6944    0.0000 C   0  0  0  0  0  0  0  0  0  0  0  0
    8.3735   -1.2461    0.0000 C   0  0  0  0  0  0  0  0  0  0  0  0
    9.4314    2.6089    0.0000 C   0  0  0  0  0  0  0  0  0  0  0  0
    9.7362   -0.7800    0.0000 C   0  0  0  0  0  0  0  0  0  0  0  0
    8.0687    2.8778    0.0000 C   0  0  0  0  0  0  0  0  0  0  0  0
    7.2976   -2.4834    0.0000 C   0  0  0  0  0  0  0  0  0  0  0  0
    8.6245   -1.9993    0.0000 C   0  0  0  0  0  0  0  0  0  0  0  0
    8.2121    3.6847    0.0000 C   0  0  0  0  0  0  0  0  0  0  0  0
    1.6137    0.1165    0.0000 C   0  0  0  0  0  0  0  0  0  0  0  0
    9.6107    3.3978    0.0000 C   0  0  0  0  0  0  0  0  0  0  0  0
    9.0190    3.9357    0.0000 C   0  0  0  0  0  0  0  0  0  0  0  0
   10.2921   -0.1703    0.0000 C   0  0  0  0  0  0  0  0  0  0  0  0
   10.0051   -1.5510    0.0000 C   0  0  0  0  0  0  0  0  0  0  0  0
    0.8965   -0.2958    0.0000 C   0  0  0  0  0  0  0  0  0  0  0  0
   11.0989   -0.3317    0.0000 C   0  0  0  0  0  0  0  0  0  0  0  0
   10.8300   -1.7123    0.0000 C   0  0  0  0  0  0  0  0  0  0  0  0
    7.7639    4.0433    0.0000 C   0  0  0  0  0  0  0  0  0  0  0  0
    0.8965   -1.1206    0.0000 C   0  0  0  0  0  0  0  0  0  0  0  0
    0.1793    0.0986    0.0000 C   0  0  0  0  0  0  0  0  0  0  0  0
   11.3500   -1.1206    0.0000 C   0  0  0  0  0  0  0  0  0  0  0  0
    0.1973   -1.5330    0.0000 C   0  0  0  0  0  0  0  0  0  0  0  0
   -0.5199   -0.2958    0.0000 C   0  0  0  0  0  0  0  0  0  0  0  0
   -0.5379   -1.1206    0.0000 C   0  0  0  0  0  0  0  0  0  0  0  0
   -1.9723   -1.1386    0.0000 C   0  0  0  0  0  0  0  0  0  0  0  0
   -2.6895   -1.5330    0.0000 C   0  0  3  0  0  0  0  0  0  0  0  0
   -4.1419   -1.5151    0.0000 C   0  0  0  0  0  0  0  0  0  0  0  0
   -2.6716   -2.3579    0.0000 C   0  0  0  0  0  0  0  0  0  0  0  0
   -4.8591   -1.1206    0.0000 C   0  0  3  0  0  0  0  0  0  0  0  0
  -10.5431   -2.8599    0.0000 C   0  0  0  0  0  0  0  0  0  0  0  0
   -9.2342   -2.8599    0.0000 C   0  0  0  0  0  0  0  0  0  0  0  0
   -4.8591   -0.2600    0.0000 C   0  0  0  0  0  0  0  0  0  0  0  0
   -3.3889   -2.7703    0.0000 C   0  0  0  0  0  0  0  0  0  0  0  0
  -10.3100   -3.6130    0.0000 C   0  0  0  0  0  0  0  0  0  0  0  0
   -9.4852   -3.6309    0.0000 C   0  0  0  0  0  0  0  0  0  0  0  0
   -9.8796   -1.5151    0.0000 C   0  0  0  0  0  0  0  0  0  0  0  0
   -6.2936   -1.1386    0.0000 C   0  0  0  0  0  0  0  0  0  0  0  0
   -3.4247   -3.6309    0.0000 C   0  0  0  0  0  0  0  0  0  0  0  0
   -9.1804   -1.1206    0.0000 C   0  0  0  0  0  0  0  0  0  0  0  0
   -7.0108   -1.5151    0.0000 C   0  0  0  0  0  0  0  0  0  0  0  0
   -5.5943    0.0986    0.0000 C   0  0  0  0  0  0  0  0  0  0  0  0
   -4.1061    0.1345    0.0000 C   0  0  0  0  0  0  0  0  0  0  0  0
   -8.4273   -1.5151    0.0000 C   0  0  0  0  0  0  0  0  0  0  0  0
   -7.7280   -1.1206    0.0000 C   0  0  0  0  0  0  0  0  0  0  0  0
   -4.8591   -3.6309    0.0000 C   0  0  0  0  0  0  0  0  0  0  0  0
 31  1  1  1  0  0  0
  2 41  1  0  0  0  0
 27  3  1  6  0  0  0
  4 28  2  0  0  0  0
  5 34  1  0  0  0  0
  5 47  1  0  0  0  0
  6 34  2  0  0  0  0
  7 44  1  0  0  0  0
  7 45  1  0  0  0  0
  8 62  2  0  0  0  0
  9 64  2  0  0  0  0
 10 67  2  0  0  0  0
 11 68  2  0  0  0  0
 12 74  2  0  0  0  0
 13 82  2  0  0  0  0
 14 26  1  0  0  0  0
 14 28  1  0  0  0  0
 14 29  1  0  0  0  0
 15 24  1  0  0  0  0
 15 32  1  0  0  0  0
 15 34  1  0  0  0  0
 16 30  1  0  0  0  0
 16 36  1  0  0  0  0
 16 38  1  0  0  0  0
 17 30  2  0  0  0  0
 17 35  1  0  0  0  0
 18 61  1  0  0  0  0
 18 62  1  0  0  0  0
 63 19  1  6  0  0  0
 19 64  1  0  0  0  0
 20 67  1  0  0  0  0
 20 68  1  0  0  0  0
 20 73  1  0  0  0  0
 66 21  1  1  0  0  0
 21 74  1  0  0  0  0
 22 75  1  0  0  0  0
 22 82  1  0  0  0  0
 23 82  1  0  0  0  0
 24 25  1  0  0  0  0
 24 27  1  0  0  0  0
 25 29  1  1  0  0  0
 25 31  1  0  0  0  0
 26 30  1  1  0  0  0
 26 33  1  0  0  0  0
 27 28  1  0  0  0  0
 31 32  1  0  0  0  0
 33 39  1  0  0  0  0
 33 40  1  0  0  0  0
 35 36  2  0  0  0  0
 35 37  1  0  0  0  0
 37 41  1  0  0  0  0
 37 43  2  0  0  0  0
 38 42  1  0  0  0  0
 39 44  1  0  0  0  0
 40 45  1  0  0  0  0
 41 48  2  0  0  0  0
 42 50  2  0  0  0  0
 42 51  1  0  0  0  0
 43 46  1  0  0  0  0
 46 49  2  0  0  0  0
 46 55  1  0  0  0  0
 47 52  1  0  0  0  0
 48 49  1  0  0  0  0
 50 53  1  0  0  0  0
 51 54  2  0  0  0  0
 52 56  2  0  0  0  0
 52 57  1  0  0  0  0
 53 58  2  0  0  0  0
 54 58  1  0  0  0  0
 56 59  1  0  0  0  0
 57 60  2  0  0  0  0
 59 61  2  0  0  0  0
 60 61  1  0  0  0  0
 62 63  1  0  0  0  0
 63 65  1  0  0  0  0
 64 66  1  0  0  0  0
 65 70  1  0  0  0  0
 66 69  1  0  0  0  0
 67 71  1  0  0  0  0
 68 72  1  0  0  0  0
 69 78  1  0  0  0  0
 69 79  1  0  0  0  0
 70 75  1  0  0  0  0
 71 72  2  0  0  0  0
 73 76  1  0  0  0  0
 74 77  1  0  0  0  0
 76 80  1  0  0  0  0
 77 81  1  0  0  0  0
 80 81  1  0  0  0  0
M  END
> <PUBCHEM_COMPOUND_ID_TYPE>
0

> <PUBCHEM_TOTAL_CHARGE>
0

> <PUBCHEM_SUBSTANCE_ID>
310942646

> <PUBCHEM_SUBSTANCE_VERSION>
1

> <PUBCHEM_EXT_DATASOURCE_NAME>
4488

> <PUBCHEM_EXT_DATASOURCE_REGID>
SCHEMBL16120692

> <PUBCHEM_SUBSTANCE_COMMENT>
InChI=1S/C59H72F2N10O11/c1-35(2)50(67-47(72)14-8-5-9-26-69-48(73)21-22-49(69)74)56(77)66-45(13-10-25-63-58(62)79)55(76)64-40-18-16-38(17-19-40)34-82-59(80)71-32-44(61)42-31-70(57(78)53(75)52(42)71)51(39-23-27-81-28-24-39)54-65-46(41-29-36(3)15-20-43(41)60)33-68(54)30-37-11-6-4-7-12-37/h4,6-7,11-12,15-22,29,33,35,39,42,44-45,50-53,75H,5,8-10,13-14,23-28,30-32,34H2,1-3H3,(H,64,76)(H,66,77)(H,67,72)(H3,62,63,79)/t42-,44-,45-,50-,51+,52?,53-/m0/s1
InChIKey=RTJWTKMITFVNRZ-LGZYEZCDSA-N

> <PUBCHEM_SUBSTANCE_SYNONYM>
SCHEMBL16120692

> <PUBCHEM_XREF_EXT_ID>
SCHEMBL16120692

> <PUBCHEM_EXT_DATASOURCE_URL>
https://www.surechembl.org/

> <PUBCHEM_EXT_SUBSTANCE_URL>
https://www.surechembl.org/chemical/SCHEMBL16120692

> <PUBCHEM_CID_ASSOCIATIONS>
117609177  1

> <PUBCHEM_COORDINATE_TYPE>
1
3

> <PUBCHEM_BONDANNOTATIONS>
31  1  5
63  19  6
66  21  5
25  29  5
26  30  5
27  3  6

$$$$
