310946882
  -OEChem-07211613022D

 38 43  0     1  0  0  0  0  0999 V2000
    1.6016   -2.1003    0.0000 S   0  0  0  0  0  0  0  0  0  0  0  0
   -3.0018    1.0070    0.0000 F   0  0  0  0  0  0  0  0  0  0  0  0
    1.6975   -2.9251    0.0000 O   0  0  0  0  0  0  0  0  0  0  0  0
    2.3688   -2.4264    0.0000 O   0  0  0  0  0  0  0  0  0  0  0  0
   -1.9852    2.9251    0.0000 O   0  0  0  0  0  0  0  0  0  0  0  0
   -3.3854   -1.7934    0.0000 O   0  0  0  0  0  0  0  0  0  0  0  0
   -1.8893    0.5275    0.0000 N   0  0  0  0  0  0  0  0  0  0  0  0
   -1.4098   -0.1438    0.0000 N   0  0  0  0  0  0  0  0  0  0  0  0
    1.8701   -1.3139    0.0000 N   0  0  3  0  0  0  0  0  0  0  0  0
   -1.6399   -1.6016    0.0000 N   0  0  0  0  0  0  0  0  0  0  0  0
   -4.1143   -0.5659    0.0000 N   0  0  0  0  0  0  0  0  0  0  0  0
    4.1143   -0.5659    0.0000 N   0  0  0  0  0  0  0  0  0  0  0  0
    0.5275    1.0262    0.0000 N   0  0  0  0  0  0  0  0  0  0  0  0
   -1.6399    1.3139    0.0000 C   0  0  3  0  0  0  0  0  0  0  0  0
   -2.6565    0.2589    0.0000 C   0  0  0  0  0  0  0  0  0  0  0  0
   -2.6949   -0.5659    0.0000 C   0  0  0  0  0  0  0  0  0  0  0  0
   -1.9085   -0.8152    0.0000 C   0  0  0  0  0  0  0  0  0  0  0  0
    0.7768   -2.1003    0.0000 C   0  0  0  0  0  0  0  0  0  0  0  0
    0.5083   -1.3522    0.0000 C   0  0  0  0  0  0  0  0  0  0  0  0
   -2.4456    1.5633    0.0000 C   0  0  3  0  0  0  0  0  0  0  0  0
   -3.3854   -0.9494    0.0000 C   0  0  0  0  0  0  0  0  0  0  0  0
    1.1796   -0.8343    0.0000 C   0  0  0  0  0  0  0  0  0  0  0  0
   -0.8343   -1.7742    0.0000 C   0  0  0  0  0  0  0  0  0  0  0  0
   -1.0262    1.8701    0.0000 C   0  0  0  0  0  0  0  0  0  0  0  0
   -3.4046    0.6617    0.0000 C   0  0  0  0  0  0  0  0  0  0  0  0
   -0.2781   -1.1604    0.0000 C   0  0  0  0  0  0  0  0  0  0  0  0
   -1.1029    0.6617    0.0000 C   0  0  0  0  0  0  0  0  0  0  0  0
    2.6374   -1.0454    0.0000 C   0  0  0  0  0  0  0  0  0  0  0  0
    0.2398   -2.7140    0.0000 C   0  0  0  0  0  0  0  0  0  0  0  0
   -0.5659   -2.5606    0.0000 C   0  0  0  0  0  0  0  0  0  0  0  0
   -2.5606    2.3880    0.0000 C   0  0  0  0  0  0  0  0  0  0  0  0
   -4.0951    0.2781    0.0000 C   0  0  0  0  0  0  0  0  0  0  0  0
   -1.1988    2.6374    0.0000 C   0  0  0  0  0  0  0  0  0  0  0  0
    3.2319   -1.5824    0.0000 C   0  0  0  0  0  0  0  0  0  0  0  0
    2.8100   -0.3164    0.0000 C   0  0  0  0  0  0  0  0  0  0  0  0
   -0.2781    0.8535    0.0000 C   0  0  0  0  0  0  0  0  0  0  0  0
    3.5388   -0.0671    0.0000 C   0  0  0  0  0  0  0  0  0  0  0  0
    3.9416   -1.3330    0.0000 C   0  0  0  0  0  0  0  0  0  0  0  0
  1  3  2  0  0  0  0
  1  4  2  0  0  0  0
  1  9  1  0  0  0  0
  1 18  1  0  0  0  0
 20  2  1  1  0  0  0
  5 31  1  0  0  0  0
  5 33  1  0  0  0  0
  6 21  2  0  0  0  0
  7  8  1  0  0  0  0
  7 14  1  0  0  0  0
  7 15  1  0  0  0  0
  8 17  2  0  0  0  0
  9 22  1  0  0  0  0
  9 28  1  0  0  0  0
 10 17  1  0  0  0  0
 10 23  1  0  0  0  0
 11 21  1  0  0  0  0
 11 32  1  0  0  0  0
 12 37  1  0  0  0  0
 12 38  1  0  0  0  0
 13 36  3  0  0  0  0
 14 20  1  0  0  0  0
 14 24  1  0  0  0  0
 14 27  1  6  0  0  0
 15 16  2  0  0  0  0
 15 25  1  0  0  0  0
 16 17  1  0  0  0  0
 16 21  1  0  0  0  0
 18 19  1  0  0  0  0
 18 29  2  0  0  0  0
 19 22  1  0  0  0  0
 19 26  2  0  0  0  0
 20 31  1  0  0  0  0
 23 26  1  0  0  0  0
 23 30  2  0  0  0  0
 24 33  1  0  0  0  0
 25 32  2  0  0  0  0
 27 36  1  0  0  0  0
 28 34  1  0  0  0  0
 28 35  1  0  0  0  0
 29 30  1  0  0  0  0
 34 38  1  0  0  0  0
 35 37  1  0  0  0  0
M  END
> <PUBCHEM_COMPOUND_ID_TYPE>
0

> <PUBCHEM_TOTAL_CHARGE>
0

> <PUBCHEM_SUBSTANCE_ID>
310946882

> <PUBCHEM_SUBSTANCE_VERSION>
1

> <PUBCHEM_EXT_DATASOURCE_NAME>
4488

> <PUBCHEM_EXT_DATASOURCE_REGID>
SCHEMBL16125006

> <PUBCHEM_SUBSTANCE_COMMENT>
InChI=1S/C25H28FN7O4S/c26-21-15-37-12-7-25(21,6-8-27)33-19-5-11-29-24(34)22(19)23(31-33)30-17-1-2-20-16(13-17)14-32(38(20,35)36)18-3-9-28-10-4-18/h1-2,5,11,13,18,21,28H,3-4,6-7,9-10,12,14-15H2,(H,29,34)(H,30,31)/t21-,25+/m0/s1
InChIKey=MONOVCADVPANKP-SQJMNOBHSA-N

> <PUBCHEM_SUBSTANCE_SYNONYM>
SCHEMBL16125006

> <PUBCHEM_XREF_EXT_ID>
SCHEMBL16125006

> <PUBCHEM_EXT_DATASOURCE_URL>
https://www.surechembl.org/

> <PUBCHEM_EXT_SUBSTANCE_URL>
https://www.surechembl.org/chemical/SCHEMBL16125006

> <PUBCHEM_CID_ASSOCIATIONS>
117612740  1

> <PUBCHEM_COORDINATE_TYPE>
1
3

> <PUBCHEM_BONDANNOTATIONS>
14  27  6
20  2  5

$$$$
