310947149
  -OEChem-07211613022D

 26 30  0     0  0  0  0  0  0999 V2000
   -0.6787   -1.8520    0.0000 Br  0  0  0  0  0  0  0  0  0  0  0  0
   -2.2882   -1.8326    0.0000 O   0  0  0  0  0  0  0  0  0  0  0  0
   -3.4518   -1.1732    0.0000 O   0  0  0  0  0  0  0  0  0  0  0  0
    2.9670    1.7162    0.0000 O   0  0  0  0  0  0  0  0  0  0  0  0
    2.9670    0.3781    0.0000 O   0  0  0  0  0  0  0  0  0  0  0  0
    0.0194   -0.6496    0.0000 N   0  0  0  0  0  0  0  0  0  0  0  0
    1.1247   -0.2618    0.0000 N   0  0  0  0  0  0  0  0  0  0  0  0
   -1.4156   -0.5721    0.0000 C   0  0  0  0  0  0  0  0  0  0  0  0
   -1.4156    0.2424    0.0000 C   0  0  0  0  0  0  0  0  0  0  0  0
   -2.1331   -0.9793    0.0000 C   0  0  0  0  0  0  0  0  0  0  0  0
   -0.6981    0.6496    0.0000 C   0  0  0  0  0  0  0  0  0  0  0  0
   -2.8506   -0.5914    0.0000 C   0  0  0  0  0  0  0  0  0  0  0  0
   -0.6787   -0.9987    0.0000 C   0  0  0  0  0  0  0  0  0  0  0  0
    0.0775    0.2036    0.0000 C   0  0  0  0  0  0  0  0  0  0  0  0
   -2.1525    0.6302    0.0000 C   0  0  0  0  0  0  0  0  0  0  0  0
   -2.8313    0.2424    0.0000 C   0  0  0  0  0  0  0  0  0  0  0  0
   -0.6787    1.4835    0.0000 C   0  0  0  0  0  0  0  0  0  0  0  0
   -3.1221   -1.8907    0.0000 C   0  0  0  0  0  0  0  0  0  0  0  0
    0.7562    1.4835    0.0000 C   0  0  0  0  0  0  0  0  0  0  0  0
    2.1913    1.4835    0.0000 C   0  0  0  0  0  0  0  0  0  0  0  0
    0.0194    1.8907    0.0000 C   0  0  0  0  0  0  0  0  0  0  0  0
    2.1719    0.6690    0.0000 C   0  0  0  0  0  0  0  0  0  0  0  0
    1.4544    1.8907    0.0000 C   0  0  0  0  0  0  0  0  0  0  0  0
    0.7562    0.6496    0.0000 C   0  0  0  0  0  0  0  0  0  0  0  0
    1.4738    0.2618    0.0000 C   0  0  0  0  0  0  0  0  0  0  0  0
    3.4518    1.0763    0.0000 C   0  0  0  0  0  0  0  0  0  0  0  0
  1 13  1  0  0  0  0
  2 10  1  0  0  0  0
  2 18  1  0  0  0  0
  3 12  1  0  0  0  0
  3 18  1  0  0  0  0
  4 20  1  0  0  0  0
  4 26  1  0  0  0  0
  5 22  1  0  0  0  0
  5 26  1  0  0  0  0
  6 13  2  0  0  0  0
  6 14  1  0  0  0  0
  7 14  1  0  0  0  0
  8  9  1  0  0  0  0
  8 10  2  0  0  0  0
  8 13  1  0  0  0  0
  9 11  1  0  0  0  0
  9 15  2  0  0  0  0
 10 12  1  0  0  0  0
 11 14  2  0  0  0  0
 11 17  1  0  0  0  0
 12 16  2  0  0  0  0
 15 16  1  0  0  0  0
 17 21  1  0  0  0  0
 19 21  1  0  0  0  0
 19 23  1  0  0  0  0
 19 24  2  0  0  0  0
 20 22  1  0  0  0  0
 20 23  2  0  0  0  0
 22 25  2  0  0  0  0
 24 25  1  0  0  0  0
M  END
> <PUBCHEM_COMPOUND_ID_TYPE>
0

> <PUBCHEM_TOTAL_CHARGE>
0

> <PUBCHEM_SUBSTANCE_ID>
310947149

> <PUBCHEM_SUBSTANCE_VERSION>
1

> <PUBCHEM_EXT_DATASOURCE_NAME>
4488

> <PUBCHEM_EXT_DATASOURCE_REGID>
SCHEMBL16125303

> <PUBCHEM_SUBSTANCE_COMMENT>
InChI=1S/C19H15BrN2O4/c20-18-16-11(4-6-14-17(16)26-9-24-14)12(19(21)22-18)3-1-10-2-5-13-15(7-10)25-8-23-13/h2,4-7H,1,3,8-9H2,(H2,21,22)
InChIKey=KZBLYYGGHLVYRY-UHFFFAOYSA-N

> <PUBCHEM_SUBSTANCE_SYNONYM>
SCHEMBL16125303

> <PUBCHEM_XREF_EXT_ID>
SCHEMBL16125303

> <PUBCHEM_EXT_DATASOURCE_URL>
https://www.surechembl.org/

> <PUBCHEM_EXT_SUBSTANCE_URL>
https://www.surechembl.org/chemical/SCHEMBL16125303

> <PUBCHEM_CID_ASSOCIATIONS>
86272399  1

> <PUBCHEM_COORDINATE_TYPE>
1
3

$$$$
