310940098
  -OEChem-07211613022D

 22 24  0     0  0  0  0  0  0999 V2000
   -1.4663   -1.8281    0.0000 S   0  0  0  0  0  0  0  0  0  0  0  0
   -0.2285    0.2666    0.0000 O   0  0  0  0  0  0  0  0  0  0  0  0
   -2.0376   -1.1806    0.0000 O   0  0  0  0  0  0  0  0  0  0  0  0
   -2.1900   -2.2471    0.0000 O   0  0  0  0  0  0  0  0  0  0  0  0
    1.9233    2.0376    0.0000 N   0  0  0  0  0  0  0  0  0  0  0  0
    2.1900    1.2568    0.0000 N   0  0  0  0  0  0  0  0  0  0  0  0
    1.5235   -0.0572    0.0000 N   0  0  0  0  0  0  0  0  0  0  0  0
   -0.5141    1.6758    0.0000 N   0  0  0  0  0  0  0  0  0  0  0  0
    0.8189    1.2568    0.0000 C   0  0  0  0  0  0  0  0  0  0  0  0
    1.0854    2.0376    0.0000 C   0  0  0  0  0  0  0  0  0  0  0  0
    1.5044    0.7617    0.0000 C   0  0  0  0  0  0  0  0  0  0  0  0
    0.0381    1.0664    0.0000 C   0  0  0  0  0  0  0  0  0  0  0  0
    0.5332    2.6470    0.0000 C   0  0  0  0  0  0  0  0  0  0  0  0
    0.7998   -0.4761    0.0000 C   0  0  0  0  0  0  0  0  0  0  0  0
   -0.6285   -1.3140    0.0000 C   0  0  0  0  0  0  0  0  0  0  0  0
   -0.2476    2.4566    0.0000 C   0  0  0  0  0  0  0  0  0  0  0  0
    0.7808   -1.3140    0.0000 C   0  0  0  0  0  0  0  0  0  0  0  0
    0.0572   -0.0952    0.0000 C   0  0  0  0  0  0  0  0  0  0  0  0
    0.1142   -1.7139    0.0000 C   0  0  0  0  0  0  0  0  0  0  0  0
   -0.6094   -0.4951    0.0000 C   0  0  0  0  0  0  0  0  0  0  0  0
    2.1519    2.3423    0.0000 C   0  0  0  0  0  0  0  0  0  0  0  0
   -0.7237   -2.6470    0.0000 C   0  0  0  0  0  0  0  0  0  0  0  0
  1  3  2  0  0  0  0
  1  4  2  0  0  0  0
  1 15  1  0  0  0  0
  1 22  1  0  0  0  0
  2 12  2  0  0  0  0
  5  6  1  0  0  0  0
  5 10  1  0  0  0  0
  5 21  1  0  0  0  0
  6 11  2  0  0  0  0
  7 11  1  0  0  0  0
  7 14  1  0  0  0  0
  8 12  1  0  0  0  0
  8 16  1  0  0  0  0
  9 10  2  0  0  0  0
  9 11  1  0  0  0  0
  9 12  1  0  0  0  0
 10 13  1  0  0  0  0
 13 16  2  0  0  0  0
 14 17  2  0  0  0  0
 14 18  1  0  0  0  0
 15 19  2  0  0  0  0
 15 20  1  0  0  0  0
 17 19  1  0  0  0  0
 18 20  2  0  0  0  0
M  END
> <PUBCHEM_COMPOUND_ID_TYPE>
0

> <PUBCHEM_TOTAL_CHARGE>
0

> <PUBCHEM_SUBSTANCE_ID>
310940098

> <PUBCHEM_SUBSTANCE_VERSION>
1

> <PUBCHEM_EXT_DATASOURCE_NAME>
4488

> <PUBCHEM_EXT_DATASOURCE_REGID>
SCHEMBL16118029

> <PUBCHEM_SUBSTANCE_COMMENT>
InChI=1S/C14H14N4O3S/c1-18-11-7-8-15-14(19)12(11)13(17-18)16-9-3-5-10(6-4-9)22(2,20)21/h3-8H,1-2H3,(H,15,19)(H,16,17)
InChIKey=RWYNQKHEKPVBJB-UHFFFAOYSA-N

> <PUBCHEM_SUBSTANCE_SYNONYM>
SCHEMBL16118029

> <PUBCHEM_XREF_EXT_ID>
SCHEMBL16118029

> <PUBCHEM_EXT_DATASOURCE_URL>
https://www.surechembl.org/

> <PUBCHEM_EXT_SUBSTANCE_URL>
https://www.surechembl.org/chemical/SCHEMBL16118029

> <PUBCHEM_CID_ASSOCIATIONS>
117607234  1

> <PUBCHEM_COORDINATE_TYPE>
1
3

$$$$
