310944469
  -OEChem-07211613022D

 32 36  0     1  0  0  0  0  0999 V2000
    2.4050    0.4182    0.0000 O   0  0  0  0  0  0  0  0  0  0  0  0
    4.9915   -1.1227    0.0000 O   0  0  0  0  0  0  0  0  0  0  0  0
    5.4648    0.2752    0.0000 O   0  0  0  0  0  0  0  0  0  0  0  0
   -1.2933   -0.7485    0.0000 O   0  0  0  0  0  0  0  0  0  0  0  0
    2.8563   -1.0016    0.0000 N   0  0  0  0  0  0  0  0  0  0  0  0
    0.1375    0.0770    0.0000 N   0  0  0  0  0  0  0  0  0  0  0  0
   -2.7242    0.0770    0.0000 N   0  0  0  0  0  0  0  0  0  0  0  0
   -4.1661    0.0770    0.0000 N   0  0  0  0  0  0  0  0  0  0  0  0
   -4.9145    0.4182    0.0000 N   0  0  0  0  0  0  0  0  0  0  0  0
   -5.4648   -0.1981    0.0000 N   0  0  0  0  0  0  0  0  0  0  0  0
   -5.0576   -0.9136    0.0000 N   0  0  0  0  0  0  0  0  0  0  0  0
    1.5355   -0.7265    0.0000 C   0  0  0  0  0  0  0  0  0  0  0  0
    2.2508   -0.4072    0.0000 C   0  0  0  0  0  0  0  0  0  0  0  0
    3.6817   -0.8805    0.0000 C   0  0  0  0  0  0  0  0  0  0  0  0
    1.6235   -1.5519    0.0000 C   0  0  0  0  0  0  0  0  0  0  0  0
    2.4160   -1.7611    0.0000 C   0  0  0  0  0  0  0  0  0  0  0  0
    0.8420   -1.1447    0.0000 C   0  0  0  0  0  0  0  0  0  0  0  0
    1.5464    0.0881    0.0000 C   0  0  0  0  0  0  0  0  0  0  0  0
    4.0890   -0.1651    0.0000 C   0  0  0  0  0  0  0  0  0  0  0  0
    4.2761   -1.4639    0.0000 C   0  0  0  0  0  0  0  0  0  0  0  0
    4.8705   -0.3302    0.0000 C   0  0  0  0  0  0  0  0  0  0  0  0
    0.1266   -0.7265    0.0000 C   0  0  0  0  0  0  0  0  0  0  0  0
    0.8420    0.4953    0.0000 C   0  0  0  0  0  0  0  0  0  0  0  0
   -0.5888    0.5063    0.0000 C   0  0  0  0  0  0  0  0  0  0  0  0
   -1.2822    0.0991    0.0000 C   0  0  3  0  0  0  0  0  0  0  0  0
   -2.0087    0.5173    0.0000 C   0  0  0  0  0  0  0  0  0  0  0  0
    3.7368    0.6054    0.0000 C   0  0  0  0  0  0  0  0  0  0  0  0
   -3.4506    0.5063    0.0000 C   0  0  0  0  0  0  0  0  0  0  0  0
   -2.0087    1.3428    0.0000 C   0  0  0  0  0  0  0  0  0  0  0  0
   -3.4396    1.3428    0.0000 C   0  0  0  0  0  0  0  0  0  0  0  0
   -2.7352    1.7611    0.0000 C   0  0  0  0  0  0  0  0  0  0  0  0
   -4.2541   -0.7265    0.0000 C   0  0  0  0  0  0  0  0  0  0  0  0
  1 13  2  0  0  0  0
  2 20  1  0  0  0  0
  2 21  1  0  0  0  0
  3 21  2  0  0  0  0
 25  4  1  6  0  0  0
  5 13  1  0  0  0  0
  5 14  1  0  0  0  0
  5 16  1  0  0  0  0
  6 22  1  0  0  0  0
  6 23  1  0  0  0  0
  6 24  1  0  0  0  0
  7 26  2  0  0  0  0
  7 28  1  0  0  0  0
  8  9  1  0  0  0  0
  8 28  1  0  0  0  0
  8 32  1  0  0  0  0
  9 10  2  0  0  0  0
 10 11  1  0  0  0  0
 11 32  2  0  0  0  0
 12 13  1  0  0  0  0
 12 15  1  0  0  0  0
 12 17  1  0  0  0  0
 12 18  1  0  0  0  0
 14 19  2  0  0  0  0
 14 20  1  0  0  0  0
 15 16  1  0  0  0  0
 17 22  1  0  0  0  0
 18 23  1  0  0  0  0
 19 21  1  0  0  0  0
 19 27  1  0  0  0  0
 24 25  1  0  0  0  0
 25 26  1  0  0  0  0
 26 29  1  0  0  0  0
 28 30  2  0  0  0  0
 29 31  2  0  0  0  0
 30 31  1  0  0  0  0
M  END
> <PUBCHEM_COMPOUND_ID_TYPE>
0

> <PUBCHEM_TOTAL_CHARGE>
0

> <PUBCHEM_SUBSTANCE_ID>
310944469

> <PUBCHEM_SUBSTANCE_VERSION>
1

> <PUBCHEM_EXT_DATASOURCE_NAME>
4488

> <PUBCHEM_EXT_DATASOURCE_REGID>
SCHEMBL16122544

> <PUBCHEM_SUBSTANCE_COMMENT>
InChI=1S/C21H25N7O4/c1-14-16(12-32-19(14)30)27-10-7-21(20(27)31)5-8-26(9-6-21)11-17(29)15-3-2-4-18(23-15)28-13-22-24-25-28/h2-4,13,17,29H,5-12H2,1H3/t17-/m0/s1
InChIKey=IUXJKQGWSPHKMG-KRWDZBQOSA-N

> <PUBCHEM_SUBSTANCE_SYNONYM>
SCHEMBL16122544

> <PUBCHEM_XREF_EXT_ID>
SCHEMBL16122544

> <PUBCHEM_EXT_DATASOURCE_URL>
https://www.surechembl.org/

> <PUBCHEM_EXT_SUBSTANCE_URL>
https://www.surechembl.org/chemical/SCHEMBL16122544

> <PUBCHEM_CID_ASSOCIATIONS>
86271729  1

> <PUBCHEM_COORDINATE_TYPE>
1
3

> <PUBCHEM_BONDANNOTATIONS>
25  4  6

$$$$
