310944526
  -OEChem-07211613022D

 31 33  0     0  0  0  0  0  0999 V2000
   -3.0228   -0.8469    0.0000 Cl  0  0  0  0  0  0  0  0  0  0  0  0
   -2.1326    2.0337    0.0000 Cl  0  0  0  0  0  0  0  0  0  0  0  0
   -4.9885    0.4018    0.0000 F   0  0  0  0  0  0  0  0  0  0  0  0
   -0.0062   -0.8469    0.0000 O   0  0  0  0  0  0  0  0  0  0  0  0
    1.4155    1.6258    0.0000 O   0  0  0  0  0  0  0  0  0  0  0  0
    4.9885   -0.4266    0.0000 O   0  0  0  0  0  0  0  0  0  0  0  0
    0.0062    0.8098    0.0000 N   0  0  0  0  0  0  0  0  0  0  0  0
    2.1574    0.4018    0.0000 N   0  0  0  0  0  0  0  0  0  0  0  0
    3.5792   -0.4266    0.0000 N   0  0  0  0  0  0  0  0  0  0  0  0
   -2.1326    0.4018    0.0000 C   0  0  0  0  0  0  0  0  0  0  0  0
   -2.8621    0.8098    0.0000 C   0  0  0  0  0  0  0  0  0  0  0  0
   -0.7108    0.4018    0.0000 C   0  0  0  0  0  0  0  0  0  0  0  0
   -2.1326   -0.4266    0.0000 C   0  0  0  0  0  0  0  0  0  0  0  0
   -1.4280    0.7974    0.0000 C   0  0  0  0  0  0  0  0  0  0  0  0
   -0.7108   -0.4142    0.0000 C   0  0  0  0  0  0  0  0  0  0  0  0
   -2.8497    1.6381    0.0000 C   0  0  0  0  0  0  0  0  0  0  0  0
   -1.4155   -0.8345    0.0000 C   0  0  0  0  0  0  0  0  0  0  0  0
   -3.5544    0.4018    0.0000 C   0  0  0  0  0  0  0  0  0  0  0  0
   -4.2714    0.8098    0.0000 C   0  0  0  0  0  0  0  0  0  0  0  0
   -3.5668    2.0337    0.0000 C   0  0  0  0  0  0  0  0  0  0  0  0
    1.4280    0.7974    0.0000 C   0  0  0  0  0  0  0  0  0  0  0  0
    0.7356    0.4018    0.0000 C   0  0  0  0  0  0  0  0  0  0  0  0
   -4.2591    1.6381    0.0000 C   0  0  0  0  0  0  0  0  0  0  0  0
    2.8621    0.8098    0.0000 C   0  0  0  0  0  0  0  0  0  0  0  0
    2.1574   -0.4266    0.0000 C   0  0  0  0  0  0  0  0  0  0  0  0
    3.5792    0.3895    0.0000 C   0  0  0  0  0  0  0  0  0  0  0  0
    2.8745   -0.8345    0.0000 C   0  0  0  0  0  0  0  0  0  0  0  0
    4.2714   -0.8469    0.0000 C   0  0  0  0  0  0  0  0  0  0  0  0
    0.7233   -0.4266    0.0000 C   0  0  0  0  0  0  0  0  0  0  0  0
    4.2839   -1.6752    0.0000 C   0  0  0  0  0  0  0  0  0  0  0  0
    3.5544   -2.0337    0.0000 C   0  0  0  0  0  0  0  0  0  0  0  0
  1 13  1  0  0  0  0
  2 16  1  0  0  0  0
  3 19  1  0  0  0  0
  4 15  1  0  0  0  0
  4 29  1  0  0  0  0
  5 21  2  0  0  0  0
  6 28  2  0  0  0  0
  7 12  1  0  0  0  0
  7 22  1  0  0  0  0
  8 21  1  0  0  0  0
  8 24  1  0  0  0  0
  8 25  1  0  0  0  0
  9 26  1  0  0  0  0
  9 27  1  0  0  0  0
  9 28  1  0  0  0  0
 10 11  1  0  0  0  0
 10 13  2  0  0  0  0
 10 14  1  0  0  0  0
 11 16  1  0  0  0  0
 11 18  2  0  0  0  0
 12 14  2  0  0  0  0
 12 15  1  0  0  0  0
 13 17  1  0  0  0  0
 15 17  2  0  0  0  0
 16 20  2  0  0  0  0
 18 19  1  0  0  0  0
 19 23  2  0  0  0  0
 20 23  1  0  0  0  0
 21 22  1  0  0  0  0
 24 26  1  0  0  0  0
 25 27  1  0  0  0  0
 28 30  1  0  0  0  0
 30 31  2  0  0  0  0
M  END
> <PUBCHEM_COMPOUND_ID_TYPE>
0

> <PUBCHEM_TOTAL_CHARGE>
0

> <PUBCHEM_SUBSTANCE_ID>
310944526

> <PUBCHEM_SUBSTANCE_VERSION>
1

> <PUBCHEM_EXT_DATASOURCE_NAME>
4488

> <PUBCHEM_EXT_DATASOURCE_REGID>
SCHEMBL16122601

> <PUBCHEM_SUBSTANCE_COMMENT>
InChI=1S/C22H22Cl2FN3O3/c1-3-21(29)27-6-8-28(9-7-27)22(30)13-26-19-11-16(18(24)12-20(19)31-2)15-10-14(25)4-5-17(15)23/h3-5,10-12,26H,1,6-9,13H2,2H3
InChIKey=GUKHPHJLYDVRFH-UHFFFAOYSA-N

> <PUBCHEM_SUBSTANCE_SYNONYM>
SCHEMBL16122601

> <PUBCHEM_XREF_EXT_ID>
SCHEMBL16122601

> <PUBCHEM_EXT_DATASOURCE_URL>
https://www.surechembl.org/

> <PUBCHEM_EXT_SUBSTANCE_URL>
https://www.surechembl.org/chemical/SCHEMBL16122601

> <PUBCHEM_CID_ASSOCIATIONS>
117610761  1

> <PUBCHEM_COORDINATE_TYPE>
1
3

$$$$
