310936362
  -OEChem-07211613022D

 14 15  0     0  0  0  0  0  0999 V2000
    2.1853   -2.1853    0.0000 S   0  0  0  0  0  0  0  0  0  0  0  0
    0.8110   -3.1991    0.0000 O   0  0  0  0  0  0  0  0  0  0  0  0
    0.0000   -2.0727    0.0000 O   0  0  0  0  0  0  0  0  0  0  0  0
    2.1853   -0.8561    0.0000 N   0  0  0  0  0  0  0  0  0  0  0  0
    3.4695   -1.5320    0.0000 N   0  0  0  0  0  0  0  0  0  0  0  0
    1.3968   -1.9375    0.0000 C   0  0  0  0  0  0  0  0  0  0  0  0
    2.6585   -1.5320    0.0000 C   0  0  0  0  0  0  0  0  0  0  0  0
    0.7210   -2.4106    0.0000 C   0  0  0  0  0  0  0  0  0  0  0  0
    1.3968   -1.1265    0.0000 C   0  0  0  0  0  0  0  0  0  0  0  0
    3.8750   -0.8110    0.0000 C   0  0  0  0  0  0  0  0  0  0  0  0
    3.8750    0.0000    0.0000 C   0  0  0  0  0  0  0  0  0  0  0  0
    4.5960   -0.4056    0.0000 C   0  0  0  0  0  0  0  0  0  0  0  0
    0.1352   -3.6948    0.0000 C   0  0  0  0  0  0  0  0  0  0  0  0
    0.2253   -4.5058    0.0000 C   0  0  0  0  0  0  0  0  0  0  0  0
  1  6  1  0  0  0  0
  1  7  1  0  0  0  0
  2  8  1  0  0  0  0
  2 13  1  0  0  0  0
  3  8  2  0  0  0  0
  4  7  2  0  0  0  0
  4  9  1  0  0  0  0
  5  7  1  0  0  0  0
  5 10  1  0  0  0  0
  6  8  1  0  0  0  0
  6  9  2  0  0  0  0
 10 11  1  0  0  0  0
 10 12  1  0  0  0  0
 11 12  1  0  0  0  0
 13 14  1  0  0  0  0
M  END
> <PUBCHEM_COMPOUND_ID_TYPE>
0

> <PUBCHEM_TOTAL_CHARGE>
0

> <PUBCHEM_SUBSTANCE_ID>
310936362

> <PUBCHEM_SUBSTANCE_VERSION>
1

> <PUBCHEM_EXT_DATASOURCE_NAME>
4488

> <PUBCHEM_EXT_DATASOURCE_REGID>
SCHEMBL16113996

> <PUBCHEM_SUBSTANCE_COMMENT>
InChI=1S/C9H12N2O2S/c1-2-13-8(12)7-5-10-9(14-7)11-6-3-4-6/h5-6H,2-4H2,1H3,(H,10,11)
InChIKey=CXZRRUHJDMRKDM-UHFFFAOYSA-N

> <PUBCHEM_SUBSTANCE_SYNONYM>
SCHEMBL16113996

> <PUBCHEM_XREF_EXT_ID>
SCHEMBL16113996

> <PUBCHEM_EXT_DATASOURCE_URL>
https://www.surechembl.org/

> <PUBCHEM_EXT_SUBSTANCE_URL>
https://www.surechembl.org/chemical/SCHEMBL16113996

> <PUBCHEM_CID_ASSOCIATIONS>
117604304  1

> <PUBCHEM_COORDINATE_TYPE>
1
3

$$$$
