310941329
  -OEChem-07211613022D

 36 37  0     1  0  0  0  0  0999 V2000
    1.7655   -1.2861    0.0000 O   0  0  0  0  0  0  0  0  0  0  0  0
    3.2114   -0.4490    0.0000 O   0  0  0  0  0  0  0  0  0  0  0  0
   -1.0958    1.3166    0.0000 O   0  0  0  0  0  0  0  0  0  0  0  0
    1.0502    3.3865    0.0000 O   0  0  0  0  0  0  0  0  0  0  0  0
    1.7655    2.1384    0.0000 O   0  0  0  0  0  0  0  0  0  0  0  0
   -3.2267    3.3865    0.0000 O   0  0  0  0  0  0  0  0  0  0  0  0
   -6.0880    3.3865    0.0000 O   0  0  0  0  0  0  0  0  0  0  0  0
   -0.3653    2.5493    0.0000 N   0  0  0  0  0  0  0  0  0  0  0  0
   -2.5113    2.1384    0.0000 N   0  0  0  0  0  0  0  0  0  0  0  0
   -4.6573    2.5493    0.0000 N   0  0  0  0  0  0  0  0  0  0  0  0
    1.0806    0.7990    0.0000 C   0  0  0  0  0  0  0  0  0  0  0  0
    1.7808   -0.4338    0.0000 C   0  0  0  0  0  0  0  0  0  0  0  0
    2.4961   -0.0076    0.0000 C   0  0  0  0  0  0  0  0  0  0  0  0
    1.0806   -0.0228    0.0000 C   0  0  0  0  0  0  0  0  0  0  0  0
    0.3501    2.1689    0.0000 C   0  0  3  0  0  0  0  0  0  0  0  0
    0.3348    1.1948    0.0000 C   0  0  0  0  0  0  0  0  0  0  0  0
    1.7655    1.1948    0.0000 C   0  0  0  0  0  0  0  0  0  0  0  0
    2.4961    0.7838    0.0000 C   0  0  0  0  0  0  0  0  0  0  0  0
   -1.0806    2.1842    0.0000 C   0  0  0  0  0  0  0  0  0  0  0  0
    1.0502    2.5646    0.0000 C   0  0  0  0  0  0  0  0  0  0  0  0
   -1.7960    2.5798    0.0000 C   0  0  3  0  0  0  0  0  0  0  0  0
   -3.2419    2.5646    0.0000 C   0  0  0  0  0  0  0  0  0  0  0  0
   -3.9268    2.1689    0.0000 C   0  0  0  0  0  0  0  0  0  0  0  0
    2.4504   -1.7123    0.0000 C   0  0  0  0  0  0  0  0  0  0  0  0
    3.9268   -0.0837    0.0000 C   0  0  0  0  0  0  0  0  0  0  0  0
   -1.7960    3.4017    0.0000 C   0  0  0  0  0  0  0  0  0  0  0  0
   -4.6573    3.3865    0.0000 C   0  0  0  0  0  0  0  0  0  0  0  0
   -5.3574    2.1689    0.0000 C   0  0  0  0  0  0  0  0  0  0  0  0
    2.4352   -2.5493    0.0000 C   0  0  0  0  0  0  0  0  0  0  0  0
    4.6421   -0.4947    0.0000 C   0  0  0  0  0  0  0  0  0  0  0  0
   -5.3878    3.8126    0.0000 C   0  0  0  0  0  0  0  0  0  0  0  0
   -6.0728    2.5798    0.0000 C   0  0  0  0  0  0  0  0  0  0  0  0
    3.1810   -2.9603    0.0000 C   0  0  0  0  0  0  0  0  0  0  0  0
    5.3727   -0.0837    0.0000 C   0  0  0  0  0  0  0  0  0  0  0  0
    3.1505   -3.8126    0.0000 C   0  0  0  0  0  0  0  0  0  0  0  0
    6.0880   -0.5099    0.0000 C   0  0  0  0  0  0  0  0  0  0  0  0
  1 12  1  0  0  0  0
  1 24  1  0  0  0  0
  2 13  1  0  0  0  0
  2 25  1  0  0  0  0
  3 19  2  0  0  0  0
  4 20  2  0  0  0  0
  5 20  1  0  0  0  0
  6 22  2  0  0  0  0
  7 31  1  0  0  0  0
  7 32  1  0  0  0  0
 15  8  1  6  0  0  0
  8 19  1  0  0  0  0
  9 21  1  0  0  0  0
  9 22  1  0  0  0  0
 10 23  1  0  0  0  0
 10 27  1  0  0  0  0
 10 28  1  0  0  0  0
 11 14  2  0  0  0  0
 11 16  1  0  0  0  0
 11 17  1  0  0  0  0
 12 13  2  0  0  0  0
 12 14  1  0  0  0  0
 13 18  1  0  0  0  0
 15 16  1  0  0  0  0
 15 20  1  0  0  0  0
 17 18  2  0  0  0  0
 19 21  1  0  0  0  0
 21 26  1  1  0  0  0
 22 23  1  0  0  0  0
 24 29  1  0  0  0  0
 25 30  1  0  0  0  0
 27 31  1  0  0  0  0
 28 32  1  0  0  0  0
 29 33  1  0  0  0  0
 30 34  1  0  0  0  0
 33 35  1  0  0  0  0
 34 36  1  0  0  0  0
M  END
> <PUBCHEM_COMPOUND_ID_TYPE>
0

> <PUBCHEM_TOTAL_CHARGE>
0

> <PUBCHEM_SUBSTANCE_ID>
310941329

> <PUBCHEM_SUBSTANCE_VERSION>
1

> <PUBCHEM_EXT_DATASOURCE_NAME>
4488

> <PUBCHEM_EXT_DATASOURCE_REGID>
SCHEMBL16119289

> <PUBCHEM_SUBSTANCE_COMMENT>
InChI=1S/C26H41N3O7/c1-4-6-12-35-22-9-8-20(17-23(22)36-13-7-5-2)16-21(26(32)33)28-25(31)19(3)27-24(30)18-29-10-14-34-15-11-29/h8-9,17,19,21H,4-7,10-16,18H2,1-3H3,(H,27,30)(H,28,31)(H,32,33)/t19-,21-/m0/s1
InChIKey=RTDROJLPQHUIHV-FPOVZHCZSA-N

> <PUBCHEM_SUBSTANCE_SYNONYM>
SCHEMBL16119289

> <PUBCHEM_XREF_EXT_ID>
SCHEMBL16119289

> <PUBCHEM_EXT_DATASOURCE_URL>
https://www.surechembl.org/

> <PUBCHEM_EXT_SUBSTANCE_URL>
https://www.surechembl.org/chemical/SCHEMBL16119289

> <PUBCHEM_CID_ASSOCIATIONS>
117608174  1

> <PUBCHEM_COORDINATE_TYPE>
1
3

> <PUBCHEM_BONDANNOTATIONS>
21  26  5
15  8  6

$$$$
