310944885
  -OEChem-07211613022D

 18 19  0     0  0  0  0  0  0999 V2000
    0.0707   -1.0783    0.0000 O   0  0  0  0  0  0  0  0  0  0  0  0
    0.0177    0.3713    0.0000 N   0  0  0  0  0  0  0  0  0  0  0  0
    0.9723    1.3612    0.0000 C   0  0  0  0  0  0  0  0  0  0  0  0
    0.8132    0.5303    0.0000 C   0  0  0  0  0  0  0  0  0  0  0  0
    1.5203    2.0860    0.0000 C   0  0  0  0  0  0  0  0  0  0  0  0
    1.7855    0.9723    0.0000 C   0  0  0  0  0  0  0  0  0  0  0  0
    2.2274    1.6440    0.0000 C   0  0  0  0  0  0  0  0  0  0  0  0
    0.2121    1.7324    0.0000 C   0  0  0  0  0  0  0  0  0  0  0  0
   -0.3713    1.1491    0.0000 C   0  0  0  0  0  0  0  0  0  0  0  0
   -0.4066   -0.3182    0.0000 C   0  0  0  0  0  0  0  0  0  0  0  0
    2.9699    1.8208    0.0000 C   0  0  0  0  0  0  0  0  0  0  0  0
   -1.2198   -0.3535    0.0000 C   0  0  0  0  0  0  0  0  0  0  0  0
   -1.6087   -1.1314    0.0000 C   0  0  0  0  0  0  0  0  0  0  0  0
   -2.4396   -1.1314    0.0000 C   0  0  0  0  0  0  0  0  0  0  0  0
   -2.6871   -1.6440    0.0000 C   0  0  0  0  0  0  0  0  0  0  0  0
   -2.6693   -2.0329    0.0000 C   0  0  0  0  0  0  0  0  0  0  0  0
   -2.9699   -1.6617    0.0000 C   0  0  0  0  0  0  0  0  0  0  0  0
   -2.9522   -2.0860    0.0000 C   0  0  0  0  0  0  0  0  0  0  0  0
  1 10  2  0  0  0  0
  2  4  1  0  0  0  0
  2  9  1  0  0  0  0
  2 10  1  0  0  0  0
  3  4  1  0  0  0  0
  3  5  1  0  0  0  0
  3  6  1  0  0  0  0
  3  8  1  0  0  0  0
  5  7  1  0  0  0  0
  6  7  1  0  0  0  0
  7 11  1  0  0  0  0
  8  9  1  0  0  0  0
 10 12  1  0  0  0  0
 12 13  2  0  0  0  0
 13 14  1  0  0  0  0
 14 15  1  0  0  0  0
 15 16  1  0  0  0  0
 16 17  1  0  0  0  0
 17 18  1  0  0  0  0
M  END
> <PUBCHEM_COMPOUND_ID_TYPE>
0

> <PUBCHEM_TOTAL_CHARGE>
0

> <PUBCHEM_SUBSTANCE_ID>
310944885

> <PUBCHEM_SUBSTANCE_VERSION>
1

> <PUBCHEM_EXT_DATASOURCE_NAME>
4488

> <PUBCHEM_EXT_DATASOURCE_REGID>
SCHEMBL16122969

> <PUBCHEM_SUBSTANCE_COMMENT>
InChI=1S/C16H27NO/c1-3-4-5-6-7-8-15(18)17-10-9-16(13-17)11-14(2)12-16/h7-8,14H,3-6,9-13H2,1-2H3/b8-7+
InChIKey=NFSZSMYMWXLPDZ-BQYQJAHWSA-N

> <PUBCHEM_SUBSTANCE_SYNONYM>
SCHEMBL16122969

> <PUBCHEM_XREF_EXT_ID>
SCHEMBL16122969

> <PUBCHEM_EXT_DATASOURCE_URL>
https://www.surechembl.org/

> <PUBCHEM_EXT_SUBSTANCE_URL>
https://www.surechembl.org/chemical/SCHEMBL16122969

> <PUBCHEM_CID_ASSOCIATIONS>
117611071  1

> <PUBCHEM_COORDINATE_TYPE>
1
3

$$$$
