310935613
  -OEChem-07211613022D

 33 38  0     0  0  0  0  0  0999 V2000
    2.8579   -7.4250    0.0000 O   0  0  0  0  0  0  0  0  0  0  0  0
    0.0000   -4.9500    0.0000 N   0  0  0  0  0  0  0  0  0  0  0  0
    0.7145   -3.7125    0.0000 N   0  0  0  0  0  0  0  0  0  0  0  0
    0.0000   -2.4750    0.0000 N   0  0  0  0  0  0  0  0  0  0  0  0
    2.1434   -8.6625    0.0000 N   0  0  0  0  0  0  0  0  0  0  0  0
   -4.1636   -4.4025    0.0000 N   0  0  0  0  0  0  0  0  0  0  0  0
   -3.7511   -5.1170    0.0000 N   0  0  0  0  0  0  0  0  0  0  0  0
   -0.7145   -3.7125    0.0000 C   0  0  0  0  0  0  0  0  0  0  0  0
    0.0000   -4.1250    0.0000 C   0  0  0  0  0  0  0  0  0  0  0  0
   -0.7145   -2.8875    0.0000 C   0  0  0  0  0  0  0  0  0  0  0  0
   -2.1434   -3.7125    0.0000 C   0  0  0  0  0  0  0  0  0  0  0  0
   -1.4289   -2.4750    0.0000 C   0  0  0  0  0  0  0  0  0  0  0  0
   -1.4289   -4.1250    0.0000 C   0  0  0  0  0  0  0  0  0  0  0  0
    0.7145   -6.1875    0.0000 C   0  0  0  0  0  0  0  0  0  0  0  0
    0.0000   -6.6000    0.0000 C   0  0  0  0  0  0  0  0  0  0  0  0
    0.7145   -5.3625    0.0000 C   0  0  0  0  0  0  0  0  0  0  0  0
   -2.1434   -2.8875    0.0000 C   0  0  0  0  0  0  0  0  0  0  0  0
   -0.7145   -5.3625    0.0000 C   0  0  0  0  0  0  0  0  0  0  0  0
   -2.8579   -4.1250    0.0000 C   0  0  0  0  0  0  0  0  0  0  0  0
    1.4289   -7.4250    0.0000 C   0  0  0  0  0  0  0  0  0  0  0  0
    1.4289   -6.6000    0.0000 C   0  0  0  0  0  0  0  0  0  0  0  0
   -0.7145   -6.1875    0.0000 C   0  0  0  0  0  0  0  0  0  0  0  0
    0.7145   -2.8875    0.0000 C   0  0  0  0  0  0  0  0  0  0  0  0
    0.0000   -7.4250    0.0000 C   0  0  0  0  0  0  0  0  0  0  0  0
    2.1434   -7.8375    0.0000 C   0  0  0  0  0  0  0  0  0  0  0  0
    0.7145   -7.8375    0.0000 C   0  0  0  0  0  0  0  0  0  0  0  0
   -1.4289   -1.6500    0.0000 C   0  0  0  0  0  0  0  0  0  0  0  0
   -3.6116   -3.7894    0.0000 C   0  0  0  0  0  0  0  0  0  0  0  0
   -2.9441   -4.9455    0.0000 C   0  0  0  0  0  0  0  0  0  0  0  0
    2.8109   -9.1474    0.0000 C   0  0  0  0  0  0  0  0  0  0  0  0
    1.4760   -9.1474    0.0000 C   0  0  0  0  0  0  0  0  0  0  0  0
    2.5559   -9.9320    0.0000 C   0  0  0  0  0  0  0  0  0  0  0  0
    1.7309   -9.9320    0.0000 C   0  0  0  0  0  0  0  0  0  0  0  0
  1 25  2  0  0  0  0
  2  9  1  0  0  0  0
  2 16  1  0  0  0  0
  2 18  1  0  0  0  0
  3  9  2  0  0  0  0
  3 23  1  0  0  0  0
  4 10  1  0  0  0  0
  4 23  2  0  0  0  0
  5 25  1  0  0  0  0
  5 30  1  0  0  0  0
  5 31  1  0  0  0  0
  6  7  1  0  0  0  0
  6 28  2  0  0  0  0
  7 29  1  0  0  0  0
  8  9  1  0  0  0  0
  8 10  1  0  0  0  0
  8 13  2  0  0  0  0
 10 12  2  0  0  0  0
 11 13  1  0  0  0  0
 11 17  2  0  0  0  0
 11 19  1  0  0  0  0
 12 17  1  0  0  0  0
 12 27  1  0  0  0  0
 14 15  2  0  0  0  0
 14 16  1  0  0  0  0
 14 21  1  0  0  0  0
 15 22  1  0  0  0  0
 15 24  1  0  0  0  0
 18 22  1  0  0  0  0
 19 28  1  0  0  0  0
 19 29  2  0  0  0  0
 20 21  2  0  0  0  0
 20 25  1  0  0  0  0
 20 26  1  0  0  0  0
 24 26  2  0  0  0  0
 30 32  1  0  0  0  0
 31 33  1  0  0  0  0
 32 33  1  0  0  0  0
M  END
> <PUBCHEM_COMPOUND_ID_TYPE>
0

> <PUBCHEM_TOTAL_CHARGE>
0

> <PUBCHEM_SUBSTANCE_ID>
310935613

> <PUBCHEM_SUBSTANCE_VERSION>
1

> <PUBCHEM_EXT_DATASOURCE_NAME>
4488

> <PUBCHEM_EXT_DATASOURCE_REGID>
SCHEMBL16113187

> <PUBCHEM_SUBSTANCE_COMMENT>
InChI=1S/C26H26N6O/c1-17-10-20(22-13-29-30-14-22)12-23-24(17)27-16-28-25(23)32-9-6-18-4-5-19(11-21(18)15-32)26(33)31-7-2-3-8-31/h4-5,10-14,16H,2-3,6-9,15H2,1H3,(H,29,30)
InChIKey=QYFGNZACWULCGY-UHFFFAOYSA-N

> <PUBCHEM_SUBSTANCE_SYNONYM>
SCHEMBL16113187

> <PUBCHEM_XREF_EXT_ID>
SCHEMBL16113187

> <PUBCHEM_EXT_DATASOURCE_URL>
https://www.surechembl.org/

> <PUBCHEM_EXT_SUBSTANCE_URL>
https://www.surechembl.org/chemical/SCHEMBL16113187

> <PUBCHEM_CID_ASSOCIATIONS>
117603631  1

> <PUBCHEM_COORDINATE_TYPE>
1
3

$$$$
