310941529
  -OEChem-07211613022D

 22 23  0     0  0  0  0  0  0999 V2000
    2.1622    1.6623    0.0000 Cl  0  0  0  0  0  0  0  0  0  0  0  0
   -0.0125    0.4125    0.0000 S   0  0  0  0  0  0  0  0  0  0  0  0
    0.4000   -0.3000    0.0000 O   0  0  0  0  0  0  0  0  0  0  0  0
   -0.4249   -0.3000    0.0000 O   0  0  0  0  0  0  0  0  0  0  0  0
    1.4248   -2.0873    0.0000 O   0  0  0  0  0  0  0  0  0  0  0  0
    2.8747   -2.0873    0.0000 O   0  0  0  0  0  0  0  0  0  0  0  0
    0.7249    0.8374    0.0000 N   0  0  0  0  0  0  0  0  0  0  0  0
    1.4373    0.4249    0.0000 C   0  0  0  0  0  0  0  0  0  0  0  0
   -0.7249    0.8374    0.0000 C   0  0  0  0  0  0  0  0  0  0  0  0
    2.1622    0.8374    0.0000 C   0  0  0  0  0  0  0  0  0  0  0  0
    2.1622   -0.8249    0.0000 C   0  0  0  0  0  0  0  0  0  0  0  0
    1.4499   -0.4125    0.0000 C   0  0  0  0  0  0  0  0  0  0  0  0
   -0.7249    1.6623    0.0000 C   0  0  0  0  0  0  0  0  0  0  0  0
   -1.4248    0.4249    0.0000 C   0  0  0  0  0  0  0  0  0  0  0  0
    2.8872    0.4125    0.0000 C   0  0  0  0  0  0  0  0  0  0  0  0
    2.8872   -0.4125    0.0000 C   0  0  0  0  0  0  0  0  0  0  0  0
    2.1497   -1.6498    0.0000 C   0  0  0  0  0  0  0  0  0  0  0  0
   -1.4499    2.0748    0.0000 C   0  0  0  0  0  0  0  0  0  0  0  0
   -2.1497    0.8374    0.0000 C   0  0  0  0  0  0  0  0  0  0  0  0
   -2.1622    1.6623    0.0000 C   0  0  0  0  0  0  0  0  0  0  0  0
   -2.8872    2.0873    0.0000 C   0  0  0  0  0  0  0  0  0  0  0  0
    0.7249   -1.6623    0.0000 C   0  0  0  0  0  0  0  0  0  0  0  0
  1 10  1  0  0  0  0
  2  3  2  0  0  0  0
  2  4  2  0  0  0  0
  2  7  1  0  0  0  0
  2  9  1  0  0  0  0
  5 17  1  0  0  0  0
  5 22  1  0  0  0  0
  6 17  2  0  0  0  0
  7  8  1  0  0  0  0
  8 10  1  0  0  0  0
  8 12  2  0  0  0  0
  9 13  2  0  0  0  0
  9 14  1  0  0  0  0
 10 15  2  0  0  0  0
 11 12  1  0  0  0  0
 11 16  2  0  0  0  0
 11 17  1  0  0  0  0
 13 18  1  0  0  0  0
 14 19  2  0  0  0  0
 15 16  1  0  0  0  0
 18 20  2  0  0  0  0
 19 20  1  0  0  0  0
 20 21  1  0  0  0  0
M  END
> <PUBCHEM_COMPOUND_ID_TYPE>
0

> <PUBCHEM_TOTAL_CHARGE>
0

> <PUBCHEM_SUBSTANCE_ID>
310941529

> <PUBCHEM_SUBSTANCE_VERSION>
1

> <PUBCHEM_EXT_DATASOURCE_NAME>
4488

> <PUBCHEM_EXT_DATASOURCE_REGID>
SCHEMBL16119560

> <PUBCHEM_SUBSTANCE_COMMENT>
InChI=1S/C15H14ClNO4S/c1-10-3-6-12(7-4-10)22(19,20)17-14-9-11(15(18)21-2)5-8-13(14)16/h3-9,17H,1-2H3
InChIKey=YUYQGPWUAMEXRD-UHFFFAOYSA-N

> <PUBCHEM_SUBSTANCE_SYNONYM>
SCHEMBL16119560

> <PUBCHEM_XREF_EXT_ID>
SCHEMBL16119560

> <PUBCHEM_EXT_DATASOURCE_URL>
https://www.surechembl.org/

> <PUBCHEM_EXT_SUBSTANCE_URL>
https://www.surechembl.org/chemical/SCHEMBL16119560

> <PUBCHEM_CID_ASSOCIATIONS>
970922  1

> <PUBCHEM_COORDINATE_TYPE>
1
3

$$$$
