310929032
  -OEChem-07211613022D

 32 32  0     0  0  0  0  0  0999 V2000
    8.0444  -13.8725    0.0000 O   0  0  0  0  0  0  0  0  0  0  0  0
    9.5219  -16.4171    0.0000 O   0  0  0  0  0  0  0  0  0  0  0  0
    6.6490  -12.2308    0.0000 O   0  0  0  0  0  0  0  0  0  0  0  0
    5.9102  -10.0965    0.0000 O   0  0  0  0  0  0  0  0  0  0  0  0
    4.4326   -8.3727    0.0000 O   0  0  0  0  0  0  0  0  0  0  0  0
    3.6939   -6.3206    0.0000 O   0  0  0  0  0  0  0  0  0  0  0  0
    2.2163   -4.6789    0.0000 O   0  0  0  0  0  0  0  0  0  0  0  0
    1.3954   -2.5446    0.0000 O   0  0  0  0  0  0  0  0  0  0  0  0
    0.0000   -0.8208    0.0000 O   0  0  0  0  0  0  0  0  0  0  0  0
    6.6490  -16.4171    0.0000 N   0  0  0  0  0  0  0  0  0  0  0  0
    8.0444  -14.6933    0.0000 C   0  0  0  0  0  0  0  0  0  0  0  0
    8.7831  -16.0067    0.0000 C   0  0  0  0  0  0  0  0  0  0  0  0
    7.3877  -16.0067    0.0000 C   0  0  0  0  0  0  0  0  0  0  0  0
    8.7831  -15.1859    0.0000 C   0  0  0  0  0  0  0  0  0  0  0  0
    7.3877  -15.1859    0.0000 C   0  0  0  0  0  0  0  0  0  0  0  0
    8.0444  -16.4171    0.0000 C   0  0  0  0  0  0  0  0  0  0  0  0
    7.3877  -13.4621    0.0000 C   0  0  0  0  0  0  0  0  0  0  0  0
    7.3056  -12.6412    0.0000 C   0  0  0  0  0  0  0  0  0  0  0  0
   10.2607  -16.0067    0.0000 C   0  0  0  0  0  0  0  0  0  0  0  0
    6.6490  -11.3278    0.0000 C   0  0  0  0  0  0  0  0  0  0  0  0
    5.9102  -10.9174    0.0000 C   0  0  0  0  0  0  0  0  0  0  0  0
    5.1714   -9.6861    0.0000 C   0  0  0  0  0  0  0  0  0  0  0  0
    5.0893   -8.8652    0.0000 C   0  0  0  0  0  0  0  0  0  0  0  0
    4.4326   -7.5519    0.0000 C   0  0  0  0  0  0  0  0  0  0  0  0
    3.6939   -7.1415    0.0000 C   0  0  0  0  0  0  0  0  0  0  0  0
    2.9551   -5.9102    0.0000 C   0  0  0  0  0  0  0  0  0  0  0  0
    2.9551   -5.0893    0.0000 C   0  0  0  0  0  0  0  0  0  0  0  0
    2.2163   -3.7759    0.0000 C   0  0  0  0  0  0  0  0  0  0  0  0
    1.4775   -3.3655    0.0000 C   0  0  0  0  0  0  0  0  0  0  0  0
    0.7388   -2.1342    0.0000 C   0  0  0  0  0  0  0  0  0  0  0  0
    0.7388   -1.2313    0.0000 C   0  0  0  0  0  0  0  0  0  0  0  0
    0.0000    0.0000    0.0000 C   0  0  0  0  0  0  0  0  0  0  0  0
  1 11  1  0  0  0  0
  1 17  1  0  0  0  0
  2 12  1  0  0  0  0
  2 19  1  0  0  0  0
  3 18  1  0  0  0  0
  3 20  1  0  0  0  0
  4 21  1  0  0  0  0
  4 22  1  0  0  0  0
  5 23  1  0  0  0  0
  5 24  1  0  0  0  0
  6 25  1  0  0  0  0
  6 26  1  0  0  0  0
  7 27  1  0  0  0  0
  7 28  1  0  0  0  0
  8 29  1  0  0  0  0
  8 30  1  0  0  0  0
  9 31  1  0  0  0  0
  9 32  1  0  0  0  0
 10 13  1  0  0  0  0
 11 14  2  0  0  0  0
 11 15  1  0  0  0  0
 12 14  1  0  0  0  0
 12 16  2  0  0  0  0
 13 15  2  0  0  0  0
 13 16  1  0  0  0  0
 17 18  1  0  0  0  0
 20 21  1  0  0  0  0
 22 23  1  0  0  0  0
 24 25  1  0  0  0  0
 26 27  1  0  0  0  0
 28 29  1  0  0  0  0
 30 31  1  0  0  0  0
M  END
> <PUBCHEM_COMPOUND_ID_TYPE>
0

> <PUBCHEM_TOTAL_CHARGE>
0

> <PUBCHEM_SUBSTANCE_ID>
310929032

> <PUBCHEM_SUBSTANCE_VERSION>
1

> <PUBCHEM_EXT_DATASOURCE_NAME>
4488

> <PUBCHEM_EXT_DATASOURCE_REGID>
SCHEMBL16106194

> <PUBCHEM_SUBSTANCE_COMMENT>
InChI=1S/C22H39NO9/c1-24-3-4-26-5-6-27-7-8-28-9-10-29-11-12-30-13-14-31-15-16-32-22-18-20(23)17-21(19-22)25-2/h17-19H,3-16,23H2,1-2H3
InChIKey=BIMBIAKTGQWKSZ-UHFFFAOYSA-N

> <PUBCHEM_SUBSTANCE_SYNONYM>
SCHEMBL16106194

> <PUBCHEM_XREF_EXT_ID>
SCHEMBL16106194

> <PUBCHEM_EXT_DATASOURCE_URL>
https://www.surechembl.org/

> <PUBCHEM_EXT_SUBSTANCE_URL>
https://www.surechembl.org/chemical/SCHEMBL16106194

> <PUBCHEM_CID_ASSOCIATIONS>
117598551  1

> <PUBCHEM_COORDINATE_TYPE>
1
3

$$$$
