310936006
  -OEChem-07211613022D

 17 18  0     0  0  0  0  0  0999 V2000
    0.0000    0.0000    0.0000 Cl  0  0  0  0  0  0  0  0  0  0  0  0
    5.7866   -1.4273    0.0000 F   0  0  0  0  0  0  0  0  0  0  0  0
    2.4303   -2.8547    0.0000 O   0  0  0  0  0  0  0  0  0  0  0  0
    1.2152   -2.1411    0.0000 N   0  0  0  0  0  0  0  0  0  0  0  0
    2.4690   -1.4273    0.0000 C   0  0  0  0  0  0  0  0  0  0  0  0
    3.2983   -1.4273    0.0000 C   0  0  0  0  0  0  0  0  0  0  0  0
    2.0253   -2.1411    0.0000 C   0  0  0  0  0  0  0  0  0  0  0  0
    2.0253   -0.7137    0.0000 C   0  0  0  0  0  0  0  0  0  0  0  0
    1.2152   -0.7137    0.0000 C   0  0  0  0  0  0  0  0  0  0  0  0
    3.7227   -0.7137    0.0000 C   0  0  0  0  0  0  0  0  0  0  0  0
    3.7227   -2.1411    0.0000 C   0  0  0  0  0  0  0  0  0  0  0  0
    0.7909   -1.4273    0.0000 C   0  0  0  0  0  0  0  0  0  0  0  0
    4.9379   -1.4273    0.0000 C   0  0  0  0  0  0  0  0  0  0  0  0
    4.5328   -0.7137    0.0000 C   0  0  0  0  0  0  0  0  0  0  0  0
    4.5328   -2.1411    0.0000 C   0  0  0  0  0  0  0  0  0  0  0  0
    0.8101    0.0000    0.0000 C   0  0  0  0  0  0  0  0  0  0  0  0
    3.2598   -2.8547    0.0000 C   0  0  0  0  0  0  0  0  0  0  0  0
  1 16  1  0  0  0  0
  2 13  1  0  0  0  0
  3  7  1  0  0  0  0
  3 17  1  0  0  0  0
  4  7  1  0  0  0  0
  4 12  2  0  0  0  0
  5  6  1  0  0  0  0
  5  7  2  0  0  0  0
  5  8  1  0  0  0  0
  6 10  2  0  0  0  0
  6 11  1  0  0  0  0
  8  9  2  0  0  0  0
  9 12  1  0  0  0  0
  9 16  1  0  0  0  0
 10 14  1  0  0  0  0
 11 15  2  0  0  0  0
 13 14  2  0  0  0  0
 13 15  1  0  0  0  0
M  END
> <PUBCHEM_COMPOUND_ID_TYPE>
0

> <PUBCHEM_TOTAL_CHARGE>
0

> <PUBCHEM_SUBSTANCE_ID>
310936006

> <PUBCHEM_SUBSTANCE_VERSION>
1

> <PUBCHEM_EXT_DATASOURCE_NAME>
4488

> <PUBCHEM_EXT_DATASOURCE_REGID>
SCHEMBL16113607

> <PUBCHEM_SUBSTANCE_COMMENT>
InChI=1S/C13H11ClFNO/c1-17-13-12(6-9(7-14)8-16-13)10-2-4-11(15)5-3-10/h2-6,8H,7H2,1H3
InChIKey=LKXLABHALYUPAB-UHFFFAOYSA-N

> <PUBCHEM_SUBSTANCE_SYNONYM>
SCHEMBL16113607

> <PUBCHEM_XREF_EXT_ID>
SCHEMBL16113607

> <PUBCHEM_EXT_DATASOURCE_URL>
https://www.surechembl.org/

> <PUBCHEM_EXT_SUBSTANCE_URL>
https://www.surechembl.org/chemical/SCHEMBL16113607

> <PUBCHEM_CID_ASSOCIATIONS>
117603977  1

> <PUBCHEM_COORDINATE_TYPE>
1
3

$$$$
