310931162
  -OEChem-07211613022D

 14 14  0     0  0  0  0  0  0999 V2000
    3.5682   -2.4835    0.0000 Br  0  0  0  0  0  0  0  0  0  0  0  0
    1.4416   -1.2417    0.0000 O   0  0  0  0  0  0  0  0  0  0  0  0
    0.0000   -1.2417    0.0000 O   0  0  0  0  0  0  0  0  0  0  0  0
    2.1409    0.0000    0.0000 N   0  0  0  0  0  0  0  0  0  0  0  0
    0.0000   -0.4139    0.0000 N   0  0  0  0  0  0  0  0  0  0  0  0
    2.8545   -0.4139    0.0000 C   0  0  0  0  0  0  0  0  0  0  0  0
    2.8688   -1.2417    0.0000 C   0  0  0  0  0  0  0  0  0  0  0  0
    3.5682   -1.6413    0.0000 C   0  0  0  0  0  0  0  0  0  0  0  0
    3.5824    0.0000    0.0000 C   0  0  0  0  0  0  0  0  0  0  0  0
    1.4416   -0.4139    0.0000 C   0  0  0  0  0  0  0  0  0  0  0  0
    4.2818   -1.2417    0.0000 C   0  0  0  0  0  0  0  0  0  0  0  0
    4.2818   -0.4139    0.0000 C   0  0  0  0  0  0  0  0  0  0  0  0
    2.1551   -1.6556    0.0000 C   0  0  0  0  0  0  0  0  0  0  0  0
    0.7279    0.0000    0.0000 C   0  0  0  0  0  0  0  0  0  0  0  0
  1  8  1  0  0  0  0
  2 10  2  0  0  0  0
  3  5  1  0  0  0  0
  4  6  1  0  0  0  0
  4 10  1  0  0  0  0
  5 14  2  0  0  0  0
  6  7  1  0  0  0  0
  6  9  2  0  0  0  0
  7  8  2  0  0  0  0
  7 13  1  0  0  0  0
  8 11  1  0  0  0  0
  9 12  1  0  0  0  0
 10 14  1  0  0  0  0
 11 12  2  0  0  0  0
M  END
> <PUBCHEM_COMPOUND_ID_TYPE>
0

> <PUBCHEM_TOTAL_CHARGE>
0

> <PUBCHEM_SUBSTANCE_ID>
310931162

> <PUBCHEM_SUBSTANCE_VERSION>
1

> <PUBCHEM_EXT_DATASOURCE_NAME>
4488

> <PUBCHEM_EXT_DATASOURCE_REGID>
SCHEMBL16108470

> <PUBCHEM_SUBSTANCE_COMMENT>
InChI=1S/C9H9BrN2O2/c1-6-7(10)3-2-4-8(6)12-9(13)5-11-14/h2-5,14H,1H3,(H,12,13)/b11-5-
InChIKey=KTBMARXTGHKZPJ-WZUFQYTHSA-N

> <PUBCHEM_SUBSTANCE_SYNONYM>
SCHEMBL16108470

> <PUBCHEM_XREF_EXT_ID>
SCHEMBL16108470

> <PUBCHEM_EXT_DATASOURCE_URL>
https://www.surechembl.org/

> <PUBCHEM_EXT_SUBSTANCE_URL>
https://www.surechembl.org/chemical/SCHEMBL16108470

> <PUBCHEM_CID_ASSOCIATIONS>
59916364  1

> <PUBCHEM_COORDINATE_TYPE>
1
3

$$$$
