310938053
  -OEChem-07211613022D

 31 34  0     0  0  0  0  0  0999 V2000
    7.8024   -3.2434    0.0000 O   0  0  0  0  0  0  0  0  0  0  0  0
    5.6912   -5.2934    0.0000 O   0  0  0  0  0  0  0  0  0  0  0  0
    4.2837   -5.2934    0.0000 O   0  0  0  0  0  0  0  0  0  0  0  0
    0.0000   -0.3978    0.0000 O   0  0  0  0  0  0  0  0  0  0  0  0
    6.4867   -2.5702    0.0000 N   0  0  0  0  0  0  0  0  0  0  0  0
    1.4075   -1.2239    0.0000 N   0  0  0  0  0  0  0  0  0  0  0  0
    5.7218   -3.6717    0.0000 C   0  0  0  0  0  0  0  0  0  0  0  0
    6.4867   -3.9165    0.0000 C   0  0  0  0  0  0  0  0  0  0  0  0
    5.7218   -2.8456    0.0000 C   0  0  0  0  0  0  0  0  0  0  0  0
    6.9763   -3.2434    0.0000 C   0  0  0  0  0  0  0  0  0  0  0  0
    4.9875   -4.0695    0.0000 C   0  0  0  0  0  0  0  0  0  0  0  0
    4.9875   -2.4172    0.0000 C   0  0  0  0  0  0  0  0  0  0  0  0
    4.2837   -2.8456    0.0000 C   0  0  0  0  0  0  0  0  0  0  0  0
    4.2837   -3.6717    0.0000 C   0  0  0  0  0  0  0  0  0  0  0  0
    6.7315   -1.8053    0.0000 C   0  0  0  0  0  0  0  0  0  0  0  0
    4.9875   -4.8956    0.0000 C   0  0  0  0  0  0  0  0  0  0  0  0
    6.7315   -4.6815    0.0000 C   0  0  0  0  0  0  0  0  0  0  0  0
    7.3129   -4.0389    0.0000 C   0  0  0  0  0  0  0  0  0  0  0  0
    3.5800   -2.4479    0.0000 C   0  0  0  0  0  0  0  0  0  0  0  0
    2.8456   -2.8762    0.0000 C   0  0  0  0  0  0  0  0  0  0  0  0
    3.5494   -1.6217    0.0000 C   0  0  0  0  0  0  0  0  0  0  0  0
    6.1808   -1.1933    0.0000 C   0  0  0  0  0  0  0  0  0  0  0  0
    7.5577   -1.6217    0.0000 C   0  0  0  0  0  0  0  0  0  0  0  0
    2.1418   -1.6217    0.0000 C   0  0  0  0  0  0  0  0  0  0  0  0
    2.1418   -2.4479    0.0000 C   0  0  0  0  0  0  0  0  0  0  0  0
    2.8456   -1.2239    0.0000 C   0  0  0  0  0  0  0  0  0  0  0  0
    5.6912   -6.1196    0.0000 C   0  0  0  0  0  0  0  0  0  0  0  0
    0.7037   -1.6523    0.0000 C   0  0  0  0  0  0  0  0  0  0  0  0
    1.4075   -0.3978    0.0000 C   0  0  0  0  0  0  0  0  0  0  0  0
    0.0000   -1.2239    0.0000 C   0  0  0  0  0  0  0  0  0  0  0  0
    0.7037    0.0000    0.0000 C   0  0  0  0  0  0  0  0  0  0  0  0
  1 10  2  0  0  0  0
  2 16  1  0  0  0  0
  2 27  1  0  0  0  0
  3 16  2  0  0  0  0
  4 30  1  0  0  0  0
  4 31  1  0  0  0  0
  5  9  1  0  0  0  0
  5 10  1  0  0  0  0
  5 15  1  0  0  0  0
  6 24  1  0  0  0  0
  6 28  1  0  0  0  0
  6 29  1  0  0  0  0
  7  8  1  0  0  0  0
  7  9  2  0  0  0  0
  7 11  1  0  0  0  0
  8 10  1  0  0  0  0
  8 17  1  0  0  0  0
  8 18  1  0  0  0  0
  9 12  1  0  0  0  0
 11 14  2  0  0  0  0
 11 16  1  0  0  0  0
 12 13  2  0  0  0  0
 13 14  1  0  0  0  0
 13 19  1  0  0  0  0
 15 22  1  0  0  0  0
 15 23  1  0  0  0  0
 19 20  2  0  0  0  0
 19 21  1  0  0  0  0
 20 25  1  0  0  0  0
 21 26  2  0  0  0  0
 24 25  2  0  0  0  0
 24 26  1  0  0  0  0
 28 30  1  0  0  0  0
 29 31  1  0  0  0  0
M  END
> <PUBCHEM_COMPOUND_ID_TYPE>
0

> <PUBCHEM_TOTAL_CHARGE>
0

> <PUBCHEM_SUBSTANCE_ID>
310938053

> <PUBCHEM_SUBSTANCE_VERSION>
1

> <PUBCHEM_EXT_DATASOURCE_NAME>
4488

> <PUBCHEM_EXT_DATASOURCE_REGID>
SCHEMBL16115894

> <PUBCHEM_SUBSTANCE_COMMENT>
InChI=1S/C25H30N2O4/c1-16(2)27-21-15-18(14-20(23(28)30-5)22(21)25(3,4)24(27)29)17-6-8-19(9-7-17)26-10-12-31-13-11-26/h6-9,14-16H,10-13H2,1-5H3
InChIKey=XCHRQGZMFSQTNS-UHFFFAOYSA-N

> <PUBCHEM_SUBSTANCE_SYNONYM>
SCHEMBL16115894

> <PUBCHEM_XREF_EXT_ID>
SCHEMBL16115894

> <PUBCHEM_EXT_DATASOURCE_URL>
https://www.surechembl.org/

> <PUBCHEM_EXT_SUBSTANCE_URL>
https://www.surechembl.org/chemical/SCHEMBL16115894

> <PUBCHEM_CID_ASSOCIATIONS>
117605629  1

> <PUBCHEM_COORDINATE_TYPE>
1
3

$$$$
