310934519
  -OEChem-07211613022D

 33 36  0     0  0  0  0  0  0999 V2000
    2.5181   -4.2937    0.0000 S   0  0  0  0  0  0  0  0  0  0  0  0
    2.5181   -5.2300    0.0000 O   0  0  0  0  0  0  0  0  0  0  0  0
    2.5181   -3.4867    0.0000 O   0  0  0  0  0  0  0  0  0  0  0  0
    1.6788   -2.8732    0.0000 O   0  0  0  0  0  0  0  0  0  0  0  0
    7.0379   -5.0040    0.0000 O   0  0  0  0  0  0  0  0  0  0  0  0
    7.0379   -3.5835    0.0000 O   0  0  0  0  0  0  0  0  0  0  0  0
    3.3252   -4.2937    0.0000 N   0  0  0  0  0  0  0  0  0  0  0  0
    5.8111   -5.7465    0.0000 N   0  0  0  0  0  0  0  0  0  0  0  0
    4.5520   -5.0362    0.0000 C   0  0  0  0  0  0  0  0  0  0  0  0
    3.7449   -5.0362    0.0000 C   0  0  0  0  0  0  0  0  0  0  0  0
    4.9717   -5.7465    0.0000 C   0  0  0  0  0  0  0  0  0  0  0  0
    1.7110   -4.2937    0.0000 C   0  0  0  0  0  0  0  0  0  0  0  0
    5.8111   -4.2937    0.0000 C   0  0  0  0  0  0  0  0  0  0  0  0
    4.9394   -4.2937    0.0000 C   0  0  0  0  0  0  0  0  0  0  0  0
    6.1985   -5.0040    0.0000 C   0  0  0  0  0  0  0  0  0  0  0  0
    1.2591   -3.5835    0.0000 C   0  0  0  0  0  0  0  0  0  0  0  0
    3.3252   -5.7465    0.0000 C   0  0  0  0  0  0  0  0  0  0  0  0
    4.5843   -6.4567    0.0000 C   0  0  0  0  0  0  0  0  0  0  0  0
    6.1985   -3.5835    0.0000 C   0  0  0  0  0  0  0  0  0  0  0  0
    3.7449   -6.4567    0.0000 C   0  0  0  0  0  0  0  0  0  0  0  0
    1.2591   -5.0040    0.0000 C   0  0  0  0  0  0  0  0  0  0  0  0
    0.4520   -3.5835    0.0000 C   0  0  0  0  0  0  0  0  0  0  0  0
    0.4520   -5.0040    0.0000 C   0  0  0  0  0  0  0  0  0  0  0  0
    5.7788   -2.8732    0.0000 C   0  0  0  0  0  0  0  0  0  0  0  0
    0.0000   -4.2937    0.0000 C   0  0  0  0  0  0  0  0  0  0  0  0
    6.1985   -2.1307    0.0000 C   0  0  0  0  0  0  0  0  0  0  0  0
    5.7465   -1.4205    0.0000 C   0  0  0  0  0  0  0  0  0  0  0  0
    1.2268   -2.1630    0.0000 C   0  0  0  0  0  0  0  0  0  0  0  0
    6.1662   -0.7102    0.0000 C   0  0  0  0  0  0  0  0  0  0  0  0
    4.9394   -1.4528    0.0000 C   0  0  0  0  0  0  0  0  0  0  0  0
    5.7465    0.0000    0.0000 C   0  0  0  0  0  0  0  0  0  0  0  0
    4.5197   -0.7102    0.0000 C   0  0  0  0  0  0  0  0  0  0  0  0
    4.9071    0.0000    0.0000 C   0  0  0  0  0  0  0  0  0  0  0  0
  1  2  2  0  0  0  0
  1  3  2  0  0  0  0
  1  7  1  0  0  0  0
  1 12  1  0  0  0  0
  4 16  1  0  0  0  0
  4 28  1  0  0  0  0
  5 15  2  0  0  0  0
  6 19  2  0  0  0  0
  7 10  1  0  0  0  0
  8 11  1  0  0  0  0
  8 15  1  0  0  0  0
  9 10  1  0  0  0  0
  9 11  2  0  0  0  0
  9 14  1  0  0  0  0
 10 17  2  0  0  0  0
 11 18  1  0  0  0  0
 12 16  1  0  0  0  0
 12 21  2  0  0  0  0
 13 14  2  0  0  0  0
 13 15  1  0  0  0  0
 13 19  1  0  0  0  0
 16 22  2  0  0  0  0
 17 20  1  0  0  0  0
 18 20  2  0  0  0  0
 19 24  1  0  0  0  0
 21 23  1  0  0  0  0
 22 25  1  0  0  0  0
 23 25  2  0  0  0  0
 24 26  2  0  0  0  0
 26 27  1  0  0  0  0
 27 29  2  0  0  0  0
 27 30  1  0  0  0  0
 29 31  1  0  0  0  0
 30 32  2  0  0  0  0
 31 33  2  0  0  0  0
 32 33  1  0  0  0  0
M  END
> <PUBCHEM_COMPOUND_ID_TYPE>
0

> <PUBCHEM_TOTAL_CHARGE>
0

> <PUBCHEM_SUBSTANCE_ID>
310934519

> <PUBCHEM_SUBSTANCE_VERSION>
1

> <PUBCHEM_EXT_DATASOURCE_NAME>
4488

> <PUBCHEM_EXT_DATASOURCE_REGID>
SCHEMBL16112004

> <PUBCHEM_SUBSTANCE_COMMENT>
InChI=1S/C25H20N2O5S/c1-32-23-12-5-6-13-24(23)33(30,31)27-21-11-7-10-20-18(21)16-19(25(29)26-20)22(28)15-14-17-8-3-2-4-9-17/h2-16,27H,1H3,(H,26,29)/b15-14+
InChIKey=OVGNVGVOOLSILA-CCEZHUSRSA-N

> <PUBCHEM_SUBSTANCE_SYNONYM>
SCHEMBL16112004

> <PUBCHEM_XREF_EXT_ID>
SCHEMBL16112004

> <PUBCHEM_EXT_DATASOURCE_URL>
https://www.surechembl.org/

> <PUBCHEM_EXT_SUBSTANCE_URL>
https://www.surechembl.org/chemical/SCHEMBL16112004

> <PUBCHEM_CID_ASSOCIATIONS>
117602717  1

> <PUBCHEM_COORDINATE_TYPE>
1
3

$$$$
