310937347
  -OEChem-07211613022D

 35 39  0     0  0  0  0  0  0999 V2000
   -0.3195   -1.8936    0.0000 F   0  0  0  0  0  0  0  0  0  0  0  0
    5.0322   -4.4920    0.0000 O   0  0  0  0  0  0  0  0  0  0  0  0
    8.7459   -1.7887    0.0000 O   0  0  0  0  0  0  0  0  0  0  0  0
    0.7846   -0.6674    0.0000 N   0  0  0  0  0  0  0  0  0  0  0  0
    1.8465   -1.6236    0.0000 N   0  0  0  0  0  0  0  0  0  0  0  0
    0.7846    0.6674    0.0000 N   0  0  0  0  0  0  0  0  0  0  0  0
    1.5495   -3.0213    0.0000 N   0  0  0  0  0  0  0  0  0  0  0  0
    2.9084   -2.5797    0.0000 N   0  0  0  0  0  0  0  0  0  0  0  0
   -1.4290   -0.4125    0.0000 N   0  0  0  0  0  0  0  0  0  0  0  0
    6.9959   -3.5388    0.0000 N   0  0  0  0  0  0  0  0  0  0  0  0
    0.0000   -0.4125    0.0000 C   0  0  0  0  0  0  0  0  0  0  0  0
    1.0396   -1.4521    0.0000 C   0  0  0  0  0  0  0  0  0  0  0  0
    0.0000    0.4125    0.0000 C   0  0  0  0  0  0  0  0  0  0  0  0
    0.4875   -2.0651    0.0000 C   0  0  0  0  0  0  0  0  0  0  0  0
    1.2696    0.0000    0.0000 C   0  0  0  0  0  0  0  0  0  0  0  0
    2.1014   -2.4082    0.0000 C   0  0  0  0  0  0  0  0  0  0  0  0
   -0.7144   -0.8250    0.0000 C   0  0  0  0  0  0  0  0  0  0  0  0
   -0.7144    0.8250    0.0000 C   0  0  0  0  0  0  0  0  0  0  0  0
    0.7424   -2.8498    0.0000 C   0  0  0  0  0  0  0  0  0  0  0  0
    3.1634   -3.3643    0.0000 C   0  0  0  0  0  0  0  0  0  0  0  0
   -1.4290    0.4125    0.0000 C   0  0  0  0  0  0  0  0  0  0  0  0
    3.9704   -3.5359    0.0000 C   0  0  0  0  0  0  0  0  0  0  0  0
    2.6114   -3.9774    0.0000 C   0  0  0  0  0  0  0  0  0  0  0  0
    4.2253   -4.3205    0.0000 C   0  0  0  0  0  0  0  0  0  0  0  0
    2.8663   -4.7621    0.0000 C   0  0  0  0  0  0  0  0  0  0  0  0
    3.6732   -4.9336    0.0000 C   0  0  0  0  0  0  0  0  0  0  0  0
    2.3142   -5.3752    0.0000 C   0  0  0  0  0  0  0  0  0  0  0  0
    5.6156   -3.9087    0.0000 C   0  0  0  0  0  0  0  0  0  0  0  0
    6.4125   -4.1222    0.0000 C   0  0  0  0  0  0  0  0  0  0  0  0
    6.7823   -2.7419    0.0000 C   0  0  0  0  0  0  0  0  0  0  0  0
    7.7927   -3.7523    0.0000 C   0  0  0  0  0  0  0  0  0  0  0  0
    8.1626   -2.3721    0.0000 C   0  0  0  0  0  0  0  0  0  0  0  0
    1.5073   -5.2036    0.0000 C   0  0  0  0  0  0  0  0  0  0  0  0
    7.3657   -2.1585    0.0000 C   0  0  0  0  0  0  0  0  0  0  0  0
    8.3761   -3.1690    0.0000 C   0  0  0  0  0  0  0  0  0  0  0  0
  1 14  1  0  0  0  0
  2 24  1  0  0  0  0
  2 28  1  0  0  0  0
  3 32  1  0  0  0  0
  4 11  1  0  0  0  0
  4 12  1  0  0  0  0
  4 15  1  0  0  0  0
  5 12  2  0  0  0  0
  5 16  1  0  0  0  0
  6 13  1  0  0  0  0
  6 15  2  0  0  0  0
  7 16  2  0  0  0  0
  7 19  1  0  0  0  0
  8 16  1  0  0  0  0
  8 20  1  0  0  0  0
  9 17  2  0  0  0  0
  9 21  1  0  0  0  0
 10 29  1  0  0  0  0
 10 30  1  0  0  0  0
 10 31  1  0  0  0  0
 11 13  2  0  0  0  0
 11 17  1  0  0  0  0
 12 14  1  0  0  0  0
 13 18  1  0  0  0  0
 14 19  2  0  0  0  0
 18 21  2  0  0  0  0
 20 22  1  0  0  0  0
 20 23  2  0  0  0  0
 22 24  2  0  0  0  0
 23 25  1  0  0  0  0
 24 26  1  0  0  0  0
 25 26  2  0  0  0  0
 25 27  1  0  0  0  0
 27 33  1  0  0  0  0
 28 29  1  0  0  0  0
 30 34  1  0  0  0  0
 31 35  1  0  0  0  0
 32 34  1  0  0  0  0
 32 35  1  0  0  0  0
M  END
> <PUBCHEM_COMPOUND_ID_TYPE>
0

> <PUBCHEM_TOTAL_CHARGE>
0

> <PUBCHEM_SUBSTANCE_ID>
310937347

> <PUBCHEM_SUBSTANCE_VERSION>
1

> <PUBCHEM_EXT_DATASOURCE_NAME>
4488

> <PUBCHEM_EXT_DATASOURCE_REGID>
SCHEMBL16115103

> <PUBCHEM_SUBSTANCE_COMMENT>
InChI=1S/C25H28FN7O2/c1-2-17-11-18(13-20(12-17)35-10-9-32-7-4-19(34)5-8-32)30-25-28-14-21(26)24(31-25)33-16-29-22-3-6-27-15-23(22)33/h3,6,11-16,19,34H,2,4-5,7-10H2,1H3,(H,28,30,31)
InChIKey=QHOFWUCYCGQYFN-UHFFFAOYSA-N

> <PUBCHEM_SUBSTANCE_SYNONYM>
SCHEMBL16115103

> <PUBCHEM_XREF_EXT_ID>
SCHEMBL16115103

> <PUBCHEM_EXT_DATASOURCE_URL>
https://www.surechembl.org/

> <PUBCHEM_EXT_SUBSTANCE_URL>
https://www.surechembl.org/chemical/SCHEMBL16115103

> <PUBCHEM_CID_ASSOCIATIONS>
86300091  1

> <PUBCHEM_COORDINATE_TYPE>
1
3

$$$$
