310936730
  -OEChem-07211613022D

 40 45  0     0  0  0  0  0  0999 V2000
    0.0000   -3.2895    0.0000 F   0  0  0  0  0  0  0  0  0  0  0  0
    8.8782   -5.4118    0.0000 F   0  0  0  0  0  0  0  0  0  0  0  0
    0.0000   -5.8362    0.0000 F   0  0  0  0  0  0  0  0  0  0  0  0
    0.7074   -7.0743    0.0000 F   0  0  0  0  0  0  0  0  0  0  0  0
    5.0581   -6.0485    0.0000 O   0  0  0  0  0  0  0  0  0  0  0  0
    2.1577   -2.0869    0.0000 O   0  0  0  0  0  0  0  0  0  0  0  0
    6.1192   -3.7847    0.0000 O   0  0  0  0  0  0  0  0  0  0  0  0
    0.7074   -2.0869    0.0000 N   0  0  0  0  0  0  0  0  0  0  0  0
    3.5371   -6.2253    0.0000 N   0  0  0  0  0  0  0  0  0  0  0  0
    2.1223   -6.2253    0.0000 N   0  0  0  0  0  0  0  0  0  0  0  0
    4.7751   -3.3249    0.0000 N   0  0  0  0  0  0  0  0  0  0  0  0
    0.7074   -1.2380    0.0000 C   0  0  0  0  0  0  0  0  0  0  0  0
    0.7428    0.0000    0.0000 C   0  0  0  0  0  0  0  0  0  0  0  0
    0.1061   -0.6367    0.0000 C   0  0  0  0  0  0  0  0  0  0  0  0
    1.0965   -0.6367    0.0000 C   0  0  0  0  0  0  0  0  0  0  0  0
    1.3441   -0.6367    0.0000 C   0  0  0  0  0  0  0  0  0  0  0  0
    4.2799   -4.9520    0.0000 C   0  0  0  0  0  0  0  0  0  0  0  0
    5.0581   -4.7398    0.0000 C   0  0  0  0  0  0  0  0  0  0  0  0
    4.2799   -5.8362    0.0000 C   0  0  0  0  0  0  0  0  0  0  0  0
    5.5533   -5.4118    0.0000 C   0  0  0  0  0  0  0  0  0  0  0  0
    2.8651   -4.9520    0.0000 C   0  0  0  0  0  0  0  0  0  0  0  0
    3.5371   -4.5629    0.0000 C   0  0  0  0  0  0  0  0  0  0  0  0
    2.8651   -5.8362    0.0000 C   0  0  0  0  0  0  0  0  0  0  0  0
    1.4149   -2.4760    0.0000 C   0  0  0  0  0  0  0  0  0  0  0  0
    2.1223   -4.5629    0.0000 C   0  0  0  0  0  0  0  0  0  0  0  0
    1.4149   -3.3249    0.0000 C   0  0  0  0  0  0  0  0  0  0  0  0
    6.3668   -5.4118    0.0000 C   0  0  0  0  0  0  0  0  0  0  0  0
    5.3057   -3.9616    0.0000 C   0  0  0  0  0  0  0  0  0  0  0  0
    2.1223   -3.7140    0.0000 C   0  0  0  0  0  0  0  0  0  0  0  0
    0.7074   -3.7140    0.0000 C   0  0  0  0  0  0  0  0  0  0  0  0
    1.4149   -4.9520    0.0000 C   0  0  0  0  0  0  0  0  0  0  0  0
    0.7074   -4.5629    0.0000 C   0  0  0  0  0  0  0  0  0  0  0  0
    6.7913   -4.6690    0.0000 C   0  0  0  0  0  0  0  0  0  0  0  0
    6.7913   -6.1192    0.0000 C   0  0  0  0  0  0  0  0  0  0  0  0
    7.6048   -4.6690    0.0000 C   0  0  0  0  0  0  0  0  0  0  0  0
    7.6048   -6.1192    0.0000 C   0  0  0  0  0  0  0  0  0  0  0  0
    1.4149   -5.8362    0.0000 C   0  0  0  0  0  0  0  0  0  0  0  0
    8.0292   -5.4118    0.0000 C   0  0  0  0  0  0  0  0  0  0  0  0
    5.0227   -2.5468    0.0000 C   0  0  0  0  0  0  0  0  0  0  0  0
    0.7074   -6.2607    0.0000 C   0  0  0  0  0  0  0  0  0  0  0  0
  1 30  1  0  0  0  0
  2 38  1  0  0  0  0
  3 40  1  0  0  0  0
  4 40  1  0  0  0  0
  5 19  1  0  0  0  0
  5 20  1  0  0  0  0
  6 24  2  0  0  0  0
  7 28  2  0  0  0  0
  8 12  1  0  0  0  0
  8 24  1  0  0  0  0
  9 19  1  0  0  0  0
  9 23  2  0  0  0  0
 10 23  1  0  0  0  0
 10 37  1  0  0  0  0
 11 28  1  0  0  0  0
 11 39  1  0  0  0  0
 12 14  1  0  0  0  0
 12 15  1  0  0  0  0
 12 16  1  0  0  0  0
 13 14  1  0  0  0  0
 13 15  1  0  0  0  0
 13 16  1  0  0  0  0
 17 18  1  0  0  0  0
 17 19  2  0  0  0  0
 17 22  1  0  0  0  0
 18 20  2  0  0  0  0
 18 28  1  0  0  0  0
 20 27  1  0  0  0  0
 21 22  2  0  0  0  0
 21 23  1  0  0  0  0
 21 25  1  0  0  0  0
 24 26  1  0  0  0  0
 25 29  1  0  0  0  0
 25 31  2  0  0  0  0
 26 29  2  0  0  0  0
 26 30  1  0  0  0  0
 27 33  2  0  0  0  0
 27 34  1  0  0  0  0
 30 32  2  0  0  0  0
 31 32  1  0  0  0  0
 33 35  1  0  0  0  0
 34 36  2  0  0  0  0
 35 38  2  0  0  0  0
 36 38  1  0  0  0  0
 37 40  1  0  0  0  0
M  END
> <PUBCHEM_COMPOUND_ID_TYPE>
0

> <PUBCHEM_TOTAL_CHARGE>
0

> <PUBCHEM_SUBSTANCE_ID>
310936730

> <PUBCHEM_SUBSTANCE_VERSION>
1

> <PUBCHEM_EXT_DATASOURCE_NAME>
4488

> <PUBCHEM_EXT_DATASOURCE_REGID>
SCHEMBL16114410

> <PUBCHEM_SUBSTANCE_COMMENT>
InChI=1S/C29H24F4N4O3/c1-34-27(39)23-20-9-18(16-4-7-21(31)19(8-16)26(38)37-29-10-14(11-29)12-29)25(35-13-22(32)33)36-28(20)40-24(23)15-2-5-17(30)6-3-15/h2-9,14,22H,10-13H2,1H3,(H,34,39)(H,35,36)(H,37,38)
InChIKey=AVJNMXBYMOLYKH-UHFFFAOYSA-N

> <PUBCHEM_SUBSTANCE_SYNONYM>
SCHEMBL16114410

> <PUBCHEM_XREF_EXT_ID>
SCHEMBL16114410

> <PUBCHEM_EXT_DATASOURCE_URL>
https://www.surechembl.org/

> <PUBCHEM_EXT_SUBSTANCE_URL>
https://www.surechembl.org/chemical/SCHEMBL16114410

> <PUBCHEM_CID_ASSOCIATIONS>
85470020  1

> <PUBCHEM_COORDINATE_TYPE>
1
3

$$$$
