310937925
  -OEChem-07211613022D

 12 12  0     0  0  0  0  0  0999 V2000
    2.1015    2.8207    0.0000 O   0  0  0  0  0  0  0  0  0  0  0  0
    2.8159    4.0582    0.0000 O   0  0  0  0  0  0  0  0  0  0  0  0
    5.5506    3.5107    0.0000 N   0  0  0  0  0  0  0  0  0  0  0  0
    5.1381    4.2252    0.0000 N   0  0  0  0  0  0  0  0  0  0  0  0
    6.3711    3.4245    0.0000 N   0  0  0  0  0  0  0  0  0  0  0  0
    4.2449    3.2332    0.0000 C   0  0  0  0  0  0  0  0  0  0  0  0
    4.9986    2.8977    0.0000 C   0  0  0  0  0  0  0  0  0  0  0  0
    3.5304    2.8207    0.0000 C   0  0  0  0  0  0  0  0  0  0  0  0
    4.3311    4.0537    0.0000 C   0  0  0  0  0  0  0  0  0  0  0  0
    2.8159    3.2332    0.0000 C   0  0  0  0  0  0  0  0  0  0  0  0
    1.3870    3.2332    0.0000 C   0  0  0  0  0  0  0  0  0  0  0  0
    0.6725    2.8207    0.0000 C   0  0  0  0  0  0  0  0  0  0  0  0
  1 10  1  0  0  0  0
  1 11  1  0  0  0  0
  2 10  2  0  0  0  0
  3  4  1  0  0  0  0
  3  5  1  0  0  0  0
  3  7  1  0  0  0  0
  4  9  2  0  0  0  0
  6  7  2  0  0  0  0
  6  8  1  0  0  0  0
  6  9  1  0  0  0  0
  8 10  1  0  0  0  0
 11 12  1  0  0  0  0
M  END
> <PUBCHEM_COMPOUND_ID_TYPE>
0

> <PUBCHEM_TOTAL_CHARGE>
0

> <PUBCHEM_SUBSTANCE_ID>
310937925

> <PUBCHEM_SUBSTANCE_VERSION>
1

> <PUBCHEM_EXT_DATASOURCE_NAME>
4488

> <PUBCHEM_EXT_DATASOURCE_REGID>
SCHEMBL16115754

> <PUBCHEM_SUBSTANCE_COMMENT>
InChI=1S/C7H11N3O2/c1-2-12-7(11)3-6-4-9-10(8)5-6/h4-5H,2-3,8H2,1H3
InChIKey=PEWYZUOCCUVODW-UHFFFAOYSA-N

> <PUBCHEM_SUBSTANCE_SYNONYM>
SCHEMBL16115754

> <PUBCHEM_XREF_EXT_ID>
SCHEMBL16115754

> <PUBCHEM_EXT_DATASOURCE_URL>
https://www.surechembl.org/

> <PUBCHEM_EXT_SUBSTANCE_URL>
https://www.surechembl.org/chemical/SCHEMBL16115754

> <PUBCHEM_CID_ASSOCIATIONS>
117605535  1

> <PUBCHEM_COORDINATE_TYPE>
1
3

$$$$
