310940762
  -OEChem-07211613022D

 14 14  0     0  0  0  0  0  0999 V2000
    1.8038    0.9141    0.0000 S   0  0  0  0  0  0  0  0  0  0  0  0
   -0.7523   -0.1375    0.0000 S   0  0  0  0  0  0  0  0  0  0  0  0
    1.5612    1.6582    0.0000 O   0  0  0  0  0  0  0  0  0  0  0  0
    2.0789    0.1375    0.0000 O   0  0  0  0  0  0  0  0  0  0  0  0
    2.5804    1.1729    0.0000 O   0  0  0  0  0  0  0  0  0  0  0  0
    0.8008   -0.2184    0.0000 N   0  0  0  0  0  0  0  0  0  0  0  0
    1.3994   -0.8818    0.0000 N   0  0  0  0  0  0  0  0  0  0  0  0
    0.1051   -1.4641    0.0000 N   0  0  0  0  0  0  0  0  0  0  0  0
    0.9626   -1.6582    0.0000 N   0  0  0  0  0  0  0  0  0  0  0  0
    0.0243   -0.5743    0.0000 C   0  0  0  0  0  0  0  0  0  0  0  0
    0.9950    0.6390    0.0000 C   0  0  0  0  0  0  0  0  0  0  0  0
   -1.4965   -0.5743    0.0000 C   0  0  0  0  0  0  0  0  0  0  0  0
   -2.2244   -0.1861    0.0000 C   0  0  0  0  0  0  0  0  0  0  0  0
   -2.5804   -0.5095    0.0000 C   0  0  0  0  0  0  0  0  0  0  0  0
  1  3  2  0  0  0  0
  1  4  2  0  0  0  0
  1  5  1  0  0  0  0
  1 11  1  0  0  0  0
  2 10  1  0  0  0  0
  2 12  1  0  0  0  0
  6  7  1  0  0  0  0
  6 10  1  0  0  0  0
  6 11  1  0  0  0  0
  7  9  2  0  0  0  0
  8  9  1  0  0  0  0
  8 10  2  0  0  0  0
 12 13  1  0  0  0  0
 13 14  1  0  0  0  0
M  END
> <PUBCHEM_COMPOUND_ID_TYPE>
0

> <PUBCHEM_TOTAL_CHARGE>
0

> <PUBCHEM_SUBSTANCE_ID>
310940762

> <PUBCHEM_SUBSTANCE_VERSION>
1

> <PUBCHEM_EXT_DATASOURCE_NAME>
4488

> <PUBCHEM_EXT_DATASOURCE_REGID>
SCHEMBL16118721

> <PUBCHEM_SUBSTANCE_COMMENT>
InChI=1S/C5H10N4O3S2/c1-2-3-13-5-6-7-8-9(5)4-14(10,11)12/h2-4H2,1H3,(H,10,11,12)
InChIKey=IKMBFPWYZGGJRO-UHFFFAOYSA-N

> <PUBCHEM_SUBSTANCE_SYNONYM>
SCHEMBL16118721

> <PUBCHEM_XREF_EXT_ID>
SCHEMBL16118721

> <PUBCHEM_EXT_DATASOURCE_URL>
https://www.surechembl.org/

> <PUBCHEM_EXT_SUBSTANCE_URL>
https://www.surechembl.org/chemical/SCHEMBL16118721

> <PUBCHEM_CID_ASSOCIATIONS>
117607716  1

> <PUBCHEM_COORDINATE_TYPE>
1
3

> <PUBCHEM_BONDANNOTATIONS>
13  14  3

$$$$
