310946227
  -OEChem-07211613022D

 23 26  0     1  0  0  0  0  0999 V2000
   -1.8659   -1.2628    0.0000 O   0  0  0  0  0  0  0  0  0  0  0  0
   -0.4369    1.2122    0.0000 O   0  0  0  0  0  0  0  0  0  0  0  0
   -2.5803   -0.0253    0.0000 C   0  0  3  0  0  0  0  0  0  0  0  0
   -1.8659    0.3872    0.0000 C   0  0  3  0  0  0  0  0  0  0  0  0
   -2.6329    0.9609    0.0000 C   0  0  0  0  0  0  0  0  0  0  0  0
   -3.3650    0.2296    0.0000 C   0  0  3  0  0  0  0  0  0  0  0  0
   -2.5803   -0.8503    0.0000 C   0  0  3  0  0  0  0  0  0  0  0  0
   -1.1514   -0.0253    0.0000 C   0  0  0  0  0  0  0  0  0  0  0  0
   -1.1514   -0.8503    0.0000 C   0  0  0  0  0  0  0  0  0  0  0  0
   -3.8499   -0.4378    0.0000 C   0  0  0  0  0  0  0  0  0  0  0  0
   -3.3650   -1.1053    0.0000 C   0  0  0  0  0  0  0  0  0  0  0  0
   -0.4369    0.3872    0.0000 C   0  0  0  0  0  0  0  0  0  0  0  0
   -2.2204    1.6753    0.0000 C   0  0  0  0  0  0  0  0  0  0  0  0
   -3.0454    1.6753    0.0000 C   0  0  0  0  0  0  0  0  0  0  0  0
   -2.5803   -1.6753    0.0000 C   0  0  0  0  0  0  0  0  0  0  0  0
   -0.4369   -1.2628    0.0000 C   0  0  0  0  0  0  0  0  0  0  0  0
    0.2775   -0.8503    0.0000 C   0  0  0  0  0  0  0  0  0  0  0  0
    0.2775   -0.0253    0.0000 C   0  0  0  0  0  0  0  0  0  0  0  0
    0.9920   -1.2628    0.0000 C   0  0  0  0  0  0  0  0  0  0  0  0
    1.7065   -0.8503    0.0000 C   0  0  0  0  0  0  0  0  0  0  0  0
    2.4209   -1.2628    0.0000 C   0  0  0  0  0  0  0  0  0  0  0  0
    3.1354   -0.8503    0.0000 C   0  0  0  0  0  0  0  0  0  0  0  0
    3.8499   -1.2628    0.0000 C   0  0  0  0  0  0  0  0  0  0  0  0
  1  7  1  0  0  0  0
  1  9  1  0  0  0  0
  2 12  1  0  0  0  0
  3  4  1  6  0  0  0
  3  6  1  0  0  0  0
  3  7  1  0  0  0  0
  4  5  1  0  0  0  0
  4  8  1  6  0  0  0
  5  6  1  0  0  0  0
  5 13  1  0  0  0  0
  5 14  1  0  0  0  0
  6 10  1  0  0  0  0
  7 11  1  0  0  0  0
  7 15  1  1  0  0  0
  8  9  2  0  0  0  0
  8 12  1  0  0  0  0
  9 16  1  0  0  0  0
 10 11  1  0  0  0  0
 12 18  2  0  0  0  0
 16 17  2  0  0  0  0
 17 18  1  0  0  0  0
 17 19  1  0  0  0  0
 19 20  1  0  0  0  0
 20 21  1  0  0  0  0
 21 22  1  0  0  0  0
 22 23  1  0  0  0  0
M  END
> <PUBCHEM_COMPOUND_ID_TYPE>
0

> <PUBCHEM_TOTAL_CHARGE>
0

> <PUBCHEM_SUBSTANCE_ID>
310946227

> <PUBCHEM_SUBSTANCE_VERSION>
1

> <PUBCHEM_EXT_DATASOURCE_NAME>
4488

> <PUBCHEM_EXT_DATASOURCE_REGID>
SCHEMBL16124343

> <PUBCHEM_SUBSTANCE_COMMENT>
InChI=1S/C21H30O2/c1-5-6-7-8-13-11-15(22)17-16(12-13)23-21(4)10-9-14-18(21)19(17)20(14,2)3/h11-12,14,18-19,22H,5-10H2,1-4H3/t14?,18-,19-,21-/m1/s1
InChIKey=IGHTZQUIFGUJTG-BKFVKPSZSA-N

> <PUBCHEM_SUBSTANCE_SYNONYM>
SCHEMBL16124343

> <PUBCHEM_XREF_EXT_ID>
SCHEMBL16124343

> <PUBCHEM_EXT_DATASOURCE_URL>
https://www.surechembl.org/

> <PUBCHEM_EXT_SUBSTANCE_URL>
https://www.surechembl.org/chemical/SCHEMBL16124343

> <PUBCHEM_CID_ASSOCIATIONS>
117612175  1

> <PUBCHEM_COORDINATE_TYPE>
1
3

> <PUBCHEM_BONDANNOTATIONS>
3  4  6
4  8  6
7  15  5

$$$$
