310947182
  -OEChem-07211613022D

 41 43  0     0  0  0  0  0  0999 V2000
   -1.7862    6.6921    0.0000 S   0  0  0  0  0  0  0  0  0  0  0  0
    0.3572    2.9796    0.0000 O   0  0  0  0  0  0  0  0  0  0  0  0
   -1.7862    9.9921    0.0000 O   0  0  0  0  0  0  0  0  0  0  0  0
    3.2151    1.3296    0.0000 O   0  0  0  0  0  0  0  0  0  0  0  0
    1.7862    2.9796    0.0000 O   0  0  0  0  0  0  0  0  0  0  0  0
    1.7862    5.4546    0.0000 O   0  0  0  0  0  0  0  0  0  0  0  0
    2.5007    2.5671    0.0000 O   0  0  0  0  0  0  0  0  0  0  0  0
   -3.2151    9.9921    0.0000 O   0  0  0  0  0  0  0  0  0  0  0  0
    0.3572    3.8046    0.0000 N   0  0  0  0  0  0  0  0  0  0  0  0
    1.0717    1.7421    0.0000 C   0  0  0  0  0  0  0  0  0  0  0  0
    1.7862    1.3296    0.0000 C   0  0  0  0  0  0  0  0  0  0  0  0
    1.0717    2.5671    0.0000 C   0  0  0  0  0  0  0  0  0  0  0  0
    0.3572    5.4546    0.0000 C   0  0  0  0  0  0  0  0  0  0  0  0
    1.0717    5.0421    0.0000 C   0  0  0  0  0  0  0  0  0  0  0  0
    2.5007    1.7421    0.0000 C   0  0  0  0  0  0  0  0  0  0  0  0
   -1.0717    6.2796    0.0000 C   0  0  0  0  0  0  0  0  0  0  0  0
    1.0717    4.2171    0.0000 C   0  0  0  0  0  0  0  0  0  0  0  0
    0.3572    1.3296    0.0000 C   0  0  0  0  0  0  0  0  0  0  0  0
   -1.7862    7.5171    0.0000 C   0  0  0  0  0  0  0  0  0  0  0  0
    1.7862    0.5046    0.0000 C   0  0  0  0  0  0  0  0  0  0  0  0
   -2.5007   11.2296    0.0000 C   0  0  0  0  0  0  0  0  0  0  0  0
   -1.7862    9.1671    0.0000 C   0  0  0  0  0  0  0  0  0  0  0  0
   -2.5007   10.4046    0.0000 C   0  0  0  0  0  0  0  0  0  0  0  0
    0.3572    6.2796    0.0000 C   0  0  0  0  0  0  0  0  0  0  0  0
   -0.3572    5.0421    0.0000 C   0  0  0  0  0  0  0  0  0  0  0  0
   -0.3572    6.6921    0.0000 C   0  0  0  0  0  0  0  0  0  0  0  0
   -1.0717    5.4546    0.0000 C   0  0  0  0  0  0  0  0  0  0  0  0
    0.3572    0.5046    0.0000 C   0  0  0  0  0  0  0  0  0  0  0  0
   -1.0717    7.9296    0.0000 C   0  0  0  0  0  0  0  0  0  0  0  0
   -2.5007    7.9296    0.0000 C   0  0  0  0  0  0  0  0  0  0  0  0
    1.0717    0.0921    0.0000 C   0  0  0  0  0  0  0  0  0  0  0  0
   -1.0717    8.7546    0.0000 C   0  0  0  0  0  0  0  0  0  0  0  0
   -2.5007    8.7546    0.0000 C   0  0  0  0  0  0  0  0  0  0  0  0
   -3.2151   11.6421    0.0000 C   0  0  0  0  0  0  0  0  0  0  0  0
    1.7862    3.8046    0.0000 C   0  0  0  0  0  0  0  0  0  0  0  0
   -1.7862   11.6421    0.0000 C   0  0  0  0  0  0  0  0  0  0  0  0
   -2.5007   12.0546    0.0000 C   0  0  0  0  0  0  0  0  0  0  0  0
    3.2151    0.5046    0.0000 C   0  0  0  0  0  0  0  0  0  0  0  0
   -3.9296   11.2296    0.0000 C   0  0  0  0  0  0  0  0  0  0  0  0
    3.9296    0.0921    0.0000 C   0  0  0  0  0  0  0  0  0  0  0  0
    3.9296   -0.7329    0.0000 C   0  0  0  0  0  0  0  0  0  0  0  0
  1 16  1  0  0  0  0
  1 19  1  0  0  0  0
  2  9  1  0  0  0  0
  2 12  1  0  0  0  0
  3 22  1  0  0  0  0
  3 23  1  0  0  0  0
  4 15  1  0  0  0  0
  4 38  1  0  0  0  0
  5 12  2  0  0  0  0
  6 14  2  0  0  0  0
  7 15  2  0  0  0  0
  8 23  2  0  0  0  0
  9 17  2  0  0  0  0
 10 11  1  0  0  0  0
 10 12  1  0  0  0  0
 10 18  2  0  0  0  0
 11 15  1  0  0  0  0
 11 20  2  0  0  0  0
 13 14  1  0  0  0  0
 13 24  2  0  0  0  0
 13 25  1  0  0  0  0
 14 17  1  0  0  0  0
 16 26  2  0  0  0  0
 16 27  1  0  0  0  0
 17 35  1  0  0  0  0
 18 28  1  0  0  0  0
 19 29  2  0  0  0  0
 19 30  1  0  0  0  0
 20 31  1  0  0  0  0
 21 23  1  0  0  0  0
 21 34  1  0  0  0  0
 21 36  1  0  0  0  0
 21 37  1  0  0  0  0
 22 32  2  0  0  0  0
 22 33  1  0  0  0  0
 24 26  1  0  0  0  0
 25 27  2  0  0  0  0
 28 31  2  0  0  0  0
 29 32  1  0  0  0  0
 30 33  2  0  0  0  0
 34 39  1  0  0  0  0
 38 40  1  0  0  0  0
 40 41  1  0  0  0  0
M  END
> <PUBCHEM_COMPOUND_ID_TYPE>
0

> <PUBCHEM_TOTAL_CHARGE>
0

> <PUBCHEM_SUBSTANCE_ID>
310947182

> <PUBCHEM_SUBSTANCE_VERSION>
1

> <PUBCHEM_EXT_DATASOURCE_NAME>
4488

> <PUBCHEM_EXT_DATASOURCE_REGID>
SCHEMBL16125336

> <PUBCHEM_SUBSTANCE_COMMENT>
InChI=1S/C32H33NO7S/c1-6-20-38-29(35)26-10-8-9-11-27(26)30(36)40-33-21(3)28(34)22-12-16-24(17-13-22)41-25-18-14-23(15-19-25)39-31(37)32(4,5)7-2/h8-19H,6-7,20H2,1-5H3/b33-21+
InChIKey=HVMNXRADJXTJGE-QNKGDIEWSA-N

> <PUBCHEM_SUBSTANCE_SYNONYM>
SCHEMBL16125336

> <PUBCHEM_XREF_EXT_ID>
SCHEMBL16125336

> <PUBCHEM_EXT_DATASOURCE_URL>
https://www.surechembl.org/

> <PUBCHEM_EXT_SUBSTANCE_URL>
https://www.surechembl.org/chemical/SCHEMBL16125336

> <PUBCHEM_CID_ASSOCIATIONS>
117613007  1

> <PUBCHEM_COORDINATE_TYPE>
1
3

$$$$
