310938935
  -OEChem-07211613022D

 28 31  0     1  0  0  0  0  0999 V2000
    2.3668    2.5898    0.0000 O   0  0  0  0  0  0  0  0  0  0  0  0
    1.3504    0.2253    0.0000 N   0  0  0  0  0  0  0  0  0  0  0  0
    0.2234    2.1773    0.0000 N   0  0  0  0  0  0  0  0  0  0  0  0
    0.6359    0.6378    0.0000 C   0  0  0  0  0  0  0  0  0  0  0  0
    0.2234    1.3523    0.0000 C   0  0  0  0  0  0  0  0  0  0  0  0
   -0.1891    0.6378    0.0000 C   0  0  0  0  0  0  0  0  0  0  0  0
    1.3504   -0.5997    0.0000 C   0  0  0  0  0  0  0  0  0  0  0  0
    2.0648    0.6378    0.0000 C   0  0  0  0  0  0  0  0  0  0  0  0
   -0.9036    0.2253    0.0000 C   0  0  0  0  0  0  0  0  0  0  0  0
    0.9379    2.5898    0.0000 C   0  0  3  0  0  0  0  0  0  0  0  0
    0.6359   -1.0122    0.0000 C   0  0  0  0  0  0  0  0  0  0  0  0
    2.0648   -1.0122    0.0000 C   0  0  0  0  0  0  0  0  0  0  0  0
    2.7793    0.2253    0.0000 C   0  0  0  0  0  0  0  0  0  0  0  0
    2.0648    1.4628    0.0000 C   0  0  0  0  0  0  0  0  0  0  0  0
    0.9379    3.4148    0.0000 C   0  0  0  0  0  0  0  0  0  0  0  0
    1.6523    2.1773    0.0000 C   0  0  0  0  0  0  0  0  0  0  0  0
    0.6359   -1.8372    0.0000 C   0  0  0  0  0  0  0  0  0  0  0  0
    2.0648   -1.8372    0.0000 C   0  0  0  0  0  0  0  0  0  0  0  0
    3.4938    0.6378    0.0000 C   0  0  0  0  0  0  0  0  0  0  0  0
    2.7793    1.8753    0.0000 C   0  0  0  0  0  0  0  0  0  0  0  0
    1.6523    3.8273    0.0000 C   0  0  0  0  0  0  0  0  0  0  0  0
    1.3504   -2.2497    0.0000 C   0  0  0  0  0  0  0  0  0  0  0  0
    3.4938    1.4628    0.0000 C   0  0  0  0  0  0  0  0  0  0  0  0
    2.3668    3.4148    0.0000 C   0  0  0  0  0  0  0  0  0  0  0  0
    1.6523    4.6523    0.0000 C   0  0  0  0  0  0  0  0  0  0  0  0
    3.0813    3.8273    0.0000 C   0  0  0  0  0  0  0  0  0  0  0  0
    2.3668    5.0648    0.0000 C   0  0  0  0  0  0  0  0  0  0  0  0
    3.0813    4.6523    0.0000 C   0  0  0  0  0  0  0  0  0  0  0  0
  1 16  1  0  0  0  0
  2  4  1  0  0  0  0
  2  7  1  0  0  0  0
  2  8  1  0  0  0  0
  3  5  2  0  0  0  0
 10  3  1  1  0  0  0
  4  5  1  0  0  0  0
  4  6  2  0  0  0  0
  5  6  1  0  0  0  0
  6  9  1  0  0  0  0
  7 11  1  0  0  0  0
  7 12  1  0  0  0  0
  8 13  1  0  0  0  0
  8 14  1  0  0  0  0
 10 15  1  0  0  0  0
 10 16  1  0  0  0  0
 11 17  1  0  0  0  0
 12 18  1  0  0  0  0
 13 19  1  0  0  0  0
 14 20  1  0  0  0  0
 15 21  1  0  0  0  0
 17 22  1  0  0  0  0
 18 22  1  0  0  0  0
 19 23  1  0  0  0  0
 20 23  1  0  0  0  0
 21 24  2  0  0  0  0
 21 25  1  0  0  0  0
 24 26  1  0  0  0  0
 25 27  2  0  0  0  0
 26 28  2  0  0  0  0
 27 28  1  0  0  0  0
M  END
> <PUBCHEM_COMPOUND_ID_TYPE>
0

> <PUBCHEM_TOTAL_CHARGE>
0

> <PUBCHEM_SUBSTANCE_ID>
310938935

> <PUBCHEM_SUBSTANCE_VERSION>
1

> <PUBCHEM_EXT_DATASOURCE_NAME>
4488

> <PUBCHEM_EXT_DATASOURCE_REGID>
SCHEMBL16116854

> <PUBCHEM_SUBSTANCE_COMMENT>
InChI=1S/C25H36N2O/c1-19-24(26-21(18-28)17-20-11-5-2-6-12-20)25(19)27(22-13-7-3-8-14-22)23-15-9-4-10-16-23/h2,5-6,11-12,21-23,28H,3-4,7-10,13-18H2,1H3/b26-24-/t21-/m0/s1
InChIKey=PUAQYHWREQLMEW-TYGLDRHGSA-N

> <PUBCHEM_SUBSTANCE_SYNONYM>
SCHEMBL16116854

> <PUBCHEM_XREF_EXT_ID>
SCHEMBL16116854

> <PUBCHEM_EXT_DATASOURCE_URL>
https://www.surechembl.org/

> <PUBCHEM_EXT_SUBSTANCE_URL>
https://www.surechembl.org/chemical/SCHEMBL16116854

> <PUBCHEM_CID_ASSOCIATIONS>
117606331  1

> <PUBCHEM_COORDINATE_TYPE>
1
3

> <PUBCHEM_BONDANNOTATIONS>
10  3  5

$$$$
