310934434
  -OEChem-07211613022D

 29 32  0     0  0  0  0  0  0999 V2000
    3.3512   -0.8186    0.0000 S   0  0  0  0  0  0  0  0  0  0  0  0
    5.8071   -0.8186    0.0000 O   0  0  0  0  0  0  0  0  0  0  0  0
    3.3512   -1.7140    0.0000 O   0  0  0  0  0  0  0  0  0  0  0  0
    3.3512    0.0000    0.0000 O   0  0  0  0  0  0  0  0  0  0  0  0
    4.1443   -0.8186    0.0000 N   0  0  0  0  0  0  0  0  0  0  0  0
    5.8071   -2.2768    0.0000 N   0  0  0  0  0  0  0  0  0  0  0  0
    4.1443   -2.2512    0.0000 C   0  0  0  0  0  0  0  0  0  0  0  0
    4.5536   -1.5349    0.0000 C   0  0  0  0  0  0  0  0  0  0  0  0
    4.5536   -2.9931    0.0000 C   0  0  0  0  0  0  0  0  0  0  0  0
    5.3978   -2.9931    0.0000 C   0  0  0  0  0  0  0  0  0  0  0  0
    5.3978   -1.5349    0.0000 C   0  0  0  0  0  0  0  0  0  0  0  0
    3.3257   -2.2512    0.0000 C   0  0  0  0  0  0  0  0  0  0  0  0
    4.1443   -3.6838    0.0000 C   0  0  0  0  0  0  0  0  0  0  0  0
    2.5070   -0.8186    0.0000 C   0  0  0  0  0  0  0  0  0  0  0  0
    5.8071   -3.6838    0.0000 C   0  0  0  0  0  0  0  0  0  0  0  0
    4.5536   -4.4001    0.0000 C   0  0  0  0  0  0  0  0  0  0  0  0
    2.8908   -2.9675    0.0000 C   0  0  0  0  0  0  0  0  0  0  0  0
    2.8908   -1.5349    0.0000 C   0  0  0  0  0  0  0  0  0  0  0  0
    5.3722   -4.4001    0.0000 C   0  0  0  0  0  0  0  0  0  0  0  0
    2.0722   -1.5093    0.0000 C   0  0  0  0  0  0  0  0  0  0  0  0
    2.0722   -0.1024    0.0000 C   0  0  0  0  0  0  0  0  0  0  0  0
    2.0722   -2.9675    0.0000 C   0  0  0  0  0  0  0  0  0  0  0  0
    2.2512   -1.6884    0.0000 C   0  0  0  0  0  0  0  0  0  0  0  0
    1.2535   -1.5093    0.0000 C   0  0  0  0  0  0  0  0  0  0  0  0
    1.2535   -0.1024    0.0000 C   0  0  0  0  0  0  0  0  0  0  0  0
    0.8186   -0.8186    0.0000 C   0  0  0  0  0  0  0  0  0  0  0  0
    1.6628   -2.2512    0.0000 C   0  0  0  0  0  0  0  0  0  0  0  0
    4.1443   -5.1164    0.0000 C   0  0  0  0  0  0  0  0  0  0  0  0
    0.0000   -0.8186    0.0000 C   0  0  0  0  0  0  0  0  0  0  0  0
  1  3  2  0  0  0  0
  1  4  2  0  0  0  0
  1  5  1  0  0  0  0
  1 14  1  0  0  0  0
  2 11  2  0  0  0  0
  5  8  1  0  0  0  0
  6 10  1  0  0  0  0
  6 11  1  0  0  0  0
  7  8  2  0  0  0  0
  7  9  1  0  0  0  0
  7 12  1  0  0  0  0
  8 11  1  0  0  0  0
  9 10  2  0  0  0  0
  9 13  1  0  0  0  0
 10 15  1  0  0  0  0
 12 17  2  0  0  0  0
 12 18  1  0  0  0  0
 13 16  2  0  0  0  0
 14 20  2  0  0  0  0
 14 21  1  0  0  0  0
 15 19  2  0  0  0  0
 16 19  1  0  0  0  0
 16 28  1  0  0  0  0
 17 22  1  0  0  0  0
 18 23  2  0  0  0  0
 20 24  1  0  0  0  0
 21 25  2  0  0  0  0
 22 27  2  0  0  0  0
 23 27  1  0  0  0  0
 24 26  2  0  0  0  0
 25 26  1  0  0  0  0
 26 29  1  0  0  0  0
M  END
> <PUBCHEM_COMPOUND_ID_TYPE>
0

> <PUBCHEM_TOTAL_CHARGE>
0

> <PUBCHEM_SUBSTANCE_ID>
310934434

> <PUBCHEM_SUBSTANCE_VERSION>
1

> <PUBCHEM_EXT_DATASOURCE_NAME>
4488

> <PUBCHEM_EXT_DATASOURCE_REGID>
SCHEMBL16111911

> <PUBCHEM_SUBSTANCE_COMMENT>
InChI=1S/C23H20N2O3S/c1-15-8-11-18(12-9-15)29(27,28)25-22-21(17-6-4-3-5-7-17)19-14-16(2)10-13-20(19)24-23(22)26/h3-14,25H,1-2H3,(H,24,26)
InChIKey=KBLCTPBNDWAFQQ-UHFFFAOYSA-N

> <PUBCHEM_SUBSTANCE_SYNONYM>
SCHEMBL16111911

> <PUBCHEM_XREF_EXT_ID>
SCHEMBL16111911

> <PUBCHEM_EXT_DATASOURCE_URL>
https://www.surechembl.org/

> <PUBCHEM_EXT_SUBSTANCE_URL>
https://www.surechembl.org/chemical/SCHEMBL16111911

> <PUBCHEM_CID_ASSOCIATIONS>
1162866  1

> <PUBCHEM_COORDINATE_TYPE>
1
3

$$$$
