310930661
  -OEChem-07211613022D

 35 40  0     0  0  0  0  0  0999 V2000
    6.4273   -4.3286    0.0000 S   0  0  0  0  0  0  0  0  0  0  0  0
    6.3399   -2.1861    0.0000 S   0  0  0  0  0  0  0  0  0  0  0  0
    5.6403   -3.8914    0.0000 O   0  0  0  0  0  0  0  0  0  0  0  0
    7.0831   -4.7658    0.0000 O   0  0  0  0  0  0  0  0  0  0  0  0
    2.1861   -8.5697    0.0000 O   0  0  0  0  0  0  0  0  0  0  0  0
    3.9351   -8.6572    0.0000 O   0  0  0  0  0  0  0  0  0  0  0  0
    3.9351   -7.2143    0.0000 N   0  0  0  0  0  0  0  0  0  0  0  0
    0.0000   -8.3511    0.0000 N   0  0  0  0  0  0  0  0  0  0  0  0
    6.2962   -3.0169    0.0000 C   0  0  0  0  0  0  0  0  0  0  0  0
    6.8208   -3.6290    0.0000 C   0  0  0  0  0  0  0  0  0  0  0  0
    8.3511   -1.8364    0.0000 C   0  0  0  0  0  0  0  0  0  0  0  0
    7.6516   -1.3991    0.0000 C   0  0  0  0  0  0  0  0  0  0  0  0
    6.8646   -1.5303    0.0000 C   0  0  0  0  0  0  0  0  0  0  0  0
    5.9900   -5.0719    0.0000 C   0  0  0  0  0  0  0  0  0  0  0  0
    7.6516   -3.8039    0.0000 C   0  0  0  0  0  0  0  0  0  0  0  0
    8.6572   -2.6234    0.0000 C   0  0  0  0  0  0  0  0  0  0  0  0
    7.9576   -0.6121    0.0000 C   0  0  0  0  0  0  0  0  0  0  0  0
    8.3511   -3.3667    0.0000 C   0  0  0  0  0  0  0  0  0  0  0  0
    6.3399   -0.8744    0.0000 C   0  0  0  0  0  0  0  0  0  0  0  0
    5.1593   -5.0282    0.0000 C   0  0  0  0  0  0  0  0  0  0  0  0
    6.4273   -5.7715    0.0000 C   0  0  0  0  0  0  0  0  0  0  0  0
    7.4329    0.0000    0.0000 C   0  0  0  0  0  0  0  0  0  0  0  0
    6.6459   -0.1311    0.0000 C   0  0  0  0  0  0  0  0  0  0  0  0
    5.1593   -6.4710    0.0000 C   0  0  0  0  0  0  0  0  0  0  0  0
    2.6671   -7.9139    0.0000 C   0  0  0  0  0  0  0  0  0  0  0  0
    1.3991   -8.3511    0.0000 C   0  0  0  0  0  0  0  0  0  0  0  0
    1.3991   -7.4767    0.0000 C   0  0  0  0  0  0  0  0  0  0  0  0
    4.7658   -5.7715    0.0000 C   0  0  0  0  0  0  0  0  0  0  0  0
    5.9900   -6.4710    0.0000 C   0  0  0  0  0  0  0  0  0  0  0  0
    2.1861   -7.2580    0.0000 C   0  0  0  0  0  0  0  0  0  0  0  0
    3.4978   -7.9139    0.0000 C   0  0  0  0  0  0  0  0  0  0  0  0
    4.7658   -7.2143    0.0000 C   0  0  0  0  0  0  0  0  0  0  0  0
    0.6558   -8.7446    0.0000 C   0  0  0  0  0  0  0  0  0  0  0  0
    0.6558   -7.0831    0.0000 C   0  0  0  0  0  0  0  0  0  0  0  0
    0.0000   -7.4767    0.0000 C   0  0  0  0  0  0  0  0  0  0  0  0
  1  3  2  0  0  0  0
  1  4  2  0  0  0  0
  1 10  1  0  0  0  0
  1 14  1  0  0  0  0
  2  9  1  0  0  0  0
  2 13  1  0  0  0  0
  5 25  1  0  0  0  0
  5 26  1  0  0  0  0
  6 31  2  0  0  0  0
  7 31  1  0  0  0  0
  7 32  1  0  0  0  0
  8 33  1  0  0  0  0
  8 35  2  0  0  0  0
  9 10  2  0  0  0  0
  9 11  1  0  0  0  0
 10 15  1  0  0  0  0
 11 12  1  0  0  0  0
 11 16  2  0  0  0  0
 12 13  1  0  0  0  0
 12 17  2  0  0  0  0
 13 19  2  0  0  0  0
 14 20  2  0  0  0  0
 14 21  1  0  0  0  0
 15 18  2  0  0  0  0
 16 18  1  0  0  0  0
 17 22  1  0  0  0  0
 19 23  1  0  0  0  0
 20 28  1  0  0  0  0
 21 29  2  0  0  0  0
 22 23  2  0  0  0  0
 24 28  2  0  0  0  0
 24 29  1  0  0  0  0
 24 32  1  0  0  0  0
 25 30  2  0  0  0  0
 25 31  1  0  0  0  0
 26 27  1  0  0  0  0
 26 33  2  0  0  0  0
 27 30  1  0  0  0  0
 27 34  2  0  0  0  0
 34 35  1  0  0  0  0
M  END
> <PUBCHEM_COMPOUND_ID_TYPE>
0

> <PUBCHEM_TOTAL_CHARGE>
0

> <PUBCHEM_SUBSTANCE_ID>
310930661

> <PUBCHEM_SUBSTANCE_VERSION>
1

> <PUBCHEM_EXT_DATASOURCE_NAME>
4488

> <PUBCHEM_EXT_DATASOURCE_REGID>
SCHEMBL16107958

> <PUBCHEM_SUBSTANCE_COMMENT>
InChI=1S/C27H18N2O4S2/c30-27(22-14-18-12-13-28-16-23(18)33-22)29-15-17-8-10-19(11-9-17)35(31,32)25-7-3-5-21-20-4-1-2-6-24(20)34-26(21)25/h1-14,16H,15H2,(H,29,30)
InChIKey=RINOBESLGPVRBQ-UHFFFAOYSA-N

> <PUBCHEM_SUBSTANCE_SYNONYM>
SCHEMBL16107958

> <PUBCHEM_XREF_EXT_ID>
SCHEMBL16107958

> <PUBCHEM_EXT_DATASOURCE_URL>
https://www.surechembl.org/

> <PUBCHEM_EXT_SUBSTANCE_URL>
https://www.surechembl.org/chemical/SCHEMBL16107958

> <PUBCHEM_CID_ASSOCIATIONS>
87074860  1

> <PUBCHEM_COORDINATE_TYPE>
1
3

$$$$
