310939469
  -OEChem-07211613022D

 27 28  0     0  0  0  0  0  0999 V2000
   -0.1891    9.9578    0.0000 Br  0  0  0  0  0  0  0  0  0  0  0  0
   -0.1891   13.2578    0.0000 O   0  0  0  0  0  0  0  0  0  0  0  0
   -3.0470   12.4328    0.0000 O   0  0  0  0  0  0  0  0  0  0  0  0
    1.2399   15.7328    0.0000 O   0  0  0  0  0  0  0  0  0  0  0  0
    2.6688   14.9078    0.0000 O   0  0  0  0  0  0  0  0  0  0  0  0
    1.9543   14.4953    0.0000 N   0  0  0  0  0  0  0  0  0  0  0  0
   -0.9036   13.6703    0.0000 C   0  0  0  0  0  0  0  0  0  0  0  0
   -1.6180   13.2578    0.0000 C   0  0  0  0  0  0  0  0  0  0  0  0
   -0.9036   14.4953    0.0000 C   0  0  0  0  0  0  0  0  0  0  0  0
   -2.3325   13.6703    0.0000 C   0  0  0  0  0  0  0  0  0  0  0  0
   -1.6180   14.9078    0.0000 C   0  0  0  0  0  0  0  0  0  0  0  0
   -2.3325   14.4953    0.0000 C   0  0  0  0  0  0  0  0  0  0  0  0
   -0.1891   12.4328    0.0000 C   0  0  0  0  0  0  0  0  0  0  0  0
   -1.6180   12.4328    0.0000 C   0  0  0  0  0  0  0  0  0  0  0  0
   -0.1891   14.9078    0.0000 C   0  0  0  0  0  0  0  0  0  0  0  0
   -3.0470   13.2578    0.0000 C   0  0  0  0  0  0  0  0  0  0  0  0
   -0.9036   12.0203    0.0000 C   0  0  0  0  0  0  0  0  0  0  0  0
    0.5254   12.0203    0.0000 C   0  0  0  0  0  0  0  0  0  0  0  0
   -2.3325   12.0203    0.0000 C   0  0  0  0  0  0  0  0  0  0  0  0
    0.5254   14.4953    0.0000 C   0  0  0  0  0  0  0  0  0  0  0  0
   -0.1891   10.7828    0.0000 C   0  0  0  0  0  0  0  0  0  0  0  0
   -0.9036   11.1953    0.0000 C   0  0  0  0  0  0  0  0  0  0  0  0
    0.5254   11.1953    0.0000 C   0  0  0  0  0  0  0  0  0  0  0  0
    1.2399   14.9078    0.0000 C   0  0  0  0  0  0  0  0  0  0  0  0
   -2.3325   11.1953    0.0000 C   0  0  0  0  0  0  0  0  0  0  0  0
   -3.0470   10.7828    0.0000 C   0  0  0  0  0  0  0  0  0  0  0  0
   -1.6180   10.7828    0.0000 C   0  0  0  0  0  0  0  0  0  0  0  0
  1 21  1  0  0  0  0
  2  7  1  0  0  0  0
  2 13  1  0  0  0  0
  3 16  1  0  0  0  0
  4 24  2  0  0  0  0
  5  6  1  0  0  0  0
  6 24  1  0  0  0  0
  7  8  2  0  0  0  0
  7  9  1  0  0  0  0
  8 10  1  0  0  0  0
  8 14  1  0  0  0  0
  9 11  2  0  0  0  0
  9 15  1  0  0  0  0
 10 12  2  0  0  0  0
 10 16  1  0  0  0  0
 11 12  1  0  0  0  0
 13 17  2  0  0  0  0
 13 18  1  0  0  0  0
 14 19  1  0  0  0  0
 15 20  2  0  0  0  0
 17 22  1  0  0  0  0
 18 23  2  0  0  0  0
 19 25  2  0  0  0  0
 20 24  1  0  0  0  0
 21 22  2  0  0  0  0
 21 23  1  0  0  0  0
 25 26  1  0  0  0  0
 25 27  1  0  0  0  0
M  END
> <PUBCHEM_COMPOUND_ID_TYPE>
0

> <PUBCHEM_TOTAL_CHARGE>
0

> <PUBCHEM_SUBSTANCE_ID>
310939469

> <PUBCHEM_SUBSTANCE_VERSION>
1

> <PUBCHEM_EXT_DATASOURCE_NAME>
4488

> <PUBCHEM_EXT_DATASOURCE_REGID>
SCHEMBL16117396

> <PUBCHEM_SUBSTANCE_COMMENT>
InChI=1S/C21H22BrNO4/c1-14(2)3-11-19-16(13-24)5-4-15(6-12-20(25)23-26)21(19)27-18-9-7-17(22)8-10-18/h3-10,12,24,26H,11,13H2,1-2H3,(H,23,25)/b12-6+
InChIKey=SDNHRIULDNAMHD-WUXMJOGZSA-N

> <PUBCHEM_SUBSTANCE_SYNONYM>
SCHEMBL16117396

> <PUBCHEM_XREF_EXT_ID>
SCHEMBL16117396

> <PUBCHEM_EXT_DATASOURCE_URL>
https://www.surechembl.org/

> <PUBCHEM_EXT_SUBSTANCE_URL>
https://www.surechembl.org/chemical/SCHEMBL16117396

> <PUBCHEM_CID_ASSOCIATIONS>
117606783  1

> <PUBCHEM_COORDINATE_TYPE>
1
3

$$$$
