310942094
  -OEChem-07211613022D

 30 31  0     1  0  0  0  0  0999 V2000
    2.1560    0.8249    0.0000 Cl  0  0  0  0  0  0  0  0  0  0  0  0
    0.7187   -1.6622    0.0000 F   0  0  0  0  0  0  0  0  0  0  0  0
    2.1434   -0.8374    0.0000 O   0  0  0  0  0  0  0  0  0  0  0  0
   -0.0187    2.0872    0.0000 O   0  0  0  0  0  0  0  0  0  0  0  0
   -1.4435   -0.4125    0.0000 N   0  0  0  0  0  0  0  0  0  0  0  0
   -1.4559    2.0872    0.0000 N   0  0  0  0  0  0  0  0  0  0  0  0
   -3.6057    1.6747    0.0000 N   0  0  0  0  0  0  0  0  0  0  0  0
   -0.0062   -0.4125    0.0000 C   0  0  0  0  0  0  0  0  0  0  0  0
    0.7187   -0.8123    0.0000 C   0  0  0  0  0  0  0  0  0  0  0  0
    1.4310   -0.4000    0.0000 C   0  0  0  0  0  0  0  0  0  0  0  0
    1.4310    0.4250    0.0000 C   0  0  0  0  0  0  0  0  0  0  0  0
   -0.7311   -0.8249    0.0000 C   0  0  3  0  0  0  0  0  0  0  0  0
    0.0062    0.4125    0.0000 C   0  0  0  0  0  0  0  0  0  0  0  0
    0.7187    0.8249    0.0000 C   0  0  0  0  0  0  0  0  0  0  0  0
    2.8808   -0.4125    0.0000 C   0  0  0  0  0  0  0  0  0  0  0  0
   -0.7311   -1.6747    0.0000 C   0  0  0  0  0  0  0  0  0  0  0  0
   -1.4559    0.4250    0.0000 C   0  0  3  0  0  0  0  0  0  0  0  0
    2.8933    0.4125    0.0000 C   0  0  0  0  0  0  0  0  0  0  0  0
    3.6182   -0.8249    0.0000 C   0  0  0  0  0  0  0  0  0  0  0  0
   -0.7311    0.8249    0.0000 C   0  0  0  0  0  0  0  0  0  0  0  0
    3.6057    0.8249    0.0000 C   0  0  0  0  0  0  0  0  0  0  0  0
    4.3180   -0.4125    0.0000 C   0  0  0  0  0  0  0  0  0  0  0  0
   -1.4310   -2.0872    0.0000 C   0  0  0  0  0  0  0  0  0  0  0  0
   -0.7436    1.6622    0.0000 C   0  0  0  0  0  0  0  0  0  0  0  0
    4.3180    0.4250    0.0000 C   0  0  0  0  0  0  0  0  0  0  0  0
   -2.1560    0.8249    0.0000 C   0  0  0  0  0  0  0  0  0  0  0  0
   -2.1560    1.6747    0.0000 C   0  0  0  0  0  0  0  0  0  0  0  0
   -2.8933    2.0872    0.0000 C   0  0  0  0  0  0  0  0  0  0  0  0
   -3.6182    0.8249    0.0000 C   0  0  0  0  0  0  0  0  0  0  0  0
   -4.3180    0.4125    0.0000 C   0  0  0  0  0  0  0  0  0  0  0  0
  1 11  1  0  0  0  0
  2  9  1  0  0  0  0
  3 10  1  0  0  0  0
  3 15  1  0  0  0  0
  4 24  2  0  0  0  0
 12  5  1  1  0  0  0
  5 17  1  0  0  0  0
  6 24  1  0  0  0  0
  6 27  1  0  0  0  0
  7 28  1  0  0  0  0
  7 29  1  0  0  0  0
  8  9  1  0  0  0  0
  8 12  1  0  0  0  0
  8 13  2  0  0  0  0
  9 10  2  0  0  0  0
 10 11  1  0  0  0  0
 11 14  2  0  0  0  0
 12 16  1  0  0  0  0
 13 14  1  0  0  0  0
 15 18  2  0  0  0  0
 15 19  1  0  0  0  0
 16 23  1  0  0  0  0
 17 20  1  0  0  0  0
 17 26  1  1  0  0  0
 18 21  1  0  0  0  0
 19 22  2  0  0  0  0
 20 24  1  0  0  0  0
 21 25  2  0  0  0  0
 22 25  1  0  0  0  0
 27 28  1  0  0  0  0
 29 30  1  0  0  0  0
M  END
> <PUBCHEM_COMPOUND_ID_TYPE>
0

> <PUBCHEM_TOTAL_CHARGE>
0

> <PUBCHEM_SUBSTANCE_ID>
310942094

> <PUBCHEM_SUBSTANCE_VERSION>
1

> <PUBCHEM_EXT_DATASOURCE_NAME>
4488

> <PUBCHEM_EXT_DATASOURCE_REGID>
SCHEMBL16120129

> <PUBCHEM_SUBSTANCE_COMMENT>
InChI=1S/C23H31ClFN3O2/c1-4-20(28-16(3)15-21(29)27-14-13-26-5-2)18-11-12-19(24)23(22(18)25)30-17-9-7-6-8-10-17/h6-12,16,20,26,28H,4-5,13-15H2,1-3H3,(H,27,29)/t16-,20+/m0/s1
InChIKey=JQCUIGNVOOVSPM-OXJNMPFZSA-N

> <PUBCHEM_SUBSTANCE_SYNONYM>
SCHEMBL16120129

> <PUBCHEM_XREF_EXT_ID>
SCHEMBL16120129

> <PUBCHEM_EXT_DATASOURCE_URL>
https://www.surechembl.org/

> <PUBCHEM_EXT_SUBSTANCE_URL>
https://www.surechembl.org/chemical/SCHEMBL16120129

> <PUBCHEM_CID_ASSOCIATIONS>
117608756  1

> <PUBCHEM_COORDINATE_TYPE>
1
3

> <PUBCHEM_BONDANNOTATIONS>
17  26  5
12  5  5

$$$$
