310948693
  -OEChem-07211613022D

 30 32  0     1  0  0  0  0  0999 V2000
   -4.2129   -0.4330    0.0000 O   0  0  0  0  0  0  0  0  0  0  0  0
   -2.9758   -1.0653    0.0000 O   0  0  0  0  0  0  0  0  0  0  0  0
   -0.1031    1.9999    0.0000 O   0  0  0  0  0  0  0  0  0  0  0  0
    0.6116   -0.8728    0.0000 N   0  0  3  0  0  0  0  0  0  0  0  0
    0.6116    0.7766    0.0000 N   0  0  0  0  0  0  0  0  0  0  0  0
    1.3264    2.0137    0.0000 N   0  0  0  0  0  0  0  0  0  0  0  0
   -2.2748    0.7904    0.0000 C   0  0  3  0  0  0  0  0  0  0  0  0
   -2.9483    0.3780    0.0000 C   0  0  3  0  0  0  0  0  0  0  0  0
   -1.5326    0.3505    0.0000 C   0  0  0  0  0  0  0  0  0  0  0  0
   -2.9621    1.1615    0.0000 C   0  0  0  0  0  0  0  0  0  0  0  0
   -0.1031    0.3642    0.0000 C   0  0  0  0  0  0  0  0  0  0  0  0
   -0.1168   -0.4467    0.0000 C   0  0  0  0  0  0  0  0  0  0  0  0
   -0.8316    0.7628    0.0000 C   0  0  0  0  0  0  0  0  0  0  0  0
   -3.3744   -0.3642    0.0000 C   0  0  0  0  0  0  0  0  0  0  0  0
   -1.5326   -0.4605    0.0000 C   0  0  0  0  0  0  0  0  0  0  0  0
   -0.8179   -0.8728    0.0000 C   0  0  0  0  0  0  0  0  0  0  0  0
    0.6254    1.5876    0.0000 C   0  0  0  0  0  0  0  0  0  0  0  0
    1.3127   -0.4605    0.0000 C   0  0  0  0  0  0  0  0  0  0  0  0
    0.5979   -1.6976    0.0000 C   0  0  0  0  0  0  0  0  0  0  0  0
    2.0411    1.6013    0.0000 C   0  0  0  0  0  0  0  0  0  0  0  0
    2.0411   -0.8728    0.0000 C   0  0  0  0  0  0  0  0  0  0  0  0
    2.0411    0.7766    0.0000 C   0  0  0  0  0  0  0  0  0  0  0  0
    2.7422    1.9999    0.0000 C   0  0  0  0  0  0  0  0  0  0  0  0
    0.0207   -2.0137    0.0000 C   0  0  0  0  0  0  0  0  0  0  0  0
    3.4706    0.7904    0.0000 C   0  0  0  0  0  0  0  0  0  0  0  0
    2.7559    0.3642    0.0000 C   0  0  0  0  0  0  0  0  0  0  0  0
    3.4706    1.5876    0.0000 C   0  0  0  0  0  0  0  0  0  0  0  0
    2.7697   -0.4467    0.0000 C   0  0  0  0  0  0  0  0  0  0  0  0
    2.0549   -1.7113    0.0000 C   0  0  0  0  0  0  0  0  0  0  0  0
    4.2129    0.3642    0.0000 C   0  0  0  0  0  0  0  0  0  0  0  0
  1 14  2  0  0  0  0
  2 14  1  0  0  0  0
  3 17  2  0  0  0  0
  4 12  1  0  0  0  0
  4 18  1  0  0  0  0
  4 19  1  0  0  0  0
  5 11  1  0  0  0  0
  5 17  1  0  0  0  0
  6 17  1  0  0  0  0
  6 20  1  0  0  0  0
  7  8  1  0  0  0  0
  7  9  1  0  0  0  0
  7 10  1  6  0  0  0
  8 10  1  0  0  0  0
  8 14  1  6  0  0  0
  9 13  1  0  0  0  0
  9 15  2  0  0  0  0
 11 12  1  0  0  0  0
 11 13  2  0  0  0  0
 12 16  2  0  0  0  0
 15 16  1  0  0  0  0
 18 21  1  0  0  0  0
 19 24  1  0  0  0  0
 20 22  2  0  0  0  0
 20 23  1  0  0  0  0
 21 28  1  0  0  0  0
 21 29  1  0  0  0  0
 22 26  1  0  0  0  0
 23 27  2  0  0  0  0
 25 26  2  0  0  0  0
 25 27  1  0  0  0  0
 25 30  1  0  0  0  0
M  END
> <PUBCHEM_COMPOUND_ID_TYPE>
0

> <PUBCHEM_TOTAL_CHARGE>
0

> <PUBCHEM_SUBSTANCE_ID>
310948693

> <PUBCHEM_SUBSTANCE_VERSION>
1

> <PUBCHEM_EXT_DATASOURCE_NAME>
4488

> <PUBCHEM_EXT_DATASOURCE_REGID>
SCHEMBL16126877

> <PUBCHEM_SUBSTANCE_COMMENT>
InChI=1S/C24H31N3O3/c1-5-27(14-15(2)3)22-11-8-17(19-13-20(19)23(28)29)12-21(22)26-24(30)25-18-9-6-16(4)7-10-18/h6-12,15,19-20H,5,13-14H2,1-4H3,(H,28,29)(H2,25,26,30)/t19-,20-/m1/s1
InChIKey=VNKMIMZUTQLIQW-WOJBJXKFSA-N

> <PUBCHEM_SUBSTANCE_SYNONYM>
SCHEMBL16126877

> <PUBCHEM_XREF_EXT_ID>
SCHEMBL16126877

> <PUBCHEM_EXT_DATASOURCE_URL>
https://www.surechembl.org/

> <PUBCHEM_EXT_SUBSTANCE_URL>
https://www.surechembl.org/chemical/SCHEMBL16126877

> <PUBCHEM_CID_ASSOCIATIONS>
117614234  1

> <PUBCHEM_COORDINATE_TYPE>
1
3

> <PUBCHEM_BONDANNOTATIONS>
7  10  6
8  14  6

$$$$
