310944919
  -OEChem-07211613022D

 34 38  0     0  0  0  0  0  0999 V2000
    1.6182    1.5466    0.0000 S   0  0  0  0  0  0  0  0  0  0  0  0
    3.9247   -2.4407    0.0000 O   0  0  0  0  0  0  0  0  0  0  0  0
    4.6400   -1.1891    0.0000 O   0  0  0  0  0  0  0  0  0  0  0  0
   -4.6400   -1.8864    0.0000 N   0  0  0  0  0  0  0  0  0  0  0  0
   -4.2288   -2.6016    0.0000 N   0  0  0  0  0  0  0  0  0  0  0  0
   -0.4202    0.8493    0.0000 C   0  0  0  0  0  0  0  0  0  0  0  0
   -0.4381    0.0268    0.0000 C   0  0  0  0  0  0  0  0  0  0  0  0
    0.2950    1.2606    0.0000 C   0  0  0  0  0  0  0  0  0  0  0  0
   -1.1891    1.2785    0.0000 C   0  0  0  0  0  0  0  0  0  0  0  0
   -1.1354   -0.3844    0.0000 C   0  0  0  0  0  0  0  0  0  0  0  0
    0.3129   -0.3844    0.0000 C   0  0  0  0  0  0  0  0  0  0  0  0
    0.4023    2.0831    0.0000 C   0  0  0  0  0  0  0  0  0  0  0  0
    1.0639    0.9387    0.0000 C   0  0  0  0  0  0  0  0  0  0  0  0
   -1.9400    1.0639    0.0000 C   0  0  0  0  0  0  0  0  0  0  0  0
   -1.3678    2.0473    0.0000 C   0  0  0  0  0  0  0  0  0  0  0  0
   -1.8864    0.0089    0.0000 C   0  0  0  0  0  0  0  0  0  0  0  0
   -1.1533   -1.2069    0.0000 C   0  0  0  0  0  0  0  0  0  0  0  0
    0.3129   -1.2248    0.0000 C   0  0  0  0  0  0  0  0  0  0  0  0
    1.0103    0.0089    0.0000 C   0  0  0  0  0  0  0  0  0  0  0  0
   -2.5837   -1.2069    0.0000 C   0  0  0  0  0  0  0  0  0  0  0  0
   -2.1546    1.8328    0.0000 C   0  0  0  0  0  0  0  0  0  0  0  0
    1.1891    2.2440    0.0000 C   0  0  0  0  0  0  0  0  0  0  0  0
   -2.5658   -0.3844    0.0000 C   0  0  0  0  0  0  0  0  0  0  0  0
   -1.8507   -1.6182    0.0000 C   0  0  0  0  0  0  0  0  0  0  0  0
   -3.3168   -1.6182    0.0000 C   0  0  0  0  0  0  0  0  0  0  0  0
    1.7433   -1.2069    0.0000 C   0  0  0  0  0  0  0  0  0  0  0  0
    1.0281   -1.6182    0.0000 C   0  0  0  0  0  0  0  0  0  0  0  0
    1.7433   -0.4023    0.0000 C   0  0  0  0  0  0  0  0  0  0  0  0
   -0.2414    2.6016    0.0000 C   0  0  0  0  0  0  0  0  0  0  0  0
   -4.0857   -1.2964    0.0000 C   0  0  0  0  0  0  0  0  0  0  0  0
   -3.4062   -2.4586    0.0000 C   0  0  0  0  0  0  0  0  0  0  0  0
    2.4943   -1.6182    0.0000 C   0  0  0  0  0  0  0  0  0  0  0  0
    3.1738   -1.2248    0.0000 C   0  0  0  0  0  0  0  0  0  0  0  0
    3.9247   -1.6003    0.0000 C   0  0  0  0  0  0  0  0  0  0  0  0
  1 13  1  0  0  0  0
  1 22  1  0  0  0  0
  2 34  2  0  0  0  0
  3 34  1  0  0  0  0
  4  5  1  0  0  0  0
  4 30  2  0  0  0  0
  5 31  1  0  0  0  0
  6  7  2  0  0  0  0
  6  8  1  0  0  0  0
  6  9  1  0  0  0  0
  7 10  1  0  0  0  0
  7 11  1  0  0  0  0
  8 12  1  0  0  0  0
  8 13  2  0  0  0  0
  9 14  1  0  0  0  0
  9 15  1  0  0  0  0
 10 16  2  0  0  0  0
 10 17  1  0  0  0  0
 11 18  2  0  0  0  0
 11 19  1  0  0  0  0
 12 22  2  0  0  0  0
 12 29  1  0  0  0  0
 14 21  1  0  0  0  0
 15 21  1  0  0  0  0
 16 23  1  0  0  0  0
 17 24  2  0  0  0  0
 18 27  1  0  0  0  0
 19 28  2  0  0  0  0
 20 23  2  0  0  0  0
 20 24  1  0  0  0  0
 20 25  1  0  0  0  0
 25 30  1  0  0  0  0
 25 31  2  0  0  0  0
 26 27  2  0  0  0  0
 26 28  1  0  0  0  0
 26 32  1  0  0  0  0
 32 33  2  0  0  0  0
 33 34  1  0  0  0  0
M  END
> <PUBCHEM_COMPOUND_ID_TYPE>
0

> <PUBCHEM_TOTAL_CHARGE>
0

> <PUBCHEM_SUBSTANCE_ID>
310944919

> <PUBCHEM_SUBSTANCE_VERSION>
1

> <PUBCHEM_EXT_DATASOURCE_NAME>
4488

> <PUBCHEM_EXT_DATASOURCE_REGID>
SCHEMBL16123004

> <PUBCHEM_SUBSTANCE_COMMENT>
InChI=1S/C29H26N2O2S/c1-19-17-34-18-26(19)29(22-3-2-4-22)28(23-8-5-20(6-9-23)7-14-27(32)33)24-12-10-21(11-13-24)25-15-30-31-16-25/h5-18,22H,2-4H2,1H3,(H,30,31)(H,32,33)/b14-7+,29-28+
InChIKey=HBPYJRMRIZGARJ-ZDZQMEADSA-N

> <PUBCHEM_SUBSTANCE_SYNONYM>
SCHEMBL16123004

> <PUBCHEM_XREF_EXT_ID>
SCHEMBL16123004

> <PUBCHEM_EXT_DATASOURCE_URL>
https://www.surechembl.org/

> <PUBCHEM_EXT_SUBSTANCE_URL>
https://www.surechembl.org/chemical/SCHEMBL16123004

> <PUBCHEM_CID_ASSOCIATIONS>
86271557  1

> <PUBCHEM_COORDINATE_TYPE>
1
3

$$$$
