310931111
  -OEChem-07211613022D

 34 38  0     0  0  0  0  0  0999 V2000
    0.9203   -3.9320    0.0000 O   0  0  0  0  0  0  0  0  0  0  0  0
    0.0000   -7.6130    0.0000 O   0  0  0  0  0  0  0  0  0  0  0  0
    3.4301   -7.9058    0.0000 O   0  0  0  0  0  0  0  0  0  0  0  0
    2.3425   -3.6810    0.0000 N   0  0  0  0  0  0  0  0  0  0  0  0
    2.7608   -4.9359    0.0000 N   0  0  0  0  0  0  0  0  0  0  0  0
    3.8065   -3.9320    0.0000 N   0  0  0  0  0  0  0  0  0  0  0  0
    1.9660   -4.9359    0.0000 C   0  0  0  0  0  0  0  0  0  0  0  0
    1.7150   -4.1830    0.0000 C   0  0  0  0  0  0  0  0  0  0  0  0
    1.4640   -5.6052    0.0000 C   0  0  0  0  0  0  0  0  0  0  0  0
    2.3006   -5.6888    0.0000 C   0  0  0  0  0  0  0  0  0  0  0  0
    3.0117   -4.1830    0.0000 C   0  0  0  0  0  0  0  0  0  0  0  0
    2.3425   -2.8862    0.0000 C   0  0  0  0  0  0  0  0  0  0  0  0
    1.7987   -6.3582    0.0000 C   0  0  0  0  0  0  0  0  0  0  0  0
    3.1373   -5.7307    0.0000 C   0  0  0  0  0  0  0  0  0  0  0  0
    0.6693   -5.5215    0.0000 C   0  0  0  0  0  0  0  0  0  0  0  0
    2.0497   -6.5255    0.0000 C   0  0  0  0  0  0  0  0  0  0  0  0
    1.6314   -2.4679    0.0000 C   0  0  0  0  0  0  0  0  0  0  0  0
    1.6314   -1.6314    0.0000 C   0  0  0  0  0  0  0  0  0  0  0  0
    1.2967   -7.0274    0.0000 C   0  0  0  0  0  0  0  0  0  0  0  0
    3.5137   -6.4836    0.0000 C   0  0  0  0  0  0  0  0  0  0  0  0
    0.1673   -6.1908    0.0000 C   0  0  0  0  0  0  0  0  0  0  0  0
    2.2588   -7.1111    0.0000 C   0  0  0  0  0  0  0  0  0  0  0  0
    0.5020   -6.9438    0.0000 C   0  0  0  0  0  0  0  0  0  0  0  0
    3.0536   -7.1529    0.0000 C   0  0  0  0  0  0  0  0  0  0  0  0
    0.9621   -1.2131    0.0000 C   0  0  0  0  0  0  0  0  0  0  0  0
    0.9203   -2.8445    0.0000 C   0  0  0  0  0  0  0  0  0  0  0  0
    2.3843   -1.2549    0.0000 C   0  0  0  0  0  0  0  0  0  0  0  0
    0.2510   -1.6314    0.0000 C   0  0  0  0  0  0  0  0  0  0  0  0
    0.2092   -2.4261    0.0000 C   0  0  0  0  0  0  0  0  0  0  0  0
    0.9621   -0.4183    0.0000 C   0  0  0  0  0  0  0  0  0  0  0  0
    2.3843   -0.4183    0.0000 C   0  0  0  0  0  0  0  0  0  0  0  0
    1.6732    0.0000    0.0000 C   0  0  0  0  0  0  0  0  0  0  0  0
    0.3347   -8.3660    0.0000 C   0  0  0  0  0  0  0  0  0  0  0  0
    4.2666   -7.9477    0.0000 C   0  0  0  0  0  0  0  0  0  0  0  0
  1  8  2  0  0  0  0
  2 23  1  0  0  0  0
  2 33  1  0  0  0  0
  3 24  1  0  0  0  0
  3 34  1  0  0  0  0
  4  8  1  0  0  0  0
  4 11  1  0  0  0  0
  4 12  1  0  0  0  0
  5  7  1  0  0  0  0
  5 11  1  0  0  0  0
  6 11  2  3  0  0  0
  7  8  1  0  0  0  0
  7  9  1  0  0  0  0
  7 10  1  0  0  0  0
  9 13  2  0  0  0  0
  9 15  1  0  0  0  0
 10 14  2  0  0  0  0
 10 16  1  0  0  0  0
 12 17  1  0  0  0  0
 13 19  1  0  0  0  0
 14 20  1  0  0  0  0
 15 21  2  0  0  0  0
 16 22  2  0  0  0  0
 17 18  1  0  0  0  0
 17 26  2  0  0  0  0
 18 25  2  0  0  0  0
 18 27  1  0  0  0  0
 19 23  2  0  0  0  0
 20 24  2  0  0  0  0
 21 23  1  0  0  0  0
 22 24  1  0  0  0  0
 25 28  1  0  0  0  0
 25 30  1  0  0  0  0
 26 29  1  0  0  0  0
 27 31  2  0  0  0  0
 28 29  2  0  0  0  0
 30 32  2  0  0  0  0
 31 32  1  0  0  0  0
M  END
> <PUBCHEM_COMPOUND_ID_TYPE>
0

> <PUBCHEM_TOTAL_CHARGE>
0

> <PUBCHEM_SUBSTANCE_ID>
310931111

> <PUBCHEM_SUBSTANCE_VERSION>
1

> <PUBCHEM_EXT_DATASOURCE_NAME>
4488

> <PUBCHEM_EXT_DATASOURCE_REGID>
SCHEMBL16108415

> <PUBCHEM_SUBSTANCE_COMMENT>
InChI=1S/C28H25N3O3/c1-33-23-14-10-21(11-15-23)28(22-12-16-24(34-2)17-13-22)26(32)31(27(29)30-28)18-20-8-5-7-19-6-3-4-9-25(19)20/h3-17H,18H2,1-2H3,(H2,29,30)
InChIKey=OYEPOZGZXVLZRA-UHFFFAOYSA-N

> <PUBCHEM_SUBSTANCE_SYNONYM>
SCHEMBL16108415

> <PUBCHEM_XREF_EXT_ID>
SCHEMBL16108415

> <PUBCHEM_EXT_DATASOURCE_URL>
https://www.surechembl.org/

> <PUBCHEM_EXT_SUBSTANCE_URL>
https://www.surechembl.org/chemical/SCHEMBL16108415

> <PUBCHEM_CID_ASSOCIATIONS>
117600002  1

> <PUBCHEM_COORDINATE_TYPE>
1
3

$$$$
