310940186
  -OEChem-07211613022D

 37 40  0     0  0  0  0  0  0999 V2000
   -1.7525   -4.5081    0.0000 S   0  0  0  0  0  0  0  0  0  0  0  0
   -2.0565   -1.6715    0.0000 O   0  0  0  0  0  0  0  0  0  0  0  0
    0.2128    3.6977    0.0000 O   0  0  0  0  0  0  0  0  0  0  0  0
    1.6310    3.5558    0.0000 O   0  0  0  0  0  0  0  0  0  0  0  0
   -0.9219   -4.5081    0.0000 O   0  0  0  0  0  0  0  0  0  0  0  0
   -2.5833   -4.5081    0.0000 O   0  0  0  0  0  0  0  0  0  0  0  0
    0.1115    0.0709    0.0000 N   0  0  0  0  0  0  0  0  0  0  0  0
    0.3748   -0.7193    0.0000 N   0  0  0  0  0  0  0  0  0  0  0  0
   -0.3140   -2.0362    0.0000 N   0  0  0  0  0  0  0  0  0  0  0  0
    0.8003    2.3806    0.0000 N   0  0  0  0  0  0  0  0  0  0  0  0
   -2.3604   -0.2735    0.0000 N   0  0  0  0  0  0  0  0  0  0  0  0
    2.5833   -0.1925    0.0000 N   0  0  0  0  0  0  0  0  0  0  0  0
    0.5977    0.7395    0.0000 C   0  0  0  0  0  0  0  0  0  0  0  0
   -0.7395    0.0709    0.0000 C   0  0  0  0  0  0  0  0  0  0  0  0
   -1.0029   -0.6990    0.0000 C   0  0  0  0  0  0  0  0  0  0  0  0
   -0.2938   -1.1853    0.0000 C   0  0  0  0  0  0  0  0  0  0  0  0
   -1.7931   -0.8408    0.0000 C   0  0  0  0  0  0  0  0  0  0  0  0
   -0.0709    1.2461    0.0000 C   0  0  0  0  0  0  0  0  0  0  0  0
    1.3474    1.0839    0.0000 C   0  0  0  0  0  0  0  0  0  0  0  0
   -1.2663    0.6788    0.0000 C   0  0  0  0  0  0  0  0  0  0  0  0
    0.9421   -0.0102    0.0000 C   0  0  0  0  0  0  0  0  0  0  0  0
    0.0507    2.0565    0.0000 C   0  0  0  0  0  0  0  0  0  0  0  0
    1.4487    1.8944    0.0000 C   0  0  0  0  0  0  0  0  0  0  0  0
   -2.0768    0.5166    0.0000 C   0  0  0  0  0  0  0  0  0  0  0  0
   -1.0232   -2.4415    0.0000 C   0  0  0  0  0  0  0  0  0  0  0  0
    0.8611    3.2114    0.0000 C   0  0  0  0  0  0  0  0  0  0  0  0
    1.7525   -0.1115    0.0000 C   0  0  0  0  0  0  0  0  0  0  0  0
   -1.0434   -3.2722    0.0000 C   0  0  0  0  0  0  0  0  0  0  0  0
   -1.7525   -3.6572    0.0000 C   0  0  0  0  0  0  0  0  0  0  0  0
   -1.7525   -2.0362    0.0000 C   0  0  0  0  0  0  0  0  0  0  0  0
   -2.4415   -3.2722    0.0000 C   0  0  0  0  0  0  0  0  0  0  0  0
   -2.4415   -2.4415    0.0000 C   0  0  0  0  0  0  0  0  0  0  0  0
    0.2938    4.5486    0.0000 C   0  0  0  0  0  0  0  0  0  0  0  0
   -1.7323   -5.3590    0.0000 C   0  0  0  0  0  0  0  0  0  0  0  0
    0.3748    5.3590    0.0000 C   0  0  0  0  0  0  0  0  0  0  0  0
   -0.3951    5.0146    0.0000 C   0  0  0  0  0  0  0  0  0  0  0  0
    1.0839    4.8526    0.0000 C   0  0  0  0  0  0  0  0  0  0  0  0
  1  5  2  0  0  0  0
  1  6  2  0  0  0  0
  1 29  1  0  0  0  0
  1 34  1  0  0  0  0
  2 17  2  0  0  0  0
  3 26  1  0  0  0  0
  3 33  1  0  0  0  0
  4 26  2  0  0  0  0
  7  8  1  0  0  0  0
  7 13  1  0  0  0  0
  7 14  1  0  0  0  0
  8 16  2  0  0  0  0
  9 16  1  0  0  0  0
  9 25  1  0  0  0  0
 10 22  1  0  0  0  0
 10 23  1  0  0  0  0
 10 26  1  0  0  0  0
 11 17  1  0  0  0  0
 11 24  1  0  0  0  0
 12 27  3  0  0  0  0
 13 18  1  0  0  0  0
 13 19  1  0  0  0  0
 13 21  1  0  0  0  0
 14 15  2  0  0  0  0
 14 20  1  0  0  0  0
 15 16  1  0  0  0  0
 15 17  1  0  0  0  0
 18 22  1  0  0  0  0
 19 23  1  0  0  0  0
 20 24  2  0  0  0  0
 21 27  1  0  0  0  0
 25 28  1  0  0  0  0
 25 30  2  0  0  0  0
 28 29  2  0  0  0  0
 29 31  1  0  0  0  0
 30 32  1  0  0  0  0
 31 32  2  0  0  0  0
 33 35  1  0  0  0  0
 33 36  1  0  0  0  0
 33 37  1  0  0  0  0
M  END
> <PUBCHEM_COMPOUND_ID_TYPE>
0

> <PUBCHEM_TOTAL_CHARGE>
0

> <PUBCHEM_SUBSTANCE_ID>
310940186

> <PUBCHEM_SUBSTANCE_VERSION>
1

> <PUBCHEM_EXT_DATASOURCE_NAME>
4488

> <PUBCHEM_EXT_DATASOURCE_REGID>
SCHEMBL16118120

> <PUBCHEM_SUBSTANCE_COMMENT>
InChI=1S/C25H30N6O5S/c1-24(2,3)36-23(33)30-14-10-25(9-12-26,11-15-30)31-19-8-13-27-22(32)20(19)21(29-31)28-17-6-5-7-18(16-17)37(4,34)35/h5-8,13,16H,9-11,14-15H2,1-4H3,(H,27,32)(H,28,29)
InChIKey=WIIBLOYRLNQFCP-UHFFFAOYSA-N

> <PUBCHEM_SUBSTANCE_SYNONYM>
SCHEMBL16118120

> <PUBCHEM_XREF_EXT_ID>
SCHEMBL16118120

> <PUBCHEM_EXT_DATASOURCE_URL>
https://www.surechembl.org/

> <PUBCHEM_EXT_SUBSTANCE_URL>
https://www.surechembl.org/chemical/SCHEMBL16118120

> <PUBCHEM_CID_ASSOCIATIONS>
86268038  1

> <PUBCHEM_COORDINATE_TYPE>
1
3

$$$$
