310930738
  -OEChem-07211613022D

 28 31  0     0  0  0  0  0  0999 V2000
    7.1998   -0.9040    0.0000 S   0  0  0  0  0  0  0  0  0  0  0  0
    7.1998    0.0000    0.0000 O   0  0  0  0  0  0  0  0  0  0  0  0
    7.1998   -1.7111    0.0000 O   0  0  0  0  0  0  0  0  0  0  0  0
    3.9066   -3.7452    0.0000 O   0  0  0  0  0  0  0  0  0  0  0  0
    2.1955   -2.3891    0.0000 N   0  0  0  0  0  0  0  0  0  0  0  0
    3.9066   -2.3246    0.0000 N   0  0  0  0  0  0  0  0  0  0  0  0
    0.0000   -3.4546    0.0000 N   0  0  0  0  0  0  0  0  0  0  0  0
    6.3603   -0.9040    0.0000 C   0  0  0  0  0  0  0  0  0  0  0  0
    8.0070   -0.9040    0.0000 C   0  0  0  0  0  0  0  0  0  0  0  0
    2.6798   -3.0349    0.0000 C   0  0  0  0  0  0  0  0  0  0  0  0
    1.3883   -2.6152    0.0000 C   0  0  0  0  0  0  0  0  0  0  0  0
    1.3883   -3.4546    0.0000 C   0  0  0  0  0  0  0  0  0  0  0  0
    2.1955   -3.6806    0.0000 C   0  0  0  0  0  0  0  0  0  0  0  0
    5.9406   -1.6143    0.0000 C   0  0  0  0  0  0  0  0  0  0  0  0
    5.1335   -1.6143    0.0000 C   0  0  0  0  0  0  0  0  0  0  0  0
    3.4869   -3.0349    0.0000 C   0  0  0  0  0  0  0  0  0  0  0  0
    5.9730   -0.1937    0.0000 C   0  0  0  0  0  0  0  0  0  0  0  0
    8.4589   -0.2260    0.0000 C   0  0  0  0  0  0  0  0  0  0  0  0
    8.4589   -1.6466    0.0000 C   0  0  0  0  0  0  0  0  0  0  0  0
    0.6780   -2.2277    0.0000 C   0  0  0  0  0  0  0  0  0  0  0  0
    0.6780   -3.8743    0.0000 C   0  0  0  0  0  0  0  0  0  0  0  0
    4.7138   -2.3246    0.0000 C   0  0  0  0  0  0  0  0  0  0  0  0
    4.7138   -0.9040    0.0000 C   0  0  0  0  0  0  0  0  0  0  0  0
    5.1335   -0.1937    0.0000 C   0  0  0  0  0  0  0  0  0  0  0  0
    0.0000   -2.6152    0.0000 C   0  0  0  0  0  0  0  0  0  0  0  0
    9.2338   -0.2260    0.0000 C   0  0  0  0  0  0  0  0  0  0  0  0
    9.2338   -1.6466    0.0000 C   0  0  0  0  0  0  0  0  0  0  0  0
    9.6859   -0.9363    0.0000 C   0  0  0  0  0  0  0  0  0  0  0  0
  1  2  2  0  0  0  0
  1  3  2  0  0  0  0
  1  8  1  0  0  0  0
  1  9  1  0  0  0  0
  4 16  2  0  0  0  0
  5 10  1  0  0  0  0
  5 11  1  0  0  0  0
  6 16  1  0  0  0  0
  6 22  1  0  0  0  0
  7 21  1  0  0  0  0
  7 25  2  0  0  0  0
  8 14  2  0  0  0  0
  8 17  1  0  0  0  0
  9 18  2  0  0  0  0
  9 19  1  0  0  0  0
 10 13  2  0  0  0  0
 10 16  1  0  0  0  0
 11 12  1  0  0  0  0
 11 20  2  0  0  0  0
 12 13  1  0  0  0  0
 12 21  2  0  0  0  0
 14 15  1  0  0  0  0
 15 22  1  0  0  0  0
 15 23  2  0  0  0  0
 17 24  2  0  0  0  0
 18 26  1  0  0  0  0
 19 27  2  0  0  0  0
 20 25  1  0  0  0  0
 23 24  1  0  0  0  0
 26 28  2  0  0  0  0
 27 28  1  0  0  0  0
M  END
> <PUBCHEM_COMPOUND_ID_TYPE>
0

> <PUBCHEM_TOTAL_CHARGE>
0

> <PUBCHEM_SUBSTANCE_ID>
310930738

> <PUBCHEM_SUBSTANCE_VERSION>
1

> <PUBCHEM_EXT_DATASOURCE_NAME>
4488

> <PUBCHEM_EXT_DATASOURCE_REGID>
SCHEMBL16108035

> <PUBCHEM_SUBSTANCE_COMMENT>
InChI=1S/C21H17N3O3S/c25-21(20-12-16-14-22-10-9-19(16)24-20)23-13-15-5-4-8-18(11-15)28(26,27)17-6-2-1-3-7-17/h1-12,14,24H,13H2,(H,23,25)
InChIKey=SYSLEKQCFPTQDV-UHFFFAOYSA-N

> <PUBCHEM_SUBSTANCE_SYNONYM>
SCHEMBL16108035

> <PUBCHEM_XREF_EXT_ID>
SCHEMBL16108035

> <PUBCHEM_EXT_DATASOURCE_URL>
https://www.surechembl.org/

> <PUBCHEM_EXT_SUBSTANCE_URL>
https://www.surechembl.org/chemical/SCHEMBL16108035

> <PUBCHEM_CID_ASSOCIATIONS>
117599764  1

> <PUBCHEM_COORDINATE_TYPE>
1
3

$$$$
