310947383
  -OEChem-07211613022D

 38 42  0     1  0  0  0  0  0999 V2000
   -6.1044    0.0145    0.0000 Br  0  0  0  0  0  0  0  0  0  0  0  0
   -1.8185    2.4893    0.0000 O   0  0  0  0  0  0  0  0  0  0  0  0
    4.8804   -0.0988    0.0000 O   0  0  0  0  0  0  0  0  0  0  0  0
    3.7046    1.0769    0.0000 O   0  0  0  0  0  0  0  0  0  0  0  0
    1.1095    0.1720    0.0000 N   0  0  0  0  0  0  0  0  0  0  0  0
    1.5944    0.8394    0.0000 N   0  0  0  0  0  0  0  0  0  0  0  0
   -2.5330    1.2519    0.0000 N   0  0  0  0  0  0  0  0  0  0  0  0
    0.3249    0.4269    0.0000 C   0  0  0  0  0  0  0  0  0  0  0  0
    0.3249    1.2519    0.0000 C   0  0  0  0  0  0  0  0  0  0  0  0
    1.1095    1.5069    0.0000 C   0  0  0  0  0  0  0  0  0  0  0  0
   -0.3896    1.6645    0.0000 C   0  0  0  0  0  0  0  0  0  0  0  0
   -1.1041    1.2519    0.0000 C   0  0  0  0  0  0  0  0  0  0  0  0
   -0.3896    0.0144    0.0000 C   0  0  0  0  0  0  0  0  0  0  0  0
    1.3230   -0.6249    0.0000 C   0  0  0  0  0  0  0  0  0  0  0  0
   -1.1041    0.4269    0.0000 C   0  0  0  0  0  0  0  0  0  0  0  0
    2.1199   -0.8384    0.0000 C   0  0  0  0  0  0  0  0  0  0  0  0
   -1.8185    1.6645    0.0000 C   0  0  0  0  0  0  0  0  0  0  0  0
    3.7137   -1.2654    0.0000 C   0  0  0  0  0  0  0  0  0  0  0  0
    1.5220    2.2214    0.0000 C   0  0  0  0  0  0  0  0  0  0  0  0
    4.5106   -1.4790    0.0000 C   0  0  0  0  0  0  0  0  0  0  0  0
    2.3334   -1.6354    0.0000 C   0  0  0  0  0  0  0  0  0  0  0  0
    2.7033   -0.2551    0.0000 C   0  0  0  0  0  0  0  0  0  0  0  0
    3.1304   -1.8489    0.0000 C   0  0  0  0  0  0  0  0  0  0  0  0
    3.5002   -0.4686    0.0000 C   0  0  0  0  0  0  0  0  0  0  0  0
    5.0939   -0.8956    0.0000 C   0  0  0  0  0  0  0  0  0  0  0  0
   -3.2475    1.6645    0.0000 C   0  0  3  0  0  0  0  0  0  0  0  0
   -3.9619    1.2519    0.0000 C   0  0  0  0  0  0  0  0  0  0  0  0
    4.7241   -2.2758    0.0000 C   0  0  0  0  0  0  0  0  0  0  0  0
    5.8909   -1.1092    0.0000 C   0  0  0  0  0  0  0  0  0  0  0  0
    5.5209   -2.4893    0.0000 C   0  0  0  0  0  0  0  0  0  0  0  0
   -4.6764    1.6645    0.0000 C   0  0  0  0  0  0  0  0  0  0  0  0
   -3.9619    0.4274    0.0000 C   0  0  0  0  0  0  0  0  0  0  0  0
    6.1044   -1.9060    0.0000 C   0  0  0  0  0  0  0  0  0  0  0  0
   -3.2475    2.4890    0.0000 C   0  0  0  0  0  0  0  0  0  0  0  0
   -5.3900    0.4274    0.0000 C   0  0  0  0  0  0  0  0  0  0  0  0
   -5.3909    1.2519    0.0000 C   0  0  0  0  0  0  0  0  0  0  0  0
   -4.6758    0.0149    0.0000 C   0  0  0  0  0  0  0  0  0  0  0  0
    3.9532    0.1498    0.0000 C   0  0  0  0  0  0  0  0  0  0  0  0
  1 35  1  0  0  0  0
  2 17  2  0  0  0  0
  3 25  1  0  0  0  0
  3 38  1  0  0  0  0
  4 38  2  0  0  0  0
  5  6  1  0  0  0  0
  5  8  1  0  0  0  0
  5 14  1  0  0  0  0
  6 10  2  0  0  0  0
  7 17  1  0  0  0  0
  7 26  1  0  0  0  0
  8  9  1  0  0  0  0
  8 13  2  0  0  0  0
  9 10  1  0  0  0  0
  9 11  2  0  0  0  0
 10 19  1  0  0  0  0
 11 12  1  0  0  0  0
 12 15  2  0  0  0  0
 12 17  1  0  0  0  0
 13 15  1  0  0  0  0
 14 16  1  0  0  0  0
 16 21  2  0  0  0  0
 16 22  1  0  0  0  0
 18 20  1  0  0  0  0
 18 23  2  0  0  0  0
 18 24  1  0  0  0  0
 20 25  1  0  0  0  0
 20 28  2  0  0  0  0
 21 23  1  0  0  0  0
 22 24  2  0  0  0  0
 25 29  2  0  0  0  0
 26 27  1  0  0  0  0
 26 34  1  6  0  0  0
 27 31  2  0  0  0  0
 27 32  1  0  0  0  0
 28 30  1  0  0  0  0
 29 33  1  0  0  0  0
 30 33  2  0  0  0  0
 31 36  1  0  0  0  0
 32 37  2  0  0  0  0
 35 36  2  0  0  0  0
 35 37  1  0  0  0  0
M  END
> <PUBCHEM_COMPOUND_ID_TYPE>
0

> <PUBCHEM_TOTAL_CHARGE>
0

> <PUBCHEM_SUBSTANCE_ID>
310947383

> <PUBCHEM_SUBSTANCE_VERSION>
1

> <PUBCHEM_EXT_DATASOURCE_NAME>
4488

> <PUBCHEM_EXT_DATASOURCE_REGID>
SCHEMBL16125539

> <PUBCHEM_SUBSTANCE_COMMENT>
InChI=1S/C31H26BrN3O3/c1-20(23-11-14-26(32)15-12-23)33-31(37)25-13-16-29-28(17-25)21(2)34-35(29)18-22-7-9-24(10-8-22)27-5-3-4-6-30(27)38-19-36/h3-17,19-20H,18H2,1-2H3,(H,33,37)/t20-/m0/s1
InChIKey=UFFKQUDBWNWACO-FQEVSTJZSA-N

> <PUBCHEM_SUBSTANCE_SYNONYM>
SCHEMBL16125539

> <PUBCHEM_XREF_EXT_ID>
SCHEMBL16125539

> <PUBCHEM_EXT_DATASOURCE_URL>
https://www.surechembl.org/

> <PUBCHEM_EXT_SUBSTANCE_URL>
https://www.surechembl.org/chemical/SCHEMBL16125539

> <PUBCHEM_CID_ASSOCIATIONS>
117613126  1

> <PUBCHEM_COORDINATE_TYPE>
1
3

> <PUBCHEM_BONDANNOTATIONS>
26  34  6

$$$$
