310930447
  -OEChem-07211613022D

 32 35  0     0  0  0  0  0  0999 V2000
    3.9320   -1.5477    0.0000 O   0  0  0  0  0  0  0  0  0  0  0  0
    8.4496   -2.2588    0.0000 O   0  0  0  0  0  0  0  0  0  0  0  0
   12.5488   -5.1450    0.0000 O   0  0  0  0  0  0  0  0  0  0  0  0
    2.2170   -0.1673    0.0000 N   0  0  0  0  0  0  0  0  0  0  0  0
    0.0000   -1.2549    0.0000 N   0  0  0  0  0  0  0  0  0  0  0  0
    3.9320   -0.1255    0.0000 N   0  0  0  0  0  0  0  0  0  0  0  0
   10.9175   -5.1032    0.0000 N   0  0  0  0  0  0  0  0  0  0  0  0
    1.4222   -0.4183    0.0000 C   0  0  0  0  0  0  0  0  0  0  0  0
    1.4222   -1.2549    0.0000 C   0  0  0  0  0  0  0  0  0  0  0  0
    2.7189   -0.8366    0.0000 C   0  0  0  0  0  0  0  0  0  0  0  0
    2.2170   -1.5059    0.0000 C   0  0  0  0  0  0  0  0  0  0  0  0
    3.5137   -0.8366    0.0000 C   0  0  0  0  0  0  0  0  0  0  0  0
    0.7111    0.0000    0.0000 C   0  0  0  0  0  0  0  0  0  0  0  0
    0.7111   -1.6732    0.0000 C   0  0  0  0  0  0  0  0  0  0  0  0
    0.0000   -0.4183    0.0000 C   0  0  0  0  0  0  0  0  0  0  0  0
    9.7045   -4.3921    0.0000 C   0  0  0  0  0  0  0  0  0  0  0  0
   10.0809   -5.1032    0.0000 C   0  0  0  0  0  0  0  0  0  0  0  0
    8.8679   -2.9699    0.0000 C   0  0  0  0  0  0  0  0  0  0  0  0
    8.8679   -4.3921    0.0000 C   0  0  0  0  0  0  0  0  0  0  0  0
   10.0809   -3.6810    0.0000 C   0  0  0  0  0  0  0  0  0  0  0  0
    4.7686   -0.1255    0.0000 C   0  0  0  0  0  0  0  0  0  0  0  0
    8.4496   -3.7228    0.0000 C   0  0  0  0  0  0  0  0  0  0  0  0
    9.7045   -2.9699    0.0000 C   0  0  0  0  0  0  0  0  0  0  0  0
   11.3358   -4.3921    0.0000 C   0  0  0  0  0  0  0  0  0  0  0  0
   11.3358   -5.8561    0.0000 C   0  0  0  0  0  0  0  0  0  0  0  0
    5.1868   -0.8366    0.0000 C   0  0  0  0  0  0  0  0  0  0  0  0
   12.1306   -4.4339    0.0000 C   0  0  0  0  0  0  0  0  0  0  0  0
   12.1306   -5.8561    0.0000 C   0  0  0  0  0  0  0  0  0  0  0  0
    7.6548   -2.2588    0.0000 C   0  0  0  0  0  0  0  0  0  0  0  0
    5.9816   -0.8366    0.0000 C   0  0  0  0  0  0  0  0  0  0  0  0
    7.2365   -1.5477    0.0000 C   0  0  0  0  0  0  0  0  0  0  0  0
    6.3999   -1.5477    0.0000 C   0  0  0  0  0  0  0  0  0  0  0  0
  1 12  2  0  0  0  0
  2 18  1  0  0  0  0
  2 29  1  0  0  0  0
  3 27  1  0  0  0  0
  3 28  1  0  0  0  0
  4  8  1  0  0  0  0
  4 10  1  0  0  0  0
  5 14  1  0  0  0  0
  5 15  2  0  0  0  0
  6 12  1  0  0  0  0
  6 21  1  0  0  0  0
  7 17  1  0  0  0  0
  7 24  1  0  0  0  0
  7 25  1  0  0  0  0
  8  9  1  0  0  0  0
  8 13  2  0  0  0  0
  9 11  1  0  0  0  0
  9 14  2  0  0  0  0
 10 11  2  0  0  0  0
 10 12  1  0  0  0  0
 13 15  1  0  0  0  0
 16 17  1  0  0  0  0
 16 19  2  0  0  0  0
 16 20  1  0  0  0  0
 18 22  2  0  0  0  0
 18 23  1  0  0  0  0
 19 22  1  0  0  0  0
 20 23  2  0  0  0  0
 21 26  1  0  0  0  0
 24 27  1  0  0  0  0
 25 28  1  0  0  0  0
 26 30  1  0  0  0  0
 29 31  1  0  0  0  0
 30 32  1  0  0  0  0
 31 32  1  0  0  0  0
M  END
> <PUBCHEM_COMPOUND_ID_TYPE>
0

> <PUBCHEM_TOTAL_CHARGE>
0

> <PUBCHEM_SUBSTANCE_ID>
310930447

> <PUBCHEM_SUBSTANCE_VERSION>
1

> <PUBCHEM_EXT_DATASOURCE_NAME>
4488

> <PUBCHEM_EXT_DATASOURCE_REGID>
SCHEMBL16107737

> <PUBCHEM_SUBSTANCE_COMMENT>
InChI=1S/C25H32N4O3/c30-25(24-17-21-18-26-11-9-23(21)28-24)27-10-3-1-2-4-14-32-22-7-5-20(6-8-22)19-29-12-15-31-16-13-29/h5-9,11,17-18,28H,1-4,10,12-16,19H2,(H,27,30)
InChIKey=QITZIQUONIIHIR-UHFFFAOYSA-N

> <PUBCHEM_SUBSTANCE_SYNONYM>
SCHEMBL16107737

> <PUBCHEM_XREF_EXT_ID>
SCHEMBL16107737

> <PUBCHEM_EXT_DATASOURCE_URL>
https://www.surechembl.org/

> <PUBCHEM_EXT_SUBSTANCE_URL>
https://www.surechembl.org/chemical/SCHEMBL16107737

> <PUBCHEM_CID_ASSOCIATIONS>
117599578  1

> <PUBCHEM_COORDINATE_TYPE>
1
3

$$$$
