310936388
  -OEChem-07211613022D

 22 23  0     0  0  0  0  0  0999 V2000
    3.9109    0.0000    0.0000 Cl  0  0  0  0  0  0  0  0  0  0  0  0
    2.4749   -0.0306    0.0000 Cl  0  0  0  0  0  0  0  0  0  0  0  0
    3.9109   -0.8249    0.0000 Cl  0  0  0  0  0  0  0  0  0  0  0  0
    0.0000   -1.4360    0.0000 Cl  0  0  0  0  0  0  0  0  0  0  0  0
    0.7333   -2.6887    0.0000 Cl  0  0  0  0  0  0  0  0  0  0  0  0
    0.7333   -1.0388    0.0000 Cl  0  0  0  0  0  0  0  0  0  0  0  0
    1.4666   -6.1108    0.0000 Cl  0  0  0  0  0  0  0  0  0  0  0  0
    1.9860   -1.1305    0.0000 N   0  0  0  0  0  0  0  0  0  0  0  0
    1.9860   -2.5665    0.0000 N   0  0  0  0  0  0  0  0  0  0  0  0
    3.2387   -1.8638    0.0000 N   0  0  0  0  0  0  0  0  0  0  0  0
    3.2081   -3.2693    0.0000 N   0  0  0  0  0  0  0  0  0  0  0  0
    2.7804   -1.1305    0.0000 C   0  0  0  0  0  0  0  0  0  0  0  0
    1.5583   -1.8638    0.0000 C   0  0  0  0  0  0  0  0  0  0  0  0
    3.2081   -0.4278    0.0000 C   0  0  0  0  0  0  0  0  0  0  0  0
    0.7333   -1.8638    0.0000 C   0  0  0  0  0  0  0  0  0  0  0  0
    2.7804   -2.5665    0.0000 C   0  0  0  0  0  0  0  0  0  0  0  0
    2.7804   -4.0026    0.0000 C   0  0  0  0  0  0  0  0  0  0  0  0
    3.1776   -4.7358    0.0000 C   0  0  0  0  0  0  0  0  0  0  0  0
    1.9555   -3.9720    0.0000 C   0  0  0  0  0  0  0  0  0  0  0  0
    1.9249   -5.4080    0.0000 C   0  0  0  0  0  0  0  0  0  0  0  0
    2.7499   -5.4386    0.0000 C   0  0  0  0  0  0  0  0  0  0  0  0
    1.5277   -4.6748    0.0000 C   0  0  0  0  0  0  0  0  0  0  0  0
  1 14  1  0  0  0  0
  2 14  1  0  0  0  0
  3 14  1  0  0  0  0
  4 15  1  0  0  0  0
  5 15  1  0  0  0  0
  6 15  1  0  0  0  0
  7 20  1  0  0  0  0
  8 12  2  0  0  0  0
  8 13  1  0  0  0  0
  9 13  2  0  0  0  0
  9 16  1  0  0  0  0
 10 12  1  0  0  0  0
 10 16  2  0  0  0  0
 11 16  1  0  0  0  0
 11 17  1  0  0  0  0
 12 14  1  0  0  0  0
 13 15  1  0  0  0  0
 17 18  2  0  0  0  0
 17 19  1  0  0  0  0
 18 21  1  0  0  0  0
 19 22  2  0  0  0  0
 20 21  2  0  0  0  0
 20 22  1  0  0  0  0
M  END
> <PUBCHEM_COMPOUND_ID_TYPE>
0

> <PUBCHEM_TOTAL_CHARGE>
0

> <PUBCHEM_SUBSTANCE_ID>
310936388

> <PUBCHEM_SUBSTANCE_VERSION>
1

> <PUBCHEM_EXT_DATASOURCE_NAME>
4488

> <PUBCHEM_EXT_DATASOURCE_REGID>
SCHEMBL16114026

> <PUBCHEM_SUBSTANCE_COMMENT>
InChI=1S/C11H5Cl7N4/c12-5-1-3-6(4-2-5)19-9-21-7(10(13,14)15)20-8(22-9)11(16,17)18/h1-4H,(H,19,20,21,22)
InChIKey=UZDPFFRSRRWULB-UHFFFAOYSA-N

> <PUBCHEM_SUBSTANCE_SYNONYM>
SCHEMBL16114026

> <PUBCHEM_XREF_EXT_ID>
SCHEMBL16114026

> <PUBCHEM_EXT_DATASOURCE_URL>
https://www.surechembl.org/

> <PUBCHEM_EXT_SUBSTANCE_URL>
https://www.surechembl.org/chemical/SCHEMBL16114026

> <PUBCHEM_CID_ASSOCIATIONS>
19202  1

> <PUBCHEM_COORDINATE_TYPE>
1
3

$$$$
