310934108
  -OEChem-07211613022D

 24 27  0     0  0  0  0  0  0999 V2000
    4.9279   -2.7604    0.0000 O   0  0  0  0  0  0  0  0  0  0  0  0
    8.5003   -1.5229    0.0000 O   0  0  0  0  0  0  0  0  0  0  0  0
    0.6411   -1.1104    0.0000 N   0  0  0  0  0  0  0  0  0  0  0  0
    1.3556    0.1271    0.0000 N   0  0  0  0  0  0  0  0  0  0  0  0
   -0.1435   -1.3654    0.0000 N   0  0  0  0  0  0  0  0  0  0  0  0
    3.4990   -1.1104    0.0000 N   0  0  0  0  0  0  0  0  0  0  0  0
    7.0714   -2.3479    0.0000 N   0  0  0  0  0  0  0  0  0  0  0  0
    2.0701   -1.1104    0.0000 C   0  0  0  0  0  0  0  0  0  0  0  0
    0.6411   -0.2854    0.0000 C   0  0  0  0  0  0  0  0  0  0  0  0
    2.7845   -1.5229    0.0000 C   0  0  0  0  0  0  0  0  0  0  0  0
    1.3556   -1.5229    0.0000 C   0  0  0  0  0  0  0  0  0  0  0  0
    2.0701   -0.2854    0.0000 C   0  0  0  0  0  0  0  0  0  0  0  0
   -0.1435   -0.0305    0.0000 C   0  0  0  0  0  0  0  0  0  0  0  0
    2.7845   -2.3479    0.0000 C   0  0  0  0  0  0  0  0  0  0  0  0
    4.2135   -2.3479    0.0000 C   0  0  0  0  0  0  0  0  0  0  0  0
   -0.6284   -0.6979    0.0000 C   0  0  0  0  0  0  0  0  0  0  0  0
    4.2135   -1.5229    0.0000 C   0  0  0  0  0  0  0  0  0  0  0  0
    3.4990   -2.7604    0.0000 C   0  0  0  0  0  0  0  0  0  0  0  0
    5.6424   -2.3479    0.0000 C   0  0  0  0  0  0  0  0  0  0  0  0
    6.3569   -2.7604    0.0000 C   0  0  0  0  0  0  0  0  0  0  0  0
    7.7858   -2.7604    0.0000 C   0  0  0  0  0  0  0  0  0  0  0  0
    7.0714   -1.5229    0.0000 C   0  0  0  0  0  0  0  0  0  0  0  0
    8.5003   -2.3479    0.0000 C   0  0  0  0  0  0  0  0  0  0  0  0
    7.7858   -1.1104    0.0000 C   0  0  0  0  0  0  0  0  0  0  0  0
  1 15  1  0  0  0  0
  1 19  1  0  0  0  0
  2 23  1  0  0  0  0
  2 24  1  0  0  0  0
  3  5  1  0  0  0  0
  3  9  1  0  0  0  0
  3 11  1  0  0  0  0
  4  9  1  0  0  0  0
  4 12  2  0  0  0  0
  5 16  2  0  0  0  0
  6 10  1  0  0  0  0
  6 17  2  0  0  0  0
  7 20  1  0  0  0  0
  7 21  1  0  0  0  0
  7 22  1  0  0  0  0
  8 10  1  0  0  0  0
  8 11  2  0  0  0  0
  8 12  1  0  0  0  0
  9 13  2  0  0  0  0
 10 14  2  0  0  0  0
 13 16  1  0  0  0  0
 14 18  1  0  0  0  0
 15 17  1  0  0  0  0
 15 18  2  0  0  0  0
 19 20  1  0  0  0  0
 21 23  1  0  0  0  0
 22 24  1  0  0  0  0
M  END
> <PUBCHEM_COMPOUND_ID_TYPE>
0

> <PUBCHEM_TOTAL_CHARGE>
0

> <PUBCHEM_SUBSTANCE_ID>
310934108

> <PUBCHEM_SUBSTANCE_VERSION>
1

> <PUBCHEM_EXT_DATASOURCE_NAME>
4488

> <PUBCHEM_EXT_DATASOURCE_REGID>
SCHEMBL16111554

> <PUBCHEM_SUBSTANCE_COMMENT>
InChI=1S/C17H19N5O2/c1-2-16(14-11-19-17-3-4-20-22(17)13-14)18-12-15(1)24-10-7-21-5-8-23-9-6-21/h1-4,11-13H,5-10H2
InChIKey=VHCNYFVIRKVBOJ-UHFFFAOYSA-N

> <PUBCHEM_SUBSTANCE_SYNONYM>
SCHEMBL16111554

> <PUBCHEM_XREF_EXT_ID>
SCHEMBL16111554

> <PUBCHEM_EXT_DATASOURCE_URL>
https://www.surechembl.org/

> <PUBCHEM_EXT_SUBSTANCE_URL>
https://www.surechembl.org/chemical/SCHEMBL16111554

> <PUBCHEM_CID_ASSOCIATIONS>
117602388  1

> <PUBCHEM_COORDINATE_TYPE>
1
3

$$$$
