310948623
  -OEChem-07211613022D

 36 40  0     1  0  0  0  0  0999 V2000
   -1.2742   -1.7531    0.0000 S   0  0  0  0  0  0  0  0  0  0  0  0
   -1.2018   -2.5663    0.0000 O   0  0  0  0  0  0  0  0  0  0  0  0
   -2.0512   -1.8976    0.0000 O   0  0  0  0  0  0  0  0  0  0  0  0
   -2.5392    3.1446    0.0000 O   0  0  0  0  0  0  0  0  0  0  0  0
    0.5512   -4.4639    0.0000 O   0  0  0  0  0  0  0  0  0  0  0  0
   -0.4608   -1.7892    0.0000 N   0  0  3  0  0  0  0  0  0  0  0  0
    0.1175    2.4398    0.0000 N   0  0  0  0  0  0  0  0  0  0  0  0
   -0.3705    1.7892    0.0000 N   0  0  0  0  0  0  0  0  0  0  0  0
   -1.7801    1.5543    0.0000 N   0  0  0  0  0  0  0  0  0  0  0  0
   -1.6175    4.2109    0.0000 N   0  0  0  0  0  0  0  0  0  0  0  0
    0.5331    0.3434    0.0000 N   0  0  0  0  0  0  0  0  0  0  0  0
   -1.4910   -0.9397    0.0000 C   0  0  0  0  0  0  0  0  0  0  0  0
   -0.8223   -0.4699    0.0000 C   0  0  0  0  0  0  0  0  0  0  0  0
   -0.0271   -2.4579    0.0000 C   0  0  0  0  0  0  0  0  0  0  0  0
   -0.1717   -1.0121    0.0000 C   0  0  0  0  0  0  0  0  0  0  0  0
   -1.1296    2.8735    0.0000 C   0  0  0  0  0  0  0  0  0  0  0  0
   -0.4067    3.1446    0.0000 C   0  0  0  0  0  0  0  0  0  0  0  0
   -1.1657    2.0422    0.0000 C   0  0  0  0  0  0  0  0  0  0  0  0
   -1.7079    0.7410    0.0000 C   0  0  0  0  0  0  0  0  0  0  0  0
   -0.9127    0.3614    0.0000 C   0  0  0  0  0  0  0  0  0  0  0  0
   -2.2500   -0.5783    0.0000 C   0  0  0  0  0  0  0  0  0  0  0  0
    0.9308    2.4398    0.0000 C   0  0  3  0  0  0  0  0  0  0  0  0
   -1.7801    3.4338    0.0000 C   0  0  0  0  0  0  0  0  0  0  0  0
   -2.3223    0.2530    0.0000 C   0  0  0  0  0  0  0  0  0  0  0  0
   -0.2440    3.9579    0.0000 C   0  0  0  0  0  0  0  0  0  0  0  0
    0.3705   -3.1446    0.0000 C   0  0  0  0  0  0  0  0  0  0  0  0
    1.3283    1.7531    0.0000 C   0  0  3  0  0  0  0  0  0  0  0  0
   -0.4247   -3.1989    0.0000 C   0  0  0  0  0  0  0  0  0  0  0  0
    0.8042   -2.4940    0.0000 C   0  0  0  0  0  0  0  0  0  0  0  0
   -0.8584    4.4639    0.0000 C   0  0  0  0  0  0  0  0  0  0  0  0
    1.3645    3.1627    0.0000 C   0  0  0  0  0  0  0  0  0  0  0  0
    2.1416    1.7531    0.0000 C   0  0  0  0  0  0  0  0  0  0  0  0
   -0.0271   -3.8675    0.0000 C   0  0  0  0  0  0  0  0  0  0  0  0
    0.9127    1.0302    0.0000 C   0  0  0  0  0  0  0  0  0  0  0  0
    2.1778    3.1627    0.0000 C   0  0  0  0  0  0  0  0  0  0  0  0
    2.5392    2.4579    0.0000 C   0  0  0  0  0  0  0  0  0  0  0  0
  1  2  2  0  0  0  0
  1  3  2  0  0  0  0
  1  6  1  0  0  0  0
  1 12  1  0  0  0  0
  4 23  2  0  0  0  0
  5 33  1  0  0  0  0
  6 14  1  0  0  0  0
  6 15  1  0  0  0  0
  7  8  1  0  0  0  0
  7 17  1  0  0  0  0
 22  7  1  1  0  0  0
  8 18  2  0  0  0  0
  9 18  1  0  0  0  0
  9 19  1  0  0  0  0
 10 23  1  0  0  0  0
 10 30  1  0  0  0  0
 11 34  3  0  0  0  0
 12 13  1  0  0  0  0
 12 21  2  0  0  0  0
 13 15  1  0  0  0  0
 13 20  2  0  0  0  0
 14 26  1  0  0  0  0
 14 28  1  0  0  0  0
 14 29  1  0  0  0  0
 16 17  2  0  0  0  0
 16 18  1  0  0  0  0
 16 23  1  0  0  0  0
 17 25  1  0  0  0  0
 19 20  1  0  0  0  0
 19 24  2  0  0  0  0
 21 24  1  0  0  0  0
 22 27  1  0  0  0  0
 22 31  1  0  0  0  0
 25 30  2  0  0  0  0
 26 33  1  0  0  0  0
 27 32  1  0  0  0  0
 27 34  1  6  0  0  0
 31 35  1  0  0  0  0
 32 36  1  0  0  0  0
 35 36  1  0  0  0  0
M  END
> <PUBCHEM_COMPOUND_ID_TYPE>
0

> <PUBCHEM_TOTAL_CHARGE>
0

> <PUBCHEM_SUBSTANCE_ID>
310948623

> <PUBCHEM_SUBSTANCE_VERSION>
1

> <PUBCHEM_EXT_DATASOURCE_NAME>
4488

> <PUBCHEM_EXT_DATASOURCE_REGID>
SCHEMBL16126806

> <PUBCHEM_SUBSTANCE_COMMENT>
InChI=1S/C25H30N6O4S/c1-25(2,10-12-32)30-15-17-13-18(7-8-21(17)36(30,34)35)28-23-22-20(9-11-27-24(22)33)31(29-23)19-6-4-3-5-16(19)14-26/h7-9,11,13,16,19,32H,3-6,10,12,15H2,1-2H3,(H,27,33)(H,28,29)/t16-,19+/m1/s1
InChIKey=AYRDNECQPZQSTM-APWZRJJASA-N

> <PUBCHEM_SUBSTANCE_SYNONYM>
SCHEMBL16126806

> <PUBCHEM_XREF_EXT_ID>
SCHEMBL16126806

> <PUBCHEM_EXT_DATASOURCE_URL>
https://www.surechembl.org/

> <PUBCHEM_EXT_SUBSTANCE_URL>
https://www.surechembl.org/chemical/SCHEMBL16126806

> <PUBCHEM_CID_ASSOCIATIONS>
117614167  1

> <PUBCHEM_COORDINATE_TYPE>
1
3

> <PUBCHEM_BONDANNOTATIONS>
27  34  6
22  7  5

$$$$
