310934193
  -OEChem-07211613022D

 15 16  0     0  0  0  0  0  0999 V2000
    5.3469   -3.1299    0.0000 Br  0  0  0  0  0  0  0  0  0  0  0  0
    1.4532   -1.2483    0.0000 O   0  0  0  0  0  0  0  0  0  0  0  0
    2.1612    0.0000    0.0000 O   0  0  0  0  0  0  0  0  0  0  0  0
    4.3036   -1.2483    0.0000 N   0  0  0  0  0  0  0  0  0  0  0  0
    3.5771   -2.5151    0.0000 N   0  0  0  0  0  0  0  0  0  0  0  0
    5.0861   -1.0247    0.0000 N   0  0  0  0  0  0  0  0  0  0  0  0
    4.3036   -2.1052    0.0000 C   0  0  0  0  0  0  0  0  0  0  0  0
    5.0861   -2.3475    0.0000 C   0  0  0  0  0  0  0  0  0  0  0  0
    2.8691   -1.2483    0.0000 C   0  0  0  0  0  0  0  0  0  0  0  0
    3.5771   -0.8570    0.0000 C   0  0  0  0  0  0  0  0  0  0  0  0
    2.8691   -2.1052    0.0000 C   0  0  0  0  0  0  0  0  0  0  0  0
    5.5892   -1.6767    0.0000 C   0  0  0  0  0  0  0  0  0  0  0  0
    2.1612   -0.8384    0.0000 C   0  0  0  0  0  0  0  0  0  0  0  0
    0.7266   -0.8384    0.0000 C   0  0  0  0  0  0  0  0  0  0  0  0
    0.0000   -1.2668    0.0000 C   0  0  0  0  0  0  0  0  0  0  0  0
  1  8  1  0  0  0  0
  2 13  1  0  0  0  0
  2 14  1  0  0  0  0
  3 13  2  0  0  0  0
  4  6  1  0  0  0  0
  4  7  1  0  0  0  0
  4 10  1  0  0  0  0
  5  7  1  0  0  0  0
  5 11  2  0  0  0  0
  6 12  2  0  0  0  0
  7  8  2  0  0  0  0
  8 12  1  0  0  0  0
  9 10  2  0  0  0  0
  9 11  1  0  0  0  0
  9 13  1  0  0  0  0
 14 15  1  0  0  0  0
M  END
> <PUBCHEM_COMPOUND_ID_TYPE>
0

> <PUBCHEM_TOTAL_CHARGE>
0

> <PUBCHEM_SUBSTANCE_ID>
310934193

> <PUBCHEM_SUBSTANCE_VERSION>
1

> <PUBCHEM_EXT_DATASOURCE_NAME>
4488

> <PUBCHEM_EXT_DATASOURCE_REGID>
SCHEMBL16111648

> <PUBCHEM_SUBSTANCE_COMMENT>
InChI=1S/C9H8BrN3O2/c1-2-15-9(14)6-3-11-8-7(10)4-12-13(8)5-6/h3-5H,2H2,1H3
InChIKey=JXEWHTHFTOYWHN-UHFFFAOYSA-N

> <PUBCHEM_SUBSTANCE_SYNONYM>
SCHEMBL16111648

> <PUBCHEM_XREF_EXT_ID>
SCHEMBL16111648

> <PUBCHEM_EXT_DATASOURCE_URL>
https://www.surechembl.org/

> <PUBCHEM_EXT_SUBSTANCE_URL>
https://www.surechembl.org/chemical/SCHEMBL16111648

> <PUBCHEM_CID_ASSOCIATIONS>
72207403  1

> <PUBCHEM_COORDINATE_TYPE>
1
3

$$$$
