310933566
  -OEChem-07211613022D

 18 19  0     0  0  0  0  0  0999 V2000
    2.8363   -4.5380    0.0000 Br  0  0  0  0  0  0  0  0  0  0  0  0
    0.7034    0.0000    0.0000 F   0  0  0  0  0  0  0  0  0  0  0  0
    0.0000   -1.2480    0.0000 F   0  0  0  0  0  0  0  0  0  0  0  0
    1.4295   -0.4084    0.0000 F   0  0  0  0  0  0  0  0  0  0  0  0
    0.0000   -2.0648    0.0000 O   0  0  0  0  0  0  0  0  0  0  0  0
    1.4295   -2.0648    0.0000 N   0  0  0  0  0  0  0  0  0  0  0  0
    2.1556   -2.4732    0.0000 C   0  0  0  0  0  0  0  0  0  0  0  0
    2.1556   -3.2901    0.0000 C   0  0  0  0  0  0  0  0  0  0  0  0
    2.8363   -3.7212    0.0000 C   0  0  0  0  0  0  0  0  0  0  0  0
    0.7034   -2.4732    0.0000 C   0  0  0  0  0  0  0  0  0  0  0  0
    1.4295   -1.2480    0.0000 C   0  0  0  0  0  0  0  0  0  0  0  0
    2.8363   -2.0648    0.0000 C   0  0  0  0  0  0  0  0  0  0  0  0
    1.4295   -3.7212    0.0000 C   0  0  0  0  0  0  0  0  0  0  0  0
    3.5624   -3.2901    0.0000 C   0  0  0  0  0  0  0  0  0  0  0  0
    0.7034   -0.8168    0.0000 C   0  0  0  0  0  0  0  0  0  0  0  0
    0.7034   -3.2901    0.0000 C   0  0  0  0  0  0  0  0  0  0  0  0
    3.5624   -2.4732    0.0000 C   0  0  0  0  0  0  0  0  0  0  0  0
    4.2657   -3.7212    0.0000 C   0  0  0  0  0  0  0  0  0  0  0  0
  1  9  1  0  0  0  0
  2 15  1  0  0  0  0
  3 15  1  0  0  0  0
  4 15  1  0  0  0  0
  5 10  2  0  0  0  0
  6  7  1  0  0  0  0
  6 10  1  0  0  0  0
  6 11  1  0  0  0  0
  7  8  2  0  0  0  0
  7 12  1  0  0  0  0
  8  9  1  0  0  0  0
  8 13  1  0  0  0  0
  9 14  2  0  0  0  0
 10 16  1  0  0  0  0
 11 15  1  0  0  0  0
 12 17  2  0  0  0  0
 13 16  2  0  0  0  0
 14 17  1  0  0  0  0
 14 18  1  0  0  0  0
M  END
> <PUBCHEM_COMPOUND_ID_TYPE>
0

> <PUBCHEM_TOTAL_CHARGE>
0

> <PUBCHEM_SUBSTANCE_ID>
310933566

> <PUBCHEM_SUBSTANCE_VERSION>
1

> <PUBCHEM_EXT_DATASOURCE_NAME>
4488

> <PUBCHEM_EXT_DATASOURCE_REGID>
SCHEMBL16110989

> <PUBCHEM_SUBSTANCE_COMMENT>
InChI=1S/C12H9BrF3NO/c1-7-2-4-9-8(11(7)13)3-5-10(18)17(9)6-12(14,15)16/h2-5H,6H2,1H3
InChIKey=QBILHYZNJQKJIR-UHFFFAOYSA-N

> <PUBCHEM_SUBSTANCE_SYNONYM>
SCHEMBL16110989

> <PUBCHEM_XREF_EXT_ID>
SCHEMBL16110989

> <PUBCHEM_EXT_DATASOURCE_URL>
https://www.surechembl.org/

> <PUBCHEM_EXT_SUBSTANCE_URL>
https://www.surechembl.org/chemical/SCHEMBL16110989

> <PUBCHEM_CID_ASSOCIATIONS>
117601949  1

> <PUBCHEM_COORDINATE_TYPE>
1
3

$$$$
