310944717
  -OEChem-07211613022D

 28 31  0     0  0  0  0  0  0999 V2000
    0.9260   -2.8424    0.0000 Cl  0  0  0  0  0  0  0  0  0  0  0  0
   -0.4372    2.9195    0.0000 F   0  0  0  0  0  0  0  0  0  0  0  0
    0.3087    0.1415    0.0000 F   0  0  0  0  0  0  0  0  0  0  0  0
    2.3150    2.1735    0.0000 O   0  0  0  0  0  0  0  0  0  0  0  0
   -1.1061    0.5273    0.0000 N   0  0  0  0  0  0  0  0  0  0  0  0
   -0.6302   -0.1415    0.0000 N   0  0  0  0  0  0  0  0  0  0  0  0
   -1.4919   -2.1993    0.0000 N   0  0  0  0  0  0  0  0  0  0  0  0
   -1.9163   -0.5273    0.0000 C   0  0  0  0  0  0  0  0  0  0  0  0
   -1.9034    0.2958    0.0000 C   0  0  0  0  0  0  0  0  0  0  0  0
   -1.1189   -0.8103    0.0000 C   0  0  0  0  0  0  0  0  0  0  0  0
   -0.9132   -1.5691    0.0000 C   0  0  0  0  0  0  0  0  0  0  0  0
   -0.1158    1.5691    0.0000 C   0  0  0  0  0  0  0  0  0  0  0  0
   -0.9002    1.3376    0.0000 C   0  0  0  0  0  0  0  0  0  0  0  0
   -2.6237   -0.9518    0.0000 C   0  0  0  0  0  0  0  0  0  0  0  0
   -2.6108    0.6945    0.0000 C   0  0  0  0  0  0  0  0  0  0  0  0
    0.1029    2.3664    0.0000 C   0  0  0  0  0  0  0  0  0  0  0  0
    0.4888    0.9774    0.0000 C   0  0  0  0  0  0  0  0  0  0  0  0
   -0.1029   -1.8134    0.0000 C   0  0  0  0  0  0  0  0  0  0  0  0
   -3.3310   -0.5402    0.0000 C   0  0  0  0  0  0  0  0  0  0  0  0
    1.4919    1.9935    0.0000 C   0  0  0  0  0  0  0  0  0  0  0  0
   -3.3310    0.2701    0.0000 C   0  0  0  0  0  0  0  0  0  0  0  0
    0.9132    2.5593    0.0000 C   0  0  0  0  0  0  0  0  0  0  0  0
    1.2861    1.1961    0.0000 C   0  0  0  0  0  0  0  0  0  0  0  0
    0.1029   -2.6108    0.0000 C   0  0  0  0  0  0  0  0  0  0  0  0
   -1.2733   -2.9709    0.0000 C   0  0  0  0  0  0  0  0  0  0  0  0
   -0.4630   -3.1896    0.0000 C   0  0  0  0  0  0  0  0  0  0  0  0
    2.5208    2.9967    0.0000 C   0  0  0  0  0  0  0  0  0  0  0  0
    3.3310    3.1896    0.0000 C   0  0  0  0  0  0  0  0  0  0  0  0
  1 24  1  0  0  0  0
  2 16  1  0  0  0  0
  3 17  1  0  0  0  0
  4 20  1  0  0  0  0
  4 27  1  0  0  0  0
  5  6  1  0  0  0  0
  5  9  1  0  0  0  0
  5 13  1  0  0  0  0
  6 10  2  0  0  0  0
  7 11  1  0  0  0  0
  7 25  2  0  0  0  0
  8  9  2  0  0  0  0
  8 10  1  0  0  0  0
  8 14  1  0  0  0  0
  9 15  1  0  0  0  0
 10 11  1  0  0  0  0
 11 18  2  0  0  0  0
 12 13  1  0  0  0  0
 12 16  2  0  0  0  0
 12 17  1  0  0  0  0
 14 19  2  0  0  0  0
 15 21  2  0  0  0  0
 16 22  1  0  0  0  0
 17 23  2  0  0  0  0
 18 24  1  0  0  0  0
 19 21  1  0  0  0  0
 20 22  2  0  0  0  0
 20 23  1  0  0  0  0
 24 26  2  0  0  0  0
 25 26  1  0  0  0  0
 27 28  1  0  0  0  0
M  END
> <PUBCHEM_COMPOUND_ID_TYPE>
0

> <PUBCHEM_TOTAL_CHARGE>
0

> <PUBCHEM_SUBSTANCE_ID>
310944717

> <PUBCHEM_SUBSTANCE_VERSION>
1

> <PUBCHEM_EXT_DATASOURCE_NAME>
4488

> <PUBCHEM_EXT_DATASOURCE_REGID>
SCHEMBL16122796

> <PUBCHEM_SUBSTANCE_COMMENT>
InChI=1S/C21H16ClF2N3O/c1-2-28-14-10-17(23)16(18(24)11-14)12-27-20-6-4-3-5-15(20)21(26-27)19-9-13(22)7-8-25-19/h3-11H,2,12H2,1H3
InChIKey=MIYBUOWKOQFNBM-UHFFFAOYSA-N

> <PUBCHEM_SUBSTANCE_SYNONYM>
SCHEMBL16122796

> <PUBCHEM_XREF_EXT_ID>
SCHEMBL16122796

> <PUBCHEM_EXT_DATASOURCE_URL>
https://www.surechembl.org/

> <PUBCHEM_EXT_SUBSTANCE_URL>
https://www.surechembl.org/chemical/SCHEMBL16122796

> <PUBCHEM_CID_ASSOCIATIONS>
117610938  1

> <PUBCHEM_COORDINATE_TYPE>
1
3

$$$$
