310934785
  -OEChem-07211613022D

 23 25  0     0  0  0  0  0  0999 V2000
    1.4195   -1.1566    0.0000 O   0  0  0  0  0  0  0  0  0  0  0  0
    2.2344    0.0000    0.0000 O   0  0  0  0  0  0  0  0  0  0  0  0
    3.6013   -2.3658    0.0000 N   0  0  0  0  0  0  0  0  0  0  0  0
    2.8127   -2.1030    0.0000 N   0  0  0  0  0  0  0  0  0  0  0  0
    4.0745   -1.7086    0.0000 C   0  0  0  0  0  0  0  0  0  0  0  0
    4.8894   -1.7086    0.0000 C   0  0  0  0  0  0  0  0  0  0  0  0
    5.3100   -2.4184    0.0000 C   0  0  0  0  0  0  0  0  0  0  0  0
    2.8127   -1.2880    0.0000 C   0  0  0  0  0  0  0  0  0  0  0  0
    3.6013   -1.0252    0.0000 C   0  0  0  0  0  0  0  0  0  0  0  0
    2.1555   -0.8149    0.0000 C   0  0  0  0  0  0  0  0  0  0  0  0
    5.3100   -0.9726    0.0000 C   0  0  0  0  0  0  0  0  0  0  0  0
    4.9156   -3.1282    0.0000 C   0  0  0  0  0  0  0  0  0  0  0  0
    6.1248   -2.4184    0.0000 C   0  0  0  0  0  0  0  0  0  0  0  0
    5.3100   -3.8379    0.0000 C   0  0  0  0  0  0  0  0  0  0  0  0
    6.1248   -0.9726    0.0000 C   0  0  0  0  0  0  0  0  0  0  0  0
    6.5454   -1.7086    0.0000 C   0  0  0  0  0  0  0  0  0  0  0  0
    4.9156   -4.5476    0.0000 C   0  0  0  0  0  0  0  0  0  0  0  0
    6.1511   -3.8379    0.0000 C   0  0  0  0  0  0  0  0  0  0  0  0
    0.7360   -0.6835    0.0000 C   0  0  0  0  0  0  0  0  0  0  0  0
    5.3362   -5.2574    0.0000 C   0  0  0  0  0  0  0  0  0  0  0  0
    6.5717   -4.5476    0.0000 C   0  0  0  0  0  0  0  0  0  0  0  0
    6.1511   -5.2574    0.0000 C   0  0  0  0  0  0  0  0  0  0  0  0
    0.0000   -0.9989    0.0000 C   0  0  0  0  0  0  0  0  0  0  0  0
  1 10  1  0  0  0  0
  1 19  1  0  0  0  0
  2 10  2  0  0  0  0
  3  4  1  0  0  0  0
  3  5  2  0  0  0  0
  4  8  1  0  0  0  0
  5  6  1  0  0  0  0
  5  9  1  0  0  0  0
  6  7  1  0  0  0  0
  6 11  2  0  0  0  0
  7 12  1  0  0  0  0
  7 13  2  0  0  0  0
  8  9  2  0  0  0  0
  8 10  1  0  0  0  0
 11 15  1  0  0  0  0
 12 14  1  0  0  0  0
 13 16  1  0  0  0  0
 14 17  2  0  0  0  0
 14 18  1  0  0  0  0
 15 16  2  0  0  0  0
 17 20  1  0  0  0  0
 18 21  2  0  0  0  0
 19 23  1  0  0  0  0
 20 22  2  0  0  0  0
 21 22  1  0  0  0  0
M  END
> <PUBCHEM_COMPOUND_ID_TYPE>
0

> <PUBCHEM_TOTAL_CHARGE>
0

> <PUBCHEM_SUBSTANCE_ID>
310934785

> <PUBCHEM_SUBSTANCE_VERSION>
1

> <PUBCHEM_EXT_DATASOURCE_NAME>
4488

> <PUBCHEM_EXT_DATASOURCE_REGID>
SCHEMBL16112288

> <PUBCHEM_SUBSTANCE_COMMENT>
InChI=1S/C19H18N2O2/c1-2-23-19(22)18-13-17(20-21-18)16-11-7-6-10-15(16)12-14-8-4-3-5-9-14/h3-11,13H,2,12H2,1H3,(H,20,21)
InChIKey=DTURPBRGIRLZDH-UHFFFAOYSA-N

> <PUBCHEM_SUBSTANCE_SYNONYM>
SCHEMBL16112288

> <PUBCHEM_XREF_EXT_ID>
SCHEMBL16112288

> <PUBCHEM_EXT_DATASOURCE_URL>
https://www.surechembl.org/

> <PUBCHEM_EXT_SUBSTANCE_URL>
https://www.surechembl.org/chemical/SCHEMBL16112288

> <PUBCHEM_CID_ASSOCIATIONS>
117602933  1

> <PUBCHEM_COORDINATE_TYPE>
1
3

$$$$
