310949690
  -OEChem-07211613022D

 28 30  0     0  0  0  0  0  0999 V2000
   -1.1035    0.6240    0.0000 S   0  0  0  0  0  0  0  0  0  0  0  0
   -1.5144    1.3394    0.0000 O   0  0  0  0  0  0  0  0  0  0  0  0
   -0.6773   -0.0913    0.0000 O   0  0  0  0  0  0  0  0  0  0  0  0
    1.0731    1.8721    0.0000 O   0  0  0  0  0  0  0  0  0  0  0  0
   -1.8189   -2.2679    0.0000 O   0  0  0  0  0  0  0  0  0  0  0  0
    2.5343    0.1827    0.0000 O   0  0  0  0  0  0  0  0  0  0  0  0
    3.2496   -1.0654    0.0000 O   0  0  0  0  0  0  0  0  0  0  0  0
   -0.3729    1.0502    0.0000 N   0  0  0  0  0  0  0  0  0  0  0  0
   -1.0883   -1.0350    0.0000 N   0  0  0  0  0  0  0  0  0  0  0  0
   -1.8189    0.2131    0.0000 C   0  0  0  0  0  0  0  0  0  0  0  0
   -1.8189   -0.6088    0.0000 C   0  0  0  0  0  0  0  0  0  0  0  0
   -2.5495    0.6088    0.0000 C   0  0  0  0  0  0  0  0  0  0  0  0
   -2.5190   -1.0350    0.0000 C   0  0  0  0  0  0  0  0  0  0  0  0
   -0.3729    1.8721    0.0000 C   0  0  0  0  0  0  0  0  0  0  0  0
    0.3577    0.6393    0.0000 C   0  0  0  0  0  0  0  0  0  0  0  0
   -3.2496    0.1979    0.0000 C   0  0  0  0  0  0  0  0  0  0  0  0
   -1.0883   -1.8417    0.0000 C   0  0  0  0  0  0  0  0  0  0  0  0
   -3.2496   -0.6393    0.0000 C   0  0  0  0  0  0  0  0  0  0  0  0
    0.3272    2.2831    0.0000 C   0  0  0  0  0  0  0  0  0  0  0  0
    1.0578    1.0502    0.0000 C   0  0  0  0  0  0  0  0  0  0  0  0
   -0.3729   -2.2679    0.0000 C   0  0  0  0  0  0  0  0  0  0  0  0
    0.3577   -1.8569    0.0000 C   0  0  0  0  0  0  0  0  0  0  0  0
    1.8037   -1.0502    0.0000 C   0  0  0  0  0  0  0  0  0  0  0  0
    0.3729   -1.0502    0.0000 C   0  0  0  0  0  0  0  0  0  0  0  0
    1.0883   -2.2831    0.0000 C   0  0  0  0  0  0  0  0  0  0  0  0
    1.0731   -0.6393    0.0000 C   0  0  0  0  0  0  0  0  0  0  0  0
    1.7884   -1.8873    0.0000 C   0  0  0  0  0  0  0  0  0  0  0  0
    2.5190   -0.6545    0.0000 C   0  0  0  0  0  0  0  0  0  0  0  0
  1  2  2  0  0  0  0
  1  3  2  0  0  0  0
  1  8  1  0  0  0  0
  1 10  1  0  0  0  0
  4 19  1  0  0  0  0
  4 20  1  0  0  0  0
  5 17  2  0  0  0  0
  6 28  2  0  0  0  0
  7 28  1  0  0  0  0
  8 14  1  0  0  0  0
  8 15  1  0  0  0  0
  9 11  1  0  0  0  0
  9 17  1  0  0  0  0
 10 11  1  0  0  0  0
 10 12  2  0  0  0  0
 11 13  2  0  0  0  0
 12 16  1  0  0  0  0
 13 18  1  0  0  0  0
 14 19  1  0  0  0  0
 15 20  1  0  0  0  0
 16 18  2  0  0  0  0
 17 21  1  0  0  0  0
 21 22  1  0  0  0  0
 22 24  2  0  0  0  0
 22 25  1  0  0  0  0
 23 26  2  0  0  0  0
 23 27  1  0  0  0  0
 23 28  1  0  0  0  0
 24 26  1  0  0  0  0
 25 27  2  0  0  0  0
M  END
> <PUBCHEM_COMPOUND_ID_TYPE>
0

> <PUBCHEM_TOTAL_CHARGE>
0

> <PUBCHEM_SUBSTANCE_ID>
310949690

> <PUBCHEM_SUBSTANCE_VERSION>
1

> <PUBCHEM_EXT_DATASOURCE_NAME>
4488

> <PUBCHEM_EXT_DATASOURCE_REGID>
SCHEMBL16127888

> <PUBCHEM_SUBSTANCE_COMMENT>
InChI=1S/C19H20N2O6S/c22-18(13-14-5-7-15(8-6-14)19(23)24)20-16-3-1-2-4-17(16)28(25,26)21-9-11-27-12-10-21/h1-8H,9-13H2,(H,20,22)(H,23,24)
InChIKey=GCKCFROKBSKCTH-UHFFFAOYSA-N

> <PUBCHEM_SUBSTANCE_SYNONYM>
SCHEMBL16127888

> <PUBCHEM_XREF_EXT_ID>
SCHEMBL16127888

> <PUBCHEM_EXT_DATASOURCE_URL>
https://www.surechembl.org/

> <PUBCHEM_EXT_SUBSTANCE_URL>
https://www.surechembl.org/chemical/SCHEMBL16127888

> <PUBCHEM_CID_ASSOCIATIONS>
117615053  1

> <PUBCHEM_COORDINATE_TYPE>
1
3

$$$$
