310944046
  -OEChem-07211613022D

 14 15  0     0  0  0  0  0  0999 V2000
    2.4583    0.7158    0.0000 O   0  0  0  0  0  0  0  0  0  0  0  0
   -1.1487   -0.5162    0.0000 N   0  0  0  0  0  0  0  0  0  0  0  0
   -1.9033   -0.1831    0.0000 N   0  0  0  0  0  0  0  0  0  0  0  0
   -2.4583   -0.7935    0.0000 N   0  0  0  0  0  0  0  0  0  0  0  0
   -2.0476   -1.5150    0.0000 N   0  0  0  0  0  0  0  0  0  0  0  0
   -0.4385   -0.1054    0.0000 C   0  0  0  0  0  0  0  0  0  0  0  0
    0.3053   -0.5162    0.0000 C   0  0  0  0  0  0  0  0  0  0  0  0
   -0.4162    0.7158    0.0000 C   0  0  0  0  0  0  0  0  0  0  0  0
   -1.2375   -1.3374    0.0000 C   0  0  0  0  0  0  0  0  0  0  0  0
    1.0155    0.7158    0.0000 C   0  0  0  0  0  0  0  0  0  0  0  0
    1.0155   -0.1054    0.0000 C   0  0  0  0  0  0  0  0  0  0  0  0
    0.2831    1.1154    0.0000 C   0  0  0  0  0  0  0  0  0  0  0  0
    0.3163   -1.3596    0.0000 C   0  0  0  0  0  0  0  0  0  0  0  0
    2.4583    1.5150    0.0000 C   0  0  0  0  0  0  0  0  0  0  0  0
  1 14  1  0  0  0  0
  2  3  1  0  0  0  0
  2  6  1  0  0  0  0
  2  9  1  0  0  0  0
  3  4  2  0  0  0  0
  4  5  1  0  0  0  0
  5  9  2  0  0  0  0
  6  7  1  0  0  0  0
  6  8  2  0  0  0  0
  7 11  2  0  0  0  0
  7 13  1  0  0  0  0
  8 12  1  0  0  0  0
 10 11  1  0  0  0  0
 10 12  2  0  0  0  0
 10 14  1  0  0  0  0
M  END
> <PUBCHEM_COMPOUND_ID_TYPE>
0

> <PUBCHEM_TOTAL_CHARGE>
0

> <PUBCHEM_SUBSTANCE_ID>
310944046

> <PUBCHEM_SUBSTANCE_VERSION>
1

> <PUBCHEM_EXT_DATASOURCE_NAME>
4488

> <PUBCHEM_EXT_DATASOURCE_REGID>
SCHEMBL16122119

> <PUBCHEM_SUBSTANCE_COMMENT>
InChI=1S/C9H10N4O/c1-7-4-8(5-14)2-3-9(7)13-6-10-11-12-13/h2-4,6,14H,5H2,1H3
InChIKey=QAFCUWKXJZQGOE-UHFFFAOYSA-N

> <PUBCHEM_SUBSTANCE_SYNONYM>
SCHEMBL16122119

> <PUBCHEM_XREF_EXT_ID>
SCHEMBL16122119

> <PUBCHEM_EXT_DATASOURCE_URL>
https://www.surechembl.org/

> <PUBCHEM_EXT_SUBSTANCE_URL>
https://www.surechembl.org/chemical/SCHEMBL16122119

> <PUBCHEM_CID_ASSOCIATIONS>
117610342  1

> <PUBCHEM_COORDINATE_TYPE>
1
3

$$$$
