310943833
  -OEChem-07211613022D

 34 38  0     1  0  0  0  0  0999 V2000
    2.1656   -2.1057    0.0000 F   0  0  0  0  0  0  0  0  0  0  0  0
    2.4813    0.7563    0.0000 O   0  0  0  0  0  0  0  0  0  0  0  0
    5.3869    0.6910    0.0000 O   0  0  0  0  0  0  0  0  0  0  0  0
    5.0821    2.1057    0.0000 O   0  0  0  0  0  0  0  0  0  0  0  0
   -1.2624   -1.6160    0.0000 O   0  0  0  0  0  0  0  0  0  0  0  0
    3.5042   -0.2558    0.0000 N   0  0  0  0  0  0  0  0  0  0  0  0
    0.4789   -0.6692    0.0000 N   0  0  3  0  0  0  0  0  0  0  0  0
   -2.6771   -0.7998    0.0000 N   0  0  0  0  0  0  0  0  0  0  0  0
   -4.0919    0.8216    0.0000 N   0  0  0  0  0  0  0  0  0  0  0  0
   -3.3845   -0.3972    0.0000 N   0  0  0  0  0  0  0  0  0  0  0  0
   -4.1789    1.6269    0.0000 N   0  0  0  0  0  0  0  0  0  0  0  0
   -4.9733    1.8011    0.0000 N   0  0  0  0  0  0  0  0  0  0  0  0
   -5.3869    1.0937    0.0000 N   0  0  0  0  0  0  0  0  0  0  0  0
    2.1874   -0.6584    0.0000 C   0  0  3  0  0  0  0  0  0  0  0  0
    2.6988   -0.0055    0.0000 C   0  0  0  0  0  0  0  0  0  0  0  0
    1.7520   -1.3984    0.0000 C   0  0  3  0  0  0  0  0  0  0  0  0
    2.7423   -1.3440    0.0000 C   0  0  0  0  0  0  0  0  0  0  0  0
    4.1571    0.2558    0.0000 C   0  0  0  0  0  0  0  0  0  0  0  0
    1.7629    0.0599    0.0000 C   0  0  0  0  0  0  0  0  0  0  0  0
    3.5260   -1.1481    0.0000 C   0  0  0  0  0  0  0  0  0  0  0  0
    0.9032   -1.3766    0.0000 C   0  0  0  0  0  0  0  0  0  0  0  0
    4.1245    1.0501    0.0000 C   0  0  0  0  0  0  0  0  0  0  0  0
    0.9032    0.0707    0.0000 C   0  0  0  0  0  0  0  0  0  0  0  0
    4.9515    0.0272    0.0000 C   0  0  0  0  0  0  0  0  0  0  0  0
    4.8645    1.3114    0.0000 C   0  0  0  0  0  0  0  0  0  0  0  0
   -0.5659   -0.3864    0.0000 C   0  0  0  0  0  0  0  0  0  0  0  0
   -1.2515   -0.7890    0.0000 C   0  0  3  0  0  0  0  0  0  0  0  0
   -1.9806   -0.3864    0.0000 C   0  0  0  0  0  0  0  0  0  0  0  0
   -1.9588    0.4299    0.0000 C   0  0  0  0  0  0  0  0  0  0  0  0
   -3.3736    0.4299    0.0000 C   0  0  0  0  0  0  0  0  0  0  0  0
    3.4171    1.4746    0.0000 C   0  0  0  0  0  0  0  0  0  0  0  0
   -2.6879    0.8216    0.0000 C   0  0  0  0  0  0  0  0  0  0  0  0
   -4.8318    0.4952    0.0000 C   0  0  0  0  0  0  0  0  0  0  0  0
   -1.2515    0.8434    0.0000 C   0  0  0  0  0  0  0  0  0  0  0  0
  1 16  1  0  0  0  0
  2 15  2  0  0  0  0
  3 24  1  0  0  0  0
  3 25  1  0  0  0  0
  4 25  2  0  0  0  0
 27  5  1  1  0  0  0
  6 15  1  0  0  0  0
  6 18  1  0  0  0  0
  6 20  1  0  0  0  0
  7 21  1  0  0  0  0
  7 23  1  0  0  0  0
  7 26  1  0  0  0  0
  8 10  1  0  0  0  0
  8 28  2  0  0  0  0
  9 11  1  0  0  0  0
  9 30  1  0  0  0  0
  9 33  1  0  0  0  0
 10 30  2  0  0  0  0
 11 12  2  0  0  0  0
 12 13  1  0  0  0  0
 13 33  2  0  0  0  0
 14 15  1  0  0  0  0
 14 16  1  0  0  0  0
 14 17  1  0  0  0  0
 14 19  1  0  0  0  0
 16 21  1  0  0  0  0
 17 20  1  0  0  0  0
 18 22  2  0  0  0  0
 18 24  1  0  0  0  0
 19 23  1  0  0  0  0
 22 25  1  0  0  0  0
 22 31  1  0  0  0  0
 26 27  1  0  0  0  0
 27 28  1  0  0  0  0
 28 29  1  0  0  0  0
 29 32  2  0  0  0  0
 29 34  1  0  0  0  0
 30 32  1  0  0  0  0
M  END
> <PUBCHEM_COMPOUND_ID_TYPE>
0

> <PUBCHEM_TOTAL_CHARGE>
0

> <PUBCHEM_SUBSTANCE_ID>
310943833

> <PUBCHEM_SUBSTANCE_VERSION>
1

> <PUBCHEM_EXT_DATASOURCE_NAME>
4488

> <PUBCHEM_EXT_DATASOURCE_REGID>
SCHEMBL16121904

> <PUBCHEM_SUBSTANCE_COMMENT>
InChI=1S/C21H25FN8O4/c1-12-7-17(30-11-23-26-27-30)24-25-18(12)15(31)8-28-5-3-21(16(22)9-28)4-6-29(20(21)33)14-10-34-19(32)13(14)2/h7,11,15-16,31H,3-6,8-10H2,1-2H3/t15-,16?,21?/m1/s1
InChIKey=HFNQPCHVWXHTIZ-IZINQKCZSA-N

> <PUBCHEM_SUBSTANCE_SYNONYM>
SCHEMBL16121904

> <PUBCHEM_XREF_EXT_ID>
SCHEMBL16121904

> <PUBCHEM_EXT_DATASOURCE_URL>
https://www.surechembl.org/

> <PUBCHEM_EXT_SUBSTANCE_URL>
https://www.surechembl.org/chemical/SCHEMBL16121904

> <PUBCHEM_CID_ASSOCIATIONS>
86270980  1

> <PUBCHEM_COORDINATE_TYPE>
1
3

> <PUBCHEM_BONDANNOTATIONS>
27  5  5

$$$$
