310941180
  -OEChem-07211613022D

 43 46  0     1  0  0  0  0  0999 V2000
    5.0875    0.6567    0.0000 O   0  0  0  0  0  0  0  0  0  0  0  0
    3.9539   -1.2926    0.0000 O   0  0  0  0  0  0  0  0  0  0  0  0
    1.7973    0.7673    0.0000 O   0  0  0  0  0  0  0  0  0  0  0  0
   -0.3594   -1.2926    0.0000 O   0  0  0  0  0  0  0  0  0  0  0  0
    0.3594    2.9101    0.0000 O   0  0  0  0  0  0  0  0  0  0  0  0
    3.9539   -2.9378    0.0000 O   0  0  0  0  0  0  0  0  0  0  0  0
   -2.5022    0.7673    0.0000 O   0  0  0  0  0  0  0  0  0  0  0  0
   -5.3777    0.7673    0.0000 O   0  0  0  0  0  0  0  0  0  0  0  0
    2.5161   -0.4631    0.0000 N   0  0  0  0  0  0  0  0  0  0  0  0
    0.3732   -0.0484    0.0000 N   0  0  0  0  0  0  0  0  0  0  0  0
   -1.7834   -0.4631    0.0000 N   0  0  0  0  0  0  0  0  0  0  0  0
   -3.9400   -0.0484    0.0000 N   0  0  0  0  0  0  0  0  0  0  0  0
    4.6588   -0.0069    0.0000 C   0  0  3  0  0  0  0  0  0  0  0  0
    3.9539   -0.4354    0.0000 C   0  0  0  0  0  0  0  0  0  0  0  0
    4.2856    0.6706    0.0000 C   0  0  0  0  0  0  0  0  0  0  0  0
    3.2350   -0.0208    0.0000 C   0  0  3  0  0  0  0  0  0  0  0  0
    5.3777   -0.4354    0.0000 C   0  0  0  0  0  0  0  0  0  0  0  0
    3.2350    1.2926    0.0000 C   0  0  0  0  0  0  0  0  0  0  0  0
    1.7973   -0.0484    0.0000 C   0  0  0  0  0  0  0  0  0  0  0  0
    1.0921   -0.4354    0.0000 C   0  0  3  0  0  0  0  0  0  0  0  0
    2.5299    1.7074    0.0000 C   0  0  0  0  0  0  0  0  0  0  0  0
    1.0783   -1.2788    0.0000 C   0  0  0  0  0  0  0  0  0  0  0  0
    1.8111    1.3064    0.0000 C   0  0  0  0  0  0  0  0  0  0  0  0
    2.5299    2.5230    0.0000 C   0  0  0  0  0  0  0  0  0  0  0  0
    1.8248   -1.6797    0.0000 C   0  0  0  0  0  0  0  0  0  0  0  0
   -0.3456   -0.4216    0.0000 C   0  0  0  0  0  0  0  0  0  0  0  0
   -1.0645   -0.0208    0.0000 C   0  0  3  0  0  0  0  0  0  0  0  0
    1.1059    1.6936    0.0000 C   0  0  0  0  0  0  0  0  0  0  0  0
    1.7973    2.9378    0.0000 C   0  0  0  0  0  0  0  0  0  0  0  0
    1.0921    2.5367    0.0000 C   0  0  0  0  0  0  0  0  0  0  0  0
    2.5161   -1.2788    0.0000 C   0  0  0  0  0  0  0  0  0  0  0  0
    1.8248   -2.5091    0.0000 C   0  0  0  0  0  0  0  0  0  0  0  0
    3.2488   -2.4953    0.0000 C   0  0  0  0  0  0  0  0  0  0  0  0
    3.2488   -1.6936    0.0000 C   0  0  0  0  0  0  0  0  0  0  0  0
    2.5299   -2.9101    0.0000 C   0  0  0  0  0  0  0  0  0  0  0  0
   -2.5022   -0.0346    0.0000 C   0  0  0  0  0  0  0  0  0  0  0  0
   -1.0645    0.7949    0.0000 C   0  0  0  0  0  0  0  0  0  0  0  0
   -3.2073   -0.4354    0.0000 C   0  0  0  0  0  0  0  0  0  0  0  0
   -3.9400    0.7949    0.0000 C   0  0  0  0  0  0  0  0  0  0  0  0
   -4.6450   -0.4354    0.0000 C   0  0  0  0  0  0  0  0  0  0  0  0
   -4.6727    1.2096    0.0000 C   0  0  0  0  0  0  0  0  0  0  0  0
   -5.3639   -0.0208    0.0000 C   0  0  0  0  0  0  0  0  0  0  0  0
    4.7003   -2.4953    0.0000 C   0  0  0  0  0  0  0  0  0  0  0  0
  1 13  1  0  0  0  0
  1 15  1  0  0  0  0
  2 14  2  0  0  0  0
  3 19  2  0  0  0  0
  4 26  2  0  0  0  0
  5 30  1  0  0  0  0
  6 33  1  0  0  0  0
  6 43  1  0  0  0  0
  7 36  2  0  0  0  0
  8 41  1  0  0  0  0
  8 42  1  0  0  0  0
 16  9  1  1  0  0  0
  9 19  1  0  0  0  0
 20 10  1  6  0  0  0
 10 26  1  0  0  0  0
 11 27  1  0  0  0  0
 11 36  1  0  0  0  0
 12 38  1  0  0  0  0
 12 39  1  0  0  0  0
 12 40  1  0  0  0  0
 13 14  1  1  0  0  0
 13 15  1  0  0  0  0
 13 17  1  6  0  0  0
 14 16  1  0  0  0  0
 16 18  1  0  0  0  0
 18 21  1  0  0  0  0
 19 20  1  0  0  0  0
 20 22  1  0  0  0  0
 21 23  2  0  0  0  0
 21 24  1  0  0  0  0
 22 25  1  0  0  0  0
 23 28  1  0  0  0  0
 24 29  2  0  0  0  0
 25 31  2  0  0  0  0
 25 32  1  0  0  0  0
 26 27  1  0  0  0  0
 27 37  1  1  0  0  0
 28 30  2  0  0  0  0
 29 30  1  0  0  0  0
 31 34  1  0  0  0  0
 32 35  2  0  0  0  0
 33 34  2  0  0  0  0
 33 35  1  0  0  0  0
 36 38  1  0  0  0  0
 39 41  1  0  0  0  0
 40 42  1  0  0  0  0
M  END
> <PUBCHEM_COMPOUND_ID_TYPE>
0

> <PUBCHEM_TOTAL_CHARGE>
0

> <PUBCHEM_SUBSTANCE_ID>
310941180

> <PUBCHEM_SUBSTANCE_VERSION>
1

> <PUBCHEM_EXT_DATASOURCE_NAME>
4488

> <PUBCHEM_EXT_DATASOURCE_REGID>
SCHEMBL16119140

> <PUBCHEM_SUBSTANCE_COMMENT>
InChI=1S/C31H40N4O8/c1-20(32-27(37)18-35-12-14-42-15-13-35)29(39)34-26(17-22-6-10-24(41-3)11-7-22)30(40)33-25(28(38)31(2)19-43-31)16-21-4-8-23(36)9-5-21/h4-11,20,25-26,36H,12-19H2,1-3H3,(H,32,37)(H,33,40)(H,34,39)/t20-,25-,26-,31+/m0/s1
InChIKey=NBCINFUHIFACSY-SGOONUSTSA-N

> <PUBCHEM_SUBSTANCE_SYNONYM>
SCHEMBL16119140

> <PUBCHEM_XREF_EXT_ID>
SCHEMBL16119140

> <PUBCHEM_EXT_DATASOURCE_URL>
https://www.surechembl.org/

> <PUBCHEM_EXT_SUBSTANCE_URL>
https://www.surechembl.org/chemical/SCHEMBL16119140

> <PUBCHEM_CID_ASSOCIATIONS>
117608054  1

> <PUBCHEM_COORDINATE_TYPE>
1
3

> <PUBCHEM_BONDANNOTATIONS>
20  10  6
13  14  5
13  17  6
27  37  5
16  9  5

$$$$
