310946905
  -OEChem-07211613022D

 32 36  0     0  0  0  0  0  0999 V2000
    2.1958   -9.6041    0.0000 O   0  0  0  0  0  0  0  0  0  0  0  0
   -0.2092   -2.4768    0.0000 O   0  0  0  0  0  0  0  0  0  0  0  0
   -1.4467   -6.0491    0.0000 N   0  0  0  0  0  0  0  0  0  0  0  0
   -1.9317   -6.7166    0.0000 N   0  0  0  0  0  0  0  0  0  0  0  0
    0.7668   -7.1291    0.0000 N   0  0  0  0  0  0  0  0  0  0  0  0
    0.0524   -8.3666    0.0000 N   0  0  0  0  0  0  0  0  0  0  0  0
   -1.0769   -8.7643    0.0000 N   0  0  0  0  0  0  0  0  0  0  0  0
   -2.0873   -9.7747    0.0000 N   0  0  0  0  0  0  0  0  0  0  0  0
   -0.6621   -7.1291    0.0000 C   0  0  0  0  0  0  0  0  0  0  0  0
   -0.6621   -6.3041    0.0000 C   0  0  0  0  0  0  0  0  0  0  0  0
   -1.4467   -7.3840    0.0000 C   0  0  0  0  0  0  0  0  0  0  0  0
    0.0524   -7.5416    0.0000 C   0  0  0  0  0  0  0  0  0  0  0  0
   -1.6603   -8.1809    0.0000 C   0  0  0  0  0  0  0  0  0  0  0  0
    0.0524   -5.8916    0.0000 C   0  0  0  0  0  0  0  0  0  0  0  0
   -1.8592   -5.3347    0.0000 C   0  0  0  0  0  0  0  0  0  0  0  0
    0.7668   -6.3041    0.0000 C   0  0  0  0  0  0  0  0  0  0  0  0
   -2.4571   -8.3944    0.0000 C   0  0  0  0  0  0  0  0  0  0  0  0
   -1.4467   -4.6202    0.0000 C   0  0  0  0  0  0  0  0  0  0  0  0
    0.7668   -8.7791    0.0000 C   0  0  0  0  0  0  0  0  0  0  0  0
   -2.6707   -9.1913    0.0000 C   0  0  0  0  0  0  0  0  0  0  0  0
   -1.2904   -9.5611    0.0000 C   0  0  0  0  0  0  0  0  0  0  0  0
   -0.6217   -4.6202    0.0000 C   0  0  0  0  0  0  0  0  0  0  0  0
   -1.8592   -3.9057    0.0000 C   0  0  0  0  0  0  0  0  0  0  0  0
    0.7668   -9.6041    0.0000 C   0  0  0  0  0  0  0  0  0  0  0  0
    1.4813   -8.3666    0.0000 C   0  0  0  0  0  0  0  0  0  0  0  0
   -0.2092   -3.9057    0.0000 C   0  0  0  0  0  0  0  0  0  0  0  0
   -1.4467   -3.1912    0.0000 C   0  0  0  0  0  0  0  0  0  0  0  0
   -0.6217   -3.1912    0.0000 C   0  0  0  0  0  0  0  0  0  0  0  0
   -3.4676   -9.4048    0.0000 C   0  0  0  0  0  0  0  0  0  0  0  0
    1.4813  -10.0166    0.0000 C   0  0  0  0  0  0  0  0  0  0  0  0
    2.1958   -8.7791    0.0000 C   0  0  0  0  0  0  0  0  0  0  0  0
   -0.6217   -1.7623    0.0000 C   0  0  0  0  0  0  0  0  0  0  0  0
  1 30  1  0  0  0  0
  1 31  1  0  0  0  0
  2 28  1  0  0  0  0
  2 32  1  0  0  0  0
  3  4  1  0  0  0  0
  3 10  1  0  0  0  0
  3 15  1  0  0  0  0
  4 11  2  0  0  0  0
  5 12  2  0  0  0  0
  5 16  1  0  0  0  0
  6 12  1  0  0  0  0
  6 19  1  0  0  0  0
  7 13  1  0  0  0  0
  7 21  2  0  0  0  0
  8 20  2  0  0  0  0
  8 21  1  0  0  0  0
  9 10  2  0  0  0  0
  9 11  1  0  0  0  0
  9 12  1  0  0  0  0
 10 14  1  0  0  0  0
 11 13  1  0  0  0  0
 13 17  2  0  0  0  0
 14 16  2  0  0  0  0
 15 18  1  0  0  0  0
 17 20  1  0  0  0  0
 18 22  2  0  0  0  0
 18 23  1  0  0  0  0
 19 24  1  0  0  0  0
 19 25  1  0  0  0  0
 20 29  1  0  0  0  0
 22 26  1  0  0  0  0
 23 27  2  0  0  0  0
 24 30  1  0  0  0  0
 25 31  1  0  0  0  0
 26 28  2  0  0  0  0
 27 28  1  0  0  0  0
M  END
> <PUBCHEM_COMPOUND_ID_TYPE>
0

> <PUBCHEM_TOTAL_CHARGE>
0

> <PUBCHEM_SUBSTANCE_ID>
310946905

> <PUBCHEM_SUBSTANCE_VERSION>
1

> <PUBCHEM_EXT_DATASOURCE_NAME>
4488

> <PUBCHEM_EXT_DATASOURCE_REGID>
SCHEMBL16125029

> <PUBCHEM_SUBSTANCE_COMMENT>
InChI=1S/C24H26N6O2/c1-16-13-20(27-15-26-16)23-22-21(7-10-25-24(22)28-18-8-11-32-12-9-18)30(29-23)14-17-3-5-19(31-2)6-4-17/h3-7,10,13,15,18H,8-9,11-12,14H2,1-2H3,(H,25,28)
InChIKey=ZORJIDPSNPNBMF-UHFFFAOYSA-N

> <PUBCHEM_SUBSTANCE_SYNONYM>
SCHEMBL16125029

> <PUBCHEM_XREF_EXT_ID>
SCHEMBL16125029

> <PUBCHEM_EXT_DATASOURCE_URL>
https://www.surechembl.org/

> <PUBCHEM_EXT_SUBSTANCE_URL>
https://www.surechembl.org/chemical/SCHEMBL16125029

> <PUBCHEM_CID_ASSOCIATIONS>
117612763  1

> <PUBCHEM_COORDINATE_TYPE>
1
3

$$$$
