310945268
  -OEChem-07211613022D

 33 38  0     0  0  0  0  0  0999 V2000
    3.1700    2.4625    0.0000 O   0  0  0  0  0  0  0  0  0  0  0  0
   -2.8576   -2.4625    0.0000 O   0  0  0  0  0  0  0  0  0  0  0  0
   -4.6770   -0.0551    0.0000 O   0  0  0  0  0  0  0  0  0  0  0  0
    1.6815    0.0919    0.0000 N   0  0  0  0  0  0  0  0  0  0  0  0
    3.8868    1.1945    0.0000 N   0  0  0  0  0  0  0  0  0  0  0  0
   -1.2588    1.0475    0.0000 N   0  0  0  0  0  0  0  0  0  0  0  0
   -1.5528   -1.8744    0.0000 N   0  0  0  0  0  0  0  0  0  0  0  0
   -3.5192   -0.9189    0.0000 N   0  0  0  0  0  0  0  0  0  0  0  0
    3.8868    0.3492    0.0000 C   0  0  0  0  0  0  0  0  0  0  0  0
    2.4533    1.1945    0.0000 C   0  0  0  0  0  0  0  0  0  0  0  0
    2.4350    0.3676    0.0000 C   0  0  0  0  0  0  0  0  0  0  0  0
    1.6631    1.4702    0.0000 C   0  0  0  0  0  0  0  0  0  0  0  0
    1.1853    0.7719    0.0000 C   0  0  0  0  0  0  0  0  0  0  0  0
    3.1884   -0.0551    0.0000 C   0  0  0  0  0  0  0  0  0  0  0  0
    3.1516    1.5988    0.0000 C   0  0  0  0  0  0  0  0  0  0  0  0
    0.3767    0.8821    0.0000 C   0  0  0  0  0  0  0  0  0  0  0  0
    4.6770    0.3308    0.0000 C   0  0  0  0  0  0  0  0  0  0  0  0
    4.2911   -0.3492    0.0000 C   0  0  0  0  0  0  0  0  0  0  0  0
    0.0460    1.6355    0.0000 C   0  0  0  0  0  0  0  0  0  0  0  0
    1.3507    2.2236    0.0000 C   0  0  0  0  0  0  0  0  0  0  0  0
   -0.1010    0.1837    0.0000 C   0  0  0  0  0  0  0  0  0  0  0  0
    0.5422    2.3155    0.0000 C   0  0  0  0  0  0  0  0  0  0  0  0
   -0.9280    0.2940    0.0000 C   0  0  0  0  0  0  0  0  0  0  0  0
   -0.7626    1.7274    0.0000 C   0  0  0  0  0  0  0  0  0  0  0  0
   -1.4058   -0.4227    0.0000 C   0  0  0  0  0  0  0  0  0  0  0  0
   -2.2144   -0.3308    0.0000 C   0  0  0  0  0  0  0  0  0  0  0  0
   -2.7106   -1.0108    0.0000 C   0  0  0  0  0  0  0  0  0  0  0  0
   -1.0751   -1.1761    0.0000 C   0  0  0  0  0  0  0  0  0  0  0  0
   -2.3798   -1.7642    0.0000 C   0  0  0  0  0  0  0  0  0  0  0  0
   -3.8500   -0.1470    0.0000 C   0  0  0  0  0  0  0  0  0  0  0  0
   -3.3722    0.5329    0.0000 C   0  0  0  0  0  0  0  0  0  0  0  0
   -3.6846   -2.3890    0.0000 C   0  0  0  0  0  0  0  0  0  0  0  0
   -3.7765    1.2864    0.0000 C   0  0  0  0  0  0  0  0  0  0  0  0
  1 15  2  0  0  0  0
  2 29  1  0  0  0  0
  2 32  1  0  0  0  0
  3 30  2  0  0  0  0
  4 11  1  0  0  0  0
  4 13  1  0  0  0  0
  5  9  1  0  0  0  0
  5 15  1  0  0  0  0
  6 23  2  0  0  0  0
  6 24  1  0  0  0  0
  7 28  2  0  0  0  0
  7 29  1  0  0  0  0
  8 27  1  0  0  0  0
  8 30  1  0  0  0  0
  9 14  1  0  0  0  0
  9 17  1  0  0  0  0
  9 18  1  0  0  0  0
 10 11  2  0  0  0  0
 10 12  1  0  0  0  0
 10 15  1  0  0  0  0
 11 14  1  0  0  0  0
 12 13  2  0  0  0  0
 12 20  1  0  0  0  0
 13 16  1  0  0  0  0
 16 19  1  0  0  0  0
 16 21  2  0  0  0  0
 17 18  1  0  0  0  0
 19 22  1  0  0  0  0
 19 24  2  0  0  0  0
 20 22  1  0  0  0  0
 21 23  1  0  0  0  0
 23 25  1  0  0  0  0
 25 26  2  0  0  0  0
 25 28  1  0  0  0  0
 26 27  1  0  0  0  0
 27 29  2  0  0  0  0
 30 31  1  0  0  0  0
 31 33  2  0  0  0  0
M  END
> <PUBCHEM_COMPOUND_ID_TYPE>
0

> <PUBCHEM_TOTAL_CHARGE>
0

> <PUBCHEM_SUBSTANCE_ID>
310945268

> <PUBCHEM_SUBSTANCE_VERSION>
1

> <PUBCHEM_EXT_DATASOURCE_NAME>
4488

> <PUBCHEM_EXT_DATASOURCE_REGID>
SCHEMBL16123362

> <PUBCHEM_SUBSTANCE_COMMENT>
InChI=1S/C25H23N5O3/c1-3-20(31)28-18-8-14(12-27-24(18)33-2)17-9-16-13(11-26-17)4-5-15-21-19(29-22(15)16)10-25(6-7-25)30-23(21)32/h3,8-9,11-12,29H,1,4-7,10H2,2H3,(H,28,31)(H,30,32)
InChIKey=SWBSWBWZAUQKFJ-UHFFFAOYSA-N

> <PUBCHEM_SUBSTANCE_SYNONYM>
SCHEMBL16123362

> <PUBCHEM_XREF_EXT_ID>
SCHEMBL16123362

> <PUBCHEM_EXT_DATASOURCE_URL>
https://www.surechembl.org/

> <PUBCHEM_EXT_SUBSTANCE_URL>
https://www.surechembl.org/chemical/SCHEMBL16123362

> <PUBCHEM_CID_ASSOCIATIONS>
86300020  1

> <PUBCHEM_COORDINATE_TYPE>
1
3

$$$$
