310944577
  -OEChem-07211613022D

 23 24  0     0  0  0  0  0  0999 V2000
   -2.7026   -1.0399    0.0000 Cl  0  0  0  0  0  0  0  0  0  0  0  0
   -1.8059    1.8619    0.0000 Cl  0  0  0  0  0  0  0  0  0  0  0  0
    2.4909    0.2055    0.0000 O   0  0  0  0  0  0  0  0  0  0  0  0
    1.7686    1.4509    0.0000 O   0  0  0  0  0  0  0  0  0  0  0  0
    0.3487    0.6165    0.0000 N   0  0  0  0  0  0  0  0  0  0  0  0
   -1.7934    0.2179    0.0000 C   0  0  0  0  0  0  0  0  0  0  0  0
   -2.5407    0.6289    0.0000 C   0  0  0  0  0  0  0  0  0  0  0  0
   -1.8184   -0.6165    0.0000 C   0  0  0  0  0  0  0  0  0  0  0  0
   -0.3737    0.2179    0.0000 C   0  0  0  0  0  0  0  0  0  0  0  0
   -0.3860   -0.6165    0.0000 C   0  0  0  0  0  0  0  0  0  0  0  0
   -1.0835    0.6165    0.0000 C   0  0  0  0  0  0  0  0  0  0  0  0
   -1.0835   -1.0399    0.0000 C   0  0  0  0  0  0  0  0  0  0  0  0
   -2.5283    1.4634    0.0000 C   0  0  0  0  0  0  0  0  0  0  0  0
   -3.2506    0.2179    0.0000 C   0  0  0  0  0  0  0  0  0  0  0  0
    0.3487   -1.0399    0.0000 C   0  0  0  0  0  0  0  0  0  0  0  0
   -3.2382    1.8619    0.0000 C   0  0  0  0  0  0  0  0  0  0  0  0
   -3.9480    0.6165    0.0000 C   0  0  0  0  0  0  0  0  0  0  0  0
   -3.9480    1.4509    0.0000 C   0  0  0  0  0  0  0  0  0  0  0  0
    1.0835    0.2055    0.0000 C   0  0  0  0  0  0  0  0  0  0  0  0
    1.7810    0.6041    0.0000 C   0  0  0  0  0  0  0  0  0  0  0  0
    0.3612   -1.8619    0.0000 C   0  0  0  0  0  0  0  0  0  0  0  0
    3.2257    0.6165    0.0000 C   0  0  0  0  0  0  0  0  0  0  0  0
    3.9480    0.2055    0.0000 C   0  0  0  0  0  0  0  0  0  0  0  0
  1  8  1  0  0  0  0
  2 13  1  0  0  0  0
  3 20  1  0  0  0  0
  3 22  1  0  0  0  0
  4 20  2  0  0  0  0
  5  9  1  0  0  0  0
  5 19  1  0  0  0  0
  6  7  1  0  0  0  0
  6  8  2  0  0  0  0
  6 11  1  0  0  0  0
  7 13  1  0  0  0  0
  7 14  2  0  0  0  0
  8 12  1  0  0  0  0
  9 10  1  0  0  0  0
  9 11  2  0  0  0  0
 10 12  2  0  0  0  0
 10 15  1  0  0  0  0
 13 16  2  0  0  0  0
 14 17  1  0  0  0  0
 15 21  1  0  0  0  0
 16 18  1  0  0  0  0
 17 18  2  0  0  0  0
 19 20  1  0  0  0  0
 22 23  1  0  0  0  0
M  END
> <PUBCHEM_COMPOUND_ID_TYPE>
0

> <PUBCHEM_TOTAL_CHARGE>
0

> <PUBCHEM_SUBSTANCE_ID>
310944577

> <PUBCHEM_SUBSTANCE_VERSION>
1

> <PUBCHEM_EXT_DATASOURCE_NAME>
4488

> <PUBCHEM_EXT_DATASOURCE_REGID>
SCHEMBL16122655

> <PUBCHEM_SUBSTANCE_COMMENT>
InChI=1S/C18H19Cl2NO2/c1-3-12-9-16(20)14(13-7-5-6-8-15(13)19)10-17(12)21-11-18(22)23-4-2/h5-10,21H,3-4,11H2,1-2H3
InChIKey=SBDPQFOGTAGADL-UHFFFAOYSA-N

> <PUBCHEM_SUBSTANCE_SYNONYM>
SCHEMBL16122655

> <PUBCHEM_XREF_EXT_ID>
SCHEMBL16122655

> <PUBCHEM_EXT_DATASOURCE_URL>
https://www.surechembl.org/

> <PUBCHEM_EXT_SUBSTANCE_URL>
https://www.surechembl.org/chemical/SCHEMBL16122655

> <PUBCHEM_CID_ASSOCIATIONS>
117610808  1

> <PUBCHEM_COORDINATE_TYPE>
1
3

$$$$
