310932411
  -OEChem-07211613022D

 15 15  0     0  0  0  0  0  0999 V2000
    0.0000   -1.2454    0.0000 F   0  0  0  0  0  0  0  0  0  0  0  0
    2.8645   -3.7363    0.0000 O   0  0  0  0  0  0  0  0  0  0  0  0
    2.1422   -4.9818    0.0000 O   0  0  0  0  0  0  0  0  0  0  0  0
    0.7224    0.0000    0.0000 N   0  0  0  0  0  0  0  0  0  0  0  0
    1.4198   -2.9143    0.0000 C   0  0  0  0  0  0  0  0  0  0  0  0
    2.1422   -2.4909    0.0000 C   0  0  0  0  0  0  0  0  0  0  0  0
    1.4198   -1.2454    0.0000 C   0  0  0  0  0  0  0  0  0  0  0  0
    0.7224   -1.6689    0.0000 C   0  0  0  0  0  0  0  0  0  0  0  0
    0.7224   -2.4909    0.0000 C   0  0  0  0  0  0  0  0  0  0  0  0
    2.1422   -1.6689    0.0000 C   0  0  0  0  0  0  0  0  0  0  0  0
    1.4198   -3.7363    0.0000 C   0  0  0  0  0  0  0  0  0  0  0  0
    2.1422   -4.1598    0.0000 C   0  0  0  0  0  0  0  0  0  0  0  0
    1.4198   -0.3985    0.0000 C   0  0  0  0  0  0  0  0  0  0  0  0
    2.8645   -2.8894    0.0000 C   0  0  0  0  0  0  0  0  0  0  0  0
    3.5869   -4.1598    0.0000 C   0  0  0  0  0  0  0  0  0  0  0  0
  1  8  1  0  0  0  0
  2 12  1  0  0  0  0
  2 15  1  0  0  0  0
  3 12  2  0  0  0  0
  4 13  3  0  0  0  0
  5  6  1  0  0  0  0
  5  9  2  0  0  0  0
  5 11  1  0  0  0  0
  6 10  2  0  0  0  0
  6 14  1  0  0  0  0
  7  8  2  0  0  0  0
  7 10  1  0  0  0  0
  7 13  1  0  0  0  0
  8  9  1  0  0  0  0
 11 12  1  0  0  0  0
M  END
> <PUBCHEM_COMPOUND_ID_TYPE>
0

> <PUBCHEM_TOTAL_CHARGE>
0

> <PUBCHEM_SUBSTANCE_ID>
310932411

> <PUBCHEM_SUBSTANCE_VERSION>
1

> <PUBCHEM_EXT_DATASOURCE_NAME>
4488

> <PUBCHEM_EXT_DATASOURCE_REGID>
SCHEMBL16109779

> <PUBCHEM_SUBSTANCE_COMMENT>
InChI=1S/C11H10FNO2/c1-7-3-9(6-13)10(12)4-8(7)5-11(14)15-2/h3-4H,5H2,1-2H3
InChIKey=QCXSEJXWCHXILS-UHFFFAOYSA-N

> <PUBCHEM_SUBSTANCE_SYNONYM>
SCHEMBL16109779

> <PUBCHEM_XREF_EXT_ID>
SCHEMBL16109779

> <PUBCHEM_EXT_DATASOURCE_URL>
https://www.surechembl.org/

> <PUBCHEM_EXT_SUBSTANCE_URL>
https://www.surechembl.org/chemical/SCHEMBL16109779

> <PUBCHEM_CID_ASSOCIATIONS>
117600964  1

> <PUBCHEM_COORDINATE_TYPE>
1
3

$$$$
