310949081
  -OEChem-07211613022D

 25 26  0     0  0  0  0  0  0999 V2000
    2.5909    1.5137    0.0000 Cl  0  0  0  0  0  0  0  0  0  0  0  0
   -0.3239    1.4714    0.0000 F   0  0  0  0  0  0  0  0  0  0  0  0
   -0.9998   -2.3304    0.0000 F   0  0  0  0  0  0  0  0  0  0  0  0
    2.6331   -1.0209    0.0000 O   0  0  0  0  0  0  0  0  0  0  0  0
    3.3513    0.2605    0.0000 O   0  0  0  0  0  0  0  0  0  0  0  0
    1.1546   -0.1900    0.0000 N   0  0  0  0  0  0  0  0  0  0  0  0
    1.1124    2.3304    0.0000 N   0  0  0  0  0  0  0  0  0  0  0  0
    0.3942    0.1760    0.0000 C   0  0  0  0  0  0  0  0  0  0  0  0
    0.3942    1.0349    0.0000 C   0  0  0  0  0  0  0  0  0  0  0  0
    1.8586    0.2042    0.0000 C   0  0  0  0  0  0  0  0  0  0  0  0
    1.0983    1.4574    0.0000 C   0  0  0  0  0  0  0  0  0  0  0  0
    1.8586    1.0631    0.0000 C   0  0  0  0  0  0  0  0  0  0  0  0
   -0.3098   -0.2323    0.0000 C   0  0  0  0  0  0  0  0  0  0  0  0
    2.5909   -0.2042    0.0000 C   0  0  0  0  0  0  0  0  0  0  0  0
   -0.3098   -1.0912    0.0000 C   0  0  0  0  0  0  0  0  0  0  0  0
   -1.0420    0.1479    0.0000 C   0  0  0  0  0  0  0  0  0  0  0  0
   -1.0138   -1.5137    0.0000 C   0  0  0  0  0  0  0  0  0  0  0  0
   -1.7741   -1.1195    0.0000 C   0  0  0  0  0  0  0  0  0  0  0  0
   -1.7741   -0.2886    0.0000 C   0  0  0  0  0  0  0  0  0  0  0  0
   -2.4782   -1.5277    0.0000 C   0  0  0  0  0  0  0  0  0  0  0  0
    3.3794   -1.4292    0.0000 C   0  0  0  0  0  0  0  0  0  0  0  0
   -3.0274   -1.6967    0.0000 C   0  0  0  0  0  0  0  0  0  0  0  0
   -3.0555   -2.1333    0.0000 C   0  0  0  0  0  0  0  0  0  0  0  0
   -3.3513   -1.7812    0.0000 C   0  0  0  0  0  0  0  0  0  0  0  0
   -3.3794   -2.1896    0.0000 C   0  0  0  0  0  0  0  0  0  0  0  0
  1 12  1  0  0  0  0
  2  9  1  0  0  0  0
  3 17  1  0  0  0  0
  4 14  1  0  0  0  0
  4 21  1  0  0  0  0
  5 14  2  0  0  0  0
  6  8  1  0  0  0  0
  6 10  2  0  0  0  0
  7 11  1  0  0  0  0
  8  9  2  0  0  0  0
  8 13  1  0  0  0  0
  9 11  1  0  0  0  0
 10 12  1  0  0  0  0
 10 14  1  0  0  0  0
 11 12  2  0  0  0  0
 13 15  1  0  0  0  0
 13 16  2  0  0  0  0
 15 17  2  0  0  0  0
 16 19  1  0  0  0  0
 17 18  1  0  0  0  0
 18 19  2  0  0  0  0
 18 20  1  0  0  0  0
 20 22  3  0  0  0  0
 22 23  1  0  0  0  0
 23 24  1  0  0  0  0
 24 25  1  0  0  0  0
M  END
> <PUBCHEM_COMPOUND_ID_TYPE>
0

> <PUBCHEM_TOTAL_CHARGE>
0

> <PUBCHEM_SUBSTANCE_ID>
310949081

> <PUBCHEM_SUBSTANCE_VERSION>
1

> <PUBCHEM_EXT_DATASOURCE_NAME>
4488

> <PUBCHEM_EXT_DATASOURCE_REGID>
SCHEMBL16127271

> <PUBCHEM_SUBSTANCE_COMMENT>
InChI=1S/C18H15ClF2N2O2/c1-3-4-5-6-10-7-8-11(9-12(10)20)16-14(21)15(22)13(19)17(23-16)18(24)25-2/h7-9H,3-4H2,1-2H3,(H2,22,23)
InChIKey=UPAINIMLZOTPMF-UHFFFAOYSA-N

> <PUBCHEM_SUBSTANCE_SYNONYM>
SCHEMBL16127271

> <PUBCHEM_XREF_EXT_ID>
SCHEMBL16127271

> <PUBCHEM_EXT_DATASOURCE_URL>
https://www.surechembl.org/

> <PUBCHEM_EXT_SUBSTANCE_URL>
https://www.surechembl.org/chemical/SCHEMBL16127271

> <PUBCHEM_CID_ASSOCIATIONS>
117614586  1

> <PUBCHEM_COORDINATE_TYPE>
1
3

$$$$
