310943270
  -OEChem-07211613022D

 38 43  0     0  0  0  0  0  0999 V2000
   -2.7854   -2.8690    0.0000 O   0  0  0  0  0  0  0  0  0  0  0  0
    4.4140    2.4429    0.0000 O   0  0  0  0  0  0  0  0  0  0  0  0
   -5.6316    2.4429    0.0000 O   0  0  0  0  0  0  0  0  0  0  0  0
    1.4764    2.4429    0.0000 O   0  0  0  0  0  0  0  0  0  0  0  0
   -2.7854   -0.8599    0.0000 N   0  0  0  0  0  0  0  0  0  0  0  0
   -3.5008    0.3730    0.0000 N   0  0  0  0  0  0  0  0  0  0  0  0
   -4.2008    1.6210    0.0000 N   0  0  0  0  0  0  0  0  0  0  0  0
   -0.6393    2.8690    0.0000 N   0  0  0  0  0  0  0  0  0  0  0  0
    0.7762    1.2100    0.0000 N   0  0  0  0  0  0  0  0  0  0  0  0
    5.0837    1.2861    0.0000 N   0  0  0  0  0  0  0  0  0  0  0  0
    5.6316    1.8950    0.0000 N   0  0  0  0  0  0  0  0  0  0  0  0
   -2.0700    1.2100    0.0000 C   0  0  0  0  0  0  0  0  0  0  0  0
   -2.7701   -0.0228    0.0000 C   0  0  0  0  0  0  0  0  0  0  0  0
   -1.3699    1.6210    0.0000 C   0  0  0  0  0  0  0  0  0  0  0  0
   -3.4856    1.2100    0.0000 C   0  0  0  0  0  0  0  0  0  0  0  0
   -2.0852    0.3730    0.0000 C   0  0  0  0  0  0  0  0  0  0  0  0
   -2.7854    1.6210    0.0000 C   0  0  0  0  0  0  0  0  0  0  0  0
   -1.3546    2.4581    0.0000 C   0  0  0  0  0  0  0  0  0  0  0  0
   -0.6545    1.2100    0.0000 C   0  0  0  0  0  0  0  0  0  0  0  0
   -3.3637   -1.4536    0.0000 C   0  0  0  0  0  0  0  0  0  0  0  0
   -2.2069   -1.4383    0.0000 C   0  0  0  0  0  0  0  0  0  0  0  0
    0.0609    1.6210    0.0000 C   0  0  0  0  0  0  0  0  0  0  0  0
   -2.7701   -2.0168    0.0000 C   0  0  0  0  0  0  0  0  0  0  0  0
    0.0761    2.4429    0.0000 C   0  0  0  0  0  0  0  0  0  0  0  0
    1.4764    1.6058    0.0000 C   0  0  0  0  0  0  0  0  0  0  0  0
    2.2069    1.2100    0.0000 C   0  0  0  0  0  0  0  0  0  0  0  0
    3.6073    1.2100    0.0000 C   0  0  0  0  0  0  0  0  0  0  0  0
   -4.2008    2.4429    0.0000 C   0  0  0  0  0  0  0  0  0  0  0  0
   -4.9163    1.2100    0.0000 C   0  0  0  0  0  0  0  0  0  0  0  0
    2.9071    1.6058    0.0000 C   0  0  0  0  0  0  0  0  0  0  0  0
    4.3378    1.6210    0.0000 C   0  0  0  0  0  0  0  0  0  0  0  0
   -2.0852    2.8538    0.0000 C   0  0  0  0  0  0  0  0  0  0  0  0
    2.2069    0.3730    0.0000 C   0  0  0  0  0  0  0  0  0  0  0  0
    3.6226    0.3882    0.0000 C   0  0  0  0  0  0  0  0  0  0  0  0
   -4.9163    2.8690    0.0000 C   0  0  0  0  0  0  0  0  0  0  0  0
   -5.6316    1.6210    0.0000 C   0  0  0  0  0  0  0  0  0  0  0  0
    2.9223   -0.0228    0.0000 C   0  0  0  0  0  0  0  0  0  0  0  0
    5.2358    2.6103    0.0000 C   0  0  0  0  0  0  0  0  0  0  0  0
  1 23  1  0  0  0  0
  2 31  1  0  0  0  0
  2 38  1  0  0  0  0
  3 35  1  0  0  0  0
  3 36  1  0  0  0  0
  4 25  2  0  0  0  0
  5 13  1  0  0  0  0
  5 20  1  0  0  0  0
  5 21  1  0  0  0  0
  6 13  1  0  0  0  0
  6 15  2  0  0  0  0
  7 15  1  0  0  0  0
  7 28  1  0  0  0  0
  7 29  1  0  0  0  0
  8 18  2  0  0  0  0
  8 24  1  0  0  0  0
  9 22  1  0  0  0  0
  9 25  1  0  0  0  0
 10 11  1  0  0  0  0
 10 31  2  0  0  0  0
 11 38  2  0  0  0  0
 12 14  1  0  0  0  0
 12 16  1  0  0  0  0
 12 17  2  0  0  0  0
 13 16  2  0  0  0  0
 14 18  1  0  0  0  0
 14 19  2  0  0  0  0
 15 17  1  0  0  0  0
 18 32  1  0  0  0  0
 19 22  1  0  0  0  0
 20 23  1  0  0  0  0
 21 23  1  0  0  0  0
 22 24  2  0  0  0  0
 25 26  1  0  0  0  0
 26 30  1  0  0  0  0
 26 33  2  0  0  0  0
 27 30  2  0  0  0  0
 27 31  1  0  0  0  0
 27 34  1  0  0  0  0
 28 35  1  0  0  0  0
 29 36  1  0  0  0  0
 33 37  1  0  0  0  0
 34 37  2  0  0  0  0
M  END
> <PUBCHEM_COMPOUND_ID_TYPE>
0

> <PUBCHEM_TOTAL_CHARGE>
0

> <PUBCHEM_SUBSTANCE_ID>
310943270

> <PUBCHEM_SUBSTANCE_VERSION>
1

> <PUBCHEM_EXT_DATASOURCE_NAME>
4488

> <PUBCHEM_EXT_DATASOURCE_REGID>
SCHEMBL16121332

> <PUBCHEM_SUBSTANCE_COMMENT>
InChI=1S/C27H27N7O4/c1-17-23(20-10-24(33-5-7-37-8-6-33)31-25(11-20)34-14-22(35)15-34)12-21(13-28-17)30-26(36)18-3-2-4-19(9-18)27-32-29-16-38-27/h2-4,9-13,16,22,35H,5-8,14-15H2,1H3,(H,30,36)
InChIKey=NUVUVVDOSUXUQZ-UHFFFAOYSA-N

> <PUBCHEM_SUBSTANCE_SYNONYM>
SCHEMBL16121332

> <PUBCHEM_XREF_EXT_ID>
SCHEMBL16121332

> <PUBCHEM_EXT_DATASOURCE_URL>
https://www.surechembl.org/

> <PUBCHEM_EXT_SUBSTANCE_URL>
https://www.surechembl.org/chemical/SCHEMBL16121332

> <PUBCHEM_CID_ASSOCIATIONS>
117609695  1

> <PUBCHEM_COORDINATE_TYPE>
1
3

$$$$
