310933071
  -OEChem-07211613022D

 31 34  0     0  0  0  0  0  0999 V2000
    7.9317   -0.8431    0.0000 F   0  0  0  0  0  0  0  0  0  0  0  0
    5.5584   -2.1859    0.0000 O   0  0  0  0  0  0  0  0  0  0  0  0
    1.4365   -3.9034    0.0000 O   0  0  0  0  0  0  0  0  0  0  0  0
    5.2149   -3.5911    0.0000 N   0  0  0  0  0  0  0  0  0  0  0  0
    5.5897   -4.3094    0.0000 N   0  0  0  0  0  0  0  0  0  0  0  0
    1.6238   -2.4670    0.0000 N   0  0  0  0  0  0  0  0  0  0  0  0
    3.9347   -4.1532    0.0000 N   0  0  0  0  0  0  0  0  0  0  0  0
    0.8119   -0.6557    0.0000 N   0  0  0  0  0  0  0  0  0  0  0  0
    9.3682   -0.8431    0.0000 N   0  0  0  0  0  0  0  0  0  0  0  0
    6.4953   -3.3101    0.0000 C   0  0  0  0  0  0  0  0  0  0  0  0
    5.7458   -2.9978    0.0000 C   0  0  0  0  0  0  0  0  0  0  0  0
    7.2135   -2.9041    0.0000 C   0  0  0  0  0  0  0  0  0  0  0  0
    4.4031   -3.4974    0.0000 C   0  0  0  0  0  0  0  0  0  0  0  0
    6.4016   -4.1220    0.0000 C   0  0  0  0  0  0  0  0  0  0  0  0
    7.9317   -3.3101    0.0000 C   0  0  0  0  0  0  0  0  0  0  0  0
    2.7792   -3.3413    0.0000 C   0  0  0  0  0  0  0  0  0  0  0  0
    1.9361   -3.2476    0.0000 C   0  0  0  0  0  0  0  0  0  0  0  0
    7.2135   -2.0922    0.0000 C   0  0  0  0  0  0  0  0  0  0  0  0
    1.1554   -1.4052    0.0000 C   0  0  0  0  0  0  0  0  0  0  0  0
    4.0596   -2.7480    0.0000 C   0  0  0  0  0  0  0  0  0  0  0  0
    7.9317   -1.6551    0.0000 C   0  0  0  0  0  0  0  0  0  0  0  0
    8.6500   -2.0922    0.0000 C   0  0  0  0  0  0  0  0  0  0  0  0
    0.8744   -2.1859    0.0000 C   0  0  0  0  0  0  0  0  0  0  0  0
    1.9361   -1.6863    0.0000 C   0  0  0  0  0  0  0  0  0  0  0  0
    3.0915   -4.0908    0.0000 C   0  0  0  0  0  0  0  0  0  0  0  0
    3.2476   -2.6856    0.0000 C   0  0  0  0  0  0  0  0  0  0  0  0
    8.6500   -2.9041    0.0000 C   0  0  0  0  0  0  0  0  0  0  0  0
    7.9317   -4.1532    0.0000 C   0  0  0  0  0  0  0  0  0  0  0  0
    9.3682   -1.6551    0.0000 C   0  0  0  0  0  0  0  0  0  0  0  0
    1.3116    0.0000    0.0000 C   0  0  0  0  0  0  0  0  0  0  0  0
    0.0000   -0.5933    0.0000 C   0  0  0  0  0  0  0  0  0  0  0  0
  1 21  1  0  0  0  0
  2 11  1  0  0  0  0
  3 17  2  0  0  0  0
  4  5  1  0  0  0  0
  4 11  1  0  0  0  0
  4 13  1  0  0  0  0
  5 14  2  0  0  0  0
  6 17  1  0  0  0  0
  6 23  1  0  0  0  0
  6 24  1  0  0  0  0
  7 13  1  0  0  0  0
  7 25  2  0  0  0  0
  8 19  1  0  0  0  0
  8 30  1  0  0  0  0
  8 31  1  0  0  0  0
  9 29  3  0  0  0  0
 10 11  2  0  0  0  0
 10 12  1  0  0  0  0
 10 14  1  0  0  0  0
 12 15  1  0  0  0  0
 12 18  2  0  0  0  0
 13 20  2  0  0  0  0
 15 27  2  0  0  0  0
 15 28  1  0  0  0  0
 16 17  1  0  0  0  0
 16 25  1  0  0  0  0
 16 26  2  0  0  0  0
 18 21  1  0  0  0  0
 19 23  1  0  0  0  0
 19 24  1  0  0  0  0
 20 26  1  0  0  0  0
 21 22  2  0  0  0  0
 22 27  1  0  0  0  0
 22 29  1  0  0  0  0
M  END
> <PUBCHEM_COMPOUND_ID_TYPE>
0

> <PUBCHEM_TOTAL_CHARGE>
0

> <PUBCHEM_SUBSTANCE_ID>
310933071

> <PUBCHEM_SUBSTANCE_VERSION>
1

> <PUBCHEM_EXT_DATASOURCE_NAME>
4488

> <PUBCHEM_EXT_DATASOURCE_REGID>
SCHEMBL16110473

> <PUBCHEM_SUBSTANCE_COMMENT>
InChI=1S/C22H21FN6O2/c1-13-6-15(8-24)19(23)7-17(13)18-10-26-29(22(18)31)20-5-4-14(9-25-20)21(30)28-11-16(12-28)27(2)3/h4-7,9-10,16,31H,11-12H2,1-3H3
InChIKey=IUWFEMWYVVREPR-UHFFFAOYSA-N

> <PUBCHEM_SUBSTANCE_SYNONYM>
SCHEMBL16110473

> <PUBCHEM_XREF_EXT_ID>
SCHEMBL16110473

> <PUBCHEM_EXT_DATASOURCE_URL>
https://www.surechembl.org/

> <PUBCHEM_EXT_SUBSTANCE_URL>
https://www.surechembl.org/chemical/SCHEMBL16110473

> <PUBCHEM_CID_ASSOCIATIONS>
117601531  1

> <PUBCHEM_COORDINATE_TYPE>
1
3

$$$$
