310932244
  -OEChem-07211613022D

 30 33  0     1  0  0  0  0  0999 V2000
    0.0000   -1.3086    0.0000 Cl  0  0  0  0  0  0  0  0  0  0  0  0
    5.2344   -3.1862    0.0000 Cl  0  0  0  0  0  0  0  0  0  0  0  0
    6.0310   -4.6086    0.0000 F   0  0  0  0  0  0  0  0  0  0  0  0
    6.0594   -0.3129    0.0000 O   0  0  0  0  0  0  0  0  0  0  0  0
    2.6741   -2.7310    0.0000 N   0  0  0  0  0  0  0  0  0  0  0  0
    3.4422   -3.0439    0.0000 N   0  0  0  0  0  0  0  0  0  0  0  0
    4.8077   -0.9957    0.0000 N   0  0  0  0  0  0  0  0  0  0  0  0
    6.0594   -1.7353    0.0000 N   0  0  0  0  0  0  0  0  0  0  0  0
    7.2827   -1.0241    0.0000 N   0  0  0  0  0  0  0  0  0  0  0  0
    0.9673   -0.2560    0.0000 N   0  0  0  0  0  0  0  0  0  0  0  0
    3.5845   -1.7069    0.0000 C   0  0  0  0  0  0  0  0  0  0  0  0
    2.7879   -1.9060    0.0000 C   0  0  0  0  0  0  0  0  0  0  0  0
    4.0112   -2.4465    0.0000 C   0  0  0  0  0  0  0  0  0  0  0  0
    2.1621   -1.3655    0.0000 C   0  0  0  0  0  0  0  0  0  0  0  0
    4.8362   -2.4465    0.0000 C   0  0  0  0  0  0  0  0  0  0  0  0
    4.0112   -0.9957    0.0000 C   0  0  0  0  0  0  0  0  0  0  0  0
    5.2344   -1.7353    0.0000 C   0  0  0  0  0  0  0  0  0  0  0  0
    1.3940   -1.6500    0.0000 C   0  0  0  0  0  0  0  0  0  0  0  0
    2.3327   -0.5690    0.0000 C   0  0  0  0  0  0  0  0  0  0  0  0
    0.7965   -1.0526    0.0000 C   0  0  0  0  0  0  0  0  0  0  0  0
    6.4861   -1.0241    0.0000 C   0  0  0  0  0  0  0  0  0  0  0  0
    7.2827   -2.4750    0.0000 C   0  0  0  0  0  0  0  0  0  0  0  0
    7.7094   -1.7638    0.0000 C   0  0  3  0  0  0  0  0  0  0  0  0
    1.7353    0.0000    0.0000 C   0  0  0  0  0  0  0  0  0  0  0  0
    6.0594   -3.1862    0.0000 C   0  0  0  0  0  0  0  0  0  0  0  0
    6.4861   -2.4750    0.0000 C   0  0  0  0  0  0  0  0  0  0  0  0
    6.4577   -3.8973    0.0000 C   0  0  0  0  0  0  0  0  0  0  0  0
    7.7094   -3.1862    0.0000 C   0  0  0  0  0  0  0  0  0  0  0  0
    7.2827   -3.8973    0.0000 C   0  0  0  0  0  0  0  0  0  0  0  0
    8.5344   -1.7638    0.0000 C   0  0  0  0  0  0  0  0  0  0  0  0
  1 20  1  0  0  0  0
  2 25  1  0  0  0  0
  3 27  1  0  0  0  0
  4 21  2  0  0  0  0
  5  6  1  0  0  0  0
  5 12  2  0  0  0  0
  6 13  1  0  0  0  0
  7 16  1  0  0  0  0
  7 17  2  0  0  0  0
  8 17  1  0  0  0  0
  8 21  1  0  0  0  0
  9 21  1  0  0  0  0
  9 23  1  0  0  0  0
 10 20  1  0  0  0  0
 10 24  2  0  0  0  0
 11 12  1  0  0  0  0
 11 13  1  0  0  0  0
 11 16  2  0  0  0  0
 12 14  1  0  0  0  0
 13 15  2  0  0  0  0
 14 18  1  0  0  0  0
 14 19  2  0  0  0  0
 15 17  1  0  0  0  0
 18 20  2  0  0  0  0
 19 24  1  0  0  0  0
 22 23  1  0  0  0  0
 22 26  1  0  0  0  0
 22 28  2  0  0  0  0
 23 30  1  6  0  0  0
 25 26  2  0  0  0  0
 25 27  1  0  0  0  0
 27 29  2  0  0  0  0
 28 29  1  0  0  0  0
M  END
> <PUBCHEM_COMPOUND_ID_TYPE>
0

> <PUBCHEM_TOTAL_CHARGE>
0

> <PUBCHEM_SUBSTANCE_ID>
310932244

> <PUBCHEM_SUBSTANCE_VERSION>
1

> <PUBCHEM_EXT_DATASOURCE_NAME>
4488

> <PUBCHEM_EXT_DATASOURCE_REGID>
SCHEMBL16109602

> <PUBCHEM_SUBSTANCE_COMMENT>
InChI=1S/C20H15Cl2FN6O/c1-10(11-2-3-15(23)14(21)6-11)26-20(30)27-18-8-16-13(9-25-18)19(29-28-16)12-4-5-24-17(22)7-12/h2-10H,1H3,(H,28,29)(H2,25,26,27,30)/t10-/m1/s1
InChIKey=ZRZJSHVNEJXPMC-SNVBAGLBSA-N

> <PUBCHEM_SUBSTANCE_SYNONYM>
SCHEMBL16109602

> <PUBCHEM_XREF_EXT_ID>
SCHEMBL16109602

> <PUBCHEM_EXT_DATASOURCE_URL>
https://www.surechembl.org/

> <PUBCHEM_EXT_SUBSTANCE_URL>
https://www.surechembl.org/chemical/SCHEMBL16109602

> <PUBCHEM_CID_ASSOCIATIONS>
71554863  1

> <PUBCHEM_COORDINATE_TYPE>
1
3

> <PUBCHEM_BONDANNOTATIONS>
23  30  6

$$$$
