310949740
  -OEChem-07211613022D

 24 25  0     0  0  0  0  0  0999 V2000
   -0.1999   -1.4058    0.0000 O   0  0  0  0  0  0  0  0  0  0  0  0
   -1.8787    1.4058    0.0000 O   0  0  0  0  0  0  0  0  0  0  0  0
   -0.6262    0.7128    0.0000 O   0  0  0  0  0  0  0  0  0  0  0  0
    4.7967    1.4058    0.0000 O   0  0  0  0  0  0  0  0  0  0  0  0
   -0.2132   -0.0067    0.0000 N   0  0  0  0  0  0  0  0  0  0  0  0
   -4.7967   -0.7128    0.0000 N   0  0  0  0  0  0  0  0  0  0  0  0
   -1.4657   -0.6995    0.0000 C   0  0  0  0  0  0  0  0  0  0  0  0
   -1.8920   -0.0067    0.0000 C   0  0  0  0  0  0  0  0  0  0  0  0
   -0.6396   -0.6995    0.0000 C   0  0  0  0  0  0  0  0  0  0  0  0
   -2.7048   -0.0067    0.0000 C   0  0  0  0  0  0  0  0  0  0  0  0
   -1.8787   -1.4058    0.0000 C   0  0  0  0  0  0  0  0  0  0  0  0
   -3.1312   -0.6995    0.0000 C   0  0  0  0  0  0  0  0  0  0  0  0
   -1.4524    0.6995    0.0000 C   0  0  0  0  0  0  0  0  0  0  0  0
   -2.7181   -1.4058    0.0000 C   0  0  0  0  0  0  0  0  0  0  0  0
    0.6262   -0.0067    0.0000 C   0  0  0  0  0  0  0  0  0  0  0  0
   -3.9306   -0.7128    0.0000 C   0  0  0  0  0  0  0  0  0  0  0  0
    1.0393   -0.6995    0.0000 C   0  0  0  0  0  0  0  0  0  0  0  0
    1.0527    0.6995    0.0000 C   0  0  0  0  0  0  0  0  0  0  0  0
    2.2918    0.0067    0.0000 C   0  0  0  0  0  0  0  0  0  0  0  0
    1.8787   -0.6995    0.0000 C   0  0  0  0  0  0  0  0  0  0  0  0
    1.8787    0.6995    0.0000 C   0  0  0  0  0  0  0  0  0  0  0  0
    3.1312   -0.0067    0.0000 C   0  0  0  0  0  0  0  0  0  0  0  0
    3.5576    0.6995    0.0000 C   0  0  0  0  0  0  0  0  0  0  0  0
    4.3838    0.6995    0.0000 C   0  0  0  0  0  0  0  0  0  0  0  0
  1  9  2  0  0  0  0
  2 13  2  0  0  0  0
  3 13  1  0  0  0  0
  4 24  1  0  0  0  0
  5  9  1  0  0  0  0
  5 15  1  0  0  0  0
  6 16  3  0  0  0  0
  7  8  1  0  0  0  0
  7  9  1  0  0  0  0
  7 11  2  0  0  0  0
  8 10  2  0  0  0  0
  8 13  1  0  0  0  0
 10 12  1  0  0  0  0
 11 14  1  0  0  0  0
 12 14  2  0  0  0  0
 12 16  1  0  0  0  0
 15 17  2  0  0  0  0
 15 18  1  0  0  0  0
 17 20  1  0  0  0  0
 18 21  2  0  0  0  0
 19 20  2  0  0  0  0
 19 21  1  0  0  0  0
 19 22  1  0  0  0  0
 22 23  1  0  0  0  0
 23 24  1  0  0  0  0
M  END
> <PUBCHEM_COMPOUND_ID_TYPE>
0

> <PUBCHEM_TOTAL_CHARGE>
0

> <PUBCHEM_SUBSTANCE_ID>
310949740

> <PUBCHEM_SUBSTANCE_VERSION>
1

> <PUBCHEM_EXT_DATASOURCE_NAME>
4488

> <PUBCHEM_EXT_DATASOURCE_REGID>
SCHEMBL16127938

> <PUBCHEM_SUBSTANCE_COMMENT>
InChI=1S/C18H16N2O4/c19-11-13-5-8-15(16(10-13)18(23)24)17(22)20-14-6-3-12(4-7-14)2-1-9-21/h3-8,10,21H,1-2,9H2,(H,20,22)(H,23,24)
InChIKey=ZYHDRIRKOGXAQH-UHFFFAOYSA-N

> <PUBCHEM_SUBSTANCE_SYNONYM>
SCHEMBL16127938

> <PUBCHEM_XREF_EXT_ID>
SCHEMBL16127938

> <PUBCHEM_EXT_DATASOURCE_URL>
https://www.surechembl.org/

> <PUBCHEM_EXT_SUBSTANCE_URL>
https://www.surechembl.org/chemical/SCHEMBL16127938

> <PUBCHEM_CID_ASSOCIATIONS>
85472059  1

> <PUBCHEM_COORDINATE_TYPE>
1
3

$$$$
