310945365
  -OEChem-07211613022D

 28 30  0     0  0  0  0  0  0999 V2000
    0.9774    2.0933    0.0000 F   0  0  0  0  0  0  0  0  0  0  0  0
    2.2703    2.0779    0.0000 F   0  0  0  0  0  0  0  0  0  0  0  0
    2.3319    1.3699    0.0000 F   0  0  0  0  0  0  0  0  0  0  0  0
    2.3319   -1.8163    0.0000 F   0  0  0  0  0  0  0  0  0  0  0  0
    3.5017   -0.6926    0.0000 F   0  0  0  0  0  0  0  0  0  0  0  0
    2.8552   -2.0933    0.0000 F   0  0  0  0  0  0  0  0  0  0  0  0
   -0.9312   -1.8009    0.0000 F   0  0  0  0  0  0  0  0  0  0  0  0
   -3.5017   -0.9851    0.0000 F   0  0  0  0  0  0  0  0  0  0  0  0
   -3.4709    0.6157    0.0000 F   0  0  0  0  0  0  0  0  0  0  0  0
   -2.9168    0.7234    0.0000 F   0  0  0  0  0  0  0  0  0  0  0  0
    0.2386    0.5387    0.0000 N   0  0  0  0  0  0  0  0  0  0  0  0
    0.2232   -0.9543    0.0000 N   0  0  0  0  0  0  0  0  0  0  0  0
    2.2242    0.2308    0.0000 N   0  0  0  0  0  0  0  0  0  0  0  0
    1.5623   -1.1544    0.0000 N   0  0  0  0  0  0  0  0  0  0  0  0
    0.9466    0.2155    0.0000 C   0  0  0  0  0  0  0  0  0  0  0  0
    1.5777    0.6618    0.0000 C   0  0  0  0  0  0  0  0  0  0  0  0
    0.9158   -0.7080    0.0000 C   0  0  0  0  0  0  0  0  0  0  0  0
   -0.1924   -0.2308    0.0000 C   0  0  0  0  0  0  0  0  0  0  0  0
    2.2088   -0.7234    0.0000 C   0  0  0  0  0  0  0  0  0  0  0  0
    1.6085    1.5854    0.0000 C   0  0  0  0  0  0  0  0  0  0  0  0
   -0.9620   -0.2155    0.0000 C   0  0  0  0  0  0  0  0  0  0  0  0
    2.8398   -1.1852    0.0000 C   0  0  0  0  0  0  0  0  0  0  0  0
   -1.3006   -1.0159    0.0000 C   0  0  0  0  0  0  0  0  0  0  0  0
   -1.2852    0.5695    0.0000 C   0  0  0  0  0  0  0  0  0  0  0  0
   -2.4088   -0.2155    0.0000 C   0  0  0  0  0  0  0  0  0  0  0  0
   -2.0240   -1.0159    0.0000 C   0  0  0  0  0  0  0  0  0  0  0  0
   -2.0086    0.5849    0.0000 C   0  0  0  0  0  0  0  0  0  0  0  0
   -3.1477   -0.1847    0.0000 C   0  0  0  0  0  0  0  0  0  0  0  0
  1 20  1  0  0  0  0
  2 20  1  0  0  0  0
  3 20  1  0  0  0  0
  4 22  1  0  0  0  0
  5 22  1  0  0  0  0
  6 22  1  0  0  0  0
  7 23  1  0  0  0  0
  8 28  1  0  0  0  0
  9 28  1  0  0  0  0
 10 28  1  0  0  0  0
 11 15  1  0  0  0  0
 11 18  2  0  0  0  0
 12 17  1  0  0  0  0
 12 18  1  0  0  0  0
 13 16  2  0  0  0  0
 13 19  1  0  0  0  0
 14 17  1  0  0  0  0
 14 19  2  0  0  0  0
 15 16  1  0  0  0  0
 15 17  2  0  0  0  0
 16 20  1  0  0  0  0
 18 21  1  0  0  0  0
 19 22  1  0  0  0  0
 21 23  1  0  0  0  0
 21 24  2  0  0  0  0
 23 26  2  0  0  0  0
 24 27  1  0  0  0  0
 25 26  1  0  0  0  0
 25 27  2  0  0  0  0
 25 28  1  0  0  0  0
M  END
> <PUBCHEM_COMPOUND_ID_TYPE>
0

> <PUBCHEM_TOTAL_CHARGE>
0

> <PUBCHEM_SUBSTANCE_ID>
310945365

> <PUBCHEM_SUBSTANCE_VERSION>
1

> <PUBCHEM_EXT_DATASOURCE_NAME>
4488

> <PUBCHEM_EXT_DATASOURCE_REGID>
SCHEMBL16123463

> <PUBCHEM_SUBSTANCE_COMMENT>
InChI=1S/C14H4F10N4/c15-6-3-4(12(16,17)18)1-2-5(6)9-25-7-8(13(19,20)21)26-11(14(22,23)24)28-10(7)27-9/h1-3H,(H,25,26,27,28)
InChIKey=FSWVJOPYUGMBIO-UHFFFAOYSA-N

> <PUBCHEM_SUBSTANCE_SYNONYM>
SCHEMBL16123463

> <PUBCHEM_XREF_EXT_ID>
SCHEMBL16123463

> <PUBCHEM_EXT_DATASOURCE_URL>
https://www.surechembl.org/

> <PUBCHEM_EXT_SUBSTANCE_URL>
https://www.surechembl.org/chemical/SCHEMBL16123463

> <PUBCHEM_CID_ASSOCIATIONS>
117611421  1

> <PUBCHEM_COORDINATE_TYPE>
1
3

$$$$
