310941243
  -OEChem-07211613022D

 41 44  0     1  0  0  0  0  0999 V2000
    5.0407   -0.9368    0.0000 O   0  0  0  0  0  0  0  0  0  0  0  0
    3.9221    1.0068    0.0000 O   0  0  0  0  0  0  0  0  0  0  0  0
    1.7828   -1.0487    0.0000 O   0  0  0  0  0  0  0  0  0  0  0  0
   -0.3705    1.0068    0.0000 O   0  0  0  0  0  0  0  0  0  0  0  0
    3.9221    2.6567    0.0000 O   0  0  0  0  0  0  0  0  0  0  0  0
   -2.5099   -1.0487    0.0000 O   0  0  0  0  0  0  0  0  0  0  0  0
   -5.3623   -1.0487    0.0000 O   0  0  0  0  0  0  0  0  0  0  0  0
    2.4959    0.1818    0.0000 N   0  0  0  0  0  0  0  0  0  0  0  0
    0.3565   -0.2237    0.0000 N   0  0  0  0  0  0  0  0  0  0  0  0
   -1.7828    0.1818    0.0000 N   0  0  0  0  0  0  0  0  0  0  0  0
   -3.9361   -0.2237    0.0000 N   0  0  0  0  0  0  0  0  0  0  0  0
    4.6352   -0.2097    0.0000 C   0  0  3  0  0  0  0  0  0  0  0  0
    3.8662    0.1958    0.0000 C   0  0  0  0  0  0  0  0  0  0  0  0
    4.2437   -0.9228    0.0000 C   0  0  0  0  0  0  0  0  0  0  0  0
    3.2230   -0.1958    0.0000 C   0  0  3  0  0  0  0  0  0  0  0  0
    3.2230   -1.0347    0.0000 C   0  0  0  0  0  0  0  0  0  0  0  0
    5.3623    0.2097    0.0000 C   0  0  0  0  0  0  0  0  0  0  0  0
    1.7968   -0.1818    0.0000 C   0  0  0  0  0  0  0  0  0  0  0  0
    1.0697    0.2097    0.0000 C   0  0  3  0  0  0  0  0  0  0  0  0
    3.9221   -1.4402    0.0000 C   0  0  0  0  0  0  0  0  0  0  0  0
    2.5099   -1.4402    0.0000 C   0  0  0  0  0  0  0  0  0  0  0  0
    1.0836    1.0347    0.0000 C   0  0  0  0  0  0  0  0  0  0  0  0
    3.9221   -2.2652    0.0000 C   0  0  0  0  0  0  0  0  0  0  0  0
    2.5099   -2.2652    0.0000 C   0  0  0  0  0  0  0  0  0  0  0  0
    1.7688    1.4542    0.0000 C   0  0  0  0  0  0  0  0  0  0  0  0
   -0.3705    0.1958    0.0000 C   0  0  0  0  0  0  0  0  0  0  0  0
    3.2230   -2.6707    0.0000 C   0  0  0  0  0  0  0  0  0  0  0  0
   -1.0557   -0.1958    0.0000 C   0  0  3  0  0  0  0  0  0  0  0  0
    2.4959    1.0487    0.0000 C   0  0  0  0  0  0  0  0  0  0  0  0
    1.7968    2.2792    0.0000 C   0  0  0  0  0  0  0  0  0  0  0  0
    3.2090    2.2792    0.0000 C   0  0  0  0  0  0  0  0  0  0  0  0
    3.2090    1.4542    0.0000 C   0  0  0  0  0  0  0  0  0  0  0  0
    2.4819    2.6707    0.0000 C   0  0  0  0  0  0  0  0  0  0  0  0
   -2.4959   -0.1818    0.0000 C   0  0  0  0  0  0  0  0  0  0  0  0
   -3.2230    0.2097    0.0000 C   0  0  0  0  0  0  0  0  0  0  0  0
   -1.0697   -1.0347    0.0000 C   0  0  0  0  0  0  0  0  0  0  0  0
   -3.9221   -1.0208    0.0000 C   0  0  0  0  0  0  0  0  0  0  0  0
   -4.6492    0.2097    0.0000 C   0  0  0  0  0  0  0  0  0  0  0  0
   -4.6212   -1.4263    0.0000 C   0  0  0  0  0  0  0  0  0  0  0  0
   -5.3344   -0.1958    0.0000 C   0  0  0  0  0  0  0  0  0  0  0  0
    4.6492    2.2512    0.0000 C   0  0  0  0  0  0  0  0  0  0  0  0
  1 12  1  0  0  0  0
  1 14  1  0  0  0  0
  2 13  2  0  0  0  0
  3 18  2  0  0  0  0
  4 26  2  0  0  0  0
  5 31  1  0  0  0  0
  5 41  1  0  0  0  0
  6 34  2  0  0  0  0
  7 39  1  0  0  0  0
  7 40  1  0  0  0  0
 15  8  1  6  0  0  0
  8 18  1  0  0  0  0
 19  9  1  1  0  0  0
  9 26  1  0  0  0  0
 10 28  1  0  0  0  0
 10 34  1  0  0  0  0
 11 35  1  0  0  0  0
 11 37  1  0  0  0  0
 11 38  1  0  0  0  0
 12 13  1  6  0  0  0
 12 14  1  0  0  0  0
 12 17  1  1  0  0  0
 13 15  1  0  0  0  0
 15 16  1  0  0  0  0
 16 20  2  0  0  0  0
 16 21  1  0  0  0  0
 18 19  1  0  0  0  0
 19 22  1  0  0  0  0
 20 23  1  0  0  0  0
 21 24  2  0  0  0  0
 22 25  1  0  0  0  0
 23 27  2  0  0  0  0
 24 27  1  0  0  0  0
 25 29  2  0  0  0  0
 25 30  1  0  0  0  0
 26 28  1  0  0  0  0
 28 36  1  0  0  0  0
 29 32  1  0  0  0  0
 30 33  2  0  0  0  0
 31 32  2  0  0  0  0
 31 33  1  0  0  0  0
 34 35  1  0  0  0  0
 37 39  1  0  0  0  0
 38 40  1  0  0  0  0
M  END
> <PUBCHEM_COMPOUND_ID_TYPE>
0

> <PUBCHEM_TOTAL_CHARGE>
0

> <PUBCHEM_SUBSTANCE_ID>
310941243

> <PUBCHEM_SUBSTANCE_VERSION>
1

> <PUBCHEM_EXT_DATASOURCE_NAME>
4488

> <PUBCHEM_EXT_DATASOURCE_REGID>
SCHEMBL16119203

> <PUBCHEM_SUBSTANCE_COMMENT>
InChI=1S/C30H38N4O7/c1-20(31-25(35)18-34-13-15-40-16-14-34)28(37)32-24(17-21-9-11-23(39-3)12-10-21)29(38)33-26(22-7-5-4-6-8-22)27(36)30(2)19-41-30/h4-12,20,24,26H,13-19H2,1-3H3,(H,31,35)(H,32,37)(H,33,38)/t20?,24-,26-,30+/m0/s1
InChIKey=FHWUEKAEAFGZOC-FWPAQHPKSA-N

> <PUBCHEM_SUBSTANCE_SYNONYM>
SCHEMBL16119203

> <PUBCHEM_XREF_EXT_ID>
SCHEMBL16119203

> <PUBCHEM_EXT_DATASOURCE_URL>
https://www.surechembl.org/

> <PUBCHEM_EXT_SUBSTANCE_URL>
https://www.surechembl.org/chemical/SCHEMBL16119203

> <PUBCHEM_CID_ASSOCIATIONS>
117608102  1

> <PUBCHEM_COORDINATE_TYPE>
1
3

> <PUBCHEM_BONDANNOTATIONS>
12  13  6
12  17  5
15  8  6
19  9  5

$$$$
