310943284
  -OEChem-07211613022D

 45 50  0     0  0  0  0  0  0999 V2000
    4.3077    2.7687    0.0000 F   0  0  0  0  0  0  0  0  0  0  0  0
    5.4060    2.4748    0.0000 F   0  0  0  0  0  0  0  0  0  0  0  0
    5.0966    1.3766    0.0000 F   0  0  0  0  0  0  0  0  0  0  0  0
    1.8020    2.8925    0.0000 O   0  0  0  0  0  0  0  0  0  0  0  0
   -2.5135   -2.4130    0.0000 O   0  0  0  0  0  0  0  0  0  0  0  0
   -5.4060    2.8925    0.0000 O   0  0  0  0  0  0  0  0  0  0  0  0
   -2.5135   -0.4177    0.0000 N   0  0  0  0  0  0  0  0  0  0  0  0
   -3.2250    0.8198    0.0000 N   0  0  0  0  0  0  0  0  0  0  0  0
   -3.9520    2.0572    0.0000 N   0  0  0  0  0  0  0  0  0  0  0  0
    3.2560   -0.4177    0.0000 N   0  0  0  0  0  0  0  0  0  0  0  0
    1.0905    1.6550    0.0000 N   0  0  0  0  0  0  0  0  0  0  0  0
   -0.3481    3.3101    0.0000 N   0  0  0  0  0  0  0  0  0  0  0  0
    3.2560   -2.0727    0.0000 N   0  0  0  0  0  0  0  0  0  0  0  0
   -1.7865    1.6550    0.0000 C   0  0  0  0  0  0  0  0  0  0  0  0
   -2.4981    0.4177    0.0000 C   0  0  0  0  0  0  0  0  0  0  0  0
   -1.0750    2.0727    0.0000 C   0  0  0  0  0  0  0  0  0  0  0  0
   -3.2250    1.6550    0.0000 C   0  0  0  0  0  0  0  0  0  0  0  0
   -1.8020    0.8198    0.0000 C   0  0  0  0  0  0  0  0  0  0  0  0
   -2.4981    2.0727    0.0000 C   0  0  0  0  0  0  0  0  0  0  0  0
    2.5444    1.6550    0.0000 C   0  0  0  0  0  0  0  0  0  0  0  0
    3.9830    1.6550    0.0000 C   0  0  0  0  0  0  0  0  0  0  0  0
   -1.0595    2.8925    0.0000 C   0  0  0  0  0  0  0  0  0  0  0  0
    3.2560    0.4177    0.0000 C   0  0  0  0  0  0  0  0  0  0  0  0
   -0.3171    1.6705    0.0000 C   0  0  0  0  0  0  0  0  0  0  0  0
    0.3635    2.0727    0.0000 C   0  0  0  0  0  0  0  0  0  0  0  0
    1.8020    2.0572    0.0000 C   0  0  0  0  0  0  0  0  0  0  0  0
   -3.0858   -1.0054    0.0000 C   0  0  0  0  0  0  0  0  0  0  0  0
   -1.9257   -0.9899    0.0000 C   0  0  0  0  0  0  0  0  0  0  0  0
    4.6944    2.0727    0.0000 C   0  0  0  0  0  0  0  0  0  0  0  0
    3.2560    2.0572    0.0000 C   0  0  0  0  0  0  0  0  0  0  0  0
    2.5599    0.8198    0.0000 C   0  0  0  0  0  0  0  0  0  0  0  0
    3.9674    0.8352    0.0000 C   0  0  0  0  0  0  0  0  0  0  0  0
   -2.4981   -1.5622    0.0000 C   0  0  0  0  0  0  0  0  0  0  0  0
    0.3789    2.8925    0.0000 C   0  0  0  0  0  0  0  0  0  0  0  0
   -3.9520    2.8925    0.0000 C   0  0  0  0  0  0  0  0  0  0  0  0
   -4.6481    1.6550    0.0000 C   0  0  0  0  0  0  0  0  0  0  0  0
    2.5444   -0.8198    0.0000 C   0  0  0  0  0  0  0  0  0  0  0  0
    3.9830   -0.8352    0.0000 C   0  0  0  0  0  0  0  0  0  0  0  0
   -1.8020    3.2946    0.0000 C   0  0  0  0  0  0  0  0  0  0  0  0
    2.5444   -1.6550    0.0000 C   0  0  0  0  0  0  0  0  0  0  0  0
    3.9674   -1.6550    0.0000 C   0  0  0  0  0  0  0  0  0  0  0  0
   -4.6635    3.3101    0.0000 C   0  0  0  0  0  0  0  0  0  0  0  0
   -5.3905    2.0727    0.0000 C   0  0  0  0  0  0  0  0  0  0  0  0
    3.2560   -2.8925    0.0000 C   0  0  0  0  0  0  0  0  0  0  0  0
    3.9984   -3.3101    0.0000 C   0  0  0  0  0  0  0  0  0  0  0  0
  1 29  1  0  0  0  0
  2 29  1  0  0  0  0
  3 29  1  0  0  0  0
  4 26  2  0  0  0  0
  5 33  1  0  0  0  0
  6 42  1  0  0  0  0
  6 43  1  0  0  0  0
  7 15  1  0  0  0  0
  7 27  1  0  0  0  0
  7 28  1  0  0  0  0
  8 15  1  0  0  0  0
  8 17  2  0  0  0  0
  9 17  1  0  0  0  0
  9 35  1  0  0  0  0
  9 36  1  0  0  0  0
 10 23  1  0  0  0  0
 10 37  1  0  0  0  0
 10 38  1  0  0  0  0
 11 25  1  0  0  0  0
 11 26  1  0  0  0  0
 12 22  2  0  0  0  0
 12 34  1  0  0  0  0
 13 40  1  0  0  0  0
 13 41  1  0  0  0  0
 13 44  1  0  0  0  0
 14 16  1  0  0  0  0
 14 18  1  0  0  0  0
 14 19  2  0  0  0  0
 15 18  2  0  0  0  0
 16 22  1  0  0  0  0
 16 24  2  0  0  0  0
 17 19  1  0  0  0  0
 20 26  1  0  0  0  0
 20 30  1  0  0  0  0
 20 31  2  0  0  0  0
 21 29  1  0  0  0  0
 21 30  2  0  0  0  0
 21 32  1  0  0  0  0
 22 39  1  0  0  0  0
 23 31  1  0  0  0  0
 23 32  2  0  0  0  0
 24 25  1  0  0  0  0
 25 34  2  0  0  0  0
 27 33  1  0  0  0  0
 28 33  1  0  0  0  0
 35 42  1  0  0  0  0
 36 43  1  0  0  0  0
 37 40  1  0  0  0  0
 38 41  1  0  0  0  0
 44 45  1  0  0  0  0
M  END
> <PUBCHEM_COMPOUND_ID_TYPE>
0

> <PUBCHEM_TOTAL_CHARGE>
0

> <PUBCHEM_SUBSTANCE_ID>
310943284

> <PUBCHEM_SUBSTANCE_VERSION>
1

> <PUBCHEM_EXT_DATASOURCE_NAME>
4488

> <PUBCHEM_EXT_DATASOURCE_REGID>
SCHEMBL16121346

> <PUBCHEM_SUBSTANCE_COMMENT>
InChI=1S/C32H38F3N7O3/c1-3-39-4-6-40(7-5-39)26-13-23(12-24(16-26)32(33,34)35)31(44)37-25-17-28(21(2)36-18-25)22-14-29(41-8-10-45-11-9-41)38-30(15-22)42-19-27(43)20-42/h12-18,27,43H,3-11,19-20H2,1-2H3,(H,37,44)
InChIKey=NVNGYABROPSBFJ-UHFFFAOYSA-N

> <PUBCHEM_SUBSTANCE_SYNONYM>
SCHEMBL16121346

> <PUBCHEM_XREF_EXT_ID>
SCHEMBL16121346

> <PUBCHEM_EXT_DATASOURCE_URL>
https://www.surechembl.org/

> <PUBCHEM_EXT_SUBSTANCE_URL>
https://www.surechembl.org/chemical/SCHEMBL16121346

> <PUBCHEM_CID_ASSOCIATIONS>
117609709  1

> <PUBCHEM_COORDINATE_TYPE>
1
3

$$$$
