310943945
  -OEChem-07211613022D

 20 22  0     0  0  0  0  0  0999 V2000
    0.0000    2.4183    0.0000 F   0  0  0  0  0  0  0  0  0  0  0  0
   -2.1511    1.9359    0.0000 N   0  0  0  0  0  0  0  0  0  0  0  0
    2.1511    2.0011    0.0000 N   0  0  0  0  0  0  0  0  0  0  0  0
   -0.7171    0.3324    0.0000 C   0  0  0  0  0  0  0  0  0  0  0  0
   -1.3558   -0.2281    0.0000 C   0  0  0  0  0  0  0  0  0  0  0  0
   -0.0260   -0.0456    0.0000 C   0  0  0  0  0  0  0  0  0  0  0  0
   -1.0038   -0.9712    0.0000 C   0  0  0  0  0  0  0  0  0  0  0  0
   -0.1825   -0.8930    0.0000 C   0  0  0  0  0  0  0  0  0  0  0  0
   -0.7171    1.1798    0.0000 C   0  0  0  0  0  0  0  0  0  0  0  0
   -0.0131    1.6100    0.0000 C   0  0  0  0  0  0  0  0  0  0  0  0
    0.7171    0.3585    0.0000 C   0  0  0  0  0  0  0  0  0  0  0  0
    0.7301    1.2059    0.0000 C   0  0  0  0  0  0  0  0  0  0  0  0
   -1.3297   -1.7535    0.0000 C   0  0  0  0  0  0  0  0  0  0  0  0
    0.3128   -1.5709    0.0000 C   0  0  0  0  0  0  0  0  0  0  0  0
   -2.1249   -0.4627    0.0000 C   0  0  0  0  0  0  0  0  0  0  0  0
   -1.7469    0.4890    0.0000 C   0  0  0  0  0  0  0  0  0  0  0  0
   -1.4340    1.5709    0.0000 C   0  0  0  0  0  0  0  0  0  0  0  0
   -0.8213   -2.4183    0.0000 C   0  0  0  0  0  0  0  0  0  0  0  0
   -0.0131   -2.3009    0.0000 C   0  0  0  0  0  0  0  0  0  0  0  0
    1.4340    1.6100    0.0000 C   0  0  0  0  0  0  0  0  0  0  0  0
  1 10  1  0  0  0  0
  2 17  3  0  0  0  0
  3 20  3  0  0  0  0
  4  5  1  0  0  0  0
  4  6  1  0  0  0  0
  4  9  2  0  0  0  0
  5  7  1  0  0  0  0
  5 15  1  0  0  0  0
  5 16  1  0  0  0  0
  6  8  1  0  0  0  0
  6 11  2  0  0  0  0
  7  8  2  0  0  0  0
  7 13  1  0  0  0  0
  8 14  1  0  0  0  0
  9 10  1  0  0  0  0
  9 17  1  0  0  0  0
 10 12  2  0  0  0  0
 11 12  1  0  0  0  0
 12 20  1  0  0  0  0
 13 18  2  0  0  0  0
 14 19  2  0  0  0  0
 18 19  1  0  0  0  0
M  END
> <PUBCHEM_COMPOUND_ID_TYPE>
0

> <PUBCHEM_TOTAL_CHARGE>
0

> <PUBCHEM_SUBSTANCE_ID>
310943945

> <PUBCHEM_SUBSTANCE_VERSION>
1

> <PUBCHEM_EXT_DATASOURCE_NAME>
4488

> <PUBCHEM_EXT_DATASOURCE_REGID>
SCHEMBL16122016

> <PUBCHEM_SUBSTANCE_COMMENT>
InChI=1S/C17H11FN2/c1-17(2)14-6-4-3-5-11(14)12-7-10(8-19)16(18)13(9-20)15(12)17/h3-7H,1-2H3
InChIKey=NHZXLQQTQQSBFD-UHFFFAOYSA-N

> <PUBCHEM_SUBSTANCE_SYNONYM>
SCHEMBL16122016

> <PUBCHEM_XREF_EXT_ID>
SCHEMBL16122016

> <PUBCHEM_EXT_DATASOURCE_URL>
https://www.surechembl.org/

> <PUBCHEM_EXT_SUBSTANCE_URL>
https://www.surechembl.org/chemical/SCHEMBL16122016

> <PUBCHEM_CID_ASSOCIATIONS>
117610253  1

> <PUBCHEM_COORDINATE_TYPE>
1
3

$$$$
