310943136
  -OEChem-07211613022D

 35 38  0     0  0  0  0  0  0999 V2000
   -2.8651   -0.0146    0.0000 O   0  0  0  0  0  0  0  0  0  0  0  0
    1.4325   -0.0146    0.0000 O   0  0  0  0  0  0  0  0  0  0  0  0
   -4.2976    2.4704    0.0000 O   0  0  0  0  0  0  0  0  0  0  0  0
    4.2976   -2.4996    0.0000 O   0  0  0  0  0  0  0  0  0  0  0  0
   -2.8651    1.6518    0.0000 N   0  0  0  0  0  0  0  0  0  0  0  0
   -1.4325   -0.0146    0.0000 N   0  0  0  0  0  0  0  0  0  0  0  0
    0.7163    2.8943    0.0000 N   0  0  0  0  0  0  0  0  0  0  0  0
    2.1488    1.2279    0.0000 N   0  0  0  0  0  0  0  0  0  0  0  0
    4.2976   -0.8332    0.0000 N   0  0  0  0  0  0  0  0  0  0  0  0
   -0.7163    1.2425    0.0000 C   0  0  0  0  0  0  0  0  0  0  0  0
   -0.0146    1.6518    0.0000 C   0  0  0  0  0  0  0  0  0  0  0  0
   -2.1488    1.2425    0.0000 C   0  0  0  0  0  0  0  0  0  0  0  0
   -2.1634    0.4093    0.0000 C   0  0  0  0  0  0  0  0  0  0  0  0
   -1.4472    1.6518    0.0000 C   0  0  0  0  0  0  0  0  0  0  0  0
    0.0000    2.4850    0.0000 C   0  0  0  0  0  0  0  0  0  0  0  0
    0.7163    1.2425    0.0000 C   0  0  0  0  0  0  0  0  0  0  0  0
    1.4179    1.6518    0.0000 C   0  0  0  0  0  0  0  0  0  0  0  0
   -0.7309    0.4093    0.0000 C   0  0  0  0  0  0  0  0  0  0  0  0
    2.8651    0.0000    0.0000 C   0  0  0  0  0  0  0  0  0  0  0  0
    2.1634    0.4239    0.0000 C   0  0  0  0  0  0  0  0  0  0  0  0
    3.5813   -1.2425    0.0000 C   0  0  0  0  0  0  0  0  0  0  0  0
    1.4325    2.4704    0.0000 C   0  0  0  0  0  0  0  0  0  0  0  0
    3.5667   -2.0903    0.0000 C   0  0  0  0  0  0  0  0  0  0  0  0
    2.8651   -0.8332    0.0000 C   0  0  0  0  0  0  0  0  0  0  0  0
   -2.8796    2.4850    0.0000 C   0  0  0  0  0  0  0  0  0  0  0  0
   -3.5813    1.2425    0.0000 C   0  0  0  0  0  0  0  0  0  0  0  0
    3.5813    0.4093    0.0000 C   0  0  0  0  0  0  0  0  0  0  0  0
   -0.7309    2.8943    0.0000 C   0  0  0  0  0  0  0  0  0  0  0  0
    4.2976   -0.0146    0.0000 C   0  0  0  0  0  0  0  0  0  0  0  0
   -3.5959    2.8943    0.0000 C   0  0  0  0  0  0  0  0  0  0  0  0
   -4.2976    1.6518    0.0000 C   0  0  0  0  0  0  0  0  0  0  0  0
   -3.5959    0.4093    0.0000 C   0  0  0  0  0  0  0  0  0  0  0  0
    2.8504   -2.4850    0.0000 C   0  0  0  0  0  0  0  0  0  0  0  0
    3.3766   -2.8943    0.0000 C   0  0  0  0  0  0  0  0  0  0  0  0
   -4.2830   -0.0292    0.0000 C   0  0  0  0  0  0  0  0  0  0  0  0
  1 13  1  0  0  0  0
  1 32  1  0  0  0  0
  2 20  2  0  0  0  0
  3 30  1  0  0  0  0
  3 31  1  0  0  0  0
  4 23  1  0  0  0  0
  5 12  1  0  0  0  0
  5 25  1  0  0  0  0
  5 26  1  0  0  0  0
  6 13  2  0  0  0  0
  6 18  1  0  0  0  0
  7 15  1  0  0  0  0
  7 22  2  0  0  0  0
  8 17  1  0  0  0  0
  8 20  1  0  0  0  0
  9 21  2  0  0  0  0
  9 29  1  0  0  0  0
 10 11  1  0  0  0  0
 10 14  1  0  0  0  0
 10 18  2  0  0  0  0
 11 15  2  0  0  0  0
 11 16  1  0  0  0  0
 12 13  1  0  0  0  0
 12 14  2  0  0  0  0
 15 28  1  0  0  0  0
 16 17  2  0  0  0  0
 17 22  1  0  0  0  0
 19 20  1  0  0  0  0
 19 24  2  0  0  0  0
 19 27  1  0  0  0  0
 21 23  1  0  0  0  0
 21 24  1  0  0  0  0
 23 33  1  0  0  0  0
 23 34  1  0  0  0  0
 25 30  1  0  0  0  0
 26 31  1  0  0  0  0
 27 29  2  0  0  0  0
 32 35  1  0  0  0  0
M  END
> <PUBCHEM_COMPOUND_ID_TYPE>
0

> <PUBCHEM_TOTAL_CHARGE>
0

> <PUBCHEM_SUBSTANCE_ID>
310943136

> <PUBCHEM_SUBSTANCE_VERSION>
1

> <PUBCHEM_EXT_DATASOURCE_NAME>
4488

> <PUBCHEM_EXT_DATASOURCE_REGID>
SCHEMBL16121196

> <PUBCHEM_SUBSTANCE_COMMENT>
InChI=1S/C26H31N5O4/c1-5-35-25-22(31-8-10-34-11-9-31)12-19(15-29-25)21-14-20(16-28-17(21)2)30-24(32)18-6-7-27-23(13-18)26(3,4)33/h6-7,12-16,33H,5,8-11H2,1-4H3,(H,30,32)
InChIKey=PMMOWPSBOXULDG-UHFFFAOYSA-N

> <PUBCHEM_SUBSTANCE_SYNONYM>
SCHEMBL16121196

> <PUBCHEM_XREF_EXT_ID>
SCHEMBL16121196

> <PUBCHEM_EXT_DATASOURCE_URL>
https://www.surechembl.org/

> <PUBCHEM_EXT_SUBSTANCE_URL>
https://www.surechembl.org/chemical/SCHEMBL16121196

> <PUBCHEM_CID_ASSOCIATIONS>
117609566  1

> <PUBCHEM_COORDINATE_TYPE>
1
3

$$$$
