310940655
  -OEChem-07211613022D

 33 36  0     1  0  0  0  0  0999 V2000
    1.8965    3.6949    0.0000 Cl  0  0  0  0  0  0  0  0  0  0  0  0
    2.7580   -0.7178    0.0000 O   0  0  0  0  0  0  0  0  0  0  0  0
    2.8335    0.7632    0.0000 O   0  0  0  0  0  0  0  0  0  0  0  0
   -1.4130   -0.8387    0.0000 O   0  0  0  0  0  0  0  0  0  0  0  0
    1.6245   -0.0378    0.0000 N   0  0  0  0  0  0  0  0  0  0  0  0
    1.4432   -2.5011    0.0000 N   0  0  0  0  0  0  0  0  0  0  0  0
   -2.1988   -3.6042    0.0000 N   0  0  0  0  0  0  0  0  0  0  0  0
    1.4281   -0.7934    0.0000 C   0  0  0  0  0  0  0  0  0  0  0  0
    0.7178   -1.1712    0.0000 C   0  0  0  0  0  0  0  0  0  0  0  0
    2.1534   -1.2014    0.0000 C   0  0  0  0  0  0  0  0  0  0  0  0
    0.7178   -2.0477    0.0000 C   0  0  0  0  0  0  0  0  0  0  0  0
    2.3952    0.0680    0.0000 C   0  0  0  0  0  0  0  0  0  0  0  0
    1.0503    0.5818    0.0000 C   0  0  3  0  0  0  0  0  0  0  0  0
   -0.7027   -2.0325    0.0000 C   0  0  0  0  0  0  0  0  0  0  0  0
    0.0076   -0.8085    0.0000 C   0  0  0  0  0  0  0  0  0  0  0  0
   -0.6876   -1.2014    0.0000 C   0  0  0  0  0  0  0  0  0  0  0  0
    2.1383   -2.0325    0.0000 C   0  0  0  0  0  0  0  0  0  0  0  0
    0.0227   -2.4255    0.0000 C   0  0  0  0  0  0  0  0  0  0  0  0
   -1.4130   -2.4406    0.0000 C   0  0  0  0  0  0  0  0  0  0  0  0
    1.2467    1.4130    0.0000 C   0  0  0  0  0  0  0  0  0  0  0  0
   -1.4281   -3.2718    0.0000 C   0  0  0  0  0  0  0  0  0  0  0  0
    0.2645    0.4005    0.0000 C   0  0  0  0  0  0  0  0  0  0  0  0
   -2.2139   -2.1837    0.0000 C   0  0  0  0  0  0  0  0  0  0  0  0
    0.6725    1.9570    0.0000 C   0  0  0  0  0  0  0  0  0  0  0  0
    2.0477    1.6245    0.0000 C   0  0  0  0  0  0  0  0  0  0  0  0
    0.8992    2.7580    0.0000 C   0  0  0  0  0  0  0  0  0  0  0  0
    2.2290    2.3952    0.0000 C   0  0  0  0  0  0  0  0  0  0  0  0
    1.6699    2.9695    0.0000 C   0  0  0  0  0  0  0  0  0  0  0  0
   -1.4130    0.0378    0.0000 C   0  0  0  0  0  0  0  0  0  0  0  0
   -0.6876   -3.6949    0.0000 C   0  0  0  0  0  0  0  0  0  0  0  0
   -2.5312   -2.6824    0.0000 C   0  0  0  0  0  0  0  0  0  0  0  0
   -2.4557   -1.3827    0.0000 C   0  0  0  0  0  0  0  0  0  0  0  0
   -2.8335   -2.8940    0.0000 C   0  0  0  0  0  0  0  0  0  0  0  0
  1 28  1  0  0  0  0
  2 10  1  0  0  0  0
  2 12  1  0  0  0  0
  3 12  2  0  0  0  0
  4 16  1  0  0  0  0
  4 29  1  0  0  0  0
  5  8  1  0  0  0  0
  5 12  1  0  0  0  0
  5 13  1  0  0  0  0
  6 11  1  0  0  0  0
  6 17  2  0  0  0  0
  7 21  2  0  0  0  0
  7 33  1  0  0  0  0
  8  9  1  0  0  0  0
  8 10  2  0  0  0  0
  9 11  2  0  0  0  0
  9 15  1  0  0  0  0
 10 17  1  0  0  0  0
 11 18  1  0  0  0  0
 13 20  1  0  0  0  0
 13 22  1  6  0  0  0
 14 16  1  0  0  0  0
 14 18  2  0  0  0  0
 14 19  1  0  0  0  0
 15 16  2  0  0  0  0
 19 21  1  0  0  0  0
 19 23  2  0  0  0  0
 20 24  2  0  0  0  0
 20 25  1  0  0  0  0
 21 30  1  0  0  0  0
 23 31  1  0  0  0  0
 23 32  1  0  0  0  0
 24 26  1  0  0  0  0
 25 27  2  0  0  0  0
 26 28  2  0  0  0  0
 27 28  1  0  0  0  0
M  END
> <PUBCHEM_COMPOUND_ID_TYPE>
0

> <PUBCHEM_TOTAL_CHARGE>
0

> <PUBCHEM_SUBSTANCE_ID>
310940655

> <PUBCHEM_SUBSTANCE_VERSION>
1

> <PUBCHEM_EXT_DATASOURCE_NAME>
4488

> <PUBCHEM_EXT_DATASOURCE_REGID>
SCHEMBL16118610

> <PUBCHEM_SUBSTANCE_COMMENT>
InChI=1S/C26H26ClN3O3/c1-14(2)24(15(3)28-5)20-11-21-19(12-22(20)32-6)25-23(13-29-21)33-26(31)30(25)16(4)17-7-9-18(27)10-8-17/h7-13,16H,1-6H3/b28-15-/t16-/m1/s1
InChIKey=KKNJEQKPXIOLJW-MDFSBEDCSA-N

> <PUBCHEM_SUBSTANCE_SYNONYM>
SCHEMBL16118610

> <PUBCHEM_XREF_EXT_ID>
SCHEMBL16118610

> <PUBCHEM_EXT_DATASOURCE_URL>
https://www.surechembl.org/

> <PUBCHEM_EXT_SUBSTANCE_URL>
https://www.surechembl.org/chemical/SCHEMBL16118610

> <PUBCHEM_CID_ASSOCIATIONS>
117607632  1

> <PUBCHEM_COORDINATE_TYPE>
1
3

> <PUBCHEM_BONDANNOTATIONS>
13  22  6
7  33  3

$$$$
