310945497
  -OEChem-07211613022D

 27 29  0     0  0  0  0  0  0999 V2000
    2.9968    0.6960    0.0000 F   0  0  0  0  0  0  0  0  0  0  0  0
    2.5132   -0.3297    0.0000 F   0  0  0  0  0  0  0  0  0  0  0  0
    1.4728    0.1685    0.0000 F   0  0  0  0  0  0  0  0  0  0  0  0
   -2.3959    1.7366    0.0000 O   0  0  0  0  0  0  0  0  0  0  0  0
    0.4323    0.9892    0.0000 N   0  0  0  0  0  0  0  0  0  0  0  0
    2.4693    1.9124    0.0000 N   0  0  0  0  0  0  0  0  0  0  0  0
   -1.0039   -1.6632    0.0000 N   0  0  0  0  0  0  0  0  0  0  0  0
    1.1064    1.4874    0.0000 C   0  0  0  0  0  0  0  0  0  0  0  0
    0.8427    2.2494    0.0000 C   0  0  0  0  0  0  0  0  0  0  0  0
    0.0220    2.2787    0.0000 C   0  0  0  0  0  0  0  0  0  0  0  0
   -0.2418    1.4874    0.0000 C   0  0  0  0  0  0  0  0  0  0  0  0
    1.9124    1.3116    0.0000 C   0  0  0  0  0  0  0  0  0  0  0  0
    2.2201    0.4323    0.0000 C   0  0  0  0  0  0  0  0  0  0  0  0
    1.3995    2.8796    0.0000 C   0  0  0  0  0  0  0  0  0  0  0  0
   -1.0331    1.3116    0.0000 C   0  0  0  0  0  0  0  0  0  0  0  0
   -0.5202    2.8650    0.0000 C   0  0  0  0  0  0  0  0  0  0  0  0
    0.4176   -0.0073    0.0000 C   0  0  0  0  0  0  0  0  0  0  0  0
   -1.6046    1.9271    0.0000 C   0  0  0  0  0  0  0  0  0  0  0  0
    2.2201    2.7037    0.0000 C   0  0  0  0  0  0  0  0  0  0  0  0
   -1.3262    2.7037    0.0000 C   0  0  0  0  0  0  0  0  0  0  0  0
   -0.2711   -0.4030    0.0000 C   0  0  0  0  0  0  0  0  0  0  0  0
   -0.3004   -1.2383    0.0000 C   0  0  0  0  0  0  0  0  0  0  0  0
   -2.9968    2.3373    0.0000 C   0  0  0  0  0  0  0  0  0  0  0  0
   -1.0039   -2.4693    0.0000 C   0  0  0  0  0  0  0  0  0  0  0  0
   -1.7219   -1.2383    0.0000 C   0  0  0  0  0  0  0  0  0  0  0  0
   -1.7366   -2.8796    0.0000 C   0  0  0  0  0  0  0  0  0  0  0  0
   -2.4252   -1.6779    0.0000 C   0  0  0  0  0  0  0  0  0  0  0  0
  1 13  1  0  0  0  0
  2 13  1  0  0  0  0
  3 13  1  0  0  0  0
  4 18  1  0  0  0  0
  4 23  1  0  0  0  0
  5  8  1  0  0  0  0
  5 11  1  0  0  0  0
  5 17  1  0  0  0  0
  6 12  2  0  0  0  0
  6 19  1  0  0  0  0
  7 22  1  0  0  0  0
  7 24  1  0  0  0  0
  7 25  1  0  0  0  0
  8  9  2  0  0  0  0
  8 12  1  0  0  0  0
  9 10  1  0  0  0  0
  9 14  1  0  0  0  0
 10 11  2  0  0  0  0
 10 16  1  0  0  0  0
 11 15  1  0  0  0  0
 12 13  1  0  0  0  0
 14 19  2  0  0  0  0
 15 18  2  0  0  0  0
 16 20  2  0  0  0  0
 17 21  1  0  0  0  0
 18 20  1  0  0  0  0
 21 22  1  0  0  0  0
 24 26  1  0  0  0  0
 25 27  1  0  0  0  0
M  END
> <PUBCHEM_COMPOUND_ID_TYPE>
0

> <PUBCHEM_TOTAL_CHARGE>
0

> <PUBCHEM_SUBSTANCE_ID>
310945497

> <PUBCHEM_SUBSTANCE_VERSION>
1

> <PUBCHEM_EXT_DATASOURCE_NAME>
4488

> <PUBCHEM_EXT_DATASOURCE_REGID>
SCHEMBL16123595

> <PUBCHEM_SUBSTANCE_COMMENT>
InChI=1S/C20H24F3N3O/c1-4-25(5-2)11-6-12-26-17-13-14(27-3)7-8-15(17)16-9-10-24-19(18(16)26)20(21,22)23/h7-10,13H,4-6,11-12H2,1-3H3
InChIKey=NLCUPUMNSFRURM-UHFFFAOYSA-N

> <PUBCHEM_SUBSTANCE_SYNONYM>
SCHEMBL16123595

> <PUBCHEM_XREF_EXT_ID>
SCHEMBL16123595

> <PUBCHEM_EXT_DATASOURCE_URL>
https://www.surechembl.org/

> <PUBCHEM_EXT_SUBSTANCE_URL>
https://www.surechembl.org/chemical/SCHEMBL16123595

> <PUBCHEM_CID_ASSOCIATIONS>
117611540  1

> <PUBCHEM_COORDINATE_TYPE>
1
3

$$$$
