310942122
  -OEChem-07211613022D

 30 31  0     1  0  0  0  0  0999 V2000
    1.8058    0.4624    0.0000 Cl  0  0  0  0  0  0  0  0  0  0  0  0
    0.3687   -2.0245    0.0000 F   0  0  0  0  0  0  0  0  0  0  0  0
    1.7934   -1.1997    0.0000 O   0  0  0  0  0  0  0  0  0  0  0  0
   -0.3687    1.7121    0.0000 O   0  0  0  0  0  0  0  0  0  0  0  0
   -3.9804    1.2997    0.0000 O   0  0  0  0  0  0  0  0  0  0  0  0
   -1.7934   -0.7748    0.0000 N   0  0  0  0  0  0  0  0  0  0  0  0
   -1.7934    1.7246    0.0000 N   0  0  0  0  0  0  0  0  0  0  0  0
   -0.3687   -0.7748    0.0000 C   0  0  0  0  0  0  0  0  0  0  0  0
    0.3687   -1.1872    0.0000 C   0  0  0  0  0  0  0  0  0  0  0  0
    1.0810   -0.7748    0.0000 C   0  0  0  0  0  0  0  0  0  0  0  0
    1.0935    0.0625    0.0000 C   0  0  0  0  0  0  0  0  0  0  0  0
   -1.0685   -1.1872    0.0000 C   0  0  3  0  0  0  0  0  0  0  0  0
   -0.3437    0.0500    0.0000 C   0  0  0  0  0  0  0  0  0  0  0  0
    0.3811    0.4624    0.0000 C   0  0  0  0  0  0  0  0  0  0  0  0
    2.5182   -0.7748    0.0000 C   0  0  0  0  0  0  0  0  0  0  0  0
   -1.0810   -2.0371    0.0000 C   0  0  0  0  0  0  0  0  0  0  0  0
   -1.7934    0.0625    0.0000 C   0  0  3  0  0  0  0  0  0  0  0  0
    2.5432    0.0500    0.0000 C   0  0  0  0  0  0  0  0  0  0  0  0
    3.2681   -1.1872    0.0000 C   0  0  0  0  0  0  0  0  0  0  0  0
   -1.0810    0.4624    0.0000 C   0  0  0  0  0  0  0  0  0  0  0  0
   -1.0810    1.2997    0.0000 C   0  0  0  0  0  0  0  0  0  0  0  0
    3.2681    0.4624    0.0000 C   0  0  0  0  0  0  0  0  0  0  0  0
    3.9804   -0.7748    0.0000 C   0  0  0  0  0  0  0  0  0  0  0  0
   -1.7809   -2.4370    0.0000 C   0  0  0  0  0  0  0  0  0  0  0  0
   -2.5057    0.4624    0.0000 C   0  0  0  0  0  0  0  0  0  0  0  0
    3.9804    0.0500    0.0000 C   0  0  0  0  0  0  0  0  0  0  0  0
   -3.2430    1.7371    0.0000 C   0  0  0  0  0  0  0  0  0  0  0  0
   -2.5057    1.3122    0.0000 C   0  0  0  0  0  0  0  0  0  0  0  0
   -3.6554    2.4244    0.0000 C   0  0  0  0  0  0  0  0  0  0  0  0
   -2.8181    2.4370    0.0000 C   0  0  0  0  0  0  0  0  0  0  0  0
  1 11  1  0  0  0  0
  2  9  1  0  0  0  0
  3 10  1  0  0  0  0
  3 15  1  0  0  0  0
  4 21  2  0  0  0  0
  5 27  1  0  0  0  0
 12  6  1  1  0  0  0
  6 17  1  0  0  0  0
  7 21  1  0  0  0  0
  7 28  1  0  0  0  0
  8  9  1  0  0  0  0
  8 12  1  0  0  0  0
  8 13  2  0  0  0  0
  9 10  2  0  0  0  0
 10 11  1  0  0  0  0
 11 14  2  0  0  0  0
 12 16  1  0  0  0  0
 13 14  1  0  0  0  0
 15 18  2  0  0  0  0
 15 19  1  0  0  0  0
 16 24  1  0  0  0  0
 17 20  1  0  0  0  0
 17 25  1  1  0  0  0
 18 22  1  0  0  0  0
 19 23  2  0  0  0  0
 20 21  1  0  0  0  0
 22 26  2  0  0  0  0
 23 26  1  0  0  0  0
 27 28  1  0  0  0  0
 27 29  1  0  0  0  0
 27 30  1  0  0  0  0
M  END
> <PUBCHEM_COMPOUND_ID_TYPE>
0

> <PUBCHEM_TOTAL_CHARGE>
0

> <PUBCHEM_SUBSTANCE_ID>
310942122

> <PUBCHEM_SUBSTANCE_VERSION>
1

> <PUBCHEM_EXT_DATASOURCE_NAME>
4488

> <PUBCHEM_EXT_DATASOURCE_REGID>
SCHEMBL16120157

> <PUBCHEM_SUBSTANCE_COMMENT>
InChI=1S/C23H30ClFN2O3/c1-5-19(27-15(2)13-20(28)26-14-23(3,4)29)17-11-12-18(24)22(21(17)25)30-16-9-7-6-8-10-16/h6-12,15,19,27,29H,5,13-14H2,1-4H3,(H,26,28)/t15-,19+/m0/s1
InChIKey=CQRLVJJRFIMXOE-HNAYVOBHSA-N

> <PUBCHEM_SUBSTANCE_SYNONYM>
SCHEMBL16120157

> <PUBCHEM_XREF_EXT_ID>
SCHEMBL16120157

> <PUBCHEM_EXT_DATASOURCE_URL>
https://www.surechembl.org/

> <PUBCHEM_EXT_SUBSTANCE_URL>
https://www.surechembl.org/chemical/SCHEMBL16120157

> <PUBCHEM_CID_ASSOCIATIONS>
117608782  1

> <PUBCHEM_COORDINATE_TYPE>
1
3

> <PUBCHEM_BONDANNOTATIONS>
17  25  5
12  6  5

$$$$
