310945422
  -OEChem-07211613022D

 26 29  0     0  0  0  0  0  0999 V2000
   -2.1499    2.2961    0.0000 O   0  0  0  0  0  0  0  0  0  0  0  0
   -0.7605   -3.4369    0.0000 O   0  0  0  0  0  0  0  0  0  0  0  0
    0.6874    1.5503    0.0000 N   0  0  0  0  0  0  0  0  0  0  0  0
    2.7203    2.4862    0.0000 N   0  0  0  0  0  0  0  0  0  0  0  0
   -0.7605   -1.7697    0.0000 N   0  0  0  0  0  0  0  0  0  0  0  0
    1.3601    2.0475    0.0000 C   0  0  0  0  0  0  0  0  0  0  0  0
    1.0969    2.8227    0.0000 C   0  0  0  0  0  0  0  0  0  0  0  0
    0.0146    2.0475    0.0000 C   0  0  0  0  0  0  0  0  0  0  0  0
    0.2779    2.8373    0.0000 C   0  0  0  0  0  0  0  0  0  0  0  0
    2.1645    1.8574    0.0000 C   0  0  0  0  0  0  0  0  0  0  0  0
   -0.7898    1.8720    0.0000 C   0  0  0  0  0  0  0  0  0  0  0  0
   -0.2779    3.4223    0.0000 C   0  0  0  0  0  0  0  0  0  0  0  0
    1.6526    3.4369    0.0000 C   0  0  0  0  0  0  0  0  0  0  0  0
    0.6728    0.6874    0.0000 C   0  0  0  0  0  0  0  0  0  0  0  0
   -1.3601    2.4862    0.0000 C   0  0  0  0  0  0  0  0  0  0  0  0
   -1.0823    3.2614    0.0000 C   0  0  0  0  0  0  0  0  0  0  0  0
    2.4717    3.2614    0.0000 C   0  0  0  0  0  0  0  0  0  0  0  0
    2.4862    0.9799    0.0000 C   0  0  0  0  0  0  0  0  0  0  0  0
   -0.0293    0.2925    0.0000 C   0  0  0  0  0  0  0  0  0  0  0  0
   -0.0439   -0.5411    0.0000 C   0  0  0  0  0  0  0  0  0  0  0  0
   -0.7459   -0.9360    0.0000 C   0  0  0  0  0  0  0  0  0  0  0  0
   -2.7203    2.9104    0.0000 C   0  0  0  0  0  0  0  0  0  0  0  0
   -1.4625   -2.1792    0.0000 C   0  0  0  0  0  0  0  0  0  0  0  0
   -0.0293   -2.1937    0.0000 C   0  0  0  0  0  0  0  0  0  0  0  0
   -1.4625   -3.0128    0.0000 C   0  0  0  0  0  0  0  0  0  0  0  0
   -0.0439   -3.0128    0.0000 C   0  0  0  0  0  0  0  0  0  0  0  0
  1 15  1  0  0  0  0
  1 22  1  0  0  0  0
  2 25  1  0  0  0  0
  2 26  1  0  0  0  0
  3  6  1  0  0  0  0
  3  8  1  0  0  0  0
  3 14  1  0  0  0  0
  4 10  2  0  0  0  0
  4 17  1  0  0  0  0
  5 21  1  0  0  0  0
  5 23  1  0  0  0  0
  5 24  1  0  0  0  0
  6  7  2  0  0  0  0
  6 10  1  0  0  0  0
  7  9  1  0  0  0  0
  7 13  1  0  0  0  0
  8  9  2  0  0  0  0
  8 11  1  0  0  0  0
  9 12  1  0  0  0  0
 10 18  1  0  0  0  0
 11 15  2  0  0  0  0
 12 16  2  0  0  0  0
 13 17  2  0  0  0  0
 14 19  1  0  0  0  0
 15 16  1  0  0  0  0
 19 20  1  0  0  0  0
 20 21  1  0  0  0  0
 23 25  1  0  0  0  0
 24 26  1  0  0  0  0
M  END
> <PUBCHEM_COMPOUND_ID_TYPE>
0

> <PUBCHEM_TOTAL_CHARGE>
0

> <PUBCHEM_SUBSTANCE_ID>
310945422

> <PUBCHEM_SUBSTANCE_VERSION>
1

> <PUBCHEM_EXT_DATASOURCE_NAME>
4488

> <PUBCHEM_EXT_DATASOURCE_REGID>
SCHEMBL16123520

> <PUBCHEM_SUBSTANCE_COMMENT>
InChI=1S/C21H27N3O2/c1-16-21-19(7-8-22-16)18-6-5-17(25-2)15-20(18)24(21)10-4-3-9-23-11-13-26-14-12-23/h5-8,15H,3-4,9-14H2,1-2H3
InChIKey=LMIJPLCIVXVMRA-UHFFFAOYSA-N

> <PUBCHEM_SUBSTANCE_SYNONYM>
SCHEMBL16123520

> <PUBCHEM_XREF_EXT_ID>
SCHEMBL16123520

> <PUBCHEM_EXT_DATASOURCE_URL>
https://www.surechembl.org/

> <PUBCHEM_EXT_SUBSTANCE_URL>
https://www.surechembl.org/chemical/SCHEMBL16123520

> <PUBCHEM_CID_ASSOCIATIONS>
117611468  1

> <PUBCHEM_COORDINATE_TYPE>
1
3

$$$$
