310942023
  -OEChem-07211613022D

  9 10  0     0  0  0  0  0  0999 V2000
    0.8702   -0.6715    0.0000 S   0  0  0  0  0  0  0  0  0  0  0  0
   -0.6234   -0.8359    0.0000 N   0  0  0  0  0  0  0  0  0  0  0  0
    1.3498    0.0000    0.0000 N   0  0  0  0  0  0  0  0  0  0  0  0
   -1.3498    0.3974    0.0000 N   0  0  0  0  0  0  0  0  0  0  0  0
    0.0891   -0.3837    0.0000 C   0  0  0  0  0  0  0  0  0  0  0  0
    0.0891    0.4385    0.0000 C   0  0  0  0  0  0  0  0  0  0  0  0
    0.8428    0.6853    0.0000 C   0  0  0  0  0  0  0  0  0  0  0  0
   -0.6510    0.8359    0.0000 C   0  0  0  0  0  0  0  0  0  0  0  0
   -1.3224   -0.3974    0.0000 C   0  0  0  0  0  0  0  0  0  0  0  0
  1  3  1  0  0  0  0
  1  5  1  0  0  0  0
  2  5  2  0  0  0  0
  2  9  1  0  0  0  0
  3  7  2  0  0  0  0
  4  8  1  0  0  0  0
  4  9  1  0  0  0  0
  5  6  1  0  0  0  0
  6  7  1  0  0  0  0
  6  8  2  0  0  0  0
M  END
> <PUBCHEM_COMPOUND_ID_TYPE>
0

> <PUBCHEM_TOTAL_CHARGE>
0

> <PUBCHEM_SUBSTANCE_ID>
310942023

> <PUBCHEM_SUBSTANCE_VERSION>
1

> <PUBCHEM_EXT_DATASOURCE_NAME>
4488

> <PUBCHEM_EXT_DATASOURCE_REGID>
SCHEMBL16120057

> <PUBCHEM_SUBSTANCE_COMMENT>
InChI=1S/C5H5N3S/c1-4-2-8-9-5(4)7-3-6-1/h1-2,6H,3H2
InChIKey=BAWDFYSJHSYYJA-UHFFFAOYSA-N

> <PUBCHEM_SUBSTANCE_SYNONYM>
SCHEMBL16120057

> <PUBCHEM_XREF_EXT_ID>
SCHEMBL16120057

> <PUBCHEM_EXT_DATASOURCE_URL>
https://www.surechembl.org/

> <PUBCHEM_EXT_SUBSTANCE_URL>
https://www.surechembl.org/chemical/SCHEMBL16120057

> <PUBCHEM_CID_ASSOCIATIONS>
68908255  1

> <PUBCHEM_COORDINATE_TYPE>
1
3

$$$$
