310930925
  -OEChem-07211613022D

 28 31  0     0  0  0  0  0  0999 V2000
    6.4528   -2.1729    0.0000 S   0  0  0  0  0  0  0  0  0  0  0  0
    2.2058   -5.1030    0.0000 S   0  0  0  0  0  0  0  0  0  0  0  0
    5.6627   -1.7120    0.0000 O   0  0  0  0  0  0  0  0  0  0  0  0
    7.1442   -2.5680    0.0000 O   0  0  0  0  0  0  0  0  0  0  0  0
    3.9507   -6.4858    0.0000 O   0  0  0  0  0  0  0  0  0  0  0  0
    0.6584   -4.9384    0.0000 N   0  0  0  0  0  0  0  0  0  0  0  0
    0.6584   -6.5845    0.0000 N   0  0  0  0  0  0  0  0  0  0  0  0
    3.9507   -5.0372    0.0000 N   0  0  0  0  0  0  0  0  0  0  0  0
    6.0248   -2.8972    0.0000 C   0  0  0  0  0  0  0  0  0  0  0  0
    1.4157   -5.3335    0.0000 C   0  0  0  0  0  0  0  0  0  0  0  0
    1.4157   -6.1894    0.0000 C   0  0  0  0  0  0  0  0  0  0  0  0
    2.6997   -5.7615    0.0000 C   0  0  0  0  0  0  0  0  0  0  0  0
    6.8808   -1.4486    0.0000 C   0  0  0  0  0  0  0  0  0  0  0  0
    2.2058   -6.4199    0.0000 C   0  0  0  0  0  0  0  0  0  0  0  0
    3.5227   -5.7615    0.0000 C   0  0  0  0  0  0  0  0  0  0  0  0
    5.2018   -2.8643    0.0000 C   0  0  0  0  0  0  0  0  0  0  0  0
    6.4199   -3.6215    0.0000 C   0  0  0  0  0  0  0  0  0  0  0  0
    5.2018   -4.3129    0.0000 C   0  0  0  0  0  0  0  0  0  0  0  0
    4.7738   -3.5886    0.0000 C   0  0  0  0  0  0  0  0  0  0  0  0
    6.0248   -4.3129    0.0000 C   0  0  0  0  0  0  0  0  0  0  0  0
    6.4858   -0.7243    0.0000 C   0  0  0  0  0  0  0  0  0  0  0  0
    7.7039   -1.4157    0.0000 C   0  0  0  0  0  0  0  0  0  0  0  0
    4.7738   -5.0372    0.0000 C   0  0  0  0  0  0  0  0  0  0  0  0
    0.0000   -5.3335    0.0000 C   0  0  0  0  0  0  0  0  0  0  0  0
    0.0000   -6.1894    0.0000 C   0  0  0  0  0  0  0  0  0  0  0  0
    6.8808    0.0000    0.0000 C   0  0  0  0  0  0  0  0  0  0  0  0
    8.0990   -0.7243    0.0000 C   0  0  0  0  0  0  0  0  0  0  0  0
    7.7368    0.0000    0.0000 C   0  0  0  0  0  0  0  0  0  0  0  0
  1  3  2  0  0  0  0
  1  4  2  0  0  0  0
  1  9  1  0  0  0  0
  1 13  1  0  0  0  0
  2 10  1  0  0  0  0
  2 12  1  0  0  0  0
  5 15  2  0  0  0  0
  6 10  2  0  0  0  0
  6 24  1  0  0  0  0
  7 11  2  0  0  0  0
  7 25  1  0  0  0  0
  8 15  1  0  0  0  0
  8 23  1  0  0  0  0
  9 16  2  0  0  0  0
  9 17  1  0  0  0  0
 10 11  1  0  0  0  0
 11 14  1  0  0  0  0
 12 14  2  0  0  0  0
 12 15  1  0  0  0  0
 13 21  2  0  0  0  0
 13 22  1  0  0  0  0
 16 19  1  0  0  0  0
 17 20  2  0  0  0  0
 18 19  2  0  0  0  0
 18 20  1  0  0  0  0
 18 23  1  0  0  0  0
 21 26  1  0  0  0  0
 22 27  2  0  0  0  0
 24 25  2  0  0  0  0
 26 28  2  0  0  0  0
 27 28  1  0  0  0  0
M  END
> <PUBCHEM_COMPOUND_ID_TYPE>
0

> <PUBCHEM_TOTAL_CHARGE>
0

> <PUBCHEM_SUBSTANCE_ID>
310930925

> <PUBCHEM_SUBSTANCE_VERSION>
1

> <PUBCHEM_EXT_DATASOURCE_NAME>
4488

> <PUBCHEM_EXT_DATASOURCE_REGID>
SCHEMBL16108223

> <PUBCHEM_SUBSTANCE_COMMENT>
InChI=1S/C20H15N3O3S2/c24-19(18-12-17-20(27-18)22-11-10-21-17)23-13-14-6-8-16(9-7-14)28(25,26)15-4-2-1-3-5-15/h1-12H,13H2,(H,23,24)
InChIKey=OENNQOSWIXHQGL-UHFFFAOYSA-N

> <PUBCHEM_SUBSTANCE_SYNONYM>
SCHEMBL16108223

> <PUBCHEM_XREF_EXT_ID>
SCHEMBL16108223

> <PUBCHEM_EXT_DATASOURCE_URL>
https://www.surechembl.org/

> <PUBCHEM_EXT_SUBSTANCE_URL>
https://www.surechembl.org/chemical/SCHEMBL16108223

> <PUBCHEM_CID_ASSOCIATIONS>
117599883  1

> <PUBCHEM_COORDINATE_TYPE>
1
3

$$$$
