310949716
  -OEChem-07211613022D

 21 22  0     0  0  0  0  0  0999 V2000
   -1.0766   -2.2719    0.0000 Cl  0  0  0  0  0  0  0  0  0  0  0  0
    1.0766   -1.0276    0.0000 O   0  0  0  0  0  0  0  0  0  0  0  0
    1.0766    2.2719    0.0000 O   0  0  0  0  0  0  0  0  0  0  0  0
    0.3635    1.0276    0.0000 O   0  0  0  0  0  0  0  0  0  0  0  0
    0.3635    0.2167    0.0000 N   0  0  0  0  0  0  0  0  0  0  0  0
   -3.2297    0.6361    0.0000 N   0  0  0  0  0  0  0  0  0  0  0  0
    1.7896    0.2167    0.0000 C   0  0  0  0  0  0  0  0  0  0  0  0
    1.8036    1.0276    0.0000 C   0  0  0  0  0  0  0  0  0  0  0  0
    1.0906   -0.1748    0.0000 C   0  0  0  0  0  0  0  0  0  0  0  0
   -0.3495   -0.2027    0.0000 C   0  0  0  0  0  0  0  0  0  0  0  0
   -1.7757   -0.2027    0.0000 C   0  0  0  0  0  0  0  0  0  0  0  0
   -1.0906    0.1888    0.0000 C   0  0  0  0  0  0  0  0  0  0  0  0
    2.5027   -0.1888    0.0000 C   0  0  0  0  0  0  0  0  0  0  0  0
    1.0766    1.4331    0.0000 C   0  0  0  0  0  0  0  0  0  0  0  0
   -0.3635   -1.0416    0.0000 C   0  0  0  0  0  0  0  0  0  0  0  0
   -1.0625   -1.4470    0.0000 C   0  0  0  0  0  0  0  0  0  0  0  0
    2.5027    1.4331    0.0000 C   0  0  0  0  0  0  0  0  0  0  0  0
   -1.7757   -1.0136    0.0000 C   0  0  0  0  0  0  0  0  0  0  0  0
    3.2297    0.2167    0.0000 C   0  0  0  0  0  0  0  0  0  0  0  0
    3.2297    1.0136    0.0000 C   0  0  0  0  0  0  0  0  0  0  0  0
   -2.5027    0.2167    0.0000 C   0  0  0  0  0  0  0  0  0  0  0  0
  1 16  1  0  0  0  0
  2  9  2  0  0  0  0
  3 14  2  0  0  0  0
  4 14  1  0  0  0  0
  5  9  1  0  0  0  0
  5 10  1  0  0  0  0
  6 21  3  0  0  0  0
  7  8  1  0  0  0  0
  7  9  1  0  0  0  0
  7 13  2  0  0  0  0
  8 14  1  0  0  0  0
  8 17  2  0  0  0  0
 10 12  1  0  0  0  0
 10 15  2  0  0  0  0
 11 12  2  0  0  0  0
 11 18  1  0  0  0  0
 11 21  1  0  0  0  0
 13 19  1  0  0  0  0
 15 16  1  0  0  0  0
 16 18  2  0  0  0  0
 17 20  1  0  0  0  0
 19 20  2  0  0  0  0
M  END
> <PUBCHEM_COMPOUND_ID_TYPE>
0

> <PUBCHEM_TOTAL_CHARGE>
0

> <PUBCHEM_SUBSTANCE_ID>
310949716

> <PUBCHEM_SUBSTANCE_VERSION>
1

> <PUBCHEM_EXT_DATASOURCE_NAME>
4488

> <PUBCHEM_EXT_DATASOURCE_REGID>
SCHEMBL16127914

> <PUBCHEM_SUBSTANCE_COMMENT>
InChI=1S/C15H9ClN2O3/c16-10-5-9(8-17)6-11(7-10)18-14(19)12-3-1-2-4-13(12)15(20)21/h1-7H,(H,18,19)(H,20,21)
InChIKey=UDDQSONWPPQOKC-UHFFFAOYSA-N

> <PUBCHEM_SUBSTANCE_SYNONYM>
SCHEMBL16127914

> <PUBCHEM_XREF_EXT_ID>
SCHEMBL16127914

> <PUBCHEM_EXT_DATASOURCE_URL>
https://www.surechembl.org/

> <PUBCHEM_EXT_SUBSTANCE_URL>
https://www.surechembl.org/chemical/SCHEMBL16127914

> <PUBCHEM_CID_ASSOCIATIONS>
85472717  1

> <PUBCHEM_COORDINATE_TYPE>
1
3

$$$$
