310948615
  -OEChem-07211613022D

 37 41  0     1  0  0  0  0  0999 V2000
   -2.3742   -0.2133    0.0000 F   0  0  0  0  0  0  0  0  0  0  0  0
   -3.9158    0.1996    0.0000 O   0  0  0  0  0  0  0  0  0  0  0  0
   -4.6177    1.4245    0.0000 O   0  0  0  0  0  0  0  0  0  0  0  0
    4.1497    2.5119    0.0000 O   0  0  0  0  0  0  0  0  0  0  0  0
    4.1497    1.1768    0.0000 O   0  0  0  0  0  0  0  0  0  0  0  0
   -0.2133    2.6633    0.0000 O   0  0  0  0  0  0  0  0  0  0  0  0
    0.4886   -0.2133    0.0000 N   0  0  3  0  0  0  0  0  0  0  0  0
    0.4886    1.4383    0.0000 N   0  0  0  0  0  0  0  0  0  0  0  0
    1.2043    2.6770    0.0000 N   0  0  0  0  0  0  0  0  0  0  0  0
   -2.3880    1.4521    0.0000 C   0  0  3  0  0  0  0  0  0  0  0  0
   -1.6310    1.0116    0.0000 C   0  0  0  0  0  0  0  0  0  0  0  0
   -3.1863    1.4521    0.0000 C   0  0  3  0  0  0  0  0  0  0  0  0
   -2.8009    2.1265    0.0000 C   0  0  0  0  0  0  0  0  0  0  0  0
   -0.2271    0.2133    0.0000 C   0  0  0  0  0  0  0  0  0  0  0  0
   -1.6585    0.1996    0.0000 C   0  0  0  0  0  0  0  0  0  0  0  0
   -0.2271    1.0392    0.0000 C   0  0  0  0  0  0  0  0  0  0  0  0
   -0.9566    1.4245    0.0000 C   0  0  0  0  0  0  0  0  0  0  0  0
   -0.9290   -0.1996    0.0000 C   0  0  0  0  0  0  0  0  0  0  0  0
   -3.9295    1.0392    0.0000 C   0  0  0  0  0  0  0  0  0  0  0  0
    0.4886   -1.0392    0.0000 C   0  0  0  0  0  0  0  0  0  0  0  0
    0.5161    2.2641    0.0000 C   0  0  0  0  0  0  0  0  0  0  0  0
    1.1905    0.1996    0.0000 C   0  0  0  0  0  0  0  0  0  0  0  0
    1.9338    2.2641    0.0000 C   0  0  0  0  0  0  0  0  0  0  0  0
    3.3514    2.2641    0.0000 C   0  0  0  0  0  0  0  0  0  0  0  0
    3.3514    1.4521    0.0000 C   0  0  0  0  0  0  0  0  0  0  0  0
   -0.2133   -1.4521    0.0000 C   0  0  0  0  0  0  0  0  0  0  0  0
    1.2043   -1.4521    0.0000 C   0  0  0  0  0  0  0  0  0  0  0  0
    2.6220    2.6633    0.0000 C   0  0  0  0  0  0  0  0  0  0  0  0
    1.9338   -0.1996    0.0000 C   0  0  0  0  0  0  0  0  0  0  0  0
    1.9338    1.4383    0.0000 C   0  0  0  0  0  0  0  0  0  0  0  0
    2.6357    1.0254    0.0000 C   0  0  0  0  0  0  0  0  0  0  0  0
    4.6177    1.8649    0.0000 C   0  0  0  0  0  0  0  0  0  0  0  0
   -0.2133   -2.2779    0.0000 C   0  0  0  0  0  0  0  0  0  0  0  0
    1.2043   -2.2779    0.0000 C   0  0  0  0  0  0  0  0  0  0  0  0
    0.5024   -2.6770    0.0000 C   0  0  0  0  0  0  0  0  0  0  0  0
    1.9338   -1.0392    0.0000 C   0  0  0  0  0  0  0  0  0  0  0  0
    2.6495    0.1858    0.0000 C   0  0  0  0  0  0  0  0  0  0  0  0
  1 15  1  0  0  0  0
  2 19  2  0  0  0  0
  3 19  1  0  0  0  0
  4 24  1  0  0  0  0
  4 32  1  0  0  0  0
  5 25  1  0  0  0  0
  5 32  1  0  0  0  0
  6 21  2  0  0  0  0
  7 14  1  0  0  0  0
  7 20  1  0  0  0  0
  7 22  1  0  0  0  0
  8 16  1  0  0  0  0
  8 21  1  0  0  0  0
  9 21  1  0  0  0  0
  9 23  1  0  0  0  0
 10 11  1  0  0  0  0
 10 12  1  0  0  0  0
 10 13  1  1  0  0  0
 11 15  2  0  0  0  0
 11 17  1  0  0  0  0
 12 13  1  0  0  0  0
 12 19  1  1  0  0  0
 14 16  1  0  0  0  0
 14 18  2  0  0  0  0
 15 18  1  0  0  0  0
 16 17  2  0  0  0  0
 20 26  1  0  0  0  0
 20 27  1  0  0  0  0
 22 29  1  0  0  0  0
 23 28  1  0  0  0  0
 23 30  2  0  0  0  0
 24 25  1  0  0  0  0
 24 28  2  0  0  0  0
 25 31  2  0  0  0  0
 26 33  1  0  0  0  0
 27 34  1  0  0  0  0
 29 36  1  0  0  0  0
 29 37  1  0  0  0  0
 30 31  1  0  0  0  0
 33 35  1  0  0  0  0
 34 35  1  0  0  0  0
M  END
> <PUBCHEM_COMPOUND_ID_TYPE>
0

> <PUBCHEM_TOTAL_CHARGE>
0

> <PUBCHEM_SUBSTANCE_ID>
310948615

> <PUBCHEM_SUBSTANCE_VERSION>
1

> <PUBCHEM_EXT_DATASOURCE_NAME>
4488

> <PUBCHEM_EXT_DATASOURCE_REGID>
SCHEMBL16126798

> <PUBCHEM_SUBSTANCE_COMMENT>
InChI=1S/C28H34FN3O5/c1-16(2)14-32(18-6-4-3-5-7-18)24-13-22(29)20(19-11-21(19)27(33)34)12-23(24)31-28(35)30-17-8-9-25-26(10-17)37-15-36-25/h8-10,12-13,16,18-19,21H,3-7,11,14-15H2,1-2H3,(H,33,34)(H2,30,31,35)/t19-,21-/m0/s1
InChIKey=UELHXUXKGVYXEI-FPOVZHCZSA-N

> <PUBCHEM_SUBSTANCE_SYNONYM>
SCHEMBL16126798

> <PUBCHEM_XREF_EXT_ID>
SCHEMBL16126798

> <PUBCHEM_EXT_DATASOURCE_URL>
https://www.surechembl.org/

> <PUBCHEM_EXT_SUBSTANCE_URL>
https://www.surechembl.org/chemical/SCHEMBL16126798

> <PUBCHEM_CID_ASSOCIATIONS>
117614159  1

> <PUBCHEM_COORDINATE_TYPE>
1
3

> <PUBCHEM_BONDANNOTATIONS>
10  13  5
12  19  5

$$$$
