310935156
  -OEChem-07211613022D

 36 40  0     1  0  0  0  0  0999 V2000
    0.7145   -1.2375    0.0000 F   0  0  0  0  0  0  0  0  0  0  0  0
    5.8756   -1.7330    0.0000 F   0  0  0  0  0  0  0  0  0  0  0  0
    2.2089   -2.5693    0.0000 O   0  0  0  0  0  0  0  0  0  0  0  0
    3.2221   -3.0078    0.0000 O   0  0  0  0  0  0  0  0  0  0  0  0
   -1.4641   -3.4651    0.0000 O   0  0  0  0  0  0  0  0  0  0  0  0
   -0.7846   -0.2549    0.0000 N   0  0  0  0  0  0  0  0  0  0  0  0
   -1.2695    0.4125    0.0000 N   0  0  0  0  0  0  0  0  0  0  0  0
    3.0366   -1.4045    0.0000 C   0  0  3  0  0  0  0  0  0  0  0  0
    3.6989   -1.8964    0.0000 C   0  0  0  0  0  0  0  0  0  0  0  0
    2.1434   -0.4125    0.0000 C   0  0  0  0  0  0  0  0  0  0  0  0
    2.2296   -1.2330    0.0000 C   0  0  0  0  0  0  0  0  0  0  0  0
    1.4289    0.0000    0.0000 C   0  0  0  0  0  0  0  0  0  0  0  0
    2.9590   -2.2258    0.0000 C   0  0  0  0  0  0  0  0  0  0  0  0
    3.4491   -0.6900    0.0000 C   0  0  0  0  0  0  0  0  0  0  0  0
    0.7145   -0.4125    0.0000 C   0  0  0  0  0  0  0  0  0  0  0  0
   -0.0000    0.0000    0.0000 C   0  0  0  0  0  0  0  0  0  0  0  0
    2.8971   -0.0769    0.0000 C   0  0  0  0  0  0  0  0  0  0  0  0
    4.4561   -1.5687    0.0000 C   0  0  0  0  0  0  0  0  0  0  0  0
   -0.0000    0.8250    0.0000 C   0  0  0  0  0  0  0  0  0  0  0  0
    3.6041   -2.7159    0.0000 C   0  0  0  0  0  0  0  0  0  0  0  0
    1.4289    0.8250    0.0000 C   0  0  0  0  0  0  0  0  0  0  0  0
    5.1184   -2.0606    0.0000 C   0  0  0  0  0  0  0  0  0  0  0  0
    0.7145    1.2375    0.0000 C   0  0  0  0  0  0  0  0  0  0  0  0
   -0.7846    1.0799    0.0000 C   0  0  0  0  0  0  0  0  0  0  0  0
    4.2664   -3.2078    0.0000 C   0  0  0  0  0  0  0  0  0  0  0  0
    5.0236   -2.8802    0.0000 C   0  0  0  0  0  0  0  0  0  0  0  0
    4.5509   -0.7492    0.0000 C   0  0  0  0  0  0  0  0  0  0  0  0
    1.5364   -2.0914    0.0000 C   0  0  0  0  0  0  0  0  0  0  0  0
   -1.0396   -1.0396    0.0000 C   0  0  0  0  0  0  0  0  0  0  0  0
    0.7863   -2.4348    0.0000 C   0  0  0  0  0  0  0  0  0  0  0  0
    0.1138   -1.9569    0.0000 C   0  0  0  0  0  0  0  0  0  0  0  0
    0.7086   -3.2561    0.0000 C   0  0  0  0  0  0  0  0  0  0  0  0
   -0.7140   -3.1217    0.0000 C   0  0  0  0  0  0  0  0  0  0  0  0
   -0.6363   -2.3003    0.0000 C   0  0  0  0  0  0  0  0  0  0  0  0
   -0.0415   -3.5996    0.0000 C   0  0  0  0  0  0  0  0  0  0  0  0
   -1.5417   -4.2864    0.0000 C   0  0  0  0  0  0  0  0  0  0  0  0
  1 15  1  0  0  0  0
  2 22  1  0  0  0  0
  3 13  1  0  0  0  0
  3 28  1  0  0  0  0
  4 13  2  0  0  0  0
  5 33  1  0  0  0  0
  5 36  1  0  0  0  0
  6  7  1  0  0  0  0
  6 16  1  0  0  0  0
  6 29  1  0  0  0  0
  7 24  2  0  0  0  0
  8  9  1  1  0  0  0
  8 11  1  0  0  0  0
  8 13  1  6  0  0  0
  8 14  1  0  0  0  0
  9 18  2  0  0  0  0
  9 20  1  0  0  0  0
 10 11  2  0  0  0  0
 10 12  1  0  0  0  0
 10 17  1  0  0  0  0
 12 15  1  0  0  0  0
 12 21  2  0  0  0  0
 14 17  1  0  0  0  0
 15 16  2  0  0  0  0
 16 19  1  0  0  0  0
 18 22  1  0  0  0  0
 18 27  1  0  0  0  0
 19 23  2  0  0  0  0
 19 24  1  0  0  0  0
 20 25  2  0  0  0  0
 21 23  1  0  0  0  0
 22 26  2  0  0  0  0
 25 26  1  0  0  0  0
 28 30  1  0  0  0  0
 30 31  2  0  0  0  0
 30 32  1  0  0  0  0
 31 34  1  0  0  0  0
 32 35  2  0  0  0  0
 33 34  2  0  0  0  0
 33 35  1  0  0  0  0
M  END
> <PUBCHEM_COMPOUND_ID_TYPE>
0

> <PUBCHEM_TOTAL_CHARGE>
0

> <PUBCHEM_SUBSTANCE_ID>
310935156

> <PUBCHEM_SUBSTANCE_VERSION>
1

> <PUBCHEM_EXT_DATASOURCE_NAME>
4488

> <PUBCHEM_EXT_DATASOURCE_REGID>
SCHEMBL16112684

> <PUBCHEM_SUBSTANCE_COMMENT>
InChI=1S/C29H26F2N2O3/c1-18-24(5-4-6-25(18)30)29(28(34)36-17-19-7-10-22(35-3)11-8-19)14-13-20(15-29)23-12-9-21-16-32-33(2)27(21)26(23)31/h4-12,15-16H,13-14,17H2,1-3H3/t29-/m0/s1
InChIKey=RYNVQQDJKPNEFB-LJAQVGFWSA-N

> <PUBCHEM_SUBSTANCE_SYNONYM>
SCHEMBL16112684

> <PUBCHEM_XREF_EXT_ID>
SCHEMBL16112684

> <PUBCHEM_EXT_DATASOURCE_URL>
https://www.surechembl.org/

> <PUBCHEM_EXT_SUBSTANCE_URL>
https://www.surechembl.org/chemical/SCHEMBL16112684

> <PUBCHEM_CID_ASSOCIATIONS>
117603241  1

> <PUBCHEM_COORDINATE_TYPE>
1
3

> <PUBCHEM_BONDANNOTATIONS>
8  13  6
8  9  5

$$$$
