310943256
  -OEChem-07211613022D

 35 39  0     0  0  0  0  0  0999 V2000
    1.7531    2.2762    0.0000 O   0  0  0  0  0  0  0  0  0  0  0  0
   -5.4511    2.2762    0.0000 O   0  0  0  0  0  0  0  0  0  0  0  0
   -1.1344   -2.7034    0.0000 O   0  0  0  0  0  0  0  0  0  0  0  0
   -4.0073    1.4512    0.0000 N   0  0  0  0  0  0  0  0  0  0  0  0
   -3.3001    0.2136    0.0000 N   0  0  0  0  0  0  0  0  0  0  0  0
    1.0313    1.0386    0.0000 N   0  0  0  0  0  0  0  0  0  0  0  0
    3.9041    0.2136    0.0000 N   0  0  0  0  0  0  0  0  0  0  0  0
   -2.5782   -1.0386    0.0000 N   0  0  0  0  0  0  0  0  0  0  0  0
    3.1823   -0.2136    0.0000 N   0  0  0  0  0  0  0  0  0  0  0  0
   -1.8416    1.0386    0.0000 C   0  0  0  0  0  0  0  0  0  0  0  0
   -1.1344    1.4659    0.0000 C   0  0  0  0  0  0  0  0  0  0  0  0
   -3.2853    1.0386    0.0000 C   0  0  0  0  0  0  0  0  0  0  0  0
   -2.5782    1.4512    0.0000 C   0  0  0  0  0  0  0  0  0  0  0  0
   -1.1197    2.2909    0.0000 C   0  0  0  0  0  0  0  0  0  0  0  0
   -1.8563    0.1989    0.0000 C   0  0  0  0  0  0  0  0  0  0  0  0
   -2.5635   -0.1989    0.0000 C   0  0  0  0  0  0  0  0  0  0  0  0
   -0.3830    1.0534    0.0000 C   0  0  0  0  0  0  0  0  0  0  0  0
    0.3094    1.4659    0.0000 C   0  0  0  0  0  0  0  0  0  0  0  0
    3.9189    1.0386    0.0000 C   0  0  0  0  0  0  0  0  0  0  0  0
    4.6408    1.4659    0.0000 C   0  0  0  0  0  0  0  0  0  0  0  0
    2.4751    1.0386    0.0000 C   0  0  0  0  0  0  0  0  0  0  0  0
    1.7384    1.4365    0.0000 C   0  0  0  0  0  0  0  0  0  0  0  0
   -0.3978    2.6887    0.0000 C   0  0  0  0  0  0  0  0  0  0  0  0
    3.1823    1.4512    0.0000 C   0  0  0  0  0  0  0  0  0  0  0  0
    0.3094    2.2762    0.0000 C   0  0  0  0  0  0  0  0  0  0  0  0
    5.0386    2.1436    0.0000 C   0  0  0  0  0  0  0  0  0  0  0  0
    5.4511    1.4659    0.0000 C   0  0  0  0  0  0  0  0  0  0  0  0
    2.4751    0.2136    0.0000 C   0  0  0  0  0  0  0  0  0  0  0  0
   -4.0220    2.2909    0.0000 C   0  0  0  0  0  0  0  0  0  0  0  0
   -4.7291    1.0534    0.0000 C   0  0  0  0  0  0  0  0  0  0  0  0
   -1.8563    2.7034    0.0000 C   0  0  0  0  0  0  0  0  0  0  0  0
   -4.7291    2.7034    0.0000 C   0  0  0  0  0  0  0  0  0  0  0  0
   -5.4511    1.4512    0.0000 C   0  0  0  0  0  0  0  0  0  0  0  0
   -1.8416   -1.4512    0.0000 C   0  0  0  0  0  0  0  0  0  0  0  0
   -1.8416   -2.2762    0.0000 C   0  0  0  0  0  0  0  0  0  0  0  0
  1 22  2  0  0  0  0
  2 32  1  0  0  0  0
  2 33  1  0  0  0  0
  3 35  1  0  0  0  0
  4 12  1  0  0  0  0
  4 29  1  0  0  0  0
  4 30  1  0  0  0  0
  5 12  2  0  0  0  0
  5 16  1  0  0  0  0
  6 18  1  0  0  0  0
  6 22  1  0  0  0  0
  7  9  2  0  0  0  0
  7 19  1  0  0  0  0
  8 16  1  0  0  0  0
  8 34  1  0  0  0  0
  9 28  1  0  0  0  0
 10 11  1  0  0  0  0
 10 13  2  0  0  0  0
 10 15  1  0  0  0  0
 11 14  1  0  0  0  0
 11 17  2  0  0  0  0
 12 13  1  0  0  0  0
 14 23  2  0  0  0  0
 14 31  1  0  0  0  0
 15 16  2  0  0  0  0
 17 18  1  0  0  0  0
 18 25  2  0  0  0  0
 19 20  1  0  0  0  0
 19 24  2  0  0  0  0
 20 26  1  0  0  0  0
 20 27  1  0  0  0  0
 21 22  1  0  0  0  0
 21 24  1  0  0  0  0
 21 28  2  0  0  0  0
 23 25  1  0  0  0  0
 26 27  1  0  0  0  0
 29 32  1  0  0  0  0
 30 33  1  0  0  0  0
 34 35  1  0  0  0  0
M  END
> <PUBCHEM_COMPOUND_ID_TYPE>
0

> <PUBCHEM_TOTAL_CHARGE>
0

> <PUBCHEM_SUBSTANCE_ID>
310943256

> <PUBCHEM_SUBSTANCE_VERSION>
1

> <PUBCHEM_EXT_DATASOURCE_NAME>
4488

> <PUBCHEM_EXT_DATASOURCE_REGID>
SCHEMBL16121318

> <PUBCHEM_SUBSTANCE_COMMENT>
InChI=1S/C26H30N6O3/c1-17-2-5-21(29-26(34)20-12-23(18-3-4-18)31-28-16-20)15-22(17)19-13-24(27-6-9-33)30-25(14-19)32-7-10-35-11-8-32/h2,5,12-16,18,33H,3-4,6-11H2,1H3,(H,27,30)(H,29,34)
InChIKey=AHAVAGXJMSMGRE-UHFFFAOYSA-N

> <PUBCHEM_SUBSTANCE_SYNONYM>
SCHEMBL16121318

> <PUBCHEM_XREF_EXT_ID>
SCHEMBL16121318

> <PUBCHEM_EXT_DATASOURCE_URL>
https://www.surechembl.org/

> <PUBCHEM_EXT_SUBSTANCE_URL>
https://www.surechembl.org/chemical/SCHEMBL16121318

> <PUBCHEM_CID_ASSOCIATIONS>
117609681  1

> <PUBCHEM_COORDINATE_TYPE>
1
3

$$$$
