310944278
  -OEChem-07211613022D

 29 31  0     0  0  0  0  0  0999 V2000
   -3.2628   -0.8531    0.0000 O   0  0  0  0  0  0  0  0  0  0  0  0
   -0.3861   -0.8531    0.0000 O   0  0  0  0  0  0  0  0  0  0  0  0
    1.0461    1.6377    0.0000 O   0  0  0  0  0  0  0  0  0  0  0  0
    4.6452   -0.4297    0.0000 O   0  0  0  0  0  0  0  0  0  0  0  0
   -0.3736    0.8157    0.0000 N   0  0  0  0  0  0  0  0  0  0  0  0
    1.7933    0.3923    0.0000 N   0  0  0  0  0  0  0  0  0  0  0  0
    3.2254   -0.4297    0.0000 N   0  0  0  0  0  0  0  0  0  0  0  0
   -2.5281    0.4047    0.0000 C   0  0  0  0  0  0  0  0  0  0  0  0
   -2.5281   -0.4297    0.0000 C   0  0  0  0  0  0  0  0  0  0  0  0
   -1.0959    0.4047    0.0000 C   0  0  0  0  0  0  0  0  0  0  0  0
   -1.1083   -0.4297    0.0000 C   0  0  0  0  0  0  0  0  0  0  0  0
   -1.8182    0.8033    0.0000 C   0  0  0  0  0  0  0  0  0  0  0  0
   -3.2628    0.8157    0.0000 C   0  0  0  0  0  0  0  0  0  0  0  0
   -1.8058   -0.8406    0.0000 C   0  0  0  0  0  0  0  0  0  0  0  0
    1.0586    0.8033    0.0000 C   0  0  0  0  0  0  0  0  0  0  0  0
    0.3611    0.4047    0.0000 C   0  0  0  0  0  0  0  0  0  0  0  0
   -3.9602    0.4047    0.0000 C   0  0  0  0  0  0  0  0  0  0  0  0
   -3.2504    1.6377    0.0000 C   0  0  0  0  0  0  0  0  0  0  0  0
    2.5032    0.8157    0.0000 C   0  0  0  0  0  0  0  0  0  0  0  0
    1.7809   -0.4297    0.0000 C   0  0  0  0  0  0  0  0  0  0  0  0
    3.2130    0.4047    0.0000 C   0  0  0  0  0  0  0  0  0  0  0  0
    2.5156   -0.8406    0.0000 C   0  0  0  0  0  0  0  0  0  0  0  0
    3.9229   -0.8531    0.0000 C   0  0  0  0  0  0  0  0  0  0  0  0
   -4.6825    0.8157    0.0000 C   0  0  0  0  0  0  0  0  0  0  0  0
   -3.9602    2.0486    0.0000 C   0  0  0  0  0  0  0  0  0  0  0  0
   -4.6825    1.6377    0.0000 C   0  0  0  0  0  0  0  0  0  0  0  0
   -3.9726   -0.4297    0.0000 C   0  0  0  0  0  0  0  0  0  0  0  0
    3.9353   -1.6750    0.0000 C   0  0  0  0  0  0  0  0  0  0  0  0
    4.6825   -2.0486    0.0000 C   0  0  0  0  0  0  0  0  0  0  0  0
  1  9  1  0  0  0  0
  1 27  1  0  0  0  0
  2 11  1  0  0  0  0
  3 15  2  0  0  0  0
  4 23  2  0  0  0  0
  5 10  1  0  0  0  0
  5 16  1  0  0  0  0
  6 15  1  0  0  0  0
  6 19  1  0  0  0  0
  6 20  1  0  0  0  0
  7 21  1  0  0  0  0
  7 22  1  0  0  0  0
  7 23  1  0  0  0  0
  8  9  2  0  0  0  0
  8 12  1  0  0  0  0
  8 13  1  0  0  0  0
  9 14  1  0  0  0  0
 10 11  1  0  0  0  0
 10 12  2  0  0  0  0
 11 14  2  0  0  0  0
 13 17  2  0  0  0  0
 13 18  1  0  0  0  0
 15 16  1  0  0  0  0
 17 24  1  0  0  0  0
 18 25  2  0  0  0  0
 19 21  1  0  0  0  0
 20 22  1  0  0  0  0
 23 28  1  0  0  0  0
 24 26  2  0  0  0  0
 25 26  1  0  0  0  0
 28 29  2  0  0  0  0
M  END
> <PUBCHEM_COMPOUND_ID_TYPE>
0

> <PUBCHEM_TOTAL_CHARGE>
0

> <PUBCHEM_SUBSTANCE_ID>
310944278

> <PUBCHEM_SUBSTANCE_VERSION>
1

> <PUBCHEM_EXT_DATASOURCE_NAME>
4488

> <PUBCHEM_EXT_DATASOURCE_REGID>
SCHEMBL16122353

> <PUBCHEM_SUBSTANCE_COMMENT>
InChI=1S/C22H25N3O4/c1-3-21(27)24-9-11-25(12-10-24)22(28)15-23-18-13-17(16-7-5-4-6-8-16)20(29-2)14-19(18)26/h3-8,13-14,23,26H,1,9-12,15H2,2H3
InChIKey=UMFOJBJRTXMVKL-UHFFFAOYSA-N

> <PUBCHEM_SUBSTANCE_SYNONYM>
SCHEMBL16122353

> <PUBCHEM_XREF_EXT_ID>
SCHEMBL16122353

> <PUBCHEM_EXT_DATASOURCE_URL>
https://www.surechembl.org/

> <PUBCHEM_EXT_SUBSTANCE_URL>
https://www.surechembl.org/chemical/SCHEMBL16122353

> <PUBCHEM_CID_ASSOCIATIONS>
117610546  1

> <PUBCHEM_COORDINATE_TYPE>
1
3

$$$$
