310945540
  -OEChem-07211613022D

 33 36  0     0  0  0  0  0  0999 V2000
    0.0676    1.9891    0.0000 F   0  0  0  0  0  0  0  0  0  0  0  0
    0.8207    2.8967    0.0000 F   0  0  0  0  0  0  0  0  0  0  0  0
    1.5739    1.9891    0.0000 F   0  0  0  0  0  0  0  0  0  0  0  0
    4.5092   -1.3131    0.0000 F   0  0  0  0  0  0  0  0  0  0  0  0
    4.7795   -2.5491    0.0000 F   0  0  0  0  0  0  0  0  0  0  0  0
    3.7367   -2.8967    0.0000 F   0  0  0  0  0  0  0  0  0  0  0  0
   -4.0071   -0.7532    0.0000 F   0  0  0  0  0  0  0  0  0  0  0  0
   -4.7795    0.1545    0.0000 F   0  0  0  0  0  0  0  0  0  0  0  0
   -4.0071    1.0621    0.0000 F   0  0  0  0  0  0  0  0  0  0  0  0
   -0.5503    0.9076    0.0000 N   0  0  0  0  0  0  0  0  0  0  0  0
   -0.5503   -0.5794    0.0000 N   0  0  0  0  0  0  0  0  0  0  0  0
    1.4773    0.6179    0.0000 N   0  0  0  0  0  0  0  0  0  0  0  0
    0.8207   -0.7338    0.0000 N   0  0  0  0  0  0  0  0  0  0  0  0
   -2.8677   -0.6372    0.0000 N   0  0  0  0  0  0  0  0  0  0  0  0
    2.7905   -2.1049    0.0000 N   0  0  0  0  0  0  0  0  0  0  0  0
    0.1834    0.6179    0.0000 C   0  0  0  0  0  0  0  0  0  0  0  0
    0.8014    1.0428    0.0000 C   0  0  0  0  0  0  0  0  0  0  0  0
    0.1449   -0.3090    0.0000 C   0  0  0  0  0  0  0  0  0  0  0  0
   -1.0139    0.1352    0.0000 C   0  0  0  0  0  0  0  0  0  0  0  0
    1.4580   -0.3090    0.0000 C   0  0  0  0  0  0  0  0  0  0  0  0
    0.8207    1.9698    0.0000 C   0  0  0  0  0  0  0  0  0  0  0  0
   -1.7477    0.1545    0.0000 C   0  0  0  0  0  0  0  0  0  0  0  0
    2.1532   -0.7532    0.0000 C   0  0  0  0  0  0  0  0  0  0  0  0
   -2.1339   -0.6566    0.0000 C   0  0  0  0  0  0  0  0  0  0  0  0
   -2.1146    0.9076    0.0000 C   0  0  0  0  0  0  0  0  0  0  0  0
    2.1339   -1.6608    0.0000 C   0  0  0  0  0  0  0  0  0  0  0  0
    2.7905   -0.3090    0.0000 C   0  0  0  0  0  0  0  0  0  0  0  0
    3.4471   -1.6608    0.0000 C   0  0  0  0  0  0  0  0  0  0  0  0
   -3.2540    0.1352    0.0000 C   0  0  0  0  0  0  0  0  0  0  0  0
   -2.8677    0.9076    0.0000 C   0  0  0  0  0  0  0  0  0  0  0  0
    3.4664   -0.7725    0.0000 C   0  0  0  0  0  0  0  0  0  0  0  0
    4.1230   -2.1243    0.0000 C   0  0  0  0  0  0  0  0  0  0  0  0
   -4.0071    0.1352    0.0000 C   0  0  0  0  0  0  0  0  0  0  0  0
  1 21  1  0  0  0  0
  2 21  1  0  0  0  0
  3 21  1  0  0  0  0
  4 32  1  0  0  0  0
  5 32  1  0  0  0  0
  6 32  1  0  0  0  0
  7 33  1  0  0  0  0
  8 33  1  0  0  0  0
  9 33  1  0  0  0  0
 10 16  1  0  0  0  0
 10 19  2  0  0  0  0
 11 18  1  0  0  0  0
 11 19  1  0  0  0  0
 12 17  2  0  0  0  0
 12 20  1  0  0  0  0
 13 18  1  0  0  0  0
 13 20  2  0  0  0  0
 14 24  2  0  0  0  0
 14 29  1  0  0  0  0
 15 26  1  0  0  0  0
 15 28  2  0  0  0  0
 16 17  1  0  0  0  0
 16 18  2  0  0  0  0
 17 21  1  0  0  0  0
 19 22  1  0  0  0  0
 20 23  1  0  0  0  0
 22 24  1  0  0  0  0
 22 25  2  0  0  0  0
 23 26  2  0  0  0  0
 23 27  1  0  0  0  0
 25 30  1  0  0  0  0
 27 31  2  0  0  0  0
 28 31  1  0  0  0  0
 28 32  1  0  0  0  0
 29 30  2  0  0  0  0
 29 33  1  0  0  0  0
M  END
> <PUBCHEM_COMPOUND_ID_TYPE>
0

> <PUBCHEM_TOTAL_CHARGE>
0

> <PUBCHEM_SUBSTANCE_ID>
310945540

> <PUBCHEM_SUBSTANCE_VERSION>
1

> <PUBCHEM_EXT_DATASOURCE_NAME>
4488

> <PUBCHEM_EXT_DATASOURCE_REGID>
SCHEMBL16123638

> <PUBCHEM_SUBSTANCE_COMMENT>
InChI=1S/C18H7F9N6/c19-16(20,21)9-3-1-7(5-28-9)13-30-11-12(18(25,26)27)31-14(33-15(11)32-13)8-2-4-10(29-6-8)17(22,23)24/h1-6H,(H,30,31,32,33)
InChIKey=HUJVMAKHSXIYBJ-UHFFFAOYSA-N

> <PUBCHEM_SUBSTANCE_SYNONYM>
SCHEMBL16123638

> <PUBCHEM_XREF_EXT_ID>
SCHEMBL16123638

> <PUBCHEM_EXT_DATASOURCE_URL>
https://www.surechembl.org/

> <PUBCHEM_EXT_SUBSTANCE_URL>
https://www.surechembl.org/chemical/SCHEMBL16123638

> <PUBCHEM_CID_ASSOCIATIONS>
117611581  1

> <PUBCHEM_COORDINATE_TYPE>
1
3

$$$$
