310943663
  -OEChem-07211613022D

 36 39  0     0  0  0  0  0  0999 V2000
   -2.8432   -1.2353    0.0000 O   0  0  0  0  0  0  0  0  0  0  0  0
    1.4253    2.0539    0.0000 O   0  0  0  0  0  0  0  0  0  0  0  0
   -5.6937    2.0539    0.0000 O   0  0  0  0  0  0  0  0  0  0  0  0
   -4.2758    1.2353    0.0000 N   0  0  0  0  0  0  0  0  0  0  0  0
   -3.5595    0.0073    0.0000 N   0  0  0  0  0  0  0  0  0  0  0  0
   -0.7089    2.4777    0.0000 N   0  0  0  0  0  0  0  0  0  0  0  0
    0.7089    0.8259    0.0000 N   0  0  0  0  0  0  0  0  0  0  0  0
    3.5595    0.0073    0.0000 N   0  0  0  0  0  0  0  0  0  0  0  0
    5.6937    0.4312    0.0000 N   0  0  0  0  0  0  0  0  0  0  0  0
   -2.1269    0.8259    0.0000 C   0  0  0  0  0  0  0  0  0  0  0  0
   -1.4399    1.2353    0.0000 C   0  0  0  0  0  0  0  0  0  0  0  0
   -3.5595    0.8405    0.0000 C   0  0  0  0  0  0  0  0  0  0  0  0
   -2.8578    1.2353    0.0000 C   0  0  0  0  0  0  0  0  0  0  0  0
   -1.4253    2.0684    0.0000 C   0  0  0  0  0  0  0  0  0  0  0  0
   -0.6944    0.8259    0.0000 C   0  0  0  0  0  0  0  0  0  0  0  0
   -2.1416   -0.0073    0.0000 C   0  0  0  0  0  0  0  0  0  0  0  0
   -0.0073    1.2353    0.0000 C   0  0  0  0  0  0  0  0  0  0  0  0
   -2.8432   -0.4020    0.0000 C   0  0  0  0  0  0  0  0  0  0  0  0
    2.1416    0.8259    0.0000 C   0  0  0  0  0  0  0  0  0  0  0  0
    3.5595    0.8405    0.0000 C   0  0  0  0  0  0  0  0  0  0  0  0
    1.4106    1.2206    0.0000 C   0  0  0  0  0  0  0  0  0  0  0  0
    4.2758    1.2498    0.0000 C   0  0  0  0  0  0  0  0  0  0  0  0
    0.0073    2.0684    0.0000 C   0  0  0  0  0  0  0  0  0  0  0  0
    2.8286    1.2353    0.0000 C   0  0  0  0  0  0  0  0  0  0  0  0
    2.1416    0.0073    0.0000 C   0  0  0  0  0  0  0  0  0  0  0  0
   -4.2611    2.0539    0.0000 C   0  0  0  0  0  0  0  0  0  0  0  0
   -4.9628    0.8259    0.0000 C   0  0  0  0  0  0  0  0  0  0  0  0
   -2.1416    2.4631    0.0000 C   0  0  0  0  0  0  0  0  0  0  0  0
    2.8578   -0.4020    0.0000 C   0  0  0  0  0  0  0  0  0  0  0  0
    4.9921    0.8259    0.0000 C   0  0  0  0  0  0  0  0  0  0  0  0
   -4.9921    2.4777    0.0000 C   0  0  0  0  0  0  0  0  0  0  0  0
   -5.6937    1.2353    0.0000 C   0  0  0  0  0  0  0  0  0  0  0  0
    4.2611    2.0684    0.0000 C   0  0  0  0  0  0  0  0  0  0  0  0
    4.8751    1.8053    0.0000 C   0  0  0  0  0  0  0  0  0  0  0  0
   -2.1416   -1.6446    0.0000 C   0  0  0  0  0  0  0  0  0  0  0  0
   -2.1269   -2.4777    0.0000 C   0  0  0  0  0  0  0  0  0  0  0  0
  1 18  1  0  0  0  0
  1 35  1  0  0  0  0
  2 21  2  0  0  0  0
  3 31  1  0  0  0  0
  3 32  1  0  0  0  0
  4 12  1  0  0  0  0
  4 26  1  0  0  0  0
  4 27  1  0  0  0  0
  5 12  1  0  0  0  0
  5 18  2  0  0  0  0
  6 14  2  0  0  0  0
  6 23  1  0  0  0  0
  7 17  1  0  0  0  0
  7 21  1  0  0  0  0
  8 20  1  0  0  0  0
  8 29  2  0  0  0  0
  9 30  3  0  0  0  0
 10 11  1  0  0  0  0
 10 13  1  0  0  0  0
 10 16  2  0  0  0  0
 11 14  1  0  0  0  0
 11 15  2  0  0  0  0
 12 13  2  0  0  0  0
 14 28  1  0  0  0  0
 15 17  1  0  0  0  0
 16 18  1  0  0  0  0
 17 23  2  0  0  0  0
 19 21  1  0  0  0  0
 19 24  1  0  0  0  0
 19 25  2  0  0  0  0
 20 22  1  0  0  0  0
 20 24  2  0  0  0  0
 22 30  1  0  0  0  0
 22 33  1  0  0  0  0
 22 34  1  0  0  0  0
 25 29  1  0  0  0  0
 26 31  1  0  0  0  0
 27 32  1  0  0  0  0
 35 36  1  0  0  0  0
M  END
> <PUBCHEM_COMPOUND_ID_TYPE>
0

> <PUBCHEM_TOTAL_CHARGE>
0

> <PUBCHEM_SUBSTANCE_ID>
310943663

> <PUBCHEM_SUBSTANCE_VERSION>
1

> <PUBCHEM_EXT_DATASOURCE_NAME>
4488

> <PUBCHEM_EXT_DATASOURCE_REGID>
SCHEMBL16121731

> <PUBCHEM_SUBSTANCE_COMMENT>
InChI=1S/C27H30N6O3/c1-5-36-25-14-20(13-24(32-25)33-8-10-35-11-9-33)22-15-21(16-30-18(22)2)31-26(34)19-6-7-29-23(12-19)27(3,4)17-28/h6-7,12-16H,5,8-11H2,1-4H3,(H,31,34)
InChIKey=HESSXJRHDXNWLR-UHFFFAOYSA-N

> <PUBCHEM_SUBSTANCE_SYNONYM>
SCHEMBL16121731

> <PUBCHEM_XREF_EXT_ID>
SCHEMBL16121731

> <PUBCHEM_EXT_DATASOURCE_URL>
https://www.surechembl.org/

> <PUBCHEM_EXT_SUBSTANCE_URL>
https://www.surechembl.org/chemical/SCHEMBL16121731

> <PUBCHEM_CID_ASSOCIATIONS>
117610053  1

> <PUBCHEM_COORDINATE_TYPE>
1
3

$$$$
