310940996
  -OEChem-07211613022D

 44 47  0     1  0  0  0  0  0999 V2000
    5.0879    0.6779    0.0000 O   0  0  0  0  0  0  0  0  0  0  0  0
    3.9461   -1.2916    0.0000 O   0  0  0  0  0  0  0  0  0  0  0  0
    1.7911    0.7778    0.0000 O   0  0  0  0  0  0  0  0  0  0  0  0
    0.3497   -1.7054    0.0000 O   0  0  0  0  0  0  0  0  0  0  0  0
   -0.3640   -1.2916    0.0000 O   0  0  0  0  0  0  0  0  0  0  0  0
    3.9461   -2.9471    0.0000 O   0  0  0  0  0  0  0  0  0  0  0  0
   -1.8053    1.1917    0.0000 O   0  0  0  0  0  0  0  0  0  0  0  0
   -2.5190    0.7778    0.0000 O   0  0  0  0  0  0  0  0  0  0  0  0
   -5.3876    0.7778    0.0000 O   0  0  0  0  0  0  0  0  0  0  0  0
    2.5190   -0.4639    0.0000 N   0  0  0  0  0  0  0  0  0  0  0  0
    0.3640   -0.0500    0.0000 N   0  0  0  0  0  0  0  0  0  0  0  0
   -1.7911   -0.4639    0.0000 N   0  0  0  0  0  0  0  0  0  0  0  0
   -3.9461   -0.0500    0.0000 N   0  0  0  0  0  0  0  0  0  0  0  0
    4.6596    0.0072    0.0000 C   0  0  3  0  0  0  0  0  0  0  0  0
    3.9461   -0.4210    0.0000 C   0  0  0  0  0  0  0  0  0  0  0  0
    4.2886    0.6779    0.0000 C   0  0  0  0  0  0  0  0  0  0  0  0
    3.2325   -0.0214    0.0000 C   0  0  3  0  0  0  0  0  0  0  0  0
    5.3876   -0.4353    0.0000 C   0  0  0  0  0  0  0  0  0  0  0  0
    1.7911   -0.0357    0.0000 C   0  0  0  0  0  0  0  0  0  0  0  0
    1.0918   -0.4353    0.0000 C   0  0  3  0  0  0  0  0  0  0  0  0
    3.2325    1.3058    0.0000 C   0  0  0  0  0  0  0  0  0  0  0  0
    1.0775   -1.2630    0.0000 C   0  0  3  0  0  0  0  0  0  0  0  0
    2.5047    1.7197    0.0000 C   0  0  0  0  0  0  0  0  0  0  0  0
    1.8053   -1.6769    0.0000 C   0  0  0  0  0  0  0  0  0  0  0  0
   -0.3497   -0.4210    0.0000 C   0  0  0  0  0  0  0  0  0  0  0  0
   -1.0918   -0.0214    0.0000 C   0  0  3  0  0  0  0  0  0  0  0  0
    2.5190   -1.2916    0.0000 C   0  0  0  0  0  0  0  0  0  0  0  0
    1.8196   -2.5190    0.0000 C   0  0  0  0  0  0  0  0  0  0  0  0
    1.8053    1.3058    0.0000 C   0  0  0  0  0  0  0  0  0  0  0  0
    2.5190    2.5332    0.0000 C   0  0  0  0  0  0  0  0  0  0  0  0
    3.2468   -2.5047    0.0000 C   0  0  0  0  0  0  0  0  0  0  0  0
    3.2468   -1.6912    0.0000 C   0  0  0  0  0  0  0  0  0  0  0  0
    2.5332   -2.9186    0.0000 C   0  0  0  0  0  0  0  0  0  0  0  0
    1.0918    1.7197    0.0000 C   0  0  0  0  0  0  0  0  0  0  0  0
    1.7911    2.9471    0.0000 C   0  0  0  0  0  0  0  0  0  0  0  0
   -1.0775    0.8064    0.0000 C   0  0  0  0  0  0  0  0  0  0  0  0
   -2.5190   -0.0500    0.0000 C   0  0  0  0  0  0  0  0  0  0  0  0
    1.0918    2.5332    0.0000 C   0  0  0  0  0  0  0  0  0  0  0  0
   -3.2183   -0.4353    0.0000 C   0  0  0  0  0  0  0  0  0  0  0  0
   -3.9461    0.7921    0.0000 C   0  0  0  0  0  0  0  0  0  0  0  0
   -4.6596   -0.4353    0.0000 C   0  0  0  0  0  0  0  0  0  0  0  0
    4.7025   -2.5047    0.0000 C   0  0  0  0  0  0  0  0  0  0  0  0
   -4.6882    1.2202    0.0000 C   0  0  0  0  0  0  0  0  0  0  0  0
   -5.3733   -0.0214    0.0000 C   0  0  0  0  0  0  0  0  0  0  0  0
  1 14  1  0  0  0  0
  1 16  1  0  0  0  0
  2 15  2  0  0  0  0
  3 19  2  0  0  0  0
 22  4  1  1  0  0  0
  5 25  2  0  0  0  0
  6 31  1  0  0  0  0
  6 42  1  0  0  0  0
  7 36  1  0  0  0  0
  8 37  2  0  0  0  0
  9 43  1  0  0  0  0
  9 44  1  0  0  0  0
 17 10  1  1  0  0  0
 10 19  1  0  0  0  0
 20 11  1  6  0  0  0
 11 25  1  0  0  0  0
 26 12  1  1  0  0  0
 12 37  1  0  0  0  0
 13 39  1  0  0  0  0
 13 40  1  0  0  0  0
 13 41  1  0  0  0  0
 14 15  1  1  0  0  0
 14 16  1  0  0  0  0
 14 18  1  6  0  0  0
 15 17  1  0  0  0  0
 17 21  1  0  0  0  0
 19 20  1  0  0  0  0
 20 22  1  0  0  0  0
 21 23  1  0  0  0  0
 22 24  1  0  0  0  0
 23 29  2  0  0  0  0
 23 30  1  0  0  0  0
 24 27  2  0  0  0  0
 24 28  1  0  0  0  0
 25 26  1  0  0  0  0
 26 36  1  0  0  0  0
 27 32  1  0  0  0  0
 28 33  2  0  0  0  0
 29 34  1  0  0  0  0
 30 35  1  0  0  0  0
 31 32  2  0  0  0  0
 31 33  1  0  0  0  0
 34 38  1  0  0  0  0
 35 38  1  0  0  0  0
 37 39  1  0  0  0  0
 40 43  1  0  0  0  0
 41 44  1  0  0  0  0
M  END
> <PUBCHEM_COMPOUND_ID_TYPE>
0

> <PUBCHEM_TOTAL_CHARGE>
0

> <PUBCHEM_SUBSTANCE_ID>
310940996

> <PUBCHEM_SUBSTANCE_VERSION>
1

> <PUBCHEM_EXT_DATASOURCE_NAME>
4488

> <PUBCHEM_EXT_DATASOURCE_REGID>
SCHEMBL16118955

> <PUBCHEM_SUBSTANCE_COMMENT>
InChI=1S/C31H44N4O9/c1-31(19-44-31)28(39)23(16-20-6-4-3-5-7-20)33-30(41)26(27(38)21-8-10-22(42-2)11-9-21)34-29(40)24(18-36)32-25(37)17-35-12-14-43-15-13-35/h6,8-11,23-24,26-27,36,38H,3-5,7,12-19H2,1-2H3,(H,32,37)(H,33,41)(H,34,40)/t23-,24-,26-,27+,31+/m0/s1
InChIKey=UDOHLMZQJNRAOK-MUVXAAFMSA-N

> <PUBCHEM_SUBSTANCE_SYNONYM>
SCHEMBL16118955

> <PUBCHEM_XREF_EXT_ID>
SCHEMBL16118955

> <PUBCHEM_EXT_DATASOURCE_URL>
https://www.surechembl.org/

> <PUBCHEM_EXT_SUBSTANCE_URL>
https://www.surechembl.org/chemical/SCHEMBL16118955

> <PUBCHEM_CID_ASSOCIATIONS>
117607902  1

> <PUBCHEM_COORDINATE_TYPE>
1
3

> <PUBCHEM_BONDANNOTATIONS>
17  10  5
20  11  6
26  12  5
14  15  5
14  18  6
22  4  5

$$$$
