310937743
  -OEChem-07211613022D

 13 13  0     0  0  0  0  0  0999 V2000
    2.1052   -2.4466    0.0000 N   0  0  0  0  0  0  0  0  0  0  0  0
    2.1052   -0.8250    0.0000 N   0  0  0  0  0  0  0  0  0  0  0  0
    2.8164   -2.0483    0.0000 C   0  0  0  0  0  0  0  0  0  0  0  0
    1.4224   -2.0483    0.0000 C   0  0  0  0  0  0  0  0  0  0  0  0
    1.4224   -1.2233    0.0000 C   0  0  0  0  0  0  0  0  0  0  0  0
    2.8164   -1.2233    0.0000 C   0  0  0  0  0  0  0  0  0  0  0  0
    2.1052   -3.2431    0.0000 C   0  0  0  0  0  0  0  0  0  0  0  0
    1.3940   -3.6699    0.0000 C   0  0  0  0  0  0  0  0  0  0  0  0
    2.1052    0.0000    0.0000 C   0  0  0  0  0  0  0  0  0  0  0  0
    1.4224   -4.4664    0.0000 C   0  0  0  0  0  0  0  0  0  0  0  0
    0.7112   -4.8931    0.0000 C   0  0  0  0  0  0  0  0  0  0  0  0
    0.7112   -5.6897    0.0000 C   0  0  0  0  0  0  0  0  0  0  0  0
    0.0000   -4.4664    0.0000 C   0  0  0  0  0  0  0  0  0  0  0  0
  1  3  1  0  0  0  0
  1  4  1  0  0  0  0
  1  7  1  0  0  0  0
  2  5  1  0  0  0  0
  2  6  1  0  0  0  0
  2  9  1  0  0  0  0
  3  6  1  0  0  0  0
  4  5  1  0  0  0  0
  7  8  2  0  0  0  0
  8 10  1  0  0  0  0
 10 11  2  0  0  0  0
 11 12  1  0  0  0  0
 11 13  1  0  0  0  0
M  END
> <PUBCHEM_COMPOUND_ID_TYPE>
0

> <PUBCHEM_TOTAL_CHARGE>
0

> <PUBCHEM_SUBSTANCE_ID>
310937743

> <PUBCHEM_SUBSTANCE_VERSION>
1

> <PUBCHEM_EXT_DATASOURCE_NAME>
4488

> <PUBCHEM_EXT_DATASOURCE_REGID>
SCHEMBL16115544

> <PUBCHEM_SUBSTANCE_COMMENT>
InChI=1S/C11H20N2/c1-11(2)5-4-6-13-9-7-12(3)8-10-13/h4-6H,7-10H2,1-3H3/b6-4+
InChIKey=UDYWBEMNGQMPIH-GQCTYLIASA-N

> <PUBCHEM_SUBSTANCE_SYNONYM>
SCHEMBL16115544

> <PUBCHEM_XREF_EXT_ID>
SCHEMBL16115544

> <PUBCHEM_EXT_DATASOURCE_URL>
https://www.surechembl.org/

> <PUBCHEM_EXT_SUBSTANCE_URL>
https://www.surechembl.org/chemical/SCHEMBL16115544

> <PUBCHEM_CID_ASSOCIATIONS>
117605409  1

> <PUBCHEM_COORDINATE_TYPE>
1
3

$$$$
