310949174
  -OEChem-07211613022D

 15 15  0     0  0  0  0  0  0999 V2000
    1.0449    0.8250    0.0000 I   0  0  0  0  0  0  0  0  0  0  0  0
   -2.4887   -0.4399    0.0000 I   0  0  0  0  0  0  0  0  0  0  0  0
   -1.8012    0.8250    0.0000 F   0  0  0  0  0  0  0  0  0  0  0  0
    1.7600   -0.4262    0.0000 O   0  0  0  0  0  0  0  0  0  0  0  0
    1.0449   -1.6500    0.0000 O   0  0  0  0  0  0  0  0  0  0  0  0
   -0.3712   -0.8250    0.0000 N   0  0  0  0  0  0  0  0  0  0  0  0
   -0.3712    1.6500    0.0000 N   0  0  0  0  0  0  0  0  0  0  0  0
    0.3300   -0.4124    0.0000 C   0  0  0  0  0  0  0  0  0  0  0  0
    0.3437    0.4262    0.0000 C   0  0  0  0  0  0  0  0  0  0  0  0
   -0.3850    0.8250    0.0000 C   0  0  0  0  0  0  0  0  0  0  0  0
   -1.0862    0.4124    0.0000 C   0  0  0  0  0  0  0  0  0  0  0  0
   -1.0999   -0.4124    0.0000 C   0  0  0  0  0  0  0  0  0  0  0  0
    1.0449   -0.7975    0.0000 C   0  0  0  0  0  0  0  0  0  0  0  0
   -1.8012   -0.8250    0.0000 C   0  0  0  0  0  0  0  0  0  0  0  0
    2.4887   -0.8388    0.0000 C   0  0  0  0  0  0  0  0  0  0  0  0
  1  9  1  0  0  0  0
  2 14  1  0  0  0  0
  3 11  1  0  0  0  0
  4 13  1  0  0  0  0
  4 15  1  0  0  0  0
  5 13  2  0  0  0  0
  6  8  2  0  0  0  0
  6 12  1  0  0  0  0
  7 10  1  0  0  0  0
  8  9  1  0  0  0  0
  8 13  1  0  0  0  0
  9 10  2  0  0  0  0
 10 11  1  0  0  0  0
 11 12  2  0  0  0  0
 12 14  1  0  0  0  0
M  END
> <PUBCHEM_COMPOUND_ID_TYPE>
0

> <PUBCHEM_TOTAL_CHARGE>
0

> <PUBCHEM_SUBSTANCE_ID>
310949174

> <PUBCHEM_SUBSTANCE_VERSION>
1

> <PUBCHEM_EXT_DATASOURCE_NAME>
4488

> <PUBCHEM_EXT_DATASOURCE_REGID>
SCHEMBL16127364

> <PUBCHEM_SUBSTANCE_COMMENT>
InChI=1S/C8H7FI2N2O2/c1-15-8(14)7-5(11)6(12)4(9)3(2-10)13-7/h2H2,1H3,(H2,12,13)
InChIKey=LPWFJNOOBCHUPA-UHFFFAOYSA-N

> <PUBCHEM_SUBSTANCE_SYNONYM>
SCHEMBL16127364

> <PUBCHEM_XREF_EXT_ID>
SCHEMBL16127364

> <PUBCHEM_EXT_DATASOURCE_URL>
https://www.surechembl.org/

> <PUBCHEM_EXT_SUBSTANCE_URL>
https://www.surechembl.org/chemical/SCHEMBL16127364

> <PUBCHEM_CID_ASSOCIATIONS>
117614667  1

> <PUBCHEM_COORDINATE_TYPE>
1
3

$$$$
