310941271
  -OEChem-07211613022D

 53 56  0     1  0  0  0  0  0999 V2000
    5.3398   -0.2872    0.0000 O   0  0  0  0  0  0  0  0  0  0  0  0
    0.9943    2.1727    0.0000 O   0  0  0  0  0  0  0  0  0  0  0  0
   -3.3217    2.1727    0.0000 O   0  0  0  0  0  0  0  0  0  0  0  0
   -1.1711    0.0957    0.0000 O   0  0  0  0  0  0  0  0  0  0  0  0
    3.1597    0.0957    0.0000 O   0  0  0  0  0  0  0  0  0  0  0  0
   -6.0469    1.9812    0.0000 O   0  0  0  0  0  0  0  0  0  0  0  0
    5.3103    2.1727    0.0000 O   0  0  0  0  0  0  0  0  0  0  0  0
    3.9698   -1.9518    0.0000 O   0  0  0  0  0  0  0  0  0  0  0  0
    3.1597    2.5852    0.0000 O   0  0  0  0  0  0  0  0  0  0  0  0
    0.5230   -1.3331    0.0000 N   0  0  0  0  0  0  0  0  0  0  0  0
   -4.7948    1.2595    0.0000 N   0  0  0  0  0  0  0  0  0  0  0  0
   -0.4493    1.3478    0.0000 N   0  0  0  0  0  0  0  0  0  0  0  0
   -2.5999    0.9207    0.0000 N   0  0  0  0  0  0  0  0  0  0  0  0
    1.7161    0.9207    0.0000 N   0  0  0  0  0  0  0  0  0  0  0  0
    1.8634   -1.4068    0.0000 N   0  0  0  0  0  0  0  0  0  0  0  0
    3.8815    1.3478    0.0000 N   0  0  0  0  0  0  0  0  0  0  0  0
    5.2072   -1.0974    0.0000 N   0  0  0  0  0  0  0  0  0  0  0  0
    6.0469    0.9207    0.0000 N   0  0  0  0  0  0  0  0  0  0  0  0
    0.8322   -0.5230    0.0000 C   0  0  0  0  0  0  0  0  0  0  0  0
    0.2872    0.9501    0.0000 C   0  0  3  0  0  0  0  0  0  0  0  0
   -0.4935   -1.5835    0.0000 C   0  0  3  0  0  0  0  0  0  0  0  0
    0.2725    0.1105    0.0000 C   0  0  0  0  0  0  0  0  0  0  0  0
   -4.0288    0.9501    0.0000 C   0  0  3  0  0  0  0  0  0  0  0  0
    0.9943    1.3331    0.0000 C   0  0  0  0  0  0  0  0  0  0  0  0
   -3.3217    1.3331    0.0000 C   0  0  0  0  0  0  0  0  0  0  0  0
   -1.8781    1.3626    0.0000 C   0  0  3  0  0  0  0  0  0  0  0  0
   -1.1711    0.9795    0.0000 C   0  0  0  0  0  0  0  0  0  0  0  0
    4.6033    0.9354    0.0000 C   0  0  3  0  0  0  0  0  0  0  0  0
    1.1710   -1.8339    0.0000 C   0  0  0  0  0  0  0  0  0  0  0  0
    1.6572   -0.5966    0.0000 C   0  0  0  0  0  0  0  0  0  0  0  0
   -0.7291   -2.0254    0.0000 C   0  0  0  0  0  0  0  0  0  0  0  0
    4.5885    0.1105    0.0000 C   0  0  3  0  0  0  0  0  0  0  0  0
    2.4379    1.3626    0.0000 C   0  0  3  0  0  0  0  0  0  0  0  0
    3.1744    0.9795    0.0000 C   0  0  0  0  0  0  0  0  0  0  0  0
   -4.1024    0.1399    0.0000 C   0  0  0  0  0  0  0  0  0  0  0  0
   -5.3398    0.6408    0.0000 C   0  0  0  0  0  0  0  0  0  0  0  0
   -5.1925    1.9960    0.0000 C   0  0  0  0  0  0  0  0  0  0  0  0
    4.0288   -0.4935    0.0000 C   0  0  0  0  0  0  0  0  0  0  0  0
    5.3692    1.3478    0.0000 C   0  0  0  0  0  0  0  0  0  0  0  0
   -4.9273   -0.0516    0.0000 C   0  0  0  0  0  0  0  0  0  0  0  0
    4.3823   -1.2005    0.0000 C   0  0  0  0  0  0  0  0  0  0  0  0
   -1.8634    2.1875    0.0000 C   0  0  0  0  0  0  0  0  0  0  0  0
   -1.5393   -2.0254    0.0000 C   0  0  0  0  0  0  0  0  0  0  0  0
   -0.3167   -2.7472    0.0000 C   0  0  0  0  0  0  0  0  0  0  0  0
   -0.4787   -1.0091    0.0000 C   0  0  0  0  0  0  0  0  0  0  0  0
    2.4526    2.2022    0.0000 C   0  0  0  0  0  0  0  0  0  0  0  0
   -1.1711    2.6147    0.0000 C   0  0  0  0  0  0  0  0  0  0  0  0
   -1.9518   -2.7472    0.0000 C   0  0  0  0  0  0  0  0  0  0  0  0
   -0.7291   -3.4543    0.0000 C   0  0  0  0  0  0  0  0  0  0  0  0
   -4.7948    2.7325    0.0000 C   0  0  0  0  0  0  0  0  0  0  0  0
   -1.5393   -3.4543    0.0000 C   0  0  0  0  0  0  0  0  0  0  0  0
   -1.1711    3.4543    0.0000 C   0  0  0  0  0  0  0  0  0  0  0  0
   -0.3314    2.3937    0.0000 C   0  0  0  0  0  0  0  0  0  0  0  0
  1 17  1  0  0  0  0
 32  1  1  1  0  0  0
  2 24  2  0  0  0  0
  3 25  2  0  0  0  0
  4 27  2  0  0  0  0
  5 34  2  0  0  0  0
  6 37  2  0  0  0  0
  7 39  2  0  0  0  0
  8 41  1  0  0  0  0
  9 46  1  0  0  0  0
 10 19  1  0  0  0  0
 10 21  1  0  0  0  0
 10 29  1  0  0  0  0
 11 23  1  0  0  0  0
 11 36  1  0  0  0  0
 11 37  1  0  0  0  0
 20 12  1  6  0  0  0
 12 27  1  0  0  0  0
 13 25  1  0  0  0  0
 26 13  1  1  0  0  0
 14 24  1  0  0  0  0
 33 14  1  1  0  0  0
 15 29  2  0  0  0  0
 15 30  1  0  0  0  0
 28 16  1  6  0  0  0
 16 34  1  0  0  0  0
 17 41  2  0  0  0  0
 18 39  1  0  0  0  0
 19 22  1  0  0  0  0
 19 30  2  0  0  0  0
 20 22  1  0  0  0  0
 20 24  1  0  0  0  0
 21 31  1  0  0  0  0
 21 45  1  0  0  0  0
 23 25  1  6  0  0  0
 23 35  1  0  0  0  0
 26 27  1  0  0  0  0
 26 42  1  0  0  0  0
 28 32  1  0  0  0  0
 28 39  1  0  0  0  0
 31 43  2  0  0  0  0
 31 44  1  0  0  0  0
 32 38  1  0  0  0  0
 33 34  1  0  0  0  0
 33 46  1  0  0  0  0
 35 40  1  0  0  0  0
 36 40  1  0  0  0  0
 37 50  1  0  0  0  0
 38 41  1  0  0  0  0
 42 47  1  0  0  0  0
 43 48  1  0  0  0  0
 44 49  2  0  0  0  0
 47 52  1  0  0  0  0
 47 53  1  0  0  0  0
 48 51  2  0  0  0  0
 49 51  1  0  0  0  0
M  END
> <PUBCHEM_COMPOUND_ID_TYPE>
0

> <PUBCHEM_TOTAL_CHARGE>
0

> <PUBCHEM_SUBSTANCE_ID>
310941271

> <PUBCHEM_SUBSTANCE_VERSION>
1

> <PUBCHEM_EXT_DATASOURCE_NAME>
4488

> <PUBCHEM_EXT_DATASOURCE_REGID>
SCHEMBL16119231

> <PUBCHEM_SUBSTANCE_COMMENT>
InChI=1S/C35H49N9O9/c1-19(2)13-24(39-35(52)27-11-8-12-43(27)21(4)46)32(49)38-25(14-23-16-37-18-44(23)20(3)22-9-6-5-7-10-22)33(50)40-26(17-45)34(51)41-30(31(36)48)28-15-29(47)42-53-28/h5-7,9-10,16,18-20,24-28,30,45H,8,11-15,17H2,1-4H3,(H2,36,48)(H,38,49)(H,39,52)(H,40,50)(H,41,51)(H,42,47)/t20?,24-,25-,26-,27-,28-,30-/m0/s1
InChIKey=FDXJACBOBINJEP-PRHREEISSA-N

> <PUBCHEM_SUBSTANCE_SYNONYM>
SCHEMBL16119231

> <PUBCHEM_XREF_EXT_ID>
SCHEMBL16119231

> <PUBCHEM_EXT_DATASOURCE_URL>
https://www.surechembl.org/

> <PUBCHEM_EXT_SUBSTANCE_URL>
https://www.surechembl.org/chemical/SCHEMBL16119231

> <PUBCHEM_CID_ASSOCIATIONS>
117608126  1

> <PUBCHEM_COORDINATE_TYPE>
1
3

> <PUBCHEM_BONDANNOTATIONS>
32  1  5
10  21  3
20  12  6
26  13  5
33  14  5
28  16  6
23  25  6

$$$$
