310945711
  -OEChem-07211613022D

 39 42  0     1  0  0  0  0  0999 V2000
   -3.1658    0.1662    0.0000 S   0  0  0  0  0  0  0  0  0  0  0  0
    3.3459   -1.0114    0.0000 O   0  0  0  0  0  0  0  0  0  0  0  0
   -0.9767   -1.0114    0.0000 O   0  0  0  0  0  0  0  0  0  0  0  0
    1.1846    1.0668    0.0000 O   0  0  0  0  0  0  0  0  0  0  0  0
    5.5072    2.7294    0.0000 O   0  0  0  0  0  0  0  0  0  0  0  0
    5.7150    0.9421    0.0000 O   0  0  0  0  0  0  0  0  0  0  0  0
   -4.5512   -0.3602    0.0000 N   0  0  0  0  0  0  0  0  0  0  0  0
   -3.3181   -1.1638    0.0000 N   0  0  0  0  0  0  0  0  0  0  0  0
    1.9050   -0.1662    0.0000 N   0  0  0  0  0  0  0  0  0  0  0  0
   -0.2563    0.2494    0.0000 N   0  0  0  0  0  0  0  0  0  0  0  0
    4.0663    0.2494    0.0000 N   0  0  0  0  0  0  0  0  0  0  0  0
   -3.7338   -0.4295    0.0000 C   0  0  0  0  0  0  0  0  0  0  0  0
   -2.4038   -0.1386    0.0000 C   0  0  0  0  0  0  0  0  0  0  0  0
   -2.5146   -0.9837    0.0000 C   0  0  0  0  0  0  0  0  0  0  0  0
    2.6116    0.2771    0.0000 C   0  0  3  0  0  0  0  0  0  0  0  0
   -5.0916    0.2909    0.0000 C   0  0  0  0  0  0  0  0  0  0  0  0
   -5.1747   -0.8590    0.0000 C   0  0  0  0  0  0  0  0  0  0  0  0
   -1.7249    0.2633    0.0000 C   0  0  0  0  0  0  0  0  0  0  0  0
    3.3597   -0.1247    0.0000 C   0  0  0  0  0  0  0  0  0  0  0  0
   -0.9629   -0.1247    0.0000 C   0  0  0  0  0  0  0  0  0  0  0  0
   -5.7150   -0.2217    0.0000 C   0  0  0  0  0  0  0  0  0  0  0  0
    1.1846    0.2494    0.0000 C   0  0  0  0  0  0  0  0  0  0  0  0
    0.4780   -0.1386    0.0000 C   0  0  3  0  0  0  0  0  0  0  0  0
    2.6393    1.1084    0.0000 C   0  0  0  0  0  0  0  0  0  0  0  0
    3.3320    1.5240    0.0000 C   0  0  0  0  0  0  0  0  0  0  0  0
    5.0084   -0.2633    0.0000 C   0  0  3  0  0  0  0  0  0  0  0  0
    4.0801    1.1084    0.0000 C   0  0  0  0  0  0  0  0  0  0  0  0
    3.3597    2.3553    0.0000 C   0  0  0  0  0  0  0  0  0  0  0  0
    4.9946   -1.3439    0.0000 C   0  0  0  0  0  0  0  0  0  0  0  0
    4.2880   -1.7595    0.0000 C   0  0  0  0  0  0  0  0  0  0  0  0
    4.7868    2.3553    0.0000 C   0  0  0  0  0  0  0  0  0  0  0  0
    4.7868    1.5240    0.0000 C   0  0  0  0  0  0  0  0  0  0  0  0
    4.0663    2.7432    0.0000 C   0  0  0  0  0  0  0  0  0  0  0  0
    0.4642   -0.9560    0.0000 C   0  0  0  0  0  0  0  0  0  0  0  0
    5.6596    0.1247    0.0000 C   0  0  0  0  0  0  0  0  0  0  0  0
    3.5259   -1.4409    0.0000 C   0  0  0  0  0  0  0  0  0  0  0  0
    4.1910   -2.5908    0.0000 C   0  0  0  0  0  0  0  0  0  0  0  0
    2.9856   -2.0643    0.0000 C   0  0  0  0  0  0  0  0  0  0  0  0
    3.3736   -2.7432    0.0000 C   0  0  0  0  0  0  0  0  0  0  0  0
  1 12  1  0  0  0  0
  1 13  1  0  0  0  0
  2 19  2  0  0  0  0
  3 20  2  0  0  0  0
  4 22  2  0  0  0  0
  5 31  1  0  0  0  0
  6 35  2  0  0  0  0
  7 12  1  0  0  0  0
  7 16  1  0  0  0  0
  7 17  1  0  0  0  0
  8 12  2  0  0  0  0
  8 14  1  0  0  0  0
 15  9  1  1  0  0  0
  9 22  1  0  0  0  0
 10 20  1  0  0  0  0
 10 23  1  0  0  0  0
 11 19  1  0  0  0  0
 26 11  1  6  0  0  0
 13 14  2  0  0  0  0
 13 18  1  0  0  0  0
 15 19  1  0  0  0  0
 15 24  1  0  0  0  0
 16 21  1  0  0  0  0
 17 21  1  0  0  0  0
 18 20  1  0  0  0  0
 22 23  1  0  0  0  0
 23 34  1  6  0  0  0
 24 25  1  0  0  0  0
 25 27  2  0  0  0  0
 25 28  1  0  0  0  0
 26 29  1  0  0  0  0
 26 35  1  0  0  0  0
 27 32  1  0  0  0  0
 28 33  2  0  0  0  0
 29 30  1  0  0  0  0
 30 36  2  0  0  0  0
 30 37  1  0  0  0  0
 31 32  2  0  0  0  0
 31 33  1  0  0  0  0
 36 38  1  0  0  0  0
 37 39  1  0  0  0  0
 38 39  1  0  0  0  0
M  END
> <PUBCHEM_COMPOUND_ID_TYPE>
0

> <PUBCHEM_TOTAL_CHARGE>
0

> <PUBCHEM_SUBSTANCE_ID>
310945711

> <PUBCHEM_SUBSTANCE_VERSION>
1

> <PUBCHEM_EXT_DATASOURCE_NAME>
4488

> <PUBCHEM_EXT_DATASOURCE_REGID>
SCHEMBL16123812

> <PUBCHEM_SUBSTANCE_COMMENT>
InChI=1S/C28H35N5O5S/c1-18(30-25(36)15-23-16-29-28(39-23)33-11-4-12-33)26(37)32-24(14-20-7-9-22(35)10-8-20)27(38)31-21(17-34)13-19-5-2-3-6-19/h5,7-10,16-18,21,24,35H,2-4,6,11-15H2,1H3,(H,30,36)(H,31,38)(H,32,37)/t18-,21-,24-/m0/s1
InChIKey=XNPZCCSGQHQLHV-XZOYJPPVSA-N

> <PUBCHEM_SUBSTANCE_SYNONYM>
SCHEMBL16123812

> <PUBCHEM_XREF_EXT_ID>
SCHEMBL16123812

> <PUBCHEM_EXT_DATASOURCE_URL>
https://www.surechembl.org/

> <PUBCHEM_EXT_SUBSTANCE_URL>
https://www.surechembl.org/chemical/SCHEMBL16123812

> <PUBCHEM_CID_ASSOCIATIONS>
117611708  1

> <PUBCHEM_COORDINATE_TYPE>
1
3

> <PUBCHEM_BONDANNOTATIONS>
26  11  6
23  34  6
15  9  5

$$$$
