310941039
  -OEChem-07211613022D

 41 44  0     1  0  0  0  0  0999 V2000
    5.1668    0.9824    0.0000 O   0  0  0  0  0  0  0  0  0  0  0  0
    4.0420   -0.9674    0.0000 O   0  0  0  0  0  0  0  0  0  0  0  0
    1.6873    0.9674    0.0000 O   0  0  0  0  0  0  0  0  0  0  0  0
   -0.4575   -1.0873    0.0000 O   0  0  0  0  0  0  0  0  0  0  0  0
   -2.6021    0.9674    0.0000 O   0  0  0  0  0  0  0  0  0  0  0  0
    3.8320   -2.7371    0.0000 O   0  0  0  0  0  0  0  0  0  0  0  0
   -5.4667   -1.5073    0.0000 O   0  0  0  0  0  0  0  0  0  0  0  0
    2.4071   -0.2775    0.0000 N   0  0  0  0  0  0  0  0  0  0  0  0
    0.2625    0.1425    0.0000 N   0  0  0  0  0  0  0  0  0  0  0  0
   -1.8822   -0.2775    0.0000 N   0  0  0  0  0  0  0  0  0  0  0  0
    4.7469    0.3225    0.0000 C   0  0  3  0  0  0  0  0  0  0  0  0
    4.0420   -0.1125    0.0000 C   0  0  0  0  0  0  0  0  0  0  0  0
    4.3719    0.9824    0.0000 C   0  0  0  0  0  0  0  0  0  0  0  0
    3.3221    0.2924    0.0000 C   0  0  3  0  0  0  0  0  0  0  0  0
    5.4667   -0.1125    0.0000 C   0  0  0  0  0  0  0  0  0  0  0  0
    3.3371    1.3573    0.0000 C   0  0  0  0  0  0  0  0  0  0  0  0
    1.6723    0.1425    0.0000 C   0  0  0  0  0  0  0  0  0  0  0  0
    0.9973   -0.2325    0.0000 C   0  0  3  0  0  0  0  0  0  0  0  0
    2.6021    1.7773    0.0000 C   0  0  0  0  0  0  0  0  0  0  0  0
    0.9674   -1.0873    0.0000 C   0  0  0  0  0  0  0  0  0  0  0  0
   -0.4424   -0.2175    0.0000 C   0  0  0  0  0  0  0  0  0  0  0  0
    1.7022   -1.4623    0.0000 C   0  0  0  0  0  0  0  0  0  0  0  0
    1.8673    1.4473    0.0000 C   0  0  0  0  0  0  0  0  0  0  0  0
    2.5272    2.5872    0.0000 C   0  0  0  0  0  0  0  0  0  0  0  0
   -1.1773    0.1575    0.0000 C   0  0  3  0  0  0  0  0  0  0  0  0
   -2.5872    0.1575    0.0000 C   0  0  0  0  0  0  0  0  0  0  0  0
    1.3273    2.0472    0.0000 C   0  0  0  0  0  0  0  0  0  0  0  0
    1.7323    2.7371    0.0000 C   0  0  0  0  0  0  0  0  0  0  0  0
   -3.3070   -0.2474    0.0000 C   0  0  0  0  0  0  0  0  0  0  0  0
    1.7022   -2.3022    0.0000 C   0  0  0  0  0  0  0  0  0  0  0  0
    2.4071   -1.0873    0.0000 C   0  0  0  0  0  0  0  0  0  0  0  0
    3.1271   -2.2872    0.0000 C   0  0  0  0  0  0  0  0  0  0  0  0
    2.4222   -2.7071    0.0000 C   0  0  0  0  0  0  0  0  0  0  0  0
    3.1271   -1.4923    0.0000 C   0  0  0  0  0  0  0  0  0  0  0  0
   -4.0420    0.1575    0.0000 C   0  0  0  0  0  0  0  0  0  0  0  0
   -3.3070   -1.0574    0.0000 C   0  0  0  0  0  0  0  0  0  0  0  0
   -1.1624    0.9674    0.0000 C   0  0  0  0  0  0  0  0  0  0  0  0
   -4.7319   -1.0574    0.0000 C   0  0  0  0  0  0  0  0  0  0  0  0
   -4.7319   -0.2474    0.0000 C   0  0  0  0  0  0  0  0  0  0  0  0
   -4.0270   -1.4623    0.0000 C   0  0  0  0  0  0  0  0  0  0  0  0
    4.5669   -2.3022    0.0000 C   0  0  0  0  0  0  0  0  0  0  0  0
  1 11  1  0  0  0  0
  1 13  1  0  0  0  0
  2 12  2  0  0  0  0
  3 17  2  0  0  0  0
  4 21  2  0  0  0  0
  5 26  2  0  0  0  0
  6 32  1  0  0  0  0
  6 41  1  0  0  0  0
 38  7  1  6  0  0  0
 14  8  1  1  0  0  0
  8 17  1  0  0  0  0
 18  9  1  6  0  0  0
  9 21  1  0  0  0  0
 10 25  1  0  0  0  0
 10 26  1  0  0  0  0
 11 12  1  1  0  0  0
 11 13  1  0  0  0  0
 11 15  1  6  0  0  0
 12 14  1  0  0  0  0
 14 16  1  0  0  0  0
 16 19  1  0  0  0  0
 17 18  1  0  0  0  0
 18 20  1  0  0  0  0
 19 23  1  0  0  0  0
 19 24  1  0  0  0  0
 20 22  1  0  0  0  0
 21 25  1  0  0  0  0
 22 30  2  0  0  0  0
 22 31  1  0  0  0  0
 23 27  1  0  0  0  0
 24 28  1  0  0  0  0
 25 37  1  6  0  0  0
 29 26  1  1  0  0  0
 27 28  1  0  0  0  0
 29 35  1  0  0  0  0
 29 36  1  0  0  0  0
 30 33  1  0  0  0  0
 31 34  2  0  0  0  0
 32 33  2  0  0  0  0
 32 34  1  0  0  0  0
 35 39  1  0  0  0  0
 36 40  1  0  0  0  0
 38 39  1  0  0  0  0
 38 40  1  0  0  0  0
M  END
> <PUBCHEM_COMPOUND_ID_TYPE>
0

> <PUBCHEM_TOTAL_CHARGE>
0

> <PUBCHEM_SUBSTANCE_ID>
310941039

> <PUBCHEM_SUBSTANCE_VERSION>
1

> <PUBCHEM_EXT_DATASOURCE_NAME>
4488

> <PUBCHEM_EXT_DATASOURCE_REGID>
SCHEMBL16118998

> <PUBCHEM_SUBSTANCE_COMMENT>
InChI=1S/C31H45N3O7/c1-19(32-29(38)22-10-12-23(35)13-11-22)28(37)34-26(17-21-8-14-24(40-3)15-9-21)30(39)33-25(16-20-6-4-5-7-20)27(36)31(2)18-41-31/h8-9,14-15,19-20,22-23,25-26,35H,4-7,10-13,16-18H2,1-3H3,(H,32,38)(H,33,39)(H,34,37)/t19-,22-,23-,25+,26+,31-/m1/s1
InChIKey=ATAJMFNCTIPWPC-WNVKXBHVSA-N

> <PUBCHEM_SUBSTANCE_SYNONYM>
SCHEMBL16118998

> <PUBCHEM_XREF_EXT_ID>
SCHEMBL16118998

> <PUBCHEM_EXT_DATASOURCE_URL>
https://www.surechembl.org/

> <PUBCHEM_EXT_SUBSTANCE_URL>
https://www.surechembl.org/chemical/SCHEMBL16118998

> <PUBCHEM_CID_ASSOCIATIONS>
117607933  1

> <PUBCHEM_COORDINATE_TYPE>
1
3

> <PUBCHEM_BONDANNOTATIONS>
11  12  5
11  15  6
25  37  6
29  26  5
38  7  6
14  8  5
18  9  6

$$$$
