310931533
  -OEChem-07211613022D

 50 54  0     1  0  0  0  0  0999 V2000
    0.7145    6.1875    0.0000 S   0  0  0  0  0  0  0  0  0  0  0  0
    2.0964    7.9100    0.0000 S   0  0  0  0  0  0  0  0  0  0  0  0
    0.7145    4.5375    0.0000 F   0  0  0  0  0  0  0  0  0  0  0  0
   -2.1434    6.1875    0.0000 F   0  0  0  0  0  0  0  0  0  0  0  0
   -0.7145    2.0625    0.0000 F   0  0  0  0  0  0  0  0  0  0  0  0
    1.1270    5.4731    0.0000 O   0  0  0  0  0  0  0  0  0  0  0  0
    0.3020    6.9020    0.0000 O   0  0  0  0  0  0  0  0  0  0  0  0
   -2.1434    4.5375    0.0000 O   0  0  0  0  0  0  0  0  0  0  0  0
    3.5724    5.3625    0.0000 O   0  0  0  0  0  0  0  0  0  0  0  0
    5.0013    7.8376    0.0000 O   0  0  0  0  0  0  0  0  0  0  0  0
   -6.4303    3.7125    0.0000 O   0  0  0  0  0  0  0  0  0  0  0  0
   -5.7158    2.4750    0.0000 O   0  0  0  0  0  0  0  0  0  0  0  0
    1.4290    6.6000    0.0000 N   0  0  0  0  0  0  0  0  0  0  0  0
    0.7615    7.9100    0.0000 N   0  0  0  0  0  0  0  0  0  0  0  0
    1.8415    8.6946    0.0000 N   0  0  0  0  0  0  0  0  0  0  0  0
   -5.0013    3.7125    0.0000 N   0  0  0  0  0  0  0  0  0  0  0  0
    0.0000    5.7750    0.0000 C   0  0  0  0  0  0  0  0  0  0  0  0
    0.0000    4.9500    0.0000 C   0  0  0  0  0  0  0  0  0  0  0  0
    1.4290    7.4251    0.0000 C   0  0  0  0  0  0  0  0  0  0  0  0
   -0.7145    6.1875    0.0000 C   0  0  0  0  0  0  0  0  0  0  0  0
    2.1434    6.1875    0.0000 C   0  0  0  0  0  0  0  0  0  0  0  0
   -1.4290    5.7750    0.0000 C   0  0  0  0  0  0  0  0  0  0  0  0
   -1.4290    4.9500    0.0000 C   0  0  0  0  0  0  0  0  0  0  0  0
   -0.7145    4.5375    0.0000 C   0  0  0  0  0  0  0  0  0  0  0  0
    2.8579    6.6000    0.0000 C   0  0  0  0  0  0  0  0  0  0  0  0
    3.5724    6.1875    0.0000 C   0  0  0  0  0  0  0  0  0  0  0  0
   -3.5724    4.5375    0.0000 C   0  0  3  0  0  0  0  0  0  0  0  0
   -3.5724    3.7125    0.0000 C   0  0  3  0  0  0  0  0  0  0  0  0
    2.8579    7.4251    0.0000 C   0  0  0  0  0  0  0  0  0  0  0  0
   -2.8579    4.9500    0.0000 C   0  0  0  0  0  0  0  0  0  0  0  0
    1.0165    8.6946    0.0000 C   0  0  0  0  0  0  0  0  0  0  0  0
   -2.8579    3.3000    0.0000 C   0  0  0  0  0  0  0  0  0  0  0  0
    4.2868    6.6000    0.0000 C   0  0  0  0  0  0  0  0  0  0  0  0
   -4.2868    3.3000    0.0000 C   0  0  0  0  0  0  0  0  0  0  0  0
    4.2868    7.4251    0.0000 C   0  0  0  0  0  0  0  0  0  0  0  0
   -4.2868    4.9500    0.0000 C   0  0  0  0  0  0  0  0  0  0  0  0
    3.5724    7.8376    0.0000 C   0  0  0  0  0  0  0  0  0  0  0  0
   -5.0013    4.5375    0.0000 C   0  0  0  0  0  0  0  0  0  0  0  0
   -5.7158    3.3000    0.0000 C   0  0  0  0  0  0  0  0  0  0  0  0
   -2.1434    3.7125    0.0000 C   0  0  0  0  0  0  0  0  0  0  0  0
   -2.8579    2.4750    0.0000 C   0  0  0  0  0  0  0  0  0  0  0  0
   -1.4290    3.3000    0.0000 C   0  0  0  0  0  0  0  0  0  0  0  0
   -2.1434    2.0625    0.0000 C   0  0  0  0  0  0  0  0  0  0  0  0
   -1.4290    2.4750    0.0000 C   0  0  0  0  0  0  0  0  0  0  0  0
   -7.1448    3.3000    0.0000 C   0  0  0  0  0  0  0  0  0  0  0  0
    4.2868    4.9500    0.0000 C   0  0  0  0  0  0  0  0  0  0  0  0
    5.7158    7.4251    0.0000 C   0  0  0  0  0  0  0  0  0  0  0  0
   -7.1448    2.4750    0.0000 C   0  0  0  0  0  0  0  0  0  0  0  0
   -7.8592    2.8875    0.0000 C   0  0  0  0  0  0  0  0  0  0  0  0
   -7.8592    3.7125    0.0000 C   0  0  0  0  0  0  0  0  0  0  0  0
  1  6  2  0  0  0  0
  1  7  2  0  0  0  0
  1 13  1  0  0  0  0
  1 17  1  0  0  0  0
  2 15  1  0  0  0  0
  2 19  1  0  0  0  0
  3 18  1  0  0  0  0
  4 22  1  0  0  0  0
  5 44  1  0  0  0  0
  8 23  1  0  0  0  0
  8 30  1  0  0  0  0
  9 26  1  0  0  0  0
  9 46  1  0  0  0  0
 10 35  1  0  0  0  0
 10 47  1  0  0  0  0
 11 39  1  0  0  0  0
 11 45  1  0  0  0  0
 12 39  2  0  0  0  0
 13 19  1  0  0  0  0
 13 21  1  0  0  0  0
 14 19  2  0  0  0  0
 14 31  1  0  0  0  0
 15 31  2  0  0  0  0
 16 34  1  0  0  0  0
 16 38  1  0  0  0  0
 16 39  1  0  0  0  0
 17 18  2  0  0  0  0
 17 20  1  0  0  0  0
 18 24  1  0  0  0  0
 20 22  2  0  0  0  0
 21 25  1  0  0  0  0
 22 23  1  0  0  0  0
 23 24  2  0  0  0  0
 25 26  1  0  0  0  0
 25 29  2  0  0  0  0
 26 33  2  0  0  0  0
 27 28  1  0  0  0  0
 27 30  1  6  0  0  0
 27 36  1  0  0  0  0
 28 32  1  0  0  0  0
 28 34  1  1  0  0  0
 29 37  1  0  0  0  0
 32 40  2  0  0  0  0
 32 41  1  0  0  0  0
 33 35  1  0  0  0  0
 35 37  2  0  0  0  0
 36 38  1  0  0  0  0
 40 42  1  0  0  0  0
 41 43  2  0  0  0  0
 42 44  2  0  0  0  0
 43 44  1  0  0  0  0
 45 48  1  0  0  0  0
 45 49  1  0  0  0  0
 45 50  1  0  0  0  0
M  END
> <PUBCHEM_COMPOUND_ID_TYPE>
0

> <PUBCHEM_TOTAL_CHARGE>
0

> <PUBCHEM_SUBSTANCE_ID>
310931533

> <PUBCHEM_SUBSTANCE_VERSION>
1

> <PUBCHEM_EXT_DATASOURCE_NAME>
4488

> <PUBCHEM_EXT_DATASOURCE_REGID>
SCHEMBL16108859

> <PUBCHEM_SUBSTANCE_COMMENT>
InChI=1S/C34H37F3N4O7S2/c1-34(2,3)48-33(42)40-13-12-23(26(18-40)21-6-9-24(35)10-7-21)19-47-30-15-28(37)31(16-27(30)36)50(43,44)41(32-38-20-39-49-32)17-22-8-11-25(45-4)14-29(22)46-5/h6-11,14-16,20,23,26H,12-13,17-19H2,1-5H3/t23-,26-/m1/s1
InChIKey=GAUXJMWYQDSAAU-ZEQKJWHPSA-N

> <PUBCHEM_SUBSTANCE_SYNONYM>
SCHEMBL16108859

> <PUBCHEM_XREF_EXT_ID>
SCHEMBL16108859

> <PUBCHEM_EXT_DATASOURCE_URL>
https://www.surechembl.org/

> <PUBCHEM_EXT_SUBSTANCE_URL>
https://www.surechembl.org/chemical/SCHEMBL16108859

> <PUBCHEM_CID_ASSOCIATIONS>
117600287  1

> <PUBCHEM_COORDINATE_TYPE>
1
3

> <PUBCHEM_BONDANNOTATIONS>
27  30  6
28  34  5

$$$$
