310942213
  -OEChem-07211613022D

 28 30  0     1  0  0  0  0  0999 V2000
    1.2313    1.2251    0.0000 Cl  0  0  0  0  0  0  0  0  0  0  0  0
    2.7188   -0.3625    0.0000 S   0  0  0  0  0  0  0  0  0  0  0  0
   -0.2063   -1.2750    0.0000 F   0  0  0  0  0  0  0  0  0  0  0  0
    1.2313   -0.4500    0.0000 O   0  0  0  0  0  0  0  0  0  0  0  0
   -3.7689    0.0000    0.0000 O   0  0  0  0  0  0  0  0  0  0  0  0
    2.0563    0.8001    0.0000 N   0  0  0  0  0  0  0  0  0  0  0  0
   -2.3689   -0.0250    0.0000 N   0  0  0  0  0  0  0  0  0  0  0  0
   -4.5189    1.1875    0.0000 N   0  0  0  0  0  0  0  0  0  0  0  0
    0.5063   -0.0125    0.0000 C   0  0  0  0  0  0  0  0  0  0  0  0
   -0.2063   -0.4376    0.0000 C   0  0  0  0  0  0  0  0  0  0  0  0
   -0.9313   -0.0250    0.0000 C   0  0  0  0  0  0  0  0  0  0  0  0
    1.9563   -0.0250    0.0000 C   0  0  0  0  0  0  0  0  0  0  0  0
    0.5188    0.8125    0.0000 C   0  0  0  0  0  0  0  0  0  0  0  0
    3.2814    0.2750    0.0000 C   0  0  0  0  0  0  0  0  0  0  0  0
    2.8688    0.9876    0.0000 C   0  0  0  0  0  0  0  0  0  0  0  0
   -1.6438   -0.4376    0.0000 C   0  0  3  0  0  0  0  0  0  0  0  0
   -0.9188    0.8001    0.0000 C   0  0  0  0  0  0  0  0  0  0  0  0
   -0.2063    1.2125    0.0000 C   0  0  0  0  0  0  0  0  0  0  0  0
    4.1189    0.2625    0.0000 C   0  0  0  0  0  0  0  0  0  0  0  0
    3.2814    1.6876    0.0000 C   0  0  0  0  0  0  0  0  0  0  0  0
   -1.6438   -1.2750    0.0000 C   0  0  0  0  0  0  0  0  0  0  0  0
    4.5189    0.9750    0.0000 C   0  0  0  0  0  0  0  0  0  0  0  0
    4.1064    1.6876    0.0000 C   0  0  0  0  0  0  0  0  0  0  0  0
   -2.3689    0.8125    0.0000 C   0  0  3  0  0  0  0  0  0  0  0  0
   -3.0813    1.2251    0.0000 C   0  0  0  0  0  0  0  0  0  0  0  0
   -0.9313   -1.6876    0.0000 C   0  0  0  0  0  0  0  0  0  0  0  0
   -1.6563    1.2251    0.0000 C   0  0  0  0  0  0  0  0  0  0  0  0
   -3.8064    0.8001    0.0000 C   0  0  0  0  0  0  0  0  0  0  0  0
  1 13  1  0  0  0  0
  2 12  1  0  0  0  0
  2 14  1  0  0  0  0
  3 10  1  0  0  0  0
  4  9  1  0  0  0  0
  4 12  1  0  0  0  0
  5 28  2  0  0  0  0
  6 12  2  0  0  0  0
  6 15  1  0  0  0  0
 16  7  1  1  0  0  0
  7 24  1  0  0  0  0
  8 28  1  0  0  0  0
  9 10  2  0  0  0  0
  9 13  1  0  0  0  0
 10 11  1  0  0  0  0
 11 16  1  0  0  0  0
 11 17  2  0  0  0  0
 13 18  2  0  0  0  0
 14 15  2  0  0  0  0
 14 19  1  0  0  0  0
 15 20  1  0  0  0  0
 16 21  1  0  0  0  0
 17 18  1  0  0  0  0
 19 22  2  0  0  0  0
 20 23  2  0  0  0  0
 21 26  1  0  0  0  0
 22 23  1  0  0  0  0
 24 25  1  0  0  0  0
 24 27  1  6  0  0  0
 25 28  1  0  0  0  0
M  END
> <PUBCHEM_COMPOUND_ID_TYPE>
0

> <PUBCHEM_TOTAL_CHARGE>
0

> <PUBCHEM_SUBSTANCE_ID>
310942213

> <PUBCHEM_SUBSTANCE_VERSION>
1

> <PUBCHEM_EXT_DATASOURCE_NAME>
4488

> <PUBCHEM_EXT_DATASOURCE_REGID>
SCHEMBL16120248

> <PUBCHEM_SUBSTANCE_COMMENT>
InChI=1S/C20H21ClFN3O2S/c1-3-14(24-11(2)10-17(23)26)12-8-9-13(21)19(18(12)22)27-20-25-15-6-4-5-7-16(15)28-20/h4-9,11,14,24H,3,10H2,1-2H3,(H2,23,26)/t11-,14+/m0/s1
InChIKey=BKAVYCQYZGPBSR-SMDDNHRTSA-N

> <PUBCHEM_SUBSTANCE_SYNONYM>
SCHEMBL16120248

> <PUBCHEM_XREF_EXT_ID>
SCHEMBL16120248

> <PUBCHEM_EXT_DATASOURCE_URL>
https://www.surechembl.org/

> <PUBCHEM_EXT_SUBSTANCE_URL>
https://www.surechembl.org/chemical/SCHEMBL16120248

> <PUBCHEM_CID_ASSOCIATIONS>
117608864  1

> <PUBCHEM_COORDINATE_TYPE>
1
3

> <PUBCHEM_BONDANNOTATIONS>
24  27  6
16  7  5

$$$$
