310929189
  -OEChem-07211613022D

 49 53  0     0  0  0  0  0  0999 V2000
   10.2756   -4.9410    0.0000 S   0  0  0  0  0  0  0  0  0  0  0  0
    5.3783   -2.0989    0.0000 O   0  0  0  0  0  0  0  0  0  0  0  0
    9.0512   -2.8422    0.0000 O   0  0  0  0  0  0  0  0  0  0  0  0
    8.6577   -0.6996    0.0000 O   0  0  0  0  0  0  0  0  0  0  0  0
   11.0626   -4.5038    0.0000 O   0  0  0  0  0  0  0  0  0  0  0  0
    9.5760   -5.3346    0.0000 O   0  0  0  0  0  0  0  0  0  0  0  0
    0.4373   -4.8099    0.0000 O   0  0  0  0  0  0  0  0  0  0  0  0
    3.6730   -6.2965    0.0000 O   0  0  0  0  0  0  0  0  0  0  0  0
    9.8821   -1.3992    0.0000 N   0  0  0  0  0  0  0  0  0  0  0  0
    8.6577   -2.0989    0.0000 N   0  0  0  0  0  0  0  0  0  0  0  0
    9.8821   -4.2414    0.0000 N   0  0  0  0  0  0  0  0  0  0  0  0
    2.9296   -3.4543    0.0000 N   0  0  0  0  0  0  0  0  0  0  0  0
    4.1102   -4.1977    0.0000 N   0  0  0  0  0  0  0  0  0  0  0  0
   10.2756   -2.0989    0.0000 C   0  0  0  0  0  0  0  0  0  0  0  0
    9.8821   -2.8422    0.0000 C   0  0  0  0  0  0  0  0  0  0  0  0
    7.4334   -1.4429    0.0000 C   0  0  0  0  0  0  0  0  0  0  0  0
   10.2756   -3.5418    0.0000 C   0  0  0  0  0  0  0  0  0  0  0  0
   11.4999   -2.8422    0.0000 C   0  0  0  0  0  0  0  0  0  0  0  0
    6.6026   -1.3992    0.0000 C   0  0  0  0  0  0  0  0  0  0  0  0
    7.8269   -2.0989    0.0000 C   0  0  0  0  0  0  0  0  0  0  0  0
    6.2090   -2.0989    0.0000 C   0  0  0  0  0  0  0  0  0  0  0  0
   11.1064   -2.1426    0.0000 C   0  0  0  0  0  0  0  0  0  0  0  0
   11.1064   -3.5418    0.0000 C   0  0  0  0  0  0  0  0  0  0  0  0
   12.3307   -2.8422    0.0000 C   0  0  0  0  0  0  0  0  0  0  0  0
    9.0512   -1.3992    0.0000 C   0  0  0  0  0  0  0  0  0  0  0  0
    7.4334   -2.7985    0.0000 C   0  0  0  0  0  0  0  0  0  0  0  0
    6.6026   -2.7985    0.0000 C   0  0  0  0  0  0  0  0  0  0  0  0
    7.8707   -0.6996    0.0000 C   0  0  0  0  0  0  0  0  0  0  0  0
    6.2090   -0.6996    0.0000 C   0  0  0  0  0  0  0  0  0  0  0  0
    4.9410   -2.7985    0.0000 C   0  0  0  0  0  0  0  0  0  0  0  0
    7.4334    0.0000    0.0000 C   0  0  0  0  0  0  0  0  0  0  0  0
    6.6463    0.0000    0.0000 C   0  0  0  0  0  0  0  0  0  0  0  0
    4.1540   -2.7547    0.0000 C   0  0  0  0  0  0  0  0  0  0  0  0
    3.7167   -3.4543    0.0000 C   0  0  0  0  0  0  0  0  0  0  0  0
   12.3307   -3.6730    0.0000 C   0  0  0  0  0  0  0  0  0  0  0  0
   13.1178   -2.8422    0.0000 C   0  0  0  0  0  0  0  0  0  0  0  0
   12.3307   -2.0114    0.0000 C   0  0  0  0  0  0  0  0  0  0  0  0
    5.3783   -3.4981    0.0000 C   0  0  0  0  0  0  0  0  0  0  0  0
    2.4924   -4.1540    0.0000 C   0  0  0  0  0  0  0  0  0  0  0  0
    4.9410   -4.1977    0.0000 C   0  0  0  0  0  0  0  0  0  0  0  0
    8.6577   -3.5418    0.0000 C   0  0  0  0  0  0  0  0  0  0  0  0
   10.6691   -5.6407    0.0000 C   0  0  0  0  0  0  0  0  0  0  0  0
    1.6616   -4.1102    0.0000 C   0  0  0  0  0  0  0  0  0  0  0  0
    2.8859   -4.8536    0.0000 C   0  0  0  0  0  0  0  0  0  0  0  0
    1.2681   -4.8099    0.0000 C   0  0  0  0  0  0  0  0  0  0  0  0
    2.4487   -5.5532    0.0000 C   0  0  0  0  0  0  0  0  0  0  0  0
    1.6616   -5.5532    0.0000 C   0  0  0  0  0  0  0  0  0  0  0  0
    2.8422   -6.2965    0.0000 C   0  0  0  0  0  0  0  0  0  0  0  0
    0.0000   -5.4657    0.0000 C   0  0  0  0  0  0  0  0  0  0  0  0
  1  5  2  0  0  0  0
  1  6  2  0  0  0  0
  1 11  1  0  0  0  0
  1 42  1  0  0  0  0
  2 21  1  0  0  0  0
  2 30  1  0  0  0  0
  3 15  1  0  0  0  0
  3 41  1  0  0  0  0
  4 25  2  0  0  0  0
  7 45  1  0  0  0  0
  7 49  1  0  0  0  0
  8 48  1  0  0  0  0
  9 14  1  0  0  0  0
  9 25  1  0  0  0  0
 10 20  1  0  0  0  0
 10 25  1  0  0  0  0
 11 17  1  0  0  0  0
 12 34  1  0  0  0  0
 12 39  1  0  0  0  0
 13 34  2  0  0  0  0
 13 40  1  0  0  0  0
 14 15  1  0  0  0  0
 14 22  2  0  0  0  0
 15 17  2  0  0  0  0
 16 19  2  0  0  0  0
 16 20  1  0  0  0  0
 16 28  1  0  0  0  0
 17 23  1  0  0  0  0
 18 22  1  0  0  0  0
 18 23  2  0  0  0  0
 18 24  1  0  0  0  0
 19 21  1  0  0  0  0
 19 29  1  0  0  0  0
 20 26  2  0  0  0  0
 21 27  2  0  0  0  0
 24 35  1  0  0  0  0
 24 36  1  0  0  0  0
 24 37  1  0  0  0  0
 26 27  1  0  0  0  0
 28 31  2  0  0  0  0
 29 32  2  0  0  0  0
 30 33  2  0  0  0  0
 30 38  1  0  0  0  0
 31 32  1  0  0  0  0
 33 34  1  0  0  0  0
 38 40  2  0  0  0  0
 39 43  2  0  0  0  0
 39 44  1  0  0  0  0
 43 45  1  0  0  0  0
 44 46  2  0  0  0  0
 45 47  2  0  0  0  0
 46 47  1  0  0  0  0
 46 48  1  0  0  0  0
M  END
> <PUBCHEM_COMPOUND_ID_TYPE>
0

> <PUBCHEM_TOTAL_CHARGE>
0

> <PUBCHEM_SUBSTANCE_ID>
310929189

> <PUBCHEM_SUBSTANCE_VERSION>
1

> <PUBCHEM_EXT_DATASOURCE_NAME>
4488

> <PUBCHEM_EXT_DATASOURCE_REGID>
SCHEMBL16106352

> <PUBCHEM_SUBSTANCE_COMMENT>
InChI=1S/C36H39N5O7S/c1-36(2,3)23-17-30(34(47-5)31(18-23)41-49(6,44)45)40-35(43)39-29-11-12-32(28-10-8-7-9-27(28)29)48-25-13-14-37-33(20-25)38-24-15-22(21-42)16-26(19-24)46-4/h7-20,41-42H,21H2,1-6H3,(H,37,38)(H2,39,40,43)
InChIKey=AXWACQOPPLIPNN-UHFFFAOYSA-N

> <PUBCHEM_SUBSTANCE_SYNONYM>
SCHEMBL16106352

> <PUBCHEM_XREF_EXT_ID>
SCHEMBL16106352

> <PUBCHEM_EXT_DATASOURCE_URL>
https://www.surechembl.org/

> <PUBCHEM_EXT_SUBSTANCE_URL>
https://www.surechembl.org/chemical/SCHEMBL16106352

> <PUBCHEM_CID_ASSOCIATIONS>
117598643  1

> <PUBCHEM_COORDINATE_TYPE>
1
3

$$$$
