310943200
  -OEChem-07211613022D

 35 38  0     1  0  0  0  0  0999 V2000
    4.6524    1.3776    0.0000 F   0  0  0  0  0  0  0  0  0  0  0  0
    5.3782    0.9816    0.0000 F   0  0  0  0  0  0  0  0  0  0  0  0
   -3.9594   -1.0476    0.0000 O   0  0  0  0  0  0  0  0  0  0  0  0
   -5.3947    1.4765    0.0000 O   0  0  0  0  0  0  0  0  0  0  0  0
    1.7652    1.3941    0.0000 O   0  0  0  0  0  0  0  0  0  0  0  0
   -3.9594    0.6517    0.0000 N   0  0  3  0  0  0  0  0  0  0  0  0
   -2.5241   -1.0476    0.0000 N   0  0  0  0  0  0  0  0  0  0  0  0
   -1.7983   -0.6352    0.0000 N   0  0  0  0  0  0  0  0  0  0  0  0
    1.0559    0.1403    0.0000 N   0  0  0  0  0  0  0  0  0  0  0  0
    3.9265   -0.6846    0.0000 N   0  0  0  0  0  0  0  0  0  0  0  0
   -3.2336    0.2062    0.0000 C   0  0  0  0  0  0  0  0  0  0  0  0
   -1.7983    0.2062    0.0000 C   0  0  0  0  0  0  0  0  0  0  0  0
   -1.1054    0.5692    0.0000 C   0  0  0  0  0  0  0  0  0  0  0  0
   -3.2336   -0.6186    0.0000 C   0  0  0  0  0  0  0  0  0  0  0  0
   -2.5241    0.6021    0.0000 C   0  0  0  0  0  0  0  0  0  0  0  0
   -1.0888    1.3941    0.0000 C   0  0  0  0  0  0  0  0  0  0  0  0
   -0.3465    0.1732    0.0000 C   0  0  0  0  0  0  0  0  0  0  0  0
    0.3299    0.5857    0.0000 C   0  0  0  0  0  0  0  0  0  0  0  0
   -3.9429    1.4765    0.0000 C   0  0  3  0  0  0  0  0  0  0  0  0
   -4.6524    0.2557    0.0000 C   0  0  0  0  0  0  0  0  0  0  0  0
    2.5076    0.1567    0.0000 C   0  0  0  0  0  0  0  0  0  0  0  0
   -0.3794    1.7900    0.0000 C   0  0  0  0  0  0  0  0  0  0  0  0
    1.7652    0.5526    0.0000 C   0  0  0  0  0  0  0  0  0  0  0  0
    3.9429    0.1567    0.0000 C   0  0  0  0  0  0  0  0  0  0  0  0
    0.3299    1.3941    0.0000 C   0  0  0  0  0  0  0  0  0  0  0  0
    4.6689    0.5692    0.0000 C   0  0  0  0  0  0  0  0  0  0  0  0
    3.2171    0.5692    0.0000 C   0  0  0  0  0  0  0  0  0  0  0  0
   -4.6853    1.8890    0.0000 C   0  0  0  0  0  0  0  0  0  0  0  0
   -2.4912   -1.8890    0.0000 C   0  0  0  0  0  0  0  0  0  0  0  0
   -5.3782    0.6517    0.0000 C   0  0  0  0  0  0  0  0  0  0  0  0
    2.5076   -0.6681    0.0000 C   0  0  0  0  0  0  0  0  0  0  0  0
   -1.8312    1.7900    0.0000 C   0  0  0  0  0  0  0  0  0  0  0  0
   -3.2500    1.8890    0.0000 C   0  0  0  0  0  0  0  0  0  0  0  0
    3.2005   -1.0806    0.0000 C   0  0  0  0  0  0  0  0  0  0  0  0
    5.3947    0.1732    0.0000 C   0  0  0  0  0  0  0  0  0  0  0  0
  1 26  1  0  0  0  0
  2 26  1  0  0  0  0
  3 14  2  0  0  0  0
  4 28  1  0  0  0  0
  4 30  1  0  0  0  0
  5 23  2  0  0  0  0
  6 11  1  0  0  0  0
  6 19  1  0  0  0  0
  6 20  1  0  0  0  0
  7  8  1  0  0  0  0
  7 14  1  0  0  0  0
  7 29  1  0  0  0  0
  8 12  2  0  0  0  0
  9 18  1  0  0  0  0
  9 23  1  0  0  0  0
 10 24  1  0  0  0  0
 10 34  2  0  0  0  0
 11 14  1  0  0  0  0
 11 15  2  0  0  0  0
 12 13  1  0  0  0  0
 12 15  1  0  0  0  0
 13 16  1  0  0  0  0
 13 17  2  0  0  0  0
 16 22  2  0  0  0  0
 16 32  1  0  0  0  0
 17 18  1  0  0  0  0
 18 25  2  0  0  0  0
 19 28  1  0  0  0  0
 19 33  1  6  0  0  0
 20 30  1  0  0  0  0
 21 23  1  0  0  0  0
 21 27  1  0  0  0  0
 21 31  2  0  0  0  0
 22 25  1  0  0  0  0
 24 26  1  0  0  0  0
 24 27  2  0  0  0  0
 26 35  1  0  0  0  0
 31 34  1  0  0  0  0
M  END
> <PUBCHEM_COMPOUND_ID_TYPE>
0

> <PUBCHEM_TOTAL_CHARGE>
0

> <PUBCHEM_SUBSTANCE_ID>
310943200

> <PUBCHEM_SUBSTANCE_VERSION>
1

> <PUBCHEM_EXT_DATASOURCE_NAME>
4488

> <PUBCHEM_EXT_DATASOURCE_REGID>
SCHEMBL16121261

> <PUBCHEM_SUBSTANCE_COMMENT>
InChI=1S/C25H27F2N5O3/c1-15-5-6-18(29-23(33)17-7-8-28-22(11-17)25(3,26)27)12-19(15)20-13-21(24(34)31(4)30-20)32-9-10-35-14-16(32)2/h5-8,11-13,16H,9-10,14H2,1-4H3,(H,29,33)/t16-/m0/s1
InChIKey=RPPLBNDYDPFVJZ-INIZCTEOSA-N

> <PUBCHEM_SUBSTANCE_SYNONYM>
SCHEMBL16121261

> <PUBCHEM_XREF_EXT_ID>
SCHEMBL16121261

> <PUBCHEM_EXT_DATASOURCE_URL>
https://www.surechembl.org/

> <PUBCHEM_EXT_SUBSTANCE_URL>
https://www.surechembl.org/chemical/SCHEMBL16121261

> <PUBCHEM_CID_ASSOCIATIONS>
117609626  1

> <PUBCHEM_COORDINATE_TYPE>
1
3

> <PUBCHEM_BONDANNOTATIONS>
19  33  6

$$$$
