310949598
  -OEChem-07211613022D

 33 38  0     1  0  0  0  0  0999 V2000
   -1.4572    1.3948    0.0000 N   0  0  0  0  0  0  0  0  0  0  0  0
   -1.4434    2.7410    0.0000 N   0  0  0  0  0  0  0  0  0  0  0  0
   -0.6939   -0.9784    0.0000 N   0  0  0  0  0  0  0  0  0  0  0  0
    1.1519    1.6445    0.0000 N   0  0  0  0  0  0  0  0  0  0  0  0
   -0.9576    2.0749    0.0000 C   0  0  0  0  0  0  0  0  0  0  0  0
   -2.2484    1.6862    0.0000 C   0  0  0  0  0  0  0  0  0  0  0  0
   -2.2344    2.5050    0.0000 C   0  0  0  0  0  0  0  0  0  0  0  0
   -1.2074    0.6314    0.0000 C   0  0  0  0  0  0  0  0  0  0  0  0
   -0.1111    2.0610    0.0000 C   0  0  3  0  0  0  0  0  0  0  0  0
   -2.9561    1.2560    0.0000 C   0  0  0  0  0  0  0  0  0  0  0  0
   -2.9561    2.9075    0.0000 C   0  0  0  0  0  0  0  0  0  0  0  0
   -1.7348    0.0069    0.0000 C   0  0  0  0  0  0  0  0  0  0  0  0
   -0.3748    0.4372    0.0000 C   0  0  0  0  0  0  0  0  0  0  0  0
    0.3609    1.4087    0.0000 C   0  0  0  0  0  0  0  0  0  0  0  0
    0.3748    2.7271    0.0000 C   0  0  0  0  0  0  0  0  0  0  0  0
   -3.6778    1.6724    0.0000 C   0  0  0  0  0  0  0  0  0  0  0  0
   -3.6639    2.5050    0.0000 C   0  0  0  0  0  0  0  0  0  0  0  0
   -1.5127   -0.7841    0.0000 C   0  0  0  0  0  0  0  0  0  0  0  0
   -0.1249   -0.3540    0.0000 C   0  0  0  0  0  0  0  0  0  0  0  0
    1.1658    2.4773    0.0000 C   0  0  0  0  0  0  0  0  0  0  0  0
   -0.4303   -1.7556    0.0000 C   0  0  0  0  0  0  0  0  0  0  0  0
    0.3748   -1.9361    0.0000 C   0  0  0  0  0  0  0  0  0  0  0  0
    1.7348   -1.5197    0.0000 C   0  0  0  0  0  0  0  0  0  0  0  0
    0.9437   -1.3393    0.0000 C   0  0  0  0  0  0  0  0  0  0  0  0
    2.3039   -0.8674    0.0000 C   0  0  0  0  0  0  0  0  0  0  0  0
    0.6384   -2.7271    0.0000 C   0  0  0  0  0  0  0  0  0  0  0  0
    1.9985   -2.2969    0.0000 C   0  0  0  0  0  0  0  0  0  0  0  0
    1.4434   -2.9075    0.0000 C   0  0  0  0  0  0  0  0  0  0  0  0
    3.1227   -1.0617    0.0000 C   0  0  0  0  0  0  0  0  0  0  0  0
    2.0679   -0.1041    0.0000 C   0  0  0  0  0  0  0  0  0  0  0  0
    3.6778   -0.4649    0.0000 C   0  0  0  0  0  0  0  0  0  0  0  0
    2.6091    0.5065    0.0000 C   0  0  0  0  0  0  0  0  0  0  0  0
    3.4140    0.3262    0.0000 C   0  0  0  0  0  0  0  0  0  0  0  0
  1  5  1  0  0  0  0
  1  6  1  0  0  0  0
  1  8  1  0  0  0  0
  2  5  2  0  0  0  0
  2  7  1  0  0  0  0
  3 18  1  0  0  0  0
  3 19  1  0  0  0  0
  3 21  1  0  0  0  0
  4 14  1  0  0  0  0
  4 20  1  0  0  0  0
  9  5  1  6  0  0  0
  6  7  1  0  0  0  0
  6 10  2  0  0  0  0
  7 11  2  0  0  0  0
  8 12  1  0  0  0  0
  8 13  1  0  0  0  0
  9 14  1  0  0  0  0
  9 15  1  0  0  0  0
 10 16  1  0  0  0  0
 11 17  1  0  0  0  0
 12 18  1  0  0  0  0
 13 19  1  0  0  0  0
 15 20  1  0  0  0  0
 16 17  2  0  0  0  0
 21 22  1  0  0  0  0
 22 24  2  0  0  0  0
 22 26  1  0  0  0  0
 23 24  1  0  0  0  0
 23 25  1  0  0  0  0
 23 27  2  0  0  0  0
 25 29  2  0  0  0  0
 25 30  1  0  0  0  0
 26 28  2  0  0  0  0
 27 28  1  0  0  0  0
 29 31  1  0  0  0  0
 30 32  2  0  0  0  0
 31 33  2  0  0  0  0
 32 33  1  0  0  0  0
M  END
> <PUBCHEM_COMPOUND_ID_TYPE>
0

> <PUBCHEM_TOTAL_CHARGE>
0

> <PUBCHEM_SUBSTANCE_ID>
310949598

> <PUBCHEM_SUBSTANCE_VERSION>
1

> <PUBCHEM_EXT_DATASOURCE_NAME>
4488

> <PUBCHEM_EXT_DATASOURCE_REGID>
SCHEMBL16127795

> <PUBCHEM_SUBSTANCE_COMMENT>
InChI=1S/C29H32N4/c1-2-8-23(9-3-1)24-10-6-7-22(19-24)21-32-17-14-26(15-18-32)33-28-12-5-4-11-27(28)31-29(33)25-13-16-30-20-25/h1-12,19,25-26,30H,13-18,20-21H2/t25-/m1/s1
InChIKey=QTVOZLRYDAEHNF-RUZDIDTESA-N

> <PUBCHEM_SUBSTANCE_SYNONYM>
SCHEMBL16127795

> <PUBCHEM_XREF_EXT_ID>
SCHEMBL16127795

> <PUBCHEM_EXT_DATASOURCE_URL>
https://www.surechembl.org/

> <PUBCHEM_EXT_SUBSTANCE_URL>
https://www.surechembl.org/chemical/SCHEMBL16127795

> <PUBCHEM_CID_ASSOCIATIONS>
86275491  1

> <PUBCHEM_COORDINATE_TYPE>
1
3

> <PUBCHEM_BONDANNOTATIONS>
9  5  6

$$$$
