310933400
  -OEChem-07211613022D

 30 34  0     0  0  0  0  0  0999 V2000
    0.0000   -4.4852    0.0000 O   0  0  0  0  0  0  0  0  0  0  0  0
    5.5717   -3.3709    0.0000 O   0  0  0  0  0  0  0  0  0  0  0  0
    6.2961   -0.4179    0.0000 O   0  0  0  0  0  0  0  0  0  0  0  0
    4.2345   -2.7023    0.0000 N   0  0  0  0  0  0  0  0  0  0  0  0
    4.2345   -4.0116    0.0000 N   0  0  0  0  0  0  0  0  0  0  0  0
    0.4179   -5.2096    0.0000 N   0  0  0  0  0  0  0  0  0  0  0  0
    4.8753   -1.2536    0.0000 N   0  0  0  0  0  0  0  0  0  0  0  0
    3.4545   -2.9252    0.0000 C   0  0  0  0  0  0  0  0  0  0  0  0
    2.7301   -2.5351    0.0000 C   0  0  0  0  0  0  0  0  0  0  0  0
    3.4545   -3.7888    0.0000 C   0  0  0  0  0  0  0  0  0  0  0  0
    2.0337   -3.7888    0.0000 C   0  0  0  0  0  0  0  0  0  0  0  0
    1.3094   -4.2067    0.0000 C   0  0  0  0  0  0  0  0  0  0  0  0
    2.7301   -1.6994    0.0000 C   0  0  0  0  0  0  0  0  0  0  0  0
    2.0337   -2.9252    0.0000 C   0  0  0  0  0  0  0  0  0  0  0  0
    2.7301   -4.1788    0.0000 C   0  0  0  0  0  0  0  0  0  0  0  0
    4.7360   -3.3709    0.0000 C   0  0  0  0  0  0  0  0  0  0  0  0
    3.4266   -1.2815    0.0000 C   0  0  0  0  0  0  0  0  0  0  0  0
    0.5572   -3.8723    0.0000 C   0  0  0  0  0  0  0  0  0  0  0  0
    1.2258   -5.0145    0.0000 C   0  0  0  0  0  0  0  0  0  0  0  0
    1.9780   -1.2815    0.0000 C   0  0  0  0  0  0  0  0  0  0  0  0
    4.1509   -1.6715    0.0000 C   0  0  0  0  0  0  0  0  0  0  0  0
    3.4266   -0.4457    0.0000 C   0  0  0  0  0  0  0  0  0  0  0  0
    1.9780   -0.4736    0.0000 C   0  0  0  0  0  0  0  0  0  0  0  0
    2.7023   -0.0557    0.0000 C   0  0  0  0  0  0  0  0  0  0  0  0
    0.3900   -3.0644    0.0000 C   0  0  0  0  0  0  0  0  0  0  0  0
    1.8387   -5.5717    0.0000 C   0  0  0  0  0  0  0  0  0  0  0  0
    4.8474   -0.4179    0.0000 C   0  0  0  0  0  0  0  0  0  0  0  0
    5.5717   -1.6436    0.0000 C   0  0  0  0  0  0  0  0  0  0  0  0
    5.5717    0.0000    0.0000 C   0  0  0  0  0  0  0  0  0  0  0  0
    6.2961   -1.2536    0.0000 C   0  0  0  0  0  0  0  0  0  0  0  0
  1  6  1  0  0  0  0
  1 18  1  0  0  0  0
  2 16  2  0  0  0  0
  3 29  1  0  0  0  0
  3 30  1  0  0  0  0
  4  8  1  0  0  0  0
  4 16  1  0  0  0  0
  5 10  1  0  0  0  0
  5 16  1  0  0  0  0
  6 19  2  0  0  0  0
  7 21  1  0  0  0  0
  7 27  1  0  0  0  0
  7 28  1  0  0  0  0
  8  9  1  0  0  0  0
  8 10  2  0  0  0  0
  9 13  1  0  0  0  0
  9 14  2  0  0  0  0
 10 15  1  0  0  0  0
 11 12  1  0  0  0  0
 11 14  1  0  0  0  0
 11 15  2  0  0  0  0
 12 18  2  0  0  0  0
 12 19  1  0  0  0  0
 13 17  1  0  0  0  0
 13 20  2  0  0  0  0
 17 21  1  0  0  0  0
 17 22  2  0  0  0  0
 18 25  1  0  0  0  0
 19 26  1  0  0  0  0
 20 23  1  0  0  0  0
 22 24  1  0  0  0  0
 23 24  2  0  0  0  0
 27 29  1  0  0  0  0
 28 30  1  0  0  0  0
M  END
> <PUBCHEM_COMPOUND_ID_TYPE>
0

> <PUBCHEM_TOTAL_CHARGE>
0

> <PUBCHEM_SUBSTANCE_ID>
310933400

> <PUBCHEM_SUBSTANCE_VERSION>
1

> <PUBCHEM_EXT_DATASOURCE_NAME>
4488

> <PUBCHEM_EXT_DATASOURCE_REGID>
SCHEMBL16110816

> <PUBCHEM_SUBSTANCE_COMMENT>
InChI=1S/C23H24N4O3/c1-14-21(15(2)30-26-14)17-11-19(22-20(12-17)24-23(28)25-22)18-6-4-3-5-16(18)13-27-7-9-29-10-8-27/h3-6,11-12H,7-10,13H2,1-2H3,(H2,24,25,28)
InChIKey=JPLBRPWUMHIKDK-UHFFFAOYSA-N

> <PUBCHEM_SUBSTANCE_SYNONYM>
SCHEMBL16110816

> <PUBCHEM_XREF_EXT_ID>
SCHEMBL16110816

> <PUBCHEM_EXT_DATASOURCE_URL>
https://www.surechembl.org/

> <PUBCHEM_EXT_SUBSTANCE_URL>
https://www.surechembl.org/chemical/SCHEMBL16110816

> <PUBCHEM_CID_ASSOCIATIONS>
117601810  1

> <PUBCHEM_COORDINATE_TYPE>
1
3

$$$$
