310939519
  -OEChem-07211613022D

 47 51  0     1  0  0  0  0  0999 V2000
   -0.6054   -1.1661    0.0000 O   0  0  0  0  0  0  0  0  0  0  0  0
   -4.8434   -2.8161    0.0000 O   0  0  0  0  0  0  0  0  0  0  0  0
    0.6321   -1.8805    0.0000 O   0  0  0  0  0  0  0  0  0  0  0  0
    1.5572   -3.6306    0.0000 O   0  0  0  0  0  0  0  0  0  0  0  0
    1.1874   -2.2504    0.0000 O   0  0  0  0  0  0  0  0  0  0  0  0
   -0.0739    1.0409    0.0000 O   0  0  0  0  0  0  0  0  0  0  0  0
   -3.4144   -4.4661    0.0000 O   0  0  0  0  0  0  0  0  0  0  0  0
   -4.8434   -4.4661    0.0000 O   0  0  0  0  0  0  0  0  0  0  0  0
   -2.6999   -0.7536    0.0000 C   0  0  3  0  0  0  0  0  0  0  0  0
   -2.6999   -1.5786    0.0000 C   0  0  3  0  0  0  0  0  0  0  0  0
   -1.9153   -0.4986    0.0000 C   0  0  3  0  0  0  0  0  0  0  0  0
   -1.4304   -1.1661    0.0000 C   0  0  3  0  0  0  0  0  0  0  0  0
   -4.1289   -1.5786    0.0000 C   0  0  0  0  0  0  0  0  0  0  0  0
   -4.1289   -0.7536    0.0000 C   0  0  0  0  0  0  0  0  0  0  0  0
   -1.9153   -1.8335    0.0000 C   0  0  0  0  0  0  0  0  0  0  0  0
   -3.4144   -0.3411    0.0000 C   0  0  0  0  0  0  0  0  0  0  0  0
   -3.4144   -1.9911    0.0000 C   0  0  0  0  0  0  0  0  0  0  0  0
   -4.8434   -1.9911    0.0000 C   0  0  0  0  0  0  0  0  0  0  0  0
   -1.5028    0.2159    0.0000 C   0  0  0  0  0  0  0  0  0  0  0  0
   -4.8434   -0.3411    0.0000 C   0  0  0  0  0  0  0  0  0  0  0  0
   -0.1929   -1.8805    0.0000 C   0  0  0  0  0  0  0  0  0  0  0  0
   -5.5578   -1.5786    0.0000 C   0  0  0  0  0  0  0  0  0  0  0  0
   -0.4064   -2.6774    0.0000 C   0  0  3  0  0  0  0  0  0  0  0  0
   -5.5578   -0.7536    0.0000 C   0  0  0  0  0  0  0  0  0  0  0  0
    0.1769   -3.2608    0.0000 C   0  0  3  0  0  0  0  0  0  0  0  0
   -0.7884   -0.1966    0.0000 C   0  0  0  0  0  0  0  0  0  0  0  0
   -1.2033   -2.8909    0.0000 C   0  0  0  0  0  0  0  0  0  0  0  0
    0.9738   -3.0473    0.0000 C   0  0  0  0  0  0  0  0  0  0  0  0
   -4.1289   -3.2286    0.0000 C   0  0  0  0  0  0  0  0  0  0  0  0
   -0.0739    0.2159    0.0000 C   0  0  3  0  0  0  0  0  0  0  0  0
   -0.0366   -4.0577    0.0000 C   0  0  0  0  0  0  0  0  0  0  0  0
   -1.4168   -3.6878    0.0000 C   0  0  0  0  0  0  0  0  0  0  0  0
   -0.8335   -4.2712    0.0000 C   0  0  0  0  0  0  0  0  0  0  0  0
   -4.1289   -4.0536    0.0000 C   0  0  0  0  0  0  0  0  0  0  0  0
    0.6406   -0.1966    0.0000 C   0  0  0  0  0  0  0  0  0  0  0  0
    0.6406   -1.0216    0.0000 C   0  0  0  0  0  0  0  0  0  0  0  0
    2.3541   -3.4171    0.0000 C   0  0  0  0  0  0  0  0  0  0  0  0
   -2.6999   -4.0536    0.0000 C   0  0  0  0  0  0  0  0  0  0  0  0
   -1.9855   -4.4661    0.0000 C   0  0  0  0  0  0  0  0  0  0  0  0
    1.3551   -1.4341    0.0000 C   0  0  0  0  0  0  0  0  0  0  0  0
   -1.9855   -5.2911    0.0000 C   0  0  0  0  0  0  0  0  0  0  0  0
   -1.2710   -4.0536    0.0000 C   0  0  0  0  0  0  0  0  0  0  0  0
   -1.2710   -5.7036    0.0000 C   0  0  0  0  0  0  0  0  0  0  0  0
   -0.5565   -4.4661    0.0000 C   0  0  0  0  0  0  0  0  0  0  0  0
    1.3551   -2.2591    0.0000 C   0  0  0  0  0  0  0  0  0  0  0  0
   -0.5565   -5.2911    0.0000 C   0  0  0  0  0  0  0  0  0  0  0  0
    2.0695   -2.6716    0.0000 C   0  0  0  0  0  0  0  0  0  0  0  0
 12  1  1  6  0  0  0
  1 21  1  0  0  0  0
  2 18  1  0  0  0  0
  2 29  1  0  0  0  0
  3 21  2  0  0  0  0
  4 28  1  0  0  0  0
  4 37  1  0  0  0  0
  5 28  2  0  0  0  0
 30  6  1  1  0  0  0
  7 34  1  0  0  0  0
  7 38  1  0  0  0  0
  8 34  2  0  0  0  0
  9 10  1  0  0  0  0
  9 11  1  0  0  0  0
  9 16  1  6  0  0  0
 10 15  1  6  0  0  0
 10 17  1  0  0  0  0
 11 12  1  0  0  0  0
 11 19  1  1  0  0  0
 12 15  1  0  0  0  0
 13 14  2  0  0  0  0
 13 17  1  0  0  0  0
 13 18  1  0  0  0  0
 14 16  1  0  0  0  0
 14 20  1  0  0  0  0
 18 22  2  0  0  0  0
 19 26  1  0  0  0  0
 20 24  2  0  0  0  0
 23 21  1  1  0  0  0
 22 24  1  0  0  0  0
 23 25  1  0  0  0  0
 23 27  1  0  0  0  0
 25 28  1  1  0  0  0
 25 31  1  0  0  0  0
 26 30  1  0  0  0  0
 27 32  1  0  0  0  0
 29 34  1  0  0  0  0
 30 35  1  0  0  0  0
 31 33  1  0  0  0  0
 32 33  1  0  0  0  0
 35 36  1  0  0  0  0
 36 40  1  0  0  0  0
 38 39  1  0  0  0  0
 39 41  2  0  0  0  0
 39 42  1  0  0  0  0
 40 45  1  0  0  0  0
 41 43  1  0  0  0  0
 42 44  2  0  0  0  0
 43 46  2  0  0  0  0
 44 46  1  0  0  0  0
 45 47  1  0  0  0  0
M  END
> <PUBCHEM_COMPOUND_ID_TYPE>
0

> <PUBCHEM_TOTAL_CHARGE>
0

> <PUBCHEM_SUBSTANCE_ID>
310939519

> <PUBCHEM_SUBSTANCE_VERSION>
1

> <PUBCHEM_EXT_DATASOURCE_NAME>
4488

> <PUBCHEM_EXT_DATASOURCE_REGID>
SCHEMBL16117448

> <PUBCHEM_SUBSTANCE_COMMENT>
InChI=1S/C39H52O8/c1-3-4-6-15-29(40)19-20-30-33-21-27-14-11-18-35(45-25-37(41)46-24-26-12-7-5-8-13-26)34(27)22-28(33)23-36(30)47-39(43)32-17-10-9-16-31(32)38(42)44-2/h5,7-8,11-14,18,28-33,36,40H,3-4,6,9-10,15-17,19-25H2,1-2H3/t28-,29-,30+,31-,32+,33-,36+/m0/s1
InChIKey=POMQOQYKXWNBAD-PGCBQCAXSA-N

> <PUBCHEM_SUBSTANCE_SYNONYM>
SCHEMBL16117448

> <PUBCHEM_XREF_EXT_ID>
SCHEMBL16117448

> <PUBCHEM_EXT_DATASOURCE_URL>
https://www.surechembl.org/

> <PUBCHEM_EXT_SUBSTANCE_URL>
https://www.surechembl.org/chemical/SCHEMBL16117448

> <PUBCHEM_CID_ASSOCIATIONS>
117606815  1

> <PUBCHEM_COORDINATE_TYPE>
1
3

> <PUBCHEM_BONDANNOTATIONS>
12  1  6
10  15  6
11  19  5
23  21  5
25  28  5
30  6  5
9  16  6

$$$$
