310934804
  -OEChem-07211613022D

 37 41  0     0  0  0  0  0  0999 V2000
    0.0393    0.0000    0.0000 Cl  0  0  0  0  0  0  0  0  0  0  0  0
    2.4751   -1.4143    0.0000 S   0  0  0  0  0  0  0  0  0  0  0  0
    2.4751   -2.3179    0.0000 O   0  0  0  0  0  0  0  0  0  0  0  0
    2.4751   -0.6286    0.0000 O   0  0  0  0  0  0  0  0  0  0  0  0
    5.6965   -7.1502    0.0000 O   0  0  0  0  0  0  0  0  0  0  0  0
    6.1680   -2.1607    0.0000 N   0  0  0  0  0  0  0  0  0  0  0  0
    8.6037   -2.1607    0.0000 N   0  0  0  0  0  0  0  0  0  0  0  0
    7.3858   -1.4536    0.0000 N   0  0  0  0  0  0  0  0  0  0  0  0
    3.2608   -1.4143    0.0000 N   0  0  0  0  0  0  0  0  0  0  0  0
    6.9537   -6.4037    0.0000 N   0  0  0  0  0  0  0  0  0  0  0  0
    7.3858   -2.8679    0.0000 C   0  0  0  0  0  0  0  0  0  0  0  0
    8.2109   -2.8679    0.0000 C   0  0  0  0  0  0  0  0  0  0  0  0
    6.9537   -2.1607    0.0000 C   0  0  0  0  0  0  0  0  0  0  0  0
    7.3466   -4.2823    0.0000 C   0  0  0  0  0  0  0  0  0  0  0  0
    8.6037   -3.5751    0.0000 C   0  0  0  0  0  0  0  0  0  0  0  0
    6.9537   -3.5751    0.0000 C   0  0  0  0  0  0  0  0  0  0  0  0
    8.1716   -4.2823    0.0000 C   0  0  0  0  0  0  0  0  0  0  0  0
    6.9537   -4.9894    0.0000 C   0  0  0  0  0  0  0  0  0  0  0  0
    8.2109   -1.4536    0.0000 C   0  0  0  0  0  0  0  0  0  0  0  0
    5.7358   -2.8679    0.0000 C   0  0  0  0  0  0  0  0  0  0  0  0
    5.7358   -1.4536    0.0000 C   0  0  0  0  0  0  0  0  0  0  0  0
    4.5179   -2.1607    0.0000 C   0  0  0  0  0  0  0  0  0  0  0  0
    1.6501   -1.4143    0.0000 C   0  0  0  0  0  0  0  0  0  0  0  0
    4.9108   -2.8679    0.0000 C   0  0  0  0  0  0  0  0  0  0  0  0
    4.9108   -1.4536    0.0000 C   0  0  0  0  0  0  0  0  0  0  0  0
    7.3466   -5.7358    0.0000 C   0  0  0  0  0  0  0  0  0  0  0  0
    6.1287   -5.0287    0.0000 C   0  0  0  0  0  0  0  0  0  0  0  0
    9.4287   -3.5751    0.0000 C   0  0  0  0  0  0  0  0  0  0  0  0
    3.6929   -2.1214    0.0000 C   0  0  0  0  0  0  0  0  0  0  0  0
    1.2179   -0.7072    0.0000 C   0  0  0  0  0  0  0  0  0  0  0  0
    6.0894   -6.4430    0.0000 C   0  0  0  0  0  0  0  0  0  0  0  0
    5.6965   -5.6965    0.0000 C   0  0  0  0  0  0  0  0  0  0  0  0
    1.2179   -2.1214    0.0000 C   0  0  0  0  0  0  0  0  0  0  0  0
    0.4321   -0.7072    0.0000 C   0  0  0  0  0  0  0  0  0  0  0  0
    0.4321   -2.1214    0.0000 C   0  0  0  0  0  0  0  0  0  0  0  0
    0.0000   -1.4143    0.0000 C   0  0  0  0  0  0  0  0  0  0  0  0
    6.0894   -7.8573    0.0000 C   0  0  0  0  0  0  0  0  0  0  0  0
  1 34  1  0  0  0  0
  2  3  2  0  0  0  0
  2  4  2  0  0  0  0
  2  9  1  0  0  0  0
  2 23  1  0  0  0  0
  5 31  1  0  0  0  0
  5 37  1  0  0  0  0
  6 13  1  0  0  0  0
  6 20  1  0  0  0  0
  6 21  1  0  0  0  0
  7 12  2  0  0  0  0
  7 19  1  0  0  0  0
  8 13  1  0  0  0  0
  8 19  2  0  0  0  0
  9 29  1  0  0  0  0
 10 26  1  0  0  0  0
 10 31  2  0  0  0  0
 11 12  1  0  0  0  0
 11 13  2  0  0  0  0
 11 16  1  0  0  0  0
 12 15  1  0  0  0  0
 14 16  2  0  0  0  0
 14 17  1  0  0  0  0
 14 18  1  0  0  0  0
 15 17  2  0  0  0  0
 15 28  1  0  0  0  0
 18 26  2  0  0  0  0
 18 27  1  0  0  0  0
 20 24  1  0  0  0  0
 21 25  1  0  0  0  0
 22 24  1  0  0  0  0
 22 25  1  0  0  0  0
 22 29  1  0  0  0  0
 23 30  1  0  0  0  0
 23 33  2  0  0  0  0
 27 32  2  0  0  0  0
 30 34  2  0  0  0  0
 31 32  1  0  0  0  0
 33 35  1  0  0  0  0
 34 36  1  0  0  0  0
 35 36  2  0  0  0  0
M  END
> <PUBCHEM_COMPOUND_ID_TYPE>
0

> <PUBCHEM_TOTAL_CHARGE>
0

> <PUBCHEM_SUBSTANCE_ID>
310934804

> <PUBCHEM_SUBSTANCE_VERSION>
1

> <PUBCHEM_EXT_DATASOURCE_NAME>
4488

> <PUBCHEM_EXT_DATASOURCE_REGID>
SCHEMBL16112308

> <PUBCHEM_SUBSTANCE_COMMENT>
InChI=1S/C27H28ClN5O3S/c1-18-12-21(20-6-7-25(36-2)29-16-20)13-24-26(18)30-17-31-27(24)33-10-8-19(9-11-33)15-32-37(34,35)23-5-3-4-22(28)14-23/h3-7,12-14,16-17,19,32H,8-11,15H2,1-2H3
InChIKey=YTJBJXQQZYQLLR-UHFFFAOYSA-N

> <PUBCHEM_SUBSTANCE_SYNONYM>
SCHEMBL16112308

> <PUBCHEM_XREF_EXT_ID>
SCHEMBL16112308

> <PUBCHEM_EXT_DATASOURCE_URL>
https://www.surechembl.org/

> <PUBCHEM_EXT_SUBSTANCE_URL>
https://www.surechembl.org/chemical/SCHEMBL16112308

> <PUBCHEM_CID_ASSOCIATIONS>
117602950  1

> <PUBCHEM_COORDINATE_TYPE>
1
3

$$$$
