310949178
  -OEChem-07211613022D

 24 25  0     0  0  0  0  0  0999 V2000
    1.0860   -0.6142    0.0000 S   0  0  0  0  0  0  0  0  0  0  0  0
    1.0860   -1.4380    0.0000 O   0  0  0  0  0  0  0  0  0  0  0  0
    2.5390    0.2098    0.0000 O   0  0  0  0  0  0  0  0  0  0  0  0
    2.0596   -0.6142    0.0000 O   0  0  0  0  0  0  0  0  0  0  0  0
    0.2472   -0.6142    0.0000 O   0  0  0  0  0  0  0  0  0  0  0  0
    1.0860    2.6663    0.0000 O   0  0  0  0  0  0  0  0  0  0  0  0
   -0.3670    2.6663    0.0000 O   0  0  0  0  0  0  0  0  0  0  0  0
    1.1009    0.2247    0.0000 C   0  0  0  0  0  0  0  0  0  0  0  0
    0.3670    1.4380    0.0000 C   0  0  0  0  0  0  0  0  0  0  0  0
    1.8051    0.6292    0.0000 C   0  0  0  0  0  0  0  0  0  0  0  0
    0.3670    0.6292    0.0000 C   0  0  0  0  0  0  0  0  0  0  0  0
    1.1009    1.8575    0.0000 C   0  0  0  0  0  0  0  0  0  0  0  0
   -0.3670    1.8425    0.0000 C   0  0  0  0  0  0  0  0  0  0  0  0
    1.8200    1.4380    0.0000 C   0  0  0  0  0  0  0  0  0  0  0  0
   -1.0860    1.4380    0.0000 C   0  0  0  0  0  0  0  0  0  0  0  0
   -1.8051    1.8425    0.0000 C   0  0  0  0  0  0  0  0  0  0  0  0
   -1.0860    0.6292    0.0000 C   0  0  0  0  0  0  0  0  0  0  0  0
    1.8200   -1.8425    0.0000 C   0  0  0  0  0  0  0  0  0  0  0  0
   -2.5240    1.4380    0.0000 C   0  0  0  0  0  0  0  0  0  0  0  0
   -1.8200    0.2247    0.0000 C   0  0  0  0  0  0  0  0  0  0  0  0
   -2.5540    0.6142    0.0000 C   0  0  0  0  0  0  0  0  0  0  0  0
    3.2730    0.6142    0.0000 C   0  0  0  0  0  0  0  0  0  0  0  0
    1.8200   -2.6663    0.0000 C   0  0  0  0  0  0  0  0  0  0  0  0
   -3.2730    0.2098    0.0000 C   0  0  0  0  0  0  0  0  0  0  0  0
  1  2  1  0  0  0  0
  1  4  2  0  0  0  0
  1  5  2  0  0  0  0
  1  8  1  0  0  0  0
  2 18  1  0  0  0  0
  3 10  1  0  0  0  0
  3 22  1  0  0  0  0
  6 12  1  0  0  0  0
  7 13  2  0  0  0  0
  8 10  2  0  0  0  0
  8 11  1  0  0  0  0
  9 11  2  0  0  0  0
  9 12  1  0  0  0  0
  9 13  1  0  0  0  0
 10 14  1  0  0  0  0
 12 14  2  0  0  0  0
 13 15  1  0  0  0  0
 15 16  2  0  0  0  0
 15 17  1  0  0  0  0
 16 19  1  0  0  0  0
 17 20  2  0  0  0  0
 18 23  1  0  0  0  0
 19 21  2  0  0  0  0
 20 21  1  0  0  0  0
 21 24  1  0  0  0  0
M  END
> <PUBCHEM_COMPOUND_ID_TYPE>
0

> <PUBCHEM_TOTAL_CHARGE>
0

> <PUBCHEM_SUBSTANCE_ID>
310949178

> <PUBCHEM_SUBSTANCE_VERSION>
1

> <PUBCHEM_EXT_DATASOURCE_NAME>
4488

> <PUBCHEM_EXT_DATASOURCE_REGID>
SCHEMBL16127368

> <PUBCHEM_SUBSTANCE_COMMENT>
InChI=1S/C17H18O6S/c1-4-23-24(20,21)16-9-13(14(18)10-15(16)22-3)17(19)12-7-5-11(2)6-8-12/h5-10,18H,4H2,1-3H3
InChIKey=BWRBBUNROCWHDA-UHFFFAOYSA-N

> <PUBCHEM_SUBSTANCE_SYNONYM>
SCHEMBL16127368

> <PUBCHEM_XREF_EXT_ID>
SCHEMBL16127368

> <PUBCHEM_EXT_DATASOURCE_URL>
https://www.surechembl.org/

> <PUBCHEM_EXT_SUBSTANCE_URL>
https://www.surechembl.org/chemical/SCHEMBL16127368

> <PUBCHEM_CID_ASSOCIATIONS>
117614670  1

> <PUBCHEM_COORDINATE_TYPE>
1
3

$$$$
