310941440
  -OEChem-07211613022D

 38 43  0     1  0  0  0  0  0999 V2000
   -0.1312    1.6304    0.0000 O   0  0  0  0  0  0  0  0  0  0  0  0
   -2.9048    3.4420    0.0000 O   0  0  0  0  0  0  0  0  0  0  0  0
   -1.7429    4.1166    0.0000 O   0  0  0  0  0  0  0  0  0  0  0  0
    0.6184    0.3811    0.0000 N   0  0  0  0  0  0  0  0  0  0  0  0
   -0.1062   -0.8683    0.0000 N   0  0  0  0  0  0  0  0  0  0  0  0
    1.4680   -1.6929    0.0000 N   0  0  0  0  0  0  0  0  0  0  0  0
    2.0552   -2.9422    0.0000 N   0  0  0  0  0  0  0  0  0  0  0  0
    1.3431   -4.1916    0.0000 N   0  0  0  0  0  0  0  0  0  0  0  0
    2.9048   -4.2041    0.0000 N   0  0  0  0  0  0  0  0  0  0  0  0
   -0.8184   -2.1426    0.0000 N   0  0  0  0  0  0  0  0  0  0  0  0
   -0.8308    0.3935    0.0000 C   0  0  0  0  0  0  0  0  0  0  0  0
   -0.1187    0.7934    0.0000 C   0  0  0  0  0  0  0  0  0  0  0  0
   -0.8433   -0.4435    0.0000 C   0  0  0  0  0  0  0  0  0  0  0  0
    0.5934   -0.4435    0.0000 C   0  0  0  0  0  0  0  0  0  0  0  0
   -1.5554    0.7934    0.0000 C   0  0  0  0  0  0  0  0  0  0  0  0
   -1.5554    1.6429    0.0000 C   0  0  0  0  0  0  0  0  0  0  0  0
    1.3181    0.8058    0.0000 C   0  0  0  0  0  0  0  0  0  0  0  0
    1.3431   -0.8558    0.0000 C   0  0  3  0  0  0  0  0  0  0  0  0
   -1.5430   -0.8558    0.0000 C   0  0  0  0  0  0  0  0  0  0  0  0
   -2.2676    0.3811    0.0000 C   0  0  0  0  0  0  0  0  0  0  0  0
   -2.2676    2.0552    0.0000 C   0  0  0  0  0  0  0  0  0  0  0  0
   -2.2676    2.8922    0.0000 C   0  0  0  0  0  0  0  0  0  0  0  0
   -2.2676   -0.4435    0.0000 C   0  0  0  0  0  0  0  0  0  0  0  0
   -0.8308    2.0552    0.0000 C   0  0  0  0  0  0  0  0  0  0  0  0
   -1.5554    3.3045    0.0000 C   0  0  0  0  0  0  0  0  0  0  0  0
    2.0552    0.3935    0.0000 C   0  0  0  0  0  0  0  0  0  0  0  0
    1.3431    1.6304    0.0000 C   0  0  0  0  0  0  0  0  0  0  0  0
    1.3305   -2.5300    0.0000 C   0  0  0  0  0  0  0  0  0  0  0  0
   -0.8308    2.8798    0.0000 C   0  0  0  0  0  0  0  0  0  0  0  0
    2.0302   -0.4560    0.0000 C   0  0  0  0  0  0  0  0  0  0  0  0
    0.6059   -2.9422    0.0000 C   0  0  0  0  0  0  0  0  0  0  0  0
    2.7673    0.8058    0.0000 C   0  0  0  0  0  0  0  0  0  0  0  0
    2.0552    2.0427    0.0000 C   0  0  0  0  0  0  0  0  0  0  0  0
   -2.5550    4.2041    0.0000 C   0  0  0  0  0  0  0  0  0  0  0  0
    2.7673    1.6304    0.0000 C   0  0  0  0  0  0  0  0  0  0  0  0
    2.0427   -3.7793    0.0000 C   0  0  0  0  0  0  0  0  0  0  0  0
    0.6059   -3.7793    0.0000 C   0  0  0  0  0  0  0  0  0  0  0  0
   -0.1062   -2.5300    0.0000 C   0  0  0  0  0  0  0  0  0  0  0  0
  1 12  2  0  0  0  0
  2 22  1  0  0  0  0
  2 34  1  0  0  0  0
  3 25  1  0  0  0  0
  3 34  1  0  0  0  0
  4 12  1  0  0  0  0
  4 14  1  0  0  0  0
  4 17  1  0  0  0  0
  5 13  1  0  0  0  0
  5 14  2  0  0  0  0
  6 18  1  0  0  0  0
  6 28  1  0  0  0  0
  7 28  1  0  0  0  0
  7 36  2  0  0  0  0
  8 36  1  0  0  0  0
  8 37  2  0  0  0  0
  9 36  1  0  0  0  0
 10 38  3  0  0  0  0
 11 12  1  0  0  0  0
 11 13  1  0  0  0  0
 11 15  2  0  0  0  0
 13 19  2  0  0  0  0
 14 18  1  0  0  0  0
 15 16  1  0  0  0  0
 15 20  1  0  0  0  0
 16 21  1  0  0  0  0
 16 24  2  0  0  0  0
 17 26  2  0  0  0  0
 17 27  1  0  0  0  0
 18 30  1  6  0  0  0
 19 23  1  0  0  0  0
 20 23  2  0  0  0  0
 21 22  2  0  0  0  0
 22 25  1  0  0  0  0
 24 29  1  0  0  0  0
 25 29  2  0  0  0  0
 26 32  1  0  0  0  0
 27 33  2  0  0  0  0
 28 31  2  0  0  0  0
 31 37  1  0  0  0  0
 31 38  1  0  0  0  0
 32 35  2  0  0  0  0
 33 35  1  0  0  0  0
M  END
> <PUBCHEM_COMPOUND_ID_TYPE>
0

> <PUBCHEM_TOTAL_CHARGE>
0

> <PUBCHEM_SUBSTANCE_ID>
310941440

> <PUBCHEM_SUBSTANCE_VERSION>
1

> <PUBCHEM_EXT_DATASOURCE_NAME>
4488

> <PUBCHEM_EXT_DATASOURCE_REGID>
SCHEMBL16119400

> <PUBCHEM_SUBSTANCE_COMMENT>
InChI=1S/C28H21N7O3/c1-16(32-25-18(13-29)14-31-28(30)34-25)26-33-21-9-5-8-20(17-10-11-22-23(12-17)38-15-37-22)24(21)27(36)35(26)19-6-3-2-4-7-19/h2-12,14,16H,15H2,1H3,(H3,30,31,32,34)/t16-/m0/s1
InChIKey=KXNXGFXUWDUMRL-INIZCTEOSA-N

> <PUBCHEM_SUBSTANCE_SYNONYM>
SCHEMBL16119400

> <PUBCHEM_XREF_EXT_ID>
SCHEMBL16119400

> <PUBCHEM_EXT_DATASOURCE_URL>
https://www.surechembl.org/

> <PUBCHEM_EXT_SUBSTANCE_URL>
https://www.surechembl.org/chemical/SCHEMBL16119400

> <PUBCHEM_CID_ASSOCIATIONS>
117608265  1

> <PUBCHEM_COORDINATE_TYPE>
1
3

> <PUBCHEM_BONDANNOTATIONS>
18  30  6

$$$$
