310946382
  -OEChem-07211613022D

 31 33  0     0  0  0  0  0  0999 V2000
    0.7144   -0.8250    0.0000 I   0  0  0  0  0  0  0  0  0  0  0  0
    2.1433    1.6499    0.0000 I   0  0  0  0  0  0  0  0  0  0  0  0
    0.7144    0.8250    0.0000 O   0  0  0  0  0  0  0  0  0  0  0  0
   -2.1433   -0.8250    0.0000 O   0  0  0  0  0  0  0  0  0  0  0  0
   -2.1433    1.6499    0.0000 O   0  0  0  0  0  0  0  0  0  0  0  0
    5.0010   -1.6499    0.0000 O   0  0  0  0  0  0  0  0  0  0  0  0
    5.7154   -0.4124    0.0000 O   0  0  0  0  0  0  0  0  0  0  0  0
   -2.8578    0.4124    0.0000 N   0  0  0  0  0  0  0  0  0  0  0  0
    1.4289    0.4124    0.0000 C   0  0  0  0  0  0  0  0  0  0  0  0
    0.0000    0.4124    0.0000 C   0  0  0  0  0  0  0  0  0  0  0  0
    1.4289   -0.4124    0.0000 C   0  0  0  0  0  0  0  0  0  0  0  0
    2.1433    0.8250    0.0000 C   0  0  0  0  0  0  0  0  0  0  0  0
   -1.4289    0.4124    0.0000 C   0  0  0  0  0  0  0  0  0  0  0  0
   -0.7144    0.8250    0.0000 C   0  0  0  0  0  0  0  0  0  0  0  0
    2.8578   -0.4124    0.0000 C   0  0  0  0  0  0  0  0  0  0  0  0
   -1.4289   -0.4124    0.0000 C   0  0  0  0  0  0  0  0  0  0  0  0
    2.1433   -0.8250    0.0000 C   0  0  0  0  0  0  0  0  0  0  0  0
    2.8578    0.4124    0.0000 C   0  0  0  0  0  0  0  0  0  0  0  0
   -2.1433    0.8250    0.0000 C   0  0  0  0  0  0  0  0  0  0  0  0
    0.0000   -0.4124    0.0000 C   0  0  0  0  0  0  0  0  0  0  0  0
   -0.7144   -0.8250    0.0000 C   0  0  0  0  0  0  0  0  0  0  0  0
    3.5721   -0.8250    0.0000 C   0  0  0  0  0  0  0  0  0  0  0  0
   -3.5721    0.8250    0.0000 C   0  0  0  0  0  0  0  0  0  0  0  0
    4.2865   -0.4124    0.0000 C   0  0  0  0  0  0  0  0  0  0  0  0
   -4.2865    0.4124    0.0000 C   0  0  0  0  0  0  0  0  0  0  0  0
    5.0010   -0.8250    0.0000 C   0  0  0  0  0  0  0  0  0  0  0  0
   -5.0010    0.8250    0.0000 C   0  0  0  0  0  0  0  0  0  0  0  0
   -4.2865   -0.4124    0.0000 C   0  0  0  0  0  0  0  0  0  0  0  0
   -5.7154    0.4124    0.0000 C   0  0  0  0  0  0  0  0  0  0  0  0
   -5.0010   -0.8250    0.0000 C   0  0  0  0  0  0  0  0  0  0  0  0
   -5.7154   -0.4124    0.0000 C   0  0  0  0  0  0  0  0  0  0  0  0
  1 11  1  0  0  0  0
  2 12  1  0  0  0  0
  3  9  1  0  0  0  0
  3 10  1  0  0  0  0
  4 16  1  0  0  0  0
  5 19  2  0  0  0  0
  6 26  2  0  0  0  0
  7 26  1  0  0  0  0
  8 19  1  0  0  0  0
  8 23  1  0  0  0  0
  9 11  2  0  0  0  0
  9 12  1  0  0  0  0
 10 14  2  0  0  0  0
 10 20  1  0  0  0  0
 11 17  1  0  0  0  0
 12 18  2  0  0  0  0
 13 14  1  0  0  0  0
 13 16  2  0  0  0  0
 13 19  1  0  0  0  0
 15 17  2  0  0  0  0
 15 18  1  0  0  0  0
 15 22  1  0  0  0  0
 16 21  1  0  0  0  0
 20 21  2  0  0  0  0
 22 24  1  0  0  0  0
 23 25  1  0  0  0  0
 24 26  1  0  0  0  0
 25 27  2  0  0  0  0
 25 28  1  0  0  0  0
 27 29  1  0  0  0  0
 28 30  2  0  0  0  0
 29 31  2  0  0  0  0
 30 31  1  0  0  0  0
M  END
> <PUBCHEM_COMPOUND_ID_TYPE>
0

> <PUBCHEM_TOTAL_CHARGE>
0

> <PUBCHEM_SUBSTANCE_ID>
310946382

> <PUBCHEM_SUBSTANCE_VERSION>
1

> <PUBCHEM_EXT_DATASOURCE_NAME>
4488

> <PUBCHEM_EXT_DATASOURCE_REGID>
SCHEMBL16124501

> <PUBCHEM_SUBSTANCE_COMMENT>
InChI=1S/C23H19I2NO5/c24-18-10-15(6-9-21(28)29)11-19(25)22(18)31-16-7-8-20(27)17(12-16)23(30)26-13-14-4-2-1-3-5-14/h1-5,7-8,10-12,27H,6,9,13H2,(H,26,30)(H,28,29)
InChIKey=KWLGDIGECHDEKN-UHFFFAOYSA-N

> <PUBCHEM_SUBSTANCE_SYNONYM>
SCHEMBL16124501

> <PUBCHEM_XREF_EXT_ID>
SCHEMBL16124501

> <PUBCHEM_EXT_DATASOURCE_URL>
https://www.surechembl.org/

> <PUBCHEM_EXT_SUBSTANCE_URL>
https://www.surechembl.org/chemical/SCHEMBL16124501

> <PUBCHEM_CID_ASSOCIATIONS>
117612304  1

> <PUBCHEM_COORDINATE_TYPE>
1
3

$$$$
