310930623
  -OEChem-07211613022D

 28 31  0     0  0  0  0  0  0999 V2000
    0.0000   -4.5431    0.0000 O   0  0  0  0  0  0  0  0  0  0  0  0
    2.7324   -6.5513    0.0000 O   0  5  0  0  0  0  0  0  0  0  0  0
    1.3169   -6.5842    0.0000 O   0  0  0  0  0  0  0  0  0  0  0  0
    5.5307   -1.6460    0.0000 O   0  0  0  0  0  0  0  0  0  0  0  0
    4.8394   -0.4280    0.0000 O   0  0  0  0  0  0  0  0  0  0  0  0
    0.4938   -3.8518    0.0000 N   0  0  0  0  0  0  0  0  0  0  0  0
    0.4938   -5.2015    0.0000 N   0  0  0  0  0  0  0  0  0  0  0  0
    1.9752   -2.8970    0.0000 N   0  0  0  0  0  0  0  0  0  0  0  0
    2.0082   -6.1563    0.0000 N   0  3  0  0  0  0  0  0  0  0  0  0
    1.2510   -4.0822    0.0000 C   0  0  0  0  0  0  0  0  0  0  0  0
    1.2839   -4.9381    0.0000 C   0  0  0  0  0  0  0  0  0  0  0  0
    1.9752   -3.6872    0.0000 C   0  0  0  0  0  0  0  0  0  0  0  0
    1.9752   -5.3332    0.0000 C   0  0  0  0  0  0  0  0  0  0  0  0
    2.6666   -4.0822    0.0000 C   0  0  0  0  0  0  0  0  0  0  0  0
    2.6666   -4.9381    0.0000 C   0  0  0  0  0  0  0  0  0  0  0  0
    2.6995   -2.4691    0.0000 C   0  0  0  0  0  0  0  0  0  0  0  0
    4.1152   -1.6460    0.0000 C   0  0  0  0  0  0  0  0  0  0  0  0
    2.6995   -1.6460    0.0000 C   0  0  0  0  0  0  0  0  0  0  0  0
    3.4238   -2.8970    0.0000 C   0  0  0  0  0  0  0  0  0  0  0  0
    3.4238   -1.2510    0.0000 C   0  0  0  0  0  0  0  0  0  0  0  0
    4.1152   -2.4691    0.0000 C   0  0  0  0  0  0  0  0  0  0  0  0
    4.8394   -1.2510    0.0000 C   0  0  0  0  0  0  0  0  0  0  0  0
    6.2550   -1.2510    0.0000 C   0  0  0  0  0  0  0  0  0  0  0  0
    6.2550   -0.3951    0.0000 C   0  0  0  0  0  0  0  0  0  0  0  0
    6.9793   -1.6460    0.0000 C   0  0  0  0  0  0  0  0  0  0  0  0
    6.9793    0.0000    0.0000 C   0  0  0  0  0  0  0  0  0  0  0  0
    7.6706   -1.2510    0.0000 C   0  0  0  0  0  0  0  0  0  0  0  0
    7.7035   -0.4280    0.0000 C   0  0  0  0  0  0  0  0  0  0  0  0
  1  6  1  0  0  0  0
  1  7  1  0  0  0  0
  2  9  1  0  0  0  0
  3  9  2  0  0  0  0
  4 22  1  0  0  0  0
  4 23  1  0  0  0  0
  5 22  2  0  0  0  0
  6 10  2  0  0  0  0
  7 11  2  0  0  0  0
  8 12  1  0  0  0  0
  8 16  1  0  0  0  0
  9 13  1  0  0  0  0
 10 11  1  0  0  0  0
 10 12  1  0  0  0  0
 11 13  1  0  0  0  0
 12 14  2  0  0  0  0
 13 15  2  0  0  0  0
 14 15  1  0  0  0  0
 16 18  2  0  0  0  0
 16 19  1  0  0  0  0
 17 20  2  0  0  0  0
 17 21  1  0  0  0  0
 17 22  1  0  0  0  0
 18 20  1  0  0  0  0
 19 21  2  0  0  0  0
 23 24  2  0  0  0  0
 23 25  1  0  0  0  0
 24 26  1  0  0  0  0
 25 27  2  0  0  0  0
 26 28  2  0  0  0  0
 27 28  1  0  0  0  0
M  CHG  2   2  -1   9   1
M  END
> <PUBCHEM_COMPOUND_ID_TYPE>
0

> <PUBCHEM_TOTAL_CHARGE>
0

> <PUBCHEM_SUBSTANCE_ID>
310930623

> <PUBCHEM_SUBSTANCE_VERSION>
1

> <PUBCHEM_EXT_DATASOURCE_NAME>
4488

> <PUBCHEM_EXT_DATASOURCE_REGID>
SCHEMBL16107920

> <PUBCHEM_SUBSTANCE_COMMENT>
InChI=1S/C19H12N4O5/c24-19(27-14-4-2-1-3-5-14)12-6-8-13(9-7-12)20-15-10-11-16(23(25)26)18-17(15)21-28-22-18/h1-11,20H
InChIKey=AFTQQNDZXLKERA-UHFFFAOYSA-N

> <PUBCHEM_SUBSTANCE_SYNONYM>
SCHEMBL16107920

> <PUBCHEM_XREF_EXT_ID>
SCHEMBL16107920

> <PUBCHEM_EXT_DATASOURCE_URL>
https://www.surechembl.org/

> <PUBCHEM_EXT_SUBSTANCE_URL>
https://www.surechembl.org/chemical/SCHEMBL16107920

> <PUBCHEM_CID_ASSOCIATIONS>
71521277  1

> <PUBCHEM_COORDINATE_TYPE>
1
3

$$$$
