310938391
  -OEChem-07211613022D

 31 33  0     1  0  0  0  0  0999 V2000
    0.4875    2.0652    0.0000 O   0  0  0  0  0  0  0  0  0  0  0  0
    3.1634    3.3643    0.0000 O   0  0  0  0  0  0  0  0  0  0  0  0
    5.1057    2.3394    0.0000 O   0  0  0  0  0  0  0  0  0  0  0  0
    2.5071   -0.7144    0.0000 O   0  0  0  0  0  0  0  0  0  0  0  0
    2.5071    0.7144    0.0000 O   0  0  0  0  0  0  0  0  0  0  0  0
    4.7359    3.7197    0.0000 O   0  0  0  0  0  0  0  0  0  0  0  0
    0.7846    0.6674    0.0000 N   0  0  0  0  0  0  0  0  0  0  0  0
    3.7154    2.7513    0.0000 N   0  0  0  0  0  0  0  0  0  0  0  0
    2.1015    2.4082    0.0000 N   0  0  0  0  0  0  0  0  0  0  0  0
    0.0000    0.4125    0.0000 C   0  0  0  0  0  0  0  0  0  0  0  0
    1.2696    0.0000    0.0000 C   0  0  3  0  0  0  0  0  0  0  0  0
    0.0000   -0.4125    0.0000 C   0  0  0  0  0  0  0  0  0  0  0  0
    3.4605    1.9666    0.0000 C   0  0  0  0  0  0  0  0  0  0  0  0
    1.0396    1.4521    0.0000 C   0  0  0  0  0  0  0  0  0  0  0  0
    0.7846   -0.6674    0.0000 C   0  0  0  0  0  0  0  0  0  0  0  0
    2.9084    2.5797    0.0000 C   0  0  0  0  0  0  0  0  0  0  0  0
    2.0946    0.0000    0.0000 C   0  0  0  0  0  0  0  0  0  0  0  0
   -0.7144    0.8250    0.0000 C   0  0  0  0  0  0  0  0  0  0  0  0
    2.9084    1.3535    0.0000 C   0  0  0  0  0  0  0  0  0  0  0  0
    4.2142    1.6311    0.0000 C   0  0  0  0  0  0  0  0  0  0  0  0
   -0.7144   -0.8250    0.0000 C   0  0  0  0  0  0  0  0  0  0  0  0
    1.8465    1.6236    0.0000 C   0  0  0  0  0  0  0  0  0  0  0  0
    4.5224    2.9228    0.0000 C   0  0  0  0  0  0  0  0  0  0  0  0
   -1.4290    0.4125    0.0000 C   0  0  0  0  0  0  0  0  0  0  0  0
    3.3209    0.6391    0.0000 C   0  0  0  0  0  0  0  0  0  0  0  0
    4.1279    0.8106    0.0000 C   0  0  0  0  0  0  0  0  0  0  0  0
   -1.4290   -0.4125    0.0000 C   0  0  0  0  0  0  0  0  0  0  0  0
    5.9026    2.5530    0.0000 C   0  0  0  0  0  0  0  0  0  0  0  0
    6.4860    1.9696    0.0000 C   0  0  0  0  0  0  0  0  0  0  0  0
    6.1161    3.3499    0.0000 C   0  0  0  0  0  0  0  0  0  0  0  0
    6.6995    2.7665    0.0000 C   0  0  0  0  0  0  0  0  0  0  0  0
  1 14  2  0  0  0  0
  2 16  2  0  0  0  0
  3 23  1  0  0  0  0
  3 28  1  0  0  0  0
  4 17  2  0  0  0  0
  5 17  1  0  0  0  0
  6 23  2  0  0  0  0
  7 10  1  0  0  0  0
  7 11  1  0  0  0  0
  7 14  1  0  0  0  0
  8 13  1  0  0  0  0
  8 23  1  0  0  0  0
  9 16  1  0  0  0  0
  9 22  1  0  0  0  0
 10 12  2  0  0  0  0
 10 18  1  0  0  0  0
 11 15  1  0  0  0  0
 11 17  1  6  0  0  0
 12 15  1  0  0  0  0
 12 21  1  0  0  0  0
 13 16  1  0  0  0  0
 13 19  1  0  0  0  0
 13 20  1  0  0  0  0
 14 22  1  0  0  0  0
 18 24  2  0  0  0  0
 19 25  1  0  0  0  0
 20 26  1  0  0  0  0
 21 27  2  0  0  0  0
 24 27  1  0  0  0  0
 25 26  1  0  0  0  0
 28 29  1  0  0  0  0
 28 30  1  0  0  0  0
 28 31  1  0  0  0  0
M  END
> <PUBCHEM_COMPOUND_ID_TYPE>
0

> <PUBCHEM_TOTAL_CHARGE>
0

> <PUBCHEM_SUBSTANCE_ID>
310938391

> <PUBCHEM_SUBSTANCE_VERSION>
1

> <PUBCHEM_EXT_DATASOURCE_NAME>
4488

> <PUBCHEM_EXT_DATASOURCE_REGID>
SCHEMBL16116280

> <PUBCHEM_SUBSTANCE_COMMENT>
InChI=1S/C22H29N3O6/c1-21(2,3)31-20(30)24-22(10-6-7-11-22)19(29)23-13-17(26)25-15-9-5-4-8-14(15)12-16(25)18(27)28/h4-5,8-9,16H,6-7,10-13H2,1-3H3,(H,23,29)(H,24,30)(H,27,28)/t16-/m0/s1
InChIKey=ZTBKLJAWLAJNFJ-INIZCTEOSA-N

> <PUBCHEM_SUBSTANCE_SYNONYM>
SCHEMBL16116280

> <PUBCHEM_XREF_EXT_ID>
SCHEMBL16116280

> <PUBCHEM_EXT_DATASOURCE_URL>
https://www.surechembl.org/

> <PUBCHEM_EXT_SUBSTANCE_URL>
https://www.surechembl.org/chemical/SCHEMBL16116280

> <PUBCHEM_CID_ASSOCIATIONS>
117605869  1

> <PUBCHEM_COORDINATE_TYPE>
1
3

> <PUBCHEM_BONDANNOTATIONS>
11  17  6

$$$$
