310949683
  -OEChem-07211613022D

 10 10  0     0  0  0  0  0  0999 V2000
   -0.1301    0.1715    0.0000 N   0  0  0  0  0  0  0  0  0  0  0  0
    1.1944    0.7627    0.0000 N   0  0  0  0  0  0  0  0  0  0  0  0
   -1.1116   -0.7390    0.0000 N   0  0  0  0  0  0  0  0  0  0  0  0
    0.2365   -0.5617    0.0000 C   0  0  0  0  0  0  0  0  0  0  0  0
   -0.9697    0.0650    0.0000 C   0  0  0  0  0  0  0  0  0  0  0  0
    0.3547    0.8455    0.0000 C   0  0  0  0  0  0  0  0  0  0  0  0
    1.0643   -0.6563    0.0000 C   0  0  0  0  0  0  0  0  0  0  0  0
    1.5372    0.0296    0.0000 C   0  0  0  0  0  0  0  0  0  0  0  0
   -0.1538   -0.8455    0.0000 C   0  0  0  0  0  0  0  0  0  0  0  0
   -1.5372    0.4198    0.0000 C   0  0  0  0  0  0  0  0  0  0  0  0
  1  4  1  0  0  0  0
  1  5  1  0  0  0  0
  1  6  1  0  0  0  0
  2  6  1  0  0  0  0
  2  8  1  0  0  0  0
  3  5  2  3  0  0  0
  4  7  1  0  0  0  0
  4  9  2  0  0  0  0
  5 10  1  0  0  0  0
  7  8  1  0  0  0  0
M  END
> <PUBCHEM_COMPOUND_ID_TYPE>
0

> <PUBCHEM_TOTAL_CHARGE>
0

> <PUBCHEM_SUBSTANCE_ID>
310949683

> <PUBCHEM_SUBSTANCE_VERSION>
1

> <PUBCHEM_EXT_DATASOURCE_NAME>
4488

> <PUBCHEM_EXT_DATASOURCE_REGID>
SCHEMBL16127881

> <PUBCHEM_SUBSTANCE_COMMENT>
InChI=1S/C7H13N3/c1-6-3-4-9-5-10(6)7(2)8/h8-9H,1,3-5H2,2H3
InChIKey=FXLSTEURSUJQDP-UHFFFAOYSA-N

> <PUBCHEM_SUBSTANCE_SYNONYM>
SCHEMBL16127881

> <PUBCHEM_XREF_EXT_ID>
SCHEMBL16127881

> <PUBCHEM_EXT_DATASOURCE_URL>
https://www.surechembl.org/

> <PUBCHEM_EXT_SUBSTANCE_URL>
https://www.surechembl.org/chemical/SCHEMBL16127881

> <PUBCHEM_CID_ASSOCIATIONS>
117615048  1

> <PUBCHEM_COORDINATE_TYPE>
1
3

$$$$
