310949641
  -OEChem-07211613022D

 25 26  0     0  0  0  0  0  0999 V2000
   -1.7618   -0.2100    0.0000 S   0  0  0  0  0  0  0  0  0  0  0  0
   -2.5614    0.0068    0.0000 O   0  0  0  0  0  0  0  0  0  0  0  0
   -0.9487   -0.4269    0.0000 O   0  0  0  0  0  0  0  0  0  0  0  0
   -0.8945    2.9883    0.0000 O   0  0  0  0  0  0  0  0  0  0  0  0
   -1.5992   -2.3920    0.0000 O   0  0  0  0  0  0  0  0  0  0  0  0
   -1.5450    0.5895    0.0000 N   0  0  0  0  0  0  0  0  0  0  0  0
   -0.5149    1.6059    0.0000 N   0  0  0  0  0  0  0  0  0  0  0  0
    3.5101    2.6766    0.0000 N   0  0  0  0  0  0  0  0  0  0  0  0
   -1.9244    1.9854    0.0000 C   0  0  0  0  0  0  0  0  0  0  0  0
   -2.1412    1.1723    0.0000 C   0  0  0  0  0  0  0  0  0  0  0  0
   -1.1249    2.1751    0.0000 C   0  0  0  0  0  0  0  0  0  0  0  0
   -2.5072    2.5546    0.0000 C   0  0  0  0  0  0  0  0  0  0  0  0
   -2.9409    0.9690    0.0000 C   0  0  0  0  0  0  0  0  0  0  0  0
    0.2710    1.8228    0.0000 C   0  0  0  0  0  0  0  0  0  0  0  0
   -1.9651   -1.0097    0.0000 C   0  0  0  0  0  0  0  0  0  0  0  0
   -3.3068    2.3378    0.0000 C   0  0  0  0  0  0  0  0  0  0  0  0
   -3.5101    1.5382    0.0000 C   0  0  0  0  0  0  0  0  0  0  0  0
    0.5149    2.6089    0.0000 C   0  0  0  0  0  0  0  0  0  0  0  0
    0.8674    1.2401    0.0000 C   0  0  0  0  0  0  0  0  0  0  0  0
    1.8838    2.2565    0.0000 C   0  0  0  0  0  0  0  0  0  0  0  0
    1.3146    2.8257    0.0000 C   0  0  0  0  0  0  0  0  0  0  0  0
    1.6805    1.4569    0.0000 C   0  0  0  0  0  0  0  0  0  0  0  0
   -1.3823   -1.5924    0.0000 C   0  0  0  0  0  0  0  0  0  0  0  0
    2.6834    2.4598    0.0000 C   0  0  0  0  0  0  0  0  0  0  0  0
   -0.9894   -2.9883    0.0000 C   0  0  0  0  0  0  0  0  0  0  0  0
  1  2  2  0  0  0  0
  1  3  2  0  0  0  0
  1  6  1  0  0  0  0
  1 15  1  0  0  0  0
  4 11  2  0  0  0  0
  5 23  1  0  0  0  0
  5 25  1  0  0  0  0
  6 10  1  0  0  0  0
  7 11  1  0  0  0  0
  7 14  1  0  0  0  0
  8 24  3  0  0  0  0
  9 10  1  0  0  0  0
  9 11  1  0  0  0  0
  9 12  2  0  0  0  0
 10 13  2  0  0  0  0
 12 16  1  0  0  0  0
 13 17  1  0  0  0  0
 14 18  2  0  0  0  0
 14 19  1  0  0  0  0
 15 23  1  0  0  0  0
 16 17  2  0  0  0  0
 18 21  1  0  0  0  0
 19 22  2  0  0  0  0
 20 21  2  0  0  0  0
 20 22  1  0  0  0  0
 20 24  1  0  0  0  0
M  END
> <PUBCHEM_COMPOUND_ID_TYPE>
0

> <PUBCHEM_TOTAL_CHARGE>
0

> <PUBCHEM_SUBSTANCE_ID>
310949641

> <PUBCHEM_SUBSTANCE_VERSION>
1

> <PUBCHEM_EXT_DATASOURCE_NAME>
4488

> <PUBCHEM_EXT_DATASOURCE_REGID>
SCHEMBL16127839

> <PUBCHEM_SUBSTANCE_COMMENT>
InChI=1S/C17H17N3O4S/c1-24-10-11-25(22,23)20-16-5-3-2-4-15(16)17(21)19-14-8-6-13(12-18)7-9-14/h2-9,20H,10-11H2,1H3,(H,19,21)
InChIKey=DPVPGTLEIXZOJT-UHFFFAOYSA-N

> <PUBCHEM_SUBSTANCE_SYNONYM>
SCHEMBL16127839

> <PUBCHEM_XREF_EXT_ID>
SCHEMBL16127839

> <PUBCHEM_EXT_DATASOURCE_URL>
https://www.surechembl.org/

> <PUBCHEM_EXT_SUBSTANCE_URL>
https://www.surechembl.org/chemical/SCHEMBL16127839

> <PUBCHEM_CID_ASSOCIATIONS>
117615022  1

> <PUBCHEM_COORDINATE_TYPE>
1
3

$$$$
