310946319
  -OEChem-07211613022D

 28 30  0     0  0  0  0  0  0999 V2000
   -1.4256   -2.7296    0.0000 I   0  0  0  0  0  0  0  0  0  0  0  0
    0.0034   -0.2546    0.0000 I   0  0  0  0  0  0  0  0  0  0  0  0
   -4.2835   -1.0796    0.0000 I   0  0  0  0  0  0  0  0  0  0  0  0
   -1.4256   -1.0796    0.0000 O   0  0  0  0  0  0  0  0  0  0  0  0
   -4.2834   -2.7296    0.0000 O   0  0  0  0  0  0  0  0  0  0  0  0
    2.1468   -1.4921    0.0000 O   0  0  0  0  0  0  0  0  0  0  0  0
    2.8613   -2.7296    0.0000 N   0  0  0  0  0  0  0  0  0  0  0  0
   -0.7111   -1.4921    0.0000 C   0  0  0  0  0  0  0  0  0  0  0  0
   -0.7111   -2.3171    0.0000 C   0  0  0  0  0  0  0  0  0  0  0  0
    0.0034   -1.0796    0.0000 C   0  0  0  0  0  0  0  0  0  0  0  0
    0.7178   -2.3171    0.0000 C   0  0  0  0  0  0  0  0  0  0  0  0
   -2.1400   -1.4921    0.0000 C   0  0  0  0  0  0  0  0  0  0  0  0
    0.0034   -2.7296    0.0000 C   0  0  0  0  0  0  0  0  0  0  0  0
    0.7178   -1.4921    0.0000 C   0  0  0  0  0  0  0  0  0  0  0  0
   -2.8545   -1.0796    0.0000 C   0  0  0  0  0  0  0  0  0  0  0  0
   -3.5690   -1.4921    0.0000 C   0  0  0  0  0  0  0  0  0  0  0  0
    1.4323   -2.7296    0.0000 C   0  0  0  0  0  0  0  0  0  0  0  0
   -2.1400   -2.3171    0.0000 C   0  0  0  0  0  0  0  0  0  0  0  0
   -3.5690   -2.3171    0.0000 C   0  0  0  0  0  0  0  0  0  0  0  0
   -2.8545   -2.7296    0.0000 C   0  0  0  0  0  0  0  0  0  0  0  0
    2.1468   -2.3171    0.0000 C   0  0  0  0  0  0  0  0  0  0  0  0
    3.5757   -2.3171    0.0000 C   0  0  0  0  0  0  0  0  0  0  0  0
    3.5757   -1.4921    0.0000 C   0  0  0  0  0  0  0  0  0  0  0  0
    4.2902   -1.0796    0.0000 C   0  0  0  0  0  0  0  0  0  0  0  0
    2.8613   -1.0796    0.0000 C   0  0  0  0  0  0  0  0  0  0  0  0
    4.2902   -0.2546    0.0000 C   0  0  0  0  0  0  0  0  0  0  0  0
    2.8613   -0.2546    0.0000 C   0  0  0  0  0  0  0  0  0  0  0  0
    3.5757    0.1579    0.0000 C   0  0  0  0  0  0  0  0  0  0  0  0
  1  9  1  0  0  0  0
  2 10  1  0  0  0  0
  3 16  1  0  0  0  0
  4  8  1  0  0  0  0
  4 12  1  0  0  0  0
  5 19  1  0  0  0  0
  6 21  2  0  0  0  0
  7 21  1  0  0  0  0
  7 22  1  0  0  0  0
  8  9  2  0  0  0  0
  8 10  1  0  0  0  0
  9 13  1  0  0  0  0
 10 14  2  0  0  0  0
 11 13  2  0  0  0  0
 11 14  1  0  0  0  0
 11 17  1  0  0  0  0
 12 15  2  0  0  0  0
 12 18  1  0  0  0  0
 15 16  1  0  0  0  0
 16 19  2  0  0  0  0
 17 21  1  0  0  0  0
 18 20  2  0  0  0  0
 19 20  1  0  0  0  0
 22 23  1  0  0  0  0
 23 24  2  0  0  0  0
 23 25  1  0  0  0  0
 24 26  1  0  0  0  0
 25 27  2  0  0  0  0
 26 28  2  0  0  0  0
 27 28  1  0  0  0  0
M  END
> <PUBCHEM_COMPOUND_ID_TYPE>
0

> <PUBCHEM_TOTAL_CHARGE>
0

> <PUBCHEM_SUBSTANCE_ID>
310946319

> <PUBCHEM_SUBSTANCE_VERSION>
1

> <PUBCHEM_EXT_DATASOURCE_NAME>
4488

> <PUBCHEM_EXT_DATASOURCE_REGID>
SCHEMBL16124438

> <PUBCHEM_SUBSTANCE_COMMENT>
InChI=1S/C21H16I3NO3/c22-16-11-15(6-7-19(16)26)28-21-17(23)8-14(9-18(21)24)10-20(27)25-12-13-4-2-1-3-5-13/h1-9,11,26H,10,12H2,(H,25,27)
InChIKey=QCKBXKILCPXZNZ-UHFFFAOYSA-N

> <PUBCHEM_SUBSTANCE_SYNONYM>
SCHEMBL16124438

> <PUBCHEM_XREF_EXT_ID>
SCHEMBL16124438

> <PUBCHEM_EXT_DATASOURCE_URL>
https://www.surechembl.org/

> <PUBCHEM_EXT_SUBSTANCE_URL>
https://www.surechembl.org/chemical/SCHEMBL16124438

> <PUBCHEM_CID_ASSOCIATIONS>
117612253  1

> <PUBCHEM_COORDINATE_TYPE>
1
3

$$$$
