310930835
  -OEChem-07211613022D

 26 31  0     0  0  0  0  0  0999 V2000
    6.3880   -2.7815    0.0000 O   0  0  0  0  0  0  0  0  0  0  0  0
    2.8522   -2.4515    0.0000 C   0  0  0  0  0  0  0  0  0  0  0  0
    2.8522   -1.5793    0.0000 C   0  0  0  0  0  0  0  0  0  0  0  0
    3.5122   -2.8286    0.0000 C   0  0  0  0  0  0  0  0  0  0  0  0
    3.5122   -1.2022    0.0000 C   0  0  0  0  0  0  0  0  0  0  0  0
    2.0979   -2.8286    0.0000 C   0  0  0  0  0  0  0  0  0  0  0  0
    2.0979   -1.2022    0.0000 C   0  0  0  0  0  0  0  0  0  0  0  0
    4.2430   -2.3808    0.0000 C   0  0  0  0  0  0  0  0  0  0  0  0
    4.2430   -1.5793    0.0000 C   0  0  0  0  0  0  0  0  0  0  0  0
    1.4379   -2.4515    0.0000 C   0  0  0  0  0  0  0  0  0  0  0  0
    1.4379   -1.5793    0.0000 C   0  0  0  0  0  0  0  0  0  0  0  0
    3.5122   -3.6536    0.0000 C   0  0  0  0  0  0  0  0  0  0  0  0
    3.5122   -0.3772    0.0000 C   0  0  0  0  0  0  0  0  0  0  0  0
    2.0979   -3.6536    0.0000 C   0  0  0  0  0  0  0  0  0  0  0  0
    2.0979   -0.3772    0.0000 C   0  0  0  0  0  0  0  0  0  0  0  0
    4.9265   -2.8286    0.0000 C   0  0  0  0  0  0  0  0  0  0  0  0
    4.9265   -1.2022    0.0000 C   0  0  0  0  0  0  0  0  0  0  0  0
    0.6836   -2.8286    0.0000 C   0  0  0  0  0  0  0  0  0  0  0  0
    0.6836   -1.2022    0.0000 C   0  0  0  0  0  0  0  0  0  0  0  0
    2.8522   -4.1015    0.0000 C   0  0  0  0  0  0  0  0  0  0  0  0
    2.8522    0.0000    0.0000 C   0  0  0  0  0  0  0  0  0  0  0  0
    5.6572   -2.3808    0.0000 C   0  0  0  0  0  0  0  0  0  0  0  0
    5.6572   -1.5793    0.0000 C   0  0  0  0  0  0  0  0  0  0  0  0
    0.0000   -2.4515    0.0000 C   0  0  0  0  0  0  0  0  0  0  0  0
    0.0000   -1.5793    0.0000 C   0  0  0  0  0  0  0  0  0  0  0  0
    7.0716   -2.3808    0.0000 C   0  0  0  0  0  0  0  0  0  0  0  0
  1 22  1  0  0  0  0
  1 26  1  0  0  0  0
  2  3  2  0  0  0  0
  2  4  1  0  0  0  0
  2  6  1  0  0  0  0
  3  5  1  0  0  0  0
  3  7  1  0  0  0  0
  4  8  1  0  0  0  0
  4 12  2  0  0  0  0
  5  9  1  0  0  0  0
  5 13  2  0  0  0  0
  6 10  2  0  0  0  0
  6 14  1  0  0  0  0
  7 11  2  0  0  0  0
  7 15  1  0  0  0  0
  8  9  2  0  0  0  0
  8 16  1  0  0  0  0
  9 17  1  0  0  0  0
 10 11  1  0  0  0  0
 10 18  1  0  0  0  0
 11 19  1  0  0  0  0
 12 20  1  0  0  0  0
 13 21  1  0  0  0  0
 14 20  2  0  0  0  0
 15 21  2  0  0  0  0
 16 22  2  0  0  0  0
 17 23  2  0  0  0  0
 18 24  2  0  0  0  0
 19 25  2  0  0  0  0
 22 23  1  0  0  0  0
 24 25  1  0  0  0  0
M  END
> <PUBCHEM_COMPOUND_ID_TYPE>
0

> <PUBCHEM_TOTAL_CHARGE>
0

> <PUBCHEM_SUBSTANCE_ID>
310930835

> <PUBCHEM_SUBSTANCE_VERSION>
1

> <PUBCHEM_EXT_DATASOURCE_NAME>
4488

> <PUBCHEM_EXT_DATASOURCE_REGID>
SCHEMBL16108132

> <PUBCHEM_SUBSTANCE_COMMENT>
InChI=1S/C25H16O/c1-26-15-12-13-18-21-10-4-8-19-16-6-2-3-7-17(16)20-9-5-11-22(23(18)14-15)25(20)24(19)21/h2-14H,1H3
InChIKey=HZDILLDOWCYMLH-UHFFFAOYSA-N

> <PUBCHEM_SUBSTANCE_SYNONYM>
SCHEMBL16108132

> <PUBCHEM_XREF_EXT_ID>
SCHEMBL16108132

> <PUBCHEM_EXT_DATASOURCE_URL>
https://www.surechembl.org/

> <PUBCHEM_EXT_SUBSTANCE_URL>
https://www.surechembl.org/chemical/SCHEMBL16108132

> <PUBCHEM_CID_ASSOCIATIONS>
117599831  1

> <PUBCHEM_COORDINATE_TYPE>
1
3

$$$$
