310949136
  -OEChem-07211613022D

 51 58  0     0  0  0  0  0  0999 V2000
   -0.0069    1.7489    0.0000 N   0  0  0  0  0  0  0  0  0  0  0  0
   -2.1878    1.2414    0.0000 N   0  0  0  0  0  0  0  0  0  0  0  0
    2.1741    1.2962    0.0000 N   0  0  0  0  0  0  0  0  0  0  0  0
    0.6790    2.2838    0.0000 C   0  0  0  0  0  0  0  0  0  0  0  0
   -0.6927    2.2564    0.0000 C   0  0  0  0  0  0  0  0  0  0  0  0
   -0.4320    3.0383    0.0000 C   0  0  0  0  0  0  0  0  0  0  0  0
    0.4183    3.0383    0.0000 C   0  0  0  0  0  0  0  0  0  0  0  0
   -0.0206    0.9396    0.0000 C   0  0  0  0  0  0  0  0  0  0  0  0
   -0.7202    0.5143    0.0000 C   0  0  0  0  0  0  0  0  0  0  0  0
    0.7339    0.5281    0.0000 C   0  0  0  0  0  0  0  0  0  0  0  0
   -0.9945    3.6556    0.0000 C   0  0  0  0  0  0  0  0  0  0  0  0
    0.9533    3.6830    0.0000 C   0  0  0  0  0  0  0  0  0  0  0  0
    0.7064   -0.3086    0.0000 C   0  0  0  0  0  0  0  0  0  0  0  0
   -0.7476   -0.3223    0.0000 C   0  0  0  0  0  0  0  0  0  0  0  0
   -1.5157    2.0781    0.0000 C   0  0  0  0  0  0  0  0  0  0  0  0
    1.4882    2.1192    0.0000 C   0  0  0  0  0  0  0  0  0  0  0  0
   -0.0343   -0.7064    0.0000 C   0  0  0  0  0  0  0  0  0  0  0  0
   -2.0781    2.6817    0.0000 C   0  0  0  0  0  0  0  0  0  0  0  0
    2.0507    2.7228    0.0000 C   0  0  0  0  0  0  0  0  0  0  0  0
   -1.7764    3.4498    0.0000 C   0  0  0  0  0  0  0  0  0  0  0  0
    1.7764    3.5046    0.0000 C   0  0  0  0  0  0  0  0  0  0  0  0
    1.4608   -0.7202    0.0000 C   0  0  0  0  0  0  0  0  0  0  0  0
   -1.4334   -0.7476    0.0000 C   0  0  0  0  0  0  0  0  0  0  0  0
   -1.4608    0.8985    0.0000 C   0  0  0  0  0  0  0  0  0  0  0  0
    1.4471    0.9259    0.0000 C   0  0  0  0  0  0  0  0  0  0  0  0
   -0.7476    4.4374    0.0000 C   0  0  0  0  0  0  0  0  0  0  0  0
    0.7064    4.4511    0.0000 C   0  0  0  0  0  0  0  0  0  0  0  0
    1.4471   -1.5431    0.0000 C   0  0  0  0  0  0  0  0  0  0  0  0
   -1.4608   -1.5706    0.0000 C   0  0  0  0  0  0  0  0  0  0  0  0
    2.1741   -0.3086    0.0000 C   0  0  0  0  0  0  0  0  0  0  0  0
   -2.2015   -0.3360    0.0000 C   0  0  0  0  0  0  0  0  0  0  0  0
   -2.9011    2.4896    0.0000 C   0  0  0  0  0  0  0  0  0  0  0  0
    2.8874    2.5582    0.0000 C   0  0  0  0  0  0  0  0  0  0  0  0
    2.1741   -1.9409    0.0000 C   0  0  0  0  0  0  0  0  0  0  0  0
   -2.1604   -1.9684    0.0000 C   0  0  0  0  0  0  0  0  0  0  0  0
    2.9011   -0.7064    0.0000 C   0  0  0  0  0  0  0  0  0  0  0  0
   -2.8737   -0.7613    0.0000 C   0  0  0  0  0  0  0  0  0  0  0  0
    2.8874   -1.5294    0.0000 C   0  0  0  0  0  0  0  0  0  0  0  0
   -2.8737   -1.5843    0.0000 C   0  0  0  0  0  0  0  0  0  0  0  0
    2.1467   -2.7914    0.0000 C   0  0  0  0  0  0  0  0  0  0  0  0
   -2.1741   -2.8188    0.0000 C   0  0  0  0  0  0  0  0  0  0  0  0
    1.4471   -3.2166    0.0000 C   0  0  0  0  0  0  0  0  0  0  0  0
    2.8874   -3.2029    0.0000 C   0  0  0  0  0  0  0  0  0  0  0  0
   -2.8737   -3.2577    0.0000 C   0  0  0  0  0  0  0  0  0  0  0  0
   -1.4471   -3.2303    0.0000 C   0  0  0  0  0  0  0  0  0  0  0  0
    1.4471   -4.0259    0.0000 C   0  0  0  0  0  0  0  0  0  0  0  0
    2.8737   -4.0259    0.0000 C   0  0  0  0  0  0  0  0  0  0  0  0
   -2.8737   -4.0670    0.0000 C   0  0  0  0  0  0  0  0  0  0  0  0
   -1.4471   -4.0396    0.0000 C   0  0  0  0  0  0  0  0  0  0  0  0
    2.1604   -4.4374    0.0000 C   0  0  0  0  0  0  0  0  0  0  0  0
   -2.1192   -4.4511    0.0000 C   0  0  0  0  0  0  0  0  0  0  0  0
  1  4  1  0  0  0  0
  1  5  1  0  0  0  0
  1  8  1  0  0  0  0
  2 24  3  0  0  0  0
  3 25  3  0  0  0  0
  4  7  2  0  0  0  0
  4 16  1  0  0  0  0
  5  6  2  0  0  0  0
  5 15  1  0  0  0  0
  6  7  1  0  0  0  0
  6 11  1  0  0  0  0
  7 12  1  0  0  0  0
  8  9  1  0  0  0  0
  8 10  2  0  0  0  0
  9 14  2  0  0  0  0
  9 24  1  0  0  0  0
 10 13  1  0  0  0  0
 10 25  1  0  0  0  0
 11 20  2  0  0  0  0
 11 26  1  0  0  0  0
 12 21  2  0  0  0  0
 12 27  1  0  0  0  0
 13 17  2  0  0  0  0
 13 22  1  0  0  0  0
 14 17  1  0  0  0  0
 14 23  1  0  0  0  0
 15 18  2  0  0  0  0
 16 19  2  0  0  0  0
 18 20  1  0  0  0  0
 18 32  1  0  0  0  0
 19 21  1  0  0  0  0
 19 33  1  0  0  0  0
 22 28  2  0  0  0  0
 22 30  1  0  0  0  0
 23 29  1  0  0  0  0
 23 31  2  0  0  0  0
 28 34  1  0  0  0  0
 29 35  2  0  0  0  0
 30 36  2  0  0  0  0
 31 37  1  0  0  0  0
 34 38  2  0  0  0  0
 34 40  1  0  0  0  0
 35 39  1  0  0  0  0
 35 41  1  0  0  0  0
 36 38  1  0  0  0  0
 37 39  2  0  0  0  0
 40 42  2  0  0  0  0
 40 43  1  0  0  0  0
 41 44  2  0  0  0  0
 41 45  1  0  0  0  0
 42 46  1  0  0  0  0
 43 47  2  0  0  0  0
 44 48  1  0  0  0  0
 45 49  2  0  0  0  0
 46 50  2  0  0  0  0
 47 50  1  0  0  0  0
 48 51  2  0  0  0  0
 49 51  1  0  0  0  0
M  END
> <PUBCHEM_COMPOUND_ID_TYPE>
0

> <PUBCHEM_TOTAL_CHARGE>
0

> <PUBCHEM_SUBSTANCE_ID>
310949136

> <PUBCHEM_SUBSTANCE_VERSION>
1

> <PUBCHEM_EXT_DATASOURCE_NAME>
4488

> <PUBCHEM_EXT_DATASOURCE_REGID>
SCHEMBL16127326

> <PUBCHEM_SUBSTANCE_COMMENT>
InChI=1S/C48H35N3/c1-30-21-32(3)46-44(23-30)51(45-24-31(2)22-33(4)47(45)46)48-42(28-49)40(38-19-11-17-36(25-38)34-13-7-5-8-14-34)27-41(43(48)29-50)39-20-12-18-37(26-39)35-15-9-6-10-16-35/h5-27H,1-4H3
InChIKey=BIKGCOAAQBPTCT-UHFFFAOYSA-N

> <PUBCHEM_SUBSTANCE_SYNONYM>
SCHEMBL16127326

> <PUBCHEM_XREF_EXT_ID>
SCHEMBL16127326

> <PUBCHEM_EXT_DATASOURCE_URL>
https://www.surechembl.org/

> <PUBCHEM_EXT_SUBSTANCE_URL>
https://www.surechembl.org/chemical/SCHEMBL16127326

> <PUBCHEM_CID_ASSOCIATIONS>
117614633  1

> <PUBCHEM_COORDINATE_TYPE>
1
3

$$$$
