310940321
  -OEChem-07211613022D

 26 28  0     0  0  0  0  0  0999 V2000
    2.1441   -2.4859    0.0000 F   0  0  0  0  0  0  0  0  0  0  0  0
   -0.7395   -0.8328    0.0000 O   0  0  0  0  0  0  0  0  0  0  0  0
   -1.4480   -2.0757    0.0000 O   0  0  0  0  0  0  0  0  0  0  0  0
    2.1316    1.6531    0.0000 O   0  0  0  0  0  0  0  0  0  0  0  0
   -2.1565   -0.8328    0.0000 N   0  0  0  0  0  0  0  0  0  0  0  0
    3.5859    1.6531    0.0000 N   0  0  0  0  0  0  0  0  0  0  0  0
    1.4356   -1.2429    0.0000 C   0  0  0  0  0  0  0  0  0  0  0  0
    2.1441   -0.8328    0.0000 C   0  0  0  0  0  0  0  0  0  0  0  0
    1.4232   -2.0632    0.0000 C   0  0  0  0  0  0  0  0  0  0  0  0
   -0.0062   -1.2429    0.0000 C   0  0  0  0  0  0  0  0  0  0  0  0
    0.7022   -0.8452    0.0000 C   0  0  0  0  0  0  0  0  0  0  0  0
    2.1565   -0.0124    0.0000 C   0  0  0  0  0  0  0  0  0  0  0  0
    2.8525    0.4101    0.0000 C   0  0  0  0  0  0  0  0  0  0  0  0
    0.7147   -2.4859    0.0000 C   0  0  0  0  0  0  0  0  0  0  0  0
    2.8649   -1.2429    0.0000 C   0  0  0  0  0  0  0  0  0  0  0  0
    0.0062   -2.0757    0.0000 C   0  0  0  0  0  0  0  0  0  0  0  0
    3.5859    0.0000    0.0000 C   0  0  0  0  0  0  0  0  0  0  0  0
    3.5859   -0.8328    0.0000 C   0  0  0  0  0  0  0  0  0  0  0  0
   -1.4356   -1.2305    0.0000 C   0  0  0  0  0  0  0  0  0  0  0  0
    2.8898    1.2429    0.0000 C   0  0  0  0  0  0  0  0  0  0  0  0
   -2.8774   -1.2429    0.0000 C   0  0  0  0  0  0  0  0  0  0  0  0
   -3.5983   -0.8452    0.0000 C   0  0  0  0  0  0  0  0  0  0  0  0
   -2.8774   -2.0757    0.0000 C   0  0  0  0  0  0  0  0  0  0  0  0
   -4.2943   -1.2429    0.0000 C   0  0  0  0  0  0  0  0  0  0  0  0
   -3.5859   -2.4859    0.0000 C   0  0  0  0  0  0  0  0  0  0  0  0
   -4.2943   -2.0757    0.0000 C   0  0  0  0  0  0  0  0  0  0  0  0
  1  9  1  0  0  0  0
  2 10  1  0  0  0  0
  2 19  1  0  0  0  0
  3 19  2  0  0  0  0
  4 20  2  0  0  0  0
  5 19  1  0  0  0  0
  5 21  1  0  0  0  0
  6 20  1  0  0  0  0
  7  8  1  0  0  0  0
  7  9  1  0  0  0  0
  7 11  2  0  0  0  0
  8 12  1  0  0  0  0
  8 15  2  0  0  0  0
  9 14  2  0  0  0  0
 10 11  1  0  0  0  0
 10 16  2  0  0  0  0
 12 13  2  0  0  0  0
 13 17  1  0  0  0  0
 13 20  1  0  0  0  0
 14 16  1  0  0  0  0
 15 18  1  0  0  0  0
 17 18  2  0  0  0  0
 21 22  1  0  0  0  0
 21 23  1  0  0  0  0
 22 24  1  0  0  0  0
 23 25  1  0  0  0  0
 24 26  1  0  0  0  0
 25 26  1  0  0  0  0
M  END
> <PUBCHEM_COMPOUND_ID_TYPE>
0

> <PUBCHEM_TOTAL_CHARGE>
0

> <PUBCHEM_SUBSTANCE_ID>
310940321

> <PUBCHEM_SUBSTANCE_VERSION>
1

> <PUBCHEM_EXT_DATASOURCE_NAME>
4488

> <PUBCHEM_EXT_DATASOURCE_REGID>
SCHEMBL16118265

> <PUBCHEM_SUBSTANCE_COMMENT>
InChI=1S/C20H21FN2O3/c21-18-10-9-16(26-20(25)23-15-7-2-1-3-8-15)12-17(18)13-5-4-6-14(11-13)19(22)24/h4-6,9-12,15H,1-3,7-8H2,(H2,22,24)(H,23,25)
InChIKey=LVAZVFZIGBAIJM-UHFFFAOYSA-N

> <PUBCHEM_SUBSTANCE_SYNONYM>
SCHEMBL16118265

> <PUBCHEM_XREF_EXT_ID>
SCHEMBL16118265

> <PUBCHEM_EXT_DATASOURCE_URL>
https://www.surechembl.org/

> <PUBCHEM_EXT_SUBSTANCE_URL>
https://www.surechembl.org/chemical/SCHEMBL16118265

> <PUBCHEM_CID_ASSOCIATIONS>
71506770  1

> <PUBCHEM_COORDINATE_TYPE>
1
3

$$$$
