310932331
  -OEChem-07211613022D

 38 43  0     1  0  0  0  0  0999 V2000
    0.0512    0.0000    0.0000 Br  0  0  0  0  0  0  0  0  0  0  0  0
    0.7674   -5.7812    0.0000 S   0  0  0  0  0  0  0  0  0  0  0  0
    5.0138   -7.3672    0.0000 F   0  0  0  0  0  0  0  0  0  0  0  0
    4.1441   -5.8324    0.0000 O   0  0  0  0  0  0  0  0  0  0  0  0
    1.6372  -10.2323    0.0000 O   0  0  0  0  0  0  0  0  0  0  0  0
    1.2279   -3.6325    0.0000 O   0  0  0  0  0  0  0  0  0  0  0  0
    2.0465   -5.1161    0.0000 N   0  0  0  0  0  0  0  0  0  0  0  0
    3.7348   -7.9811    0.0000 N   0  0  0  0  0  0  0  0  0  0  0  0
    2.5069   -2.9162    0.0000 N   0  0  0  0  0  0  0  0  0  0  0  0
    0.8186   -4.3487    0.0000 N   0  0  0  0  0  0  0  0  0  0  0  0
    0.4604   -2.1999    0.0000 N   0  0  0  0  0  0  0  0  0  0  0  0
    2.4557   -5.8324    0.0000 C   0  0  3  0  0  0  0  0  0  0  0  0
    2.8650   -6.5486    0.0000 C   0  0  0  0  0  0  0  0  0  0  0  0
    2.9162   -5.0650    0.0000 C   0  0  0  0  0  0  0  0  0  0  0  0
    3.7348   -6.5486    0.0000 C   0  0  0  0  0  0  0  0  0  0  0  0
    3.7348   -5.1161    0.0000 C   0  0  0  0  0  0  0  0  0  0  0  0
    1.9953   -6.5486    0.0000 C   0  0  0  0  0  0  0  0  0  0  0  0
    2.4557   -7.3160    0.0000 C   0  0  0  0  0  0  0  0  0  0  0  0
    4.1441   -7.3160    0.0000 C   0  0  0  0  0  0  0  0  0  0  0  0
    2.4557   -4.3487    0.0000 C   0  0  0  0  0  0  0  0  0  0  0  0
    2.8650   -7.9811    0.0000 C   0  0  0  0  0  0  0  0  0  0  0  0
    4.1952   -4.3487    0.0000 C   0  0  0  0  0  0  0  0  0  0  0  0
    1.1767   -5.0650    0.0000 C   0  0  0  0  0  0  0  0  0  0  0  0
    2.9162   -3.6325    0.0000 C   0  0  0  0  0  0  0  0  0  0  0  0
    1.1767   -6.5486    0.0000 C   0  0  0  0  0  0  0  0  0  0  0  0
    3.7348   -3.6836    0.0000 C   0  0  0  0  0  0  0  0  0  0  0  0
    2.4557   -8.7486    0.0000 C   0  0  0  0  0  0  0  0  0  0  0  0
    1.6883   -2.9162    0.0000 C   0  0  0  0  0  0  0  0  0  0  0  0
    1.6372   -8.7486    0.0000 C   0  0  0  0  0  0  0  0  0  0  0  0
    2.8650   -9.4648    0.0000 C   0  0  0  0  0  0  0  0  0  0  0  0
    1.2790   -2.1999    0.0000 C   0  0  0  0  0  0  0  0  0  0  0  0
    1.6883   -1.4325    0.0000 C   0  0  0  0  0  0  0  0  0  0  0  0
    1.2279   -9.4648    0.0000 C   0  0  0  0  0  0  0  0  0  0  0  0
    2.4557  -10.1811    0.0000 C   0  0  0  0  0  0  0  0  0  0  0  0
    1.2790   -0.7162    0.0000 C   0  0  0  0  0  0  0  0  0  0  0  0
    0.4604   -0.7162    0.0000 C   0  0  0  0  0  0  0  0  0  0  0  0
    0.0000   -1.4325    0.0000 C   0  0  0  0  0  0  0  0  0  0  0  0
    2.5581   -1.4325    0.0000 C   0  0  0  0  0  0  0  0  0  0  0  0
  1 36  1  0  0  0  0
  2 23  1  0  0  0  0
  2 25  1  0  0  0  0
  3 19  1  0  0  0  0
  4 15  1  0  0  0  0
  4 16  1  0  0  0  0
  5 33  1  0  0  0  0
  5 34  1  0  0  0  0
  6 28  2  0  0  0  0
 12  7  1  1  0  0  0
  7 23  2  0  0  0  0
  8 19  1  0  0  0  0
  8 21  2  0  0  0  0
  9 24  1  0  0  0  0
  9 28  1  0  0  0  0
 10 23  1  0  0  0  0
 11 31  1  0  0  0  0
 11 37  2  0  0  0  0
 12 13  1  0  0  0  0
 12 14  1  0  0  0  0
 12 17  1  0  0  0  0
 13 15  1  0  0  0  0
 13 18  2  0  0  0  0
 14 16  2  0  0  0  0
 14 20  1  0  0  0  0
 15 19  2  0  0  0  0
 16 22  1  0  0  0  0
 17 25  1  0  0  0  0
 18 21  1  0  0  0  0
 20 24  2  0  0  0  0
 21 27  1  0  0  0  0
 22 26  2  0  0  0  0
 24 26  1  0  0  0  0
 27 29  2  0  0  0  0
 27 30  1  0  0  0  0
 28 31  1  0  0  0  0
 29 33  1  0  0  0  0
 30 34  1  0  0  0  0
 31 32  2  0  0  0  0
 32 35  1  0  0  0  0
 32 38  1  0  0  0  0
 35 36  2  0  0  0  0
 36 37  1  0  0  0  0
M  END
> <PUBCHEM_COMPOUND_ID_TYPE>
0

> <PUBCHEM_TOTAL_CHARGE>
0

> <PUBCHEM_SUBSTANCE_ID>
310932331

> <PUBCHEM_SUBSTANCE_VERSION>
1

> <PUBCHEM_EXT_DATASOURCE_NAME>
4488

> <PUBCHEM_EXT_DATASOURCE_REGID>
SCHEMBL16109697

> <PUBCHEM_SUBSTANCE_COMMENT>
InChI=1S/C27H23BrFN5O3S/c1-14-10-16(28)13-31-22(14)25(35)32-17-2-3-21-18(11-17)27(6-9-38-26(30)34-27)19-12-20(15-4-7-36-8-5-15)33-24(29)23(19)37-21/h2-4,10-13H,5-9H2,1H3,(H2,30,34)(H,32,35)/t27-/m0/s1
InChIKey=YQOWSSJEYDRXHY-MHZLTWQESA-N

> <PUBCHEM_SUBSTANCE_SYNONYM>
SCHEMBL16109697

> <PUBCHEM_XREF_EXT_ID>
SCHEMBL16109697

> <PUBCHEM_EXT_DATASOURCE_URL>
https://www.surechembl.org/

> <PUBCHEM_EXT_SUBSTANCE_URL>
https://www.surechembl.org/chemical/SCHEMBL16109697

> <PUBCHEM_CID_ASSOCIATIONS>
117600887  1

> <PUBCHEM_COORDINATE_TYPE>
1
3

> <PUBCHEM_BONDANNOTATIONS>
12  7  5

$$$$
