310941197
  -OEChem-07211613022D

 40 43  0     1  0  0  0  0  0999 V2000
    5.1043    0.9011    0.0000 O   0  0  0  0  0  0  0  0  0  0  0  0
    3.9637   -1.0561    0.0000 O   0  0  0  0  0  0  0  0  0  0  0  0
    1.8094    1.0138    0.0000 O   0  0  0  0  0  0  0  0  0  0  0  0
   -0.3450   -1.0561    0.0000 O   0  0  0  0  0  0  0  0  0  0  0  0
   -2.4993    1.0138    0.0000 O   0  0  0  0  0  0  0  0  0  0  0  0
   -5.3718    1.0138    0.0000 O   0  0  0  0  0  0  0  0  0  0  0  0
    2.5275   -0.2112    0.0000 N   0  0  0  0  0  0  0  0  0  0  0  0
    0.3731    0.2112    0.0000 N   0  0  0  0  0  0  0  0  0  0  0  0
   -1.7812   -0.2112    0.0000 N   0  0  0  0  0  0  0  0  0  0  0  0
   -3.9355    0.2112    0.0000 N   0  0  0  0  0  0  0  0  0  0  0  0
    4.6818    0.2394    0.0000 C   0  0  3  0  0  0  0  0  0  0  0  0
    3.9496   -0.1971    0.0000 C   0  0  0  0  0  0  0  0  0  0  0  0
    4.3017    0.9293    0.0000 C   0  0  0  0  0  0  0  0  0  0  0  0
    3.2315    0.1971    0.0000 C   0  0  3  0  0  0  0  0  0  0  0  0
    5.3718   -0.1830    0.0000 C   0  0  0  0  0  0  0  0  0  0  0  0
    3.2456    1.5348    0.0000 C   0  0  0  0  0  0  0  0  0  0  0  0
    1.7953    0.1830    0.0000 C   0  0  0  0  0  0  0  0  0  0  0  0
    1.1194   -0.1971    0.0000 C   0  0  3  0  0  0  0  0  0  0  0  0
    2.5134    1.9572    0.0000 C   0  0  0  0  0  0  0  0  0  0  0  0
    1.0772   -1.0420    0.0000 C   0  0  0  0  0  0  0  0  0  0  0  0
   -0.3309   -0.1830    0.0000 C   0  0  0  0  0  0  0  0  0  0  0  0
    1.8094    1.5489    0.0000 C   0  0  0  0  0  0  0  0  0  0  0  0
    2.5275    2.7739    0.0000 C   0  0  0  0  0  0  0  0  0  0  0  0
    1.5137   -1.7460    0.0000 C   0  0  0  0  0  0  0  0  0  0  0  0
   -1.0772    0.1971    0.0000 C   0  0  3  0  0  0  0  0  0  0  0  0
    1.1053    1.9572    0.0000 C   0  0  0  0  0  0  0  0  0  0  0  0
    1.8094    3.1823    0.0000 C   0  0  0  0  0  0  0  0  0  0  0  0
    1.1053   -2.4782    0.0000 C   0  0  0  0  0  0  0  0  0  0  0  0
    2.3445   -1.7742    0.0000 C   0  0  0  0  0  0  0  0  0  0  0  0
   -2.4993    0.1830    0.0000 C   0  0  0  0  0  0  0  0  0  0  0  0
    1.1053    2.7739    0.0000 C   0  0  0  0  0  0  0  0  0  0  0  0
   -3.2315   -0.1971    0.0000 C   0  0  0  0  0  0  0  0  0  0  0  0
   -1.0631    1.0279    0.0000 C   0  0  0  0  0  0  0  0  0  0  0  0
    1.5137   -3.1823    0.0000 C   0  0  0  0  0  0  0  0  0  0  0  0
    2.7528   -2.4782    0.0000 C   0  0  0  0  0  0  0  0  0  0  0  0
    2.3445   -3.1823    0.0000 C   0  0  0  0  0  0  0  0  0  0  0  0
   -3.9355    1.0420    0.0000 C   0  0  0  0  0  0  0  0  0  0  0  0
   -4.6677   -0.1971    0.0000 C   0  0  0  0  0  0  0  0  0  0  0  0
   -4.6677    1.4503    0.0000 C   0  0  0  0  0  0  0  0  0  0  0  0
   -5.3718    0.1971    0.0000 C   0  0  0  0  0  0  0  0  0  0  0  0
  1 11  1  0  0  0  0
  1 13  1  0  0  0  0
  2 12  2  0  0  0  0
  3 17  2  0  0  0  0
  4 21  2  0  0  0  0
  5 30  2  0  0  0  0
  6 39  1  0  0  0  0
  6 40  1  0  0  0  0
 14  7  1  1  0  0  0
  7 17  1  0  0  0  0
 18  8  1  6  0  0  0
  8 21  1  0  0  0  0
  9 25  1  0  0  0  0
  9 30  1  0  0  0  0
 10 32  1  0  0  0  0
 10 37  1  0  0  0  0
 10 38  1  0  0  0  0
 11 12  1  1  0  0  0
 11 13  1  0  0  0  0
 11 15  1  6  0  0  0
 12 14  1  0  0  0  0
 14 16  1  0  0  0  0
 16 19  1  0  0  0  0
 17 18  1  0  0  0  0
 18 20  1  0  0  0  0
 19 22  2  0  0  0  0
 19 23  1  0  0  0  0
 20 24  1  0  0  0  0
 21 25  1  0  0  0  0
 22 26  1  0  0  0  0
 23 27  2  0  0  0  0
 24 28  2  0  0  0  0
 24 29  1  0  0  0  0
 25 33  1  1  0  0  0
 26 31  2  0  0  0  0
 27 31  1  0  0  0  0
 28 34  1  0  0  0  0
 29 35  2  0  0  0  0
 30 32  1  0  0  0  0
 34 36  2  0  0  0  0
 35 36  1  0  0  0  0
 37 39  1  0  0  0  0
 38 40  1  0  0  0  0
M  END
> <PUBCHEM_COMPOUND_ID_TYPE>
0

> <PUBCHEM_TOTAL_CHARGE>
0

> <PUBCHEM_SUBSTANCE_ID>
310941197

> <PUBCHEM_SUBSTANCE_VERSION>
1

> <PUBCHEM_EXT_DATASOURCE_NAME>
4488

> <PUBCHEM_EXT_DATASOURCE_REGID>
SCHEMBL16119157

> <PUBCHEM_SUBSTANCE_COMMENT>
InChI=1S/C30H38N4O6/c1-21(31-26(35)19-34-13-15-39-16-14-34)28(37)33-25(18-23-11-7-4-8-12-23)29(38)32-24(27(36)30(2)20-40-30)17-22-9-5-3-6-10-22/h3-12,21,24-25H,13-20H2,1-2H3,(H,31,35)(H,32,38)(H,33,37)/t21-,24-,25-,30+/m0/s1
InChIKey=BCUHTMFQJJOGBC-IAWILJFASA-N

> <PUBCHEM_SUBSTANCE_SYNONYM>
SCHEMBL16119157

> <PUBCHEM_XREF_EXT_ID>
SCHEMBL16119157

> <PUBCHEM_EXT_DATASOURCE_URL>
https://www.surechembl.org/

> <PUBCHEM_EXT_SUBSTANCE_URL>
https://www.surechembl.org/chemical/SCHEMBL16119157

> <PUBCHEM_CID_ASSOCIATIONS>
117608070  1

> <PUBCHEM_COORDINATE_TYPE>
1
3

> <PUBCHEM_BONDANNOTATIONS>
11  12  5
11  15  6
25  33  5
14  7  5
18  8  6

$$$$
