310937517
  -OEChem-07211613022D

 35 38  0     0  0  0  0  0  0999 V2000
    1.9233    1.3646    0.0000 O   0  0  0  0  0  0  0  0  0  0  0  0
    3.3523    1.3646    0.0000 O   0  0  0  0  0  0  0  0  0  0  0  0
    8.3536   -4.8229    0.0000 O   0  0  0  0  0  0  0  0  0  0  0  0
    9.0681   -3.5854    0.0000 O   0  0  0  0  0  0  0  0  0  0  0  0
    1.1387   -1.3654    0.0000 N   0  0  0  0  0  0  0  0  0  0  0  0
    6.2102   -2.7604    0.0000 N   0  0  0  0  0  0  0  0  0  0  0  0
    4.7812   -2.7604    0.0000 N   0  0  0  0  0  0  0  0  0  0  0  0
    7.6391   -3.5854    0.0000 N   0  0  0  0  0  0  0  0  0  0  0  0
    1.9233   -1.1104    0.0000 C   0  0  0  0  0  0  0  0  0  0  0  0
    1.9233   -0.2854    0.0000 C   0  0  0  0  0  0  0  0  0  0  0  0
    2.6378    0.1271    0.0000 C   0  0  0  0  0  0  0  0  0  0  0  0
    3.3523   -1.1104    0.0000 C   0  0  0  0  0  0  0  0  0  0  0  0
    2.6378   -1.5229    0.0000 C   0  0  0  0  0  0  0  0  0  0  0  0
    3.3523   -0.2854    0.0000 C   0  0  0  0  0  0  0  0  0  0  0  0
    4.0668   -1.5229    0.0000 C   0  0  0  0  0  0  0  0  0  0  0  0
    1.1387   -0.0305    0.0000 C   0  0  0  0  0  0  0  0  0  0  0  0
    0.6538   -0.6979    0.0000 C   0  0  0  0  0  0  0  0  0  0  0  0
    2.6378    0.9521    0.0000 C   0  0  0  0  0  0  0  0  0  0  0  0
    5.4957   -2.3479    0.0000 C   0  0  0  0  0  0  0  0  0  0  0  0
    0.8838   -2.1500    0.0000 C   0  0  0  0  0  0  0  0  0  0  0  0
    4.0668   -2.3479    0.0000 C   0  0  0  0  0  0  0  0  0  0  0  0
    4.7812   -1.1104    0.0000 C   0  0  0  0  0  0  0  0  0  0  0  0
    5.4957   -1.5229    0.0000 C   0  0  0  0  0  0  0  0  0  0  0  0
    0.0768   -2.3215    0.0000 C   0  0  0  0  0  0  0  0  0  0  0  0
    6.9246   -2.3479    0.0000 C   0  0  0  0  0  0  0  0  0  0  0  0
    6.2102   -3.5854    0.0000 C   0  0  0  0  0  0  0  0  0  0  0  0
    7.6391   -2.7604    0.0000 C   0  0  0  0  0  0  0  0  0  0  0  0
    6.9246   -3.9979    0.0000 C   0  0  0  0  0  0  0  0  0  0  0  0
    8.3536   -3.9979    0.0000 C   0  0  0  0  0  0  0  0  0  0  0  0
    9.0681   -5.2354    0.0000 C   0  0  0  0  0  0  0  0  0  0  0  0
   -0.1781   -3.1062    0.0000 C   0  0  0  0  0  0  0  0  0  0  0  0
   -0.4752   -1.7084    0.0000 C   0  0  0  0  0  0  0  0  0  0  0  0
    9.7825   -5.6479    0.0000 C   0  0  0  0  0  0  0  0  0  0  0  0
    8.6556   -5.9499    0.0000 C   0  0  0  0  0  0  0  0  0  0  0  0
    9.4806   -4.5210    0.0000 C   0  0  0  0  0  0  0  0  0  0  0  0
  1 18  2  0  0  0  0
  2 18  1  0  0  0  0
  3 29  1  0  0  0  0
  3 30  1  0  0  0  0
  4 29  2  0  0  0  0
  5  9  1  0  0  0  0
  5 17  1  0  0  0  0
  5 20  1  0  0  0  0
  6 19  1  0  0  0  0
  6 25  1  0  0  0  0
  6 26  1  0  0  0  0
  7 19  1  0  0  0  0
  7 21  2  0  0  0  0
  8 27  1  0  0  0  0
  8 28  1  0  0  0  0
  8 29  1  0  0  0  0
  9 10  1  0  0  0  0
  9 13  2  0  0  0  0
 10 11  2  0  0  0  0
 10 16  1  0  0  0  0
 11 14  1  0  0  0  0
 11 18  1  0  0  0  0
 12 13  1  0  0  0  0
 12 14  2  0  0  0  0
 12 15  1  0  0  0  0
 15 21  1  0  0  0  0
 15 22  2  0  0  0  0
 16 17  2  0  0  0  0
 19 23  2  0  0  0  0
 20 24  1  0  0  0  0
 22 23  1  0  0  0  0
 24 31  1  0  0  0  0
 24 32  1  0  0  0  0
 25 27  1  0  0  0  0
 26 28  1  0  0  0  0
 30 33  1  0  0  0  0
 30 34  1  0  0  0  0
 30 35  1  0  0  0  0
M  END
> <PUBCHEM_COMPOUND_ID_TYPE>
0

> <PUBCHEM_TOTAL_CHARGE>
0

> <PUBCHEM_SUBSTANCE_ID>
310937517

> <PUBCHEM_SUBSTANCE_VERSION>
1

> <PUBCHEM_EXT_DATASOURCE_NAME>
4488

> <PUBCHEM_EXT_DATASOURCE_REGID>
SCHEMBL16115290

> <PUBCHEM_SUBSTANCE_COMMENT>
InChI=1S/C27H34N4O4/c1-18(2)17-31-9-8-21-22(25(32)33)14-20(15-23(21)31)19-6-7-24(28-16-19)29-10-12-30(13-11-29)26(34)35-27(3,4)5/h6-9,14-16,18H,10-13,17H2,1-5H3,(H,32,33)
InChIKey=CKCGCQXXKPITQF-UHFFFAOYSA-N

> <PUBCHEM_SUBSTANCE_SYNONYM>
SCHEMBL16115290

> <PUBCHEM_XREF_EXT_ID>
SCHEMBL16115290

> <PUBCHEM_EXT_DATASOURCE_URL>
https://www.surechembl.org/

> <PUBCHEM_EXT_SUBSTANCE_URL>
https://www.surechembl.org/chemical/SCHEMBL16115290

> <PUBCHEM_CID_ASSOCIATIONS>
117605249  1

> <PUBCHEM_COORDINATE_TYPE>
1
3

$$$$
