310937917
  -OEChem-07211613022D

 16 17  0     0  0  0  0  0  0999 V2000
    4.5941   -2.9129    0.0000 O   0  0  0  0  0  0  0  0  0  0  0  0
    2.8738   -2.8738    0.0000 N   0  0  0  0  0  0  0  0  0  0  0  0
    4.5941   -1.4858    0.0000 N   0  0  0  0  0  0  0  0  0  0  0  0
    0.0978   -0.3519    0.0000 N   0  0  0  0  0  0  0  0  0  0  0  0
    2.0918   -1.7986    0.0000 C   0  0  0  0  0  0  0  0  0  0  0  0
    2.0918   -2.6001    0.0000 C   0  0  0  0  0  0  0  0  0  0  0  0
    3.3625   -2.1896    0.0000 C   0  0  0  0  0  0  0  0  0  0  0  0
    1.4271   -1.3098    0.0000 C   0  0  0  0  0  0  0  0  0  0  0  0
    2.8738   -1.5249    0.0000 C   0  0  0  0  0  0  0  0  0  0  0  0
    4.1836   -2.1896    0.0000 C   0  0  0  0  0  0  0  0  0  0  0  0
    1.4271   -3.0888    0.0000 C   0  0  0  0  0  0  0  0  0  0  0  0
    1.5249   -0.5083    0.0000 C   0  0  0  0  0  0  0  0  0  0  0  0
    0.6647   -1.6617    0.0000 C   0  0  0  0  0  0  0  0  0  0  0  0
    0.8602    0.0000    0.0000 C   0  0  0  0  0  0  0  0  0  0  0  0
    0.0000   -1.1534    0.0000 C   0  0  0  0  0  0  0  0  0  0  0  0
    1.5053   -3.9099    0.0000 C   0  0  0  0  0  0  0  0  0  0  0  0
  1 10  2  0  0  0  0
  2  6  1  0  0  0  0
  2  7  1  0  0  0  0
  3 10  1  0  0  0  0
  4 14  2  0  0  0  0
  4 15  1  0  0  0  0
  5  6  2  0  0  0  0
  5  8  1  0  0  0  0
  5  9  1  0  0  0  0
  6 11  1  0  0  0  0
  7  9  2  0  0  0  0
  7 10  1  0  0  0  0
  8 12  2  0  0  0  0
  8 13  1  0  0  0  0
 11 16  1  0  0  0  0
 12 14  1  0  0  0  0
 13 15  2  0  0  0  0
M  END
> <PUBCHEM_COMPOUND_ID_TYPE>
0

> <PUBCHEM_TOTAL_CHARGE>
0

> <PUBCHEM_SUBSTANCE_ID>
310937917

> <PUBCHEM_SUBSTANCE_VERSION>
1

> <PUBCHEM_EXT_DATASOURCE_NAME>
4488

> <PUBCHEM_EXT_DATASOURCE_REGID>
SCHEMBL16115746

> <PUBCHEM_SUBSTANCE_COMMENT>
InChI=1S/C12H13N3O/c1-2-10-9(7-11(15-10)12(13)16)8-3-5-14-6-4-8/h3-7,15H,2H2,1H3,(H2,13,16)
InChIKey=JDPANBZHGVRYKU-UHFFFAOYSA-N

> <PUBCHEM_SUBSTANCE_SYNONYM>
SCHEMBL16115746

> <PUBCHEM_XREF_EXT_ID>
SCHEMBL16115746

> <PUBCHEM_EXT_DATASOURCE_URL>
https://www.surechembl.org/

> <PUBCHEM_EXT_SUBSTANCE_URL>
https://www.surechembl.org/chemical/SCHEMBL16115746

> <PUBCHEM_CID_ASSOCIATIONS>
86274984  1

> <PUBCHEM_COORDINATE_TYPE>
1
3

$$$$
