310933297
  -OEChem-07211613022D

 14 15  0     1  0  0  0  0  0999 V2000
    2.1989   -0.8167    0.0000 N   0  0  3  0  0  0  0  0  0  0  0  0
    3.0994   -2.7643    0.0000 N   0  0  0  0  0  0  0  0  0  0  0  0
    1.7801   -2.0942    0.0000 C   0  0  3  0  0  0  0  0  0  0  0  0
    1.2984   -2.7643    0.0000 C   0  0  0  0  0  0  0  0  0  0  0  0
    2.6178   -2.0942    0.0000 C   0  0  3  0  0  0  0  0  0  0  0  0
    1.5287   -1.3193    0.0000 C   0  0  0  0  0  0  0  0  0  0  0  0
    0.4817   -2.6806    0.0000 C   0  0  0  0  0  0  0  0  0  0  0  0
    2.8690   -1.3193    0.0000 C   0  0  0  0  0  0  0  0  0  0  0  0
    1.6335   -3.5182    0.0000 C   0  0  0  0  0  0  0  0  0  0  0  0
    0.0000   -3.3507    0.0000 C   0  0  0  0  0  0  0  0  0  0  0  0
    1.1518   -4.1884    0.0000 C   0  0  0  0  0  0  0  0  0  0  0  0
    0.3351   -4.0837    0.0000 C   0  0  0  0  0  0  0  0  0  0  0  0
    2.1989    0.0000    0.0000 C   0  0  0  0  0  0  0  0  0  0  0  0
    0.1466   -1.9267    0.0000 C   0  0  0  0  0  0  0  0  0  0  0  0
  1  6  1  0  0  0  0
  1  8  1  0  0  0  0
  1 13  1  0  0  0  0
  5  2  1  1  0  0  0
  3  4  1  0  0  0  0
  3  5  1  0  0  0  0
  3  6  1  6  0  0  0
  4  7  2  0  0  0  0
  4  9  1  0  0  0  0
  5  8  1  0  0  0  0
  7 10  1  0  0  0  0
  7 14  1  0  0  0  0
  9 11  2  0  0  0  0
 10 12  2  0  0  0  0
 11 12  1  0  0  0  0
M  END
> <PUBCHEM_COMPOUND_ID_TYPE>
0

> <PUBCHEM_TOTAL_CHARGE>
0

> <PUBCHEM_SUBSTANCE_ID>
310933297

> <PUBCHEM_SUBSTANCE_VERSION>
1

> <PUBCHEM_EXT_DATASOURCE_NAME>
4488

> <PUBCHEM_EXT_DATASOURCE_REGID>
SCHEMBL16110708

> <PUBCHEM_SUBSTANCE_COMMENT>
InChI=1S/C12H18N2/c1-9-5-3-4-6-10(9)11-7-14(2)8-12(11)13/h3-6,11-12H,7-8,13H2,1-2H3/t11-,12+/m0/s1
InChIKey=ZLMVARYAQIXKNP-NWDGAFQWSA-N

> <PUBCHEM_SUBSTANCE_SYNONYM>
SCHEMBL16110708

> <PUBCHEM_XREF_EXT_ID>
SCHEMBL16110708

> <PUBCHEM_EXT_DATASOURCE_URL>
https://www.surechembl.org/

> <PUBCHEM_EXT_SUBSTANCE_URL>
https://www.surechembl.org/chemical/SCHEMBL16110708

> <PUBCHEM_CID_ASSOCIATIONS>
117601716  1

> <PUBCHEM_COORDINATE_TYPE>
1
3

> <PUBCHEM_BONDANNOTATIONS>
5  2  5
3  6  6

$$$$
