310940182
  -OEChem-07211613022D

 24 26  0     0  0  0  0  0  0999 V2000
   -0.5206   -2.1248    0.0000 O   0  0  0  0  0  0  0  0  0  0  0  0
    0.9428    0.2251    0.0000 N   0  0  0  0  0  0  0  0  0  0  0  0
    1.4493   -0.4362    0.0000 N   0  0  0  0  0  0  0  0  0  0  0  0
   -1.2523   -0.8864    0.0000 N   0  0  0  0  0  0  0  0  0  0  0  0
    1.2382   -1.8855    0.0000 N   0  0  0  0  0  0  0  0  0  0  0  0
    3.3489    1.4915    0.0000 N   0  0  0  0  0  0  0  0  0  0  0  0
    0.1688   -0.0281    0.0000 C   0  0  0  0  0  0  0  0  0  0  0  0
    1.1960    1.0272    0.0000 C   0  0  0  0  0  0  0  0  0  0  0  0
    0.1688   -0.8583    0.0000 C   0  0  0  0  0  0  0  0  0  0  0  0
    0.9568   -1.1116    0.0000 C   0  0  0  0  0  0  0  0  0  0  0  0
   -0.5206   -1.2664    0.0000 C   0  0  0  0  0  0  0  0  0  0  0  0
   -0.5910    0.3518    0.0000 C   0  0  0  0  0  0  0  0  0  0  0  0
    0.3518    1.1256    0.0000 C   0  0  0  0  0  0  0  0  0  0  0  0
    1.6745    1.6604    0.0000 C   0  0  0  0  0  0  0  0  0  0  0  0
    1.9418    0.6472    0.0000 C   0  0  0  0  0  0  0  0  0  0  0  0
   -1.2664   -0.0704    0.0000 C   0  0  0  0  0  0  0  0  0  0  0  0
    0.0563    1.8996    0.0000 C   0  0  0  0  0  0  0  0  0  0  0  0
    1.3508    2.4061    0.0000 C   0  0  0  0  0  0  0  0  0  0  0  0
    2.6454    1.0413    0.0000 C   0  0  0  0  0  0  0  0  0  0  0  0
    0.5488    2.5187    0.0000 C   0  0  0  0  0  0  0  0  0  0  0  0
   -1.2242   -2.5187    0.0000 C   0  0  0  0  0  0  0  0  0  0  0  0
   -1.9137   -2.0966    0.0000 C   0  0  0  0  0  0  0  0  0  0  0  0
   -2.6313   -2.5047    0.0000 C   0  0  0  0  0  0  0  0  0  0  0  0
   -3.3489   -2.0825    0.0000 C   0  0  0  0  0  0  0  0  0  0  0  0
  1 11  1  0  0  0  0
  1 21  1  0  0  0  0
  2  3  1  0  0  0  0
  2  7  1  0  0  0  0
  2  8  1  0  0  0  0
  3 10  2  0  0  0  0
  4 11  2  0  0  0  0
  4 16  1  0  0  0  0
  5 10  1  0  0  0  0
  6 19  3  0  0  0  0
  7  9  2  0  0  0  0
  7 12  1  0  0  0  0
  8 13  1  0  0  0  0
  8 14  1  0  0  0  0
  8 15  1  0  0  0  0
  9 10  1  0  0  0  0
  9 11  1  0  0  0  0
 12 16  2  0  0  0  0
 13 17  1  0  0  0  0
 14 18  1  0  0  0  0
 15 19  1  0  0  0  0
 17 20  1  0  0  0  0
 18 20  1  0  0  0  0
 21 22  1  0  0  0  0
 22 23  1  0  0  0  0
 23 24  1  0  0  0  0
M  END
> <PUBCHEM_COMPOUND_ID_TYPE>
0

> <PUBCHEM_TOTAL_CHARGE>
0

> <PUBCHEM_SUBSTANCE_ID>
310940182

> <PUBCHEM_SUBSTANCE_VERSION>
1

> <PUBCHEM_EXT_DATASOURCE_NAME>
4488

> <PUBCHEM_EXT_DATASOURCE_REGID>
SCHEMBL16118116

> <PUBCHEM_SUBSTANCE_COMMENT>
InChI=1S/C18H25N5O/c1-2-3-13-24-17-15-14(7-12-21-17)23(22-16(15)20)18(10-11-19)8-5-4-6-9-18/h7,12H,2-6,8-10,13H2,1H3,(H2,20,22)
InChIKey=CDCUSQYYGQJPNM-UHFFFAOYSA-N

> <PUBCHEM_SUBSTANCE_SYNONYM>
SCHEMBL16118116

> <PUBCHEM_XREF_EXT_ID>
SCHEMBL16118116

> <PUBCHEM_EXT_DATASOURCE_URL>
https://www.surechembl.org/

> <PUBCHEM_EXT_SUBSTANCE_URL>
https://www.surechembl.org/chemical/SCHEMBL16118116

> <PUBCHEM_CID_ASSOCIATIONS>
117607290  1

> <PUBCHEM_COORDINATE_TYPE>
1
3

$$$$
