310945491
  -OEChem-07211613022D

 24 27  0     0  0  0  0  0  0999 V2000
    2.5719    3.0408    0.0000 F   0  0  0  0  0  0  0  0  0  0  0  0
   -2.5719    1.4582    0.0000 O   0  0  0  0  0  0  0  0  0  0  0  0
    0.2418    0.7108    0.0000 N   0  0  0  0  0  0  0  0  0  0  0  0
    2.2641    1.6486    0.0000 N   0  0  0  0  0  0  0  0  0  0  0  0
   -0.5202   -1.3848    0.0000 N   0  0  0  0  0  0  0  0  0  0  0  0
   -0.5202   -3.0408    0.0000 N   0  0  0  0  0  0  0  0  0  0  0  0
    0.9012    1.2237    0.0000 C   0  0  0  0  0  0  0  0  0  0  0  0
    0.6521    1.9711    0.0000 C   0  0  0  0  0  0  0  0  0  0  0  0
   -0.1685    2.0003    0.0000 C   0  0  0  0  0  0  0  0  0  0  0  0
   -0.4323    1.2090    0.0000 C   0  0  0  0  0  0  0  0  0  0  0  0
    1.7219    1.0331    0.0000 C   0  0  0  0  0  0  0  0  0  0  0  0
    1.2090    2.6012    0.0000 C   0  0  0  0  0  0  0  0  0  0  0  0
   -1.2237    1.0478    0.0000 C   0  0  0  0  0  0  0  0  0  0  0  0
   -0.7108    2.5866    0.0000 C   0  0  0  0  0  0  0  0  0  0  0  0
    0.2272   -0.1538    0.0000 C   0  0  0  0  0  0  0  0  0  0  0  0
    2.0150    2.4253    0.0000 C   0  0  0  0  0  0  0  0  0  0  0  0
   -1.7952    1.6486    0.0000 C   0  0  0  0  0  0  0  0  0  0  0  0
   -1.5167    2.4253    0.0000 C   0  0  0  0  0  0  0  0  0  0  0  0
   -0.5056   -0.5495    0.0000 C   0  0  0  0  0  0  0  0  0  0  0  0
    2.0297    0.1538    0.0000 C   0  0  0  0  0  0  0  0  0  0  0  0
   -1.2237   -1.7952    0.0000 C   0  0  0  0  0  0  0  0  0  0  0  0
    0.1978   -1.7952    0.0000 C   0  0  0  0  0  0  0  0  0  0  0  0
   -1.2237   -2.6158    0.0000 C   0  0  0  0  0  0  0  0  0  0  0  0
    0.1978   -2.6158    0.0000 C   0  0  0  0  0  0  0  0  0  0  0  0
  1 16  1  0  0  0  0
  2 17  1  0  0  0  0
  3  7  1  0  0  0  0
  3 10  1  0  0  0  0
  3 15  1  0  0  0  0
  4 11  2  0  0  0  0
  4 16  1  0  0  0  0
  5 19  1  0  0  0  0
  5 21  1  0  0  0  0
  5 22  1  0  0  0  0
  6 23  1  0  0  0  0
  6 24  1  0  0  0  0
  7  8  2  0  0  0  0
  7 11  1  0  0  0  0
  8  9  1  0  0  0  0
  8 12  1  0  0  0  0
  9 10  2  0  0  0  0
  9 14  1  0  0  0  0
 10 13  1  0  0  0  0
 11 20  1  0  0  0  0
 12 16  2  0  0  0  0
 13 17  2  0  0  0  0
 14 18  2  0  0  0  0
 15 19  1  0  0  0  0
 17 18  1  0  0  0  0
 21 23  1  0  0  0  0
 22 24  1  0  0  0  0
M  END
> <PUBCHEM_COMPOUND_ID_TYPE>
0

> <PUBCHEM_TOTAL_CHARGE>
0

> <PUBCHEM_SUBSTANCE_ID>
310945491

> <PUBCHEM_SUBSTANCE_VERSION>
1

> <PUBCHEM_EXT_DATASOURCE_NAME>
4488

> <PUBCHEM_EXT_DATASOURCE_REGID>
SCHEMBL16123589

> <PUBCHEM_SUBSTANCE_COMMENT>
InChI=1S/C18H21FN4O/c1-12-18-15(11-17(19)21-12)14-3-2-13(24)10-16(14)23(18)9-8-22-6-4-20-5-7-22/h2-3,10-11,20,24H,4-9H2,1H3
InChIKey=IXDYPHOYDVBLEF-UHFFFAOYSA-N

> <PUBCHEM_SUBSTANCE_SYNONYM>
SCHEMBL16123589

> <PUBCHEM_XREF_EXT_ID>
SCHEMBL16123589

> <PUBCHEM_EXT_DATASOURCE_URL>
https://www.surechembl.org/

> <PUBCHEM_EXT_SUBSTANCE_URL>
https://www.surechembl.org/chemical/SCHEMBL16123589

> <PUBCHEM_CID_ASSOCIATIONS>
117611534  1

> <PUBCHEM_COORDINATE_TYPE>
1
3

$$$$
