310934105
  -OEChem-07211613022D

 34 39  0     0  0  0  0  0  0999 V2000
    5.0168   -4.9233    0.0000 N   0  0  0  0  0  0  0  0  0  0  0  0
    4.9856   -5.7335    0.0000 N   0  0  0  0  0  0  0  0  0  0  0  0
    4.0508   -3.8327    0.0000 N   0  0  0  0  0  0  0  0  0  0  0  0
    1.2464   -5.3284    0.0000 N   0  0  0  0  0  0  0  0  0  0  0  0
    7.9458   -1.3399    0.0000 N   0  0  0  0  0  0  0  0  0  0  0  0
    0.4362   -2.4616    0.0000 N   0  0  0  0  0  0  0  0  0  0  0  0
    9.1922   -0.2493    0.0000 N   0  0  0  0  0  0  0  0  0  0  0  0
    3.7392   -5.3284    0.0000 C   0  0  0  0  0  0  0  0  0  0  0  0
    4.2066   -4.6429    0.0000 C   0  0  0  0  0  0  0  0  0  0  0  0
    2.8979   -5.3284    0.0000 C   0  0  0  0  0  0  0  0  0  0  0  0
    2.4928   -4.6117    0.0000 C   0  0  0  0  0  0  0  0  0  0  0  0
    4.2066   -6.0139    0.0000 C   0  0  0  0  0  0  0  0  0  0  0  0
    1.6515   -4.6117    0.0000 C   0  0  0  0  0  0  0  0  0  0  0  0
    5.4530   -3.5523    0.0000 C   0  0  0  0  0  0  0  0  0  0  0  0
    5.6400   -4.3313    0.0000 C   0  0  0  0  0  0  0  0  0  0  0  0
    2.4928   -6.0451    0.0000 C   0  0  0  0  0  0  0  0  0  0  0  0
    4.6429   -3.3029    0.0000 C   0  0  0  0  0  0  0  0  0  0  0  0
    6.0762   -2.9913    0.0000 C   0  0  0  0  0  0  0  0  0  0  0  0
    2.8979   -3.8950    0.0000 C   0  0  0  0  0  0  0  0  0  0  0  0
    1.2464   -3.8950    0.0000 C   0  0  0  0  0  0  0  0  0  0  0  0
    1.6515   -6.0451    0.0000 C   0  0  0  0  0  0  0  0  0  0  0  0
    1.6515   -3.1783    0.0000 C   0  0  0  0  0  0  0  0  0  0  0  0
    2.4928   -3.1783    0.0000 C   0  0  0  0  0  0  0  0  0  0  0  0
    5.9204   -2.1812    0.0000 C   0  0  0  0  0  0  0  0  0  0  0  0
    6.8864   -3.2718    0.0000 C   0  0  0  0  0  0  0  0  0  0  0  0
    7.3226   -1.9007    0.0000 C   0  0  0  0  0  0  0  0  0  0  0  0
    6.5436   -1.6203    0.0000 C   0  0  0  0  0  0  0  0  0  0  0  0
    7.4784   -2.7109    0.0000 C   0  0  0  0  0  0  0  0  0  0  0  0
    1.2464   -2.4616    0.0000 C   0  0  0  0  0  0  0  0  0  0  0  0
    8.7248   -1.6203    0.0000 C   0  0  0  0  0  0  0  0  0  0  0  0
    7.7900   -0.5297    0.0000 C   0  0  0  0  0  0  0  0  0  0  0  0
    8.4132    0.0000    0.0000 C   0  0  0  0  0  0  0  0  0  0  0  0
    9.3480   -1.0594    0.0000 C   0  0  0  0  0  0  0  0  0  0  0  0
    0.0000   -1.7449    0.0000 C   0  0  0  0  0  0  0  0  0  0  0  0
  1  2  1  0  0  0  0
  1  9  1  0  0  0  0
  1 15  1  0  0  0  0
  2 12  2  0  0  0  0
  3  9  1  0  0  0  0
  3 17  2  0  0  0  0
  4 13  2  0  0  0  0
  4 21  1  0  0  0  0
  5 26  1  0  0  0  0
  5 30  1  0  0  0  0
  5 31  1  0  0  0  0
  6 29  1  0  0  0  0
  6 34  1  0  0  0  0
  7 32  1  0  0  0  0
  7 33  1  0  0  0  0
  8  9  2  0  0  0  0
  8 10  1  0  0  0  0
  8 12  1  0  0  0  0
 10 11  2  0  0  0  0
 10 16  1  0  0  0  0
 11 13  1  0  0  0  0
 11 19  1  0  0  0  0
 13 20  1  0  0  0  0
 14 15  2  0  0  0  0
 14 17  1  0  0  0  0
 14 18  1  0  0  0  0
 16 21  2  0  0  0  0
 18 24  2  0  0  0  0
 18 25  1  0  0  0  0
 19 23  2  0  0  0  0
 20 22  2  0  0  0  0
 22 23  1  0  0  0  0
 22 29  1  0  0  0  0
 24 27  1  0  0  0  0
 25 28  2  0  0  0  0
 26 27  2  0  0  0  0
 26 28  1  0  0  0  0
 30 33  1  0  0  0  0
 31 32  1  0  0  0  0
M  END
> <PUBCHEM_COMPOUND_ID_TYPE>
0

> <PUBCHEM_TOTAL_CHARGE>
0

> <PUBCHEM_SUBSTANCE_ID>
310934105

> <PUBCHEM_SUBSTANCE_VERSION>
1

> <PUBCHEM_EXT_DATASOURCE_NAME>
4488

> <PUBCHEM_EXT_DATASOURCE_REGID>
SCHEMBL16111551

> <PUBCHEM_SUBSTANCE_COMMENT>
InChI=1S/C27H27N7/c1-28-15-19-2-7-24-23(8-9-30-26(24)14-19)25-17-32-34-18-21(16-31-27(25)34)20-3-5-22(6-4-20)33-12-10-29-11-13-33/h2-9,14,16-18,28-29H,10-13,15H2,1H3
InChIKey=QZRFOUZVAXYJTM-UHFFFAOYSA-N

> <PUBCHEM_SUBSTANCE_SYNONYM>
SCHEMBL16111551

> <PUBCHEM_XREF_EXT_ID>
SCHEMBL16111551

> <PUBCHEM_EXT_DATASOURCE_URL>
https://www.surechembl.org/

> <PUBCHEM_EXT_SUBSTANCE_URL>
https://www.surechembl.org/chemical/SCHEMBL16111551

> <PUBCHEM_CID_ASSOCIATIONS>
86275721  1

> <PUBCHEM_COORDINATE_TYPE>
1
3

$$$$
