310937695
  -OEChem-07211613022D

 27 30  0     0  0  0  0  0  0999 V2000
    1.6551   -3.9834    0.0000 F   0  0  0  0  0  0  0  0  0  0  0  0
    1.8234   -5.6104    0.0000 O   0  0  0  0  0  0  0  0  0  0  0  0
    2.0759   -2.9174    0.0000 O   0  0  0  0  0  0  0  0  0  0  0  0
    6.1433   -2.2161    0.0000 O   0  0  0  0  0  0  0  0  0  0  0  0
    0.0842   -4.4322    0.0000 O   0  0  0  0  0  0  0  0  0  0  0  0
    4.3200   -3.8992    0.0000 N   0  0  0  0  0  0  0  0  0  0  0  0
    4.8810   -1.8234    0.0000 N   0  0  0  0  0  0  0  0  0  0  0  0
    5.6665   -2.8893    0.0000 N   0  0  0  0  0  0  0  0  0  0  0  0
    2.2442   -4.5163    0.0000 C   0  0  0  0  0  0  0  0  0  0  0  0
    2.9174   -4.0395    0.0000 C   0  0  0  0  0  0  0  0  0  0  0  0
    2.8333   -3.2540    0.0000 C   0  0  0  0  0  0  0  0  0  0  0  0
    4.2358   -3.1138    0.0000 C   0  0  0  0  0  0  0  0  0  0  0  0
    4.8810   -2.6369    0.0000 C   0  0  0  0  0  0  0  0  0  0  0  0
    3.4784   -2.7491    0.0000 C   0  0  0  0  0  0  0  0  0  0  0  0
    1.4868   -4.8810    0.0000 C   0  0  0  0  0  0  0  0  0  0  0  0
    2.6088   -5.2737    0.0000 C   0  0  0  0  0  0  0  0  0  0  0  0
    3.6748   -4.4041    0.0000 C   0  0  0  0  0  0  0  0  0  0  0  0
    5.6665   -1.5429    0.0000 C   0  0  0  0  0  0  0  0  0  0  0  0
    5.9190   -0.7574    0.0000 C   0  0  0  0  0  0  0  0  0  0  0  0
    1.4306   -3.4223    0.0000 C   0  0  0  0  0  0  0  0  0  0  0  0
    0.6452   -3.1138    0.0000 C   0  0  0  0  0  0  0  0  0  0  0  0
    1.4868   -4.2639    0.0000 C   0  0  0  0  0  0  0  0  0  0  0  0
    6.7324   -1.0379    0.0000 C   0  0  0  0  0  0  0  0  0  0  0  0
    6.1714    0.0000    0.0000 C   0  0  0  0  0  0  0  0  0  0  0  0
    5.1616   -0.5049    0.0000 C   0  0  0  0  0  0  0  0  0  0  0  0
    0.0000   -3.6187    0.0000 C   0  0  0  0  0  0  0  0  0  0  0  0
    0.8696   -4.7408    0.0000 C   0  0  0  0  0  0  0  0  0  0  0  0
  1  9  1  0  0  0  0
  2 15  1  0  0  0  0
  2 16  1  0  0  0  0
  3 11  1  0  0  0  0
  3 20  1  0  0  0  0
  4  8  1  0  0  0  0
  4 18  1  0  0  0  0
  5 26  1  0  0  0  0
  5 27  1  0  0  0  0
  6 12  1  0  0  0  0
  6 17  2  0  0  0  0
  7 13  1  0  0  0  0
  7 18  2  0  0  0  0
  8 13  2  0  0  0  0
  9 10  1  0  0  0  0
  9 15  1  0  0  0  0
  9 16  1  0  0  0  0
 10 11  2  0  0  0  0
 10 17  1  0  0  0  0
 11 14  1  0  0  0  0
 12 13  1  0  0  0  0
 12 14  2  0  0  0  0
 18 19  1  0  0  0  0
 19 23  1  0  0  0  0
 19 24  1  0  0  0  0
 19 25  1  0  0  0  0
 20 21  1  0  0  0  0
 20 22  1  0  0  0  0
 21 26  1  0  0  0  0
 22 27  1  0  0  0  0
M  END
> <PUBCHEM_COMPOUND_ID_TYPE>
0

> <PUBCHEM_TOTAL_CHARGE>
0

> <PUBCHEM_SUBSTANCE_ID>
310937695

> <PUBCHEM_SUBSTANCE_VERSION>
1

> <PUBCHEM_EXT_DATASOURCE_NAME>
4488

> <PUBCHEM_EXT_DATASOURCE_REGID>
SCHEMBL16115488

> <PUBCHEM_SUBSTANCE_COMMENT>
InChI=1S/C19H24FN3O4/c1-18(2,3)17-22-16(23-27-17)14-8-15(26-12-4-6-24-7-5-12)13(9-21-14)19(20)10-25-11-19/h8-9,12H,4-7,10-11H2,1-3H3
InChIKey=BZKCRABBWHSWAK-UHFFFAOYSA-N

> <PUBCHEM_SUBSTANCE_SYNONYM>
SCHEMBL16115488

> <PUBCHEM_XREF_EXT_ID>
SCHEMBL16115488

> <PUBCHEM_EXT_DATASOURCE_URL>
https://www.surechembl.org/

> <PUBCHEM_EXT_SUBSTANCE_URL>
https://www.surechembl.org/chemical/SCHEMBL16115488

> <PUBCHEM_CID_ASSOCIATIONS>
117605376  1

> <PUBCHEM_COORDINATE_TYPE>
1
3

$$$$
