310949343
  -OEChem-07211613022D

 32 36  0     1  0  0  0  0  0999 V2000
    0.2773    2.6395    0.0000 F   0  0  0  0  0  0  0  0  0  0  0  0
    0.5443    1.5714    0.0000 F   0  0  0  0  0  0  0  0  0  0  0  0
   -0.5238    1.3249    0.0000 F   0  0  0  0  0  0  0  0  0  0  0  0
   -2.2903   -2.5778    0.0000 O   0  0  0  0  0  0  0  0  0  0  0  0
    1.0373   -0.1336    0.0000 O   0  0  0  0  0  0  0  0  0  0  0  0
    2.2903   -0.6470    0.0000 O   0  0  0  0  0  0  0  0  0  0  0  0
   -1.5509   -1.3454    0.0000 N   0  0  0  0  0  0  0  0  0  0  0  0
   -0.0308   -2.3314    0.0000 N   0  0  0  0  0  0  0  0  0  0  0  0
   -0.8319   -3.3995    0.0000 N   0  0  0  0  0  0  0  0  0  0  0  0
   -0.0308   -3.6459    0.0000 N   0  0  0  0  0  0  0  0  0  0  0  0
   -0.8113   -2.5573    0.0000 C   0  0  0  0  0  0  0  0  0  0  0  0
   -1.1605   -0.0719    0.0000 C   0  0  3  0  0  0  0  0  0  0  0  0
   -1.9822   -0.0513    0.0000 C   0  0  3  0  0  0  0  0  0  0  0  0
   -1.5509   -2.1465    0.0000 C   0  0  0  0  0  0  0  0  0  0  0  0
   -1.5714    1.1811    0.0000 C   0  0  0  0  0  0  0  0  0  0  0  0
    0.4622   -2.9681    0.0000 C   0  0  0  0  0  0  0  0  0  0  0  0
   -1.5714    2.0233    0.0000 C   0  0  0  0  0  0  0  0  0  0  0  0
   -0.8730   -0.8319    0.0000 C   0  0  0  0  0  0  0  0  0  0  0  0
   -2.2286   -0.8524    0.0000 C   0  0  0  0  0  0  0  0  0  0  0  0
   -0.8935    0.7087    0.0000 C   0  0  0  0  0  0  0  0  0  0  0  0
   -2.2286    0.6881    0.0000 C   0  0  0  0  0  0  0  0  0  0  0  0
   -0.8524    2.4341    0.0000 C   0  0  0  0  0  0  0  0  0  0  0  0
    0.2979   -1.5714    0.0000 C   0  0  0  0  0  0  0  0  0  0  0  0
    1.1194   -1.4481    0.0000 C   0  0  0  0  0  0  0  0  0  0  0  0
   -0.1335    1.9822    0.0000 C   0  0  0  0  0  0  0  0  0  0  0  0
    1.2838   -2.9065    0.0000 C   0  0  0  0  0  0  0  0  0  0  0  0
   -2.2697    2.4135    0.0000 C   0  0  0  0  0  0  0  0  0  0  0  0
    1.6330   -2.1465    0.0000 C   0  0  0  0  0  0  0  0  0  0  0  0
   -0.8524    3.2557    0.0000 C   0  0  0  0  0  0  0  0  0  0  0  0
    1.4686   -0.7292    0.0000 C   0  0  0  0  0  0  0  0  0  0  0  0
   -2.2697    3.2557    0.0000 C   0  0  0  0  0  0  0  0  0  0  0  0
   -1.5509    3.6459    0.0000 C   0  0  0  0  0  0  0  0  0  0  0  0
  1 25  1  0  0  0  0
  2 25  1  0  0  0  0
  3 25  1  0  0  0  0
  4 14  2  0  0  0  0
  5 30  2  0  0  0  0
  6 30  1  0  0  0  0
  7 14  1  0  0  0  0
  7 18  1  0  0  0  0
  7 19  1  0  0  0  0
  8 11  1  0  0  0  0
  8 16  1  0  0  0  0
  8 23  1  0  0  0  0
  9 10  1  0  0  0  0
  9 11  2  0  0  0  0
 10 16  2  0  0  0  0
 11 14  1  0  0  0  0
 12 13  1  0  0  0  0
 12 18  1  1  0  0  0
 12 20  1  0  0  0  0
 13 19  1  0  0  0  0
 13 21  1  0  0  0  0
 15 17  1  0  0  0  0
 15 20  1  0  0  0  0
 15 21  1  0  0  0  0
 16 26  1  0  0  0  0
 17 22  2  0  0  0  0
 17 27  1  0  0  0  0
 22 25  1  0  0  0  0
 22 29  1  0  0  0  0
 23 24  2  0  0  0  0
 24 28  1  0  0  0  0
 24 30  1  0  0  0  0
 26 28  2  0  0  0  0
 27 31  2  0  0  0  0
 29 32  2  0  0  0  0
 31 32  1  0  0  0  0
M  END
> <PUBCHEM_COMPOUND_ID_TYPE>
0

> <PUBCHEM_TOTAL_CHARGE>
0

> <PUBCHEM_SUBSTANCE_ID>
310949343

> <PUBCHEM_SUBSTANCE_VERSION>
1

> <PUBCHEM_EXT_DATASOURCE_NAME>
4488

> <PUBCHEM_EXT_DATASOURCE_REGID>
SCHEMBL16127533

> <PUBCHEM_SUBSTANCE_COMMENT>
InChI=1S/C22H19F3N4O3/c23-22(24,25)17-4-2-1-3-16(17)13-7-14-9-28(10-15(14)8-13)20(30)19-27-26-18-6-5-12(21(31)32)11-29(18)19/h1-6,11,13-15H,7-10H2,(H,31,32)/t13?,14-,15?/m0/s1
InChIKey=RCMYGIGQPNYOAL-SLTAFYQDSA-N

> <PUBCHEM_SUBSTANCE_SYNONYM>
SCHEMBL16127533

> <PUBCHEM_XREF_EXT_ID>
SCHEMBL16127533

> <PUBCHEM_EXT_DATASOURCE_URL>
https://www.surechembl.org/

> <PUBCHEM_EXT_SUBSTANCE_URL>
https://www.surechembl.org/chemical/SCHEMBL16127533

> <PUBCHEM_CID_ASSOCIATIONS>
117614818  1

> <PUBCHEM_COORDINATE_TYPE>
1
3

> <PUBCHEM_BONDANNOTATIONS>
12  18  5

$$$$
