310933130
  -OEChem-07211613022D

 18 20  0     0  0  0  0  0  0999 V2000
    6.3547   -2.4783    0.0000 O   0  0  0  0  0  0  0  0  0  0  0  0
    2.8384   -1.2498    0.0000 N   0  0  0  0  0  0  0  0  0  0  0  0
    0.0212   -0.4236    0.0000 N   0  0  0  0  0  0  0  0  0  0  0  0
    3.5374   -1.6522    0.0000 C   0  0  0  0  0  0  0  0  0  0  0  0
    3.5374   -2.4783    0.0000 C   0  0  0  0  0  0  0  0  0  0  0  0
    2.1182   -1.6522    0.0000 C   0  0  0  0  0  0  0  0  0  0  0  0
    1.3980   -1.2498    0.0000 C   0  0  0  0  0  0  0  0  0  0  0  0
    2.8384   -2.8808    0.0000 C   0  0  0  0  0  0  0  0  0  0  0  0
    2.1182   -2.4783    0.0000 C   0  0  0  0  0  0  0  0  0  0  0  0
    4.2153   -2.8808    0.0000 C   0  0  0  0  0  0  0  0  0  0  0  0
    4.2153   -1.2498    0.0000 C   0  0  0  0  0  0  0  0  0  0  0  0
    4.9354   -2.4783    0.0000 C   0  0  0  0  0  0  0  0  0  0  0  0
    4.9354   -1.6522    0.0000 C   0  0  0  0  0  0  0  0  0  0  0  0
    1.4192   -0.4448    0.0000 C   0  0  0  0  0  0  0  0  0  0  0  0
    0.6990   -1.6734    0.0000 C   0  0  0  0  0  0  0  0  0  0  0  0
    5.6557   -2.8808    0.0000 C   0  0  0  0  0  0  0  0  0  0  0  0
    0.7202    0.0000    0.0000 C   0  0  0  0  0  0  0  0  0  0  0  0
    0.0000   -1.2286    0.0000 C   0  0  0  0  0  0  0  0  0  0  0  0
  1 16  2  0  0  0  0
  2  4  2  0  0  0  0
  2  6  1  0  0  0  0
  3 17  2  0  0  0  0
  3 18  1  0  0  0  0
  4  5  1  0  0  0  0
  4 11  1  0  0  0  0
  5  8  2  0  0  0  0
  5 10  1  0  0  0  0
  6  7  1  0  0  0  0
  6  9  2  0  0  0  0
  7 14  2  0  0  0  0
  7 15  1  0  0  0  0
  8  9  1  0  0  0  0
 10 12  2  0  0  0  0
 11 13  2  0  0  0  0
 12 13  1  0  0  0  0
 12 16  1  0  0  0  0
 14 17  1  0  0  0  0
 15 18  2  0  0  0  0
M  END
> <PUBCHEM_COMPOUND_ID_TYPE>
0

> <PUBCHEM_TOTAL_CHARGE>
0

> <PUBCHEM_SUBSTANCE_ID>
310933130

> <PUBCHEM_SUBSTANCE_VERSION>
1

> <PUBCHEM_EXT_DATASOURCE_NAME>
4488

> <PUBCHEM_EXT_DATASOURCE_REGID>
SCHEMBL16110536

> <PUBCHEM_SUBSTANCE_COMMENT>
InChI=1S/C15H10N2O/c18-10-11-1-3-15-13(9-11)2-4-14(17-15)12-5-7-16-8-6-12/h1-10H
InChIKey=SVAHOMQEQMAPDG-UHFFFAOYSA-N

> <PUBCHEM_SUBSTANCE_SYNONYM>
SCHEMBL16110536

> <PUBCHEM_XREF_EXT_ID>
SCHEMBL16110536

> <PUBCHEM_EXT_DATASOURCE_URL>
https://www.surechembl.org/

> <PUBCHEM_EXT_SUBSTANCE_URL>
https://www.surechembl.org/chemical/SCHEMBL16110536

> <PUBCHEM_CID_ASSOCIATIONS>
117601585  1

> <PUBCHEM_COORDINATE_TYPE>
1
3

$$$$
