310942856
  -OEChem-07211613022D

 55 60  0     1  0  0  0  0  0999 V2000
   -4.2811    2.1332    0.0000 F   0  0  0  0  0  0  0  0  0  0  0  0
   -3.9280   -1.1622    0.0000 F   0  0  0  0  0  0  0  0  0  0  0  0
    2.3833    0.9562    0.0000 F   0  0  0  0  0  0  0  0  0  0  0  0
   -1.4859    0.4414    0.0000 O   0  0  0  0  0  0  0  0  0  0  0  0
    0.5737    4.0310    0.0000 O   0  0  0  0  0  0  0  0  0  0  0  0
    0.5737   -1.7065    0.0000 O   0  0  0  0  0  0  0  0  0  0  0  0
    2.3244   -4.7813    0.0000 O   0  0  0  0  0  0  0  0  0  0  0  0
    4.8548   -3.3248    0.0000 O   0  0  0  0  0  0  0  0  0  0  0  0
   -1.4859   -2.4275    0.0000 O   0  0  0  0  0  0  0  0  0  0  0  0
    0.5737   -3.1336    0.0000 O   0  0  0  0  0  0  0  0  0  0  0  0
   -1.9861    2.5451    0.0000 N   0  0  0  0  0  0  0  0  0  0  0  0
   -0.2501    1.1622    0.0000 N   0  0  0  0  0  0  0  0  0  0  0  0
   -1.9861    1.2064    0.0000 N   0  0  0  0  0  0  0  0  0  0  0  0
   -0.2501   -0.2648    0.0000 N   0  0  0  0  0  0  0  0  0  0  0  0
    1.2505   -0.8680    0.0000 N   0  0  0  0  0  0  0  0  0  0  0  0
    3.4719   -3.8544    0.0000 N   0  0  0  0  0  0  0  0  0  0  0  0
    1.8095   -2.4127    0.0000 N   0  0  0  0  0  0  0  0  0  0  0  0
   -1.5005    1.8831    0.0000 C   0  0  0  0  0  0  0  0  0  0  0  0
   -0.6621    1.8684    0.0000 C   0  0  3  0  0  0  0  0  0  0  0  0
   -2.7805    1.4565    0.0000 C   0  0  0  0  0  0  0  0  0  0  0  0
   -0.2501    2.6040    0.0000 C   0  0  0  0  0  0  0  0  0  0  0  0
   -2.7658    2.2950    0.0000 C   0  0  0  0  0  0  0  0  0  0  0  0
   -3.4425    0.9857    0.0000 C   0  0  0  0  0  0  0  0  0  0  0  0
   -0.6473    0.4414    0.0000 C   0  0  0  0  0  0  0  0  0  0  0  0
   -1.7212    3.3395    0.0000 C   0  0  0  0  0  0  0  0  0  0  0  0
    0.5737    1.1622    0.0000 C   0  0  0  0  0  0  0  0  0  0  0  0
   -4.2076    1.3240    0.0000 C   0  0  0  0  0  0  0  0  0  0  0  0
   -3.3690    0.1471    0.0000 C   0  0  0  0  0  0  0  0  0  0  0  0
    0.9857    0.4561    0.0000 C   0  0  3  0  0  0  0  0  0  0  0  0
   -0.6621    3.2954    0.0000 C   0  0  0  0  0  0  0  0  0  0  0  0
    0.5737    2.5893    0.0000 C   0  0  0  0  0  0  0  0  0  0  0  0
   -2.6481    3.9133    0.0000 C   0  0  0  0  0  0  0  0  0  0  0  0
   -4.0163   -0.3236    0.0000 C   0  0  0  0  0  0  0  0  0  0  0  0
   -4.8548    0.8239    0.0000 C   0  0  0  0  0  0  0  0  0  0  0  0
    1.8095    0.3383    0.0000 C   0  0  3  0  0  0  0  0  0  0  0  0
   -4.7813    0.0000    0.0000 C   0  0  0  0  0  0  0  0  0  0  0  0
   -0.2501    4.0310    0.0000 C   0  0  0  0  0  0  0  0  0  0  0  0
    0.9857    3.2954    0.0000 C   0  0  0  0  0  0  0  0  0  0  0  0
    0.6768   -0.2796    0.0000 C   0  0  0  0  0  0  0  0  0  0  0  0
   -2.6187    4.7077    0.0000 C   0  0  0  0  0  0  0  0  0  0  0  0
   -3.3690    3.5161    0.0000 C   0  0  0  0  0  0  0  0  0  0  0  0
    1.9714   -0.4708    0.0000 C   0  0  0  0  0  0  0  0  0  0  0  0
   -0.6621   -1.0004    0.0000 C   0  0  0  0  0  0  0  0  0  0  0  0
   -3.3248    5.1491    0.0000 C   0  0  0  0  0  0  0  0  0  0  0  0
   -4.0751    3.9427    0.0000 C   0  0  0  0  0  0  0  0  0  0  0  0
   -0.2501   -1.6918    0.0000 C   0  0  3  0  0  0  0  0  0  0  0  0
   -4.0604    4.7666    0.0000 C   0  0  0  0  0  0  0  0  0  0  0  0
    3.1483   -4.5901    0.0000 C   0  0  0  0  0  0  0  0  0  0  0  0
    4.2811   -3.9574    0.0000 C   0  0  0  0  0  0  0  0  0  0  0  0
   -0.6621   -2.4127    0.0000 C   0  0  0  0  0  0  0  0  0  0  0  0
    1.0004   -2.3980    0.0000 C   0  0  0  0  0  0  0  0  0  0  0  0
    3.7662   -5.1491    0.0000 C   0  0  0  0  0  0  0  0  0  0  0  0
    4.4576   -4.7519    0.0000 C   0  0  0  0  0  0  0  0  0  0  0  0
    3.0747   -3.1483    0.0000 C   0  0  0  0  0  0  0  0  0  0  0  0
    2.2215   -3.1188    0.0000 C   0  0  0  0  0  0  0  0  0  0  0  0
  1 27  1  0  0  0  0
  2 33  1  0  0  0  0
 35  3  1  1  0  0  0
  4 24  2  0  0  0  0
  5 37  1  0  0  0  0
  5 38  1  0  0  0  0
 46  6  1  1  0  0  0
  6 51  1  0  0  0  0
  7 48  2  0  0  0  0
  8 49  2  0  0  0  0
  9 50  1  0  0  0  0
 10 51  2  0  0  0  0
 11 18  1  0  0  0  0
 11 22  1  0  0  0  0
 11 25  1  0  0  0  0
 19 12  1  1  0  0  0
 12 24  1  0  0  0  0
 12 26  1  0  0  0  0
 13 18  2  0  0  0  0
 13 20  1  0  0  0  0
 14 24  1  0  0  0  0
 14 43  1  0  0  0  0
 15 39  1  0  0  0  0
 15 42  1  0  0  0  0
 16 48  1  0  0  0  0
 16 49  1  0  0  0  0
 16 54  1  0  0  0  0
 17 51  1  0  0  0  0
 17 55  1  0  0  0  0
 18 19  1  0  0  0  0
 19 21  1  0  0  0  0
 20 22  2  0  0  0  0
 20 23  1  0  0  0  0
 21 30  1  0  0  0  0
 21 31  1  0  0  0  0
 23 27  1  0  0  0  0
 23 28  2  0  0  0  0
 25 32  1  0  0  0  0
 29 26  1  1  0  0  0
 27 34  2  0  0  0  0
 28 33  1  0  0  0  0
 29 35  1  0  0  0  0
 29 39  1  0  0  0  0
 30 37  1  0  0  0  0
 31 38  1  0  0  0  0
 32 40  2  0  0  0  0
 32 41  1  0  0  0  0
 33 36  2  0  0  0  0
 34 36  1  0  0  0  0
 35 42  1  0  0  0  0
 40 44  1  0  0  0  0
 41 45  2  0  0  0  0
 43 46  1  0  0  0  0
 44 47  2  0  0  0  0
 45 47  1  0  0  0  0
 46 50  1  0  0  0  0
 48 52  1  0  0  0  0
 49 53  1  0  0  0  0
 52 53  2  0  0  0  0
 54 55  1  0  0  0  0
M  END
> <PUBCHEM_COMPOUND_ID_TYPE>
0

> <PUBCHEM_TOTAL_CHARGE>
0

> <PUBCHEM_SUBSTANCE_ID>
310942856

> <PUBCHEM_SUBSTANCE_VERSION>
1

> <PUBCHEM_EXT_DATASOURCE_NAME>
4488

> <PUBCHEM_EXT_DATASOURCE_REGID>
SCHEMBL16120913

> <PUBCHEM_SUBSTANCE_COMMENT>
InChI=1S/C38H44F3N7O7/c39-27-6-7-30(40)29(16-27)32-22-46(20-24-4-2-1-3-5-24)36(45-32)35(25-10-14-54-15-11-25)48(21-26-17-42-19-31(26)41)37(52)44-18-28(23-49)55-38(53)43-12-13-47-33(50)8-9-34(47)51/h1-9,16,22,25-26,28,31,35,42,49H,10-15,17-21,23H2,(H,43,53)(H,44,52)/t26-,28+,31-,35+/m0/s1
InChIKey=QDNMWBXGXXBLHI-ZHEYWLKQSA-N

> <PUBCHEM_SUBSTANCE_SYNONYM>
SCHEMBL16120913

> <PUBCHEM_XREF_EXT_ID>
SCHEMBL16120913

> <PUBCHEM_EXT_DATASOURCE_URL>
https://www.surechembl.org/

> <PUBCHEM_EXT_SUBSTANCE_URL>
https://www.surechembl.org/chemical/SCHEMBL16120913

> <PUBCHEM_CID_ASSOCIATIONS>
117609346  1

> <PUBCHEM_COORDINATE_TYPE>
1
3

> <PUBCHEM_BONDANNOTATIONS>
19  12  5
29  26  5
35  3  5
46  6  5

$$$$
