310944546
  -OEChem-07211613022D

 19 20  0     1  0  0  0  0  0999 V2000
    3.0584   -1.8176    0.0000 S   0  0  0  0  0  0  0  0  0  0  0  0
    1.7592   -0.6657    0.0000 O   0  0  0  0  0  0  0  0  0  0  0  0
    3.0516   -1.2818    0.0000 O   0  0  0  0  0  0  0  0  0  0  0  0
    3.0449   -2.3600    0.0000 O   0  0  0  0  0  0  0  0  0  0  0  0
   -0.5833    0.8541    0.0000 N   0  0  0  0  0  0  0  0  0  0  0  0
   -0.0953    1.5234    0.0000 N   0  0  0  0  0  0  0  0  0  0  0  0
   -1.3921    1.1329    0.0000 C   0  0  0  0  0  0  0  0  0  0  0  0
   -1.3781    1.9557    0.0000 C   0  0  0  0  0  0  0  0  0  0  0  0
   -0.5973    2.1927    0.0000 C   0  0  0  0  0  0  0  0  0  0  0  0
   -2.1032    0.7147    0.0000 C   0  0  0  0  0  0  0  0  0  0  0  0
   -0.3324    0.0732    0.0000 C   0  0  0  0  0  0  0  0  0  0  0  0
   -2.1032    2.3600    0.0000 C   0  0  0  0  0  0  0  0  0  0  0  0
   -2.8283    1.1190    0.0000 C   0  0  0  0  0  0  0  0  0  0  0  0
    0.5182    0.0454    0.0000 C   0  0  3  0  0  0  0  0  0  0  0  0
   -2.8143    1.9557    0.0000 C   0  0  0  0  0  0  0  0  0  0  0  0
    0.9225   -0.6518    0.0000 C   0  0  0  0  0  0  0  0  0  0  0  0
   -3.5673    0.6729    0.0000 C   0  0  0  0  0  0  0  0  0  0  0  0
    0.9086    0.7705    0.0000 C   0  0  0  0  0  0  0  0  0  0  0  0
    3.5673   -1.8176    0.0000 C   0  0  0  0  0  0  0  0  0  0  0  0
  1  2  1  0  0  0  0
  1  3  2  0  0  0  0
  1  4  2  0  0  0  0
  1 19  1  0  0  0  0
  2 16  1  0  0  0  0
  5  6  1  0  0  0  0
  5  7  1  0  0  0  0
  5 11  1  0  0  0  0
  6  9  2  0  0  0  0
  7  8  1  0  0  0  0
  7 10  2  0  0  0  0
  8  9  1  0  0  0  0
  8 12  2  0  0  0  0
 10 13  1  0  0  0  0
 11 14  1  0  0  0  0
 12 15  1  0  0  0  0
 13 15  2  0  0  0  0
 13 17  1  0  0  0  0
 14 16  1  0  0  0  0
 14 18  1  6  0  0  0
M  END
> <PUBCHEM_COMPOUND_ID_TYPE>
0

> <PUBCHEM_TOTAL_CHARGE>
0

> <PUBCHEM_SUBSTANCE_ID>
310944546

> <PUBCHEM_SUBSTANCE_VERSION>
1

> <PUBCHEM_EXT_DATASOURCE_NAME>
4488

> <PUBCHEM_EXT_DATASOURCE_REGID>
SCHEMBL16122623

> <PUBCHEM_SUBSTANCE_COMMENT>
InChI=1S/C13H18N2O3S/c1-10-4-5-12-7-14-15(13(12)6-10)8-11(2)9-18-19(3,16)17/h4-7,11H,8-9H2,1-3H3/t11-/m0/s1
InChIKey=HCLRXNVZOMCHCZ-NSHDSACASA-N

> <PUBCHEM_SUBSTANCE_SYNONYM>
SCHEMBL16122623

> <PUBCHEM_XREF_EXT_ID>
SCHEMBL16122623

> <PUBCHEM_EXT_DATASOURCE_URL>
https://www.surechembl.org/

> <PUBCHEM_EXT_SUBSTANCE_URL>
https://www.surechembl.org/chemical/SCHEMBL16122623

> <PUBCHEM_CID_ASSOCIATIONS>
117610781  1

> <PUBCHEM_COORDINATE_TYPE>
1
3

> <PUBCHEM_BONDANNOTATIONS>
14  18  6

$$$$
