310943405
  -OEChem-07211613022D

 33 36  0     1  0  0  0  0  0999 V2000
   -2.8579   -0.1973    0.0000 O   0  0  0  0  0  0  0  0  0  0  0  0
   -4.2904    2.2732    0.0000 O   0  0  0  0  0  0  0  0  0  0  0  0
    4.2904   -1.0160    0.0000 O   0  0  0  0  0  0  0  0  0  0  0  0
    1.4253   -0.1973    0.0000 O   0  0  0  0  0  0  0  0  0  0  0  0
   -1.4253   -0.1973    0.0000 N   0  0  0  0  0  0  0  0  0  0  0  0
   -2.8579    1.4545    0.0000 N   0  0  0  0  0  0  0  0  0  0  0  0
    0.7090    2.6824    0.0000 N   0  0  0  0  0  0  0  0  0  0  0  0
    2.1416    1.0452    0.0000 N   0  0  0  0  0  0  0  0  0  0  0  0
   -0.7090    1.0452    0.0000 C   0  0  0  0  0  0  0  0  0  0  0  0
   -2.1416    1.0452    0.0000 C   0  0  0  0  0  0  0  0  0  0  0  0
   -0.0073    1.4545    0.0000 C   0  0  0  0  0  0  0  0  0  0  0  0
   -2.1416    0.2266    0.0000 C   0  0  0  0  0  0  0  0  0  0  0  0
   -1.4399    1.4545    0.0000 C   0  0  0  0  0  0  0  0  0  0  0  0
   -0.7236    0.2119    0.0000 C   0  0  0  0  0  0  0  0  0  0  0  0
    0.0073    2.2732    0.0000 C   0  0  0  0  0  0  0  0  0  0  0  0
    0.7090    1.0452    0.0000 C   0  0  0  0  0  0  0  0  0  0  0  0
    1.4253    1.4545    0.0000 C   0  0  0  0  0  0  0  0  0  0  0  0
    1.4399    2.2585    0.0000 C   0  0  0  0  0  0  0  0  0  0  0  0
    2.1416    0.2412    0.0000 C   0  0  0  0  0  0  0  0  0  0  0  0
    2.8579   -0.1827    0.0000 C   0  0  3  0  0  0  0  0  0  0  0  0
   -2.8579    2.2732    0.0000 C   0  0  0  0  0  0  0  0  0  0  0  0
   -3.5595    1.0452    0.0000 C   0  0  0  0  0  0  0  0  0  0  0  0
   -1.4107   -1.0306    0.0000 C   0  0  0  0  0  0  0  0  0  0  0  0
   -0.7236    2.6678    0.0000 C   0  0  0  0  0  0  0  0  0  0  0  0
    2.8579   -1.0014    0.0000 C   0  0  0  0  0  0  0  0  0  0  0  0
    3.5742   -1.4253    0.0000 C   0  0  3  0  0  0  0  0  0  0  0  0
    3.5742    0.2266    0.0000 C   0  0  0  0  0  0  0  0  0  0  0  0
   -3.5888    2.6824    0.0000 C   0  0  0  0  0  0  0  0  0  0  0  0
   -4.2758    1.4545    0.0000 C   0  0  0  0  0  0  0  0  0  0  0  0
    3.5595   -2.2732    0.0000 C   0  0  0  0  0  0  0  0  0  0  0  0
    4.2904   -0.1973    0.0000 C   0  0  0  0  0  0  0  0  0  0  0  0
    2.8433   -2.6678    0.0000 C   0  0  0  0  0  0  0  0  0  0  0  0
    4.2904   -2.6824    0.0000 C   0  0  0  0  0  0  0  0  0  0  0  0
  1 12  2  0  0  0  0
  2 28  1  0  0  0  0
  2 29  1  0  0  0  0
  3 26  1  0  0  0  0
  3 31  1  0  0  0  0
  4 19  2  0  0  0  0
  5 12  1  0  0  0  0
  5 14  1  0  0  0  0
  5 23  1  0  0  0  0
  6 10  1  0  0  0  0
  6 21  1  0  0  0  0
  6 22  1  0  0  0  0
  7 15  1  0  0  0  0
  7 18  2  0  0  0  0
  8 17  1  0  0  0  0
  8 19  1  0  0  0  0
  9 11  1  0  0  0  0
  9 13  1  0  0  0  0
  9 14  2  0  0  0  0
 10 12  1  0  0  0  0
 10 13  2  0  0  0  0
 11 15  2  0  0  0  0
 11 16  1  0  0  0  0
 15 24  1  0  0  0  0
 16 17  2  0  0  0  0
 17 18  1  0  0  0  0
 20 19  1  1  0  0  0
 20 25  1  0  0  0  0
 20 27  1  0  0  0  0
 21 28  1  0  0  0  0
 22 29  1  0  0  0  0
 25 26  1  0  0  0  0
 26 30  1  1  0  0  0
 27 31  1  0  0  0  0
 30 32  1  0  0  0  0
 30 33  1  0  0  0  0
M  END
> <PUBCHEM_COMPOUND_ID_TYPE>
0

> <PUBCHEM_TOTAL_CHARGE>
0

> <PUBCHEM_SUBSTANCE_ID>
310943405

> <PUBCHEM_SUBSTANCE_VERSION>
1

> <PUBCHEM_EXT_DATASOURCE_NAME>
4488

> <PUBCHEM_EXT_DATASOURCE_REGID>
SCHEMBL16121469

> <PUBCHEM_SUBSTANCE_COMMENT>
InChI=1S/C25H34N4O4/c1-16(2)23-12-18(5-8-33-23)24(30)27-20-13-21(17(3)26-14-20)19-11-22(25(31)28(4)15-19)29-6-9-32-10-7-29/h11,13-16,18,23H,5-10,12H2,1-4H3,(H,27,30)/t18-,23+/m0/s1
InChIKey=KGTGMKYADDSLIF-FDDCHVKYSA-N

> <PUBCHEM_SUBSTANCE_SYNONYM>
SCHEMBL16121469

> <PUBCHEM_XREF_EXT_ID>
SCHEMBL16121469

> <PUBCHEM_EXT_DATASOURCE_URL>
https://www.surechembl.org/

> <PUBCHEM_EXT_SUBSTANCE_URL>
https://www.surechembl.org/chemical/SCHEMBL16121469

> <PUBCHEM_CID_ASSOCIATIONS>
117609829  1

> <PUBCHEM_COORDINATE_TYPE>
1
3

> <PUBCHEM_BONDANNOTATIONS>
20  19  5
26  30  5

$$$$
