310945313
  -OEChem-07211613022D

 29 32  0     1  0  0  0  0  0999 V2000
    1.1911   -1.4864    0.0000 S   0  0  0  0  0  0  0  0  0  0  0  0
    2.7070   -2.1164    0.0000 O   0  0  0  0  0  0  0  0  0  0  0  0
   -0.8860    1.6242    0.0000 O   0  0  0  0  0  0  0  0  0  0  0  0
   -4.2426    1.4175    0.0000 O   0  0  0  0  0  0  0  0  0  0  0  0
    2.0574    0.4823    0.0000 N   0  0  0  0  0  0  0  0  0  0  0  0
    3.3469   -0.8564    0.0000 N   0  0  0  0  0  0  0  0  0  0  0  0
   -1.9491    0.6792    0.0000 N   0  0  0  0  0  0  0  0  0  0  0  0
   -3.6619    0.1181    0.0000 N   0  0  0  0  0  0  0  0  0  0  0  0
    0.7678   -0.2067    0.0000 C   0  0  0  0  0  0  0  0  0  0  0  0
    1.6045   -0.2067    0.0000 C   0  0  0  0  0  0  0  0  0  0  0  0
    1.8506   -1.0041    0.0000 C   0  0  0  0  0  0  0  0  0  0  0  0
    0.5119   -0.9942    0.0000 C   0  0  0  0  0  0  0  0  0  0  0  0
    0.2264    0.3937    0.0000 C   0  0  0  0  0  0  0  0  0  0  0  0
    2.6282   -1.2797    0.0000 C   0  0  0  0  0  0  0  0  0  0  0  0
   -0.5906    0.2362    0.0000 C   0  0  0  0  0  0  0  0  0  0  0  0
   -0.2953   -1.1616    0.0000 C   0  0  0  0  0  0  0  0  0  0  0  0
   -0.8269   -0.5611    0.0000 C   0  0  0  0  0  0  0  0  0  0  0  0
   -1.1517    0.8367    0.0000 C   0  0  0  0  0  0  0  0  0  0  0  0
    2.8842    0.5414    0.0000 C   0  0  0  0  0  0  0  0  0  0  0  0
    3.4650   -0.0394    0.0000 C   0  0  3  0  0  0  0  0  0  0  0  0
   -2.2149   -0.1181    0.0000 C   0  0  3  0  0  0  0  0  0  0  0  0
   -2.9925   -0.3741    0.0000 C   0  0  3  0  0  0  0  0  0  0  0  0
   -1.7325   -0.7875    0.0000 C   0  0  0  0  0  0  0  0  0  0  0  0
   -2.9925   -1.1911    0.0000 C   0  0  0  0  0  0  0  0  0  0  0  0
   -2.2049   -1.4470    0.0000 C   0  0  0  0  0  0  0  0  0  0  0  0
    4.2426    0.2067    0.0000 C   0  0  0  0  0  0  0  0  0  0  0  0
   -3.5634    0.9352    0.0000 C   0  0  0  0  0  0  0  0  0  0  0  0
   -2.8251    1.2698    0.0000 C   0  0  0  0  0  0  0  0  0  0  0  0
   -2.7759    2.1164    0.0000 C   0  0  0  0  0  0  0  0  0  0  0  0
  1 11  1  0  0  0  0
  1 12  1  0  0  0  0
  2 14  2  0  0  0  0
  3 18  2  0  0  0  0
  4 27  2  0  0  0  0
  5 10  1  0  0  0  0
  5 19  1  0  0  0  0
  6 14  1  0  0  0  0
  6 20  1  0  0  0  0
  7 18  1  0  0  0  0
  7 21  1  0  0  0  0
  8 22  1  0  0  0  0
  8 27  1  0  0  0  0
  9 10  1  0  0  0  0
  9 12  1  0  0  0  0
  9 13  2  0  0  0  0
 10 11  2  0  0  0  0
 11 14  1  0  0  0  0
 12 16  2  0  0  0  0
 13 15  1  0  0  0  0
 15 17  2  0  0  0  0
 15 18  1  0  0  0  0
 16 17  1  0  0  0  0
 19 20  1  0  0  0  0
 20 26  1  1  0  0  0
 21 22  1  0  0  0  0
 21 23  1  0  0  0  0
 22 24  1  0  0  0  0
 23 25  1  0  0  0  0
 24 25  1  0  0  0  0
 27 28  1  0  0  0  0
 28 29  2  0  0  0  0
M  END
> <PUBCHEM_COMPOUND_ID_TYPE>
0

> <PUBCHEM_TOTAL_CHARGE>
0

> <PUBCHEM_SUBSTANCE_ID>
310945313

> <PUBCHEM_SUBSTANCE_VERSION>
1

> <PUBCHEM_EXT_DATASOURCE_NAME>
4488

> <PUBCHEM_EXT_DATASOURCE_REGID>
SCHEMBL16123411

> <PUBCHEM_SUBSTANCE_COMMENT>
InChI=1S/C21H24N4O3S/c1-3-17(26)24-14-5-4-6-15(14)25-20(27)12-7-8-16-13(9-12)18-19(29-16)21(28)23-11(2)10-22-18/h3,7-9,11,14-15,22H,1,4-6,10H2,2H3,(H,23,28)(H,24,26)(H,25,27)/t11-,14?,15?/m1/s1
InChIKey=IWRRIDADTCIEEA-VCANKDNSSA-N

> <PUBCHEM_SUBSTANCE_SYNONYM>
SCHEMBL16123411

> <PUBCHEM_XREF_EXT_ID>
SCHEMBL16123411

> <PUBCHEM_EXT_DATASOURCE_URL>
https://www.surechembl.org/

> <PUBCHEM_EXT_SUBSTANCE_URL>
https://www.surechembl.org/chemical/SCHEMBL16123411

> <PUBCHEM_CID_ASSOCIATIONS>
117611371  1

> <PUBCHEM_COORDINATE_TYPE>
1
3

> <PUBCHEM_BONDANNOTATIONS>
20  26  5

$$$$
