310934459
  -OEChem-07211613022D

 20 22  0     0  0  0  0  0  0999 V2000
    3.4959   -4.3699    0.0000 O   0  0  0  0  0  0  0  0  0  0  0  0
    2.4472   -5.8266    0.0000 O   0  0  0  0  0  0  0  0  0  0  0  0
    2.2141   -3.7290    0.0000 N   0  0  0  0  0  0  0  0  0  0  0  0
    1.4275   -3.9912    0.0000 C   0  0  0  0  0  0  0  0  0  0  0  0
    1.4275   -4.7778    0.0000 C   0  0  0  0  0  0  0  0  0  0  0  0
    2.6803   -4.3699    0.0000 C   0  0  0  0  0  0  0  0  0  0  0  0
    2.2141   -5.0400    0.0000 C   0  0  0  0  0  0  0  0  0  0  0  0
    0.6992   -3.5542    0.0000 C   0  0  0  0  0  0  0  0  0  0  0  0
    0.6992   -5.1857    0.0000 C   0  0  0  0  0  0  0  0  0  0  0  0
    2.4472   -2.9424    0.0000 C   0  0  0  0  0  0  0  0  0  0  0  0
    0.0000   -3.9912    0.0000 C   0  0  0  0  0  0  0  0  0  0  0  0
    0.0000   -4.7778    0.0000 C   0  0  0  0  0  0  0  0  0  0  0  0
    3.2629   -2.7676    0.0000 C   0  0  0  0  0  0  0  0  0  0  0  0
    3.5251   -1.9810    0.0000 C   0  0  0  0  0  0  0  0  0  0  0  0
    2.9716   -1.3693    0.0000 C   0  0  0  0  0  0  0  0  0  0  0  0
    4.3117   -1.8354    0.0000 C   0  0  0  0  0  0  0  0  0  0  0  0
    3.2338   -0.6118    0.0000 C   0  0  0  0  0  0  0  0  0  0  0  0
    4.5738   -1.0488    0.0000 C   0  0  0  0  0  0  0  0  0  0  0  0
    4.0203   -0.4370    0.0000 C   0  0  0  0  0  0  0  0  0  0  0  0
    2.6803    0.0000    0.0000 C   0  0  0  0  0  0  0  0  0  0  0  0
  1  6  2  0  0  0  0
  2  7  2  0  0  0  0
  3  4  1  0  0  0  0
  3  6  1  0  0  0  0
  3 10  1  0  0  0  0
  4  5  2  0  0  0  0
  4  8  1  0  0  0  0
  5  7  1  0  0  0  0
  5  9  1  0  0  0  0
  6  7  1  0  0  0  0
  8 11  2  0  0  0  0
  9 12  2  0  0  0  0
 10 13  1  0  0  0  0
 11 12  1  0  0  0  0
 13 14  1  0  0  0  0
 14 15  2  0  0  0  0
 14 16  1  0  0  0  0
 15 17  1  0  0  0  0
 16 18  2  0  0  0  0
 17 19  2  0  0  0  0
 17 20  1  0  0  0  0
 18 19  1  0  0  0  0
M  END
> <PUBCHEM_COMPOUND_ID_TYPE>
0

> <PUBCHEM_TOTAL_CHARGE>
0

> <PUBCHEM_SUBSTANCE_ID>
310934459

> <PUBCHEM_SUBSTANCE_VERSION>
1

> <PUBCHEM_EXT_DATASOURCE_NAME>
4488

> <PUBCHEM_EXT_DATASOURCE_REGID>
SCHEMBL16111939

> <PUBCHEM_SUBSTANCE_COMMENT>
InChI=1S/C17H15NO2/c1-12-5-4-6-13(11-12)9-10-18-15-8-3-2-7-14(15)16(19)17(18)20/h2-8,11H,9-10H2,1H3
InChIKey=QYEVPGIZMKDHPP-UHFFFAOYSA-N

> <PUBCHEM_SUBSTANCE_SYNONYM>
SCHEMBL16111939

> <PUBCHEM_XREF_EXT_ID>
SCHEMBL16111939

> <PUBCHEM_EXT_DATASOURCE_URL>
https://www.surechembl.org/

> <PUBCHEM_EXT_SUBSTANCE_URL>
https://www.surechembl.org/chemical/SCHEMBL16111939

> <PUBCHEM_CID_ASSOCIATIONS>
117602665  1

> <PUBCHEM_COORDINATE_TYPE>
1
3

$$$$
