310929872
  -OEChem-07211613022D

 72 80  0     1  0  0  0  0  0999 V2000
    5.5179   -0.9196    0.0000 S   0  0  0  0  0  0  0  0  0  0  0  0
    5.0935   -2.4760    0.0000 O   0  0  0  0  0  0  0  0  0  0  0  0
    5.7302   -1.6978    0.0000 O   0  0  0  0  0  0  0  0  0  0  0  0
    5.3057   -0.1415    0.0000 O   0  0  0  0  0  0  0  0  0  0  0  0
    5.0227   -3.1127    0.0000 O   0  0  0  0  0  0  0  0  0  0  0  0
    6.0839   -5.5179    0.0000 O   0  0  0  0  0  0  0  0  0  0  0  0
    2.1930   -3.8908    0.0000 O   0  0  0  0  0  0  0  0  0  0  0  0
    7.0743   -8.4184    0.0000 O   0  0  0  0  0  0  0  0  0  0  0  0
    1.5563   -7.4987    0.0000 O   0  0  0  0  0  0  0  0  0  0  0  0
    0.7074   -6.5791    0.0000 O   0  0  0  0  0  0  0  0  0  0  0  0
    9.9040  -12.5214    0.0000 O   0  0  0  0  0  0  0  0  0  0  0  0
    8.4891  -12.5214    0.0000 O   0  0  0  0  0  0  0  0  0  0  0  0
    3.6079   -2.9712    0.0000 N   0  0  0  0  0  0  0  0  0  0  0  0
    4.7398   -1.1319    0.0000 N   0  0  0  0  0  0  0  0  0  0  0  0
    3.3957   -4.2445    0.0000 N   0  0  0  0  0  0  0  0  0  0  0  0
    7.0743   -5.9424    0.0000 N   0  0  0  0  0  0  0  0  0  0  0  0
    1.6271   -5.8009    0.0000 N   0  0  0  0  0  0  0  0  0  0  0  0
    9.1965   -9.6210    0.0000 N   0  0  0  0  0  0  0  0  0  0  0  0
    9.1965  -11.3188    0.0000 N   0  0  0  0  0  0  0  0  0  0  0  0
    3.7494   -2.1223    0.0000 C   0  0  3  0  0  0  0  0  0  0  0  0
    3.0420   -1.6978    0.0000 C   0  0  3  0  0  0  0  0  0  0  0  0
    3.7494   -1.2734    0.0000 C   0  0  0  0  0  0  0  0  0  0  0  0
    4.5275   -1.9100    0.0000 C   0  0  0  0  0  0  0  0  0  0  0  0
    6.2961   -0.7074    0.0000 C   0  0  0  0  0  0  0  0  0  0  0  0
    4.2445   -3.4664    0.0000 C   0  0  0  0  0  0  0  0  0  0  0  0
    2.1930   -1.6978    0.0000 C   0  0  0  0  0  0  0  0  0  0  0  0
    6.9328   -0.1415    0.0000 C   0  0  0  0  0  0  0  0  0  0  0  0
    7.1450   -0.9196    0.0000 C   0  0  0  0  0  0  0  0  0  0  0  0
    4.1738   -4.2445    0.0000 C   0  0  3  0  0  0  0  0  0  0  0  0
    5.8716    0.0000    0.0000 C   0  0  0  0  0  0  0  0  0  0  0  0
    4.9520   -4.4568    0.0000 C   0  0  0  0  0  0  0  0  0  0  0  0
    5.6594   -4.8812    0.0000 C   0  0  3  0  0  0  0  0  0  0  0  0
    4.6690   -3.8908    0.0000 C   0  0  0  0  0  0  0  0  0  0  0  0
    2.6882   -4.5983    0.0000 C   0  0  0  0  0  0  0  0  0  0  0  0
    1.7686   -2.4760    0.0000 C   0  0  0  0  0  0  0  0  0  0  0  0
    1.9808   -5.1642    0.0000 C   0  0  3  0  0  0  0  0  0  0  0  0
    6.3669   -6.3669    0.0000 C   0  0  0  0  0  0  0  0  0  0  0  0
    6.2961   -7.0743    0.0000 C   0  0  0  0  0  0  0  0  0  0  0  0
    7.0743   -7.5694    0.0000 C   0  0  0  0  0  0  0  0  0  0  0  0
    7.7110   -7.1450    0.0000 C   0  0  0  0  0  0  0  0  0  0  0  0
    1.3441   -4.5983    0.0000 C   0  0  0  0  0  0  0  0  0  0  0  0
    7.7110   -6.3669    0.0000 C   0  0  0  0  0  0  0  0  0  0  0  0
    6.0131   -7.9232    0.0000 C   0  0  0  0  0  0  0  0  0  0  0  0
    1.4856   -6.6498    0.0000 C   0  0  0  0  0  0  0  0  0  0  0  0
    8.4184   -7.6402    0.0000 C   0  0  0  0  0  0  0  0  0  0  0  0
    8.4891   -5.9424    0.0000 C   0  0  0  0  0  0  0  0  0  0  0  0
    0.5659   -4.8812    0.0000 C   0  0  0  0  0  0  0  0  0  0  0  0
    1.4856   -3.8201    0.0000 C   0  0  0  0  0  0  0  0  0  0  0  0
    1.9100   -8.1354    0.0000 C   0  0  3  0  0  0  0  0  0  0  0  0
    2.5467   -8.7014    0.0000 C   0  0  3  0  0  0  0  0  0  0  0  0
    9.1965   -7.1450    0.0000 C   0  0  0  0  0  0  0  0  0  0  0  0
    9.1965   -6.4376    0.0000 C   0  0  0  0  0  0  0  0  0  0  0  0
    1.6978   -8.9843    0.0000 C   0  0  0  0  0  0  0  0  0  0  0  0
    5.5179   -8.5598    0.0000 C   0  0  0  0  0  0  0  0  0  0  0  0
    0.0000   -4.3153    0.0000 C   0  0  0  0  0  0  0  0  0  0  0  0
    0.9196   -3.2541    0.0000 C   0  0  0  0  0  0  0  0  0  0  0  0
    7.7817   -8.8428    0.0000 C   0  0  0  0  0  0  0  0  0  0  0  0
    3.2541   -9.0551    0.0000 C   0  0  0  0  0  0  0  0  0  0  0  0
    0.1415   -3.4664    0.0000 C   0  0  0  0  0  0  0  0  0  0  0  0
    4.8812   -8.9136    0.0000 C   0  0  0  0  0  0  0  0  0  0  0  0
    4.0323   -9.1258    0.0000 C   0  0  0  0  0  0  0  0  0  0  0  0
    8.4891   -8.4184    0.0000 C   0  0  0  0  0  0  0  0  0  0  0  0
    9.1965   -8.8428    0.0000 C   0  0  0  0  0  0  0  0  0  0  0  0
    8.4891  -10.0455    0.0000 C   0  0  0  0  0  0  0  0  0  0  0  0
    9.9040  -10.0455    0.0000 C   0  0  0  0  0  0  0  0  0  0  0  0
    9.9040  -10.8944    0.0000 C   0  0  0  0  0  0  0  0  0  0  0  0
    8.4891  -10.8944    0.0000 C   0  0  0  0  0  0  0  0  0  0  0  0
    9.1965  -12.0970    0.0000 C   0  0  0  0  0  0  0  0  0  0  0  0
    9.9040  -13.2996    0.0000 C   0  0  0  0  0  0  0  0  0  0  0  0
    9.0551  -13.2996    0.0000 C   0  0  0  0  0  0  0  0  0  0  0  0
    9.9040  -14.1485    0.0000 C   0  0  0  0  0  0  0  0  0  0  0  0
   10.6822  -13.2996    0.0000 C   0  0  0  0  0  0  0  0  0  0  0  0
  1  3  2  0  0  0  0
  1  4  2  0  0  0  0
  1 14  1  0  0  0  0
  1 24  1  0  0  0  0
  2 23  2  0  0  0  0
  5 25  2  0  0  0  0
  6 32  1  0  0  0  0
  6 37  1  0  0  0  0
  7 34  2  0  0  0  0
  8 39  1  0  0  0  0
  8 57  1  0  0  0  0
  9 44  1  0  0  0  0
  9 49  1  0  0  0  0
 10 44  2  0  0  0  0
 11 68  1  0  0  0  0
 11 69  1  0  0  0  0
 12 68  2  0  0  0  0
 20 13  1  1  0  0  0
 13 25  1  0  0  0  0
 14 23  1  0  0  0  0
 15 29  1  0  0  0  0
 15 33  1  0  0  0  0
 15 34  1  0  0  0  0
 16 37  1  0  0  0  0
 16 42  2  0  0  0  0
 17 36  1  0  0  0  0
 17 44  1  0  0  0  0
 18 63  1  0  0  0  0
 18 64  1  0  0  0  0
 18 65  1  0  0  0  0
 19 66  1  0  0  0  0
 19 67  1  0  0  0  0
 19 68  1  0  0  0  0
 20 21  1  0  0  0  0
 20 22  1  0  0  0  0
 20 23  1  6  0  0  0
 21 22  1  0  0  0  0
 21 26  1  6  0  0  0
 24 27  1  0  0  0  0
 24 28  1  0  0  0  0
 24 30  1  0  0  0  0
 29 25  1  6  0  0  0
 26 35  2  0  0  0  0
 27 28  1  0  0  0  0
 29 31  1  0  0  0  0
 32 31  1  1  0  0  0
 32 33  1  0  0  0  0
 36 34  1  1  0  0  0
 36 41  1  0  0  0  0
 37 38  2  0  0  0  0
 38 39  1  0  0  0  0
 38 43  1  0  0  0  0
 39 40  2  0  0  0  0
 40 42  1  0  0  0  0
 40 45  1  0  0  0  0
 41 47  1  0  0  0  0
 41 48  1  0  0  0  0
 42 46  1  0  0  0  0
 43 54  1  0  0  0  0
 45 51  2  0  0  0  0
 46 52  2  0  0  0  0
 47 55  1  0  0  0  0
 48 56  1  0  0  0  0
 49 50  1  0  0  0  0
 49 53  1  1  0  0  0
 50 53  1  6  0  0  0
 50 58  1  0  0  0  0
 51 52  1  0  0  0  0
 54 60  1  0  0  0  0
 55 59  1  0  0  0  0
 56 59  1  0  0  0  0
 57 62  1  0  0  0  0
 58 61  1  0  0  0  0
 60 61  1  0  0  0  0
 62 63  1  0  0  0  0
 64 67  1  0  0  0  0
 65 66  1  0  0  0  0
 69 70  1  0  0  0  0
 69 71  1  0  0  0  0
 69 72  1  0  0  0  0
M  END
> <PUBCHEM_COMPOUND_ID_TYPE>
0

> <PUBCHEM_TOTAL_CHARGE>
0

> <PUBCHEM_SUBSTANCE_ID>
310929872

> <PUBCHEM_SUBSTANCE_VERSION>
1

> <PUBCHEM_EXT_DATASOURCE_NAME>
4488

> <PUBCHEM_EXT_DATASOURCE_REGID>
SCHEMBL16107087

> <PUBCHEM_SUBSTANCE_COMMENT>
InChI=1S/C53H75N7O11S/c1-6-36-32-53(36,48(63)57-72(66,67)52(5)22-23-52)56-45(61)41-31-37-33-60(41)47(62)43(34-16-9-7-10-17-34)55-49(64)70-42-30-35(42)18-11-8-12-20-39-44(38-19-13-14-21-40(38)54-46(39)69-37)68-29-15-24-58-25-27-59(28-26-58)50(65)71-51(2,3)4/h6,13-14,19,21,34-37,41-43H,1,7-12,15-18,20,22-33H2,2-5H3,(H,55,64)(H,56,61)(H,57,63)/t35-,36-,37-,41+,42-,43+,53-/m1/s1
InChIKey=LOFMYHQDVYMHEB-WOQJYNFKSA-N

> <PUBCHEM_SUBSTANCE_SYNONYM>
SCHEMBL16107087

> <PUBCHEM_XREF_EXT_ID>
SCHEMBL16107087

> <PUBCHEM_EXT_DATASOURCE_URL>
https://www.surechembl.org/

> <PUBCHEM_EXT_SUBSTANCE_URL>
https://www.surechembl.org/chemical/SCHEMBL16107087

> <PUBCHEM_CID_ASSOCIATIONS>
117599141  1

> <PUBCHEM_COORDINATE_TYPE>
1
3

> <PUBCHEM_BONDANNOTATIONS>
20  13  5
20  23  6
21  26  6
29  25  6
32  31  5
36  34  5
49  53  5
50  53  6

$$$$
