310936693
  -OEChem-07211613022D

 20 23  0     0  0  0  0  0  0999 V2000
    0.0000   -1.4197    0.0000 Br  0  0  0  0  0  0  0  0  0  0  0  0
    5.7556   -1.4197    0.0000 Br  0  0  0  0  0  0  0  0  0  0  0  0
    2.4941   -1.4197    0.0000 C   0  0  0  0  0  0  0  0  0  0  0  0
    2.0336   -2.1104    0.0000 C   0  0  0  0  0  0  0  0  0  0  0  0
    3.2615   -1.4197    0.0000 C   0  0  0  0  0  0  0  0  0  0  0  0
    2.0336   -0.7098    0.0000 C   0  0  0  0  0  0  0  0  0  0  0  0
    1.2086   -2.1104    0.0000 C   0  0  0  0  0  0  0  0  0  0  0  0
    3.7028   -0.7098    0.0000 C   0  0  0  0  0  0  0  0  0  0  0  0
    0.8058   -1.4197    0.0000 C   0  0  0  0  0  0  0  0  0  0  0  0
    1.2086   -0.7098    0.0000 C   0  0  0  0  0  0  0  0  0  0  0  0
    2.4941    0.0000    0.0000 C   0  0  0  0  0  0  0  0  0  0  0  0
    3.2615    0.0000    0.0000 C   0  0  0  0  0  0  0  0  0  0  0  0
    3.7028   -2.1104    0.0000 C   0  0  0  0  0  0  0  0  0  0  0  0
    2.4941   -2.8203    0.0000 C   0  0  0  0  0  0  0  0  0  0  0  0
    4.5469   -0.7098    0.0000 C   0  0  0  0  0  0  0  0  0  0  0  0
    0.8058   -2.8203    0.0000 C   0  0  0  0  0  0  0  0  0  0  0  0
    4.9306   -1.4197    0.0000 C   0  0  0  0  0  0  0  0  0  0  0  0
    4.5469   -2.1104    0.0000 C   0  0  0  0  0  0  0  0  0  0  0  0
    2.0336   -3.5301    0.0000 C   0  0  0  0  0  0  0  0  0  0  0  0
    1.2086   -3.5301    0.0000 C   0  0  0  0  0  0  0  0  0  0  0  0
  1  9  1  0  0  0  0
  2 17  1  0  0  0  0
  3  4  2  0  0  0  0
  3  5  1  0  0  0  0
  3  6  1  0  0  0  0
  4  7  1  0  0  0  0
  4 14  1  0  0  0  0
  5  8  2  0  0  0  0
  5 13  1  0  0  0  0
  6 10  2  0  0  0  0
  6 11  1  0  0  0  0
  7  9  2  0  0  0  0
  7 16  1  0  0  0  0
  8 12  1  0  0  0  0
  8 15  1  0  0  0  0
  9 10  1  0  0  0  0
 11 12  1  0  0  0  0
 13 18  2  0  0  0  0
 14 19  2  0  0  0  0
 15 17  2  0  0  0  0
 16 20  2  0  0  0  0
 17 18  1  0  0  0  0
 19 20  1  0  0  0  0
M  END
> <PUBCHEM_COMPOUND_ID_TYPE>
0

> <PUBCHEM_TOTAL_CHARGE>
0

> <PUBCHEM_SUBSTANCE_ID>
310936693

> <PUBCHEM_SUBSTANCE_VERSION>
1

> <PUBCHEM_EXT_DATASOURCE_NAME>
4488

> <PUBCHEM_EXT_DATASOURCE_REGID>
SCHEMBL16114368

> <PUBCHEM_SUBSTANCE_COMMENT>
InChI=1S/C18H12Br2/c19-13-7-8-14-11(9-13)5-6-12-10-17(20)15-3-1-2-4-16(15)18(12)14/h1-4,7-10H,5-6H2
InChIKey=XCDJOJRRJCCSAN-UHFFFAOYSA-N

> <PUBCHEM_SUBSTANCE_SYNONYM>
SCHEMBL16114368

> <PUBCHEM_XREF_EXT_ID>
SCHEMBL16114368

> <PUBCHEM_EXT_DATASOURCE_URL>
https://www.surechembl.org/

> <PUBCHEM_EXT_SUBSTANCE_URL>
https://www.surechembl.org/chemical/SCHEMBL16114368

> <PUBCHEM_CID_ASSOCIATIONS>
117604596  1

> <PUBCHEM_COORDINATE_TYPE>
1
3

$$$$
