310932745
  -OEChem-07211613022D

 24 26  0     0  0  0  0  0  0999 V2000
    0.0000   -1.9085    0.0000 F   0  0  0  0  0  0  0  0  0  0  0  0
    0.0000   -3.3452    0.0000 F   0  0  0  0  0  0  0  0  0  0  0  0
    0.8148   -1.9085    0.0000 F   0  0  0  0  0  0  0  0  0  0  0  0
    4.6319   -3.4739    0.0000 O   0  0  0  0  0  0  0  0  0  0  0  0
    5.4467   -0.9006    0.0000 O   0  0  0  0  0  0  0  0  0  0  0  0
    2.7234    0.0000    0.0000 O   0  0  0  0  0  0  0  0  0  0  0  0
    3.3238   -2.8092    0.0000 N   0  0  0  0  0  0  0  0  0  0  0  0
    2.5304   -3.0451    0.0000 C   0  0  0  0  0  0  0  0  0  0  0  0
    2.5304   -3.9028    0.0000 C   0  0  0  0  0  0  0  0  0  0  0  0
    3.8170   -3.4739    0.0000 C   0  0  0  0  0  0  0  0  0  0  0  0
    3.5597   -2.0157    0.0000 C   0  0  0  0  0  0  0  0  0  0  0  0
    1.8013   -2.6376    0.0000 C   0  0  0  0  0  0  0  0  0  0  0  0
    1.1151   -3.0451    0.0000 C   0  0  0  0  0  0  0  0  0  0  0  0
    3.3238   -4.1172    0.0000 C   0  0  0  0  0  0  0  0  0  0  0  0
    1.8013   -4.2888    0.0000 C   0  0  0  0  0  0  0  0  0  0  0  0
    0.4074   -2.6162    0.0000 C   0  0  0  0  0  0  0  0  0  0  0  0
    1.1151   -3.9028    0.0000 C   0  0  0  0  0  0  0  0  0  0  0  0
    3.0236   -1.3938    0.0000 C   0  0  0  0  0  0  0  0  0  0  0  0
    4.3746   -1.8442    0.0000 C   0  0  0  0  0  0  0  0  0  0  0  0
    4.6319   -1.0722    0.0000 C   0  0  0  0  0  0  0  0  0  0  0  0
    3.2809   -0.6219    0.0000 C   0  0  0  0  0  0  0  0  0  0  0  0
    4.0743   -0.4503    0.0000 C   0  0  0  0  0  0  0  0  0  0  0  0
    5.7041   -0.1072    0.0000 C   0  0  0  0  0  0  0  0  0  0  0  0
    1.9085   -0.1716    0.0000 C   0  0  0  0  0  0  0  0  0  0  0  0
  1 16  1  0  0  0  0
  2 16  1  0  0  0  0
  3 16  1  0  0  0  0
  4 10  2  0  0  0  0
  5 20  1  0  0  0  0
  5 23  1  0  0  0  0
  6 21  1  0  0  0  0
  6 24  1  0  0  0  0
  7  8  1  0  0  0  0
  7 10  1  0  0  0  0
  7 11  1  0  0  0  0
  8  9  2  0  0  0  0
  8 12  1  0  0  0  0
  9 14  1  0  0  0  0
  9 15  1  0  0  0  0
 10 14  1  0  0  0  0
 11 18  2  0  0  0  0
 11 19  1  0  0  0  0
 12 13  2  0  0  0  0
 13 16  1  0  0  0  0
 13 17  1  0  0  0  0
 15 17  2  0  0  0  0
 18 21  1  0  0  0  0
 19 20  2  0  0  0  0
 20 22  1  0  0  0  0
 21 22  2  0  0  0  0
M  END
> <PUBCHEM_COMPOUND_ID_TYPE>
0

> <PUBCHEM_TOTAL_CHARGE>
0

> <PUBCHEM_SUBSTANCE_ID>
310932745

> <PUBCHEM_SUBSTANCE_VERSION>
1

> <PUBCHEM_EXT_DATASOURCE_NAME>
4488

> <PUBCHEM_EXT_DATASOURCE_REGID>
SCHEMBL16110129

> <PUBCHEM_SUBSTANCE_COMMENT>
InChI=1S/C17H14F3NO3/c1-23-13-7-12(8-14(9-13)24-2)21-15-6-11(17(18,19)20)4-3-10(15)5-16(21)22/h3-4,6-9H,5H2,1-2H3
InChIKey=YNHAEFFNLUKMBK-UHFFFAOYSA-N

> <PUBCHEM_SUBSTANCE_SYNONYM>
SCHEMBL16110129

> <PUBCHEM_XREF_EXT_ID>
SCHEMBL16110129

> <PUBCHEM_EXT_DATASOURCE_URL>
https://www.surechembl.org/

> <PUBCHEM_EXT_SUBSTANCE_URL>
https://www.surechembl.org/chemical/SCHEMBL16110129

> <PUBCHEM_CID_ASSOCIATIONS>
117601249  1

> <PUBCHEM_COORDINATE_TYPE>
1
3

$$$$
