310940369
  -OEChem-07211613022D

 27 29  0     0  0  0  0  0  0999 V2000
   -0.7411   -0.4172    0.0000 O   0  0  0  0  0  0  0  0  0  0  0  0
    2.8582   -1.6626    0.0000 O   0  0  0  0  0  0  0  0  0  0  0  0
   -1.4509   -1.6626    0.0000 O   0  0  0  0  0  0  0  0  0  0  0  0
    2.1359    2.0736    0.0000 O   0  0  0  0  0  0  0  0  0  0  0  0
   -2.1608   -0.4172    0.0000 N   0  0  0  0  0  0  0  0  0  0  0  0
    3.6055    2.0736    0.0000 N   0  0  0  0  0  0  0  0  0  0  0  0
    1.4385   -0.8282    0.0000 C   0  0  0  0  0  0  0  0  0  0  0  0
    2.1484   -0.4172    0.0000 C   0  0  0  0  0  0  0  0  0  0  0  0
    1.4260   -1.6502    0.0000 C   0  0  0  0  0  0  0  0  0  0  0  0
    0.7037   -0.4297    0.0000 C   0  0  0  0  0  0  0  0  0  0  0  0
   -0.0062   -0.8282    0.0000 C   0  0  0  0  0  0  0  0  0  0  0  0
    2.1608    0.4048    0.0000 C   0  0  0  0  0  0  0  0  0  0  0  0
    2.8582    0.8282    0.0000 C   0  0  0  0  0  0  0  0  0  0  0  0
    0.7162   -2.0612    0.0000 C   0  0  0  0  0  0  0  0  0  0  0  0
    0.0062   -1.6626    0.0000 C   0  0  0  0  0  0  0  0  0  0  0  0
    2.8707   -0.8282    0.0000 C   0  0  0  0  0  0  0  0  0  0  0  0
    2.1484   -2.0736    0.0000 C   0  0  0  0  0  0  0  0  0  0  0  0
    3.5931    0.4172    0.0000 C   0  0  0  0  0  0  0  0  0  0  0  0
    3.5931   -0.4172    0.0000 C   0  0  0  0  0  0  0  0  0  0  0  0
   -1.4385   -0.8157    0.0000 C   0  0  0  0  0  0  0  0  0  0  0  0
    2.8956    1.6626    0.0000 C   0  0  0  0  0  0  0  0  0  0  0  0
   -2.8831   -0.8282    0.0000 C   0  0  0  0  0  0  0  0  0  0  0  0
   -3.6055   -0.4297    0.0000 C   0  0  0  0  0  0  0  0  0  0  0  0
   -2.8831   -1.6626    0.0000 C   0  0  0  0  0  0  0  0  0  0  0  0
   -4.3030   -0.8282    0.0000 C   0  0  0  0  0  0  0  0  0  0  0  0
   -3.5931   -2.0736    0.0000 C   0  0  0  0  0  0  0  0  0  0  0  0
   -4.3030   -1.6626    0.0000 C   0  0  0  0  0  0  0  0  0  0  0  0
  1 11  1  0  0  0  0
  1 20  1  0  0  0  0
  2 17  1  0  0  0  0
  3 20  2  0  0  0  0
  4 21  2  0  0  0  0
  5 20  1  0  0  0  0
  5 22  1  0  0  0  0
  6 21  1  0  0  0  0
  7  8  1  0  0  0  0
  7  9  1  0  0  0  0
  7 10  2  0  0  0  0
  8 12  1  0  0  0  0
  8 16  2  0  0  0  0
  9 14  2  0  0  0  0
  9 17  1  0  0  0  0
 10 11  1  0  0  0  0
 11 15  2  0  0  0  0
 12 13  2  0  0  0  0
 13 18  1  0  0  0  0
 13 21  1  0  0  0  0
 14 15  1  0  0  0  0
 16 19  1  0  0  0  0
 18 19  2  0  0  0  0
 22 23  1  0  0  0  0
 22 24  1  0  0  0  0
 23 25  1  0  0  0  0
 24 26  1  0  0  0  0
 25 27  1  0  0  0  0
 26 27  1  0  0  0  0
M  END
> <PUBCHEM_COMPOUND_ID_TYPE>
0

> <PUBCHEM_TOTAL_CHARGE>
0

> <PUBCHEM_SUBSTANCE_ID>
310940369

> <PUBCHEM_SUBSTANCE_VERSION>
1

> <PUBCHEM_EXT_DATASOURCE_NAME>
4488

> <PUBCHEM_EXT_DATASOURCE_REGID>
SCHEMBL16118313

> <PUBCHEM_SUBSTANCE_COMMENT>
InChI=1S/C21H24N2O4/c22-20(25)15-6-4-5-14(11-15)19-12-18(10-9-16(19)13-24)27-21(26)23-17-7-2-1-3-8-17/h4-6,9-12,17,24H,1-3,7-8,13H2,(H2,22,25)(H,23,26)
InChIKey=UHSYILGCPURHCK-UHFFFAOYSA-N

> <PUBCHEM_SUBSTANCE_SYNONYM>
SCHEMBL16118313

> <PUBCHEM_XREF_EXT_ID>
SCHEMBL16118313

> <PUBCHEM_EXT_DATASOURCE_URL>
https://www.surechembl.org/

> <PUBCHEM_EXT_SUBSTANCE_URL>
https://www.surechembl.org/chemical/SCHEMBL16118313

> <PUBCHEM_CID_ASSOCIATIONS>
71506774  1

> <PUBCHEM_COORDINATE_TYPE>
1
3

$$$$
