310933961
  -OEChem-07211613022D

 22 24  0     0  0  0  0  0  0999 V2000
    1.5052    0.0000    0.0000 O   0  0  0  0  0  0  0  0  0  0  0  0
    2.0917   -2.1308    0.0000 N   0  0  0  0  0  0  0  0  0  0  0  0
    2.8931   -2.3849    0.0000 N   0  0  0  0  0  0  0  0  0  0  0  0
    0.6646   -1.1729    0.0000 N   0  0  0  0  0  0  0  0  0  0  0  0
    2.0917   -1.3097    0.0000 C   0  0  0  0  0  0  0  0  0  0  0  0
    3.3623   -1.7203    0.0000 C   0  0  0  0  0  0  0  0  0  0  0  0
    1.4271   -2.5999    0.0000 C   0  0  0  0  0  0  0  0  0  0  0  0
    2.8931   -1.0361    0.0000 C   0  0  0  0  0  0  0  0  0  0  0  0
    4.2029   -1.7203    0.0000 C   0  0  0  0  0  0  0  0  0  0  0  0
    1.4271   -0.8210    0.0000 C   0  0  0  0  0  0  0  0  0  0  0  0
    0.6646   -2.2676    0.0000 C   0  0  0  0  0  0  0  0  0  0  0  0
    4.6134   -2.4435    0.0000 C   0  0  0  0  0  0  0  0  0  0  0  0
    1.5052   -3.4210    0.0000 C   0  0  0  0  0  0  0  0  0  0  0  0
    4.6134   -0.9970    0.0000 C   0  0  0  0  0  0  0  0  0  0  0  0
    0.0000   -2.7563    0.0000 C   0  0  0  0  0  0  0  0  0  0  0  0
    5.4344   -2.4435    0.0000 C   0  0  0  0  0  0  0  0  0  0  0  0
    0.8406   -3.9097    0.0000 C   0  0  0  0  0  0  0  0  0  0  0  0
    5.4344   -0.9970    0.0000 C   0  0  0  0  0  0  0  0  0  0  0  0
    0.0782   -3.5773    0.0000 C   0  0  0  0  0  0  0  0  0  0  0  0
    0.5865   -1.4466    0.0000 C   0  0  0  0  0  0  0  0  0  0  0  0
    5.8449   -1.7203    0.0000 C   0  0  0  0  0  0  0  0  0  0  0  0
    4.2029   -3.1472    0.0000 C   0  0  0  0  0  0  0  0  0  0  0  0
  1 10  2  0  0  0  0
  2  3  1  0  0  0  0
  2  5  1  0  0  0  0
  2  7  1  0  0  0  0
  3  6  2  0  0  0  0
  4 10  1  0  0  0  0
  5  8  2  0  0  0  0
  5 10  1  0  0  0  0
  6  8  1  0  0  0  0
  6  9  1  0  0  0  0
  7 11  2  0  0  0  0
  7 13  1  0  0  0  0
  9 12  2  0  0  0  0
  9 14  1  0  0  0  0
 11 15  1  0  0  0  0
 11 20  1  0  0  0  0
 12 16  1  0  0  0  0
 12 22  1  0  0  0  0
 13 17  2  0  0  0  0
 14 18  2  0  0  0  0
 15 19  2  0  0  0  0
 16 21  2  0  0  0  0
 17 19  1  0  0  0  0
 18 21  1  0  0  0  0
M  END
> <PUBCHEM_COMPOUND_ID_TYPE>
0

> <PUBCHEM_TOTAL_CHARGE>
0

> <PUBCHEM_SUBSTANCE_ID>
310933961

> <PUBCHEM_SUBSTANCE_VERSION>
1

> <PUBCHEM_EXT_DATASOURCE_NAME>
4488

> <PUBCHEM_EXT_DATASOURCE_REGID>
SCHEMBL16111400

> <PUBCHEM_SUBSTANCE_COMMENT>
InChI=1S/C18H17N3O/c1-12-7-3-5-9-14(12)15-11-17(18(19)22)21(20-15)16-10-6-4-8-13(16)2/h3-11H,1-2H3,(H2,19,22)
InChIKey=PVQFOTPWQCJODI-UHFFFAOYSA-N

> <PUBCHEM_SUBSTANCE_SYNONYM>
SCHEMBL16111400

> <PUBCHEM_XREF_EXT_ID>
SCHEMBL16111400

> <PUBCHEM_EXT_DATASOURCE_URL>
https://www.surechembl.org/

> <PUBCHEM_EXT_SUBSTANCE_URL>
https://www.surechembl.org/chemical/SCHEMBL16111400

> <PUBCHEM_CID_ASSOCIATIONS>
117602277  1

> <PUBCHEM_COORDINATE_TYPE>
1
3

$$$$
