310949949
  -OEChem-07211613022D

 31 36  0     1  0  0  0  0  0999 V2000
    1.1034   -1.3186    0.0000 O   0  0  0  0  0  0  0  0  0  0  0  0
    1.6170   -2.9009    0.0000 O   0  0  0  0  0  0  0  0  0  0  0  0
   -1.2978    1.4018    0.0000 N   0  0  0  0  0  0  0  0  0  0  0  0
   -1.2978    2.7482    0.0000 N   0  0  0  0  0  0  0  0  0  0  0  0
   -0.5344   -0.9716    0.0000 N   0  0  0  0  0  0  0  0  0  0  0  0
    1.2978    1.6655    0.0000 N   0  0  0  0  0  0  0  0  0  0  0  0
   -0.8120    2.0820    0.0000 C   0  0  0  0  0  0  0  0  0  0  0  0
   -2.1028    1.6794    0.0000 C   0  0  0  0  0  0  0  0  0  0  0  0
   -2.0889    2.4983    0.0000 C   0  0  0  0  0  0  0  0  0  0  0  0
   -1.0479    0.6246    0.0000 C   0  0  0  0  0  0  0  0  0  0  0  0
    0.0347    2.0681    0.0000 C   0  0  3  0  0  0  0  0  0  0  0  0
   -2.8106    1.2492    0.0000 C   0  0  0  0  0  0  0  0  0  0  0  0
   -2.7967    2.9009    0.0000 C   0  0  0  0  0  0  0  0  0  0  0  0
   -1.6031   -0.0139    0.0000 C   0  0  0  0  0  0  0  0  0  0  0  0
   -0.2290    0.4302    0.0000 C   0  0  0  0  0  0  0  0  0  0  0  0
    0.4927    1.4157    0.0000 C   0  0  0  0  0  0  0  0  0  0  0  0
    0.4927    2.7343    0.0000 C   0  0  0  0  0  0  0  0  0  0  0  0
   -3.5324    1.6655    0.0000 C   0  0  0  0  0  0  0  0  0  0  0  0
   -1.3393   -0.7911    0.0000 C   0  0  0  0  0  0  0  0  0  0  0  0
    0.0208   -0.3470    0.0000 C   0  0  0  0  0  0  0  0  0  0  0  0
   -3.5324    2.4844    0.0000 C   0  0  0  0  0  0  0  0  0  0  0  0
    0.5344   -1.9293    0.0000 C   0  0  3  0  0  0  0  0  0  0  0  0
    1.9085   -1.4851    0.0000 C   0  0  0  0  0  0  0  0  0  0  0  0
   -0.2706   -1.7488    0.0000 C   0  0  0  0  0  0  0  0  0  0  0  0
    2.1721   -2.2624    0.0000 C   0  0  0  0  0  0  0  0  0  0  0  0
    1.2978    2.4844    0.0000 C   0  0  0  0  0  0  0  0  0  0  0  0
    0.7981   -2.7204    0.0000 C   0  0  0  0  0  0  0  0  0  0  0  0
    2.4636   -0.8883    0.0000 C   0  0  0  0  0  0  0  0  0  0  0  0
    2.9910   -2.4428    0.0000 C   0  0  0  0  0  0  0  0  0  0  0  0
    3.2686   -1.0409    0.0000 C   0  0  0  0  0  0  0  0  0  0  0  0
    3.5324   -1.8321    0.0000 C   0  0  0  0  0  0  0  0  0  0  0  0
  1 22  1  0  0  0  0
  1 23  1  0  0  0  0
  2 25  1  0  0  0  0
  2 27  1  0  0  0  0
  3  7  1  0  0  0  0
  3  8  1  0  0  0  0
  3 10  1  0  0  0  0
  4  7  2  0  0  0  0
  4  9  1  0  0  0  0
  5 19  1  0  0  0  0
  5 20  1  0  0  0  0
  5 24  1  0  0  0  0
  6 16  1  0  0  0  0
  6 26  1  0  0  0  0
 11  7  1  6  0  0  0
  8  9  1  0  0  0  0
  8 12  2  0  0  0  0
  9 13  2  0  0  0  0
 10 14  1  0  0  0  0
 10 15  1  0  0  0  0
 11 16  1  0  0  0  0
 11 17  1  0  0  0  0
 12 18  1  0  0  0  0
 13 21  1  0  0  0  0
 14 19  1  0  0  0  0
 15 20  1  0  0  0  0
 17 26  1  0  0  0  0
 18 21  2  0  0  0  0
 22 24  1  0  0  0  0
 22 27  1  0  0  0  0
 23 25  2  0  0  0  0
 23 28  1  0  0  0  0
 25 29  1  0  0  0  0
 28 30  2  0  0  0  0
 29 31  2  0  0  0  0
 30 31  1  0  0  0  0
M  END
> <PUBCHEM_COMPOUND_ID_TYPE>
0

> <PUBCHEM_TOTAL_CHARGE>
0

> <PUBCHEM_SUBSTANCE_ID>
310949949

> <PUBCHEM_SUBSTANCE_VERSION>
1

> <PUBCHEM_EXT_DATASOURCE_NAME>
4488

> <PUBCHEM_EXT_DATASOURCE_REGID>
SCHEMBL16128178

> <PUBCHEM_SUBSTANCE_COMMENT>
InChI=1S/C25H30N4O2/c1-2-6-22-21(5-1)27-25(18-9-12-26-15-18)29(22)19-10-13-28(14-11-19)16-20-17-30-23-7-3-4-8-24(23)31-20/h1-8,18-20,26H,9-17H2/t18-,20?/m1/s1
InChIKey=TUNIHEHZWRJNAA-QSVWIEALSA-N

> <PUBCHEM_SUBSTANCE_SYNONYM>
SCHEMBL16128178

> <PUBCHEM_XREF_EXT_ID>
SCHEMBL16128178

> <PUBCHEM_EXT_DATASOURCE_URL>
https://www.surechembl.org/

> <PUBCHEM_EXT_SUBSTANCE_URL>
https://www.surechembl.org/chemical/SCHEMBL16128178

> <PUBCHEM_CID_ASSOCIATIONS>
86275254  1

> <PUBCHEM_COORDINATE_TYPE>
1
3

> <PUBCHEM_BONDANNOTATIONS>
11  7  6

$$$$
