310934031
  -OEChem-07211613022D

 17 18  0     0  0  0  0  0  0999 V2000
    0.8038   -2.5368    0.0000 O   0  0  0  0  0  0  0  0  0  0  0  0
    0.4175   -3.8941    0.0000 O   0  0  0  0  0  0  0  0  0  0  0  0
    1.5765   -4.8931    0.0000 N   0  0  0  0  0  0  0  0  0  0  0  0
    1.0972   -1.6019    0.0000 C   0  0  0  0  0  0  0  0  0  0  0  0
    0.8819   -0.9655    0.0000 C   0  0  0  0  0  0  0  0  0  0  0  0
    1.8125   -1.9334    0.0000 C   0  0  0  0  0  0  0  0  0  0  0  0
    0.2162   -2.0237    0.0000 C   0  0  0  0  0  0  0  0  0  0  0  0
    1.1518   -0.6881    0.0000 C   0  0  0  0  0  0  0  0  0  0  0  0
    1.5878   -1.2830    0.0000 C   0  0  0  0  0  0  0  0  0  0  0  0
    0.1137   -1.3018    0.0000 C   0  0  0  0  0  0  0  0  0  0  0  0
    0.9180   -0.1090    0.0000 C   0  0  0  0  0  0  0  0  0  0  0  0
    0.7073   -1.8744    0.0000 C   0  0  0  0  0  0  0  0  0  0  0  0
    0.2111   -3.1332    0.0000 C   0  0  0  0  0  0  0  0  0  0  0  0
    1.5132   -2.4773    0.0000 C   0  0  0  0  0  0  0  0  0  0  0  0
   -0.5512   -2.9315    0.0000 C   0  0  0  0  0  0  0  0  0  0  0  0
    1.8026   -3.3093    0.0000 C   0  0  0  0  0  0  0  0  0  0  0  0
    1.6880   -4.1126    0.0000 C   0  0  0  0  0  0  0  0  0  0  0  0
  1  4  1  0  0  0  0
  1 13  1  0  0  0  0
  2 13  2  0  0  0  0
  3 17  3  0  0  0  0
  4  6  1  0  0  0  0
  4  7  1  0  0  0  0
  4  8  1  0  0  0  0
  5  9  1  0  0  0  0
  5 10  1  0  0  0  0
  5 11  1  0  0  0  0
  5 12  1  0  0  0  0
  6  9  1  0  0  0  0
  7 10  1  0  0  0  0
  8 11  1  0  0  0  0
 12 14  1  0  0  0  0
 13 15  1  0  0  0  0
 14 16  1  0  0  0  0
 16 17  1  0  0  0  0
M  END
> <PUBCHEM_COMPOUND_ID_TYPE>
0

> <PUBCHEM_TOTAL_CHARGE>
0

> <PUBCHEM_SUBSTANCE_ID>
310934031

> <PUBCHEM_SUBSTANCE_VERSION>
1

> <PUBCHEM_EXT_DATASOURCE_NAME>
4488

> <PUBCHEM_EXT_DATASOURCE_REGID>
SCHEMBL16111475

> <PUBCHEM_SUBSTANCE_COMMENT>
InChI=1S/C14H21NO2/c1-12(16)17-14-8-5-13(6-9-14,7-10-14)4-2-3-11-15/h2-10H2,1H3
InChIKey=FRLCOOWQVYBHML-UHFFFAOYSA-N

> <PUBCHEM_SUBSTANCE_SYNONYM>
SCHEMBL16111475

> <PUBCHEM_XREF_EXT_ID>
SCHEMBL16111475

> <PUBCHEM_EXT_DATASOURCE_URL>
https://www.surechembl.org/

> <PUBCHEM_EXT_SUBSTANCE_URL>
https://www.surechembl.org/chemical/SCHEMBL16111475

> <PUBCHEM_CID_ASSOCIATIONS>
117602331  1

> <PUBCHEM_COORDINATE_TYPE>
1
3

$$$$
