310940718
  -OEChem-07211613022D

 11 11  0     0  0  0  0  0  0999 V2000
   -0.4711    0.0695    0.0000 S   0  0  0  0  0  0  0  0  0  0  0  0
    1.8148   -0.1467    0.0000 O   0  0  0  0  0  0  0  0  0  0  0  0
    0.2548   -1.1815    0.0000 O   0  0  0  0  0  0  0  0  0  0  0  0
    0.9807    0.0695    0.0000 C   0  0  0  0  0  0  0  0  0  0  0  0
    0.2703   -0.3166    0.0000 C   0  0  0  0  0  0  0  0  0  0  0  0
    0.9499    0.9035    0.0000 C   0  0  0  0  0  0  0  0  0  0  0  0
    2.2627    0.5328    0.0000 C   0  0  0  0  0  0  0  0  0  0  0  0
    1.7530    1.1815    0.0000 C   0  0  0  0  0  0  0  0  0  0  0  0
   -1.1815   -0.3475    0.0000 C   0  0  0  0  0  0  0  0  0  0  0  0
   -1.9074    0.0232    0.0000 C   0  0  0  0  0  0  0  0  0  0  0  0
   -2.2627   -0.2857    0.0000 C   0  0  0  0  0  0  0  0  0  0  0  0
  1  5  1  0  0  0  0
  1  9  1  0  0  0  0
  2  4  1  0  0  0  0
  2  7  1  0  0  0  0
  3  5  2  0  0  0  0
  4  5  1  0  0  0  0
  4  6  2  0  0  0  0
  6  8  1  0  0  0  0
  7  8  2  0  0  0  0
  9 10  1  0  0  0  0
 10 11  1  0  0  0  0
M  END
> <PUBCHEM_COMPOUND_ID_TYPE>
0

> <PUBCHEM_TOTAL_CHARGE>
0

> <PUBCHEM_SUBSTANCE_ID>
310940718

> <PUBCHEM_SUBSTANCE_VERSION>
1

> <PUBCHEM_EXT_DATASOURCE_NAME>
4488

> <PUBCHEM_EXT_DATASOURCE_REGID>
SCHEMBL16118675

> <PUBCHEM_SUBSTANCE_COMMENT>
InChI=1S/C8H10O2S/c1-2-6-11-8(9)7-4-3-5-10-7/h3-5H,2,6H2,1H3
InChIKey=BMSJNVFQHVGPJT-UHFFFAOYSA-N

> <PUBCHEM_SUBSTANCE_SYNONYM>
SCHEMBL16118675

> <PUBCHEM_XREF_EXT_ID>
SCHEMBL16118675

> <PUBCHEM_EXT_DATASOURCE_URL>
https://www.surechembl.org/

> <PUBCHEM_EXT_SUBSTANCE_URL>
https://www.surechembl.org/chemical/SCHEMBL16118675

> <PUBCHEM_CID_ASSOCIATIONS>
117607675  1

> <PUBCHEM_COORDINATE_TYPE>
1
3

> <PUBCHEM_BONDANNOTATIONS>
10  11  3

$$$$
