310931296
  -OEChem-07211613022D

 29 32  0     0  0  0  0  0  0999 V2000
    3.8346   -2.6878    0.0000 S   0  0  0  0  0  0  0  0  0  0  0  0
    0.9318   -2.6878    0.0000 O   0  0  0  0  0  0  0  0  0  0  0  0
    0.0000   -6.4149    0.0000 O   0  0  0  0  0  0  0  0  0  0  0  0
    3.4404   -6.7015    0.0000 O   0  0  0  0  0  0  0  0  0  0  0  0
    2.3652   -2.4728    0.0000 N   0  0  0  0  0  0  0  0  0  0  0  0
    2.7953   -3.7271    0.0000 N   0  0  0  0  0  0  0  0  0  0  0  0
    2.3652    0.0000    0.0000 N   0  0  0  0  0  0  0  0  0  0  0  0
    1.9352   -3.7271    0.0000 C   0  0  0  0  0  0  0  0  0  0  0  0
    1.7202   -2.9386    0.0000 C   0  0  0  0  0  0  0  0  0  0  0  0
    1.4693   -4.4080    0.0000 C   0  0  0  0  0  0  0  0  0  0  0  0
    2.3294   -4.4797    0.0000 C   0  0  0  0  0  0  0  0  0  0  0  0
    3.0462   -2.9386    0.0000 C   0  0  0  0  0  0  0  0  0  0  0  0
    2.3652   -1.6485    0.0000 C   0  0  0  0  0  0  0  0  0  0  0  0
    1.7918   -5.1606    0.0000 C   0  0  0  0  0  0  0  0  0  0  0  0
    3.1537   -4.5155    0.0000 C   0  0  0  0  0  0  0  0  0  0  0  0
    0.6451   -4.3363    0.0000 C   0  0  0  0  0  0  0  0  0  0  0  0
    2.0427   -5.3397    0.0000 C   0  0  0  0  0  0  0  0  0  0  0  0
    3.0820   -1.2185    0.0000 C   0  0  0  0  0  0  0  0  0  0  0  0
    1.6485   -1.2185    0.0000 C   0  0  0  0  0  0  0  0  0  0  0  0
    1.3260   -5.8415    0.0000 C   0  0  0  0  0  0  0  0  0  0  0  0
    3.5120   -5.2681    0.0000 C   0  0  0  0  0  0  0  0  0  0  0  0
    0.1433   -4.9814    0.0000 C   0  0  0  0  0  0  0  0  0  0  0  0
    2.2578   -5.9131    0.0000 C   0  0  0  0  0  0  0  0  0  0  0  0
    0.5017   -5.7340    0.0000 C   0  0  0  0  0  0  0  0  0  0  0  0
    3.0820   -5.9490    0.0000 C   0  0  0  0  0  0  0  0  0  0  0  0
    3.0820   -0.3942    0.0000 C   0  0  0  0  0  0  0  0  0  0  0  0
    1.6485   -0.3942    0.0000 C   0  0  0  0  0  0  0  0  0  0  0  0
    0.3226   -7.1675    0.0000 C   0  0  0  0  0  0  0  0  0  0  0  0
    4.2646   -6.7374    0.0000 C   0  0  0  0  0  0  0  0  0  0  0  0
  1 12  2  0  0  0  0
  2  9  2  0  0  0  0
  3 24  1  0  0  0  0
  3 28  1  0  0  0  0
  4 25  1  0  0  0  0
  4 29  1  0  0  0  0
  5  9  1  0  0  0  0
  5 12  1  0  0  0  0
  5 13  1  0  0  0  0
  6  8  1  0  0  0  0
  6 12  1  0  0  0  0
  7 26  1  0  0  0  0
  7 27  1  0  0  0  0
  8  9  1  0  0  0  0
  8 10  1  0  0  0  0
  8 11  1  0  0  0  0
 10 14  2  0  0  0  0
 10 16  1  0  0  0  0
 11 15  2  0  0  0  0
 11 17  1  0  0  0  0
 13 18  1  0  0  0  0
 13 19  1  0  0  0  0
 14 20  1  0  0  0  0
 15 21  1  0  0  0  0
 16 22  2  0  0  0  0
 17 23  2  0  0  0  0
 18 26  1  0  0  0  0
 19 27  1  0  0  0  0
 20 24  2  0  0  0  0
 21 25  2  0  0  0  0
 22 24  1  0  0  0  0
 23 25  1  0  0  0  0
M  END
> <PUBCHEM_COMPOUND_ID_TYPE>
0

> <PUBCHEM_TOTAL_CHARGE>
0

> <PUBCHEM_SUBSTANCE_ID>
310931296

> <PUBCHEM_SUBSTANCE_VERSION>
1

> <PUBCHEM_EXT_DATASOURCE_NAME>
4488

> <PUBCHEM_EXT_DATASOURCE_REGID>
SCHEMBL16108613

> <PUBCHEM_SUBSTANCE_COMMENT>
InChI=1S/C22H25N3O3S/c1-27-18-7-3-15(4-8-18)22(16-5-9-19(28-2)10-6-16)20(26)25(21(29)24-22)17-11-13-23-14-12-17/h3-10,17,23H,11-14H2,1-2H3,(H,24,29)
InChIKey=ZMMPHCOTGHTTEM-UHFFFAOYSA-N

> <PUBCHEM_SUBSTANCE_SYNONYM>
SCHEMBL16108613

> <PUBCHEM_XREF_EXT_ID>
SCHEMBL16108613

> <PUBCHEM_EXT_DATASOURCE_URL>
https://www.surechembl.org/

> <PUBCHEM_EXT_SUBSTANCE_URL>
https://www.surechembl.org/chemical/SCHEMBL16108613

> <PUBCHEM_CID_ASSOCIATIONS>
117599911  1

> <PUBCHEM_COORDINATE_TYPE>
1
3

$$$$
