310949559
  -OEChem-07211613022D

 26 30  0     1  0  0  0  0  0999 V2000
   -0.4761    1.3111    0.0000 N   0  0  0  0  0  0  0  0  0  0  0  0
   -0.4761    2.6499    0.0000 N   0  0  0  0  0  0  0  0  0  0  0  0
    0.2967   -1.0489    0.0000 N   0  0  0  0  0  0  0  0  0  0  0  0
    2.1185    1.5595    0.0000 N   0  0  0  0  0  0  0  0  0  0  0  0
    0.0207    1.9874    0.0000 C   0  0  0  0  0  0  0  0  0  0  0  0
   -1.2628    1.5733    0.0000 C   0  0  0  0  0  0  0  0  0  0  0  0
   -1.2490    2.3877    0.0000 C   0  0  0  0  0  0  0  0  0  0  0  0
   -0.2139    0.5244    0.0000 C   0  0  0  0  0  0  0  0  0  0  0  0
    0.8488    1.9598    0.0000 C   0  0  3  0  0  0  0  0  0  0  0  0
   -1.9805    1.1593    0.0000 C   0  0  0  0  0  0  0  0  0  0  0  0
   -1.9805    2.7880    0.0000 C   0  0  0  0  0  0  0  0  0  0  0  0
   -0.7660   -0.0966    0.0000 C   0  0  0  0  0  0  0  0  0  0  0  0
    0.6004    0.3450    0.0000 C   0  0  0  0  0  0  0  0  0  0  0  0
    1.3318    1.3111    0.0000 C   0  0  0  0  0  0  0  0  0  0  0  0
    1.3318    2.6499    0.0000 C   0  0  0  0  0  0  0  0  0  0  0  0
   -2.6844    1.5595    0.0000 C   0  0  0  0  0  0  0  0  0  0  0  0
   -2.6844    2.3877    0.0000 C   0  0  0  0  0  0  0  0  0  0  0  0
   -0.5037   -0.8695    0.0000 C   0  0  0  0  0  0  0  0  0  0  0  0
    0.8488   -0.4416    0.0000 C   0  0  0  0  0  0  0  0  0  0  0  0
    2.1185    2.3877    0.0000 C   0  0  0  0  0  0  0  0  0  0  0  0
    0.5590   -1.8218    0.0000 C   0  0  0  0  0  0  0  0  0  0  0  0
    1.3732   -2.0150    0.0000 C   0  0  0  0  0  0  0  0  0  0  0  0
    1.6216   -2.7880    0.0000 C   0  0  0  0  0  0  0  0  0  0  0  0
    2.0357   -1.5319    0.0000 C   0  0  0  0  0  0  0  0  0  0  0  0
    2.6844   -2.0012    0.0000 C   0  0  0  0  0  0  0  0  0  0  0  0
    2.4360   -2.7880    0.0000 C   0  0  0  0  0  0  0  0  0  0  0  0
  1  5  1  0  0  0  0
  1  6  1  0  0  0  0
  1  8  1  0  0  0  0
  2  5  2  0  0  0  0
  2  7  1  0  0  0  0
  3 18  1  0  0  0  0
  3 19  1  0  0  0  0
  3 21  1  0  0  0  0
  4 14  1  0  0  0  0
  4 20  1  0  0  0  0
  9  5  1  6  0  0  0
  6  7  1  0  0  0  0
  6 10  2  0  0  0  0
  7 11  2  0  0  0  0
  8 12  1  0  0  0  0
  8 13  1  0  0  0  0
  9 14  1  0  0  0  0
  9 15  1  0  0  0  0
 10 16  1  0  0  0  0
 11 17  1  0  0  0  0
 12 18  1  0  0  0  0
 13 19  1  0  0  0  0
 15 20  1  0  0  0  0
 16 17  2  0  0  0  0
 21 22  1  0  0  0  0
 22 23  1  0  0  0  0
 22 24  1  0  0  0  0
 23 26  1  0  0  0  0
 24 25  1  0  0  0  0
 25 26  1  0  0  0  0
M  END
> <PUBCHEM_COMPOUND_ID_TYPE>
0

> <PUBCHEM_TOTAL_CHARGE>
0

> <PUBCHEM_SUBSTANCE_ID>
310949559

> <PUBCHEM_SUBSTANCE_VERSION>
1

> <PUBCHEM_EXT_DATASOURCE_NAME>
4488

> <PUBCHEM_EXT_DATASOURCE_REGID>
SCHEMBL16127754

> <PUBCHEM_SUBSTANCE_COMMENT>
InChI=1S/C22H32N4/c1-2-6-17(5-1)16-25-13-10-19(11-14-25)26-21-8-4-3-7-20(21)24-22(26)18-9-12-23-15-18/h3-4,7-8,17-19,23H,1-2,5-6,9-16H2/t18-/m1/s1
InChIKey=LUFZABLOYYANIS-GOSISDBHSA-N

> <PUBCHEM_SUBSTANCE_SYNONYM>
SCHEMBL16127754

> <PUBCHEM_XREF_EXT_ID>
SCHEMBL16127754

> <PUBCHEM_EXT_DATASOURCE_URL>
https://www.surechembl.org/

> <PUBCHEM_EXT_SUBSTANCE_URL>
https://www.surechembl.org/chemical/SCHEMBL16127754

> <PUBCHEM_CID_ASSOCIATIONS>
117614977  1

> <PUBCHEM_COORDINATE_TYPE>
1
3

> <PUBCHEM_BONDANNOTATIONS>
9  5  6

$$$$
