310937929
  -OEChem-07211613022D

 25 28  0     1  0  0  0  0  0999 V2000
    2.4269   -8.0895    0.0000 F   0  0  0  0  0  0  0  0  0  0  0  0
    1.6584   -1.3752    0.0000 O   0  0  0  0  0  0  0  0  0  0  0  0
    0.0000   -5.2177    0.0000 O   0  0  0  0  0  0  0  0  0  0  0  0
    2.0224   -3.0740    0.0000 N   0  0  0  0  0  0  0  0  0  0  0  0
    1.2134   -4.5301    0.0000 N   0  0  0  0  0  0  0  0  0  0  0  0
    3.2358   -3.6403    0.0000 N   0  0  0  0  0  0  0  0  0  0  0  0
    3.3167   -2.8313    0.0000 N   0  0  0  0  0  0  0  0  0  0  0  0
    2.4269   -3.8021    0.0000 C   0  0  0  0  0  0  0  0  0  0  0  0
    2.5482   -2.4673    0.0000 C   0  0  0  0  0  0  0  0  0  0  0  0
    2.0224   -4.5301    0.0000 C   0  0  3  0  0  0  0  0  0  0  0  0
    2.3864   -1.6988    0.0000 C   0  0  0  0  0  0  0  0  0  0  0  0
    1.1730   -3.0740    0.0000 C   0  0  0  0  0  0  0  0  0  0  0  0
    0.8090   -5.2177    0.0000 C   0  0  0  0  0  0  0  0  0  0  0  0
    0.7685   -3.8021    0.0000 C   0  0  0  0  0  0  0  0  0  0  0  0
    1.2134   -5.9458    0.0000 C   0  0  0  0  0  0  0  0  0  0  0  0
    2.9527   -1.0921    0.0000 C   0  0  0  0  0  0  0  0  0  0  0  0
    2.4269   -5.2177    0.0000 C   0  0  0  0  0  0  0  0  0  0  0  0
    1.7392   -0.5258    0.0000 C   0  0  0  0  0  0  0  0  0  0  0  0
    2.5482   -0.3640    0.0000 C   0  0  0  0  0  0  0  0  0  0  0  0
    2.0224   -5.9458    0.0000 C   0  0  0  0  0  0  0  0  0  0  0  0
    0.8090   -6.6739    0.0000 C   0  0  0  0  0  0  0  0  0  0  0  0
    2.4673   -6.6739    0.0000 C   0  0  0  0  0  0  0  0  0  0  0  0
    1.2134   -7.3614    0.0000 C   0  0  0  0  0  0  0  0  0  0  0  0
    2.0224   -7.3614    0.0000 C   0  0  0  0  0  0  0  0  0  0  0  0
    1.1326    0.0000    0.0000 C   0  0  0  0  0  0  0  0  0  0  0  0
  1 24  1  0  0  0  0
  2 11  1  0  0  0  0
  2 18  1  0  0  0  0
  3 13  2  0  0  0  0
  4  8  1  0  0  0  0
  4  9  1  0  0  0  0
  4 12  1  0  0  0  0
  5 10  1  0  0  0  0
  5 13  1  0  0  0  0
  5 14  1  0  0  0  0
  6  7  1  0  0  0  0
  6  8  2  0  0  0  0
  7  9  2  0  0  0  0
  8 10  1  0  0  0  0
  9 11  1  0  0  0  0
 10 17  1  1  0  0  0
 11 16  2  0  0  0  0
 12 14  1  0  0  0  0
 13 15  1  0  0  0  0
 15 20  2  0  0  0  0
 15 21  1  0  0  0  0
 16 19  1  0  0  0  0
 18 19  2  0  0  0  0
 18 25  1  0  0  0  0
 20 22  1  0  0  0  0
 21 23  2  0  0  0  0
 22 24  2  0  0  0  0
 23 24  1  0  0  0  0
M  END
> <PUBCHEM_COMPOUND_ID_TYPE>
0

> <PUBCHEM_TOTAL_CHARGE>
0

> <PUBCHEM_SUBSTANCE_ID>
310937929

> <PUBCHEM_SUBSTANCE_VERSION>
1

> <PUBCHEM_EXT_DATASOURCE_NAME>
4488

> <PUBCHEM_EXT_DATASOURCE_REGID>
SCHEMBL16115758

> <PUBCHEM_SUBSTANCE_COMMENT>
InChI=1S/C18H17FN4O2/c1-11-3-8-15(25-11)17-21-20-16-12(2)22(9-10-23(16)17)18(24)13-4-6-14(19)7-5-13/h3-8,12H,9-10H2,1-2H3/t12-/m1/s1
InChIKey=QNQLAOGIKKMCID-GFCCVEGCSA-N

> <PUBCHEM_SUBSTANCE_SYNONYM>
SCHEMBL16115758

> <PUBCHEM_XREF_EXT_ID>
SCHEMBL16115758

> <PUBCHEM_EXT_DATASOURCE_URL>
https://www.surechembl.org/

> <PUBCHEM_EXT_SUBSTANCE_URL>
https://www.surechembl.org/chemical/SCHEMBL16115758

> <PUBCHEM_CID_ASSOCIATIONS>
78425907  1

> <PUBCHEM_COORDINATE_TYPE>
1
3

> <PUBCHEM_BONDANNOTATIONS>
10  17  5

$$$$
