310943452
  -OEChem-07211613022D

 30 33  0     1  0  0  0  0  0999 V2000
   -3.1600   -1.0338    0.0000 O   0  0  0  0  0  0  0  0  0  0  0  0
   -4.5970    1.4444    0.0000 O   0  0  0  0  0  0  0  0  0  0  0  0
    4.0398   -0.9458    0.0000 O   0  0  0  0  0  0  0  0  0  0  0  0
    1.1364   -1.0338    0.0000 O   0  0  0  0  0  0  0  0  0  0  0  0
   -1.7377   -1.0191    0.0000 N   0  0  0  0  0  0  0  0  0  0  0  0
   -3.1747    0.6232    0.0000 N   0  0  0  0  0  0  0  0  0  0  0  0
    0.4179    1.8550    0.0000 N   0  0  0  0  0  0  0  0  0  0  0  0
    1.8550    0.2126    0.0000 N   0  0  0  0  0  0  0  0  0  0  0  0
   -1.0045    0.2126    0.0000 C   0  0  0  0  0  0  0  0  0  0  0  0
   -2.4415    0.2126    0.0000 C   0  0  0  0  0  0  0  0  0  0  0  0
   -0.3006    0.6232    0.0000 C   0  0  0  0  0  0  0  0  0  0  0  0
   -2.4415   -0.5939    0.0000 C   0  0  0  0  0  0  0  0  0  0  0  0
   -1.7230    0.6232    0.0000 C   0  0  0  0  0  0  0  0  0  0  0  0
   -1.0191   -0.6085    0.0000 C   0  0  0  0  0  0  0  0  0  0  0  0
   -0.2859    1.4444    0.0000 C   0  0  0  0  0  0  0  0  0  0  0  0
    0.4179    0.2126    0.0000 C   0  0  0  0  0  0  0  0  0  0  0  0
    1.1364    0.6232    0.0000 C   0  0  0  0  0  0  0  0  0  0  0  0
    1.1364    1.4297    0.0000 C   0  0  0  0  0  0  0  0  0  0  0  0
   -3.1747    1.4444    0.0000 C   0  0  0  0  0  0  0  0  0  0  0  0
   -3.8786    0.2126    0.0000 C   0  0  0  0  0  0  0  0  0  0  0  0
   -1.7083   -1.8696    0.0000 C   0  0  0  0  0  0  0  0  0  0  0  0
   -1.0045    1.8696    0.0000 C   0  0  0  0  0  0  0  0  0  0  0  0
    1.8550   -0.5939    0.0000 C   0  0  0  0  0  0  0  0  0  0  0  0
   -3.8786    1.8550    0.0000 C   0  0  0  0  0  0  0  0  0  0  0  0
   -4.5970    0.6232    0.0000 C   0  0  0  0  0  0  0  0  0  0  0  0
    2.5882   -1.0191    0.0000 C   0  0  0  0  0  0  0  0  0  0  0  0
    3.2773   -0.6085    0.0000 C   0  0  3  0  0  0  0  0  0  0  0  0
    3.3800    0.2126    0.0000 C   0  0  0  0  0  0  0  0  0  0  0  0
    4.5970   -0.3299    0.0000 C   0  0  0  0  0  0  0  0  0  0  0  0
    4.1865    0.3739    0.0000 C   0  0  0  0  0  0  0  0  0  0  0  0
  1 12  2  0  0  0  0
  2 24  1  0  0  0  0
  2 25  1  0  0  0  0
  3 27  1  0  0  0  0
  3 29  1  0  0  0  0
  4 23  2  0  0  0  0
  5 12  1  0  0  0  0
  5 14  1  0  0  0  0
  5 21  1  0  0  0  0
  6 10  1  0  0  0  0
  6 19  1  0  0  0  0
  6 20  1  0  0  0  0
  7 15  1  0  0  0  0
  7 18  2  0  0  0  0
  8 17  1  0  0  0  0
  8 23  1  0  0  0  0
  9 11  1  0  0  0  0
  9 13  1  0  0  0  0
  9 14  2  0  0  0  0
 10 12  1  0  0  0  0
 10 13  2  0  0  0  0
 11 15  2  0  0  0  0
 11 16  1  0  0  0  0
 15 22  1  0  0  0  0
 16 17  2  0  0  0  0
 17 18  1  0  0  0  0
 19 24  1  0  0  0  0
 20 25  1  0  0  0  0
 23 26  1  0  0  0  0
 27 26  1  1  0  0  0
 27 28  1  0  0  0  0
 28 30  1  0  0  0  0
 29 30  1  0  0  0  0
M  END
> <PUBCHEM_COMPOUND_ID_TYPE>
0

> <PUBCHEM_TOTAL_CHARGE>
0

> <PUBCHEM_SUBSTANCE_ID>
310943452

> <PUBCHEM_SUBSTANCE_VERSION>
1

> <PUBCHEM_EXT_DATASOURCE_NAME>
4488

> <PUBCHEM_EXT_DATASOURCE_REGID>
SCHEMBL16121516

> <PUBCHEM_SUBSTANCE_COMMENT>
InChI=1S/C22H28N4O4/c1-15-19(11-17(13-23-15)24-21(27)12-18-4-3-7-30-18)16-10-20(22(28)25(2)14-16)26-5-8-29-9-6-26/h10-11,13-14,18H,3-9,12H2,1-2H3,(H,24,27)/t18-/m1/s1
InChIKey=GQAKWDGWDHTDMG-GOSISDBHSA-N

> <PUBCHEM_SUBSTANCE_SYNONYM>
SCHEMBL16121516

> <PUBCHEM_XREF_EXT_ID>
SCHEMBL16121516

> <PUBCHEM_EXT_DATASOURCE_URL>
https://www.surechembl.org/

> <PUBCHEM_EXT_SUBSTANCE_URL>
https://www.surechembl.org/chemical/SCHEMBL16121516

> <PUBCHEM_CID_ASSOCIATIONS>
117609876  1

> <PUBCHEM_COORDINATE_TYPE>
1
3

> <PUBCHEM_BONDANNOTATIONS>
27  26  5

$$$$
