310940228
  -OEChem-07211613022D

 20 23  0     0  0  0  0  0  0999 V2000
   -1.3641    1.1306    0.0000 N   0  0  0  0  0  0  0  0  0  0  0  0
   -0.5794    1.3855    0.0000 N   0  0  0  0  0  0  0  0  0  0  0  0
    1.9680    1.4326    0.0000 N   0  0  0  0  0  0  0  0  0  0  0  0
    2.7930   -1.4253    0.0000 N   0  0  0  0  0  0  0  0  0  0  0  0
   -0.5794    0.0507    0.0000 C   0  0  0  0  0  0  0  0  0  0  0  0
   -0.0945    0.7181    0.0000 C   0  0  0  0  0  0  0  0  0  0  0  0
   -1.3641    0.3056    0.0000 C   0  0  0  0  0  0  0  0  0  0  0  0
   -0.3659   -0.7462    0.0000 C   0  0  0  0  0  0  0  0  0  0  0  0
    0.7305    0.7181    0.0000 C   0  0  0  0  0  0  0  0  0  0  0  0
   -0.5794   -1.5431    0.0000 C   0  0  0  0  0  0  0  0  0  0  0  0
    0.2175   -1.3296    0.0000 C   0  0  0  0  0  0  0  0  0  0  0  0
   -2.0785   -0.1069    0.0000 C   0  0  0  0  0  0  0  0  0  0  0  0
   -2.0785    1.5431    0.0000 C   0  0  0  0  0  0  0  0  0  0  0  0
    1.1430    0.0036    0.0000 C   0  0  0  0  0  0  0  0  0  0  0  0
    1.1430    1.4326    0.0000 C   0  0  0  0  0  0  0  0  0  0  0  0
    1.9680    0.0036    0.0000 C   0  0  0  0  0  0  0  0  0  0  0  0
   -2.7930    0.3056    0.0000 C   0  0  0  0  0  0  0  0  0  0  0  0
   -2.7930    1.1306    0.0000 C   0  0  0  0  0  0  0  0  0  0  0  0
    2.3805    0.7181    0.0000 C   0  0  0  0  0  0  0  0  0  0  0  0
    2.3805   -0.7108    0.0000 C   0  0  0  0  0  0  0  0  0  0  0  0
  1  2  1  0  0  0  0
  1  7  1  0  0  0  0
  1 13  1  0  0  0  0
  2  6  2  0  0  0  0
  3 15  2  0  0  0  0
  3 19  1  0  0  0  0
  4 20  3  0  0  0  0
  5  6  1  0  0  0  0
  5  7  2  0  0  0  0
  5  8  1  0  0  0  0
  6  9  1  0  0  0  0
  7 12  1  0  0  0  0
  8 10  1  0  0  0  0
  8 11  1  0  0  0  0
  9 14  2  0  0  0  0
  9 15  1  0  0  0  0
 10 11  1  0  0  0  0
 12 17  2  0  0  0  0
 13 18  2  0  0  0  0
 14 16  1  0  0  0  0
 16 19  2  0  0  0  0
 16 20  1  0  0  0  0
 17 18  1  0  0  0  0
M  END
> <PUBCHEM_COMPOUND_ID_TYPE>
0

> <PUBCHEM_TOTAL_CHARGE>
0

> <PUBCHEM_SUBSTANCE_ID>
310940228

> <PUBCHEM_SUBSTANCE_VERSION>
1

> <PUBCHEM_EXT_DATASOURCE_NAME>
4488

> <PUBCHEM_EXT_DATASOURCE_REGID>
SCHEMBL16118162

> <PUBCHEM_SUBSTANCE_COMMENT>
InChI=1S/C16H12N4/c17-8-11-7-13(10-18-9-11)16-15(12-4-5-12)14-3-1-2-6-20(14)19-16/h1-3,6-7,9-10,12H,4-5H2
InChIKey=JFAQZWYDIQFKBB-UHFFFAOYSA-N

> <PUBCHEM_SUBSTANCE_SYNONYM>
SCHEMBL16118162

> <PUBCHEM_XREF_EXT_ID>
SCHEMBL16118162

> <PUBCHEM_EXT_DATASOURCE_URL>
https://www.surechembl.org/

> <PUBCHEM_EXT_SUBSTANCE_URL>
https://www.surechembl.org/chemical/SCHEMBL16118162

> <PUBCHEM_CID_ASSOCIATIONS>
117607321  1

> <PUBCHEM_COORDINATE_TYPE>
1
3

$$$$
