310935159
  -OEChem-07211613022D

 40 43  0     0  0  0  0  0  0999 V2000
    0.0000   -2.1952    0.0000 S   0  0  0  0  0  0  0  0  0  0  0  0
    4.7040  -12.5441    0.0000 F   0  0  0  0  0  0  0  0  0  0  0  0
    5.5821  -11.3524    0.0000 F   0  0  0  0  0  0  0  0  0  0  0  0
    4.8922  -10.8507    0.0000 F   0  0  0  0  0  0  0  0  0  0  0  0
    4.1395  -11.2270    0.0000 O   0  0  0  0  0  0  0  0  0  0  0  0
    1.2544   -1.4426    0.0000 O   0  0  0  0  0  0  0  0  0  0  0  0
    4.4532   -7.9028    0.0000 N   0  0  0  0  0  0  0  0  0  0  0  0
    3.8260   -7.3383    0.0000 N   0  0  0  0  0  0  0  0  0  0  0  0
    5.0176   -6.6484    0.0000 N   0  0  0  0  0  0  0  0  0  0  0  0
    1.2544   -2.8852    0.0000 N   0  0  0  0  0  0  0  0  0  0  0  0
    2.5088   -2.1952    0.0000 N   0  0  0  0  0  0  0  0  0  0  0  0
    0.0000   -3.6378    0.0000 N   0  0  0  0  0  0  0  0  0  0  0  0
    4.2023   -6.5856    0.0000 C   0  0  0  0  0  0  0  0  0  0  0  0
    3.7633   -5.8330    0.0000 C   0  0  0  0  0  0  0  0  0  0  0  0
    4.3905   -8.7182    0.0000 C   0  0  0  0  0  0  0  0  0  0  0  0
    2.9479   -4.3905    0.0000 C   0  0  0  0  0  0  0  0  0  0  0  0
    5.2058   -7.4637    0.0000 C   0  0  0  0  0  0  0  0  0  0  0  0
    2.5088   -5.0804    0.0000 C   0  0  0  0  0  0  0  0  0  0  0  0
    2.9479   -5.8330    0.0000 C   0  0  0  0  0  0  0  0  0  0  0  0
    4.2023   -5.0804    0.0000 C   0  0  0  0  0  0  0  0  0  0  0  0
    1.6308   -2.1952    0.0000 C   0  0  0  0  0  0  0  0  0  0  0  0
    3.7633   -4.3905    0.0000 C   0  0  0  0  0  0  0  0  0  0  0  0
    5.0804   -9.2199    0.0000 C   0  0  0  0  0  0  0  0  0  0  0  0
    3.6378   -9.0318    0.0000 C   0  0  0  0  0  0  0  0  0  0  0  0
    4.2023  -10.3489    0.0000 C   0  0  0  0  0  0  0  0  0  0  0  0
    2.5088   -3.6378    0.0000 C   0  0  0  0  0  0  0  0  0  0  0  0
    2.9479   -1.4426    0.0000 C   0  0  0  0  0  0  0  0  0  0  0  0
    1.6308   -3.6378    0.0000 C   0  0  0  0  0  0  0  0  0  0  0  0
    4.9550  -10.0353    0.0000 C   0  0  0  0  0  0  0  0  0  0  0  0
    3.5124   -9.8472    0.0000 C   0  0  0  0  0  0  0  0  0  0  0  0
    0.3763   -2.8852    0.0000 C   0  0  0  0  0  0  0  0  0  0  0  0
    4.7668  -11.7288    0.0000 C   0  0  0  0  0  0  0  0  0  0  0  0
    2.9479   -2.9479    0.0000 C   0  0  0  0  0  0  0  0  0  0  0  0
    1.6934   -5.0804    0.0000 C   0  0  0  0  0  0  0  0  0  0  0  0
    2.5088   -0.6899    0.0000 C   0  0  0  0  0  0  0  0  0  0  0  0
    3.7633   -1.4426    0.0000 C   0  0  0  0  0  0  0  0  0  0  0  0
    2.8852    0.0000    0.0000 C   0  0  0  0  0  0  0  0  0  0  0  0
    4.1395   -0.7527    0.0000 C   0  0  0  0  0  0  0  0  0  0  0  0
    3.7633    0.0000    0.0000 C   0  0  0  0  0  0  0  0  0  0  0  0
    3.7633   -2.9479    0.0000 C   0  0  0  0  0  0  0  0  0  0  0  0
  1 31  2  0  0  0  0
  2 32  1  0  0  0  0
  3 32  1  0  0  0  0
  4 32  1  0  0  0  0
  5 25  1  0  0  0  0
  5 32  1  0  0  0  0
  6 21  2  0  0  0  0
  7  8  1  0  0  0  0
  7 15  1  0  0  0  0
  7 17  1  0  0  0  0
  8 13  2  0  0  0  0
  9 13  1  0  0  0  0
  9 17  2  0  0  0  0
 10 21  1  0  0  0  0
 10 28  1  0  0  0  0
 10 31  1  0  0  0  0
 11 21  1  0  0  0  0
 11 27  1  0  0  0  0
 11 33  1  0  0  0  0
 12 31  1  0  0  0  0
 13 14  1  0  0  0  0
 14 19  1  0  0  0  0
 14 20  2  0  0  0  0
 15 23  2  0  0  0  0
 15 24  1  0  0  0  0
 16 18  1  0  0  0  0
 16 22  2  0  0  0  0
 16 26  1  0  0  0  0
 18 19  2  0  0  0  0
 18 34  1  0  0  0  0
 20 22  1  0  0  0  0
 23 29  1  0  0  0  0
 24 30  2  0  0  0  0
 25 29  2  0  0  0  0
 25 30  1  0  0  0  0
 26 28  1  0  0  0  0
 27 35  2  0  0  0  0
 27 36  1  0  0  0  0
 33 40  1  0  0  0  0
 35 37  1  0  0  0  0
 36 38  2  0  0  0  0
 37 39  2  0  0  0  0
 38 39  1  0  0  0  0
M  END
> <PUBCHEM_COMPOUND_ID_TYPE>
0

> <PUBCHEM_TOTAL_CHARGE>
0

> <PUBCHEM_SUBSTANCE_ID>
310935159

> <PUBCHEM_SUBSTANCE_VERSION>
1

> <PUBCHEM_EXT_DATASOURCE_NAME>
4488

> <PUBCHEM_EXT_DATASOURCE_REGID>
SCHEMBL16112687

> <PUBCHEM_SUBSTANCE_COMMENT>
InChI=1S/C28H27F3N6O2S/c1-3-35(22-7-5-4-6-8-22)27(38)36(26(32)40)16-15-20-9-10-21(17-19(20)2)25-33-18-37(34-25)23-11-13-24(14-12-23)39-28(29,30)31/h4-14,17-18H,3,15-16H2,1-2H3,(H2,32,40)
InChIKey=JSSAIPQNUDWJGL-UHFFFAOYSA-N

> <PUBCHEM_SUBSTANCE_SYNONYM>
SCHEMBL16112687

> <PUBCHEM_XREF_EXT_ID>
SCHEMBL16112687

> <PUBCHEM_EXT_DATASOURCE_URL>
https://www.surechembl.org/

> <PUBCHEM_EXT_SUBSTANCE_URL>
https://www.surechembl.org/chemical/SCHEMBL16112687

> <PUBCHEM_CID_ASSOCIATIONS>
117603244  1

> <PUBCHEM_COORDINATE_TYPE>
1
3

$$$$
