310931739
  -OEChem-07211613022D

 24 26  0     0  0  0  0  0  0999 V2000
    4.2391   -2.4751    0.0000 O   0  0  0  0  0  0  0  0  0  0  0  0
    3.5278   -0.4267    0.0000 O   0  0  0  0  0  0  0  0  0  0  0  0
    0.7112   -1.2518    0.0000 O   0  0  0  0  0  0  0  0  0  0  0  0
    7.7953   -1.2518    0.0000 N   0  0  0  0  0  0  0  0  0  0  0  0
    4.9787   -1.2518    0.0000 C   0  0  0  0  0  0  0  0  0  0  0  0
    4.2391   -1.6501    0.0000 C   0  0  0  0  0  0  0  0  0  0  0  0
    3.5278   -1.2518    0.0000 C   0  0  0  0  0  0  0  0  0  0  0  0
    2.8165   -1.6501    0.0000 C   0  0  0  0  0  0  0  0  0  0  0  0
    6.3728   -1.2518    0.0000 C   0  0  0  0  0  0  0  0  0  0  0  0
    5.6900   -1.6501    0.0000 C   0  0  0  0  0  0  0  0  0  0  0  0
    7.0840   -1.6501    0.0000 C   0  0  0  0  0  0  0  0  0  0  0  0
    4.9787   -0.4267    0.0000 C   0  0  0  0  0  0  0  0  0  0  0  0
    2.1053   -1.2518    0.0000 C   0  0  0  0  0  0  0  0  0  0  0  0
    6.4012   -0.4267    0.0000 C   0  0  0  0  0  0  0  0  0  0  0  0
    2.8165   -2.4751    0.0000 C   0  0  0  0  0  0  0  0  0  0  0  0
    1.4225   -1.6501    0.0000 C   0  0  0  0  0  0  0  0  0  0  0  0
    5.6900    0.0000    0.0000 C   0  0  0  0  0  0  0  0  0  0  0  0
    7.0840   -2.4751    0.0000 C   0  0  0  0  0  0  0  0  0  0  0  0
    2.1053   -2.9019    0.0000 C   0  0  0  0  0  0  0  0  0  0  0  0
    1.3940   -2.4751    0.0000 C   0  0  0  0  0  0  0  0  0  0  0  0
    8.5350   -1.6501    0.0000 C   0  0  0  0  0  0  0  0  0  0  0  0
    7.8238   -2.8735    0.0000 C   0  0  0  0  0  0  0  0  0  0  0  0
    8.5066   -2.4751    0.0000 C   0  0  0  0  0  0  0  0  0  0  0  0
    0.0000   -1.6501    0.0000 C   0  0  0  0  0  0  0  0  0  0  0  0
  1  6  2  0  0  0  0
  2  7  2  0  0  0  0
  3 16  1  0  0  0  0
  3 24  1  0  0  0  0
  4 11  1  0  0  0  0
  4 21  2  0  0  0  0
  5  6  1  0  0  0  0
  5 10  1  0  0  0  0
  5 12  2  0  0  0  0
  6  7  1  0  0  0  0
  7  8  1  0  0  0  0
  8 13  1  0  0  0  0
  8 15  2  0  0  0  0
  9 10  2  0  0  0  0
  9 11  1  0  0  0  0
  9 14  1  0  0  0  0
 11 18  2  0  0  0  0
 12 17  1  0  0  0  0
 13 16  2  0  0  0  0
 14 17  2  0  0  0  0
 15 19  1  0  0  0  0
 16 20  1  0  0  0  0
 18 22  1  0  0  0  0
 19 20  2  0  0  0  0
 21 23  1  0  0  0  0
 22 23  2  0  0  0  0
M  END
> <PUBCHEM_COMPOUND_ID_TYPE>
0

> <PUBCHEM_TOTAL_CHARGE>
0

> <PUBCHEM_SUBSTANCE_ID>
310931739

> <PUBCHEM_SUBSTANCE_VERSION>
1

> <PUBCHEM_EXT_DATASOURCE_NAME>
4488

> <PUBCHEM_EXT_DATASOURCE_REGID>
SCHEMBL16109068

> <PUBCHEM_SUBSTANCE_COMMENT>
InChI=1S/C20H15NO3/c1-24-17-9-5-8-16(13-17)20(23)19(22)15-7-4-6-14(12-15)18-10-2-3-11-21-18/h2-13H,1H3
InChIKey=VTHIIQOTNANEKO-UHFFFAOYSA-N

> <PUBCHEM_SUBSTANCE_SYNONYM>
SCHEMBL16109068

> <PUBCHEM_XREF_EXT_ID>
SCHEMBL16109068

> <PUBCHEM_EXT_DATASOURCE_URL>
https://www.surechembl.org/

> <PUBCHEM_EXT_SUBSTANCE_URL>
https://www.surechembl.org/chemical/SCHEMBL16109068

> <PUBCHEM_CID_ASSOCIATIONS>
117600431  1

> <PUBCHEM_COORDINATE_TYPE>
1
3

$$$$
