310934433
  -OEChem-07211613022D

 24 27  0     0  0  0  0  0  0999 V2000
    5.5990   -1.6534    0.0000 Cl  0  0  0  0  0  0  0  0  0  0  0  0
    0.0000   -1.9352    0.0000 O   0  0  0  0  0  0  0  0  0  0  0  0
    1.2965    0.0000    0.0000 O   0  0  0  0  0  0  0  0  0  0  0  0
    2.3298   -3.7577    0.0000 O   0  0  0  0  0  0  0  0  0  0  0  0
    2.7431    0.0000    0.0000 N   0  0  0  0  0  0  0  0  0  0  0  0
    0.3945   -2.6680    0.0000 N   0  0  0  0  0  0  0  0  0  0  0  0
    3.1565   -3.7577    0.0000 N   0  0  0  0  0  0  0  0  0  0  0  0
    2.0104   -1.2401    0.0000 C   0  0  0  0  0  0  0  0  0  0  0  0
    2.7431   -1.6534    0.0000 C   0  0  0  0  0  0  0  0  0  0  0  0
    3.4571   -1.2401    0.0000 C   0  0  0  0  0  0  0  0  0  0  0  0
    1.2965   -1.6534    0.0000 C   0  0  0  0  0  0  0  0  0  0  0  0
    2.0104   -0.4134    0.0000 C   0  0  0  0  0  0  0  0  0  0  0  0
    3.4571   -0.4134    0.0000 C   0  0  0  0  0  0  0  0  0  0  0  0
    2.7431   -2.4801    0.0000 C   0  0  0  0  0  0  0  0  0  0  0  0
    0.5449   -1.3340    0.0000 C   0  0  0  0  0  0  0  0  0  0  0  0
    1.2213   -2.4801    0.0000 C   0  0  0  0  0  0  0  0  0  0  0  0
    4.1523   -1.6534    0.0000 C   0  0  0  0  0  0  0  0  0  0  0  0
    4.1523    0.0000    0.0000 C   0  0  0  0  0  0  0  0  0  0  0  0
    4.8663   -1.2401    0.0000 C   0  0  0  0  0  0  0  0  0  0  0  0
    2.0855   -2.9686    0.0000 C   0  0  0  0  0  0  0  0  0  0  0  0
    3.4008   -2.9686    0.0000 C   0  0  0  0  0  0  0  0  0  0  0  0
    4.8663   -0.4134    0.0000 C   0  0  0  0  0  0  0  0  0  0  0  0
    0.3570   -0.5261    0.0000 C   0  0  0  0  0  0  0  0  0  0  0  0
    1.8225   -3.0250    0.0000 C   0  0  0  0  0  0  0  0  0  0  0  0
  1 19  1  0  0  0  0
  2  6  1  0  0  0  0
  2 15  1  0  0  0  0
  3 12  2  0  0  0  0
  4  7  1  0  0  0  0
  4 20  1  0  0  0  0
  5 12  1  0  0  0  0
  5 13  1  0  0  0  0
  6 16  2  0  0  0  0
  7 21  2  0  0  0  0
  8  9  2  0  0  0  0
  8 11  1  0  0  0  0
  8 12  1  0  0  0  0
  9 10  1  0  0  0  0
  9 14  1  0  0  0  0
 10 13  2  0  0  0  0
 10 17  1  0  0  0  0
 11 15  2  0  0  0  0
 11 16  1  0  0  0  0
 13 18  1  0  0  0  0
 14 20  2  0  0  0  0
 14 21  1  0  0  0  0
 15 23  1  0  0  0  0
 16 24  1  0  0  0  0
 17 19  2  0  0  0  0
 18 22  2  0  0  0  0
 19 22  1  0  0  0  0
M  END
> <PUBCHEM_COMPOUND_ID_TYPE>
0

> <PUBCHEM_TOTAL_CHARGE>
0

> <PUBCHEM_SUBSTANCE_ID>
310934433

> <PUBCHEM_SUBSTANCE_VERSION>
1

> <PUBCHEM_EXT_DATASOURCE_NAME>
4488

> <PUBCHEM_EXT_DATASOURCE_REGID>
SCHEMBL16111910

> <PUBCHEM_SUBSTANCE_COMMENT>
InChI=1S/C17H12ClN3O3/c1-8-14(9(2)24-21-8)16-15(10-6-19-23-7-10)12-5-11(18)3-4-13(12)20-17(16)22/h3-7H,1-2H3,(H,20,22)
InChIKey=WKEAMAXWUAXBIL-UHFFFAOYSA-N

> <PUBCHEM_SUBSTANCE_SYNONYM>
SCHEMBL16111910

> <PUBCHEM_XREF_EXT_ID>
SCHEMBL16111910

> <PUBCHEM_EXT_DATASOURCE_URL>
https://www.surechembl.org/

> <PUBCHEM_EXT_SUBSTANCE_URL>
https://www.surechembl.org/chemical/SCHEMBL16111910

> <PUBCHEM_CID_ASSOCIATIONS>
117602647  1

> <PUBCHEM_COORDINATE_TYPE>
1
3

$$$$
