310931809
  -OEChem-07211613022D

 34 38  0     1  0  0  0  0  0999 V2000
    7.2327   -1.3952    0.0000 O   0  0  0  0  0  0  0  0  0  0  0  0
    3.0840   -3.0840    0.0000 O   0  0  0  0  0  0  0  0  0  0  0  0
    6.8656   -2.7903    0.0000 N   0  0  0  0  0  0  0  0  0  0  0  0
    7.2695   -3.5246    0.0000 N   0  0  0  0  0  0  0  0  0  0  0  0
    5.5806   -3.3410    0.0000 N   0  0  0  0  0  0  0  0  0  0  0  0
    3.2676   -1.6889    0.0000 N   0  0  0  0  0  0  0  0  0  0  0  0
    1.2850   -0.7343    0.0000 N   0  0  0  0  0  0  0  0  0  0  0  0
   11.0143   -0.0367    0.0000 N   0  0  0  0  0  0  0  0  0  0  0  0
    8.1506   -2.4966    0.0000 C   0  0  0  0  0  0  0  0  0  0  0  0
    7.3796   -2.1661    0.0000 C   0  0  0  0  0  0  0  0  0  0  0  0
    8.8849   -2.0927    0.0000 C   0  0  0  0  0  0  0  0  0  0  0  0
    6.0211   -2.7168    0.0000 C   0  0  0  0  0  0  0  0  0  0  0  0
    8.0772   -3.3410    0.0000 C   0  0  0  0  0  0  0  0  0  0  0  0
    8.8849   -1.2850    0.0000 C   0  0  0  0  0  0  0  0  0  0  0  0
    4.4057   -2.5333    0.0000 C   0  0  0  0  0  0  0  0  0  0  0  0
    3.5980   -2.4232    0.0000 C   0  0  0  0  0  0  0  0  0  0  0  0
    5.7275   -1.9459    0.0000 C   0  0  0  0  0  0  0  0  0  0  0  0
    9.5825   -2.4966    0.0000 C   0  0  0  0  0  0  0  0  0  0  0  0
    4.7361   -3.3043    0.0000 C   0  0  0  0  0  0  0  0  0  0  0  0
    4.8830   -1.8725    0.0000 C   0  0  0  0  0  0  0  0  0  0  0  0
    2.1294   -0.8444    0.0000 C   0  0  3  0  0  0  0  0  0  0  0  0
    9.5825   -0.8811    0.0000 C   0  0  0  0  0  0  0  0  0  0  0  0
   10.2800   -1.2850    0.0000 C   0  0  0  0  0  0  0  0  0  0  0  0
    2.4232   -1.6154    0.0000 C   0  0  0  0  0  0  0  0  0  0  0  0
   10.2800   -2.0927    0.0000 C   0  0  0  0  0  0  0  0  0  0  0  0
    3.7449   -1.0280    0.0000 C   0  0  0  0  0  0  0  0  0  0  0  0
    2.6067   -0.1468    0.0000 C   0  0  0  0  0  0  0  0  0  0  0  0
    8.1506   -0.8811    0.0000 C   0  0  0  0  0  0  0  0  0  0  0  0
    3.4144   -0.2570    0.0000 C   0  0  0  0  0  0  0  0  0  0  0  0
    0.7343   -1.3217    0.0000 C   0  0  0  0  0  0  0  0  0  0  0  0
    0.8811    0.0000    0.0000 C   0  0  0  0  0  0  0  0  0  0  0  0
   11.0143   -0.8811    0.0000 C   0  0  0  0  0  0  0  0  0  0  0  0
    0.0000   -0.9913    0.0000 C   0  0  0  0  0  0  0  0  0  0  0  0
    0.0734   -0.1836    0.0000 C   0  0  0  0  0  0  0  0  0  0  0  0
  1 10  1  0  0  0  0
  2 16  2  0  0  0  0
  3  4  1  0  0  0  0
  3 10  1  0  0  0  0
  3 12  1  0  0  0  0
  4 13  2  0  0  0  0
  5 12  1  0  0  0  0
  5 19  2  0  0  0  0
  6 16  1  0  0  0  0
  6 24  1  0  0  0  0
  6 26  1  0  0  0  0
 21  7  1  1  0  0  0
  7 30  1  0  0  0  0
  7 31  1  0  0  0  0
  8 32  3  0  0  0  0
  9 10  2  0  0  0  0
  9 11  1  0  0  0  0
  9 13  1  0  0  0  0
 11 14  2  0  0  0  0
 11 18  1  0  0  0  0
 12 17  2  0  0  0  0
 14 22  1  0  0  0  0
 14 28  1  0  0  0  0
 15 16  1  0  0  0  0
 15 19  1  0  0  0  0
 15 20  2  0  0  0  0
 17 20  1  0  0  0  0
 18 25  2  0  0  0  0
 21 24  1  0  0  0  0
 21 27  1  0  0  0  0
 22 23  2  0  0  0  0
 23 25  1  0  0  0  0
 23 32  1  0  0  0  0
 26 29  1  0  0  0  0
 27 29  1  0  0  0  0
 30 33  1  0  0  0  0
 31 34  1  0  0  0  0
 33 34  1  0  0  0  0
M  END
> <PUBCHEM_COMPOUND_ID_TYPE>
0

> <PUBCHEM_TOTAL_CHARGE>
0

> <PUBCHEM_SUBSTANCE_ID>
310931809

> <PUBCHEM_SUBSTANCE_VERSION>
1

> <PUBCHEM_EXT_DATASOURCE_NAME>
4488

> <PUBCHEM_EXT_DATASOURCE_REGID>
SCHEMBL16109142

> <PUBCHEM_SUBSTANCE_COMMENT>
InChI=1S/C26H28N6O2/c1-18-13-19(14-27)6-8-22(18)23-16-29-32(26(23)34)24-9-7-20(15-28-24)25(33)31-12-4-5-21(17-31)30-10-2-3-11-30/h6-9,13,15-16,21,34H,2-5,10-12,17H2,1H3/t21-/m0/s1
InChIKey=JHYVDAFBFDFPAH-NRFANRHFSA-N

> <PUBCHEM_SUBSTANCE_SYNONYM>
SCHEMBL16109142

> <PUBCHEM_XREF_EXT_ID>
SCHEMBL16109142

> <PUBCHEM_EXT_DATASOURCE_URL>
https://www.surechembl.org/

> <PUBCHEM_EXT_SUBSTANCE_URL>
https://www.surechembl.org/chemical/SCHEMBL16109142

> <PUBCHEM_CID_ASSOCIATIONS>
117600486  1

> <PUBCHEM_COORDINATE_TYPE>
1
3

> <PUBCHEM_BONDANNOTATIONS>
21  7  5

$$$$
