310937564
  -OEChem-07211613022D

 21 24  0     0  0  0  0  0  0999 V2000
   -2.5284   -0.2495    0.0000 Cl  0  0  0  0  0  0  0  0  0  0  0  0
   -1.1004   -0.3019    0.0000 N   0  0  0  0  0  0  0  0  0  0  0  0
    2.2244   -0.7427    0.0000 N   0  0  0  0  0  0  0  0  0  0  0  0
   -0.4511   -0.8109    0.0000 C   0  0  0  0  0  0  0  0  0  0  0  0
   -0.7347   -1.5857    0.0000 C   0  0  0  0  0  0  0  0  0  0  0  0
    0.3733   -0.8411    0.0000 C   0  0  0  0  0  0  0  0  0  0  0  0
    0.5993   -1.6346    0.0000 C   0  0  0  0  0  0  0  0  0  0  0  0
   -0.0854   -2.0947    0.0000 C   0  0  0  0  0  0  0  0  0  0  0  0
   -1.5591   -1.5554    0.0000 C   0  0  0  0  0  0  0  0  0  0  0  0
   -1.7851   -0.7620    0.0000 C   0  0  0  0  0  0  0  0  0  0  0  0
   -1.0701    0.5226    0.0000 C   0  0  0  0  0  0  0  0  0  0  0  0
    0.8527   -0.1697    0.0000 C   0  0  0  0  0  0  0  0  0  0  0  0
   -1.7690    0.9610    0.0000 C   0  0  0  0  0  0  0  0  0  0  0  0
    1.3606   -1.9525    0.0000 C   0  0  0  0  0  0  0  0  0  0  0  0
   -2.4981    0.5749    0.0000 C   0  0  0  0  0  0  0  0  0  0  0  0
    1.6765   -0.1259    0.0000 C   0  0  0  0  0  0  0  0  0  0  0  0
    2.0838   -1.5556    0.0000 C   0  0  0  0  0  0  0  0  0  0  0  0
   -1.7388    1.7854    0.0000 C   0  0  0  0  0  0  0  0  0  0  0  0
   -3.1970    1.0133    0.0000 C   0  0  0  0  0  0  0  0  0  0  0  0
   -2.4377    2.2238    0.0000 C   0  0  0  0  0  0  0  0  0  0  0  0
   -3.1668    1.8378    0.0000 C   0  0  0  0  0  0  0  0  0  0  0  0
  1 15  1  0  0  0  0
  2  4  1  0  0  0  0
  2 10  1  0  0  0  0
  2 11  1  0  0  0  0
  3 16  2  0  0  0  0
  3 17  1  0  0  0  0
  4  5  2  0  0  0  0
  4  6  1  0  0  0  0
  5  8  1  0  0  0  0
  5  9  1  0  0  0  0
  6  7  1  0  0  0  0
  6 12  2  0  0  0  0
  7  8  2  0  0  0  0
  7 14  1  0  0  0  0
  9 10  2  0  0  0  0
 11 13  1  0  0  0  0
 12 16  1  0  0  0  0
 13 15  2  0  0  0  0
 13 18  1  0  0  0  0
 14 17  2  0  0  0  0
 15 19  1  0  0  0  0
 18 20  2  0  0  0  0
 19 21  2  0  0  0  0
 20 21  1  0  0  0  0
M  END
> <PUBCHEM_COMPOUND_ID_TYPE>
0

> <PUBCHEM_TOTAL_CHARGE>
0

> <PUBCHEM_SUBSTANCE_ID>
310937564

> <PUBCHEM_SUBSTANCE_VERSION>
1

> <PUBCHEM_EXT_DATASOURCE_NAME>
4488

> <PUBCHEM_EXT_DATASOURCE_REGID>
SCHEMBL16115341

> <PUBCHEM_SUBSTANCE_COMMENT>
InChI=1S/C18H13ClN2/c19-17-4-2-1-3-15(17)12-21-10-7-14-11-13-5-8-20-9-6-16(13)18(14)21/h1-11H,12H2
InChIKey=MKHWLTDXZQMWSY-UHFFFAOYSA-N

> <PUBCHEM_SUBSTANCE_SYNONYM>
SCHEMBL16115341

> <PUBCHEM_XREF_EXT_ID>
SCHEMBL16115341

> <PUBCHEM_EXT_DATASOURCE_URL>
https://www.surechembl.org/

> <PUBCHEM_EXT_SUBSTANCE_URL>
https://www.surechembl.org/chemical/SCHEMBL16115341

> <PUBCHEM_CID_ASSOCIATIONS>
117605278  1

> <PUBCHEM_COORDINATE_TYPE>
1
3

$$$$
