310948741
  -OEChem-07211613022D

 28 31  0     1  0  0  0  0  0999 V2000
   -2.5753    1.2464    0.0000 O   0  0  0  0  0  0  0  0  0  0  0  0
    1.1089   -1.5030    0.0000 O   0  0  0  0  0  0  0  0  0  0  0  0
    0.1741    1.0997    0.0000 N   0  0  0  0  0  0  0  0  0  0  0  0
   -0.1741    0.3483    0.0000 N   0  0  0  0  0  0  0  0  0  0  0  0
   -1.5488   -0.1650    0.0000 N   0  0  0  0  0  0  0  0  0  0  0  0
   -1.8421    2.4927    0.0000 N   0  0  0  0  0  0  0  0  0  0  0  0
    0.8340   -0.9715    0.0000 N   0  0  0  0  0  0  0  0  0  0  0  0
   -1.1273    1.2647    0.0000 C   0  0  0  0  0  0  0  0  0  0  0  0
   -0.4491    1.6497    0.0000 C   0  0  0  0  0  0  0  0  0  0  0  0
   -0.9989    0.4399    0.0000 C   0  0  0  0  0  0  0  0  0  0  0  0
    0.9623    1.2464    0.0000 C   0  0  3  0  0  0  0  0  0  0  0  0
   -1.8604    1.6679    0.0000 C   0  0  0  0  0  0  0  0  0  0  0  0
   -0.4307    2.4745    0.0000 C   0  0  0  0  0  0  0  0  0  0  0  0
    1.5305    0.6416    0.0000 C   0  0  3  0  0  0  0  0  0  0  0  0
   -1.1273    2.8960    0.0000 C   0  0  0  0  0  0  0  0  0  0  0  0
   -1.3106   -0.9348    0.0000 C   0  0  0  0  0  0  0  0  0  0  0  0
    1.2556    2.0529    0.0000 C   0  0  0  0  0  0  0  0  0  0  0  0
    2.3187    0.8065    0.0000 C   0  0  0  0  0  0  0  0  0  0  0  0
   -0.5041   -1.1364    0.0000 C   0  0  0  0  0  0  0  0  0  0  0  0
    1.1456   -0.2383    0.0000 C   0  0  0  0  0  0  0  0  0  0  0  0
    2.0437    2.1812    0.0000 C   0  0  0  0  0  0  0  0  0  0  0  0
   -1.8237   -1.5396    0.0000 C   0  0  0  0  0  0  0  0  0  0  0  0
   -0.2658   -1.9062    0.0000 C   0  0  0  0  0  0  0  0  0  0  0  0
    2.5753    1.5946    0.0000 C   0  0  0  0  0  0  0  0  0  0  0  0
   -1.6038   -2.3278    0.0000 C   0  0  0  0  0  0  0  0  0  0  0  0
   -0.7790   -2.5111    0.0000 C   0  0  0  0  0  0  0  0  0  0  0  0
    0.5407   -2.0896    0.0000 C   0  0  3  0  0  0  0  0  0  0  0  0
    0.8156   -2.8960    0.0000 C   0  0  0  0  0  0  0  0  0  0  0  0
  1 12  2  0  0  0  0
  2 27  1  0  0  0  0
  3  4  1  0  0  0  0
  3  9  1  0  0  0  0
 11  3  1  1  0  0  0
  4 10  2  0  0  0  0
  5 10  1  0  0  0  0
  5 16  1  0  0  0  0
  6 12  1  0  0  0  0
  6 15  1  0  0  0  0
  7 20  3  0  0  0  0
  8  9  2  0  0  0  0
  8 10  1  0  0  0  0
  8 12  1  0  0  0  0
  9 13  1  0  0  0  0
 11 14  1  0  0  0  0
 11 17  1  0  0  0  0
 13 15  2  0  0  0  0
 14 18  1  0  0  0  0
 14 20  1  6  0  0  0
 16 19  1  0  0  0  0
 16 22  2  0  0  0  0
 17 21  1  0  0  0  0
 18 24  1  0  0  0  0
 19 23  2  0  0  0  0
 21 24  1  0  0  0  0
 22 25  1  0  0  0  0
 23 26  1  0  0  0  0
 23 27  1  0  0  0  0
 25 26  2  0  0  0  0
 27 28  1  0  0  0  0
M  END
> <PUBCHEM_COMPOUND_ID_TYPE>
0

> <PUBCHEM_TOTAL_CHARGE>
0

> <PUBCHEM_SUBSTANCE_ID>
310948741

> <PUBCHEM_SUBSTANCE_VERSION>
1

> <PUBCHEM_EXT_DATASOURCE_NAME>
4488

> <PUBCHEM_EXT_DATASOURCE_REGID>
SCHEMBL16126925

> <PUBCHEM_SUBSTANCE_COMMENT>
InChI=1S/C21H23N5O2/c1-13(27)14-6-4-7-16(11-14)24-20-19-18(9-10-23-21(19)28)26(25-20)17-8-3-2-5-15(17)12-22/h4,6-7,9-11,13,15,17,27H,2-3,5,8H2,1H3,(H,23,28)(H,24,25)/t13?,15-,17+/m1/s1
InChIKey=KJSMYXLVRYQCHA-RHBCBLIFSA-N

> <PUBCHEM_SUBSTANCE_SYNONYM>
SCHEMBL16126925

> <PUBCHEM_XREF_EXT_ID>
SCHEMBL16126925

> <PUBCHEM_EXT_DATASOURCE_URL>
https://www.surechembl.org/

> <PUBCHEM_EXT_SUBSTANCE_URL>
https://www.surechembl.org/chemical/SCHEMBL16126925

> <PUBCHEM_CID_ASSOCIATIONS>
117614283  1

> <PUBCHEM_COORDINATE_TYPE>
1
3

> <PUBCHEM_BONDANNOTATIONS>
14  20  6
11  3  5

$$$$
