310944781
  -OEChem-07211613022D

 17 18  0     0  0  0  0  0  0999 V2000
   -0.4155   -1.2774    0.0000 Cl  0  0  0  0  0  0  0  0  0  0  0  0
   -2.8463    1.2774    0.0000 S   0  0  0  0  0  0  0  0  0  0  0  0
    1.7177   -0.0248    0.0000 O   0  0  0  0  0  0  0  0  0  0  0  0
    1.0108    1.2154    0.0000 O   0  0  0  0  0  0  0  0  0  0  0  0
   -2.0030    1.1906    0.0000 N   0  0  0  0  0  0  0  0  0  0  0  0
   -3.1687    0.5209    0.0000 N   0  0  0  0  0  0  0  0  0  0  0  0
   -0.4155    0.3845    0.0000 N   0  0  0  0  0  0  0  0  0  0  0  0
   -1.8542    0.3845    0.0000 C   0  0  0  0  0  0  0  0  0  0  0  0
   -1.1224   -0.0248    0.0000 C   0  0  0  0  0  0  0  0  0  0  0  0
   -2.5611   -0.0248    0.0000 C   0  0  0  0  0  0  0  0  0  0  0  0
   -1.1348   -0.8558    0.0000 C   0  0  0  0  0  0  0  0  0  0  0  0
   -2.5486   -0.8558    0.0000 C   0  0  0  0  0  0  0  0  0  0  0  0
   -1.8417   -1.2650    0.0000 C   0  0  0  0  0  0  0  0  0  0  0  0
    0.3163   -0.0248    0.0000 C   0  0  0  0  0  0  0  0  0  0  0  0
    1.0108    0.3721    0.0000 C   0  0  0  0  0  0  0  0  0  0  0  0
    2.4370    0.3845    0.0000 C   0  0  0  0  0  0  0  0  0  0  0  0
    3.1687   -0.0372    0.0000 C   0  0  0  0  0  0  0  0  0  0  0  0
  1 11  1  0  0  0  0
  2  5  1  0  0  0  0
  2  6  1  0  0  0  0
  3 15  1  0  0  0  0
  3 16  1  0  0  0  0
  4 15  2  0  0  0  0
  5  8  2  0  0  0  0
  6 10  2  0  0  0  0
  7  9  1  0  0  0  0
  7 14  1  0  0  0  0
  8  9  1  0  0  0  0
  8 10  1  0  0  0  0
  9 11  2  0  0  0  0
 10 12  1  0  0  0  0
 11 13  1  0  0  0  0
 12 13  2  0  0  0  0
 14 15  1  0  0  0  0
 16 17  1  0  0  0  0
M  END
> <PUBCHEM_COMPOUND_ID_TYPE>
0

> <PUBCHEM_TOTAL_CHARGE>
0

> <PUBCHEM_SUBSTANCE_ID>
310944781

> <PUBCHEM_SUBSTANCE_VERSION>
1

> <PUBCHEM_EXT_DATASOURCE_NAME>
4488

> <PUBCHEM_EXT_DATASOURCE_REGID>
SCHEMBL16122860

> <PUBCHEM_SUBSTANCE_COMMENT>
InChI=1S/C10H10ClN3O2S/c1-2-16-8(15)5-12-9-6(11)3-4-7-10(9)14-17-13-7/h3-4,12H,2,5H2,1H3
InChIKey=RBSSCWUICWXYFB-UHFFFAOYSA-N

> <PUBCHEM_SUBSTANCE_SYNONYM>
SCHEMBL16122860

> <PUBCHEM_XREF_EXT_ID>
SCHEMBL16122860

> <PUBCHEM_EXT_DATASOURCE_URL>
https://www.surechembl.org/

> <PUBCHEM_EXT_SUBSTANCE_URL>
https://www.surechembl.org/chemical/SCHEMBL16122860

> <PUBCHEM_CID_ASSOCIATIONS>
65475846  1

> <PUBCHEM_COORDINATE_TYPE>
1
3

$$$$
