310937808
  -OEChem-07211613022D

 41 45  0     1  0  0  0  0  0999 V2000
   -0.7145   -2.0625    0.0000 F   0  0  0  0  0  0  0  0  0  0  0  0
    0.0000   -1.6500    0.0000 F   0  0  0  0  0  0  0  0  0  0  0  0
   -1.4290   -1.6500    0.0000 F   0  0  0  0  0  0  0  0  0  0  0  0
   -2.1434    2.0625    0.0000 F   0  0  0  0  0  0  0  0  0  0  0  0
   -2.8579    1.6500    0.0000 F   0  0  0  0  0  0  0  0  0  0  0  0
   -2.8579    0.8250    0.0000 F   0  0  0  0  0  0  0  0  0  0  0  0
    0.8007    2.0580    0.0000 O   0  0  0  0  0  0  0  0  0  0  0  0
    2.0202    1.5151    0.0000 N   0  0  3  0  0  0  0  0  0  0  0  0
    3.4750    3.5174    0.0000 N   0  0  0  0  0  0  0  0  0  0  0  0
    5.4516    2.5912    0.0000 N   0  0  0  0  0  0  0  0  0  0  0  0
    2.1696    2.9362    0.0000 N   0  0  0  0  0  0  0  0  0  0  0  0
    0.7145    1.2375    0.0000 C   0  0  3  0  0  0  0  0  0  0  0  0
    0.0000    0.8250    0.0000 C   0  0  0  0  0  0  0  0  0  0  0  0
    1.4682    0.9020    0.0000 C   0  0  3  0  0  0  0  0  0  0  0  0
   -0.7145   -0.4125    0.0000 C   0  0  0  0  0  0  0  0  0  0  0  0
   -1.4290    0.8250    0.0000 C   0  0  0  0  0  0  0  0  0  0  0  0
   -0.7145    1.2375    0.0000 C   0  0  0  0  0  0  0  0  0  0  0  0
    0.0000    0.0000    0.0000 C   0  0  0  0  0  0  0  0  0  0  0  0
   -1.4290    0.0000    0.0000 C   0  0  0  0  0  0  0  0  0  0  0  0
   -0.7145   -1.2375    0.0000 C   0  0  0  0  0  0  0  0  0  0  0  0
   -2.1434    1.2375    0.0000 C   0  0  0  0  0  0  0  0  0  0  0  0
    3.3256    2.0963    0.0000 C   0  0  0  0  0  0  0  0  0  0  0  0
    1.6077    2.2295    0.0000 C   0  0  0  0  0  0  0  0  0  0  0  0
    2.8407    1.4288    0.0000 C   0  0  0  0  0  0  0  0  0  0  0  0
    2.9901    2.8499    0.0000 C   0  0  0  0  0  0  0  0  0  0  0  0
    4.6310    2.6775    0.0000 C   0  0  0  0  0  0  0  0  0  0  0  0
    4.1461    2.0100    0.0000 C   0  0  0  0  0  0  0  0  0  0  0  0
    1.6397    0.0950    0.0000 C   0  0  0  0  0  0  0  0  0  0  0  0
    4.2955    3.4312    0.0000 C   0  0  0  0  0  0  0  0  0  0  0  0
    1.8340    3.6899    0.0000 C   0  0  3  0  0  0  0  0  0  0  0  0
    2.3189    4.3573    0.0000 C   0  0  3  0  0  0  0  0  0  0  0  0
    6.0036    3.2043    0.0000 C   0  0  0  0  0  0  0  0  0  0  0  0
    5.8641    1.8768    0.0000 C   0  0  0  0  0  0  0  0  0  0  0  0
    1.0135    3.7761    0.0000 C   0  0  0  0  0  0  0  0  0  0  0  0
    6.7573    2.8688    0.0000 C   0  0  0  0  0  0  0  0  0  0  0  0
    6.6710    2.0483    0.0000 C   0  0  0  0  0  0  0  0  0  0  0  0
    1.9834    5.1110    0.0000 C   0  0  0  0  0  0  0  0  0  0  0  0
    3.1394    4.2711    0.0000 C   0  0  0  0  0  0  0  0  0  0  0  0
    0.6780    4.5298    0.0000 C   0  0  0  0  0  0  0  0  0  0  0  0
    1.1629    5.1972    0.0000 C   0  0  0  0  0  0  0  0  0  0  0  0
    3.6243    4.9385    0.0000 C   0  0  0  0  0  0  0  0  0  0  0  0
  1 20  1  0  0  0  0
  2 20  1  0  0  0  0
  3 20  1  0  0  0  0
  4 21  1  0  0  0  0
  5 21  1  0  0  0  0
  6 21  1  0  0  0  0
 12  7  1  1  0  0  0
  7 23  1  0  0  0  0
  8 14  1  0  0  0  0
  8 23  1  0  0  0  0
  8 24  1  0  0  0  0
  9 25  2  0  0  0  0
  9 29  1  0  0  0  0
 10 26  1  0  0  0  0
 10 32  1  0  0  0  0
 10 33  1  0  0  0  0
 11 25  1  0  0  0  0
 11 30  1  0  0  0  0
 12 13  1  0  0  0  0
 12 14  1  0  0  0  0
 13 17  2  0  0  0  0
 13 18  1  0  0  0  0
 14 28  1  1  0  0  0
 15 18  2  0  0  0  0
 15 19  1  0  0  0  0
 15 20  1  0  0  0  0
 16 17  1  0  0  0  0
 16 19  2  0  0  0  0
 16 21  1  0  0  0  0
 22 24  1  0  0  0  0
 22 25  1  0  0  0  0
 22 27  2  0  0  0  0
 26 27  1  0  0  0  0
 26 29  2  0  0  0  0
 30 31  1  0  0  0  0
 30 34  1  0  0  0  0
 31 37  1  0  0  0  0
 31 38  1  0  0  0  0
 32 35  1  0  0  0  0
 33 36  1  0  0  0  0
 34 39  1  0  0  0  0
 35 36  1  0  0  0  0
 37 40  1  0  0  0  0
 38 41  1  0  0  0  0
 39 40  1  0  0  0  0
M  END
> <PUBCHEM_COMPOUND_ID_TYPE>
0

> <PUBCHEM_TOTAL_CHARGE>
0

> <PUBCHEM_SUBSTANCE_ID>
310937808

> <PUBCHEM_SUBSTANCE_VERSION>
1

> <PUBCHEM_EXT_DATASOURCE_NAME>
4488

> <PUBCHEM_EXT_DATASOURCE_REGID>
SCHEMBL16115625

> <PUBCHEM_SUBSTANCE_COMMENT>
InChI=1S/C30H38F6N4O/c1-3-20-8-4-5-9-26(20)38-28-22(14-25(16-37-28)39-10-6-7-11-39)17-40-18-41-27(19(40)2)21-12-23(29(31,32)33)15-24(13-21)30(34,35)36/h12-16,19-20,26-27H,3-11,17-18H2,1-2H3,(H,37,38)/t19-,20?,26?,27-/m0/s1
InChIKey=FVJHCILQNNDOAC-PDIKDHJHSA-N

> <PUBCHEM_SUBSTANCE_SYNONYM>
SCHEMBL16115625

> <PUBCHEM_XREF_EXT_ID>
SCHEMBL16115625

> <PUBCHEM_EXT_DATASOURCE_URL>
https://www.surechembl.org/

> <PUBCHEM_EXT_SUBSTANCE_URL>
https://www.surechembl.org/chemical/SCHEMBL16115625

> <PUBCHEM_CID_ASSOCIATIONS>
117605455  1

> <PUBCHEM_COORDINATE_TYPE>
1
3

> <PUBCHEM_BONDANNOTATIONS>
14  28  5
12  7  5

$$$$
