310942728
  -OEChem-07211613022D

 56 60  0     1  0  0  0  0  0999 V2000
   -4.0285    1.2668    0.0000 F   0  0  0  0  0  0  0  0  0  0  0  0
    2.9091    0.0736    0.0000 F   0  0  0  0  0  0  0  0  0  0  0  0
   -3.6897   -2.0474    0.0000 F   0  0  0  0  0  0  0  0  0  0  0  0
    1.2741    0.9869    0.0000 O   0  0  0  0  0  0  0  0  0  0  0  0
   -1.3477   -0.6628    0.0000 O   0  0  0  0  0  0  0  0  0  0  0  0
   -0.5229   -2.1063    0.0000 O   0  0  0  0  0  0  0  0  0  0  0  0
    1.2594   -3.4468    0.0000 O   0  0  0  0  0  0  0  0  0  0  0  0
    0.2725   -2.3862    0.0000 O   0  0  0  0  0  0  0  0  0  0  0  0
    3.5866    3.1669    0.0000 O   0  0  0  0  0  0  0  0  0  0  0  0
    3.5866    0.2357    0.0000 O   0  0  0  0  0  0  0  0  0  0  0  0
    0.0221    0.2799    0.0000 N   0  0  0  0  0  0  0  0  0  0  0  0
   -1.7308    1.6644    0.0000 N   0  0  0  0  0  0  0  0  0  0  0  0
   -1.7308    0.3093    0.0000 N   0  0  0  0  0  0  0  0  0  0  0  0
    1.2594    2.4304    0.0000 N   0  0  0  0  0  0  0  0  0  0  0  0
    1.8044   -1.7675    0.0000 N   0  0  0  0  0  0  0  0  0  0  0  0
    3.3510    1.7086    0.0000 N   0  0  0  0  0  0  0  0  0  0  0  0
   -0.4050    0.9869    0.0000 C   0  0  3  0  0  0  0  0  0  0  0  0
   -1.2299    1.0016    0.0000 C   0  0  0  0  0  0  0  0  0  0  0  0
    0.0074    1.7234    0.0000 C   0  0  0  0  0  0  0  0  0  0  0  0
   -2.5262    0.5892    0.0000 C   0  0  0  0  0  0  0  0  0  0  0  0
    0.8323    1.7234    0.0000 C   0  0  0  0  0  0  0  0  0  0  0  0
   -2.5114    1.4140    0.0000 C   0  0  0  0  0  0  0  0  0  0  0  0
   -0.4935   -0.6481    0.0000 C   0  0  0  0  0  0  0  0  0  0  0  0
   -3.2037    0.0884    0.0000 C   0  0  0  0  0  0  0  0  0  0  0  0
    1.1121    0.2652    0.0000 C   0  0  0  0  0  0  0  0  0  0  0  0
    1.5098   -0.4419    0.0000 C   0  0  3  0  0  0  0  0  0  0  0  0
   -1.4656    2.4598    0.0000 C   0  0  0  0  0  0  0  0  0  0  0  0
   -0.7144    2.1063    0.0000 C   0  0  0  0  0  0  0  0  0  0  0  0
    0.0074    2.5482    0.0000 C   0  0  0  0  0  0  0  0  0  0  0  0
   -3.9549    0.4566    0.0000 C   0  0  0  0  0  0  0  0  0  0  0  0
    2.3493   -0.5450    0.0000 C   0  0  3  0  0  0  0  0  0  0  0  0
   -0.1105   -1.3699    0.0000 C   0  0  3  0  0  0  0  0  0  0  0  0
   -3.1153   -0.7365    0.0000 C   0  0  0  0  0  0  0  0  0  0  0  0
    1.1857   -1.1931    0.0000 C   0  0  0  0  0  0  0  0  0  0  0  0
   -2.0400    3.0785    0.0000 C   0  0  0  0  0  0  0  0  0  0  0  0
    2.5114   -1.3551    0.0000 C   0  0  0  0  0  0  0  0  0  0  0  0
   -3.7782   -1.2225    0.0000 C   0  0  0  0  0  0  0  0  0  0  0  0
   -4.6324   -0.0589    0.0000 C   0  0  0  0  0  0  0  0  0  0  0  0
    1.0532   -2.5924    0.0000 C   0  0  0  0  0  0  0  0  0  0  0  0
   -4.5441   -0.8838    0.0000 C   0  0  0  0  0  0  0  0  0  0  0  0
    2.1137    2.4157    0.0000 C   0  0  0  0  0  0  0  0  0  0  0  0
   -1.7602    3.8739    0.0000 C   0  0  0  0  0  0  0  0  0  0  0  0
   -2.8354    2.9164    0.0000 C   0  0  0  0  0  0  0  0  0  0  0  0
    0.7144   -1.3846    0.0000 C   0  0  0  0  0  0  0  0  0  0  0  0
    2.5114    1.7234    0.0000 C   0  0  0  0  0  0  0  0  0  0  0  0
   -2.3052    4.4631    0.0000 C   0  0  0  0  0  0  0  0  0  0  0  0
   -3.3804    3.5351    0.0000 C   0  0  0  0  0  0  0  0  0  0  0  0
    2.0695   -3.6971    0.0000 C   0  0  0  0  0  0  0  0  0  0  0  0
    3.8518    1.0753    0.0000 C   0  0  0  0  0  0  0  0  0  0  0  0
    3.8518    2.3715    0.0000 C   0  0  0  0  0  0  0  0  0  0  0  0
   -3.1153    4.3158    0.0000 C   0  0  0  0  0  0  0  0  0  0  0  0
    4.6177    1.2815    0.0000 C   0  0  0  0  0  0  0  0  0  0  0  0
    4.6324    2.1210    0.0000 C   0  0  0  0  0  0  0  0  0  0  0  0
    1.8927   -4.4631    0.0000 C   0  0  0  0  0  0  0  0  0  0  0  0
    2.2905   -2.9459    0.0000 C   0  0  0  0  0  0  0  0  0  0  0  0
    2.8943   -3.9180    0.0000 C   0  0  0  0  0  0  0  0  0  0  0  0
  1 30  1  0  0  0  0
 31  2  1  1  0  0  0
  3 37  1  0  0  0  0
  4 21  2  0  0  0  0
  5 23  2  0  0  0  0
 32  6  1  6  0  0  0
  7 39  1  0  0  0  0
  7 48  1  0  0  0  0
  8 39  2  0  0  0  0
  9 50  2  0  0  0  0
 10 49  2  0  0  0  0
 17 11  1  1  0  0  0
 11 23  1  0  0  0  0
 11 25  1  0  0  0  0
 12 18  1  0  0  0  0
 12 22  1  0  0  0  0
 12 27  1  0  0  0  0
 13 18  2  0  0  0  0
 13 20  1  0  0  0  0
 14 21  1  0  0  0  0
 14 41  1  0  0  0  0
 15 34  1  0  0  0  0
 15 36  1  0  0  0  0
 15 39  1  0  0  0  0
 16 45  1  0  0  0  0
 16 49  1  0  0  0  0
 16 50  1  0  0  0  0
 17 18  1  0  0  0  0
 17 19  1  0  0  0  0
 19 21  1  0  0  0  0
 19 28  1  0  0  0  0
 19 29  1  0  0  0  0
 20 22  2  0  0  0  0
 20 24  1  0  0  0  0
 23 32  1  0  0  0  0
 24 30  2  0  0  0  0
 24 33  1  0  0  0  0
 26 25  1  1  0  0  0
 26 31  1  0  0  0  0
 26 34  1  0  0  0  0
 27 35  1  0  0  0  0
 30 38  1  0  0  0  0
 31 36  1  0  0  0  0
 32 44  1  0  0  0  0
 33 37  2  0  0  0  0
 35 42  2  0  0  0  0
 35 43  1  0  0  0  0
 37 40  1  0  0  0  0
 38 40  2  0  0  0  0
 41 45  1  0  0  0  0
 42 46  1  0  0  0  0
 43 47  2  0  0  0  0
 46 51  2  0  0  0  0
 47 51  1  0  0  0  0
 48 54  1  0  0  0  0
 48 55  1  0  0  0  0
 48 56  1  0  0  0  0
 49 52  1  0  0  0  0
 50 53  1  0  0  0  0
 52 53  2  0  0  0  0
M  END
> <PUBCHEM_COMPOUND_ID_TYPE>
0

> <PUBCHEM_TOTAL_CHARGE>
0

> <PUBCHEM_SUBSTANCE_ID>
310942728

> <PUBCHEM_SUBSTANCE_VERSION>
1

> <PUBCHEM_EXT_DATASOURCE_NAME>
4488

> <PUBCHEM_EXT_DATASOURCE_REGID>
SCHEMBL16120776

> <PUBCHEM_SUBSTANCE_COMMENT>
InChI=1S/C40H47F3N6O7/c1-24(50)36(53)49(21-26-20-47(22-30(26)43)38(55)56-39(2,3)4)34(40(5,6)37(54)44-16-17-48-32(51)14-15-33(48)52)35-45-31(28-18-27(41)12-13-29(28)42)23-46(35)19-25-10-8-7-9-11-25/h7-15,18,23-24,26,30,34,50H,16-17,19-22H2,1-6H3,(H,44,54)/t24-,26-,30-,34-/m0/s1
InChIKey=ZTQAANASCBBYTO-JLQCPKICSA-N

> <PUBCHEM_SUBSTANCE_SYNONYM>
SCHEMBL16120776

> <PUBCHEM_XREF_EXT_ID>
SCHEMBL16120776

> <PUBCHEM_EXT_DATASOURCE_URL>
https://www.surechembl.org/

> <PUBCHEM_EXT_SUBSTANCE_URL>
https://www.surechembl.org/chemical/SCHEMBL16120776

> <PUBCHEM_CID_ASSOCIATIONS>
117609248  1

> <PUBCHEM_COORDINATE_TYPE>
1
3

> <PUBCHEM_BONDANNOTATIONS>
17  11  5
31  2  5
26  25  5
32  6  6

$$$$
