310935087
  -OEChem-07211613022D

 44 49  0     1  0  0  0  0  0999 V2000
    3.1897   -5.9633    0.0000 S   0  0  0  0  0  0  0  0  0  0  0  0
    7.8124   -3.1897    0.0000 F   0  0  0  0  0  0  0  0  0  0  0  0
    0.0000   -9.2455    0.0000 F   0  0  0  0  0  0  0  0  0  0  0  0
    5.6860   -1.1557    0.0000 O   0  0  0  0  0  0  0  0  0  0  0  0
    7.7662   -4.8539    0.0000 O   0  0  0  0  0  0  0  0  0  0  0  0
    6.3794   -3.1897    0.0000 O   0  0  0  0  0  0  0  0  0  0  0  0
    7.1190   -1.9416    0.0000 O   0  0  0  0  0  0  0  0  0  0  0  0
    3.5133   -3.1897    0.0000 N   0  0  0  0  0  0  0  0  0  0  0  0
    2.9123   -3.7444    0.0000 N   0  0  0  0  0  0  0  0  0  0  0  0
    2.0340   -5.2699    0.0000 N   0  0  0  0  0  0  0  0  0  0  0  0
    4.9463   -3.1897    0.0000 C   0  0  0  0  0  0  0  0  0  0  0  0
    4.2529   -3.6057    0.0000 C   0  0  0  0  0  0  0  0  0  0  0  0
    4.9463   -2.3576    0.0000 C   0  0  0  0  0  0  0  0  0  0  0  0
    5.6860   -3.6057    0.0000 C   0  0  0  0  0  0  0  0  0  0  0  0
    4.2529   -1.9416    0.0000 C   0  0  0  0  0  0  0  0  0  0  0  0
    5.6397   -4.4378    0.0000 C   0  0  0  0  0  0  0  0  0  0  0  0
    3.2822   -4.4841    0.0000 C   0  0  0  0  0  0  0  0  0  0  0  0
    4.0680   -4.4378    0.0000 C   0  0  0  0  0  0  0  0  0  0  0  0
    5.6860   -1.9416    0.0000 C   0  0  3  0  0  0  0  0  0  0  0  0
    3.5595   -2.3576    0.0000 C   0  0  0  0  0  0  0  0  0  0  0  0
    6.3794   -4.8539    0.0000 C   0  0  0  0  0  0  0  0  0  0  0  0
    6.5181   -3.3746    0.0000 C   0  0  0  0  0  0  0  0  0  0  0  0
    7.0728   -4.4378    0.0000 C   0  0  0  0  0  0  0  0  0  0  0  0
    7.0728   -3.6057    0.0000 C   0  0  0  0  0  0  0  0  0  0  0  0
    2.8661   -5.2237    0.0000 C   0  0  0  0  0  0  0  0  0  0  0  0
    6.3794   -2.3576    0.0000 C   0  0  0  0  0  0  0  0  0  0  0  0
    6.3794   -5.6397    0.0000 C   0  0  0  0  0  0  0  0  0  0  0  0
    4.2529   -1.1557    0.0000 C   0  0  0  0  0  0  0  0  0  0  0  0
    4.9463   -4.8539    0.0000 C   0  0  0  0  0  0  0  0  0  0  0  0
    4.9463   -0.6934    0.0000 C   0  0  0  0  0  0  0  0  0  0  0  0
    2.5887   -6.5181    0.0000 C   0  0  0  0  0  0  0  0  0  0  0  0
    1.8953   -6.1020    0.0000 C   0  0  0  0  0  0  0  0  0  0  0  0
    7.0728   -6.0558    0.0000 C   0  0  0  0  0  0  0  0  0  0  0  0
    7.7662   -5.6860    0.0000 C   0  0  0  0  0  0  0  0  0  0  0  0
    2.6812   -7.3039    0.0000 C   0  0  0  0  0  0  0  0  0  0  0  0
    4.2529   -0.2773    0.0000 C   0  0  0  0  0  0  0  0  0  0  0  0
    5.4086    0.0000    0.0000 C   0  0  0  0  0  0  0  0  0  0  0  0
    4.5303   -1.4331    0.0000 C   0  0  0  0  0  0  0  0  0  0  0  0
    1.9878   -7.8124    0.0000 C   0  0  0  0  0  0  0  0  0  0  0  0
    1.2482   -7.4426    0.0000 C   0  0  0  0  0  0  0  0  0  0  0  0
    2.0802   -8.6445    0.0000 C   0  0  0  0  0  0  0  0  0  0  0  0
    0.6009   -7.9511    0.0000 C   0  0  0  0  0  0  0  0  0  0  0  0
    1.4331   -9.1068    0.0000 C   0  0  0  0  0  0  0  0  0  0  0  0
    0.6472   -8.7832    0.0000 C   0  0  0  0  0  0  0  0  0  0  0  0
  1 25  1  0  0  0  0
  1 31  1  0  0  0  0
  2 24  1  0  0  0  0
  3 44  1  0  0  0  0
 19  4  1  6  0  0  0
  4 30  1  0  0  0  0
  5 23  1  0  0  0  0
  5 34  1  0  0  0  0
  6 26  2  0  0  0  0
  7 26  1  0  0  0  0
  8  9  1  0  0  0  0
  8 12  1  0  0  0  0
  8 20  1  0  0  0  0
  9 17  2  0  0  0  0
 10 25  2  0  0  0  0
 10 32  1  0  0  0  0
 11 12  1  0  0  0  0
 11 13  2  0  0  0  0
 11 14  1  0  0  0  0
 12 18  2  0  0  0  0
 13 15  1  0  0  0  0
 13 19  1  0  0  0  0
 14 16  2  0  0  0  0
 14 22  1  0  0  0  0
 15 20  2  0  0  0  0
 15 28  1  0  0  0  0
 16 21  1  0  0  0  0
 16 29  1  0  0  0  0
 17 18  1  0  0  0  0
 17 25  1  0  0  0  0
 19 26  1  0  0  0  0
 21 23  2  0  0  0  0
 21 27  1  0  0  0  0
 22 24  2  0  0  0  0
 23 24  1  0  0  0  0
 27 33  1  0  0  0  0
 30 36  1  0  0  0  0
 30 37  1  0  0  0  0
 30 38  1  0  0  0  0
 31 32  2  0  0  0  0
 31 35  1  0  0  0  0
 33 34  1  0  0  0  0
 35 39  1  0  0  0  0
 39 40  2  0  0  0  0
 39 41  1  0  0  0  0
 40 42  1  0  0  0  0
 41 43  2  0  0  0  0
 42 44  2  0  0  0  0
 43 44  1  0  0  0  0
M  END
> <PUBCHEM_COMPOUND_ID_TYPE>
0

> <PUBCHEM_TOTAL_CHARGE>
0

> <PUBCHEM_SUBSTANCE_ID>
310935087

> <PUBCHEM_SUBSTANCE_VERSION>
1

> <PUBCHEM_EXT_DATASOURCE_NAME>
4488

> <PUBCHEM_EXT_DATASOURCE_REGID>
SCHEMBL16112613

> <PUBCHEM_SUBSTANCE_COMMENT>
InChI=1S/C34H33F2N3O4S/c1-18-17-39-27(15-26(38-39)32-37-16-22(44-32)13-20-8-10-21(35)11-9-20)29(28(18)31(33(40)41)43-34(3,4)5)24-14-25(36)30-23(19(24)2)7-6-12-42-30/h8-11,14-17,31H,6-7,12-13H2,1-5H3,(H,40,41)/t31-/m0/s1
InChIKey=YKGGXUFXZCSKHI-HKBQPEDESA-N

> <PUBCHEM_SUBSTANCE_SYNONYM>
SCHEMBL16112613

> <PUBCHEM_XREF_EXT_ID>
SCHEMBL16112613

> <PUBCHEM_EXT_DATASOURCE_URL>
https://www.surechembl.org/

> <PUBCHEM_EXT_SUBSTANCE_URL>
https://www.surechembl.org/chemical/SCHEMBL16112613

> <PUBCHEM_CID_ASSOCIATIONS>
86301840  1

> <PUBCHEM_COORDINATE_TYPE>
1
3

> <PUBCHEM_BONDANNOTATIONS>
19  4  6

$$$$
