310949926
  -OEChem-07211613022D

 31 35  0     1  0  0  0  0  0999 V2000
   -0.3194    1.5411    0.0000 N   0  0  0  0  0  0  0  0  0  0  0  0
   -0.3194    2.8878    0.0000 N   0  0  0  0  0  0  0  0  0  0  0  0
    0.4582   -0.8192    0.0000 N   0  0  0  0  0  0  0  0  0  0  0  0
    2.3186    1.6383    0.0000 N   0  0  0  0  0  0  0  0  0  0  0  0
   -1.1107    1.8188    0.0000 C   0  0  0  0  0  0  0  0  0  0  0  0
    0.1666    2.2353    0.0000 C   0  0  0  0  0  0  0  0  0  0  0  0
   -1.0968    2.6379    0.0000 C   0  0  0  0  0  0  0  0  0  0  0  0
   -0.0555    0.7775    0.0000 C   0  0  0  0  0  0  0  0  0  0  0  0
    1.0274    2.2075    0.0000 C   0  0  3  0  0  0  0  0  0  0  0  0
   -1.8188    1.4023    0.0000 C   0  0  0  0  0  0  0  0  0  0  0  0
   -1.8327    3.0406    0.0000 C   0  0  0  0  0  0  0  0  0  0  0  0
   -2.5408    2.6379    0.0000 C   0  0  0  0  0  0  0  0  0  0  0  0
   -0.6109    0.1388    0.0000 C   0  0  0  0  0  0  0  0  0  0  0  0
    0.7636    0.5831    0.0000 C   0  0  0  0  0  0  0  0  0  0  0  0
   -2.5408    1.8188    0.0000 C   0  0  0  0  0  0  0  0  0  0  0  0
    1.4856    1.5550    0.0000 C   0  0  0  0  0  0  0  0  0  0  0  0
    1.3329    2.9712    0.0000 C   0  0  0  0  0  0  0  0  0  0  0  0
   -0.3471   -0.6386    0.0000 C   0  0  0  0  0  0  0  0  0  0  0  0
    1.0135   -0.1943    0.0000 C   0  0  0  0  0  0  0  0  0  0  0  0
    2.1798    3.0684    0.0000 C   0  0  0  0  0  0  0  0  0  0  0  0
   -3.6515    3.0545    0.0000 C   0  0  0  0  0  0  0  0  0  0  0  0
    0.7219   -1.6105    0.0000 C   0  0  0  0  0  0  0  0  0  0  0  0
    2.6657    2.4019    0.0000 C   0  0  0  0  0  0  0  0  0  0  0  0
    1.5272   -1.7910    0.0000 C   0  0  0  0  0  0  0  0  0  0  0  0
    1.6938   -2.6102    0.0000 C   0  0  0  0  0  0  0  0  0  0  0  0
    2.0132   -1.1107    0.0000 C   0  0  0  0  0  0  0  0  0  0  0  0
    2.3603   -3.0684    0.0000 C   0  0  0  0  0  0  0  0  0  0  0  0
    2.8184   -0.9580    0.0000 C   0  0  0  0  0  0  0  0  0  0  0  0
    3.4988   -1.4162    0.0000 C   0  0  0  0  0  0  0  0  0  0  0  0
    3.1794   -2.9156    0.0000 C   0  0  0  0  0  0  0  0  0  0  0  0
    3.6515   -2.2492    0.0000 C   0  0  0  0  0  0  0  0  0  0  0  0
  1  5  1  0  0  0  0
  1  6  1  0  0  0  0
  1  8  1  0  0  0  0
  2  6  2  0  0  0  0
  2  7  1  0  0  0  0
  3 18  1  0  0  0  0
  3 19  1  0  0  0  0
  3 22  1  0  0  0  0
  4 16  1  0  0  0  0
  4 23  1  0  0  0  0
  5  7  1  0  0  0  0
  5 10  2  0  0  0  0
  9  6  1  6  0  0  0
  7 11  2  0  0  0  0
  8 13  1  0  0  0  0
  8 14  1  0  0  0  0
  9 16  1  0  0  0  0
  9 17  1  0  0  0  0
 10 15  1  0  0  0  0
 11 12  1  0  0  0  0
 12 15  2  0  0  0  0
 12 21  1  0  0  0  0
 13 18  1  0  0  0  0
 14 19  1  0  0  0  0
 17 20  1  0  0  0  0
 20 23  1  0  0  0  0
 22 24  1  0  0  0  0
 24 25  1  0  0  0  0
 24 26  1  0  0  0  0
 25 27  1  0  0  0  0
 26 28  1  0  0  0  0
 27 30  1  0  0  0  0
 28 29  1  0  0  0  0
 29 31  1  0  0  0  0
 30 31  1  0  0  0  0
M  END
> <PUBCHEM_COMPOUND_ID_TYPE>
0

> <PUBCHEM_TOTAL_CHARGE>
0

> <PUBCHEM_SUBSTANCE_ID>
310949926

> <PUBCHEM_SUBSTANCE_VERSION>
1

> <PUBCHEM_EXT_DATASOURCE_NAME>
4488

> <PUBCHEM_EXT_DATASOURCE_REGID>
SCHEMBL16128151

> <PUBCHEM_SUBSTANCE_COMMENT>
InChI=1S/C27H42N4/c1-21-11-12-26-25(18-21)29-27(23-10-7-15-28-19-23)31(26)24-13-16-30(17-14-24)20-22-8-5-3-2-4-6-9-22/h11-12,18,22-24,28H,2-10,13-17,19-20H2,1H3/t23-/m1/s1
InChIKey=QHMBSGBQTBOSPH-HSZRJFAPSA-N

> <PUBCHEM_SUBSTANCE_SYNONYM>
SCHEMBL16128151

> <PUBCHEM_XREF_EXT_ID>
SCHEMBL16128151

> <PUBCHEM_EXT_DATASOURCE_URL>
https://www.surechembl.org/

> <PUBCHEM_EXT_SUBSTANCE_URL>
https://www.surechembl.org/chemical/SCHEMBL16128151

> <PUBCHEM_CID_ASSOCIATIONS>
86273568  1

> <PUBCHEM_COORDINATE_TYPE>
1
3

> <PUBCHEM_BONDANNOTATIONS>
9  6  6

$$$$
