310947240
  -OEChem-07211613022D

 47 50  0     0  0  0  0  0  0999 V2000
   -0.9357   12.0487    0.0000 O   0  0  0  0  0  0  0  0  0  0  0  0
   -1.6502   13.2862    0.0000 O   0  0  0  0  0  0  0  0  0  0  0  0
   -4.5081   10.8112    0.0000 O   0  0  0  0  0  0  0  0  0  0  0  0
   -8.0804   11.2237    0.0000 O   0  0  0  0  0  0  0  0  0  0  0  0
   -8.7949    9.9862    0.0000 O   0  0  0  0  0  0  0  0  0  0  0  0
    2.7768   12.7632    0.0000 N   0  0  0  0  0  0  0  0  0  0  0  0
    2.3643   12.0487    0.0000 N   0  0  0  0  0  0  0  0  0  0  0  0
    6.0768   12.7632    0.0000 N   0  0  0  0  0  0  0  0  0  0  0  0
    6.4893   12.0487    0.0000 N   0  0  0  0  0  0  0  0  0  0  0  0
    9.7893   12.0487    0.0000 N   0  0  0  0  0  0  0  0  0  0  0  0
    3.6018   12.7632    0.0000 C   0  0  0  0  0  0  0  0  0  0  0  0
    4.0143   13.4777    0.0000 C   0  0  0  0  0  0  0  0  0  0  0  0
    5.2518   12.7632    0.0000 C   0  0  0  0  0  0  0  0  0  0  0  0
   -2.3647   12.0487    0.0000 C   0  0  0  0  0  0  0  0  0  0  0  0
   -0.1107   12.0487    0.0000 C   0  0  0  0  0  0  0  0  0  0  0  0
   -1.6502   12.4612    0.0000 C   0  0  0  0  0  0  0  0  0  0  0  0
    4.8393   13.4777    0.0000 C   0  0  0  0  0  0  0  0  0  0  0  0
    1.5393   12.0487    0.0000 C   0  0  0  0  0  0  0  0  0  0  0  0
    4.0143   12.0487    0.0000 C   0  0  0  0  0  0  0  0  0  0  0  0
    4.8393   12.0487    0.0000 C   0  0  0  0  0  0  0  0  0  0  0  0
    7.3143   12.0487    0.0000 C   0  0  0  0  0  0  0  0  0  0  0  0
    8.9643   12.0487    0.0000 C   0  0  0  0  0  0  0  0  0  0  0  0
    0.3018   12.7632    0.0000 C   0  0  0  0  0  0  0  0  0  0  0  0
    0.3018   11.3342    0.0000 C   0  0  0  0  0  0  0  0  0  0  0  0
    1.1268   12.7632    0.0000 C   0  0  0  0  0  0  0  0  0  0  0  0
    1.1268   11.3342    0.0000 C   0  0  0  0  0  0  0  0  0  0  0  0
   -3.0791   12.4612    0.0000 C   0  0  0  0  0  0  0  0  0  0  0  0
   -2.3647   11.2237    0.0000 C   0  0  0  0  0  0  0  0  0  0  0  0
   -3.7936   11.2237    0.0000 C   0  0  0  0  0  0  0  0  0  0  0  0
    7.7268   11.3342    0.0000 C   0  0  0  0  0  0  0  0  0  0  0  0
    7.7268   12.7632    0.0000 C   0  0  0  0  0  0  0  0  0  0  0  0
    8.5518   11.3342    0.0000 C   0  0  0  0  0  0  0  0  0  0  0  0
    8.5518   12.7632    0.0000 C   0  0  0  0  0  0  0  0  0  0  0  0
   -3.7936   12.0487    0.0000 C   0  0  0  0  0  0  0  0  0  0  0  0
   -3.0791   10.8112    0.0000 C   0  0  0  0  0  0  0  0  0  0  0  0
    3.6018   14.1921    0.0000 C   0  0  0  0  0  0  0  0  0  0  0  0
   10.2018   11.3342    0.0000 C   0  0  0  0  0  0  0  0  0  0  0  0
   10.2018   12.7632    0.0000 C   0  0  0  0  0  0  0  0  0  0  0  0
   -5.2226   11.2237    0.0000 C   0  0  0  0  0  0  0  0  0  0  0  0
    9.7893   13.4777    0.0000 C   0  0  0  0  0  0  0  0  0  0  0  0
    9.7893   10.6198    0.0000 C   0  0  0  0  0  0  0  0  0  0  0  0
   -5.9370   10.8112    0.0000 C   0  0  0  0  0  0  0  0  0  0  0  0
   -6.6515   11.2237    0.0000 C   0  0  0  0  0  0  0  0  0  0  0  0
   -7.3660   10.8112    0.0000 C   0  0  0  0  0  0  0  0  0  0  0  0
   -8.7949   10.8112    0.0000 C   0  0  0  0  0  0  0  0  0  0  0  0
   -9.5094   11.2237    0.0000 C   0  0  0  0  0  0  0  0  0  0  0  0
  -10.2239   10.8112    0.0000 C   0  0  0  0  0  0  0  0  0  0  0  0
  1 15  1  0  0  0  0
  1 16  1  0  0  0  0
  2 16  2  0  0  0  0
  3 29  1  0  0  0  0
  3 39  1  0  0  0  0
  4 44  1  0  0  0  0
  4 45  1  0  0  0  0
  5 45  2  0  0  0  0
  6  7  1  0  0  0  0
  6 11  1  0  0  0  0
  7 18  1  0  0  0  0
  8  9  2  0  0  0  0
  8 13  1  0  0  0  0
  9 21  1  0  0  0  0
 10 22  1  0  0  0  0
 10 37  1  0  0  0  0
 10 38  1  0  0  0  0
 11 12  1  0  0  0  0
 11 19  2  0  0  0  0
 12 17  2  0  0  0  0
 12 36  1  0  0  0  0
 13 17  1  0  0  0  0
 13 20  2  0  0  0  0
 14 16  1  0  0  0  0
 14 27  2  0  0  0  0
 14 28  1  0  0  0  0
 15 23  2  0  0  0  0
 15 24  1  0  0  0  0
 18 25  2  0  0  0  0
 18 26  1  0  0  0  0
 19 20  1  0  0  0  0
 21 30  2  0  0  0  0
 21 31  1  0  0  0  0
 22 32  2  0  0  0  0
 22 33  1  0  0  0  0
 23 25  1  0  0  0  0
 24 26  2  0  0  0  0
 27 34  1  0  0  0  0
 28 35  2  0  0  0  0
 29 34  2  0  0  0  0
 29 35  1  0  0  0  0
 30 32  1  0  0  0  0
 31 33  2  0  0  0  0
 37 41  1  0  0  0  0
 38 40  1  0  0  0  0
 39 42  1  0  0  0  0
 42 43  1  0  0  0  0
 43 44  1  0  0  0  0
 45 46  1  0  0  0  0
 46 47  2  0  0  0  0
M  END
> <PUBCHEM_COMPOUND_ID_TYPE>
0

> <PUBCHEM_TOTAL_CHARGE>
0

> <PUBCHEM_SUBSTANCE_ID>
310947240

> <PUBCHEM_SUBSTANCE_VERSION>
1

> <PUBCHEM_EXT_DATASOURCE_NAME>
4488

> <PUBCHEM_EXT_DATASOURCE_REGID>
SCHEMBL16125395

> <PUBCHEM_SUBSTANCE_COMMENT>
InChI=1S/C37H41N5O5/c1-5-36(43)46-25-9-8-24-45-33-19-10-28(11-20-33)37(44)47-34-21-14-30(15-22-34)39-41-35-23-16-31(26-27(35)4)40-38-29-12-17-32(18-13-29)42(6-2)7-3/h5,10-23,26,39,41H,1,6-9,24-25H2,2-4H3/b40-38+
InChIKey=UFHSVNBQTCXFDX-OGSMZCTISA-N

> <PUBCHEM_SUBSTANCE_SYNONYM>
SCHEMBL16125395

> <PUBCHEM_XREF_EXT_ID>
SCHEMBL16125395

> <PUBCHEM_EXT_DATASOURCE_URL>
https://www.surechembl.org/

> <PUBCHEM_EXT_SUBSTANCE_URL>
https://www.surechembl.org/chemical/SCHEMBL16125395

> <PUBCHEM_CID_ASSOCIATIONS>
117613054  1

> <PUBCHEM_COORDINATE_TYPE>
1
3

$$$$
