310949904
  -OEChem-07211613022D

 28 32  0     1  0  0  0  0  0999 V2000
   -0.7631    1.3956    0.0000 N   0  0  0  0  0  0  0  0  0  0  0  0
   -0.7631    2.7293    0.0000 N   0  0  0  0  0  0  0  0  0  0  0  0
   -0.0069   -0.9556    0.0000 N   0  0  0  0  0  0  0  0  0  0  0  0
    1.8081    1.6431    0.0000 N   0  0  0  0  0  0  0  0  0  0  0  0
    1.6019   -1.2993    0.0000 N   0  0  0  0  0  0  0  0  0  0  0  0
   -0.2819    2.0693    0.0000 C   0  0  0  0  0  0  0  0  0  0  0  0
   -1.5469    1.6569    0.0000 C   0  0  0  0  0  0  0  0  0  0  0  0
   -1.5331    2.4819    0.0000 C   0  0  0  0  0  0  0  0  0  0  0  0
   -0.5156    0.6256    0.0000 C   0  0  0  0  0  0  0  0  0  0  0  0
    0.5568    2.0556    0.0000 C   0  0  3  0  0  0  0  0  0  0  0  0
   -2.2344    1.2443    0.0000 C   0  0  0  0  0  0  0  0  0  0  0  0
   -2.2756    2.8668    0.0000 C   0  0  0  0  0  0  0  0  0  0  0  0
   -1.0519   -0.0206    0.0000 C   0  0  0  0  0  0  0  0  0  0  0  0
    0.3094    0.4331    0.0000 C   0  0  0  0  0  0  0  0  0  0  0  0
    1.0519    1.3956    0.0000 C   0  0  0  0  0  0  0  0  0  0  0  0
    1.0106    2.7156    0.0000 C   0  0  0  0  0  0  0  0  0  0  0  0
   -2.9631    1.6431    0.0000 C   0  0  0  0  0  0  0  0  0  0  0  0
   -2.9631    2.4681    0.0000 C   0  0  0  0  0  0  0  0  0  0  0  0
   -0.8044   -0.7769    0.0000 C   0  0  0  0  0  0  0  0  0  0  0  0
    0.5431   -0.3369    0.0000 C   0  0  0  0  0  0  0  0  0  0  0  0
    1.8081    2.4681    0.0000 C   0  0  0  0  0  0  0  0  0  0  0  0
    0.2544   -1.7256    0.0000 C   0  0  0  0  0  0  0  0  0  0  0  0
    1.0519   -1.9182    0.0000 C   0  0  0  0  0  0  0  0  0  0  0  0
    1.3131   -2.6881    0.0000 C   0  0  0  0  0  0  0  0  0  0  0  0
    2.4131   -1.4781    0.0000 C   0  0  0  0  0  0  0  0  0  0  0  0
    2.1106   -2.8668    0.0000 C   0  0  0  0  0  0  0  0  0  0  0  0
    2.6606   -2.2481    0.0000 C   0  0  0  0  0  0  0  0  0  0  0  0
    2.9631   -0.8456    0.0000 C   0  0  0  0  0  0  0  0  0  0  0  0
  1  6  1  0  0  0  0
  1  7  1  0  0  0  0
  1  9  1  0  0  0  0
  2  6  2  0  0  0  0
  2  8  1  0  0  0  0
  3 19  1  0  0  0  0
  3 20  1  0  0  0  0
  3 22  1  0  0  0  0
  4 15  1  0  0  0  0
  4 21  1  0  0  0  0
  5 23  2  0  0  0  0
  5 25  1  0  0  0  0
 10  6  1  6  0  0  0
  7  8  1  0  0  0  0
  7 11  2  0  0  0  0
  8 12  2  0  0  0  0
  9 13  1  0  0  0  0
  9 14  1  0  0  0  0
 10 15  1  0  0  0  0
 10 16  1  0  0  0  0
 11 17  1  0  0  0  0
 12 18  1  0  0  0  0
 13 19  1  0  0  0  0
 14 20  1  0  0  0  0
 16 21  1  0  0  0  0
 17 18  2  0  0  0  0
 22 23  1  0  0  0  0
 23 24  1  0  0  0  0
 24 26  2  0  0  0  0
 25 27  2  0  0  0  0
 25 28  1  0  0  0  0
 26 27  1  0  0  0  0
M  END
> <PUBCHEM_COMPOUND_ID_TYPE>
0

> <PUBCHEM_TOTAL_CHARGE>
0

> <PUBCHEM_SUBSTANCE_ID>
310949904

> <PUBCHEM_SUBSTANCE_VERSION>
1

> <PUBCHEM_EXT_DATASOURCE_NAME>
4488

> <PUBCHEM_EXT_DATASOURCE_REGID>
SCHEMBL16128125

> <PUBCHEM_SUBSTANCE_COMMENT>
InChI=1S/C23H29N5/c1-17-5-4-6-19(25-17)16-27-13-10-20(11-14-27)28-22-8-3-2-7-21(22)26-23(28)18-9-12-24-15-18/h2-8,18,20,24H,9-16H2,1H3/t18-/m1/s1
InChIKey=QWROLZUSTBVRAL-GOSISDBHSA-N

> <PUBCHEM_SUBSTANCE_SYNONYM>
SCHEMBL16128125

> <PUBCHEM_XREF_EXT_ID>
SCHEMBL16128125

> <PUBCHEM_EXT_DATASOURCE_URL>
https://www.surechembl.org/

> <PUBCHEM_EXT_SUBSTANCE_URL>
https://www.surechembl.org/chemical/SCHEMBL16128125

> <PUBCHEM_CID_ASSOCIATIONS>
117615186  1

> <PUBCHEM_COORDINATE_TYPE>
1
3

> <PUBCHEM_BONDANNOTATIONS>
10  6  6

$$$$
