310935939
  -OEChem-07211613022D

 35 39  0     1  0  0  0  0  0999 V2000
    2.9004   -7.0742    0.0000 O   0  0  0  0  0  0  0  0  0  0  0  0
    0.7428   -3.3248    0.0000 N   0  0  3  0  0  0  0  0  0  0  0  0
    0.0000   -2.0869    0.0000 N   0  0  0  0  0  0  0  0  0  0  0  0
    0.7428   -0.8489    0.0000 N   0  0  0  0  0  0  0  0  0  0  0  0
    3.6078   -5.8008    0.0000 N   0  0  0  0  0  0  0  0  0  0  0  0
    3.6078   -2.5113    0.0000 N   0  0  0  0  0  0  0  0  0  0  0  0
    5.8008   -4.5982    0.0000 N   0  0  0  0  0  0  0  0  0  0  0  0
    1.4502   -2.0869    0.0000 C   0  0  0  0  0  0  0  0  0  0  0  0
    0.7428   -2.5113    0.0000 C   0  0  0  0  0  0  0  0  0  0  0  0
    1.4502   -1.2380    0.0000 C   0  0  0  0  0  0  0  0  0  0  0  0
    1.4502   -4.5982    0.0000 C   0  0  0  0  0  0  0  0  0  0  0  0
    2.1576   -0.8489    0.0000 C   0  0  0  0  0  0  0  0  0  0  0  0
    0.7428   -5.0226    0.0000 C   0  0  0  0  0  0  0  0  0  0  0  0
    1.4502   -3.7493    0.0000 C   0  0  0  0  0  0  0  0  0  0  0  0
    2.1576   -2.5113    0.0000 C   0  0  0  0  0  0  0  0  0  0  0  0
    2.8650   -2.0869    0.0000 C   0  0  0  0  0  0  0  0  0  0  0  0
    0.0354   -3.7493    0.0000 C   0  0  0  0  0  0  0  0  0  0  0  0
    2.1930   -5.8008    0.0000 C   0  0  0  0  0  0  0  0  0  0  0  0
    2.1576   -4.9873    0.0000 C   0  0  0  0  0  0  0  0  0  0  0  0
    2.8650   -1.2380    0.0000 C   0  0  0  0  0  0  0  0  0  0  0  0
    0.0354   -4.5982    0.0000 C   0  0  0  0  0  0  0  0  0  0  0  0
    0.0000   -1.2380    0.0000 C   0  0  0  0  0  0  0  0  0  0  0  0
    0.7428   -5.8008    0.0000 C   0  0  0  0  0  0  0  0  0  0  0  0
    2.9004   -6.2252    0.0000 C   0  0  0  0  0  0  0  0  0  0  0  0
    1.4502   -6.2252    0.0000 C   0  0  0  0  0  0  0  0  0  0  0  0
    2.1576    0.0000    0.0000 C   0  0  0  0  0  0  0  0  0  0  0  0
    4.3152   -2.0869    0.0000 C   0  0  3  0  0  0  0  0  0  0  0  0
    3.6078   -4.9873    0.0000 C   0  0  0  0  0  0  0  0  0  0  0  0
    4.3506   -6.2252    0.0000 C   0  0  0  0  0  0  0  0  0  0  0  0
    4.3152   -4.5628    0.0000 C   0  0  0  0  0  0  0  0  0  0  0  0
    5.0580   -5.8362    0.0000 C   0  0  0  0  0  0  0  0  0  0  0  0
    5.0580   -4.9873    0.0000 C   0  0  0  0  0  0  0  0  0  0  0  0
    4.3152   -1.2380    0.0000 C   0  0  0  0  0  0  0  0  0  0  0  0
    5.0580   -2.5113    0.0000 C   0  0  0  0  0  0  0  0  0  0  0  0
    3.6078   -0.8489    0.0000 C   0  0  0  0  0  0  0  0  0  0  0  0
  1 24  2  0  0  0  0
  2  9  1  0  0  0  0
  2 14  1  0  0  0  0
  2 17  1  0  0  0  0
  3  9  1  0  0  0  0
  3 22  2  0  0  0  0
  4 10  2  0  0  0  0
  4 22  1  0  0  0  0
  5 24  1  0  0  0  0
  5 28  1  0  0  0  0
  5 29  1  0  0  0  0
  6 16  1  0  0  0  0
  6 27  1  0  0  0  0
  7 32  1  0  0  0  0
  8  9  2  0  0  0  0
  8 10  1  0  0  0  0
  8 15  1  0  0  0  0
 10 12  1  0  0  0  0
 11 13  2  0  0  0  0
 11 14  1  0  0  0  0
 11 19  1  0  0  0  0
 12 20  2  0  0  0  0
 12 26  1  0  0  0  0
 13 21  1  0  0  0  0
 13 23  1  0  0  0  0
 15 16  2  0  0  0  0
 16 20  1  0  0  0  0
 17 21  1  0  0  0  0
 18 19  2  0  0  0  0
 18 24  1  0  0  0  0
 18 25  1  0  0  0  0
 23 25  2  0  0  0  0
 27 33  1  0  0  0  0
 27 34  1  6  0  0  0
 28 30  1  0  0  0  0
 29 31  1  0  0  0  0
 30 32  1  0  0  0  0
 31 32  1  0  0  0  0
 33 35  1  0  0  0  0
M  END
> <PUBCHEM_COMPOUND_ID_TYPE>
0

> <PUBCHEM_TOTAL_CHARGE>
0

> <PUBCHEM_SUBSTANCE_ID>
310935939

> <PUBCHEM_SUBSTANCE_VERSION>
1

> <PUBCHEM_EXT_DATASOURCE_NAME>
4488

> <PUBCHEM_EXT_DATASOURCE_REGID>
SCHEMBL16113536

> <PUBCHEM_SUBSTANCE_COMMENT>
InChI=1S/C28H36N6O/c1-4-19(3)32-24-13-18(2)26-25(15-24)27(31-17-30-26)34-10-7-20-5-6-21(14-22(20)16-34)28(35)33-11-8-23(29)9-12-33/h5-6,13-15,17,19,23,32H,4,7-12,16,29H2,1-3H3/t19-/m0/s1
InChIKey=RDDXXVPMDANXGG-IBGZPJMESA-N

> <PUBCHEM_SUBSTANCE_SYNONYM>
SCHEMBL16113536

> <PUBCHEM_XREF_EXT_ID>
SCHEMBL16113536

> <PUBCHEM_EXT_DATASOURCE_URL>
https://www.surechembl.org/

> <PUBCHEM_EXT_SUBSTANCE_URL>
https://www.surechembl.org/chemical/SCHEMBL16113536

> <PUBCHEM_CID_ASSOCIATIONS>
86301368  1

> <PUBCHEM_COORDINATE_TYPE>
1
3

> <PUBCHEM_BONDANNOTATIONS>
27  34  6

$$$$
