310932739
  -OEChem-07211613022D

 17 17  0     0  0  0  0  0  0999 V2000
    2.1421   -2.8894    0.0000 F   0  0  0  0  0  0  0  0  0  0  0  0
    2.1421   -3.7363    0.0000 O   0  0  0  0  0  0  0  0  0  0  0  0
    1.4198   -4.9817    0.0000 O   0  0  0  0  0  0  0  0  0  0  0  0
    0.0000    0.0000    0.0000 N   0  0  0  0  0  0  0  0  0  0  0  0
    0.7224   -2.9143    0.0000 C   0  0  0  0  0  0  0  0  0  0  0  0
    1.4198   -2.4909    0.0000 C   0  0  0  0  0  0  0  0  0  0  0  0
    0.7224   -3.7363    0.0000 C   0  0  0  0  0  0  0  0  0  0  0  0
    0.7224   -1.2454    0.0000 C   0  0  0  0  0  0  0  0  0  0  0  0
    1.4198   -4.1598    0.0000 C   0  0  0  0  0  0  0  0  0  0  0  0
    1.4198   -1.6689    0.0000 C   0  0  0  0  0  0  0  0  0  0  0  0
    0.0000   -2.4909    0.0000 C   0  0  0  0  0  0  0  0  0  0  0  0
    2.8645   -4.1598    0.0000 C   0  0  0  0  0  0  0  0  0  0  0  0
    0.0000   -1.6689    0.0000 C   0  0  0  0  0  0  0  0  0  0  0  0
    0.7224   -0.3986    0.0000 C   0  0  0  0  0  0  0  0  0  0  0  0
    2.4410   -4.8821    0.0000 C   0  0  0  0  0  0  0  0  0  0  0  0
    3.5869   -4.5583    0.0000 C   0  0  0  0  0  0  0  0  0  0  0  0
    3.2630   -3.4374    0.0000 C   0  0  0  0  0  0  0  0  0  0  0  0
  1  6  1  0  0  0  0
  2  9  1  0  0  0  0
  2 12  1  0  0  0  0
  3  9  2  0  0  0  0
  4 14  3  0  0  0  0
  5  6  1  0  0  0  0
  5  7  1  0  0  0  0
  5 11  2  0  0  0  0
  6 10  2  0  0  0  0
  7  9  1  0  0  0  0
  8 10  1  0  0  0  0
  8 13  2  0  0  0  0
  8 14  1  0  0  0  0
 11 13  1  0  0  0  0
 12 15  1  0  0  0  0
 12 16  1  0  0  0  0
 12 17  1  0  0  0  0
M  END
> <PUBCHEM_COMPOUND_ID_TYPE>
0

> <PUBCHEM_TOTAL_CHARGE>
0

> <PUBCHEM_SUBSTANCE_ID>
310932739

> <PUBCHEM_SUBSTANCE_VERSION>
1

> <PUBCHEM_EXT_DATASOURCE_NAME>
4488

> <PUBCHEM_EXT_DATASOURCE_REGID>
SCHEMBL16110123

> <PUBCHEM_SUBSTANCE_COMMENT>
InChI=1S/C13H14FNO2/c1-13(2,3)17-12(16)7-10-5-4-9(8-15)6-11(10)14/h4-6H,7H2,1-3H3
InChIKey=MCJCAGJQGVYSGV-UHFFFAOYSA-N

> <PUBCHEM_SUBSTANCE_SYNONYM>
SCHEMBL16110123

> <PUBCHEM_XREF_EXT_ID>
SCHEMBL16110123

> <PUBCHEM_EXT_DATASOURCE_URL>
https://www.surechembl.org/

> <PUBCHEM_EXT_SUBSTANCE_URL>
https://www.surechembl.org/chemical/SCHEMBL16110123

> <PUBCHEM_CID_ASSOCIATIONS>
117601243  1

> <PUBCHEM_COORDINATE_TYPE>
1
3

$$$$
