310934291
  -OEChem-07211613022D

 36 41  0     0  0  0  0  0  0999 V2000
    5.4086   -6.6385    0.0000 O   0  0  0  0  0  0  0  0  0  0  0  0
    1.8414   -3.7445    0.0000 N   0  0  0  0  0  0  0  0  0  0  0  0
    1.0164   -3.7445    0.0000 N   0  0  0  0  0  0  0  0  0  0  0  0
    2.9034   -2.7884    0.0000 N   0  0  0  0  0  0  0  0  0  0  0  0
    0.0000    0.0000    0.0000 N   0  0  0  0  0  0  0  0  0  0  0  0
    5.4507   -8.8208    0.0000 N   0  0  0  0  0  0  0  0  0  0  0  0
    1.4289   -2.4750    0.0000 C   0  0  0  0  0  0  0  0  0  0  0  0
    2.0964   -2.9599    0.0000 C   0  0  0  0  0  0  0  0  0  0  0  0
    1.4289   -1.6500    0.0000 C   0  0  0  0  0  0  0  0  0  0  0  0
    0.7145   -1.2375    0.0000 C   0  0  0  0  0  0  0  0  0  0  0  0
    0.7615   -2.9599    0.0000 C   0  0  0  0  0  0  0  0  0  0  0  0
    3.2004   -4.1861    0.0000 C   0  0  0  0  0  0  0  0  0  0  0  0
    2.3935   -4.3576    0.0000 C   0  0  0  0  0  0  0  0  0  0  0  0
    0.7145   -0.4125    0.0000 C   0  0  0  0  0  0  0  0  0  0  0  0
    2.1434   -1.2375    0.0000 C   0  0  0  0  0  0  0  0  0  0  0  0
    3.4554   -3.4015    0.0000 C   0  0  0  0  0  0  0  0  0  0  0  0
    3.7525   -4.7992    0.0000 C   0  0  0  0  0  0  0  0  0  0  0  0
    0.0000   -1.6500    0.0000 C   0  0  0  0  0  0  0  0  0  0  0  0
    1.4289    0.0000    0.0000 C   0  0  0  0  0  0  0  0  0  0  0  0
    2.1434   -0.4125    0.0000 C   0  0  0  0  0  0  0  0  0  0  0  0
    4.5595   -4.6277    0.0000 C   0  0  0  0  0  0  0  0  0  0  0  0
    3.4975   -5.5838    0.0000 C   0  0  0  0  0  0  0  0  0  0  0  0
    4.8565   -6.0254    0.0000 C   0  0  0  0  0  0  0  0  0  0  0  0
   -0.7145   -1.2375    0.0000 C   0  0  0  0  0  0  0  0  0  0  0  0
   -0.7145   -0.4125    0.0000 C   0  0  0  0  0  0  0  0  0  0  0  0
    5.1115   -5.2408    0.0000 C   0  0  0  0  0  0  0  0  0  0  0  0
    4.0496   -6.1969    0.0000 C   0  0  0  0  0  0  0  0  0  0  0  0
    5.1536   -7.4231    0.0000 C   0  0  0  0  0  0  0  0  0  0  0  0
    4.8987   -8.2077    0.0000 C   0  0  0  0  0  0  0  0  0  0  0  0
    4.3690   -7.1682    0.0000 C   0  0  0  0  0  0  0  0  0  0  0  0
    5.9383   -7.6781    0.0000 C   0  0  0  0  0  0  0  0  0  0  0  0
    6.2577   -8.6493    0.0000 C   0  0  0  0  0  0  0  0  0  0  0  0
    5.1958   -9.6054    0.0000 C   0  0  0  0  0  0  0  0  0  0  0  0
    6.8097   -9.2624    0.0000 C   0  0  0  0  0  0  0  0  0  0  0  0
    5.7478  -10.2185    0.0000 C   0  0  0  0  0  0  0  0  0  0  0  0
    6.5548  -10.0470    0.0000 C   0  0  0  0  0  0  0  0  0  0  0  0
  1 23  1  0  0  0  0
  1 28  1  0  0  0  0
  2  3  1  0  0  0  0
  2  8  1  0  0  0  0
  2 13  1  0  0  0  0
  3 11  2  0  0  0  0
  4  8  1  0  0  0  0
  4 16  2  0  0  0  0
  5 14  1  0  0  0  0
  5 25  2  0  0  0  0
  6 29  1  0  0  0  0
  6 32  1  0  0  0  0
  6 33  1  0  0  0  0
  7  8  2  0  0  0  0
  7  9  1  0  0  0  0
  7 11  1  0  0  0  0
  9 10  1  0  0  0  0
  9 15  2  0  0  0  0
 10 14  2  0  0  0  0
 10 18  1  0  0  0  0
 12 13  2  0  0  0  0
 12 16  1  0  0  0  0
 12 17  1  0  0  0  0
 14 19  1  0  0  0  0
 15 20  1  0  0  0  0
 17 21  2  0  0  0  0
 17 22  1  0  0  0  0
 18 24  2  0  0  0  0
 19 20  2  0  0  0  0
 21 26  1  0  0  0  0
 22 27  2  0  0  0  0
 23 26  2  0  0  0  0
 23 27  1  0  0  0  0
 24 25  1  0  0  0  0
 28 29  1  0  0  0  0
 28 30  1  0  0  0  0
 28 31  1  0  0  0  0
 32 34  1  0  0  0  0
 33 35  1  0  0  0  0
 34 36  1  0  0  0  0
 35 36  1  0  0  0  0
M  END
> <PUBCHEM_COMPOUND_ID_TYPE>
0

> <PUBCHEM_TOTAL_CHARGE>
0

> <PUBCHEM_SUBSTANCE_ID>
310934291

> <PUBCHEM_SUBSTANCE_VERSION>
1

> <PUBCHEM_EXT_DATASOURCE_NAME>
4488

> <PUBCHEM_EXT_DATASOURCE_REGID>
SCHEMBL16111749

> <PUBCHEM_SUBSTANCE_COMMENT>
InChI=1S/C30H31N5O/c1-30(2,21-34-16-4-3-5-17-34)36-24-13-11-22(12-14-24)23-18-32-29-27(19-33-35(29)20-23)25-8-6-10-28-26(25)9-7-15-31-28/h6-15,18-20H,3-5,16-17,21H2,1-2H3
InChIKey=GIAGHNVPQYZDIK-UHFFFAOYSA-N

> <PUBCHEM_SUBSTANCE_SYNONYM>
SCHEMBL16111749

> <PUBCHEM_XREF_EXT_ID>
SCHEMBL16111749

> <PUBCHEM_EXT_DATASOURCE_URL>
https://www.surechembl.org/

> <PUBCHEM_EXT_SUBSTANCE_URL>
https://www.surechembl.org/chemical/SCHEMBL16111749

> <PUBCHEM_CID_ASSOCIATIONS>
117602536  1

> <PUBCHEM_COORDINATE_TYPE>
1
3

$$$$
