310948995
  -OEChem-07211613022D

 14 14  0     0  0  0  0  0  0999 V2000
   -2.0324    0.7122    0.0000 I   0  0  0  0  0  0  0  0  0  0  0  0
    0.8272    0.7012    0.0000 Cl  0  0  0  0  0  0  0  0  0  0  0  0
   -2.2515   -0.9971    0.0000 Cl  0  0  0  0  0  0  0  0  0  0  0  0
    1.5394   -0.5697    0.0000 O   0  0  0  0  0  0  0  0  0  0  0  0
   -0.5971   -0.9861    0.0000 N   0  0  0  0  0  0  0  0  0  0  0  0
   -0.5971    1.5668    0.0000 N   0  0  0  0  0  0  0  0  0  0  0  0
    0.1041   -0.5697    0.0000 C   0  0  0  0  0  0  0  0  0  0  0  0
    0.1150    0.2958    0.0000 C   0  0  0  0  0  0  0  0  0  0  0  0
   -0.5971    0.7122    0.0000 C   0  0  0  0  0  0  0  0  0  0  0  0
   -1.3093    0.2958    0.0000 C   0  0  0  0  0  0  0  0  0  0  0  0
   -1.3202   -0.5697    0.0000 C   0  0  0  0  0  0  0  0  0  0  0  0
    0.8272   -0.9641    0.0000 C   0  0  0  0  0  0  0  0  0  0  0  0
    0.8381   -1.5668    0.0000 C   0  0  0  0  0  0  0  0  0  0  0  0
    2.2515   -0.9971    0.0000 C   0  0  0  0  0  0  0  0  0  0  0  0
  1 10  1  0  0  0  0
  2  8  1  0  0  0  0
  3 11  1  0  0  0  0
  4 12  1  0  0  0  0
  4 14  1  0  0  0  0
  5  7  2  0  0  0  0
  5 11  1  0  0  0  0
  6  9  1  0  0  0  0
  7  8  1  0  0  0  0
  7 12  1  0  0  0  0
  8  9  2  0  0  0  0
  9 10  1  0  0  0  0
 10 11  2  0  0  0  0
 12 13  2  0  0  0  0
M  END
> <PUBCHEM_COMPOUND_ID_TYPE>
0

> <PUBCHEM_TOTAL_CHARGE>
0

> <PUBCHEM_SUBSTANCE_ID>
310948995

> <PUBCHEM_SUBSTANCE_VERSION>
1

> <PUBCHEM_EXT_DATASOURCE_NAME>
4488

> <PUBCHEM_EXT_DATASOURCE_REGID>
SCHEMBL16127183

> <PUBCHEM_SUBSTANCE_COMMENT>
InChI=1S/C8H7Cl2IN2O/c1-3(14-2)7-4(9)6(12)5(11)8(10)13-7/h1H2,2H3,(H2,12,13)
InChIKey=GEYSJMMDNNVVIY-UHFFFAOYSA-N

> <PUBCHEM_SUBSTANCE_SYNONYM>
SCHEMBL16127183

> <PUBCHEM_XREF_EXT_ID>
SCHEMBL16127183

> <PUBCHEM_EXT_DATASOURCE_URL>
https://www.surechembl.org/

> <PUBCHEM_EXT_SUBSTANCE_URL>
https://www.surechembl.org/chemical/SCHEMBL16127183

> <PUBCHEM_CID_ASSOCIATIONS>
117614504  1

> <PUBCHEM_COORDINATE_TYPE>
1
3

$$$$
