310946992
  -OEChem-07211613022D

 41 44  0     1  0  0  0  0  0999 V2000
   -1.8046   -5.4137    0.0000 F   0  0  0  0  0  0  0  0  0  0  0  0
   -0.4554   -4.9752    0.0000 F   0  0  0  0  0  0  0  0  0  0  0  0
   -1.0119   -5.5824    0.0000 F   0  0  0  0  0  0  0  0  0  0  0  0
   -0.2530    2.3611    0.0000 O   0  0  0  0  0  0  0  0  0  0  0  0
   -1.0625   -1.7877    0.0000 O   0  0  0  0  0  0  0  0  0  0  0  0
   -0.5903    3.9633    0.0000 O   0  0  0  0  0  0  0  0  0  0  0  0
    0.8095    4.2500    0.0000 O   0  0  0  0  0  0  0  0  0  0  0  0
    0.4554    0.5228    0.0000 N   0  0  0  0  0  0  0  0  0  0  0  0
    0.9445   -0.1349    0.0000 N   0  0  0  0  0  0  0  0  0  0  0  0
    0.7083   -1.5853    0.0000 N   0  0  0  0  0  0  0  0  0  0  0  0
   -1.7709   -0.5566    0.0000 N   0  0  0  0  0  0  0  0  0  0  0  0
   -2.3105   -3.8452    0.0000 N   0  0  0  0  0  0  0  0  0  0  0  0
    2.8839    1.0288    0.0000 N   0  0  0  0  0  0  0  0  0  0  0  0
    0.7083    1.3155    0.0000 C   0  0  3  0  0  0  0  0  0  0  0  0
   -0.3373    0.2698    0.0000 C   0  0  0  0  0  0  0  0  0  0  0  0
   -0.3542   -0.5397    0.0000 C   0  0  0  0  0  0  0  0  0  0  0  0
    0.4385   -0.8264    0.0000 C   0  0  0  0  0  0  0  0  0  0  0  0
   -1.0625   -0.9445    0.0000 C   0  0  0  0  0  0  0  0  0  0  0  0
   -0.0843    1.5685    0.0000 C   0  0  0  0  0  0  0  0  0  0  0  0
    1.3324    1.8552    0.0000 C   0  0  0  0  0  0  0  0  0  0  0  0
   -1.0625    0.6746    0.0000 C   0  0  0  0  0  0  0  0  0  0  0  0
    1.2480    0.6746    0.0000 C   0  0  0  0  0  0  0  0  0  0  0  0
    0.3710    2.9008    0.0000 C   0  0  3  0  0  0  0  0  0  0  0  0
    1.1637    2.6478    0.0000 C   0  0  0  0  0  0  0  0  0  0  0  0
   -1.7540    0.2867    0.0000 C   0  0  0  0  0  0  0  0  0  0  0  0
    0.1518   -2.2093    0.0000 C   0  0  0  0  0  0  0  0  0  0  0  0
    0.1855    3.7103    0.0000 C   0  0  0  0  0  0  0  0  0  0  0  0
    2.0575    0.8601    0.0000 C   0  0  0  0  0  0  0  0  0  0  0  0
   -0.9613   -3.3899    0.0000 C   0  0  0  0  0  0  0  0  0  0  0  0
   -1.5179   -4.0307    0.0000 C   0  0  3  0  0  0  0  0  0  0  0  0
   -0.6578   -2.0238    0.0000 C   0  0  0  0  0  0  0  0  0  0  0  0
    0.4048   -2.9851    0.0000 C   0  0  0  0  0  0  0  0  0  0  0  0
   -1.1974   -2.6309    0.0000 C   0  0  0  0  0  0  0  0  0  0  0  0
   -0.1518   -3.5754    0.0000 C   0  0  0  0  0  0  0  0  0  0  0  0
   -1.2649   -4.8065    0.0000 C   0  0  0  0  0  0  0  0  0  0  0  0
   -0.7589    4.7897    0.0000 C   0  0  0  0  0  0  0  0  0  0  0  0
   -2.8839   -4.4692    0.0000 C   0  0  0  0  0  0  0  0  0  0  0  0
   -2.5803   -3.0525    0.0000 C   0  0  0  0  0  0  0  0  0  0  0  0
   -0.9107    5.5824    0.0000 C   0  0  0  0  0  0  0  0  0  0  0  0
   -1.5516    5.0089    0.0000 C   0  0  0  0  0  0  0  0  0  0  0  0
   -0.1349    5.3294    0.0000 C   0  0  0  0  0  0  0  0  0  0  0  0
  1 35  1  0  0  0  0
  2 35  1  0  0  0  0
  3 35  1  0  0  0  0
  4 19  1  0  0  0  0
  4 23  1  0  0  0  0
  5 18  2  0  0  0  0
  6 27  1  0  0  0  0
  6 36  1  0  0  0  0
  7 27  2  0  0  0  0
  8  9  1  0  0  0  0
  8 14  1  0  0  0  0
  8 15  1  0  0  0  0
  9 17  2  0  0  0  0
 10 17  1  0  0  0  0
 10 26  1  0  0  0  0
 11 18  1  0  0  0  0
 11 25  1  0  0  0  0
 12 30  1  0  0  0  0
 12 37  1  0  0  0  0
 12 38  1  0  0  0  0
 13 28  3  0  0  0  0
 14 19  1  0  0  0  0
 14 20  1  0  0  0  0
 14 22  1  6  0  0  0
 15 16  2  0  0  0  0
 15 21  1  0  0  0  0
 16 17  1  0  0  0  0
 16 18  1  0  0  0  0
 20 24  1  0  0  0  0
 21 25  2  0  0  0  0
 22 28  1  0  0  0  0
 23 24  1  0  0  0  0
 23 27  1  6  0  0  0
 26 31  2  0  0  0  0
 26 32  1  0  0  0  0
 29 30  1  0  0  0  0
 29 33  2  0  0  0  0
 29 34  1  0  0  0  0
 30 35  1  0  0  0  0
 31 33  1  0  0  0  0
 32 34  2  0  0  0  0
 36 39  1  0  0  0  0
 36 40  1  0  0  0  0
 36 41  1  0  0  0  0
M  END
> <PUBCHEM_COMPOUND_ID_TYPE>
0

> <PUBCHEM_TOTAL_CHARGE>
0

> <PUBCHEM_SUBSTANCE_ID>
310946992

> <PUBCHEM_SUBSTANCE_VERSION>
1

> <PUBCHEM_EXT_DATASOURCE_NAME>
4488

> <PUBCHEM_EXT_DATASOURCE_REGID>
SCHEMBL16125135

> <PUBCHEM_SUBSTANCE_COMMENT>
InChI=1S/C28H33F3N6O4/c1-26(2,3)41-25(39)20-10-12-27(13-14-32,16-40-20)37-19-11-15-33-24(38)21(19)23(35-37)34-18-8-6-17(7-9-18)22(36(4)5)28(29,30)31/h6-9,11,15,20,22H,10,12-13,16H2,1-5H3,(H,33,38)(H,34,35)/t20-,22?,27-/m0/s1
InChIKey=MMNJMSPQDFFDNH-BRTNGCMZSA-N

> <PUBCHEM_SUBSTANCE_SYNONYM>
SCHEMBL16125135

> <PUBCHEM_XREF_EXT_ID>
SCHEMBL16125135

> <PUBCHEM_EXT_DATASOURCE_URL>
https://www.surechembl.org/

> <PUBCHEM_EXT_SUBSTANCE_URL>
https://www.surechembl.org/chemical/SCHEMBL16125135

> <PUBCHEM_CID_ASSOCIATIONS>
117612845  1

> <PUBCHEM_COORDINATE_TYPE>
1
3

> <PUBCHEM_BONDANNOTATIONS>
14  22  6
23  27  6

$$$$
