310949638
  -OEChem-07211613022D

 23 24  0     0  0  0  0  0  0999 V2000
    1.6298    1.0755    0.0000 O   0  0  0  0  0  0  0  0  0  0  0  0
    2.4480    1.0755    0.0000 O   0  0  0  0  0  0  0  0  0  0  0  0
    3.6753    0.3629    0.0000 O   0  0  0  0  0  0  0  0  0  0  0  0
   -3.6753    0.3629    0.0000 O   0  0  0  0  0  0  0  0  0  0  0  0
   -3.6753    1.8014    0.0000 O   0  0  0  0  0  0  0  0  0  0  0  0
    0.4025    0.3629    0.0000 N   0  0  0  0  0  0  0  0  0  0  0  0
    1.6298   -0.3629    0.0000 C   0  0  0  0  0  0  0  0  0  0  0  0
    2.4347   -0.3629    0.0000 C   0  0  0  0  0  0  0  0  0  0  0  0
    1.2075    0.3497    0.0000 C   0  0  0  0  0  0  0  0  0  0  0  0
    1.2339   -1.1019    0.0000 C   0  0  0  0  0  0  0  0  0  0  0  0
   -0.8248    1.0887    0.0000 C   0  0  0  0  0  0  0  0  0  0  0  0
    2.8571    0.3497    0.0000 C   0  0  0  0  0  0  0  0  0  0  0  0
    0.0066    1.0623    0.0000 C   0  0  0  0  0  0  0  0  0  0  0  0
    2.8571   -1.0755    0.0000 C   0  0  0  0  0  0  0  0  0  0  0  0
   -2.4611    1.0755    0.0000 C   0  0  0  0  0  0  0  0  0  0  0  0
    1.6430   -1.8014    0.0000 C   0  0  0  0  0  0  0  0  0  0  0  0
   -1.2339    0.3629    0.0000 C   0  0  0  0  0  0  0  0  0  0  0  0
   -1.2339    1.7881    0.0000 C   0  0  0  0  0  0  0  0  0  0  0  0
    2.4480   -1.8014    0.0000 C   0  0  0  0  0  0  0  0  0  0  0  0
   -2.0389    0.3629    0.0000 C   0  0  0  0  0  0  0  0  0  0  0  0
   -2.0520    1.7881    0.0000 C   0  0  0  0  0  0  0  0  0  0  0  0
   -3.2662    1.1019    0.0000 C   0  0  0  0  0  0  0  0  0  0  0  0
   -0.0066   -0.3893    0.0000 C   0  0  0  0  0  0  0  0  0  0  0  0
  1  9  2  0  0  0  0
  2 12  2  0  0  0  0
  3 12  1  0  0  0  0
  4 22  2  0  0  0  0
  5 22  1  0  0  0  0
  6  9  1  0  0  0  0
  6 13  1  0  0  0  0
  6 23  1  0  0  0  0
  7  8  2  0  0  0  0
  7  9  1  0  0  0  0
  7 10  1  0  0  0  0
  8 12  1  0  0  0  0
  8 14  1  0  0  0  0
 10 16  2  0  0  0  0
 11 13  1  0  0  0  0
 11 17  2  0  0  0  0
 11 18  1  0  0  0  0
 14 19  2  0  0  0  0
 15 20  2  0  0  0  0
 15 21  1  0  0  0  0
 15 22  1  0  0  0  0
 16 19  1  0  0  0  0
 17 20  1  0  0  0  0
 18 21  2  0  0  0  0
M  END
> <PUBCHEM_COMPOUND_ID_TYPE>
0

> <PUBCHEM_TOTAL_CHARGE>
0

> <PUBCHEM_SUBSTANCE_ID>
310949638

> <PUBCHEM_SUBSTANCE_VERSION>
1

> <PUBCHEM_EXT_DATASOURCE_NAME>
4488

> <PUBCHEM_EXT_DATASOURCE_REGID>
SCHEMBL16127836

> <PUBCHEM_SUBSTANCE_COMMENT>
InChI=1S/C17H15NO5/c1-18(10-11-6-8-12(9-7-11)16(20)21)15(19)13-4-2-3-5-14(13)17(22)23/h2-9H,10H2,1H3,(H,20,21)(H,22,23)
InChIKey=SYGTWBRSKIXHGP-UHFFFAOYSA-N

> <PUBCHEM_SUBSTANCE_SYNONYM>
SCHEMBL16127836

> <PUBCHEM_XREF_EXT_ID>
SCHEMBL16127836

> <PUBCHEM_EXT_DATASOURCE_URL>
https://www.surechembl.org/

> <PUBCHEM_EXT_SUBSTANCE_URL>
https://www.surechembl.org/chemical/SCHEMBL16127836

> <PUBCHEM_CID_ASSOCIATIONS>
117615021  1

> <PUBCHEM_COORDINATE_TYPE>
1
3

$$$$
