310940767
  -OEChem-07211613022D

 14 15  0     1  0  0  0  0  0999 V2000
    1.4540   -0.0863    0.0000 O   0  0  0  0  0  0  0  0  0  0  0  0
    0.0000   -1.7707    0.0000 O   0  0  0  0  0  0  0  0  0  0  0  0
   -1.4540   -0.9213    0.0000 N   0  0  0  0  0  0  0  0  0  0  0  0
    0.7342   -0.4894    0.0000 C   0  0  3  0  0  0  0  0  0  0  0  0
    0.0144   -0.8926    0.0000 C   0  0  0  0  0  0  0  0  0  0  0  0
    1.4396   -0.9069    0.0000 C   0  0  0  0  0  0  0  0  0  0  0  0
   -0.7198   -0.5039    0.0000 C   0  0  3  0  0  0  0  0  0  0  0  0
    0.1439    0.0863    0.0000 C   0  0  0  0  0  0  0  0  0  0  0  0
   -0.7054    0.3455    0.0000 C   0  0  0  0  0  0  0  0  0  0  0  0
    0.0000    0.7630    0.0000 C   0  0  0  0  0  0  0  0  0  0  0  0
    0.1008    1.5979    0.0000 C   0  0  0  0  0  0  0  0  0  0  0  0
    0.7918    0.4319    0.0000 C   0  0  0  0  0  0  0  0  0  0  0  0
    0.9069    1.7707    0.0000 C   0  0  0  0  0  0  0  0  0  0  0  0
    1.3244    1.0365    0.0000 C   0  0  0  0  0  0  0  0  0  0  0  0
  1  4  1  0  0  0  0
  1  6  1  0  0  0  0
  2  5  2  0  0  0  0
  7  3  1  1  0  0  0
  4  5  1  6  0  0  0
  4  6  1  0  0  0  0
  4  8  1  1  0  0  0
  5  7  1  0  0  0  0
  7  9  1  0  0  0  0
  9 10  1  0  0  0  0
 10 11  2  0  0  0  0
 10 12  1  0  0  0  0
 11 13  1  0  0  0  0
 12 14  1  0  0  0  0
 13 14  1  0  0  0  0
M  END
> <PUBCHEM_COMPOUND_ID_TYPE>
0

> <PUBCHEM_TOTAL_CHARGE>
0

> <PUBCHEM_SUBSTANCE_ID>
310940767

> <PUBCHEM_SUBSTANCE_VERSION>
1

> <PUBCHEM_EXT_DATASOURCE_NAME>
4488

> <PUBCHEM_EXT_DATASOURCE_REGID>
SCHEMBL16118726

> <PUBCHEM_SUBSTANCE_COMMENT>
InChI=1S/C11H17NO2/c1-11(7-14-11)10(13)9(12)6-8-4-2-3-5-8/h4,9H,2-3,5-7,12H2,1H3/t9-,11+/m0/s1
InChIKey=ZJMQURXHSNGKDX-GXSJLCMTSA-N

> <PUBCHEM_SUBSTANCE_SYNONYM>
SCHEMBL16118726

> <PUBCHEM_XREF_EXT_ID>
SCHEMBL16118726

> <PUBCHEM_EXT_DATASOURCE_URL>
https://www.surechembl.org/

> <PUBCHEM_EXT_SUBSTANCE_URL>
https://www.surechembl.org/chemical/SCHEMBL16118726

> <PUBCHEM_CID_ASSOCIATIONS>
117607719  1

> <PUBCHEM_COORDINATE_TYPE>
1
3

> <PUBCHEM_BONDANNOTATIONS>
7  3  5
4  5  6
4  8  5

$$$$
