310943878
  -OEChem-07211613022D

 16 17  0     1  0  0  0  0  0999 V2000
    1.3918   -1.5167    0.0000 O   0  0  0  0  0  0  0  0  0  0  0  0
    2.7836   -0.7435    0.0000 O   0  0  0  0  0  0  0  0  0  0  0  0
   -1.4750    0.9576    0.0000 N   0  0  0  0  0  0  0  0  0  0  0  0
    0.6780    0.5532    0.0000 N   0  0  0  0  0  0  0  0  0  0  0  0
   -2.2245    0.6246    0.0000 N   0  0  0  0  0  0  0  0  0  0  0  0
   -2.7836    1.2312    0.0000 N   0  0  0  0  0  0  0  0  0  0  0  0
   -2.3672    1.9449    0.0000 N   0  0  0  0  0  0  0  0  0  0  0  0
   -0.7494    0.5532    0.0000 C   0  0  0  0  0  0  0  0  0  0  0  0
    0.6662   -0.2796    0.0000 C   0  0  0  0  0  0  0  0  0  0  0  0
   -0.0476    0.9576    0.0000 C   0  0  0  0  0  0  0  0  0  0  0  0
   -0.7494   -0.2796    0.0000 C   0  0  0  0  0  0  0  0  0  0  0  0
    1.3918   -0.6840    0.0000 C   0  0  3  0  0  0  0  0  0  0  0  0
   -0.0357   -0.6840    0.0000 C   0  0  0  0  0  0  0  0  0  0  0  0
   -1.5583    1.7784    0.0000 C   0  0  0  0  0  0  0  0  0  0  0  0
    2.0936   -0.2796    0.0000 C   0  0  0  0  0  0  0  0  0  0  0  0
    2.1175   -1.9449    0.0000 C   0  0  0  0  0  0  0  0  0  0  0  0
 12  1  1  6  0  0  0
  1 16  1  0  0  0  0
  2 15  2  0  0  0  0
  3  5  1  0  0  0  0
  3  8  1  0  0  0  0
  3 14  1  0  0  0  0
  4  9  1  0  0  0  0
  4 10  2  0  0  0  0
  5  6  2  0  0  0  0
  6  7  1  0  0  0  0
  7 14  2  0  0  0  0
  8 10  1  0  0  0  0
  8 11  2  0  0  0  0
  9 12  1  0  0  0  0
  9 13  2  0  0  0  0
 11 13  1  0  0  0  0
 12 15  1  0  0  0  0
M  END
> <PUBCHEM_COMPOUND_ID_TYPE>
0

> <PUBCHEM_TOTAL_CHARGE>
0

> <PUBCHEM_SUBSTANCE_ID>
310943878

> <PUBCHEM_SUBSTANCE_VERSION>
1

> <PUBCHEM_EXT_DATASOURCE_NAME>
4488

> <PUBCHEM_EXT_DATASOURCE_REGID>
SCHEMBL16121949

> <PUBCHEM_SUBSTANCE_COMMENT>
InChI=1S/C9H9N5O2/c1-16-9(5-15)8-3-2-7(4-10-8)14-6-11-12-13-14/h2-6,9H,1H3/t9-/m0/s1
InChIKey=OSASKQHXTHZRLQ-VIFPVBQESA-N

> <PUBCHEM_SUBSTANCE_SYNONYM>
SCHEMBL16121949

> <PUBCHEM_XREF_EXT_ID>
SCHEMBL16121949

> <PUBCHEM_EXT_DATASOURCE_URL>
https://www.surechembl.org/

> <PUBCHEM_EXT_SUBSTANCE_URL>
https://www.surechembl.org/chemical/SCHEMBL16121949

> <PUBCHEM_CID_ASSOCIATIONS>
117610204  1

> <PUBCHEM_COORDINATE_TYPE>
1
3

> <PUBCHEM_BONDANNOTATIONS>
12  1  6

$$$$
