310944294
  -OEChem-07211613022D

 20 22  0     0  0  0  0  0  0999 V2000
    1.4595    1.3318    0.0000 O   0  0  0  0  0  0  0  0  0  0  0  0
   -1.6593   -0.7214    0.0000 O   0  0  0  0  0  0  0  0  0  0  0  0
   -1.4706    0.6771    0.0000 O   0  0  0  0  0  0  0  0  0  0  0  0
    2.5028    0.2885    0.0000 N   0  0  0  0  0  0  0  0  0  0  0  0
   -0.4273   -0.1332    0.0000 N   0  0  0  0  0  0  0  0  0  0  0  0
    2.4917   -0.5438    0.0000 C   0  0  0  0  0  0  0  0  0  0  0  0
    1.2264   -0.1221    0.0000 C   0  0  0  0  0  0  0  0  0  0  0  0
    1.7037   -0.7991    0.0000 C   0  0  0  0  0  0  0  0  0  0  0  0
    1.7148    0.5328    0.0000 C   0  0  0  0  0  0  0  0  0  0  0  0
    3.3130   -0.5550    0.0000 C   0  0  0  0  0  0  0  0  0  0  0  0
    2.7248   -1.3318    0.0000 C   0  0  0  0  0  0  0  0  0  0  0  0
    0.8047   -0.8547    0.0000 C   0  0  0  0  0  0  0  0  0  0  0  0
    0.8158    0.5882    0.0000 C   0  0  0  0  0  0  0  0  0  0  0  0
   -0.0167   -0.8435    0.0000 C   0  0  0  0  0  0  0  0  0  0  0  0
   -0.0167    0.5882    0.0000 C   0  0  0  0  0  0  0  0  0  0  0  0
   -1.2597   -0.1332    0.0000 C   0  0  0  0  0  0  0  0  0  0  0  0
   -2.4917   -0.6327    0.0000 C   0  0  0  0  0  0  0  0  0  0  0  0
   -3.3130   -0.6327    0.0000 C   0  0  0  0  0  0  0  0  0  0  0  0
   -3.0466   -1.2431    0.0000 C   0  0  0  0  0  0  0  0  0  0  0  0
   -2.6915    0.1776    0.0000 C   0  0  0  0  0  0  0  0  0  0  0  0
  1  9  2  0  0  0  0
  2 16  1  0  0  0  0
  2 17  1  0  0  0  0
  3 16  2  0  0  0  0
  4  6  1  0  0  0  0
  4  9  1  0  0  0  0
  5 14  1  0  0  0  0
  5 15  1  0  0  0  0
  5 16  1  0  0  0  0
  6  8  1  0  0  0  0
  6 10  1  0  0  0  0
  6 11  1  0  0  0  0
  7  8  1  0  0  0  0
  7  9  1  0  0  0  0
  7 12  1  0  0  0  0
  7 13  1  0  0  0  0
 10 11  1  0  0  0  0
 12 14  1  0  0  0  0
 13 15  1  0  0  0  0
 17 18  1  0  0  0  0
 17 19  1  0  0  0  0
 17 20  1  0  0  0  0
M  END
> <PUBCHEM_COMPOUND_ID_TYPE>
0

> <PUBCHEM_TOTAL_CHARGE>
0

> <PUBCHEM_SUBSTANCE_ID>
310944294

> <PUBCHEM_SUBSTANCE_VERSION>
1

> <PUBCHEM_EXT_DATASOURCE_NAME>
4488

> <PUBCHEM_EXT_DATASOURCE_REGID>
SCHEMBL16122369

> <PUBCHEM_SUBSTANCE_COMMENT>
InChI=1S/C15H24N2O3/c1-13(2,3)20-12(19)17-8-6-14(7-9-17)10-15(4-5-15)16-11(14)18/h4-10H2,1-3H3,(H,16,18)
InChIKey=SINLXXHHSMMZRI-UHFFFAOYSA-N

> <PUBCHEM_SUBSTANCE_SYNONYM>
SCHEMBL16122369

> <PUBCHEM_XREF_EXT_ID>
SCHEMBL16122369

> <PUBCHEM_EXT_DATASOURCE_URL>
https://www.surechembl.org/

> <PUBCHEM_EXT_SUBSTANCE_URL>
https://www.surechembl.org/chemical/SCHEMBL16122369

> <PUBCHEM_CID_ASSOCIATIONS>
117610559  1

> <PUBCHEM_COORDINATE_TYPE>
1
3

$$$$
