310945742
  -OEChem-07211613022D

 17 18  0     0  0  0  0  0  0999 V2000
    1.9824    1.6131    0.0000 F   0  0  0  0  0  0  0  0  0  0  0  0
   -0.3887   -0.2915    0.0000 N   0  0  0  0  0  0  0  0  0  0  0  0
   -1.1855   -0.0972    0.0000 N   0  0  0  0  0  0  0  0  0  0  0  0
    0.0778    0.4470    0.0000 C   0  0  0  0  0  0  0  0  0  0  0  0
   -0.5247    1.0689    0.0000 C   0  0  0  0  0  0  0  0  0  0  0  0
   -1.2827    0.7580    0.0000 C   0  0  0  0  0  0  0  0  0  0  0  0
   -0.0194   -1.0689    0.0000 C   0  0  0  0  0  0  0  0  0  0  0  0
    0.8746    0.6219    0.0000 C   0  0  0  0  0  0  0  0  0  0  0  0
   -0.2527    1.8852    0.0000 C   0  0  0  0  0  0  0  0  0  0  0  0
    1.1467    1.4382    0.0000 C   0  0  0  0  0  0  0  0  0  0  0  0
    0.5830    2.0406    0.0000 C   0  0  0  0  0  0  0  0  0  0  0  0
   -1.9824    1.1467    0.0000 C   0  0  0  0  0  0  0  0  0  0  0  0
    0.8163   -1.2050    0.0000 C   0  0  0  0  0  0  0  0  0  0  0  0
   -0.1166   -1.9240    0.0000 C   0  0  0  0  0  0  0  0  0  0  0  0
   -1.8269    1.6714    0.0000 C   0  0  0  0  0  0  0  0  0  0  0  0
    0.6802   -2.0018    0.0000 C   0  0  0  0  0  0  0  0  0  0  0  0
    0.5247   -2.0406    0.0000 C   0  0  0  0  0  0  0  0  0  0  0  0
  1 10  1  0  0  0  0
  2  3  1  0  0  0  0
  2  4  1  0  0  0  0
  2  7  1  0  0  0  0
  3  6  2  0  0  0  0
  4  5  2  0  0  0  0
  4  8  1  0  0  0  0
  5  6  1  0  0  0  0
  5  9  1  0  0  0  0
  6 12  1  0  0  0  0
  7 13  1  0  0  0  0
  7 14  1  0  0  0  0
  8 10  2  0  0  0  0
  9 11  2  0  0  0  0
 10 11  1  0  0  0  0
 12 15  1  0  0  0  0
 13 16  1  0  0  0  0
 14 17  1  0  0  0  0
M  END
> <PUBCHEM_COMPOUND_ID_TYPE>
0

> <PUBCHEM_TOTAL_CHARGE>
0

> <PUBCHEM_SUBSTANCE_ID>
310945742

> <PUBCHEM_SUBSTANCE_VERSION>
1

> <PUBCHEM_EXT_DATASOURCE_NAME>
4488

> <PUBCHEM_EXT_DATASOURCE_REGID>
SCHEMBL16123846

> <PUBCHEM_SUBSTANCE_COMMENT>
InChI=1S/C14H19FN2/c1-4-11(5-2)17-14-9-10(15)7-8-12(14)13(6-3)16-17/h7-9,11H,4-6H2,1-3H3
InChIKey=MWVDKJFTAVLKNA-UHFFFAOYSA-N

> <PUBCHEM_SUBSTANCE_SYNONYM>
SCHEMBL16123846

> <PUBCHEM_XREF_EXT_ID>
SCHEMBL16123846

> <PUBCHEM_EXT_DATASOURCE_URL>
https://www.surechembl.org/

> <PUBCHEM_EXT_SUBSTANCE_URL>
https://www.surechembl.org/chemical/SCHEMBL16123846

> <PUBCHEM_CID_ASSOCIATIONS>
117611736  1

> <PUBCHEM_COORDINATE_TYPE>
1
3

$$$$
