310939760
  -OEChem-07211613022D

 16 17  0     0  0  0  0  0  0999 V2000
    1.5429    7.0802    0.0000 Cl  0  0  0  0  0  0  0  0  0  0  0  0
    0.1140    4.6052    0.0000 O   0  0  0  0  0  0  0  0  0  0  0  0
    1.5429    4.6052    0.0000 C   0  0  0  0  0  0  0  0  0  0  0  0
    2.2574    5.8427    0.0000 C   0  0  0  0  0  0  0  0  0  0  0  0
    0.8285    5.0177    0.0000 C   0  0  0  0  0  0  0  0  0  0  0  0
    1.5429    3.7802    0.0000 C   0  0  0  0  0  0  0  0  0  0  0  0
    1.5429    6.2552    0.0000 C   0  0  0  0  0  0  0  0  0  0  0  0
    2.2574    5.0177    0.0000 C   0  0  0  0  0  0  0  0  0  0  0  0
    2.9719    6.2552    0.0000 C   0  0  0  0  0  0  0  0  0  0  0  0
    0.8285    5.8427    0.0000 C   0  0  0  0  0  0  0  0  0  0  0  0
    3.7688    6.0417    0.0000 C   0  0  0  0  0  0  0  0  0  0  0  0
    3.1854    7.0521    0.0000 C   0  0  0  0  0  0  0  0  0  0  0  0
    3.9823    6.8385    0.0000 C   0  0  0  0  0  0  0  0  0  0  0  0
    2.3679    3.7802    0.0000 C   0  0  0  0  0  0  0  0  0  0  0  0
    0.7179    3.7802    0.0000 C   0  0  0  0  0  0  0  0  0  0  0  0
    1.5429    2.9552    0.0000 C   0  0  0  0  0  0  0  0  0  0  0  0
  1  7  1  0  0  0  0
  2  5  1  0  0  0  0
  3  5  1  0  0  0  0
  3  6  1  0  0  0  0
  3  8  2  0  0  0  0
  4  7  2  0  0  0  0
  4  8  1  0  0  0  0
  4  9  1  0  0  0  0
  5 10  2  0  0  0  0
  6 14  1  0  0  0  0
  6 15  1  0  0  0  0
  6 16  1  0  0  0  0
  7 10  1  0  0  0  0
  9 11  1  0  0  0  0
  9 12  1  0  0  0  0
 11 13  1  0  0  0  0
 12 13  1  0  0  0  0
M  END
> <PUBCHEM_COMPOUND_ID_TYPE>
0

> <PUBCHEM_TOTAL_CHARGE>
0

> <PUBCHEM_SUBSTANCE_ID>
310939760

> <PUBCHEM_SUBSTANCE_VERSION>
1

> <PUBCHEM_EXT_DATASOURCE_NAME>
4488

> <PUBCHEM_EXT_DATASOURCE_REGID>
SCHEMBL16117690

> <PUBCHEM_SUBSTANCE_COMMENT>
InChI=1S/C14H19ClO/c1-14(2,3)11-7-10(9-5-4-6-9)12(15)8-13(11)16/h7-9,16H,4-6H2,1-3H3
InChIKey=KMMIMFUNLSYFSE-UHFFFAOYSA-N

> <PUBCHEM_SUBSTANCE_SYNONYM>
SCHEMBL16117690

> <PUBCHEM_XREF_EXT_ID>
SCHEMBL16117690

> <PUBCHEM_EXT_DATASOURCE_URL>
https://www.surechembl.org/

> <PUBCHEM_EXT_SUBSTANCE_URL>
https://www.surechembl.org/chemical/SCHEMBL16117690

> <PUBCHEM_CID_ASSOCIATIONS>
117606982  1

> <PUBCHEM_COORDINATE_TYPE>
1
3

> <PUBCHEM_BONDANNOTATIONS>
6  14  3
6  15  3

$$$$
