310929335
  -OEChem-07211613022D

 30 31  0     0  0  0  0  0  0999 V2000
   13.7819   -1.2617    0.0000 O   0  0  0  0  0  0  0  0  0  0  0  0
    0.0000   -2.5234    0.0000 O   0  0  0  0  0  0  0  0  0  0  0  0
   12.3746   -2.1352    0.0000 N   0  0  0  0  0  0  0  0  0  0  0  0
   13.1025   -2.5234    0.0000 C   0  0  0  0  0  0  0  0  0  0  0  0
   13.1025   -3.3484    0.0000 C   0  0  0  0  0  0  0  0  0  0  0  0
   13.8305   -2.0867    0.0000 C   0  0  0  0  0  0  0  0  0  0  0  0
   11.6467   -2.5234    0.0000 C   0  0  0  0  0  0  0  0  0  0  0  0
   12.3746   -3.7852    0.0000 C   0  0  0  0  0  0  0  0  0  0  0  0
   13.8305   -3.7852    0.0000 C   0  0  0  0  0  0  0  0  0  0  0  0
   14.5583   -2.5234    0.0000 C   0  0  0  0  0  0  0  0  0  0  0  0
   11.6467   -3.3484    0.0000 C   0  0  0  0  0  0  0  0  0  0  0  0
   14.5583   -3.3484    0.0000 C   0  0  0  0  0  0  0  0  0  0  0  0
   10.9188   -2.1352    0.0000 C   0  0  0  0  0  0  0  0  0  0  0  0
   13.0540   -0.8250    0.0000 C   0  0  0  0  0  0  0  0  0  0  0  0
   10.1908   -2.5234    0.0000 C   0  0  0  0  0  0  0  0  0  0  0  0
   13.0540    0.0000    0.0000 C   0  0  0  0  0  0  0  0  0  0  0  0
   12.3261   -1.2617    0.0000 C   0  0  0  0  0  0  0  0  0  0  0  0
    9.4630   -2.1352    0.0000 C   0  0  0  0  0  0  0  0  0  0  0  0
    8.7350   -2.5234    0.0000 C   0  0  0  0  0  0  0  0  0  0  0  0
    8.0071   -2.1352    0.0000 C   0  0  0  0  0  0  0  0  0  0  0  0
    7.2792   -2.5234    0.0000 C   0  0  0  0  0  0  0  0  0  0  0  0
    6.5513   -2.1352    0.0000 C   0  0  0  0  0  0  0  0  0  0  0  0
    5.8233   -2.5234    0.0000 C   0  0  0  0  0  0  0  0  0  0  0  0
    5.0954   -2.1352    0.0000 C   0  0  0  0  0  0  0  0  0  0  0  0
    4.3675   -2.5234    0.0000 C   0  0  0  0  0  0  0  0  0  0  0  0
    3.6396   -2.1352    0.0000 C   0  0  0  0  0  0  0  0  0  0  0  0
    2.9117   -2.5234    0.0000 C   0  0  0  0  0  0  0  0  0  0  0  0
    2.1838   -2.1352    0.0000 C   0  0  0  0  0  0  0  0  0  0  0  0
    1.4558   -2.5234    0.0000 C   0  0  0  0  0  0  0  0  0  0  0  0
    0.7279   -2.1352    0.0000 C   0  0  0  0  0  0  0  0  0  0  0  0
  1  6  1  0  0  0  0
  1 14  1  0  0  0  0
  2 30  1  0  0  0  0
  3  4  2  0  0  0  0
  3  7  1  0  0  0  0
  4  5  1  0  0  0  0
  4  6  1  0  0  0  0
  5  8  2  0  0  0  0
  5  9  1  0  0  0  0
  6 10  2  0  0  0  0
  7 11  2  0  0  0  0
  7 13  1  0  0  0  0
  8 11  1  0  0  0  0
  9 12  2  0  0  0  0
 10 12  1  0  0  0  0
 13 15  1  0  0  0  0
 14 16  1  0  0  0  0
 14 17  1  0  0  0  0
 15 18  1  0  0  0  0
 18 19  1  0  0  0  0
 19 20  1  0  0  0  0
 20 21  1  0  0  0  0
 21 22  1  0  0  0  0
 22 23  1  0  0  0  0
 23 24  1  0  0  0  0
 24 25  1  0  0  0  0
 25 26  1  0  0  0  0
 26 27  1  0  0  0  0
 27 28  1  0  0  0  0
 28 29  1  0  0  0  0
 29 30  1  0  0  0  0
M  END
> <PUBCHEM_COMPOUND_ID_TYPE>
0

> <PUBCHEM_TOTAL_CHARGE>
0

> <PUBCHEM_SUBSTANCE_ID>
310929335

> <PUBCHEM_SUBSTANCE_VERSION>
1

> <PUBCHEM_EXT_DATASOURCE_NAME>
4488

> <PUBCHEM_EXT_DATASOURCE_REGID>
SCHEMBL16106501

> <PUBCHEM_SUBSTANCE_COMMENT>
InChI=1S/C27H43NO2/c1-23(2)30-26-19-16-17-24-20-21-25(28-27(24)26)18-14-12-10-8-6-4-3-5-7-9-11-13-15-22-29/h16-17,19-21,23,29H,3-15,18,22H2,1-2H3
InChIKey=BTWKADFATGAUFF-UHFFFAOYSA-N

> <PUBCHEM_SUBSTANCE_SYNONYM>
SCHEMBL16106501

> <PUBCHEM_XREF_EXT_ID>
SCHEMBL16106501

> <PUBCHEM_EXT_DATASOURCE_URL>
https://www.surechembl.org/

> <PUBCHEM_EXT_SUBSTANCE_URL>
https://www.surechembl.org/chemical/SCHEMBL16106501

> <PUBCHEM_CID_ASSOCIATIONS>
86299866  1

> <PUBCHEM_COORDINATE_TYPE>
1
3

$$$$
