310933975
  -OEChem-07211613022D

 14 15  0     0  0  0  0  0  0999 V2000
    0.8960   -2.5656    0.0000 O   0  0  0  0  0  0  0  0  0  0  0  0
    2.0069   -3.6943    0.0000 O   0  0  0  0  0  0  0  0  0  0  0  0
    0.8676   -0.9498    0.0000 C   0  0  0  0  0  0  0  0  0  0  0  0
    1.0794   -1.5759    0.0000 C   0  0  0  0  0  0  0  0  0  0  0  0
    1.5621   -1.2622    0.0000 C   0  0  0  0  0  0  0  0  0  0  0  0
    0.1119   -1.2807    0.0000 C   0  0  0  0  0  0  0  0  0  0  0  0
    0.9031   -0.1073    0.0000 C   0  0  0  0  0  0  0  0  0  0  0  0
    1.7831   -1.9021    0.0000 C   0  0  0  0  0  0  0  0  0  0  0  0
    0.2127   -1.9909    0.0000 C   0  0  0  0  0  0  0  0  0  0  0  0
    1.1332   -0.6770    0.0000 C   0  0  0  0  0  0  0  0  0  0  0  0
    0.7746   -1.9238    0.0000 C   0  0  0  0  0  0  0  0  0  0  0  0
    1.4823   -2.4574    0.0000 C   0  0  0  0  0  0  0  0  0  0  0  0
    0.4355   -3.2984    0.0000 C   0  0  0  0  0  0  0  0  0  0  0  0
    1.3876   -3.2273    0.0000 C   0  0  0  0  0  0  0  0  0  0  0  0
  1  4  1  0  0  0  0
  1 13  1  0  0  0  0
  2 14  1  0  0  0  0
  3  5  1  0  0  0  0
  3  6  1  0  0  0  0
  3  7  1  0  0  0  0
  3 11  1  0  0  0  0
  4  8  1  0  0  0  0
  4  9  1  0  0  0  0
  4 10  1  0  0  0  0
  5  8  1  0  0  0  0
  6  9  1  0  0  0  0
  7 10  1  0  0  0  0
 11 12  1  0  0  0  0
 12 14  1  0  0  0  0
M  END
> <PUBCHEM_COMPOUND_ID_TYPE>
0

> <PUBCHEM_TOTAL_CHARGE>
0

> <PUBCHEM_SUBSTANCE_ID>
310933975

> <PUBCHEM_SUBSTANCE_VERSION>
1

> <PUBCHEM_EXT_DATASOURCE_NAME>
4488

> <PUBCHEM_EXT_DATASOURCE_REGID>
SCHEMBL16111415

> <PUBCHEM_SUBSTANCE_COMMENT>
InChI=1S/C12H22O2/c1-14-12-7-4-11(5-8-12,6-9-12)3-2-10-13/h13H,2-10H2,1H3
InChIKey=JWUDGQXMTFXDDW-UHFFFAOYSA-N

> <PUBCHEM_SUBSTANCE_SYNONYM>
SCHEMBL16111415

> <PUBCHEM_XREF_EXT_ID>
SCHEMBL16111415

> <PUBCHEM_EXT_DATASOURCE_URL>
https://www.surechembl.org/

> <PUBCHEM_EXT_SUBSTANCE_URL>
https://www.surechembl.org/chemical/SCHEMBL16111415

> <PUBCHEM_CID_ASSOCIATIONS>
117602288  1

> <PUBCHEM_COORDINATE_TYPE>
1
3

$$$$
