310943360
  -OEChem-07211613022D

 33 36  0     0  0  0  0  0  0999 V2000
   -2.4997   -1.8419    0.0000 O   0  0  0  0  0  0  0  0  0  0  0  0
   -5.3795    1.4326    0.0000 O   0  0  0  0  0  0  0  0  0  0  0  0
    1.7834    1.4326    0.0000 O   0  0  0  0  0  0  0  0  0  0  0  0
   -3.2306   -0.6140    0.0000 N   0  0  0  0  0  0  0  0  0  0  0  0
   -3.9469    0.6140    0.0000 N   0  0  0  0  0  0  0  0  0  0  0  0
   -0.3655    1.8419    0.0000 N   0  0  0  0  0  0  0  0  0  0  0  0
    1.0671    0.2047    0.0000 N   0  0  0  0  0  0  0  0  0  0  0  0
    3.9177   -0.6140    0.0000 N   0  0  0  0  0  0  0  0  0  0  0  0
   -1.7834    0.2193    0.0000 C   0  0  0  0  0  0  0  0  0  0  0  0
   -3.2306    0.2047    0.0000 C   0  0  0  0  0  0  0  0  0  0  0  0
   -1.0964    0.6140    0.0000 C   0  0  0  0  0  0  0  0  0  0  0  0
   -2.5144    0.6140    0.0000 C   0  0  0  0  0  0  0  0  0  0  0  0
   -2.4997   -0.9940    0.0000 C   0  0  0  0  0  0  0  0  0  0  0  0
   -1.7980   -0.6140    0.0000 C   0  0  0  0  0  0  0  0  0  0  0  0
   -1.0817    1.4326    0.0000 C   0  0  0  0  0  0  0  0  0  0  0  0
   -0.3655    0.2193    0.0000 C   0  0  0  0  0  0  0  0  0  0  0  0
    0.3363    0.6140    0.0000 C   0  0  0  0  0  0  0  0  0  0  0  0
    0.3508    1.4180    0.0000 C   0  0  0  0  0  0  0  0  0  0  0  0
    1.7688    0.5993    0.0000 C   0  0  0  0  0  0  0  0  0  0  0  0
   -3.9469    1.4326    0.0000 C   0  0  0  0  0  0  0  0  0  0  0  0
   -4.6486    0.2047    0.0000 C   0  0  0  0  0  0  0  0  0  0  0  0
    2.4997    0.2047    0.0000 C   0  0  0  0  0  0  0  0  0  0  0  0
   -3.9323   -1.0525    0.0000 C   0  0  0  0  0  0  0  0  0  0  0  0
   -1.8127    1.8273    0.0000 C   0  0  0  0  0  0  0  0  0  0  0  0
    3.2014    0.6140    0.0000 C   0  0  0  0  0  0  0  0  0  0  0  0
    3.9323    0.2047    0.0000 C   0  0  0  0  0  0  0  0  0  0  0  0
   -4.6778    1.8419    0.0000 C   0  0  0  0  0  0  0  0  0  0  0  0
   -5.3649    0.6140    0.0000 C   0  0  0  0  0  0  0  0  0  0  0  0
    2.4997   -0.6140    0.0000 C   0  0  0  0  0  0  0  0  0  0  0  0
    3.2160   -1.0233    0.0000 C   0  0  0  0  0  0  0  0  0  0  0  0
    4.6340    0.6140    0.0000 C   0  0  0  0  0  0  0  0  0  0  0  0
    4.6486    1.4472    0.0000 C   0  0  0  0  0  0  0  0  0  0  0  0
    5.3795    0.2047    0.0000 C   0  0  0  0  0  0  0  0  0  0  0  0
  1 13  2  0  0  0  0
  2 27  1  0  0  0  0
  2 28  1  0  0  0  0
  3 19  2  0  0  0  0
  4 10  1  0  0  0  0
  4 13  1  0  0  0  0
  4 23  1  0  0  0  0
  5 10  1  0  0  0  0
  5 20  1  0  0  0  0
  5 21  1  0  0  0  0
  6 15  1  0  0  0  0
  6 18  2  0  0  0  0
  7 17  1  0  0  0  0
  7 19  1  0  0  0  0
  8 26  1  0  0  0  0
  8 30  2  0  0  0  0
  9 11  1  0  0  0  0
  9 12  1  0  0  0  0
  9 14  2  0  0  0  0
 10 12  2  0  0  0  0
 11 15  2  0  0  0  0
 11 16  1  0  0  0  0
 13 14  1  0  0  0  0
 15 24  1  0  0  0  0
 16 17  2  0  0  0  0
 17 18  1  0  0  0  0
 19 22  1  0  0  0  0
 20 27  1  0  0  0  0
 21 28  1  0  0  0  0
 22 25  1  0  0  0  0
 22 29  2  0  0  0  0
 25 26  2  0  0  0  0
 26 31  1  0  0  0  0
 29 30  1  0  0  0  0
 31 32  1  0  0  0  0
 31 33  1  0  0  0  0
M  END
> <PUBCHEM_COMPOUND_ID_TYPE>
0

> <PUBCHEM_TOTAL_CHARGE>
0

> <PUBCHEM_SUBSTANCE_ID>
310943360

> <PUBCHEM_SUBSTANCE_VERSION>
1

> <PUBCHEM_EXT_DATASOURCE_NAME>
4488

> <PUBCHEM_EXT_DATASOURCE_REGID>
SCHEMBL16121423

> <PUBCHEM_SUBSTANCE_COMMENT>
InChI=1S/C25H29N5O3/c1-16(2)22-11-18(5-6-26-22)25(32)28-20-14-21(17(3)27-15-20)19-12-23(29(4)24(31)13-19)30-7-9-33-10-8-30/h5-6,11-16H,7-10H2,1-4H3,(H,28,32)
InChIKey=NHQJGHRZADMTAL-UHFFFAOYSA-N

> <PUBCHEM_SUBSTANCE_SYNONYM>
SCHEMBL16121423

> <PUBCHEM_XREF_EXT_ID>
SCHEMBL16121423

> <PUBCHEM_EXT_DATASOURCE_URL>
https://www.surechembl.org/

> <PUBCHEM_EXT_SUBSTANCE_URL>
https://www.surechembl.org/chemical/SCHEMBL16121423

> <PUBCHEM_CID_ASSOCIATIONS>
117609784  1

> <PUBCHEM_COORDINATE_TYPE>
1
3

$$$$
