310946731
  -OEChem-07211613022D

 32 35  0     0  0  0  0  0  0999 V2000
    2.1542    0.2282    0.0000 F   0  0  0  0  0  0  0  0  0  0  0  0
   -1.6978    2.2181    0.0000 O   0  0  0  0  0  0  0  0  0  0  0  0
   -0.2738   -3.7152    0.0000 O   0  0  0  0  0  0  0  0  0  0  0  0
   -2.9758    1.5609    0.0000 O   0  0  0  0  0  0  0  0  0  0  0  0
   -0.8581   -1.0132    0.0000 N   0  0  0  0  0  0  0  0  0  0  0  0
   -1.7709    0.7759    0.0000 N   0  0  0  0  0  0  0  0  0  0  0  0
   -0.0365   -1.1410    0.0000 N   0  0  0  0  0  0  0  0  0  0  0  0
    0.8398   -2.3460    0.0000 N   0  0  0  0  0  0  0  0  0  0  0  0
   -1.6613   -3.3500    0.0000 N   0  0  0  0  0  0  0  0  0  0  0  0
    0.0365    1.3236    0.0000 N   0  0  0  0  0  0  0  0  0  0  0  0
    2.9393   -0.9767    0.0000 N   0  0  0  0  0  0  0  0  0  0  0  0
   -1.2232   -0.2647    0.0000 C   0  0  0  0  0  0  0  0  0  0  0  0
   -1.2414   -1.7435    0.0000 C   0  0  0  0  0  0  0  0  0  0  0  0
   -0.6390   -2.3277    0.0000 C   0  0  0  0  0  0  0  0  0  0  0  0
   -2.0082   -0.0092    0.0000 C   0  0  0  0  0  0  0  0  0  0  0  0
   -0.9676    0.5203    0.0000 C   0  0  0  0  0  0  0  0  0  0  0  0
    0.0913   -1.9260    0.0000 C   0  0  0  0  0  0  0  0  0  0  0  0
   -0.4016   -0.2647    0.0000 C   0  0  0  0  0  0  0  0  0  0  0  0
   -0.8763   -3.1127    0.0000 C   0  0  0  0  0  0  0  0  0  0  0  0
   -2.0265   -1.9625    0.0000 C   0  0  0  0  0  0  0  0  0  0  0  0
   -2.1178    1.5244    0.0000 C   0  0  0  0  0  0  0  0  0  0  0  0
   -2.2273   -2.7658    0.0000 C   0  0  0  0  0  0  0  0  0  0  0  0
   -0.1461    0.5203    0.0000 C   0  0  0  0  0  0  0  0  0  0  0  0
    1.5335   -1.8530    0.0000 C   0  0  0  0  0  0  0  0  0  0  0  0
   -2.0630    2.9849    0.0000 C   0  0  0  0  0  0  0  0  0  0  0  0
    1.5153   -1.0315    0.0000 C   0  0  0  0  0  0  0  0  0  0  0  0
    2.3003   -2.2547    0.0000 C   0  0  0  0  0  0  0  0  0  0  0  0
    2.1907   -0.5751    0.0000 C   0  0  0  0  0  0  0  0  0  0  0  0
    2.9758   -1.7983    0.0000 C   0  0  0  0  0  0  0  0  0  0  0  0
   -2.4281    3.7152    0.0000 C   0  0  0  0  0  0  0  0  0  0  0  0
   -2.9027    2.9849    0.0000 C   0  0  0  0  0  0  0  0  0  0  0  0
   -1.6248    3.6604    0.0000 C   0  0  0  0  0  0  0  0  0  0  0  0
  1 28  1  0  0  0  0
  2 21  1  0  0  0  0
  2 25  1  0  0  0  0
  3 19  2  0  0  0  0
  4 21  2  0  0  0  0
  5  7  1  0  0  0  0
  5 12  1  0  0  0  0
  5 13  1  0  0  0  0
  6 15  1  0  0  0  0
  6 16  1  0  0  0  0
  6 21  1  0  0  0  0
  7 17  2  0  0  0  0
  8 17  1  0  0  0  0
  8 24  1  0  0  0  0
  9 19  1  0  0  0  0
  9 22  1  0  0  0  0
 10 23  3  0  0  0  0
 11 28  1  0  0  0  0
 11 29  2  0  0  0  0
 12 15  1  0  0  0  0
 12 16  1  0  0  0  0
 12 18  1  0  0  0  0
 13 14  2  0  0  0  0
 13 20  1  0  0  0  0
 14 17  1  0  0  0  0
 14 19  1  0  0  0  0
 18 23  1  0  0  0  0
 20 22  2  0  0  0  0
 24 26  1  0  0  0  0
 24 27  2  0  0  0  0
 25 30  1  0  0  0  0
 25 31  1  0  0  0  0
 25 32  1  0  0  0  0
 26 28  2  0  0  0  0
 27 29  1  0  0  0  0
M  END
> <PUBCHEM_COMPOUND_ID_TYPE>
0

> <PUBCHEM_TOTAL_CHARGE>
0

> <PUBCHEM_SUBSTANCE_ID>
310946731

> <PUBCHEM_SUBSTANCE_VERSION>
1

> <PUBCHEM_EXT_DATASOURCE_NAME>
4488

> <PUBCHEM_EXT_DATASOURCE_REGID>
SCHEMBL16124855

> <PUBCHEM_SUBSTANCE_COMMENT>
InChI=1S/C21H22FN7O3/c1-20(2,3)32-19(31)28-11-21(12-28,6-7-23)29-14-5-9-25-18(30)16(14)17(27-29)26-13-4-8-24-15(22)10-13/h4-5,8-10H,6,11-12H2,1-3H3,(H,25,30)(H,24,26,27)
InChIKey=ZRGSGZIBJLKTAU-UHFFFAOYSA-N

> <PUBCHEM_SUBSTANCE_SYNONYM>
SCHEMBL16124855

> <PUBCHEM_XREF_EXT_ID>
SCHEMBL16124855

> <PUBCHEM_EXT_DATASOURCE_URL>
https://www.surechembl.org/

> <PUBCHEM_EXT_SUBSTANCE_URL>
https://www.surechembl.org/chemical/SCHEMBL16124855

> <PUBCHEM_CID_ASSOCIATIONS>
86268257  1

> <PUBCHEM_COORDINATE_TYPE>
1
3

$$$$
