310942221
  -OEChem-07211613022D

 29 30  0     1  0  0  0  0  0999 V2000
    1.8061    0.8249    0.0000 Cl  0  0  0  0  0  0  0  0  0  0  0  0
    0.3562   -1.6748    0.0000 F   0  0  0  0  0  0  0  0  0  0  0  0
    1.7935   -0.8374    0.0000 O   0  0  0  0  0  0  0  0  0  0  0  0
   -0.3687    2.0748    0.0000 O   0  0  0  0  0  0  0  0  0  0  0  0
   -1.7935   -0.4250    0.0000 N   0  0  0  0  0  0  0  0  0  0  0  0
   -1.8061    2.0748    0.0000 N   0  0  0  0  0  0  0  0  0  0  0  0
   -3.9683    1.6623    0.0000 N   0  0  0  0  0  0  0  0  0  0  0  0
   -0.3687   -0.4124    0.0000 C   0  0  0  0  0  0  0  0  0  0  0  0
    0.3437   -0.8249    0.0000 C   0  0  0  0  0  0  0  0  0  0  0  0
    1.0687   -0.4124    0.0000 C   0  0  0  0  0  0  0  0  0  0  0  0
    1.0811    0.4250    0.0000 C   0  0  0  0  0  0  0  0  0  0  0  0
   -1.0687   -0.8249    0.0000 C   0  0  3  0  0  0  0  0  0  0  0  0
   -0.3437    0.4124    0.0000 C   0  0  0  0  0  0  0  0  0  0  0  0
    0.3687    0.8249    0.0000 C   0  0  0  0  0  0  0  0  0  0  0  0
    2.5184   -0.4124    0.0000 C   0  0  0  0  0  0  0  0  0  0  0  0
   -1.0936   -1.6748    0.0000 C   0  0  0  0  0  0  0  0  0  0  0  0
   -1.7935    0.4250    0.0000 C   0  0  3  0  0  0  0  0  0  0  0  0
    2.5309    0.4124    0.0000 C   0  0  0  0  0  0  0  0  0  0  0  0
    3.2558   -0.8249    0.0000 C   0  0  0  0  0  0  0  0  0  0  0  0
   -1.0811    0.8249    0.0000 C   0  0  0  0  0  0  0  0  0  0  0  0
    3.2433    0.8249    0.0000 C   0  0  0  0  0  0  0  0  0  0  0  0
    3.9683   -0.4124    0.0000 C   0  0  0  0  0  0  0  0  0  0  0  0
   -1.7935   -2.0748    0.0000 C   0  0  0  0  0  0  0  0  0  0  0  0
   -1.0936    1.6623    0.0000 C   0  0  0  0  0  0  0  0  0  0  0  0
    3.9683    0.4124    0.0000 C   0  0  0  0  0  0  0  0  0  0  0  0
   -2.5184    0.8249    0.0000 C   0  0  0  0  0  0  0  0  0  0  0  0
   -2.5184    1.6623    0.0000 C   0  0  0  0  0  0  0  0  0  0  0  0
   -3.2558    2.0748    0.0000 C   0  0  0  0  0  0  0  0  0  0  0  0
   -3.9558    0.8374    0.0000 C   0  0  0  0  0  0  0  0  0  0  0  0
  1 11  1  0  0  0  0
  2  9  1  0  0  0  0
  3 10  1  0  0  0  0
  3 15  1  0  0  0  0
  4 24  2  0  0  0  0
 12  5  1  1  0  0  0
  5 17  1  0  0  0  0
  6 24  1  0  0  0  0
  6 27  1  0  0  0  0
  7 28  1  0  0  0  0
  7 29  1  0  0  0  0
  8  9  2  0  0  0  0
  8 12  1  0  0  0  0
  8 13  1  0  0  0  0
  9 10  1  0  0  0  0
 10 11  2  0  0  0  0
 11 14  1  0  0  0  0
 12 16  1  0  0  0  0
 13 14  2  0  0  0  0
 15 18  2  0  0  0  0
 15 19  1  0  0  0  0
 16 23  1  0  0  0  0
 17 20  1  0  0  0  0
 17 26  1  1  0  0  0
 18 21  1  0  0  0  0
 19 22  2  0  0  0  0
 20 24  1  0  0  0  0
 21 25  2  0  0  0  0
 22 25  1  0  0  0  0
 27 28  1  0  0  0  0
M  END
> <PUBCHEM_COMPOUND_ID_TYPE>
0

> <PUBCHEM_TOTAL_CHARGE>
0

> <PUBCHEM_SUBSTANCE_ID>
310942221

> <PUBCHEM_SUBSTANCE_VERSION>
1

> <PUBCHEM_EXT_DATASOURCE_NAME>
4488

> <PUBCHEM_EXT_DATASOURCE_REGID>
SCHEMBL16120256

> <PUBCHEM_SUBSTANCE_COMMENT>
InChI=1S/C22H29ClFN3O2/c1-4-19(27-15(2)14-20(28)26-13-12-25-3)17-10-11-18(23)22(21(17)24)29-16-8-6-5-7-9-16/h5-11,15,19,25,27H,4,12-14H2,1-3H3,(H,26,28)/t15-,19+/m0/s1
InChIKey=MORVTLBOINEQNO-HNAYVOBHSA-N

> <PUBCHEM_SUBSTANCE_SYNONYM>
SCHEMBL16120256

> <PUBCHEM_XREF_EXT_ID>
SCHEMBL16120256

> <PUBCHEM_EXT_DATASOURCE_URL>
https://www.surechembl.org/

> <PUBCHEM_EXT_SUBSTANCE_URL>
https://www.surechembl.org/chemical/SCHEMBL16120256

> <PUBCHEM_CID_ASSOCIATIONS>
117608872  1

> <PUBCHEM_COORDINATE_TYPE>
1
3

> <PUBCHEM_BONDANNOTATIONS>
17  26  5
12  5  5

$$$$
