310949202
  -OEChem-07211613022D

 43 50  0     0  0  0  0  0  0999 V2000
    0.8053    3.2080    0.0000 O   0  0  0  0  0  0  0  0  0  0  0  0
    0.8184    1.5320    0.0000 N   0  0  0  0  0  0  0  0  0  0  0  0
   -1.3290    1.0868    0.0000 N   0  0  0  0  0  0  0  0  0  0  0  0
    2.9526    1.0737    0.0000 N   0  0  0  0  0  0  0  0  0  0  0  0
   -0.5303   -1.0606    0.0000 C   0  0  0  0  0  0  0  0  0  0  0  0
    0.0851   -0.5106    0.0000 C   0  0  0  0  0  0  0  0  0  0  0  0
   -0.1767   -1.8070    0.0000 C   0  0  0  0  0  0  0  0  0  0  0  0
    0.8053   -0.9034    0.0000 C   0  0  0  0  0  0  0  0  0  0  0  0
    0.6219   -1.7284    0.0000 C   0  0  0  0  0  0  0  0  0  0  0  0
    0.0982    0.3274    0.0000 C   0  0  0  0  0  0  0  0  0  0  0  0
   -1.3814   -1.7546    0.0000 C   0  0  0  0  0  0  0  0  0  0  0  0
   -1.7218   -0.4452    0.0000 C   0  0  0  0  0  0  0  0  0  0  0  0
    0.7922    0.7332    0.0000 C   0  0  0  0  0  0  0  0  0  0  0  0
    1.4992   -0.5106    0.0000 C   0  0  0  0  0  0  0  0  0  0  0  0
    1.5123    0.3143    0.0000 C   0  0  0  0  0  0  0  0  0  0  0  0
   -0.5172   -2.5664    0.0000 C   0  0  0  0  0  0  0  0  0  0  0  0
    1.1064   -2.3962    0.0000 C   0  0  0  0  0  0  0  0  0  0  0  0
    0.0720    1.9772    0.0000 C   0  0  0  0  0  0  0  0  0  0  0  0
    1.4992    1.9903    0.0000 C   0  0  0  0  0  0  0  0  0  0  0  0
   -0.6089    0.7202    0.0000 C   0  0  0  0  0  0  0  0  0  0  0  0
   -2.1147   -1.3749    0.0000 C   0  0  0  0  0  0  0  0  0  0  0  0
   -1.3160    0.2619    0.0000 C   0  0  0  0  0  0  0  0  0  0  0  0
   -1.4076   -2.5926    0.0000 C   0  0  0  0  0  0  0  0  0  0  0  0
   -2.5598   -0.4190    0.0000 C   0  0  0  0  0  0  0  0  0  0  0  0
   -0.0589   -3.2080    0.0000 C   0  0  0  0  0  0  0  0  0  0  0  0
    0.0851    2.8021    0.0000 C   0  0  0  0  0  0  0  0  0  0  0  0
    1.5123    2.8021    0.0000 C   0  0  0  0  0  0  0  0  0  0  0  0
    0.7922   -3.1163    0.0000 C   0  0  0  0  0  0  0  0  0  0  0  0
    2.2194    0.7071    0.0000 C   0  0  0  0  0  0  0  0  0  0  0  0
   -2.7956   -1.7677    0.0000 C   0  0  0  0  0  0  0  0  0  0  0  0
   -1.7218    0.9558    0.0000 C   0  0  0  0  0  0  0  0  0  0  0  0
   -2.0885   -2.9985    0.0000 C   0  0  0  0  0  0  0  0  0  0  0  0
   -2.9526    0.2488    0.0000 C   0  0  0  0  0  0  0  0  0  0  0  0
   -0.6350    1.5844    0.0000 C   0  0  0  0  0  0  0  0  0  0  0  0
    2.2325    1.5712    0.0000 C   0  0  0  0  0  0  0  0  0  0  0  0
   -2.8087   -2.5926    0.0000 C   0  0  0  0  0  0  0  0  0  0  0  0
   -2.5598    0.9821    0.0000 C   0  0  0  0  0  0  0  0  0  0  0  0
   -0.6219    3.2080    0.0000 C   0  0  0  0  0  0  0  0  0  0  0  0
    2.2063    3.1949    0.0000 C   0  0  0  0  0  0  0  0  0  0  0  0
   -1.3552    1.9772    0.0000 C   0  0  0  0  0  0  0  0  0  0  0  0
    2.9134    1.9772    0.0000 C   0  0  0  0  0  0  0  0  0  0  0  0
   -1.3421    2.8021    0.0000 C   0  0  0  0  0  0  0  0  0  0  0  0
    2.9265    2.8152    0.0000 C   0  0  0  0  0  0  0  0  0  0  0  0
  1 26  1  0  0  0  0
  1 27  1  0  0  0  0
  2 13  1  0  0  0  0
  2 18  1  0  0  0  0
  2 19  1  0  0  0  0
  3 20  3  0  0  0  0
  4 29  3  0  0  0  0
  5  6  1  0  0  0  0
  5  7  1  0  0  0  0
  5 11  1  0  0  0  0
  5 12  1  0  0  0  0
  6  8  1  0  0  0  0
  6 10  2  0  0  0  0
  7  9  2  0  0  0  0
  7 16  1  0  0  0  0
  8  9  1  0  0  0  0
  8 14  2  0  0  0  0
  9 17  1  0  0  0  0
 10 13  1  0  0  0  0
 10 20  1  0  0  0  0
 11 21  2  0  0  0  0
 11 23  1  0  0  0  0
 12 22  2  0  0  0  0
 12 24  1  0  0  0  0
 13 15  2  0  0  0  0
 14 15  1  0  0  0  0
 15 29  1  0  0  0  0
 16 25  2  0  0  0  0
 17 28  2  0  0  0  0
 18 26  2  0  0  0  0
 18 34  1  0  0  0  0
 19 27  2  0  0  0  0
 19 35  1  0  0  0  0
 21 30  1  0  0  0  0
 22 31  1  0  0  0  0
 23 32  2  0  0  0  0
 24 33  2  0  0  0  0
 25 28  1  0  0  0  0
 26 38  1  0  0  0  0
 27 39  1  0  0  0  0
 30 36  2  0  0  0  0
 31 37  2  0  0  0  0
 32 36  1  0  0  0  0
 33 37  1  0  0  0  0
 34 40  2  0  0  0  0
 35 41  2  0  0  0  0
 38 42  2  0  0  0  0
 39 43  2  0  0  0  0
 40 42  1  0  0  0  0
 41 43  1  0  0  0  0
M  END
> <PUBCHEM_COMPOUND_ID_TYPE>
0

> <PUBCHEM_TOTAL_CHARGE>
0

> <PUBCHEM_SUBSTANCE_ID>
310949202

> <PUBCHEM_SUBSTANCE_VERSION>
1

> <PUBCHEM_EXT_DATASOURCE_NAME>
4488

> <PUBCHEM_EXT_DATASOURCE_REGID>
SCHEMBL16127392

> <PUBCHEM_SUBSTANCE_COMMENT>
InChI=1S/C39H23N3O/c40-24-26-23-30-29-17-7-8-18-32(29)39(27-13-3-1-4-14-27,28-15-5-2-6-16-28)37(30)31(25-41)38(26)42-33-19-9-11-21-35(33)43-36-22-12-10-20-34(36)42/h1-23H
InChIKey=XGUVSNINDDJSOP-UHFFFAOYSA-N

> <PUBCHEM_SUBSTANCE_SYNONYM>
SCHEMBL16127392

> <PUBCHEM_XREF_EXT_ID>
SCHEMBL16127392

> <PUBCHEM_EXT_DATASOURCE_URL>
https://www.surechembl.org/

> <PUBCHEM_EXT_SUBSTANCE_URL>
https://www.surechembl.org/chemical/SCHEMBL16127392

> <PUBCHEM_CID_ASSOCIATIONS>
117614690  1

> <PUBCHEM_COORDINATE_TYPE>
1
3

$$$$
