310944255
  -OEChem-07211613022D

 13 13  0     0  0  0  0  0  0999 V2000
    0.0249    1.8386    0.0000 F   0  0  0  0  0  0  0  0  0  0  0  0
    0.0249   -0.5863    0.0000 C   0  0  0  0  0  0  0  0  0  0  0  0
   -0.0149   -1.4013    0.0000 C   0  0  0  0  0  0  0  0  0  0  0  0
    0.0149    1.0436    0.0000 C   0  0  0  0  0  0  0  0  0  0  0  0
    0.7404    0.6460    0.0000 C   0  0  0  0  0  0  0  0  0  0  0  0
   -0.7205    0.6361    0.0000 C   0  0  0  0  0  0  0  0  0  0  0  0
    0.7305   -0.1789    0.0000 C   0  0  0  0  0  0  0  0  0  0  0  0
   -0.7205   -0.1888    0.0000 C   0  0  0  0  0  0  0  0  0  0  0  0
   -0.8099   -1.2224    0.0000 C   0  0  0  0  0  0  0  0  0  0  0  0
   -0.7205   -1.8386    0.0000 C   0  0  0  0  0  0  0  0  0  0  0  0
    0.7603   -1.8187    0.0000 C   0  0  0  0  0  0  0  0  0  0  0  0
    1.4560    1.0534    0.0000 C   0  0  0  0  0  0  0  0  0  0  0  0
   -1.4560    1.0336    0.0000 C   0  0  0  0  0  0  0  0  0  0  0  0
  1  4  1  0  0  0  0
  2  3  1  0  0  0  0
  2  7  2  0  0  0  0
  2  8  1  0  0  0  0
  3  9  1  0  0  0  0
  3 10  1  0  0  0  0
  3 11  1  0  0  0  0
  4  5  2  0  0  0  0
  4  6  1  0  0  0  0
  5  7  1  0  0  0  0
  5 12  1  0  0  0  0
  6  8  2  0  0  0  0
  6 13  1  0  0  0  0
M  END
> <PUBCHEM_COMPOUND_ID_TYPE>
0

> <PUBCHEM_TOTAL_CHARGE>
0

> <PUBCHEM_SUBSTANCE_ID>
310944255

> <PUBCHEM_SUBSTANCE_VERSION>
1

> <PUBCHEM_EXT_DATASOURCE_NAME>
4488

> <PUBCHEM_EXT_DATASOURCE_REGID>
SCHEMBL16122330

> <PUBCHEM_SUBSTANCE_COMMENT>
InChI=1S/C12H17F/c1-8-6-10(12(3,4)5)7-9(2)11(8)13/h6-7H,1-5H3
InChIKey=QKGNMYGTRABAOP-UHFFFAOYSA-N

> <PUBCHEM_SUBSTANCE_SYNONYM>
SCHEMBL16122330

> <PUBCHEM_XREF_EXT_ID>
SCHEMBL16122330

> <PUBCHEM_EXT_DATASOURCE_URL>
https://www.surechembl.org/

> <PUBCHEM_EXT_SUBSTANCE_URL>
https://www.surechembl.org/chemical/SCHEMBL16122330

> <PUBCHEM_CID_ASSOCIATIONS>
13741081  1

> <PUBCHEM_COORDINATE_TYPE>
1
3

$$$$
